
#######################################################################
#
#                 Cambridge Crystallographic Data Centre
#                                CCDC 
#
#######################################################################
#
# If this CIF has been generated from an entry in the Cambridge 
# Structural Database, then it will include bibliographic, chemical, 
# crystal, experimental, refinement or atomic coordinate data resulting 
# from the CCDC's data processing and validation procedures.
#
#######################################################################

data_NAJTOJ
_chemical_formula_moiety         'C32 H54 Ba2 Cl4 N4 O23'
_chemical_name_systematic        
(\m~2~-perchlorato-O,O',O'')-(\m~2~-perchlorato-O,O')-(perchlorato-O,O')-bis(1,13-dimethyl-1,2,3,5,6,8,9,11,12,13-decahydro-4,7,10,1,13-benzotrioxadiazacyclopentadecine)-aqua-perchlorato-di-barium
_symmetry_cell_setting           triclinic
_symmetry_space_group_name_H-M   'P -1'
_symmetry_Int_Tables_number      2
_space_group_name_Hall           '-P 1'
loop_
_symmetry_equiv_pos_site_id
_symmetry_equiv_pos_as_xyz
1 x,y,z
2 -x,-y,-z
_cell_length_a                   10.0303(8)
_cell_length_b                   10.3858(8)
_cell_length_c                   23.6537(19)
_cell_angle_alpha                82.597(4)
_cell_angle_beta                 79.106(4)
_cell_angle_gamma                71.101(4)
_cell_volume                     2283.15
_exptl_crystal_colour            colorless
_exptl_crystal_description       block
_chemical_melting_point          '345-347deg. C(dec.)'
_cell_formula_units_Z            2
_exptl_crystal_recrystallization_method benzene/acetonitrile
loop_
_atom_site_label
_atom_site_type_symbol
_atom_site_fract_x
_atom_site_fract_y
_atom_site_fract_z
Ba1 Ba 0.67809(2) 0.62571(2) 0.158974(10)
Ba2 Ba 0.40813(2) 0.30073(2) 0.339731(10)
Cl1 Cl 0.41382(11) 0.44781(11) 0.16930(4)
O1 O 0.3868(4) 0.5945(3) 0.16789(17)
O2 O 0.5672(3) 0.3895(4) 0.15820(15)
O3 O 0.3561(4) 0.3991(4) 0.22500(14)
O4 O 0.3493(5) 0.4189(5) 0.12597(16)
Cl2 Cl 0.60958(12) 0.56740(13) 0.31951(6)
O5 O 0.7260(6) 0.4809(10) 0.2882(4)
O6 O 0.5365(7) 0.6579(8) 0.27489(19)
O7 O 0.5149(5) 0.5081(5) 0.3543(2)
O8 O 0.6576(5) 0.6453(4) 0.35239(17)
Cl3 Cl 0.93901(11) 0.29014(11) 0.14194(5)
O9 O 0.8869(4) 0.4026(3) 0.09977(15)
O10 O 0.8631(4) 0.3408(5) 0.19709(16)
O11 O 1.0893(4) 0.2612(4) 0.13869(16)
O12 O 0.9059(4) 0.1746(4) 0.1299(2)
Cl4 Cl 0.80497(10) 0.01903(10) 0.36653(4)
O13 O 0.6629(3) 0.1132(4) 0.37786(15)
O14 O 0.8737(3) 0.0536(4) 0.31044(14)
O15 O 0.8853(4) 0.0279(3) 0.40925(15)
O16 O 0.7965(4) -0.1164(4) 0.36913(17)
O17 O 0.8672(3) 0.7086(3) 0.07121(13)
O18 O 0.9204(3) 0.6771(3) 0.18324(14)
O19 O 0.6726(3) 0.8798(3) 0.18566(14)
O20 O 0.3436(3) 0.1089(3) 0.42159(13)
O21 O 0.3393(3) 0.0762(3) 0.31127(14)
O22 O 0.1344(3) 0.3230(3) 0.32763(13)
O23 O 0.6360(4) 0.2170(4) 0.25796(18)
H1 H 0.662(10) 0.249(10) 0.280(4)
H2 H 0.645(7) 0.254(7) 0.229(3)
N1 N 0.6036(4) 0.6982(4) 0.04321(15)
N2 N 0.4413(4) 0.8738(4) 0.13394(15)
N3 N 0.3194(4) 0.3658(4) 0.45927(15)
N4 N 0.1786(4) 0.5554(4) 0.37081(15)
C1 C 0.3787(4) 0.8656(4) 0.08404(18)
C2 C 0.2383(5) 0.9438(5) 0.0795(2)
C3 C 0.1766(5) 0.9388(5) 0.0326(2)
C4 C 0.2551(5) 0.8584(5) -0.0114(2)
C5 C 0.3953(5) 0.7807(5) -0.0078(2)
C6 C 0.4581(5) 0.7820(4) 0.03958(19)
C7 C 0.7042(5) 0.7583(5) 0.0034(2)
C8 C 0.8576(5) 0.6917(5) 0.0133(2)
C9 C 1.0109(5) 0.6617(5) 0.0832(2)
C10 C 1.0136(5) 0.7221(6) 0.1359(2)
C11 C 0.8766(5) 0.7605(5) 0.2304(2)
C12 C 0.7734(5) 0.9000(5) 0.2165(2)
C13 C 0.5719(5) 1.0073(4) 0.1700(2)
C14 C 0.5036(5) 0.9869(4) 0.1216(2)
C15 C 0.6270(5) 0.5569(5) 0.0280(2)
C16 C 0.3355(5) 0.8948(5) 0.1870(2)
C17 C 0.1802(4) 0.6002(4) 0.42631(18)
C18 C 0.1135(5) 0.7360(5) 0.4388(2)
C19 C 0.1104(5) 0.7809(5) 0.4916(2)
C20 C 0.1713(5) 0.6900(5) 0.5340(2)
C21 C 0.2377(5) 0.5552(5) 0.5232(2)
C22 C 0.2448(4) 0.5078(4) 0.46911(18)
C23 C 0.2301(5) 0.2811(5) 0.4888(2)
C24 C 0.2971(5) 0.1302(5) 0.4818(2)
C25 C 0.3656(7) -0.0265(5) 0.4088(2)
C26 C 0.4158(6) -0.0393(5) 0.3449(2)
C27 C 0.1912(5) 0.0896(5) 0.3143(2)
C28 C 0.1192(5) 0.2302(5) 0.2903(2)
C29 C 0.0363(5) 0.4563(5) 0.3226(2)
C30 C 0.0389(5) 0.5326(5) 0.3719(2)
C31 C 0.4605(5) 0.3228(5) 0.4788(2)
C32 C 0.1991(5) 0.6570(5) 0.3227(2)
H3 H 0.186(6) 1.006(5) 0.110(2)
H4 H 0.079(6) 0.993(6) 0.030(2)
H5 H 0.219(5) 0.853(5) -0.042(2)
H6 H 0.450(5) 0.720(5) -0.033(2)
H7 H 0.672(5) 0.839(5) 0.015(2)
H8 H 0.689(7) 0.746(7) -0.039(3)
H9 H 0.904(9) 0.590(9) 0.001(4)
H10 H 0.917(5) 0.737(5) -0.017(2)
H11 H 1.070(5) 0.694(5) 0.055(2)
H12 H 1.046(6) 0.580(6) 0.087(3)
H13 H 1.105(7) 0.696(6) 0.143(3)
H14 H 0.983(5) 0.820(5) 0.1317(19)
H15 H 0.966(7) 0.763(7) 0.239(3)
H16 H 0.835(5) 0.710(5) 0.261(2)
H17 H 0.739(4) 0.938(4) 0.253(2)
H18 H 0.818(7) 0.952(6) 0.206(3)
H19 H 0.613(4) 1.076(4) 0.1568(18)
H20 H 0.506(6) 1.036(6) 0.198(2)
H21 H 0.417(5) 1.084(5) 0.122(2)
H22 H 0.576(6) 0.968(6) 0.083(2)
H23 H 0.633(6) 0.556(6) -0.010(3)
H24 H 0.549(6) 0.526(5) 0.042(2)
H25 H 0.718(5) 0.494(5) 0.041(2)
H26 H 0.264(6) 1.000(6) 0.185(3)
H27 H 0.387(5) 0.872(5) 0.222(2)
H28 H 0.288(6) 0.822(6) 0.193(3)
H29 H 0.069(5) 0.806(5) 0.409(2)
H30 H 0.057(6) 0.877(6) 0.501(2)
H31 H 0.171(5) 0.715(5) 0.571(2)
H32 H 0.274(5) 0.479(5) 0.556(2)
H33 H 0.139(6) 0.321(6) 0.470(3)
H34 H 0.216(5) 0.283(5) 0.524(2)
H35 H 0.398(7) 0.092(6) 0.489(3)
H36 H 0.218(6) 0.090(5) 0.494(2)
H37 H 0.273(6) -0.057(5) 0.425(2)
H38 H 0.412(6) -0.073(6) 0.432(2)
H39 H 0.509(6) -0.038(6) 0.332(2)
H40 H 0.408(5) -0.128(5) 0.331(2)
H41 H 0.147(4) 0.092(4) 0.3569(19)
H42 H 0.179(6) 0.010(6) 0.291(3)
H43 H 0.165(6) 0.246(6) 0.249(3)
H44 H 0.029(7) 0.236(6) 0.288(2)
H45 H -0.048(6) 0.452(5) 0.320(2)
H46 H 0.074(7) 0.487(7) 0.284(3)
H47 H -0.041(5) 0.619(5) 0.3752(18)
H48 H 0.019(5) 0.488(5) 0.406(2)
H49 H 0.442(5) 0.323(5) 0.525(2)
H50 H 0.494(6) 0.390(6) 0.465(2)
H51 H 0.525(6) 0.226(6) 0.461(2)
H52 H 0.123(6) 0.729(6) 0.326(2)
H53 H 0.221(5) 0.606(5) 0.287(2)
H54 H 0.273(6) 0.698(6) 0.327(2)
loop_
_geom_bond_atom_site_label_1
_geom_bond_atom_site_label_2
_geom_bond_site_symmetry_1
_geom_bond_site_symmetry_2
Ba1 O1 1_555 1_555
Ba2 O3 1_555 1_555
Cl1 O1 1_555 1_555
O2 Ba1 1_555 1_555
O3 Cl1 1_555 1_555
O4 Cl1 1_555 1_555
Cl2 O5 1_555 1_555
O6 Ba1 1_555 1_555
O7 Ba2 1_555 1_555
O8 Cl2 1_555 1_555
Cl3 O9 1_555 1_555
O9 Ba1 1_555 1_555
O10 Ba1 1_555 1_555
O11 Cl3 1_555 1_555
O12 Cl3 1_555 1_555
Cl4 O13 1_555 1_555
O13 Ba2 1_555 1_555
O14 Cl4 1_555 1_555
O15 Cl4 1_555 1_555
O16 Cl4 1_555 1_555
O17 Ba1 1_555 1_555
O18 Ba1 1_555 1_555
O19 Ba1 1_555 1_555
O20 Ba2 1_555 1_555
O21 Ba2 1_555 1_555
O22 Ba2 1_555 1_555
O23 Ba2 1_555 1_555
H1 O23 1_555 1_555
H2 O23 1_555 1_555
N1 Ba1 1_555 1_555
N2 Ba1 1_555 1_555
N3 Ba2 1_555 1_555
N4 Ba2 1_555 1_555
C1 N2 1_555 1_555
C2 C1 1_555 1_555
C3 C2 1_555 1_555
C4 C3 1_555 1_555
C5 C4 1_555 1_555
C6 N1 1_555 1_555
C7 N1 1_555 1_555
C8 O17 1_555 1_555
C9 O17 1_555 1_555
C10 O18 1_555 1_555
C11 O18 1_555 1_555
C12 O19 1_555 1_555
C13 O19 1_555 1_555
C14 N2 1_555 1_555
C15 N1 1_555 1_555
C16 N2 1_555 1_555
C17 N4 1_555 1_555
C18 C17 1_555 1_555
C19 C18 1_555 1_555
C20 C19 1_555 1_555
C21 C20 1_555 1_555
C22 N3 1_555 1_555
C23 N3 1_555 1_555
C24 O20 1_555 1_555
C25 O20 1_555 1_555
C26 O21 1_555 1_555
C27 O21 1_555 1_555
C28 O22 1_555 1_555
C29 O22 1_555 1_555
C30 N4 1_555 1_555
C31 N3 1_555 1_555
C32 N4 1_555 1_555
H3 C2 1_555 1_555
H4 C3 1_555 1_555
H5 C4 1_555 1_555
H6 C5 1_555 1_555
H7 C7 1_555 1_555
H8 C7 1_555 1_555
H9 C8 1_555 1_555
H10 C8 1_555 1_555
H11 C9 1_555 1_555
H12 C9 1_555 1_555
H13 C10 1_555 1_555
H14 C10 1_555 1_555
H15 C11 1_555 1_555
H16 C11 1_555 1_555
H17 C12 1_555 1_555
H18 C12 1_555 1_555
H19 C13 1_555 1_555
H20 C13 1_555 1_555
H21 C14 1_555 1_555
H22 C14 1_555 1_555
H23 C15 1_555 1_555
H24 C15 1_555 1_555
H25 C15 1_555 1_555
H26 C16 1_555 1_555
H27 C16 1_555 1_555
H28 C16 1_555 1_555
H29 C18 1_555 1_555
H30 C19 1_555 1_555
H31 C20 1_555 1_555
H32 C21 1_555 1_555
H33 C23 1_555 1_555
H34 C23 1_555 1_555
H35 C24 1_555 1_555
H36 C24 1_555 1_555
H37 C25 1_555 1_555
H38 C25 1_555 1_555
H39 C26 1_555 1_555
H40 C26 1_555 1_555
H41 C27 1_555 1_555
H42 C27 1_555 1_555
H43 C28 1_555 1_555
H44 C28 1_555 1_555
H45 C29 1_555 1_555
H46 C29 1_555 1_555
H47 C30 1_555 1_555
H48 C30 1_555 1_555
H49 C31 1_555 1_555
H50 C31 1_555 1_555
H51 C31 1_555 1_555
H52 C32 1_555 1_555
H53 C32 1_555 1_555
H54 C32 1_555 1_555
Cl1 O2 1_555 1_555
Cl2 O6 1_555 1_555
Cl2 O7 1_555 1_555
Cl3 O10 1_555 1_555
C1 C6 1_555 1_555
C5 C6 1_555 1_555
C7 C8 1_555 1_555
C9 C10 1_555 1_555
C11 C12 1_555 1_555
C13 C14 1_555 1_555
C17 C22 1_555 1_555
C21 C22 1_555 1_555
C23 C24 1_555 1_555
C25 C26 1_555 1_555
C27 C28 1_555 1_555
C29 C30 1_555 1_555

#END
