
#######################################################################
#
#                 Cambridge Crystallographic Data Centre
#                                CCDC 
#
#######################################################################
#
# If this CIF has been generated from an entry in the Cambridge 
# Structural Database, then it will include bibliographic, chemical, 
# crystal, experimental, refinement or atomic coordinate data resulting 
# from the CCDC's data processing and validation procedures.
#
#######################################################################

data_NAJTIE
_chemical_formula_moiety         'C16 H14 O3'
_chemical_name_systematic        
3',4'-dihydro-3H-spiro[1-benzofuran-2,2'-chromen]-3-ol
_symmetry_cell_setting           orthorhombic
_symmetry_space_group_name_H-M   'P 21 21 21'
_symmetry_Int_Tables_number      19
_space_group_name_Hall           'P 2ac 2ab'
loop_
_symmetry_equiv_pos_site_id
_symmetry_equiv_pos_as_xyz
1 x,y,z
2 1/2+x,1/2-y,-z
3 -x,1/2+y,1/2-z
4 1/2-x,-y,1/2+z
_cell_length_a                   11.4575(2)
_cell_length_b                   20.4772(4)
_cell_length_c                   37.6994(7)
_cell_angle_alpha                90
_cell_angle_beta                 90
_cell_angle_gamma                90
_cell_volume                     8844.94
_exptl_crystal_colour            colorless
_exptl_crystal_description       prism
_cell_formula_units_Z            28
loop_
_atom_site_label
_atom_site_type_symbol
_atom_site_fract_x
_atom_site_fract_y
_atom_site_fract_z
O1 O 0.32679(9) 0.91746(6) 0.81996(3)
O2 O 0.21111(10) 0.82442(5) 0.82125(3)
O3 O 0.15166(10) 0.99255(5) 0.80248(3)
H1 H 0.1885 1.0054 0.7852
C1 C 0.28904(14) 0.85872(8) 0.76494(4)
H2 H 0.3018 0.8963 0.7497
H3 H 0.2311 0.8310 0.7537
C2 C -0.07918(14) 0.88674(9) 0.87590(4)
H4 H -0.1438 0.9022 0.8882
C3 C -0.03236(14) 0.92340(8) 0.84824(4)
H5 H -0.0650 0.9633 0.8419
C4 C 0.06406(14) 0.89902(8) 0.83039(4)
C5 C 0.13125(13) 0.92479(8) 0.79933(4)
H6 H 0.0881 0.9160 0.7774
C6 C 0.24374(14) 0.88146(8) 0.80050(4)
C7 C 0.44463(14) 0.90595(8) 0.81487(4)
C8 C 0.48726(14) 0.86042(8) 0.79083(4)
C9 C 0.60776(15) 0.85355(8) 0.78812(4)
H7 H 0.6382 0.8238 0.7720
C10 C 0.68347(15) 0.88994(9) 0.80886(4)
H8 H 0.7637 0.8840 0.8069
C11 C 0.11343(14) 0.84068(8) 0.84078(4)
C12 C -0.02999(15) 0.82715(9) 0.88522(4)
H9 H -0.0637 0.8028 0.9033
C13 C 0.06862(15) 0.80311(8) 0.86807(4)
H10 H 0.1027 0.7637 0.8746
C14 C 0.40281(14) 0.82097(8) 0.76889(4)
H11 H 0.3879 0.7794 0.7803
H12 H 0.4361 0.8125 0.7457
C15 C 0.51913(14) 0.94406(8) 0.83536(4)
H13 H 0.4888 0.9751 0.8508
C16 C 0.63855(15) 0.93552(9) 0.83263(5)
H14 H 0.6888 0.9602 0.8466
O4 O 0.19359(10) 0.19230(5) 0.59004(3)
O5 O 0.24290(10) 0.01841(5) 0.58961(3)
H15 H 0.2083 0.0020 0.5728
O6 O 0.07564(9) 0.10434(5) 0.60479(3)
C17 C 0.42000(16) 0.21046(9) 0.65834(5)
H16 H 0.4525 0.2409 0.6738
C18 C 0.32851(16) 0.22931(8) 0.63620(4)
H17 H 0.2979 0.2714 0.6368
C19 C 0.28560(14) 0.18247(8) 0.61327(4)
C20 C 0.15473(14) 0.12807(8) 0.57907(4)
C21 C 0.10047(15) 0.13213(8) 0.54290(4)
H18 H 0.0779 0.0888 0.5352
H19 H 0.1572 0.1490 0.5262
C22 C -0.00662(14) 0.17647(8) 0.54329(4)
H20 H 0.0176 0.2216 0.5459
H21 H -0.0487 0.1723 0.5211
C23 C -0.08487(15) 0.15773(8) 0.57361(4)
C24 C -0.20338(15) 0.17395(8) 0.57437(4)
H22 H -0.2353 0.1974 0.5556
C25 C -0.27429(15) 0.15597(9) 0.60241(5)
H23 H -0.3527 0.1676 0.6025
C26 C 0.46347(15) 0.14722(9) 0.65778(5)
H24 H 0.5231 0.1355 0.6733
C27 C 0.41874(14) 0.10098(9) 0.63422(4)
H25 H 0.4480 0.0586 0.6337
C28 C 0.32976(14) 0.11980(8) 0.61158(4)
C29 C 0.26557(14) 0.08480(8) 0.58234(4)
H26 H 0.3109 0.0881 0.5604
C30 C -0.04063(14) 0.12280(8) 0.60228(4)
C31 C -0.22790(15) 0.12049(9) 0.63035(5)
H27 H -0.2754 0.1082 0.6492
C32 C -0.11120(14) 0.10328(8) 0.63030(4)
H28 H -0.0802 0.0789 0.6489
O7 O 0.18649(10) 0.19360(6) 0.88867(3)
O8 O 0.07371(10) 0.10034(6) 0.89421(3)
O9 O 0.24488(10) 0.02373(5) 0.87186(3)
H29 H 0.2060 0.0107 0.8550
C33 C 0.44005(16) 0.19727(9) 0.94832(5)
H30 H 0.4784 0.2239 0.9645
C34 C 0.33860(16) 0.22024(9) 0.93197(5)
H31 H 0.3073 0.2609 0.9374
C35 C 0.28727(15) 0.17929(8) 0.90738(4)
C36 C 0.15038(15) 0.13378(8) 0.87093(4)
C37 C -0.04485(14) 0.10009(8) 0.88808(4)
C38 C -0.10992(15) 0.05713(8) 0.90880(4)
H32 H -0.0730 0.0300 0.9251
C39 C -0.23017(15) 0.05520(9) 0.90496(5)
H33 H -0.2745 0.0271 0.9189
C40 C -0.28434(15) 0.09541(10) 0.88015(5)
H34 H -0.3650 0.0943 0.8776
C41 C 0.48513(15) 0.13597(10) 0.94107(5)
H35 H 0.5514 0.1215 0.9529
C42 C 0.43141(14) 0.09580(9) 0.91599(4)
H36 H 0.4606 0.0544 0.9111
C43 C 0.33368(14) 0.11909(8) 0.89858(4)
C44 C 0.26269(14) 0.09174(8) 0.86861(4)
H37 H 0.3024 0.1008 0.8461
C45 C 0.09559(15) 0.15124(8) 0.83589(4)
H38 H 0.0857 0.1119 0.8218
H39 H 0.1472 0.1804 0.8230
C46 C -0.02216(15) 0.18413(8) 0.84082(4)
H40 H -0.0121 0.2260 0.8524
H41 H -0.0586 0.1914 0.8179
C47 C -0.09776(15) 0.14040(8) 0.86320(4)
C48 C -0.21845(15) 0.13678(9) 0.85947(4)
H42 H -0.2553 0.1628 0.8427
O10 O 0.29229(9) 0.91290(6) 0.68113(3)
O11 O 0.15746(10) 0.82902(5) 0.67701(3)
O12 O 0.14101(10) 1.00129(5) 0.66037(3)
H43 H 0.1815 1.0112 0.6433
C49 C 0.64671(16) 0.88058(10) 0.66773(5)
H44 H 0.7265 0.8734 0.6653
C50 C 0.56858(16) 0.84532(9) 0.64765(5)
H45 H 0.5968 0.8150 0.6314
C51 C 0.44820(15) 0.85387(8) 0.65098(4)
C52 C 0.40941(14) 0.90002(8) 0.67532(4)
C53 C 0.20688(14) 0.88532(8) 0.65869(4)
C54 C 0.06287(14) 0.85114(8) 0.69642(4)
C55 C 0.00516(14) 0.81486(8) 0.72183(4)
H46 H 0.0262 0.7720 0.7269
C56 C -0.08645(14) 0.84581(8) 0.73951(4)
H47 H -0.1284 0.8228 0.7565
C57 C 0.03066(13) 0.91409(8) 0.68757(4)
C58 C -0.05834(14) 0.94479(8) 0.70592(4)
H48 H -0.0789 0.9877 0.7007
C59 C -0.11647(14) 0.91006(8) 0.73230(4)
H49 H -0.1758 0.9301 0.7452
C60 C 0.10529(14) 0.93563(8) 0.65716(4)
H50 H 0.0621 0.9300 0.6349
C61 C 0.25468(14) 0.86333(8) 0.62353(4)
H51 H 0.2774 0.9012 0.6097
H52 H 0.1945 0.8402 0.6105
C62 C 0.36004(15) 0.81876(8) 0.62852(4)
H53 H 0.3364 0.7785 0.6400
H54 H 0.3938 0.8080 0.6057
C63 C 0.48673(15) 0.93692(9) 0.69542(5)
H55 H 0.4588 0.9680 0.7113
C64 C 0.60583(16) 0.92717(10) 0.69171(5)
H56 H 0.6582 0.9515 0.7051
O13 O 0.21370(10) 0.19157(6) 0.74693(3)
O14 O 0.08719(10) 0.10372(6) 0.75275(3)
O15 O 0.24616(10) 0.01883(5) 0.73317(3)
H57 H 0.2059 0.0067 0.7164
C65 C 0.45852(15) 0.18533(9) 0.80945(4)
H58 H 0.4977 0.2104 0.8262
C66 C 0.36428(15) 0.21258(9) 0.79126(5)
H59 H 0.3389 0.2549 0.7957
C67 C 0.31069(14) 0.17323(8) 0.76628(4)
C68 C 0.16939(14) 0.13287(8) 0.72979(4)
C69 C -0.03046(14) 0.11472(8) 0.74788(4)
C70 C -0.07345(15) 0.15963(8) 0.72347(4)
C71 C -0.19414(15) 0.16757(9) 0.72140(5)
H60 H -0.2250 0.1977 0.7055
C72 C -0.26874(16) 0.13164(10) 0.74252(5)
H61 H -0.3489 0.1380 0.7410
C73 C 0.49506(14) 0.12198(9) 0.80313(5)
H62 H 0.5564 0.1046 0.8162
C74 C 0.44054(14) 0.08373(9) 0.77719(4)
H63 H 0.4653 0.0413 0.7726
C75 C 0.34873(14) 0.11109(8) 0.75860(4)
C76 C 0.27519(14) 0.08529(8) 0.72868(4)
H64 H 0.3171 0.0909 0.7062
C77 C -0.10445(14) 0.07744(8) 0.76894(4)
H65 H -0.0739 0.0471 0.7848
C78 C -0.22376(15) 0.08583(9) 0.76616(5)
H66 H -0.2739 0.0609 0.7801
C79 C 0.01060(15) 0.19491(8) 0.69968(4)
H67 H 0.0328 0.2362 0.7103
H68 H -0.0259 0.2038 0.6770
C80 C 0.11830(14) 0.15229(8) 0.69441(4)
H69 H 0.0972 0.1134 0.6812
H70 H 0.1762 0.1761 0.6808
O16 O 0.39750(9) 0.91727(6) 0.54476(3)
O17 O 0.34226(10) 0.81365(5) 0.52652(3)
O18 O 0.21290(10) 0.97256(5) 0.51562(3)
H71 H 0.2537 0.9956 0.5028
C81 C 0.74875(16) 0.94746(10) 0.56532(5)
H72 H 0.8271 0.9551 0.5703
C82 C 0.71704(15) 0.91121(10) 0.53573(5)
H73 H 0.7750 0.8945 0.5211
C83 C 0.60030(15) 0.89929(8) 0.52750(4)
C84 C 0.51624(14) 0.92497(8) 0.55019(4)
C85 C 0.35786(14) 0.88094(8) 0.51518(4)
C86 C 0.22886(14) 0.80774(8) 0.53853(4)
C87 C 0.18593(16) 0.75512(8) 0.55742(4)
H74 H 0.2328 0.7195 0.5631
C88 C 0.06910(16) 0.75794(8) 0.56763(4)
H75 H 0.0369 0.7230 0.5800
C89 C -0.00014(16) 0.81146(9) 0.55979(4)
H76 H -0.0772 0.8126 0.5675
C90 C 0.56338(15) 0.86128(8) 0.49541(4)
H77 H 0.5641 0.8150 0.5008
H78 H 0.6178 0.8691 0.4762
C91 C 0.44092(14) 0.88193(8) 0.48417(4)
H79 H 0.4437 0.9256 0.4743
H80 H 0.4127 0.8526 0.4659
C92 C 0.66265(17) 0.97222(9) 0.58742(5)
H81 H 0.6833 0.9964 0.6074
C93 C 0.54608(16) 0.96104(8) 0.57987(5)
H82 H 0.4882 0.9777 0.5946
C94 C 0.23190(14) 0.90591(8) 0.50716(4)
H83 H 0.2137 0.8985 0.4821
C95 C 0.16025(15) 0.86095(8) 0.52955(4)
C96 C 0.04520(15) 0.86382(9) 0.54027(4)
H84 H -0.0011 0.8997 0.5347
O19 O 0.23592(10) 0.16994(5) 0.46105(3)
O20 O 0.13525(9) 0.07093(5) 0.46073(3)
O21 O 0.32262(10) 0.00517(5) 0.44311(3)
H85 H 0.2900 -0.0089 0.4253
C97 C 0.46629(17) 0.17818(10) 0.52854(5)
H86 H 0.4936 0.2041 0.5470
C98 C 0.36874(17) 0.19857(9) 0.50946(5)
H87 H 0.3295 0.2370 0.5150
C99 C 0.33334(15) 0.15854(8) 0.48186(4)
C100 C 0.21314(14) 0.11054(8) 0.44099(4)
C101 C 0.01670(14) 0.08469(8) 0.45825(4)
C102 C -0.02841(14) 0.13206(8) 0.43566(4)
C103 C -0.14820(15) 0.14378(9) 0.43728(4)
H88 H -0.1803 0.1756 0.4226
C104 C -0.22059(15) 0.10964(9) 0.45993(5)
H89 H -0.2999 0.1193 0.4609
C105 C 0.52375(16) 0.12046(10) 0.52074(5)
H90 H 0.5873 0.1075 0.5344
C106 C -0.05541(15) 0.04775(8) 0.48035(4)
H91 H -0.0240 0.0147 0.4943
C107 C -0.17416(15) 0.06069(9) 0.48136(5)
H92 H -0.2226 0.0368 0.4963
C108 C 0.05085(15) 0.16732(8) 0.41028(4)
H93 H 0.0679 0.2106 0.4193
H94 H 0.0123 0.1721 0.3875
C109 C 0.16399(15) 0.12937(8) 0.40560(4)
H95 H 0.1493 0.0904 0.3917
H96 H 0.2201 0.1560 0.3929
C110 C 0.33214(14) 0.07333(8) 0.44080(4)
H97 H 0.3761 0.0850 0.4194
C111 C 0.39128(14) 0.10194(8) 0.47283(4)
C112 C 0.48657(15) 0.08154(9) 0.49243(5)
H98 H 0.5250 0.0429 0.4869
loop_
_geom_bond_atom_site_label_1
_geom_bond_atom_site_label_2
_geom_bond_site_symmetry_1
_geom_bond_site_symmetry_2
O1 C6 1_555 1_555
O2 C6 1_555 1_555
O3 H1 1_555 1_555
C1 H2 1_555 1_555
H3 C1 1_555 1_555
C2 H4 1_555 1_555
C3 C2 1_555 1_555
H5 C3 1_555 1_555
C4 C3 1_555 1_555
C5 O3 1_555 1_555
H6 C5 1_555 1_555
C6 C1 1_555 1_555
C7 O1 1_555 1_555
C8 C7 1_555 1_555
C9 C8 1_555 1_555
H7 C9 1_555 1_555
C10 C9 1_555 1_555
H8 C10 1_555 1_555
C11 O2 1_555 1_555
C12 C2 1_555 1_555
H9 C12 1_555 1_555
C13 C11 1_555 1_555
H10 C13 1_555 1_555
C14 C1 1_555 1_555
H11 C14 1_555 1_555
H12 C14 1_555 1_555
C15 C7 1_555 1_555
H13 C15 1_555 1_555
C16 C10 1_555 1_555
H14 C16 1_555 1_555
O4 C19 1_555 1_555
O5 H15 1_555 1_555
O6 C20 1_555 1_555
C17 H16 1_555 1_555
C18 C17 1_555 1_555
H17 C18 1_555 1_555
C19 C18 1_555 1_555
C20 O4 1_555 1_555
C21 C20 1_555 1_555
H18 C21 1_555 1_555
H19 C21 1_555 1_555
C22 C21 1_555 1_555
H20 C22 1_555 1_555
H21 C22 1_555 1_555
C23 C22 1_555 1_555
C24 C23 1_555 1_555
H22 C24 1_555 1_555
C25 C24 1_555 1_555
H23 C25 1_555 1_555
C26 C17 1_555 1_555
H24 C26 1_555 1_555
C27 C26 1_555 1_555
H25 C27 1_555 1_555
C28 C19 1_555 1_555
C29 O5 1_555 1_555
H26 C29 1_555 1_555
C30 O6 1_555 1_555
C31 C25 1_555 1_555
H27 C31 1_555 1_555
C32 C30 1_555 1_555
H28 C32 1_555 1_555
O7 C35 1_555 1_555
O8 C36 1_555 1_555
O9 H29 1_555 1_555
C33 H30 1_555 1_555
C34 C33 1_555 1_555
H31 C34 1_555 1_555
C35 C34 1_555 1_555
C36 O7 1_555 1_555
C37 O8 1_555 1_555
C38 C37 1_555 1_555
H32 C38 1_555 1_555
C39 C38 1_555 1_555
H33 C39 1_555 1_555
C40 C39 1_555 1_555
H34 C40 1_555 1_555
C41 C33 1_555 1_555
H35 C41 1_555 1_555
C42 C41 1_555 1_555
H36 C42 1_555 1_555
C43 C35 1_555 1_555
C44 O9 1_555 1_555
H37 C44 1_555 1_555
C45 C36 1_555 1_555
H38 C45 1_555 1_555
H39 C45 1_555 1_555
C46 C45 1_555 1_555
H40 C46 1_555 1_555
H41 C46 1_555 1_555
C47 C37 1_555 1_555
C48 C40 1_555 1_555
H42 C48 1_555 1_555
O10 C52 1_555 1_555
O11 C53 1_555 1_555
O12 H43 1_555 1_555
C49 H44 1_555 1_555
C50 C49 1_555 1_555
H45 C50 1_555 1_555
C51 C50 1_555 1_555
C52 C51 1_555 1_555
C53 O10 1_555 1_555
C54 O11 1_555 1_555
C55 C54 1_555 1_555
H46 C55 1_555 1_555
C56 C55 1_555 1_555
H47 C56 1_555 1_555
C57 C54 1_555 1_555
C58 C57 1_555 1_555
H48 C58 1_555 1_555
C59 C56 1_555 1_555
H49 C59 1_555 1_555
C60 O12 1_555 1_555
H50 C60 1_555 1_555
C61 C53 1_555 1_555
H51 C61 1_555 1_555
H52 C61 1_555 1_555
C62 C51 1_555 1_555
H53 C62 1_555 1_555
H54 C62 1_555 1_555
C63 C52 1_555 1_555
H55 C63 1_555 1_555
C64 C49 1_555 1_555
H56 C64 1_555 1_555
O13 C67 1_555 1_555
O14 C68 1_555 1_555
O15 H57 1_555 1_555
C65 H58 1_555 1_555
C66 C65 1_555 1_555
H59 C66 1_555 1_555
C67 C66 1_555 1_555
C68 O13 1_555 1_555
C69 O14 1_555 1_555
C70 C69 1_555 1_555
C71 C70 1_555 1_555
H60 C71 1_555 1_555
C72 C71 1_555 1_555
H61 C72 1_555 1_555
C73 C65 1_555 1_555
H62 C73 1_555 1_555
C74 C73 1_555 1_555
H63 C74 1_555 1_555
C75 C67 1_555 1_555
C76 O15 1_555 1_555
H64 C76 1_555 1_555
C77 C69 1_555 1_555
H65 C77 1_555 1_555
C78 C72 1_555 1_555
H66 C78 1_555 1_555
C79 C70 1_555 1_555
H67 C79 1_555 1_555
H68 C79 1_555 1_555
C80 C68 1_555 1_555
H69 C80 1_555 1_555
H70 C80 1_555 1_555
O16 C84 1_555 1_555
O17 C85 1_555 1_555
O18 H71 1_555 1_555
C81 H72 1_555 1_555
C82 C81 1_555 1_555
H73 C82 1_555 1_555
C83 C82 1_555 1_555
C84 C83 1_555 1_555
C85 O16 1_555 1_555
C86 O17 1_555 1_555
C87 C86 1_555 1_555
H74 C87 1_555 1_555
C88 C87 1_555 1_555
H75 C88 1_555 1_555
C89 C88 1_555 1_555
H76 C89 1_555 1_555
C90 C83 1_555 1_555
H77 C90 1_555 1_555
H78 C90 1_555 1_555
C91 C85 1_555 1_555
H79 C91 1_555 1_555
H80 C91 1_555 1_555
C92 C81 1_555 1_555
H81 C92 1_555 1_555
C93 C84 1_555 1_555
H82 C93 1_555 1_555
C94 O18 1_555 1_555
H83 C94 1_555 1_555
C95 C86 1_555 1_555
C96 C89 1_555 1_555
H84 C96 1_555 1_555
O19 C99 1_555 1_555
O20 C100 1_555 1_555
O21 H85 1_555 1_555
C97 H86 1_555 1_555
C98 C97 1_555 1_555
H87 C98 1_555 1_555
C99 C98 1_555 1_555
C100 O19 1_555 1_555
C101 O20 1_555 1_555
C102 C101 1_555 1_555
C103 C102 1_555 1_555
H88 C103 1_555 1_555
C104 C103 1_555 1_555
H89 C104 1_555 1_555
C105 C97 1_555 1_555
H90 C105 1_555 1_555
C106 C101 1_555 1_555
H91 C106 1_555 1_555
C107 C104 1_555 1_555
H92 C107 1_555 1_555
C108 C102 1_555 1_555
H93 C108 1_555 1_555
H94 C108 1_555 1_555
C109 C100 1_555 1_555
H95 C109 1_555 1_555
H96 C109 1_555 1_555
C110 O21 1_555 1_555
H97 C110 1_555 1_555
C111 C99 1_555 1_555
C112 C105 1_555 1_555
H98 C112 1_555 1_555
C4 C5 1_555 1_555
C4 C11 1_555 1_555
C5 C6 1_555 1_555
C8 C14 1_555 1_555
C12 C13 1_555 1_555
C15 C16 1_555 1_555
C20 C29 1_555 1_555
C23 C30 1_555 1_555
C27 C28 1_555 1_555
C28 C29 1_555 1_555
C31 C32 1_555 1_555
C36 C44 1_555 1_555
C42 C43 1_555 1_555
C43 C44 1_555 1_555
C46 C47 1_555 1_555
C47 C48 1_555 1_555
C53 C60 1_555 1_555
C57 C60 1_555 1_555
C58 C59 1_555 1_555
C61 C62 1_555 1_555
C63 C64 1_555 1_555
C68 C76 1_555 1_555
C74 C75 1_555 1_555
C75 C76 1_555 1_555
C77 C78 1_555 1_555
C79 C80 1_555 1_555
C85 C94 1_555 1_555
C90 C91 1_555 1_555
C92 C93 1_555 1_555
C94 C95 1_555 1_555
C95 C96 1_555 1_555
C100 C110 1_555 1_555
C106 C107 1_555 1_555
C108 C109 1_555 1_555
C110 C111 1_555 1_555
C111 C112 1_555 1_555

#END
