
#######################################################################
#
#                 Cambridge Crystallographic Data Centre
#                                CCDC 
#
#######################################################################
#
# If this CIF has been generated from an entry in the Cambridge 
# Structural Database, then it will include bibliographic, chemical, 
# crystal, experimental, refinement or atomic coordinate data resulting 
# from the CCDC's data processing and validation procedures.
#
#######################################################################

data_NAJTEZ
_chemical_formula_moiety         'C32 H52 Ba2 Cl4 N4 O22'
_chemical_name_systematic        
bis(\m~2~-perchlorato-O,O,O',O'')-bis(4,10-dimethyl-3,4,5,6,9,10,11,12-octahydro-2H,8H-1,7,13,4,10-benzotrioxadiazacyclopentadecine)-bis(perchlorato-O,O')-di-barium
_symmetry_cell_setting           monoclinic
_symmetry_space_group_name_H-M   'P 21/n'
_symmetry_Int_Tables_number      14
_space_group_name_Hall           '-P 2yn'
loop_
_symmetry_equiv_pos_site_id
_symmetry_equiv_pos_as_xyz
1 x,y,z
2 1/2-x,1/2+y,1/2-z
3 -x,-y,-z
4 1/2+x,1/2-y,1/2+z
_cell_length_a                   9.4114(5)
_cell_length_b                   17.2171(9)
_cell_length_c                   14.4367(7)
_cell_angle_alpha                90
_cell_angle_beta                 100.570(1)
_cell_angle_gamma                90
_cell_volume                     2299.59
_exptl_crystal_colour            colorless
_exptl_crystal_description       block
_chemical_melting_point          '313-314deg. C(dec.)'
_cell_formula_units_Z            2
_exptl_crystal_recrystallization_method benzene/acetonitrile
loop_
_atom_site_label
_atom_site_type_symbol
_atom_site_fract_x
_atom_site_fract_y
_atom_site_fract_z
Ba1 Ba 0.612125(13) 0.047692(7) 0.673717(8)
Cl1 Cl 0.63746(6) -0.12219(3) 0.51656(4)
O1 O 0.7483(2) -0.08445(12) 0.58326(13)
O2 O 0.5015(2) -0.08444(14) 0.52331(13)
O3 O 0.3391(2) 0.11010(13) 0.57869(12)
O4 O 0.6293(3) -0.20186(12) 0.53782(17)
Cl2 Cl 0.43279(6) -0.10883(3) 0.76004(4)
O5 O 0.3636(2) -0.03781(12) 0.71979(16)
O6 O 0.5822(2) -0.10361(11) 0.74938(14)
O7 O 0.4247(3) -0.11384(16) 0.85751(16)
O8 O 0.3662(3) -0.17458(13) 0.71127(17)
O9 O 0.90555(17) 0.02294(10) 0.75504(11)
O10 O 0.67130(19) 0.20543(10) 0.68595(12)
O11 O 0.73124(18) 0.03553(10) 0.86971(11)
N1 N 0.8480(2) 0.11233(12) 0.58308(14)
N2 N 0.4979(2) 0.14413(13) 0.81873(13)
C1 C 0.8344(3) -0.02152(13) 0.89232(16)
C2 C 0.8478(3) -0.07041(15) 0.97001(18)
C3 C 0.9578(3) -0.12591(15) 0.9844(2)
C4 C 1.0507(3) -0.13263(15) 0.9227(2)
C5 C 1.0390(3) -0.08379(15) 0.84428(19)
C6 C 0.9304(2) -0.02851(13) 0.82943(16)
C7 C 1.0096(3) 0.02595(16) 0.69326(18)
C8 C 0.9910(3) 0.10346(16) 0.64420(19)
C9 C 0.8129(3) 0.19520(16) 0.5650(2)
C10 C 0.7895(3) 0.23926(15) 0.6499(2)
C11 C 0.6431(3) 0.24998(15) 0.76469(19)
C12 C 0.5015(3) 0.22570(16) 0.7877(2)
C13 C 0.5844(3) 0.13482(16) 0.91442(17)
C14 C 0.6379(3) 0.05331(16) 0.93553(16)
C15 C 0.8491(3) 0.07468(19) 0.49166(19)
C16 C 0.3469(3) 0.1230(2) 0.8200(2)
H1 H 0.776(4) -0.0681(19) 1.009(2)
H2 H 0.964(4) -0.159(2) 1.038(3)
H3 H 1.124(4) -0.1691(19) 0.932(2)
H4 H 1.101(3) -0.0881(18) 0.802(2)
H5 H 0.995(3) -0.0192(18) 0.651(2)
H6 H 1.104(3) 0.0204(18) 0.729(2)
H7 H 1.000(3) 0.1426(16) 0.6907(19)
H8 H 1.070(3) 0.1118(18) 0.608(2)
H9 H 0.726(3) 0.1983(17) 0.516(2)
H10 H 0.887(3) 0.2209(17) 0.543(2)
H11 H 0.875(3) 0.2393(17) 0.699(2)
H12 H 0.767(3) 0.2933(17) 0.633(2)
H13 H 0.637(3) 0.3051(19) 0.748(2)
H14 H 0.721(3) 0.2436(17) 0.819(2)
H15 H 0.476(3) 0.2584(18) 0.833(2)
H16 H 0.432(3) 0.2323(18) 0.732(2)
H17 H 0.529(3) 0.1500(17) 0.963(2)
H18 H 0.665(3) 0.1653(18) 0.920(2)
H19 H 0.691(3) 0.0521(16) 0.997(2)
H20 H 0.565(3) 0.0159(16) 0.9295(19)
H21 H 0.927(4) 0.100(2) 0.462(3)
H22 H 0.755(3) 0.0819(17) 0.453(2)
H23 H 0.872(3) 0.019(2) 0.503(2)
H24 H 0.300(4) 0.161(2) 0.861(2)
H25 H 0.338(3) 0.0700(19) 0.841(2)
H26 H 0.292(4) 0.1285(19) 0.752(2)
Ba1B Ba 0.387875(13) -0.047692(7) 0.326283(8)
Cl1B Cl 0.36254(6) 0.12219(3) 0.48344(4)
O1B O 0.2517(2) 0.08445(12) 0.41674(13)
O2B O 0.4985(2) 0.08444(14) 0.47669(13)
O3B O 0.6609(2) -0.11010(13) 0.42131(12)
O4B O 0.3707(3) 0.20186(12) 0.46218(17)
Cl2B Cl 0.56721(6) 0.10883(3) 0.23996(4)
O5B O 0.6364(2) 0.03781(12) 0.28021(16)
O6B O 0.4178(2) 0.10361(11) 0.25062(14)
O7B O 0.5753(3) 0.11384(16) 0.14249(16)
O8B O 0.6338(3) 0.17458(13) 0.28873(17)
O9B O 0.09445(17) -0.02294(10) 0.24496(11)
O10B O 0.32870(19) -0.20543(10) 0.31405(12)
O11B O 0.26876(18) -0.03553(10) 0.13029(11)
N1B N 0.1520(2) -0.11233(12) 0.41692(14)
N2B N 0.5021(2) -0.14413(13) 0.18127(13)
C1B C 0.1656(3) 0.02152(13) 0.10768(16)
C2B C 0.1522(3) 0.07041(15) 0.02999(18)
C3B C 0.0422(3) 0.12591(15) 0.0156(2)
C4B C -0.0507(3) 0.13263(15) 0.0773(2)
C5B C -0.0390(3) 0.08379(15) 0.15572(19)
C6B C 0.0696(2) 0.02851(13) 0.17057(16)
C7B C -0.0096(3) -0.02595(16) 0.30674(18)
C8B C 0.0090(3) -0.10346(16) 0.35580(19)
C9B C 0.1871(3) -0.19520(16) 0.4350(2)
C10B C 0.2105(3) -0.23926(15) 0.3501(2)
C11B C 0.3569(3) -0.24998(15) 0.23531(19)
C12B C 0.4985(3) -0.22570(16) 0.2123(2)
C13B C 0.4156(3) -0.13482(16) 0.08558(17)
C14B C 0.3621(3) -0.05331(16) 0.06447(16)
C15B C 0.1509(3) -0.07468(19) 0.50834(19)
C16B C 0.6531(3) -0.1230(2) 0.1800(2)
H1B H 0.224(4) 0.0681(19) -0.009(2)
H2B H 0.036(4) 0.159(2) -0.038(3)
H3B H -0.124(4) 0.1691(19) 0.068(2)
H4B H -0.101(3) 0.0881(18) 0.198(2)
H5B H 0.005(3) 0.0192(18) 0.349(2)
H6B H -0.104(3) -0.0204(18) 0.271(2)
H7B H 0.000(3) -0.1426(16) 0.3093(19)
H8B H -0.070(3) -0.1118(18) 0.392(2)
H9B H 0.274(3) -0.1983(17) 0.484(2)
H10B H 0.113(3) -0.2209(17) 0.457(2)
H11B H 0.125(3) -0.2393(17) 0.301(2)
H12B H 0.233(3) -0.2933(17) 0.367(2)
H13B H 0.363(3) -0.3051(19) 0.252(2)
H14B H 0.279(3) -0.2436(17) 0.181(2)
H15B H 0.524(3) -0.2584(18) 0.167(2)
H16B H 0.568(3) -0.2323(18) 0.268(2)
H17B H 0.471(3) -0.1500(17) 0.037(2)
H18B H 0.335(3) -0.1653(18) 0.080(2)
H19B H 0.309(3) -0.0521(16) 0.003(2)
H20B H 0.435(3) -0.0159(16) 0.0705(19)
H21B H 0.073(4) -0.100(2) 0.538(3)
H22B H 0.245(3) -0.0819(17) 0.547(2)
H23B H 0.128(3) -0.019(2) 0.497(2)
H24B H 0.700(4) -0.161(2) 0.139(2)
H25B H 0.662(3) -0.0700(19) 0.159(2)
H26B H 0.708(4) -0.1285(19) 0.248(2)
loop_
_geom_bond_atom_site_label_1
_geom_bond_atom_site_label_2
_geom_bond_site_symmetry_1
_geom_bond_site_symmetry_2
Ba1 O1 1_555 1_555
Cl1 O1 1_555 1_555
O2 Ba1 1_555 1_555
O3 Ba1 1_555 1_555
O4 Cl1 1_555 1_555
Cl2 O5 1_555 1_555
O5 Ba1 1_555 1_555
O6 Ba1 1_555 1_555
O7 Cl2 1_555 1_555
O8 Cl2 1_555 1_555
O9 Ba1 1_555 1_555
O10 Ba1 1_555 1_555
O11 Ba1 1_555 1_555
N1 Ba1 1_555 1_555
N2 Ba1 1_555 1_555
C1 O11 1_555 1_555
C2 C1 1_555 1_555
C3 C2 1_555 1_555
C4 C3 1_555 1_555
C5 C4 1_555 1_555
C6 O9 1_555 1_555
C7 O9 1_555 1_555
C8 N1 1_555 1_555
C9 N1 1_555 1_555
C10 O10 1_555 1_555
C11 O10 1_555 1_555
C12 N2 1_555 1_555
C13 N2 1_555 1_555
C14 O11 1_555 1_555
C15 N1 1_555 1_555
C16 N2 1_555 1_555
H1 C2 1_555 1_555
H2 C3 1_555 1_555
H3 C4 1_555 1_555
H4 C5 1_555 1_555
H5 C7 1_555 1_555
H6 C7 1_555 1_555
H7 C8 1_555 1_555
H8 C8 1_555 1_555
H9 C9 1_555 1_555
H10 C9 1_555 1_555
H11 C10 1_555 1_555
H12 C10 1_555 1_555
H13 C11 1_555 1_555
H14 C11 1_555 1_555
H15 C12 1_555 1_555
H16 C12 1_555 1_555
H17 C13 1_555 1_555
H18 C13 1_555 1_555
H19 C14 1_555 1_555
H20 C14 1_555 1_555
H21 C15 1_555 1_555
H22 C15 1_555 1_555
H23 C15 1_555 1_555
H24 C16 1_555 1_555
H25 C16 1_555 1_555
H26 C16 1_555 1_555
Ba1B O2 1_555 1_555
Cl1B O3 1_555 1_555
O1B Ba1B 1_555 1_555
O2B Ba1 1_555 1_555
O3B Cl1 1_555 1_555
O4B Cl1B 1_555 1_555
Cl2B O5B 1_555 1_555
O5B Ba1B 1_555 1_555
O6B Ba1B 1_555 1_555
O7B Cl2B 1_555 1_555
O8B Cl2B 1_555 1_555
O9B Ba1B 1_555 1_555
O10B Ba1B 1_555 1_555
O11B Ba1B 1_555 1_555
N1B Ba1B 1_555 1_555
N2B Ba1B 1_555 1_555
C1B O11B 1_555 1_555
C2B C1B 1_555 1_555
C3B C2B 1_555 1_555
C4B C3B 1_555 1_555
C5B C4B 1_555 1_555
C6B O9B 1_555 1_555
C7B O9B 1_555 1_555
C8B N1B 1_555 1_555
C9B N1B 1_555 1_555
C10B O10B 1_555 1_555
C11B O10B 1_555 1_555
C12B N2B 1_555 1_555
C13B N2B 1_555 1_555
C14B O11B 1_555 1_555
C15B N1B 1_555 1_555
C16B N2B 1_555 1_555
H1B C2B 1_555 1_555
H2B C3B 1_555 1_555
H3B C4B 1_555 1_555
H4B C5B 1_555 1_555
H5B C7B 1_555 1_555
H6B C7B 1_555 1_555
H7B C8B 1_555 1_555
H8B C8B 1_555 1_555
H9B C9B 1_555 1_555
H10B C9B 1_555 1_555
H11B C10B 1_555 1_555
H12B C10B 1_555 1_555
H13B C11B 1_555 1_555
H14B C11B 1_555 1_555
H15B C12B 1_555 1_555
H16B C12B 1_555 1_555
H17B C13B 1_555 1_555
H18B C13B 1_555 1_555
H19B C14B 1_555 1_555
H20B C14B 1_555 1_555
H21B C15B 1_555 1_555
H22B C15B 1_555 1_555
H23B C15B 1_555 1_555
H24B C16B 1_555 1_555
H25B C16B 1_555 1_555
H26B C16B 1_555 1_555
Cl1 O2 1_555 1_555
Cl2 O6 1_555 1_555
C1 C6 1_555 1_555
C5 C6 1_555 1_555
C7 C8 1_555 1_555
C9 C10 1_555 1_555
C11 C12 1_555 1_555
C13 C14 1_555 1_555
Ba1B O2B 1_555 1_555
Ba1B O3B 1_555 1_555
Cl1B O1B 1_555 1_555
Cl1B O2B 1_555 1_555
Cl2B O6B 1_555 1_555
C1B C6B 1_555 1_555
C5B C6B 1_555 1_555
C7B C8B 1_555 1_555
C9B C10B 1_555 1_555
C11B C12B 1_555 1_555
C13B C14B 1_555 1_555

#END
