
#######################################################################
#
#                 Cambridge Crystallographic Data Centre
#                                CCDC 
#
#######################################################################
#
# If this CIF has been generated from an entry in the Cambridge 
# Structural Database, then it will include bibliographic, chemical, 
# crystal, experimental, refinement or atomic coordinate data resulting 
# from the CCDC's data processing and validation procedures.
#
#######################################################################

data_NAJVIG
_chemical_formula_moiety         'C25 H24 N2 O4 S1'
_chemical_name_systematic        
4-methyl-N-((5-methyl-2-(4-methylphenyl)-3-oxo-2,3-dihydro-1,2-oxazol-4-yl)(phenyl)methyl)benzenesulfonamide
_symmetry_cell_setting           triclinic
_symmetry_space_group_name_H-M   'P -1'
_symmetry_Int_Tables_number      2
_space_group_name_Hall           '-P 1'
loop_
_symmetry_equiv_pos_site_id
_symmetry_equiv_pos_as_xyz
1 x,y,z
2 -x,-y,-z
_cell_length_a                   9.373(5)
_cell_length_b                   10.639(5)
_cell_length_c                   12.122(5)
_cell_angle_alpha                104.185(5)
_cell_angle_beta                 96.422(5)
_cell_angle_gamma                104.025(5)
_cell_volume                     1118.01
_exptl_crystal_colour            colorless
_exptl_crystal_description       strip
_cell_formula_units_Z            2
loop_
_atom_site_label
_atom_site_type_symbol
_atom_site_fract_x
_atom_site_fract_y
_atom_site_fract_z
S1 S -0.14204(12) 0.20275(11) 0.62985(9)
O1 O -0.1380(3) 0.0665(3) 0.6164(2)
O2 O 0.4047(3) 0.4046(3) 0.6457(3)
O3 O 0.1561(3) 0.5050(3) 0.4748(3)
N1 N -0.0914(4) 0.2444(4) 0.5188(3)
H1 H -0.1378 0.2915 0.488
O4 O -0.2794(3) 0.2361(3) 0.6421(3)
N2 N 0.3637(4) 0.4993(3) 0.5945(3)
C1 C 0.0015(4) 0.1817(4) 0.3364(3)
C2 C 0.0320(4) 0.2048(4) 0.4677(4)
H2 H 0.0332 0.1178 0.4809
C3 C 0.2233(4) 0.4430(4) 0.5247(4)
C4 C -0.0079(5) 0.3056(4) 0.7527(4)
C5 C 0.2918(5) 0.2883(4) 0.5980(4)
C6 C 0.1813(5) 0.3038(4) 0.5279(4)
C7 C 0.5299(5) 0.8101(5) 0.8354(4)
H3 H 0.5561 0.8364 0.9156
C8 C 0.4323(4) 0.6370(4) 0.6570(4)
C9 C 0.5139(4) 0.8672(4) 0.6569(4)
H4 H 0.5286 0.9314 0.6161
C10 C 0.5523(5) 0.9089(5) 0.7757(4)
C11 C 0.0691(5) 0.2484(5) 0.8210(4)
H5 H 0.0514 0.1551 0.8023
C12 C 0.4541(4) 0.7323(4) 0.5967(4)
H6 H 0.4289 0.7061 0.5164
C13 C -0.1439(5) 0.1363(5) 0.2762(4)
H7 H -0.223 0.1255 0.3162
C14 C 0.3211(5) 0.1724(4) 0.6354(4)
H8 H 0.4145 0.2023 0.6886
H9 H 0.3258 0.1034 0.569
H10 H 0.2419 0.1366 0.6726
C15 C 0.0194(5) 0.4453(5) 0.7812(4)
H11 H -0.0315 0.4846 0.7352
C16 C 0.4698(5) 0.6749(5) 0.7775(4)
H12 H 0.4547 0.6104 0.8179
C17 C 0.2009(6) 0.4692(5) 0.9487(4)
C18 C 0.1717(5) 0.3299(5) 0.9166(4)
H13 H 0.2238 0.2904 0.9616
C19 C 0.1165(5) 0.1964(5) 0.2768(4)
H14 H 0.2148 0.2251 0.3163
C20 C 0.1228(6) 0.5249(5) 0.8785(4)
H15 H 0.1407 0.6182 0.8975
C21 C -0.0576(5) 0.1244(5) 0.0971(4)
H16 H -0.0768 0.1067 0.017
C22 C -0.1728(5) 0.1068(5) 0.1567(4)
H17 H -0.271 0.0749 0.1169
C23 C 0.6176(6) 1.0566(5) 0.8399(4)
H18 H 0.6373 1.0669 0.9215
H19 H 0.5479 1.1055 0.8238
H20 H 0.7093 1.0914 0.8152
C24 C 0.0869(5) 0.1686(6) 0.1570(4)
H21 H 0.1659 0.18 0.1169
C25 C 0.3129(6) 0.5573(6) 1.0568(5)
H22 H 0.3186 0.6505 1.0647
H23 H 0.4096 0.5436 1.0506
H24 H 0.2814 0.5335 1.1235
loop_
_geom_bond_atom_site_label_1
_geom_bond_atom_site_label_2
_geom_bond_site_symmetry_1
_geom_bond_site_symmetry_2
S1 O1 1_555 1_555
O2 N2 1_555 1_555
O3 C3 1_555 1_555
N1 S1 1_555 1_555
H1 N1 1_555 1_555
O4 S1 1_555 1_555
N2 C3 1_555 1_555
C1 C2 1_555 1_555
C2 N1 1_555 1_555
H2 C2 1_555 1_555
C3 C6 1_555 1_555
C4 S1 1_555 1_555
C5 O2 1_555 1_555
C6 C2 1_555 1_555
C7 H3 1_555 1_555
C8 N2 1_555 1_555
C9 H4 1_555 1_555
C10 C7 1_555 1_555
C11 C4 1_555 1_555
H5 C11 1_555 1_555
C12 C8 1_555 1_555
H6 C12 1_555 1_555
C13 C1 1_555 1_555
H7 C13 1_555 1_555
C14 C5 1_555 1_555
H8 C14 1_555 1_555
H9 C14 1_555 1_555
H10 C14 1_555 1_555
C15 C4 1_555 1_555
H11 C15 1_555 1_555
C16 C7 1_555 1_555
H12 C16 1_555 1_555
C17 C18 1_555 1_555
C18 C11 1_555 1_555
H13 C18 1_555 1_555
C19 C1 1_555 1_555
H14 C19 1_555 1_555
C20 C15 1_555 1_555
H15 C20 1_555 1_555
C21 H16 1_555 1_555
C22 C13 1_555 1_555
H17 C22 1_555 1_555
C23 C10 1_555 1_555
H18 C23 1_555 1_555
H19 C23 1_555 1_555
H20 C23 1_555 1_555
C24 C19 1_555 1_555
H21 C24 1_555 1_555
C25 C17 1_555 1_555
H22 C25 1_555 1_555
H23 C25 1_555 1_555
H24 C25 1_555 1_555
C5 C6 1_555 1_555
C8 C16 1_555 1_555
C9 C10 1_555 1_555
C9 C12 1_555 1_555
C17 C20 1_555 1_555
C21 C22 1_555 1_555
C21 C24 1_555 1_555

#END
