
#######################################################################
#
#                 Cambridge Crystallographic Data Centre
#                                CCDC 
#
#######################################################################
#
# If this CIF has been generated from an entry in the Cambridge 
# Structural Database, then it will include bibliographic, chemical, 
# crystal, experimental, refinement or atomic coordinate data resulting 
# from the CCDC's data processing and validation procedures.
#
#######################################################################

data_NAJVEB
_chemical_formula_moiety         'C36 H54 Ba2 Cl4 N2 O28'
_chemical_name_systematic        
"bis(\m~2~-perchlorato-O,O,O',O'')-bis(ethyl 2,3,5,6,8,9,11,12-octahydro-7H-1,4,10,13,7-benzotetraoxaazacyclopentadecine-7-acetate)-bis(perchlorato)-di-barium"
_symmetry_cell_setting           monoclinic
_symmetry_space_group_name_H-M   'P 21/c'
_symmetry_Int_Tables_number      14
_space_group_name_Hall           '-P 2ybc'
loop_
_symmetry_equiv_pos_site_id
_symmetry_equiv_pos_as_xyz
1 x,y,z
2 -x,1/2+y,1/2-z
3 -x,-y,-z
4 x,1/2-y,1/2+z
_cell_length_a                   20.6668(7)
_cell_length_b                   10.8212(4)
_cell_length_c                   22.9762(9)
_cell_angle_alpha                90
_cell_angle_beta                 107.880(1)
_cell_angle_gamma                90
_cell_volume                     4890.21
_exptl_crystal_colour            colorless
_exptl_crystal_description       plate
_chemical_melting_point          '289-290deg. C(dec.)'
_cell_formula_units_Z            4
_exptl_crystal_recrystallization_method benzene/acetonitrile
loop_
_atom_site_label
_atom_site_type_symbol
_atom_site_fract_x
_atom_site_fract_y
_atom_site_fract_z
Ba1 Ba 0.350707(11) 0.58203(2) 0.296596(11)
Ba2 Ba 0.144534(11) 0.33396(2) 0.197109(11)
Cl1 Cl 0.32410(4) 0.27142(9) 0.24820(4)
O1 O 0.28282(13) 0.3411(3) 0.27845(13)
O2 O 0.37729(14) 0.3532(3) 0.24258(14)
O3 O 0.28076(14) 0.2378(3) 0.18810(12)
O4 O 0.35305(15) 0.1658(3) 0.28272(14)
Cl2 Cl 0.38611(5) 0.61209(9) 0.12981(5)
O5 O 0.37884(19) 0.6348(3) 0.18881(15)
O6 O 0.45708(17) 0.5950(3) 0.13746(19)
O7 O 0.36145(17) 0.7188(3) 0.09246(15)
O8 O 0.34833(17) 0.5043(3) 0.10428(16)
Cl3 Cl 0.17173(5) 0.64943(9) 0.24190(4)
O9 O 0.21315(13) 0.5781(3) 0.21230(13)
O10 O 0.11636(14) 0.5704(3) 0.24479(15)
O11 O 0.21409(14) 0.6791(3) 0.30289(13)
O12 O 0.14657(15) 0.7595(3) 0.20804(13)
Cl4 Cl 0.11495(5) 0.30479(9) 0.36800(4)
O13 O 0.12722(19) 0.2994(4) 0.30952(15)
O14 O 0.04283(15) 0.3144(3) 0.35755(17)
O15 O 0.14846(17) 0.4099(3) 0.40155(15)
O16 O 0.14018(15) 0.1931(3) 0.40090(14)
O17 O 0.42860(13) 0.4055(3) 0.38503(13)
O18 O 0.49348(13) 0.5525(3) 0.32007(13)
O19 O 0.37041(14) 0.7096(3) 0.40818(13)
O20 O 0.31027(13) 0.4732(3) 0.39517(13)
O21 O 0.31350(14) 0.8178(3) 0.25466(13)
O22 O 0.33877(13) 0.9452(3) 0.18820(12)
N1 N 0.44638(16) 0.8046(3) 0.32731(15)
C1 C 0.3387(2) 0.3652(4) 0.42484(18)
C2 C 0.3081(2) 0.2955(4) 0.4596(2)
H1 H 0.2665 0.3225 0.4649
C3 C 0.3377(2) 0.1866(4) 0.4866(2)
H2 H 0.3181 0.1413 0.5124
C4 C 0.3959(2) 0.1443(4) 0.4757(2)
H3 H 0.4154 0.0683 0.4933
C5 C 0.4266(2) 0.2107(4) 0.43956(19)
H4 H 0.4654 0.1787 0.4307
C6 C 0.39962(19) 0.3248(4) 0.41653(18)
C7 C 0.49426(19) 0.3724(4) 0.3800(2)
H5 H 0.4887 0.3196 0.3437
H6 H 0.5206 0.3258 0.4168
C8 C 0.53083(19) 0.4891(4) 0.37437(19)
H7 H 0.5354 0.5423 0.4104
H8 H 0.5770 0.4692 0.3727
C9 C 0.52919(19) 0.6599(4) 0.30783(19)
H9 H 0.5123 0.6796 0.2636
H10 H 0.5783 0.6411 0.3185
C10 C 0.51924(18) 0.7701(4) 0.34392(19)
H11 H 0.5364 0.7508 0.3881
H12 H 0.5457 0.8407 0.3359
C11 C 0.4318(2) 0.8733(4) 0.37757(19)
H13 H 0.3883 0.9182 0.3610
H14 H 0.4681 0.9353 0.3939
C12 C 0.4273(2) 0.7912(4) 0.42911(19)
H15 H 0.4696 0.7424 0.4447
H16 H 0.4221 0.8425 0.4631
C13 C 0.3559(2) 0.6487(4) 0.45790(19)
H17 H 0.3468 0.7107 0.4861
H18 H 0.3954 0.5983 0.4810
C14 C 0.2952(2) 0.5680(4) 0.43297(19)
H19 H 0.2825 0.5297 0.4670
H20 H 0.2563 0.6182 0.4085
C15 C 0.42921(19) 0.8823(4) 0.27201(19)
H21 H 0.4549 0.8534 0.2447
H22 H 0.4428 0.9688 0.2837
C16 C 0.3546(2) 0.8776(4) 0.23854(19)
C17 C 0.2674(2) 0.9442(4) 0.1502(2)
H23 H 0.2393 0.9937 0.1696
H24 H 0.2497 0.8586 0.1446
C18 C 0.2659(2) 0.9995(4) 0.08986(19)
H25 H 0.2190 1.0007 0.0625
H26 H 0.2941 0.9499 0.0715
H27 H 0.2835 1.0842 0.0962
O23 O 0.18214(13) 0.4291(3) 0.09673(12)
O24 O 0.12252(13) 0.1946(3) 0.08814(12)
O25 O 0.00234(13) 0.3649(3) 0.17531(12)
O26 O 0.06243(13) 0.4974(3) 0.10248(13)
O27 O 0.18468(14) 0.1018(3) 0.24272(14)
O28 O 0.16368(13) -0.0235(3) 0.31195(13)
N2 N 0.04998(16) 0.1097(3) 0.17424(15)
C19 C 0.09567(19) 0.5824(4) 0.07671(18)
C20 C 0.0724(2) 0.7005(4) 0.05773(19)
H28 H 0.0315 0.7304 0.0633
C21 C 0.1101(2) 0.7747(4) 0.0303(2)
H29 H 0.0943 0.8552 0.0166
C22 C 0.1698(2) 0.7327(4) 0.02277(19)
H30 H 0.1943 0.7834 0.0031
C23 C 0.1945(2) 0.6157(4) 0.04402(18)
H31 H 0.2362 0.5871 0.0398
C24 C 0.1576(2) 0.5427(4) 0.07111(19)
C25 C 0.1930(2) 0.3364(4) 0.05526(18)
H32 H 0.2341 0.2875 0.0760
H33 H 0.2002 0.3770 0.0191
C26 C 0.1328(2) 0.2532(4) 0.03543(18)
H34 H 0.0919 0.3016 0.0135
H35 H 0.1401 0.1896 0.0071
C27 C 0.0647(2) 0.1144(4) 0.07074(19)
H36 H 0.0674 0.0601 0.0369
H37 H 0.0226 0.1642 0.0561
C28 C 0.0626(2) 0.0368(4) 0.12459(18)
H38 H 0.0263 -0.0260 0.1105
H39 H 0.1064 -0.0073 0.1409
C29 C -0.02325(19) 0.1450(4) 0.15881(19)
H40 H -0.0490 0.0767 0.1700
H41 H -0.0421 0.1590 0.1142
C30 C -0.03131(18) 0.2608(4) 0.19252(19)
H42 H -0.0803 0.2796 0.1835
H43 H -0.0121 0.2467 0.2371
C31 C -0.03792(19) 0.4212(4) 0.11923(19)
H44 H -0.0835 0.4424 0.1221
H45 H -0.0438 0.3627 0.0848
C32 C -0.00294(19) 0.5349(4) 0.1082(2)
H46 H -0.0305 0.5764 0.0703
H47 H 0.0037 0.5932 0.1428
C33 C 0.06980(19) 0.0391(4) 0.23107(19)
H48 H 0.0550 -0.0477 0.2223
H49 H 0.0466 0.0735 0.2593
C34 C 0.14538(19) 0.0425(4) 0.26143(18)
C35 C 0.2362(2) -0.0197(4) 0.34762(19)
H50 H 0.2528 0.0667 0.3529
H51 H 0.2635 -0.0670 0.3267
C36 C 0.2415(2) -0.0768(4) 0.4085(2)
H52 H 0.2891 -0.0765 0.4342
H53 H 0.2248 -0.1621 0.4024
H54 H 0.2140 -0.0291 0.4285
loop_
_geom_bond_atom_site_label_1
_geom_bond_atom_site_label_2
_geom_bond_site_symmetry_1
_geom_bond_site_symmetry_2
Ba1 O1 1_555 1_555
Ba2 O1 1_555 1_555
Cl1 O1 1_555 1_555
O2 Ba1 1_555 1_555
O3 Ba2 1_555 1_555
O4 Cl1 1_555 1_555
Cl2 O5 1_555 1_555
O5 Ba1 1_555 1_555
O6 Cl2 1_555 1_555
O7 Cl2 1_555 1_555
O8 Cl2 1_555 1_555
Cl3 O9 1_555 1_555
O9 Ba1 1_555 1_555
O10 Ba2 1_555 1_555
O11 Ba1 1_555 1_555
O12 Cl3 1_555 1_555
Cl4 O13 1_555 1_555
O13 Ba2 1_555 1_555
O14 Cl4 1_555 1_555
O15 Cl4 1_555 1_555
O16 Cl4 1_555 1_555
O17 Ba1 1_555 1_555
O18 Ba1 1_555 1_555
O19 Ba1 1_555 1_555
O20 Ba1 1_555 1_555
O21 Ba1 1_555 1_555
O22 C16 1_555 1_555
N1 Ba1 1_555 1_555
C1 O20 1_555 1_555
C2 C1 1_555 1_555
H1 C2 1_555 1_555
C3 C2 1_555 1_555
H2 C3 1_555 1_555
C4 C3 1_555 1_555
H3 C4 1_555 1_555
C5 C4 1_555 1_555
H4 C5 1_555 1_555
C6 O17 1_555 1_555
C7 O17 1_555 1_555
H5 C7 1_555 1_555
H6 C7 1_555 1_555
C8 O18 1_555 1_555
H7 C8 1_555 1_555
H8 C8 1_555 1_555
C9 O18 1_555 1_555
H9 C9 1_555 1_555
H10 C9 1_555 1_555
C10 N1 1_555 1_555
H11 C10 1_555 1_555
H12 C10 1_555 1_555
C11 N1 1_555 1_555
H13 C11 1_555 1_555
H14 C11 1_555 1_555
C12 O19 1_555 1_555
H15 C12 1_555 1_555
H16 C12 1_555 1_555
C13 O19 1_555 1_555
H17 C13 1_555 1_555
H18 C13 1_555 1_555
C14 O20 1_555 1_555
H19 C14 1_555 1_555
H20 C14 1_555 1_555
C15 N1 1_555 1_555
H21 C15 1_555 1_555
H22 C15 1_555 1_555
C16 O21 1_555 1_555
C17 O22 1_555 1_555
H23 C17 1_555 1_555
H24 C17 1_555 1_555
C18 C17 1_555 1_555
H25 C18 1_555 1_555
H26 C18 1_555 1_555
H27 C18 1_555 1_555
O23 Ba2 1_555 1_555
O24 Ba2 1_555 1_555
O25 Ba2 1_555 1_555
O26 Ba2 1_555 1_555
O27 Ba2 1_555 1_555
O28 C34 1_555 1_555
N2 Ba2 1_555 1_555
C19 O26 1_555 1_555
C20 C19 1_555 1_555
H28 C20 1_555 1_555
C21 C20 1_555 1_555
H29 C21 1_555 1_555
C22 C21 1_555 1_555
H30 C22 1_555 1_555
C23 C22 1_555 1_555
H31 C23 1_555 1_555
C24 O23 1_555 1_555
C25 O23 1_555 1_555
H32 C25 1_555 1_555
H33 C25 1_555 1_555
C26 O24 1_555 1_555
H34 C26 1_555 1_555
H35 C26 1_555 1_555
C27 O24 1_555 1_555
H36 C27 1_555 1_555
H37 C27 1_555 1_555
C28 N2 1_555 1_555
H38 C28 1_555 1_555
H39 C28 1_555 1_555
C29 N2 1_555 1_555
H40 C29 1_555 1_555
H41 C29 1_555 1_555
C30 O25 1_555 1_555
H42 C30 1_555 1_555
H43 C30 1_555 1_555
C31 O25 1_555 1_555
H44 C31 1_555 1_555
H45 C31 1_555 1_555
C32 O26 1_555 1_555
H46 C32 1_555 1_555
H47 C32 1_555 1_555
C33 N2 1_555 1_555
H48 C33 1_555 1_555
H49 C33 1_555 1_555
C34 O27 1_555 1_555
C35 O28 1_555 1_555
H50 C35 1_555 1_555
H51 C35 1_555 1_555
C36 C35 1_555 1_555
H52 C36 1_555 1_555
H53 C36 1_555 1_555
H54 C36 1_555 1_555
Ba2 O9 1_555 1_555
Cl1 O2 1_555 1_555
Cl1 O3 1_555 1_555
Cl3 O10 1_555 1_555
Cl3 O11 1_555 1_555
C1 C6 1_555 1_555
C5 C6 1_555 1_555
C7 C8 1_555 1_555
C9 C10 1_555 1_555
C11 C12 1_555 1_555
C13 C14 1_555 1_555
C15 C16 1_555 1_555
C19 C24 1_555 1_555
C23 C24 1_555 1_555
C25 C26 1_555 1_555
C27 C28 1_555 1_555
C29 C30 1_555 1_555
C31 C32 1_555 1_555
C33 C34 1_555 1_555

#END
