
#######################################################################
#
#                 Cambridge Crystallographic Data Centre
#                                CCDC 
#
#######################################################################
#
# If this CIF has been generated from an entry in the Cambridge 
# Structural Database, then it will include bibliographic, chemical, 
# crystal, experimental, refinement or atomic coordinate data resulting 
# from the CCDC's data processing and validation procedures.
#
#######################################################################

data_NAJXEE
_chemical_formula_moiety         'C20 H22 O1'
_chemical_name_systematic        
4-(3,5-Dimethylphenyl)-5,7-dimethyl-3,4-dihydronaphthalen-1(2H)-one
_symmetry_cell_setting           triclinic
_symmetry_space_group_name_H-M   'P -1'
_symmetry_Int_Tables_number      2
_space_group_name_Hall           '-P 1'
loop_
_symmetry_equiv_pos_site_id
_symmetry_equiv_pos_as_xyz
1 x,y,z
2 -x,-y,-z
_cell_length_a                   8.4061(12)
_cell_length_b                   8.6026(12)
_cell_length_c                   12.582(2)
_cell_angle_alpha                91.647(5)
_cell_angle_beta                 102.618(5)
_cell_angle_gamma                112.149(4)
_cell_volume                     816.127
_cell_formula_units_Z            2
loop_
_atom_site_label
_atom_site_type_symbol
_atom_site_fract_x
_atom_site_fract_y
_atom_site_fract_z
O1 O 0.0052(2) 0.7913(2) 0.81476(14)
C1 C -0.1136(4) 0.7139(5) 0.3952(2)
H1 H -0.0961 0.8202 0.3637
H2 H -0.2234 0.6764 0.4200
H3 H -0.1216 0.6275 0.3395
C2 C 0.2022(3) 0.7501(3) 0.47527(17)
H4 H 0.2132 0.7382 0.4022
C3 C 0.0414(3) 0.7411(3) 0.49168(18)
C4 C 0.0275(3) 0.7567(3) 0.59809(17)
H5 H -0.0819 0.7497 0.6112
C5 C 0.1704(2) 0.7825(2) 0.68705(14)
C6 C 0.3331(2) 0.79252(19) 0.66964(14)
C7 C 0.3478(3) 0.7758(2) 0.56154(16)
C8 C 0.5180(3) 0.7833(4) 0.53723(19)
H6 H 0.5092 0.7866 0.4584
H7 H 0.5390 0.6829 0.5592
H8 H 0.6166 0.8851 0.5782
C9 C 0.1464(3) 0.7994(2) 0.79951(16)
C10 C 0.3014(3) 0.8289(3) 0.89468(15)
H9 H 0.2574 0.7768 0.9573
H10 H 0.3660 0.9521 0.9175
C11 C 0.4277(3) 0.7563(2) 0.86753(16)
H11 H 0.3680 0.6314 0.8541
H12 H 0.5319 0.7864 0.9308
C12 C 0.4897(2) 0.8235(2) 0.76575(14)
H13 H 0.5564 0.7574 0.7452
C13 C 0.6182(2) 1.0084(2) 0.79194(13)
C14 C 0.5613(2) 1.1403(2) 0.77599(13)
H14 H 0.4397 1.1156 0.7442
C15 C 0.6797(2) 1.3077(2) 0.80583(15)
C16 C 0.8574(2) 1.3424(2) 0.85127(14)
H15 H 0.9389 1.4566 0.8719
C17 C 0.9180(2) 1.2137(2) 0.86711(14)
C18 C 0.7968(2) 1.0477(2) 0.83718(14)
H16 H 0.8371 0.9586 0.8479
C19 C 0.6151(3) 1.4484(3) 0.7882(2)
H17 H 0.5051 1.4084 0.7300
H18 H 0.7053 1.5445 0.7667
H19 H 0.5930 1.4839 0.8563
C20 C 1.1105(3) 1.2518(3) 0.91845(19)
H20 H 1.1815 1.3716 0.9170
H21 H 1.1509 1.1819 0.8771
H22 H 1.1243 1.2268 0.9946
loop_
_geom_bond_atom_site_label_1
_geom_bond_atom_site_label_2
_geom_bond_site_symmetry_1
_geom_bond_site_symmetry_2
O1 C9 1_555 1_555
C1 H1 1_555 1_555
H2 C1 1_555 1_555
H3 C1 1_555 1_555
C2 H4 1_555 1_555
C3 C1 1_555 1_555
C4 C3 1_555 1_555
H5 C4 1_555 1_555
C5 C4 1_555 1_555
C6 C5 1_555 1_555
C7 C2 1_555 1_555
C8 C7 1_555 1_555
H6 C8 1_555 1_555
H7 C8 1_555 1_555
H8 C8 1_555 1_555
C9 C5 1_555 1_555
C10 C9 1_555 1_555
H9 C10 1_555 1_555
H10 C10 1_555 1_555
C11 C10 1_555 1_555
H11 C11 1_555 1_555
H12 C11 1_555 1_555
C12 C6 1_555 1_555
H13 C12 1_555 1_555
C13 C12 1_555 1_555
C14 C13 1_555 1_555
H14 C14 1_555 1_555
C15 C14 1_555 1_555
C16 C15 1_555 1_555
H15 C16 1_555 1_555
C17 C16 1_555 1_555
C18 C13 1_555 1_555
H16 C18 1_555 1_555
C19 C15 1_555 1_555
H17 C19 1_555 1_555
H18 C19 1_555 1_555
H19 C19 1_555 1_555
C20 C17 1_555 1_555
H20 C20 1_555 1_555
H21 C20 1_555 1_555
H22 C20 1_555 1_555
C2 C3 1_555 1_555
C6 C7 1_555 1_555
C11 C12 1_555 1_555
C17 C18 1_555 1_555

#END
