
#######################################################################
#
#                 Cambridge Crystallographic Data Centre
#                                CCDC 
#
#######################################################################
#
# If this CIF has been generated from an entry in the Cambridge 
# Structural Database, then it will include bibliographic, chemical, 
# crystal, experimental, refinement or atomic coordinate data resulting 
# from the CCDC's data processing and validation procedures.
#
#######################################################################

data_NAJZAC01
_chemical_name_common            Diosgenin
_chemical_formula_moiety         'C27 H42 O3,H2 O1'
_chemical_name_systematic        'spirost-5-en-3-ol monohydrate'
_symmetry_cell_setting           orthorhombic
_symmetry_space_group_name_H-M   'P 21 21 21'
_symmetry_Int_Tables_number      19
_space_group_name_Hall           'P 2ac 2ab'
loop_
_symmetry_equiv_pos_site_id
_symmetry_equiv_pos_as_xyz
1 x,y,z
2 1/2-x,-y,1/2+z
3 -x,1/2+y,1/2-z
4 1/2+x,1/2-y,-z
_cell_length_a                   7.6325(13)
_cell_length_b                   9.5901(16)
_cell_length_c                   33.143(5)
_cell_angle_alpha                90
_cell_angle_beta                 90
_cell_angle_gamma                90
_cell_volume                     2425.95
_exptl_crystal_colour            colorless
_exptl_crystal_description       plate
_cell_formula_units_Z            4
loop_
_atom_site_label
_atom_site_type_symbol
_atom_site_fract_x
_atom_site_fract_y
_atom_site_fract_z
C1 C 0.3669(2) 0.58256(17) -0.18215(4)
H1 H 0.3608 0.6813 -0.1747
C2 C 0.5178(2) 0.5153(2) -0.15954(4)
H2 H 0.5301 0.4194 -0.1683
H3 H 0.6255 0.5640 -0.1661
C3 C 0.49104(19) 0.51809(16) -0.11433(4)
C4 C 0.6171(2) 0.56394(18) -0.09031(4)
H4 H 0.7199 0.5948 -0.1024
C5 C 0.6074(2) 0.57008(19) -0.04537(4)
H5 H 0.6037 0.6670 -0.0371
H6 H 0.7130 0.5291 -0.0342
C6 C 0.44915(18) 0.49493(14) -0.02788(4)
H7 H 0.4751 0.3949 -0.0267
C7 C 0.40994(18) 0.54612(14) 0.01456(4)
H8 H 0.3770 0.6444 0.0118
C8 C 0.5542(2) 0.54149(18) 0.04666(4)
H9 H 0.6086 0.4502 0.0480
H10 H 0.6435 0.6113 0.0416
C9 C 0.4511(2) 0.57381(15) 0.08514(4)
H11 H 0.4710 0.6704 0.0936
C10 C 0.3676(3) 0.35261(17) 0.17097(5)
H12 H 0.3795 0.2682 0.1551
H13 H 0.2633 0.3436 0.1875
C11 C 0.5269(3) 0.36894(19) 0.19809(5)
H14 H 0.5300 0.2932 0.2175
H15 H 0.6327 0.3641 0.1819
C12 C 0.5210(2) 0.5070(2) 0.22026(4)
H16 H 0.4207 0.5058 0.2387
C13 C 0.6871(3) 0.5326(3) 0.24498(6)
H17 H 0.6779 0.6206 0.2586
H18 H 0.7868 0.5340 0.2273
H19 H 0.7008 0.4594 0.2645
C14 C 0.4942(2) 0.62329(18) 0.19009(5)
H20 H 0.4843 0.7112 0.2044
H21 H 0.5958 0.6289 0.1726
C15 C 0.3476(2) 0.47654(15) 0.14306(4)
C16 C 0.1879(2) 0.47402(16) 0.11470(4)
H22 H 0.1651 0.3765 0.1075
C17 C 0.0197(2) 0.5340(2) 0.13215(5)
H23 H -0.0720 0.5282 0.1124
H24 H 0.0381 0.6298 0.1394
H25 H -0.0133 0.4819 0.1557
C18 C 0.2549(2) 0.54877(14) 0.07651(4)
H26 H 0.1954 0.6389 0.0739
C19 C 0.25319(19) 0.47358(14) 0.03505(4)
C20 C 0.2851(2) 0.31634(15) 0.04003(5)
H27 H 0.2833 0.2723 0.0140
H28 H 0.1947 0.2770 0.0567
H29 H 0.3970 0.3014 0.0525
C21 C 0.0920(2) 0.4998(2) 0.00888(4)
H30 H 0.0643 0.5985 0.0092
H31 H -0.0073 0.4498 0.0200
C22 C 0.1225(2) 0.4522(2) -0.03492(4)
H32 H 0.0209 0.4771 -0.0510
H33 H 0.1333 0.3515 -0.0354
C23 C 0.28693(18) 0.51654(15) -0.05448(4)
H34 H 0.2668 0.6174 -0.0558
C24 C 0.31482(19) 0.46642(14) -0.09864(4)
C25 C 0.3103(3) 0.30605(15) -0.10190(5)
H35 H 0.4017 0.2670 -0.0855
H36 H 0.3275 0.2790 -0.1295
H37 H 0.1988 0.2724 -0.0927
C26 C 0.1672(2) 0.52732(18) -0.12519(4)
H38 H 0.0583 0.4809 -0.1184
H39 H 0.1536 0.6254 -0.1187
C27 C 0.1976(2) 0.51327(18) -0.17062(4)
H40 H 0.2017 0.4154 -0.1779
H41 H 0.1014 0.5563 -0.1851
O1 O 0.39174(19) 0.57226(14) -0.22489(3)
H42 H 0.4618 0.6319 -0.2323
O2 O 0.49467(14) 0.47946(12) 0.11704(3)
O3 O 0.34011(16) 0.60302(11) 0.16586(3)
O4 O 0.1044(2) 0.68901(15) 0.23315(5)
H43 H 0.1569 0.6654 0.2116
H44 H 0.0713 0.6163 0.2457
loop_
_geom_bond_atom_site_label_1
_geom_bond_atom_site_label_2
_geom_bond_site_symmetry_1
_geom_bond_site_symmetry_2
C1 H1 1_555 1_555
C2 C1 1_555 1_555
H2 C2 1_555 1_555
H3 C2 1_555 1_555
C3 C2 1_555 1_555
C4 C3 1_555 1_555
H4 C4 1_555 1_555
C5 C4 1_555 1_555
H5 C5 1_555 1_555
H6 C5 1_555 1_555
C6 C5 1_555 1_555
H7 C6 1_555 1_555
C7 C6 1_555 1_555
H8 C7 1_555 1_555
C8 C7 1_555 1_555
H9 C8 1_555 1_555
H10 C8 1_555 1_555
C9 C8 1_555 1_555
H11 C9 1_555 1_555
C10 H12 1_555 1_555
H13 C10 1_555 1_555
C11 C10 1_555 1_555
H14 C11 1_555 1_555
H15 C11 1_555 1_555
C12 C11 1_555 1_555
H16 C12 1_555 1_555
C13 C12 1_555 1_555
H17 C13 1_555 1_555
H18 C13 1_555 1_555
H19 C13 1_555 1_555
C14 C12 1_555 1_555
H20 C14 1_555 1_555
H21 C14 1_555 1_555
C15 C10 1_555 1_555
C16 C15 1_555 1_555
H22 C16 1_555 1_555
C17 C16 1_555 1_555
H23 C17 1_555 1_555
H24 C17 1_555 1_555
H25 C17 1_555 1_555
C18 C9 1_555 1_555
H26 C18 1_555 1_555
C19 C7 1_555 1_555
C20 C19 1_555 1_555
H27 C20 1_555 1_555
H28 C20 1_555 1_555
H29 C20 1_555 1_555
C21 C19 1_555 1_555
H30 C21 1_555 1_555
H31 C21 1_555 1_555
C22 C21 1_555 1_555
H32 C22 1_555 1_555
H33 C22 1_555 1_555
C23 C6 1_555 1_555
H34 C23 1_555 1_555
C24 C3 1_555 1_555
C25 C24 1_555 1_555
H35 C25 1_555 1_555
H36 C25 1_555 1_555
H37 C25 1_555 1_555
C26 C24 1_555 1_555
H38 C26 1_555 1_555
H39 C26 1_555 1_555
C27 C1 1_555 1_555
H40 C27 1_555 1_555
H41 C27 1_555 1_555
O1 C1 1_555 1_555
H42 O1 1_555 1_555
O2 C9 1_555 1_555
O3 C14 1_555 1_555
O4 H43 1_555 1_555
H44 O4 1_555 1_555
C15 O2 1_555 1_555
C15 O3 1_555 1_555
C16 C18 1_555 1_555
C18 C19 1_555 1_555
C22 C23 1_555 1_555
C23 C24 1_555 1_555
C26 C27 1_555 1_555

#END
