
#######################################################################
#
#                 Cambridge Crystallographic Data Centre
#                                CCDC 
#
#######################################################################
#
# If this CIF has been generated from an entry in the Cambridge 
# Structural Database, then it will include bibliographic, chemical, 
# crystal, experimental, refinement or atomic coordinate data resulting 
# from the CCDC's data processing and validation procedures.
#
#######################################################################

data_NAKCUA
_chemical_formula_moiety         'C10 H26 N4 2+,2(C3 H6 O1),2(C24 H20 B1 1-)'
_chemical_name_systematic        
"N,N,N',N'-Tetramethyl-N''-[2-(trimethylazaniumyl)ethyl]guanidinium bis(tetraphenylborate) acetone solvate"
_symmetry_cell_setting           triclinic
_symmetry_space_group_name_H-M   'P -1'
_symmetry_Int_Tables_number      2
_space_group_name_Hall           '-P 1'
loop_
_symmetry_equiv_pos_site_id
_symmetry_equiv_pos_as_xyz
1 x,y,z
2 -x,-y,-z
_cell_length_a                   11.4419(3)
_cell_length_b                   14.1461(5)
_cell_length_c                   18.8503(9)
_cell_angle_alpha                110.6352(13)
_cell_angle_beta                 101.8240(10)
_cell_angle_gamma                97.8879(8)
_cell_volume                     2720.7
_exptl_crystal_colour            colorless
_exptl_crystal_description       block
_cell_formula_units_Z            2
loop_
_atom_site_label
_atom_site_type_symbol
_atom_site_fract_x
_atom_site_fract_y
_atom_site_fract_z
N1 N 0.59093(10) 0.41666(8) 0.31479(6)
N2 N 0.75655(10) 0.34377(8) 0.34002(6)
N3 N 0.56432(10) 0.26444(9) 0.33777(7)
H1 H 0.5979(17) 0.2332(14) 0.3649(11)
C1 C 0.63681(11) 0.34267(10) 0.33081(7)
C2 C 0.48354(12) 0.44848(11) 0.33871(8)
H2 H 0.4108 0.4169 0.2933
H3 H 0.4971 0.5242 0.3582
H4 H 0.4710 0.4256 0.3806
C3 C 0.64100(13) 0.46827(11) 0.26869(8)
H5 H 0.6852 0.5396 0.3035
H6 H 0.5738 0.4694 0.2276
H7 H 0.6975 0.4303 0.2443
C4 C 0.85097(12) 0.44027(11) 0.37520(8)
H8 H 0.8133 0.4991 0.3947
H9 H 0.8905 0.4479 0.3354
H10 H 0.9125 0.4386 0.4191
C5 C 0.80177(13) 0.24885(11) 0.32670(9)
H11 H 0.8248 0.2398 0.3765
H12 H 0.8736 0.2540 0.3063
H13 H 0.7372 0.1892 0.2883
C6 C 0.43715(11) 0.21537(10) 0.29157(7)
H14 H 0.3835 0.2625 0.3101
H15 H 0.4105 0.1506 0.2989
C7 C 0.42530(12) 0.19057(11) 0.20429(8)
H16 H 0.4279 0.2558 0.1955
H17 H 0.4971 0.1640 0.1911
N4 N 0.3105(4) 0.1127(3) 0.1488(2)
C8 C 0.19893(18) 0.1358(2) 0.17388(14)
H18 H 0.2064 0.1348 0.2263
H19 H 0.1265 0.0833 0.1362
H20 H 0.1903 0.2045 0.1756
C9 C 0.29953(19) 0.11284(18) 0.06795(11)
H21 H 0.2325 0.0554 0.0295
H22 H 0.3766 0.1045 0.0541
H23 H 0.2824 0.1787 0.0676
C10 C 0.32390(19) 0.00665(14) 0.14393(12)
H24 H 0.3262 0.0024 0.1949
H25 H 0.4002 -0.0059 0.1304
H26 H 0.2541 -0.0457 0.1033
B1 B 0.77548(13) 0.27582(11) 0.04141(8)
C14 C 0.88932(11) 0.27236(9) -0.00039(7)
C15 C 0.95590(11) 0.19452(10) -0.01608(7)
H36 H 0.9370 0.1389 -0.0002
C16 C 1.04867(12) 0.19517(11) -0.05401(8)
H37 H 1.0916 0.1410 -0.0629
C17 C 1.07830(12) 0.27478(11) -0.07873(8)
H38 H 1.1417 0.2759 -0.1043
C18 C 1.01347(12) 0.35294(10) -0.06543(8)
H39 H 1.0316 0.4074 -0.0827
C19 C 0.92198(12) 0.35140(10) -0.02680(8)
H40 H 0.8797 0.4060 -0.0179
C20 C 0.64551(12) 0.25013(10) -0.02617(8)
C21 C 0.53451(12) 0.26090(10) -0.00582(8)
H41 H 0.5359 0.2833 0.0482
C22 C 0.42312(12) 0.24021(11) -0.06130(9)
H42 H 0.3509 0.2492 -0.0447
C23 C 0.41749(13) 0.20643(11) -0.14102(9)
H43 H 0.3418 0.1921 -0.1792
C24 C 0.52392(14) 0.19396(11) -0.16378(8)
H44 H 0.5211 0.1700 -0.2181
C25 C 0.63568(13) 0.21642(10) -0.10724(8)
H45 H 0.7076 0.2086 -0.1244
C26 C 0.80202(11) 0.39532(10) 0.10867(7)
C27 C 0.90731(12) 0.43503(10) 0.17312(8)
H46 H 0.9599 0.3903 0.1791
C28 C 0.93838(13) 0.53692(11) 0.22868(8)
H47 H 1.0107 0.5599 0.2712
C29 C 0.86385(13) 0.60503(11) 0.22215(8)
H48 H 0.8841 0.6745 0.2599
C30 C 0.75911(13) 0.56894(10) 0.15907(8)
H49 H 0.7068 0.6141 0.1535
C31 C 0.73019(12) 0.46676(10) 0.10378(8)
H50 H 0.6586 0.4446 0.0609
C32 C 0.77013(11) 0.18967(10) 0.08248(7)
C33 C 0.87714(12) 0.17699(10) 0.12790(8)
H51 H 0.9530 0.2229 0.1379
C34 C 0.87737(12) 0.10107(10) 0.15866(8)
H52 H 0.9523 0.0957 0.1882
C35 C 0.76808(13) 0.03260(10) 0.14644(8)
H53 H 0.7676 -0.0199 0.1669
C36 C 0.66014(12) 0.04320(10) 0.10369(8)
H54 H 0.5845 -0.0018 0.0954
C37 C 0.66199(12) 0.11944(10) 0.07278(8)
H55 H 0.5865 0.1244 0.0437
B2 B 0.21218(12) 0.21890(11) 0.46170(8)
C38 C 0.18977(11) 0.10369(10) 0.39032(7)
C39 C 0.07262(12) 0.05578(10) 0.33620(8)
H56 H 0.0083 0.0913 0.3421
C40 C 0.04716(13) -0.04096(11) 0.27466(8)
H57 H -0.0329 -0.0695 0.2394
C41 C 0.13855(14) -0.09602(11) 0.26452(9)
H58 H 0.1218 -0.1622 0.2228
C42 C 0.25467(14) -0.05202(11) 0.31674(9)
H59 H 0.3181 -0.0886 0.3110
C43 C 0.27898(12) 0.04579(10) 0.37778(8)
H60 H 0.3596 0.0742 0.4123
C44 C 0.09474(11) 0.21976(9) 0.49961(7)
C45 C 0.02629(11) 0.29574(10) 0.50940(8)
H61 H 0.0450 0.3485 0.4906
C46 C -0.06912(12) 0.29718(11) 0.54603(8)
H62 H -0.1141 0.3498 0.5510
C47 C -0.09777(12) 0.22214(11) 0.57497(8)
H63 H -0.1612 0.2236 0.6007
C48 C -0.03243(12) 0.14465(11) 0.56592(8)
H64 H -0.0512 0.0926 0.5854
C49 C 0.06078(12) 0.14359(10) 0.52818(8)
H65 H 0.1031 0.0891 0.5215
C50 C 0.33983(11) 0.24479(9) 0.53140(7)
C51 C 0.34464(12) 0.26164(10) 0.61014(8)
H66 H 0.2704 0.2597 0.6253
C52 C 0.45487(13) 0.28120(11) 0.66708(8)
H67 H 0.4539 0.2924 0.7197
C53 C 0.56528(13) 0.28439(11) 0.64765(9)
H68 H 0.6397 0.2955 0.6859
C54 C 0.56484(12) 0.27095(10) 0.57047(9)
H69 H 0.6396 0.2738 0.5560
C55 C 0.45479(12) 0.25341(10) 0.51484(8)
H70 H 0.4571 0.2469 0.4633
C56 C 0.21969(11) 0.31079(10) 0.42702(7)
C57 C 0.15048(11) 0.29751(10) 0.35213(7)
H71 H 0.1023 0.2304 0.3175
C58 C 0.14934(12) 0.37874(11) 0.32625(8)
H72 H 0.1013 0.3659 0.2749
C59 C 0.21772(12) 0.47772(10) 0.37494(8)
H73 H 0.2169 0.5330 0.3575
C60 C 0.28783(12) 0.49490(10) 0.44999(8)
H74 H 0.3352 0.5624 0.4844
C61 C 0.28817(12) 0.41266(10) 0.47442(8)
H75 H 0.3371 0.4260 0.5256
O1 O 0.34685(13) 0.37036(10) 0.13799(8)
C62 C 0.31258(14) 0.44161(12) 0.12440(9)
C63 C 0.37217(16) 0.49196(14) 0.07953(11)
H76 H 0.4042 0.5662 0.1119
H77 H 0.3118 0.4827 0.0311
H78 H 0.4398 0.4601 0.0661
C64 C 0.20691(17) 0.47985(18) 0.15014(11)
H79 H 0.1306 0.4408 0.1088
H80 H 0.2178 0.5537 0.1599
H81 H 0.2028 0.4702 0.1986
O2 O 0.59749(11) 0.08463(11) 0.35934(9)
C65 C 0.62729(14) 0.00823(11) 0.45296(9)
H82 H 0.5788 0.0548 0.4785
H83 H 0.7044 0.0173 0.4914
H84 H 0.5808 -0.0638 0.4326
C66 C 0.65441(13) 0.03302(11) 0.38676(9)
C67 C 0.75574(14) -0.00695(13) 0.35534(9)
H85 H 0.7550 0.0038 0.3067
H86 H 0.7439 -0.0812 0.3443
H87 H 0.8347 0.0304 0.3945
N5? N 0.299(2) 0.1157(16) 0.1554(13)
C11? C 0.2084(11) 0.1796(11) 0.1593(8)
H27? H 0.2325 0.2345 0.1412
H28? H 0.2040 0.2109 0.2138
H29? H 0.1279 0.1361 0.1255
C12? C 0.3109(11) 0.0687(10) 0.0737(6)
H30? H 0.3659 0.1193 0.0638
H31? H 0.2300 0.0488 0.0360
H32? H 0.3446 0.0071 0.0675
C13? C 0.2609(11) 0.0254(8) 0.1770(7)
H33? H 0.1931 -0.0261 0.1340
H34? H 0.2342 0.0500 0.2252
H35? H 0.3305 -0.0064 0.1857
loop_
_geom_bond_atom_site_label_1
_geom_bond_atom_site_label_2
_geom_bond_site_symmetry_1
_geom_bond_site_symmetry_2
N1 C1 1_555 1_555
N2 C1 1_555 1_555
N3 H1 1_555 1_555
C1 N3 1_555 1_555
C2 N1 1_555 1_555
H2 C2 1_555 1_555
H3 C2 1_555 1_555
H4 C2 1_555 1_555
C3 N1 1_555 1_555
H5 C3 1_555 1_555
H6 C3 1_555 1_555
H7 C3 1_555 1_555
C4 N2 1_555 1_555
H8 C4 1_555 1_555
H9 C4 1_555 1_555
H10 C4 1_555 1_555
C5 N2 1_555 1_555
H11 C5 1_555 1_555
H12 C5 1_555 1_555
H13 C5 1_555 1_555
C6 N3 1_555 1_555
H14 C6 1_555 1_555
H15 C6 1_555 1_555
C7 C6 1_555 1_555
H16 C7 1_555 1_555
H17 C7 1_555 1_555
N4 C7 1_555 1_555
C8 N4 1_555 1_555
H18 C8 1_555 1_555
H19 C8 1_555 1_555
H20 C8 1_555 1_555
C9 N4 1_555 1_555
H21 C9 1_555 1_555
H22 C9 1_555 1_555
H23 C9 1_555 1_555
C10 N4 1_555 1_555
H24 C10 1_555 1_555
H25 C10 1_555 1_555
H26 C10 1_555 1_555
B1 C14 1_555 1_555
C14 C15 1_555 1_555
C15 H36 1_555 1_555
C16 C15 1_555 1_555
H37 C16 1_555 1_555
C17 C16 1_555 1_555
H38 C17 1_555 1_555
C18 C17 1_555 1_555
H39 C18 1_555 1_555
C19 C14 1_555 1_555
H40 C19 1_555 1_555
C20 B1 1_555 1_555
C21 C20 1_555 1_555
H41 C21 1_555 1_555
C22 C21 1_555 1_555
H42 C22 1_555 1_555
C23 C22 1_555 1_555
H43 C23 1_555 1_555
C24 C23 1_555 1_555
H44 C24 1_555 1_555
C25 C20 1_555 1_555
H45 C25 1_555 1_555
C26 B1 1_555 1_555
C27 C26 1_555 1_555
H46 C27 1_555 1_555
C28 C27 1_555 1_555
H47 C28 1_555 1_555
C29 C28 1_555 1_555
H48 C29 1_555 1_555
C30 C29 1_555 1_555
H49 C30 1_555 1_555
C31 C26 1_555 1_555
H50 C31 1_555 1_555
C32 B1 1_555 1_555
C33 C32 1_555 1_555
H51 C33 1_555 1_555
C34 C33 1_555 1_555
H52 C34 1_555 1_555
C35 C34 1_555 1_555
H53 C35 1_555 1_555
C36 C35 1_555 1_555
H54 C36 1_555 1_555
C37 C32 1_555 1_555
H55 C37 1_555 1_555
B2 C38 1_555 1_555
C38 C39 1_555 1_555
C39 H56 1_555 1_555
C40 C39 1_555 1_555
H57 C40 1_555 1_555
C41 C40 1_555 1_555
H58 C41 1_555 1_555
C42 C41 1_555 1_555
H59 C42 1_555 1_555
C43 C38 1_555 1_555
H60 C43 1_555 1_555
C44 B2 1_555 1_555
C45 C44 1_555 1_555
H61 C45 1_555 1_555
C46 C45 1_555 1_555
H62 C46 1_555 1_555
C47 C46 1_555 1_555
H63 C47 1_555 1_555
C48 C47 1_555 1_555
H64 C48 1_555 1_555
C49 C44 1_555 1_555
H65 C49 1_555 1_555
C50 B2 1_555 1_555
C51 C50 1_555 1_555
H66 C51 1_555 1_555
C52 C51 1_555 1_555
H67 C52 1_555 1_555
C53 C52 1_555 1_555
H68 C53 1_555 1_555
C54 C53 1_555 1_555
H69 C54 1_555 1_555
C55 C50 1_555 1_555
H70 C55 1_555 1_555
C56 B2 1_555 1_555
C57 C56 1_555 1_555
H71 C57 1_555 1_555
C58 C57 1_555 1_555
H72 C58 1_555 1_555
C59 C58 1_555 1_555
H73 C59 1_555 1_555
C60 C59 1_555 1_555
H74 C60 1_555 1_555
C61 C56 1_555 1_555
H75 C61 1_555 1_555
O1 C62 1_555 1_555
C62 C63 1_555 1_555
C63 H76 1_555 1_555
H77 C63 1_555 1_555
H78 C63 1_555 1_555
C64 C62 1_555 1_555
H79 C64 1_555 1_555
H80 C64 1_555 1_555
H81 C64 1_555 1_555
O2 C66 1_555 1_555
C65 H82 1_555 1_555
H83 C65 1_555 1_555
H84 C65 1_555 1_555
C66 C65 1_555 1_555
C67 C66 1_555 1_555
H85 C67 1_555 1_555
H86 C67 1_555 1_555
H87 C67 1_555 1_555
C18 C19 1_555 1_555
C24 C25 1_555 1_555
C30 C31 1_555 1_555
C36 C37 1_555 1_555
C42 C43 1_555 1_555
C48 C49 1_555 1_555
C54 C55 1_555 1_555
C60 C61 1_555 1_555

#END
