
#######################################################################
#
#                 Cambridge Crystallographic Data Centre
#                                CCDC 
#
#######################################################################
#
# If this CIF has been generated from an entry in the Cambridge 
# Structural Database, then it will include bibliographic, chemical, 
# crystal, experimental, refinement or atomic coordinate data resulting 
# from the CCDC's data processing and validation procedures.
#
#######################################################################

data_NAKJAN
_chemical_formula_moiety         'C19 H18 N2 O4'
_chemical_name_systematic        
'ethyl 2-(2,2-dicyano-1-ethoxyvinyl)-4-(4-methylphenyl)-4-oxobut-2-enoate'
_symmetry_cell_setting           triclinic
_symmetry_space_group_name_H-M   'P -1'
_symmetry_Int_Tables_number      2
_space_group_name_Hall           '-P 1'
loop_
_symmetry_equiv_pos_site_id
_symmetry_equiv_pos_as_xyz
1 x,y,z
2 -x,-y,-z
_cell_length_a                   7.1902(4)
_cell_length_b                   9.9128(6)
_cell_length_c                   13.7914(7)
_cell_angle_alpha                110.135(2)
_cell_angle_beta                 95.686(2)
_cell_angle_gamma                102.891(2)
_cell_volume                     882.879
_exptl_crystal_colour            'light yellow'
_exptl_crystal_description       plate
_cell_formula_units_Z            2
loop_
_atom_site_label
_atom_site_type_symbol
_atom_site_fract_x
_atom_site_fract_y
_atom_site_fract_z
O1 O 0.17970(14) 0.37375(10) 0.29012(7)
O2 O 0.03847(12) 0.64797(9) 0.40635(6)
O3 O -0.03986(14) 0.66832(11) 0.09243(7)
O4 O 0.03884(12) 0.82943(9) 0.26116(6)
N1 N 0.59117(18) 0.76017(14) 0.26397(10)
N2 N 0.47435(17) 0.87434(13) 0.58877(8)
C1 C 0.81425(19) 0.11064(15) 0.03980(10)
H1 H 0.9129 0.1230 0.0989
H2 H 0.8751 0.1590 -0.0047
H3 H 0.7559 0.0039 -0.0018
C2 C 0.65896(18) 0.18126(14) 0.08119(9)
C3 C 0.58300(19) 0.26805(15) 0.03538(10)
H4 H 0.6305 0.2831 -0.0230
C4 C 0.43968(19) 0.33244(14) 0.07368(10)
H5 H 0.3892 0.3905 0.0412
C5 C 0.36930(17) 0.31214(13) 0.15988(9)
C6 C 0.44411(18) 0.22409(13) 0.20559(9)
H6 H 0.3970 0.2090 0.2641
C7 C 0.58531(18) 0.15948(14) 0.16620(9)
H7 H 0.6334 0.0991 0.1974
C8 C 0.22561(18) 0.38444(13) 0.20962(9)
C9 C 0.13741(17) 0.47789(13) 0.16386(9)
H8 H 0.1065 0.4494 0.0897
C10 C 0.10262(17) 0.60113(13) 0.22784(9)
C11 C 0.02296(17) 0.70074(13) 0.18403(9)
C12 C -0.01879(19) 0.94587(14) 0.23396(10)
H9 H -0.1513 0.9064 0.1905
H10 H 0.0724 0.9840 0.1940
C13 C -0.0135(2) 1.06763(15) 0.33626(11)
H11 H -0.0440 1.1518 0.3226
H12 H 0.1165 1.1012 0.3801
H13 H -0.1095 1.0296 0.3730
C14 C 0.16425(17) 0.66137(13) 0.34469(9)
C15 C 0.35172(17) 0.74221(13) 0.38852(9)
C16 C 0.48727(18) 0.75633(14) 0.32140(10)
C17 C 0.41805(17) 0.81460(14) 0.49996(9)
C18 C -0.15578(18) 0.54490(15) 0.35794(10)
H14 H -0.1462 0.4424 0.3208
H15 H -0.2222 0.5763 0.3065
C19 C -0.26671(19) 0.54898(15) 0.44462(10)
H16 H -0.3975 0.4804 0.4151
H17 H -0.2764 0.6507 0.4802
H18 H -0.1990 0.5185 0.4953
loop_
_geom_bond_atom_site_label_1
_geom_bond_atom_site_label_2
_geom_bond_site_symmetry_1
_geom_bond_site_symmetry_2
O1 C8 1_555 1_555
O2 C14 1_555 1_555
O3 C11 1_555 1_555
O4 C11 1_555 1_555
N1 C16 1_555 1_555
N2 C17 1_555 1_555
C1 H1 1_555 1_555
H2 C1 1_555 1_555
H3 C1 1_555 1_555
C2 C1 1_555 1_555
C3 C2 1_555 1_555
H4 C3 1_555 1_555
C4 C3 1_555 1_555
H5 C4 1_555 1_555
C5 C4 1_555 1_555
C6 C5 1_555 1_555
H6 C6 1_555 1_555
C7 C2 1_555 1_555
H7 C7 1_555 1_555
C8 C5 1_555 1_555
C9 C8 1_555 1_555
H8 C9 1_555 1_555
C10 C9 1_555 1_555
C11 C10 1_555 1_555
C12 O4 1_555 1_555
H9 C12 1_555 1_555
H10 C12 1_555 1_555
C13 C12 1_555 1_555
H11 C13 1_555 1_555
H12 C13 1_555 1_555
H13 C13 1_555 1_555
C14 C10 1_555 1_555
C15 C14 1_555 1_555
C16 C15 1_555 1_555
C17 C15 1_555 1_555
C18 O2 1_555 1_555
H14 C18 1_555 1_555
H15 C18 1_555 1_555
C19 C18 1_555 1_555
H16 C19 1_555 1_555
H17 C19 1_555 1_555
H18 C19 1_555 1_555
C6 C7 1_555 1_555

#END
