
#######################################################################
#
#                 Cambridge Crystallographic Data Centre
#                                CCDC 
#
#######################################################################
#
# If this CIF has been generated from an entry in the Cambridge 
# Structural Database, then it will include bibliographic, chemical, 
# crystal, experimental, refinement or atomic coordinate data resulting 
# from the CCDC's data processing and validation procedures.
#
#######################################################################

data_NAKKUG
_chemical_formula_moiety         'C21 H13 N1'
_chemical_name_systematic        6-Aza[5]helicene
_symmetry_cell_setting           monoclinic
_symmetry_space_group_name_H-M   'P 21/n'
_symmetry_Int_Tables_number      14
_space_group_name_Hall           '-P 2yn'
loop_
_symmetry_equiv_pos_site_id
_symmetry_equiv_pos_as_xyz
1 x,y,z
2 1/2-x,1/2+y,1/2-z
3 -x,-y,-z
4 1/2+x,1/2-y,1/2+z
_cell_length_a                   13.7011(8)
_cell_length_b                   5.9854(3)
_cell_length_c                   17.7809(10)
_cell_angle_alpha                90
_cell_angle_beta                 103.9718(15)
_cell_angle_gamma                90
_cell_volume                     1415.01
_exptl_crystal_colour            yellow
_exptl_crystal_description       prism
_cell_formula_units_Z            4
loop_
_atom_site_label
_atom_site_type_symbol
_atom_site_fract_x
_atom_site_fract_y
_atom_site_fract_z
C1 C 1.05879(10) 0.6543(3) 0.62787(8)
C2 C 1.10018(13) 0.7671(3) 0.57608(11)
C3 C 1.14831(16) 0.9728(4) 0.59653(16)
C4 C 1.15921(14) 1.0546(3) 0.66885(15)
C5 C 1.14194(12) 1.0049(3) 0.80346(12)
N1 N 1.12151(10) 0.8862(3) 0.85856(9)
C6 C 1.04788(12) 0.5634(3) 0.89977(8)
C7 C 0.99442(12) 0.3736(3) 0.88563(8)
C8 C 0.88063(11) 0.1206(2) 0.79594(9)
C9 C 0.82329(11) 0.0709(2) 0.72604(9)
C10 C 0.73999(10) 0.1915(2) 0.59370(9)
C11 C 0.71977(11) 0.3506(3) 0.53764(8)
C12 C 0.77059(10) 0.5541(2) 0.55030(7)
C13 C 0.84453(9) 0.5901(2) 0.61662(7)
C14 C 1.06296(9) 0.7425(2) 0.70231(7)
C15 C 1.11963(10) 0.9392(2) 0.72389(10)
C16 C 1.02154(9) 0.6343(2) 0.76048(7)
C17 C 1.06366(10) 0.6985(3) 0.83806(8)
C18 C 0.94700(9) 0.4590(2) 0.74669(6)
C19 C 0.94138(10) 0.3173(2) 0.80921(7)
C20 C 0.87153(8) 0.42484(19) 0.67434(6)
C21 C 0.81334(9) 0.2256(2) 0.66387(7)
H1 H 0.8780(10) 0.737(2) 0.6241(7)
H2 H 0.7023(13) 0.049(3) 0.5872(9)
H3 H 0.8825(12) 0.019(3) 0.8383(9)
H4 H 1.0265(12) 0.506(3) 0.6143(8)
H5 H 0.7516(12) 0.676(3) 0.5101(9)
H6 H 1.1779(15) 1.143(3) 0.8162(10)
H7 H 0.6675(15) 0.326(3) 0.4889(10)
H8 H 0.9891(13) 0.271(3) 0.9293(10)
H9 H 0.7837(13) -0.073(3) 0.7177(9)
H10 H 1.0779(14) 0.616(3) 0.9508(11)
H11 H 1.0966(14) 0.699(3) 0.5225(10)
H12 H 1.1736(19) 1.049(4) 0.5581(14)
H13 H 1.1952(17) 1.195(3) 0.6852(11)
loop_
_geom_bond_atom_site_label_1
_geom_bond_atom_site_label_2
_geom_bond_site_symmetry_1
_geom_bond_site_symmetry_2
C1 C2 1_555 1_555
C2 C3 1_555 1_555
C3 C4 1_555 1_555
C4 C15 1_555 1_555
C5 N1 1_555 1_555
N1 C17 1_555 1_555
C6 C7 1_555 1_555
C7 C19 1_555 1_555
C8 C9 1_555 1_555
C9 C21 1_555 1_555
C10 C11 1_555 1_555
C11 C12 1_555 1_555
C12 C13 1_555 1_555
C13 C20 1_555 1_555
C14 C1 1_555 1_555
C15 C5 1_555 1_555
C16 C14 1_555 1_555
C17 C6 1_555 1_555
C18 C16 1_555 1_555
C19 C8 1_555 1_555
C20 C18 1_555 1_555
C21 C10 1_555 1_555
H1 C13 1_555 1_555
H2 C10 1_555 1_555
H3 C8 1_555 1_555
H4 C1 1_555 1_555
H5 C12 1_555 1_555
H6 C5 1_555 1_555
H7 C11 1_555 1_555
H8 C7 1_555 1_555
H9 C9 1_555 1_555
H10 C6 1_555 1_555
H11 C2 1_555 1_555
H12 C3 1_555 1_555
H13 C4 1_555 1_555
C14 C15 1_555 1_555
C16 C17 1_555 1_555
C18 C19 1_555 1_555
C20 C21 1_555 1_555

#END
