
#######################################################################
#
#                 Cambridge Crystallographic Data Centre
#                                CCDC 
#
#######################################################################
#
# If this CIF has been generated from an entry in the Cambridge 
# Structural Database, then it will include bibliographic, chemical, 
# crystal, experimental, refinement or atomic coordinate data resulting 
# from the CCDC's data processing and validation procedures.
#
#######################################################################

data_NAKLAN
_chemical_formula_moiety         'C21 H13 N1'
_chemical_name_systematic        4-Aza[5]helicene
_symmetry_cell_setting           monoclinic
_symmetry_space_group_name_H-M   'C 2/c'
_symmetry_Int_Tables_number      15
_space_group_name_Hall           '-C 2yn'
loop_
_symmetry_equiv_pos_site_id
_symmetry_equiv_pos_as_xyz
1 x,y,z
2 1/2+x,1/2+y,z
3 -x,y,1/2-z
4 1/2-x,1/2+y,1/2-z
5 -x,-y,-z
6 1/2-x,1/2-y,-z
7 x,-y,1/2+z
8 1/2+x,1/2-y,1/2+z
_cell_length_a                   19.344(3)
_cell_length_b                   8.8277(13)
_cell_length_c                   25.968(4)
_cell_angle_alpha                90
_cell_angle_beta                 104.238(3)
_cell_angle_gamma                90
_cell_volume                     4298.16
_exptl_crystal_colour            brown
_exptl_crystal_description       prism
_cell_formula_units_Z            12
loop_
_atom_site_label
_atom_site_type_symbol
_atom_site_fract_x
_atom_site_fract_y
_atom_site_fract_z
C22 C 0.9918(13) -0.416(3) 0.8072(15)
C23 C 0.9753(12) -0.540(3) 0.8335(13)
C24 C 0.9087(9) -0.5492(11) 0.8441(7)
N2 N 0.8611(8) -0.4345(16) 0.8342(6)
C25 C 0.8341(5) -0.1834(12) 0.8076(3)
C26 C 0.8543(15) -0.039(3) 0.7926(16)
C27 C 0.9414(7) 0.1177(11) 0.7662(3)
C28 C 1.007(2) 0.1365(8) 0.754(3)
C29 C 0.8944(9) 0.0325(17) 0.7766(5)
C30 C 0.8605(15) -0.086(2) 0.7950(15)
C31 C 0.8652(9) -0.344(2) 0.8278(7)
C32 C 0.8990(12) -0.479(2) 0.8405(7)
C33 C 0.9656(13) -0.502(3) 0.8288(13)
C34 C 0.9921(17) -0.393(3) 0.8019(16)
C35 C 0.9436(11) -0.295(2) 0.7931(11)
C36 C 0.8796(6) -0.3069(18) 0.8108(5)
C37 C 0.9584(3) -0.1582(8) 0.7688(3)
C38 C 0.9173(7) -0.0288(12) 0.7754(4)
C39 C 1.0153(3) -0.1357(5) 0.7428(2)
C40 C 0.9572(5) 0.0121(13) 0.7599(3)
C41 C 0.9555(12) -0.256(2) 0.7851(11)
C42 C 0.8945(7) -0.2289(14) 0.8020(5)
C22B C 1.0082(13) -0.416(3) 0.6928(15)
C23B C 1.0247(12) -0.540(3) 0.6665(13)
C24B C 1.0913(9) -0.5492(11) 0.6559(7)
N2B N 1.1389(8) -0.4345(16) 0.6658(6)
C25B C 1.1659(5) -0.1834(12) 0.6924(3)
C26B C 1.1457(15) -0.039(3) 0.7074(16)
C27B C 1.0586(7) 0.1177(11) 0.7338(3)
C28B C 0.993(2) 0.1365(8) 0.746(3)
C29B C 1.1056(9) 0.0325(17) 0.7234(5)
C30B C 1.1395(15) -0.086(2) 0.7050(15)
C31B C 1.1348(9) -0.344(2) 0.6722(7)
C32B C 1.1010(12) -0.479(2) 0.6595(7)
C33B C 1.0344(13) -0.502(3) 0.6712(13)
C34B C 1.0079(17) -0.393(3) 0.6981(16)
C35B C 1.0564(11) -0.295(2) 0.7069(11)
C36B C 1.1204(6) -0.3069(18) 0.6892(5)
C37B C 1.0416(3) -0.1582(8) 0.7312(3)
C38B C 1.0827(7) -0.0288(12) 0.7246(4)
C39B C 0.9847(3) -0.1357(5) 0.7572(2)
C40B C 1.0428(5) 0.0121(13) 0.7401(3)
C41B C 1.0445(12) -0.256(2) 0.7149(11)
C42B C 1.1055(7) -0.2289(14) 0.6980(5)
C1 C 0.90379(14) 0.1424(3) 0.46637(12)
H1 H 0.8804 0.133 0.4307
C2 C 0.94589(17) 0.2657(4) 0.48307(15)
H2 H 0.9507 0.3399 0.4587
C3 C 0.9810(2) 0.2808(5) 0.53534(19)
H3 H 1.0073 0.3685 0.5459
N1 N 0.97918(17) 0.1772(5) 0.57121(15)
C4 C 0.9422(2) -0.0715(7) 0.59139(17)
H4 H 0.9658 -0.0571 0.6268
C5 C 0.9126(2) -0.2058(7) 0.57537(18)
H5 H 0.9192 -0.2856 0.5995
C6 C 0.8503(3) -0.3750(5) 0.5041(3)
H6 H 0.8616 -0.4568 0.5272
C7 C 0.8138(2) -0.3997(4) 0.4530(3)
H7 H 0.8061 -0.4983 0.4403
C8 C 0.7446(2) -0.2976(6) 0.3677(2)
H8 H 0.7396 -0.3959 0.3545
C9 C 0.7101(2) -0.1851(6) 0.33639(17)
H9 H 0.6855 -0.2045 0.3015
C10 C 0.66807(18) 0.0827(6) 0.33094(14)
H10 H 0.6424 0.0666 0.2961
C11 C 0.66277(18) 0.2145(6) 0.35432(16)
H11 H 0.6336 0.2896 0.3354
C12 C 0.69997(15) 0.2427(4) 0.40664(13)
H12 H 0.6935 0.3331 0.4232
C13 C 0.74585(14) 0.1356(3) 0.43302(11)
H13 H 0.7716 0.1554 0.4676
C14 C 0.89538(14) 0.0297(3) 0.50243(11)
C15 C 0.93807(18) 0.0469(5) 0.55520(13)
C16 C 0.85370(16) -0.1056(3) 0.48715(12)
C17 C 0.8710(2) -0.2304(4) 0.52234(17)
C18 C 0.80073(16) -0.1253(3) 0.43799(13)
C19 C 0.78688(19) -0.2745(4) 0.41837(18)
C20 C 0.75571(14) -0.0048(3) 0.40955(11)
C21 C 0.71214(17) -0.0325(5) 0.35838(13)
H14? H 1.0356 -0.4117 0.7985
H15? H 1.0084 -0.6174 0.844
H16? H 0.8962 -0.6382 0.8587
H17? H 0.79 -0.1959 0.8155
H18? H 0.8267 0.0466 0.7941
H19? H 0.9134 0.2018 0.7684
H20? H 1.0266 0.2327 0.7549
H21? H 1.1252 0.1291 0.7246
H22? H 1.1836 -0.0716 0.6975
H23? H 1.1782 -0.3272 0.6637
H24? H 1.1215 -0.5546 0.6433
H25? H 1.0089 -0.5908 0.6607
H26? H 0.964 -0.4092 0.7057
loop_
_geom_bond_atom_site_label_1
_geom_bond_atom_site_label_2
_geom_bond_site_symmetry_1
_geom_bond_site_symmetry_2
C1 H1 1_555 1_555
C2 C1 1_555 1_555
H2 C2 1_555 1_555
C3 C2 1_555 1_555
H3 C3 1_555 1_555
N1 C3 1_555 1_555
C4 H4 1_555 1_555
C5 C4 1_555 1_555
H5 C5 1_555 1_555
C6 H6 1_555 1_555
C7 C6 1_555 1_555
H7 C7 1_555 1_555
C8 H8 1_555 1_555
C9 C8 1_555 1_555
H9 C9 1_555 1_555
C10 H10 1_555 1_555
C11 C10 1_555 1_555
H11 C11 1_555 1_555
C12 C11 1_555 1_555
H12 C12 1_555 1_555
C13 C12 1_555 1_555
H13 C13 1_555 1_555
C14 C1 1_555 1_555
C15 N1 1_555 1_555
C16 C14 1_555 1_555
C17 C5 1_555 1_555
C18 C16 1_555 1_555
C19 C7 1_555 1_555
C20 C13 1_555 1_555
C21 C9 1_555 1_555
C22 C23 1_555 1_555
C23 C24 1_555 1_555
C24 N2 1_555 1_555
N2 C31 1_555 1_555
C25 C26 1_555 1_555
C26 C29 1_555 1_555
C27 C28 1_555 1_555
C28 C40 1_555 1_555
C29 C27 1_555 1_555
C30 C25 1_555 1_555
C31 C25 1_555 1_555
C32 C23 1_555 1_555
C33 C22 1_555 1_555
C34 C22 1_555 1_555
C35 C22 1_555 1_555
C36 N2 1_555 1_555
C37 C35 1_555 1_555
C38 C26 1_555 1_555
C39 C37 1_555 1_555
C40 C27 1_555 1_555
C41 C22 1_555 1_555
C42 C25 1_555 1_555
C22B C23B 1_555 1_555
C23B C24B 1_555 1_555
C24B N2B 1_555 1_555
N2B C31B 1_555 1_555
C25B C26B 1_555 1_555
C26B C29B 1_555 1_555
C27B C28 1_555 1_555
C28B C27 1_555 1_555
C29B C27B 1_555 1_555
C30B C25B 1_555 1_555
C31B C25B 1_555 1_555
C32B C23B 1_555 1_555
C33B C22B 1_555 1_555
C34B C22B 1_555 1_555
C35B C22B 1_555 1_555
C36B N2B 1_555 1_555
C37B C39 1_555 1_555
C38B C26B 1_555 1_555
C39B C37 1_555 1_555
C40B C28 1_555 1_555
C41B C39 1_555 1_555
C42B C25B 1_555 1_555
C4 C15 1_555 1_555
C6 C17 1_555 1_555
C8 C19 1_555 1_555
C10 C21 1_555 1_555
C14 C15 1_555 1_555
C16 C17 1_555 1_555
C18 C19 1_555 1_555
C18 C20 1_555 1_555
C20 C21 1_555 1_555
C23 C33 1_555 1_555
C23 C34 1_555 1_555
C24 C32 1_555 1_555
C24 C33 1_555 1_555
N2 C32 1_555 1_555
C25 C36 1_555 1_555
C26 C30 1_555 1_555
C27 C38 1_555 1_555
C28 C28B 1_555 1_555
C29 C30 1_555 1_555
C29 C38 1_555 1_555
C29 C40 1_555 1_555
C30 C38 1_555 1_555
C30 C42 1_555 1_555
C31 C32 1_555 1_555
C31 C36 1_555 1_555
C31 C42 1_555 1_555
C32 C33 1_555 1_555
C32 C36 1_555 1_555
C33 C34 1_555 1_555
C34 C35 1_555 1_555
C34 C41 1_555 1_555
C35 C36 1_555 1_555
C35 C41 1_555 1_555
C35 C42 1_555 1_555
C36 C42 1_555 1_555
C37 C38 1_555 1_555
C37 C40 1_555 1_555
C37 C41 1_555 1_555
C38 C40 1_555 1_555
C39 C39B 1_555 1_555
C39 C40B 1_555 1_555
C40 C28B 1_555 1_555
C40 C39B 1_555 1_555
C41 C42 1_555 1_555
C41 C39B 1_555 1_555
C22B C41B 1_555 1_555
C23B C33B 1_555 1_555
C23B C34B 1_555 1_555
C24B C32B 1_555 1_555
C24B C33B 1_555 1_555
N2B C32B 1_555 1_555
C25B C36B 1_555 1_555
C26B C30B 1_555 1_555
C27B C28B 1_555 1_555
C27B C38B 1_555 1_555
C27B C40B 1_555 1_555
C28B C40B 1_555 1_555
C29B C30B 1_555 1_555
C29B C38B 1_555 1_555
C29B C40B 1_555 1_555
C30B C38B 1_555 1_555
C30B C42B 1_555 1_555
C31B C32B 1_555 1_555
C31B C36B 1_555 1_555
C31B C42B 1_555 1_555
C32B C33B 1_555 1_555
C32B C36B 1_555 1_555
C33B C34B 1_555 1_555
C34B C35B 1_555 1_555
C34B C41B 1_555 1_555
C35B C36B 1_555 1_555
C35B C37B 1_555 1_555
C35B C41B 1_555 1_555
C35B C42B 1_555 1_555
C36B C42B 1_555 1_555
C37B C38B 1_555 1_555
C37B C39B 1_555 1_555
C37B C40B 1_555 1_555
C37B C41B 1_555 1_555
C38B C40B 1_555 1_555
C41B C42B 1_555 1_555

#END
