
#######################################################################
#
#                 Cambridge Crystallographic Data Centre
#                                CCDC 
#
#######################################################################
#
# If this CIF has been generated from an entry in the Cambridge 
# Structural Database, then it will include bibliographic, chemical, 
# crystal, experimental, refinement or atomic coordinate data resulting 
# from the CCDC's data processing and validation procedures.
#
#######################################################################

data_NAKRUP
_chemical_name_common            
2-(2-(6-iodo-4,7-bis(trimethylsilyl)benzo[d][1,3]dioxol-5-yl)-3,4,5-trimethoxyphenyl)-4,4-dimethyl-4,5-dihydrooxazole
_chemical_formula_moiety         'C27 H38 I1 N1 O6 Si2'
_chemical_name_systematic        
2-(2-(6-iodo-4,7-bis(trimethylsilyl)-1,3-benzodioxol-5-yl)-3,4,5-trimethoxyphenyl)-4,4-dimethyl-4,5-dihydro-1,3-oxazole
_symmetry_cell_setting           monoclinic
_symmetry_space_group_name_H-M   'P 21/c'
_symmetry_Int_Tables_number      14
_space_group_name_Hall           '-P 2ybc'
loop_
_symmetry_equiv_pos_site_id
_symmetry_equiv_pos_as_xyz
1 x,y,z
2 -x,1/2+y,1/2-z
3 -x,-y,-z
4 x,1/2-y,1/2+z
_cell_length_a                   11.2544(6)
_cell_length_b                   18.5365(7)
_cell_length_c                   15.6240(9)
_cell_angle_alpha                90
_cell_angle_beta                 104.886(2)
_cell_angle_gamma                90
_cell_volume                     3150.04
_exptl_crystal_colour            colorless
_exptl_crystal_description       prism
_cell_formula_units_Z            4
loop_
_atom_site_label
_atom_site_type_symbol
_atom_site_fract_x
_atom_site_fract_y
_atom_site_fract_z
C1 C 0.7345(7) -0.1135(4) 0.2891(5)
C2 C 0.8260(7) -0.1632(4) 0.3263(5)
H1 H 0.8636 -0.1904 0.2890
C3 C 0.8629(7) -0.1734(4) 0.4173(5)
C4 C 0.8059(8) -0.1330(5) 0.4714(6)
C5 C 0.7101(8) -0.0862(4) 0.4315(5)
C6 C 0.6740(7) -0.0749(4) 0.3410(5)
C7 C 1.0111(8) -0.2628(5) 0.4056(6)
H2 H 0.9487 -0.2946 0.3690
H3 H 1.0764 -0.2921 0.4435
H4 H 1.0462 -0.2321 0.3673
C8 C 0.8618(12) -0.1963(6) 0.6104(8)
H5 H 0.7962 -0.2296 0.5812
H6 H 0.8569 -0.1875 0.6713
H7 H 0.9418 -0.2176 0.6113
C9 C 0.5814(13) -0.0816(7) 0.5290(8)
H8 H 0.5141 -0.1053 0.4858
H9 H 0.5474 -0.0478 0.5648
H10 H 0.6311 -0.1180 0.5677
C10 C 0.7031(8) -0.1060(5) 0.1914(5)
C11 C 0.6262(16) -0.0482(10) 0.0680(9)
H11 H 0.6603 -0.0106 0.0360
H12 H 0.5354 -0.0444 0.0506
C12 C 0.6659(16) -0.1219(10) 0.0459(9)
C13 C 0.5605(16) -0.1640(15) -0.0106(9)
H13 H 0.5315 -0.1402 -0.0682
H14 H 0.4934 -0.1662 0.0188
H15 H 0.5880 -0.2130 -0.0191
C14 C 0.7731(12) -0.1204(8) 0.0076(8)
H16 H 0.8033 -0.1696 0.0044
H17 H 0.8384 -0.0909 0.0451
H18 H 0.7487 -0.0996 -0.0520
C15 C 0.5692(6) -0.0244(4) 0.3043(5)
C16 C 0.5925(7) 0.0509(4) 0.3020(6)
C17 C 0.4900(7) 0.0918(4) 0.2695(5)
C18 C 0.3709(7) 0.0652(4) 0.2424(5)
C19 C 0.3430(7) -0.0069(4) 0.2432(5)
C20 C 0.4491(7) -0.0501(4) 0.2742(5)
C21 C 0.3612(7) 0.1869(4) 0.2361(6)
H19 H 0.3445 0.2164 0.1815
H20 H 0.3405 0.2158 0.2836
C22 C 0.8809(9) 0.0430(6) 0.3894(11)
H21 H 0.9563 0.0716 0.3977
H22 H 0.8840 0.0020 0.3504
H23 H 0.8736 0.0253 0.4469
C23 C 0.7302(11) 0.1696(6) 0.4221(9)
H24 H 0.7166 0.1454 0.4745
H25 H 0.6603 0.2012 0.3965
H26 H 0.8056 0.1984 0.4391
C24 C 0.7717(10) 0.1457(6) 0.2373(9)
H27 H 0.8450 0.1764 0.2543
H28 H 0.7001 0.1754 0.2096
H29 H 0.7837 0.1090 0.1951
C25 C 0.1421(12) -0.0853(8) 0.3076(13)
H30 H 0.1740 -0.0559 0.3607
H31 H 0.1805 -0.1331 0.3162
H32 H 0.0528 -0.0904 0.2971
C26 C 0.0665(8) 0.0345(6) 0.1792(9)
H33 H -0.0174 0.0151 0.1632
H34 H 0.0821 0.0603 0.1285
H35 H 0.0759 0.0677 0.2293
C27 C 0.1533(13) -0.1006(8) 0.1093(12)
H36 H 0.2114 -0.1409 0.1218
H37 H 0.1668 -0.0724 0.0595
H38 H 0.0690 -0.1193 0.0941
N1 N 0.7041(10) -0.1568(5) 0.1378(5)
O1 O 0.9553(5) -0.2183(3) 0.4602(4)
O2 O 0.8481(6) -0.1311(4) 0.5640(4)
O3 O 0.6558(6) -0.0436(3) 0.4841(4)
O4 O 0.6709(9) -0.0392(5) 0.1592(5)
O5 O 0.4869(5) 0.1664(3) 0.2616(4)
O6 O 0.2890(5) 0.1226(3) 0.2210(4)
Si1 Si 0.7456(2) 0.10050(13) 0.3383(2)
Si2 Si 0.1778(2) -0.04079(13) 0.2109(2)
I1 I 0.42725(5) -0.16376(3) 0.27582(6)
loop_
_geom_bond_atom_site_label_1
_geom_bond_atom_site_label_2
_geom_bond_site_symmetry_1
_geom_bond_site_symmetry_2
C1 C2 1_555 1_555
C2 H1 1_555 1_555
C3 C2 1_555 1_555
C4 C3 1_555 1_555
C5 C4 1_555 1_555
C6 C1 1_555 1_555
C7 H2 1_555 1_555
H3 C7 1_555 1_555
H4 C7 1_555 1_555
C8 H5 1_555 1_555
H6 C8 1_555 1_555
H7 C8 1_555 1_555
C9 H8 1_555 1_555
H9 C9 1_555 1_555
H10 C9 1_555 1_555
C10 C1 1_555 1_555
C11 H11 1_555 1_555
H12 C11 1_555 1_555
C12 C11 1_555 1_555
C13 C12 1_555 1_555
H13 C13 1_555 1_555
H14 C13 1_555 1_555
H15 C13 1_555 1_555
C14 C12 1_555 1_555
H16 C14 1_555 1_555
H17 C14 1_555 1_555
H18 C14 1_555 1_555
C15 C6 1_555 1_555
C16 C15 1_555 1_555
C17 C16 1_555 1_555
C18 C17 1_555 1_555
C19 C18 1_555 1_555
C20 C15 1_555 1_555
C21 H19 1_555 1_555
H20 C21 1_555 1_555
C22 H21 1_555 1_555
H22 C22 1_555 1_555
H23 C22 1_555 1_555
C23 H24 1_555 1_555
H25 C23 1_555 1_555
H26 C23 1_555 1_555
C24 H27 1_555 1_555
H28 C24 1_555 1_555
H29 C24 1_555 1_555
C25 H30 1_555 1_555
H31 C25 1_555 1_555
H32 C25 1_555 1_555
C26 H33 1_555 1_555
H34 C26 1_555 1_555
H35 C26 1_555 1_555
C27 H36 1_555 1_555
H37 C27 1_555 1_555
H38 C27 1_555 1_555
N1 C10 1_555 1_555
O1 C3 1_555 1_555
O2 C4 1_555 1_555
O3 C5 1_555 1_555
O4 C10 1_555 1_555
O5 C17 1_555 1_555
O6 C18 1_555 1_555
Si1 C16 1_555 1_555
Si2 C19 1_555 1_555
I1 C20 1_555 1_555
C5 C6 1_555 1_555
C7 O1 1_555 1_555
C8 O2 1_555 1_555
C9 O3 1_555 1_555
C11 O4 1_555 1_555
C12 N1 1_555 1_555
C19 C20 1_555 1_555
C21 O5 1_555 1_555
C21 O6 1_555 1_555
C22 Si1 1_555 1_555
C23 Si1 1_555 1_555
C24 Si1 1_555 1_555
C25 Si2 1_555 1_555
C26 Si2 1_555 1_555
C27 Si2 1_555 1_555

#END
