
#######################################################################
#
#                 Cambridge Crystallographic Data Centre
#                                CCDC 
#
#######################################################################
#
# If this CIF has been generated from an entry in the Cambridge 
# Structural Database, then it will include bibliographic, chemical, 
# crystal, experimental, refinement or atomic coordinate data resulting 
# from the CCDC's data processing and validation procedures.
#
#######################################################################

data_NAKYUU
_chemical_formula_moiety         'C32 H28 N4 Se2'
_chemical_name_systematic        
12,13,27,28-Tetrahydrotetrabenzo(b,j,m,u)(1,12,5,8,16,19)diselenatetra-azacyclodocosine
_symmetry_cell_setting           monoclinic
_symmetry_space_group_name_H-M   'P 21/c'
_symmetry_Int_Tables_number      14
_space_group_name_Hall           '-P 2ybc'
loop_
_symmetry_equiv_pos_site_id
_symmetry_equiv_pos_as_xyz
1 x,y,z
2 -x,1/2+y,1/2-z
3 -x,-y,-z
4 x,1/2-y,1/2+z
_cell_length_a                   10.0648(10)
_cell_length_b                   37.390(4)
_cell_length_c                   8.0073(11)
_cell_angle_alpha                90
_cell_angle_beta                 112.978(8)
_cell_angle_gamma                90
_cell_volume                     2774.24
_exptl_crystal_colour            colorless
_exptl_crystal_description       plate
_chemical_melting_point          218-220deg.C
_cell_formula_units_Z            4
_exptl_crystal_recrystallization_method chloroform/acetonitrile
loop_
_atom_site_label
_atom_site_type_symbol
_atom_site_fract_x
_atom_site_fract_y
_atom_site_fract_z
Se1 Se 0.90327(7) 0.10343(2) 0.68153(10)
Se2 Se 0.52701(8) 0.14321(2) 0.45135(10)
N1 N 1.0860(6) 0.1208(2) 0.5176(8)
N2 N 0.4725(6) 0.0467(2) 0.4842(8)
N3 N 0.9574(6) 0.1905(2) 0.5007(8)
N4 N 0.3431(6) 0.0976(2) 0.2015(8)
C1 C 1.0096(6) 0.0600(2) 0.6922(9)
C2 C 0.9825(7) 0.0292(2) 0.7688(9)
H1 H 0.9101(7) 0.0290(2) 0.8138(9)
C3 C 1.0623(8) -0.0014(2) 0.7789(10)
H2 H 1.0438(8) -0.0220(2) 0.8312(10)
C4 C 1.1692(8) -0.0015(2) 0.7120(11)
H3 H 1.2227(8) -0.0221(2) 0.7196(11)
C5 C 1.1969(8) 0.0285(2) 0.6349(10)
H4 H 1.2687(8) 0.0280(2) 0.5891(10)
C6 C 1.1191(7) 0.0599(2) 0.6237(9)
C7 C 1.1553(7) 0.0918(2) 0.5425(10)
H5 H 1.2332(7) 0.0906(2) 0.5077(10)
C8 C 1.1287(8) 0.1518(2) 0.4405(11)
H6 H 1.1591(8) 0.1440(2) 0.3453(11)
H7 H 1.2102(8) 0.1634(2) 0.5337(11)
C9 C 0.7927(7) 0.0892(2) 0.8222(9)
C10 C 0.8449(8) 0.1008(2) 1.0009(10)
H8 H 0.9373(8) 0.1104(2) 1.0522(10)
C11 C 0.7636(9) 0.0983(2) 1.1039(11)
H9 H 0.7991(9) 0.1071(2) 1.2220(11)
C12 C 0.6291(9) 0.0828(2) 1.0308(11)
H10 H 0.5734(9) 0.0808(2) 1.0996(11)
C13 C 0.5773(9) 0.0701(2) 0.8549(11)
H11 H 0.4866(9) 0.0595(2) 0.8068(11)
C14 C 0.6572(7) 0.0727(2) 0.7480(9)
C15 C 0.5975(8) 0.0590(2) 0.5574(10)
H12 H 0.6554(8) 0.0597(2) 0.4909(10)
C16 C 0.4227(8) 0.0358(2) 0.2928(10)
H13 H 0.3901(8) 0.0112(2) 0.2795(10)
H14 H 0.5012(8) 0.0377(2) 0.2518(10)
C17 C 0.6439(7) 0.1782(2) 0.6241(9)
C18 C 0.6033(9) 0.1865(2) 0.7663(11)
H15 H 0.5175(9) 0.1772(2) 0.7664(11)
C19 C 0.6870(10) 0.2081(2) 0.9075(12)
H16 H 0.6557(10) 0.2139(2) 0.9991(12)
C20 C 0.8172(9) 0.2211(2) 0.9134(11)
H17 H 0.8752(9) 0.2351(2) 1.0104(11)
C21 C 0.8607(8) 0.2130(2) 0.7733(10)
H18 H 0.9478(8) 0.2221(2) 0.7770(10)
C22 C 0.7774(7) 0.1916(2) 0.6272(9)
C23 C 0.8308(8) 0.1824(2) 0.4865(10)
H19 H 0.7701(8) 0.1703(2) 0.3836(10)
C24 C 1.0053(8) 0.1784(2) 0.3627(11)
H20 H 1.0371(8) 0.1987(2) 0.3128(11)
H21 H 0.9256(8) 0.1672(2) 0.2651(11)
C25 C 0.4274(7) 0.1732(2) 0.2448(10)
C26 C 0.4536(8) 0.2096(2) 0.2421(11)
H22 H 0.5216(8) 0.2204(2) 0.3443(11)
C27 C 0.3815(9) 0.2297(2) 0.0927(11)
H23 H 0.4025(9) 0.2539(2) 0.0941(11)
C28 C 0.2793(9) 0.2152(2) -0.0588(12)
H24 H 0.2301(9) 0.2293(2) -0.1596(12)
C29 C 0.2501(9) 0.1792(2) -0.0604(11)
H25 H 0.1792(9) 0.1693(2) -0.1633(11)
C30 C 0.3236(7) 0.1569(2) 0.0880(9)
C31 C 0.2881(8) 0.1185(2) 0.0739(10)
H26 H 0.2216(8) 0.1097(2) -0.0355(10)
C32 C 0.2993(8) 0.0602(2) 0.1801(11)
H27 H 0.2670(8) 0.0535(2) 0.0533(11)
H28 H 0.2189(8) 0.0570(2) 0.2169(11)
loop_
_geom_bond_atom_site_label_1
_geom_bond_atom_site_label_2
_geom_bond_site_symmetry_1
_geom_bond_site_symmetry_2
Se1 C1 1_555 1_555
Se2 C17 1_555 1_555
N1 C7 1_555 1_555
N2 C15 1_555 1_555
N3 C23 1_555 1_555
N4 C31 1_555 1_555
C1 C2 1_555 1_555
C2 H1 1_555 1_555
C3 C2 1_555 1_555
H2 C3 1_555 1_555
C4 C3 1_555 1_555
H3 C4 1_555 1_555
C5 C4 1_555 1_555
H4 C5 1_555 1_555
C6 C1 1_555 1_555
C7 C6 1_555 1_555
H5 C7 1_555 1_555
C8 N1 1_555 1_555
H6 C8 1_555 1_555
H7 C8 1_555 1_555
C9 Se1 1_555 1_555
C10 C9 1_555 1_555
H8 C10 1_555 1_555
C11 C10 1_555 1_555
H9 C11 1_555 1_555
C12 C11 1_555 1_555
H10 C12 1_555 1_555
C13 C12 1_555 1_555
H11 C13 1_555 1_555
C14 C9 1_555 1_555
C15 C14 1_555 1_555
H12 C15 1_555 1_555
C16 N2 1_555 1_555
H13 C16 1_555 1_555
H14 C16 1_555 1_555
C17 C18 1_555 1_555
C18 H15 1_555 1_555
C19 C18 1_555 1_555
H16 C19 1_555 1_555
C20 C19 1_555 1_555
H17 C20 1_555 1_555
C21 C20 1_555 1_555
H18 C21 1_555 1_555
C22 C17 1_555 1_555
C23 C22 1_555 1_555
H19 C23 1_555 1_555
C24 N3 1_555 1_555
H20 C24 1_555 1_555
H21 C24 1_555 1_555
C25 Se2 1_555 1_555
C26 C25 1_555 1_555
H22 C26 1_555 1_555
C27 C26 1_555 1_555
H23 C27 1_555 1_555
C28 C27 1_555 1_555
H24 C28 1_555 1_555
C29 C28 1_555 1_555
H25 C29 1_555 1_555
C30 C25 1_555 1_555
C31 C30 1_555 1_555
H26 C31 1_555 1_555
C32 N4 1_555 1_555
H27 C32 1_555 1_555
H28 C32 1_555 1_555
C5 C6 1_555 1_555
C8 C24 1_555 1_555
C13 C14 1_555 1_555
C16 C32 1_555 1_555
C21 C22 1_555 1_555
C29 C30 1_555 1_555

#END
