
#######################################################################
#
#                 Cambridge Crystallographic Data Centre
#                                CCDC 
#
#######################################################################
#
# If this CIF has been generated from an entry in the Cambridge 
# Structural Database, then it will include bibliographic, chemical, 
# crystal, experimental, refinement or atomic coordinate data resulting 
# from the CCDC's data processing and validation procedures.
#
#######################################################################

data_NAKZUW
_chemical_formula_moiety         'C10 H16 Mg1 N2 O4 2+,2(C7 H4 Br1 O2 1-)'
_chemical_name_systematic        
"Tetraaqua-(2,2'-bipyridine)-magnesium(ii) bis(4-bromobenzoate)"
_symmetry_cell_setting           monoclinic
_symmetry_space_group_name_H-M   'C 2/c'
_symmetry_Int_Tables_number      15
_space_group_name_Hall           '-C 2yn'
loop_
_symmetry_equiv_pos_site_id
_symmetry_equiv_pos_as_xyz
1 x,y,z
2 -x,y,1/2-z
3 1/2+x,1/2+y,z
4 1/2-x,1/2+y,1/2-z
5 -x,-y,-z
6 x,-y,1/2+z
7 1/2-x,1/2-y,-z
8 1/2+x,1/2-y,1/2+z
_cell_length_a                   30.275(6)
_cell_length_b                   12.308(3)
_cell_length_c                   7.5785(15)
_cell_angle_alpha                90
_cell_angle_beta                 103.90(3)
_cell_angle_gamma                90
_cell_volume                     2741.24
_exptl_crystal_colour            colorless
_exptl_crystal_description       block
_cell_formula_units_Z            4
loop_
_atom_site_label
_atom_site_type_symbol
_atom_site_fract_x
_atom_site_fract_y
_atom_site_fract_z
Mg1 Mg 0.0000 0.29391(14) 0.2500
N1 N 0.04459(13) 0.1518(3) 0.2599(5)
O1 O 0.05190(12) 0.4001(2) 0.2564(4)
H1 H 0.0561 0.4561 0.3166
H2 H 0.0512 0.4061 0.1480
O2 O -0.01205(11) 0.2973(2) -0.0269(4)
H3 H -0.0376 0.3009 -0.0944
H4 H 0.0036 0.3273 -0.0868
C1 C 0.08821(17) 0.1562(4) 0.2545(6)
H5 H 0.1024 0.2237 0.2649
C2 C 0.11341(18) 0.0657(4) 0.2343(7)
H6 H 0.1438 0.0717 0.2302
C3 C 0.09216(19) -0.0333(4) 0.2203(7)
H7 H 0.1081 -0.0959 0.2060
C4 C 0.04759(18) -0.0403(4) 0.2274(6)
H8 H 0.0332 -0.1074 0.2198
C5 C 0.02400(15) 0.0542(3) 0.2461(5)
N1A N -0.04459(13) 0.1518(3) 0.2401(5)
O1A O -0.05190(12) 0.4001(2) 0.2436(4)
H1A H -0.0561 0.4561 0.1834
H2A H -0.0512 0.4061 0.3520
O2A O 0.01205(11) 0.2973(2) 0.5269(4)
H3A H 0.0376 0.3009 0.5944
H4A H -0.0036 0.3273 0.5868
C1A C -0.08821(17) 0.1562(4) 0.2455(6)
H5A H -0.1024 0.2237 0.2351
C2A C -0.11341(18) 0.0657(4) 0.2657(7)
H6A H -0.1438 0.0717 0.2698
C3A C -0.09216(19) -0.0333(4) 0.2797(7)
H7A H -0.1081 -0.0959 0.2940
C4A C -0.04759(18) -0.0403(4) 0.2726(6)
H8A H -0.0332 -0.1074 0.2802
C5A C -0.02400(15) 0.0542(3) 0.2539(5)
Br1 Br 0.2137(3) 0.9201(5) 0.0828(12)
O3 O 0.43473(11) 0.9050(2) 0.5752(4)
O4 O 0.40497(12) 0.7957(3) 0.7472(5)
C6 C 0.35589(17) 0.8637(4) 0.4824(6)
C7 C 0.32382(19) 0.7824(4) 0.4683(7)
H9 H 0.3305 0.7209 0.5411
C8 C 0.2819(2) 0.7917(6) 0.3469(9)
H10 H 0.2609 0.7353 0.3331
C9 C 0.2716(2) 0.8849(7) 0.2471(8)
C10 C 0.3022(2) 0.9671(7) 0.2613(8)
H11 H 0.2946 1.0301 0.1932
C11 C 0.34477(19) 0.9563(5) 0.3780(7)
H12 H 0.3661 1.0117 0.3863
C12 C 0.40163(16) 0.8535(3) 0.6125(6)
Br2? Br 0.2127(4) 0.8733(7) 0.0939(16)
loop_
_geom_bond_atom_site_label_1
_geom_bond_atom_site_label_2
_geom_bond_site_symmetry_1
_geom_bond_site_symmetry_2
Mg1 N1 1_555 1_555
Br1 C9 1_555 1_555
N1 C1 1_555 1_555
O1 Mg1 1_555 1_555
H1 O1 1_555 1_555
H2 O1 1_555 1_555
O2 Mg1 1_555 1_555
H3 O2 1_555 1_555
H4 O2 1_555 1_555
O3 C12 1_555 1_555
O4 C12 1_555 1_555
C1 H5 1_555 1_555
C2 C1 1_555 1_555
H6 C2 1_555 1_555
C3 C2 1_555 1_555
H7 C3 1_555 1_555
C4 C3 1_555 1_555
H8 C4 1_555 1_555
C5 N1 1_555 1_555
C6 C7 1_555 1_555
C7 H9 1_555 1_555
C8 C7 1_555 1_555
H10 C8 1_555 1_555
C9 C8 1_555 1_555
C10 C9 1_555 1_555
H11 C10 1_555 1_555
C11 C6 1_555 1_555
H12 C11 1_555 1_555
C12 C6 1_555 1_555
N1A Mg1 1_555 1_555
O1A Mg1 1_555 1_555
H1A O1A 1_555 1_555
H2A O1A 1_555 1_555
O2A Mg1 1_555 1_555
H3A O2A 1_555 1_555
H4A O2A 1_555 1_555
C1A N1A 1_555 1_555
H5A C1A 1_555 1_555
C2A C1A 1_555 1_555
H6A C2A 1_555 1_555
C3A C2A 1_555 1_555
H7A C3A 1_555 1_555
C4A C3A 1_555 1_555
H8A C4A 1_555 1_555
C5A C5 1_555 1_555
C4 C5 1_555 1_555
C10 C11 1_555 1_555
N1A C5A 1_555 1_555
C4A C5A 1_555 1_555

#END
