
#######################################################################
#
#                 Cambridge Crystallographic Data Centre
#                                CCDC 
#
#######################################################################
#
# If this CIF has been generated from an entry in the Cambridge 
# Structural Database, then it will include bibliographic, chemical, 
# crystal, experimental, refinement or atomic coordinate data resulting 
# from the CCDC's data processing and validation procedures.
#
#######################################################################

data_NALBIO
_chemical_formula_moiety         'C26 H22 F2 N6 O4,C1 H2 Cl2'
_chemical_name_systematic        
"N,N'-1,4-phenylenebis(2-((4-fluorophenyl)hydrazono)-3-oxobutanamide) dichloromethane solvate"
_symmetry_cell_setting           monoclinic
_symmetry_space_group_name_H-M   'P 21/c'
_symmetry_Int_Tables_number      14
_space_group_name_Hall           '-P 2ybc'
loop_
_symmetry_equiv_pos_site_id
_symmetry_equiv_pos_as_xyz
1 x,y,z
2 -x,1/2+y,1/2-z
3 -x,-y,-z
4 x,1/2-y,1/2+z
_cell_length_a                   8.240(5)
_cell_length_b                   35.420(16)
_cell_length_c                   9.482(5)
_cell_angle_alpha                90
_cell_angle_beta                 101.761(13)
_cell_angle_gamma                90
_cell_volume                     2709.33
_exptl_crystal_colour            colorless
_exptl_crystal_description       Prism
_cell_formula_units_Z            4
loop_
_atom_site_label
_atom_site_type_symbol
_atom_site_fract_x
_atom_site_fract_y
_atom_site_fract_z
F1 F 1.1706(3) 1.18733(7) 1.0392(2)
F2 F -0.8236(3) 0.74121(6) -0.0664(2)
O1 O 0.2781(3) 1.09783(7) 0.2892(3)
O2 O 0.4852(3) 1.04495(7) 0.6808(3)
O3 O -0.1820(3) 0.89157(6) 0.3032(3)
O4 O 0.0779(3) 0.83479(7) 0.6694(3)
N1 N 0.6665(4) 1.10411(8) 0.7168(3)
H1 H 0.636(5) 1.0818(6) 0.748(4)
N2 N 0.5864(3) 1.11547(8) 0.5908(3)
N3 N 0.3051(4) 1.03833(8) 0.4649(3)
H2 H 0.263(4) 1.0498(10) 0.381(2)
N4 N 0.0271(4) 0.89539(8) 0.5019(3)
H3 H 0.082(4) 0.8825(9) 0.578(3)
N5 N -0.2508(4) 0.81741(8) 0.3843(3)
N6 N -0.3395(4) 0.82875(8) 0.2615(3)
H4 H -0.320(4) 0.8523(5) 0.234(4)
C1 C 0.7955(4) 1.12576(9) 0.7963(4)
C2 C 0.8356(4) 1.16084(10) 0.7480(4)
H5 H 0.7759 1.1707 0.6593
C3 C 0.9627(5) 1.18126(10) 0.8298(4)
H6 H 0.9927 1.2052 0.7975
C4 C 1.0457(5) 1.16678(11) 0.9585(4)
C5 C 1.0099(5) 1.13233(11) 1.0100(4)
H7 H 1.0697 1.1230 1.0995
C6 C 0.8819(5) 1.11149(10) 0.9258(4)
H8 H 0.8541 1.0874 0.9576
C7 C 0.4686(4) 1.09484(9) 0.5125(4)
C8 C 0.3946(4) 1.11224(10) 0.3728(4)
C9 C 0.4669(5) 1.14897(10) 0.3335(4)
H9 H 0.5811 1.1448 0.3222
H10 H 0.4661 1.1675 0.4099
H11 H 0.4004 1.1584 0.2427
C10 C 0.4197(4) 1.05714(9) 0.5600(4)
C11 C 0.2390(4) 1.00229(9) 0.4795(4)
C12 C 0.2865(4) 0.97924(10) 0.5996(4)
H12 H 0.3690 0.9874 0.6789
C13 C 0.2127(4) 0.94437(10) 0.6026(4)
H13 H 0.2457 0.9286 0.6845
C14 C 0.0912(4) 0.93178(9) 0.4887(4)
C15 C 0.0431(4) 0.95498(10) 0.3683(4)
H14 H -0.0392 0.9468 0.2889
C16 C 0.1164(4) 0.98982(10) 0.3660(4)
H15 H 0.0823 1.0058 0.2847
C17 C -0.0980(4) 0.87763(9) 0.4146(4)
C18 C -0.1349(4) 0.83880(10) 0.4601(4)
C19 C -0.0435(5) 0.82031(10) 0.5923(4)
C20 C -0.1020(5) 0.78251(10) 0.6305(4)
H16 H -0.0338 0.7741 0.7221
H17 H -0.0926 0.7643 0.5547
H18 H -0.2180 0.7843 0.6399
C21 C -0.4602(4) 0.80516(9) 0.1801(4)
C22 C -0.4934(4) 0.76955(10) 0.2268(4)
H19 H -0.4329 0.7601 0.3158
C23 C -0.6154(5) 0.74797(10) 0.1430(4)
H20 H -0.6394 0.7234 0.1732
C24 C -0.7021(5) 0.76252(10) 0.0146(4)
C25 C -0.6721(4) 0.79772(11) -0.0343(4)
H21 H -0.7339 0.8071 -0.1230
C26 C -0.5493(4) 0.81901(10) 0.0497(4)
H22 H -0.5251 0.8435 0.0182
Cl1 Cl 0.51799(18) 0.07757(4) 0.03638(14)
Cl2 Cl 0.2987(3) 0.01596(4) 0.06825(19)
C27 C 0.3325(6) 0.05435(14) -0.0388(6)
Cl3? Cl 0.1837(19) 0.0224(5) 0.0134(17)
Cl4? Cl 0.490(3) 0.0568(7) 0.060(3)
C28? C 0.282(3) 0.0639(10) -0.034(6)
loop_
_geom_bond_atom_site_label_1
_geom_bond_atom_site_label_2
_geom_bond_site_symmetry_1
_geom_bond_site_symmetry_2
F1 C4 1_555 1_555
F2 C24 1_555 1_555
O1 C8 1_555 1_555
O2 C10 1_555 1_555
O3 C17 1_555 1_555
O4 C19 1_555 1_555
N1 H1 1_555 1_555
N2 N1 1_555 1_555
N3 H2 1_555 1_555
N4 H3 1_555 1_555
N5 N6 1_555 1_555
N6 H4 1_555 1_555
C1 N1 1_555 1_555
C2 C1 1_555 1_555
H5 C2 1_555 1_555
C3 C2 1_555 1_555
H6 C3 1_555 1_555
C4 C3 1_555 1_555
C5 C4 1_555 1_555
H7 C5 1_555 1_555
C6 C1 1_555 1_555
H8 C6 1_555 1_555
C7 N2 1_555 1_555
C8 C7 1_555 1_555
C9 C8 1_555 1_555
H9 C9 1_555 1_555
H10 C9 1_555 1_555
H11 C9 1_555 1_555
C10 N3 1_555 1_555
C11 N3 1_555 1_555
C12 C11 1_555 1_555
H12 C12 1_555 1_555
C13 C12 1_555 1_555
H13 C13 1_555 1_555
C14 N4 1_555 1_555
C15 C14 1_555 1_555
H14 C15 1_555 1_555
C16 C11 1_555 1_555
H15 C16 1_555 1_555
C17 N4 1_555 1_555
C18 N5 1_555 1_555
C19 C18 1_555 1_555
C20 C19 1_555 1_555
H16 C20 1_555 1_555
H17 C20 1_555 1_555
H18 C20 1_555 1_555
C21 N6 1_555 1_555
C22 C21 1_555 1_555
H19 C22 1_555 1_555
C23 C22 1_555 1_555
H20 C23 1_555 1_555
C24 C23 1_555 1_555
C25 C24 1_555 1_555
H21 C25 1_555 1_555
C26 C21 1_555 1_555
H22 C26 1_555 1_555
Cl1 C27 1_555 1_555
Cl2 C27 1_555 1_555
C5 C6 1_555 1_555
C7 C10 1_555 1_555
C13 C14 1_555 1_555
C15 C16 1_555 1_555
C17 C18 1_555 1_555
C25 C26 1_555 1_555

#END
