
#######################################################################
#
#                 Cambridge Crystallographic Data Centre
#                                CCDC 
#
#######################################################################
#
# If this CIF has been generated from an entry in the Cambridge 
# Structural Database, then it will include bibliographic, chemical, 
# crystal, experimental, refinement or atomic coordinate data resulting 
# from the CCDC's data processing and validation procedures.
#
#######################################################################

data_NALLOB
_chemical_formula_moiety         
'C36 H64 N24 Na4 O22 4+,2(O4 S1 2-),C4 H8 O1,10(H2 O1)'
_chemical_name_systematic        
'(\m~4~-Cucurbituril)-deca-aqua-tetra-sodium disulfate clathrate tetrahydrofuran solvate decahydrate'
_symmetry_cell_setting           monoclinic
_symmetry_space_group_name_H-M   'P 21/c'
_symmetry_Int_Tables_number      14
_space_group_name_Hall           '-P 2ybc'
loop_
_symmetry_equiv_pos_site_id
_symmetry_equiv_pos_as_xyz
1 x,y,z
2 -x,1/2+y,1/2-z
3 -x,-y,-z
4 x,1/2-y,1/2+z
_cell_length_a                   12.592(5)
_cell_length_b                   14.268(1)
_cell_length_c                   19.428(8)
_cell_angle_alpha                90
_cell_angle_beta                 102.60(2)
_cell_angle_gamma                90
_cell_volume                     3406.42
_exptl_crystal_colour            colorless
_cell_formula_units_Z            2
loop_
_atom_site_label
_atom_site_type_symbol
_atom_site_fract_x
_atom_site_fract_y
_atom_site_fract_z
O12 O 0.1985(4) 0.0167(4) 0.5186(3)
H29 H 0.1616(55) 0.0063(55) 0.5501(31)
H30 H 0.1548(49) 0.0515(44) 0.4897(32)
O13 O 0.0666(4) 0.1972(4) 0.1933(3)
H31 H 0.0198(49) 0.2402(40) 0.1801(40)
H32 H 0.0342(56) 0.1748(50) 0.2251(31)
O14 O 0.8763(4) 0.3200(4) 0.2999(3)
H33 H 0.8048(23) 0.3220(54) 0.2929(39)
H34 H 0.8941(59) 0.2981(51) 0.2603(25)
O15 O 0.2725(7) 0.0444(5) 0.3555(5)
O17 O 0.9246(6) 0.3504(5) 0.1739(4)
S1 S 0.98011(11) 0.08838(10) 0.36402(8)
O18 O 1.0368(6) 0.0700(6) 0.3068(4)
O19 O 0.9429(8) -0.0039(5) 0.3865(5)
O20 O 0.8849(6) 0.1449(6) 0.3404(5)
O24 O 1.0576(4) 0.1317(3) 0.4210(3)
O25 O 0.5016(43) 0.0743(16) 0.0046(21)
C19 C 0.5904(19) 0.0087(33) 0.0071(19)
C20 C 0.4689(28) 0.0545(24) -0.0506(12)
C21 C 0.5781(28) 0.0645(36) -0.0068(21)
C22 C 0.4086(36) 0.0275(30) -0.0337(18)
O25B O 0.4984(43) -0.0743(16) -0.0046(21)
C19B C 0.4096(19) -0.0087(33) -0.0071(19)
C21B C 0.4219(28) -0.0645(36) 0.0068(21)
C20B C 0.5311(28) -0.0545(24) 0.0506(12)
C22B C 0.5914(36) -0.0275(30) 0.0337(18)
Na1 Na 0.8294(2) 0.2473(2) 0.05953(14)
Na2 Na 0.5078(2) 0.3501(2) 0.03098(11)
O1 O 0.7690(3) 0.1589(2) 0.1454(2)
O2 O 0.8665(3) 0.0952(2) 0.0098(2)
O3 O 0.6793(3) 0.1245(2) -0.1600(2)
O4 O 0.4185(3) 0.2271(2) -0.1830(2)
O5 O 0.3367(3) 0.2899(2) -0.0290(2)
O6 O 0.5054(3) 0.2605(2) 0.1274(2)
N1 N 0.6868(3) 0.0720(3) 0.2196(2)
N2 N 0.8179(3) 0.0064(3) 0.1757(2)
N3 N 0.8935(3) -0.0405(3) 0.0765(2)
N4 N 0.8442(3) -0.0523(3) -0.0394(2)
N5 N 0.7216(3) -0.0323(3) -0.1538(2)
N6 N 0.5648(3) 0.0135(3) -0.2212(2)
N7 N 0.3854(3) 0.0829(3) -0.2371(2)
N8 N 0.2565(3) 0.1481(3) -0.1920(2)
N9 N 0.2023(3) 0.1874(3) -0.0836(2)
N10 N 0.2275(3) 0.2100(3) 0.0320(2)
N11 N 0.3493(3) 0.1909(3) 0.1469(2)
N12 N 0.5089(3) 0.1417(3) 0.2075(2)
C1 C 0.7591(4) 0.0866(3) 0.1765(2)
C2 C 0.8668(4) 0.0099(4) 0.0151(3)
C3 C 0.6573(4) 0.0431(3) -0.1759(2)
C4 C 0.3597(4) 0.1588(3) -0.2014(2)
C5 C 0.2640(4) 0.2350(3) -0.0268(3)
C6 C 0.4594(4) 0.2026(3) 0.1568(2)
C7 C 0.9115(4) 0.0028(3) 0.1452(3)
H1 H 0.9686(4) -0.0313(3) 0.1770(3)
H2 H 0.9373(4) 0.0663(3) 0.1415(3)
C8 C 0.8313(4) -0.0236(3) -0.1122(3)
H3 H 0.8540(4) 0.0412(3) -0.1133(3)
H4 H 0.8793(4) -0.0612(3) -0.1339(3)
C9 C 0.4855(4) 0.0769(3) -0.2609(3)
H5 H 0.5175(4) 0.1390(3) -0.2589(3)
H6 H 0.4690(4) 0.0573(3) -0.3099(3)
C10 C 0.2032(4) 0.2150(3) -0.1545(3)
H7 H 0.2399(4) 0.2750(3) -0.1534(3)
H8 H 0.1287(4) 0.2235(3) -0.1804(3)
C11 C 0.2707(4) 0.2500(3) 0.1005(3)
H9 H 0.2108(4) 0.2629(3) 0.1232(3)
H10 H 0.3051(4) 0.3093(3) 0.0944(3)
C12 C 0.6241(4) 0.1470(3) 0.2401(3)
H11 H 0.6525(4) 0.2062(3) 0.2274(3)
H12 H 0.6329(4) 0.1460(3) 0.2909(3)
C13 C 0.7040(4) -0.0171(3) 0.2558(2)
H13 H 0.7269(4) -0.0091(3) 0.3070(2)
C14 C 0.7946(4) -0.0633(3) 0.2245(2)
H14 H 0.8592(4) -0.0774(3) 0.2613(2)
C15 C 0.8894(4) -0.1409(3) 0.0648(2)
H15 H 0.9584(4) -0.1711(3) 0.0868(2)
C16 C 0.8657(4) -0.1490(3) -0.0170(2)
H16 H 0.9276(4) -0.1753(3) -0.0335(2)
C17 C 0.6795(4) -0.1179(3) -0.1907(2)
H17 H 0.7274(4) -0.1412(3) -0.2204(2)
C18 C 0.5675(4) -0.0859(3) -0.2354(2)
H18 H 0.5617(4) -0.0982(3) -0.2857(2)
O7 O 0.7622(4) 0.2725(3) -0.0643(2)
O8 O 0.5512(3) 0.3301(3) -0.0785(2)
O9 O 0.9890(5) 0.3275(4) 0.0463(3)
O10 O 0.6998(5) 0.3693(4) 0.0734(3)
O11 O 0.4171(4) 0.4764(3) 0.0634(3)
H19 H 0.7450(57) 0.2170(27) -0.0807(37)
H20 H 0.8046(49) 0.2999(47) -0.0869(34)
H21 H 0.6129(34) 0.3020(47) -0.0711(38)
H22 H 0.5063(46) 0.2929(41) -0.1035(32)
H23 H 0.9927(62) 0.3700(41) 0.0156(31)
H24 H 0.9732(67) 0.3539(53) 0.0822(29)
H25 H 0.7110(60) 0.4233(29) 0.0938(36)
H26 H 0.6779(69) 0.3414(56) 0.1064(33)
H27 H 0.4382(58) 0.5332(25) 0.0619(40)
H28 H 0.3487(26) 0.4824(52) 0.0440(36)
N8B N 0.7435(3) -0.1481(3) 0.1920(2)
C4B C 0.6403(4) -0.1588(3) 0.2014(2)
O4B O 0.5815(3) -0.2271(2) 0.1830(2)
N7B N 0.6146(3) -0.0829(3) 0.2371(2)
C9B C 0.5145(4) -0.0769(3) 0.2609(3)
N6B N 0.4352(3) -0.0135(3) 0.2212(2)
C3B C 0.3427(4) -0.0431(3) 0.1759(2)
O3B O 0.3207(3) -0.1245(2) 0.1600(2)
N5B N 0.2784(3) 0.0323(3) 0.1538(2)
C8B C 0.1687(4) 0.0236(3) 0.1122(3)
N4B N 0.1558(3) 0.0523(3) 0.0394(2)
C2B C 0.1332(4) -0.0099(4) -0.0151(3)
O2B O 0.1335(3) -0.0952(2) -0.0098(2)
Na1B Na 0.1706(2) -0.2473(2) -0.05953(14)
O1B O 0.2310(3) -0.1589(2) -0.1454(2)
C1B C 0.2409(4) -0.0866(3) -0.1765(2)
N1B N 0.3132(3) -0.0720(3) -0.2196(2)
C12B C 0.3759(4) -0.1470(3) -0.2401(3)
N12B N 0.4911(3) -0.1417(3) -0.2075(2)
C6B C 0.5406(4) -0.2026(3) -0.1568(2)
O6B O 0.4946(3) -0.2605(2) -0.1274(2)
Na2B Na 0.4922(2) -0.3501(2) -0.03098(11)
O5B O 0.6633(3) -0.2899(2) 0.0290(2)
C5B C 0.7360(4) -0.2350(3) 0.0268(3)
N9B N 0.7977(3) -0.1874(3) 0.0836(2)
C10B C 0.7968(4) -0.2150(3) 0.1545(3)
H7B H 0.7601(4) -0.2750(3) 0.1534(3)
H8B H 0.8713(4) -0.2235(3) 0.1804(3)
N10B N 0.7725(3) -0.2100(3) -0.0320(2)
C11B C 0.7293(4) -0.2500(3) -0.1005(3)
N11B N 0.6507(3) -0.1909(3) -0.1469(2)
H9B H 0.7892(4) -0.2629(3) -0.1232(3)
H10B H 0.6949(4) -0.3093(3) -0.0944(3)
O8B O 0.4488(3) -0.3301(3) 0.0785(2)
H21B H 0.3871(34) -0.3020(47) 0.0711(38)
H22B H 0.4937(46) -0.2929(41) 0.1035(32)
O10B O 0.3002(5) -0.3693(4) -0.0734(3)
O7B O 0.2378(4) -0.2725(3) 0.0643(2)
H19B H 0.2550(57) -0.2170(27) 0.0807(37)
H20B H 0.1954(49) -0.2999(47) 0.0869(34)
O9B O 0.0110(5) -0.3275(4) -0.0463(3)
H23B H 0.0073(62) -0.3700(41) -0.0156(31)
H24B H 0.0268(67) -0.3539(53) -0.0822(29)
H25B H 0.2890(60) -0.4233(29) -0.0938(36)
H26B H 0.3221(69) -0.3414(56) -0.1064(33)
O11B O 0.5829(4) -0.4764(3) -0.0634(3)
H27B H 0.5618(58) -0.5332(25) -0.0619(40)
H28B H 0.6513(26) -0.4824(52) -0.0440(36)
H11B H 0.3475(4) -0.2062(3) -0.2274(3)
H12B H 0.3671(4) -0.1460(3) -0.2909(3)
C13B C 0.2960(4) 0.0171(3) -0.2558(2)
H13B H 0.2731(4) 0.0091(3) -0.3070(2)
C14B C 0.2054(4) 0.0633(3) -0.2245(2)
N2B N 0.1821(3) -0.0064(3) -0.1757(2)
C7B C 0.0885(4) -0.0028(3) -0.1452(3)
N3B N 0.1065(3) 0.0405(3) -0.0765(2)
C15B C 0.1106(4) 0.1409(3) -0.0648(2)
H15B H 0.0416(4) 0.1711(3) -0.0868(2)
C16B C 0.1343(4) 0.1490(3) 0.0170(2)
C17B C 0.3205(4) 0.1179(3) 0.1907(2)
H17B H 0.2726(4) 0.1412(3) 0.2204(2)
C18B C 0.4325(4) 0.0859(3) 0.2354(2)
H18B H 0.4383(4) 0.0982(3) 0.2857(2)
H16B H 0.0724(4) 0.1753(3) 0.0335(2)
H1B H 0.0314(4) 0.0313(3) -0.1770(3)
H2B H 0.0627(4) -0.0663(3) -0.1415(3)
H14B H 0.1408(4) 0.0774(3) -0.2613(2)
H3B H 0.1460(4) -0.0412(3) 0.1133(3)
H4B H 0.1207(4) 0.0612(3) 0.1339(3)
H5B H 0.4825(4) -0.1390(3) 0.2589(3)
H6B H 0.5310(4) -0.0573(3) 0.3099(3)
O16? O 0.2003(16) -0.0298(15) 0.2961(10)
O21? O 0.9659(10) 0.1475(9) 0.2983(6)
O22? O 0.8726(9) 0.0935(11) 0.3816(8)
O23? O 1.0058(15) -0.0036(9) 0.3494(9)
loop_
_geom_bond_atom_site_label_1
_geom_bond_atom_site_label_2
_geom_bond_site_symmetry_1
_geom_bond_site_symmetry_2
Na1 O1 1_555 1_555
Na2 O5 1_555 1_555
O1 C1 1_555 1_555
O2 Na1 1_555 1_555
O3 C3 1_555 1_555
O4 C4 1_555 1_555
O5 C5 1_555 1_555
O6 Na2 1_555 1_555
N1 C1 1_555 1_555
N2 C1 1_555 1_555
N3 C2 1_555 1_555
N4 C2 1_555 1_555
N5 C3 1_555 1_555
N6 C3 1_555 1_555
N7 C4 1_555 1_555
N8 C4 1_555 1_555
N9 C5 1_555 1_555
N10 C5 1_555 1_555
N11 C6 1_555 1_555
N12 C6 1_555 1_555
C2 O2 1_555 1_555
C6 O6 1_555 1_555
C7 N2 1_555 1_555
H1 C7 1_555 1_555
H2 C7 1_555 1_555
C8 N4 1_555 1_555
H3 C8 1_555 1_555
H4 C8 1_555 1_555
C9 N6 1_555 1_555
H5 C9 1_555 1_555
H6 C9 1_555 1_555
C10 N8 1_555 1_555
H7 C10 1_555 1_555
H8 C10 1_555 1_555
C11 N10 1_555 1_555
H9 C11 1_555 1_555
H10 C11 1_555 1_555
C12 N1 1_555 1_555
H11 C12 1_555 1_555
H12 C12 1_555 1_555
C13 N1 1_555 1_555
H13 C13 1_555 1_555
C14 N2 1_555 1_555
H14 C14 1_555 1_555
C15 N3 1_555 1_555
H15 C15 1_555 1_555
C16 N4 1_555 1_555
H16 C16 1_555 1_555
C17 N5 1_555 1_555
H17 C17 1_555 1_555
C18 N6 1_555 1_555
H18 C18 1_555 1_555
O7 Na1 1_555 1_555
O8 Na2 1_555 1_555
O9 Na1 1_555 1_555
O10 Na1 1_555 1_555
O11 Na2 1_555 1_555
O12 H29 1_555 1_555
O13 H31 1_555 1_555
O14 H33 1_555 1_555
H19 O7 1_555 1_555
H20 O7 1_555 1_555
H21 O8 1_555 1_555
H22 O8 1_555 1_555
H23 O9 1_555 1_555
H24 O9 1_555 1_555
H25 O10 1_555 1_555
H26 O10 1_555 1_555
H27 O11 1_555 1_555
H28 O11 1_555 1_555
H30 O12 1_555 1_555
H32 O13 1_555 1_555
H34 O14 1_555 1_555
S1 O18 1_555 1_555
O19 S1 1_555 1_555
O20 S1 1_555 1_555
O24 S1 1_555 1_555
O25 C19 1_555 1_555
C19 C21 1_555 1_555
C20 O25 1_555 1_555
C21 O25 1_555 1_555
C22 O25 1_555 1_555
N8B C14 1_555 1_555
C4B N8B 1_555 1_555
O4B C4B 1_555 1_555
N7B C13 1_555 1_555
C9B N7B 1_555 1_555
N6B C9B 1_555 1_555
C3B N6B 1_555 1_555
O3B C3B 1_555 1_555
N5B C3B 1_555 1_555
C8B N5B 1_555 1_555
N4B C8B 1_555 1_555
C2B N4B 1_555 1_555
O2B C2B 1_555 1_555
Na1B O2B 1_555 1_555
O1B Na1B 1_555 1_555
C1B O1B 1_555 1_555
N1B C1B 1_555 1_555
C12B N1B 1_555 1_555
N12B C18 1_555 1_555
C6B N12B 1_555 1_555
O6B C6B 1_555 1_555
Na2B O6B 1_555 1_555
O5B Na2B 1_555 1_555
C5B O5B 1_555 1_555
N9B C15 1_555 1_555
C10B N8B 1_555 1_555
H7B C10B 1_555 1_555
H8B C10B 1_555 1_555
N10B C16 1_555 1_555
C11B N10B 1_555 1_555
N11B C17 1_555 1_555
H9B C11B 1_555 1_555
H10B C11B 1_555 1_555
O8B Na2B 1_555 1_555
H21B O8B 1_555 1_555
H22B O8B 1_555 1_555
O10B Na1B 1_555 1_555
O7B Na1B 1_555 1_555
H19B O7B 1_555 1_555
H20B O7B 1_555 1_555
O9B Na1B 1_555 1_555
H23B O9B 1_555 1_555
H24B O9B 1_555 1_555
H25B O10B 1_555 1_555
H26B O10B 1_555 1_555
O11B Na2B 1_555 1_555
H27B O11B 1_555 1_555
H28B O11B 1_555 1_555
H11B C12B 1_555 1_555
H12B C12B 1_555 1_555
C13B N7 1_555 1_555
H13B C13B 1_555 1_555
C14B N8 1_555 1_555
N2B C1B 1_555 1_555
C7B N2B 1_555 1_555
N3B C2B 1_555 1_555
C15B N9 1_555 1_555
H15B C15B 1_555 1_555
C16B N10 1_555 1_555
C17B N11 1_555 1_555
H17B C17B 1_555 1_555
C18B N12 1_555 1_555
H18B C18B 1_555 1_555
H16B C16B 1_555 1_555
H1B C7B 1_555 1_555
H2B C7B 1_555 1_555
H14B C14B 1_555 1_555
H3B C8B 1_555 1_555
H4B C8B 1_555 1_555
H5B C9B 1_555 1_555
H6B C9B 1_555 1_555
O25B C19 1_555 1_555
C19B O25 1_555 1_555
C21B C22 1_555 1_555
C20B C19 1_555 1_555
C22B C19 1_555 1_555
Na2 O10 1_555 1_555
N3 C7 1_555 1_555
N5 C8 1_555 1_555
N7 C9 1_555 1_555
N9 C10 1_555 1_555
N11 C11 1_555 1_555
N12 C12 1_555 1_555
C13 C14 1_555 1_555
C15 C16 1_555 1_555
C17 C18 1_555 1_555
C20 C19B 1_555 1_555
C20 C22 1_555 1_555
C20 C21 1_555 1_555
C21 C22B 1_555 1_555
C22 C19B 1_555 1_555
C4B N7B 1_555 1_555
N6B C18B 1_555 1_555
N5B C17B 1_555 1_555
N4B C16B 1_555 1_555
N1B C13B 1_555 1_555
C12B N12B 1_555 1_555
C6B N11B 1_555 1_555
Na2B O10B 1_555 1_555
C5B N9B 1_555 1_555
C5B N10B 1_555 1_555
N9B C10B 1_555 1_555
C11B N11B 1_555 1_555
C13B C14B 1_555 1_555
C14B N2B 1_555 1_555
C7B N3B 1_555 1_555
N3B C15B 1_555 1_555
C15B C16B 1_555 1_555
C17B C18B 1_555 1_555
O25B C19B 1_555 1_555
O25B C20B 1_555 1_555
O25B C21B 1_555 1_555
O25B C22B 1_555 1_555
C19B C21B 1_555 1_555
C21B C20B 1_555 1_555
C20B C22B 1_555 1_555

#END
