
#######################################################################
#
#                 Cambridge Crystallographic Data Centre
#                                CCDC 
#
#######################################################################
#
# If this CIF has been generated from an entry in the Cambridge 
# Structural Database, then it will include bibliographic, chemical, 
# crystal, experimental, refinement or atomic coordinate data resulting 
# from the CCDC's data processing and validation procedures.
#
#######################################################################

data_NALREY01
_chemical_formula_moiety         'C16 H23 N1 O5'
_chemical_name_systematic        
13-Methyl-2,3,5,6,8,9,12,13-octahydro-11H-1,4,7,10,13-benzotetraoxazacyclopentadecine-16-carbaldehyde
_symmetry_cell_setting           triclinic
_symmetry_space_group_name_H-M   'P -1'
_symmetry_Int_Tables_number      2
_space_group_name_Hall           '-P 1'
loop_
_symmetry_equiv_pos_site_id
_symmetry_equiv_pos_as_xyz
1 x,y,z
2 -x,-y,-z
_cell_length_a                   8.1791(5)
_cell_length_b                   10.0518(6)
_cell_length_c                   10.6693(6)
_cell_angle_alpha                103.293(3)
_cell_angle_beta                 100.998(3)
_cell_angle_gamma                104.598(3)
_cell_volume                     796.782
_exptl_crystal_colour            colorless
_exptl_crystal_description       block
_chemical_melting_point          '49-51 deg.C'
_cell_formula_units_Z            2
_exptl_crystal_recrystallization_method dichloromethane/hexane
loop_
_atom_site_label
_atom_site_type_symbol
_atom_site_fract_x
_atom_site_fract_y
_atom_site_fract_z
O1 O 0.63458(12) 0.26702(10) 0.46233(9)
O2 O 0.81362(12) 0.42918(9) 0.73789(9)
O3 O 0.53090(12) 0.46855(10) 0.83535(9)
O4 O 0.21222(12) 0.32429(10) 0.60838(9)
O5 O 0.97706(15) 0.13117(12) 0.11745(12)
N1 N 0.32360(14) 0.04550(11) 0.38173(11)
C1 C 0.27522(17) 0.17642(13) 0.42806(13)
C2 C 0.44804(16) 0.04339(13) 0.30966(12)
C3 C 0.42598(18) -0.07413(14) 0.19976(14)
C4 C 0.55283(18) -0.07760(14) 0.13010(14)
C5 C 0.70741(18) 0.03622(14) 0.16708(13)
C6 C 0.73486(17) 0.15342(14) 0.27857(13)
C7 C 0.61057(17) 0.15787(13) 0.34942(12)
C8 C 0.79673(17) 0.38251(13) 0.50583(13)
C9 C 0.79041(18) 0.48816(14) 0.62903(13)
C10 C 0.83709(18) 0.52821(15) 0.86447(13)
C11 C 0.68542(17) 0.58727(14) 0.87291(14)
C12 C 0.37448(18) 0.50807(15) 0.82102(14)
C13 C 0.22066(18) 0.37496(16) 0.74727(14)
C14 C 0.29828(17) 0.21768(14) 0.57798(13)
C15 C 0.17636(19) -0.08571(15) 0.34877(17)
C16 C 0.8389(2) 0.03515(16) 0.09119(15)
H1 H 0.1498(19) 0.1577(15) 0.3810(14)
H2 H 0.3447(18) 0.2545(15) 0.4005(14)
H3 H 0.317(2) -0.1537(19) 0.1731(17)
H4 H 0.533(2) -0.158(2) 0.0508(19)
H5 H 0.844(2) 0.2287(17) 0.3050(15)
H6 H 0.8051(19) 0.4277(16) 0.4360(15)
H7 H 0.898(2) 0.3459(16) 0.5250(15)
H8 H 0.887(2) 0.5778(17) 0.6483(15)
H9 H 0.675(2) 0.5054(16) 0.6130(15)
H10 H 0.946(2) 0.6095(18) 0.8866(16)
H11 H 0.8496(19) 0.4725(16) 0.9310(15)
H12 H 0.706(2) 0.6480(17) 0.9670(16)
H13 H 0.674(2) 0.6513(17) 0.8154(16)
H14 H 0.383(2) 0.5816(17) 0.7707(15)
H15 H 0.355(2) 0.5517(17) 0.9107(16)
H16 H 0.232(2) 0.2989(18) 0.7900(16)
H17 H 0.116(2) 0.3954(17) 0.7534(16)
H18 H 0.2431(19) 0.1332(16) 0.6080(14)
H19 H 0.422(2) 0.2568(16) 0.6258(15)
H20 H 0.219(2) -0.1676(18) 0.3495(16)
H21 H 0.088(2) -0.101(2) 0.2631(19)
H22 H 0.112(2) -0.0733(19) 0.4208(18)
H23 H 0.804(2) -0.054(2) 0.0107(18)
loop_
_geom_bond_atom_site_label_1
_geom_bond_atom_site_label_2
_geom_bond_site_symmetry_1
_geom_bond_site_symmetry_2
O1 C7 1_555 1_555
O2 C9 1_555 1_555
O3 C11 1_555 1_555
O4 C13 1_555 1_555
O5 C16 1_555 1_555
N1 C1 1_555 1_555
C1 C14 1_555 1_555
C2 N1 1_555 1_555
C3 C2 1_555 1_555
C4 C3 1_555 1_555
C5 C4 1_555 1_555
C6 C5 1_555 1_555
C7 C2 1_555 1_555
C8 O1 1_555 1_555
C9 C8 1_555 1_555
C10 O2 1_555 1_555
C11 C10 1_555 1_555
C12 O3 1_555 1_555
C13 C12 1_555 1_555
C14 O4 1_555 1_555
C15 N1 1_555 1_555
C16 C5 1_555 1_555
H1 C1 1_555 1_555
H2 C1 1_555 1_555
H3 C3 1_555 1_555
H4 C4 1_555 1_555
H5 C6 1_555 1_555
H6 C8 1_555 1_555
H7 C8 1_555 1_555
H8 C9 1_555 1_555
H9 C9 1_555 1_555
H10 C10 1_555 1_555
H11 C10 1_555 1_555
H12 C11 1_555 1_555
H13 C11 1_555 1_555
H14 C12 1_555 1_555
H15 C12 1_555 1_555
H16 C13 1_555 1_555
H17 C13 1_555 1_555
H18 C14 1_555 1_555
H19 C14 1_555 1_555
H20 C15 1_555 1_555
H21 C15 1_555 1_555
H22 C15 1_555 1_555
H23 C16 1_555 1_555
C6 C7 1_555 1_555

#END
