
#######################################################################
#
#                 Cambridge Crystallographic Data Centre
#                                CCDC 
#
#######################################################################
#
# If this CIF has been generated from an entry in the Cambridge 
# Structural Database, then it will include bibliographic, chemical, 
# crystal, experimental, refinement or atomic coordinate data resulting 
# from the CCDC's data processing and validation procedures.
#
#######################################################################

data_NALREY
_chemical_formula_moiety         'C16 H23 N1 O5'
_chemical_name_systematic        
18-Formyl-13-methyl-2,5,8,11-tetraoxa-13-azabicyclo(13.4.0)nonadeca-1(18),14,16-triene
_symmetry_cell_setting           triclinic
_symmetry_space_group_name_H-M   'P -1'
_symmetry_Int_Tables_number      2
_space_group_name_Hall           '-P 1'
loop_
_symmetry_equiv_pos_site_id
_symmetry_equiv_pos_as_xyz
1 x,y,z
2 -x,-y,-z
_cell_length_a                   8.1791(5)
_cell_length_b                   10.0518(6)
_cell_length_c                   10.6693(6)
_cell_angle_alpha                103.293(3)
_cell_angle_beta                 100.998(3)
_cell_angle_gamma                104.598(3)
_cell_volume                     796.782
_exptl_crystal_colour            colorless
_exptl_crystal_description       block
_cell_formula_units_Z            2
loop_
_atom_site_label
_atom_site_type_symbol
_atom_site_fract_x
_atom_site_fract_y
_atom_site_fract_z
O1 O 0.13455(12) 0.76700(10) 0.96235(10)
O2 O 0.31365(12) 0.92914(10) 1.23789(9)
O3 O 0.03089(12) 0.96854(10) 1.33536(10)
O4 O -0.28778(12) 0.82424(10) 1.10838(9)
O5 O 0.4771(2) 0.63113(13) 0.61746(12)
N1 N -0.17643(14) 0.54546(11) 0.88178(11)
C1 C 0.2967(2) 0.88252(14) 1.00587(14)
C2 C 0.2904(2) 0.98812(14) 1.12906(14)
C3 C 0.3371(2) 1.0281(2) 1.36448(14)
C4 C 0.1854(2) 1.08727(15) 1.37289(14)
C5 C -0.1255(2) 1.0080(2) 1.32103(14)
C6 C -0.2794(2) 0.8749(2) 1.24727(14)
C7 C -0.2017(2) 0.71762(15) 1.07798(14)
C8 C -0.2248(2) 0.67636(14) 0.92805(14)
C9 C -0.3237(2) 0.4143(2) 0.8488(2)
C10 C -0.0520(2) 0.54338(13) 0.80965(13)
C11 C -0.0740(2) 0.42585(15) 0.69983(14)
C12 C 0.0528(2) 0.42242(15) 0.63012(14)
C13 C 0.2074(2) 0.53621(15) 0.66713(14)
C14 C 0.2348(2) 0.65335(14) 0.77857(14)
C15 C 0.1106(2) 0.65786(14) 0.84948(13)
C16 C 0.3389(2) 0.5352(2) 0.5912(2)
H1 H 0.3047(20) 0.9272(17) 0.9357(16)
H2 H 0.3977(20) 0.8452(16) 1.0249(15)
H3 H 0.3866(21) 1.0777(18) 1.1487(16)
H4 H 0.1747(21) 1.0051(16) 1.1132(16)
H5 H 0.4473(22) 1.1086(18) 1.3871(17)
H6 H 0.3501(20) 0.9726(17) 1.4313(16)
H7 H 0.2064(21) 1.1482(18) 1.4677(17)
H8 H 0.1747(22) 1.1509(18) 1.3156(17)
H9 H -0.1169(20) 1.0808(18) 1.2707(16)
H10 H -0.1446(21) 1.0517(18) 1.4111(17)
H11 H -0.2666(22) 0.7979(18) 1.2897(17)
H12 H -0.3845(23) 0.8948(18) 1.2538(16)
H13 H -0.2570(20) 0.6325(17) 1.1080(15)
H14 H -0.0780(20) 0.7555(16) 1.1258(15)
H15 H -0.3504(20) 0.6567(15) 0.8814(15)
H16 H -0.1558(18) 0.7538(16) 0.9013(14)
H17 H -0.2804(21) 0.3331(18) 0.8495(16)
H18 H -0.4120(25) 0.3995(20) 0.7638(19)
H19 H -0.3874(24) 0.4269(20) 0.9205(19)
H20 H -0.1845(24) 0.3463(19) 0.6741(18)
H21 H 0.0324(24) 0.3421(21) 0.5518(20)
H22 H 0.3437(21) 0.7278(17) 0.8051(16)
H23 H 0.3042(24) 0.4470(21) 0.5111(19)
loop_
_geom_bond_atom_site_label_1
_geom_bond_atom_site_label_2
_geom_bond_site_symmetry_1
_geom_bond_site_symmetry_2
O1 C1 1_555 1_555
O2 C2 1_555 1_555
O3 C4 1_555 1_555
O4 C6 1_555 1_555
O5 C16 1_555 1_555
N1 C8 1_555 1_555
C1 C2 1_555 1_555
C2 H3 1_555 1_555
C3 O2 1_555 1_555
C4 C3 1_555 1_555
C5 O3 1_555 1_555
C6 C5 1_555 1_555
C7 O4 1_555 1_555
C8 C7 1_555 1_555
C9 N1 1_555 1_555
C10 N1 1_555 1_555
C11 C10 1_555 1_555
C12 C11 1_555 1_555
C13 C12 1_555 1_555
C14 C13 1_555 1_555
C15 O1 1_555 1_555
C16 C13 1_555 1_555
H1 C1 1_555 1_555
H2 C1 1_555 1_555
H4 C2 1_555 1_555
H5 C3 1_555 1_555
H6 C3 1_555 1_555
H7 C4 1_555 1_555
H8 C4 1_555 1_555
H9 C5 1_555 1_555
H10 C5 1_555 1_555
H11 C6 1_555 1_555
H12 C6 1_555 1_555
H13 C7 1_555 1_555
H14 C7 1_555 1_555
H15 C8 1_555 1_555
H16 C8 1_555 1_555
H17 C9 1_555 1_555
H18 C9 1_555 1_555
H19 C9 1_555 1_555
H20 C11 1_555 1_555
H21 C12 1_555 1_555
H22 C14 1_555 1_555
H23 C16 1_555 1_555
C10 C15 1_555 1_555
C14 C15 1_555 1_555

#END
