
#######################################################################
#
#                 Cambridge Crystallographic Data Centre
#                                CCDC 
#
#######################################################################
#
# If this CIF has been generated from an entry in the Cambridge 
# Structural Database, then it will include bibliographic, chemical, 
# crystal, experimental, refinement or atomic coordinate data resulting 
# from the CCDC's data processing and validation procedures.
#
#######################################################################

data_NALSUO
_chemical_formula_moiety         'C12 H14 Se4'
_chemical_name_systematic        
2,2'-Ethanediylidene-bis(4,5-dimethyl-2H-1,3-diselenole)
_symmetry_cell_setting           triclinic
_symmetry_space_group_name_H-M   'P -1'
_symmetry_Int_Tables_number      2
_space_group_name_Hall           '-P 1'
loop_
_symmetry_equiv_pos_site_id
_symmetry_equiv_pos_as_xyz
1 x,y,z
2 -x,-y,-z
_cell_length_a                   6.483(1)
_cell_length_b                   6.873(1)
_cell_length_c                   8.378(1)
_cell_angle_alpha                70.48(1)
_cell_angle_beta                 81.67(1)
_cell_angle_gamma                82.44(1)
_cell_volume                     346.75
_exptl_crystal_colour            'bright yellow'
_exptl_crystal_description       plate-like
_chemical_melting_point          244-245deg.C
_cell_formula_units_Z            1
_exptl_crystal_recrystallization_method 'carbon disulfide'
loop_
_atom_site_label
_atom_site_type_symbol
_atom_site_fract_x
_atom_site_fract_y
_atom_site_fract_z
Se1 Se 0.09212(4) 0.50605(4) 0.71331(4)
Se2 Se 0.20297(4) 0.06258(4) 0.67061(4)
C1 C 0.2863(4) 0.3333(4) 0.6170(4)
C2 C -0.0676(4) 0.1238(4) 0.7762(3)
C3 C -0.1132(4) 0.3108(4) 0.7967(3)
C4 C 0.4669(4) 0.3977(4) 0.5220(4)
C5 C -0.2092(5) -0.0488(5) 0.8302(4)
C6 C -0.3104(5) 0.3871(5) 0.8838(4)
H1 H 0.5490(71) 0.3203(75) 0.4849(56)
H2 H -0.1286(92) -0.1743(91) 0.9167(73)
H3 H -0.2146(69) -0.1015(68) 0.7307(56)
H4 H -0.3325(86) 0.0009(80) 0.8555(65)
H5 H -0.3747(76) 0.5270(74) 0.8157(59)
H6 H -0.2828(75) 0.4183(73) 0.9786(61)
H7 H -0.3941(77) 0.2802(73) 0.9114(61)
C4A C 0.5331(4) 0.6023(4) 0.4780(4)
C1A C 0.7137(4) 0.6667(4) 0.3830(4)
Se1A Se 0.90788(4) 0.49395(4) 0.28669(4)
C3A C 1.1132(4) 0.6892(4) 0.2033(3)
C2A C 1.0676(4) 0.8762(4) 0.2238(3)
Se2A Se 0.79703(4) 0.93742(4) 0.32939(4)
C5A C 1.2092(5) 1.0488(5) 0.1698(4)
H2A H 1.1286(92) 1.1743(91) 0.0833(73)
H3A H 1.2146(69) 1.1015(68) 0.2693(56)
H4A H 1.3325(86) 0.9991(80) 0.1445(65)
C6A C 1.3104(5) 0.6129(5) 0.1162(4)
H5A H 1.3747(76) 0.4730(74) 0.1843(59)
H6A H 1.2828(75) 0.5817(73) 0.0214(61)
H7A H 1.3941(77) 0.7198(73) 0.0886(61)
H1A H 0.4510(71) 0.6797(75) 0.5151(56)
loop_
_geom_bond_atom_site_label_1
_geom_bond_atom_site_label_2
_geom_bond_site_symmetry_1
_geom_bond_site_symmetry_2
Se1 C1 1_555 1_555
Se2 C1 1_555 1_555
C1 C4 1_555 1_555
C2 Se2 1_555 1_555
C3 Se1 1_555 1_555
C4 H1 1_555 1_555
C5 C2 1_555 1_555
C6 C3 1_555 1_555
H2 C5 1_555 1_555
H3 C5 1_555 1_555
H4 C5 1_555 1_555
H5 C6 1_555 1_555
H6 C6 1_555 1_555
H7 C6 1_555 1_555
C4A C4 1_555 1_555
C1A C4A 1_555 1_555
Se1A C1A 1_555 1_555
C3A Se1A 1_555 1_555
C2A C3A 1_555 1_555
Se2A C1A 1_555 1_555
C5A C2A 1_555 1_555
H2A C5A 1_555 1_555
H3A C5A 1_555 1_555
H4A C5A 1_555 1_555
C6A C3A 1_555 1_555
H5A C6A 1_555 1_555
H6A C6A 1_555 1_555
H7A C6A 1_555 1_555
H1A C4A 1_555 1_555
C2 C3 1_555 1_555
C2A Se2A 1_555 1_555

#END
