
#######################################################################
#
#                 Cambridge Crystallographic Data Centre
#                                CCDC 
#
#######################################################################
#
# If this CIF has been generated from an entry in the Cambridge 
# Structural Database, then it will include bibliographic, chemical, 
# crystal, experimental, refinement or atomic coordinate data resulting 
# from the CCDC's data processing and validation procedures.
#
#######################################################################

data_NALTAV
_chemical_formula_moiety         'C12 H14 S2 Se2'
_chemical_name_systematic        
2-(2-(4,5-Dimethyl-2H-1,3-diselenol-2-ylidene)ethylidene)-4,5-dimethyl-2H-1,3-dithiole
_symmetry_cell_setting           triclinic
_symmetry_space_group_name_H-M   'P -1'
_symmetry_Int_Tables_number      2
_space_group_name_Hall           '-P 1'
loop_
_symmetry_equiv_pos_site_id
_symmetry_equiv_pos_as_xyz
1 x,y,z
2 -x,-y,-z
_cell_length_a                   6.411(1)
_cell_length_b                   6.837(1)
_cell_length_c                   8.337(1)
_cell_angle_alpha                70.35(1)
_cell_angle_beta                 81.76(1)
_cell_angle_gamma                82.47(1)
_cell_volume                     339.245
_exptl_crystal_colour            yellow
_exptl_crystal_description       plate-like
_chemical_melting_point          242-243deg.C
_cell_formula_units_Z            1
_exptl_crystal_recrystallization_method 'carbon disulfide/hexane'
loop_
_atom_site_label
_atom_site_type_symbol
_atom_site_fract_x
_atom_site_fract_y
_atom_site_fract_z
S1 S 0.09587(7) 0.50208(7) 0.71125(7)
Se1 Se 0.20431(8) 0.06680(8) 0.66564(7)
C1 C 0.2847(6) 0.3324(5) 0.6164(5)
C2 C -0.0624(5) 0.1229(5) 0.7732(4)
C3 C -0.1078(5) 0.3105(5) 0.7950(4)
C4 C 0.4665(6) 0.3970(5) 0.5210(5)
C5 C -0.2045(6) -0.0524(6) 0.8287(5)
C6 C -0.3059(6) 0.3856(6) 0.8856(5)
H1 H 0.5518(62) 0.2968(64) 0.4816(49)
H2 H -0.159(10) -0.175(10) 0.9332(83)
H3 H -0.2165(78) -0.0999(77) 0.7344(64)
H4 H -0.337(10) -0.0115(96) 0.8774(77)
H5 H -0.3829(98) 0.5211(99) 0.8228(78)
H6 H -0.2717(95) 0.4063(92) 0.9827(77)
H7 H -0.4016(84) 0.2832(82) 0.9220(67)
C4A C 0.5335(6) 0.6030(5) 0.4790(5)
C1A C 0.7153(6) 0.6676(5) 0.3836(5)
S1A S 0.90413(7) 0.49792(7) 0.28875(7)
C3A C 1.1078(5) 0.6895(5) 0.2050(4)
C2A C 1.0624(5) 0.8771(5) 0.2268(4)
Se1A Se 0.79569(8) 0.93320(8) 0.33436(7)
C5A C 1.2045(6) 1.0524(6) 0.1713(5)
H2A H 1.159(10) 1.175(10) 0.0668(83)
H3A H 1.2165(78) 1.0999(77) 0.2656(64)
H4A H 1.337(10) 1.0115(96) 0.1226(77)
C6A C 1.3059(6) 0.6144(6) 0.1144(5)
H5A H 1.3829(98) 0.4789(99) 0.1772(78)
H6A H 1.2717(95) 0.5937(92) 0.0173(77)
H7A H 1.4016(84) 0.7168(82) 0.0780(67)
H1A H 0.4482(62) 0.7032(64) 0.5184(49)
loop_
_geom_bond_atom_site_label_1
_geom_bond_atom_site_label_2
_geom_bond_site_symmetry_1
_geom_bond_site_symmetry_2
S1 C1 1_555 1_555
Se1 C1 1_555 1_555
C1 C4 1_555 1_555
C2 Se1 1_555 1_555
C3 S1 1_555 1_555
C4 H1 1_555 1_555
C5 C2 1_555 1_555
C6 C3 1_555 1_555
H2 C5 1_555 1_555
H3 C5 1_555 1_555
H4 C5 1_555 1_555
H5 C6 1_555 1_555
H6 C6 1_555 1_555
H7 C6 1_555 1_555
C4A C4 1_555 1_555
C1A C4A 1_555 1_555
S1A C1A 1_555 1_555
C3A S1A 1_555 1_555
C2A C3A 1_555 1_555
Se1A C1A 1_555 1_555
C5A C2A 1_555 1_555
H2A C5A 1_555 1_555
H3A C5A 1_555 1_555
H4A C5A 1_555 1_555
C6A C3A 1_555 1_555
H5A C6A 1_555 1_555
H6A C6A 1_555 1_555
H7A C6A 1_555 1_555
H1A C4A 1_555 1_555
C2 C3 1_555 1_555
C2A Se1A 1_555 1_555

#END
