
#######################################################################
#
#                 Cambridge Crystallographic Data Centre
#                                CCDC 
#
#######################################################################
#
# If this CIF has been generated from an entry in the Cambridge 
# Structural Database, then it will include bibliographic, chemical, 
# crystal, experimental, refinement or atomic coordinate data resulting 
# from the CCDC's data processing and validation procedures.
#
#######################################################################

data_NALWUS04
_chemical_formula_moiety         'C21 H9 D14 N1 S1'
_chemical_name_systematic        
Tetradecadeutero-N,N-dibenzyl-1-cyclohexenecarbothioamide
_symmetry_cell_setting           monoclinic
_symmetry_space_group_name_H-M   'P 21'
_symmetry_Int_Tables_number      4
_space_group_name_Hall           'P 2yb'
loop_
_symmetry_equiv_pos_site_id
_symmetry_equiv_pos_as_xyz
1 x,y,z
2 -x,1/2+y,-z
_cell_length_a                   8.675(4)
_cell_length_b                   10.25(2)
_cell_length_c                   10.062(6)
_cell_angle_alpha                90
_cell_angle_beta                 99.54(5)
_cell_angle_gamma                90
_cell_volume                     882.327
_exptl_crystal_colour            yellow
_exptl_crystal_description       prism
_cell_formula_units_Z            2
_chemical_properties_physical    light-sensitive
_exptl_crystal_recrystallization_method 'diethyl ether'
loop_
_atom_site_label
_atom_site_type_symbol
_atom_site_fract_x
_atom_site_fract_y
_atom_site_fract_z
S1 S 0.5520(5) 0.90(2) 0.3247(5)
N1 N 0.3656(4) 0.99(2) 0.4896(4)
C1 C 0.3808(5) 0.93(2) 0.3773(4)
C2 C 0.2373(5) 0.88(2) 0.2919(4)
C3 C 0.1612(6) 0.77(2) 0.3336(5)
H1 H 0.1947 0.7423 0.4224
C4 C 0.0247(7) 0.71(2) 0.2473(6)
C5 C 0.0066(8) 0.75(2) 0.1002(6)
C6 C 0.0299(7) 0.89(2) 0.0843(5)
C7 C 0.1921(6) 0.94(2) 0.1542(4)
C8 C 0.2105(5) 1.02(2) 0.5328(4)
C9 C 0.1045(5) 1.11(2) 0.4330(5)
C10 C -0.0542(5) 1.07(2) 0.3850(5)
C11 C -0.1487(6) 1.15(2) 0.3051(6)
C12 C -0.0927(7) 1.26(2) 0.2542(6)
C13 C 0.0629(8) 1.30(2) 0.2952(6)
C14 C 0.1600(6) 1.22(2) 0.3876(6)
C15 C 0.5010(5) 1.05(2) 0.5812(5)
C16 C 0.5292(5) 0.98(2) 0.7153(5)
C17 C 0.5077(6) 0.84(2) 0.7230(5)
C18 C 0.5408(7) 0.78(2) 0.8463(5)
C19 C 0.5918(8) 0.85(2) 0.9630(5)
C20 C 0.6102(7) 0.98(2) 0.9561(5)
C21 C 0.5771(6) 1.05(2) 0.8325(5)
D1 D -0.1683(8) 1.33(2) 0.1811(7)
D2 D 0.5249(8) 0.66(2) 0.8527(6)
D3 D -0.1041(4) 0.98(2) 0.4159(5)
D4 D 0.4758(6) 1.14(2) 0.5983(5)
D5 D 0.4464(6) 0.79(2) 0.6244(5)
D6 D 0.6694(8) 1.04(2) 1.0490(5)
D7 D 0.1505(5) 0.93(2) 0.5428(4)
D8 D 0.6143(9) 0.80(2) 1.0577(5)
D9 D 0.1233(9) 1.38(2) 0.2545(7)
D10 D -0.2637(5) 1.12(2) 0.2700(6)
D11 D 0.6050(5) 1.03(2) 0.5264(5)
D12 D 0.2424(5) 1.07(2) 0.6289(4)
D13 D 0.2644(7) 1.25(2) 0.4224(6)
D14 D 0.6156(7) 1.14(2) 0.8290(6)
H2 H -0.1077 0.7227 0.0323
H3 H 0.2013 1.0517 0.1565
H4 H 0.0344 0.9235 -0.0109
H5 H 0.3047 0.9096 0.0962
H6 H -0.0419 0.9581 0.1188
H7 H -0.1158 0.7344 0.2563
H8 H 0.0772 0.6888 0.0525
H9 H 0.0316 0.5949 0.2420
S2? S 0.5515(5) 0.90(2) 0.3202(5)
N2? N 0.3331(4) 0.97(2) 0.4726(4)
C22? C 0.3771(5) 0.91(2) 0.3649(4)
C23? C 0.2106(5) 0.87(2) 0.2961(4)
C24? C 0.2033(7) 0.72(2) 0.2996(6)
D15? D 0.2339(7) 0.68(2) 0.3919(6)
H10? H 0.2682 0.6745 0.2386
C25? C 0.0205(7) 0.70(2) 0.2453(6)
H11? H -0.0432 0.7659 0.2815
H12? H -0.0183 0.6106 0.2626
C26? C 0.0316(8) 0.72(2) 0.0852(6)
H13? H 0.1320 0.6918 0.0619
H14? H -0.0568 0.6822 0.0242
C27? C 0.0206(7) 0.87(2) 0.0870(5)
H15? H -0.0604 0.8963 0.1400
H16? H -0.0096 0.9022 -0.0061
C28? C 0.1807(6) 0.93(2) 0.1505(4)
H17? H 0.1767 1.0228 0.1539
H18? H 0.2635 0.8998 0.0991
C29? C 0.1704(5) 0.94(2) 0.4186(4)
C30? C 0.1479(6) 1.18(2) 0.3447(5)
C31? C 0.0754(5) 1.06(2) 0.3731(5)
C32? C -0.0867(5) 1.05(2) 0.3494(5)
C33? C -0.1764(6) 1.16(2) 0.2973(6)
C34? C -0.1039(7) 1.27(2) 0.2689(7)
C35? C 0.0583(7) 1.28(2) 0.2926(6)
C36? C 0.4261(5) 1.05(2) 0.5731(5)
C37? C 0.4775(6) 1.03(2) 0.8309(4)
C38? C 0.4691(5) 0.97(2) 0.7098(4)
C39? C 0.4995(6) 0.83(2) 0.7104(5)
C40? C 0.5383(7) 0.77(2) 0.8320(5)
C41? C 0.5467(8) 0.83(2) 0.9530(5)
C42? C 0.5163(7) 0.97(2) 0.9524(4)
D16? D 0.1208(5) 0.88(2) 0.4903(5)
D17? D 0.5728(8) 1.02(2) 1.0518(5)
D18? D 0.4993(7) 1.13(2) 0.8386(5)
D19? D -0.1362(4) 0.97(2) 0.3688(6)
D20? D 0.2587(6) 1.18(2) 0.3610(5)
D21? D -0.2872(6) 1.15(2) 0.2811(7)
D22? D -0.1651(8) 1.35(2) 0.2333(8)
D23? D 0.1078(9) 1.36(2) 0.2732(7)
D24? D 0.3681(5) 1.13(2) 0.5906(5)
D25? D 0.5232(5) 1.08(2) 0.5412(5)
D26? D 0.4938(6) 0.79(2) 0.6276(5)
D27? D 0.5591(8) 0.68(2) 0.8323(6)
D28? D 0.5732(9) 0.79(2) 1.0361(5)
loop_
_geom_bond_atom_site_label_1
_geom_bond_atom_site_label_2
_geom_bond_site_symmetry_1
_geom_bond_site_symmetry_2
S1 C1 1_555 1_555
N1 C1 1_555 1_555
C1 C2 1_555 1_555
C2 C3 1_555 1_555
C3 H1 1_555 1_555
C4 C3 1_555 1_555
C5 C4 1_555 1_555
C6 C5 1_555 1_555
C7 C2 1_555 1_555
C8 N1 1_555 1_555
C9 C8 1_555 1_555
C10 C9 1_555 1_555
C11 C10 1_555 1_555
C12 C11 1_555 1_555
C13 C12 1_555 1_555
C14 C9 1_555 1_555
C15 N1 1_555 1_555
C16 C15 1_555 1_555
C17 C16 1_555 1_555
C18 C17 1_555 1_555
C19 C18 1_555 1_555
C20 C19 1_555 1_555
C21 C16 1_555 1_555
D1 C12 1_555 1_555
D2 C18 1_555 1_555
D3 C10 1_555 1_555
D4 C15 1_555 1_555
D5 C17 1_555 1_555
D6 C20 1_555 1_555
D7 C8 1_555 1_555
D8 C19 1_555 1_555
D9 C13 1_555 1_555
D10 C11 1_555 1_555
D11 C15 1_555 1_555
D12 C8 1_555 1_555
D13 C14 1_555 1_555
D14 C21 1_555 1_555
H2 C5 1_555 1_555
H3 C7 1_555 1_555
H4 C6 1_555 1_555
H5 C7 1_555 1_555
H6 C6 1_555 1_555
H7 C4 1_555 1_555
H8 C5 1_555 1_555
H9 C4 1_555 1_555
C6 C7 1_555 1_555
C13 C14 1_555 1_555
C20 C21 1_555 1_555

#END
