
#######################################################################
#
#                 Cambridge Crystallographic Data Centre
#                                CCDC 
#
#######################################################################
#
# If this CIF has been generated from an entry in the Cambridge 
# Structural Database, then it will include bibliographic, chemical, 
# crystal, experimental, refinement or atomic coordinate data resulting 
# from the CCDC's data processing and validation procedures.
#
#######################################################################

data_NAMPEY
_chemical_formula_moiety         'C17 H20 N4 O3'
_chemical_name_systematic        
5-Propyl-2-(tetrahydro-2H-pyran-2-yl)pyrrolo[1',2':1,6]pyrazino[2,3-d]pyridazine-1,6(2H,5H)-dione
_symmetry_cell_setting           monoclinic
_symmetry_space_group_name_H-M   'P 21/c'
_symmetry_Int_Tables_number      14
_space_group_name_Hall           '-P 2ybc'
loop_
_symmetry_equiv_pos_site_id
_symmetry_equiv_pos_as_xyz
1 x,y,z
2 -x,1/2+y,1/2-z
3 -x,-y,-z
4 x,1/2-y,1/2+z
_cell_length_a                   12.944
_cell_length_b                   10.728
_cell_length_c                   12.658
_cell_angle_alpha                90
_cell_angle_beta                 114.96
_cell_angle_gamma                90
_cell_volume                     1593.56
_cell_formula_units_Z            4
loop_
_atom_site_label
_atom_site_type_symbol
_atom_site_fract_x
_atom_site_fract_y
_atom_site_fract_z
C1 C 1.40811(15) 0.13718(18) 0.94882(17)
H1 H 1.4430 0.1079 1.0278
H2 H 1.3756 0.2181 0.9467
H3 H 1.4646 0.1426 0.9185
C2 C 1.31548(14) 0.04747(17) 0.87550(15)
H4 H 1.2596 0.0408 0.9076
H5 H 1.3486 -0.0344 0.8790
C3 C 1.25610(13) 0.08838(16) 0.74907(15)
H6 H 1.2174 0.1669 0.7448
H7 H 1.3126 0.1016 0.7186
C4 C 1.21216(14) -0.09648(16) 0.62383(15)
C5 C 1.13108(14) -0.19084(15) 0.55891(15)
C6 C 1.14120(16) -0.29096(16) 0.49666(16)
H8 H 1.2059 -0.3133 0.4865
C7 C 1.03669(17) -0.35340(17) 0.45122(16)
H9 H 1.0198 -0.4248 0.4053
C8 C 0.96388(16) -0.29243(15) 0.48540(15)
H10 H 0.8888 -0.3147 0.4669
C9 C 0.98627(13) -0.10013(14) 0.60852(13)
C10 C 1.06248(13) -0.00892(14) 0.66987(13)
C11 C 1.02360(14) 0.08233(15) 0.72700(14)
H11 H 1.0747 0.1437 0.7702
C12 C 0.87314(14) -0.10314(15) 0.60374(15)
C13 C 0.73476(14) -0.00188(16) 0.66088(16)
H12 H 0.6808 -0.0443 0.5907
C14 C 0.69063(17) 0.12702(18) 0.6634(2)
H13 H 0.6804 0.1716 0.5930
H14 H 0.7449 0.1727 0.7297
C15 C 0.57664(17) 0.1172(2) 0.6723(2)
H15 H 0.5522 0.1996 0.6837
H16 H 0.5194 0.0837 0.6002
C16 C 0.58725(17) 0.0340(2) 0.77240(19)
H17 H 0.6349 0.0743 0.8455
H18 H 0.5125 0.0209 0.7710
C17 C 0.63799(19) -0.0886(2) 0.7648(2)
H19 H 0.6485 -0.1385 0.8325
H20 H 0.5860 -0.1328 0.6961
N1 N 1.17261(10) -0.00503(12) 0.67666(11)
N2 N 1.02091(11) -0.19188(12) 0.55235(11)
N3 N 0.84763(11) -0.00437(12) 0.65965(12)
N4 N 0.92147(11) 0.08510(12) 0.72244(12)
O1 O 1.31020(10) -0.09477(13) 0.63334(12)
O2 O 0.80233(10) -0.18459(12) 0.55434(13)
O3 O 0.74586(10) -0.07321(12) 0.75902(12)
loop_
_geom_bond_atom_site_label_1
_geom_bond_atom_site_label_2
_geom_bond_site_symmetry_1
_geom_bond_site_symmetry_2
C1 H1 1_555 1_555
H2 C1 1_555 1_555
H3 C1 1_555 1_555
C2 C1 1_555 1_555
H4 C2 1_555 1_555
H5 C2 1_555 1_555
C3 C2 1_555 1_555
H6 C3 1_555 1_555
H7 C3 1_555 1_555
C4 C5 1_555 1_555
C5 C6 1_555 1_555
C6 H8 1_555 1_555
C7 C6 1_555 1_555
H9 C7 1_555 1_555
C8 C7 1_555 1_555
H10 C8 1_555 1_555
C9 C10 1_555 1_555
C10 C11 1_555 1_555
C11 H11 1_555 1_555
C12 C9 1_555 1_555
C13 H12 1_555 1_555
C14 C13 1_555 1_555
H13 C14 1_555 1_555
H14 C14 1_555 1_555
C15 C14 1_555 1_555
H15 C15 1_555 1_555
H16 C15 1_555 1_555
C16 C15 1_555 1_555
H17 C16 1_555 1_555
H18 C16 1_555 1_555
C17 C16 1_555 1_555
H19 C17 1_555 1_555
H20 C17 1_555 1_555
N1 C3 1_555 1_555
N2 C5 1_555 1_555
N3 C12 1_555 1_555
N4 C11 1_555 1_555
O1 C4 1_555 1_555
O2 C12 1_555 1_555
O3 C13 1_555 1_555
C4 N1 1_555 1_555
C8 N2 1_555 1_555
C9 N2 1_555 1_555
C10 N1 1_555 1_555
C13 N3 1_555 1_555
C17 O3 1_555 1_555
N3 N4 1_555 1_555

#END
