
#######################################################################
#
#                 Cambridge Crystallographic Data Centre
#                                CCDC 
#
#######################################################################
#
# If this CIF has been generated from an entry in the Cambridge 
# Structural Database, then it will include bibliographic, chemical, 
# crystal, experimental, refinement or atomic coordinate data resulting 
# from the CCDC's data processing and validation procedures.
#
#######################################################################

data_NAMPUN
_chemical_formula_moiety         'C15 H19 N2 O1 1+,Cl1 O4 1-'
_chemical_name_systematic        
'1-(2-(Dimethylammonio)ethyliminiomethyl)naphthalen-2-olate perchlorate'
_symmetry_cell_setting           monoclinic
_symmetry_space_group_name_H-M   'P 21/n'
_symmetry_Int_Tables_number      14
_space_group_name_Hall           '-P 2yn'
loop_
_symmetry_equiv_pos_site_id
_symmetry_equiv_pos_as_xyz
1 x,y,z
2 1/2-x,1/2+y,1/2-z
3 -x,-y,-z
4 1/2+x,1/2-y,1/2+z
_cell_length_a                   6.126(2)
_cell_length_b                   8.405(2)
_cell_length_c                   30.985(5)
_cell_angle_alpha                90
_cell_angle_beta                 92.275(3)
_cell_angle_gamma                90
_cell_volume                     1594.13
_exptl_crystal_colour            yellow
_exptl_crystal_description       block
_cell_formula_units_Z            4
loop_
_atom_site_label
_atom_site_type_symbol
_atom_site_fract_x
_atom_site_fract_y
_atom_site_fract_z
Cl1 Cl 0.10523(19) 0.75593(16) 0.93616(4)
O1 O 0.0545(16) 0.9035(9) 0.9574(3)
O2 O -0.0611(15) 0.6513(13) 0.9429(4)
O3 O 0.3164(12) 0.7137(9) 0.9494(4)
O4 O 0.1106(17) 0.8016(12) 0.8922(2)
O9 O 1.1442(5) 0.2162(4) 0.87089(11)
N1 N 0.7730(5) 0.0765(5) 0.87386(12)
N2 N 0.4501(6) 0.2487(4) 0.93405(11)
C1 C 1.1202(7) 0.2198(5) 0.82965(16)
C2 C 1.2815(8) 0.2937(6) 0.80405(19)
H1 H 1.4022 0.3414 0.8178
C3 C 1.2630(8) 0.2958(6) 0.76057(18)
H2 H 1.3718 0.3445 0.7452
C4 C 1.0828(8) 0.2263(5) 0.73773(16)
C5 C 1.0663(10) 0.2294(6) 0.69213(18)
H3 H 1.1776 0.2761 0.6770
C6 C 0.8936(11) 0.1664(6) 0.67009(18)
H4 H 0.8872 0.1685 0.6401
C7 C 0.7262(10) 0.0986(6) 0.69218(16)
H5 H 0.6049 0.0577 0.6770
C8 C 0.7373(8) 0.0912(5) 0.73661(14)
H6 H 0.6251 0.0417 0.7509
C9 C 0.9127(7) 0.1559(5) 0.76079(13)
C10 C 0.9332(7) 0.1529(5) 0.80779(14)
C11 C 0.7664(7) 0.0886(5) 0.83207(14)
H7 H 0.6417 0.0519 0.8171
C12 C 0.6046(7) 0.0055(5) 0.89915(14)
H8 H 0.6468 -0.1030 0.9061
H9 H 0.4703 0.0011 0.8815
C13 C 0.5599(7) 0.0911(5) 0.94043(13)
H10 H 0.4686 0.0241 0.9577
H11 H 0.6971 0.1071 0.9566
C14 C 0.3091(8) 0.2858(6) 0.97099(16)
H12 H 0.2075 0.2004 0.9747
H13 H 0.2303 0.3827 0.9651
H14 H 0.3988 0.2982 0.9969
C15 C 0.6079(8) 0.3819(6) 0.92776(17)
H15 H 0.7061 0.3897 0.9526
H16 H 0.5290 0.4800 0.9241
H17 H 0.6898 0.3615 0.9026
H18 H 0.352(7) 0.251(7) 0.9117(12)
H19 H 0.895(5) 0.125(6) 0.8836(17)
O5? O 0.162(3) 0.6980(17) 0.9760(4)
O6? O -0.085(2) 0.6855(18) 0.9240(6)
O7? O 0.257(3) 0.7099(19) 0.9090(5)
O8? O 0.080(3) 0.9144(12) 0.9361(6)
loop_
_geom_bond_atom_site_label_1
_geom_bond_atom_site_label_2
_geom_bond_site_symmetry_1
_geom_bond_site_symmetry_2
Cl1 O1 1_555 1_555
O2 Cl1 1_555 1_555
O3 Cl1 1_555 1_555
O4 Cl1 1_555 1_555
O9 C1 1_555 1_555
N1 C11 1_555 1_555
N2 C13 1_555 1_555
C1 C2 1_555 1_555
C2 H1 1_555 1_555
C3 C2 1_555 1_555
H2 C3 1_555 1_555
C4 C3 1_555 1_555
C5 C4 1_555 1_555
H3 C5 1_555 1_555
C6 C5 1_555 1_555
H4 C6 1_555 1_555
C7 C6 1_555 1_555
H5 C7 1_555 1_555
C8 C7 1_555 1_555
H6 C8 1_555 1_555
C9 C4 1_555 1_555
C10 C1 1_555 1_555
C11 C10 1_555 1_555
H7 C11 1_555 1_555
C12 N1 1_555 1_555
H8 C12 1_555 1_555
H9 C12 1_555 1_555
C13 C12 1_555 1_555
H10 C13 1_555 1_555
H11 C13 1_555 1_555
C14 N2 1_555 1_555
H12 C14 1_555 1_555
H13 C14 1_555 1_555
H14 C14 1_555 1_555
C15 N2 1_555 1_555
H15 C15 1_555 1_555
H16 C15 1_555 1_555
H17 C15 1_555 1_555
H18 N2 1_555 1_555
H19 N1 1_555 1_555
C8 C9 1_555 1_555
C9 C10 1_555 1_555

#END
