
#######################################################################
#
#                 Cambridge Crystallographic Data Centre
#                                CCDC 
#
#######################################################################
#
# If this CIF has been generated from an entry in the Cambridge 
# Structural Database, then it will include bibliographic, chemical, 
# crystal, experimental, refinement or atomic coordinate data resulting 
# from the CCDC's data processing and validation procedures.
#
#######################################################################

data_NAMQEY
_chemical_formula_moiety         'C22 H28 N2 O2 S1'
_chemical_name_systematic        
1-t-Butyl-2-(4-ethylbenzoyl)-1-(2-mercapto-3,5-dimethylbenzoyl)hydrazine
_chemical_properties_biological  'potential insect-growth regulatory activity'
_symmetry_cell_setting           monoclinic
_symmetry_space_group_name_H-M   'P 21/n'
_symmetry_Int_Tables_number      14
_space_group_name_Hall           '-P 2yn'
loop_
_symmetry_equiv_pos_site_id
_symmetry_equiv_pos_as_xyz
1 x,y,z
2 1/2-x,1/2+y,1/2-z
3 -x,-y,-z
4 1/2+x,1/2-y,1/2+z
_cell_length_a                   11.656(3)
_cell_length_b                   9.960(3)
_cell_length_c                   18.796(5)
_cell_angle_alpha                90
_cell_angle_beta                 97.776(5)
_cell_angle_gamma                90
_cell_volume                     2162.03
_exptl_crystal_colour            colorless
_exptl_crystal_description       block
_cell_formula_units_Z            4
loop_
_atom_site_label
_atom_site_type_symbol
_atom_site_fract_x
_atom_site_fract_y
_atom_site_fract_z
S1 S 0.43437(8) 0.50344(10) 0.21838(4)
H1 H 0.4146 0.4200 0.1880
O1 O 0.21414(16) 0.3035(2) 0.23290(10)
O2 O 0.0933(2) 0.4731(2) 0.41760(11)
N1 N 0.1483(2) 0.4875(2) 0.28455(11)
N2 N 0.1754(2) 0.5877(3) 0.33535(12)
H2 H 0.206(2) 0.6628(18) 0.3231(14)
C1 C 0.2287(2) 0.3927(3) 0.27809(15)
C2 C 0.3404(2) 0.3997(3) 0.32907(15)
C3 C 0.4413(3) 0.4426(3) 0.30521(16)
C4 C 0.5470(3) 0.4357(4) 0.34899(19)
C5 C 0.5484(3) 0.3821(4) 0.41679(19)
H3 H 0.6188 0.3758 0.4465
C6 C 0.4488(3) 0.3371(3) 0.44259(16)
C7 C 0.3447(3) 0.3473(3) 0.39758(16)
H4 H 0.2768 0.3186 0.4137
C8 C 0.6583(3) 0.4822(5) 0.3237(2)
H5 H 0.7187 0.4861 0.3638
H6 H 0.6470 0.5697 0.3025
H7 H 0.6798 0.4202 0.2887
C9 C 0.4552(4) 0.2751(4) 0.51625(18)
H8 H 0.4721 0.1810 0.5134
H9 H 0.3824 0.2866 0.5340
H10 H 0.5153 0.3181 0.5483
C10 C 0.0323(2) 0.4921(3) 0.23757(15)
C11 C -0.0310(3) 0.3610(4) 0.24578(19)
H11 H 0.0106 0.2885 0.2273
H12 H -0.1076 0.3660 0.2196
H13 H -0.0362 0.3454 0.2957
C12 C 0.0532(3) 0.5152(4) 0.16048(16)
H14 H 0.0992 0.5946 0.1580
H15 H -0.0197 0.5263 0.1305
H16 H 0.0932 0.4394 0.1442
C13 C -0.0387(3) 0.6078(4) 0.26055(19)
H17 H -0.0538 0.5935 0.3089
H18 H -0.1108 0.6132 0.2292
H19 H 0.0033 0.6902 0.2581
C14 C 0.1402(2) 0.5754(3) 0.40142(15)
C15 C 0.1607(2) 0.6919(3) 0.45014(13)
C16 C 0.2196(3) 0.8064(3) 0.43483(16)
H20 H 0.2505 0.8122 0.3918
C17 C 0.2331(3) 0.9117(4) 0.48231(16)
H21 H 0.2731 0.9876 0.4707
C18 C 0.1891(3) 0.9079(4) 0.54654(16)
C19 C 0.1303(3) 0.7942(4) 0.56147(16)
H22 H 0.0992 0.7891 0.6044
C20 C 0.1162(3) 0.6875(4) 0.51452(16)
H23 H 0.0763 0.6116 0.5263
C21 C 0.2038(4) 1.0247(5) 0.59777(19)
H24 H 0.1882 0.9951 0.6447
H25 H 0.2834 1.0553 0.6026
C22 C 0.1272(4) 1.1365(5) 0.5741(3)
H26 H 0.1376 1.1614 0.5261
H27 H 0.1453 1.2117 0.6056
H28 H 0.0482 1.1101 0.5752
loop_
_geom_bond_atom_site_label_1
_geom_bond_atom_site_label_2
_geom_bond_site_symmetry_1
_geom_bond_site_symmetry_2
S1 H1 1_555 1_555
O1 C1 1_555 1_555
O2 C14 1_555 1_555
N1 N2 1_555 1_555
N2 H2 1_555 1_555
C1 N1 1_555 1_555
C2 C1 1_555 1_555
C3 S1 1_555 1_555
C4 C3 1_555 1_555
C5 C4 1_555 1_555
H3 C5 1_555 1_555
C6 C5 1_555 1_555
C7 C2 1_555 1_555
H4 C7 1_555 1_555
C8 C4 1_555 1_555
H5 C8 1_555 1_555
H6 C8 1_555 1_555
H7 C8 1_555 1_555
C9 C6 1_555 1_555
H8 C9 1_555 1_555
H9 C9 1_555 1_555
H10 C9 1_555 1_555
C10 N1 1_555 1_555
C11 C10 1_555 1_555
H11 C11 1_555 1_555
H12 C11 1_555 1_555
H13 C11 1_555 1_555
C12 C10 1_555 1_555
H14 C12 1_555 1_555
H15 C12 1_555 1_555
H16 C12 1_555 1_555
C13 C10 1_555 1_555
H17 C13 1_555 1_555
H18 C13 1_555 1_555
H19 C13 1_555 1_555
C14 N2 1_555 1_555
C15 C14 1_555 1_555
C16 C15 1_555 1_555
H20 C16 1_555 1_555
C17 C16 1_555 1_555
H21 C17 1_555 1_555
C18 C17 1_555 1_555
C19 C18 1_555 1_555
H22 C19 1_555 1_555
C20 C15 1_555 1_555
H23 C20 1_555 1_555
C21 C18 1_555 1_555
H24 C21 1_555 1_555
H25 C21 1_555 1_555
C22 C21 1_555 1_555
H26 C22 1_555 1_555
H27 C22 1_555 1_555
H28 C22 1_555 1_555
C2 C3 1_555 1_555
C6 C7 1_555 1_555
C19 C20 1_555 1_555

#END
