
#######################################################################
#
#                 Cambridge Crystallographic Data Centre
#                                CCDC 
#
#######################################################################
#
# If this CIF has been generated from an entry in the Cambridge 
# Structural Database, then it will include bibliographic, chemical, 
# crystal, experimental, refinement or atomic coordinate data resulting 
# from the CCDC's data processing and validation procedures.
#
#######################################################################

data_NAMRUP
_chemical_formula_moiety         'C23 H25 N5 O4'
_chemical_name_systematic        
'Methyl 3-dimethylamino-2-(2-(2-dimethylamino-1-(3-(3-pyridyl)-1,2,4-oxadiazol-5-yl)vinyloxy)phenyl)acrylate'
_symmetry_cell_setting           monoclinic
_symmetry_space_group_name_H-M   'P 21/c'
_symmetry_Int_Tables_number      14
_space_group_name_Hall           '-P 2ybc'
loop_
_symmetry_equiv_pos_site_id
_symmetry_equiv_pos_as_xyz
1 x,y,z
2 -x,1/2+y,1/2-z
3 -x,-y,-z
4 x,1/2-y,1/2+z
_cell_length_a                   8.6250(17)
_cell_length_b                   9.6390(19)
_cell_length_c                   26.273(5)
_cell_angle_alpha                90
_cell_angle_beta                 91.28(3)
_cell_angle_gamma                90
_cell_volume                     2183.7
_exptl_crystal_colour            colorless
_exptl_crystal_description       tablet
_cell_formula_units_Z            4
_exptl_crystal_recrystallization_method ethanol
loop_
_atom_site_label
_atom_site_type_symbol
_atom_site_fract_x
_atom_site_fract_y
_atom_site_fract_z
O1 O 0.4684(3) 0.6663(2) 0.32844(8)
O2 O 0.2363(2) 0.4156(2) 0.39497(7)
O3 O 0.2164(3) 0.0530(3) 0.46863(9)
O4 O 0.0474(3) 0.2254(2) 0.48021(8)
N1 N 0.2789(4) 0.3991(3) 0.13676(11)
N2 N 0.4940(3) 0.6675(3) 0.27505(10)
N3 N 0.3291(3) 0.4942(3) 0.29525(9)
N4 N 0.3353(3) 0.6239(3) 0.47575(10)
N5 N 0.1193(3) 0.0355(3) 0.31549(10)
C1 C 0.3728(5) 0.4632(4) 0.10467(14)
H1 H 0.3627 0.4415 0.0703
C2 C 0.4831(4) 0.5588(4) 0.11896(13)
H2 H 0.5471 0.5984 0.0949
C3 C 0.4976(3) 0.5951(4) 0.16947(12)
H3 H 0.5699 0.6611 0.1802
C4 C 0.4017(3) 0.5307(3) 0.20415(11)
C5 C 0.2969(4) 0.4334(3) 0.18571(12)
H4 H 0.2346 0.3888 0.2091
C6 C 0.4101(3) 0.5653(3) 0.25865(11)
C7 C 0.3694(3) 0.5606(3) 0.33659(11)
C8 C 0.3209(3) 0.5370(3) 0.38798(11)
C9 C 0.0789(3) 0.4168(3) 0.38094(10)
C10 C -0.0004(3) 0.5362(3) 0.36803(11)
H5 H 0.0507 0.6211 0.3678
C11 C -0.1573(4) 0.5289(3) 0.35529(12)
H6 H -0.2120 0.6093 0.3472
C12 C -0.2316(3) 0.4032(4) 0.35467(12)
H7 H -0.3363 0.3979 0.3455
C13 C -0.1506(3) 0.2847(3) 0.36764(11)
H8 H -0.2023 0.2000 0.3673
C14 C 0.0067(3) 0.2878(3) 0.38121(10)
C15 C 0.0915(3) 0.1596(3) 0.39666(10)
C16 C 0.1278(3) 0.1376(3) 0.45053(11)
C17 C 0.0678(5) 0.2074(4) 0.53439(12)
H9 H 0.0057 0.2743 0.5518
H10 H 0.1750 0.2205 0.5438
H11 H 0.0362 0.1155 0.5437
C18 C 0.1293(3) 0.0519(3) 0.36618(11)
H12 H 0.1695 -0.0246 0.3836
C19 C 0.0819(4) 0.1468(4) 0.27997(12)
H13 H 0.0583 0.2296 0.2986
H14 H -0.0063 0.1206 0.2592
H15 H 0.1690 0.1636 0.2587
C20 C 0.1558(5) -0.0969(4) 0.29305(15)
H16 H 0.1789 -0.1629 0.3195
H17 H 0.2441 -0.0871 0.2718
H18 H 0.0686 -0.1289 0.2729
C21 C 0.3651(3) 0.6239(3) 0.42581(12)
H19 H 0.4273 0.6970 0.4155
C22 C 0.2453(4) 0.5195(4) 0.50128(13)
H20 H 0.2120 0.4503 0.4771
H21 H 0.1562 0.5620 0.5160
H22 H 0.3078 0.4769 0.5276
C23 C 0.3934(5) 0.7359(4) 0.50808(15)
H23 H 0.4522 0.7995 0.4881
H24 H 0.4586 0.6982 0.5347
H25 H 0.3077 0.7839 0.5228
loop_
_geom_bond_atom_site_label_1
_geom_bond_atom_site_label_2
_geom_bond_site_symmetry_1
_geom_bond_site_symmetry_2
O1 N2 1_555 1_555
O2 C8 1_555 1_555
O3 C16 1_555 1_555
O4 C16 1_555 1_555
N1 C1 1_555 1_555
N2 C6 1_555 1_555
N3 C6 1_555 1_555
N4 C21 1_555 1_555
N5 C18 1_555 1_555
C1 H1 1_555 1_555
C2 C1 1_555 1_555
H2 C2 1_555 1_555
C3 C2 1_555 1_555
H3 C3 1_555 1_555
C4 C3 1_555 1_555
C5 N1 1_555 1_555
H4 C5 1_555 1_555
C6 C4 1_555 1_555
C7 O1 1_555 1_555
C8 C7 1_555 1_555
C9 O2 1_555 1_555
C10 C9 1_555 1_555
H5 C10 1_555 1_555
C11 C10 1_555 1_555
H6 C11 1_555 1_555
C12 C11 1_555 1_555
H7 C12 1_555 1_555
C13 C12 1_555 1_555
H8 C13 1_555 1_555
C14 C9 1_555 1_555
C15 C14 1_555 1_555
C16 C15 1_555 1_555
C17 O4 1_555 1_555
H9 C17 1_555 1_555
H10 C17 1_555 1_555
H11 C17 1_555 1_555
C18 C15 1_555 1_555
H12 C18 1_555 1_555
C19 N5 1_555 1_555
H13 C19 1_555 1_555
H14 C19 1_555 1_555
H15 C19 1_555 1_555
C20 N5 1_555 1_555
H16 C20 1_555 1_555
H17 C20 1_555 1_555
H18 C20 1_555 1_555
C21 C8 1_555 1_555
H19 C21 1_555 1_555
C22 N4 1_555 1_555
H20 C22 1_555 1_555
H21 C22 1_555 1_555
H22 C22 1_555 1_555
C23 N4 1_555 1_555
H23 C23 1_555 1_555
H24 C23 1_555 1_555
H25 C23 1_555 1_555
N3 C7 1_555 1_555
C4 C5 1_555 1_555
C13 C14 1_555 1_555

#END
