
#######################################################################
#
#                 Cambridge Crystallographic Data Centre
#                                CCDC 
#
#######################################################################
#
# If this CIF has been generated from an entry in the Cambridge 
# Structural Database, then it will include bibliographic, chemical, 
# crystal, experimental, refinement or atomic coordinate data resulting 
# from the CCDC's data processing and validation procedures.
#
#######################################################################

data_NAMSEB
_chemical_formula_moiety         'C28 H24 S5'
_chemical_name_systematic        
2,5,9,12-Tetraethylbisbisthieno[2',3':3,4;3'',2'':5,6]benzo[1,2-b:1',2'-d]thiophene
_symmetry_cell_setting           triclinic
_symmetry_space_group_name_H-M   'P -1'
_symmetry_Int_Tables_number      2
_space_group_name_Hall           '-P 1'
loop_
_symmetry_equiv_pos_site_id
_symmetry_equiv_pos_as_xyz
1 x,y,z
2 -x,-y,-z
_cell_length_a                   10.7535(4)
_cell_length_b                   11.2604(4)
_cell_length_c                   11.9865(5)
_cell_angle_alpha                64.898(2)
_cell_angle_beta                 69.859(2)
_cell_angle_gamma                85.849(2)
_cell_volume                     1229.33
_exptl_crystal_colour            yellow
_exptl_crystal_description       block
_cell_formula_units_Z            2
loop_
_atom_site_label
_atom_site_type_symbol
_atom_site_fract_x
_atom_site_fract_y
_atom_site_fract_z
C1 C 0.8627(2) 0.6166(2) 0.4955(2)
C2 C 0.7652(2) 0.5663(2) 0.6145(2)
H1 H 0.7599 0.5901 0.6813
C3 C 0.6710(2) 0.4731(2) 0.6285(2)
C4 C 0.7021(2) 0.4539(2) 0.5146(2)
C5 C 0.6196(2) 0.3689(2) 0.5061(2)
C6 C 0.5022(2) 0.3012(2) 0.6087(2)
C7 C 0.4676(2) 0.3274(2) 0.7220(2)
C8 C 0.5512(2) 0.4089(2) 0.7332(2)
C9 C 0.4953(2) 0.4248(2) 0.8525(2)
H2 H 0.5396 0.4734 0.8759
C10 C 0.3734(2) 0.3634(2) 0.9275(2)
C11 C 0.1375(2) -0.0521(2) 0.8011(3)
C12 C 0.1782(2) -0.0442(2) 0.6790(2)
H3 H 0.1397 -0.0974 0.6557
C13 C 0.2863(2) 0.0534(2) 0.5877(2)
C14 C 0.3262(2) 0.1227(2) 0.6450(2)
C15 C 0.4375(2) 0.2193(2) 0.5730(2)
C16 C 0.5066(2) 0.2378(2) 0.4433(2)
C17 C 0.4644(2) 0.1730(2) 0.3833(2)
C18 C 0.3549(2) 0.0806(2) 0.4541(2)
C19 C 0.3312(2) 0.0225(2) 0.3774(2)
H4 H 0.2622 -0.0417 0.4102
C20 C 0.4180(2) 0.0690(2) 0.2530(2)
C21 C 0.9754(3) 0.7194(3) 0.4415(3)
H5 H 0.9669 0.7933 0.3649
H6 H 1.0585 0.6828 0.4129
C22 C 0.9813(3) 0.7691(3) 0.5387(3)
H7 H 0.8980 0.8019 0.5706
H8 H 1.0513 0.8386 0.4963
H9 H 0.9983 0.6983 0.6110
C23 C 0.2797(3) 0.3636(3) 1.0537(3)
H10 H 0.2323 0.2771 1.1096
H11 H 0.3308 0.3805 1.0990
C24 C 0.1810(4) 0.4640(4) 1.0336(4)
H12 H 0.2271 0.5503 0.9822
H13 H 0.1224 0.4579 1.1173
H14 H 0.1303 0.4482 0.9885
C25 C 0.0308(3) -0.1441(3) 0.9221(3)
H15 H 0.0015 -0.2107 0.9033
H16 H -0.0446 -0.0950 0.9436
C26 C 0.0733(3) -0.2116(3) 1.0404(3)
H17 H 0.1523 -0.2545 1.0181
H18 H 0.0036 -0.2757 1.1109
H19 H 0.0909 -0.1475 1.0674
C27 C 0.4265(3) 0.0279(3) 0.1470(3)
H20 H 0.5040 -0.0210 0.1332
H21 H 0.4390 0.1061 0.0658
C28 C 0.3048(3) -0.0561(3) 0.1777(3)
H22 H 0.2963 -0.1375 0.2535
H23 H 0.3140 -0.0742 0.1039
H24 H 0.2271 -0.0100 0.1950
S1 S 0.84370(6) 0.55079(6) 0.39377(6)
S2 S 0.32049(6) 0.28081(6) 0.85632(6)
S3 S 0.22863(6) 0.06238(6) 0.81018(6)
S4 S 0.53458(6) 0.18864(6) 0.22355(6)
S5 S 0.65127(6) 0.34185(6) 0.36766(6)
loop_
_geom_bond_atom_site_label_1
_geom_bond_atom_site_label_2
_geom_bond_site_symmetry_1
_geom_bond_site_symmetry_2
C1 C2 1_555 1_555
C2 H1 1_555 1_555
C3 C2 1_555 1_555
C4 C3 1_555 1_555
C5 C4 1_555 1_555
C6 C5 1_555 1_555
C7 C6 1_555 1_555
C8 C3 1_555 1_555
C9 C8 1_555 1_555
H2 C9 1_555 1_555
C10 C9 1_555 1_555
C11 C12 1_555 1_555
C12 H3 1_555 1_555
C13 C12 1_555 1_555
C14 C13 1_555 1_555
C15 C6 1_555 1_555
C16 C15 1_555 1_555
C17 C16 1_555 1_555
C18 C13 1_555 1_555
C19 C18 1_555 1_555
H4 C19 1_555 1_555
C20 C19 1_555 1_555
C21 C1 1_555 1_555
H5 C21 1_555 1_555
H6 C21 1_555 1_555
C22 C21 1_555 1_555
H7 C22 1_555 1_555
H8 C22 1_555 1_555
H9 C22 1_555 1_555
C23 C10 1_555 1_555
H10 C23 1_555 1_555
H11 C23 1_555 1_555
C24 C23 1_555 1_555
H12 C24 1_555 1_555
H13 C24 1_555 1_555
H14 C24 1_555 1_555
C25 C11 1_555 1_555
H15 C25 1_555 1_555
H16 C25 1_555 1_555
C26 C25 1_555 1_555
H17 C26 1_555 1_555
H18 C26 1_555 1_555
H19 C26 1_555 1_555
C27 C20 1_555 1_555
H20 C27 1_555 1_555
H21 C27 1_555 1_555
C28 C27 1_555 1_555
H22 C28 1_555 1_555
H23 C28 1_555 1_555
H24 C28 1_555 1_555
S1 C1 1_555 1_555
S2 C7 1_555 1_555
S3 C11 1_555 1_555
S4 C17 1_555 1_555
S5 C5 1_555 1_555
C4 S1 1_555 1_555
C7 C8 1_555 1_555
C10 S2 1_555 1_555
C14 C15 1_555 1_555
C14 S3 1_555 1_555
C16 S5 1_555 1_555
C17 C18 1_555 1_555
C20 S4 1_555 1_555

#END
