
#######################################################################
#
#                 Cambridge Crystallographic Data Centre
#                                CCDC 
#
#######################################################################
#
# If this CIF has been generated from an entry in the Cambridge 
# Structural Database, then it will include bibliographic, chemical, 
# crystal, experimental, refinement or atomic coordinate data resulting 
# from the CCDC's data processing and validation procedures.
#
#######################################################################

data_NAMVAB
_chemical_formula_moiety         'C31 H44 O11'
_chemical_name_systematic        
'6,8,13-triacetoxy-13a-hydroxy-1,5,8a-trimethyl-12-methylene-2-oxo-1,2,3a,6,7,8,8a,9,10,11,12,12a,13,13a-tetradecahydrobenzo[4,5]cyclodeca[1,2-b]furan-9-yl 3-methylbutanoate'
_symmetry_cell_setting           monoclinic
_symmetry_space_group_name_H-M   'C 2'
_symmetry_Int_Tables_number      5
_space_group_name_Hall           'C 2y'
loop_
_symmetry_equiv_pos_site_id
_symmetry_equiv_pos_as_xyz
1 x,y,z
2 -x,y,-z
3 1/2+x,1/2+y,z
4 1/2-x,1/2+y,-z
_cell_length_a                   21.2424(6)
_cell_length_b                   8.3921(2)
_cell_length_c                   19.9009(5)
_cell_angle_alpha                90
_cell_angle_beta                 116.900(3)
_cell_angle_gamma                90
_cell_volume                     3163.83
_exptl_crystal_colour            'light colorless'
_exptl_crystal_description       plate
_cell_formula_units_Z            4
loop_
_atom_site_label
_atom_site_type_symbol
_atom_site_fract_x
_atom_site_fract_y
_atom_site_fract_z
O1 O 0.58587(12) 0.2681(3) 0.79847(13)
O2 O 0.65940(19) 0.3111(6) 0.7493(2)
O3 O 0.44290(11) 0.3220(3) 0.54737(12)
O4 O 0.4796(2) 0.0720(3) 0.57816(17)
O5 O 0.34619(12) 0.7360(3) 0.51672(12)
O6 O 0.42078(15) 0.8993(3) 0.66447(14)
H1 H 0.4430 0.9055 0.6399
O7 O 0.36038(11) 0.5270(3) 0.70451(11)
O8 O 0.3147(2) 0.5873(5) 0.7830(2)
O9 O 0.63221(11) 0.5981(3) 0.87746(11)
O10 O 0.71725(15) 0.4713(6) 0.97443(19)
O11 O 0.24887(16) 0.8833(5) 0.47405(16)
C1 C 0.51554(15) 0.4818(4) 0.81152(16)
C2 C 0.54277(15) 0.4043(4) 0.75858(16)
H2 H 0.5725 0.4815 0.7491
C3 C 0.48427(16) 0.3479(4) 0.68309(16)
H3 H 0.4766 0.2348 0.6861
H4 H 0.4408 0.4029 0.6733
C4 C 0.50162(15) 0.3779(4) 0.61762(16)
H5 H 0.5441 0.3174 0.6264
C5 C 0.51336(15) 0.5514(4) 0.60546(15)
C6 C 0.46696(16) 0.6675(4) 0.59232(16)
H6 H 0.4810 0.7682 0.5850
C7 C 0.39457(15) 0.6570(4) 0.58768(16)
H7 H 0.3795(15) 0.550(4) 0.5832(16)
C8 C 0.38333(16) 0.7545(4) 0.64806(16)
C9 C 0.40175(15) 0.6708(4) 0.72372(16)
H8 H 0.3834 0.7387 0.7509
C10 C 0.48297(14) 0.6496(4) 0.77666(16)
H9 H 0.5068 0.6822 0.7466
C11 C 0.50270(18) 0.7744(4) 0.83857(19)
C12 C 0.5023(2) 0.7159(6) 0.9093(2)
H10 H 0.4567 0.6696 0.8978
H11 H 0.5105 0.8041 0.9438
C13 C 0.5603(2) 0.5904(6) 0.94595(19)
H12 H 0.5447 0.5113 0.9707
H13 H 0.6022 0.6412 0.9842
C14 C 0.57929(16) 0.5066(4) 0.88895(16)
H14 H 0.5993 0.4020 0.9093
C15 C 0.46781(17) 0.3623(4) 0.82623(19)
H15 H 0.4344 0.3169 0.7793
H16 H 0.4430 0.4167 0.8495
H17 H 0.4963 0.2792 0.8590
C16 C 0.58463(18) 0.5874(5) 0.6098(2)
H18 H 0.6210 0.5528 0.6576
H19 H 0.5889 0.7001 0.6045
H20 H 0.5894 0.5325 0.5700
C17 C 0.30357(17) 0.7893(5) 0.60364(19)
H21 H 0.2781 0.6926 0.6046
C18 C 0.2748(3) 0.9263(7) 0.6313(3)
H22 H 0.2727 0.8952 0.6767
H23 H 0.2284 0.9534 0.5934
H24 H 0.3053 1.0171 0.6415
C19 C 0.29410(19) 0.8104(5) 0.5249(2)
C20 C 0.5218(3) 0.9194(5) 0.8330(3)
H25 H 0.5355 0.9890 0.8736
H26 H 0.5216 0.9534 0.7885
C21 C 0.6434(2) 0.2364(6) 0.7896(2)
C22 C 0.6828(3) 0.0981(7) 0.8355(3)
H27 H 0.6838 0.1036 0.8842
H28 H 0.7302 0.0998 0.8414
H29 H 0.6600 0.0013 0.8107
C23 C 0.4394(2) 0.1646(4) 0.5345(2)
C24 C 0.3794(2) 0.1230(7) 0.4603(3)
H30 H 0.3391 0.0942 0.4673
H31 H 0.3926 0.0348 0.4386
H32 H 0.3680 0.2132 0.4271
C25 C 0.31567(18) 0.5043(5) 0.7354(2)
C26 C 0.2723(2) 0.3569(7) 0.7045(3)
H33 H 0.2531 0.3565 0.6506
H34 H 0.2346 0.3552 0.7184
H35 H 0.3016 0.2646 0.7247
C27 C 0.69944(18) 0.5640(5) 0.92290(18)
C28 C 0.74866(19) 0.6584(5) 0.9036(2)
H36 H 0.7493 0.7676 0.9198
H37 H 0.7305 0.6594 0.8492
C29 C 0.8233(2) 0.5967(8) 0.9382(3)
H38 H 0.8388 0.5847 0.9924
C30 C 0.8287(5) 0.4377(11) 0.9083(9)
H39 H 0.8038 0.3604 0.9229
H40 H 0.8774 0.4075 0.9285
H41 H 0.8083 0.4424 0.8544
C31 C 0.8710(3) 0.7176(11) 0.9286(4)
H42 H 0.8628 0.7183 0.8770
H43 H 0.9194 0.6902 0.9606
H44 H 0.8613 0.8214 0.9420
loop_
_geom_bond_atom_site_label_1
_geom_bond_atom_site_label_2
_geom_bond_site_symmetry_1
_geom_bond_site_symmetry_2
O1 C2 1_555 1_555
O2 C21 1_555 1_555
O3 C4 1_555 1_555
O4 C23 1_555 1_555
O5 C7 1_555 1_555
O6 H1 1_555 1_555
O7 C9 1_555 1_555
O8 C25 1_555 1_555
O9 C14 1_555 1_555
O10 C27 1_555 1_555
O11 C19 1_555 1_555
C1 C2 1_555 1_555
C2 H2 1_555 1_555
C3 C2 1_555 1_555
H3 C3 1_555 1_555
H4 C3 1_555 1_555
C4 C3 1_555 1_555
H5 C4 1_555 1_555
C5 C4 1_555 1_555
C6 C5 1_555 1_555
H6 C6 1_555 1_555
C7 C6 1_555 1_555
H7 C7 1_555 1_555
C8 O6 1_555 1_555
C9 C8 1_555 1_555
H8 C9 1_555 1_555
C10 C1 1_555 1_555
H9 C10 1_555 1_555
C11 C10 1_555 1_555
C12 C11 1_555 1_555
H10 C12 1_555 1_555
H11 C12 1_555 1_555
C13 C12 1_555 1_555
H12 C13 1_555 1_555
H13 C13 1_555 1_555
C14 C1 1_555 1_555
H14 C14 1_555 1_555
C15 C1 1_555 1_555
H15 C15 1_555 1_555
H16 C15 1_555 1_555
H17 C15 1_555 1_555
C16 C5 1_555 1_555
H18 C16 1_555 1_555
H19 C16 1_555 1_555
H20 C16 1_555 1_555
C17 C8 1_555 1_555
H21 C17 1_555 1_555
C18 C17 1_555 1_555
H22 C18 1_555 1_555
H23 C18 1_555 1_555
H24 C18 1_555 1_555
C19 O5 1_555 1_555
C20 C11 1_555 1_555
H25 C20 1_555 1_555
H26 C20 1_555 1_555
C21 O1 1_555 1_555
C22 C21 1_555 1_555
H27 C22 1_555 1_555
H28 C22 1_555 1_555
H29 C22 1_555 1_555
C23 O3 1_555 1_555
C24 C23 1_555 1_555
H30 C24 1_555 1_555
H31 C24 1_555 1_555
H32 C24 1_555 1_555
C25 O7 1_555 1_555
C26 C25 1_555 1_555
H33 C26 1_555 1_555
H34 C26 1_555 1_555
H35 C26 1_555 1_555
C27 O9 1_555 1_555
C28 C27 1_555 1_555
H36 C28 1_555 1_555
H37 C28 1_555 1_555
C29 C28 1_555 1_555
H38 C29 1_555 1_555
C30 C29 1_555 1_555
H39 C30 1_555 1_555
H40 C30 1_555 1_555
H41 C30 1_555 1_555
C31 C29 1_555 1_555
H42 C31 1_555 1_555
H43 C31 1_555 1_555
H44 C31 1_555 1_555
C7 C8 1_555 1_555
C9 C10 1_555 1_555
C13 C14 1_555 1_555
C17 C19 1_555 1_555

#END
