
#######################################################################
#
#                 Cambridge Crystallographic Data Centre
#                                CCDC 
#
#######################################################################
#
# If this CIF has been generated from an entry in the Cambridge 
# Structural Database, then it will include bibliographic, chemical, 
# crystal, experimental, refinement or atomic coordinate data resulting 
# from the CCDC's data processing and validation procedures.
#
#######################################################################

data_NAMWON
_chemical_formula_moiety         'C26 H30 F3 N1 O8 S1'
_chemical_name_systematic        
(2R,4aS,5aS,8R,9aR)-5-(4-Hydroxy-3-(hydroxymethyl)-2-(trifluoromethyl)butylsulfonyl)-4,4a,5a,6,9a,9b-hexahydro-2,8-diphenyl-2H,5H,8H-bis(1,3)dioxino(5,4-b:4',5'-d)pyrrole
_symmetry_cell_setting           monoclinic
_symmetry_space_group_name_H-M   'P 21'
_symmetry_Int_Tables_number      4
_space_group_name_Hall           'P 2yb'
loop_
_symmetry_equiv_pos_site_id
_symmetry_equiv_pos_as_xyz
1 x,y,z
2 -x,1/2+y,-z
_cell_length_a                   10.835(1)
_cell_length_b                   9.793(1)
_cell_length_c                   12.690(1)
_cell_angle_alpha                90
_cell_angle_beta                 103.548(7)
_cell_angle_gamma                90
_cell_volume                     1309.03
_exptl_crystal_colour            colorless
_exptl_crystal_description       needles
_chemical_melting_point          70-71deg.C
_cell_formula_units_Z            2
_exptl_crystal_recrystallization_method chloroform/ethanol
loop_
_atom_site_label
_atom_site_type_symbol
_atom_site_fract_x
_atom_site_fract_y
_atom_site_fract_z
S1 S 0.57151(6) 0.2340 0.47042(5)
F1 F 0.2751(2) -0.0460(2) 0.3051(2)
F2 F 0.1857(2) 0.1280(3) 0.2207(2)
F3 F 0.2597(2) 0.1388(3) 0.3906(2)
O1 O 0.4720(2) 0.2616(2) 0.5244(1)
O2 O 0.6147(2) 0.3461(2) 0.4159(2)
O3 O 0.4309(3) 0.3114(3) 0.0974(2)
O4 O 0.4552(3) -0.1206(3) 0.0731(2)
O5 O 0.8254(2) 0.0945(2) 0.3761(1)
O6 O 0.8585(2) -0.0538(2) 0.5233(1)
O7 O 0.6566(2) 0.1610(2) 0.7962(1)
O8 O 0.8569(2) 0.1035(2) 0.7757(1)
N1 N 0.6915(2) 0.1728(2) 0.5579(1)
C1 C 0.5210(2) 0.1016(3) 0.3747(2)
C2 C 0.4081(2) 0.1388(3) 0.2801(2)
C3 C 0.2830(3) 0.0902(3) 0.3004(4)
C4 C 0.4261(3) 0.0855(3) 0.1702(2)
C5 C 0.4988(3) 0.1868(4) 0.1193(3)
C6 C 0.4866(3) -0.0555(3) 0.1743(2)
C7 C 0.8278(2) 0.1890(3) 0.5540(2)
C8 C 0.8859(2) 0.0543(3) 0.6016(2)
C9 C 0.8104(2) 0.0181(3) 0.6842(2)
C10 C 0.6743(2) 0.0534(2) 0.6257(2)
C11 C 0.5928(2) 0.0775(3) 0.7077(2)
C12 C 0.7735(1) 0.1039(3) 0.8474(2)
C13 C 0.8299(2) 0.1904(3) 0.9440(2)
C14 C 0.8828(3) 0.3168(3) 0.9330(2)
C15 C 0.9247(3) 0.4000(4) 1.0217(3)
C16 C 0.9150(3) 0.3559(4) 1.1221(2)
C17 C 0.8639(3) 0.2327(5) 1.1342(2)
C18 C 0.8205(3) 0.1484(3) 1.0460(2)
C19 C 0.8590(3) 0.2110(3) 0.4441(2)
C20 C 0.8899(2) -0.0237(3) 0.4240(2)
C21 C 0.8506(2) -0.1405(3) 0.3471(2)
C22 C 0.7845(3) -0.2514(4) 0.3724(2)
C23 C 0.7436(3) -0.3536(4) 0.2967(3)
C24 C 0.7665(3) -0.3444(4) 0.1947(3)
C25 C 0.8353(4) -0.2355(4) 0.1709(2)
C26 C 0.8768(3) -0.1345(4) 0.2455(2)
loop_
_geom_bond_atom_site_label_1
_geom_bond_atom_site_label_2
_geom_bond_site_symmetry_1
_geom_bond_site_symmetry_2
S1 O1 1_555 1_555
F1 C3 1_555 1_555
F2 C3 1_555 1_555
F3 C3 1_555 1_555
O2 S1 1_555 1_555
O3 C5 1_555 1_555
O4 C6 1_555 1_555
O5 C19 1_555 1_555
O6 C8 1_555 1_555
O7 C11 1_555 1_555
O8 C9 1_555 1_555
N1 S1 1_555 1_555
C1 S1 1_555 1_555
C2 C1 1_555 1_555
C3 C2 1_555 1_555
C4 C2 1_555 1_555
C5 C4 1_555 1_555
C6 C4 1_555 1_555
C7 N1 1_555 1_555
C8 C7 1_555 1_555
C9 C8 1_555 1_555
C10 N1 1_555 1_555
C11 C10 1_555 1_555
C12 O7 1_555 1_555
C13 C12 1_555 1_555
C14 C13 1_555 1_555
C15 C14 1_555 1_555
C16 C15 1_555 1_555
C17 C16 1_555 1_555
C18 C13 1_555 1_555
C19 C7 1_555 1_555
C20 O5 1_555 1_555
C21 C20 1_555 1_555
C22 C21 1_555 1_555
C23 C22 1_555 1_555
C24 C23 1_555 1_555
C25 C24 1_555 1_555
C26 C21 1_555 1_555
O6 C20 1_555 1_555
O8 C12 1_555 1_555
C9 C10 1_555 1_555
C17 C18 1_555 1_555
C25 C26 1_555 1_555

#END
