
#######################################################################
#
#                 Cambridge Crystallographic Data Centre
#                                CCDC 
#
#######################################################################
#
# If this CIF has been generated from an entry in the Cambridge 
# Structural Database, then it will include bibliographic, chemical, 
# crystal, experimental, refinement or atomic coordinate data resulting 
# from the CCDC's data processing and validation procedures.
#
#######################################################################

data_NAMXEE
_chemical_formula_moiety         'C19 H24 O4'
_chemical_name_systematic        
'(1RS,2RS,6SR,8SR,9SR)-1-Methyl-11-(1-oxoethyl)tetracyclo(7.2.2.1^2,6^.0^2,8^)tetradec-10-ene-5,13-dione-5,5-ethylene acetal'
_symmetry_cell_setting           triclinic
_symmetry_space_group_name_H-M   'P -1'
_symmetry_Int_Tables_number      2
_space_group_name_Hall           '-P 1'
loop_
_symmetry_equiv_pos_site_id
_symmetry_equiv_pos_as_xyz
1 x,y,z
2 -x,-y,-z
_cell_length_a                   8.092(1)
_cell_length_b                   13.433(2)
_cell_length_c                   7.577(1)
_cell_angle_alpha                102.35(1)
_cell_angle_beta                 92.10
_cell_angle_gamma                77.53(1)
_cell_volume                     785.54
_chemical_melting_point          144-145deg.C
_cell_formula_units_Z            2
_exptl_crystal_recrystallization_method 'di-isopropyl ether'
loop_
_atom_site_label
_atom_site_type_symbol
_atom_site_fract_x
_atom_site_fract_y
_atom_site_fract_z
C1 C 0.2916(3) 0.2342(2) 0.4627(4)
C2 C 0.1426(3) 0.1838(2) 0.3761(4)
C3 C 0.1962(4) 0.1271(2) 0.1806(4)
C4 C 0.2308(4) 0.1899(3) 0.0797(4)
C5 C 0.2256(4) 0.3007(2) 0.1712(4)
C6 C 0.3546(4) 0.2923(2) 0.3274(4)
C7 C 0.3903(5) 0.3938(3) 0.4435(4)
C8 C 0.3850(4) 0.3804(2) 0.6380(4)
C9 C 0.5507(4) 0.3140(2) 0.6937(4)
C10 C 0.5949(4) 0.2056(3) 0.5686(4)
C11 C 0.4424(4) 0.1558(2) 0.5148(4)
C12 C 0.7346(6) 0.3989(4) 0.8741(6)
C13 C 0.6771(6) 0.3251(4) 0.9700(5)
C14 C -0.0086(4) 0.2732(3) 0.3523(5)
C15 C 0.0495(4) 0.3456(3) 0.2534(4)
C16 C 0.2430(4) 0.3221(2) 0.6326(4)
C17 C 0.0857(5) 0.1193(3) 0.4954(5)
C18 C 0.1995(4) 0.0153(3) 0.1018(5)
C19 C 0.2752(7) -0.0315(4) -0.0831(6)
O1 O 0.1358(6) -0.0378(2) 0.1793(5)
O2 O 0.6873(3) 0.3638(2) 0.6929(3)
O3 O 0.5292(3) 0.3053(2) 0.8760(3)
O4 O -0.0337(4) 0.4299(2) 0.2390(4)
H1 H 0.276(5) 0.167(3) -0.049(6)
H2 H 0.231(5) 0.349(4) 0.089(6)
H3 H 0.469(6) 0.250(4) 0.273(6)
H4 H 0.302(5) 0.458(4) 0.437(6)
H5 H 0.505(6) 0.409(4) 0.414(6)
H6 H 0.365(6) 0.449(4) 0.715(6)
H7 H 0.674(5) 0.163(4) 0.651(6)
H8 H 0.637(6) 0.213(3) 0.446(6)
H9 H 0.398(5) 0.126(3) 0.602(6)
H10 H 0.473(5) 0.092(4) 0.424(6)
H11 H 0.870(6) 0.370(4) 0.868(6)
H12 H 0.640(6) 0.470(4) 0.916(6)
H13 H 0.636(6) 0.367(4) 1.091(6)
H14 H 0.767(6) 0.258(4) 0.927(6)
H15 H -0.045(5) 0.321(4) 0.471(6)
H16 H -0.096(6) 0.245(4) 0.270(6)
H17 H 0.247(5) 0.295(4) 0.744(6)
H18 H 0.142(6) 0.363(4) 0.629(6)
H19 H 0.188(6) 0.076(4) 0.557(6)
H20 H 0.025(5) 0.065(4) 0.423(6)
H21 H 0.013(6) 0.164(4) 0.596(6)
H22 H 0.245(5) 0.015(4) -0.162(6)
H23 H 0.220(6) -0.095(4) -0.147(6)
H24 H 0.408(6) -0.060(4) -0.071(6)
loop_
_geom_bond_atom_site_label_1
_geom_bond_atom_site_label_2
_geom_bond_site_symmetry_1
_geom_bond_site_symmetry_2
C1 C2 1_555 1_555
C2 C3 1_555 1_555
C3 C4 1_555 1_555
C4 C5 1_555 1_555
C5 C6 1_555 1_555
C6 C1 1_555 1_555
C7 C6 1_555 1_555
C8 C7 1_555 1_555
C9 C8 1_555 1_555
C10 C9 1_555 1_555
C11 C1 1_555 1_555
C12 C13 1_555 1_555
C13 O3 1_555 1_555
C14 C2 1_555 1_555
C15 C5 1_555 1_555
C16 C1 1_555 1_555
C17 C2 1_555 1_555
C18 C3 1_555 1_555
C19 C18 1_555 1_555
O1 C18 1_555 1_555
O2 C9 1_555 1_555
O3 C9 1_555 1_555
O4 C15 1_555 1_555
H1 C4 1_555 1_555
H2 C5 1_555 1_555
H3 C6 1_555 1_555
H4 C7 1_555 1_555
H5 C7 1_555 1_555
H6 C8 1_555 1_555
H7 C10 1_555 1_555
H8 C10 1_555 1_555
H9 C11 1_555 1_555
H10 C11 1_555 1_555
H11 C12 1_555 1_555
H12 C12 1_555 1_555
H13 C13 1_555 1_555
H14 C13 1_555 1_555
H15 C14 1_555 1_555
H16 C14 1_555 1_555
H17 C16 1_555 1_555
H18 C16 1_555 1_555
H19 C17 1_555 1_555
H20 C17 1_555 1_555
H21 C17 1_555 1_555
H22 C19 1_555 1_555
H23 C19 1_555 1_555
H24 C19 1_555 1_555
C8 C16 1_555 1_555
C10 C11 1_555 1_555
C12 O2 1_555 1_555
C14 C15 1_555 1_555

#END
