
#######################################################################
#
#                 Cambridge Crystallographic Data Centre
#                                CCDC 
#
#######################################################################
#
# If this CIF has been generated from an entry in the Cambridge 
# Structural Database, then it will include bibliographic, chemical, 
# crystal, experimental, refinement or atomic coordinate data resulting 
# from the CCDC's data processing and validation procedures.
#
#######################################################################

data_NAMXOO
_chemical_formula_moiety         'C13 H16 O6 S1'
_chemical_name_systematic        1,4:3,6-Dianhydro-2-O-p-tosyl-D-mannitol
_symmetry_cell_setting           orthorhombic
_symmetry_space_group_name_H-M   'P 21 21 21'
_symmetry_Int_Tables_number      19
_space_group_name_Hall           'P 2ac 2ab'
loop_
_symmetry_equiv_pos_site_id
_symmetry_equiv_pos_as_xyz
1 x,y,z
2 1/2-x,-y,1/2+z
3 1/2+x,1/2-y,-z
4 -x,1/2+y,1/2-z
_cell_length_a                   6.064(2)
_cell_length_b                   8.347(1)
_cell_length_c                   26.455(16)
_cell_angle_alpha                90
_cell_angle_beta                 90
_cell_angle_gamma                90
_cell_volume                     1339.05
_exptl_crystal_colour            colorless
_chemical_melting_point          101-103deg.C
_cell_formula_units_Z            4
_exptl_crystal_recrystallization_method ethanol
loop_
_atom_site_label
_atom_site_type_symbol
_atom_site_fract_x
_atom_site_fract_y
_atom_site_fract_z
S1 S 0.7111(2) 0.4355(1) 0.6322(1)
O1 O 0.5358(4) 0.1936(3) 0.7844(1)
O2 O 0.9417(4) 0.4362(3) 0.7830(1)
O3 O 0.5639(11) 0.3757(9) 0.8558(4)
O4 O 0.8210(3) 0.4149(2) 0.6859(1)
O5 O 0.7899(4) 0.5877(3) 0.6157(1)
O6 O 0.4816(4) 0.4074(3) 0.6353(1)
C1 C 0.5256(6) 0.2928(5) 0.7407(2)
C2 C 0.7564(6) 0.2810(4) 0.7176(1)
C3 C 0.9023(6) 0.2781(4) 0.7652(2)
C4 C 0.7577(6) 0.1946(4) 0.8040(2)
C5 C 0.7717(7) 0.3052(5) 0.8509(1)
C6 C 0.9394(22) 0.4140(12) 0.8320(3)
C7 C 0.8260(5) 0.2835(4) 0.5948(1)
C8 C 1.0370(5) 0.3042(4) 0.5730(1)
C9 C 1.1225(6) 0.1835(4) 0.5450(1)
C10 C 1.0135(6) 0.0398(5) 0.5371(1)
C11 C 0.8070(6) 0.0211(4) 0.5585(2)
C12 C 0.7137(6) 0.1420(4) 0.5868(1)
C13 C 1.1171(8) -0.0958(5) 0.5075(2)
H1 H 0.4993(50) 0.4098(23) 0.7473(11)
H2 H 0.4157(43) 0.2356(32) 0.7206(10)
H3 H 0.7561(50) 0.1723(25) 0.6978(10)
H4 H 1.0407(37) 0.2193(32) 0.7598(12)
H5 H 0.4605(65) 0.2910(71) 0.8691(24)
H6 H 0.7744(48) 0.0791(22) 0.8128(10)
H7 H 0.892(10) 0.2797(80) 0.8724(29)
H8 H 0.932(12) 0.5157(54) 0.8517(25)
H9 H 1.0751(69) 0.3702(73) 0.8473(23)
H10 H 1.1120(48) 0.4087(26) 0.5805(11)
H11 H 1.2683(38) 0.2233(35) 0.5321(11)
H12 H 0.7222(47) -0.0779(26) 0.5525(11)
H13 H 0.5656(35) 0.1374(33) 0.6039(11)
H14 H 1.0289(78) -0.1190(55) 0.4758(13)
H15 H 1.1575(80) -0.1822(43) 0.5318(15)
H16 H 1.2622(49) -0.0496(54) 0.4989(18)
O7? O 0.5982(9) 0.3114(8) 0.8883(3)
C14? C 0.8086(18) 0.4758(11) 0.8281(3)
H17? H 0.516(10) 0.2760(48) 0.8391(24)
H18? H 0.792(13) 0.2301(81) 0.8755(29)
H19? H 0.6707(59) 0.5235(62) 0.8154(21)
H20? H 0.8576(94) 0.5599(55) 0.8524(20)
loop_
_geom_bond_atom_site_label_1
_geom_bond_atom_site_label_2
_geom_bond_site_symmetry_1
_geom_bond_site_symmetry_2
S1 O4 1_555 1_555
O1 C1 1_555 1_555
O2 C3 1_555 1_555
O3 C5 1_555 1_555
O4 C2 1_555 1_555
O5 S1 1_555 1_555
O6 S1 1_555 1_555
C1 C2 1_555 1_555
C2 C3 1_555 1_555
C3 C4 1_555 1_555
C4 O1 1_555 1_555
C5 C4 1_555 1_555
C6 O2 1_555 1_555
C7 S1 1_555 1_555
C8 C7 1_555 1_555
C9 C8 1_555 1_555
C10 C9 1_555 1_555
C11 C10 1_555 1_555
C12 C7 1_555 1_555
C13 C10 1_555 1_555
H1 C1 1_555 1_555
H2 C1 1_555 1_555
H3 C2 1_555 1_555
H4 C3 1_555 1_555
H5 O3 1_555 1_555
H6 C4 1_555 1_555
H7 C5 1_555 1_555
H8 C6 1_555 1_555
H9 C6 1_555 1_555
H10 C8 1_555 1_555
H11 C9 1_555 1_555
H12 C11 1_555 1_555
H13 C12 1_555 1_555
H14 C13 1_555 1_555
H15 C13 1_555 1_555
H16 C13 1_555 1_555
C5 C6 1_555 1_555
C11 C12 1_555 1_555

#END
