
#######################################################################
#
#                 Cambridge Crystallographic Data Centre
#                                CCDC 
#
#######################################################################
#
# If this CIF has been generated from an entry in the Cambridge 
# Structural Database, then it will include bibliographic, chemical, 
# crystal, experimental, refinement or atomic coordinate data resulting 
# from the CCDC's data processing and validation procedures.
#
#######################################################################

data_NAMYUY
_chemical_formula_moiety         'C28 H37 Cl1 O12'
_chemical_name_systematic        
"4-chloro-13a-hydroxy-1,8a-dimethyl-5-methylene-2-oxotetradecahydro-2H-spiro[benzo[4,5]cyclodeca[1,2-b]furan-12,2'-oxirane]-6,8,9,13-tetrayl tetraacetate"
_symmetry_cell_setting           monoclinic
_symmetry_space_group_name_H-M   'P 21'
_symmetry_Int_Tables_number      4
_space_group_name_Hall           'P 2yb'
loop_
_symmetry_equiv_pos_site_id
_symmetry_equiv_pos_as_xyz
1 x,y,z
2 -x,1/2+y,-z
_cell_length_a                   11.30061(5)
_cell_length_b                   10.06767(5)
_cell_length_c                   13.32199(7)
_cell_angle_alpha                90
_cell_angle_beta                 95.8847(5)
_cell_angle_gamma                90
_cell_volume                     1507.67
_exptl_crystal_colour            'light colorless'
_exptl_crystal_description       plate
_cell_formula_units_Z            2
loop_
_atom_site_label
_atom_site_type_symbol
_atom_site_fract_x
_atom_site_fract_y
_atom_site_fract_z
Cl1 Cl 0.14104(7) 0.47020(7) 0.59730(5)
O1 O 0.40125(13) 0.80756(14) 0.22691(12)
O2 O 0.58120(14) 0.71642(18) 0.26964(13)
O3 O 0.32359(13) 0.76869(16) 0.51473(12)
O4 O 0.50524(14) 0.74614(18) 0.59949(13)
O5 O 0.21165(18) 0.25657(18) 0.45756(14)
O6 O 0.32295(12) 0.41037(14) 0.30294(11)
H1 H 0.3667 0.3572 0.3383
O7 O 0.05595(13) 0.55044(17) 0.26494(14)
O8 O -0.10711(17) 0.4227(2) 0.2393(2)
O9 O 0.05697(18) 0.3782(2) 0.02039(16)
O10 O 0.42617(14) 0.59041(15) 0.07086(12)
O11 O 0.54179(18) 0.7393(2) 0.00093(16)
O12 O 0.2654(2) 0.05426(19) 0.41013(17)
C1 C 0.25117(19) 0.6599(2) 0.14757(17)
C2 C 0.33823(18) 0.6836(2) 0.24539(16)
H2 H 0.3960 0.6084 0.2558
C3 C 0.28040(18) 0.7102(2) 0.34199(17)
H3 H 0.2031 0.6631 0.3373
H4 H 0.2636 0.8064 0.3457
C4 C 0.35311(19) 0.6685(2) 0.44036(16)
H5 H 0.4399 0.6730 0.4318
C5 C 0.3246(2) 0.5357(2) 0.48551(17)
C6 C 0.1943(2) 0.4964(2) 0.47480(18)
H6 H 0.1488 0.5735 0.4430
C7 C 0.1603(2) 0.3747(2) 0.40888(19)
H7 H 0.0718 0.3655 0.4018
C8 C 0.20354(19) 0.3706(2) 0.30196(17)
C9 C 0.12766(18) 0.4517(2) 0.21980(18)
H8 H 0.0706 0.3876 0.1837
C10 C 0.19962(19) 0.5131(2) 0.13884(17)
H9 H 0.2713 0.4548 0.1383
C11 C 0.1313(2) 0.4951(3) 0.03332(19)
C12 C 0.2064(3) 0.5154(3) -0.0523(2)
H10 H 0.1571 0.5032 -0.1175
H11 H 0.2713 0.4489 -0.0481
C13 C 0.2592(3) 0.6553(3) -0.0469(2)
H12 H 0.3149 0.6653 -0.0990
H13 H 0.1947 0.7213 -0.0607
C14 C 0.3246(2) 0.6812(2) 0.05674(18)
H14 H 0.3551 0.7745 0.0587
C15 C 0.1536(2) 0.7668(2) 0.1393(2)
H15 H 0.0958 0.7475 0.0812
H16 H 0.1896 0.8540 0.1304
H17 H 0.1133 0.7670 0.2010
C16 C 0.4080(2) 0.4624(3) 0.53550(18)
H18 H 0.4880 0.4927 0.5438
H19 H 0.3879 0.3794 0.5632
C17 C 0.1925(2) 0.2191(2) 0.28303(19)
H20 H 0.1063 0.1986 0.2651
C18 C 0.2608(3) 0.1620(3) 0.2004(2)
H21 H 0.2259 0.1945 0.1346
H22 H 0.2562 0.0648 0.2018
H23 H 0.3442 0.1897 0.2116
C19 C 0.2282(3) 0.1625(3) 0.3869(2)
C20 C 0.0020(3) 0.5082(3) 0.0148(3)
H24 H -0.0418 0.5364 0.0719
H25 H -0.0317 0.5405 -0.0523
C21 C 0.5208(2) 0.8097(2) 0.24043(16)
C22 C 0.5657(2) 0.9435(3) 0.2130(2)
H26 H 0.5528 0.9553 0.1397
H27 H 0.6510 0.9499 0.2351
H28 H 0.5228 1.0127 0.2462
C23 C 0.4073(2) 0.7969(2) 0.59032(18)
C24 C 0.3662(3) 0.9019(4) 0.6577(3)
H29 H 0.3606 0.9869 0.6218
H30 H 0.4230 0.9098 0.7181
H31 H 0.2878 0.8778 0.6776
C25 C -0.0610(2) 0.5237(3) 0.2698(3)
C26 C -0.1192(3) 0.6371(5) 0.3172(5)
H32 H -0.1187 0.6209 0.3898
H33 H -0.2016 0.6456 0.2867
H34 H -0.0758 0.7192 0.3063
C27 C 0.5299(2) 0.6328(3) 0.03959(18)
C28 C 0.6251(2) 0.5317(3) 0.0617(2)
H35 H 0.6655 0.5470 0.1293
H36 H 0.6827 0.5387 0.0118
H37 H 0.5897 0.4427 0.0585
loop_
_geom_bond_atom_site_label_1
_geom_bond_atom_site_label_2
_geom_bond_site_symmetry_1
_geom_bond_site_symmetry_2
Cl1 C6 1_555 1_555
O1 C2 1_555 1_555
O2 C21 1_555 1_555
O3 C4 1_555 1_555
O4 C23 1_555 1_555
O5 C7 1_555 1_555
O6 H1 1_555 1_555
O7 C9 1_555 1_555
O8 C25 1_555 1_555
O9 C11 1_555 1_555
O10 C14 1_555 1_555
O11 C27 1_555 1_555
O12 C19 1_555 1_555
C1 C2 1_555 1_555
C2 H2 1_555 1_555
C3 C2 1_555 1_555
H3 C3 1_555 1_555
H4 C3 1_555 1_555
C4 C3 1_555 1_555
H5 C4 1_555 1_555
C5 C4 1_555 1_555
C6 C5 1_555 1_555
H6 C6 1_555 1_555
C7 C6 1_555 1_555
H7 C7 1_555 1_555
C8 O6 1_555 1_555
C9 C8 1_555 1_555
H8 C9 1_555 1_555
C10 C1 1_555 1_555
H9 C10 1_555 1_555
C11 C10 1_555 1_555
C12 C11 1_555 1_555
H10 C12 1_555 1_555
H11 C12 1_555 1_555
C13 C12 1_555 1_555
H12 C13 1_555 1_555
H13 C13 1_555 1_555
C14 C1 1_555 1_555
H14 C14 1_555 1_555
C15 C1 1_555 1_555
H15 C15 1_555 1_555
H16 C15 1_555 1_555
H17 C15 1_555 1_555
C16 C5 1_555 1_555
H18 C16 1_555 1_555
H19 C16 1_555 1_555
C17 C8 1_555 1_555
H20 C17 1_555 1_555
C18 C17 1_555 1_555
H21 C18 1_555 1_555
H22 C18 1_555 1_555
H23 C18 1_555 1_555
C19 O5 1_555 1_555
C20 O9 1_555 1_555
H24 C20 1_555 1_555
H25 C20 1_555 1_555
C21 O1 1_555 1_555
C22 C21 1_555 1_555
H26 C22 1_555 1_555
H27 C22 1_555 1_555
H28 C22 1_555 1_555
C23 O3 1_555 1_555
C24 C23 1_555 1_555
H29 C24 1_555 1_555
H30 C24 1_555 1_555
H31 C24 1_555 1_555
C25 O7 1_555 1_555
C26 C25 1_555 1_555
H32 C26 1_555 1_555
H33 C26 1_555 1_555
H34 C26 1_555 1_555
C27 O10 1_555 1_555
C28 C27 1_555 1_555
H35 C28 1_555 1_555
H36 C28 1_555 1_555
H37 C28 1_555 1_555
C7 C8 1_555 1_555
C9 C10 1_555 1_555
C11 C20 1_555 1_555
C13 C14 1_555 1_555
C17 C19 1_555 1_555

#END
