
#######################################################################
#
#                 Cambridge Crystallographic Data Centre
#                                CCDC 
#
#######################################################################
#
# If this CIF has been generated from an entry in the Cambridge 
# Structural Database, then it will include bibliographic, chemical, 
# crystal, experimental, refinement or atomic coordinate data resulting 
# from the CCDC's data processing and validation procedures.
#
#######################################################################

data_NAMYIM
_chemical_formula_moiety         'C13 H19 Cl1 O5'
_chemical_name_systematic        
3-chloro-1-methoxy-1-(2,4,5-trimethoxyphenyl)propan-2-ol
_symmetry_cell_setting           monoclinic
_symmetry_space_group_name_H-M   'C 2/c'
_symmetry_Int_Tables_number      15
_space_group_name_Hall           '-C 2yn'
loop_
_symmetry_equiv_pos_site_id
_symmetry_equiv_pos_as_xyz
1 x,y,z
2 -x,y,1/2-z
3 1/2+x,1/2+y,z
4 1/2-x,1/2+y,1/2-z
5 -x,-y,-z
6 x,-y,1/2+z
7 1/2-x,1/2-y,-z
8 1/2+x,1/2-y,1/2+z
_cell_length_a                   8.9749(18)
_cell_length_b                   14.277(3)
_cell_length_c                   22.701(5)
_cell_angle_alpha                90
_cell_angle_beta                 93.421(3)
_cell_angle_gamma                90
_cell_volume                     2903.6
_exptl_crystal_colour            colorless
_exptl_crystal_description       block
_cell_formula_units_Z            8
loop_
_atom_site_label
_atom_site_type_symbol
_atom_site_fract_x
_atom_site_fract_y
_atom_site_fract_z
Cl1 Cl 1.51852(10) 0.86564(8) 0.33744(5)
O1 O 0.6864(2) 1.04357(15) 0.49734(9)
O2 O 1.2411(3) 0.98275(14) 0.36467(9)
H1 H 1.2256 1.0008 0.3980
O3 O 0.8754(3) 0.99765(17) 0.30308(9)
O4 O 0.8394(3) 0.90359(15) 0.53779(8)
O5 O 1.0606(2) 0.75613(13) 0.35143(9)
C1 C 1.3259(3) 0.8501(2) 0.31546(15)
H2 H 1.3030 0.8837 0.2789
H3 H 1.3064 0.7842 0.3082
C2 C 1.2259(3) 0.88488(19) 0.36180(12)
H4 H 1.2580 0.8575 0.4001
C3 C 1.0640(3) 0.85588(19) 0.34530(12)
H5 H 1.0394 0.8722 0.3039
C4 C 0.9556(3) 0.90460(19) 0.38359(11)
C5 C 0.8668(3) 0.9771(2) 0.36212(11)
C6 C 0.7750(3) 1.0260(2) 0.39903(12)
H6 H 0.7175 1.0759 0.3843
C7 C 0.7701(3) 0.9999(2) 0.45727(12)
C8 C 0.5799(5) 1.1102(3) 0.47627(17)
H7 H 0.6302 1.1643 0.4620
H8 H 0.5191 1.1284 0.5077
H9 H 0.5179 1.0833 0.4447
C9 C 0.9475(3) 0.87867(19) 0.44243(11)
H10 H 1.0058 0.8292 0.4572
C10 C 0.8558(3) 0.92437(18) 0.47908(11)
C11 C 0.7922(6) 1.0720(3) 0.27851(16)
H11 H 0.6884 1.0621 0.2844
H12 H 0.8067 1.0756 0.2370
H13 H 0.8244 1.1294 0.2972
C12 C 0.9110(4) 0.8222(2) 0.56124(13)
H14 H 0.8702 0.7678 0.5412
H15 H 0.8953 0.8176 0.6026
H16 H 1.0161 0.8259 0.5558
C13 C 0.9244(4) 0.7164(3) 0.32915(16)
H17 H 0.8444 0.7389 0.3516
H18 H 0.9300 0.6494 0.3323
H19 H 0.9063 0.7337 0.2885
loop_
_geom_bond_atom_site_label_1
_geom_bond_atom_site_label_2
_geom_bond_site_symmetry_1
_geom_bond_site_symmetry_2
Cl1 C1 1_555 1_555
O1 C7 1_555 1_555
O2 H1 1_555 1_555
O3 C5 1_555 1_555
O4 C10 1_555 1_555
O5 C3 1_555 1_555
C1 H2 1_555 1_555
H3 C1 1_555 1_555
C2 O2 1_555 1_555
H4 C2 1_555 1_555
C3 C2 1_555 1_555
H5 C3 1_555 1_555
C4 C3 1_555 1_555
C5 C4 1_555 1_555
C6 C5 1_555 1_555
H6 C6 1_555 1_555
C7 C6 1_555 1_555
C8 O1 1_555 1_555
H7 C8 1_555 1_555
H8 C8 1_555 1_555
H9 C8 1_555 1_555
C9 C4 1_555 1_555
H10 C9 1_555 1_555
C10 C7 1_555 1_555
C11 O3 1_555 1_555
H11 C11 1_555 1_555
H12 C11 1_555 1_555
H13 C11 1_555 1_555
C12 O4 1_555 1_555
H14 C12 1_555 1_555
H15 C12 1_555 1_555
H16 C12 1_555 1_555
C13 O5 1_555 1_555
H17 C13 1_555 1_555
H18 C13 1_555 1_555
H19 C13 1_555 1_555
C1 C2 1_555 1_555
C9 C10 1_555 1_555

#END
