
#######################################################################
#
#                 Cambridge Crystallographic Data Centre
#                                CCDC 
#
#######################################################################
#
# If this CIF has been generated from an entry in the Cambridge 
# Structural Database, then it will include bibliographic, chemical, 
# crystal, experimental, refinement or atomic coordinate data resulting 
# from the CCDC's data processing and validation procedures.
#
#######################################################################

data_NANCAH
_chemical_formula_moiety         'C27 H19 N5 O2 S2'
_chemical_name_systematic        
6-Methoxycarbonyl-3-(2,5-diphenylthiazol-4-yl)-7-phenyl-7H-1,2,4-triazolo(3,4-b)-1,3,4-thiadiazine
_symmetry_cell_setting           monoclinic
_symmetry_space_group_name_H-M   'P 21/n'
_symmetry_Int_Tables_number      14
_space_group_name_Hall           '-P 2yn'
loop_
_symmetry_equiv_pos_site_id
_symmetry_equiv_pos_as_xyz
1 x,y,z
2 1/2-x,1/2+y,1/2-z
3 -x,-y,-z
4 1/2+x,1/2-y,1/2+z
_cell_length_a                   9.022(1)
_cell_length_b                   13.996(1)
_cell_length_c                   19.951(3)
_cell_angle_alpha                90
_cell_angle_beta                 100.73(2)
_cell_angle_gamma                90
_cell_volume                     2475.2
_exptl_crystal_colour            colorless
_exptl_crystal_description       needle
_chemical_melting_point          '199-200 deg.C'
_cell_formula_units_Z            4
_exptl_crystal_recrystallization_method 2-propanol
loop_
_atom_site_label
_atom_site_type_symbol
_atom_site_fract_x
_atom_site_fract_y
_atom_site_fract_z
S1 S 0.7255(3) -0.0050(2) 0.4685(1)
S2 S 1.3295(3) 0.3779(2) 0.5464(1)
O1 O 0.8342(8) 0.0380(6) 0.2685(3)
O2 O 1.0525(7) 0.1047(5) 0.3130(3)
N1 N 0.8575(9) 0.0866(5) 0.5861(4)
N2 N 0.9696(9) 0.1562(6) 0.6036(4)
N3 N 0.9322(8) 0.1368(5) 0.4917(4)
N4 N 0.9743(8) 0.1283(5) 0.4300(3)
N5 N 1.0648(8) 0.3274(5) 0.4897(3)
C1 C 0.838(1) 0.0766(7) 0.5185(4)
C2 C 1.014(1) 0.1853(7) 0.5483(4)
C3 C 0.872(1) 0.0907(7) 0.3829(4)
C4 C 0.713(1) 0.0657(7) 0.3894(4)
C5 C 1.258(1) 0.2749(7) 0.5755(4)
C6 C 1.117(1) 0.2606(7) 0.5403(4)
C7 C 1.165(1) 0.3954(7) 0.4873(5)
C8 C 0.611(1) 0.1499(7) 0.3864(5)
C9 C 0.463(1) 0.1383(8) 0.3922(6)
C10 C 0.366(1) 0.217(1) 0.3854(6)
C11 C 0.412(1) 0.305(1) 0.3722(7)
C12 C 0.558(1) 0.318(1) 0.3675(8)
C13 C 0.659(1) 0.2405(9) 0.3758(7)
C14 C 0.916(1) 0.0752(7) 0.3154(5)
C15 C 1.106(1) 0.091(1) 0.2507(5)
C16 C 1.351(1) 0.2184(7) 0.6311(4)
C17 C 1.305(1) 0.2003(7) 0.6912(5)
C18 C 1.397(1) 0.1508(8) 0.7422(5)
C19 C 1.538(1) 0.1214(8) 0.7344(5)
C20 C 1.584(1) 0.1355(7) 0.6733(5)
C21 C 1.493(1) 0.1854(8) 0.6230(4)
C22 C 1.140(1) 0.4756(7) 0.4418(4)
C23 C 1.003(1) 0.4863(7) 0.3978(5)
C24 C 0.981(1) 0.5624(8) 0.3527(5)
C25 C 1.091(1) 0.6280(7) 0.3506(5)
C26 C 1.226(1) 0.6184(8) 0.3935(6)
C27 C 1.251(1) 0.5420(8) 0.4389(5)
H1 H 0.6706 0.0253 0.3494
H2 H 0.4247 0.0721 0.4050
H3 H 0.2630 0.2046 0.3920
H4 H 0.3312 0.3535 0.3651
H5 H 0.5950 0.3862 0.3620
H6 H 0.7662 0.2483 0.3731
H7 H 1.2030 0.2222 0.6949
H8 H 1.3613 0.1387 0.7851
H9 H 1.6062 0.0887 0.7722
H10 H 1.6820 0.1108 0.6642
H11 H 1.5223 0.1966 0.5776
H12 H 0.9218 0.4374 0.3989
H13 H 0.8801 0.5707 0.3222
H14 H 1.0726 0.6802 0.3170
H15 H 1.3026 0.6672 0.3900
H16 H 1.3488 0.5364 0.4728
H17 H 1.2078 0.1124 0.2515
H18 H 1.1068 0.0223 0.2372
H19 H 1.0437 0.1215 0.2114
loop_
_geom_bond_atom_site_label_1
_geom_bond_atom_site_label_2
_geom_bond_site_symmetry_1
_geom_bond_site_symmetry_2
S1 C1 1_555 1_555
S2 C5 1_555 1_555
O1 C14 1_555 1_555
O2 C14 1_555 1_555
N1 N2 1_555 1_555
N2 C2 1_555 1_555
N3 N4 1_555 1_555
N4 C3 1_555 1_555
N5 C6 1_555 1_555
C1 N1 1_555 1_555
C2 N3 1_555 1_555
C3 C4 1_555 1_555
C4 S1 1_555 1_555
C5 C6 1_555 1_555
C6 C2 1_555 1_555
C7 S2 1_555 1_555
C8 C4 1_555 1_555
C9 C8 1_555 1_555
C10 C9 1_555 1_555
C11 C10 1_555 1_555
C12 C11 1_555 1_555
C13 C8 1_555 1_555
C14 C3 1_555 1_555
C15 O2 1_555 1_555
C16 C5 1_555 1_555
C17 C16 1_555 1_555
C18 C17 1_555 1_555
C19 C18 1_555 1_555
C20 C19 1_555 1_555
C21 C16 1_555 1_555
C22 C7 1_555 1_555
C23 C22 1_555 1_555
C24 C23 1_555 1_555
C25 C24 1_555 1_555
C26 C25 1_555 1_555
C27 C22 1_555 1_555
H1 C4 1_555 1_555
H2 C9 1_555 1_555
H3 C10 1_555 1_555
H4 C11 1_555 1_555
H5 C12 1_555 1_555
H6 C13 1_555 1_555
H7 C17 1_555 1_555
H8 C18 1_555 1_555
H9 C19 1_555 1_555
H10 C20 1_555 1_555
H11 C21 1_555 1_555
H12 C23 1_555 1_555
H13 C24 1_555 1_555
H14 C25 1_555 1_555
H15 C26 1_555 1_555
H16 C27 1_555 1_555
H17 C15 1_555 1_555
H18 C15 1_555 1_555
H19 C15 1_555 1_555
N3 C1 1_555 1_555
N5 C7 1_555 1_555
C12 C13 1_555 1_555
C20 C21 1_555 1_555
C26 C27 1_555 1_555

#END
