
#######################################################################
#
#                 Cambridge Crystallographic Data Centre
#                                CCDC 
#
#######################################################################
#
# If this CIF has been generated from an entry in the Cambridge 
# Structural Database, then it will include bibliographic, chemical, 
# crystal, experimental, refinement or atomic coordinate data resulting 
# from the CCDC's data processing and validation procedures.
#
#######################################################################

data_NANJAN
_chemical_formula_moiety         'C20 H19 N1 O5'
_chemical_name_systematic        
"((2'S,4'R)-3'-Acetyl-4'-benzyl-5'-oxo-2'-phenyloxazolidin-4'-yl)acetic acid"
_symmetry_cell_setting           orthorhombic
_symmetry_space_group_name_H-M   'P 21 21 21'
_symmetry_Int_Tables_number      19
_space_group_name_Hall           'P 2ac 2ab'
loop_
_symmetry_equiv_pos_site_id
_symmetry_equiv_pos_as_xyz
1 x,y,z
2 1/2-x,-y,1/2+z
3 1/2+x,1/2-y,-z
4 -x,1/2+y,1/2-z
_cell_length_a                   7.3920(10)
_cell_length_b                   15.1810(10)
_cell_length_c                   15.7410(10)
_cell_angle_alpha                90
_cell_angle_beta                 90
_cell_angle_gamma                90
_cell_volume                     1766.42
_exptl_crystal_colour            colorless
_exptl_crystal_description       block
_chemical_melting_point          228-229deg.C
_cell_formula_units_Z            4
loop_
_atom_site_label
_atom_site_type_symbol
_atom_site_fract_x
_atom_site_fract_y
_atom_site_fract_z
O1 O -0.5334(2) -0.4945(1) 0.0053(1)
O2 O -0.4109(2) -0.4699(1) 0.1325(1)
O3 O -0.0291(2) -0.6143(1) -0.1057(1)
O4 O -0.4866(2) -0.6794(1) 0.0570(1)
O5 O -0.2807(2) -0.7632(1) 0.1209(1)
N1 N -0.2941(2) -0.5576(1) -0.0639(1)
C1 C -0.4901(2) -0.5396(1) -0.0728(1)
C2 C -0.2308(2) -0.5410(1) 0.0230(1)
C3 C -0.3974(2) -0.4986(1) 0.0617(1)
C4 C -0.0689(2) -0.4764(1) 0.0296(1)
C5 C -0.1903(2) -0.6004(1) -0.1214(1)
C6 C -0.2747(3) -0.6294(1) -0.2030(1)
C7 C -0.1827(2) -0.6253(1) 0.0722(1)
C8 C -0.3341(2) -0.6909(1) 0.0809(1)
C9 C -0.5463(2) -0.4817(1) -0.1460(1)
C10 C -0.6611(2) -0.5146(1) -0.2077(1)
C11 C -0.7190(2) -0.4617(1) -0.2741(1)
C12 C -0.6635(2) -0.3750(1) -0.2781(1)
C13 C -0.5492(3) -0.3417(1) -0.2164(1)
C14 C -0.4908(2) -0.3943(1) -0.1502(1)
C15 C -0.0888(2) -0.3916(1) -0.0195(1)
C16 C -0.0312(2) -0.3864(1) -0.1035(1)
C17 C -0.0488(3) -0.3086(1) -0.1487(1)
C18 C -0.1237(2) -0.2352(1) -0.1109(1)
C19 C -0.1806(3) -0.2391(1) -0.0274(1)
C20 C -0.1635(2) -0.3167(1) 0.0177(1)
H1 H -0.3658(9) -0.7999(5) 0.1217(12)
H2 H -0.5579(2) -0.5965(1) -0.0754(1)
H3 H -0.0500(2) -0.4617(1) 0.0902(1)
H4 H 0.0412(2) -0.5070(1) 0.0094(1)
H5 H -0.2901(15) -0.5783(2) -0.2405(3)
H6 H -0.3931(7) -0.6559(7) -0.1914(1)
H7 H -0.1964(8) -0.6728(6) -0.2307(4)
H8 H -0.0799(2) -0.6544(1) 0.0433(1)
H9 H -0.1414(2) -0.6084(1) 0.1298(1)
H10 H -0.7005(2) -0.5741(1) -0.2046(1)
H11 H -0.7965(2) -0.4850(1) -0.3167(1)
H12 H -0.7039(2) -0.3382(1) -0.3230(1)
H13 H -0.5103(3) -0.2822(1) -0.2197(1)
H14 H -0.4132(2) -0.3708(1) -0.1077(1)
H15 H 0.0207(2) -0.4366(1) -0.1300(1)
H16 H -0.0091(3) -0.3058(1) -0.2061(1)
H17 H -0.1361(2) -0.1821(1) -0.1423(1)
H18 H -0.2314(3) -0.1885(1) -0.0011(1)
H19 H -0.2034(2) -0.3191(1) 0.0750(1)
loop_
_geom_bond_atom_site_label_1
_geom_bond_atom_site_label_2
_geom_bond_site_symmetry_1
_geom_bond_site_symmetry_2
O1 C1 1_555 1_555
O2 C3 1_555 1_555
O3 C5 1_555 1_555
O4 C8 1_555 1_555
O5 C8 1_555 1_555
N1 C1 1_555 1_555
C1 C9 1_555 1_555
C2 N1 1_555 1_555
C3 O1 1_555 1_555
C4 C2 1_555 1_555
C5 N1 1_555 1_555
C6 C5 1_555 1_555
C7 C2 1_555 1_555
C8 C7 1_555 1_555
C9 C10 1_555 1_555
C10 C11 1_555 1_555
C11 C12 1_555 1_555
C12 C13 1_555 1_555
C13 C14 1_555 1_555
C14 C9 1_555 1_555
C15 C4 1_555 1_555
C16 C15 1_555 1_555
C17 C16 1_555 1_555
C18 C17 1_555 1_555
C19 C18 1_555 1_555
C20 C15 1_555 1_555
H1 O5 1_555 1_555
H2 C1 1_555 1_555
H3 C4 1_555 1_555
H4 C4 1_555 1_555
H5 C6 1_555 1_555
H6 C6 1_555 1_555
H7 C6 1_555 1_555
H8 C7 1_555 1_555
H9 C7 1_555 1_555
H10 C10 1_555 1_555
H11 C11 1_555 1_555
H12 C12 1_555 1_555
H13 C13 1_555 1_555
H14 C14 1_555 1_555
H15 C16 1_555 1_555
H16 C17 1_555 1_555
H17 C18 1_555 1_555
H18 C19 1_555 1_555
H19 C20 1_555 1_555
C2 C3 1_555 1_555
C19 C20 1_555 1_555

#END
