
#######################################################################
#
#                 Cambridge Crystallographic Data Centre
#                                CCDC 
#
#######################################################################
#
# If this CIF has been generated from an entry in the Cambridge 
# Structural Database, then it will include bibliographic, chemical, 
# crystal, experimental, refinement or atomic coordinate data resulting 
# from the CCDC's data processing and validation procedures.
#
#######################################################################

data_NANNUN
_chemical_formula_moiety         'C14 H23 N2 O3 1+,Cl1 1-'
_chemical_name_systematic        
'4-(2,3,4-Trimethoxybenzyl)piperazin-1-ium chloride'
_symmetry_cell_setting           monoclinic
_symmetry_space_group_name_H-M   'P 21/c'
_symmetry_Int_Tables_number      14
_space_group_name_Hall           '-P 2ybc'
loop_
_symmetry_equiv_pos_site_id
_symmetry_equiv_pos_as_xyz
1 x,y,z
2 -x,1/2+y,1/2-z
3 -x,-y,-z
4 x,1/2-y,1/2+z
_cell_length_a                   21.548(1)
_cell_length_b                   7.6273(3)
_cell_length_c                   9.5982(5)
_cell_angle_alpha                90
_cell_angle_beta                 100.651(2)
_cell_angle_gamma                90
_cell_volume                     1550.32
_exptl_crystal_colour            colorless
_exptl_crystal_description       plate
_chemical_melting_point          '453 K'
_cell_formula_units_Z            4
loop_
_atom_site_label
_atom_site_type_symbol
_atom_site_fract_x
_atom_site_fract_y
_atom_site_fract_z
Cl1 Cl -0.43153(4) 0.41599(11) -0.19008(11)
O1 O -0.94355(11) 0.0431(3) -0.2374(2)
O2 O -0.78220(11) 0.0361(3) -0.5123(2)
O3 O -0.86952(11) -0.1363(3) -0.3829(2)
N1 N -0.69520(13) 0.3859(3) -0.4195(3)
N2 N -0.57113(13) 0.5073(3) -0.2963(3)
H1 H -0.5758 0.6245 -0.2975
H2 H -0.5308 0.4825 -0.2578
C1 C -0.89856(16) 0.1367(4) -0.2906(3)
C2 C -0.76130(16) 0.4070(4) -0.4877(4)
H3 H -0.7663 0.3653 -0.5846
H4 H -0.7715 0.5310 -0.4913
C3 C -0.80799(16) 0.3115(4) -0.4150(3)
C4 C -0.86163(16) 0.0432(4) -0.3697(4)
C5 C -0.81697(16) 0.1305(4) -0.4308(3)
C6 C -0.61385(16) 0.4277(5) -0.2084(4)
H5 H -0.6056 0.4790 -0.1143
H6 H -0.6060 0.3027 -0.1991
C7 C -0.97943(17) 0.1370(5) -0.1515(4)
H7 H -1.0091 0.0591 -0.1202
H8 H -1.0018 0.2307 -0.2057
H9 H -0.9516 0.1846 -0.0706
C8 C -0.84426(16) 0.4006(4) -0.3337(3)
H10 H -0.8386 0.5208 -0.3207
C9 C -0.88881(16) 0.3160(4) -0.2710(3)
H11 H -0.9122 0.3789 -0.2157
C10 C -0.65424(15) 0.4689(4) -0.5054(4)
H12 H -0.6627 0.5939 -0.5111
H13 H -0.6636 0.4216 -0.6008
C11 C -0.68181(16) 0.4594(4) -0.2768(3)
H14 H -0.7094 0.4059 -0.2197
H15 H -0.6902 0.5844 -0.2812
C12 C -0.72831(18) -0.0502(5) -0.4299(4)
H16 H -0.7062 -0.1137 -0.4919
H17 H -0.7421 -0.1302 -0.3647
H18 H -0.7007 0.0356 -0.3781
C13 C -0.58547(16) 0.4391(4) -0.4438(4)
H19 H -0.5761 0.3147 -0.4440
H20 H -0.5594 0.4985 -0.5012
C14 C -0.90326(18) -0.1900(4) -0.5195(4)
H21 H -0.9073 -0.3153 -0.5218
H22 H -0.8805 -0.1529 -0.5914
H23 H -0.9445 -0.1375 -0.5366
loop_
_geom_bond_atom_site_label_1
_geom_bond_atom_site_label_2
_geom_bond_site_symmetry_1
_geom_bond_site_symmetry_2
O1 C1 1_555 1_555
O2 C5 1_555 1_555
O3 C4 1_555 1_555
N1 C2 1_555 1_555
N2 H1 1_555 1_555
H2 N2 1_555 1_555
C1 C4 1_555 1_555
C2 H3 1_555 1_555
H4 C2 1_555 1_555
C3 C2 1_555 1_555
C4 C5 1_555 1_555
C5 C3 1_555 1_555
C6 N2 1_555 1_555
H5 C6 1_555 1_555
H6 C6 1_555 1_555
C7 O1 1_555 1_555
H7 C7 1_555 1_555
H8 C7 1_555 1_555
H9 C7 1_555 1_555
C8 C3 1_555 1_555
H10 C8 1_555 1_555
C9 C1 1_555 1_555
H11 C9 1_555 1_555
C10 N1 1_555 1_555
H12 C10 1_555 1_555
H13 C10 1_555 1_555
C11 N1 1_555 1_555
H14 C11 1_555 1_555
H15 C11 1_555 1_555
C12 O2 1_555 1_555
H16 C12 1_555 1_555
H17 C12 1_555 1_555
H18 C12 1_555 1_555
C13 N2 1_555 1_555
H19 C13 1_555 1_555
H20 C13 1_555 1_555
C14 O3 1_555 1_555
H21 C14 1_555 1_555
H22 C14 1_555 1_555
H23 C14 1_555 1_555
C6 C11 1_555 1_555
C8 C9 1_555 1_555
C10 C13 1_555 1_555

#END
