
#######################################################################
#
#                 Cambridge Crystallographic Data Centre
#                                CCDC 
#
#######################################################################
#
# If this CIF has been generated from an entry in the Cambridge 
# Structural Database, then it will include bibliographic, chemical, 
# crystal, experimental, refinement or atomic coordinate data resulting 
# from the CCDC's data processing and validation procedures.
#
#######################################################################

data_NANPOI
_chemical_formula_moiety         'C8 H6 O4,C12 H8 N4 O1'
_chemical_name_systematic        
'Phthalic acid 2,5-bis(pyrid-3-yl)-1,3,4-oxadiazole'
_symmetry_cell_setting           orthorhombic
_symmetry_space_group_name_H-M   'P n n a'
_symmetry_Int_Tables_number      52
_space_group_name_Hall           '-P 2a 2bc'
loop_
_symmetry_equiv_pos_site_id
_symmetry_equiv_pos_as_xyz
1 x,y,z
2 1/2-x,-y,z
3 x,1/2-y,1/2-z
4 1/2-x,1/2+y,1/2-z
5 -x,-y,-z
6 1/2+x,y,-z
7 -x,1/2+y,1/2+z
8 1/2+x,1/2-y,1/2+z
_cell_length_a                   13.718(5)
_cell_length_b                   10.550(4)
_cell_length_c                   12.339(4)
_cell_angle_alpha                90
_cell_angle_beta                 90
_cell_angle_gamma                90
_cell_volume                     1785.76
_exptl_crystal_colour            colorless
_exptl_crystal_description       needle
_chemical_melting_point          172-173deg.C
_cell_formula_units_Z            4
loop_
_atom_site_label
_atom_site_type_symbol
_atom_site_fract_x
_atom_site_fract_y
_atom_site_fract_z
O1 O 0.4188(2) 0.2500 1.2500
N1 N 0.5707(3) 0.2677(4) 1.1946(3)
C1 C 0.4802(3) 0.2771(4) 1.1670(3)
C2 C 0.4382(3) 0.3079(4) 1.0618(3)
C3 C 0.3384(3) 0.3092(5) 1.0458(4)
H2 H 0.2967 0.2920 1.1034
C4 C 0.3008(4) 0.3358(6) 0.9452(4)
H3 H 0.2339 0.3348 0.9329
C5 C 0.3645(4) 0.3637(5) 0.8639(4)
H4 H 0.3392 0.3806 0.7954
N2 N 0.4602(4) 0.3682(4) 0.8767(3)
C6 C 0.4963(4) 0.3394(5) 0.9728(4)
H5 H 0.5636 0.3401 0.9817
N1B N 0.5707(3) 0.2323(4) 1.3054(3)
C1B C 0.4802(3) 0.2229(4) 1.3330(3)
C2B C 0.4382(3) 0.1921(4) 1.4382(3)
C3B C 0.3384(3) 0.1908(5) 1.4542(4)
H2B H 0.2967 0.2080 1.3966
C4B C 0.3008(4) 0.1642(6) 1.5548(4)
H3B H 0.2339 0.1652 1.5671
C5B C 0.3645(4) 0.1363(5) 1.6361(4)
H4B H 0.3392 0.1194 1.7046
N2B N 0.4602(4) 0.1318(4) 1.6233(3)
C6B C 0.4963(4) 0.1606(5) 1.5272(4)
H5B H 0.5636 0.1599 1.5183
O2 O 0.0583(3) 0.0402(4) 0.2052(3)
H1 H 0.0324 0.0671 0.2606
O3 O 0.1937(6) 0.0596(15) 0.2961(5)
C7 C 0.1504(4) 0.0607(5) 0.2096(4)
C8 C 0.2021(3) 0.0219(4) 0.1067(3)
C9 C 0.1554(4) 0.0417(4) 0.0091(4)
H6 H 0.0909 0.0689 0.0084
C10 C 0.2037(5) 0.0215(6) -0.0877(4)
H7 H 0.1722 0.0375 -0.1531
O2A O 0.4417(3) -0.0402(4) 0.2052(3)
H1A H 0.4676 -0.0671 0.2606
O3A O 0.3063(6) -0.0596(15) 0.2961(5)
C7A C 0.3496(4) -0.0607(5) 0.2096(4)
C8A C 0.2979(3) -0.0219(4) 0.1067(3)
C9A C 0.3446(4) -0.0417(4) 0.0091(4)
H6A H 0.4091 -0.0689 0.0084
C10A C 0.2963(5) -0.0215(6) -0.0877(4)
H7A H 0.3278 -0.0375 -0.1531
O4? O 0.1801(7) 0.1508(14) 0.2663(9)
loop_
_geom_bond_atom_site_label_1
_geom_bond_atom_site_label_2
_geom_bond_site_symmetry_1
_geom_bond_site_symmetry_2
O1 C1 1_555 1_555
O2 H1 1_555 1_555
O3 C7 1_555 1_555
N1 C1 1_555 1_555
C1 C2 1_555 1_555
C2 C3 1_555 1_555
C3 H2 1_555 1_555
C4 C3 1_555 1_555
H3 C4 1_555 1_555
C5 C4 1_555 1_555
H4 C5 1_555 1_555
N2 C5 1_555 1_555
C6 C2 1_555 1_555
H5 C6 1_555 1_555
C7 O2 1_555 1_555
C8 C7 1_555 1_555
C9 C8 1_555 1_555
H6 C9 1_555 1_555
C10 C9 1_555 1_555
H7 C10 1_555 1_555
O2A H1A 1_555 1_555
O3A C7A 1_555 1_555
N1B N1 1_555 1_555
C1B O1 1_555 1_555
C2B C1B 1_555 1_555
C3B C2B 1_555 1_555
H2B C3B 1_555 1_555
C4B C3B 1_555 1_555
H3B C4B 1_555 1_555
C5B C4B 1_555 1_555
H4B C5B 1_555 1_555
N2B C5B 1_555 1_555
C6B C2B 1_555 1_555
H5B C6B 1_555 1_555
C7A O2A 1_555 1_555
C8A C8 1_555 1_555
C9A C8A 1_555 1_555
H6A C9A 1_555 1_555
C10A C10 1_555 1_555
H7A C10A 1_555 1_555
N2 C6 1_555 1_555
N1B C1B 1_555 1_555
N2B C6B 1_555 1_555
C7A C8A 1_555 1_555
C9A C10A 1_555 1_555

#END
