
#######################################################################
#
#                 Cambridge Crystallographic Data Centre
#                                CCDC 
#
#######################################################################
#
# If this CIF has been generated from an entry in the Cambridge 
# Structural Database, then it will include bibliographic, chemical, 
# crystal, experimental, refinement or atomic coordinate data resulting 
# from the CCDC's data processing and validation procedures.
#
#######################################################################

data_NANQAV
_chemical_formula_moiety         'C8 H6 O4,C12 H8 N4 O1'
_chemical_name_systematic        
'Isophthalic acid 2,5-bis(pyrid-3-yl)-1,3,4-oxadiazole'
_symmetry_cell_setting           triclinic
_symmetry_space_group_name_H-M   'P -1'
_symmetry_Int_Tables_number      2
_space_group_name_Hall           '-P 1'
loop_
_symmetry_equiv_pos_site_id
_symmetry_equiv_pos_as_xyz
1 x,y,z
2 -x,-y,-z
_cell_length_a                   6.880(4)
_cell_length_b                   7.543(6)
_cell_length_c                   18.983(11)
_cell_angle_alpha                84.750(16)
_cell_angle_beta                 87.374(12)
_cell_angle_gamma                63.034(10)
_cell_volume                     874.337
_exptl_crystal_colour            colorless
_exptl_crystal_description       lamellar
_chemical_melting_point          251-252deg.C
_cell_formula_units_Z            2
_exptl_crystal_recrystallization_method acetonitrile
loop_
_atom_site_label
_atom_site_type_symbol
_atom_site_fract_x
_atom_site_fract_y
_atom_site_fract_z
O1 O 0.2742(5) 0.0697(4) 0.65489(15)
N1 N 0.2527(7) 0.3261(6) 0.41530(19)
N2 N -0.0261(7) 0.1498(7) 0.5979(2)
N3 N -0.0416(7) 0.0656(7) 0.6656(2)
N4 N 0.1174(7) -0.1724(6) 0.8791(2)
C1 C 0.4383(9) 0.3312(7) 0.4244(3)
H3 H 0.4997 0.3740 0.3861
C2 C 0.5448(8) 0.2767(7) 0.4874(3)
H4 H 0.6782 0.2784 0.4913
C3 C 0.4546(8) 0.2201(6) 0.5443(2)
H5 H 0.5229 0.1860 0.5881
C4 C 0.2618(7) 0.2137(6) 0.5364(2)
C5 C 0.1655(7) 0.2673(7) 0.4704(2)
H6 H 0.0349 0.2619 0.4646
C6 C 0.1605(8) 0.1481(7) 0.5946(2)
C7 C 0.1362(8) 0.0239(7) 0.6969(2)
C8 C 0.2088(8) -0.0685(6) 0.7667(2)
C9 C 0.4187(9) -0.1282(7) 0.7887(2)
H7 H 0.5207 -0.1128 0.7582
C10 C 0.4738(9) -0.2109(7) 0.8565(3)
H8 H 0.6146 -0.2533 0.8728
C11 C 0.3207(10) -0.2303(7) 0.8996(3)
H9 H 0.3599 -0.2867 0.9456
C12 C 0.0663(8) -0.0939(7) 0.8134(2)
H10 H -0.0753 -0.0537 0.7984
O2 O 1.1374(7) 0.6577(6) 0.04522(17)
O3 O 0.8427(6) 0.8038(6) -0.02002(17)
H1 H 0.9307 0.8068 -0.0502
O4 O 1.0770(6) 0.4545(7) 0.29034(17)
H2 H 1.1175 0.4237 0.3316
O5 O 0.7746(6) 0.4650(5) 0.33684(16)
C13 C 0.9447(10) 0.7164(8) 0.0390(2)
C14 C 0.8068(8) 0.6929(7) 0.0964(2)
C15 C 0.5888(8) 0.7492(7) 0.0867(3)
H11 H 0.5247 0.8059 0.0429
C16 C 0.4657(8) 0.7213(8) 0.1418(3)
H12 H 0.3193 0.7568 0.1349
C17 C 0.5575(8) 0.6419(7) 0.2066(3)
H13 H 0.4727 0.6250 0.2436
C18 C 0.7751(8) 0.5863(6) 0.2176(2)
C19 C 0.8715(9) 0.4962(7) 0.2869(2)
C20 C 0.8953(7) 0.6133(7) 0.1618(2)
H14 H 1.0421 0.5762 0.1686
loop_
_geom_bond_atom_site_label_1
_geom_bond_atom_site_label_2
_geom_bond_site_symmetry_1
_geom_bond_site_symmetry_2
O1 C6 1_555 1_555
O2 C13 1_555 1_555
O3 H1 1_555 1_555
O4 H2 1_555 1_555
O5 C19 1_555 1_555
N1 C1 1_555 1_555
N2 N3 1_555 1_555
N3 C7 1_555 1_555
N4 C11 1_555 1_555
C1 H3 1_555 1_555
C2 C1 1_555 1_555
H4 C2 1_555 1_555
C3 C2 1_555 1_555
H5 C3 1_555 1_555
C4 C3 1_555 1_555
C5 N1 1_555 1_555
H6 C5 1_555 1_555
C6 N2 1_555 1_555
C7 O1 1_555 1_555
C8 C7 1_555 1_555
C9 C8 1_555 1_555
H7 C9 1_555 1_555
C10 C9 1_555 1_555
H8 C10 1_555 1_555
C11 C10 1_555 1_555
H9 C11 1_555 1_555
C12 N4 1_555 1_555
H10 C12 1_555 1_555
C13 O3 1_555 1_555
C14 C13 1_555 1_555
C15 C14 1_555 1_555
H11 C15 1_555 1_555
C16 C15 1_555 1_555
H12 C16 1_555 1_555
C17 C16 1_555 1_555
H13 C17 1_555 1_555
C18 C17 1_555 1_555
C19 O4 1_555 1_555
C20 C14 1_555 1_555
H14 C20 1_555 1_555
C4 C5 1_555 1_555
C4 C6 1_555 1_555
C8 C12 1_555 1_555
C18 C19 1_555 1_555
C18 C20 1_555 1_555

#END
