
#######################################################################
#
#                 Cambridge Crystallographic Data Centre
#                                CCDC 
#
#######################################################################
#
# If this CIF has been generated from an entry in the Cambridge 
# Structural Database, then it will include bibliographic, chemical, 
# crystal, experimental, refinement or atomic coordinate data resulting 
# from the CCDC's data processing and validation procedures.
#
#######################################################################

data_NANQEA
_chemical_formula_moiety         'C80 H80 N8 2+,C1 H1 Cl3,O4 S1 2-'
_chemical_name_systematic        
'octakis(Isopropyl)cyclo(4)naphthobipyrroledi-ium sulfate chloroform solvate'
_symmetry_cell_setting           monoclinic
_symmetry_space_group_name_H-M   'P 21/c'
_symmetry_Int_Tables_number      14
_space_group_name_Hall           '-P 2ybc'
loop_
_symmetry_equiv_pos_site_id
_symmetry_equiv_pos_as_xyz
1 x,y,z
2 -x,1/2+y,1/2-z
3 -x,-y,-z
4 x,1/2-y,1/2+z
_cell_length_a                   9.3183(6)
_cell_length_b                   24.5474(11)
_cell_length_c                   39.251(2)
_cell_angle_alpha                90
_cell_angle_beta                 93.058(5)
_cell_angle_gamma                90
_cell_volume                     8965.49
_exptl_crystal_colour            green
_cell_formula_units_Z            4
loop_
_atom_site_label
_atom_site_type_symbol
_atom_site_fract_x
_atom_site_fract_y
_atom_site_fract_z
C1 C 0.2834(5) 0.2188(2) 0.47116(12)
C2 C 0.1336(5) 0.51669(18) 0.41876(11)
C3 C 0.1196(5) 0.45932(17) 0.41886(11)
C4 C 0.1463(5) 0.42778(18) 0.44799(11)
C5 C 0.1867(5) 0.45140(18) 0.47969(11)
C6 C 0.2050(5) 0.36050(19) 0.48290(12)
C7 C 0.3704(6) 0.11302(19) 0.37071(12)
C8 C 0.4157(5) 0.16398(19) 0.25834(11)
C9 C 0.1814(5) 0.51049(19) 0.48221(11)
C10 C 0.1149(5) 0.42038(19) 0.28432(12)
C11 C 0.0922(5) 0.48520(19) 0.36455(11)
C12 C 0.1195(5) 0.53340(18) 0.38429(12)
C13 C 0.2335(5) 0.3025(2) 0.48909(12)
C14 C 0.3065(5) 0.17428(19) 0.45121(12)
C15 C 0.2899(5) 0.12027(19) 0.46231(11)
C16 C 0.3103(5) 0.08576(19) 0.43386(12)
C17 C 0.3663(5) 0.14309(19) 0.31716(12)
C18 C 0.2929(5) 0.24380(19) 0.25281(12)
C19 C 0.2327(5) 0.2961(2) 0.24636(11)
C20 C 0.1945(5) 0.5379(2) 0.51332(13)
H1 H 0.2077 0.5173 0.5331
C21 C 0.5135(5) 0.0789(2) 0.28635(13)
C22 C 0.2137(5) 0.26679(19) 0.51707(12)
C23 C 0.3431(5) 0.1211(2) 0.40652(12)
C24 C 0.4486(5) 0.09553(19) 0.31827(12)
C25 C 0.3809(5) 0.20790(19) 0.23522(11)
C26 C 0.2383(5) 0.1590(2) 0.51963(11)
C27 C 0.1530(6) 0.3772(2) 0.26423(12)
C28 C -0.0054(6) 0.4649(2) 0.23447(13)
C29 C 0.0341(6) 0.46472(19) 0.27125(12)
C30 C 0.1583(5) 0.54321(18) 0.45181(12)
C31 C 0.0827(5) 0.47383(19) 0.32864(12)
C32 C 0.2274(5) 0.40841(18) 0.50181(11)
C33 C 0.3477(5) 0.17524(19) 0.28800(11)
C34 C 0.1891(6) 0.5932(2) 0.51645(14)
H2 H 0.1956 0.6094 0.5379
C35 C 0.1595(6) 0.3224(2) 0.21748(12)
C36 C 0.4984(5) 0.1135(2) 0.25705(12)
C37 C 0.1122(5) 0.3744(2) 0.22909(12)
C38 C 0.2367(6) 0.4261(2) 0.56722(12)
H3 H 0.2892 0.4138 0.5875
H4 H 0.1424 0.4103 0.5661
H5 H 0.2289 0.4651 0.5678
C39 C 0.1735(6) 0.6250(2) 0.48701(15)
H6 H 0.1730 0.6628 0.4887
C40 C 0.0353(6) 0.4209(2) 0.21351(13)
C41 C 0.2570(5) 0.1121(2) 0.49832(12)
C42 C 0.4541(6) 0.07697(19) 0.35262(12)
C43 C 0.1587(6) 0.6003(2) 0.45505(14)
H7 H 0.1489 0.6218 0.4356
C44 C 0.2442(6) 0.0610(2) 0.51247(13)
H8 H 0.2526 0.0306 0.4986
C45 C 0.2169(6) 0.1482(2) 0.55434(13)
H9 H 0.2080 0.1775 0.5691
C46 C 0.1513(6) 0.2860(2) 0.54929(12)
H10 H 0.127(5) 0.3245(19) 0.5455(11)
C47 C 0.1545(7) 0.5864(2) 0.36708(14)
H11 H 0.151(5) 0.5783(18) 0.3426(13)
C48 C 0.0106(5) 0.49931(19) 0.29941(12)
C49 C 0.3172(6) 0.4087(2) 0.53538(12)
H12 H 0.346(5) 0.3708(18) 0.5395(12)
C50 C 0.2859(7) 0.0263(2) 0.42789(15)
H13 H 0.300(5) 0.0201(19) 0.4037(13)
C51 C 0.5656(6) 0.0958(2) 0.22753(13)
H14 H 0.5643 0.1188 0.2087
C52 C 0.2447(5) 0.21322(19) 0.50563(12)
C53 C 0.2198(6) 0.0533(2) 0.54621(14)
H15 H 0.2109 0.0182 0.5548
C54 C 0.3900(6) 0.1878(2) 0.17147(12)
H16 H 0.4216 0.1510 0.1755
H17 H 0.4284 0.2010 0.1508
H18 H 0.2869 0.1887 0.1693
C55 C 0.4429(7) 0.2241(2) 0.20161(13)
H19 H 0.406(5) 0.261(2) 0.1964(13)
C56 C -0.1120(7) 0.5099(3) 0.18393(16)
H20 H -0.1613 0.5394 0.1741
C57 C 0.2527(7) 0.2847(2) 0.58044(13)
H21 H 0.2890 0.2484 0.5838
H22 H 0.2025 0.2958 0.6000
H23 H 0.3312 0.3092 0.5773
C58 C -0.0004(7) 0.4250(3) 0.17903(14)
H24 H 0.0267 0.3968 0.1649
C59 C 0.2086(7) 0.0966(2) 0.56709(14)
H25 H 0.1952 0.0912 0.5902
C60 C 0.5478(7) 0.0335(2) 0.37029(15)
H26 H 0.533(5) 0.038(2) 0.3947(14)
C61 C 0.3911(7) -0.0125(2) 0.44780(15)
H27 H 0.4879 -0.0002 0.4456
H28 H 0.3808 -0.0487 0.4387
H29 H 0.3698 -0.0127 0.4715
C62 C 0.0071(7) 0.2571(2) 0.55512(14)
H30 H -0.0598 0.2644 0.5362
H31 H -0.0312 0.2705 0.5758
H32 H 0.0228 0.2186 0.5570
C63 C 0.2091(8) 0.3178(3) 0.15409(14)
H33 H 0.1888 0.3561 0.1526
H34 H 0.1757 0.3003 0.1333
H35 H 0.3109 0.3124 0.1576
C64 C 0.4543(6) 0.4402(2) 0.53257(14)
H36 H 0.5100 0.4241 0.5153
H37 H 0.5084 0.4394 0.5541
H38 H 0.4321 0.4773 0.5265
C65 C -0.0362(9) 0.6006(2) 0.28481(16)
H39 H -0.0377 0.5944 0.2606
H40 H 0.0594 0.6101 0.2930
H41 H -0.1006 0.6299 0.2895
C66 C -0.0723(8) 0.4675(3) 0.16452(15)
H42 H -0.0946 0.4677 0.1411
C67 C 0.1259(7) 0.0116(2) 0.43332(15)
H43 H 0.1066 0.0165 0.4569
H44 H 0.1085 -0.0256 0.4269
H45 H 0.0642 0.0351 0.4195
C68 C 0.5086(7) -0.0252(2) 0.36223(15)
H46 H 0.4076 -0.0305 0.3647
H47 H 0.5620 -0.0489 0.3777
H48 H 0.5315 -0.0335 0.3392
C69 C 0.6421(7) 0.0132(3) 0.25370(16)
H49 H 0.6894 -0.0200 0.2526
C70 C 0.6312(7) 0.0474(3) 0.22561(14)
H50 H 0.6696 0.0366 0.2053
C71 C 0.0502(7) 0.6332(2) 0.37116(14)
H51 H -0.0466 0.6200 0.3679
H52 H 0.0671 0.6608 0.3545
H53 H 0.0642 0.6483 0.3936
C72 C 0.3079(7) 0.6041(2) 0.37628(15)
H54 H 0.3184 0.6115 0.4003
H55 H 0.3293 0.6364 0.3637
H56 H 0.3729 0.5755 0.3706
C73 C -0.0780(7) 0.5089(3) 0.21891(15)
H57 H -0.1041 0.5383 0.2322
C74 C 0.7062(7) 0.0441(3) 0.36654(16)
H58 H 0.7273 0.0416 0.3429
H59 H 0.7618 0.0176 0.3794
H60 H 0.7301 0.0799 0.3749
C75 C 0.1319(8) 0.2930(2) 0.18426(14)
H61 H 0.172(6) 0.256(2) 0.1877(14)
C76 C 0.5807(7) 0.0297(2) 0.28365(14)
H62 H 0.5856 0.0065 0.3024
C77 C -0.0292(8) 0.2849(3) 0.17701(17)
H63 H -0.0652 0.2600 0.1934
H64 H -0.0463 0.2704 0.1544
H65 H -0.0775 0.3193 0.1786
C78 C -0.0837(8) 0.5489(2) 0.30271(15)
H66 H -0.077(6) 0.558(2) 0.3271(15)
C79 C 0.6038(7) 0.2289(2) 0.20382(16)
H67 H 0.6326 0.2542 0.2215
H68 H 0.6360 0.2418 0.1824
H69 H 0.6455 0.1939 0.2089
C80 C -0.2413(9) 0.5345(3) 0.29472(19)
H70 H -0.2617 0.5357 0.2705
H71 H -0.3015 0.5602 0.3057
H72 H -0.2599 0.4985 0.3030
N1 N 0.0940(4) 0.44193(14) 0.38586(9)
H74 H 0.0811 0.4086 0.3797
N2 N 0.2212(4) 0.33066(16) 0.27378(9)
H75 H 0.2532 0.3235 0.2942
N3 N 0.1397(4) 0.42681(15) 0.31825(9)
H76 H 0.1855 0.4040 0.3314
N4 N 0.1551(4) 0.37299(14) 0.45052(9)
H77 H 0.1331 0.3500 0.4345
N5 N 0.2760(4) 0.27204(16) 0.46203(9)
H78 H 0.2950 0.2848 0.4424
N6 N 0.3389(4) 0.17369(15) 0.41757(9)
H79 H 0.3542 0.2020 0.4054
N7 N 0.3172(4) 0.15233(15) 0.34874(9)
H80 H 0.2616 0.1786 0.3540
N8 N 0.2754(5) 0.22365(15) 0.28460(9)
H81 H 0.2269 0.2388 0.3000
C81 C 0.5507(9) 0.4042(4) 0.3854(3)
H73 H 0.509(9) 0.372(3) 0.374(2)
Cl1 Cl 0.4968(3) 0.40466(16) 0.42597(9)
Cl2 Cl 0.7314(3) 0.39873(17) 0.38418(7)
Cl3 Cl 0.4833(4) 0.45869(14) 0.36326(14)
O1 O 0.1628(3) 0.25181(12) 0.34796(8)
O2 O 0.2892(4) 0.33674(12) 0.34403(8)
O3 O 0.3335(4) 0.28011(12) 0.39320(8)
O4 O 0.1061(4) 0.32695(12) 0.38418(8)
S1 S 0.22247(15) 0.29898(5) 0.36744(3)
loop_
_geom_bond_atom_site_label_1
_geom_bond_atom_site_label_2
_geom_bond_site_symmetry_1
_geom_bond_site_symmetry_2
C1 C14 1_555 1_555
C2 C3 1_555 1_555
C3 C4 1_555 1_555
C4 C5 1_555 1_555
C5 C9 1_555 1_555
C6 C13 1_555 1_555
C7 C23 1_555 1_555
C8 C25 1_555 1_555
C9 C20 1_555 1_555
C10 C27 1_555 1_555
C11 C12 1_555 1_555
C12 C2 1_555 1_555
C13 C22 1_555 1_555
C14 C15 1_555 1_555
C15 C16 1_555 1_555
C16 C23 1_555 1_555
C17 C24 1_555 1_555
C18 C19 1_555 1_555
C19 C35 1_555 1_555
C20 H1 1_555 1_555
C21 C24 1_555 1_555
C22 C46 1_555 1_555
C23 N6 1_555 1_555
C24 C42 1_555 1_555
C25 C18 1_555 1_555
C26 C41 1_555 1_555
C27 C37 1_555 1_555
C28 C29 1_555 1_555
C29 C10 1_555 1_555
C30 C2 1_555 1_555
C31 C11 1_555 1_555
C32 C5 1_555 1_555
C33 C8 1_555 1_555
C34 C20 1_555 1_555
H2 C34 1_555 1_555
C35 C37 1_555 1_555
C36 C8 1_555 1_555
C37 C40 1_555 1_555
C38 H3 1_555 1_555
H4 C38 1_555 1_555
H5 C38 1_555 1_555
C39 C34 1_555 1_555
H6 C39 1_555 1_555
C40 C28 1_555 1_555
C41 C15 1_555 1_555
C42 C7 1_555 1_555
C43 C30 1_555 1_555
H7 C43 1_555 1_555
C44 C41 1_555 1_555
H8 C44 1_555 1_555
C45 C26 1_555 1_555
H9 C45 1_555 1_555
C46 H10 1_555 1_555
C47 C12 1_555 1_555
H11 C47 1_555 1_555
C48 C29 1_555 1_555
C49 C32 1_555 1_555
H12 C49 1_555 1_555
C50 C16 1_555 1_555
H13 C50 1_555 1_555
C51 C36 1_555 1_555
H14 C51 1_555 1_555
C52 C1 1_555 1_555
C53 C44 1_555 1_555
H15 C53 1_555 1_555
C54 H16 1_555 1_555
H17 C54 1_555 1_555
H18 C54 1_555 1_555
C55 C25 1_555 1_555
H19 C55 1_555 1_555
C56 H20 1_555 1_555
C57 C46 1_555 1_555
H21 C57 1_555 1_555
H22 C57 1_555 1_555
H23 C57 1_555 1_555
C58 C40 1_555 1_555
H24 C58 1_555 1_555
C59 C45 1_555 1_555
H25 C59 1_555 1_555
C60 C42 1_555 1_555
H26 C60 1_555 1_555
C61 C50 1_555 1_555
H27 C61 1_555 1_555
H28 C61 1_555 1_555
H29 C61 1_555 1_555
C62 C46 1_555 1_555
H30 C62 1_555 1_555
H31 C62 1_555 1_555
H32 C62 1_555 1_555
C63 H33 1_555 1_555
H34 C63 1_555 1_555
H35 C63 1_555 1_555
C64 C49 1_555 1_555
H36 C64 1_555 1_555
H37 C64 1_555 1_555
H38 C64 1_555 1_555
C65 H39 1_555 1_555
H40 C65 1_555 1_555
H41 C65 1_555 1_555
C66 C56 1_555 1_555
H42 C66 1_555 1_555
C67 C50 1_555 1_555
H43 C67 1_555 1_555
H44 C67 1_555 1_555
H45 C67 1_555 1_555
C68 C60 1_555 1_555
H46 C68 1_555 1_555
H47 C68 1_555 1_555
H48 C68 1_555 1_555
C69 H49 1_555 1_555
C70 C51 1_555 1_555
H50 C70 1_555 1_555
C71 C47 1_555 1_555
H51 C71 1_555 1_555
H52 C71 1_555 1_555
H53 C71 1_555 1_555
C72 C47 1_555 1_555
H54 C72 1_555 1_555
H55 C72 1_555 1_555
H56 C72 1_555 1_555
C73 C28 1_555 1_555
H57 C73 1_555 1_555
C74 C60 1_555 1_555
H58 C74 1_555 1_555
H59 C74 1_555 1_555
H60 C74 1_555 1_555
C75 C35 1_555 1_555
H61 C75 1_555 1_555
C76 C21 1_555 1_555
H62 C76 1_555 1_555
C77 C75 1_555 1_555
H63 C77 1_555 1_555
H64 C77 1_555 1_555
H65 C77 1_555 1_555
C78 C48 1_555 1_555
H66 C78 1_555 1_555
C79 C55 1_555 1_555
H67 C79 1_555 1_555
H68 C79 1_555 1_555
H69 C79 1_555 1_555
C80 C78 1_555 1_555
H70 C80 1_555 1_555
H71 C80 1_555 1_555
H72 C80 1_555 1_555
C81 H73 1_555 1_555
Cl1 C81 1_555 1_555
Cl2 C81 1_555 1_555
Cl3 C81 1_555 1_555
N1 C3 1_555 1_555
H74 N1 1_555 1_555
N2 C19 1_555 1_555
H75 N2 1_555 1_555
N3 C10 1_555 1_555
H76 N3 1_555 1_555
N4 C4 1_555 1_555
H77 N4 1_555 1_555
N5 C1 1_555 1_555
H78 N5 1_555 1_555
N6 C14 1_555 1_555
H79 N6 1_555 1_555
N7 C7 1_555 1_555
H80 N7 1_555 1_555
N8 C18 1_555 1_555
H81 N8 1_555 1_555
O1 S1 1_555 1_555
O2 S1 1_555 1_555
O3 S1 1_555 1_555
O4 S1 1_555 1_555
C6 C32 1_555 1_555
C6 N4 1_555 1_555
C9 C30 1_555 1_555
C11 N1 1_555 1_555
C13 N5 1_555 1_555
C17 C33 1_555 1_555
C17 N7 1_555 1_555
C21 C36 1_555 1_555
C22 C52 1_555 1_555
C26 C52 1_555 1_555
C27 N2 1_555 1_555
C31 C48 1_555 1_555
C31 N3 1_555 1_555
C33 N8 1_555 1_555
C38 C49 1_555 1_555
C39 C43 1_555 1_555
C53 C59 1_555 1_555
C54 C55 1_555 1_555
C56 C73 1_555 1_555
C58 C66 1_555 1_555
C63 C75 1_555 1_555
C65 C78 1_555 1_555
C69 C70 1_555 1_555
C69 C76 1_555 1_555

#END
