
#######################################################################
#
#                 Cambridge Crystallographic Data Centre
#                                CCDC 
#
#######################################################################
#
# If this CIF has been generated from an entry in the Cambridge 
# Structural Database, then it will include bibliographic, chemical, 
# crystal, experimental, refinement or atomic coordinate data resulting 
# from the CCDC's data processing and validation procedures.
#
#######################################################################

data_NANROK
_chemical_compound_source        'leaves and stems of Schisandra lancifolia'
_chemical_formula_moiety         'C29 H36 O10,H2 O1'
_chemical_name_systematic        'Lancifodilactone G monohydrate'
_chemical_properties_biological  
'antiHIV activity and minimal cytotoxic activity against C8166 cells'
_symmetry_cell_setting           monoclinic
_symmetry_space_group_name_H-M   'P 21'
_symmetry_Int_Tables_number      4
_space_group_name_Hall           'P 2yb'
loop_
_symmetry_equiv_pos_site_id
_symmetry_equiv_pos_as_xyz
1 x,y,z
2 -x,1/2+y,-z
_cell_length_a                   7.348(1)
_cell_length_b                   11.927(1)
_cell_length_c                   15.525(1)
_cell_angle_alpha                90
_cell_angle_beta                 95.00(1)
_cell_angle_gamma                90
_cell_volume                     1355.43
_exptl_crystal_colour            colorless
_exptl_crystal_description       block
_chemical_melting_point          '171-172 deg.C'
_cell_formula_units_Z            2
_exptl_crystal_recrystallization_method methanol
loop_
_atom_site_label
_atom_site_type_symbol
_atom_site_fract_x
_atom_site_fract_y
_atom_site_fract_z
O1 O -0.4353(7) -0.0846(4) -1.0283(3)
O2 O -0.2693(4) 0.0010(3) -0.9211(2)
O3 O -0.2640(5) 0.2298(3) -1.0099(2)
O4 O -0.2999(4) -0.0623(3) -0.7237(2)
O5 O -0.2641(5) -0.2475(3) -0.7568(2)
O6 O 0.1234(5) -0.1932(3) -0.7536(3)
H1 H 0.1994 -0.1684 -0.7842
O7 O -0.4844(7) -0.0156(4) -0.5235(3)
O8 O -0.1994(10) -0.6076(5) -0.7000(4)
O9 O -0.1953(6) -0.4204(3) -0.6950(3)
O10 O 0.0546(8) 0.1539(5) -1.0821(3)
H2 H 0.1055 0.1627 -1.1265
C1 C -0.3751(6) 0.1876(4) -0.9458(3)
H3 H -0.4328 0.2474 -0.9146
C2 C -0.5116(7) 0.1061(5) -0.9880(4)
H4 H -0.6193 0.1010 -0.9562
H5 H -0.5482 0.1275 -1.0472
C3 C -0.4077(6) -0.0026(5) -0.9843(3)
C4 C -0.0836(7) 0.2545(5) -0.9679(4)
C5 C -0.0497(6) 0.1544(4) -0.9039(3)
H6 H 0.0053 0.0939 -0.9356
C6 C 0.0812(6) 0.1795(4) -0.8243(3)
H7 H 0.0213 0.2291 -0.7861
H8 H 0.1875 0.2183 -0.8424
C7 C 0.1442(7) 0.0731(5) -0.7741(4)
H9 H 0.2261 0.0316 -0.8080
H10 H 0.2129 0.0953 -0.7207
C8 C -0.0085(6) -0.0034(4) -0.7527(3)
C9 C -0.1902(6) 0.0390(4) -0.7281(3)
C10 C -0.2430(6) 0.1148(3) -0.8859(3)
C11 C -0.1768(8) 0.0918(4) -0.6373(3)
H11 H -0.1022 0.1589 -0.6382
H12 H -0.2982 0.1149 -0.6246
C12 C -0.0965(8) 0.0159(5) -0.5634(3)
H13 H -0.0955 0.0581 -0.5100
H14 H 0.0297 0.0004 -0.5731
C13 C -0.1914(7) -0.0969(5) -0.5498(3)
C14 C -0.1593(6) -0.1916(4) -0.6145(3)
H15 H -0.0427 -0.2298 -0.5996
C15 C -0.1799(6) -0.1556(4) -0.7101(3)
C16 C -0.0067(6) -0.1146(4) -0.7445(3)
C17 C -0.3994(7) -0.0915(5) -0.5536(3)
C18 C -0.1276(9) -0.1392(7) -0.4580(4)
H16 H -0.1857 -0.2095 -0.4478
H17 H -0.1600 -0.0853 -0.4160
H18 H 0.0026 -0.1492 -0.4531
C19 C -0.2937(6) 0.1186(4) -0.7932(3)
H19 H -0.4231 0.1024 -0.7936
H20 H -0.2753 0.1947 -0.7721
C20 C -0.4850(7) -0.1971(5) -0.5947(4)
H21 H -0.5465 -0.1762 -0.6510
C21 C -0.6277(9) -0.2472(6) -0.5405(5)
H22 H -0.6794 -0.3129 -0.5686
H23 H -0.7225 -0.1931 -0.5342
H24 H -0.5713 -0.2670 -0.4845
C22 C -0.3230(6) -0.2727(4) -0.6111(3)
H25 H -0.3001 -0.3280 -0.5647
C23 C -0.3289(7) -0.3282(4) -0.6999(3)
C24 C -0.5051(8) -0.3840(5) -0.7369(4)
H26 H -0.6114 -0.3464 -0.7177
H27 H -0.5139 -0.3845 -0.7997
C25 C -0.4867(9) -0.5017(5) -0.7007(4)
H28 H -0.5188 -0.4996 -0.6408
C26 C -0.2838(10) -0.5205(5) -0.6992(4)
C27 C -0.6008(12) -0.5926(6) -0.7479(5)
H29 H -0.7281 -0.5754 -0.7464
H30 H -0.5749 -0.6635 -0.7203
H31 H -0.5716 -0.5963 -0.8070
C28 C 0.0483(8) 0.2570(6) -1.0380(4)
H32 H 0.0116 0.3156 -1.0791
H33 H 0.1696 0.2750 -1.0120
C29 C -0.0892(10) 0.3688(5) -0.9246(5)
H34 H -0.1113 0.4258 -0.9679
H35 H 0.0256 0.3828 -0.8919
H36 H -0.1854 0.3698 -0.8865
O11 O -0.6126(6) -0.1337(5) -0.8498(3)
H37 H -0.503(19) -0.058(16) -0.811(10)
H38 H -0.619(11) -0.151(8) -0.780(5)
loop_
_geom_bond_atom_site_label_1
_geom_bond_atom_site_label_2
_geom_bond_site_symmetry_1
_geom_bond_site_symmetry_2
O1 C3 1_555 1_555
O2 C3 1_555 1_555
O3 C1 1_555 1_555
O4 C9 1_555 1_555
O5 C15 1_555 1_555
O6 H1 1_555 1_555
O7 C17 1_555 1_555
O8 C26 1_555 1_555
O9 C23 1_555 1_555
O10 H2 1_555 1_555
O11 H37 1_555 1_555
C1 H3 1_555 1_555
C2 C1 1_555 1_555
H4 C2 1_555 1_555
H5 C2 1_555 1_555
C3 C2 1_555 1_555
C4 O3 1_555 1_555
C5 C4 1_555 1_555
H6 C5 1_555 1_555
C6 C5 1_555 1_555
H7 C6 1_555 1_555
H8 C6 1_555 1_555
C7 C6 1_555 1_555
H9 C7 1_555 1_555
H10 C7 1_555 1_555
C8 C7 1_555 1_555
C9 C8 1_555 1_555
C10 O2 1_555 1_555
C11 C9 1_555 1_555
H11 C11 1_555 1_555
H12 C11 1_555 1_555
C12 C11 1_555 1_555
H13 C12 1_555 1_555
H14 C12 1_555 1_555
C13 C12 1_555 1_555
C14 C13 1_555 1_555
H15 C14 1_555 1_555
C15 O4 1_555 1_555
C16 O6 1_555 1_555
C17 C13 1_555 1_555
C18 C13 1_555 1_555
H16 C18 1_555 1_555
H17 C18 1_555 1_555
H18 C18 1_555 1_555
C19 C9 1_555 1_555
H19 C19 1_555 1_555
H20 C19 1_555 1_555
C20 C17 1_555 1_555
H21 C20 1_555 1_555
C21 C20 1_555 1_555
H22 C21 1_555 1_555
H23 C21 1_555 1_555
H24 C21 1_555 1_555
C22 C14 1_555 1_555
H25 C22 1_555 1_555
C23 O5 1_555 1_555
C24 C23 1_555 1_555
H26 C24 1_555 1_555
H27 C24 1_555 1_555
C25 C24 1_555 1_555
H28 C25 1_555 1_555
C26 O9 1_555 1_555
C27 C25 1_555 1_555
H29 C27 1_555 1_555
H30 C27 1_555 1_555
H31 C27 1_555 1_555
C28 O10 1_555 1_555
H32 C28 1_555 1_555
H33 C28 1_555 1_555
C29 C4 1_555 1_555
H34 C29 1_555 1_555
H35 C29 1_555 1_555
H36 C29 1_555 1_555
H38 O11 1_555 1_555
C1 C10 1_555 1_555
C4 C28 1_555 1_555
C5 C10 1_555 1_555
C8 C16 1_555 1_555
C10 C19 1_555 1_555
C14 C15 1_555 1_555
C15 C16 1_555 1_555
C20 C22 1_555 1_555
C22 C23 1_555 1_555
C25 C26 1_555 1_555

#END
