
#######################################################################
#
#                 Cambridge Crystallographic Data Centre
#                                CCDC 
#
#######################################################################
#
# If this CIF has been generated from an entry in the Cambridge 
# Structural Database, then it will include bibliographic, chemical, 
# crystal, experimental, refinement or atomic coordinate data resulting 
# from the CCDC's data processing and validation procedures.
#
#######################################################################

data_NANXUY
_chemical_formula_moiety         'C15 H16 N2 O1'
_chemical_name_systematic        2-allyl-2-cyano-N-phenylpent-4-enamide
_symmetry_cell_setting           monoclinic
_symmetry_space_group_name_H-M   'C c'
_symmetry_Int_Tables_number      9
_space_group_name_Hall           'C -2yc'
loop_
_symmetry_equiv_pos_site_id
_symmetry_equiv_pos_as_xyz
1 x,y,z
2 x,-y,1/2+z
3 1/2+x,1/2+y,z
4 1/2+x,1/2-y,1/2+z
_cell_length_a                   10.770(2)
_cell_length_b                   17.478(3)
_cell_length_c                   8.3799(16)
_cell_angle_alpha                90
_cell_angle_beta                 117.700(2)
_cell_angle_gamma                90
_cell_volume                     1396.63
_exptl_crystal_description       block
_cell_formula_units_Z            4
loop_
_atom_site_label
_atom_site_type_symbol
_atom_site_fract_x
_atom_site_fract_y
_atom_site_fract_z
C1 C 0.4111(3) 0.13427(15) 0.6223(4)
H1 H 0.3416 0.1692 0.5535
C2 C 0.5161(3) 0.25780(13) 0.4590(3)
N1 N 0.5929(2) 0.21271(11) 0.5998(3)
H2 H 0.6798 0.2249 0.6618
O1 O 0.38982(19) 0.25116(10) 0.3645(3)
C3 C 0.3772(4) 0.06896(17) 0.6880(4)
H3 H 0.2845 0.0601 0.6614
C4 C 0.5998(3) 0.32037(14) 0.4209(4)
C5 C 0.5481(3) 0.14718(13) 0.6591(3)
C6 C 0.4786(4) 0.01748(17) 0.7916(5)
H4 H 0.4553 -0.0258 0.8363
C7 C 0.6640(3) 0.37832(14) 0.5783(4)
H5 H 0.7288 0.3514 0.6864
H6 H 0.7173 0.4160 0.5507
C8 C 0.5002(3) 0.36195(17) 0.2577(4)
C9 C 0.5589(4) 0.41862(18) 0.6157(5)
H7 H 0.5107 0.4592 0.5405
C10 C 0.7141(3) 0.28457(19) 0.3817(5)
H8 H 0.7723 0.3250 0.3730
H9 H 0.7734 0.2517 0.4815
C11 C 0.5295(6) 0.4023(3) 0.7416(7)
H10 H 0.5753 0.3621 0.8197
H11 H 0.4621 0.4305 0.7558
C12 C 0.6499(3) 0.09463(16) 0.7638(4)
H12 H 0.7428 0.1029 0.7905
C13 C 0.6539(9) 0.2391(5) 0.2119(11)
H13 H 0.6044 0.2658 0.1046
C14 C 0.6638(13) 0.1685(6) 0.2006(15)
H14 H 0.7123 0.1395 0.3044
H15 H 0.6226 0.1449 0.0883
C15 C 0.6148(4) 0.03033(17) 0.8286(5)
H16 H 0.6841 -0.0046 0.8981
N2 N 0.4295(4) 0.39632(16) 0.1328(5)
H17? H 0.7965 0.2740 0.4951
H18? H 0.7405 0.3213 0.3160
C16? C 0.666(2) 0.2094(10) 0.271(3)
H19? H 0.6678 0.1641 0.3302
C17? C 0.626(3) 0.2074(12) 0.112(3)
H20? H 0.6237 0.2520 0.0496
H21? H 0.5983 0.1612 0.0498
loop_
_geom_bond_atom_site_label_1
_geom_bond_atom_site_label_2
_geom_bond_site_symmetry_1
_geom_bond_site_symmetry_2
C1 H1 1_555 1_555
C2 N1 1_555 1_555
N1 H2 1_555 1_555
O1 C2 1_555 1_555
C3 C1 1_555 1_555
H3 C3 1_555 1_555
C4 C2 1_555 1_555
C5 C1 1_555 1_555
C6 C3 1_555 1_555
H4 C6 1_555 1_555
C7 C4 1_555 1_555
H5 C7 1_555 1_555
H6 C7 1_555 1_555
C8 C4 1_555 1_555
C9 C7 1_555 1_555
H7 C9 1_555 1_555
C10 C4 1_555 1_555
H8 C10 1_555 1_555
H9 C10 1_555 1_555
C11 C9 1_555 1_555
H10 C11 1_555 1_555
H11 C11 1_555 1_555
C12 C5 1_555 1_555
H12 C12 1_555 1_555
C13 C10 1_555 1_555
H13 C13 1_555 1_555
C14 C13 1_555 1_555
H14 C14 1_555 1_555
H15 C14 1_555 1_555
C15 C6 1_555 1_555
H16 C15 1_555 1_555
N2 C8 1_555 1_555
N1 C5 1_555 1_555
C12 C15 1_555 1_555

#END
