
#######################################################################
#
#                 Cambridge Crystallographic Data Centre
#                                CCDC 
#
#######################################################################
#
# If this CIF has been generated from an entry in the Cambridge 
# Structural Database, then it will include bibliographic, chemical, 
# crystal, experimental, refinement or atomic coordinate data resulting 
# from the CCDC's data processing and validation procedures.
#
#######################################################################

data_NANYAF
_chemical_formula_moiety         'C15 H15 Cl1 N2 O1'
_chemical_name_systematic        
2-allyl-N-(4-chlorophenyl)-2-cyanopent-4-enamide
_symmetry_cell_setting           monoclinic
_symmetry_space_group_name_H-M   'P 21/c'
_symmetry_Int_Tables_number      14
_space_group_name_Hall           '-P 2ybc'
loop_
_symmetry_equiv_pos_site_id
_symmetry_equiv_pos_as_xyz
1 x,y,z
2 -x,1/2+y,1/2-z
3 -x,-y,-z
4 x,1/2-y,1/2+z
_cell_length_a                   15.1592(19)
_cell_length_b                   9.8382(12)
_cell_length_c                   9.9020(12)
_cell_angle_alpha                90
_cell_angle_beta                 92.415(2)
_cell_angle_gamma                90
_cell_volume                     1475.47
_exptl_crystal_description       block
_cell_formula_units_Z            4
loop_
_atom_site_label
_atom_site_type_symbol
_atom_site_fract_x
_atom_site_fract_y
_atom_site_fract_z
Cl1 Cl 0.51344(6) 1.32514(8) 0.43135(9)
O1 O 0.72574(12) 0.73160(18) 0.31770(14)
N1 N 0.71464(13) 0.81699(19) 0.52743(17)
H1 H 0.7273 0.8003 0.6113
N2 N 0.87089(17) 0.4825(3) 0.2983(2)
C1 C 0.88487(16) 0.6765(2) 0.5822(2)
H2 H 0.8648 0.7069 0.6688
H3 H 0.9284 0.6055 0.5992
C2 C 0.9277(4) 0.7927(6) 0.5135(7)
H4 H 0.9028 0.8787 0.5209
C3 C 0.75068(16) 0.5171(2) 0.5832(2)
H5 H 0.7277 0.5666 0.6589
H6 H 0.7007 0.4852 0.5277
C4 C 0.8013(2) 0.3967(3) 0.6364(3)
H7 H 0.8208 0.3342 0.5738
C5 C 0.80541(15) 0.6162(2) 0.4984(2)
C6 C 0.57173(16) 1.1742(2) 0.4565(2)
C7 C 0.66436(14) 0.9359(2) 0.4994(2)
C8 C 0.62654(17) 1.1616(3) 0.5702(3)
H8 H 0.6325 1.2323 0.6322
C9 C 0.84077(16) 0.5412(3) 0.3837(2)
C10 C 0.67235(16) 1.0421(3) 0.5901(2)
H9 H 0.7096 1.0326 0.6666
C11 C 0.56198(16) 1.0698(3) 0.3658(2)
H10 H 0.5244 1.0797 0.2897
C12 C 0.60765(15) 0.9498(2) 0.3869(2)
H11 H 0.6004 0.8785 0.3257
C13 C 0.74470(15) 0.7276(2) 0.4382(2)
C14 C 0.8201(3) 0.3728(4) 0.7635(4)
C15 C 0.9952(4) 0.7803(8) 0.4469(6)
H12 H 1.0213 0.6954 0.4381
H13 H 1.0194 0.8559 0.4060
H14? H 0.8639 0.7436 0.6450
H15? H 0.9143 0.6048 0.6341
C16? C 0.9505(9) 0.7429(14) 0.4889(15)
H16? H 0.9807 0.6888 0.4293
C17? C 0.9648(9) 0.8713(15) 0.4909(14)
H17? H 0.9350 0.9265 0.5501
H18? H 1.0049 0.9092 0.4333
loop_
_geom_bond_atom_site_label_1
_geom_bond_atom_site_label_2
_geom_bond_site_symmetry_1
_geom_bond_site_symmetry_2
Cl1 C6 1_555 1_555
O1 C13 1_555 1_555
N1 H1 1_555 1_555
N2 C9 1_555 1_555
C1 H2 1_555 1_555
H3 C1 1_555 1_555
C2 C1 1_555 1_555
H4 C2 1_555 1_555
C3 H5 1_555 1_555
H6 C3 1_555 1_555
C4 C3 1_555 1_555
H7 C4 1_555 1_555
C5 C1 1_555 1_555
C6 C8 1_555 1_555
C7 N1 1_555 1_555
C8 H8 1_555 1_555
C9 C5 1_555 1_555
C10 C7 1_555 1_555
H9 C10 1_555 1_555
C11 C6 1_555 1_555
H10 C11 1_555 1_555
C12 C7 1_555 1_555
H11 C12 1_555 1_555
C13 N1 1_555 1_555
C14 C4 1_555 1_555
C15 C2 1_555 1_555
H12 C15 1_555 1_555
H13 C15 1_555 1_555
C3 C5 1_555 1_555
C5 C13 1_555 1_555
C8 C10 1_555 1_555
C11 C12 1_555 1_555

#END
