
#######################################################################
#
#                 Cambridge Crystallographic Data Centre
#                                CCDC 
#
#######################################################################
#
# If this CIF has been generated from an entry in the Cambridge 
# Structural Database, then it will include bibliographic, chemical, 
# crystal, experimental, refinement or atomic coordinate data resulting 
# from the CCDC's data processing and validation procedures.
#
#######################################################################

data_NANYEJ
_chemical_formula_moiety         'C15 H15 Cl1 N2 O1'
_chemical_name_systematic        
2-allyl-N-(3-chlorophenyl)-2-cyanopent-4-enamide
_symmetry_cell_setting           monoclinic
_symmetry_space_group_name_H-M   'P 21/c'
_symmetry_Int_Tables_number      14
_space_group_name_Hall           '-P 2ybc'
loop_
_symmetry_equiv_pos_site_id
_symmetry_equiv_pos_as_xyz
1 x,y,z
2 -x,1/2+y,1/2-z
3 -x,-y,-z
4 x,1/2-y,1/2+z
_cell_length_a                   14.759(3)
_cell_length_b                   10.1420(18)
_cell_length_c                   9.9255(17)
_cell_angle_alpha                90
_cell_angle_beta                 94.637(3)
_cell_angle_gamma                90
_cell_volume                     1480.84
_exptl_crystal_description       block
_cell_formula_units_Z            4
loop_
_atom_site_label
_atom_site_type_symbol
_atom_site_fract_x
_atom_site_fract_y
_atom_site_fract_z
Cl1 Cl -0.01066(5) -0.05197(7) 0.17152(7)
O1 O 0.23372(10) 0.27419(14) 0.29291(13)
N1 N 0.21393(11) 0.19711(17) 0.50135(15)
H1 H 0.2242 0.2138 0.5862
N2 N 0.37379(17) 0.5279(2) 0.2885(2)
C1 C 0.06606(16) -0.1475(2) 0.4067(3)
H2 H 0.0340 -0.2247 0.3859
C2 C 0.38970(14) 0.3349(2) 0.5701(2)
H3 H 0.4333 0.4053 0.5900
H4 H 0.3686 0.3058 0.6553
C3 C 0.30782(12) 0.39140(19) 0.48158(18)
C4 C 0.34367(15) 0.4675(2) 0.3699(2)
C5 C 0.24869(14) 0.4844(2) 0.5626(2)
H5 H 0.1963 0.5120 0.5041
H6 H 0.2265 0.4352 0.6370
C6 C 0.12139(17) -0.1373(2) 0.5232(3)
H7 H 0.1262 -0.2082 0.5828
C7 C 0.3149(2) 0.6286(3) 0.7433(3)
H8 H 0.2975 0.5693 0.8079
H9 H 0.3454 0.7056 0.7701
C8 C 0.05888(14) -0.0416(2) 0.3215(2)
C9 C 0.10486(13) 0.07427(19) 0.3492(2)
H10 H 0.0974 0.1458 0.2908
C10 C 0.24793(12) 0.28165(18) 0.41559(18)
C11 C 0.29697(17) 0.6041(2) 0.6177(3)
H11 H 0.3155 0.6656 0.5561
C12 C 0.16240(13) 0.08217(19) 0.46587(18)
C13 C 0.17011(16) -0.0242(2) 0.5540(2)
H12 H 0.2080 -0.0191 0.6333
C14 C 0.4372(6) 0.2230(11) 0.5090(10)
H13 H 0.4456 0.2630 0.4266
C15 C 0.4653(6) 0.1415(10) 0.4912(9)
H14 H 0.4687 0.0754 0.5564
H15 H 0.4894 0.1277 0.4087
H16? H 0.4195 0.4051 0.6233
H17? H 0.3686 0.2697 0.6319
C16? C 0.4562(6) 0.2724(10) 0.4823(10)
H18? H 0.4475 0.3356 0.4146
C17? C 0.4962(7) 0.2276(12) 0.4400(11)
H19? H 0.5223 0.1519 0.4791
H20? H 0.5124 0.2558 0.3561
loop_
_geom_bond_atom_site_label_1
_geom_bond_atom_site_label_2
_geom_bond_site_symmetry_1
_geom_bond_site_symmetry_2
Cl1 C8 1_555 1_555
O1 C10 1_555 1_555
N1 H1 1_555 1_555
N2 C4 1_555 1_555
C1 H2 1_555 1_555
C2 H3 1_555 1_555
H4 C2 1_555 1_555
C3 C2 1_555 1_555
C4 C3 1_555 1_555
C5 C3 1_555 1_555
H5 C5 1_555 1_555
H6 C5 1_555 1_555
C6 C1 1_555 1_555
H7 C6 1_555 1_555
C7 H8 1_555 1_555
H9 C7 1_555 1_555
C8 C1 1_555 1_555
C9 C8 1_555 1_555
H10 C9 1_555 1_555
C10 N1 1_555 1_555
C11 C5 1_555 1_555
H11 C11 1_555 1_555
C12 N1 1_555 1_555
C13 C6 1_555 1_555
H12 C13 1_555 1_555
C14 C2 1_555 1_555
H13 C14 1_555 1_555
C15 C14 1_555 1_555
H14 C15 1_555 1_555
H15 C15 1_555 1_555
C3 C10 1_555 1_555
C7 C11 1_555 1_555
C9 C12 1_555 1_555
C12 C13 1_555 1_555

#END
