
#######################################################################
#
#                 Cambridge Crystallographic Data Centre
#                                CCDC 
#
#######################################################################
#
# If this CIF has been generated from an entry in the Cambridge 
# Structural Database, then it will include bibliographic, chemical, 
# crystal, experimental, refinement or atomic coordinate data resulting 
# from the CCDC's data processing and validation procedures.
#
#######################################################################

data_NAOXAP11
_chemical_formula_moiety         'C2 O4 2-,2(Na1 1+),H2 O2'
_chemical_name_systematic        'Disodium oxalate monoperhydrate'
_symmetry_cell_setting           monoclinic
_symmetry_space_group_name_H-M   'P 21/c'
_symmetry_Int_Tables_number      14
_space_group_name_Hall           '-P 2ybc'
loop_
_symmetry_equiv_pos_site_id
_symmetry_equiv_pos_as_xyz
1 x,y,z
2 -x,1/2+y,1/2-z
3 -x,-y,-z
4 x,1/2-y,1/2+z
_cell_length_a                   3.521(2)
_cell_length_b                   8.206(3)
_cell_length_c                   8.950(3)
_cell_angle_alpha                90
_cell_angle_beta                 96.63(3)
_cell_angle_gamma                90
_cell_volume                     256.866
_cell_formula_units_Z            2
loop_
_atom_site_label
_atom_site_type_symbol
_atom_site_fract_x
_atom_site_fract_y
_atom_site_fract_z
Na1 Na 0.5033(1) 0.37629(7) 0.21952(7)
O1 O 0.0302(1) 0.32065(4) 0.39566(4)
O2 O 0.3014(1) 0.38278(4) 0.62761(4)
C1 C 0.0965(1) 0.41416(3) 0.50832(3)
C1B C -0.0965(1) 0.58584(3) 0.49168(3)
O1B O -0.0302(1) 0.67935(4) 0.60434(4)
O2B O -0.3014(1) 0.61722(4) 0.37239(4)
O3 O 0.0307(1) 0.00639(4) 0.42057(4)
H1 H 0.0476(2) 0.12863(9) 0.41065(9)
O3B O -0.0307(1) -0.00639(4) 0.57943(4)
H1B H -0.0476(2) -0.12863(9) 0.58935(9)
loop_
_geom_bond_atom_site_label_1
_geom_bond_atom_site_label_2
_geom_bond_site_symmetry_1
_geom_bond_site_symmetry_2
O1 C1 1_555 1_555
O2 C1 1_555 1_555
C1 C1B 1_555 1_555
O3 H1 1_555 1_555
C1B O1B 1_555 1_555
O2B C1B 1_555 1_555
O3B O3 1_555 1_555
H1B O3B 1_555 1_555

#END
