
#######################################################################
#
#                 Cambridge Crystallographic Data Centre
#                                CCDC 
#
#######################################################################
#
# If this CIF has been generated from an entry in the Cambridge 
# Structural Database, then it will include bibliographic, chemical, 
# crystal, experimental, refinement or atomic coordinate data resulting 
# from the CCDC's data processing and validation procedures.
#
#######################################################################

data_NAOXAP
_chemical_formula_moiety         'C2 O4 2-,2(Na1 1+),H2 O2'
_chemical_name_systematic        'Disodium oxalate monoperhydrate'
_symmetry_cell_setting           monoclinic
_symmetry_space_group_name_H-M   'P 21/c'
_symmetry_Int_Tables_number      14
_space_group_name_Hall           '-P 2ybc'
loop_
_symmetry_equiv_pos_site_id
_symmetry_equiv_pos_as_xyz
1 x,y,z
2 -x,1/2+y,1/2-z
3 -x,-y,-z
4 x,1/2-y,1/2+z
_cell_length_a                   3.548
_cell_length_b                   8.230
_cell_length_c                   9.010
_cell_angle_alpha                90
_cell_angle_beta                 96.0
_cell_angle_gamma                90
_cell_volume                     261.651
_cell_formula_units_Z            2
loop_
_atom_site_label
_atom_site_type_symbol
_atom_site_fract_x
_atom_site_fract_y
_atom_site_fract_z
C1 C 0.09510 0.41390 0.50860
O1 O 0.02970 0.32100 0.39630
O2 O 0.29790 0.38230 0.62820
C1B C -0.09510 0.58610 0.49140
O1B O -0.02970 0.67900 0.60370
O2B O -0.29790 0.61770 0.37180
H1 H 0.03800 0.11620 0.41790
O3 O 0.03070 0.00770 0.42110
O3B O -0.03070 -0.00770 0.57890
H1B H -0.03800 -0.11620 0.58210
Na1 Na -0.49600 0.37560 0.21880
loop_
_geom_bond_atom_site_label_1
_geom_bond_atom_site_label_2
_geom_bond_site_symmetry_1
_geom_bond_site_symmetry_2
C1 O1 1_555 1_555
O2 C1 1_555 1_555
H1 O3 1_555 1_555
O3 O3B 1_555 1_555
C1B C1 1_555 1_555
O1B C1B 1_555 1_555
O2B C1B 1_555 1_555
O3B H1B 1_555 1_555

#END
