
#######################################################################
#
#                 Cambridge Crystallographic Data Centre
#                                CCDC 
#
#######################################################################
#
# If this CIF has been generated from an entry in the Cambridge 
# Structural Database, then it will include bibliographic, chemical, 
# crystal, experimental, refinement or atomic coordinate data resulting 
# from the CCDC's data processing and validation procedures.
#
#######################################################################

data_NAPBIS
_chemical_formula_moiety         'C29 H54 N12 2+,2(Cl1 1-)'
_chemical_name_systematic        
"4,4'-(3,7-diazabicyclo[3.3.1]nonane-3,7-diyl)bis(2,6-bis(butylamino)-1,3,5-triazin-1-ium) bis(chloride)"
_symmetry_cell_setting           monoclinic
_symmetry_space_group_name_H-M   'C 2/c'
_symmetry_Int_Tables_number      15
_space_group_name_Hall           '-C 2yn'
loop_
_symmetry_equiv_pos_site_id
_symmetry_equiv_pos_as_xyz
1 x,y,z
2 -x,y,1/2-z
3 1/2+x,1/2+y,z
4 1/2-x,1/2+y,1/2-z
5 -x,-y,-z
6 x,-y,1/2+z
7 1/2-x,1/2-y,-z
8 1/2+x,1/2-y,1/2+z
_cell_length_a                   26.804(7)
_cell_length_b                   29.655(7)
_cell_length_c                   15.103(4)
_cell_angle_alpha                90
_cell_angle_beta                 118.666(6)
_cell_angle_gamma                90
_cell_volume                     10533.5
_exptl_crystal_description       block
_cell_formula_units_Z            12
loop_
_atom_site_label
_atom_site_type_symbol
_atom_site_fract_x
_atom_site_fract_y
_atom_site_fract_z
Cl1 Cl 0.58765(2) 0.99372(2) 0.59410(4)
Cl2 Cl 0.55158(3) 0.66014(2) 0.55201(5)
Cl3 Cl 0.38931(3) 0.66681(2) 0.39625(5)
N1 N 0.44386(8) 0.50959(6) 0.58841(13)
N2 N 0.49128(8) 0.44175(6) 0.64869(13)
N3 N 0.54315(7) 0.49976(6) 0.63330(13)
N4 N 0.49769(8) 0.56966(6) 0.57433(14)
N5 N 0.59190(8) 0.56010(6) 0.61708(14)
N6 N 0.40319(8) 0.57946(7) 0.52564(15)
C1 C 0.54457(9) 0.54219(7) 0.60944(15)
C2 C 0.44771(9) 0.55187(7) 0.56331(15)
C3 C 0.49257(9) 0.48476(7) 0.62351(15)
C4 C 0.55130(9) 0.38742(7) 0.77851(15)
H1 H 0.5850 0.3684 0.8002
C5 C 0.54220(9) 0.41301(7) 0.68491(16)
H2 H 0.5752 0.4316 0.7005
H3 H 0.5375 0.3918 0.6325
C6 C 0.5000 0.35667(10) 0.7500
H4 H 0.5062 0.3376 0.8066
C7 C 0.43874(9) 0.41880(7) 0.63374(16)
H5 H 0.4234 0.4013 0.5719
H6 H 0.4107 0.4414 0.6260
C8 C 0.64453(9) 0.53444(7) 0.65272(17)
H7 H 0.6373 0.5072 0.6128
H8 H 0.6583 0.5257 0.7225
C9 C 0.34673(10) 0.56681(8) 0.50884(19)
H9 H 0.3496 0.5410 0.5505
H10 H 0.3231 0.5584 0.4388
C10 C 0.31974(10) 0.60620(8) 0.53492(18)
H11 H 0.3211 0.6327 0.4985
H12 H 0.2801 0.5993 0.5125
C11 C 0.68935(10) 0.56266(8) 0.64423(18)
H13 H 0.6754 0.5709 0.5741
H14 H 0.6952 0.5903 0.6824
C12 C 0.74572(10) 0.53861(8) 0.6823(2)
H15 H 0.7401 0.5116 0.6423
H16 H 0.7588 0.5293 0.7516
C13 C 0.34893(11) 0.61674(8) 0.64688(18)
H17 H 0.3881 0.6252 0.6686
H18 H 0.3494 0.5898 0.6836
C14 C 0.79157(11) 0.56740(9) 0.6781(2)
H19 H 0.7796 0.5759 0.6094
H20 H 0.8263 0.5505 0.7039
H21 H 0.7978 0.5940 0.7182
C15 C 0.31972(12) 0.65492(9) 0.6735(2)
H22 H 0.3188 0.6816 0.6369
H23 H 0.3405 0.6609 0.7446
H24 H 0.2816 0.6461 0.6556
H25 H 0.4990(13) 0.6002(10) 0.556(2)
H26 H 0.5924(10) 0.5899(8) 0.6081(17)
H27 H 0.4050(12) 0.6062(9) 0.496(2)
H4A H 0.4938 0.3376 0.6934
N1A N 0.55614(8) 0.50959(6) 0.91159(13)
N2A N 0.50872(8) 0.44175(6) 0.85131(13)
N3A N 0.45685(7) 0.49976(6) 0.86670(13)
N4A N 0.50231(8) 0.56966(6) 0.92567(14)
N5A N 0.40810(8) 0.56010(6) 0.88292(14)
N6A N 0.59681(8) 0.57946(7) 0.97436(15)
C1A C 0.45543(9) 0.54219(7) 0.89056(15)
C2A C 0.55229(9) 0.55187(7) 0.93669(15)
C3A C 0.50743(9) 0.48476(7) 0.87649(15)
C4A C 0.44870(9) 0.38742(7) 0.72149(15)
H1A H 0.4150 0.3684 0.6998
C5A C 0.45780(9) 0.41301(7) 0.81509(16)
H2A H 0.4248 0.4316 0.7995
H3A H 0.4625 0.3918 0.8675
C7A C 0.56126(9) 0.41880(7) 0.86626(16)
H5A H 0.5766 0.4013 0.9281
H6A H 0.5893 0.4414 0.8740
C8A C 0.35547(9) 0.53444(7) 0.84728(17)
H7A H 0.3627 0.5072 0.8872
H8A H 0.3417 0.5257 0.7775
C9A C 0.65327(10) 0.56681(8) 0.99116(19)
H9A H 0.6504 0.5410 0.9495
H10A H 0.6769 0.5584 1.0612
C10A C 0.68026(10) 0.60620(8) 0.96508(18)
H11A H 0.6789 0.6327 1.0015
H12A H 0.7199 0.5993 0.9875
C11A C 0.31065(10) 0.56266(8) 0.85577(18)
H13A H 0.3246 0.5709 0.9259
H14A H 0.3048 0.5903 0.8176
C12A C 0.25428(10) 0.53861(8) 0.8177(2)
H15A H 0.2599 0.5116 0.8577
H16A H 0.2412 0.5293 0.7484
C13A C 0.65107(11) 0.61674(8) 0.85312(18)
H17A H 0.6119 0.6252 0.8314
H18A H 0.6506 0.5898 0.8164
C14A C 0.20843(11) 0.56740(9) 0.8219(2)
H19A H 0.2204 0.5759 0.8906
H20A H 0.1737 0.5505 0.7961
H21A H 0.2022 0.5940 0.7818
C15A C 0.68028(12) 0.65492(9) 0.8265(2)
H22A H 0.6812 0.6816 0.8631
H23A H 0.6595 0.6609 0.7554
H24A H 0.7184 0.6461 0.8444
H25A H 0.5010(13) 0.6002(10) 0.944(2)
H26A H 0.4076(10) 0.5899(8) 0.8919(17)
H27A H 0.5950(12) 0.6062(9) 1.004(2)
N7 N 0.51443(8) 0.77696(6) 0.66864(13)
N8 N 0.53122(8) 0.90366(6) 0.60022(14)
N9 N 0.57401(8) 0.83518(6) 0.68022(14)
N10 N 0.43405(8) 0.91143(7) 0.51291(14)
N11 N 0.47149(8) 0.84276(6) 0.58549(13)
N12 N 0.62855(8) 0.89539(6) 0.67920(14)
C16 C 0.51998(9) 0.81922(7) 0.64430(15)
C17 C 0.57811(9) 0.87696(7) 0.65447(16)
C18 C 0.47844(9) 0.88503(7) 0.56623(15)
C19 C 0.56417(9) 0.75001(7) 0.73698(16)
H29 H 0.5963 0.7698 0.7750
H30 H 0.5742 0.7296 0.6979
C20 C 0.68163(9) 0.87148(7) 0.73976(17)
H31 H 0.6793 0.8416 0.7121
H32 H 0.6877 0.8682 0.8081
C21 C 0.55110(9) 0.72297(7) 0.80962(16)
H33 H 0.5841 0.7038 0.8503
C22 C 0.37565(9) 0.89572(8) 0.47361(17)
H34 H 0.3733 0.8647 0.4518
H35 H 0.3510 0.9136 0.4150
C23 C 0.45949(10) 0.75269(8) 0.61804(16)
H36 H 0.4588 0.7340 0.5648
H37 H 0.4289 0.7745 0.5870
C24 C 0.73146(10) 0.89672(8) 0.74151(17)
H38 H 0.7318 0.9272 0.7651
H39 H 0.7664 0.8822 0.7900
C25 C 0.35422(10) 0.89857(8) 0.55035(18)
H40 H 0.3793 0.8810 0.6093
H41 H 0.3168 0.8849 0.5214
C26 C 0.5000 0.69219(10) 0.7500
H42 H 0.4934 0.6731 0.7955
C27 C 0.73119(11) 0.89924(9) 0.64076(19)
H43 H 0.7289 0.8690 0.6147
H44 H 0.6978 0.9157 0.5929
C28 C 0.30871(12) 0.97692(9) 0.5001(2)
H45 H 0.3219 0.9821 0.4521
H46 H 0.3057 1.0052 0.5283
H47 H 0.2721 0.9627 0.4670
C29 C 0.35053(12) 0.94647(8) 0.5840(2)
H48 H 0.3396 0.9449 0.6366
H49 H 0.3880 0.9601 0.6131
C30 C 0.78397(12) 0.92232(10) 0.6500(2)
H50 H 0.7854 0.9528 0.6726
H51 H 0.7828 0.9225 0.5854
H52 H 0.8172 0.9063 0.6978
H53 H 0.5362(11) 0.9325(9) 0.5874(18)
H54 H 0.6258(10) 0.9247(8) 0.6591(18)
H55 H 0.4425(11) 0.9390(9) 0.5038(19)
H42A H 0.5066 0.6731 0.7045
N7A N 0.48557(8) 0.77696(6) 0.83136(13)
N8A N 0.46878(8) 0.90366(6) 0.89978(14)
N9A N 0.42599(8) 0.83518(6) 0.81978(14)
N10A N 0.56595(8) 0.91143(7) 0.98709(14)
N11A N 0.52851(8) 0.84276(6) 0.91451(13)
N12A N 0.37145(8) 0.89539(6) 0.82080(14)
C16A C 0.48002(9) 0.81922(7) 0.85570(15)
C17A C 0.42189(9) 0.87696(7) 0.84553(16)
C18A C 0.52156(9) 0.88503(7) 0.93377(15)
C19A C 0.43583(9) 0.75001(7) 0.76302(16)
H29A H 0.4037 0.7698 0.7250
H30A H 0.4258 0.7296 0.8021
C20A C 0.31837(9) 0.87148(7) 0.76024(17)
H31A H 0.3207 0.8416 0.7879
H32A H 0.3123 0.8682 0.6919
C21A C 0.44890(9) 0.72297(7) 0.69038(16)
H33A H 0.4159 0.7038 0.6497
C22A C 0.62435(9) 0.89572(8) 1.02639(17)
H34A H 0.6267 0.8647 1.0482
H35A H 0.6490 0.9136 1.0850
C23A C 0.54051(10) 0.75269(8) 0.88196(16)
H36A H 0.5412 0.7340 0.9352
H37A H 0.5711 0.7745 0.9130
C24A C 0.26854(10) 0.89672(8) 0.75849(17)
H38A H 0.2682 0.9272 0.7349
H39A H 0.2336 0.8822 0.7100
C25A C 0.64578(10) 0.89857(8) 0.94965(18)
H40A H 0.6207 0.8810 0.8907
H41A H 0.6832 0.8849 0.9786
C27A C 0.26881(11) 0.89924(9) 0.85924(19)
H43A H 0.2711 0.8690 0.8853
H44A H 0.3022 0.9157 0.9071
C28A C 0.69129(12) 0.97692(9) 0.9999(2)
H45A H 0.6781 0.9821 1.0479
H46A H 0.6943 1.0052 0.9717
H47A H 0.7279 0.9627 1.0330
C29A C 0.64947(12) 0.94647(8) 0.9160(2)
H48A H 0.6604 0.9449 0.8634
H49A H 0.6120 0.9601 0.8869
C30A C 0.21603(12) 0.92232(10) 0.8500(2)
H50A H 0.2146 0.9528 0.8274
H51A H 0.2172 0.9225 0.9146
H52A H 0.1828 0.9063 0.8022
H53A H 0.4638(11) 0.9325(9) 0.9126(18)
H54A H 0.3742(10) 0.9247(8) 0.8409(18)
H55A H 0.5575(11) 0.9390(9) 0.9962(19)
N13 N 0.47889(9) 0.75879(7) 0.40467(15)
N14 N 0.49096(8) 0.88651(6) 0.33675(14)
N15 N 0.53637(8) 0.82147(6) 0.41922(14)
N16 N 0.43401(8) 0.82664(6) 0.32518(14)
N17 N 0.57644(9) 0.75424(7) 0.49654(16)
N18 N 0.38156(9) 0.76503(7) 0.32359(17)
C31 C 0.48707(10) 0.84374(7) 0.36050(16)
C32 C 0.43108(10) 0.78442(7) 0.34986(17)
C33 C 0.53108(10) 0.77910(7) 0.43995(16)
C34 C 0.54559(10) 0.91111(8) 0.38146(17)
H57 H 0.5766 0.8895 0.4096
H58 H 0.5484 0.9299 0.4362
C35 C 0.55184(10) 0.94066(7) 0.30433(17)
H59 H 0.5854 0.9598 0.3409
C36 C 0.43997(10) 0.91331(8) 0.27292(17)
H60 H 0.4320 0.9335 0.3150
H61 H 0.4076 0.8933 0.2383
C37 C 0.5000 0.97149(10) 0.2500
H62 H 0.5042 0.9906 0.2018
C38 C 0.29182(10) 0.75736(9) 0.38822(18)
H63 H 0.2874 0.7862 0.4140
H64 H 0.3303 0.7468 0.4312
C39 C 0.63433(11) 0.77049(8) 0.53593(18)
H65 H 0.6588 0.7542 0.5974
H66 H 0.6357 0.8022 0.5530
C40 C 0.65711(12) 0.76473(9) 0.4606(2)
H67 H 0.6360 0.7846 0.4036
H68 H 0.6966 0.7742 0.4930
C41 C 0.28217(11) 0.76322(9) 0.28177(19)
H69 H 0.2460 0.7783 0.2422
H70 H 0.2794 0.7336 0.2524
C42 C 0.32795(11) 0.78971(8) 0.2735(2)
H71 H 0.3172 0.7943 0.2030
H72 H 0.3323 0.8190 0.3047
C43 C 0.65334(12) 0.71696(9) 0.4216(2)
H73 H 0.6679 0.7167 0.3740
H74 H 0.6136 0.7082 0.3853
C44 C 0.68568(12) 0.68208(9) 0.5033(2)
H75 H 0.7243 0.6918 0.5439
H76 H 0.6853 0.6537 0.4724
H77 H 0.6679 0.6787 0.5450
C45 C 0.24936(13) 0.72342(9) 0.3907(2)
H78 H 0.2113 0.7338 0.3476
H79 H 0.2555 0.7206 0.4585
H80 H 0.2547 0.6946 0.3675
H81 H 0.4754(11) 0.7332(9) 0.423(2)
H82 H 0.3825(12) 0.7364(9) 0.339(2)
H83 H 0.5710(12) 0.7296(9) 0.509(2)
H62A H 0.4958 0.9906 0.2982
N13A N 0.52111(9) 0.75879(7) 0.09533(15)
N14A N 0.50904(8) 0.88651(6) 0.16325(14)
N15A N 0.46363(8) 0.82147(6) 0.08078(14)
N16A N 0.56599(8) 0.82664(6) 0.17482(14)
N17A N 0.42356(9) 0.75424(7) 0.00346(16)
N18A N 0.61844(9) 0.76503(7) 0.17641(17)
C31A C 0.51293(10) 0.84374(7) 0.13950(16)
C32A C 0.56892(10) 0.78442(7) 0.15014(17)
C33A C 0.46892(10) 0.77910(7) 0.06005(16)
C34A C 0.45441(10) 0.91111(8) 0.11854(17)
H57A H 0.4234 0.8895 0.0904
H58A H 0.4516 0.9299 0.0638
C35A C 0.44816(10) 0.94066(7) 0.19567(17)
H59A H 0.4146 0.9598 0.1591
C36A C 0.56003(10) 0.91331(8) 0.22708(17)
H60A H 0.5680 0.9335 0.1850
H61A H 0.5924 0.8933 0.2617
C38A C 0.70818(10) 0.75736(9) 0.11178(18)
H63A H 0.7126 0.7862 0.0860
H64A H 0.6697 0.7468 0.0688
C39A C 0.36567(11) 0.77049(8) -0.03593(18)
H65A H 0.3412 0.7542 -0.0974
H66A H 0.3643 0.8022 -0.0530
C40A C 0.34289(12) 0.76473(9) 0.0394(2)
H67A H 0.3640 0.7846 0.0964
H68A H 0.3034 0.7742 0.0070
C41A C 0.71783(11) 0.76322(9) 0.21823(19)
H69A H 0.7540 0.7783 0.2578
H70A H 0.7206 0.7336 0.2476
C42A C 0.67205(11) 0.78971(8) 0.2265(2)
H71A H 0.6828 0.7943 0.2970
H72A H 0.6677 0.8190 0.1953
C43A C 0.34666(12) 0.71696(9) 0.0784(2)
H73A H 0.3321 0.7167 0.1260
H74A H 0.3864 0.7082 0.1147
C44A C 0.31432(12) 0.68208(9) -0.0033(2)
H75A H 0.2757 0.6918 -0.0439
H76A H 0.3147 0.6537 0.0276
H77A H 0.3321 0.6787 -0.0450
C45A C 0.75064(13) 0.72342(9) 0.1093(2)
H78A H 0.7887 0.7338 0.1524
H79A H 0.7445 0.7206 0.0415
H80A H 0.7453 0.6946 0.1325
H81A H 0.5246(11) 0.7332(9) 0.077(2)
H82A H 0.6175(12) 0.7364(9) 0.161(2)
H83A H 0.4290(12) 0.7296(9) -0.009(2)
H28? H 0.5062 0.3376 0.8066
H56? H 0.4934 0.6731 0.7955
H84? H 0.5042 0.9906 0.2018
loop_
_geom_bond_atom_site_label_1
_geom_bond_atom_site_label_2
_geom_bond_site_symmetry_1
_geom_bond_site_symmetry_2
N1 C2 1_555 1_555
N2 C3 1_555 1_555
N3 C1 1_555 1_555
N4 C1 1_555 1_555
N5 C1 1_555 1_555
N6 C2 1_555 1_555
C2 N4 1_555 1_555
C3 N1 1_555 1_555
C4 H1 1_555 1_555
C5 N2 1_555 1_555
H2 C5 1_555 1_555
H3 C5 1_555 1_555
C6 C4 1_555 1_555
H4 C6 1_555 1_555
C7 N2 1_555 1_555
H5 C7 1_555 1_555
H6 C7 1_555 1_555
C8 N5 1_555 1_555
H7 C8 1_555 1_555
H8 C8 1_555 1_555
C9 N6 1_555 1_555
H9 C9 1_555 1_555
H10 C9 1_555 1_555
C10 C9 1_555 1_555
H11 C10 1_555 1_555
H12 C10 1_555 1_555
C11 C8 1_555 1_555
H13 C11 1_555 1_555
H14 C11 1_555 1_555
C12 C11 1_555 1_555
H15 C12 1_555 1_555
H16 C12 1_555 1_555
C13 C10 1_555 1_555
H17 C13 1_555 1_555
H18 C13 1_555 1_555
C14 C12 1_555 1_555
H19 C14 1_555 1_555
H20 C14 1_555 1_555
H21 C14 1_555 1_555
C15 C13 1_555 1_555
H22 C15 1_555 1_555
H23 C15 1_555 1_555
H24 C15 1_555 1_555
H25 N4 1_555 1_555
H26 N5 1_555 1_555
H27 N6 1_555 1_555
N7 C16 1_555 1_555
N8 C17 1_555 1_555
N9 C16 1_555 1_555
N10 C18 1_555 1_555
N11 C16 1_555 1_555
N12 C17 1_555 1_555
C17 N9 1_555 1_555
C18 N8 1_555 1_555
C19 N7 1_555 1_555
H29 C19 1_555 1_555
H30 C19 1_555 1_555
C20 N12 1_555 1_555
H31 C20 1_555 1_555
H32 C20 1_555 1_555
C21 C19 1_555 1_555
H33 C21 1_555 1_555
C22 N10 1_555 1_555
H34 C22 1_555 1_555
H35 C22 1_555 1_555
C23 N7 1_555 1_555
H36 C23 1_555 1_555
H37 C23 1_555 1_555
C24 C20 1_555 1_555
H38 C24 1_555 1_555
H39 C24 1_555 1_555
C25 C22 1_555 1_555
H40 C25 1_555 1_555
H41 C25 1_555 1_555
C26 C21 1_555 1_555
H42 C26 1_555 1_555
C27 C24 1_555 1_555
H43 C27 1_555 1_555
H44 C27 1_555 1_555
C28 H45 1_555 1_555
H46 C28 1_555 1_555
H47 C28 1_555 1_555
C29 C25 1_555 1_555
H48 C29 1_555 1_555
H49 C29 1_555 1_555
C30 C27 1_555 1_555
H50 C30 1_555 1_555
H51 C30 1_555 1_555
H52 C30 1_555 1_555
H53 N8 1_555 1_555
H54 N12 1_555 1_555
H55 N10 1_555 1_555
N13 C32 1_555 1_555
N14 C31 1_555 1_555
N15 C31 1_555 1_555
N16 C31 1_555 1_555
N17 C33 1_555 1_555
N18 C32 1_555 1_555
C32 N16 1_555 1_555
C33 N13 1_555 1_555
C34 N14 1_555 1_555
H57 C34 1_555 1_555
H58 C34 1_555 1_555
C35 C34 1_555 1_555
H59 C35 1_555 1_555
C36 N14 1_555 1_555
H60 C36 1_555 1_555
H61 C36 1_555 1_555
C37 C35 1_555 1_555
H62 C37 1_555 1_555
C38 H63 1_555 1_555
H64 C38 1_555 1_555
C39 N17 1_555 1_555
H65 C39 1_555 1_555
H66 C39 1_555 1_555
C40 C39 1_555 1_555
H67 C40 1_555 1_555
H68 C40 1_555 1_555
C41 C38 1_555 1_555
H69 C41 1_555 1_555
H70 C41 1_555 1_555
C42 N18 1_555 1_555
H71 C42 1_555 1_555
H72 C42 1_555 1_555
C43 C40 1_555 1_555
H73 C43 1_555 1_555
H74 C43 1_555 1_555
C44 C43 1_555 1_555
H75 C44 1_555 1_555
H76 C44 1_555 1_555
H77 C44 1_555 1_555
C45 C38 1_555 1_555
H78 C45 1_555 1_555
H79 C45 1_555 1_555
H80 C45 1_555 1_555
H81 N13 1_555 1_555
H82 N18 1_555 1_555
H83 N17 1_555 1_555
H4A C6 1_555 1_555
N1A C2A 1_555 1_555
N2A C3A 1_555 1_555
N3A C1A 1_555 1_555
N4A C1A 1_555 1_555
N5A C1A 1_555 1_555
N6A C2A 1_555 1_555
C2A N4A 1_555 1_555
C3A N1A 1_555 1_555
C4A C6 1_555 1_555
H1A C4A 1_555 1_555
C5A N2A 1_555 1_555
H2A C5A 1_555 1_555
H3A C5A 1_555 1_555
C7A C4 1_555 1_555
H5A C7A 1_555 1_555
H6A C7A 1_555 1_555
C8A N5A 1_555 1_555
H7A C8A 1_555 1_555
H8A C8A 1_555 1_555
C9A N6A 1_555 1_555
H9A C9A 1_555 1_555
H10A C9A 1_555 1_555
C10A C9A 1_555 1_555
H11A C10A 1_555 1_555
H12A C10A 1_555 1_555
C11A C8A 1_555 1_555
H13A C11A 1_555 1_555
H14A C11A 1_555 1_555
C12A C11A 1_555 1_555
H15A C12A 1_555 1_555
H16A C12A 1_555 1_555
C13A C10A 1_555 1_555
H17A C13A 1_555 1_555
H18A C13A 1_555 1_555
C14A C12A 1_555 1_555
H19A C14A 1_555 1_555
H20A C14A 1_555 1_555
H21A C14A 1_555 1_555
C15A C13A 1_555 1_555
H22A C15A 1_555 1_555
H23A C15A 1_555 1_555
H24A C15A 1_555 1_555
H25A N4A 1_555 1_555
H26A N5A 1_555 1_555
H27A N6A 1_555 1_555
H42A C26 1_555 1_555
N7A C16A 1_555 1_555
N8A C17A 1_555 1_555
N9A C16A 1_555 1_555
N10A C18A 1_555 1_555
N11A C16A 1_555 1_555
N12A C17A 1_555 1_555
C17A N9A 1_555 1_555
C18A N8A 1_555 1_555
C19A N7A 1_555 1_555
H29A C19A 1_555 1_555
H30A C19A 1_555 1_555
C20A N12A 1_555 1_555
H31A C20A 1_555 1_555
H32A C20A 1_555 1_555
C21A C23 1_555 1_555
H33A C21A 1_555 1_555
C22A N10A 1_555 1_555
H34A C22A 1_555 1_555
H35A C22A 1_555 1_555
C23A C21 1_555 1_555
H36A C23A 1_555 1_555
H37A C23A 1_555 1_555
C24A C20A 1_555 1_555
H38A C24A 1_555 1_555
H39A C24A 1_555 1_555
C25A C22A 1_555 1_555
H40A C25A 1_555 1_555
H41A C25A 1_555 1_555
C27A C24A 1_555 1_555
H43A C27A 1_555 1_555
H44A C27A 1_555 1_555
C28A H45A 1_555 1_555
H46A C28A 1_555 1_555
H47A C28A 1_555 1_555
C29A C25A 1_555 1_555
H48A C29A 1_555 1_555
H49A C29A 1_555 1_555
C30A C27A 1_555 1_555
H50A C30A 1_555 1_555
H51A C30A 1_555 1_555
H52A C30A 1_555 1_555
H53A N8A 1_555 1_555
H54A N12A 1_555 1_555
H55A N10A 1_555 1_555
H62A C37 1_555 1_555
N13A C32A 1_555 1_555
N14A C31A 1_555 1_555
N15A C31A 1_555 1_555
N16A C31A 1_555 1_555
N17A C33A 1_555 1_555
N18A C32A 1_555 1_555
C32A N16A 1_555 1_555
C33A N13A 1_555 1_555
C34A N14A 1_555 1_555
H57A C34A 1_555 1_555
H58A C34A 1_555 1_555
C35A C36 1_555 1_555
H59A C35A 1_555 1_555
C36A C35 1_555 1_555
H60A C36A 1_555 1_555
H61A C36A 1_555 1_555
C38A H63A 1_555 1_555
H64A C38A 1_555 1_555
C39A N17A 1_555 1_555
H65A C39A 1_555 1_555
H66A C39A 1_555 1_555
C40A C39A 1_555 1_555
H67A C40A 1_555 1_555
H68A C40A 1_555 1_555
C41A C38A 1_555 1_555
H69A C41A 1_555 1_555
H70A C41A 1_555 1_555
C42A N18A 1_555 1_555
H71A C42A 1_555 1_555
H72A C42A 1_555 1_555
C43A C40A 1_555 1_555
H73A C43A 1_555 1_555
H74A C43A 1_555 1_555
C44A C43A 1_555 1_555
H75A C44A 1_555 1_555
H76A C44A 1_555 1_555
H77A C44A 1_555 1_555
C45A C38A 1_555 1_555
H78A C45A 1_555 1_555
H79A C45A 1_555 1_555
H80A C45A 1_555 1_555
H81A N13A 1_555 1_555
H82A N18A 1_555 1_555
H83A N17A 1_555 1_555
N3 C3 1_555 1_555
C4 C5 1_555 1_555
C7 C4A 1_555 1_555
N11 C18 1_555 1_555
C26 C21A 1_555 1_555
C28 C29 1_555 1_555
N15 C33 1_555 1_555
C37 C35A 1_555 1_555
C41 C42 1_555 1_555
N2A C7A 1_555 1_555
N3A C3A 1_555 1_555
C4A C5A 1_555 1_555
N7A C23A 1_555 1_555
N11A C18A 1_555 1_555
C19A C21A 1_555 1_555
C28A C29A 1_555 1_555
N14A C36A 1_555 1_555
N15A C33A 1_555 1_555
C34A C35A 1_555 1_555
C41A C42A 1_555 1_555

#END
