
#######################################################################
#
#                 Cambridge Crystallographic Data Centre
#                                CCDC 
#
#######################################################################
#
# If this CIF has been generated from an entry in the Cambridge 
# Structural Database, then it will include bibliographic, chemical, 
# crystal, experimental, refinement or atomic coordinate data resulting 
# from the CCDC's data processing and validation procedures.
#
#######################################################################

data_NAPCAL
_chemical_formula_moiety         'C21 H21 N1 O5 S2'
_chemical_name_systematic        
N-(1-hydroxy-1-phenylpropan-2-yl)-N-(phenylsulfonyl)benzenesulfonamide
_symmetry_cell_setting           monoclinic
_symmetry_space_group_name_H-M   'P 21/c'
_symmetry_Int_Tables_number      14
_space_group_name_Hall           '-P 2ybc'
loop_
_symmetry_equiv_pos_site_id
_symmetry_equiv_pos_as_xyz
1 x,y,z
2 -x,1/2+y,1/2-z
3 -x,-y,-z
4 x,1/2-y,1/2+z
_cell_length_a                   9.6073(9)
_cell_length_b                   14.3976(14)
_cell_length_c                   15.3116(14)
_cell_angle_alpha                90
_cell_angle_beta                 105.700(2)
_cell_angle_gamma                90
_cell_volume                     2038.92
_exptl_crystal_colour            colorless
_exptl_crystal_description       prism
_cell_formula_units_Z            4
loop_
_atom_site_label
_atom_site_type_symbol
_atom_site_fract_x
_atom_site_fract_y
_atom_site_fract_z
C1 C 0.8202(2) 0.44488(14) 0.06395(13)
C2 C 0.9662(3) 0.44013(17) 0.10620(16)
H1 H 1.0147 0.3820 0.1146
C3 C 1.0410(3) 0.52099(18) 0.13611(17)
H2 H 1.1414 0.5187 0.1660
C4 C 0.9701(3) 0.60492(17) 0.12270(17)
H3 H 1.0219 0.6606 0.1428
C5 C 0.8257(3) 0.60855(17) 0.08074(19)
H4 H 0.7778 0.6669 0.0722
C6 C 0.7478(3) 0.52858(16) 0.05043(17)
H5 H 0.6472 0.5312 0.0211
C7 C 0.5319(2) 0.22358(14) 0.18935(13)
C8 C 0.4190(2) 0.21610(17) 0.11161(15)
H6 H 0.4129 0.2563 0.0615
C9 C 0.3153(3) 0.14874(19) 0.10840(18)
H7 H 0.2370 0.1421 0.0554
C10 C 0.3250(3) 0.09128(18) 0.18166(19)
H8 H 0.2539 0.0446 0.1784
C11 C 0.4364(3) 0.10067(16) 0.25958(17)
H9 H 0.4407 0.0618 0.3104
C12 C 0.5418(2) 0.16692(15) 0.26340(14)
H10 H 0.6202 0.1734 0.3163
C13 C 0.8128(2) 0.18044(13) 0.12235(13)
H11 H 0.7940 0.1534 0.1782
C14 C 0.9752(2) 0.18885(16) 0.14385(17)
H12 H 1.0094 0.2342 0.1927
H13 H 1.0021 0.2095 0.0896
H14 H 1.0195 0.1283 0.1632
C15 C 0.7462(2) 0.10950(14) 0.04527(14)
H15 H 0.6440 0.1279 0.0153
C16 C 0.7465(2) 0.01465(14) 0.08772(13)
C17 C 0.6271(3) -0.01446(16) 0.11387(16)
H16 H 0.5443 0.0245 0.1027
C18 C 0.6254(3) -0.09885(17) 0.15579(18)
H17 H 0.5419 -0.1178 0.1731
C19 C 0.7448(3) -0.15582(17) 0.17268(17)
H18 H 0.7446 -0.2139 0.2022
C20 C 0.8647(3) -0.12791(16) 0.14645(17)
H19 H 0.9471 -0.1672 0.1578
C21 C 0.8663(2) -0.04358(15) 0.10394(15)
H20 H 0.9493 -0.0253 0.0857
N1 N 0.73872(18) 0.27347(11) 0.11064(11)
O1 O 0.57868(17) 0.36483(11) -0.01915(10)
O2 O 0.80490(17) 0.29400(10) -0.03097(9)
O3 O 0.77681(17) 0.29465(11) 0.27776(10)
O4 O 0.60619(19) 0.39529(10) 0.16998(11)
O5 O 0.82234(19) 0.10249(11) -0.02139(10)
H21 H 0.8195 0.1566 -0.0461
S1 S 0.72588(6) 0.34275(3) 0.02164(3)
S2 S 0.66791(6) 0.30630(3) 0.19430(3)
loop_
_geom_bond_atom_site_label_1
_geom_bond_atom_site_label_2
_geom_bond_site_symmetry_1
_geom_bond_site_symmetry_2
C1 C2 1_555 1_555
C2 H1 1_555 1_555
C3 C2 1_555 1_555
H2 C3 1_555 1_555
C4 C3 1_555 1_555
H3 C4 1_555 1_555
C5 C4 1_555 1_555
H4 C5 1_555 1_555
C6 C1 1_555 1_555
H5 C6 1_555 1_555
C7 C8 1_555 1_555
C8 H6 1_555 1_555
C9 C8 1_555 1_555
H7 C9 1_555 1_555
C10 C9 1_555 1_555
H8 C10 1_555 1_555
C11 C10 1_555 1_555
H9 C11 1_555 1_555
C12 C7 1_555 1_555
H10 C12 1_555 1_555
C13 H11 1_555 1_555
C14 C13 1_555 1_555
H12 C14 1_555 1_555
H13 C14 1_555 1_555
H14 C14 1_555 1_555
C15 C13 1_555 1_555
H15 C15 1_555 1_555
C16 C15 1_555 1_555
C17 C16 1_555 1_555
H16 C17 1_555 1_555
C18 C17 1_555 1_555
H17 C18 1_555 1_555
C19 C18 1_555 1_555
H18 C19 1_555 1_555
C20 C19 1_555 1_555
H19 C20 1_555 1_555
C21 C16 1_555 1_555
H20 C21 1_555 1_555
N1 C13 1_555 1_555
O1 S1 1_555 1_555
O2 S1 1_555 1_555
O3 S2 1_555 1_555
O4 S2 1_555 1_555
O5 C15 1_555 1_555
H21 O5 1_555 1_555
S1 C1 1_555 1_555
S2 C7 1_555 1_555
C5 C6 1_555 1_555
C11 C12 1_555 1_555
C20 C21 1_555 1_555
N1 S1 1_555 1_555
N1 S2 1_555 1_555

#END
