
#######################################################################
#
#                 Cambridge Crystallographic Data Centre
#                                CCDC 
#
#######################################################################
#
# If this CIF has been generated from an entry in the Cambridge 
# Structural Database, then it will include bibliographic, chemical, 
# crystal, experimental, refinement or atomic coordinate data resulting 
# from the CCDC's data processing and validation procedures.
#
#######################################################################

data_NAPCIT
_chemical_formula_moiety         'C21 H19 N1 O5 S2'
_chemical_name_systematic        
N-(1-hydroxy-2,3-dihydro-1H-inden-2-yl)-N-(phenylsulfonyl)benzenesulfonamide
_symmetry_cell_setting           monoclinic
_symmetry_space_group_name_H-M   'P 21/c'
_symmetry_Int_Tables_number      14
_space_group_name_Hall           '-P 2ybc'
loop_
_symmetry_equiv_pos_site_id
_symmetry_equiv_pos_as_xyz
1 x,y,z
2 -x,1/2+y,1/2-z
3 -x,-y,-z
4 x,1/2-y,1/2+z
_cell_length_a                   8.7689(5)
_cell_length_b                   11.9603(6)
_cell_length_c                   18.7109(11)
_cell_angle_alpha                90
_cell_angle_beta                 97.510(2)
_cell_angle_gamma                90
_cell_volume                     1945.54
_exptl_crystal_colour            colorless
_exptl_crystal_description       prism
_cell_formula_units_Z            4
loop_
_atom_site_label
_atom_site_type_symbol
_atom_site_fract_x
_atom_site_fract_y
_atom_site_fract_z
C1 C 0.2928(3) 0.46776(19) 0.15430(12)
C2 C 0.3268(3) 0.5555(2) 0.20105(14)
H1 H 0.3881 0.5441 0.2462
C3 C 0.2705(3) 0.6606(2) 0.18147(16)
H2 H 0.2938 0.7220 0.2132
C4 C 0.1819(3) 0.6764(2) 0.11697(16)
H3 H 0.1434 0.7488 0.1040
C5 C 0.1478(4) 0.5884(2) 0.07055(15)
H4 H 0.0851 0.6001 0.0258
C6 C 0.2042(3) 0.4830(2) 0.08874(13)
H5 H 0.1822 0.4220 0.0565
C7 C 0.2052(3) 0.14916(18) 0.12570(11)
H6 H 0.1107 0.1099 0.1372
C8 C 0.1740(3) 0.17752(19) 0.04487(11)
H7 H 0.2496 0.2349 0.0352
C9 C 0.2183(3) 0.07011(19) 0.01141(12)
C10 C 0.1839(3) 0.0359(2) -0.05986(13)
H8 H 0.1213 0.0806 -0.0940
C11 C 0.2433(3) -0.0650(3) -0.07973(16)
H9 H 0.2221 -0.0895 -0.1283
C12 C 0.3329(3) -0.1305(3) -0.02992(19)
H10 H 0.3716 -0.1998 -0.0446
C13 C 0.3667(3) -0.0965(2) 0.04086(16)
H11 H 0.4283 -0.1417 0.0750
C14 C 0.3089(3) 0.00492(19) 0.06118(12)
C15 C 0.3335(3) 0.0602(2) 0.13404(12)
C16 C 0.1908(3) 0.15897(19) 0.30743(11)
C17 C 0.1412(3) 0.0492(2) 0.30421(14)
H12 H 0.0635 0.0251 0.2673
C18 C 0.2076(4) -0.0247(2) 0.35608(15)
H13 H 0.1765 -0.1009 0.3545
C19 C 0.3187(3) 0.0117(2) 0.40998(15)
H14 H 0.3640 -0.0397 0.4452
C20 C 0.3644(3) 0.1216(2) 0.41321(13)
H15 H 0.4398 0.1460 0.4511
C21 C 0.3012(3) 0.1966(2) 0.36152(12)
H16 H 0.3331 0.2726 0.3631
N1 N 0.2247(2) 0.24698(15) 0.17490(9)
O1 O 0.45608(19) 0.33998(16) 0.24662(9)
O2 O 0.4513(2) 0.29886(15) 0.11749(9)
O3 O 0.0326(3) 0.2189(2) 0.02238(12)
H17 H -0.0139 0.1758 -0.0086
H18 H 0.4384 0.0947 0.1426
H19 H 0.3176 0.0064 0.1733
O4 O -0.03446(18) 0.21403(15) 0.20992(8)
O5 O 0.12798(19) 0.36480(13) 0.26880(8)
S1 S 0.37399(6) 0.33544(5) 0.17583(3)
S2 S 0.11216(6) 0.25405(5) 0.24094(3)
H20? H 0.4381 0.0897 0.1472
O6? O 0.2880(7) -0.0248(5) 0.1820(3)
H21? H 0.3435 -0.0817 0.1800
H22? H 0.0600 0.1935 0.0317
H23? H 0.2343 0.2379 0.0335
loop_
_geom_bond_atom_site_label_1
_geom_bond_atom_site_label_2
_geom_bond_site_symmetry_1
_geom_bond_site_symmetry_2
C1 C2 1_555 1_555
C2 H1 1_555 1_555
C3 C2 1_555 1_555
H2 C3 1_555 1_555
C4 C3 1_555 1_555
H3 C4 1_555 1_555
C5 C4 1_555 1_555
H4 C5 1_555 1_555
C6 C1 1_555 1_555
H5 C6 1_555 1_555
C7 H6 1_555 1_555
C8 C7 1_555 1_555
H7 C8 1_555 1_555
C9 C8 1_555 1_555
C10 C9 1_555 1_555
H8 C10 1_555 1_555
C11 C10 1_555 1_555
H9 C11 1_555 1_555
C12 C11 1_555 1_555
H10 C12 1_555 1_555
C13 C12 1_555 1_555
H11 C13 1_555 1_555
C14 C9 1_555 1_555
C15 C7 1_555 1_555
C16 C17 1_555 1_555
C17 H12 1_555 1_555
C18 C17 1_555 1_555
H13 C18 1_555 1_555
C19 C18 1_555 1_555
H14 C19 1_555 1_555
C20 C19 1_555 1_555
H15 C20 1_555 1_555
C21 C16 1_555 1_555
H16 C21 1_555 1_555
N1 C7 1_555 1_555
O1 S1 1_555 1_555
O2 S1 1_555 1_555
O3 C8 1_555 1_555
H17 O3 1_555 1_555
H18 C15 1_555 1_555
H19 C15 1_555 1_555
O4 S2 1_555 1_555
O5 S2 1_555 1_555
S1 C1 1_555 1_555
S2 C16 1_555 1_555
C5 C6 1_555 1_555
C13 C14 1_555 1_555
C14 C15 1_555 1_555
C20 C21 1_555 1_555
N1 S1 1_555 1_555
N1 S2 1_555 1_555

#END
