
#######################################################################
#
#                 Cambridge Crystallographic Data Centre
#                                CCDC 
#
#######################################################################
#
# If this CIF has been generated from an entry in the Cambridge 
# Structural Database, then it will include bibliographic, chemical, 
# crystal, experimental, refinement or atomic coordinate data resulting 
# from the CCDC's data processing and validation procedures.
#
#######################################################################

data_NAPFOC
_chemical_formula_moiety         'C20 H16 F1 N5 O2'
_chemical_name_systematic        
4-((1,3-benzodioxol-5-ylmethyl)(2-(pyridin-2-yl)ethyl)amino)-5-fluoropyrimidine-2-carbonitrile
_symmetry_cell_setting           monoclinic
_symmetry_space_group_name_H-M   'P 21/c'
_symmetry_Int_Tables_number      14
_space_group_name_Hall           '-P 2ybc'
loop_
_symmetry_equiv_pos_site_id
_symmetry_equiv_pos_as_xyz
1 x,y,z
2 -x,1/2+y,1/2-z
3 -x,-y,-z
4 x,1/2-y,1/2+z
_cell_length_a                   8.2233(10)
_cell_length_b                   9.5928(12)
_cell_length_c                   22.265(3)
_cell_angle_alpha                90
_cell_angle_beta                 93.565(4)
_cell_angle_gamma                90
_cell_volume                     1752.96
_exptl_crystal_colour            colorless
_exptl_crystal_description       plate
_cell_formula_units_Z            4
_exptl_crystal_recrystallization_method isopropanol
loop_
_atom_site_label
_atom_site_type_symbol
_atom_site_fract_x
_atom_site_fract_y
_atom_site_fract_z
F1 F 0.62213(18) 0.44156(16) 0.07988(7)
O1 O 0.3528(2) 0.3890(2) 0.45903(8)
O2 O 0.5885(2) 0.25616(19) 0.46335(9)
N1 N 0.4974(2) 0.50570(18) 0.19642(9)
N2 N 0.7168(2) 0.65431(17) 0.21084(9)
N3 N 0.9224(2) 0.6827(2) 0.13935(10)
N4 N 0.0750(2) 0.3610(2) 0.04658(10)
C1 C 0.6346(3) 0.5606(2) 0.17549(11)
C2 C 0.4822(3) 0.4776(2) 0.30744(11)
C3 C 0.4062(3) 0.3879(2) 0.16837(11)
H1 H 0.3588 0.3315 0.2002
H2 H 0.4823 0.3276 0.1474
C4 C 0.4319(3) 0.5606(2) 0.25142(10)
H3 H 0.3115 0.5616 0.2462
H4 H 0.4690 0.6581 0.2572
C5 C 0.6995(3) 0.5300(2) 0.11976(11)
C6 C 0.6248(3) 0.3999(2) 0.31135(11)
H5 H 0.6921 0.3993 0.2782
C7 C 0.1631(3) 0.3225(2) 0.09664(11)
C8 C 0.5711(3) 0.3254(2) 0.40897(11)
C9 C 0.8522(3) 0.7078(2) 0.19012(12)
C10 C 0.4299(3) 0.4036(2) 0.40612(11)
C11 C 0.2707(3) 0.4362(2) 0.12372(11)
H6 H 0.2015 0.5034 0.1442
H7 H 0.3204 0.4867 0.0907
C12 C 0.6725(3) 0.3222(2) 0.36274(12)
H8 H 0.7708 0.2698 0.3653
C13 C 0.8393(3) 0.5905(2) 0.10374(12)
H9 H 0.8802 0.5669 0.0661
C14 C 0.3820(3) 0.4808(2) 0.35647(11)
H10 H 0.2848 0.5344 0.3551
N5 N 0.9987(3) 0.8933(3) 0.25962(12)
C15 C 0.9351(3) 0.8106(3) 0.22982(13)
C16 C 0.1508(3) 0.1906(2) 0.12094(13)
H11 H 0.2173 0.1642 0.1555
C17 C -0.0550(3) 0.1379(3) 0.04432(13)
H12 H -0.1339 0.0766 0.0258
C18 C -0.0327(3) 0.2699(3) 0.02198(13)
H13 H -0.0974 0.2977 -0.0128
C19 C 0.0398(3) 0.0974(3) 0.09397(13)
H14 H 0.0296 0.0061 0.1099
C20 C 0.4475(3) 0.2917(3) 0.49481(12)
H15 H 0.3824 0.2070 0.5018
H16 H 0.4808 0.3334 0.5343
loop_
_geom_bond_atom_site_label_1
_geom_bond_atom_site_label_2
_geom_bond_site_symmetry_1
_geom_bond_site_symmetry_2
F1 C5 1_555 1_555
O1 C10 1_555 1_555
O2 C8 1_555 1_555
N1 C1 1_555 1_555
N2 C1 1_555 1_555
N3 C9 1_555 1_555
N4 C7 1_555 1_555
C1 C5 1_555 1_555
C2 C4 1_555 1_555
C3 N1 1_555 1_555
H1 C3 1_555 1_555
H2 C3 1_555 1_555
C4 N1 1_555 1_555
H3 C4 1_555 1_555
H4 C4 1_555 1_555
C5 C13 1_555 1_555
C6 C2 1_555 1_555
H5 C6 1_555 1_555
C7 C11 1_555 1_555
C8 C10 1_555 1_555
C9 N2 1_555 1_555
C10 C14 1_555 1_555
C11 C3 1_555 1_555
H6 C11 1_555 1_555
H7 C11 1_555 1_555
C12 C6 1_555 1_555
H8 C12 1_555 1_555
C13 N3 1_555 1_555
H9 C13 1_555 1_555
C14 C2 1_555 1_555
H10 C14 1_555 1_555
N5 C15 1_555 1_555
C15 C9 1_555 1_555
C16 C7 1_555 1_555
H11 C16 1_555 1_555
C17 H12 1_555 1_555
C18 N4 1_555 1_555
H13 C18 1_555 1_555
C19 C16 1_555 1_555
H14 C19 1_555 1_555
C20 O1 1_555 1_555
H15 C20 1_555 1_555
H16 C20 1_555 1_555
O2 C20 1_555 1_555
C8 C12 1_555 1_555
C17 C18 1_555 1_555
C17 C19 1_555 1_555

#END
