
#######################################################################
#
#                 Cambridge Crystallographic Data Centre
#                                CCDC 
#
#######################################################################
#
# If this CIF has been generated from an entry in the Cambridge 
# Structural Database, then it will include bibliographic, chemical, 
# crystal, experimental, refinement or atomic coordinate data resulting 
# from the CCDC's data processing and validation procedures.
#
#######################################################################

data_NAPGOD
_chemical_formula_moiety         'C24 H23 F1 N6 O3'
_chemical_name_systematic        
4-((1,3-benzodioxol-5-ylmethyl)(2-(2-methyl-4-oxo-6,7,8,9-tetrahydro-4H-pyrido[1,2-a]pyrimidin-3-yl)ethyl)amino)-5-fluoropyrimidine-2-carbonitrile
_symmetry_cell_setting           monoclinic
_symmetry_space_group_name_H-M   'C 2/c'
_symmetry_Int_Tables_number      15
_space_group_name_Hall           '-C 2yn'
loop_
_symmetry_equiv_pos_site_id
_symmetry_equiv_pos_as_xyz
1 x,y,z
2 -x,y,1/2-z
3 1/2+x,1/2+y,z
4 1/2-x,1/2+y,1/2-z
5 -x,-y,-z
6 x,-y,1/2+z
7 1/2-x,1/2-y,-z
8 1/2+x,1/2-y,1/2+z
_cell_length_a                   16.9115(15)
_cell_length_b                   18.3353(14)
_cell_length_c                   14.5401(13)
_cell_angle_alpha                90
_cell_angle_beta                 109.081(4)
_cell_angle_gamma                90
_cell_volume                     4260.84
_exptl_crystal_colour            colorless
_exptl_crystal_description       block
_cell_formula_units_Z            8
loop_
_atom_site_label
_atom_site_type_symbol
_atom_site_fract_x
_atom_site_fract_y
_atom_site_fract_z
F1 F 0.22099(6) 0.60125(5) 0.28172(7)
O1 O 0.20906(8) 0.14456(6) 0.38380(9)
O2 O 0.38671(7) 0.32723(6) 0.28012(8)
O3 O 0.13287(8) 0.17808(6) 0.48342(9)
N1 N 0.51297(8) 0.36356(6) 0.38471(10)
N2 N 0.17495(8) 0.44967(6) 0.23194(10)
N3 N 0.54935(9) 0.48724(7) 0.40811(11)
N4 N 0.04332(8) 0.49317(7) 0.14628(10)
N5 N 0.00759(9) 0.62038(7) 0.13050(11)
N6 N -0.15933(10) 0.51530(8) 0.01155(12)
C1 C 0.43286(10) 0.37829(8) 0.32017(12)
C2 C 0.65501(11) 0.40048(9) 0.48862(13)
H1 H 0.6587 0.4108 0.5567
H2 H 0.6950 0.4332 0.4722
C3 C 0.56841(10) 0.41858(8) 0.42361(12)
C4 C 0.41099(10) 0.45433(7) 0.30559(12)
C5 C 0.32339(10) 0.47000(9) 0.24167(13)
H3 H 0.3095 0.4392 0.1825
H4 H 0.3188 0.5217 0.2212
C6 C 0.26188(10) 0.45443(8) 0.29618(12)
H5 H 0.2775 0.4079 0.3321
H6 H 0.2664 0.4936 0.3445
C7 C 0.14892(11) 0.37575(8) 0.19492(12)
H7 H 0.1898 0.3558 0.1660
H8 H 0.0938 0.3783 0.1430
C8 C 0.14284(10) 0.32515(8) 0.27436(12)
C9 C 0.18472(11) 0.25789(8) 0.28738(12)
H9 H 0.2172 0.2438 0.2479
C10 C 0.17663(11) 0.21335(8) 0.35975(12)
C11 C 0.19366(12) 0.12725(9) 0.47232(13)
H10 H 0.2461 0.1311 0.5282
H11 H 0.1722 0.0768 0.4697
C12 C 0.46987(11) 0.50526(8) 0.35067(13)
C13 C 0.45583(14) 0.58616(8) 0.34240(17)
H12 H 0.4930 0.6080 0.3105
H13 H 0.4679 0.6071 0.4075
H14 H 0.3975 0.5961 0.3037
C14 C 0.53299(10) 0.28536(8) 0.40399(13)
H15 H 0.5406 0.2628 0.3456
H16 H 0.4854 0.2607 0.4164
C15 C 0.12276(10) 0.50675(8) 0.20211(12)
C16 C -0.00740(10) 0.54989(8) 0.11506(12)
C17 C 0.08684(11) 0.63464(8) 0.18793(13)
H17 H 0.1031 0.6839 0.2032
C18 C 0.14394(10) 0.58117(8) 0.22452(12)
C19 C -0.09315(12) 0.53082(8) 0.05608(13)
C20 C 0.09675(11) 0.34451(9) 0.33376(13)
H18 H 0.0689 0.3903 0.3240
C21 C 0.08999(11) 0.29859(9) 0.40758(13)
H19 H 0.0584 0.3121 0.4482
C22 C 0.13108(11) 0.23316(8) 0.41847(13)
C23 C 0.68150(14) 0.32304(12) 0.48245(19)
H20 H 0.7341 0.3126 0.5359
H21 H 0.6912 0.3146 0.4197
C24 C 0.61159(12) 0.27366(11) 0.49056(15)
H22 H 0.6293 0.2220 0.4928
H23 H 0.5999 0.2846 0.5515
H24? H 0.6677 0.4278 0.5505
H25? H 0.6962 0.4149 0.4568
H26? H 0.5083 0.6114 0.3766
H27? H 0.4132 0.5996 0.3716
H28? H 0.4368 0.6003 0.2736
H29? H 0.5020 0.2589 0.3436
H30? H 0.5081 0.2702 0.4539
C25? C 0.6616(17) 0.3138(9) 0.5103(18)
H31? H 0.7221 0.3024 0.5356
H32? H 0.6399 0.3061 0.5651
C26? C 0.6224(10) 0.2556(11) 0.437(2)
H33? H 0.6264 0.2067 0.4670
H34? H 0.6463 0.2543 0.3832
loop_
_geom_bond_atom_site_label_1
_geom_bond_atom_site_label_2
_geom_bond_site_symmetry_1
_geom_bond_site_symmetry_2
F1 C18 1_555 1_555
O1 C10 1_555 1_555
O2 C1 1_555 1_555
O3 C11 1_555 1_555
N1 C1 1_555 1_555
N2 C6 1_555 1_555
N3 C3 1_555 1_555
N4 C15 1_555 1_555
N5 C16 1_555 1_555
N6 C19 1_555 1_555
C1 C4 1_555 1_555
C2 H1 1_555 1_555
H2 C2 1_555 1_555
C3 N1 1_555 1_555
C4 C5 1_555 1_555
C5 H3 1_555 1_555
H4 C5 1_555 1_555
C6 C5 1_555 1_555
H5 C6 1_555 1_555
H6 C6 1_555 1_555
C7 N2 1_555 1_555
H7 C7 1_555 1_555
H8 C7 1_555 1_555
C8 C7 1_555 1_555
C9 C8 1_555 1_555
H9 C9 1_555 1_555
C10 C9 1_555 1_555
C11 O1 1_555 1_555
H10 C11 1_555 1_555
H11 C11 1_555 1_555
C12 N3 1_555 1_555
C13 C12 1_555 1_555
H12 C13 1_555 1_555
H13 C13 1_555 1_555
H14 C13 1_555 1_555
C14 N1 1_555 1_555
H15 C14 1_555 1_555
H16 C14 1_555 1_555
C15 N2 1_555 1_555
C16 N4 1_555 1_555
C17 N5 1_555 1_555
H17 C17 1_555 1_555
C18 C15 1_555 1_555
C19 C16 1_555 1_555
C20 C8 1_555 1_555
H18 C20 1_555 1_555
C21 C20 1_555 1_555
H19 C21 1_555 1_555
C22 O3 1_555 1_555
C23 C2 1_555 1_555
H20 C23 1_555 1_555
H21 C23 1_555 1_555
C24 C14 1_555 1_555
H22 C24 1_555 1_555
H23 C24 1_555 1_555
C2 C3 1_555 1_555
C4 C12 1_555 1_555
C10 C22 1_555 1_555
C17 C18 1_555 1_555
C21 C22 1_555 1_555
C23 C24 1_555 1_555

#END
