
#######################################################################
#
#                 Cambridge Crystallographic Data Centre
#                                CCDC 
#
#######################################################################
#
# If this CIF has been generated from an entry in the Cambridge 
# Structural Database, then it will include bibliographic, chemical, 
# crystal, experimental, refinement or atomic coordinate data resulting 
# from the CCDC's data processing and validation procedures.
#
#######################################################################

data_NAPLIA
_chemical_formula_moiety         'C20 H37 N3 O6'
_chemical_name_systematic        
't-Butoxycarbonyl-\f-aminovaleryl-\a-isobutyryl-valine methyl ester'
_symmetry_cell_setting           orthorhombic
_symmetry_space_group_name_H-M   'P 21 21 21'
_symmetry_Int_Tables_number      19
_space_group_name_Hall           'P 2ac 2ab'
loop_
_symmetry_equiv_pos_site_id
_symmetry_equiv_pos_as_xyz
1 x,y,z
2 -x,1/2+y,1/2-z
3 1/2+x,1/2-y,-z
4 1/2-x,-y,1/2+z
_cell_length_a                   6.143(8)
_cell_length_b                   13.156(15)
_cell_length_c                   29.503(32)
_cell_angle_alpha                90
_cell_angle_beta                 90
_cell_angle_gamma                90
_cell_volume                     2384.35
_exptl_crystal_colour            white
_exptl_crystal_description       needle
_chemical_melting_point          110-112deg.C
_cell_formula_units_Z            4
_exptl_crystal_recrystallization_method methanol/water
loop_
_atom_site_label
_atom_site_type_symbol
_atom_site_fract_x
_atom_site_fract_y
_atom_site_fract_z
O1 O -0.0549(7) 0.6074(3) 0.39422(13)
C1 C -0.1329(10) 0.5898(5) 0.4410(2)
C2 C -0.3091(13) 0.5110(6) 0.4336(3)
H1 H -0.4259(35) 0.5404(12) 0.4165(14)
H2 H -0.3632(56) 0.4883(27) 0.4624(3)
H3 H -0.2499(22) 0.4542(17) 0.4173(14)
C3 C 0.0508(14) 0.5464(7) 0.4693(3)
H4 H 0.1074(54) 0.4866(22) 0.4548(9)
H5 H -0.0031(23) 0.5289(35) 0.4988(6)
H6 H 0.1644(38) 0.5960(15) 0.4721(14)
C4 C -0.2273(14) 0.6847(6) 0.4610(3)
H7 H -0.1172(25) 0.7364(13) 0.4623(16)
H8 H -0.2794(75) 0.6707(11) 0.4910(7)
H9 H -0.3459(54) 0.7079(22) 0.4425(10)
C5 C 0.1067(10) 0.6746(5) 0.3853(2)
O2 O 0.2076(8) 0.7224(4) 0.4130(2)
N1 N 0.1434(8) 0.6797(4) 0.3402(2)
H10 H 0.0597(8) 0.6459(4) 0.3224(2)
C6 C 0.3201(10) 0.7405(5) 0.3202(3)
H11 H 0.2851(10) 0.7545(5) 0.2887(3)
H12 H 0.3286(10) 0.8051(5) 0.3359(3)
C7 C 0.5315(10) 0.6911(5) 0.3223(2)
H13 H 0.5692(10) 0.6820(5) 0.3540(2)
H14 H 0.6383(10) 0.7368(5) 0.3093(2)
C8 C 0.5529(11) 0.5906(5) 0.2992(2)
H15 H 0.4284(11) 0.5494(5) 0.3077(2)
H16 H 0.6815(11) 0.5572(5) 0.3112(2)
C9 C 0.5692(10) 0.5905(5) 0.2478(2)
H17 H 0.5831(10) 0.5211(5) 0.2370(2)
H18 H 0.4374(10) 0.6191(5) 0.2350(2)
C10 C 0.7639(8) 0.6520(4) 0.2323(2)
O3 O 0.9465(6) 0.6383(3) 0.24794(13)
N2 N 0.7245(6) 0.7230(3) 0.19998(13)
H19 H 0.5991(6) 0.7237(3) 0.18699(13)
C11 C 0.8871(8) 0.7986(4) 0.1863(2)
C12 C 0.7976(9) 0.8585(4) 0.1461(2)
H20 H 0.7734(53) 0.8131(6) 0.1211(4)
H21 H 0.9005(26) 0.9098(18) 0.1374(8)
H22 H 0.6626(30) 0.8900(22) 0.1545(4)
C13 C 0.9357(10) 0.8721(4) 0.2257(2)
H23 H 0.8044(15) 0.9067(19) 0.2343(8)
H24 H 1.0425(41) 0.9210(16) 0.2162(4)
H25 H 0.9905(52) 0.8344(5) 0.2511(4)
C14 C 1.0966(8) 0.7447(4) 0.1703(2)
O4 O 1.2791(6) 0.7814(3) 0.17804(14)
N3 N 1.0699(7) 0.6615(3) 0.14525(13)
H26 H 0.9405(7) 0.6381(3) 0.14143(13)
C15 C 1.2506(8) 0.6090(4) 0.1241(2)
H27 H 1.3694(8) 0.6067(4) 0.1463(2)
C16 C 1.3298(9) 0.6711(5) 0.0838(2)
O5 O 1.2178(7) 0.7207(4) 0.0601(2)
O6 O 1.5412(7) 0.6556(3) 0.07656(12)
C17 C 1.6352(11) 0.7076(6) 0.0378(2)
H28 H 1.5883(53) 0.6749(20) 0.0104(2)
H29 H 1.7911(11) 0.7050(26) 0.0397(7)
H30 H 1.5883(53) 0.7772(10) 0.0377(8)
C18 C 1.1956(11) 0.4984(5) 0.1114(2)
H31 H 1.3261(11) 0.4695(5) 0.0973(2)
C19 C 1.0137(13) 0.4896(6) 0.0771(3)
H32 H 0.9907(52) 0.4193(7) 0.0697(12)
H33 H 1.0522(35) 0.5262(30) 0.0501(7)
H34 H 0.8825(23) 0.5176(33) 0.0896(7)
C20 C 1.1526(17) 0.4388(6) 0.1531(3)
H35 H 1.2801(33) 0.4389(35) 0.1719(9)
H36 H 1.1163(90) 0.3701(13) 0.1451(3)
H37 H 1.0334(60) 0.4688(26) 0.1694(10)
loop_
_geom_bond_atom_site_label_1
_geom_bond_atom_site_label_2
_geom_bond_site_symmetry_1
_geom_bond_site_symmetry_2
O1 C1 1_555 1_555
C1 C2 1_555 1_555
C2 H1 1_555 1_555
H2 C2 1_555 1_555
H3 C2 1_555 1_555
C3 C1 1_555 1_555
H4 C3 1_555 1_555
H5 C3 1_555 1_555
H6 C3 1_555 1_555
C4 C1 1_555 1_555
H7 C4 1_555 1_555
H8 C4 1_555 1_555
H9 C4 1_555 1_555
C5 O1 1_555 1_555
O2 C5 1_555 1_555
N1 C5 1_555 1_555
H10 N1 1_555 1_555
C6 N1 1_555 1_555
H11 C6 1_555 1_555
H12 C6 1_555 1_555
C7 C6 1_555 1_555
H13 C7 1_555 1_555
H14 C7 1_555 1_555
C8 C7 1_555 1_555
H15 C8 1_555 1_555
H16 C8 1_555 1_555
C9 C8 1_555 1_555
H17 C9 1_555 1_555
H18 C9 1_555 1_555
C10 C9 1_555 1_555
O3 C10 1_555 1_555
N2 C10 1_555 1_555
H19 N2 1_555 1_555
C11 N2 1_555 1_555
C12 C11 1_555 1_555
H20 C12 1_555 1_555
H21 C12 1_555 1_555
H22 C12 1_555 1_555
C13 C11 1_555 1_555
H23 C13 1_555 1_555
H24 C13 1_555 1_555
H25 C13 1_555 1_555
C14 C11 1_555 1_555
O4 C14 1_555 1_555
N3 C14 1_555 1_555
H26 N3 1_555 1_555
C15 N3 1_555 1_555
H27 C15 1_555 1_555
C16 C15 1_555 1_555
O5 C16 1_555 1_555
O6 C16 1_555 1_555
C17 O6 1_555 1_555
H28 C17 1_555 1_555
H29 C17 1_555 1_555
H30 C17 1_555 1_555
C18 C15 1_555 1_555
H31 C18 1_555 1_555
C19 C18 1_555 1_555
H32 C19 1_555 1_555
H33 C19 1_555 1_555
H34 C19 1_555 1_555
C20 C18 1_555 1_555
H35 C20 1_555 1_555
H36 C20 1_555 1_555
H37 C20 1_555 1_555

#END
