
#######################################################################
#
#                 Cambridge Crystallographic Data Centre
#                                CCDC 
#
#######################################################################
#
# If this CIF has been generated from an entry in the Cambridge 
# Structural Database, then it will include bibliographic, chemical, 
# crystal, experimental, refinement or atomic coordinate data resulting 
# from the CCDC's data processing and validation procedures.
#
#######################################################################

data_NAPPEB
_chemical_formula_moiety         'C37 H48 N2'
_chemical_name_systematic        
N-((2-((2,6-Diisopropylphenyl)amino)cyclohex-1-en-1-yl)(phenyl)methylene)-2,6-diisopropylaniline
_symmetry_cell_setting           triclinic
_symmetry_space_group_name_H-M   'P -1'
_symmetry_Int_Tables_number      2
_space_group_name_Hall           '-P 1'
loop_
_symmetry_equiv_pos_site_id
_symmetry_equiv_pos_as_xyz
1 x,y,z
2 -x,-y,-z
_cell_length_a                   10.8485(5)
_cell_length_b                   12.7284(7)
_cell_length_c                   13.2348(4)
_cell_angle_alpha                65.748(4)
_cell_angle_beta                 86.290(3)
_cell_angle_gamma                71.699(5)
_cell_volume                     1577.59
_exptl_crystal_colour            colorless
_exptl_crystal_description       block
_cell_formula_units_Z            2
loop_
_atom_site_label
_atom_site_type_symbol
_atom_site_fract_x
_atom_site_fract_y
_atom_site_fract_z
N1 N 0.91886(12) -0.13239(11) 0.30618(9)
C1 C 0.89999(13) -0.12853(12) 0.40735(10)
N2 N 0.76390(11) 0.09421(10) 0.22333(8)
C2 C 0.82063(13) -0.02688(12) 0.41958(10)
C3 C 0.74962(13) 0.08257(12) 0.32564(10)
C4 C 0.97446(15) -0.24221(13) 0.50549(11)
H1 H 1.0684 -0.2512 0.5014
H2 H 0.9620 -0.3134 0.4997
C5 C 0.93407(15) -0.24305(13) 0.61781(11)
H3 H 0.8507 -0.2611 0.6334
H4 H 1.0009 -0.3074 0.6768
C6 C 0.91846(14) -0.12088(13) 0.61857(11)
H5 H 1.0008 -0.1014 0.6004
H6 H 0.8981 -0.1238 0.6935
C7 C 0.80953(14) -0.02366(13) 0.53385(11)
H7 H 0.8096 0.0570 0.5263
H8 H 0.7252 -0.0338 0.5617
C8 C 0.54424(14) 0.17074(14) 0.40272(11)
H9 H 0.5257 0.0967 0.4237
C9 C 0.45861(16) 0.26432(15) 0.42431(13)
H10 H 0.3812 0.2546 0.4593
C10 C 0.48529(17) 0.37183(15) 0.39509(13)
H11 H 0.4265 0.4360 0.4101
C11 C 0.59736(17) 0.38579(14) 0.34406(12)
H12 H 0.6158 0.4597 0.3240
C12 C 0.68313(15) 0.29284(13) 0.32181(11)
H13 H 0.7602 0.3033 0.2867
C13 C 0.99496(14) -0.23850(12) 0.29038(10)
C14 C 1.12747(14) -0.25648(13) 0.27232(11)
C15 C 1.19977(15) -0.36303(13) 0.26282(12)
H14 H 1.2898 -0.3770 0.2515
C16 C 1.14393(16) -0.44888(13) 0.26948(12)
H15 H 1.1957 -0.5222 0.2650
C17 C 1.01285(16) -0.42772(13) 0.28264(12)
H16 H 0.9744 -0.4862 0.2850
C18 C 0.93528(15) -0.32269(13) 0.29253(11)
C19 C 0.79039(15) -0.30257(15) 0.30294(13)
H17 H 0.7509 -0.2247 0.3117
C20 C 0.72555(18) -0.29076(18) 0.19779(15)
H18 H 0.7427 -0.2248 0.1331
H19 H 0.6314 -0.2728 0.2041
H20 H 0.7610 -0.3671 0.1888
C21 C 0.76349(18) -0.40464(18) 0.40483(14)
H21 H 0.6693 -0.3874 0.4103
H22 H 0.8035 -0.4102 0.4719
H23 H 0.8005 -0.4818 0.3976
C22 C 1.19295(15) -0.16222(14) 0.25794(13)
H24 H 1.1285 -0.0944 0.2716
C23 C 1.23162(18) -0.11023(16) 0.13771(14)
H25 H 1.2985 -0.1744 0.1239
H26 H 1.2661 -0.0440 0.1267
H27 H 1.1550 -0.0792 0.0860
C24 C 1.31185(17) -0.21345(18) 0.33955(15)
H28 H 1.2865 -0.2479 0.4157
H29 H 1.3470 -0.1483 0.3307
H30 H 1.3784 -0.2770 0.3247
C25 C 0.69056(13) 0.20179(12) 0.13230(10)
C26 C 0.56204(14) 0.21696(13) 0.10327(11)
C27 C 0.49781(15) 0.31848(15) 0.00865(12)
H31 H 0.4114 0.3294 -0.0131
C28 C 0.55700(16) 0.40345(15) -0.05406(12)
H32 H 0.5111 0.4726 -0.1177
C29 C 0.68275(16) 0.38767(14) -0.02399(12)
H33 H 0.7226 0.4470 -0.0672
C30 C 0.75284(14) 0.28678(13) 0.06824(11)
C31 C 0.89365(15) 0.26604(14) 0.09776(12)
H34 H 0.9101 0.2185 0.1801
C32 C 0.98402(16) 0.18874(17) 0.04366(15)
H35 H 0.9641 0.1127 0.0655
H36 H 1.0746 0.1706 0.0680
H37 H 0.9715 0.2333 -0.0373
C33 C 0.9269(2) 0.38248(18) 0.06907(15)
H38 H 0.9213 0.4271 -0.0119
H39 H 1.0154 0.3621 0.0995
H40 H 0.8652 0.4331 0.1012
C34 C 0.49806(15) 0.12109(15) 0.16803(12)
H41 H 0.5395 0.0777 0.2456
C35 C 0.35220(17) 0.1719(2) 0.17480(16)
H42 H 0.3352 0.2351 0.2028
H43 H 0.3198 0.1064 0.2253
H44 H 0.3077 0.2068 0.1007
C36 C 0.5264(2) 0.02885(19) 0.11757(17)
H45 H 0.4838 0.0682 0.0424
H46 H 0.4932 -0.0378 0.1636
H47 H 0.6206 -0.0033 0.1142
C37 C 0.65732(13) 0.18403(12) 0.35055(10)
H48 H 0.8769(15) -0.0613(15) 0.2483(13)
loop_
_geom_bond_atom_site_label_1
_geom_bond_atom_site_label_2
_geom_bond_site_symmetry_1
_geom_bond_site_symmetry_2
N1 C1 1_555 1_555
C1 C2 1_555 1_555
N2 C3 1_555 1_555
C2 C3 1_555 1_555
C3 C37 1_555 1_555
C4 C1 1_555 1_555
H1 C4 1_555 1_555
H2 C4 1_555 1_555
C5 C4 1_555 1_555
H3 C5 1_555 1_555
H4 C5 1_555 1_555
C6 C5 1_555 1_555
H5 C6 1_555 1_555
H6 C6 1_555 1_555
C7 C2 1_555 1_555
H7 C7 1_555 1_555
H8 C7 1_555 1_555
C8 H9 1_555 1_555
C9 C8 1_555 1_555
H10 C9 1_555 1_555
C10 C9 1_555 1_555
H11 C10 1_555 1_555
C11 C10 1_555 1_555
H12 C11 1_555 1_555
C12 C11 1_555 1_555
H13 C12 1_555 1_555
C13 N1 1_555 1_555
C14 C13 1_555 1_555
C15 C14 1_555 1_555
H14 C15 1_555 1_555
C16 C15 1_555 1_555
H15 C16 1_555 1_555
C17 C16 1_555 1_555
H16 C17 1_555 1_555
C18 C13 1_555 1_555
C19 C18 1_555 1_555
H17 C19 1_555 1_555
C20 C19 1_555 1_555
H18 C20 1_555 1_555
H19 C20 1_555 1_555
H20 C20 1_555 1_555
C21 C19 1_555 1_555
H21 C21 1_555 1_555
H22 C21 1_555 1_555
H23 C21 1_555 1_555
C22 C14 1_555 1_555
H24 C22 1_555 1_555
C23 C22 1_555 1_555
H25 C23 1_555 1_555
H26 C23 1_555 1_555
H27 C23 1_555 1_555
C24 C22 1_555 1_555
H28 C24 1_555 1_555
H29 C24 1_555 1_555
H30 C24 1_555 1_555
C25 N2 1_555 1_555
C26 C25 1_555 1_555
C27 C26 1_555 1_555
H31 C27 1_555 1_555
C28 C27 1_555 1_555
H32 C28 1_555 1_555
C29 C28 1_555 1_555
H33 C29 1_555 1_555
C30 C25 1_555 1_555
C31 C30 1_555 1_555
H34 C31 1_555 1_555
C32 C31 1_555 1_555
H35 C32 1_555 1_555
H36 C32 1_555 1_555
H37 C32 1_555 1_555
C33 C31 1_555 1_555
H38 C33 1_555 1_555
H39 C33 1_555 1_555
H40 C33 1_555 1_555
C34 C26 1_555 1_555
H41 C34 1_555 1_555
C35 C34 1_555 1_555
H42 C35 1_555 1_555
H43 C35 1_555 1_555
H44 C35 1_555 1_555
C36 C34 1_555 1_555
H45 C36 1_555 1_555
H46 C36 1_555 1_555
H47 C36 1_555 1_555
C37 C8 1_555 1_555
H48 N1 1_555 1_555
C6 C7 1_555 1_555
C12 C37 1_555 1_555
C17 C18 1_555 1_555
C29 C30 1_555 1_555

#END
