
#######################################################################
#
#                 Cambridge Crystallographic Data Centre
#                                CCDC 
#
#######################################################################
#
# If this CIF has been generated from an entry in the Cambridge 
# Structural Database, then it will include bibliographic, chemical, 
# crystal, experimental, refinement or atomic coordinate data resulting 
# from the CCDC's data processing and validation procedures.
#
#######################################################################

data_NAPTEG
_chemical_formula_moiety         'C17 H16 N4 O2 2+,3(H2 O1),2(H1 Cl1),2(Cl1 1-)'
_chemical_name_systematic        
'2-hydroxy-8-methyl-3-[(8-methyl-2-oxoimidazo[1,2-a]pyridin-1-ium-3(2H)-ylidene)methyl]imidazo[1,2-a]pyridin-1-ium bis(chloride) bis(hydrogen chloride) trihydrate'
_symmetry_cell_setting           monoclinic
_symmetry_space_group_name_H-M   'P 21/c'
_symmetry_Int_Tables_number      14
_space_group_name_Hall           '-P 2ybc'
loop_
_symmetry_equiv_pos_site_id
_symmetry_equiv_pos_as_xyz
1 x,y,z
2 -x,1/2+y,1/2-z
3 -x,-y,-z
4 x,1/2-y,1/2+z
_cell_length_a                   14.286(3)
_cell_length_b                   18.347(4)
_cell_length_c                   8.7466(17)
_cell_angle_alpha                90
_cell_angle_beta                 98.20(3)
_cell_angle_gamma                90
_cell_volume                     2269.09
_exptl_crystal_colour            'pale yellow'
_exptl_crystal_description       block
_cell_formula_units_Z            4
loop_
_atom_site_label
_atom_site_type_symbol
_atom_site_fract_x
_atom_site_fract_y
_atom_site_fract_z
C1 C 0.3398(3) -0.1655(2) 0.0625(6)
H1 H 0.3198 -0.2025 0.1228
C2 C 0.4219(4) -0.1715(2) 0.0012(7)
H2 H 0.4595 -0.2126 0.0224
C3 C 0.4501(3) -0.1171(2) -0.0924(6)
H3 H 0.5055 -0.1234 -0.1354
C4 C 0.3988(3) -0.0542(2) -0.1235(4)
C5 C 0.3164(2) -0.04965(19) -0.0557(4)
C6 C 0.1824(2) -0.01095(19) 0.0214(4)
C7 C 0.2012(2) -0.08257(18) 0.0847(4)
C8 C 0.1534(2) -0.12791(18) 0.1705(4)
H4 H 0.184(3) -0.170(3) 0.193(5)
C9 C 0.0740(2) -0.11763(17) 0.2428(4)
C10 C 0.0227(2) -0.05509(18) 0.2816(4)
C11 C -0.0383(2) -0.15069(19) 0.3887(4)
C12 C -0.0931(2) -0.19582(19) 0.4689(4)
C13 C -0.0740(3) -0.2694(2) 0.4629(4)
H5 H -0.108(3) -0.295(2) 0.497(5)
C14 C -0.0027(3) -0.29586(19) 0.3839(4)
H6 H 0.007(3) -0.355(3) 0.382(5)
C15 C 0.0508(3) -0.24960(18) 0.3104(4)
H7 H 0.092(3) -0.261(2) 0.264(4)
C16 C 0.4253(3) 0.0062(2) -0.2247(5)
H8 H 0.3790 0.0444 -0.2293
H9 H 0.4862 0.0251 -0.1829
H10 H 0.4275 -0.0123 -0.3268
C17 C -0.1669(3) -0.1626(2) 0.5532(5)
H11 H -0.1668 -0.1106 0.5404
H12 H -0.2279 -0.1816 0.5122
H13 H -0.1532 -0.1743 0.6611
N1 N 0.2880(2) -0.10337(15) 0.0326(3)
N2 N 0.2516(2) 0.00558(17) -0.0639(3)
H14 H 0.261(3) 0.0464(15) -0.105(5)
N3 N 0.03152(19) -0.17658(15) 0.3133(3)
N4 N -0.0426(2) -0.07722(15) 0.3689(3)
H15 H -0.085(3) -0.055(2) 0.407(5)
O1 O 0.11436(19) 0.03154(15) 0.0308(3)
O2 O 0.0322(2) 0.01225(13) 0.2512(3)
H16 H 0.053(5) 0.034(4) 0.148(8)
Cl1 Cl 0.27808(8) 0.16566(5) 0.85475(13)
Cl2 Cl 0.33007(7) 0.03120(6) 1.33251(12)
Cl3 Cl 0.77908(8) 0.17249(6) 0.37805(16)
H17 H 0.718(10) 0.206(10) 0.227(19)
O3 O 0.6235(3) 0.1260(2) 0.5679(5)
H18 H 0.661(4) 0.138(3) 0.505(7)
H19 H 0.639(3) 0.0847(16) 0.605(5)
O4 O -0.1787(3) 0.01017(19) 0.4416(5)
H20 H -0.178(4) 0.055(3) 0.434(6)
H21 H -0.206(4) 0.001(3) 0.497(7)
Cl4? Cl 0.3854(2) 0.2442(2) 1.6218(4)
O5? O 0.4547(3) 0.1513(2) 1.4647(6)
H22? H 0.435(3) 0.183(2) 1.526(5)
H23? H 0.5166(14) 0.151(4) 1.490(8)
H24? H 0.452(3) 0.134(3) 1.547(5)
loop_
_geom_bond_atom_site_label_1
_geom_bond_atom_site_label_2
_geom_bond_site_symmetry_1
_geom_bond_site_symmetry_2
C1 H1 1_555 1_555
C2 C1 1_555 1_555
H2 C2 1_555 1_555
C3 C2 1_555 1_555
H3 C3 1_555 1_555
C4 C3 1_555 1_555
C5 C4 1_555 1_555
C6 C7 1_555 1_555
C7 C8 1_555 1_555
C8 H4 1_555 1_555
C9 C8 1_555 1_555
C10 C9 1_555 1_555
C11 C12 1_555 1_555
C12 C13 1_555 1_555
C13 H5 1_555 1_555
C14 C13 1_555 1_555
H6 C14 1_555 1_555
C15 C14 1_555 1_555
H7 C15 1_555 1_555
C16 C4 1_555 1_555
H8 C16 1_555 1_555
H9 C16 1_555 1_555
H10 C16 1_555 1_555
C17 C12 1_555 1_555
H11 C17 1_555 1_555
H12 C17 1_555 1_555
H13 C17 1_555 1_555
N1 C1 1_555 1_555
N2 C5 1_555 1_555
H14 N2 1_555 1_555
N3 C9 1_555 1_555
N4 C10 1_555 1_555
H15 N4 1_555 1_555
O1 C6 1_555 1_555
O2 C10 1_555 1_555
H16 O2 1_555 1_555
Cl3 H17 1_555 1_555
O3 H18 1_555 1_555
H19 O3 1_555 1_555
O4 H20 1_555 1_555
H21 O4 1_555 1_555
C5 N1 1_555 1_555
C6 N2 1_555 1_555
C7 N1 1_555 1_555
C11 N3 1_555 1_555
C11 N4 1_555 1_555
C15 N3 1_555 1_555

#END
