
#######################################################################
#
#                 Cambridge Crystallographic Data Centre
#                                CCDC 
#
#######################################################################
#
# If this CIF has been generated from an entry in the Cambridge 
# Structural Database, then it will include bibliographic, chemical, 
# crystal, experimental, refinement or atomic coordinate data resulting 
# from the CCDC's data processing and validation procedures.
#
#######################################################################

data_NAPVEH
_chemical_formula_moiety         'C9 H21 N3 O3 S1'
_chemical_name_systematic        
4-((bis(dimethylamino)methylene)ammonio)butane-1-sulfonate
_symmetry_cell_setting           monoclinic
_symmetry_space_group_name_H-M   'P 21/n'
_symmetry_Int_Tables_number      14
_space_group_name_Hall           '-P 2yn'
loop_
_symmetry_equiv_pos_site_id
_symmetry_equiv_pos_as_xyz
1 x,y,z
2 1/2-x,1/2+y,1/2-z
3 -x,-y,-z
4 1/2+x,1/2-y,1/2+z
_cell_length_a                   6.3127(13)
_cell_length_b                   23.643(5)
_cell_length_c                   8.6403(17)
_cell_angle_alpha                90
_cell_angle_beta                 92.55(3)
_cell_angle_gamma                90
_cell_volume                     1288.3
_exptl_crystal_colour            colorless
_exptl_crystal_description       block
_cell_formula_units_Z            4
loop_
_atom_site_label
_atom_site_type_symbol
_atom_site_fract_x
_atom_site_fract_y
_atom_site_fract_z
S1 S 1.14548(11) 1.12232(3) 0.25641(7)
O1 O 1.1428(3) 1.11692(9) 0.4251(2)
O2 O 1.1111(3) 1.18009(8) 0.2005(2)
O3 O 1.3336(3) 1.09591(9) 0.1921(2)
N1 N 0.5440(4) 0.89532(9) 0.1297(2)
H1 H 0.5152 0.8996 0.0322
N2 N 0.3177(4) 0.81745(9) 0.1346(2)
N3 N 0.3756(4) 0.87142(8) 0.3590(2)
C1 C 0.9205(4) 1.08265(11) 0.1809(3)
H2 H 0.7931 1.0985 0.2223
H3 H 0.9101 1.0873 0.0693
C2 C 0.9283(4) 1.01933(10) 0.2181(3)
H4 H 0.9464 1.0143 0.3293
H5 H 1.0499 1.0026 0.1707
C3 C 0.7262(4) 0.98860(10) 0.1593(3)
H6 H 0.6046 1.0056 0.2060
H7 H 0.7088 0.9935 0.0480
C4 C 0.7311(4) 0.92555(11) 0.1967(3)
H8 H 0.8584 0.9090 0.1569
H9 H 0.7373 0.9206 0.3082
C5 C 0.4144(4) 0.86160(10) 0.2082(3)
C6 C 0.4052(5) 0.78906(12) -0.0005(3)
H10 H 0.3288 0.8011 -0.0932
H11 H 0.3915 0.7488 0.0106
H12 H 0.5522 0.7987 -0.0068
C7 C 0.1086(4) 0.79629(12) 0.1767(3)
H13 H 0.0538 0.8200 0.2559
H14 H 0.1226 0.7583 0.2147
H15 H 0.0131 0.7969 0.0871
C8 C 0.3537(5) 0.82485(12) 0.4711(3)
H16 H 0.3754 0.7893 0.4204
H17 H 0.2140 0.8257 0.5108
H18 H 0.4572 0.8293 0.5550
C9 C 0.3661(5) 0.92874(11) 0.4250(3)
H19 H 0.4841 0.9343 0.4974
H20 H 0.2361 0.9332 0.4773
H21 H 0.3718 0.9562 0.3434
loop_
_geom_bond_atom_site_label_1
_geom_bond_atom_site_label_2
_geom_bond_site_symmetry_1
_geom_bond_site_symmetry_2
S1 O1 1_555 1_555
O2 S1 1_555 1_555
O3 S1 1_555 1_555
N1 H1 1_555 1_555
N2 C5 1_555 1_555
N3 C5 1_555 1_555
C1 S1 1_555 1_555
H2 C1 1_555 1_555
H3 C1 1_555 1_555
C2 C1 1_555 1_555
H4 C2 1_555 1_555
H5 C2 1_555 1_555
C3 C2 1_555 1_555
H6 C3 1_555 1_555
H7 C3 1_555 1_555
C4 N1 1_555 1_555
H8 C4 1_555 1_555
H9 C4 1_555 1_555
C5 N1 1_555 1_555
C6 N2 1_555 1_555
H10 C6 1_555 1_555
H11 C6 1_555 1_555
H12 C6 1_555 1_555
C7 N2 1_555 1_555
H13 C7 1_555 1_555
H14 C7 1_555 1_555
H15 C7 1_555 1_555
C8 N3 1_555 1_555
H16 C8 1_555 1_555
H17 C8 1_555 1_555
H18 C8 1_555 1_555
C9 N3 1_555 1_555
H19 C9 1_555 1_555
H20 C9 1_555 1_555
H21 C9 1_555 1_555
C3 C4 1_555 1_555

#END
