
#######################################################################
#
#                 Cambridge Crystallographic Data Centre
#                                CCDC 
#
#######################################################################
#
# If this CIF has been generated from an entry in the Cambridge 
# Structural Database, then it will include bibliographic, chemical, 
# crystal, experimental, refinement or atomic coordinate data resulting 
# from the CCDC's data processing and validation procedures.
#
#######################################################################

data_NAPXAC01
_chemical_formula_moiety         'C12 H10 O3'
_chemical_name_systematic        '2-(Naphthalen-2-yloxy)ethanoic acid'
_symmetry_cell_setting           monoclinic
_symmetry_space_group_name_H-M   'P 21/n'
_symmetry_Int_Tables_number      14
_space_group_name_Hall           '-P 2yn'
loop_
_symmetry_equiv_pos_site_id
_symmetry_equiv_pos_as_xyz
1 x,y,z
2 1/2+x,1/2-y,1/2+z
3 -x,-y,-z
4 1/2-x,1/2+y,1/2-z
_cell_length_a                   12.3112(10)
_cell_length_b                   6.8401(5)
_cell_length_c                   13.1658(10)
_cell_angle_alpha                90
_cell_angle_beta                 116.507(2)
_cell_angle_gamma                90
_cell_volume                     992.144
_exptl_crystal_colour            colorless
_exptl_crystal_description       needle
_chemical_melting_point          432-433K
_cell_formula_units_Z            4
_exptl_crystal_recrystallization_method 'aqueous HCl solution'
loop_
_atom_site_label
_atom_site_type_symbol
_atom_site_fract_x
_atom_site_fract_y
_atom_site_fract_z
C1 C 0.79229(12) 0.19222(19) 0.02361(12)
C2 C 0.71463(13) 0.27454(19) -0.07653(11)
H1 H 0.7021 0.2159 -0.1446
C3 C 0.65258(12) 0.44997(19) -0.07742(11)
C4 C 0.57137(13) 0.5404(2) -0.17977(12)
H2 H 0.5581 0.4842 -0.2487
C5 C 0.51216(14) 0.7081(2) -0.17937(13)
H3 H 0.4585 0.7649 -0.2476
C6 C 0.53180(16) 0.7949(2) -0.07700(14)
H4 H 0.4911 0.9096 -0.0772
C7 C 0.61011(14) 0.7133(2) 0.02353(13)
H5 H 0.6226 0.7737 0.0912
C8 C 0.67273(12) 0.53836(19) 0.02683(11)
C9 C 0.75357(13) 0.4456(2) 0.12874(12)
H6 H 0.7670 0.5009 0.1979
C10 C 0.81189(13) 0.2779(2) 0.12773(12)
H7 H 0.8648 0.2195 0.1957
O1 O 0.85899(9) 0.02366(14) 0.03510(8)
C11 C 0.83497(13) -0.07882(19) -0.06582(12)
H8 H 0.8549 0.0023 -0.1156
H9 H 0.7496 -0.1125 -0.1052
C12 C 0.91077(13) -0.2611(2) -0.03524(12)
O2 O 0.97923(10) -0.30728(14) 0.06142(9)
O3 O 0.89432(10) -0.36239(16) -0.12538(9)
H10 H 0.9313(17) -0.474(3) -0.1063(14)
loop_
_geom_bond_atom_site_label_1
_geom_bond_atom_site_label_2
_geom_bond_site_symmetry_1
_geom_bond_site_symmetry_2
C1 C2 1_555 1_555
C2 H1 1_555 1_555
C3 C2 1_555 1_555
C4 C3 1_555 1_555
H2 C4 1_555 1_555
C5 C4 1_555 1_555
H3 C5 1_555 1_555
C6 C5 1_555 1_555
H4 C6 1_555 1_555
C7 C6 1_555 1_555
H5 C7 1_555 1_555
C8 C3 1_555 1_555
C9 C8 1_555 1_555
H6 C9 1_555 1_555
C10 C1 1_555 1_555
H7 C10 1_555 1_555
O1 C1 1_555 1_555
C11 O1 1_555 1_555
H8 C11 1_555 1_555
H9 C11 1_555 1_555
C12 C11 1_555 1_555
O2 C12 1_555 1_555
O3 C12 1_555 1_555
H10 O3 1_555 1_555
C7 C8 1_555 1_555
C9 C10 1_555 1_555

#END
