
#######################################################################
#
#                 Cambridge Crystallographic Data Centre
#                                CCDC 
#
#######################################################################
#
# If this CIF has been generated from an entry in the Cambridge 
# Structural Database, then it will include bibliographic, chemical, 
# crystal, experimental, refinement or atomic coordinate data resulting 
# from the CCDC's data processing and validation procedures.
#
#######################################################################

data_NAPXIO
_chemical_formula_moiety         'C6 H5 N3,C6 H4 N3 1-,Cs1 1+'
_chemical_name_systematic        'cesium benzotriazol-1-ide 1H-benzotriazole'
_symmetry_cell_setting           monoclinic
_symmetry_space_group_name_H-M   'P 21/c'
_symmetry_Int_Tables_number      14
_space_group_name_Hall           '-P 2ybc'
loop_
_symmetry_equiv_pos_site_id
_symmetry_equiv_pos_as_xyz
1 x,y,z
2 -x,1/2+y,1/2-z
3 -x,-y,-z
4 x,1/2-y,1/2+z
_cell_length_a                   14.7039(13)
_cell_length_b                   12.5450(10)
_cell_length_c                   6.9939(6)
_cell_angle_alpha                90
_cell_angle_beta                 93.762(3)
_cell_angle_gamma                90
_cell_volume                     1287.32
_exptl_crystal_colour            white
_exptl_crystal_description       block
_cell_formula_units_Z            4
loop_
_atom_site_label
_atom_site_type_symbol
_atom_site_fract_x
_atom_site_fract_y
_atom_site_fract_z
Cs1 Cs 0.45080(2) 0.88785(2) 0.71404(3)
N1 N 0.68161(18) 0.7827(2) 0.9186(4)
N2 N 0.60621(19) 0.7246(2) 0.9447(4)
N3 N 0.62775(19) 0.6234(2) 0.9624(4)
C1 C 0.7549(2) 0.7176(2) 0.9187(4)
C2 C 0.7204(2) 0.6156(2) 0.9493(4)
C3 C 0.7782(2) 0.5264(3) 0.9655(5)
H1 H 0.7552 0.4570 0.9872
C4 C 0.8690(2) 0.5444(3) 0.9484(5)
H2 H 0.9101 0.4860 0.9614
C5 C 0.9038(2) 0.6471(3) 0.9121(5)
H3 H 0.9673 0.6554 0.8985
C6 C 0.8483(2) 0.7349(3) 0.8960(5)
H4 H 0.8715 0.8038 0.8709
H5 H 0.659(3) 0.877(3) 0.883(6)
N4 N 0.36232(19) 0.6549(2) 0.7414(4)
N5 N 0.3942(2) 0.5615(2) 0.6814(4)
N6 N 0.3279(2) 0.5027(2) 0.5899(4)
C7 C 0.2714(2) 0.6566(2) 0.6870(4)
C8 C 0.2499(2) 0.5603(2) 0.5915(4)
C9 C 0.1598(2) 0.5375(3) 0.5228(5)
H6 H 0.1448 0.4730 0.4571
C10 C 0.0947(2) 0.6125(3) 0.5548(5)
H7 H 0.0332 0.5990 0.5112
C11 C 0.1163(2) 0.7089(3) 0.6504(5)
H8 H 0.0691 0.7587 0.6697
C12 C 0.2034(2) 0.7329(3) 0.7163(5)
H9 H 0.2176 0.7984 0.7793
loop_
_geom_bond_atom_site_label_1
_geom_bond_atom_site_label_2
_geom_bond_site_symmetry_1
_geom_bond_site_symmetry_2
N1 N2 1_555 1_555
N2 N3 1_555 1_555
N3 C2 1_555 1_555
C1 N1 1_555 1_555
C2 C1 1_555 1_555
C3 C2 1_555 1_555
H1 C3 1_555 1_555
C4 C3 1_555 1_555
H2 C4 1_555 1_555
C5 C4 1_555 1_555
H3 C5 1_555 1_555
C6 C1 1_555 1_555
H4 C6 1_555 1_555
H5 N1 1_555 1_555
N4 N5 1_555 1_555
N5 N6 1_555 1_555
N6 C8 1_555 1_555
C7 N4 1_555 1_555
C8 C7 1_555 1_555
C9 C8 1_555 1_555
H6 C9 1_555 1_555
C10 C9 1_555 1_555
H7 C10 1_555 1_555
C11 C10 1_555 1_555
H8 C11 1_555 1_555
C12 C7 1_555 1_555
H9 C12 1_555 1_555
C5 C6 1_555 1_555
C11 C12 1_555 1_555

#END
