
#######################################################################
#
#                 Cambridge Crystallographic Data Centre
#                                CCDC 
#
#######################################################################
#
# If this CIF has been generated from an entry in the Cambridge 
# Structural Database, then it will include bibliographic, chemical, 
# crystal, experimental, refinement or atomic coordinate data resulting 
# from the CCDC's data processing and validation procedures.
#
#######################################################################

data_NAQCUF
_chemical_formula_moiety         'C23 H15 N1 O1'
_chemical_name_systematic        2-((Pyren-1-ylmethylene)amino)phenol
_symmetry_cell_setting           monoclinic
_symmetry_space_group_name_H-M   'P 21/c'
_symmetry_Int_Tables_number      14
_space_group_name_Hall           '-P 2ybc'
loop_
_symmetry_equiv_pos_site_id
_symmetry_equiv_pos_as_xyz
1 x,y,z
2 -x,1/2+y,1/2-z
3 -x,-y,-z
4 x,1/2-y,1/2+z
_cell_length_a                   4.8892(10)
_cell_length_b                   15.493(3)
_cell_length_c                   20.717(4)
_cell_angle_alpha                90
_cell_angle_beta                 92.52(3)
_cell_angle_gamma                90
_cell_volume                     1567.76
_exptl_crystal_colour            yellow
_exptl_crystal_description       block
_cell_formula_units_Z            4
loop_
_atom_site_label
_atom_site_type_symbol
_atom_site_fract_x
_atom_site_fract_y
_atom_site_fract_z
C1 C 1.5635(4) 0.44980(17) 0.22236(11)
C2 C 1.5902(5) 0.51633(17) 0.17931(11)
C3 C 1.4389(4) 0.59111(17) 0.18453(10)
C4 C 1.2557(4) 0.60118(14) 0.23429(9)
C5 C 1.2269(4) 0.53277(13) 0.27938(9)
C6 C 1.0958(4) 0.67730(15) 0.24210(10)
C7 C 0.9204(4) 0.68583(15) 0.29071(9)
C8 C 0.8888(3) 0.61885(12) 0.33781(8)
C9 C 1.0447(4) 0.54181(13) 0.33095(8)
C10 C 1.0217(4) 0.47260(13) 0.37543(9)
C11 C 1.1751(4) 0.39500(15) 0.36642(11)
C12 C 1.3473(4) 0.38719(16) 0.31806(11)
C13 C 1.3808(4) 0.45597(14) 0.27272(9)
C14 C 0.8476(4) 0.48226(14) 0.42648(10)
C15 C 0.7015(4) 0.55675(14) 0.43384(10)
C16 C 0.7147(4) 0.62527(13) 0.39050(8)
C17 C 0.5409(4) 0.70098(14) 0.40063(10)
C18 C 0.2321(4) 0.77905(12) 0.46237(9)
C19 C 0.1038(4) 0.83049(15) 0.41533(11)
C20 C -0.0889(5) 0.89124(16) 0.43224(14)
C21 C -0.1565(5) 0.89994(16) 0.49567(14)
C22 C -0.0296(5) 0.85047(15) 0.54323(13)
C23 C 0.1645(4) 0.79081(13) 0.52667(10)
N1 N 0.4188(3) 0.71098(10) 0.45316(8)
O1 O 0.2924(3) 0.74236(11) 0.57402(7)
H1 H -0.304(5) 0.9408(16) 0.5070(11)
H2 H 0.150(4) 0.8231(13) 0.3701(11)
H3 H -0.077(5) 0.8569(15) 0.5900(11)
H4 H 0.522(3) 0.7451(12) 0.3645(9)
H5 H 0.581(4) 0.5640(13) 0.4679(10)
H6 H 0.827(4) 0.4353(13) 0.4582(9)
H7 H 1.156(4) 0.3485(13) 0.3973(9)
H8 H 1.454(4) 0.3350(13) 0.3127(9)
H9 H 1.677(4) 0.3948(14) 0.2200(9)
H10 H 1.718(4) 0.5111(13) 0.1438(10)
H11 H 1.450(4) 0.6388(14) 0.1522(10)
H12 H 1.115(4) 0.7258(12) 0.2119(9)
H13 H 0.809(4) 0.7405(13) 0.2930(9)
H14 H -0.163(5) 0.9244(16) 0.3983(12)
H15 H 0.401(6) 0.7045(19) 0.5497(14)
loop_
_geom_bond_atom_site_label_1
_geom_bond_atom_site_label_2
_geom_bond_site_symmetry_1
_geom_bond_site_symmetry_2
C1 C2 1_555 1_555
C2 C3 1_555 1_555
C3 C4 1_555 1_555
C4 C5 1_555 1_555
C5 C9 1_555 1_555
C6 C4 1_555 1_555
C7 C6 1_555 1_555
C8 C7 1_555 1_555
C9 C8 1_555 1_555
C10 C9 1_555 1_555
C11 C10 1_555 1_555
C12 C11 1_555 1_555
C13 C1 1_555 1_555
C14 C10 1_555 1_555
C15 C14 1_555 1_555
C16 C8 1_555 1_555
C17 C16 1_555 1_555
C18 C19 1_555 1_555
C19 C20 1_555 1_555
C20 C21 1_555 1_555
C21 C22 1_555 1_555
C22 C23 1_555 1_555
C23 C18 1_555 1_555
N1 C17 1_555 1_555
O1 C23 1_555 1_555
H1 C21 1_555 1_555
H2 C19 1_555 1_555
H3 C22 1_555 1_555
H4 C17 1_555 1_555
H5 C15 1_555 1_555
H6 C14 1_555 1_555
H7 C11 1_555 1_555
H8 C12 1_555 1_555
H9 C1 1_555 1_555
H10 C2 1_555 1_555
H11 C3 1_555 1_555
H12 C6 1_555 1_555
H13 C7 1_555 1_555
H14 C20 1_555 1_555
H15 O1 1_555 1_555
C5 C13 1_555 1_555
C12 C13 1_555 1_555
C15 C16 1_555 1_555
C18 N1 1_555 1_555

#END
