
#######################################################################
#
#                 Cambridge Crystallographic Data Centre
#                                CCDC 
#
#######################################################################
#
# If this CIF has been generated from an entry in the Cambridge 
# Structural Database, then it will include bibliographic, chemical, 
# crystal, experimental, refinement or atomic coordinate data resulting 
# from the CCDC's data processing and validation procedures.
#
#######################################################################

data_NAQGAP
_chemical_formula_moiety         'C23 H27 Cl1 O2 S1'
_chemical_name_systematic        
1-Chloro-1-((4-methylphenyl)sulfinyl)-2-(2-phenylethyl)spiro[2.5]octan-4-ol
_symmetry_cell_setting           triclinic
_symmetry_space_group_name_H-M   'P -1'
_symmetry_Int_Tables_number      2
_space_group_name_Hall           '-P 1'
loop_
_symmetry_equiv_pos_site_id
_symmetry_equiv_pos_as_xyz
1 x,y,z
2 -x,-y,-z
_cell_length_a                   9.8624(4)
_cell_length_b                   9.8812(4)
_cell_length_c                   11.4540(5)
_cell_angle_alpha                76.5840(10)
_cell_angle_beta                 86.8140(10)
_cell_angle_gamma                70.6580(10)
_cell_volume                     1024.2
_exptl_crystal_colour            colorless
_exptl_crystal_description       block
_cell_formula_units_Z            2
loop_
_atom_site_label
_atom_site_type_symbol
_atom_site_fract_x
_atom_site_fract_y
_atom_site_fract_z
S1 S 0.27881(4) 0.74366(4) 0.54986(3)
Cl1 Cl 0.31065(4) 0.98577(4) 0.64353(3)
O1 O -0.05853(11) 0.85010(12) 0.58152(9)
H1 H -0.1149 0.9348 0.5828
O2 O 0.26300(12) 0.85867(12) 0.43596(9)
C1 C 0.01941(16) 0.99740(16) 0.77226(14)
H2 H -0.0317 1.0715 0.7010
H3 H 0.0882 1.0353 0.8030
C2 C 0.24068(15) 0.83946(15) 0.67101(12)
C3 C 0.00360(15) 0.77854(16) 0.69781(13)
H4 H 0.0660 0.6769 0.6934
C4 C 0.24174(15) 0.75051(15) 0.79788(12)
H5 H 0.2565 0.6443 0.8025
C5 C 0.47723(16) 0.69861(17) 0.90052(13)
H6 H 0.4954 0.5932 0.9034
H7 H 0.5152 0.7409 0.8240
C6 C 0.46690(15) 0.65388(15) 0.58056(12)
C7 C 0.56584(17) 0.72071(17) 0.53036(14)
H8 H 0.5349 0.8166 0.4794
C8 C 0.31483(16) 0.77568(17) 0.89958(13)
H9 H 0.2757 0.7376 0.9770
H10 H 0.2946 0.8827 0.8906
C9 C 0.51054(17) 0.51271(16) 0.65348(13)
H11 H 0.4417 0.4671 0.6864
C10 C 0.70316(16) 0.61893(16) 1.02555(14)
H12 H 0.7449 0.5484 0.9787
C11 C 0.56084(16) 0.70944(16) 1.00332(13)
C12 C 0.65599(17) 0.43941(17) 0.67749(14)
H13 H 0.6866 0.3434 0.7283
C13 C 0.10075(15) 0.85388(15) 0.73636(12)
C14 C -0.10713(17) 0.76177(17) 0.79438(14)
H14 H -0.1752 0.7221 0.7648
H15 H -0.0570 0.6896 0.8669
C15 C 0.75787(17) 0.50450(18) 0.62823(15)
C16 C 0.72595(18) 0.73130(19) 1.18528(16)
H16 H 0.7820 0.7392 1.2466
C17 C 0.71154(18) 0.64575(19) 0.55540(16)
H17 H 0.7801 0.6917 0.5223
C18 C 0.50275(17) 0.80955(18) 1.07460(15)
H18 H 0.4055 0.8716 1.0615
C19 C 0.78513(17) 0.63034(17) 1.11555(15)
H19 H 0.8824 0.5683 1.1291
C20 C -0.08918(17) 0.97400(18) 0.86929(15)
H20 H -0.0370 0.9081 0.9434
H21 H -0.1450 1.0697 0.8881
C21 C -0.19176(17) 0.90678(17) 0.82867(15)
H22 H -0.2503 0.9763 0.7587
H23 H -0.2577 0.8888 0.8943
C22 C 0.58425(19) 0.8208(2) 1.16484(17)
H24 H 0.5424 0.8902 1.2127
C23 C 0.91615(19) 0.4208(2) 0.6517(2)
H25 H 0.9488 0.3508 0.5996
H26 H 0.9320 0.3671 0.7359
H27 H 0.9703 0.4901 0.6348
loop_
_geom_bond_atom_site_label_1
_geom_bond_atom_site_label_2
_geom_bond_site_symmetry_1
_geom_bond_site_symmetry_2
S1 O2 1_555 1_555
Cl1 C2 1_555 1_555
O1 H1 1_555 1_555
C1 H2 1_555 1_555
H3 C1 1_555 1_555
C2 S1 1_555 1_555
C3 O1 1_555 1_555
H4 C3 1_555 1_555
C4 C2 1_555 1_555
H5 C4 1_555 1_555
C5 H6 1_555 1_555
H7 C5 1_555 1_555
C6 S1 1_555 1_555
C7 C6 1_555 1_555
H8 C7 1_555 1_555
C8 C4 1_555 1_555
H9 C8 1_555 1_555
H10 C8 1_555 1_555
C9 C6 1_555 1_555
H11 C9 1_555 1_555
C10 H12 1_555 1_555
C11 C5 1_555 1_555
C12 C9 1_555 1_555
H13 C12 1_555 1_555
C13 C1 1_555 1_555
C14 C3 1_555 1_555
H14 C14 1_555 1_555
H15 C14 1_555 1_555
C15 C12 1_555 1_555
C16 H16 1_555 1_555
C17 C7 1_555 1_555
H17 C17 1_555 1_555
C18 C11 1_555 1_555
H18 C18 1_555 1_555
C19 C10 1_555 1_555
H19 C19 1_555 1_555
C20 C1 1_555 1_555
H20 C20 1_555 1_555
H21 C20 1_555 1_555
C21 C14 1_555 1_555
H22 C21 1_555 1_555
H23 C21 1_555 1_555
C22 C16 1_555 1_555
H24 C22 1_555 1_555
C23 C15 1_555 1_555
H25 C23 1_555 1_555
H26 C23 1_555 1_555
H27 C23 1_555 1_555
C2 C13 1_555 1_555
C3 C13 1_555 1_555
C4 C13 1_555 1_555
C5 C8 1_555 1_555
C10 C11 1_555 1_555
C15 C17 1_555 1_555
C16 C19 1_555 1_555
C18 C22 1_555 1_555
C20 C21 1_555 1_555

#END
