
#######################################################################
#
#                 Cambridge Crystallographic Data Centre
#                                CCDC 
#
#######################################################################
#
# If this CIF has been generated from an entry in the Cambridge 
# Structural Database, then it will include bibliographic, chemical, 
# crystal, experimental, refinement or atomic coordinate data resulting 
# from the CCDC's data processing and validation procedures.
#
#######################################################################

data_NAQGOD
_chemical_formula_moiety         'C21 H20 Br1 N1 O2'
_chemical_name_systematic        
5'-Bromo-1',2,2-trimethyl-4,8b-dihydro-3aH-spiro[indeno[1,2-b]furan-3,3'-indol]-2'(1'H)-one
_symmetry_cell_setting           monoclinic
_symmetry_space_group_name_H-M   'P 21/c'
_symmetry_Int_Tables_number      14
_space_group_name_Hall           '-P 2ybc'
loop_
_symmetry_equiv_pos_site_id
_symmetry_equiv_pos_as_xyz
1 x,y,z
2 -x,1/2+y,1/2-z
3 -x,-y,-z
4 x,1/2-y,1/2+z
_cell_length_a                   10.532(3)
_cell_length_b                   8.343(3)
_cell_length_c                   20.446(6)
_cell_angle_alpha                90
_cell_angle_beta                 100.037(3)
_cell_angle_gamma                90
_cell_volume                     1769.06
_exptl_crystal_colour            colorless
_exptl_crystal_description       block
_cell_formula_units_Z            4
loop_
_atom_site_label
_atom_site_type_symbol
_atom_site_fract_x
_atom_site_fract_y
_atom_site_fract_z
Br1 Br 0.20158(4) 0.01016(4) 0.196399(15)
C1 C 0.3600(3) -0.1005(4) 0.59000(15)
H1 H 0.3201 -0.1913 0.5695
C2 C 0.4135(3) -0.1017(4) 0.65674(16)
H2 H 0.4099 -0.1947 0.6814
C3 C 0.4715(3) 0.0317(5) 0.68690(17)
H3 H 0.5064 0.0282 0.7319
C4 C 0.4794(3) 0.1709(4) 0.65214(15)
H4 H 0.5194 0.2609 0.6733
C5 C 0.4270(2) 0.1759(3) 0.58486(13)
C6 C 0.3674(3) 0.0402(3) 0.55443(14)
C7 C 0.3160(2) 0.0692(3) 0.48233(13)
H5 H 0.3571 -0.0045 0.4550
C8 C 0.3549(2) 0.2447(3) 0.46948(12)
H6 H 0.4160 0.2443 0.4384
C9 C 0.4224(3) 0.3127(3) 0.53713(14)
H7 H 0.5088 0.3493 0.5344
H8 H 0.3738 0.4016 0.5508
C10 C 0.2253(2) 0.3175(3) 0.43453(12)
C11 C 0.1225(2) 0.2153(3) 0.46310(12)
C12 C 0.1039(3) 0.2654(3) 0.53212(13)
H9 H 0.0531 0.1863 0.5499
H10 H 0.0605 0.3669 0.5297
H11 H 0.1865 0.2746 0.5604
C13 C -0.0082(2) 0.2048(3) 0.41855(13)
H12 H 0.0015 0.1593 0.3766
H13 H -0.0447 0.3102 0.4117
H14 H -0.0643 0.1382 0.4392
C14 C 0.2119(3) 0.4991(3) 0.44250(14)
C15 C 0.1878(3) 0.4511(3) 0.33102(13)
C16 C 0.2109(2) 0.3012(3) 0.35986(12)
C17 C 0.2168(3) 0.1696(3) 0.32032(12)
H15 H 0.2323 0.0680 0.3387
C18 C 0.1991(3) 0.1926(3) 0.25216(12)
C19 C 0.1768(3) 0.3400(4) 0.22391(14)
H16 H 0.1653 0.3509 0.1780
C20 C 0.1712(3) 0.4731(3) 0.26319(15)
H17 H 0.1566 0.5746 0.2446
C21 C 0.1689(3) 0.7356(3) 0.36813(15)
H18 H 0.1684 0.7904 0.4094
H19 H 0.0882 0.7528 0.3390
H20 H 0.2379 0.7762 0.3478
N1 N 0.1875(2) 0.5659(2) 0.38059(11)
O1 O 0.17869(16) 0.0577(2) 0.46456(8)
O2 O 0.22048(19) 0.5750(2) 0.49376(10)
loop_
_geom_bond_atom_site_label_1
_geom_bond_atom_site_label_2
_geom_bond_site_symmetry_1
_geom_bond_site_symmetry_2
Br1 C18 1_555 1_555
C1 H1 1_555 1_555
C2 C1 1_555 1_555
H2 C2 1_555 1_555
C3 C2 1_555 1_555
H3 C3 1_555 1_555
C4 C3 1_555 1_555
H4 C4 1_555 1_555
C5 C4 1_555 1_555
C6 C1 1_555 1_555
C7 C6 1_555 1_555
H5 C7 1_555 1_555
C8 C7 1_555 1_555
H6 C8 1_555 1_555
C9 C5 1_555 1_555
H7 C9 1_555 1_555
H8 C9 1_555 1_555
C10 C8 1_555 1_555
C11 C10 1_555 1_555
C12 C11 1_555 1_555
H9 C12 1_555 1_555
H10 C12 1_555 1_555
H11 C12 1_555 1_555
C13 C11 1_555 1_555
H12 C13 1_555 1_555
H13 C13 1_555 1_555
H14 C13 1_555 1_555
C14 C10 1_555 1_555
C15 C16 1_555 1_555
C16 C10 1_555 1_555
C17 C16 1_555 1_555
H15 C17 1_555 1_555
C18 C17 1_555 1_555
C19 C18 1_555 1_555
H16 C19 1_555 1_555
C20 C15 1_555 1_555
H17 C20 1_555 1_555
C21 H18 1_555 1_555
H19 C21 1_555 1_555
H20 C21 1_555 1_555
N1 C14 1_555 1_555
O1 C7 1_555 1_555
O2 C14 1_555 1_555
C5 C6 1_555 1_555
C8 C9 1_555 1_555
C11 O1 1_555 1_555
C15 N1 1_555 1_555
C19 C20 1_555 1_555
C21 N1 1_555 1_555

#END
