
#######################################################################
#
#                 Cambridge Crystallographic Data Centre
#                                CCDC 
#
#######################################################################
#
# If this CIF has been generated from an entry in the Cambridge 
# Structural Database, then it will include bibliographic, chemical, 
# crystal, experimental, refinement or atomic coordinate data resulting 
# from the CCDC's data processing and validation procedures.
#
#######################################################################

data_NAQMAU
_chemical_name_common            
'Calix(4)imidazolium(2)pyridine tetrabromide hexahydrate'
_chemical_formula_moiety         'C28 H30 N10 4+,4(Br1 1-),6(H2 O1)'
_chemical_name_systematic        
'5,11(2,6)-Dipyridina-1,3,7,9(1,3)-tetraimidazolacyclododecaphane-1^1^,3^1^,7^1^,9^1^-tetraium tetrabromide hexahydrate'
_symmetry_cell_setting           triclinic
_symmetry_space_group_name_H-M   'P -1'
_symmetry_Int_Tables_number      2
_space_group_name_Hall           '-P 1'
loop_
_symmetry_equiv_pos_site_id
_symmetry_equiv_pos_as_xyz
1 x,y,z
2 -x,-y,-z
_cell_length_a                   7.2807(7)
_cell_length_b                   10.6931(10)
_cell_length_c                   12.7486(12)
_cell_angle_alpha                71.270(2)
_cell_angle_beta                 80.668(2)
_cell_angle_gamma                83.539(2)
_cell_volume                     925.575
_exptl_crystal_colour            colorless
_exptl_crystal_description       needle
_chemical_melting_point          'decomposes above 300 deg.C'
_cell_formula_units_Z            1
_exptl_crystal_recrystallization_method water/ethanol
loop_
_atom_site_label
_atom_site_type_symbol
_atom_site_fract_x
_atom_site_fract_y
_atom_site_fract_z
Br1 Br 0.77747(5) 0.46913(3) 0.41882(3)
Br2 Br 0.25478(5) 0.20598(4) -0.04437(3)
C1 C 0.7564(4) 0.9221(3) 0.4102(3)
C2 C 0.7131(4) 1.0553(3) 0.3987(3)
H1 H 0.6860 1.1151 0.3300
C3 C 0.7108(4) 1.0976(3) 0.4900(3)
H2 H 0.6816 1.1871 0.4847
C4 C 0.7518(4) 1.0071(3) 0.5895(3)
H3 H 0.7493 1.0338 0.6531
C5 C 0.7966(4) 0.8765(3) 0.5941(2)
C6 C 0.8568(5) 0.7759(3) 0.6975(3)
H4 H 0.9899 0.7513 0.6822
H5 H 0.8414 0.8169 0.7572
C7 C 0.7299(4) 0.5773(3) 0.6793(3)
H6 H 0.7644 0.5945 0.6020
C8 C 0.6900(5) 0.5942(3) 0.8482(3)
H7 H 0.6919 0.6270 0.9081
C9 C 0.6244(5) 0.4799(3) 0.8548(3)
H8 H 0.5717 0.4174 0.9201
C10 C 0.6108(4) 0.3579(3) 0.7172(3)
H9 H 0.5977 0.3860 0.6375
H10 H 0.4937 0.3217 0.7597
C11 C 0.9319(4) 0.2646(3) 0.6792(2)
H11 H 0.9673 0.3322 0.6128
C12 C 0.7675(5) 0.1435(3) 0.8315(3)
H12 H 0.6682 0.1138 0.8884
C13 C 0.9389(5) 0.0850(3) 0.8236(3)
H13 H 0.9823 0.0059 0.8739
C14 C 0.7634(4) 0.8663(3) 0.3151(3)
H14 H 0.6977 0.7844 0.3411
H15 H 0.7008 0.9297 0.2553
N1 N 0.7992(3) 0.8335(2) 0.5061(2)
N2 N 0.7544(3) 0.6552(2) 0.73749(19)
N3 N 0.6481(3) 0.4704(2) 0.7485(2)
N4 N 0.7640(3) 0.2559(2) 0.7399(2)
N5 N 0.9595(3) 0.8385(2) 0.2715(2)
C1A C 1.2436(4) 0.0779(3) 0.5898(3)
C2A C 1.2869(4) -0.0553(3) 0.6013(3)
H1A H 1.3140 -0.1151 0.6700
C3A C 1.2892(4) -0.0976(3) 0.5100(3)
H2A H 1.3184 -0.1871 0.5153
C4A C 1.2482(4) -0.0071(3) 0.4105(3)
H3A H 1.2507 -0.0338 0.3469
C5A C 1.2034(4) 0.1235(3) 0.4059(2)
C6A C 1.1432(5) 0.2241(3) 0.3025(3)
H4A H 1.0101 0.2487 0.3178
H5A H 1.1586 0.1831 0.2428
C7A C 1.2701(4) 0.4227(3) 0.3207(3)
H6A H 1.2356 0.4055 0.3980
C8A C 1.3100(5) 0.4058(3) 0.1518(3)
H7A H 1.3081 0.3730 0.0919
C9A C 1.3756(5) 0.5201(3) 0.1452(3)
H8A H 1.4283 0.5826 0.0799
C10A C 1.3892(4) 0.6421(3) 0.2828(3)
H9A H 1.4023 0.6140 0.3625
H10A H 1.5063 0.6783 0.2403
C11A C 1.0681(4) 0.7354(3) 0.3208(2)
H11A H 1.0327 0.6678 0.3872
C12A C 1.2325(5) 0.8565(3) 0.1685(3)
H12A H 1.3318 0.8862 0.1116
C13A C 1.0611(5) 0.9150(3) 0.1764(3)
H13A H 1.0177 0.9941 0.1261
C14A C 1.2366(4) 0.1337(3) 0.6849(3)
H14A H 1.3023 0.2156 0.6589
H15A H 1.2992 0.0703 0.7447
N1A N 1.2008(3) 0.1665(2) 0.4939(2)
N2A N 1.2456(3) 0.3448(2) 0.26251(19)
N3A N 1.3519(3) 0.5296(2) 0.2515(2)
N4A N 1.2360(3) 0.7441(2) 0.2601(2)
N5A N 1.0405(3) 0.1615(2) 0.7285(2)
O1 O 0.4792(5) 0.8920(3) 0.8419(3)
H16 H 0.382(6) 0.841(4) 0.871(3)
H17 H 0.504(8) 0.887(5) 0.921(5)
O2 O 0.1739(6) 0.7439(4) 0.9117(3)
H18 H 0.145(6) 0.673(4) 0.902(3)
H19 H 0.075(7) 0.739(5) 0.958(4)
O3 O 0.1491(6) 0.5298(4) 0.8418(3)
H20 H 0.167(8) 0.539(6) 0.775(5)
H21 H 0.138(8) 0.447(6) 0.876(5)
loop_
_geom_bond_atom_site_label_1
_geom_bond_atom_site_label_2
_geom_bond_site_symmetry_1
_geom_bond_site_symmetry_2
C1 C2 1_555 1_555
C2 H1 1_555 1_555
C3 C2 1_555 1_555
H2 C3 1_555 1_555
C4 C3 1_555 1_555
H3 C4 1_555 1_555
C5 C4 1_555 1_555
C6 C5 1_555 1_555
H4 C6 1_555 1_555
H5 C6 1_555 1_555
C7 H6 1_555 1_555
C8 H7 1_555 1_555
C9 C8 1_555 1_555
H8 C9 1_555 1_555
C10 H9 1_555 1_555
H10 C10 1_555 1_555
C11 H11 1_555 1_555
C12 H12 1_555 1_555
C13 C12 1_555 1_555
H13 C13 1_555 1_555
C14 C1 1_555 1_555
H14 C14 1_555 1_555
H15 C14 1_555 1_555
N1 C1 1_555 1_555
N2 C6 1_555 1_555
N3 C7 1_555 1_555
N4 C10 1_555 1_555
N5 C14 1_555 1_555
O1 H16 1_555 1_555
H17 O1 1_555 1_555
O2 H18 1_555 1_555
H19 O2 1_555 1_555
O3 H20 1_555 1_555
H21 O3 1_555 1_555
C1A C2A 1_555 1_555
C2A H1A 1_555 1_555
C3A C2A 1_555 1_555
H2A C3A 1_555 1_555
C4A C3A 1_555 1_555
H3A C4A 1_555 1_555
C5A C4A 1_555 1_555
C6A C5A 1_555 1_555
H4A C6A 1_555 1_555
H5A C6A 1_555 1_555
C7A H6A 1_555 1_555
C8A H7A 1_555 1_555
C9A C8A 1_555 1_555
H8A C9A 1_555 1_555
C10A H9A 1_555 1_555
H10A C10A 1_555 1_555
C11A N5 1_555 1_555
H11A C11A 1_555 1_555
C12A H12A 1_555 1_555
C13A N5 1_555 1_555
H13A C13A 1_555 1_555
C14A C1A 1_555 1_555
H14A C14A 1_555 1_555
H15A C14A 1_555 1_555
N1A C1A 1_555 1_555
N2A C6A 1_555 1_555
N3A C7A 1_555 1_555
N4A C10A 1_555 1_555
N5A C11 1_555 1_555
C5 N1 1_555 1_555
C7 N2 1_555 1_555
C8 N2 1_555 1_555
C9 N3 1_555 1_555
C10 N3 1_555 1_555
C11 N4 1_555 1_555
C12 N4 1_555 1_555
C13 N5A 1_555 1_555
C5A N1A 1_555 1_555
C7A N2A 1_555 1_555
C8A N2A 1_555 1_555
C9A N3A 1_555 1_555
C10A N3A 1_555 1_555
C11A N4A 1_555 1_555
C12A C13A 1_555 1_555
C12A N4A 1_555 1_555
C14A N5A 1_555 1_555

#END
