
#######################################################################
#
#                 Cambridge Crystallographic Data Centre
#                                CCDC 
#
#######################################################################
#
# If this CIF has been generated from an entry in the Cambridge 
# Structural Database, then it will include bibliographic, chemical, 
# crystal, experimental, refinement or atomic coordinate data resulting 
# from the CCDC's data processing and validation procedures.
#
#######################################################################

data_NAQMUO
_chemical_name_common            
'Calix(4)imidazolium(2)pyridine dichloride bis(hexafluorophosphate) acetonitrile solvate'
_chemical_formula_moiety         
'C28 H30 N10 4+,2(Cl1 1-),2(F6 P1 1-),2(C2 H3 N1)'
_chemical_name_systematic        
'5,11(2,6)-Dipyridina-1,3,7,9(1,3)-tetraimidazolacyclododecaphane-1^1^,3^1^,7^1^,9^1^-tetraium dichloride bis(hexafluorophosphate) acetonitrile solvate'
_symmetry_cell_setting           triclinic
_symmetry_space_group_name_H-M   'P -1'
_symmetry_Int_Tables_number      2
_space_group_name_Hall           '-P 1'
loop_
_symmetry_equiv_pos_site_id
_symmetry_equiv_pos_as_xyz
1 x,y,z
2 -x,-y,-z
_cell_length_a                   8.4961(14)
_cell_length_b                   11.4943(18)
_cell_length_c                   12.072(2)
_cell_angle_alpha                80.212(3)
_cell_angle_beta                 71.576(3)
_cell_angle_gamma                69.760(3)
_cell_volume                     1046.98
_cell_formula_units_Z            1
loop_
_atom_site_label
_atom_site_type_symbol
_atom_site_fract_x
_atom_site_fract_y
_atom_site_fract_z
Cl1 Cl 0.73488(9) 0.11435(7) 0.49517(7)
C1 C 0.2414(5) 0.2904(4) 0.5469(4)
C2 C 0.3243(6) 0.3808(4) 0.5120(4)
H1 H 0.4006 0.3847 0.5511
C3 C 0.2941(6) 0.4625(4) 0.4216(5)
H2 H 0.3479 0.5242 0.3985
C4 C 0.1820(6) 0.4547(4) 0.3627(4)
H3 H 0.1621 0.5088 0.2983
C5 C 0.1017(5) 0.3648(3) 0.4023(4)
C6 C -0.0271(6) 0.3474(4) 0.3459(4)
H4 H -0.1242 0.3301 0.4067
H5 H -0.0730 0.4236 0.3016
C7 C 0.1212(5) 0.1273(3) 0.3002(4)
H6 H 0.1200 0.0953 0.3765
C8 C 0.0794(8) 0.2551(4) 0.1514(4)
H7 H 0.0420 0.3280 0.1066
C9 C 0.1626(7) 0.1423(4) 0.1124(4)
H8 H 0.1984 0.1219 0.0350
C10 C 0.2620(5) -0.0742(3) 0.2108(4)
H9 H 0.3063 -0.1039 0.2787
H10 H 0.3587 -0.0981 0.1413
C11 C -0.0201(5) -0.1153(4) 0.3002(4)
H11 H -0.0561 -0.0675 0.3639
C12 C 0.1355(7) -0.2095(4) 0.1408(4)
H12 H 0.2265 -0.2365 0.0743
C13 C -0.0081(7) -0.2406(4) 0.1787(4)
H13 H -0.0373 -0.2941 0.1448
C14 C 0.2728(6) 0.1912(4) 0.6418(4)
H14 H 0.3369 0.2112 0.6857
H15 H 0.3433 0.1127 0.6075
N1 N 0.1319(4) 0.2814(3) 0.4917(3)
N2 N 0.0591(4) 0.2446(3) 0.2677(3)
N3 N 0.1855(4) 0.0617(3) 0.2076(3)
N4 N 0.1275(4) -0.1306(3) 0.2165(3)
N5 N 0.1078(4) 0.1787(3) 0.7213(3)
C1A C -0.2414(5) -0.2904(4) 0.4531(4)
C2A C -0.3243(6) -0.3808(4) 0.4880(4)
H1A H -0.4006 -0.3847 0.4489
C3A C -0.2941(6) -0.4625(4) 0.5784(5)
H2A H -0.3479 -0.5242 0.6015
C4A C -0.1820(6) -0.4547(4) 0.6373(4)
H3A H -0.1621 -0.5088 0.7017
C5A C -0.1017(5) -0.3648(3) 0.5977(4)
C6A C 0.0271(6) -0.3474(4) 0.6541(4)
H4A H 0.1242 -0.3301 0.5933
H5A H 0.0730 -0.4236 0.6984
C7A C -0.1212(5) -0.1273(3) 0.6998(4)
H6A H -0.1200 -0.0953 0.6235
C8A C -0.0794(8) -0.2551(4) 0.8486(4)
H7A H -0.0420 -0.3280 0.8934
C9A C -0.1626(7) -0.1423(4) 0.8876(4)
H8A H -0.1984 -0.1219 0.9650
C10A C -0.2620(5) 0.0742(3) 0.7892(4)
H9A H -0.3063 0.1039 0.7213
H10A H -0.3587 0.0981 0.8587
C11A C 0.0201(5) 0.1153(4) 0.6998(4)
H11A H 0.0561 0.0675 0.6361
C12A C -0.1355(7) 0.2095(4) 0.8592(4)
H12A H -0.2265 0.2365 0.9257
C13A C 0.0081(7) 0.2406(4) 0.8213(4)
H13A H 0.0373 0.2941 0.8552
C14A C -0.2728(6) -0.1912(4) 0.3582(4)
H14A H -0.3369 -0.2112 0.3143
H15A H -0.3433 -0.1127 0.3925
N1A N -0.1319(4) -0.2814(3) 0.5083(3)
N2A N -0.0591(4) -0.2446(3) 0.7323(3)
N3A N -0.1855(4) -0.0617(3) 0.7924(3)
N4A N -0.1275(4) 0.1306(3) 0.7835(3)
N5A N -0.1078(4) -0.1787(3) 0.2787(3)
P1 P 0.63887(17) 0.57313(12) 0.12170(13)
F1 F 0.4709(5) 0.5389(4) 0.1358(4)
F2 F 0.6793(6) 0.4688(4) 0.2213(5)
F3 F 0.8190(7) 0.5936(6) 0.1083(5)
F4 F 0.5882(7) 0.6743(5) 0.0265(5)
F5 F 0.7418(7) 0.4734(6) 0.0345(6)
F6 F 0.5228(7) 0.6610(4) 0.2199(5)
N6 N 0.3642(12) 0.9781(5) 0.8792(6)
C15 C 0.3878(8) 0.8926(5) 0.8329(5)
C16 C 0.4206(13) 0.7811(6) 0.7749(8)
H16 H 0.3588 0.8025 0.7164
H17 H 0.3811 0.7206 0.8316
H18 H 0.5435 0.7473 0.7386
loop_
_geom_bond_atom_site_label_1
_geom_bond_atom_site_label_2
_geom_bond_site_symmetry_1
_geom_bond_site_symmetry_2
C1 C2 1_555 1_555
C2 H1 1_555 1_555
C3 C2 1_555 1_555
H2 C3 1_555 1_555
C4 C3 1_555 1_555
H3 C4 1_555 1_555
C5 C4 1_555 1_555
C6 C5 1_555 1_555
H4 C6 1_555 1_555
H5 C6 1_555 1_555
C7 H6 1_555 1_555
C8 H7 1_555 1_555
C9 C8 1_555 1_555
H8 C9 1_555 1_555
C10 H9 1_555 1_555
H10 C10 1_555 1_555
C11 H11 1_555 1_555
C12 H12 1_555 1_555
C13 C12 1_555 1_555
H13 C13 1_555 1_555
C14 C1 1_555 1_555
H14 C14 1_555 1_555
H15 C14 1_555 1_555
N1 C1 1_555 1_555
N2 C6 1_555 1_555
N3 C7 1_555 1_555
N4 C10 1_555 1_555
N5 C14 1_555 1_555
P1 F1 1_555 1_555
F2 P1 1_555 1_555
F3 P1 1_555 1_555
F4 P1 1_555 1_555
F5 P1 1_555 1_555
F6 P1 1_555 1_555
N6 C15 1_555 1_555
C15 C16 1_555 1_555
C16 H16 1_555 1_555
H17 C16 1_555 1_555
H18 C16 1_555 1_555
C1A C2A 1_555 1_555
C2A H1A 1_555 1_555
C3A C2A 1_555 1_555
H2A C3A 1_555 1_555
C4A C3A 1_555 1_555
H3A C4A 1_555 1_555
C5A C4A 1_555 1_555
C6A C5A 1_555 1_555
H4A C6A 1_555 1_555
H5A C6A 1_555 1_555
C7A H6A 1_555 1_555
C8A H7A 1_555 1_555
C9A C8A 1_555 1_555
H8A C9A 1_555 1_555
C10A H9A 1_555 1_555
H10A C10A 1_555 1_555
C11A N5 1_555 1_555
H11A C11A 1_555 1_555
C12A H12A 1_555 1_555
C13A N5 1_555 1_555
H13A C13A 1_555 1_555
C14A C1A 1_555 1_555
H14A C14A 1_555 1_555
H15A C14A 1_555 1_555
N1A C1A 1_555 1_555
N2A C6A 1_555 1_555
N3A C7A 1_555 1_555
N4A C10A 1_555 1_555
N5A C11 1_555 1_555
C5 N1 1_555 1_555
C7 N2 1_555 1_555
C8 N2 1_555 1_555
C9 N3 1_555 1_555
C10 N3 1_555 1_555
C11 N4 1_555 1_555
C12 N4 1_555 1_555
C13 N5A 1_555 1_555
C5A N1A 1_555 1_555
C7A N2A 1_555 1_555
C8A N2A 1_555 1_555
C9A N3A 1_555 1_555
C10A N3A 1_555 1_555
C11A N4A 1_555 1_555
C12A C13A 1_555 1_555
C12A N4A 1_555 1_555
C14A N5A 1_555 1_555

#END
