
#######################################################################
#
#                 Cambridge Crystallographic Data Centre
#                                CCDC 
#
#######################################################################
#
# If this CIF has been generated from an entry in the Cambridge 
# Structural Database, then it will include bibliographic, chemical, 
# crystal, experimental, refinement or atomic coordinate data resulting 
# from the CCDC's data processing and validation procedures.
#
#######################################################################

data_NAQNAV
_chemical_name_common            
'bis(Calix(4)imidazolium(2)pyridine) dibromide hexakis(hexafluorophosphate) acetonitrile solvate'
_chemical_formula_moiety         
'2(C28 H30 N10 4+),2(Br1 1-),6(F6 P1 1-),4(C2 H3 N1)'
_chemical_name_systematic        
'bis(5,11(2,6)-Dipyridina-1,3,7,9(1,3)-tetraimidazolacyclododecaphane-1^1^,3^1^,7^1^,9^1^-tetraium) dibromide hexakis(hexafluorophosphate) acetonitrile solvate'
_symmetry_cell_setting           triclinic
_symmetry_space_group_name_H-M   'P -1'
_symmetry_Int_Tables_number      2
_space_group_name_Hall           '-P 1'
loop_
_symmetry_equiv_pos_site_id
_symmetry_equiv_pos_as_xyz
1 x,y,z
2 -x,-y,-z
_cell_length_a                   12.2096(9)
_cell_length_b                   14.1430(11)
_cell_length_c                   14.2038(11)
_cell_angle_alpha                96.825(2)
_cell_angle_beta                 109.5190(10)
_cell_angle_gamma                90.931(2)
_cell_volume                     2291.27
_cell_formula_units_Z            1
loop_
_atom_site_label
_atom_site_type_symbol
_atom_site_fract_x
_atom_site_fract_y
_atom_site_fract_z
Br1 Br 0.98605(5) 0.63749(4) 0.57495(4)
P1 P 0.70700(14) 0.63464(11) 0.91902(11)
F1 F 0.6430(3) 0.5575(2) 0.8232(2)
F3 F 0.7684(3) 0.7088(3) 1.0157(3)
F4 F 0.7809(4) 0.5550(3) 0.9731(3)
F5 F 0.6359(4) 0.7140(3) 0.8622(3)
F6 F 0.6084(3) 0.6145(3) 0.9630(3)
F7 F 0.8037(4) 0.6553(3) 0.8709(3)
P2 P 0.08216(18) 0.84186(15) 0.12845(16)
F2 F 0.0565(4) 0.7410(3) 0.0571(3)
F8 F 0.0109(5) 0.8876(2) 0.0610(3)
F9 F -0.0077(4) 0.8070(3) 0.1817(3)
F10 F 0.1846(4) 0.7909(3) 0.2131(3)
F11 F 0.1729(5) 0.8731(3) 0.0812(3)
F12 F 0.1069(4) 0.9364(3) 0.2051(3)
P3 P 0.62226(18) 0.83219(13) 0.34601(13)
F13 F 0.6747(6) 0.7880(3) 0.2692(4)
F14 F 0.5690(6) 0.8753(4) 0.4248(3)
F15 F 0.5213(6) 0.7610(6) 0.3095(5)
F16 F 0.6886(5) 0.7666(5) 0.4221(4)
F17 F 0.5713(7) 0.9050(5) 0.2781(4)
F18 F 0.7273(8) 0.9033(5) 0.3892(6)
N1 N 1.3124(4) 0.5424(3) 0.7240(3)
N2 N 1.2140(4) 0.4157(3) 0.7230(3)
N3 N 1.0177(4) 0.3874(3) 0.7144(3)
N4 N 0.8603(4) 0.4614(3) 0.6925(3)
N5 N 0.6928(4) 0.4352(3) 0.4744(3)
C1 C 0.6173(5) 0.3821(4) 0.3950(4)
C2 C 0.5147(5) 0.3405(4) 0.3968(4)
H1 H 0.4621 0.3057 0.3394
C3 C 0.4932(6) 0.3527(5) 0.4876(5)
H2 H 0.4265 0.3243 0.4925
C4 C 0.5711(5) 0.4070(4) 0.5696(4)
H3 H 0.5577 0.4160 0.6307
C5 C 0.6685(5) 0.4476(4) 0.5605(4)
C6 C 0.7560(5) 0.5103(4) 0.6459(4)
H4 H 0.7773 0.5663 0.6211
H5 H 0.7211 0.5315 0.6963
C7 C 0.9299(5) 0.4212(4) 0.6471(4)
H6 H 0.9186 0.4175 0.5787
C8 C 0.9083(5) 0.4546(5) 0.7934(4)
H7 H 0.8774 0.4773 0.8428
C9 C 1.0058(6) 0.4103(5) 0.8083(4)
H8 H 1.0568 0.3969 0.8697
C10 C 1.1172(4) 0.3450(4) 0.6938(4)
H9 H 1.1400 0.2913 0.7312
H10 H 1.0957 0.3218 0.6225
C11 C 1.2171(5) 0.4892(4) 0.6749(4)
H11 H 1.1606 0.5014 0.6156
C12 C 1.3104(5) 0.4241(4) 0.8066(4)
H12 H 1.3295 0.3827 0.8551
C13 C 1.3725(5) 0.5020(4) 0.8069(4)
H13 H 1.4437 0.5247 0.8548
C14 C 1.3475(5) 0.6330(4) 0.6987(4)
H14 H 1.4125 0.6639 0.7550
H15 H 1.2834 0.6747 0.6873
N1A N 0.6876(4) 0.4576(3) 0.2760(3)
N2A N 0.7860(4) 0.5843(3) 0.2770(3)
N3A N 0.9823(4) 0.6126(3) 0.2856(3)
N4A N 1.1397(4) 0.5386(3) 0.3075(3)
N5A N 1.3072(4) 0.5648(3) 0.5256(3)
C1A C 1.3827(5) 0.6179(4) 0.6050(4)
C2A C 1.4853(5) 0.6595(4) 0.6032(4)
H1A H 1.5379 0.6943 0.6606
C3A C 1.5068(6) 0.6473(5) 0.5124(5)
H2A H 1.5735 0.6757 0.5075
C4A C 1.4289(5) 0.5930(4) 0.4304(4)
H3A H 1.4423 0.5840 0.3693
C5A C 1.3315(5) 0.5524(4) 0.4395(4)
C6A C 1.2440(5) 0.4897(4) 0.3541(4)
H4A H 1.2227 0.4337 0.3789
H5A H 1.2789 0.4685 0.3037
C7A C 1.0701(5) 0.5788(4) 0.3529(4)
H6A H 1.0814 0.5825 0.4213
C8A C 1.0917(5) 0.5454(5) 0.2066(4)
H7A H 1.1226 0.5227 0.1572
C9A C 0.9942(6) 0.5897(5) 0.1917(4)
H8A H 0.9432 0.6031 0.1303
C10A C 0.8828(4) 0.6550(4) 0.3062(4)
H9A H 0.8600 0.7087 0.2688
H10A H 0.9043 0.6782 0.3775
C11A C 0.7829(5) 0.5108(4) 0.3251(4)
H11A H 0.8394 0.4986 0.3844
C12A C 0.6896(5) 0.5759(4) 0.1934(4)
H12A H 0.6705 0.6173 0.1449
C13A C 0.6275(5) 0.4980(4) 0.1931(4)
H13A H 0.5563 0.4753 0.1452
C14A C 0.6525(5) 0.3670(4) 0.3013(4)
H14A H 0.5875 0.3361 0.2450
H15A H 0.7166 0.3253 0.3127
N6 N 0.3191(4) 0.0599(3) 0.0491(3)
N7 N 0.2789(4) 0.1029(3) 0.2451(3)
N8 N 0.1220(4) 0.1756(3) 0.2281(3)
N9 N 0.1888(4) -0.0096(3) -0.1666(3)
N10 N 0.0807(3) -0.1376(3) -0.1917(3)
C15 C 0.1250(5) -0.0580(3) -0.1282(4)
H16 H 0.1129 -0.0400 -0.0675
C16 C 0.1205(5) -0.1383(4) -0.2725(4)
H17 H 0.1040 -0.1855 -0.3275
C17 C 0.1859(5) -0.0594(4) -0.2562(4)
H18 H 0.2239 -0.0405 -0.2984
C18 C 0.2482(5) 0.0844(4) -0.1243(4)
H19 H 0.1914 0.1280 -0.1142
H20 H 0.2778 0.1075 -0.1733
C19 C 0.3470(5) 0.0872(3) -0.0264(4)
C20 C 0.4581(5) 0.1223(4) -0.0160(5)
H21 H 0.4742 0.1402 -0.0712
C21 C 0.5433(5) 0.1300(4) 0.0762(5)
H22 H 0.6187 0.1520 0.0850
C22 C 0.5144(5) 0.1041(4) 0.1563(4)
H23 H 0.5696 0.1104 0.2207
C23 C 0.4030(5) 0.0692(4) 0.1394(4)
C24 C 0.3672(5) 0.0414(4) 0.2236(4)
H24 H 0.3358 -0.0243 0.2065
H25 H 0.4353 0.0450 0.2839
C25 C 0.1807(5) 0.1239(3) 0.1792(4)
H26 H 0.1564 0.1057 0.1100
C26 C 0.2835(5) 0.1404(4) 0.3402(4)
H27 H 0.3433 0.1356 0.4003
C27 C 0.1855(5) 0.1851(4) 0.3295(4)
H28 H 0.1640 0.2170 0.3812
C28 C -0.0046(4) -0.2073(3) -0.1835(4)
H29 H 0.0101 -0.2139 -0.1132
H30 H 0.0023 -0.2691 -0.2182
N6A N -0.3191(4) -0.0599(3) -0.0491(3)
N7A N -0.2789(4) -0.1029(3) -0.2451(3)
N8A N -0.1220(4) -0.1756(3) -0.2281(3)
N9A N -0.1888(4) 0.0096(3) 0.1666(3)
N10A N -0.0807(3) 0.1376(3) 0.1917(3)
C15A C -0.1250(5) 0.0580(3) 0.1282(4)
H16A H -0.1129 0.0400 0.0675
C16A C -0.1205(5) 0.1383(4) 0.2725(4)
H17A H -0.1040 0.1855 0.3275
C17A C -0.1859(5) 0.0594(4) 0.2562(4)
H18A H -0.2239 0.0405 0.2984
C18A C -0.2482(5) -0.0844(4) 0.1243(4)
H19A H -0.1914 -0.1280 0.1142
H20A H -0.2778 -0.1075 0.1733
C19A C -0.3470(5) -0.0872(3) 0.0264(4)
C20A C -0.4581(5) -0.1223(4) 0.0160(5)
H21A H -0.4742 -0.1402 0.0712
C21A C -0.5433(5) -0.1300(4) -0.0762(5)
H22A H -0.6187 -0.1520 -0.0850
C22A C -0.5144(5) -0.1041(4) -0.1563(4)
H23A H -0.5696 -0.1104 -0.2207
C23A C -0.4030(5) -0.0692(4) -0.1394(4)
C24A C -0.3672(5) -0.0414(4) -0.2236(4)
H24A H -0.3358 0.0243 -0.2065
H25A H -0.4353 -0.0450 -0.2839
C25A C -0.1807(5) -0.1239(3) -0.1792(4)
H26A H -0.1564 -0.1057 -0.1100
C26A C -0.2835(5) -0.1404(4) -0.3402(4)
H27A H -0.3433 -0.1356 -0.4003
C27A C -0.1855(5) -0.1851(4) -0.3295(4)
H28A H -0.1640 -0.2170 -0.3812
C28A C 0.0046(4) 0.2073(3) 0.1835(4)
H29A H -0.0101 0.2139 0.1132
H30A H -0.0023 0.2691 0.2182
N11 N 0.7729(7) 0.3163(6) 1.1115(6)
C29 C 0.6630(9) 0.3307(6) 0.9250(7)
H31 H 0.7055 0.3018 0.8844
H32 H 0.6553 0.3968 0.9164
H33 H 0.5871 0.2989 0.9048
C30 C 0.7259(7) 0.3224(5) 1.0319(7)
C31 C 0.7035(15) 0.1118(10) 0.5712(10)
H34 H 0.6205 0.1080 0.5549
H35 H 0.7384 0.1554 0.6317
H36 H 0.7326 0.0498 0.5813
C32 C 0.7304(17) 0.1433(8) 0.4941(9)
N12 N 0.7023(10) 0.1637(6) 0.4159(6)
loop_
_geom_bond_atom_site_label_1
_geom_bond_atom_site_label_2
_geom_bond_site_symmetry_1
_geom_bond_site_symmetry_2
P1 F1 1_555 1_555
P2 F2 1_555 1_555
P3 F13 1_555 1_555
N1 C11 1_555 1_555
N2 C10 1_555 1_555
N3 C7 1_555 1_555
N4 C6 1_555 1_555
N5 C1 1_555 1_555
N6 C19 1_555 1_555
N7 C24 1_555 1_555
N8 C25 1_555 1_555
N9 C15 1_555 1_555
N10 C15 1_555 1_555
C1 C2 1_555 1_555
C2 H1 1_555 1_555
C3 C2 1_555 1_555
H2 C3 1_555 1_555
C4 C3 1_555 1_555
H3 C4 1_555 1_555
C5 N5 1_555 1_555
C6 C5 1_555 1_555
H4 C6 1_555 1_555
H5 C6 1_555 1_555
C7 N4 1_555 1_555
H6 C7 1_555 1_555
C8 N4 1_555 1_555
H7 C8 1_555 1_555
C9 N3 1_555 1_555
H8 C9 1_555 1_555
C10 N3 1_555 1_555
H9 C10 1_555 1_555
H10 C10 1_555 1_555
C11 N2 1_555 1_555
H11 C11 1_555 1_555
C12 N2 1_555 1_555
H12 C12 1_555 1_555
C13 N1 1_555 1_555
H13 C13 1_555 1_555
C14 N1 1_555 1_555
H14 C14 1_555 1_555
H15 C14 1_555 1_555
C15 H16 1_555 1_555
C16 N10 1_555 1_555
H17 C16 1_555 1_555
C17 N9 1_555 1_555
H18 C17 1_555 1_555
C18 N9 1_555 1_555
H19 C18 1_555 1_555
H20 C18 1_555 1_555
C19 C18 1_555 1_555
C20 C19 1_555 1_555
H21 C20 1_555 1_555
C21 C20 1_555 1_555
H22 C21 1_555 1_555
C22 C21 1_555 1_555
H23 C22 1_555 1_555
C23 N6 1_555 1_555
C24 C23 1_555 1_555
H24 C24 1_555 1_555
H25 C24 1_555 1_555
C25 N7 1_555 1_555
H26 C25 1_555 1_555
C26 N7 1_555 1_555
H27 C26 1_555 1_555
C27 N8 1_555 1_555
H28 C27 1_555 1_555
C28 N10 1_555 1_555
H29 C28 1_555 1_555
H30 C28 1_555 1_555
N11 C30 1_555 1_555
C29 H31 1_555 1_555
H32 C29 1_555 1_555
H33 C29 1_555 1_555
C30 C29 1_555 1_555
C31 H34 1_555 1_555
H35 C31 1_555 1_555
H36 C31 1_555 1_555
C32 C31 1_555 1_555
N12 C32 1_555 1_555
F3 P1 1_555 1_555
F4 P1 1_555 1_555
F5 P1 1_555 1_555
F6 P1 1_555 1_555
F7 P1 1_555 1_555
F8 P2 1_555 1_555
F9 P2 1_555 1_555
F10 P2 1_555 1_555
F11 P2 1_555 1_555
F12 P2 1_555 1_555
F14 P3 1_555 1_555
F15 P3 1_555 1_555
F16 P3 1_555 1_555
F17 P3 1_555 1_555
F18 P3 1_555 1_555
N1A C11A 1_555 1_555
N2A C10A 1_555 1_555
N3A C7A 1_555 1_555
N4A C6A 1_555 1_555
N5A C1A 1_555 1_555
N6A C19A 1_555 1_555
N7A C24A 1_555 1_555
N8A C28 1_555 1_555
N9A C15A 1_555 1_555
N10A C15A 1_555 1_555
C1A C14 1_555 1_555
C2A C1A 1_555 1_555
H1A C2A 1_555 1_555
C3A C2A 1_555 1_555
H2A C3A 1_555 1_555
C4A C3A 1_555 1_555
H3A C4A 1_555 1_555
C5A N5A 1_555 1_555
C6A C5A 1_555 1_555
H4A C6A 1_555 1_555
H5A C6A 1_555 1_555
C7A N4A 1_555 1_555
H6A C7A 1_555 1_555
C8A N4A 1_555 1_555
H7A C8A 1_555 1_555
C9A N3A 1_555 1_555
H8A C9A 1_555 1_555
C10A N3A 1_555 1_555
H9A C10A 1_555 1_555
H10A C10A 1_555 1_555
C11A N2A 1_555 1_555
H11A C11A 1_555 1_555
C12A N2A 1_555 1_555
H12A C12A 1_555 1_555
C13A N1A 1_555 1_555
H13A C13A 1_555 1_555
C14A C1 1_555 1_555
H14A C14A 1_555 1_555
H15A C14A 1_555 1_555
C15A H16A 1_555 1_555
C16A N10A 1_555 1_555
H17A C16A 1_555 1_555
C17A N9A 1_555 1_555
H18A C17A 1_555 1_555
C18A N9A 1_555 1_555
H19A C18A 1_555 1_555
H20A C18A 1_555 1_555
C19A C18A 1_555 1_555
C20A C19A 1_555 1_555
H21A C20A 1_555 1_555
C21A C20A 1_555 1_555
H22A C21A 1_555 1_555
C22A C21A 1_555 1_555
H23A C22A 1_555 1_555
C23A N6A 1_555 1_555
C24A C23A 1_555 1_555
H24A C24A 1_555 1_555
H25A C24A 1_555 1_555
C25A N7A 1_555 1_555
H26A C25A 1_555 1_555
C26A N7A 1_555 1_555
H27A C26A 1_555 1_555
C27A N8A 1_555 1_555
H28A C27A 1_555 1_555
C28A N8 1_555 1_555
H29A C28A 1_555 1_555
H30A C28A 1_555 1_555
C4 C5 1_555 1_555
C8 C9 1_555 1_555
C12 C13 1_555 1_555
C16 C17 1_555 1_555
C22 C23 1_555 1_555
C26 C27 1_555 1_555
N1A C14A 1_555 1_555
N8A C25A 1_555 1_555
N10A C28A 1_555 1_555
C4A C5A 1_555 1_555
C8A C9A 1_555 1_555
C12A C13A 1_555 1_555
C16A C17A 1_555 1_555
C22A C23A 1_555 1_555
C26A C27A 1_555 1_555

#END
