
#######################################################################
#
#                 Cambridge Crystallographic Data Centre
#                                CCDC 
#
#######################################################################
#
# If this CIF has been generated from an entry in the Cambridge 
# Structural Database, then it will include bibliographic, chemical, 
# crystal, experimental, refinement or atomic coordinate data resulting 
# from the CCDC's data processing and validation procedures.
#
#######################################################################

data_NAQRUS02
_chemical_formula_moiety         'C14 H16 N2 O4 S2'
_chemical_name_systematic        1,2-bis(p-Tolylsulfonyl)hydrazine
_symmetry_cell_setting           monoclinic
_symmetry_space_group_name_H-M   'P 21/c'
_symmetry_Int_Tables_number      14
_space_group_name_Hall           '-P 2ybc'
loop_
_symmetry_equiv_pos_site_id
_symmetry_equiv_pos_as_xyz
1 x,y,z
2 -x,1/2+y,1/2-z
3 -x,-y,-z
4 x,1/2-y,1/2+z
_cell_length_a                   15.7318(16)
_cell_length_b                   10.7016(12)
_cell_length_c                   9.4943(9)
_cell_angle_alpha                90
_cell_angle_beta                 90.102(2)
_cell_angle_gamma                90
_cell_volume                     1598.41
_exptl_crystal_colour            colorless
_exptl_crystal_description       flake
_cell_formula_units_Z            4
_exptl_crystal_recrystallization_method methanol/water
loop_
_atom_site_label
_atom_site_type_symbol
_atom_site_fract_x
_atom_site_fract_y
_atom_site_fract_z
S1 S 0.82111(9) 0.60680(14) -0.00482(14)
S2 S 0.70156(9) 0.91574(15) -0.01299(15)
N1 N 0.7517(2) 0.7008(4) 0.0725(4)
H1 H 0.7484 0.6794 0.1640
N2 N 0.7743(2) 0.8278(4) 0.0630(4)
H2 H 0.7823 0.8571 0.1508
O1 O 0.82411(18) 0.6447(3) -0.1491(3)
O2 O 0.7938(2) 0.4847(3) 0.0334(4)
O3 O 0.6846(2) 0.8623(3) -0.1482(3)
O4 O 0.7356(2) 1.0395(3) -0.0015(4)
C1 C 0.9213(3) 0.6382(5) 0.0667(5)
C2 C 0.9673(4) 0.7381(5) 0.0188(6)
H3 H 0.9458 0.7892 -0.0520
C3 C 1.0465(4) 0.7620(5) 0.0775(6)
H4 H 1.0772 0.8310 0.0467
C4 C 1.0807(3) 0.6865(5) 0.1799(6)
C5 C 1.0339(4) 0.5857(5) 0.2236(5)
H5 H 1.0567 0.5327 0.2915
C6 C 0.9547(3) 0.5604(5) 0.1703(6)
H6 H 0.9238 0.4923 0.2030
C7 C 1.1679(3) 0.7141(5) 0.2376(6)
H7 H 1.1862 0.6461 0.2962
H8 H 1.1661 0.7895 0.2924
H9 H 1.2071 0.7245 0.1611
C8 C 0.6086(3) 0.9042(5) 0.0880(5)
C9 C 0.6008(4) 0.9722(5) 0.2078(6)
H10 H 0.6448 1.0240 0.2374
C10 C 0.5265(4) 0.9636(6) 0.2860(6)
H11 H 0.5214 1.0115 0.3673
C11 C 0.4622(4) 0.8893(6) 0.2488(6)
C12 C 0.4712(4) 0.8228(5) 0.1302(7)
H12 H 0.4274 0.7698 0.1025
C13 C 0.5441(4) 0.8306(5) 0.0467(6)
H13 H 0.5480 0.7851 -0.0365
C14 C 0.3808(3) 0.8797(5) 0.3358(6)
H14 H 0.3852 0.9327 0.4170
H15 H 0.3727 0.7947 0.3654
H16 H 0.3332 0.9055 0.2794
loop_
_geom_bond_atom_site_label_1
_geom_bond_atom_site_label_2
_geom_bond_site_symmetry_1
_geom_bond_site_symmetry_2
S1 N1 1_555 1_555
S2 N2 1_555 1_555
N1 H1 1_555 1_555
N2 N1 1_555 1_555
H2 N2 1_555 1_555
O1 S1 1_555 1_555
O2 S1 1_555 1_555
O3 S2 1_555 1_555
O4 S2 1_555 1_555
C1 S1 1_555 1_555
C2 C1 1_555 1_555
H3 C2 1_555 1_555
C3 C2 1_555 1_555
H4 C3 1_555 1_555
C4 C3 1_555 1_555
C5 C4 1_555 1_555
H5 C5 1_555 1_555
C6 C1 1_555 1_555
H6 C6 1_555 1_555
C7 C4 1_555 1_555
H7 C7 1_555 1_555
H8 C7 1_555 1_555
H9 C7 1_555 1_555
C8 S2 1_555 1_555
C9 C8 1_555 1_555
H10 C9 1_555 1_555
C10 C9 1_555 1_555
H11 C10 1_555 1_555
C11 C10 1_555 1_555
C12 C11 1_555 1_555
H12 C12 1_555 1_555
C13 C8 1_555 1_555
H13 C13 1_555 1_555
C14 C11 1_555 1_555
H14 C14 1_555 1_555
H15 C14 1_555 1_555
H16 C14 1_555 1_555
C5 C6 1_555 1_555
C12 C13 1_555 1_555

#END
