
#######################################################################
#
#                 Cambridge Crystallographic Data Centre
#                                CCDC 
#
#######################################################################
#
# If this CIF has been generated from an entry in the Cambridge 
# Structural Database, then it will include bibliographic, chemical, 
# crystal, experimental, refinement or atomic coordinate data resulting 
# from the CCDC's data processing and validation procedures.
#
#######################################################################

data_NAQYUB
_chemical_formula_moiety         'C30 H66 Mg2 N6 Si4'
_chemical_name_systematic        
bis(\m~2~-2-(Diethylaminomethyl)pyrrolide)-bis(bis(trimethylsilyl)amide)-di-magnesium
_symmetry_cell_setting           triclinic
_symmetry_space_group_name_H-M   'P -1'
_symmetry_Int_Tables_number      2
_space_group_name_Hall           '-P 1'
loop_
_symmetry_equiv_pos_site_id
_symmetry_equiv_pos_as_xyz
1 x,y,z
2 -x,-y,-z
_cell_length_a                   9.3547(4)
_cell_length_b                   10.8897(4)
_cell_length_c                   10.8930(4)
_cell_angle_alpha                99.237(2)
_cell_angle_beta                 99.103(2)
_cell_angle_gamma                110.628(2)
_cell_volume                     996.971
_exptl_crystal_colour            colorless
_exptl_crystal_description       block
_cell_formula_units_Z            1
loop_
_atom_site_label
_atom_site_type_symbol
_atom_site_fract_x
_atom_site_fract_y
_atom_site_fract_z
C1 C 0.78482(13) 0.60863(13) 0.43465(12)
H1 H 0.8477 0.5677 0.4750
C2 C 0.83643(15) 0.70343(14) 0.36642(13)
H2 H 0.9391 0.7400 0.3522
C3 C 0.70830(15) 0.73687(13) 0.32099(12)
H3 H 0.7079 0.7995 0.2696
C4 C 0.41749(14) 0.64496(12) 0.33410(11)
H4 H 0.4054 0.7094 0.2827
H5 H 0.3838 0.6647 0.4141
C5 C 0.35383(15) 0.48401(13) 0.13135(11)
H6 H 0.4654 0.4956 0.1434
H7 H 0.3411 0.5556 0.0905
C6 C 0.25309(17) 0.34802(15) 0.04191(12)
H8 H 0.2597 0.2761 0.0834
H9 H 0.2906 0.3403 -0.0369
H10 H 0.1437 0.3397 0.0213
C7 C 0.14724(14) 0.48196(13) 0.24867(12)
H11 H 0.1279 0.4936 0.3357
H12 H 0.0819 0.3875 0.2023
C8 C 0.09195(17) 0.57489(15) 0.18084(15)
H13 H 0.1517 0.6688 0.2280
H14 H -0.0201 0.5519 0.1770
H15 H 0.1087 0.5637 0.0939
C9 C 0.65443(17) 0.30319(15) 0.12675(13)
H16 H 0.5668 0.2691 0.0513
H17 H 0.7466 0.2925 0.1024
H18 H 0.6793 0.3989 0.1618
C10 C 0.77470(15) 0.27097(15) 0.38847(13)
H19 H 0.8007 0.3666 0.4249
H20 H 0.8640 0.2606 0.3583
H21 H 0.7516 0.2198 0.4541
C11 C 0.58199(17) 0.02871(14) 0.18682(14)
H22 H 0.5513 -0.0257 0.2489
H23 H 0.6837 0.0312 0.1724
H24 H 0.5025 -0.0114 0.1059
C12 C 0.28585(17) -0.02154(14) 0.39485(15)
H25 H 0.3709 -0.0527 0.3860
H26 H 0.1872 -0.0996 0.3816
H27 H 0.3103 0.0355 0.4808
C13 C 0.19023(17) -0.04201(16) 0.11085(15)
H28 H 0.1997 0.0094 0.0444
H29 H 0.0797 -0.1001 0.1005
H30 H 0.2522 -0.0979 0.1032
C14 C 0.09663(15) 0.12937(14) 0.29248(15)
H31 H 0.1261 0.1959 0.3737
H32 H 0.0049 0.0499 0.2922
H33 H 0.0710 0.1691 0.2217
Mg1 Mg 0.42215(4) 0.39054(4) 0.37325(3)
N1 N 0.62774(10) 0.57939(9) 0.43762(9)
C15 C 0.58489(13) 0.66174(11) 0.36512(11)
N2 N 0.31608(11) 0.50294(10) 0.26016(9)
N3 N 0.43304(11) 0.21776(9) 0.29159(9)
Si1 Si 0.59819(4) 0.20553(3) 0.25079(3)
Si2 Si 0.26523(4) 0.07808(3) 0.27298(3)
C1A C 0.21518(13) 0.39137(13) 0.56535(12)
H1A H 0.1523 0.4323 0.5250
C2A C 0.16357(15) 0.29657(14) 0.63358(13)
H2A H 0.0609 0.2600 0.6478
C3A C 0.29170(15) 0.26313(13) 0.67901(12)
H3A H 0.2921 0.2005 0.7304
C4A C 0.58251(14) 0.35504(12) 0.66590(11)
H4A H 0.5946 0.2906 0.7173
H5A H 0.6162 0.3353 0.5859
C5A C 0.64617(15) 0.51599(13) 0.86865(11)
H6A H 0.5346 0.5044 0.8566
H7A H 0.6589 0.4444 0.9095
C6A C 0.74691(17) 0.65198(15) 0.95809(12)
H8A H 0.7403 0.7239 0.9166
H9A H 0.7094 0.6597 1.0369
H10A H 0.8563 0.6603 0.9787
C7A C 0.85276(14) 0.51804(13) 0.75133(12)
H11A H 0.8721 0.5064 0.6643
H12A H 0.9181 0.6125 0.7977
C8A C 0.90805(17) 0.42511(15) 0.81916(15)
H13A H 0.8483 0.3312 0.7720
H14A H 1.0201 0.4481 0.8230
H15A H 0.8913 0.4363 0.9061
C9A C 0.34557(17) 0.69681(15) 0.87325(13)
H16A H 0.4332 0.7309 0.9487
H17A H 0.2534 0.7075 0.8976
H18A H 0.3207 0.6011 0.8382
C10A C 0.22530(15) 0.72903(15) 0.61153(13)
H19A H 0.1993 0.6334 0.5751
H20A H 0.1360 0.7394 0.6417
H21A H 0.2484 0.7802 0.5459
C11A C 0.41801(17) 0.97129(14) 0.81318(14)
H22A H 0.4487 1.0257 0.7511
H23A H 0.3163 0.9688 0.8276
H24A H 0.4975 1.0114 0.8941
C12A C 0.71415(17) 1.02154(14) 0.60515(15)
H25A H 0.6291 1.0527 0.6140
H26A H 0.8128 1.0996 0.6184
H27A H 0.6897 0.9645 0.5192
C13A C 0.80977(17) 1.04201(16) 0.88915(15)
H28A H 0.8003 0.9906 0.9556
H29A H 0.9203 1.1001 0.8995
H30A H 0.7478 1.0979 0.8968
C14A C 0.90337(15) 0.87063(14) 0.70752(15)
H31A H 0.8739 0.8041 0.6263
H32A H 0.9951 0.9501 0.7078
H33A H 0.9290 0.8309 0.7783
Mg1A Mg 0.57785(4) 0.60946(4) 0.62675(3)
N1A N 0.37226(10) 0.42061(9) 0.56238(9)
C15A C 0.41511(13) 0.33826(11) 0.63488(11)
N2A N 0.68392(11) 0.49706(10) 0.73984(9)
N3A N 0.56696(11) 0.78224(9) 0.70841(9)
Si1A Si 0.40181(4) 0.79447(3) 0.74921(3)
Si2A Si 0.73477(4) 0.92192(3) 0.72702(3)
loop_
_geom_bond_atom_site_label_1
_geom_bond_atom_site_label_2
_geom_bond_site_symmetry_1
_geom_bond_site_symmetry_2
C1 H1 1_555 1_555
C2 C1 1_555 1_555
H2 C2 1_555 1_555
C3 C2 1_555 1_555
H3 C3 1_555 1_555
C4 H4 1_555 1_555
H5 C4 1_555 1_555
C5 H6 1_555 1_555
H7 C5 1_555 1_555
C6 C5 1_555 1_555
H8 C6 1_555 1_555
H9 C6 1_555 1_555
H10 C6 1_555 1_555
C7 H11 1_555 1_555
H12 C7 1_555 1_555
C8 C7 1_555 1_555
H13 C8 1_555 1_555
H14 C8 1_555 1_555
H15 C8 1_555 1_555
C9 H16 1_555 1_555
H17 C9 1_555 1_555
H18 C9 1_555 1_555
C10 H19 1_555 1_555
H20 C10 1_555 1_555
H21 C10 1_555 1_555
C11 H22 1_555 1_555
H23 C11 1_555 1_555
H24 C11 1_555 1_555
C12 H25 1_555 1_555
H26 C12 1_555 1_555
H27 C12 1_555 1_555
C13 H28 1_555 1_555
H29 C13 1_555 1_555
H30 C13 1_555 1_555
C14 H31 1_555 1_555
H32 C14 1_555 1_555
H33 C14 1_555 1_555
Mg1 N1 1_555 1_555
N1 C1 1_555 1_555
C15 C3 1_555 1_555
N2 C4 1_555 1_555
N3 Mg1 1_555 1_555
Si1 C9 1_555 1_555
Si2 C12 1_555 1_555
C1A H1A 1_555 1_555
C2A C1A 1_555 1_555
H2A C2A 1_555 1_555
C3A C2A 1_555 1_555
H3A C3A 1_555 1_555
C4A H4A 1_555 1_555
H5A C4A 1_555 1_555
C5A H6A 1_555 1_555
H7A C5A 1_555 1_555
C6A C5A 1_555 1_555
H8A C6A 1_555 1_555
H9A C6A 1_555 1_555
H10A C6A 1_555 1_555
C7A H11A 1_555 1_555
H12A C7A 1_555 1_555
C8A C7A 1_555 1_555
H13A C8A 1_555 1_555
H14A C8A 1_555 1_555
H15A C8A 1_555 1_555
C9A H16A 1_555 1_555
H17A C9A 1_555 1_555
H18A C9A 1_555 1_555
C10A H19A 1_555 1_555
H20A C10A 1_555 1_555
H21A C10A 1_555 1_555
C11A H22A 1_555 1_555
H23A C11A 1_555 1_555
H24A C11A 1_555 1_555
C12A H25A 1_555 1_555
H26A C12A 1_555 1_555
H27A C12A 1_555 1_555
C13A H28A 1_555 1_555
H29A C13A 1_555 1_555
H30A C13A 1_555 1_555
C14A H31A 1_555 1_555
H32A C14A 1_555 1_555
H33A C14A 1_555 1_555
Mg1A N1 1_555 1_555
N1A Mg1 1_555 1_555
C15A C3A 1_555 1_555
N2A C4A 1_555 1_555
N3A Mg1A 1_555 1_555
Si1A C9A 1_555 1_555
Si2A C12A 1_555 1_555
C4 C15 1_555 1_555
C5 N2 1_555 1_555
C7 N2 1_555 1_555
C10 Si1 1_555 1_555
C11 Si1 1_555 1_555
C13 Si2 1_555 1_555
C14 Si2 1_555 1_555
Mg1 N2 1_555 1_555
N1 C15 1_555 1_555
N3 Si1 1_555 1_555
N3 Si2 1_555 1_555
C1A N1A 1_555 1_555
C4A C15A 1_555 1_555
C5A N2A 1_555 1_555
C7A N2A 1_555 1_555
C10A Si1A 1_555 1_555
C11A Si1A 1_555 1_555
C13A Si2A 1_555 1_555
C14A Si2A 1_555 1_555
Mg1A N1A 1_555 1_555
Mg1A N2A 1_555 1_555
N1A C15A 1_555 1_555
N3A Si1A 1_555 1_555
N3A Si2A 1_555 1_555

#END
