
#######################################################################
#
#                 Cambridge Crystallographic Data Centre
#                                CCDC 
#
#######################################################################
#
# If this CIF has been generated from an entry in the Cambridge 
# Structural Database, then it will include bibliographic, chemical, 
# crystal, experimental, refinement or atomic coordinate data resulting 
# from the CCDC's data processing and validation procedures.
#
#######################################################################

data_NAQZEM
_chemical_formula_moiety         'C30 H66 Mg2 N6 Si4'
_chemical_name_systematic        
bis(\m~2~-\h^1^-2-(t-Butylaminomethyl)pyrrolyl)-bis(bis(trimethylsilyl)amide)-di-magnesium
_symmetry_cell_setting           monoclinic
_symmetry_space_group_name_H-M   'P 21/n'
_symmetry_Int_Tables_number      14
_space_group_name_Hall           '-P 2yn'
loop_
_symmetry_equiv_pos_site_id
_symmetry_equiv_pos_as_xyz
1 x,y,z
2 1/2-x,1/2+y,1/2-z
3 -x,-y,-z
4 1/2+x,1/2-y,1/2+z
_cell_length_a                   9.5446(10)
_cell_length_b                   14.1127(10)
_cell_length_c                   15.5764(17)
_cell_angle_alpha                90
_cell_angle_beta                 101.290(3)
_cell_angle_gamma                90
_cell_volume                     2057.54
_exptl_crystal_colour            colorless
_exptl_crystal_description       block
_cell_formula_units_Z            2
loop_
_atom_site_label
_atom_site_type_symbol
_atom_site_fract_x
_atom_site_fract_y
_atom_site_fract_z
C1 C 0.70163(14) -0.01540(11) 0.55695(9)
H1 H 0.7726 -0.0579 0.5368
C2 C 0.68957(15) -0.00640(11) 0.64420(9)
H2 H 0.7686 -0.0262 0.6930
C3 C 0.61047(17) 0.07848(11) 0.64927(10)
H3 H 0.6175 0.1176 0.7034
C4 C 0.58084(15) 0.11476(10) 0.56521(9)
C5 C 0.49989(18) 0.20311(11) 0.53211(9)
H4 H 0.3978 0.1953 0.5348
H5 H 0.5379 0.2575 0.5696
C6 C 0.42581(16) 0.30340(10) 0.39699(10)
C7 C 0.4752(2) 0.32222(12) 0.31132(11)
H6 H 0.5763 0.3402 0.3238
H7 H 0.4184 0.3738 0.2798
H8 H 0.4626 0.2648 0.2753
C8 C 0.26882(18) 0.27536(12) 0.37816(12)
H9 H 0.2554 0.2195 0.3401
H10 H 0.2113 0.3279 0.3490
H11 H 0.2387 0.2606 0.4333
C9 C 0.4483(2) 0.39266(12) 0.45347(13)
H12 H 0.4073 0.3833 0.5058
H13 H 0.4013 0.4465 0.4199
H14 H 0.5509 0.4055 0.4710
C10 C 0.63331(19) -0.08084(14) 0.84663(11)
H15 H 0.6658 -0.0234 0.8210
H16 H 0.6710 -0.0814 0.9098
H17 H 0.6678 -0.1368 0.8198
C11 C 0.3907(2) -0.18255(14) 0.89588(11)
H18 H 0.4189 -0.2427 0.8727
H19 H 0.4434 -0.1739 0.9560
H20 H 0.2879 -0.1834 0.8955
C12 C 0.3813(3) 0.03101(14) 0.87515(12)
H21 H 0.2781 0.0313 0.8734
H22 H 0.4323 0.0359 0.9360
H23 H 0.4066 0.0850 0.8417
C13 C 0.06720(19) -0.12171(17) 0.76717(12)
H24 H 0.0930 -0.0800 0.8181
H25 H -0.0348 -0.1147 0.7421
H26 H 0.0872 -0.1876 0.7853
C14 C 0.11465(19) 0.03245(13) 0.64179(12)
H27 H 0.1628 0.0505 0.5941
H28 H 0.0111 0.0320 0.6202
H29 H 0.1384 0.0782 0.6898
C15 C 0.11471(17) -0.17383(13) 0.58976(11)
H30 H 0.1443 -0.2382 0.6088
H31 H 0.0104 -0.1714 0.5723
H32 H 0.1579 -0.1563 0.5399
Mg1 Mg 0.46287(5) -0.08257(3) 0.61995(3)
N1 N 0.63491(12) 0.05782(8) 0.50839(8)
N2 N 0.51407(13) 0.22200(8) 0.44030(8)
N3 N 0.35633(12) -0.09237(8) 0.71785(7)
Si1 Si 0.43287(4) -0.08241(3) 0.82595(3)
Si2 Si 0.17531(4) -0.08873(3) 0.68240(3)
H33 H 0.608(2) 0.2426(14) 0.4446(12)
C1B C 0.29837(14) 0.01540(11) 0.44305(9)
H1B H 0.2274 0.0579 0.4632
C2B C 0.31043(15) 0.00640(11) 0.35580(9)
H2B H 0.2314 0.0262 0.3070
C3B C 0.38953(17) -0.07848(11) 0.35073(10)
H3B H 0.3825 -0.1176 0.2966
C4B C 0.41916(15) -0.11476(10) 0.43479(9)
C5B C 0.50011(18) -0.20311(11) 0.46789(9)
H4B H 0.6022 -0.1953 0.4652
H5B H 0.4621 -0.2575 0.4304
C6B C 0.57419(16) -0.30340(10) 0.60301(10)
C7B C 0.5248(2) -0.32222(12) 0.68868(11)
H6B H 0.4237 -0.3402 0.6762
H7B H 0.5816 -0.3738 0.7202
H8B H 0.5374 -0.2648 0.7247
C8B C 0.73118(18) -0.27536(12) 0.62184(12)
H9B H 0.7446 -0.2195 0.6599
H10B H 0.7887 -0.3279 0.6510
H11B H 0.7613 -0.2606 0.5667
C9B C 0.5517(2) -0.39266(12) 0.54653(13)
H12B H 0.5927 -0.3833 0.4942
H13B H 0.5987 -0.4465 0.5801
H14B H 0.4491 -0.4055 0.5290
C10B C 0.36669(19) 0.08084(14) 0.15337(11)
H15B H 0.3342 0.0234 0.1790
H16B H 0.3290 0.0814 0.0902
H17B H 0.3322 0.1368 0.1802
C11B C 0.6093(2) 0.18255(14) 0.10412(11)
H18B H 0.5811 0.2427 0.1273
H19B H 0.5566 0.1739 0.0440
H20B H 0.7121 0.1834 0.1045
C12B C 0.6187(3) -0.03101(14) 0.12485(12)
H21B H 0.7219 -0.0313 0.1266
H22B H 0.5677 -0.0359 0.0640
H23B H 0.5934 -0.0850 0.1583
C13B C 0.93280(19) 0.12171(17) 0.23283(12)
H24B H 0.9070 0.0800 0.1819
H25B H 1.0348 0.1147 0.2579
H26B H 0.9128 0.1876 0.2147
C14B C 0.88535(19) -0.03245(13) 0.35821(12)
H27B H 0.8372 -0.0505 0.4059
H28B H 0.9889 -0.0320 0.3798
H29B H 0.8616 -0.0782 0.3102
C15B C 0.88529(17) 0.17383(13) 0.41024(11)
H30B H 0.8557 0.2382 0.3912
H31B H 0.9896 0.1714 0.4277
H32B H 0.8421 0.1563 0.4601
Mg1B Mg 0.53713(5) 0.08257(3) 0.38005(3)
N1B N 0.36509(12) -0.05782(8) 0.49161(8)
N2B N 0.48593(13) -0.22200(8) 0.55970(8)
N3B N 0.64367(12) 0.09237(8) 0.28215(7)
Si1B Si 0.56713(4) 0.08241(3) 0.17405(3)
Si2B Si 0.82469(4) 0.08873(3) 0.31760(3)
H33B H 0.392(2) -0.2426(14) 0.5554(12)
loop_
_geom_bond_atom_site_label_1
_geom_bond_atom_site_label_2
_geom_bond_site_symmetry_1
_geom_bond_site_symmetry_2
C1 H1 1_555 1_555
C2 C1 1_555 1_555
H2 C2 1_555 1_555
C3 C2 1_555 1_555
H3 C3 1_555 1_555
C4 C3 1_555 1_555
C5 C4 1_555 1_555
H4 C5 1_555 1_555
H5 C5 1_555 1_555
C6 C7 1_555 1_555
C7 H6 1_555 1_555
H7 C7 1_555 1_555
H8 C7 1_555 1_555
C8 C6 1_555 1_555
H9 C8 1_555 1_555
H10 C8 1_555 1_555
H11 C8 1_555 1_555
C9 C6 1_555 1_555
H12 C9 1_555 1_555
H13 C9 1_555 1_555
H14 C9 1_555 1_555
C10 H15 1_555 1_555
H16 C10 1_555 1_555
H17 C10 1_555 1_555
C11 H18 1_555 1_555
H19 C11 1_555 1_555
H20 C11 1_555 1_555
C12 H21 1_555 1_555
H22 C12 1_555 1_555
H23 C12 1_555 1_555
C13 H24 1_555 1_555
H25 C13 1_555 1_555
H26 C13 1_555 1_555
C14 H27 1_555 1_555
H28 C14 1_555 1_555
H29 C14 1_555 1_555
C15 H30 1_555 1_555
H31 C15 1_555 1_555
H32 C15 1_555 1_555
Mg1 C2 1_555 1_555
N1 C1 1_555 1_555
N2 C5 1_555 1_555
N3 Mg1 1_555 1_555
Si1 C10 1_555 1_555
Si2 C13 1_555 1_555
H33 N2 1_555 1_555
C1B H1B 1_555 1_555
C2B C1B 1_555 1_555
H2B C2B 1_555 1_555
C3B C2B 1_555 1_555
H3B C3B 1_555 1_555
C4B C3B 1_555 1_555
C5B C4B 1_555 1_555
H4B C5B 1_555 1_555
H5B C5B 1_555 1_555
C6B C7B 1_555 1_555
C7B H6B 1_555 1_555
H7B C7B 1_555 1_555
H8B C7B 1_555 1_555
C8B C6B 1_555 1_555
H9B C8B 1_555 1_555
H10B C8B 1_555 1_555
H11B C8B 1_555 1_555
C9B C6B 1_555 1_555
H12B C9B 1_555 1_555
H13B C9B 1_555 1_555
H14B C9B 1_555 1_555
C10B H15B 1_555 1_555
H16B C10B 1_555 1_555
H17B C10B 1_555 1_555
C11B H18B 1_555 1_555
H19B C11B 1_555 1_555
H20B C11B 1_555 1_555
C12B H21B 1_555 1_555
H22B C12B 1_555 1_555
H23B C12B 1_555 1_555
C13B H24B 1_555 1_555
H25B C13B 1_555 1_555
H26B C13B 1_555 1_555
C14B H27B 1_555 1_555
H28B C14B 1_555 1_555
H29B C14B 1_555 1_555
C15B H30B 1_555 1_555
H31B C15B 1_555 1_555
H32B C15B 1_555 1_555
Mg1B N1 1_555 1_555
N1B Mg1 1_555 1_555
N2B Mg1 1_555 1_555
N3B Mg1B 1_555 1_555
Si1B C10B 1_555 1_555
Si2B C13B 1_555 1_555
H33B N2B 1_555 1_555
C4 N1 1_555 1_555
C6 N2 1_555 1_555
C11 Si1 1_555 1_555
C12 Si1 1_555 1_555
C14 Si2 1_555 1_555
C15 Si2 1_555 1_555
N2 Mg1B 1_555 1_555
N3 Si1 1_555 1_555
N3 Si2 1_555 1_555
C1B N1B 1_555 1_555
C2B Mg1B 1_555 1_555
C4B N1B 1_555 1_555
C5B N2B 1_555 1_555
C6B N2B 1_555 1_555
C11B Si1B 1_555 1_555
C12B Si1B 1_555 1_555
C14B Si2B 1_555 1_555
C15B Si2B 1_555 1_555
N3B Si1B 1_555 1_555
N3B Si2B 1_555 1_555

#END
