
#######################################################################
#
#                 Cambridge Crystallographic Data Centre
#                                CCDC 
#
#######################################################################
#
# If this CIF has been generated from an entry in the Cambridge 
# Structural Database, then it will include bibliographic, chemical, 
# crystal, experimental, refinement or atomic coordinate data resulting 
# from the CCDC's data processing and validation procedures.
#
#######################################################################

data_NAQZIQ
_chemical_formula_moiety         'C36 H64 Mg2 N4 O4 Si4'
_chemical_name_systematic        
bis(\m~2~-4-(2-Methoxyphenylimino)pent-2-en-2-olato)-bis(bis(trimethylsilyl)amide)-di-magnesium
_symmetry_cell_setting           orthorhombic
_symmetry_space_group_name_H-M   'P b c n'
_symmetry_Int_Tables_number      60
_space_group_name_Hall           '-P 2n 2ab'
loop_
_symmetry_equiv_pos_site_id
_symmetry_equiv_pos_as_xyz
1 x,y,z
2 1/2-x,1/2-y,1/2+z
3 -x,y,1/2-z
4 1/2+x,1/2-y,-z
5 -x,-y,-z
6 1/2+x,1/2+y,1/2-z
7 x,-y,1/2+z
8 1/2-x,1/2+y,z
_cell_length_a                   22.149(4)
_cell_length_b                   12.194(2)
_cell_length_c                   16.073(3)
_cell_angle_alpha                90
_cell_angle_beta                 90
_cell_angle_gamma                90
_cell_volume                     4341.07
_exptl_crystal_colour            colorless
_exptl_crystal_description       block
_cell_formula_units_Z            4
loop_
_atom_site_label
_atom_site_type_symbol
_atom_site_fract_x
_atom_site_fract_y
_atom_site_fract_z
C1 C 0.53114(14) 0.2065(3) 0.47660(17)
H1 H 0.5123 0.1352 0.4878
H2 H 0.5268 0.2539 0.5255
H3 H 0.5741 0.1960 0.4644
C2 C 0.50070(12) 0.2593(2) 0.40294(16)
C3 C 0.47181(12) 0.3572(2) 0.41304(17)
H4 H 0.4725 0.3870 0.4677
C4 C 0.44059(12) 0.4208(2) 0.35159(17)
C5 C 0.42359(14) 0.5354(2) 0.37887(18)
H5 H 0.4574 0.5853 0.3684
H6 H 0.4142 0.5351 0.4384
H7 H 0.3882 0.5600 0.3475
C6 C 0.40201(12) 0.4411(2) 0.21253(17)
C7 C 0.41515(13) 0.5497(2) 0.19420(18)
H8 H 0.4425 0.5891 0.2285
C8 C 0.38878(14) 0.6016(2) 0.12609(19)
H9 H 0.3980 0.6762 0.1146
C9 C 0.34962(14) 0.5456(3) 0.07569(19)
H10 H 0.3307 0.5823 0.0305
C10 C 0.33733(13) 0.4355(3) 0.09015(18)
H11 H 0.3107 0.3963 0.0546
C11 C 0.36449(12) 0.3840(2) 0.15709(16)
C12 C 0.31466(13) 0.2122(2) 0.12610(18)
H12 H 0.2749 0.2469 0.1307
H13 H 0.3124 0.1368 0.1470
H14 H 0.3273 0.2113 0.0677
C13 C 0.43152(15) -0.0386(3) 0.14383(19)
H15 H 0.4116 0.0080 0.1024
H16 H 0.4376 -0.1121 0.1207
H17 H 0.4707 -0.0067 0.1585
C14 C 0.41576(16) -0.1593(2) 0.3059(2)
H18 H 0.4534 -0.1336 0.3312
H19 H 0.4240 -0.2240 0.2715
H20 H 0.3869 -0.1787 0.3498
C15 C 0.30983(14) -0.1066(3) 0.1999(2)
H21 H 0.2823 -0.1185 0.2468
H22 H 0.3176 -0.1766 0.1720
H23 H 0.2914 -0.0552 0.1605
C16 C 0.31517(17) -0.0223(3) 0.4372(2)
H24 H 0.3015 -0.0883 0.4079
H25 H 0.2860 -0.0032 0.4807
H26 H 0.3547 -0.0362 0.4626
C17 C 0.33504(19) 0.2183(4) 0.4257(3)
H27 H 0.3748 0.2130 0.4523
H28 H 0.3037 0.2235 0.4686
H29 H 0.3337 0.2837 0.3904
C18 C 0.24351(15) 0.1125(4) 0.3193(2)
H30 H 0.2425 0.1762 0.2822
H31 H 0.2153 0.1239 0.3655
H32 H 0.2317 0.0467 0.2883
Mg1 Mg 0.42971(4) 0.20480(7) 0.25515(5)
N1 N 0.42682(10) 0.37827(18) 0.27877(13)
N2 N 0.37600(10) 0.07604(18) 0.28715(14)
O1 O 0.50360(8) 0.20499(14) 0.33229(11)
O2 O 0.35798(8) 0.27330(15) 0.17469(11)
Si1 Si 0.38314(3) -0.04794(6) 0.23941(5)
Si2 Si 0.32165(4) 0.09444(7) 0.36119(5)
C1B C 0.46886(14) 0.2065(3) 0.02340(17)
H1B H 0.4877 0.1352 0.0122
H2B H 0.4732 0.2539 -0.0255
H3B H 0.4259 0.1960 0.0356
C2B C 0.49930(12) 0.2593(2) 0.09706(16)
C3B C 0.52819(12) 0.3572(2) 0.08696(17)
H4B H 0.5275 0.3870 0.0323
C4B C 0.55941(12) 0.4208(2) 0.14841(17)
C5B C 0.57641(14) 0.5354(2) 0.12113(18)
H5B H 0.5426 0.5853 0.1316
H6B H 0.5858 0.5351 0.0616
H7B H 0.6118 0.5600 0.1525
C6B C 0.59799(12) 0.4411(2) 0.28747(17)
C7B C 0.58485(13) 0.5497(2) 0.30580(18)
H8B H 0.5575 0.5891 0.2715
C8B C 0.61122(14) 0.6016(2) 0.37391(19)
H9B H 0.6020 0.6762 0.3854
C9B C 0.65038(14) 0.5456(3) 0.42431(19)
H10B H 0.6693 0.5823 0.4695
C10B C 0.66267(13) 0.4355(3) 0.40985(18)
H11B H 0.6893 0.3963 0.4454
C11B C 0.63551(12) 0.3840(2) 0.34291(16)
C12B C 0.68534(13) 0.2122(2) 0.37390(18)
H12B H 0.7251 0.2469 0.3693
H13B H 0.6876 0.1368 0.3530
H14B H 0.6727 0.2113 0.4323
C13B C 0.56848(15) -0.0386(3) 0.35617(19)
H15B H 0.5884 0.0080 0.3976
H16B H 0.5624 -0.1121 0.3793
H17B H 0.5293 -0.0067 0.3415
C14B C 0.58424(16) -0.1593(2) 0.1941(2)
H18B H 0.5466 -0.1336 0.1688
H19B H 0.5760 -0.2240 0.2285
H20B H 0.6131 -0.1787 0.1502
C15B C 0.69017(14) -0.1066(3) 0.3001(2)
H21B H 0.7177 -0.1185 0.2532
H22B H 0.6824 -0.1766 0.3280
H23B H 0.7086 -0.0552 0.3395
C16B C 0.68483(17) -0.0223(3) 0.0628(2)
H24B H 0.6985 -0.0883 0.0921
H25B H 0.7140 -0.0032 0.0193
H26B H 0.6453 -0.0362 0.0374
C17B C 0.66496(19) 0.2183(4) 0.0743(3)
H27B H 0.6252 0.2130 0.0477
H28B H 0.6963 0.2235 0.0314
H29B H 0.6663 0.2837 0.1096
C18B C 0.75649(15) 0.1125(4) 0.1807(2)
H30B H 0.7575 0.1762 0.2178
H31B H 0.7847 0.1239 0.1345
H32B H 0.7683 0.0467 0.2117
Mg1B Mg 0.57029(4) 0.20480(7) 0.24485(5)
N1B N 0.57318(10) 0.37827(18) 0.22123(13)
N2B N 0.62400(10) 0.07604(18) 0.21285(14)
O1B O 0.49640(8) 0.20499(14) 0.16771(11)
O2B O 0.64202(8) 0.27330(15) 0.32531(11)
Si1B Si 0.61686(3) -0.04794(6) 0.26059(5)
Si2B Si 0.67835(4) 0.09444(7) 0.13881(5)
loop_
_geom_bond_atom_site_label_1
_geom_bond_atom_site_label_2
_geom_bond_site_symmetry_1
_geom_bond_site_symmetry_2
C1 H1 1_555 1_555
H2 C1 1_555 1_555
H3 C1 1_555 1_555
C2 C1 1_555 1_555
C3 C2 1_555 1_555
H4 C3 1_555 1_555
C4 C3 1_555 1_555
C5 C4 1_555 1_555
H5 C5 1_555 1_555
H6 C5 1_555 1_555
H7 C5 1_555 1_555
C6 C7 1_555 1_555
C7 H8 1_555 1_555
C8 C7 1_555 1_555
H9 C8 1_555 1_555
C9 C8 1_555 1_555
H10 C9 1_555 1_555
C10 C9 1_555 1_555
H11 C10 1_555 1_555
C11 C6 1_555 1_555
C12 H12 1_555 1_555
H13 C12 1_555 1_555
H14 C12 1_555 1_555
C13 H15 1_555 1_555
H16 C13 1_555 1_555
H17 C13 1_555 1_555
C14 H18 1_555 1_555
H19 C14 1_555 1_555
H20 C14 1_555 1_555
C15 H21 1_555 1_555
H22 C15 1_555 1_555
H23 C15 1_555 1_555
C16 H24 1_555 1_555
H25 C16 1_555 1_555
H26 C16 1_555 1_555
C17 H27 1_555 1_555
H28 C17 1_555 1_555
H29 C17 1_555 1_555
C18 H30 1_555 1_555
H31 C18 1_555 1_555
H32 C18 1_555 1_555
Mg1 N1 1_555 1_555
N1 C4 1_555 1_555
N2 Mg1 1_555 1_555
O1 C2 1_555 1_555
O2 C11 1_555 1_555
Si1 C13 1_555 1_555
Si2 C16 1_555 1_555
C1B H1B 1_555 1_555
H2B C1B 1_555 1_555
H3B C1B 1_555 1_555
C2B C1B 1_555 1_555
C3B C2B 1_555 1_555
H4B C3B 1_555 1_555
C4B C3B 1_555 1_555
C5B C4B 1_555 1_555
H5B C5B 1_555 1_555
H6B C5B 1_555 1_555
H7B C5B 1_555 1_555
C6B C7B 1_555 1_555
C7B H8B 1_555 1_555
C8B C7B 1_555 1_555
H9B C8B 1_555 1_555
C9B C8B 1_555 1_555
H10B C9B 1_555 1_555
C10B C9B 1_555 1_555
H11B C10B 1_555 1_555
C11B C6B 1_555 1_555
C12B H12B 1_555 1_555
H13B C12B 1_555 1_555
H14B C12B 1_555 1_555
C13B H15B 1_555 1_555
H16B C13B 1_555 1_555
H17B C13B 1_555 1_555
C14B H18B 1_555 1_555
H19B C14B 1_555 1_555
H20B C14B 1_555 1_555
C15B H21B 1_555 1_555
H22B C15B 1_555 1_555
H23B C15B 1_555 1_555
C16B H24B 1_555 1_555
H25B C16B 1_555 1_555
H26B C16B 1_555 1_555
C17B H27B 1_555 1_555
H28B C17B 1_555 1_555
H29B C17B 1_555 1_555
C18B H30B 1_555 1_555
H31B C18B 1_555 1_555
H32B C18B 1_555 1_555
Mg1B O1 1_555 1_555
N1B C4B 1_555 1_555
N2B Mg1B 1_555 1_555
O1B Mg1 1_555 1_555
O2B C11B 1_555 1_555
Si1B C13B 1_555 1_555
Si2B C16B 1_555 1_555
C6 N1 1_555 1_555
C10 C11 1_555 1_555
C12 O2 1_555 1_555
C14 Si1 1_555 1_555
C15 Si1 1_555 1_555
C17 Si2 1_555 1_555
C18 Si2 1_555 1_555
Mg1 O1 1_555 1_555
Mg1 O2 1_555 1_555
N2 Si1 1_555 1_555
N2 Si2 1_555 1_555
C2B O1B 1_555 1_555
C6B N1B 1_555 1_555
C10B C11B 1_555 1_555
C12B O2B 1_555 1_555
C14B Si1B 1_555 1_555
C15B Si1B 1_555 1_555
C17B Si2B 1_555 1_555
C18B Si2B 1_555 1_555
Mg1B N1B 1_555 1_555
Mg1B O1B 1_555 1_555
Mg1B O2B 1_555 1_555
N2B Si1B 1_555 1_555
N2B Si2B 1_555 1_555

#END
