
#######################################################################
#
#                 Cambridge Crystallographic Data Centre
#                                CCDC 
#
#######################################################################
#
# If this CIF has been generated from an entry in the Cambridge 
# Structural Database, then it will include bibliographic, chemical, 
# crystal, experimental, refinement or atomic coordinate data resulting 
# from the CCDC's data processing and validation procedures.
#
#######################################################################

data_NAQZOU
_chemical_formula_moiety         'C22 H17 N1 O1'
_chemical_name_systematic        N-Benzyl-3-benzylideneisoindolin-1-one
_symmetry_cell_setting           triclinic
_symmetry_space_group_name_H-M   'P -1'
_symmetry_Int_Tables_number      2
_space_group_name_Hall           '-P 1'
loop_
_symmetry_equiv_pos_site_id
_symmetry_equiv_pos_as_xyz
1 x,y,z
2 -x,-y,-z
_cell_length_a                   8.545(1)
_cell_length_b                   9.643(1)
_cell_length_c                   10.807(1)
_cell_angle_alpha                88.80(1)
_cell_angle_beta                 67.61(1)
_cell_angle_gamma                82.98(1)
_cell_volume                     816.868
_exptl_crystal_colour            colorless
_exptl_crystal_description       prism
_chemical_melting_point          122deg.C
_cell_formula_units_Z            2
_exptl_crystal_recrystallization_method 'carbon tetrachloride'
loop_
_atom_site_label
_atom_site_type_symbol
_atom_site_fract_x
_atom_site_fract_y
_atom_site_fract_z
O1 O 0.74169(13) 0.08359(9) 0.50248(9)
N1 N 0.61044(13) 0.10324(9) 0.35009(9)
C1 C 0.3451(2) 0.45278(14) 0.41298(14)
C2 C 0.3545(2) 0.58839(15) 0.3669(2)
C3 C 0.5060(3) 0.62662(15) 0.2793(2)
C4 C 0.6493(2) 0.5308(2) 0.2383(2)
C5 C 0.6422(2) 0.39494(14) 0.28346(13)
C6 C 0.48894(15) 0.35497(11) 0.37133(11)
C7 C 0.4753(2) 0.21022(12) 0.42741(12)
C8 C 0.7349(2) 0.04936(11) 0.39660(12)
C9 C 0.8520(2) -0.05287(11) 0.29419(12)
C10 C 0.9961(2) -0.13727(14) 0.2935(2)
C11 C 1.0832(2) -0.2250(2) 0.1827(2)
C12 C 1.0280(2) -0.2268(2) 0.0774(2)
C13 C 0.8844(2) -0.14198(14) 0.07867(14)
C14 C 0.7960(2) -0.05429(11) 0.18973(12)
C15 C 0.64043(15) 0.04633(11) 0.22260(11)
C16 C 0.5558(2) 0.07720(13) 0.14189(13)
C17 C 0.4003(2) 0.17587(13) 0.16422(12)
C18 C 0.2424(2) 0.1553(2) 0.26134(15)
C19 C 0.1014(2) 0.2526(2) 0.2819(2)
C20 C 0.1145(2) 0.3704(2) 0.2063(2)
C21 C 0.2685(2) 0.38963(15) 0.1070(2)
C22 C 0.4096(2) 0.29299(14) 0.08533(14)
H1 H 0.2339(21) 0.4211(17) 0.4758(17)
H2 H 0.2488(26) 0.6567(21) 0.3973(20)
H3 H 0.5048(24) 0.7268(21) 0.2485(19)
H4 H 0.7629(25) 0.5561(20) 0.1721(20)
H5 H 0.7486(19) 0.3281(16) 0.2509(15)
H6 H 0.3617(18) 0.1809(14) 0.4370(14)
H7 H 0.4864(17) 0.2129(14) 0.5154(14)
H8 H 1.0374(19) -0.1341(16) 0.3694(16)
H9 H 1.1861(22) -0.2876(18) 0.1788(17)
H10 H 1.0933(23) -0.2903(20) -0.0003(19)
H11 H 0.8508(22) -0.1446(18) 0.0021(18)
H12 H 0.6095(19) 0.0274(16) 0.0544(16)
H13 H 0.2351(20) 0.0722(17) 0.3133(16)
H14 H -0.0072(26) 0.2380(20) 0.3528(20)
H15 H 0.0140(24) 0.4449(20) 0.2245(18)
H16 H 0.2800(22) 0.4774(20) 0.0520(18)
H17 H 0.5246(22) 0.3041(18) 0.0151(18)
loop_
_geom_bond_atom_site_label_1
_geom_bond_atom_site_label_2
_geom_bond_site_symmetry_1
_geom_bond_site_symmetry_2
O1 C8 1_555 1_555
N1 C7 1_555 1_555
C1 C2 1_555 1_555
C2 C3 1_555 1_555
C3 C4 1_555 1_555
C4 C5 1_555 1_555
C5 C6 1_555 1_555
C6 C1 1_555 1_555
C7 C6 1_555 1_555
C8 N1 1_555 1_555
C9 C8 1_555 1_555
C10 C9 1_555 1_555
C11 C10 1_555 1_555
C12 C11 1_555 1_555
C13 C12 1_555 1_555
C14 C9 1_555 1_555
C15 N1 1_555 1_555
C16 C15 1_555 1_555
C17 C16 1_555 1_555
C18 C17 1_555 1_555
C19 C18 1_555 1_555
C20 C19 1_555 1_555
C21 C20 1_555 1_555
C22 C17 1_555 1_555
H1 C1 1_555 1_555
H2 C2 1_555 1_555
H3 C3 1_555 1_555
H4 C4 1_555 1_555
H5 C5 1_555 1_555
H6 C7 1_555 1_555
H7 C7 1_555 1_555
H8 C10 1_555 1_555
H9 C11 1_555 1_555
H10 C12 1_555 1_555
H11 C13 1_555 1_555
H12 C16 1_555 1_555
H13 C18 1_555 1_555
H14 C19 1_555 1_555
H15 C20 1_555 1_555
H16 C21 1_555 1_555
H17 C22 1_555 1_555
C13 C14 1_555 1_555
C14 C15 1_555 1_555
C21 C22 1_555 1_555

#END
