
#######################################################################
#
#                 Cambridge Crystallographic Data Centre
#                                CCDC 
#
#######################################################################
#
# If this CIF has been generated from an entry in the Cambridge 
# Structural Database, then it will include bibliographic, chemical, 
# crystal, experimental, refinement or atomic coordinate data resulting 
# from the CCDC's data processing and validation procedures.
#
#######################################################################

data_NARCIV
_chemical_formula_moiety         'C31 H33 I1 O1'
_chemical_name_systematic        
4-(2-(2,5-diethyl-4-(2-(4-iodophenyl)vinyl)phenyl)vinyl)-2,5-diethylbenzaldehyde
_symmetry_cell_setting           monoclinic
_symmetry_space_group_name_H-M   'P 21'
_symmetry_Int_Tables_number      4
_space_group_name_Hall           'P 2yb'
loop_
_symmetry_equiv_pos_site_id
_symmetry_equiv_pos_as_xyz
1 x,y,z
2 -x,1/2+y,-z
_cell_length_a                   4.78079(6)
_cell_length_b                   8.99614(11)
_cell_length_c                   29.6213(3)
_cell_angle_alpha                90
_cell_angle_beta                 92.8870(10)
_cell_angle_gamma                90
_cell_volume                     1272.36
_exptl_crystal_colour            colorless
_exptl_crystal_description       needle
_cell_formula_units_Z            2
loop_
_atom_site_label
_atom_site_type_symbol
_atom_site_fract_x
_atom_site_fract_y
_atom_site_fract_z
C1 C -0.9074(6) 0.6783(4) 0.47235(11)
H1 H -0.9474 0.7675 0.4865
C2 C -0.7108(6) 0.6853(3) 0.43519(9)
C3 C -0.6563(6) 0.5669(3) 0.40601(10)
C4 C -0.4628(6) 0.5916(3) 0.37312(10)
H2 H -0.4253 0.5143 0.3535
C5 C -0.3221(6) 0.7266(3) 0.36809(9)
C6 C -0.3776(6) 0.8451(3) 0.39759(9)
C7 C -0.5745(5) 0.8220(5) 0.43027(8)
H3 H -0.6164 0.9000 0.4494
C8 C -0.7882(6) 0.4152(3) 0.40946(10)
H4 H -0.7895 0.3669 0.3802
H5 H -0.9809 0.4264 0.4177
C9 C -0.6314(6) 0.3173(5) 0.44446(10)
H6 H -0.4423 0.3031 0.4359
H7 H -0.7232 0.2227 0.4460
H8 H -0.6303 0.3646 0.4735
C10 C -0.2406(7) 0.9957(3) 0.39418(11)
H9 H -0.0417 0.9824 0.3905
H10 H -0.2628 1.0499 0.4221
C11 C -0.3648(8) 1.0873(4) 0.35469(12)
H11 H -0.5635 1.0964 0.3573
H12 H -0.3277 1.0387 0.3268
H13 H -0.2814 1.1844 0.3552
C12 C -0.1176(6) 0.7433(3) 0.33281(10)
H14 H 0.0282 0.8105 0.3381
C13 C -0.1274(6) 0.6687(3) 0.29385(10)
H15 H -0.2715 0.6001 0.2891
C14 C 0.0704(6) 0.6855(3) 0.25778(9)
C15 C 0.1023(6) 0.5704(3) 0.22588(10)
C16 C 0.2789(6) 0.5940(3) 0.19058(10)
H16 H 0.3005 0.5180 0.1697
C17 C 0.4259(6) 0.7277(3) 0.18503(10)
C18 C 0.4033(6) 0.8399(3) 0.21777(10)
C19 C 0.2257(5) 0.8160(5) 0.25309(8)
H17 H 0.2098 0.8906 0.2746
C20 C -0.0392(7) 0.4217(3) 0.22950(11)
H18 H -0.0264 0.3688 0.2011
H19 H -0.2361 0.4372 0.2345
C21 C 0.0907(8) 0.3260(5) 0.26798(12)
H20 H 0.2872 0.3136 0.2639
H21 H 0.0013 0.2304 0.2677
H22 H 0.0648 0.3741 0.2964
C22 C 0.5540(7) 0.9868(4) 0.21456(11)
H23 H 0.7462 0.9686 0.2071
H24 H 0.5574 1.0356 0.2438
C23 C 0.4163(8) 1.0900(4) 0.17907(13)
H25 H 0.2229 1.1040 0.1853
H26 H 0.4290 1.0466 0.1496
H27 H 0.5103 1.1843 0.1800
C24 C 0.5856(6) 0.7521(4) 0.14456(11)
H28 H 0.7440 0.8122 0.1470
C25 C 0.5130(7) 0.6918(4) 0.10434(11)
H29 H 0.3639 0.6253 0.1036
C26 C 0.6431(7) 0.7190(3) 0.06114(11)
C27 C 0.5349(8) 0.6443(4) 0.02263(12)
H30 H 0.3898 0.5766 0.0254
C28 C 0.6394(8) 0.6689(4) -0.01973(11)
H31 H 0.5654 0.6182 -0.0450
C29 C 0.8538(7) 0.7693(3) -0.02378(10)
C30 C 0.9664(8) 0.8447(4) 0.01363(12)
H32 H 1.1131 0.9112 0.0106
C31 C 0.8592(6) 0.8207(6) 0.05582(10)
H33 H 0.9324 0.8731 0.0808
I1 I 1.01260(4) 0.81096(4) -0.08737(2)
O1 O -1.0212(6) 0.5680(3) 0.48613(9)
loop_
_geom_bond_atom_site_label_1
_geom_bond_atom_site_label_2
_geom_bond_site_symmetry_1
_geom_bond_site_symmetry_2
C1 H1 1_555 1_555
C2 C1 1_555 1_555
C3 C2 1_555 1_555
C4 C3 1_555 1_555
H2 C4 1_555 1_555
C5 C4 1_555 1_555
C6 C5 1_555 1_555
C7 C2 1_555 1_555
H3 C7 1_555 1_555
C8 C3 1_555 1_555
H4 C8 1_555 1_555
H5 C8 1_555 1_555
C9 C8 1_555 1_555
H6 C9 1_555 1_555
H7 C9 1_555 1_555
H8 C9 1_555 1_555
C10 C6 1_555 1_555
H9 C10 1_555 1_555
H10 C10 1_555 1_555
C11 C10 1_555 1_555
H11 C11 1_555 1_555
H12 C11 1_555 1_555
H13 C11 1_555 1_555
C12 C5 1_555 1_555
H14 C12 1_555 1_555
C13 C12 1_555 1_555
H15 C13 1_555 1_555
C14 C13 1_555 1_555
C15 C14 1_555 1_555
C16 C15 1_555 1_555
H16 C16 1_555 1_555
C17 C16 1_555 1_555
C18 C17 1_555 1_555
C19 C14 1_555 1_555
H17 C19 1_555 1_555
C20 C15 1_555 1_555
H18 C20 1_555 1_555
H19 C20 1_555 1_555
C21 C20 1_555 1_555
H20 C21 1_555 1_555
H21 C21 1_555 1_555
H22 C21 1_555 1_555
C22 C18 1_555 1_555
H23 C22 1_555 1_555
H24 C22 1_555 1_555
C23 C22 1_555 1_555
H25 C23 1_555 1_555
H26 C23 1_555 1_555
H27 C23 1_555 1_555
C24 C17 1_555 1_555
H28 C24 1_555 1_555
C25 C24 1_555 1_555
H29 C25 1_555 1_555
C26 C25 1_555 1_555
C27 C26 1_555 1_555
H30 C27 1_555 1_555
C28 C27 1_555 1_555
H31 C28 1_555 1_555
C29 C28 1_555 1_555
C30 C29 1_555 1_555
H32 C30 1_555 1_555
C31 C26 1_555 1_555
H33 C31 1_555 1_555
I1 C29 1_555 1_555
O1 C1 1_555 1_555
C6 C7 1_555 1_555
C18 C19 1_555 1_555
C30 C31 1_555 1_555

#END
