
#######################################################################
#
#                 Cambridge Crystallographic Data Centre
#                                CCDC 
#
#######################################################################
#
# If this CIF has been generated from an entry in the Cambridge 
# Structural Database, then it will include bibliographic, chemical, 
# crystal, experimental, refinement or atomic coordinate data resulting 
# from the CCDC's data processing and validation procedures.
#
#######################################################################

data_NARDAO
_chemical_formula_moiety         'C12 H13 N1 O2'
_chemical_name_systematic        '4-cyano-2,5-diethylbenzoic acid'
_symmetry_cell_setting           triclinic
_symmetry_space_group_name_H-M   'P -1'
_symmetry_Int_Tables_number      2
_space_group_name_Hall           '-P 1'
loop_
_symmetry_equiv_pos_site_id
_symmetry_equiv_pos_as_xyz
1 x,y,z
2 -x,-y,-z
_cell_length_a                   7.0832(8)
_cell_length_b                   8.2844(6)
_cell_length_c                   9.3308(7)
_cell_angle_alpha                79.693(6)
_cell_angle_beta                 76.670(8)
_cell_angle_gamma                82.684(8)
_cell_volume                     522.059
_exptl_crystal_colour            colorless
_exptl_crystal_description       rectangle
_cell_formula_units_Z            2
loop_
_atom_site_label
_atom_site_type_symbol
_atom_site_fract_x
_atom_site_fract_y
_atom_site_fract_z
C1 C 0.2243(3) 0.1208(2) 0.4731(2)
C2 C 0.4061(3) 0.2065(2) 0.4458(2)
C3 C 0.4968(3) 0.2530(2) 0.2966(2)
H1 H 0.4394 0.2323 0.2224
C4 C 0.6690(3) 0.3289(2) 0.2553(2)
C5 C 0.7485(3) 0.3589(2) 0.3709(2)
C6 C 0.6596(3) 0.3149(2) 0.5205(2)
H2 H 0.7165 0.3379 0.5941
C7 C 0.4866(3) 0.2371(2) 0.5623(2)
C8 C 0.7691(3) 0.3667(3) 0.0931(2)
H3 H 0.8367 0.4651 0.0778
H4 H 0.6719 0.3886 0.0322
C9 C 0.9142(4) 0.2246(3) 0.0434(3)
H5 H 0.9678 0.2495 -0.0615
H6 H 0.8491 0.1257 0.0634
H7 H 1.0172 0.2093 0.0972
C10 C 0.3955(3) 0.1891(3) 0.7254(2)
H8 H 0.3770 0.0726 0.7432
H9 H 0.2677 0.2487 0.7461
C11 C 0.5101(4) 0.2209(3) 0.8354(3)
H10 H 0.5288 0.3360 0.8200
H11 H 0.6346 0.1578 0.8202
H12 H 0.4393 0.1889 0.9354
C12 C 0.9285(3) 0.4382(2) 0.3346(2)
N1 N 1.0700(3) 0.5009(3) 0.3030(2)
O1 O 0.1858(2) 0.0821(2) 0.35250(19)
H13 H 0.0831 0.0387 0.3746
O2 O 0.1202(2) 0.0864(2) 0.59764(19)
loop_
_geom_bond_atom_site_label_1
_geom_bond_atom_site_label_2
_geom_bond_site_symmetry_1
_geom_bond_site_symmetry_2
C1 C2 1_555 1_555
C2 C3 1_555 1_555
C3 H1 1_555 1_555
C4 C3 1_555 1_555
C5 C4 1_555 1_555
C6 C5 1_555 1_555
H2 C6 1_555 1_555
C7 C2 1_555 1_555
C8 C4 1_555 1_555
H3 C8 1_555 1_555
H4 C8 1_555 1_555
C9 C8 1_555 1_555
H5 C9 1_555 1_555
H6 C9 1_555 1_555
H7 C9 1_555 1_555
C10 C7 1_555 1_555
H8 C10 1_555 1_555
H9 C10 1_555 1_555
C11 C10 1_555 1_555
H10 C11 1_555 1_555
H11 C11 1_555 1_555
H12 C11 1_555 1_555
C12 C5 1_555 1_555
N1 C12 1_555 1_555
O1 C1 1_555 1_555
H13 O1 1_555 1_555
O2 C1 1_555 1_555
C6 C7 1_555 1_555

#END
