
#######################################################################
#
#                 Cambridge Crystallographic Data Centre
#                                CCDC 
#
#######################################################################
#
# If this CIF has been generated from an entry in the Cambridge 
# Structural Database, then it will include bibliographic, chemical, 
# crystal, experimental, refinement or atomic coordinate data resulting 
# from the CCDC's data processing and validation procedures.
#
#######################################################################

data_NARDES
_chemical_formula_moiety         'C40 H39 N1 O2'
_chemical_name_systematic        
1-(2-(2,5-diethyl-4-(2-(4-ethynylphenyl)vinyl)phenyl)vinyl)-2,5-diethyl-4-(2-(4-nitrophenyl)vinyl)benzene
_symmetry_cell_setting           triclinic
_symmetry_space_group_name_H-M   'P -1'
_symmetry_Int_Tables_number      2
_space_group_name_Hall           '-P 1'
loop_
_symmetry_equiv_pos_site_id
_symmetry_equiv_pos_as_xyz
1 x,y,z
2 -x,-y,-z
_cell_length_a                   5.4082(3)
_cell_length_b                   9.8110(6)
_cell_length_c                   14.8124(10)
_cell_angle_alpha                95.944(5)
_cell_angle_beta                 96.471(5)
_cell_angle_gamma                92.474(4)
_cell_volume                     775.541
_exptl_crystal_colour            orange
_exptl_crystal_description       needle
_cell_formula_units_Z            1
loop_
_atom_site_label
_atom_site_type_symbol
_atom_site_fract_x
_atom_site_fract_y
_atom_site_fract_z
C1 C 0.7802(7) 0.7910(4) -0.0059(2)
C2 C 0.7722(7) 0.6508(4) 0.0015(2)
H1 H 0.8483 0.5921 -0.0389
C3 C 0.6505(7) 0.5985(3) 0.0693(3)
H2 H 0.6451 0.5047 0.0742
C4 C 0.5368(6) 0.6863(4) 0.1297(2)
C5 C 0.5448(7) 0.8265(4) 0.1224(2)
H3 H 0.4688 0.8853 0.1628
C6 C 0.6665(7) 0.8789(3) 0.0546(3)
H4 H 0.6719 0.9726 0.0497
C7 C 0.3865(4) 0.6299(3) 0.19255(14)
H5 H 0.4209 0.5427 0.2080
C8 C 0.2022(4) 0.6914(2) 0.23064(16)
H6 H 0.1652 0.7776 0.2136
C9 C 0.0518(3) 0.6364(2) 0.29693(14)
C10 C -0.0724(3) 0.7246(2) 0.35557(14)
C11 C -0.2171(3) 0.6667(2) 0.41536(13)
H7 H -0.2968 0.7251 0.4549
C12 C -0.2486(3) 0.5255(2) 0.41897(13)
C13 C -0.1245(3) 0.4373(2) 0.35947(13)
C14 C 0.0207(3) 0.4957(2) 0.30015(13)
H8 H 0.1010 0.4376 0.2607
C15 C -0.0432(4) 0.8789(2) 0.35857(16)
H9 H -0.1732 0.9196 0.3907
H10 H -0.0651 0.9038 0.2966
C16 C 0.2106(4) 0.9380(2) 0.40561(18)
H11 H 0.3397 0.9023 0.3720
H12 H 0.2346 0.9125 0.4667
H13 H 0.2168 1.0362 0.4076
C17 C -0.1572(4) 0.2828(2) 0.35441(15)
H14 H -0.1424 0.2558 0.4159
H15 H -0.0253 0.2419 0.3234
C18 C -0.4086(4) 0.2278(2) 0.30392(18)
H16 H -0.4257 0.2559 0.2434
H17 H -0.5398 0.2635 0.3364
H18 H -0.4186 0.1294 0.3001
C19 C -0.4037(4) 0.4701(2) 0.48392(13)
H19 H -0.3632 0.3862 0.5040
N1 N 0.925(2) 0.8074(13) -0.0914(9)
O1 O 0.8672(18) 0.8985(11) -0.1371(5)
O2 O 1.0897(15) 0.7532(8) -0.1152(4)
C1A C -1.7802(7) 0.2090(4) 1.0059(2)
C2A C -1.7722(7) 0.3492(4) 0.9985(2)
H1A H -1.8483 0.4079 1.0389
C3A C -1.6505(7) 0.4015(3) 0.9307(3)
H2A H -1.6451 0.4953 0.9258
C4A C -1.5368(6) 0.3137(4) 0.8703(2)
C5A C -1.5448(7) 0.1735(4) 0.8776(2)
H3A H -1.4688 0.1147 0.8372
C6A C -1.6665(7) 0.1211(3) 0.9454(3)
H4A H -1.6719 0.0274 0.9503
C7A C -1.3865(4) 0.3701(3) 0.80745(14)
H5A H -1.4209 0.4573 0.7920
C8A C -1.2022(4) 0.3086(2) 0.76936(16)
H6A H -1.1652 0.2224 0.7864
C9A C -1.0518(3) 0.3636(2) 0.70307(14)
C10A C -0.9276(3) 0.2754(2) 0.64443(14)
C11A C -0.7829(3) 0.3333(2) 0.58464(13)
H7A H -0.7032 0.2749 0.5451
C12A C -0.7514(3) 0.4745(2) 0.58103(13)
C13A C -0.8755(3) 0.5627(2) 0.64053(13)
C14A C -1.0207(3) 0.5043(2) 0.69985(13)
H8A H -1.1010 0.5624 0.7393
C15A C -0.9568(4) 0.1211(2) 0.64143(16)
H9A H -0.8268 0.0804 0.6093
H10A H -0.9349 0.0962 0.7034
C16A C -1.2106(4) 0.0620(2) 0.59439(18)
H11A H -1.3397 0.0977 0.6280
H12A H -1.2346 0.0875 0.5333
H13A H -1.2168 -0.0362 0.5924
C17A C -0.8428(4) 0.7172(2) 0.64559(15)
H14A H -0.8576 0.7442 0.5841
H15A H -0.9747 0.7581 0.6766
C18A C -0.5914(4) 0.7722(2) 0.69608(18)
H16A H -0.5743 0.7441 0.7566
H17A H -0.4602 0.7365 0.6636
H18A H -0.5814 0.8706 0.6999
C19A C -0.5963(4) 0.5299(2) 0.51608(13)
H19A H -0.6368 0.6138 0.4960
N1A N -1.925(2) 0.1926(13) 1.0914(9)
O1A O -1.8672(18) 0.1015(11) 1.1371(5)
O2A O -2.0897(15) 0.2468(8) 1.1152(4)
C20? C 0.5488(6) 0.8249(4) -0.0079(2)
H20? H 0.4886 0.8934 -0.0421
C21? C 0.4193(5) 0.7830(4) 0.0612(3)
H21? H 0.2724 0.8234 0.0733
C22? C 0.5094(6) 0.6808(4) 0.1122(2)
C23? C 0.7290(7) 0.6204(3) 0.0942(2)
H22? H 0.7892 0.5520 0.1283
C24? C 0.8585(6) 0.6623(4) 0.0251(3)
H23? H 1.0054 0.6220 0.0130
C25? C 0.7684(6) 0.7646(4) -0.0260(2)
H24? H 0.4445 0.5513 0.2160
C26? C 0.890(3) 0.8562(19) -0.0822(7)
C27? C 0.981(3) 0.928(2) -0.1182(15)
H25? H 1.0606 0.9915 -0.1496
loop_
_geom_bond_atom_site_label_1
_geom_bond_atom_site_label_2
_geom_bond_site_symmetry_1
_geom_bond_site_symmetry_2
C1 C2 1_555 1_555
C2 H1 1_555 1_555
C3 C2 1_555 1_555
H2 C3 1_555 1_555
C4 C3 1_555 1_555
C5 C4 1_555 1_555
H3 C5 1_555 1_555
C6 C1 1_555 1_555
H4 C6 1_555 1_555
C7 C4 1_555 1_555
H5 C7 1_555 1_555
C8 C7 1_555 1_555
H6 C8 1_555 1_555
C9 C8 1_555 1_555
C10 C9 1_555 1_555
C11 C10 1_555 1_555
H7 C11 1_555 1_555
C12 C11 1_555 1_555
C13 C12 1_555 1_555
C14 C9 1_555 1_555
H8 C14 1_555 1_555
C15 C10 1_555 1_555
H9 C15 1_555 1_555
H10 C15 1_555 1_555
C16 C15 1_555 1_555
H11 C16 1_555 1_555
H12 C16 1_555 1_555
H13 C16 1_555 1_555
C17 C13 1_555 1_555
H14 C17 1_555 1_555
H15 C17 1_555 1_555
C18 C17 1_555 1_555
H16 C18 1_555 1_555
H17 C18 1_555 1_555
H18 C18 1_555 1_555
C19 C12 1_555 1_555
H19 C19 1_555 1_555
N1 C1 1_555 1_555
O1 N1 1_555 1_555
O2 N1 1_555 1_555
C1A C2A 1_555 1_555
C2A H1A 1_555 1_555
C3A C2A 1_555 1_555
H2A C3A 1_555 1_555
C4A C3A 1_555 1_555
C5A C4A 1_555 1_555
H3A C5A 1_555 1_555
C6A C1A 1_555 1_555
H4A C6A 1_555 1_555
C7A C4A 1_555 1_555
H5A C7A 1_555 1_555
C8A C7A 1_555 1_555
H6A C8A 1_555 1_555
C9A C8A 1_555 1_555
C10A C9A 1_555 1_555
C11A C10A 1_555 1_555
H7A C11A 1_555 1_555
C12A C11A 1_555 1_555
C13A C12A 1_555 1_555
C14A C9A 1_555 1_555
H8A C14A 1_555 1_555
C15A C10A 1_555 1_555
H9A C15A 1_555 1_555
H10A C15A 1_555 1_555
C16A C15A 1_555 1_555
H11A C16A 1_555 1_555
H12A C16A 1_555 1_555
H13A C16A 1_555 1_555
C17A C13A 1_555 1_555
H14A C17A 1_555 1_555
H15A C17A 1_555 1_555
C18A C17A 1_555 1_555
H16A C18A 1_555 1_555
H17A C18A 1_555 1_555
H18A C18A 1_555 1_555
C19A C19 1_555 1_555
H19A C19A 1_555 1_555
N1A C1A 1_555 1_555
O1A N1A 1_555 1_555
O2A N1A 1_555 1_555
C5 C6 1_555 1_555
C13 C14 1_555 1_555
C5A C6A 1_555 1_555
C12A C19A 1_555 1_555
C13A C14A 1_555 1_555

#END
