
#######################################################################
#
#                 Cambridge Crystallographic Data Centre
#                                CCDC 
#
#######################################################################
#
# If this CIF has been generated from an entry in the Cambridge 
# Structural Database, then it will include bibliographic, chemical, 
# crystal, experimental, refinement or atomic coordinate data resulting 
# from the CCDC's data processing and validation procedures.
#
#######################################################################

data_NARDAL
_chemical_formula_moiety         'C12 H21 N2 O2 1+,C7 H5 O2 1-'
_chemical_name_systematic        
'4,9-Dihydroxy-4,9-dimethyl-4H,9H-1,2,5,6,6a,7,8-heptahydroimidazo(1,2,3,-i,j)(1,8)naphthyridinium benzoate'
_symmetry_cell_setting           monoclinic
_symmetry_space_group_name_H-M   'P 21/n'
_symmetry_Int_Tables_number      14
_space_group_name_Hall           '-P 2yn'
loop_
_symmetry_equiv_pos_site_id
_symmetry_equiv_pos_as_xyz
1 x,y,z
2 1/2-x,1/2+y,1/2-z
3 -x,-y,-z
4 1/2+x,1/2-y,1/2+z
_cell_length_a                   13.210(3)
_cell_length_b                   9.801(3)
_cell_length_c                   13.968(3)
_cell_angle_alpha                90
_cell_angle_beta                 91.728(12)
_cell_angle_gamma                90
_cell_volume                     1807.63
_exptl_crystal_colour            colorless
_exptl_crystal_description       prism
_cell_formula_units_Z            4
_exptl_crystal_recrystallization_method 'ethyl acetate/ethanol'
loop_
_atom_site_label
_atom_site_type_symbol
_atom_site_fract_x
_atom_site_fract_y
_atom_site_fract_z
O1 O 0.50899(11) 0.0241(2) 0.63311(11)
H1 H 0.47545(11) 0.0861(2) 0.65554(11)
O2 O 0.32291(11) 0.0618(2) 0.98743(10)
H2 H 0.32850(11) 0.1214(2) 0.94678(10)
N1 N 0.35895(11) -0.1066(2) 0.87333(11)
N2 N 0.43291(12) -0.1314(2) 0.73580(11)
C1 C 0.4617(2) -0.1521(3) 0.9006(2)
H3 H 0.4606(2) -0.2418(3) 0.9298(2)
H4 H 0.4943(2) -0.0884(3) 0.9448(2)
C2 C 0.5146(2) -0.1555(3) 0.80716(15)
H5 H 0.5657(2) -0.0847(3) 0.80463(15)
H6 H 0.5463(2) -0.2434(3) 0.79727(15)
C3 C 0.5190(2) -0.2068(3) 0.5926(2)
H7 H 0.4838(2) -0.2925(3) 0.5922(2)
H8 H 0.5804(2) -0.2149(3) 0.6306(2)
H9 H 0.5348(2) -0.1822(3) 0.5283(2)
C4 C 0.4528(2) -0.0983(2) 0.63472(15)
C5 C 0.3519(2) -0.0847(2) 0.58045(14)
H10 H 0.3223(2) -0.1746(2) 0.57190(14)
H11 H 0.3635(2) -0.0473(2) 0.51744(14)
C6 C 0.2776(2) 0.0061(2) 0.63142(14)
H12 H 0.2153(2) 0.0134(2) 0.59327(14)
H13 H 0.3060(2) 0.0968(2) 0.63913(14)
C7 C 0.25520(14) -0.0532(2) 0.72901(13)
H14 H 0.21576(14) -0.1366(2) 0.71732(13)
C8 C 0.34961(13) -0.0950(2) 0.77973(13)
C9 C 0.19393(15) 0.0351(2) 0.79517(15)
H15 H 0.12717(15) 0.0512(2) 0.76660(15)
H16 H 0.22715(15) 0.1226(2) 0.80440(15)
C10 C 0.18418(15) -0.0361(2) 0.89135(15)
H17 H 0.14100(15) 0.0182(2) 0.93141(15)
H18 H 0.15155(15) -0.1238(2) 0.88109(15)
C11 C 0.2773(2) -0.1621(2) 1.0227(2)
H19 H 0.2518(2) -0.2463(2) 0.9965(2)
H20 H 0.2320(2) -0.1290(2) 1.0699(2)
H21 H 0.3431(2) -0.1770(2) 1.0520(2)
C12 C 0.28525(15) -0.0583(2) 0.94370(14)
O3 O 0.41551(11) 0.2747(2) 0.90726(11)
O4 O 0.42953(11) 0.1807(2) 0.76524(12)
C13 C 0.4582(2) 0.2621(2) 0.8294(2)
C14 C 0.54745(14) 0.3531(2) 0.81057(14)
C15 C 0.6029(2) 0.3393(2) 0.7291(2)
H22 H 0.5830(2) 0.2752(2) 0.6832(2)
C16 C 0.6869(2) 0.4182(3) 0.7144(2)
H23 H 0.7238(2) 0.4066(3) 0.6593(2)
C17 C 0.7162(2) 0.5138(3) 0.7809(2)
H24 H 0.7733(2) 0.5669(3) 0.7711(2)
C18 C 0.6617(2) 0.5316(3) 0.8619(2)
H25 H 0.6812(2) 0.5976(3) 0.9066(2)
C19 C 0.5777(2) 0.4512(2) 0.8769(2)
H26 H 0.5410(2) 0.4631(2) 0.9321(2)
loop_
_geom_bond_atom_site_label_1
_geom_bond_atom_site_label_2
_geom_bond_site_symmetry_1
_geom_bond_site_symmetry_2
O1 H1 1_555 1_555
O2 H2 1_555 1_555
O3 C13 1_555 1_555
O4 C13 1_555 1_555
N1 C1 1_555 1_555
N2 C2 1_555 1_555
C1 H3 1_555 1_555
H4 C1 1_555 1_555
C2 C1 1_555 1_555
H5 C2 1_555 1_555
H6 C2 1_555 1_555
C3 H7 1_555 1_555
H8 C3 1_555 1_555
H9 C3 1_555 1_555
C4 O1 1_555 1_555
C5 C4 1_555 1_555
H10 C5 1_555 1_555
H11 C5 1_555 1_555
C6 C5 1_555 1_555
H12 C6 1_555 1_555
H13 C6 1_555 1_555
C7 C6 1_555 1_555
H14 C7 1_555 1_555
C8 N1 1_555 1_555
C9 C7 1_555 1_555
H15 C9 1_555 1_555
H16 C9 1_555 1_555
C10 C9 1_555 1_555
H17 C10 1_555 1_555
H18 C10 1_555 1_555
C11 H19 1_555 1_555
H20 C11 1_555 1_555
H21 C11 1_555 1_555
C12 O2 1_555 1_555
C13 C14 1_555 1_555
C14 C15 1_555 1_555
C15 H22 1_555 1_555
C16 C15 1_555 1_555
H23 C16 1_555 1_555
C17 C16 1_555 1_555
H24 C17 1_555 1_555
C18 C17 1_555 1_555
H25 C18 1_555 1_555
C19 C14 1_555 1_555
H26 C19 1_555 1_555
N1 C12 1_555 1_555
N2 C4 1_555 1_555
N2 C8 1_555 1_555
C3 C4 1_555 1_555
C7 C8 1_555 1_555
C10 C12 1_555 1_555
C11 C12 1_555 1_555
C18 C19 1_555 1_555

#END
