
#######################################################################
#
#                 Cambridge Crystallographic Data Centre
#                                CCDC 
#
#######################################################################
#
# If this CIF has been generated from an entry in the Cambridge 
# Structural Database, then it will include bibliographic, chemical, 
# crystal, experimental, refinement or atomic coordinate data resulting 
# from the CCDC's data processing and validation procedures.
#
#######################################################################

data_NARGAR
_chemical_formula_moiety         'C18 H13 Br1 Cl1 N1 O3 S2'
_chemical_name_systematic        
(4-bromophenyl)(5-(2-chloro-3,4-dimethoxyphenyl)-2-sulfanylidene-2,3-dihydro-1,3-thiazol-4-yl)methanone
_symmetry_cell_setting           monoclinic
_symmetry_space_group_name_H-M   'C 2/c'
_symmetry_Int_Tables_number      15
_space_group_name_Hall           '-C 2yn'
loop_
_symmetry_equiv_pos_site_id
_symmetry_equiv_pos_as_xyz
1 x,y,z
2 -x,y,1/2-z
3 1/2+x,1/2+y,z
4 1/2-x,1/2+y,1/2-z
5 -x,-y,-z
6 x,-y,1/2+z
7 1/2-x,1/2-y,-z
8 1/2+x,1/2-y,1/2+z
_cell_length_a                   28.7355(10)
_cell_length_b                   9.6150(3)
_cell_length_c                   13.6916(5)
_cell_angle_alpha                90
_cell_angle_beta                 104.703(2)
_cell_angle_gamma                90
_cell_volume                     3659
_exptl_crystal_colour            yellow
_exptl_crystal_description       block
_cell_formula_units_Z            8
loop_
_atom_site_label
_atom_site_type_symbol
_atom_site_fract_x
_atom_site_fract_y
_atom_site_fract_z
Br1 Br 0.42773(2) 0.84043(2) 0.59347(2)
Cl1 Cl 0.34057(2) 0.39523(4) 0.19615(3)
S1 S 0.34941(2) 0.05615(4) 0.27267(3)
S2 S 0.41394(2) -0.16395(5) 0.22575(3)
O1 O 0.48693(4) 0.15915(13) 0.54430(9)
O2 O 0.24262(4) 0.59954(13) 0.41524(9)
O3 O 0.26958(4) 0.58409(12) 0.24186(9)
N1 N 0.43599(5) 0.03693(14) 0.36902(10)
H1 H 0.4655 0.0059 0.3930
C1 C 0.41951(6) 0.15610(16) 0.40741(12)
C2 C 0.37220(6) 0.18302(16) 0.36311(12)
C3 C 0.40438(6) -0.02832(17) 0.29326(13)
C4 C 0.45356(6) 0.22678(17) 0.49256(12)
C5 C 0.44690(6) 0.37605(17) 0.51361(13)
C6 C 0.45878(6) 0.41999(18) 0.61403(13)
H2 H 0.4715 0.3555 0.6666
C7 C 0.45202(6) 0.55763(18) 0.63729(13)
H3 H 0.4586 0.5870 0.7057
C8 C 0.43560(6) 0.65173(17) 0.55970(14)
C9 C 0.42573(6) 0.61214(18) 0.45925(13)
H4 H 0.4157 0.6788 0.4069
C10 C 0.43082(6) 0.47279(17) 0.43668(13)
H5 H 0.4233 0.4433 0.3682
C11 C 0.33980(6) 0.29340(17) 0.38100(12)
C12 C 0.32515(6) 0.30011(17) 0.47038(12)
H6 H 0.3376 0.2347 0.5225
C13 C 0.29279(6) 0.40047(17) 0.48494(12)
H7 H 0.2831 0.4028 0.5463
C14 C 0.27458(6) 0.49754(17) 0.40972(13)
C15 C 0.28904(6) 0.49388(17) 0.31894(12)
C16 C 0.32127(6) 0.39239(17) 0.30640(12)
C17 C 0.21839(7) 0.5896(2) 0.49450(14)
H8 H 0.1944 0.6639 0.4868
H9 H 0.2418 0.5988 0.5600
H10 H 0.2023 0.4991 0.4908
C18 C 0.29253(7) 0.71793(19) 0.25395(14)
H11 H 0.2785 0.7759 0.1950
H12 H 0.3270 0.7064 0.2602
H13 H 0.2877 0.7628 0.3149
loop_
_geom_bond_atom_site_label_1
_geom_bond_atom_site_label_2
_geom_bond_site_symmetry_1
_geom_bond_site_symmetry_2
Br1 C8 1_555 1_555
Cl1 C16 1_555 1_555
S1 C2 1_555 1_555
S2 C3 1_555 1_555
O1 C4 1_555 1_555
O2 C14 1_555 1_555
O3 C15 1_555 1_555
N1 H1 1_555 1_555
C1 N1 1_555 1_555
C2 C1 1_555 1_555
C3 S1 1_555 1_555
C4 C1 1_555 1_555
C5 C4 1_555 1_555
C6 C5 1_555 1_555
H2 C6 1_555 1_555
C7 C6 1_555 1_555
H3 C7 1_555 1_555
C8 C7 1_555 1_555
C9 C8 1_555 1_555
H4 C9 1_555 1_555
C10 C5 1_555 1_555
H5 C10 1_555 1_555
C11 C2 1_555 1_555
C12 C11 1_555 1_555
H6 C12 1_555 1_555
C13 C12 1_555 1_555
H7 C13 1_555 1_555
C14 C13 1_555 1_555
C15 C14 1_555 1_555
C16 C11 1_555 1_555
C17 O2 1_555 1_555
H8 C17 1_555 1_555
H9 C17 1_555 1_555
H10 C17 1_555 1_555
C18 O3 1_555 1_555
H11 C18 1_555 1_555
H12 C18 1_555 1_555
H13 C18 1_555 1_555
N1 C3 1_555 1_555
C9 C10 1_555 1_555
C15 C16 1_555 1_555

#END
