
#######################################################################
#
#                 Cambridge Crystallographic Data Centre
#                                CCDC 
#
#######################################################################
#
# If this CIF has been generated from an entry in the Cambridge 
# Structural Database, then it will include bibliographic, chemical, 
# crystal, experimental, refinement or atomic coordinate data resulting 
# from the CCDC's data processing and validation procedures.
#
#######################################################################

data_NARNOL
_chemical_formula_moiety         'C10 H10 N2 O4'
_chemical_name_systematic        
'Ethyl 2-(hydroxyimino)-3-oxo-3-(pyridin-2-yl)propanoate'
_symmetry_cell_setting           monoclinic
_symmetry_space_group_name_H-M   'C 2/c'
_symmetry_Int_Tables_number      15
_space_group_name_Hall           '-C 2yn'
loop_
_symmetry_equiv_pos_site_id
_symmetry_equiv_pos_as_xyz
1 x,y,z
2 -x,y,1/2-z
3 1/2+x,1/2+y,z
4 1/2-x,1/2+y,1/2-z
5 -x,-y,-z
6 x,-y,1/2+z
7 1/2-x,1/2-y,-z
8 1/2+x,1/2-y,1/2+z
_cell_length_a                   20.7192(19)
_cell_length_b                   8.1493(4)
_cell_length_c                   14.3365(13)
_cell_angle_alpha                90
_cell_angle_beta                 118.732(6)
_cell_angle_gamma                90
_cell_volume                     2122.64
_exptl_crystal_colour            colorless
_exptl_crystal_description       rod
_cell_formula_units_Z            8
loop_
_atom_site_label
_atom_site_type_symbol
_atom_site_fract_x
_atom_site_fract_y
_atom_site_fract_z
O1 O 0.16671(5) 0.05507(10) -0.04891(7)
O2 O 0.21823(5) 0.08060(10) 0.18640(6)
O3 O 0.21298(5) 0.56777(9) 0.09884(6)
O4 O 0.15995(4) 0.46268(9) -0.06625(6)
N1 N 0.03844(5) 0.28989(11) -0.01182(8)
N2 N 0.22653(5) 0.24403(11) 0.16819(7)
C1 C -0.03368(6) 0.30258(14) -0.04410(10)
C2 C -0.08595(6) 0.19648(15) -0.11633(10)
C3 C -0.06308(7) 0.07056(15) -0.15782(10)
C4 C 0.01145(6) 0.05343(14) -0.12457(9)
C5 C 0.05953(5) 0.16629(12) -0.05243(7)
C6 C 0.14014(6) 0.15547(12) -0.01515(8)
C7 C 0.18768(5) 0.27880(13) 0.06937(8)
C8 C 0.18962(5) 0.45245(13) 0.03849(8)
C9 C 0.15986(8) 0.62339(14) -0.11087(10)
C10 C 0.11110(8) 0.60899(19) -0.22879(10)
H1 H -0.04980 0.38910 -0.01590
H2 H -0.13660 0.21010 -0.13690
H3 H 0.2445(10) 0.069(2) 0.2592(15)
H4 H -0.09780 -0.00320 -0.20830
H5 H 0.02900 -0.03340 -0.15060
H6 H 0.21040 0.65460 -0.09450
H7 H 0.14060 0.70770 -0.08090
H8 H 0.06100 0.58150 -0.24380
H9 H 0.12990 0.52250 -0.25680
H10 H 0.11060 0.71360 -0.26280
loop_
_geom_bond_atom_site_label_1
_geom_bond_atom_site_label_2
_geom_bond_site_symmetry_1
_geom_bond_site_symmetry_2
O1 C6 1_555 1_555
O2 N2 1_555 1_555
O3 C8 1_555 1_555
O4 C8 1_555 1_555
N1 C1 1_555 1_555
N2 C7 1_555 1_555
C1 C2 1_555 1_555
C2 C3 1_555 1_555
C3 C4 1_555 1_555
C4 C5 1_555 1_555
C5 N1 1_555 1_555
C6 C5 1_555 1_555
C7 C6 1_555 1_555
C8 C7 1_555 1_555
C9 O4 1_555 1_555
C10 C9 1_555 1_555
H1 C1 1_555 1_555
H2 C2 1_555 1_555
H3 O2 1_555 1_555
H4 C3 1_555 1_555
H5 C4 1_555 1_555
H6 C9 1_555 1_555
H7 C9 1_555 1_555
H8 C10 1_555 1_555
H9 C10 1_555 1_555
H10 C10 1_555 1_555

#END
