
#######################################################################
#
#                 Cambridge Crystallographic Data Centre
#                                CCDC 
#
#######################################################################
#
# If this CIF has been generated from an entry in the Cambridge 
# Structural Database, then it will include bibliographic, chemical, 
# crystal, experimental, refinement or atomic coordinate data resulting 
# from the CCDC's data processing and validation procedures.
#
#######################################################################

data_NARTEI
_chemical_formula_moiety         'C32 H28 O6'
_chemical_name_systematic        
1,2,3,4-tetrakis(4-methoxyphenyl)but-2-ene-1,4-dione
_symmetry_cell_setting           triclinic
_symmetry_space_group_name_H-M   'P -1'
_symmetry_Int_Tables_number      2
_space_group_name_Hall           '-P 1'
loop_
_symmetry_equiv_pos_site_id
_symmetry_equiv_pos_as_xyz
1 x,y,z
2 -x,-y,-z
_cell_length_a                   7.5291(15)
_cell_length_b                   9.914(2)
_cell_length_c                   17.893(4)
_cell_angle_alpha                81.02(3)
_cell_angle_beta                 83.55(3)
_cell_angle_gamma                75.21(3)
_cell_volume                     1271.84
_cell_formula_units_Z            2
loop_
_atom_site_label
_atom_site_type_symbol
_atom_site_fract_x
_atom_site_fract_y
_atom_site_fract_z
O1 O 0.21891(12) 0.14800(11) 0.74499(5)
O2 O 1.03404(12) -0.01179(10) 0.59548(5)
O3 O 0.24402(12) 0.41982(11) 0.62694(5)
O4 O -0.59615(11) 0.70769(11) 0.59847(5)
O5 O -0.05713(13) 0.92299(11) 0.92293(6)
O6 O 0.57933(13) 0.26332(11) 1.07050(5)
C1 C 0.30595(16) 0.33918(14) 0.78163(7)
C2 C 0.34225(18) 0.20972(15) 0.74180(7)
C3 C 0.52773(17) 0.15390(15) 0.70544(7)
C4 C 0.65737(17) 0.23445(15) 0.68975(7)
H1 H 0.6280 0.3261 0.7045
C5 C 0.82847(17) 0.18392(15) 0.65311(8)
H2 H 0.9155 0.2403 0.6426
C6 C 0.87065(17) 0.04948(15) 0.63201(7)
C7 C 0.74344(17) -0.03317(15) 0.64781(7)
H3 H 0.7734 -0.1253 0.6338
C8 C 0.57361(18) 0.01927(15) 0.68392(7)
H4 H 0.4867 -0.0371 0.6943
C9 C 1.16096(18) 0.07491(16) 0.56967(9)
H5 H 1.1022 0.1558 0.5344
H6 H 1.2709 0.0199 0.5437
H7 H 1.1964 0.1082 0.6132
C10 C 0.19451(17) 0.46299(14) 0.75466(7)
C11 C 0.13423(17) 0.47452(14) 0.67609(7)
C12 C -0.05805(17) 0.54551(14) 0.65794(7)
C13 C -0.20710(17) 0.57153(14) 0.71247(7)
H8 H -0.1863 0.5518 0.7649
C14 C -0.38422(17) 0.62567(15) 0.69043(7)
H9 H -0.4844 0.6436 0.7278
C15 C -0.41682(17) 0.65418(14) 0.61369(7)
C16 C -0.27111(17) 0.62997(14) 0.55856(7)
H10 H -0.2924 0.6491 0.5062
C17 C -0.09437(17) 0.57746(14) 0.58156(7)
H11 H 0.0059 0.5626 0.5440
C18 C -0.64040(19) 0.72127(17) 0.52120(8)
H12 H -0.5756 0.7862 0.4893
H13 H -0.7736 0.7580 0.5182
H14 H -0.6022 0.6289 0.5033
C19 C 0.12810(16) 0.58559(14) 0.79744(7)
C20 C 0.07336(17) 0.56846(15) 0.87537(7)
H15 H 0.0791 0.4764 0.9013
C21 C 0.01163(17) 0.68219(15) 0.91487(8)
H16 H -0.0240 0.6679 0.9676
C22 C 0.00111(17) 0.81824(15) 0.87787(8)
C23 C 0.04931(16) 0.83880(15) 0.80044(8)
H17 H 0.0394 0.9313 0.7744
C24 C 0.11230(16) 0.72258(14) 0.76119(7)
H18 H 0.1453 0.7373 0.7083
C25 C -0.0983(2) 1.06492(16) 0.88657(9)
H19 H 0.0088 1.0822 0.8535
H20 H -0.1278 1.1292 0.9251
H21 H -0.2040 1.0809 0.8562
C26 C 0.38810(16) 0.31156(15) 0.85627(7)
C27 C 0.34607(17) 0.20769(14) 0.91224(7)
H22 H 0.2737 0.1489 0.9008
C28 C 0.40744(17) 0.18775(15) 0.98461(7)
H23 H 0.3749 0.1176 1.0224
C29 C 0.51610(17) 0.27090(15) 1.00099(7)
C30 C 0.56685(17) 0.37094(15) 0.94483(8)
H24 H 0.6464 0.4250 0.9554
C31 C 0.50180(17) 0.39178(15) 0.87377(8)
H25 H 0.5349 0.4619 0.8362
C32 C 0.5137(2) 0.17450(17) 1.13211(8)
H26 H 0.3795 0.2069 1.1402
H27 H 0.5706 0.1780 1.1782
H28 H 0.5457 0.0776 1.1203
loop_
_geom_bond_atom_site_label_1
_geom_bond_atom_site_label_2
_geom_bond_site_symmetry_1
_geom_bond_site_symmetry_2
O1 C2 1_555 1_555
O2 C6 1_555 1_555
O3 C11 1_555 1_555
O4 C15 1_555 1_555
O5 C22 1_555 1_555
O6 C29 1_555 1_555
C1 C2 1_555 1_555
C2 C3 1_555 1_555
C3 C4 1_555 1_555
C4 H1 1_555 1_555
C5 C4 1_555 1_555
H2 C5 1_555 1_555
C6 C5 1_555 1_555
C7 C6 1_555 1_555
H3 C7 1_555 1_555
C8 C3 1_555 1_555
H4 C8 1_555 1_555
C9 O2 1_555 1_555
H5 C9 1_555 1_555
H6 C9 1_555 1_555
H7 C9 1_555 1_555
C10 C1 1_555 1_555
C11 C10 1_555 1_555
C12 C11 1_555 1_555
C13 C12 1_555 1_555
H8 C13 1_555 1_555
C14 C13 1_555 1_555
H9 C14 1_555 1_555
C15 C14 1_555 1_555
C16 C15 1_555 1_555
H10 C16 1_555 1_555
C17 C12 1_555 1_555
H11 C17 1_555 1_555
C18 O4 1_555 1_555
H12 C18 1_555 1_555
H13 C18 1_555 1_555
H14 C18 1_555 1_555
C19 C10 1_555 1_555
C20 C19 1_555 1_555
H15 C20 1_555 1_555
C21 C20 1_555 1_555
H16 C21 1_555 1_555
C22 C21 1_555 1_555
C23 C22 1_555 1_555
H17 C23 1_555 1_555
C24 C19 1_555 1_555
H18 C24 1_555 1_555
C25 O5 1_555 1_555
H19 C25 1_555 1_555
H20 C25 1_555 1_555
H21 C25 1_555 1_555
C26 C1 1_555 1_555
C27 C26 1_555 1_555
H22 C27 1_555 1_555
C28 C27 1_555 1_555
H23 C28 1_555 1_555
C29 C28 1_555 1_555
C30 C29 1_555 1_555
H24 C30 1_555 1_555
C31 C26 1_555 1_555
H25 C31 1_555 1_555
C32 O6 1_555 1_555
H26 C32 1_555 1_555
H27 C32 1_555 1_555
H28 C32 1_555 1_555
C7 C8 1_555 1_555
C16 C17 1_555 1_555
C23 C24 1_555 1_555
C30 C31 1_555 1_555

#END
