
#######################################################################
#
#                 Cambridge Crystallographic Data Centre
#                                CCDC 
#
#######################################################################
#
# If this CIF has been generated from an entry in the Cambridge 
# Structural Database, then it will include bibliographic, chemical, 
# crystal, experimental, refinement or atomic coordinate data resulting 
# from the CCDC's data processing and validation procedures.
#
#######################################################################

data_NASFIX
_chemical_formula_moiety         'H5 O2 1+,C1 H1 B11 Cl11 1-,C6 H6'
_chemical_name_systematic        
'Hydronium undecachloro-carba-closo-dodecaborate benzene solvate'
_symmetry_cell_setting           monoclinic
_symmetry_space_group_name_H-M   'P 21/c'
_symmetry_Int_Tables_number      14
_space_group_name_Hall           '-P 2ybc'
loop_
_symmetry_equiv_pos_site_id
_symmetry_equiv_pos_as_xyz
1 x,y,z
2 -x,1/2+y,1/2-z
3 -x,-y,-z
4 x,1/2-y,1/2+z
_cell_length_a                   11.9558(4)
_cell_length_b                   14.8509(5)
_cell_length_c                   14.1747(5)
_cell_angle_alpha                90
_cell_angle_beta                 94.8590(10)
_cell_angle_gamma                90
_cell_volume                     2507.74
_exptl_crystal_colour            colorless
_exptl_crystal_description       prism
_cell_formula_units_Z            4
loop_
_atom_site_label
_atom_site_type_symbol
_atom_site_fract_x
_atom_site_fract_y
_atom_site_fract_z
C1 C 0.10929(8) 0.92552(7) 0.25362(7)
H1 H 0.0290(7) 0.9303(4) 0.2467(5)
B1 B 0.17557(9) 0.89682(8) 0.15481(8)
B2 B 0.16577(9) 0.81905(8) 0.25092(8)
B3 B 0.16935(9) 0.88226(8) 0.35890(8)
B4 B 0.18191(9) 0.99925(8) 0.32914(8)
B5 B 0.18583(9) 1.00823(8) 0.20342(8)
B6 B 0.30830(9) 0.95181(8) 0.17103(8)
B7 B 0.29543(9) 0.83494(8) 0.20085(8)
B8 B 0.29240(9) 0.82591(8) 0.32677(8)
B9 B 0.30168(9) 0.93748(8) 0.37524(8)
B10 B 0.31203(9) 1.01544(8) 0.27920(8)
B11 B 0.37953(9) 0.90831(8) 0.27755(8)
Cl1 Cl 0.10028(2) 0.878351(18) 0.044012(17)
Cl2 Cl 0.08152(2) 0.722315(17) 0.23529(2)
Cl3 Cl 0.08889(2) 0.849743(19) 0.452146(19)
Cl4 Cl 0.11369(2) 1.082184(18) 0.393212(19)
Cl5 Cl 0.11945(2) 1.099185(17) 0.140718(18)
Cl6 Cl 0.38232(2) 0.986256(19) 0.073506(18)
Cl7 Cl 0.35530(2) 0.747559(17) 0.135367(18)
Cl8 Cl 0.35112(2) 0.730195(18) 0.388157(18)
Cl9 Cl 0.36539(2) 0.959532(18) 0.491336(17)
Cl10 Cl 0.38953(2) 1.118183(18) 0.294138(19)
Cl11 Cl 0.52947(2) 0.899060(19) 0.288234(18)
O1 O 0.41580(9) 0.17218(7) 0.93866(8)
H2 H 0.400(2) 0.2444(18) 0.9784(17)
H3 H 0.362(2) 0.1521(15) 0.9013(16)
H4 H 0.480(2) 0.1697(19) 0.9173(19)
O2 O 0.37691(9) 0.31197(7) 1.01398(7)
H5 H 0.4081(19) 0.3230(15) 1.0646(17)
H6 H 0.380(2) 0.3577(18) 0.9788(18)
C2 C 0.81066(10) 0.91780(10) 0.32395(10)
H7 H 0.8090 0.9153 0.3908
C3 C 0.80192(10) 0.99956(9) 0.27790(10)
H8 H 0.7933 1.0532 0.3130
C4 C 0.80561(11) 1.00379(9) 0.18079(10)
H9 H 0.7994 1.0603 0.1494
C5 C 0.81826(11) 0.92610(10) 0.12923(10)
H10 H 0.8215 0.9292 0.0626
C6 C 0.82618(11) 0.84340(9) 0.17514(12)
H11 H 0.8345 0.7897 0.1400
C7 C 0.82178(10) 0.83956(9) 0.27293(12)
H12 H 0.8264 0.7831 0.3045
loop_
_geom_bond_atom_site_label_1
_geom_bond_atom_site_label_2
_geom_bond_site_symmetry_1
_geom_bond_site_symmetry_2
C1 H1 1_555 1_555
B1 C1 1_555 1_555
B2 C1 1_555 1_555
B3 C1 1_555 1_555
B4 C1 1_555 1_555
B5 C1 1_555 1_555
B6 B1 1_555 1_555
B7 B1 1_555 1_555
B8 B2 1_555 1_555
B9 B3 1_555 1_555
B10 B4 1_555 1_555
B11 B6 1_555 1_555
Cl1 B1 1_555 1_555
Cl2 B2 1_555 1_555
Cl3 B3 1_555 1_555
Cl4 B4 1_555 1_555
Cl5 B5 1_555 1_555
Cl6 B6 1_555 1_555
Cl7 B7 1_555 1_555
Cl8 B8 1_555 1_555
Cl9 B9 1_555 1_555
Cl10 B10 1_555 1_555
Cl11 B11 1_555 1_555
O1 H2 1_555 1_555
H2 O2 1_555 1_555
H3 O1 1_555 1_555
H4 O1 1_555 1_555
O2 H5 1_555 1_555
H6 O2 1_555 1_555
C2 H7 1_555 1_555
C3 C2 1_555 1_555
H8 C3 1_555 1_555
C4 C3 1_555 1_555
H9 C4 1_555 1_555
C5 C4 1_555 1_555
H10 C5 1_555 1_555
C6 C5 1_555 1_555
H11 C6 1_555 1_555
C7 C2 1_555 1_555
H12 C7 1_555 1_555
B1 B2 1_555 1_555
B1 B5 1_555 1_555
B2 B3 1_555 1_555
B2 B7 1_555 1_555
B3 B4 1_555 1_555
B3 B8 1_555 1_555
B4 B5 1_555 1_555
B4 B9 1_555 1_555
B5 B6 1_555 1_555
B5 B10 1_555 1_555
B6 B7 1_555 1_555
B6 B10 1_555 1_555
B7 B8 1_555 1_555
B7 B11 1_555 1_555
B8 B9 1_555 1_555
B8 B11 1_555 1_555
B9 B10 1_555 1_555
B9 B11 1_555 1_555
B10 B11 1_555 1_555
C6 C7 1_555 1_555

#END
