
#######################################################################
#
#                 Cambridge Crystallographic Data Centre
#                                CCDC 
#
#######################################################################
#
# If this CIF has been generated from an entry in the Cambridge 
# Structural Database, then it will include bibliographic, chemical, 
# crystal, experimental, refinement or atomic coordinate data resulting 
# from the CCDC's data processing and validation procedures.
#
#######################################################################

data_NASMIE
_chemical_formula_moiety         'C24 H22 Cl1 N1 O3'
_chemical_name_systematic        
'(S)-\a-Cyano(6-methoxynaphthalen-2-yl)methyl (2R)-(4-chlorophenyl)-3-methylbutanoate'
_symmetry_cell_setting           orthorhombic
_symmetry_space_group_name_H-M   'P 21 21 21'
_symmetry_Int_Tables_number      19
_space_group_name_Hall           'P 2ac 2ab'
loop_
_symmetry_equiv_pos_site_id
_symmetry_equiv_pos_as_xyz
1 x,y,z
2 1/2-x,-y,1/2+z
3 -x,1/2+y,1/2-z
4 1/2+x,1/2-y,-z
_cell_length_a                   5.7009(6)
_cell_length_b                   18.4406(19)
_cell_length_c                   19.793(2)
_cell_angle_alpha                90
_cell_angle_beta                 90
_cell_angle_gamma                90
_cell_volume                     2080.8
_exptl_crystal_colour            colorless
_exptl_crystal_description       needle
_chemical_melting_point          '138-139 deg.C'
_cell_formula_units_Z            4
loop_
_atom_site_label
_atom_site_type_symbol
_atom_site_fract_x
_atom_site_fract_y
_atom_site_fract_z
Cl1 Cl 0.41743(9) 0.79346(2) 0.43630(2)
O1 O 0.3235(2) -0.00754(7) 0.53344(6)
O2 O 0.54745(19) 0.39419(6) 0.32262(6)
O3 O 0.8287(2) 0.47506(6) 0.29615(6)
N1 N 0.9381(3) 0.30365(8) 0.22087(8)
C1 C 0.1341(3) -0.04450(9) 0.50113(9)
H1 H 0.1019 -0.0899 0.5251
H2 H 0.1767 -0.0552 0.4542
H3 H -0.0061 -0.0138 0.5019
C2 C 0.4018(3) 0.05496(8) 0.50417(8)
C3 C 0.6083(3) 0.08410(8) 0.53353(8)
H4 H 0.6775 0.0607 0.5713
C4 C 0.7081(3) 0.14538(8) 0.50801(8)
H5 H 0.8457 0.1645 0.5284
C5 C 0.6084(3) 0.18121(8) 0.45090(7)
C6 C 0.3984(3) 0.15270(8) 0.42247(7)
C7 C 0.2961(3) 0.08894(8) 0.45037(8)
H6 H 0.1552 0.0699 0.4319
C8 C 0.2999(3) 0.18777(8) 0.36535(8)
H7 H 0.1578 0.1700 0.3465
C9 C 0.4066(3) 0.24700(8) 0.33684(8)
H8 H 0.3411 0.2690 0.2978
C10 C 0.6144(3) 0.27527(8) 0.36579(8)
C11 C 0.7122(3) 0.24348(8) 0.42159(8)
H9 H 0.8507 0.2633 0.4408
C12 C 0.7298(3) 0.34109(8) 0.33425(8)
H10 H 0.8492 0.3614 0.3661
C13 C 0.8445(3) 0.32145(9) 0.26937(8)
C14 C 0.6237(3) 0.46068(8) 0.30182(8)
C15 C 0.4188(3) 0.50908(8) 0.28452(7)
H11 H 0.2713 0.4830 0.2970
C16 C 0.4172(3) 0.52137(8) 0.20659(8)
H12 H 0.5643 0.5475 0.1938
C17 C 0.4111(4) 0.44906(9) 0.16869(9)
H13 H 0.4053 0.4582 0.1199
H14 H 0.2718 0.4216 0.1823
H15 H 0.5523 0.4211 0.1795
C18 C 0.2085(3) 0.56839(10) 0.18655(9)
H16 H 0.2086 0.5755 0.1375
H17 H 0.2200 0.6155 0.2092
H18 H 0.0626 0.5443 0.2001
C19 C 0.4263(3) 0.57983(8) 0.32393(8)
C20 C 0.2357(3) 0.59893(9) 0.36442(8)
H19 H 0.1065 0.5667 0.3683
C21 C 0.2323(3) 0.66470(9) 0.39919(8)
H20 H 0.1017 0.6775 0.4265
C22 C 0.4214(3) 0.71083(8) 0.39326(8)
C23 C 0.6136(3) 0.69391(9) 0.35372(8)
H21 H 0.7421 0.7265 0.3502
C24 C 0.6152(3) 0.62794(8) 0.31907(8)
H22 H 0.7464 0.6156 0.2918
loop_
_geom_bond_atom_site_label_1
_geom_bond_atom_site_label_2
_geom_bond_site_symmetry_1
_geom_bond_site_symmetry_2
Cl1 C22 1_555 1_555
O1 C1 1_555 1_555
O2 C12 1_555 1_555
O3 C14 1_555 1_555
N1 C13 1_555 1_555
C1 H1 1_555 1_555
H2 C1 1_555 1_555
H3 C1 1_555 1_555
C2 O1 1_555 1_555
C3 C2 1_555 1_555
H4 C3 1_555 1_555
C4 C3 1_555 1_555
H5 C4 1_555 1_555
C5 C4 1_555 1_555
C6 C5 1_555 1_555
C7 C2 1_555 1_555
H6 C7 1_555 1_555
C8 C6 1_555 1_555
H7 C8 1_555 1_555
C9 C8 1_555 1_555
H8 C9 1_555 1_555
C10 C9 1_555 1_555
C11 C5 1_555 1_555
H9 C11 1_555 1_555
C12 C10 1_555 1_555
H10 C12 1_555 1_555
C13 C12 1_555 1_555
C14 O2 1_555 1_555
C15 C14 1_555 1_555
H11 C15 1_555 1_555
C16 C15 1_555 1_555
H12 C16 1_555 1_555
C17 C16 1_555 1_555
H13 C17 1_555 1_555
H14 C17 1_555 1_555
H15 C17 1_555 1_555
C18 C16 1_555 1_555
H16 C18 1_555 1_555
H17 C18 1_555 1_555
H18 C18 1_555 1_555
C19 C15 1_555 1_555
C20 C19 1_555 1_555
H19 C20 1_555 1_555
C21 C20 1_555 1_555
H20 C21 1_555 1_555
C22 C21 1_555 1_555
C23 C22 1_555 1_555
H21 C23 1_555 1_555
C24 C19 1_555 1_555
H22 C24 1_555 1_555
C6 C7 1_555 1_555
C10 C11 1_555 1_555
C23 C24 1_555 1_555

#END
