
#######################################################################
#
#                 Cambridge Crystallographic Data Centre
#                                CCDC 
#
#######################################################################
#
# If this CIF has been generated from an entry in the Cambridge 
# Structural Database, then it will include bibliographic, chemical, 
# crystal, experimental, refinement or atomic coordinate data resulting 
# from the CCDC's data processing and validation procedures.
#
#######################################################################

data_NASSAE
_chemical_formula_moiety         'C15 H16 Cl1 N1 O1'
_chemical_name_systematic        
7-chloro-4-methyl-2-(propan-2-yl)-1,4-dihydrocyclopenta[b]indol-3(2H)-one
_symmetry_cell_setting           orthorhombic
_symmetry_space_group_name_H-M   'P 21 21 21'
_symmetry_Int_Tables_number      19
_space_group_name_Hall           'P 2ac 2ab'
loop_
_symmetry_equiv_pos_site_id
_symmetry_equiv_pos_as_xyz
1 x,y,z
2 1/2-x,-y,1/2+z
3 -x,1/2+y,1/2-z
4 1/2+x,1/2-y,-z
_cell_length_a                   8.6226(12)
_cell_length_b                   13.6329(18)
_cell_length_c                   22.798(3)
_cell_angle_alpha                90
_cell_angle_beta                 90
_cell_angle_gamma                90
_cell_volume                     2679.93
_exptl_crystal_colour            colorless
_exptl_crystal_description       Prism
_cell_formula_units_Z            8
loop_
_atom_site_label
_atom_site_type_symbol
_atom_site_fract_x
_atom_site_fract_y
_atom_site_fract_z
Cl1 Cl 0.50832(3) 0.04524(2) 0.822510(12)
O1 O -0.02283(11) 0.21420(6) 0.51750(4)
N1 N 0.20158(12) 0.25129(7) 0.62912(5)
C1 C 0.28319(14) 0.21544(8) 0.67646(5)
C2 C 0.37593(14) 0.26528(9) 0.71714(5)
H1 H 0.3911 0.3341 0.7144
C3 C 0.44451(14) 0.21144(9) 0.76123(5)
H2 H 0.5082 0.2434 0.7894
C4 C 0.42072(13) 0.10917(9) 0.76490(5)
C5 C 0.33050(13) 0.05827(8) 0.72542(5)
H3 H 0.3163 -0.0106 0.7287
C6 C 0.26038(13) 0.11199(8) 0.68014(5)
C7 C 0.16118(13) 0.08704(8) 0.63251(5)
C8 C 0.08521(13) -0.00023(8) 0.60554(5)
H4 H 0.0161 -0.0335 0.6339
H5 H 0.1632 -0.0477 0.5911
C9 C -0.00904(13) 0.04473(8) 0.55399(5)
H6 H -0.1216 0.0367 0.5633
C10 C 0.02679(13) 0.15562(9) 0.55333(5)
C11 C 0.12843(13) 0.17216(8) 0.60327(5)
C12 C 0.19261(18) 0.35328(9) 0.61098(7)
H7 H 0.1339 0.3908 0.6402
H8 H 0.1404 0.3575 0.5729
H9 H 0.2975 0.3803 0.6076
C13 C 0.01974(14) -0.00162(9) 0.49350(5)
H10 H -0.0351 0.0398 0.4638
C14 C 0.19090(15) -0.00241(10) 0.47728(5)
H11 H 0.2447 -0.0526 0.5003
H12 H 0.2362 0.0620 0.4856
H13 H 0.2021 -0.0171 0.4354
C15 C -0.04976(19) -0.10415(10) 0.49015(6)
H14 H -0.0311 -0.1317 0.4511
H15 H -0.1616 -0.1006 0.4974
H16 H -0.0012 -0.1461 0.5198
Cl2 Cl 0.56506(5) -0.16162(3) 0.594109(15)
O2 O 0.95810(14) 0.35795(6) 0.75187(4)
N2 N 0.75185(13) 0.23572(8) 0.65947(5)
C16 C 0.69196(14) 0.14840(9) 0.63973(5)
C17 C 0.59958(15) 0.13088(11) 0.59036(6)
H17 H 0.5651 0.1831 0.5661
C18 C 0.56063(15) 0.03519(11) 0.57836(6)
H18 H 0.4983 0.0207 0.5451
C19 C 0.61212(15) -0.04152(10) 0.61481(6)
C20 C 0.69983(14) -0.02623(9) 0.66435(5)
H19 H 0.7310 -0.0793 0.6887
C21 C 0.74173(13) 0.07144(9) 0.67764(5)
C22 C 0.83410(14) 0.11690(8) 0.72174(5)
C23 C 0.92606(13) 0.09300(8) 0.77565(5)
H20 H 1.0070 0.0435 0.7672
H21 H 0.8582 0.0683 0.8074
C24 C 0.99936(14) 0.19344(8) 0.79234(5)
H22 H 1.1129 0.1885 0.7840
C25 C 0.93292(16) 0.26974(9) 0.74989(5)
C26 C 0.83798(14) 0.21551(8) 0.70873(5)
C27 C 0.73864(18) 0.32978(10) 0.62975(6)
H23 H 0.7931 0.3267 0.5921
H24 H 0.7849 0.3812 0.6542
H25 H 0.6290 0.3448 0.6230
C28 C 0.98278(14) 0.22545(8) 0.85676(5)
H26 H 1.0351 0.2906 0.8608
C29 C 1.06647(18) 0.15412(10) 0.89716(6)
H27 H 1.0635 0.1791 0.9375
H28 H 1.1746 0.1473 0.8845
H29 H 1.0153 0.0900 0.8955
C30 C 0.81330(14) 0.23932(9) 0.87438(6)
H30 H 0.7584 0.1766 0.8710
H31 H 0.7647 0.2877 0.8484
H32 H 0.8080 0.2626 0.9150
loop_
_geom_bond_atom_site_label_1
_geom_bond_atom_site_label_2
_geom_bond_site_symmetry_1
_geom_bond_site_symmetry_2
Cl1 C4 1_555 1_555
O1 C10 1_555 1_555
N1 C1 1_555 1_555
C1 C2 1_555 1_555
C2 H1 1_555 1_555
C3 C2 1_555 1_555
H2 C3 1_555 1_555
C4 C3 1_555 1_555
C5 C4 1_555 1_555
H3 C5 1_555 1_555
C6 C1 1_555 1_555
C7 C6 1_555 1_555
C8 C7 1_555 1_555
H4 C8 1_555 1_555
H5 C8 1_555 1_555
C9 C8 1_555 1_555
H6 C9 1_555 1_555
C10 C9 1_555 1_555
C11 N1 1_555 1_555
C12 N1 1_555 1_555
H7 C12 1_555 1_555
H8 C12 1_555 1_555
H9 C12 1_555 1_555
C13 C9 1_555 1_555
H10 C13 1_555 1_555
C14 C13 1_555 1_555
H11 C14 1_555 1_555
H12 C14 1_555 1_555
H13 C14 1_555 1_555
C15 C13 1_555 1_555
H14 C15 1_555 1_555
H15 C15 1_555 1_555
H16 C15 1_555 1_555
Cl2 C19 1_555 1_555
O2 C25 1_555 1_555
N2 C16 1_555 1_555
C16 C17 1_555 1_555
C17 H17 1_555 1_555
C18 C17 1_555 1_555
H18 C18 1_555 1_555
C19 C18 1_555 1_555
C20 C19 1_555 1_555
H19 C20 1_555 1_555
C21 C16 1_555 1_555
C22 C21 1_555 1_555
C23 C22 1_555 1_555
H20 C23 1_555 1_555
H21 C23 1_555 1_555
C24 C23 1_555 1_555
H22 C24 1_555 1_555
C25 C24 1_555 1_555
C26 N2 1_555 1_555
C27 N2 1_555 1_555
H23 C27 1_555 1_555
H24 C27 1_555 1_555
H25 C27 1_555 1_555
C28 C24 1_555 1_555
H26 C28 1_555 1_555
C29 C28 1_555 1_555
H27 C29 1_555 1_555
H28 C29 1_555 1_555
H29 C29 1_555 1_555
C30 C28 1_555 1_555
H30 C30 1_555 1_555
H31 C30 1_555 1_555
H32 C30 1_555 1_555
C5 C6 1_555 1_555
C7 C11 1_555 1_555
C10 C11 1_555 1_555
C20 C21 1_555 1_555
C22 C26 1_555 1_555
C25 C26 1_555 1_555

#END
