
#######################################################################
#
#                 Cambridge Crystallographic Data Centre
#                                CCDC 
#
#######################################################################
#
# If this CIF has been generated from an entry in the Cambridge 
# Structural Database, then it will include bibliographic, chemical, 
# crystal, experimental, refinement or atomic coordinate data resulting 
# from the CCDC's data processing and validation procedures.
#
#######################################################################

data_NASVOT01
_chemical_formula_moiety         'C24 H18 O4'
_chemical_name_systematic        1,3-bis(3-Phenyl-3-oxopropanoyl)benzene
_symmetry_cell_setting           orthorhombic
_symmetry_space_group_name_H-M   'P 21 21 21'
_symmetry_Int_Tables_number      19
_space_group_name_Hall           'P 2ac 2ab'
loop_
_symmetry_equiv_pos_site_id
_symmetry_equiv_pos_as_xyz
1 x,y,z
2 1/2-x,-y,1/2+z
3 -x,1/2+y,1/2-z
4 1/2+x,1/2-y,-z
_cell_length_a                   5.275(2)
_cell_length_b                   16.840(8)
_cell_length_c                   20.955(10)
_cell_angle_alpha                90
_cell_angle_beta                 90
_cell_angle_gamma                90
_cell_volume                     1861.45
_chemical_melting_point          '177-180 deg.C'
_cell_formula_units_Z            4
loop_
_atom_site_label
_atom_site_type_symbol
_atom_site_fract_x
_atom_site_fract_y
_atom_site_fract_z
O1 O 0.1862(5) 0.16053(12) 0.20453(10)
O2 O 0.5181(5) 0.22694(12) 0.26653(10)
C1 C 0.1931(6) 0.10197(15) 0.24452(12)
C2 C -0.1565(6) 0.04209(16) 0.18200(12)
C3 C -0.3235(6) -0.01906(15) 0.16747(12)
C4 C 0.3575(6) 0.10451(18) 0.29611(14)
O3 O -0.8815(4) 0.00005(16) 0.02219(12)
O4 O -0.6801(5) -0.06917(13) 0.11289(10)
C5 C 0.5197(6) 0.16858(15) 0.30607(12)
C6 C 0.6988(5) 0.17412(15) 0.36001(12)
C7 C -0.5161(6) -0.01171(16) 0.11626(13)
C8 C -0.7062(6) 0.05362(17) 0.02487(13)
C9 C 0.0194(6) 0.03524(16) 0.23149(12)
C10 C -0.5222(6) 0.05033(18) 0.07292(13)
C11 C -0.7098(6) 0.11473(17) -0.02565(13)
C12 C 0.6959(7) 0.1190(2) 0.40962(16)
C13 C -0.3102(7) -0.08926(18) 0.20215(15)
C14 C -0.1319(7) -0.0970(2) 0.25020(16)
C15 C 0.8697(6) 0.23553(19) 0.36290(15)
C16 C 0.0297(7) -0.03570(18) 0.26501(15)
C17 C -0.5307(7) 0.2287(2) -0.07933(16)
C18 C 1.0431(7) 0.2411(2) 0.41236(17)
C19 C -0.5286(7) 0.1744(2) -0.03014(15)
C20 C -0.7137(7) 0.2249(2) -0.12543(15)
C21 C 1.0414(7) 0.1860(2) 0.46049(17)
C22 C -0.8941(8) 0.1674(2) -0.12152(18)
C23 C -0.8970(7) 0.1126(2) -0.07232(17)
C24 C 0.8668(8) 0.1255(2) 0.45943(18)
H1 H -0.406(5) 0.0936(17) 0.0761(12)
H2 H -0.160(5) 0.0877(15) 0.1590(11)
H3 H -1.031(8) 0.071(2) -0.0633(16)
H4 H 0.364(7) 0.0641(18) 0.3242(14)
H5 H 0.155(7) -0.0446(17) 0.2999(15)
H6 H -0.712(6) 0.2612(17) -0.1628(14)
H7 H -0.431(7) -0.135(2) 0.1929(16)
H8 H 0.868(6) 0.2712(16) 0.3324(12)
H9 H -1.027(9) 0.162(2) -0.153(2)
H10 H 1.161(8) 0.286(2) 0.4119(16)
H11 H 0.558(7) 0.075(2) 0.4115(16)
H12 H -0.118(6) -0.1474(19) 0.2734(14)
H13 H -0.395(7) 0.1745(19) 0.0013(18)
H14 H 1.163(8) 0.190(2) 0.498(2)
H15 H 0.857(8) 0.082(2) 0.4976(18)
H16 H -0.405(8) 0.274(2) -0.0853(19)
H17? H -0.836(10) -0.046(3) 0.067(2)
H18? H 0.348(10) 0.207(3) 0.229(2)
loop_
_geom_bond_atom_site_label_1
_geom_bond_atom_site_label_2
_geom_bond_site_symmetry_1
_geom_bond_site_symmetry_2
O1 C1 1_555 1_555
O2 C5 1_555 1_555
C1 C4 1_555 1_555
C2 C3 1_555 1_555
C3 C7 1_555 1_555
C4 C5 1_555 1_555
O3 C8 1_555 1_555
O4 C7 1_555 1_555
C5 C6 1_555 1_555
C6 C12 1_555 1_555
C7 C10 1_555 1_555
C8 C10 1_555 1_555
C9 C1 1_555 1_555
C10 H1 1_555 1_555
C11 C8 1_555 1_555
C12 C24 1_555 1_555
C13 C3 1_555 1_555
C14 C13 1_555 1_555
C15 C6 1_555 1_555
C16 C9 1_555 1_555
C17 C19 1_555 1_555
C18 C15 1_555 1_555
C19 C11 1_555 1_555
C20 C17 1_555 1_555
C21 C18 1_555 1_555
C22 C20 1_555 1_555
C23 C11 1_555 1_555
C24 C21 1_555 1_555
H2 C2 1_555 1_555
H3 C23 1_555 1_555
H4 C4 1_555 1_555
H5 C16 1_555 1_555
H6 C20 1_555 1_555
H7 C13 1_555 1_555
H8 C15 1_555 1_555
H9 C22 1_555 1_555
H10 C18 1_555 1_555
H11 C12 1_555 1_555
H12 C14 1_555 1_555
H13 C19 1_555 1_555
H14 C21 1_555 1_555
H15 C24 1_555 1_555
H16 C17 1_555 1_555
C2 C9 1_555 1_555
C14 C16 1_555 1_555
C22 C23 1_555 1_555

#END
