
#######################################################################
#
#                 Cambridge Crystallographic Data Centre
#                                CCDC 
#
#######################################################################
#
# If this CIF has been generated from an entry in the Cambridge 
# Structural Database, then it will include bibliographic, chemical, 
# crystal, experimental, refinement or atomic coordinate data resulting 
# from the CCDC's data processing and validation procedures.
#
#######################################################################

data_NATCOB
_chemical_formula_moiety         'C9 H9 Br1 O2'
_chemical_name_systematic        2-(2-Bromoethoxy)benzaldehyde
_symmetry_cell_setting           monoclinic
_symmetry_space_group_name_H-M   'P 21/c'
_symmetry_Int_Tables_number      14
_space_group_name_Hall           '-P 2ybc'
loop_
_symmetry_equiv_pos_site_id
_symmetry_equiv_pos_as_xyz
1 x,y,z
2 -x,1/2+y,1/2-z
3 -x,-y,-z
4 x,1/2-y,1/2+z
_cell_length_a                   7.7453(9)
_cell_length_b                   16.2325(19)
_cell_length_c                   7.3667(9)
_cell_angle_alpha                90
_cell_angle_beta                 98.908(2)
_cell_angle_gamma                90
_cell_volume                     915.011
_exptl_crystal_colour            colorless
_exptl_crystal_description       pillar
_chemical_melting_point          '51 deg.C'
_cell_formula_units_Z            4
_exptl_crystal_recrystallization_method ethanol
loop_
_atom_site_label
_atom_site_type_symbol
_atom_site_fract_x
_atom_site_fract_y
_atom_site_fract_z
Br1 Br 0.05900(5) 0.65867(3) -0.06453(5)
C1 C 0.2713(4) 0.49752(19) 0.4071(4)
C2 C 0.3212(4) 0.41640(18) 0.3741(4)
C3 C 0.3927(4) 0.3950(2) 0.2068(5)
H1 H 0.3945 0.4358 0.1185
C4 C 0.3097(5) 0.3565(2) 0.5069(5)
H2 H 0.3400 0.3023 0.4850
C5 C 0.2187(4) 0.5175(2) 0.5727(4)
H3 H 0.1890 0.5715 0.5964
C6 C 0.2539(5) 0.3762(2) 0.6700(5)
H4 H 0.2457 0.3356 0.7572
C7 C 0.2104(5) 0.4565(2) 0.7032(5)
H5 H 0.1751 0.4701 0.8145
O1 O 0.4493(4) 0.32785(15) 0.1762(4)
O2 O 0.2786(3) 0.55232(13) 0.2680(3)
C8 C 0.2426(4) 0.63677(18) 0.3007(5)
H6 H 0.3269 0.6580 0.4009
H7 H 0.1267 0.6424 0.3336
C9 C 0.2543(5) 0.6835(2) 0.1281(5)
H8 H 0.3629 0.6697 0.0852
H9 H 0.2556 0.7421 0.1541
loop_
_geom_bond_atom_site_label_1
_geom_bond_atom_site_label_2
_geom_bond_site_symmetry_1
_geom_bond_site_symmetry_2
Br1 C9 1_555 1_555
C1 C2 1_555 1_555
C2 C3 1_555 1_555
C3 H1 1_555 1_555
C4 C2 1_555 1_555
H2 C4 1_555 1_555
C5 C1 1_555 1_555
H3 C5 1_555 1_555
C6 C4 1_555 1_555
H4 C6 1_555 1_555
C7 C5 1_555 1_555
H5 C7 1_555 1_555
O1 C3 1_555 1_555
O2 C1 1_555 1_555
C8 O2 1_555 1_555
H6 C8 1_555 1_555
H7 C8 1_555 1_555
C9 C8 1_555 1_555
H8 C9 1_555 1_555
H9 C9 1_555 1_555
C6 C7 1_555 1_555

#END
