
#######################################################################
#
#                 Cambridge Crystallographic Data Centre
#                                CCDC 
#
#######################################################################
#
# If this CIF has been generated from an entry in the Cambridge 
# Structural Database, then it will include bibliographic, chemical, 
# crystal, experimental, refinement or atomic coordinate data resulting 
# from the CCDC's data processing and validation procedures.
#
#######################################################################

data_NATFET
_chemical_formula_moiety         'C48 H75 N1 O34,H2 O1'
_chemical_name_systematic        
'6-Anilino-6-deoxy-\b-D-cyclodextrin monohydrate'
_symmetry_cell_setting           orthorhombic
_symmetry_space_group_name_H-M   'P 21 21 21'
_symmetry_Int_Tables_number      19
_space_group_name_Hall           'P 2ac 2ab'
loop_
_symmetry_equiv_pos_site_id
_symmetry_equiv_pos_as_xyz
1 x,y,z
2 1/2-x,-y,1/2+z
3 1/2+x,1/2-y,-z
4 -x,1/2+y,1/2-z
_cell_length_a                   13.432(3)
_cell_length_b                   19.025(4)
_cell_length_c                   28.041(6)
_cell_angle_alpha                90
_cell_angle_beta                 90
_cell_angle_gamma                90
_cell_volume                     7165.7
_cell_formula_units_Z            4
loop_
_atom_site_label
_atom_site_type_symbol
_atom_site_fract_x
_atom_site_fract_y
_atom_site_fract_z
C1 C 0.1950(6) -0.6031(4) -0.0771(3)
C2 C 0.2825(6) -0.5587(4) -0.0603(3)
C3 C 0.3072(6) -0.5738(5) -0.0091(3)
C4 C 0.2150(6) -0.5660(4) 0.0220(3)
C5 C 0.1281(6) -0.6100(4) 0.0014(3)
C6 C 0.0358(6) -0.6015(5) 0.0281(3)
O1 O 0.3665(5) -0.5751(4) -0.0894(2)
O2 O 0.3807(5) -0.5272(4) 0.0083(2)
O3 O 0.2408(4) -0.5933(3) 0.0684(2)
O4 O 0.1128(4) -0.5900(3) -0.0473(2)
N1 N -0.0421(6) -0.6512(5) 0.0200(3)
C7 C -0.1178(7) -0.6481(5) -0.0133(3)
C8 C -0.1211(7) -0.5965(5) -0.0474(3)
C9 C -0.1993(8) -0.5968(6) -0.0808(4)
C10 C -0.2689(9) -0.6475(7) -0.0825(4)
C11 C -0.2612(8) -0.7004(6) -0.0482(4)
C12 C -0.1892(7) -0.7005(5) -0.0140(3)
C13 C 0.2110(6) -0.5554(4) 0.1092(3)
C14 C 0.3050(6) -0.5361(4) 0.1364(3)
C15 C 0.3554(5) -0.5993(4) 0.1553(2)
C16 C 0.2841(6) -0.6449(4) 0.1832(3)
C17 C 0.1916(6) -0.6621(4) 0.1523(3)
C18 C 0.1162(8) -0.7038(6) 0.1781(5)
O5 O 0.3686(4) -0.4937(3) 0.1071(2)
O6 O 0.4361(4) -0.5784(3) 0.1852(2)
O7 O 0.3346(4) -0.7094(2) 0.1938(2)
O8 O 0.1471(4) -0.5973(3) 0.1370(2)
O9 O 0.0393(11) -0.7234(7) 0.1454(5)
C19 C 0.3400(7) -0.7299(4) 0.2421(3)
C20 C 0.4456(7) -0.7469(4) 0.2554(3)
C21 C 0.4809(6) -0.8093(4) 0.2288(3)
C22 C 0.4129(7) -0.8719(4) 0.2358(3)
C23 C 0.3062(6) -0.8513(4) 0.2244(3)
C24 C 0.2313(9) -0.9067(5) 0.2362(5)
O10 O 0.5014(6) -0.6844(3) 0.2463(2)
O11 O 0.5782(5) -0.8258(3) 0.2448(3)
O12 O 0.6468(5) -0.9538(3) 0.2034(3)
O13 O 0.6465(5) -1.0544(4) 0.1290(2)
O14 O 0.4504(5) -1.0896(3) 0.0979(2)
O15 O 0.4097(4) -1.0418(3) 0.2223(2)
O16 O 0.3400(5) -1.1782(4) 0.1950(3)
C25 C 0.4396(9) -1.1591(5) 0.0786(4)
C26 C 0.5189(10) -1.1667(6) 0.0391(4)
C27 C 0.5006(8) -1.1156(6) -0.0007(3)
C28 C 0.3959(8) -1.1226(5) -0.0183(3)
C29 C 0.3203(8) -1.1146(6) 0.0224(3)
C30 C 0.2157(10) -1.1263(9) 0.0091(5)
O17 O 0.6178(7) -1.1559(5) 0.0588(3)
O18 O 0.5697(6) -1.1273(5) -0.0386(2)
O19 O 0.3793(4) -1.0687(3) -0.0528(2)
O20 O 0.3442(6) -1.1666(4) 0.0580(2)
O21 O 0.2035(13) -1.1873(10) -0.0108(5)
C31 C 0.3521(6) -1.0886(5) -0.0996(3)
C32 C 0.4153(6) -1.0490(4) -0.1332(3)
C33 C 0.3923(6) -0.9710(4) -0.1334(3)
C34 C 0.2813(6) -0.9579(4) -0.1402(3)
C35 C 0.2255(6) -1.0011(5) -0.1024(3)
C36 C 0.1142(6) -0.9947(5) -0.1071(3)
O22 O 0.5193(4) -1.0596(3) -0.1238(2)
O23 O 0.4457(4) -0.9347(3) -0.1711(2)
O24 O 0.2657(4) -0.8843(3) -0.1327(2)
O25 O 0.2507(4) -1.0737(3) -0.1075(2)
O26 O 0.0823(4) -1.0146(3) -0.1536(2)
C37 C 0.2022(6) -0.8485(5) -0.1642(3)
C38 C 0.2580(7) -0.7867(4) -0.1855(3)
C39 C 0.2820(6) -0.7358(4) -0.1450(3)
C40 C 0.1899(6) -0.7136(4) -0.1181(3)
C41 C 0.1371(6) -0.7792(5) -0.1006(3)
C42 C 0.0391(7) -0.7640(6) -0.0760(4)
O27 O 0.3443(5) -0.8096(3) -0.2089(2)
O28 O 0.3308(6) -0.6765(3) -0.1654(2)
O29 O 0.2233(4) -0.6736(3) -0.0784(2)
O30 O 0.4436(4) -0.9259(2) 0.2047(2)
O31 O 0.2784(5) -0.7895(3) 0.2496(2)
O32 O 0.1391(6) -0.8952(5) 0.2155(6)
C43 C 0.4793(6) -0.9889(4) 0.2253(3)
C44 C 0.5767(7) -1.0088(4) 0.2014(3)
C45 C 0.5550(7) -1.0280(5) 0.1500(3)
C46 C 0.4743(7) -1.0818(4) 0.1470(3)
C47 C 0.3820(6) -1.0605(4) 0.1742(3)
C48 C 0.3031(7) -1.1159(5) 0.1765(4)
O33 O 0.1160(4) -0.8266(3) -0.1392(2)
O34 O 0.0032(7) -0.8205(5) -0.0500(4)
O35 O 0.0871(18) -0.9389(12) 0.0076(8)
O36 O 0.6608(17) -0.2779(13) 0.1027(9)
O37 O 0.8224(13) -1.0061(9) 0.2407(6)
O38 O 0.5226(18) -0.3445(14) 0.1378(9)
O39 O -0.0254(10) -0.8209(7) 0.2397(5)
O40 O 0.6262(10) -1.1069(7) -0.1971(5)
O41 O -0.0162(7) -0.7990(5) 0.0634(3)
O42? O 0.0865(18) -0.6714(13) 0.2177(9)
O43? O 0.1490(20) -1.1200(20) 0.0435(11)
loop_
_geom_bond_atom_site_label_1
_geom_bond_atom_site_label_2
_geom_bond_site_symmetry_1
_geom_bond_site_symmetry_2
C1 C2 1_555 1_555
C2 C3 1_555 1_555
C3 C4 1_555 1_555
C4 C5 1_555 1_555
C5 C6 1_555 1_555
C6 N1 1_555 1_555
O1 C2 1_555 1_555
O2 C3 1_555 1_555
O3 C4 1_555 1_555
O4 C1 1_555 1_555
N1 C7 1_555 1_555
C7 C8 1_555 1_555
C8 C9 1_555 1_555
C9 C10 1_555 1_555
C10 C11 1_555 1_555
C11 C12 1_555 1_555
C12 C7 1_555 1_555
C13 O3 1_555 1_555
C14 C13 1_555 1_555
C15 C14 1_555 1_555
C16 C15 1_555 1_555
C17 C16 1_555 1_555
C18 C17 1_555 1_555
O5 C14 1_555 1_555
O6 C15 1_555 1_555
O7 C16 1_555 1_555
O8 C13 1_555 1_555
O9 C18 1_555 1_555
C19 O7 1_555 1_555
C20 C19 1_555 1_555
C21 C20 1_555 1_555
C22 C21 1_555 1_555
C23 C22 1_555 1_555
C24 C23 1_555 1_555
O10 C20 1_555 1_555
O11 C21 1_555 1_555
O12 C44 1_555 1_555
O13 C45 1_555 1_555
O14 C25 1_555 1_555
O15 C43 1_555 1_555
O16 C48 1_555 1_555
C25 C26 1_555 1_555
C26 C27 1_555 1_555
C27 C28 1_555 1_555
C28 C29 1_555 1_555
C29 C30 1_555 1_555
C30 O21 1_555 1_555
O17 C26 1_555 1_555
O18 C27 1_555 1_555
O19 C28 1_555 1_555
O20 C25 1_555 1_555
C31 O19 1_555 1_555
C32 C31 1_555 1_555
C33 C32 1_555 1_555
C34 C33 1_555 1_555
C35 C34 1_555 1_555
C36 C35 1_555 1_555
O22 C32 1_555 1_555
O23 C33 1_555 1_555
O24 C34 1_555 1_555
O25 C31 1_555 1_555
O26 C36 1_555 1_555
C37 O24 1_555 1_555
C38 C37 1_555 1_555
C39 C38 1_555 1_555
C40 C39 1_555 1_555
C41 C40 1_555 1_555
C42 C41 1_555 1_555
O27 C38 1_555 1_555
O28 C39 1_555 1_555
O29 C1 1_555 1_555
O30 C22 1_555 1_555
O31 C19 1_555 1_555
O32 C24 1_555 1_555
C43 O30 1_555 1_555
C44 C43 1_555 1_555
C45 C44 1_555 1_555
C46 O14 1_555 1_555
C47 O15 1_555 1_555
C48 C47 1_555 1_555
O33 C37 1_555 1_555
O34 C42 1_555 1_555
C5 O4 1_555 1_555
C17 O8 1_555 1_555
C23 O31 1_555 1_555
C29 O20 1_555 1_555
C35 O25 1_555 1_555
C40 O29 1_555 1_555
C41 O33 1_555 1_555
C45 C46 1_555 1_555
C46 C47 1_555 1_555

#END
