
#######################################################################
#
#                 Cambridge Crystallographic Data Centre
#                                CCDC 
#
#######################################################################
#
# If this CIF has been generated from an entry in the Cambridge 
# Structural Database, then it will include bibliographic, chemical, 
# crystal, experimental, refinement or atomic coordinate data resulting 
# from the CCDC's data processing and validation procedures.
#
#######################################################################

data_NATLIF
_chemical_formula_moiety         'C12 H20 F4'
_chemical_name_systematic        1,1,4,4-Tetrafluorocyclododecane
_symmetry_cell_setting           monoclinic
_symmetry_space_group_name_H-M   'P 21/c'
_symmetry_Int_Tables_number      14
_space_group_name_Hall           '-P 2ybc'
loop_
_symmetry_equiv_pos_site_id
_symmetry_equiv_pos_as_xyz
1 x,y,z
2 -x,1/2+y,1/2-z
3 -x,-y,-z
4 x,1/2-y,1/2+z
_cell_length_a                   9.145(3)
_cell_length_b                   13.698(7)
_cell_length_c                   9.502(4)
_cell_angle_alpha                90
_cell_angle_beta                 90.018(14)
_cell_angle_gamma                90
_cell_volume                     1190.3
_exptl_crystal_colour            colorless
_exptl_crystal_description       prism
_cell_formula_units_Z            4
loop_
_atom_site_label
_atom_site_type_symbol
_atom_site_fract_x
_atom_site_fract_y
_atom_site_fract_z
F1 F 0.8544(9) 0.2407(5) 0.2388(8)
F2 F 0.6366(8) 0.2497(5) 0.1461(8)
C1 C 0.7491(12) 0.3064(9) 0.1974(12)
C2 C 0.8121(13) 0.3651(8) 0.0812(13)
H1 H 0.8647 0.3210 0.0160
H2 H 0.8842 0.4115 0.1207
C3 C 0.6942(12) 0.4237(9) -0.0038(12)
H3 H 0.6554 0.3817 -0.0799
H4 H 0.6120 0.4401 0.0597
C4 C 0.7527(12) 0.5156(9) -0.0669(11)
F3 F 0.8669(7) 0.4922(5) -0.1541(7)
F4 F 0.6442(7) 0.5508(5) -0.1574(7)
C5 C 0.8041(13) 0.5960(8) 0.0264(13)
H5 H 0.8514 0.6467 -0.0323
H6 H 0.8791 0.5698 0.0914
C6 C 0.6805(13) 0.6446(9) 0.1149(13)
H7 H 0.6218 0.6878 0.0533
H8 H 0.6149 0.5932 0.1521
C7 C 0.7419(14) 0.7045(9) 0.2380(15)
H9 H 0.8192 0.7487 0.2024
H10 H 0.6629 0.7454 0.2779
C8 C 0.8055(13) 0.6406(8) 0.3540(13)
H11 H 0.8579 0.6829 0.4218
H12 H 0.8782 0.5958 0.3117
C9 C 0.6914(14) 0.5790(9) 0.4358(13)
H13 H 0.6437 0.6215 0.5065
H14 H 0.6150 0.5573 0.3689
C10 C 0.7505(14) 0.4923(10) 0.5083(12)
H15 H 0.6717 0.4628 0.5656
H16 H 0.8287 0.5137 0.5736
C11 C 0.8125(13) 0.4145(9) 0.4110(12)
H17 H 0.8656 0.3654 0.4679
H18 H 0.8835 0.4451 0.3460
C12 C 0.6929(13) 0.3625(9) 0.3241(13)
H19 H 0.6400 0.3166 0.3864
H20 H 0.6217 0.4119 0.2912
loop_
_geom_bond_atom_site_label_1
_geom_bond_atom_site_label_2
_geom_bond_site_symmetry_1
_geom_bond_site_symmetry_2
F1 C1 1_555 1_555
F2 C1 1_555 1_555
C1 C2 1_555 1_555
C2 H1 1_555 1_555
H2 C2 1_555 1_555
C3 C2 1_555 1_555
H3 C3 1_555 1_555
H4 C3 1_555 1_555
C4 C3 1_555 1_555
F3 C4 1_555 1_555
F4 C4 1_555 1_555
C5 C4 1_555 1_555
H5 C5 1_555 1_555
H6 C5 1_555 1_555
C6 C5 1_555 1_555
H7 C6 1_555 1_555
H8 C6 1_555 1_555
C7 C6 1_555 1_555
H9 C7 1_555 1_555
H10 C7 1_555 1_555
C8 C7 1_555 1_555
H11 C8 1_555 1_555
H12 C8 1_555 1_555
C9 C8 1_555 1_555
H13 C9 1_555 1_555
H14 C9 1_555 1_555
C10 C9 1_555 1_555
H15 C10 1_555 1_555
H16 C10 1_555 1_555
C11 C10 1_555 1_555
H17 C11 1_555 1_555
H18 C11 1_555 1_555
C12 C1 1_555 1_555
H19 C12 1_555 1_555
H20 C12 1_555 1_555
C11 C12 1_555 1_555

#END
