
#######################################################################
#
#                 Cambridge Crystallographic Data Centre
#                                CCDC 
#
#######################################################################
#
# If this CIF has been generated from an entry in the Cambridge 
# Structural Database, then it will include bibliographic, chemical, 
# crystal, experimental, refinement or atomic coordinate data resulting 
# from the CCDC's data processing and validation procedures.
#
#######################################################################

data_NATMUT
_chemical_formula_moiety         'C28 H26 Br1 N1 O5 S1'
_chemical_name_systematic        
'ethyl 2-(((2-(3-(4-bromophenyl)-3-oxoprop-1-en-1-yl)phenyl)((4-methylphenyl)sulfonyl)amino)methyl)acrylate'
_symmetry_cell_setting           monoclinic
_symmetry_space_group_name_H-M   'P 21/n'
_symmetry_Int_Tables_number      14
_space_group_name_Hall           '-P 2yn'
loop_
_symmetry_equiv_pos_site_id
_symmetry_equiv_pos_as_xyz
1 x,y,z
2 1/2-x,1/2+y,1/2-z
3 -x,-y,-z
4 1/2+x,1/2-y,1/2+z
_cell_length_a                   8.1874(4)
_cell_length_b                   22.8006(8)
_cell_length_c                   13.6393(6)
_cell_angle_alpha                90
_cell_angle_beta                 91.001(2)
_cell_angle_gamma                90
_cell_volume                     2545.76
_exptl_crystal_colour            colorless
_exptl_crystal_description       Prism
_cell_formula_units_Z            4
loop_
_atom_site_label
_atom_site_type_symbol
_atom_site_fract_x
_atom_site_fract_y
_atom_site_fract_z
Br1 Br 0.73136(3) 0.038407(9) 0.020468(14)
S1 S 0.23633(5) 0.172668(19) 0.76998(3)
O1 O 0.39054(16) 0.16376(5) 0.42050(9)
O2 O 0.37431(15) 0.13524(6) 0.75667(9)
O3 O 0.24048(17) 0.23243(6) 0.73789(9)
O4 O -0.1921(2) 0.14456(7) 0.45795(11)
O5 O -0.03165(16) 0.21230(6) 0.53116(9)
N1 N 0.08306(17) 0.14141(6) 0.71051(10)
C1 C 0.5719(2) 0.13109(8) 0.26081(13)
H1 H 0.5831 0.1699 0.2852
C2 C 0.6478(2) 0.11569(8) 0.17442(13)
H2 H 0.7109 0.1435 0.1397
C3 C 0.6299(2) 0.05909(8) 0.13981(12)
C4 C 0.5413(2) 0.01724(8) 0.18994(13)
H3 H 0.5321 -0.0217 0.1656
C5 C 0.4662(2) 0.03337(8) 0.27650(13)
H4 H 0.4052 0.0051 0.3117
C6 C 0.4794(2) 0.09053(7) 0.31239(12)
C7 C 0.3960(2) 0.11118(7) 0.40309(12)
C8 C 0.3194(2) 0.06830(7) 0.47011(12)
H5 H 0.3298 0.0274 0.4584
C9 C 0.23564(19) 0.08753(7) 0.54713(12)
H6 H 0.2298 0.1288 0.5554
C10 C 0.1519(2) 0.05179(7) 0.61997(12)
C11 C 0.1384(2) -0.00922(8) 0.61121(12)
H7 H 0.1850 -0.0283 0.5564
C12 C 0.0590(2) -0.04227(8) 0.68039(14)
H8 H 0.0497 -0.0835 0.6723
C13 C -0.0075(2) -0.01529(8) 0.76208(14)
H9 H -0.0604 -0.0382 0.8103
C14 C 0.0035(2) 0.04500(8) 0.77284(13)
H10 H -0.0422 0.0636 0.8284
C15 C 0.08151(19) 0.07836(7) 0.70225(12)
C16 C 0.1910(2) 0.17325(7) 0.89587(12)
C17 C 0.2518(2) 0.12898(8) 0.95654(13)
H11 H 0.3107 0.0970 0.9299
C18 C 0.2251(2) 0.13219(8) 1.05633(13)
H12 H 0.2678 0.1024 1.0982
C19 C 0.1367(2) 0.17837(8) 1.09650(12)
C20 C 0.0730(2) 0.22117(7) 1.03383(12)
H13 H 0.0102 0.2523 1.0600
C21 C 0.0996(2) 0.21901(7) 0.93392(12)
H14 H 0.0558 0.2485 0.8918
C22 C 0.1140(2) 0.18339(9) 1.20555(13)
H15 H 0.1795 0.2161 1.2311
H16 H 0.1492 0.1469 1.2374
H17 H -0.0016 0.1904 1.2190
C23 C -0.0772(2) 0.17096(8) 0.71651(13)
H18 H -0.0619 0.2140 0.7144
H19 H -0.1292 0.1609 0.7793
C24 C -0.1854(2) 0.15190(8) 0.63238(14)
C25 C -0.3204(2) 0.12078(10) 0.64565(19)
H20 H -0.3859 0.1093 0.5908
H21 H -0.3514 0.1100 0.7100
C26 C -0.1390(2) 0.16831(8) 0.53104(14)
C27 C 0.0285(3) 0.22914(10) 0.43571(14)
H22 H -0.0641 0.2367 0.3897
H23 H 0.0965 0.1974 0.4084
C28 C 0.1277(3) 0.28341(11) 0.44972(17)
H24 H 0.0600 0.3141 0.4787
H25 H 0.1675 0.2968 0.3862
H26 H 0.2209 0.2750 0.4936
loop_
_geom_bond_atom_site_label_1
_geom_bond_atom_site_label_2
_geom_bond_site_symmetry_1
_geom_bond_site_symmetry_2
Br1 C3 1_555 1_555
S1 O2 1_555 1_555
O1 C7 1_555 1_555
O3 S1 1_555 1_555
O4 C26 1_555 1_555
O5 C26 1_555 1_555
N1 S1 1_555 1_555
C1 H1 1_555 1_555
C2 C1 1_555 1_555
H2 C2 1_555 1_555
C3 C2 1_555 1_555
C4 C3 1_555 1_555
H3 C4 1_555 1_555
C5 C4 1_555 1_555
H4 C5 1_555 1_555
C6 C1 1_555 1_555
C7 C6 1_555 1_555
C8 C7 1_555 1_555
H5 C8 1_555 1_555
C9 C8 1_555 1_555
H6 C9 1_555 1_555
C10 C9 1_555 1_555
C11 C10 1_555 1_555
H7 C11 1_555 1_555
C12 C11 1_555 1_555
H8 C12 1_555 1_555
C13 C12 1_555 1_555
H9 C13 1_555 1_555
C14 C13 1_555 1_555
H10 C14 1_555 1_555
C15 N1 1_555 1_555
C16 S1 1_555 1_555
C17 C16 1_555 1_555
H11 C17 1_555 1_555
C18 C17 1_555 1_555
H12 C18 1_555 1_555
C19 C18 1_555 1_555
C20 C19 1_555 1_555
H13 C20 1_555 1_555
C21 C16 1_555 1_555
H14 C21 1_555 1_555
C22 C19 1_555 1_555
H15 C22 1_555 1_555
H16 C22 1_555 1_555
H17 C22 1_555 1_555
C23 N1 1_555 1_555
H18 C23 1_555 1_555
H19 C23 1_555 1_555
C24 C23 1_555 1_555
C25 C24 1_555 1_555
H20 C25 1_555 1_555
H21 C25 1_555 1_555
C26 C24 1_555 1_555
C27 O5 1_555 1_555
H22 C27 1_555 1_555
H23 C27 1_555 1_555
C28 C27 1_555 1_555
H24 C28 1_555 1_555
H25 C28 1_555 1_555
H26 C28 1_555 1_555
C5 C6 1_555 1_555
C10 C15 1_555 1_555
C14 C15 1_555 1_555
C20 C21 1_555 1_555

#END
