
#######################################################################
#
#                 Cambridge Crystallographic Data Centre
#                                CCDC 
#
#######################################################################
#
# If this CIF has been generated from an entry in the Cambridge 
# Structural Database, then it will include bibliographic, chemical, 
# crystal, experimental, refinement or atomic coordinate data resulting 
# from the CCDC's data processing and validation procedures.
#
#######################################################################

data_NATPUV
_chemical_formula_moiety         'C24 H24 N2 O2 S1'
_chemical_name_systematic        
7,20-Dioxa-2-thia-12,15-diazatetracyclo[19.2.2.2^3,6^.2^12,15^]nonacosa-1(23),3,5,21,24,28-hexaene-9,17-diyne
_symmetry_cell_setting           triclinic
_symmetry_space_group_name_H-M   'P -1'
_symmetry_Int_Tables_number      2
_space_group_name_Hall           '-P 1'
loop_
_symmetry_equiv_pos_site_id
_symmetry_equiv_pos_as_xyz
1 x,y,z
2 -x,-y,-z
_cell_length_a                   9.2569(12)
_cell_length_b                   10.8855(14)
_cell_length_c                   11.5162(14)
_cell_angle_alpha                114.300(2)
_cell_angle_beta                 90.206(2)
_cell_angle_gamma                90.845(2)
_cell_volume                     1057.46
_exptl_crystal_colour            colorless
_exptl_crystal_description       block
_cell_formula_units_Z            2
loop_
_atom_site_label
_atom_site_type_symbol
_atom_site_fract_x
_atom_site_fract_y
_atom_site_fract_z
C1 C 0.7022(3) 0.2957(2) 0.2342(2)
C2 C 0.5850(3) 0.2937(3) 0.1588(2)
H1 H 0.5267 0.2167 0.1236
C3 C 0.5535(3) 0.4047(3) 0.1352(2)
H2 H 0.4749 0.4016 0.0835
C4 C 0.6381(3) 0.5205(3) 0.1878(2)
C5 C 0.7563(3) 0.5243(2) 0.2636(2)
H3 H 0.8141 0.6017 0.2992
C6 C 0.7877(3) 0.4116(2) 0.2857(2)
H4 H 0.8674 0.4138 0.3360
C7 C 0.6801(3) 0.7469(3) 0.2102(2)
H5 H 0.6515 0.8041 0.1684
H6 H 0.7810 0.7254 0.1911
C8 C 0.6654(3) 0.8214(3) 0.3473(3)
C9 C 0.6541(3) 0.8812(2) 0.4585(3)
C10 C 0.6349(3) 0.9556(2) 0.5964(2)
H7 H 0.6496 1.0511 0.6191
H8 H 0.5364 0.9420 0.6179
C11 C 0.7076(3) 0.7721(2) 0.6474(2)
H9 H 0.7210 0.7154 0.5578
H10 H 0.6085 0.7605 0.6688
C12 C 0.8092(3) 0.7299(2) 0.72641(19)
H11 H 0.7901 0.6363 0.7100
H12 H 0.9081 0.7377 0.7024
C13 C 0.8182(3) 0.9552(2) 0.8843(2)
H13 H 0.9168 0.9661 0.8613
H14 H 0.8065 1.0126 0.9740
C14 C 0.7156(3) 0.9972(2) 0.8067(2)
H15 H 0.6170 0.9882 0.8307
H16 H 0.7336 1.0911 0.8235
C15 C 0.8922(3) 0.7752(2) 0.9386(2)
H17 H 0.8840 0.8371 1.0274
H18 H 0.9901 0.7825 0.9121
C16 C 0.8653(3) 0.6374(3) 0.9263(2)
C17 C 0.8431(3) 0.5261(3) 0.9153(2)
C18 C 0.8173(3) 0.3877(2) 0.8984(2)
H19 H 0.8435 0.3793 0.9764
H20 H 0.7151 0.3661 0.8826
C19 C 0.8560(3) 0.2719(2) 0.6736(2)
C20 C 0.9420(3) 0.1847(2) 0.5780(2)
H21 H 1.0226 0.1475 0.5989
C21 C 0.9090(3) 0.1527(2) 0.4525(2)
H22 H 0.9685 0.0953 0.3890
C22 C 0.7877(3) 0.2053(2) 0.4193(2)
C23 C 0.7022(3) 0.2924(2) 0.5151(2)
H23 H 0.6208 0.3283 0.4941
C24 C 0.7365(3) 0.3271(2) 0.6425(2)
H24 H 0.6794 0.3871 0.7064
N1 N 0.7346(2) 0.91306(17) 0.67093(17)
N2 N 0.7913(2) 0.81436(17) 0.86230(16)
O1 O 0.5959(2) 0.62489(19) 0.15884(16)
O2 O 0.89785(19) 0.29285(16) 0.79502(15)
S1 S 0.74128(8) 0.14723(6) 0.25555(6)
loop_
_geom_bond_atom_site_label_1
_geom_bond_atom_site_label_2
_geom_bond_site_symmetry_1
_geom_bond_site_symmetry_2
C1 C2 1_555 1_555
C2 H1 1_555 1_555
C3 C2 1_555 1_555
H2 C3 1_555 1_555
C4 C3 1_555 1_555
C5 C4 1_555 1_555
H3 C5 1_555 1_555
C6 C1 1_555 1_555
H4 C6 1_555 1_555
C7 H5 1_555 1_555
H6 C7 1_555 1_555
C8 C7 1_555 1_555
C9 C8 1_555 1_555
C10 C9 1_555 1_555
H7 C10 1_555 1_555
H8 C10 1_555 1_555
C11 H9 1_555 1_555
H10 C11 1_555 1_555
C12 C11 1_555 1_555
H11 C12 1_555 1_555
H12 C12 1_555 1_555
C13 H13 1_555 1_555
H14 C13 1_555 1_555
C14 C13 1_555 1_555
H15 C14 1_555 1_555
H16 C14 1_555 1_555
C15 H17 1_555 1_555
H18 C15 1_555 1_555
C16 C15 1_555 1_555
C17 C16 1_555 1_555
C18 C17 1_555 1_555
H19 C18 1_555 1_555
H20 C18 1_555 1_555
C19 C20 1_555 1_555
C20 H21 1_555 1_555
C21 C20 1_555 1_555
H22 C21 1_555 1_555
C22 C21 1_555 1_555
C23 C22 1_555 1_555
H23 C23 1_555 1_555
C24 C19 1_555 1_555
H24 C24 1_555 1_555
N1 C10 1_555 1_555
N2 C12 1_555 1_555
O1 C4 1_555 1_555
O2 C18 1_555 1_555
S1 C1 1_555 1_555
C5 C6 1_555 1_555
C7 O1 1_555 1_555
C11 N1 1_555 1_555
C13 N2 1_555 1_555
C14 N1 1_555 1_555
C15 N2 1_555 1_555
C19 O2 1_555 1_555
C22 S1 1_555 1_555
C23 C24 1_555 1_555

#END
