
#######################################################################
#
#                 Cambridge Crystallographic Data Centre
#                                CCDC 
#
#######################################################################
#
# If this CIF has been generated from an entry in the Cambridge 
# Structural Database, then it will include bibliographic, chemical, 
# crystal, experimental, refinement or atomic coordinate data resulting 
# from the CCDC's data processing and validation procedures.
#
#######################################################################

data_NATPEE01
_chemical_formula_moiety         'C26 H18 N4,2(H2 O1)'
_chemical_name_systematic        '1,2,4,5-tetrakis(4-Pyridyl)benzene dihydrate'
_symmetry_cell_setting           monoclinic
_symmetry_space_group_name_H-M   'P 21/n'
_symmetry_Int_Tables_number      14
_space_group_name_Hall           '-P 2yn'
loop_
_symmetry_equiv_pos_site_id
_symmetry_equiv_pos_as_xyz
1 x,y,z
2 1/2-x,1/2+y,1/2-z
3 -x,-y,-z
4 1/2+x,1/2-y,1/2+z
_cell_length_a                   12.6296(17)
_cell_length_b                   6.1333(8)
_cell_length_c                   15.708(2)
_cell_angle_alpha                90
_cell_angle_beta                 113.70
_cell_angle_gamma                90
_cell_volume                     1114.14
_exptl_crystal_colour            colorless
_exptl_crystal_description       needle
_cell_formula_units_Z            2
_exptl_crystal_preparation       luminescent
loop_
_atom_site_label
_atom_site_type_symbol
_atom_site_fract_x
_atom_site_fract_y
_atom_site_fract_z
O1 O 0.02195(13) 0.0492(3) 0.75652(10)
H1 H -0.0179 0.1653 0.7401
H2 H 0.0491 0.0598 0.7152
N1 N 0.15226(16) 0.6246(3) 0.30806(12)
N2 N 0.14271(19) 0.0371(4) 0.63553(14)
C1 C 0.50593(17) 0.1346(3) 0.43220(13)
H3 H 0.5099 0.2258 0.3863
C2 C 0.32095(17) 0.3153(3) 0.40638(13)
C3 C 0.26458(19) 0.6642(4) 0.33418(14)
H4 H 0.2865 0.7987 0.3192
C4 C 0.24092(19) -0.1513(4) 0.55428(16)
H5 H 0.2489 -0.2780 0.5248
C5 C 0.20375(18) 0.2700(4) 0.37722(14)
H6 H 0.1793 0.1357 0.3901
C6 C 0.40636(17) 0.0157(3) 0.52648(13)
C7 C 0.41157(17) 0.1544(3) 0.45689(13)
C8 C 0.34960(18) 0.5182(3) 0.38185(12)
H7 H 0.4268 0.5544 0.3979
C9 C 0.31294(18) 0.0258(3) 0.56268(13)
C10 C 0.29839(19) 0.2070(4) 0.60957(15)
H8 H 0.3449 0.3293 0.6174
C11 C 0.12433(19) 0.4273(4) 0.32892(14)
H9 H 0.0463 0.3941 0.3096
C12 C 0.2134(2) 0.2037(5) 0.64481(16)
H10 H 0.2057 0.3260 0.6769
C13 C 0.1571(2) -0.1383(4) 0.59004(19)
H11 H 0.1083 -0.2570 0.5821
N1B N 0.84774(16) -0.6246(3) 0.69194(12)
N2B N 0.85729(19) -0.0371(4) 0.36447(14)
C1B C 0.49407(17) -0.1346(3) 0.56780(13)
H3B H 0.4901 -0.2258 0.6137
C2B C 0.67905(17) -0.3153(3) 0.59362(13)
C3B C 0.73542(19) -0.6642(4) 0.66582(14)
H4B H 0.7135 -0.7987 0.6808
C4B C 0.75908(19) 0.1513(4) 0.44572(16)
H5B H 0.7511 0.2780 0.4752
C5B C 0.79625(18) -0.2700(4) 0.62278(14)
H6B H 0.8207 -0.1357 0.6099
C6B C 0.59364(17) -0.0157(3) 0.47352(13)
C7B C 0.58843(17) -0.1544(3) 0.54311(13)
C8B C 0.65040(18) -0.5182(3) 0.61815(12)
H7B H 0.5732 -0.5544 0.6021
C9B C 0.68706(18) -0.0258(3) 0.43732(13)
C10B C 0.70161(19) -0.2070(4) 0.39043(15)
H8B H 0.6551 -0.3293 0.3826
C11B C 0.87567(19) -0.4273(4) 0.67108(14)
H9B H 0.9537 -0.3941 0.6904
C12B C 0.7866(2) -0.2037(5) 0.35519(16)
H10B H 0.7943 -0.3260 0.3231
C13B C 0.8429(2) 0.1383(4) 0.40996(19)
H11B H 0.8917 0.2570 0.4179
loop_
_geom_bond_atom_site_label_1
_geom_bond_atom_site_label_2
_geom_bond_site_symmetry_1
_geom_bond_site_symmetry_2
O1 H1 1_555 1_555
H2 O1 1_555 1_555
N1 C3 1_555 1_555
N2 C12 1_555 1_555
C1 H3 1_555 1_555
C2 C5 1_555 1_555
C3 H4 1_555 1_555
C4 H5 1_555 1_555
C5 H6 1_555 1_555
C6 C7 1_555 1_555
C7 C1 1_555 1_555
C8 C2 1_555 1_555
H7 C8 1_555 1_555
C9 C4 1_555 1_555
C10 C9 1_555 1_555
H8 C10 1_555 1_555
C11 N1 1_555 1_555
H9 C11 1_555 1_555
C12 C10 1_555 1_555
H10 C12 1_555 1_555
C13 N2 1_555 1_555
H11 C13 1_555 1_555
N1B C3B 1_555 1_555
N2B C12B 1_555 1_555
C1B C6 1_555 1_555
H3B C1B 1_555 1_555
C2B C5B 1_555 1_555
C3B H4B 1_555 1_555
C4B H5B 1_555 1_555
C5B H6B 1_555 1_555
C6B C1 1_555 1_555
C7B C1B 1_555 1_555
C8B C2B 1_555 1_555
H7B C8B 1_555 1_555
C9B C4B 1_555 1_555
C10B C9B 1_555 1_555
H8B C10B 1_555 1_555
C11B N1B 1_555 1_555
H9B C11B 1_555 1_555
C12B C10B 1_555 1_555
H10B C12B 1_555 1_555
C13B N2B 1_555 1_555
H11B C13B 1_555 1_555
C2 C7 1_555 1_555
C3 C8 1_555 1_555
C4 C13 1_555 1_555
C5 C11 1_555 1_555
C6 C9 1_555 1_555
C2B C7B 1_555 1_555
C3B C8B 1_555 1_555
C4B C13B 1_555 1_555
C5B C11B 1_555 1_555
C6B C7B 1_555 1_555
C6B C9B 1_555 1_555

#END
