
#######################################################################
#
#                 Cambridge Crystallographic Data Centre
#                                CCDC 
#
#######################################################################
#
# If this CIF has been generated from an entry in the Cambridge 
# Structural Database, then it will include bibliographic, chemical, 
# crystal, experimental, refinement or atomic coordinate data resulting 
# from the CCDC's data processing and validation procedures.
#
#######################################################################

data_NATQEG
_chemical_formula_moiety         'C36 H38 Cl2 N4 O4'
_chemical_name_systematic        
8,27-Dichloro-6,12,25,31-tetraoxa-1,17,20,36-tetraazapentacyclo[34.2.2.2^17,20^.1^7,11^.1^26,30^]tetratetraconta-7(44),8,10,26(41),27,29-hexaene-3,14,22,33-tetrayne
_symmetry_cell_setting           triclinic
_symmetry_space_group_name_H-M   'P -1'
_symmetry_Int_Tables_number      2
_space_group_name_Hall           '-P 1'
loop_
_symmetry_equiv_pos_site_id
_symmetry_equiv_pos_as_xyz
1 x,y,z
2 -x,-y,-z
_cell_length_a                   7.6628(19)
_cell_length_b                   10.062(3)
_cell_length_c                   11.528(3)
_cell_angle_alpha                91.301(4)
_cell_angle_beta                 93.047(4)
_cell_angle_gamma                112.314(4)
_cell_volume                     820.237
_exptl_crystal_colour            colorless
_exptl_crystal_description       block
_cell_formula_units_Z            1
loop_
_atom_site_label
_atom_site_type_symbol
_atom_site_fract_x
_atom_site_fract_y
_atom_site_fract_z
C1 C 0.3171(4) 0.0844(4) 0.9648(2)
C2 C 0.2595(5) -0.0598(3) 0.9297(2)
H1 H 0.1971 -0.1309 0.9800
C3 C 0.2952(4) -0.0978(2) 0.8194(3)
H2 H 0.2566 -0.1943 0.7959
C4 C 0.3885(4) 0.0084(3) 0.74420(19)
C5 C 0.4461(4) 0.1526(2) 0.7793(2)
H3 H 0.5085 0.2237 0.7290
C6 C 0.4104(4) 0.1906(2) 0.8896(3)
C7 C 0.5867(9) 0.4402(10) 0.8613(8)
H4 H 0.5985 0.5338 0.8925
H5 H 0.5270 0.4271 0.7833
C8 C 0.7751(4) 0.4373(4) 0.8554(3)
C9 C 0.9223(4) 0.4252(4) 0.8560(3)
C10 C 1.1022(4) 0.4019(4) 0.8532(3)
H6 H 1.2055 0.4902 0.8805
H7 H 1.0988 0.3284 0.9071
C11 C 0.9962(4) 0.2262(3) 0.6905(3)
H8 H 0.8785 0.2403 0.6771
H9 H 0.9761 0.1511 0.7455
C12 C 1.0526(4) 0.1808(3) 0.5778(3)
H10 H 1.1653 0.1599 0.5923
H11 H 0.9522 0.0938 0.5454
C13 C 1.2335(4) 0.4269(3) 0.5435(3)
H12 H 1.2527 0.5022 0.4888
H13 H 1.3520 0.4142 0.5573
C14 C 1.1745(4) 0.4706(3) 0.6564(3)
H14 H 1.2726 0.5588 0.6887
H15 H 1.0597 0.4886 0.6418
H16 H 0.8460 -0.3302 0.6691
H17 H 0.9694 -0.1688 0.6499
C15 C 0.8616(5) -0.2510(4) 0.6173(3)
C16 C 0.6902(4) -0.2177(4) 0.6126(3)
C17 C 0.5543(4) -0.1896(4) 0.6060(3)
N1 N 1.1421(3) 0.3587(3) 0.7388(2)
N2 N 1.0895(3) 0.2937(3) 0.4946(2)
Cl1 Cl 0.2672(2) 0.13037(18) 1.09962(10)
C18 C 0.3871(5) -0.1540(4) 0.5871(4)
H18 H 0.3517 -0.1607 0.5045
H19 H 0.2823 -0.2225 0.6250
O1 O 0.4236(4) -0.0128(3) 0.6322(2)
O2 O 0.4691(9) 0.3320(8) 0.9316(5)
C1A C 1.6829(4) -0.0844(4) 0.0352(2)
C2A C 1.7405(5) 0.0598(3) 0.0703(2)
H1A H 1.8029 0.1309 0.0200
C3A C 1.7048(4) 0.0978(2) 0.1806(3)
H2A H 1.7434 0.1943 0.2041
C4A C 1.6115(4) -0.0084(3) 0.25580(19)
C5A C 1.5539(4) -0.1526(2) 0.2207(2)
H3A H 1.4915 -0.2237 0.2710
C6A C 1.5896(4) -0.1906(2) 0.1104(3)
C7A C 1.4133(9) -0.4402(10) 0.1387(8)
H4A H 1.4015 -0.5338 0.1075
H5A H 1.4730 -0.4271 0.2167
C8A C 1.2249(4) -0.4373(4) 0.1446(3)
C9A C 1.0777(4) -0.4252(4) 0.1440(3)
C10A C 0.8978(4) -0.4019(4) 0.1468(3)
H6A H 0.7945 -0.4902 0.1195
H7A H 0.9012 -0.3284 0.0929
C11A C 1.0038(4) -0.2262(3) 0.3095(3)
H8A H 1.1215 -0.2403 0.3229
H9A H 1.0239 -0.1511 0.2545
C12A C 0.9474(4) -0.1808(3) 0.4222(3)
H10A H 0.8347 -0.1599 0.4077
H11A H 1.0478 -0.0938 0.4546
C13A C 0.7665(4) -0.4269(3) 0.4565(3)
H12A H 0.7473 -0.5022 0.5112
H13A H 0.6480 -0.4142 0.4427
C14A C 0.8255(4) -0.4706(3) 0.3436(3)
H14A H 0.7274 -0.5588 0.3113
H15A H 0.9403 -0.4886 0.3582
H16A H 1.1540 0.3302 0.3309
H17A H 1.0306 0.1688 0.3501
C15A C 1.1384(5) 0.2510(4) 0.3827(3)
C16A C 1.3098(4) 0.2177(4) 0.3874(3)
C17A C 1.4457(4) 0.1896(4) 0.3940(3)
N1A N 0.8579(3) -0.3587(3) 0.2612(2)
N2A N 0.9105(3) -0.2937(3) 0.5054(2)
Cl1A Cl 1.7328(2) -0.13037(18) -0.09962(10)
C18A C 1.6129(5) 0.1540(4) 0.4129(4)
H18A H 1.6483 0.1607 0.4955
H19A H 1.7177 0.2225 0.3750
O1A O 1.5764(4) 0.0128(3) 0.3678(2)
O2A O 1.5309(9) -0.3320(8) 0.0684(5)
C19? C 0.317(3) 0.1503(15) 1.0002(17)
C20? C 0.466(10) -0.085(6) 0.611(5)
C21? C 0.223(3) 0.0017(16) 0.9901(16)
C22? C 0.244(3) -0.0746(11) 0.8932(16)
C23? C 0.357(3) -0.0023(14) 0.8063(14)
C24? C 0.450(3) 0.1463(15) 0.8164(16)
C25? C 0.430(3) 0.2226(11) 0.9134(18)
C26? C 0.601(5) 0.459(6) 0.869(5)
Cl2? Cl 0.1390(17) -0.2604(11) 0.8877(11)
H20? H 0.3031 0.2013 1.0651
H21? H 0.5661 0.0098 0.6143
H22? H 0.3916 -0.0951 0.5385
H23? H 0.1475 -0.0467 1.0482
H24? H 0.5260 0.1947 0.7583
H25? H 0.6269 0.5527 0.9054
H26? H 0.5337 0.4517 0.7942
O3? O 0.348(7) -0.087(4) 0.702(3)
O4? O 0.490(6) 0.349(5) 0.941(4)
loop_
_geom_bond_atom_site_label_1
_geom_bond_atom_site_label_2
_geom_bond_site_symmetry_1
_geom_bond_site_symmetry_2
C1 C2 1_555 1_555
C2 H1 1_555 1_555
C3 C2 1_555 1_555
H2 C3 1_555 1_555
C4 C3 1_555 1_555
C5 C4 1_555 1_555
H3 C5 1_555 1_555
C6 C1 1_555 1_555
C7 H4 1_555 1_555
H5 C7 1_555 1_555
C8 C7 1_555 1_555
C9 C8 1_555 1_555
C10 C9 1_555 1_555
H6 C10 1_555 1_555
H7 C10 1_555 1_555
C11 H8 1_555 1_555
H9 C11 1_555 1_555
C12 C11 1_555 1_555
H10 C12 1_555 1_555
H11 C12 1_555 1_555
C13 H12 1_555 1_555
H13 C13 1_555 1_555
C14 C13 1_555 1_555
H14 C14 1_555 1_555
H15 C14 1_555 1_555
H16 C15 1_555 1_555
H17 C15 1_555 1_555
C15 C16 1_555 1_555
C16 C17 1_555 1_555
C17 C18 1_555 1_555
N1 C10 1_555 1_555
N2 C12 1_555 1_555
Cl1 C1 1_555 1_555
C18 H18 1_555 1_555
H19 C18 1_555 1_555
O1 C4 1_555 1_555
O2 C6 1_555 1_555
C1A C2A 1_555 1_555
C2A H1A 1_555 1_555
C3A C2A 1_555 1_555
H2A C3A 1_555 1_555
C4A C3A 1_555 1_555
C5A C4A 1_555 1_555
H3A C5A 1_555 1_555
C6A C1A 1_555 1_555
C7A H4A 1_555 1_555
H5A C7A 1_555 1_555
C8A C7A 1_555 1_555
C9A C8A 1_555 1_555
C10A C9A 1_555 1_555
H6A C10A 1_555 1_555
H7A C10A 1_555 1_555
C11A H8A 1_555 1_555
H9A C11A 1_555 1_555
C12A C11A 1_555 1_555
H10A C12A 1_555 1_555
H11A C12A 1_555 1_555
C13A H12A 1_555 1_555
H13A C13A 1_555 1_555
C14A C13A 1_555 1_555
H14A C14A 1_555 1_555
H15A C14A 1_555 1_555
H16A C15A 1_555 1_555
H17A C15A 1_555 1_555
C15A N2 1_555 1_555
C16A C15A 1_555 1_555
C17A C16A 1_555 1_555
N1A C10A 1_555 1_555
N2A C15 1_555 1_555
Cl1A C1A 1_555 1_555
C18A C17A 1_555 1_555
H18A C18A 1_555 1_555
H19A C18A 1_555 1_555
O1A C4A 1_555 1_555
O2A C6A 1_555 1_555
C5 C6 1_555 1_555
C7 O2 1_555 1_555
C11 N1 1_555 1_555
C13 N2 1_555 1_555
C14 N1 1_555 1_555
C18 O1 1_555 1_555
C5A C6A 1_555 1_555
C7A O2A 1_555 1_555
C11A N1A 1_555 1_555
C12A N2A 1_555 1_555
C13A N2A 1_555 1_555
C14A N1A 1_555 1_555
C18A O1A 1_555 1_555

#END
