
#######################################################################
#
#                 Cambridge Crystallographic Data Centre
#                                CCDC 
#
#######################################################################
#
# If this CIF has been generated from an entry in the Cambridge 
# Structural Database, then it will include bibliographic, chemical, 
# crystal, experimental, refinement or atomic coordinate data resulting 
# from the CCDC's data processing and validation procedures.
#
#######################################################################

data_NATRUV
_chemical_formula_moiety         'C14 H9 F3 N6 O4 S1'
_chemical_name_systematic        
2-(2,6-Dinitro-4-trifluoromethylphenylthio)-5,7-dimethyl-1,2,4-triazolo(1,5-a)pyrimidine
_chemical_properties_biological  'weak herbicidal activity'
_symmetry_cell_setting           monoclinic
_symmetry_space_group_name_H-M   'P 21/n'
_symmetry_Int_Tables_number      14
_space_group_name_Hall           '-P 2yn'
loop_
_symmetry_equiv_pos_site_id
_symmetry_equiv_pos_as_xyz
1 x,y,z
2 1/2-x,1/2+y,1/2-z
3 -x,-y,-z
4 1/2+x,1/2-y,1/2+z
_cell_length_a                   8.287(3)
_cell_length_b                   24.972(4)
_cell_length_c                   8.617(3)
_cell_angle_alpha                90
_cell_angle_beta                 108.36(3)
_cell_angle_gamma                90
_cell_volume                     1692.45
_exptl_crystal_colour            yellow
_chemical_melting_point          222-223deg.C(dec.)
_cell_formula_units_Z            4
_exptl_crystal_recrystallization_method acetone
loop_
_atom_site_label
_atom_site_type_symbol
_atom_site_fract_x
_atom_site_fract_y
_atom_site_fract_z
S1 S 0.1475(3) 0.86216(8) 0.1433(3)
F1 F 0.129(1) 0.6684(2) 0.6759(6)
F2 F 0.2189(8) 0.6258(2) 0.5169(8)
F3 F -0.0312(7) 0.6363(2) 0.4614(7)
O1 O 0.0339(8) 0.7713(3) -0.0802(7)
O2 O 0.2492(7) 0.7201(3) 0.0111(7)
O3 O 0.1620(8) 0.8586(2) 0.6507(7)
O4 O 0.0211(8) 0.8934(2) 0.4174(9)
N1 N 0.4150(7) 0.8755(2) 0.4283(7)
N2 N 0.3856(7) 0.9355(2) 0.2198(7)
N3 N 0.5261(6) 0.9465(2) 0.3488(6)
N4 N 0.6670(7) 0.9137(2) 0.6168(7)
N5 N 0.1366(7) 0.7483(2) 0.0294(7)
N6 N 0.1015(8) 0.8578(2) 0.5015(8)
C1 C 0.3270(9) 0.8927(3) 0.2748(9)
C2 C 0.5402(9) 0.9114(2) 0.4722(9)
C3 C 0.773(9) 0.9532(3) 0.6307(9)
C4 C 0.914(1) 0.9576(3) 0.791(1)
C5 C 0.7634(9) 0.9901(3) 0.5046(9)
C6 C 0.6396(8) 0.9870(3) 0.3611(8)
C7 C 0.6150(1) 1.0228(3) 0.2180(9)
C8 C 0.1262(8) 0.8063(3) 0.2617(9)
C9 C 0.1283(7) 0.7555(3) 0.1951(8)
C10 C 0.1236(8) 0.7087(3) 0.2810(9)
C11 C 0.1193(8) 0.7121(3) 0.4379(8)
C12 C 0.1160(9) 0.7616(3) 0.5063(8)
C13 C 0.1177(8) 0.8070(3) 0.4199(9)
C14 C 0.109(1) 0.6626(3) 0.528(1)
loop_
_geom_bond_atom_site_label_1
_geom_bond_atom_site_label_2
_geom_bond_site_symmetry_1
_geom_bond_site_symmetry_2
S1 C1 1_555 1_555
F1 C14 1_555 1_555
F2 C14 1_555 1_555
F3 C14 1_555 1_555
O1 N5 1_555 1_555
O2 N5 1_555 1_555
O3 N6 1_555 1_555
O4 N6 1_555 1_555
N1 C1 1_555 1_555
N2 N3 1_555 1_555
N3 C2 1_555 1_555
N4 C2 1_555 1_555
N5 C9 1_555 1_555
N6 C13 1_555 1_555
C1 N2 1_555 1_555
C2 N1 1_555 1_555
C3 N4 1_555 1_555
C4 C3 1_555 1_555
C5 C3 1_555 1_555
C6 N3 1_555 1_555
C7 C6 1_555 1_555
C8 S1 1_555 1_555
C9 C8 1_555 1_555
C10 C9 1_555 1_555
C11 C10 1_555 1_555
C12 C11 1_555 1_555
C13 C8 1_555 1_555
C14 C11 1_555 1_555
C5 C6 1_555 1_555
C12 C13 1_555 1_555

#END
