
#######################################################################
#
#                 Cambridge Crystallographic Data Centre
#                                CCDC 
#
#######################################################################
#
# If this CIF has been generated from an entry in the Cambridge 
# Structural Database, then it will include bibliographic, chemical, 
# crystal, experimental, refinement or atomic coordinate data resulting 
# from the CCDC's data processing and validation procedures.
#
#######################################################################

data_NATWOW
_chemical_formula_moiety         'C26 H20 N4 O4,2(C3 H7 N1 O1)'
_chemical_name_systematic        
"N'^2^,N'^6^-bis(2-hydroxybenzylidene)naphthalene-2,6-dicarbohydrazide N,N-dimethylformamide solvate"
_symmetry_cell_setting           monoclinic
_symmetry_space_group_name_H-M   'P 21/n'
_symmetry_Int_Tables_number      14
_space_group_name_Hall           '-P 2yn'
loop_
_symmetry_equiv_pos_site_id
_symmetry_equiv_pos_as_xyz
1 x,y,z
2 1/2-x,1/2+y,1/2-z
3 -x,-y,-z
4 1/2+x,1/2-y,1/2+z
_cell_length_a                   10.4535(13)
_cell_length_b                   7.7114(9)
_cell_length_c                   18.8007(19)
_cell_angle_alpha                90
_cell_angle_beta                 93.3640(10)
_cell_angle_gamma                90
_cell_volume                     1512.93
_exptl_crystal_colour            yellow
_exptl_crystal_description       block
_cell_formula_units_Z            2
loop_
_atom_site_label
_atom_site_type_symbol
_atom_site_fract_x
_atom_site_fract_y
_atom_site_fract_z
O1 O 0.2773(3) 0.8908(6) 0.1257(2)
O2 O -0.0171(3) 1.0859(5) 0.20917(19)
N1 N 0.1066(4) 0.8001(5) 0.0582(2)
N2 N 0.0278(4) 0.8950(5) 0.0991(2)
C1 C 0.6465(4) 0.5086(7) 0.0611(3)
H1 H 0.6749 0.5622 0.1034
C2 C 0.5215(4) 0.5407(6) 0.0322(2)
C3 C 0.4367(4) 0.6535(6) 0.0653(2)
H2 H 0.4641 0.7092 0.1073
C4 C 0.3153(4) 0.6825(6) 0.0368(2)
C5 C 0.2735(4) 0.6006(7) -0.0275(3)
H3 H 0.1911 0.6210 -0.0471
C6 C 0.2331(5) 0.8003(7) 0.0769(3)
C7 C -0.0926(5) 0.8913(6) 0.0819(3)
H4 H -0.1233 0.8265 0.0428
C8 C -0.1809(4) 0.9879(6) 0.1231(3)
C9 C -0.3111(5) 0.9885(7) 0.1021(3)
H5 H -0.3396 0.9264 0.0619
C10 C -0.3978(5) 1.0789(8) 0.1396(4)
H6 H -0.4846 1.0756 0.1257
C11 C -0.3551(6) 1.1739(8) 0.1977(3)
H7 H -0.4136 1.2380 0.2223
C12 C -0.2285(5) 1.1768(7) 0.2205(3)
H8 H -0.2014 1.2411 0.2604
C13 C -0.1406(5) 1.0826(6) 0.1833(3)
H16 H 0.0676 0.7294 0.0262
H17 H 0.0307 1.0262 0.1806
O1B O 0.7227(3) 0.1092(6) -0.1257(2)
O2B O 1.0171(3) -0.0859(5) -0.20917(19)
N1B N 0.8934(4) 0.1999(5) -0.0582(2)
N2B N 0.9722(4) 0.1050(5) -0.0991(2)
C1B C 0.3535(4) 0.4914(7) -0.0611(3)
H1B H 0.3251 0.4378 -0.1034
C2B C 0.4785(4) 0.4593(6) -0.0322(2)
C3B C 0.5633(4) 0.3465(6) -0.0653(2)
H2B H 0.5359 0.2908 -0.1073
C4B C 0.6847(4) 0.3175(6) -0.0368(2)
C5B C 0.7265(4) 0.3994(7) 0.0275(3)
H3B H 0.8089 0.3790 0.0471
C6B C 0.7669(5) 0.1997(7) -0.0769(3)
C7B C 1.0926(5) 0.1087(6) -0.0819(3)
H4B H 1.1233 0.1735 -0.0428
C8B C 1.1809(4) 0.0121(6) -0.1231(3)
C9B C 1.3111(5) 0.0115(7) -0.1021(3)
H5B H 1.3396 0.0736 -0.0619
C10B C 1.3978(5) -0.0789(8) -0.1396(4)
H6B H 1.4846 -0.0756 -0.1257
C11B C 1.3551(6) -0.1739(8) -0.1977(3)
H7B H 1.4136 -0.2380 -0.2223
C12B C 1.2285(5) -0.1768(7) -0.2205(3)
H8B H 1.2014 -0.2411 -0.2604
C13B C 1.1406(5) -0.0826(6) -0.1833(3)
H16B H 0.9324 0.2706 -0.0262
H17B H 0.9693 -0.0262 -0.1806
O3 O -0.0374(4) 0.6571(6) -0.0594(2)
N3 N -0.1677(4) 0.6030(6) -0.1566(2)
C14 C -0.1351(9) 0.6660(10) -0.0954(4)
H9 H -0.1989 0.7303 -0.0753
C15 C -0.2910(8) 0.6224(15) -0.1903(5)
H10 H -0.2836 0.6638 -0.2380
H11 H -0.3391 0.7042 -0.1641
H12 H -0.3341 0.5124 -0.1916
C16 C -0.0727(9) 0.5095(11) -0.1949(5)
H13 H -0.1040 0.3951 -0.2064
H14 H 0.0054 0.5011 -0.1657
H15 H -0.0569 0.5703 -0.2381
loop_
_geom_bond_atom_site_label_1
_geom_bond_atom_site_label_2
_geom_bond_site_symmetry_1
_geom_bond_site_symmetry_2
O1 C6 1_555 1_555
O2 C13 1_555 1_555
O3 C14 1_555 1_555
N1 N2 1_555 1_555
N2 C7 1_555 1_555
N3 C14 1_555 1_555
C1 H1 1_555 1_555
C2 C1 1_555 1_555
C3 C2 1_555 1_555
H2 C3 1_555 1_555
C4 C3 1_555 1_555
C5 C4 1_555 1_555
H3 C5 1_555 1_555
C6 N1 1_555 1_555
C7 H4 1_555 1_555
C8 C7 1_555 1_555
C9 C8 1_555 1_555
H5 C9 1_555 1_555
C10 C9 1_555 1_555
H6 C10 1_555 1_555
C11 C10 1_555 1_555
H7 C11 1_555 1_555
C12 C11 1_555 1_555
H8 C12 1_555 1_555
C13 C8 1_555 1_555
C14 H9 1_555 1_555
C15 N3 1_555 1_555
H10 C15 1_555 1_555
H11 C15 1_555 1_555
H12 C15 1_555 1_555
C16 N3 1_555 1_555
H13 C16 1_555 1_555
H14 C16 1_555 1_555
H15 C16 1_555 1_555
H16 N1 1_555 1_555
H17 O2 1_555 1_555
O1B C6B 1_555 1_555
O2B C13B 1_555 1_555
N1B N2B 1_555 1_555
N2B C7B 1_555 1_555
C1B C5 1_555 1_555
H1B C1B 1_555 1_555
C2B C2 1_555 1_555
C3B C2B 1_555 1_555
H2B C3B 1_555 1_555
C4B C3B 1_555 1_555
C5B C1 1_555 1_555
H3B C5B 1_555 1_555
C6B N1B 1_555 1_555
C7B H4B 1_555 1_555
C8B C7B 1_555 1_555
C9B C8B 1_555 1_555
H5B C9B 1_555 1_555
C10B C9B 1_555 1_555
H6B C10B 1_555 1_555
C11B C10B 1_555 1_555
H7B C11B 1_555 1_555
C12B C11B 1_555 1_555
H8B C12B 1_555 1_555
C13B C8B 1_555 1_555
H16B N1B 1_555 1_555
H17B O2B 1_555 1_555
C4 C6 1_555 1_555
C12 C13 1_555 1_555
C1B C2B 1_555 1_555
C4B C5B 1_555 1_555
C4B C6B 1_555 1_555
C12B C13B 1_555 1_555

#END
