
#######################################################################
#
#                 Cambridge Crystallographic Data Centre
#                                CCDC 
#
#######################################################################
#
# If this CIF has been generated from an entry in the Cambridge 
# Structural Database, then it will include bibliographic, chemical, 
# crystal, experimental, refinement or atomic coordinate data resulting 
# from the CCDC's data processing and validation procedures.
#
#######################################################################

data_NAVBUK
_chemical_formula_moiety         'C28 H27 N1 O4 S1'
_chemical_name_systematic        
'ethyl 5-((4-methylphenyl)sulfonyl)-2-phenyl-1,4,5,9b-tetrahydro-3aH-cyclopenta[c]quinoline-3a-carboxylate'
_symmetry_cell_setting           monoclinic
_symmetry_space_group_name_H-M   'P 21/c'
_symmetry_Int_Tables_number      14
_space_group_name_Hall           '-P 2ybc'
loop_
_symmetry_equiv_pos_site_id
_symmetry_equiv_pos_as_xyz
1 x,y,z
2 -x,1/2+y,1/2-z
3 -x,-y,-z
4 x,1/2-y,1/2+z
_cell_length_a                   9.1267(18)
_cell_length_b                   10.848(2)
_cell_length_c                   24.209(5)
_cell_angle_alpha                90
_cell_angle_beta                 90.86(3)
_cell_angle_gamma                90
_cell_volume                     2396.58
_exptl_crystal_colour            colorless
_exptl_crystal_description       prism
_cell_formula_units_Z            4
loop_
_atom_site_label
_atom_site_type_symbol
_atom_site_fract_x
_atom_site_fract_y
_atom_site_fract_z
S1 S 0.40109(6) 0.58578(5) 0.25358(2)
O1 O 0.33826(18) 0.46706(14) 0.26468(6)
O2 O 0.55722(17) 0.59563(15) 0.24687(7)
O3 O 0.2587(2) 0.66539(15) 0.06278(7)
O4 O 0.11189(19) 0.82862(15) 0.07475(7)
N1 N 0.3263(2) 0.63936(17) 0.19552(8)
C1 C 0.3422(2) 0.6873(2) 0.30530(9)
C2 C 0.2186(3) 0.6593(2) 0.33599(10)
H1 H 0.1706 0.5822 0.3314
C3 C 0.1661(3) 0.7451(2) 0.37338(10)
H2 H 0.0816 0.7260 0.3942
C4 C 0.2348(3) 0.8587(2) 0.38096(10)
C5 C 0.3586(3) 0.8843(2) 0.34995(10)
H3 H 0.4065 0.9614 0.3546
C6 C 0.4138(3) 0.7999(2) 0.31250(10)
H4 H 0.4991 0.8186 0.2921
C7 C 0.1768(3) 0.9512(3) 0.42136(11)
H5 H 0.1989 0.9237 0.4591
H6 H 0.0705 0.9590 0.4163
H7 H 0.2232 1.0314 0.4150
C8 C 0.1707(2) 0.66201(19) 0.19765(9)
C9 C 0.0728(2) 0.5649(2) 0.20387(9)
H8 H 0.1074 0.4823 0.2043
C10 C -0.0760(3) 0.5889(2) 0.20941(9)
H9 H -0.1426 0.5226 0.2141
C11 C -0.1277(3) 0.7096(2) 0.20807(9)
H10 H -0.2288 0.7260 0.2132
C12 C -0.0304(2) 0.8058(2) 0.19915(9)
H11 H -0.0664 0.8878 0.1967
C13 C 0.1187(2) 0.78408(19) 0.19373(8)
C14 C 0.2329(2) 0.87704(19) 0.17833(9)
H12 H 0.2990 0.8870 0.2113
C15 C 0.1967(2) 1.00739(19) 0.15744(9)
H13 H 0.1019 1.0092 0.1371
H14 H 0.1940 1.0674 0.1882
C16 C 0.3241(2) 1.03295(19) 0.11935(8)
C17 C 0.3995(2) 0.9298(2) 0.10811(9)
H15 H 0.4873 0.9274 0.0876
C18 C 0.3256(2) 0.81777(19) 0.13263(9)
C19 C 0.4205(3) 0.7187(2) 0.15941(10)
H16 H 0.4664 0.6676 0.1306
H17 H 0.4994 0.7575 0.1819
C20 C 0.2302(3) 0.7597(2) 0.08665(9)
C21 C 0.0079(3) 0.7809(3) 0.03393(12)
H18 H -0.0134 0.6930 0.0414
H19 H 0.0486 0.7879 -0.0036
C22 C -0.1281(4) 0.8558(4) 0.03819(16)
H20 H -0.1657 0.8500 0.0758
H21 H -0.2020 0.8247 0.0119
H22 H -0.1062 0.9421 0.0296
C23 C 0.3486(2) 1.15657(19) 0.09561(9)
C24 C 0.4535(3) 1.1771(2) 0.05487(9)
H23 H 0.5144 1.1110 0.0435
C25 C 0.4697(3) 1.2921(2) 0.03097(10)
H24 H 0.5410 1.3044 0.0033
C26 C 0.3820(3) 1.3895(2) 0.04742(10)
H25 H 0.3928 1.4684 0.0309
C27 C 0.2790(3) 1.3718(2) 0.08789(10)
H26 H 0.2191 1.4386 0.0993
C28 C 0.2629(3) 1.2568(2) 0.11194(10)
H27 H 0.1924 1.2457 0.1400
loop_
_geom_bond_atom_site_label_1
_geom_bond_atom_site_label_2
_geom_bond_site_symmetry_1
_geom_bond_site_symmetry_2
S1 O1 1_555 1_555
O2 S1 1_555 1_555
O3 C20 1_555 1_555
O4 C20 1_555 1_555
N1 S1 1_555 1_555
C1 S1 1_555 1_555
C2 C1 1_555 1_555
H1 C2 1_555 1_555
C3 C2 1_555 1_555
H2 C3 1_555 1_555
C4 C3 1_555 1_555
C5 C4 1_555 1_555
H3 C5 1_555 1_555
C6 C1 1_555 1_555
H4 C6 1_555 1_555
C7 C4 1_555 1_555
H5 C7 1_555 1_555
H6 C7 1_555 1_555
H7 C7 1_555 1_555
C8 N1 1_555 1_555
C9 C8 1_555 1_555
H8 C9 1_555 1_555
C10 C9 1_555 1_555
H9 C10 1_555 1_555
C11 C10 1_555 1_555
H10 C11 1_555 1_555
C12 C11 1_555 1_555
H11 C12 1_555 1_555
C13 C8 1_555 1_555
C14 C13 1_555 1_555
H12 C14 1_555 1_555
C15 C14 1_555 1_555
H13 C15 1_555 1_555
H14 C15 1_555 1_555
C16 C15 1_555 1_555
C17 C16 1_555 1_555
H15 C17 1_555 1_555
C18 C14 1_555 1_555
C19 N1 1_555 1_555
H16 C19 1_555 1_555
H17 C19 1_555 1_555
C20 C18 1_555 1_555
C21 O4 1_555 1_555
H18 C21 1_555 1_555
H19 C21 1_555 1_555
C22 C21 1_555 1_555
H20 C22 1_555 1_555
H21 C22 1_555 1_555
H22 C22 1_555 1_555
C23 C16 1_555 1_555
C24 C23 1_555 1_555
H23 C24 1_555 1_555
C25 C24 1_555 1_555
H24 C25 1_555 1_555
C26 C25 1_555 1_555
H25 C26 1_555 1_555
C27 C26 1_555 1_555
H26 C27 1_555 1_555
C28 C23 1_555 1_555
H27 C28 1_555 1_555
C5 C6 1_555 1_555
C12 C13 1_555 1_555
C17 C18 1_555 1_555
C18 C19 1_555 1_555
C27 C28 1_555 1_555

#END
