
#######################################################################
#
#                 Cambridge Crystallographic Data Centre
#                                CCDC 
#
#######################################################################
#
# If this CIF has been generated from an entry in the Cambridge 
# Structural Database, then it will include bibliographic, chemical, 
# crystal, experimental, refinement or atomic coordinate data resulting 
# from the CCDC's data processing and validation procedures.
#
#######################################################################

data_NAVFOI01
_chemical_formula_moiety         'C44 H60 N4 O8,H1 Br1'
_chemical_name_systematic        
'1,4,7,10-tetrakis(2-(4-methoxyphenoxy)ethyl)-1,4,7,10-tetra-azacyclododecane hydrobromide'
_symmetry_cell_setting           orthorhombic
_symmetry_space_group_name_H-M   'P b c n'
_symmetry_Int_Tables_number      60
_space_group_name_Hall           '-P 2n 2ab'
loop_
_symmetry_equiv_pos_site_id
_symmetry_equiv_pos_as_xyz
1 x,y,z
2 1/2-x,1/2-y,1/2+z
3 1/2+x,1/2-y,-z
4 -x,y,1/2-z
5 -x,-y,-z
6 1/2+x,1/2+y,1/2-z
7 1/2-x,1/2+y,z
8 x,-y,1/2+z
_cell_length_a                   17.3174(15)
_cell_length_b                   12.9891(11)
_cell_length_c                   19.3379(17)
_cell_angle_alpha                90
_cell_angle_beta                 90
_cell_angle_gamma                90
_cell_volume                     4349.82
_exptl_crystal_colour            colorless
_exptl_crystal_description       Prism
_cell_formula_units_Z            4
loop_
_atom_site_label
_atom_site_type_symbol
_atom_site_fract_x
_atom_site_fract_y
_atom_site_fract_z
O1 O 0.81557(9) 0.53823(11) 0.80229(8)
O2 O 0.83836(12) 0.16857(12) 0.93926(9)
O3 O 0.93942(9) 0.54361(10) 0.58176(8)
O4 O 0.80672(10) 0.15833(11) 0.58687(9)
N1 N 0.88483(11) 0.73342(13) 0.73659(8)
N2 N 1.01387(10) 0.73671(12) 0.63930(9)
C1 C 0.86167(13) 0.77448(16) 0.80462(11)
H1 H 0.8367 0.7202 0.8309
H2 H 0.8242 0.8291 0.7978
C2 C 0.89594(13) 0.81719(15) 0.68609(11)
H3 H 0.9238 0.8731 0.7081
H4 H 0.8459 0.8433 0.6720
C3 C 0.93973(13) 0.78267(17) 0.62312(11)
H5 H 0.9087 0.7330 0.5980
H6 H 0.9479 0.8414 0.5931
C4 C 0.92805(13) 0.81565(14) 0.84564(11)
H7 H 0.9522 0.8713 0.8201
H8 H 0.9088 0.8437 0.8888
C5 C 0.82775(16) 0.65856(16) 0.70978(12)
H9 H 0.8291 0.6601 0.6596
H10 H 0.7766 0.6801 0.7241
C6 C 0.84052(19) 0.55004(16) 0.73333(11)
H11 H 0.8121 0.5032 0.7037
H12 H 0.8950 0.5332 0.7300
C7 C 0.82192(13) 0.44127(15) 0.83067(11)
C8 C 0.79540(15) 0.43228(16) 0.89724(12)
H13 H 0.7731 0.4888 0.9190
C9 C 0.80158(15) 0.34072(16) 0.93176(12)
H14 H 0.7835 0.3353 0.9769
C10 C 0.83465(14) 0.25600(17) 0.89969(12)
C11 C 0.86031(13) 0.26421(16) 0.83311(11)
H15 H 0.8823 0.2076 0.8112
C12 C 0.85358(13) 0.35711(16) 0.79827(11)
H16 H 0.8706 0.3625 0.7528
C13 C 1.04120(16) 0.66736(16) 0.58471(12)
H17 H 1.0970 0.6716 0.5821
H18 H 1.0205 0.6903 0.5407
C14 C 1.01826(15) 0.55654(16) 0.59619(14)
H19 H 1.0486 0.5122 0.5663
H20 H 1.0286 0.5373 0.6438
C15 C 0.91107(13) 0.44461(15) 0.58576(11)
C16 C 0.83766(13) 0.43027(15) 0.56150(10)
H21 H 0.8102 0.4860 0.5440
C17 C 0.80401(13) 0.33437(16) 0.56276(11)
H22 H 0.7541 0.3252 0.5461
C18 C 0.84491(13) 0.25157(16) 0.58906(10)
C19 C 0.91694(13) 0.26562(15) 0.61501(10)
H23 H 0.9436 0.2103 0.6341
C20 C 0.95107(14) 0.36280(15) 0.61309(11)
H24 H 1.0007 0.3722 0.6302
C21 C 0.84882(19) 0.07159(16) 0.60862(17)
H25 H 0.8181 0.0108 0.6023
H26 H 0.8619 0.0788 0.6566
H27 H 0.8953 0.0660 0.5818
C22 C 0.88229(19) 0.08683(19) 0.91336(17)
H28 H 0.8850 0.0331 0.9473
H29 H 0.9335 0.1106 0.9029
H30 H 0.8586 0.0607 0.8721
O1C O 1.18443(9) 0.53823(11) 0.69771(8)
O2C O 1.16164(12) 0.16857(12) 0.56074(9)
O3C O 1.06058(9) 0.54361(10) 0.91824(8)
O4C O 1.19328(10) 0.15833(11) 0.91313(9)
N1C N 1.11517(11) 0.73342(13) 0.76341(8)
N2C N 0.98613(10) 0.73671(12) 0.86070(9)
C1C C 1.13833(13) 0.77448(16) 0.69538(11)
H1C H 1.1633 0.7202 0.6691
H2C H 1.1758 0.8291 0.7022
C2C C 1.10406(13) 0.81719(15) 0.81391(11)
H3C H 1.0762 0.8731 0.7919
H4C H 1.1541 0.8433 0.8280
C3C C 1.06027(13) 0.78267(17) 0.87688(11)
H5C H 1.0913 0.7330 0.9020
H6C H 1.0521 0.8414 0.9069
C4C C 1.07195(13) 0.81565(14) 0.65436(11)
H7C H 1.0478 0.8713 0.6799
H8C H 1.0912 0.8437 0.6112
C5C C 1.17225(16) 0.65856(16) 0.79022(12)
H9C H 1.1709 0.6601 0.8404
H10C H 1.2234 0.6801 0.7759
C6C C 1.15948(19) 0.55004(16) 0.76667(11)
H11C H 1.1879 0.5032 0.7963
H12C H 1.1050 0.5332 0.7700
C7C C 1.17808(13) 0.44127(15) 0.66933(11)
C8C C 1.20460(15) 0.43228(16) 0.60276(12)
H13C H 1.2269 0.4888 0.5810
C9C C 1.19842(15) 0.34072(16) 0.56824(12)
H14C H 1.2165 0.3353 0.5231
C10C C 1.16535(14) 0.25600(17) 0.60031(12)
C11C C 1.13969(13) 0.26421(16) 0.66689(11)
H15C H 1.1177 0.2076 0.6888
C12C C 1.14642(13) 0.35711(16) 0.70173(11)
H16C H 1.1294 0.3625 0.7472
C13C C 0.95880(16) 0.66736(16) 0.91529(12)
H17C H 0.9030 0.6716 0.9179
H18C H 0.9795 0.6903 0.9593
C14C C 0.98174(15) 0.55654(16) 0.90381(14)
H19C H 0.9514 0.5122 0.9337
H20C H 0.9714 0.5373 0.8562
C15C C 1.08893(13) 0.44461(15) 0.91424(11)
C16C C 1.16234(13) 0.43027(15) 0.93850(10)
H21C H 1.1898 0.4860 0.9560
C17C C 1.19599(13) 0.33437(16) 0.93724(11)
H22C H 1.2459 0.3252 0.9539
C18C C 1.15509(13) 0.25157(16) 0.91094(10)
C19C C 1.08306(13) 0.26562(15) 0.88499(10)
H23C H 1.0564 0.2103 0.8659
C20C C 1.04893(14) 0.36280(15) 0.88691(11)
H24C H 0.9993 0.3722 0.8698
C21C C 1.15118(19) 0.07159(16) 0.89138(17)
H25C H 1.1819 0.0108 0.8977
H26C H 1.1381 0.0788 0.8434
H27C H 1.1047 0.0660 0.9182
C22C C 1.11771(19) 0.08683(19) 0.58664(17)
H28C H 1.1150 0.0331 0.5527
H29C H 1.0665 0.1106 0.5971
H30C H 1.1414 0.0607 0.6279
Br1 Br 1.0000 0.06365(2) 0.7500
H31? H 0.9929 0.0565 0.8013
loop_
_geom_bond_atom_site_label_1
_geom_bond_atom_site_label_2
_geom_bond_site_symmetry_1
_geom_bond_site_symmetry_2
O1 C6 1_555 1_555
O2 C10 1_555 1_555
O3 C14 1_555 1_555
O4 C18 1_555 1_555
N1 C1 1_555 1_555
N2 C3 1_555 1_555
C1 H1 1_555 1_555
H2 C1 1_555 1_555
C2 N1 1_555 1_555
H3 C2 1_555 1_555
H4 C2 1_555 1_555
C3 C2 1_555 1_555
H5 C3 1_555 1_555
H6 C3 1_555 1_555
C4 C1 1_555 1_555
H7 C4 1_555 1_555
H8 C4 1_555 1_555
C5 N1 1_555 1_555
H9 C5 1_555 1_555
H10 C5 1_555 1_555
C6 C5 1_555 1_555
H11 C6 1_555 1_555
H12 C6 1_555 1_555
C7 O1 1_555 1_555
C8 C7 1_555 1_555
H13 C8 1_555 1_555
C9 C8 1_555 1_555
H14 C9 1_555 1_555
C10 C9 1_555 1_555
C11 C10 1_555 1_555
H15 C11 1_555 1_555
C12 C7 1_555 1_555
H16 C12 1_555 1_555
C13 N2 1_555 1_555
H17 C13 1_555 1_555
H18 C13 1_555 1_555
C14 C13 1_555 1_555
H19 C14 1_555 1_555
H20 C14 1_555 1_555
C15 O3 1_555 1_555
C16 C15 1_555 1_555
H21 C16 1_555 1_555
C17 C16 1_555 1_555
H22 C17 1_555 1_555
C18 C17 1_555 1_555
C19 C18 1_555 1_555
H23 C19 1_555 1_555
C20 C15 1_555 1_555
H24 C20 1_555 1_555
C21 O4 1_555 1_555
H25 C21 1_555 1_555
H26 C21 1_555 1_555
H27 C21 1_555 1_555
C22 O2 1_555 1_555
H28 C22 1_555 1_555
H29 C22 1_555 1_555
H30 C22 1_555 1_555
O1C C6C 1_555 1_555
O2C C10C 1_555 1_555
O3C C14C 1_555 1_555
O4C C18C 1_555 1_555
N1C C1C 1_555 1_555
N2C C4 1_555 1_555
C1C H1C 1_555 1_555
H2C C1C 1_555 1_555
C2C N1C 1_555 1_555
H3C C2C 1_555 1_555
H4C C2C 1_555 1_555
C3C N2C 1_555 1_555
H5C C3C 1_555 1_555
H6C C3C 1_555 1_555
C4C N2 1_555 1_555
H7C C4C 1_555 1_555
H8C C4C 1_555 1_555
C5C N1C 1_555 1_555
H9C C5C 1_555 1_555
H10C C5C 1_555 1_555
C6C C5C 1_555 1_555
H11C C6C 1_555 1_555
H12C C6C 1_555 1_555
C7C O1C 1_555 1_555
C8C C7C 1_555 1_555
H13C C8C 1_555 1_555
C9C C8C 1_555 1_555
H14C C9C 1_555 1_555
C10C C9C 1_555 1_555
C11C C10C 1_555 1_555
H15C C11C 1_555 1_555
C12C C7C 1_555 1_555
H16C C12C 1_555 1_555
C13C N2C 1_555 1_555
H17C C13C 1_555 1_555
H18C C13C 1_555 1_555
C14C C13C 1_555 1_555
H19C C14C 1_555 1_555
H20C C14C 1_555 1_555
C15C O3C 1_555 1_555
C16C C15C 1_555 1_555
H21C C16C 1_555 1_555
C17C C16C 1_555 1_555
H22C C17C 1_555 1_555
C18C C17C 1_555 1_555
C19C C18C 1_555 1_555
H23C C19C 1_555 1_555
C20C C15C 1_555 1_555
H24C C20C 1_555 1_555
C21C O4C 1_555 1_555
H25C C21C 1_555 1_555
H26C C21C 1_555 1_555
H27C C21C 1_555 1_555
C22C O2C 1_555 1_555
H28C C22C 1_555 1_555
H29C C22C 1_555 1_555
H30C C22C 1_555 1_555
C11 C12 1_555 1_555
C19 C20 1_555 1_555
C1C C4C 1_555 1_555
C2C C3C 1_555 1_555
C11C C12C 1_555 1_555
C19C C20C 1_555 1_555

#END
