
#######################################################################
#
#                 Cambridge Crystallographic Data Centre
#                                CCDC 
#
#######################################################################
#
# If this CIF has been generated from an entry in the Cambridge 
# Structural Database, then it will include bibliographic, chemical, 
# crystal, experimental, refinement or atomic coordinate data resulting 
# from the CCDC's data processing and validation procedures.
#
#######################################################################

data_NAVHID
_chemical_formula_moiety         'C16 H17 N3 O5'
_chemical_name_systematic        
'Ethyl 3-methyl-1-(4-nitrophenyl)-5-oxo-6,7-dihydro-1H,5H-pyrazolo[1,2-a]pyrazole-2-carboxylate'
_symmetry_cell_setting           monoclinic
_symmetry_space_group_name_H-M   'P 21/n'
_symmetry_Int_Tables_number      14
_space_group_name_Hall           '-P 2yn'
loop_
_symmetry_equiv_pos_site_id
_symmetry_equiv_pos_as_xyz
1 x,y,z
2 1/2-x,1/2+y,1/2-z
3 -x,-y,-z
4 1/2+x,1/2-y,1/2+z
_cell_length_a                   12.534(3)
_cell_length_b                   8.7299(17)
_cell_length_c                   14.250(3)
_cell_angle_alpha                90
_cell_angle_beta                 97.85(3)
_cell_angle_gamma                90
_cell_volume                     1544.63
_cell_formula_units_Z            4
loop_
_atom_site_label
_atom_site_type_symbol
_atom_site_fract_x
_atom_site_fract_y
_atom_site_fract_z
O1 O -0.61484(14) 0.2234(2) 0.62964(14)
O2 O -0.64299(14) 0.0802(2) 0.74625(14)
O3 O 0.05782(13) -0.2789(2) 0.46222(12)
O4 O -0.12232(12) -0.0429(2) 0.85354(11)
O5 O 0.02621(12) 0.06191(19) 0.80744(10)
N1 N -0.58832(14) 0.1205(2) 0.68605(13)
N2 N -0.17470(13) -0.2108(2) 0.56737(12)
N3 N -0.06127(13) -0.1964(2) 0.56132(12)
C1 C -0.32711(17) 0.0121(3) 0.60832(15)
H1 H -0.2847 0.0392 0.5605
C2 C -0.42442(18) 0.0855(3) 0.61193(15)
H2 H -0.4491 0.1628 0.5673
C3 C -0.48477(16) 0.0437(3) 0.68190(14)
C4 C -0.45074(17) -0.0663(3) 0.74881(15)
H3 H -0.4932 -0.0925 0.7968
C5 C -0.35273(17) -0.1378(3) 0.74406(15)
H4 H -0.3277 -0.2135 0.7897
C6 C -0.29073(16) -0.1008(2) 0.67389(14)
C7 C -0.18540(16) -0.1822(3) 0.66788(14)
H5 H -0.1837 -0.2817 0.7029
C8 C -0.20033(18) -0.3634(3) 0.52685(15)
H6 H -0.2778 -0.3729 0.5023
H7 H -0.1798 -0.4453 0.5739
C9 C -0.13122(18) -0.3679(3) 0.44712(16)
H8 H -0.1132 -0.4746 0.4317
H9 H -0.1681 -0.3177 0.3893
C10 C -0.03137(18) -0.2797(3) 0.48793(15)
C11 C -0.01130(16) -0.1104(3) 0.63673(14)
C12 C 0.10223(17) -0.0624(3) 0.63779(16)
H10 H 0.1256 -0.0035 0.6955
H11 H 0.1084 0.0013 0.5822
H12 H 0.1479 -0.1534 0.6364
C13 C -0.08283(17) -0.0924(3) 0.69977(15)
C14 C -0.06368(16) -0.0232(3) 0.79382(15)
C15 C 0.05761(17) 0.1177(3) 0.90270(15)
H13 H 0.0642 0.0316 0.9483
H14 H 0.0034 0.1907 0.9205
C16 C 0.16476(18) 0.1963(3) 0.90306(18)
H15 H 0.1895 0.2360 0.9666
H16 H 0.1570 0.2812 0.8576
H17 H 0.2175 0.1227 0.8851
loop_
_geom_bond_atom_site_label_1
_geom_bond_atom_site_label_2
_geom_bond_site_symmetry_1
_geom_bond_site_symmetry_2
O1 N1 1_555 1_555
O2 N1 1_555 1_555
O3 C10 1_555 1_555
O4 C14 1_555 1_555
O5 C14 1_555 1_555
N1 C3 1_555 1_555
N2 N3 1_555 1_555
N3 C10 1_555 1_555
C1 H1 1_555 1_555
C2 C1 1_555 1_555
H2 C2 1_555 1_555
C3 C2 1_555 1_555
C4 C3 1_555 1_555
H3 C4 1_555 1_555
C5 C4 1_555 1_555
H4 C5 1_555 1_555
C6 C1 1_555 1_555
C7 N2 1_555 1_555
H5 C7 1_555 1_555
C8 N2 1_555 1_555
H6 C8 1_555 1_555
H7 C8 1_555 1_555
C9 C8 1_555 1_555
H8 C9 1_555 1_555
H9 C9 1_555 1_555
C10 C9 1_555 1_555
C11 N3 1_555 1_555
C12 C11 1_555 1_555
H10 C12 1_555 1_555
H11 C12 1_555 1_555
H12 C12 1_555 1_555
C13 C7 1_555 1_555
C14 C13 1_555 1_555
C15 O5 1_555 1_555
H13 C15 1_555 1_555
H14 C15 1_555 1_555
C16 C15 1_555 1_555
H15 C16 1_555 1_555
H16 C16 1_555 1_555
H17 C16 1_555 1_555
C5 C6 1_555 1_555
C6 C7 1_555 1_555
C11 C13 1_555 1_555

#END
