
#######################################################################
#
#                 Cambridge Crystallographic Data Centre
#                                CCDC 
#
#######################################################################
#
# If this CIF has been generated from an entry in the Cambridge 
# Structural Database, then it will include bibliographic, chemical, 
# crystal, experimental, refinement or atomic coordinate data resulting 
# from the CCDC's data processing and validation procedures.
#
#######################################################################

data_NAVXUG
_chemical_formula_moiety         'C23 H14 N6 O3,9.75(C5 H9 N1 O1)'
_chemical_name_systematic        
'5,7,15,17,24,26-hexaazaoctacyclo[9.9.9.0^2,10^.0^4,8^.0^12,20^.0^14,18^.0^21,29^.0^23,27^]nonacosa-2(10),3,8,12(20),13,18,21(29),22,27-nonaene-6,16,25-trione 1-methylpyrrolidin-2-one solvate'
_symmetry_cell_setting           tetragonal
_symmetry_space_group_name_H-M   'P 42/m'
_symmetry_Int_Tables_number      84
_space_group_name_Hall           '-P 4c'
loop_
_symmetry_equiv_pos_site_id
_symmetry_equiv_pos_as_xyz
1 x,y,z
2 -x,-y,z
3 -y,x,1/2+z
4 y,-x,1/2+z
5 -x,-y,-z
6 x,y,-z
7 y,-x,1/2-z
8 -y,x,1/2-z
_cell_length_a                   22.3249(11)
_cell_length_b                   22.3249(11)
_cell_length_c                   7.3336(5)
_cell_angle_alpha                90
_cell_angle_beta                 90
_cell_angle_gamma                90
_cell_volume                     3655.07
_exptl_crystal_colour            colorless
_exptl_crystal_description       plate
_cell_formula_units_Z            4
loop_
_atom_site_label
_atom_site_type_symbol
_atom_site_fract_x
_atom_site_fract_y
_atom_site_fract_z
O1 O 0.4349(3) 0.4705(3) 0.5000
O2 O 0.9758(3) 0.3557(4) 0.5000
N1 N 0.5002(2) 0.4039(2) 0.6476(6)
H1 H 0.4907 0.4110 0.7607
O3 O 0.6505(4) -0.0640(3) 0.5000
N2 N 0.8877(2) 0.3298(3) 0.6483(6)
H2 H 0.8997 0.3331 0.7607
N3 N 0.6513(3) 0.0282(2) 0.6498(7)
H3 H 0.6505 0.0159 0.7624
C1 C 0.6232(3) 0.2950(3) 0.5953(7)
C2 C 0.5433(3) 0.3647(3) 0.5924(8)
C3 C 0.6632(3) 0.1930(3) 0.5950(8)
C4 C 0.6719(3) 0.2546(3) 0.6757(8)
H4 H 0.6715 0.2543 0.8107
C5 C 0.4738(4) 0.4305(4) 0.5000
C6 C 0.7306(3) 0.2770(3) 0.5986(8)
C7 C 0.5840(3) 0.3300(3) 0.6921(8)
H5 H 0.5844 0.3306 0.8202
C8 C 0.6537(3) 0.0881(3) 0.5946(8)
C9 C 0.9215(5) 0.3408(5) 0.5000
C10 C 0.6586(3) 0.1402(3) 0.6909(8)
H6 H 0.6588 0.1401 0.8190
C11 C 0.8304(3) 0.3123(3) 0.5937(8)
C12 C 0.7802(3) 0.2948(3) 0.6962(8)
H7 H 0.7804 0.2952 0.8244
C13 C 0.6505(5) -0.0078(5) 0.5000
N1E N 0.5002(2) 0.4039(2) 0.3524(6)
H1E H 0.4907 0.4110 0.2393
N2E N 0.8877(2) 0.3298(3) 0.3517(6)
H2E H 0.8997 0.3331 0.2393
N3E N 0.6513(3) 0.0282(2) 0.3502(7)
H3E H 0.6505 0.0159 0.2376
C1E C 0.6232(3) 0.2950(3) 0.4047(7)
C2E C 0.5433(3) 0.3647(3) 0.4076(8)
C3E C 0.6632(3) 0.1930(3) 0.4050(8)
C4E C 0.6719(3) 0.2546(3) 0.3243(8)
H4E H 0.6715 0.2543 0.1893
C6E C 0.7306(3) 0.2770(3) 0.4014(8)
C7E C 0.5840(3) 0.3300(3) 0.3079(8)
H5E H 0.5844 0.3306 0.1798
C8E C 0.6537(3) 0.0881(3) 0.4054(8)
C10E C 0.6586(3) 0.1402(3) 0.3091(8)
H6E H 0.6588 0.1401 0.1810
C11E C 0.8304(3) 0.3123(3) 0.4063(8)
C12E C 0.7802(3) 0.2948(3) 0.3038(8)
H7E H 0.7804 0.2952 0.1756
N4? N 0.7431(6) 0.4458(6) 0.7566(18)
O4? O 0.6952(6) 0.3853(6) 1.0000
C14? C 0.7293(8) 0.4185(8) 0.915(2)
C15? C 0.7764(9) 0.4405(8) 1.045(2)
H8? H 0.7986 0.4066 1.0966
H9? H 0.7577 0.4626 1.1459
C16? C 0.8187(8) 0.4814(10) 0.940(2)
H10? H 0.8203 0.5211 0.9970
H11? H 0.8592 0.4645 0.9383
C17? C 0.7938(7) 0.4858(8) 0.748(2)
H12? H 0.7813 0.5268 0.7186
H13? H 0.8231 0.4723 0.6570
C18? C 0.7074(8) 0.4404(9) 0.595(2)
H14? H 0.7328 0.4294 0.4935
H15? H 0.6881 0.4784 0.5700
H16? H 0.6772 0.4098 0.6136
loop_
_geom_bond_atom_site_label_1
_geom_bond_atom_site_label_2
_geom_bond_site_symmetry_1
_geom_bond_site_symmetry_2
O1 C5 1_555 1_555
O2 C9 1_555 1_555
N1 H1 1_555 1_555
O3 C13 1_555 1_555
N2 H2 1_555 1_555
N3 H3 1_555 1_555
C1 C4 1_555 1_555
C2 N1 1_555 1_555
C3 C4 1_555 1_555
C4 H4 1_555 1_555
C5 N1 1_555 1_555
C6 C4 1_555 1_555
C7 C1 1_555 1_555
H5 C7 1_555 1_555
C8 N3 1_555 1_555
C9 N2 1_555 1_555
C10 C3 1_555 1_555
H6 C10 1_555 1_555
C11 N2 1_555 1_555
C12 C6 1_555 1_555
H7 C12 1_555 1_555
C13 N3 1_555 1_555
N1E C5 1_555 1_555
H1E N1E 1_555 1_555
N2E C9 1_555 1_555
H2E N2E 1_555 1_555
N3E C13 1_555 1_555
H3E N3E 1_555 1_555
C1E C1 1_555 1_555
C2E C2 1_555 1_555
C3E C3 1_555 1_555
C4E C1E 1_555 1_555
H4E C4E 1_555 1_555
C6E C6 1_555 1_555
C7E C1E 1_555 1_555
H5E C7E 1_555 1_555
C8E C8 1_555 1_555
C10E C3E 1_555 1_555
H6E C10E 1_555 1_555
C11E C11 1_555 1_555
C12E C6E 1_555 1_555
H7E C12E 1_555 1_555
C2 C7 1_555 1_555
C8 C10 1_555 1_555
C11 C12 1_555 1_555
N1E C2E 1_555 1_555
N2E C11E 1_555 1_555
N3E C8E 1_555 1_555
C2E C7E 1_555 1_555
C3E C4E 1_555 1_555
C4E C6E 1_555 1_555
C8E C10E 1_555 1_555
C11E C12E 1_555 1_555

#END
