
#######################################################################
#
#                 Cambridge Crystallographic Data Centre
#                                CCDC 
#
#######################################################################
#
# If this CIF has been generated from an entry in the Cambridge 
# Structural Database, then it will include bibliographic, chemical, 
# crystal, experimental, refinement or atomic coordinate data resulting 
# from the CCDC's data processing and validation procedures.
#
#######################################################################

data_NAVYIV
_chemical_formula_moiety         'C23 H14 N6 O3,17.41(C2 H6 O1 S1)'
_chemical_name_systematic        
'5,7,15,17,24,26-hexaazaoctacyclo[9.9.9.0^2,10^.0^4,8^.0^12,20^.0^14,18^.0^21,29^.0^23,27^]nonacosa-2(10),3,8,12(20),13,18,21(29),22,27-nonaene-6,16,25-trione dimethyl sulfoxide solvate'
_symmetry_cell_setting           hexagonal
_symmetry_space_group_name_H-M   'P 63/m m c'
_symmetry_Int_Tables_number      194
_space_group_name_Hall           "-P 6c 2'c"
loop_
_symmetry_equiv_pos_site_id
_symmetry_equiv_pos_as_xyz
1 x,y,z
2 x,x-y,1/2-z
3 -y,x-y,z
4 -x,-x+y,-z
5 -x,-y,1/2+z
6 y,-x+y,1/2+z
7 x-y,x,1/2+z
8 -x+y,y,1/2-z
9 -x+y,-x,z
10 y,x,-z
11 x-y,-y,-z
12 -y,-x,1/2-z
13 -x,-y,-z
14 -x,-x+y,1/2+z
15 y,-x+y,-z
16 x,x-y,z
17 x,y,1/2-z
18 -y,x-y,1/2-z
19 -x+y,-x,1/2-z
20 x-y,-y,1/2+z
21 x-y,x,-z
22 -y,-x,z
23 -x+y,y,z
24 y,x,1/2+z
_cell_length_a                   23.305(10)
_cell_length_b                   23.305(10)
_cell_length_c                   7.311(3)
_cell_angle_alpha                90
_cell_angle_beta                 90
_cell_angle_gamma                120
_cell_volume                     3438.79
_exptl_crystal_colour            colorless
_exptl_crystal_description       needle
_cell_formula_units_Z            2
loop_
_atom_site_label
_atom_site_type_symbol
_atom_site_fract_x
_atom_site_fract_y
_atom_site_fract_z
O1 O 0.51067(6) 0.48933(6) 0.7500
C1 C 0.47965(9) 0.52035(9) 0.7500
N1 N 0.45960(5) 0.54040(5) 0.6001(3)
C2 C 0.42653(5) 0.57347(5) 0.6542(3)
C3 C 0.39743(5) 0.60257(5) 0.5544(3)
C4 C 0.36821(5) 0.63179(5) 0.6536(3)
C5 C 0.3333 0.6667 0.5736(4)
H1 H 0.3985(5) 0.6015(5) 0.424(4)
H2 H 0.3333 0.6667 0.438(6)
H3 H 0.4691(9) 0.5309(9) 0.504(5)
O1A O 0.51067(6) 1.02134(8) 0.7500
C1A C 0.47965(9) 0.95930(13) 0.7500
N1B N 0.45960(5) 0.91920(7) 0.6001(3)
C2B C 0.42653(5) 0.85306(7) 0.6542(3)
C3B C 0.39743(5) 0.79486(7) 0.5544(3)
C4B C 0.36821(5) 0.73642(7) 0.6536(3)
H1B H 0.3985(5) 0.7970(7) 0.424(4)
H3B H 0.4691(9) 0.9382(13) 0.504(5)
O1V O -0.02134(8) 0.48933(6) 0.7500
C1V C 0.04070(13) 0.52035(9) 0.7500
N1V N 0.08080(7) 0.54040(5) 0.6001(3)
C2V C 0.14694(7) 0.57347(5) 0.6542(3)
C3V C 0.20514(7) 0.60257(5) 0.5544(3)
C4V C 0.26358(7) 0.63179(5) 0.6536(3)
H1V H 0.2030(7) 0.6015(5) 0.424(4)
H3V H 0.0618(13) 0.5309(9) 0.504(5)
N1G N 0.08080(7) 0.54040(5) 0.8999(3)
C2G C 0.14694(7) 0.57347(5) 0.8458(3)
C3G C 0.20514(7) 0.60257(5) 0.9456(3)
C4G C 0.26358(7) 0.63179(5) 0.8464(3)
C5A C 0.3333 0.6666 0.9264(4)
H1G H 0.2030(7) 0.6015(5) 1.076(4)
H2A H 0.3333 0.6666 1.062(6)
H3G H 0.0618(13) 0.5309(9) 0.996(5)
N1P N 0.45960(5) 0.54040(5) 0.8999(3)
C2P C 0.42653(5) 0.57347(5) 0.8458(3)
C3P C 0.39743(5) 0.60257(5) 0.9456(3)
C4P C 0.36821(5) 0.63179(5) 0.8464(3)
H1P H 0.3985(5) 0.6015(5) 1.076(4)
H3P H 0.4691(9) 0.5309(9) 0.996(5)
N1A N 0.45960(5) 0.91920(7) 0.8999(3)
C2A C 0.42653(5) 0.85306(7) 0.8458(3)
C3A C 0.39743(5) 0.79486(7) 0.9456(3)
C4A C 0.36821(5) 0.73642(7) 0.8464(3)
H1A H 0.3985(5) 0.7970(7) 1.076(4)
H3A H 0.4691(9) 0.9382(13) 0.996(5)
S1 S 0.5142(5) 0.7571(2) 0.2500
O2 O 0.4563(6) 0.7282(3) 0.2500
C6 C 0.5491(7) 0.7061(11) 0.2500
H4 H 0.5970 0.7331 0.2500
H5 H 0.5348 0.6783 0.3583
C6A C 0.5491(7) 0.8430(13) 0.2500
H5A H 0.5348 0.8565 0.1417
H5O H 0.5348 0.8565 0.3583
H5P H 0.5348 0.6783 0.1417
H6? H 0.5348 0.6783 0.3583
loop_
_geom_bond_atom_site_label_1
_geom_bond_atom_site_label_2
_geom_bond_site_symmetry_1
_geom_bond_site_symmetry_2
O1 C1 1_555 1_555
C1 N1 1_555 1_555
N1 C2 1_555 1_555
C2 C3 1_555 1_555
C3 C4 1_555 1_555
C4 C5 1_555 1_555
C5 H2 1_555 1_555
H1 C3 1_555 1_555
H3 N1 1_555 1_555
S1 O2 1_555 1_555
C6 S1 1_555 1_555
H4 C6 1_555 1_555
H5 C6 1_555 1_555
O1A C1A 1_555 1_555
C1A N1B 1_555 1_555
N1B C2B 1_555 1_555
C2B C3B 1_555 1_555
C3B C4B 1_555 1_555
C4B C5 1_555 1_555
H1B C3B 1_555 1_555
H3B N1B 1_555 1_555
O1V C1V 1_555 1_555
C1V N1V 1_555 1_555
N1V C2V 1_555 1_555
C2V C3V 1_555 1_555
C3V C4V 1_555 1_555
C4V C5 1_555 1_555
H1V C3V 1_555 1_555
H3V N1V 1_555 1_555
N1G C1V 1_555 1_555
C2G C2V 1_555 1_555
C3G C2G 1_555 1_555
C4G C4V 1_555 1_555
C5A C4G 1_555 1_555
H1G C3G 1_555 1_555
H2A C5A 1_555 1_555
H3G N1G 1_555 1_555
N1P C1 1_555 1_555
C2P C2 1_555 1_555
C3P C2P 1_555 1_555
C4P C4 1_555 1_555
H1P C3P 1_555 1_555
H3P N1P 1_555 1_555
N1A C1A 1_555 1_555
C2A C2B 1_555 1_555
C3A C2A 1_555 1_555
C4A C4B 1_555 1_555
H1A C3A 1_555 1_555
H3A N1A 1_555 1_555
C6A S1 1_555 1_555
H5A C6A 1_555 1_555
H5O C6A 1_555 1_555
H5P C6 1_555 1_555
N1G C2G 1_555 1_555
C3G C4G 1_555 1_555
C5A C4P 1_555 1_555
C5A C4A 1_555 1_555
N1P C2P 1_555 1_555
C3P C4P 1_555 1_555
N1A C2A 1_555 1_555
C3A C4A 1_555 1_555

#END
