
#######################################################################
#
#                 Cambridge Crystallographic Data Centre
#                                CCDC 
#
#######################################################################
#
# If this CIF has been generated from an entry in the Cambridge 
# Structural Database, then it will include bibliographic, chemical, 
# crystal, experimental, refinement or atomic coordinate data resulting 
# from the CCDC's data processing and validation procedures.
#
#######################################################################

data_NAVYOB
_chemical_formula_moiety         'C23 H14 N6 O3,16.49(C4 H9 N1 O1)'
_chemical_name_systematic        
'5,7,15,17,24,26-hexaazaoctacyclo[9.9.9.0^2,10^.0^4,8^.0^12,20^.0^14,18^.0^21,29^.0^23,27^]nonacosa-2(10),3,8,12(20),13,18,21(29),22,27-nonaene-6,16,25-trione N,N-dimethylacetamide solvate'
_symmetry_cell_setting           hexagonal
_symmetry_space_group_name_H-M   'P -6 2 c'
_symmetry_Int_Tables_number      190
_space_group_name_Hall           "P -6c -2'c"
loop_
_symmetry_equiv_pos_site_id
_symmetry_equiv_pos_as_xyz
1 x,y,z
2 -y,x-y,z
3 -x+y,-x,z
4 x,y,1/2-z
5 -y,x-y,1/2-z
6 -x+y,-x,1/2-z
7 y,x,-z
8 x-y,-y,-z
9 -x,-x+y,-z
10 y,x,1/2+z
11 x-y,-y,1/2+z
12 -x,-x+y,1/2+z
_cell_length_a                   23.258(5)
_cell_length_b                   23.258(5)
_cell_length_c                   7.3018(15)
_cell_angle_alpha                90
_cell_angle_beta                 90
_cell_angle_gamma                120
_cell_volume                     3420.62
_exptl_crystal_colour            colorless
_exptl_crystal_description       needle
_cell_formula_units_Z            2
loop_
_atom_site_label
_atom_site_type_symbol
_atom_site_fract_x
_atom_site_fract_y
_atom_site_fract_z
O1 O 0.7285(8) 0.4736(8) 0.7500
N1 N 0.7503(12) 0.5766(11) 0.7500
C1 C 0.7737(10) 0.5338(9) 0.7500
C2 C 0.8478(11) 0.5578(15) 0.7500
H1 H 0.8726 0.6060 0.7500
H2 H 0.8590 0.5414 0.8585
C3 C 0.7964(19) 0.6484(11) 0.7500
H3 H 0.7714 0.6716 0.7500
H4 H 0.8241 0.6606 0.8585
C4 C 0.6784(12) 0.5481(13) 0.7500
H5 H 0.6678 0.5835 0.7500
H6 H 0.6597 0.5209 0.6415
H2C H 0.8590 0.5414 0.6415
H4C H 0.8241 0.6606 0.6415
H6C H 0.6597 0.5209 0.8585
O2 O 0.4745(2) 0.4961(3) 0.2500
N2 N 0.52914(17) 0.44795(17) 0.4005(3)
H7 H 0.5217 0.4541 0.5136
C5 C 0.6667 0.3333 0.4273(5)
H8 H 0.6667 0.3333 0.5629
C6 C 0.62825(16) 0.36463(16) 0.3461(4)
C7 C 0.59643(17) 0.39125(17) 0.4456(4)
H9 H 0.5965 0.3913 0.5744
C8 C 0.56435(18) 0.41787(19) 0.3465(4)
C9 C 0.5076(3) 0.4669(3) 0.2500
O2A O 0.5039(3) -0.0216(4) 0.2500
N2A N 0.55205(17) 0.08119(24) 0.4005(3)
H7A H 0.5459 0.0676 0.5136
C6A C 0.63537(16) 0.26362(23) 0.3461(4)
C7A C 0.60875(17) 0.20518(24) 0.4456(4)
H9A H 0.6087 0.2052 0.5744
C8A C 0.58213(19) 0.14648(26) 0.3465(4)
C9A C 0.5331(3) 0.0407(4) 0.2500
O2B O 1.0216(4) 0.5255(2) 0.2500
N2B N 0.91881(24) 0.47086(17) 0.4005(3)
H7B H 0.9324 0.4783 0.5136
C6B C 0.73638(23) 0.37175(16) 0.3461(4)
C7B C 0.79482(24) 0.40357(17) 0.4456(4)
H9B H 0.7948 0.4035 0.5744
C8B C 0.85352(26) 0.43565(18) 0.3465(4)
C9B C 0.9593(4) 0.4924(3) 0.2500
N2C N 0.52914(17) 0.44795(17) 0.0995(3)
H7C H 0.5217 0.4541 -0.0136
C5C C 0.6667 0.3333 0.0727(5)
H8C H 0.6667 0.3333 -0.0629
C6C C 0.62825(16) 0.36463(16) 0.1539(4)
C7C C 0.59643(17) 0.39125(17) 0.0544(4)
H9C H 0.5965 0.3913 -0.0744
C8C C 0.56435(18) 0.41787(19) 0.1535(4)
N2D N 0.55205(17) 0.08119(24) 0.0995(3)
H7D H 0.5459 0.0676 -0.0136
C6D C 0.63537(16) 0.26362(23) 0.1539(4)
C7D C 0.60875(17) 0.20518(24) 0.0544(4)
H9D H 0.6087 0.2052 -0.0744
C8D C 0.58213(19) 0.14648(26) 0.1535(4)
N2E N 0.91881(24) 0.47086(17) 0.0995(3)
H7E H 0.9324 0.4783 -0.0136
C6E C 0.73638(23) 0.37175(16) 0.1539(4)
C7E C 0.79482(24) 0.40357(17) 0.0544(4)
H9E H 0.7948 0.4035 -0.0744
C8E C 0.85352(26) 0.43565(18) 0.1535(4)
H10? H 0.8590 0.5414 0.8585
loop_
_geom_bond_atom_site_label_1
_geom_bond_atom_site_label_2
_geom_bond_site_symmetry_1
_geom_bond_site_symmetry_2
O1 C1 1_555 1_555
N1 C1 1_555 1_555
C1 C2 1_555 1_555
C2 H1 1_555 1_555
H2 C2 1_555 1_555
C3 N1 1_555 1_555
H3 C3 1_555 1_555
H4 C3 1_555 1_555
C4 N1 1_555 1_555
H5 C4 1_555 1_555
H6 C4 1_555 1_555
O2 C9 1_555 1_555
N2 H7 1_555 1_555
C5 H8 1_555 1_555
C6 C5 1_555 1_555
C7 C6 1_555 1_555
H9 C7 1_555 1_555
C8 N2 1_555 1_555
C9 N2 1_555 1_555
H2C C2 1_555 1_555
H4C C3 1_555 1_555
H6C C4 1_555 1_555
O2A C9A 1_555 1_555
N2A H7A 1_555 1_555
C6A C5 1_555 1_555
C7A C6A 1_555 1_555
H9A C7A 1_555 1_555
C8A N2A 1_555 1_555
C9A N2A 1_555 1_555
O2B C9B 1_555 1_555
N2B H7B 1_555 1_555
C6B C5 1_555 1_555
C7B C6B 1_555 1_555
H9B C7B 1_555 1_555
C8B N2B 1_555 1_555
C9B N2B 1_555 1_555
N2C C9 1_555 1_555
H7C N2C 1_555 1_555
C5C H8C 1_555 1_555
C6C C6 1_555 1_555
C7C C6C 1_555 1_555
H9C C7C 1_555 1_555
C8C C8 1_555 1_555
N2D C9A 1_555 1_555
H7D N2D 1_555 1_555
C6D C6A 1_555 1_555
C7D C6D 1_555 1_555
H9D C7D 1_555 1_555
C8D C8A 1_555 1_555
N2E C9B 1_555 1_555
H7E N2E 1_555 1_555
C6E C6B 1_555 1_555
C7E C6E 1_555 1_555
H9E C7E 1_555 1_555
C8E C8B 1_555 1_555
C7 C8 1_555 1_555
C7A C8A 1_555 1_555
C7B C8B 1_555 1_555
N2C C8C 1_555 1_555
C5C C6C 1_555 1_555
C5C C6D 1_555 1_555
C5C C6E 1_555 1_555
C7C C8C 1_555 1_555
N2D C8D 1_555 1_555
C7D C8D 1_555 1_555
N2E C8E 1_555 1_555
C7E C8E 1_555 1_555

#END
