
#######################################################################
#
#                 Cambridge Crystallographic Data Centre
#                                CCDC 
#
#######################################################################
#
# If this CIF has been generated from an entry in the Cambridge 
# Structural Database, then it will include bibliographic, chemical, 
# crystal, experimental, refinement or atomic coordinate data resulting 
# from the CCDC's data processing and validation procedures.
#
#######################################################################

data_NAVZAN
_chemical_formula_moiety         'C18 H17 N3'
_chemical_name_systematic        
3-Anilino-2-(N-phenylethanimidoyl)but-2-enenitrile
_symmetry_cell_setting           triclinic
_symmetry_space_group_name_H-M   'P -1'
_symmetry_Int_Tables_number      2
_space_group_name_Hall           '-P 1'
loop_
_symmetry_equiv_pos_site_id
_symmetry_equiv_pos_as_xyz
1 x,y,z
2 -x,-y,-z
_cell_length_a                   11.3372(2)
_cell_length_b                   11.4394(2)
_cell_length_c                   13.2279(3)
_cell_angle_alpha                90.974(1)
_cell_angle_beta                 109.646(1)
_cell_angle_gamma                110.002(1)
_cell_volume                     1501.23
_exptl_crystal_colour            colorless
_exptl_crystal_description       block
_cell_formula_units_Z            4
loop_
_atom_site_label
_atom_site_type_symbol
_atom_site_fract_x
_atom_site_fract_y
_atom_site_fract_z
N1 N 0.59445(15) 0.50541(15) 0.33557(14)
H1 H 0.541(2) 0.423(2) 0.3301(18)
C1 C 0.53791(17) 0.58227(16) 0.35508(14)
C2 C 0.41053(17) 0.53048(16) 0.36461(14)
C3 C 0.33176(17) 0.39813(16) 0.35029(14)
N2 N 0.38067(15) 0.31679(13) 0.32864(13)
C4 C 0.6073(2) 0.72242(17) 0.37025(18)
H2 H 0.7028 0.7434 0.3862
H3 H 0.5949 0.7606 0.4300
H4 H 0.5692 0.7539 0.3043
C5 C 0.35480(18) 0.61582(17) 0.39104(16)
N3 N 0.31001(19) 0.68417(17) 0.41275(18)
C6 C 0.19772(19) 0.36096(19) 0.36345(18)
H5 H 0.1330 0.3753 0.3001
H6 H 0.2072 0.4111 0.4276
H7 H 0.1664 0.2726 0.3711
C7 C 0.71762(17) 0.53650(17) 0.31749(15)
C8 C 0.80420(19) 0.47748(18) 0.37087(16)
H8 H 0.7838 0.4245 0.4211
C9 C 0.9209(2) 0.4967(2) 0.35002(19)
H9 H 0.9792 0.4561 0.3858
C10 C 0.9518(2) 0.5749(2) 0.27707(18)
H10 H 1.0311 0.5880 0.2632
C11 C 0.8657(2) 0.6339(2) 0.22445(19)
H11 H 0.8869 0.6876 0.1749
C12 C 0.7481(2) 0.6147(2) 0.24376(17)
H12 H 0.6895 0.6546 0.2070
C13 C 0.30976(19) 0.18410(16) 0.30687(16)
C14 C 0.1848(2) 0.12681(19) 0.22508(18)
H13 H 0.1407 0.1759 0.1837
C15 C 0.1249(3) -0.0037(2) 0.2044(2)
H14 H 0.0395 -0.0426 0.1495
C16 C 0.1894(3) -0.0763(2) 0.2635(2)
H15 H 0.1483 -0.1645 0.2490
C17 C 0.3138(3) -0.0197(2) 0.3439(2)
H16 H 0.3579 -0.0694 0.3844
C18 C 0.3748(2) 0.11013(18) 0.36569(19)
H17 H 0.4604 0.1483 0.4204
N4 N 0.58415(17) 0.01165(15) 0.20918(13)
H18 H 0.541(2) -0.069(2) 0.1892(19)
C19 C 0.51474(19) 0.07704(17) 0.15291(15)
C20 C 0.38678(18) 0.01388(16) 0.07298(15)
C21 C 0.31891(18) -0.12127(17) 0.04772(15)
N5 N 0.38135(16) -0.19118(14) 0.10040(13)
C22 C 0.5744(2) 0.21815(17) 0.17208(17)
H19 H 0.5378 0.2500 0.2181
H20 H 0.5523 0.2495 0.1032
H21 H 0.6715 0.2462 0.2073
C23 C 0.3189(2) 0.08945(18) 0.01339(16)
N6 N 0.2647(2) 0.15045(18) -0.03507(16)
C24 C 0.1814(2) -0.17296(19) -0.04054(17)
H22 H 0.1603 -0.2602 -0.0665
H23 H 0.1805 -0.1244 -0.1000
H24 H 0.1148 -0.1676 -0.0119
C25 C 0.71056(18) 0.05924(16) 0.29678(15)
C26 C 0.8125(2) 0.02034(18) 0.29383(16)
H25 H 0.7982 -0.0356 0.2342
C27 C 0.9356(2) 0.0642(2) 0.37907(18)
H26 H 1.0052 0.0384 0.3770
C28 C 0.9570(2) 0.1458(2) 0.46729(18)
H27 H 1.0413 0.1765 0.5244
C29 C 0.8547(2) 0.1818(2) 0.47119(17)
H28 H 0.8686 0.2361 0.5318
C30 C 0.7313(2) 0.13864(19) 0.38658(16)
H29 H 0.6614 0.1632 0.3899
C31 C 0.32357(19) -0.32413(17) 0.08723(15)
C32 C 0.2021(2) -0.38851(19) 0.09917(17)
H30 H 0.1520 -0.3440 0.1134
C33 C 0.1543(2) -0.5188(2) 0.09006(18)
H31 H 0.0718 -0.5621 0.0982
C34 C 0.2265(3) -0.58502(19) 0.06932(17)
H32 H 0.1925 -0.6734 0.0615
C35 C 0.3491(3) -0.5213(2) 0.06011(18)
H33 H 0.3997 -0.5662 0.0475
C36 C 0.3978(2) -0.39149(19) 0.06935(16)
H34 H 0.4817 -0.3485 0.0635
loop_
_geom_bond_atom_site_label_1
_geom_bond_atom_site_label_2
_geom_bond_site_symmetry_1
_geom_bond_site_symmetry_2
N1 H1 1_555 1_555
C1 N1 1_555 1_555
C2 C1 1_555 1_555
C3 C2 1_555 1_555
N2 C3 1_555 1_555
C4 C1 1_555 1_555
H2 C4 1_555 1_555
H3 C4 1_555 1_555
H4 C4 1_555 1_555
C5 C2 1_555 1_555
N3 C5 1_555 1_555
C6 C3 1_555 1_555
H5 C6 1_555 1_555
H6 C6 1_555 1_555
H7 C6 1_555 1_555
C7 N1 1_555 1_555
C8 C7 1_555 1_555
H8 C8 1_555 1_555
C9 C8 1_555 1_555
H9 C9 1_555 1_555
C10 C9 1_555 1_555
H10 C10 1_555 1_555
C11 C10 1_555 1_555
H11 C11 1_555 1_555
C12 C7 1_555 1_555
H12 C12 1_555 1_555
C13 N2 1_555 1_555
C14 C13 1_555 1_555
H13 C14 1_555 1_555
C15 C14 1_555 1_555
H14 C15 1_555 1_555
C16 C15 1_555 1_555
H15 C16 1_555 1_555
C17 C16 1_555 1_555
H16 C17 1_555 1_555
C18 C13 1_555 1_555
H17 C18 1_555 1_555
N4 H18 1_555 1_555
C19 N4 1_555 1_555
C20 C19 1_555 1_555
C21 C20 1_555 1_555
N5 C21 1_555 1_555
C22 C19 1_555 1_555
H19 C22 1_555 1_555
H20 C22 1_555 1_555
H21 C22 1_555 1_555
C23 C20 1_555 1_555
N6 C23 1_555 1_555
C24 C21 1_555 1_555
H22 C24 1_555 1_555
H23 C24 1_555 1_555
H24 C24 1_555 1_555
C25 N4 1_555 1_555
C26 C25 1_555 1_555
H25 C26 1_555 1_555
C27 C26 1_555 1_555
H26 C27 1_555 1_555
C28 C27 1_555 1_555
H27 C28 1_555 1_555
C29 C28 1_555 1_555
H28 C29 1_555 1_555
C30 C25 1_555 1_555
H29 C30 1_555 1_555
C31 N5 1_555 1_555
C32 C31 1_555 1_555
H30 C32 1_555 1_555
C33 C32 1_555 1_555
H31 C33 1_555 1_555
C34 C33 1_555 1_555
H32 C34 1_555 1_555
C35 C34 1_555 1_555
H33 C35 1_555 1_555
C36 C31 1_555 1_555
H34 C36 1_555 1_555
C11 C12 1_555 1_555
C17 C18 1_555 1_555
C29 C30 1_555 1_555
C35 C36 1_555 1_555

#END
