
#######################################################################
#
#                 Cambridge Crystallographic Data Centre
#                                CCDC 
#
#######################################################################
#
# If this CIF has been generated from an entry in the Cambridge 
# Structural Database, then it will include bibliographic, chemical, 
# crystal, experimental, refinement or atomic coordinate data resulting 
# from the CCDC's data processing and validation procedures.
#
#######################################################################

data_NAWJAW
_chemical_formula_moiety         'C25 H45 N5 O8'
_chemical_name_systematic        
't-Butoxycarbonylglycyl-glycyl-leucyl-(\a-iminoisobutyryl)-valine methyl ester'
_symmetry_cell_setting           monoclinic
_symmetry_space_group_name_H-M   'P 21'
_symmetry_Int_Tables_number      4
_space_group_name_Hall           'P 2yb'
loop_
_symmetry_equiv_pos_site_id
_symmetry_equiv_pos_as_xyz
1 x,y,z
2 -x,1/2+y,-z
_cell_length_a                   10.979(2)
_cell_length_b                   9.625(2)
_cell_length_c                   14.141(2)
_cell_angle_alpha                90
_cell_angle_beta                 96.928(10)
_cell_angle_gamma                90
_cell_volume                     1483.41
_exptl_crystal_colour            colorless
_exptl_crystal_description       needle
_cell_formula_units_Z            2
_exptl_crystal_recrystallization_method methanol/water
loop_
_atom_site_label
_atom_site_type_symbol
_atom_site_fract_x
_atom_site_fract_y
_atom_site_fract_z
C1 C 0.0870(5) -0.7575(7) 0.4086(4)
C2 C 0.2074(6) -0.8046(9) 0.3771(5)
H1 H 0.2659(6) -0.7301(9) 0.3856(5)
H2 H 0.1946(6) -0.8305(9) 0.3111(5)
H3 H 0.2380(6) -0.8831(9) 0.4146(5)
C3 C 0.1088(7) -0.7071(9) 0.5106(4)
H4 H 0.1700(7) -0.6354(9) 0.5159(4)
H5 H 0.1365(7) -0.7831(9) 0.5516(4)
H6 H 0.0337(7) -0.6708(9) 0.5290(4)
C4 C -0.0077(6) -0.8693(9) 0.3969(5)
H7 H -0.0195(6) -0.8991(9) 0.3316(5)
H8 H -0.0837(6) -0.8343(9) 0.4145(5)
H9 H 0.0191(6) -0.9466(9) 0.4370(5)
O1 O 0.0519(3) -0.6419(6) 0.3443(2)
C5 C -0.0565(4) -0.5741(7) 0.3466(3)
O2 O -0.1268(3) -0.5928(7) 0.4046(3)
N1 N -0.0712(3) -0.4811(7) 0.2751(3)
H10 H -0.0084(3) -0.4542(7) 0.2490(3)
C6 C -0.1896(4) -0.4263(7) 0.2418(3)
H11 H -0.1813(4) -0.3316(7) 0.2200(3)
H12 H -0.2399(4) -0.4247(7) 0.2937(3)
C7 C -0.2510(4) -0.5135(7) 0.1617(3)
O3 O -0.2490(4) -0.6429(6) 0.1681(3)
N2 N -0.3040(3) -0.4488(6) 0.0855(3)
H13 H -0.3102(3) -0.3598(6) 0.0869(3)
C8 C -0.3518(5) -0.5210(8) 0.0002(4)
H14 H -0.3629(5) -0.6180(8) 0.0155(4)
H15 H -0.2919(5) -0.5164(8) -0.0448(4)
C9 C -0.4720(4) -0.4642(7) -0.0469(3)
O4 O -0.5332(3) -0.3789(6) -0.0085(2)
N3 N -0.5078(3) -0.5169(7) -0.1331(3)
H16 H -0.4606(3) -0.5742(7) -0.1580(3)
C10 C -0.6242(4) -0.4797(7) -0.1853(3)
H17 H -0.6268(4) -0.3786(7) -0.1935(3)
C11 C -0.6365(4) -0.5474(7) -0.2833(3)
H18 H -0.6196(4) -0.6459(7) -0.2755(3)
H19 H -0.7207(4) -0.5377(7) -0.3123(3)
C12 C -0.5522(5) -0.4874(9) -0.3506(3)
H20 H -0.4712(5) -0.4729(9) -0.3145(3)
C13 C -0.5991(9) -0.3480(11) -0.3895(6)
H21 H -0.6087(9) -0.2864(11) -0.3376(6)
H22 H -0.6768(9) -0.3605(11) -0.4276(6)
H23 H -0.5414(9) -0.3091(11) -0.4281(6)
C14 C -0.5372(7) -0.5835(12) -0.4314(4)
H24 H -0.5075(7) -0.6718(12) -0.4068(4)
H25 H -0.4794(7) -0.5446(12) -0.4699(4)
H26 H -0.6149(7) -0.5960(12) -0.4695(4)
C15 C -0.7287(4) -0.5230(7) -0.1297(3)
O5 O -0.7348(3) -0.6423(6) -0.0981(2)
N4 N -0.8116(3) -0.4237(6) -0.1199(2)
H27 H -0.7993(3) -0.3443(6) -0.1449(2)
C16 C -0.9214(4) -0.4366 -0.0707(3)
C17 C -0.9977(5) -0.5634(8) -0.1068(4)
H28 H -0.9500(5) -0.6463(8) -0.0936(4)
H29 H -1.0207(5) -0.5553(8) -0.1743(4)
H30 H -1.0702(5) -0.5682(8) -0.0752(4)
C18 C -0.9951(5) -0.3053(8) -0.0910(4)
H31 H -0.9465(5) -0.2266(8) -0.0682(4)
H32 H -1.0676(5) -0.3094(8) -0.0594(4)
H33 H -1.0181(5) -0.2965(8) -0.1584(4)
C19 C -0.8892(4) -0.4465(7) 0.0381(3)
O6 O -0.9710(3) -0.4671(6) 0.0881(2)
N5 N -0.7724(3) -0.4279(7) 0.0750(2)
H34 H -0.7190(3) -0.4068(7) 0.0376(2)
C20 C -0.7326(4) -0.4421(7) 0.1762(3)
H35 H -0.7876(4) -0.5077(7) 0.2029(3)
C21 C -0.6019(5) -0.4994(7) 0.1938(3)
H36 H -0.5499(5) -0.4407(7) 0.1587(3)
C22 C -0.5504(5) -0.4946(9) 0.2982(4)
H37 H -0.5547(5) -0.4012(9) 0.3213(4)
H38 H -0.4665(5) -0.5248(9) 0.3053(4)
H39 H -0.5975(5) -0.5547(9) 0.3340(4)
C23 C -0.5964(7) -0.6467(9) 0.1549(4)
H40 H -0.6292(7) -0.6477(9) 0.0888(4)
H41 H -0.6437(7) -0.7076(9) 0.1899(4)
H42 H -0.5126(7) -0.6776(9) 0.1614(4)
C24 C -0.7404(4) -0.3053(7) 0.2257(3)
O7 O -0.6964(4) -0.1969(6) 0.2003(3)
O8 O -0.7945(4) -0.3167(6) 0.3031(3)
C25 C -0.8028(8) -0.1932(10) 0.3604(5)
H43 H -0.8440(8) -0.2152(10) 0.4146(5)
H44 H -0.8481(8) -0.1229(10) 0.3229(5)
H45 H -0.7218(8) -0.1595(10) 0.3816(5)
loop_
_geom_bond_atom_site_label_1
_geom_bond_atom_site_label_2
_geom_bond_site_symmetry_1
_geom_bond_site_symmetry_2
C1 C2 1_555 1_555
C2 H1 1_555 1_555
H2 C2 1_555 1_555
H3 C2 1_555 1_555
C3 C1 1_555 1_555
H4 C3 1_555 1_555
H5 C3 1_555 1_555
H6 C3 1_555 1_555
C4 C1 1_555 1_555
H7 C4 1_555 1_555
H8 C4 1_555 1_555
H9 C4 1_555 1_555
O1 C1 1_555 1_555
C5 O1 1_555 1_555
O2 C5 1_555 1_555
N1 C5 1_555 1_555
H10 N1 1_555 1_555
C6 N1 1_555 1_555
H11 C6 1_555 1_555
H12 C6 1_555 1_555
C7 C6 1_555 1_555
O3 C7 1_555 1_555
N2 C7 1_555 1_555
H13 N2 1_555 1_555
C8 N2 1_555 1_555
H14 C8 1_555 1_555
H15 C8 1_555 1_555
C9 C8 1_555 1_555
O4 C9 1_555 1_555
N3 C9 1_555 1_555
H16 N3 1_555 1_555
C10 N3 1_555 1_555
H17 C10 1_555 1_555
C11 C10 1_555 1_555
H18 C11 1_555 1_555
H19 C11 1_555 1_555
C12 C11 1_555 1_555
H20 C12 1_555 1_555
C13 C12 1_555 1_555
H21 C13 1_555 1_555
H22 C13 1_555 1_555
H23 C13 1_555 1_555
C14 C12 1_555 1_555
H24 C14 1_555 1_555
H25 C14 1_555 1_555
H26 C14 1_555 1_555
C15 C10 1_555 1_555
O5 C15 1_555 1_555
N4 C15 1_555 1_555
H27 N4 1_555 1_555
C16 N4 1_555 1_555
C17 C16 1_555 1_555
H28 C17 1_555 1_555
H29 C17 1_555 1_555
H30 C17 1_555 1_555
C18 C16 1_555 1_555
H31 C18 1_555 1_555
H32 C18 1_555 1_555
H33 C18 1_555 1_555
C19 C16 1_555 1_555
O6 C19 1_555 1_555
N5 C19 1_555 1_555
H34 N5 1_555 1_555
C20 N5 1_555 1_555
H35 C20 1_555 1_555
C21 C20 1_555 1_555
H36 C21 1_555 1_555
C22 C21 1_555 1_555
H37 C22 1_555 1_555
H38 C22 1_555 1_555
H39 C22 1_555 1_555
C23 C21 1_555 1_555
H40 C23 1_555 1_555
H41 C23 1_555 1_555
H42 C23 1_555 1_555
C24 C20 1_555 1_555
O7 C24 1_555 1_555
O8 C24 1_555 1_555
C25 O8 1_555 1_555
H43 C25 1_555 1_555
H44 C25 1_555 1_555
H45 C25 1_555 1_555

#END
