
#######################################################################
#
#                 Cambridge Crystallographic Data Centre
#                                CCDC 
#
#######################################################################
#
# If this CIF has been generated from an entry in the Cambridge 
# Structural Database, then it will include bibliographic, chemical, 
# crystal, experimental, refinement or atomic coordinate data resulting 
# from the CCDC's data processing and validation procedures.
#
#######################################################################

data_NAWMOQ
_chemical_formula_moiety         'C13 H17 N1 O3'
_chemical_name_systematic        
1-(2,2-dimethyl-1,3-oxazolidin-3-yl)-2-phenoxyethanone
_chemical_properties_biological  
'protection of soybean against the injury of 2,4 D butylate'
_symmetry_cell_setting           orthorhombic
_symmetry_space_group_name_H-M   'P 21 21 21'
_symmetry_Int_Tables_number      19
_space_group_name_Hall           'P 2ac 2ab'
loop_
_symmetry_equiv_pos_site_id
_symmetry_equiv_pos_as_xyz
1 x,y,z
2 1/2-x,-y,1/2+z
3 -x,1/2+y,1/2-z
4 1/2+x,1/2-y,-z
_cell_length_a                   10.128(2)
_cell_length_b                   10.402(2)
_cell_length_c                   11.803(2)
_cell_angle_alpha                90
_cell_angle_beta                 90
_cell_angle_gamma                90
_cell_volume                     1243.46
_exptl_crystal_colour            colorless
_exptl_crystal_description       block
_cell_formula_units_Z            4
loop_
_atom_site_label
_atom_site_type_symbol
_atom_site_fract_x
_atom_site_fract_y
_atom_site_fract_z
C1 C -0.20000(19) 0.3165(2) 0.3091(2)
C2 C -0.11081(19) 0.3255(2) 0.3965(2)
H1 H -0.0218 0.3093 0.3837
C3 C -0.1542(2) 0.3586(3) 0.5039(2)
H2 H -0.0938 0.3646 0.5630
C4 C -0.2866(2) 0.3829(3) 0.5242(3)
H3 H -0.3155 0.4050 0.5964
C5 C -0.3743(2) 0.3738(3) 0.4360(3)
H4 H -0.4634 0.3899 0.4489
C6 C -0.3328(2) 0.3410(2) 0.3285(3)
H5 H -0.3933 0.3354 0.2694
C7 C -0.03993(19) 0.2389(2) 0.1767(2)
H6 H -0.0404 0.1910 0.1062
H7 H -0.0125 0.1810 0.2366
C8 C 0.05908(19) 0.3486(2) 0.16758(19)
C9 C 0.2270(2) 0.1811(2) 0.1162(3)
H8 H 0.2032 0.1570 0.0395
H9 H 0.1909 0.1188 0.1689
C10 C 0.3723(2) 0.1944(3) 0.1295(3)
H10 H 0.3983 0.1779 0.2072
H11 H 0.4182 0.1343 0.0804
C11 C 0.29362(19) 0.4039(2) 0.12841(19)
C12 C 0.3244(2) 0.4718(2) 0.2379(2)
H12 H 0.3372 0.4094 0.2969
H13 H 0.2524 0.5274 0.2577
H14 H 0.4034 0.5218 0.2291
C13 C 0.2713(2) 0.4928(3) 0.0310(2)
H15 H 0.3521 0.5369 0.0134
H16 H 0.2046 0.5544 0.0507
H17 H 0.2430 0.4443 -0.0338
N1 N 0.18340(16) 0.31178(17) 0.14314(16)
O1 O -0.16968(13) 0.28361(16) 0.19980(16)
O2 O 0.02633(13) 0.46064(15) 0.18100(15)
O3 O 0.40194(13) 0.32168(15) 0.09889(16)
loop_
_geom_bond_atom_site_label_1
_geom_bond_atom_site_label_2
_geom_bond_site_symmetry_1
_geom_bond_site_symmetry_2
C1 C2 1_555 1_555
C2 H1 1_555 1_555
C3 C2 1_555 1_555
H2 C3 1_555 1_555
C4 C3 1_555 1_555
H3 C4 1_555 1_555
C5 C4 1_555 1_555
H4 C5 1_555 1_555
C6 C1 1_555 1_555
H5 C6 1_555 1_555
C7 H6 1_555 1_555
H7 C7 1_555 1_555
C8 C7 1_555 1_555
C9 H8 1_555 1_555
H9 C9 1_555 1_555
C10 C9 1_555 1_555
H10 C10 1_555 1_555
H11 C10 1_555 1_555
C11 C12 1_555 1_555
C12 H12 1_555 1_555
H13 C12 1_555 1_555
H14 C12 1_555 1_555
C13 C11 1_555 1_555
H15 C13 1_555 1_555
H16 C13 1_555 1_555
H17 C13 1_555 1_555
N1 C8 1_555 1_555
O1 C1 1_555 1_555
O2 C8 1_555 1_555
O3 C10 1_555 1_555
C5 C6 1_555 1_555
C7 O1 1_555 1_555
C9 N1 1_555 1_555
C11 N1 1_555 1_555
C11 O3 1_555 1_555

#END
