
#######################################################################
#
#                 Cambridge Crystallographic Data Centre
#                                CCDC 
#
#######################################################################
#
# If this CIF has been generated from an entry in the Cambridge 
# Structural Database, then it will include bibliographic, chemical, 
# crystal, experimental, refinement or atomic coordinate data resulting 
# from the CCDC's data processing and validation procedures.
#
#######################################################################

data_NAWSUA
_chemical_formula_moiety         'C30 H24 N4 S8'
_chemical_name_systematic        
tetrakis(2-Pyridylmethylthio)tetrathiafulvalene
_symmetry_cell_setting           triclinic
_symmetry_space_group_name_H-M   'P -1'
_symmetry_Int_Tables_number      2
_space_group_name_Hall           '-P 1'
loop_
_symmetry_equiv_pos_site_id
_symmetry_equiv_pos_as_xyz
1 x,y,z
2 -x,-y,-z
_cell_length_a                   6.0681(16)
_cell_length_b                   8.436(2)
_cell_length_c                   16.060(5)
_cell_angle_alpha                84.18(2)
_cell_angle_beta                 82.00(2)
_cell_angle_gamma                77.86(2)
_cell_volume                     793.7
_exptl_crystal_colour            'dark yellow'
_exptl_crystal_description       plate
_cell_formula_units_Z            1
loop_
_atom_site_label
_atom_site_type_symbol
_atom_site_fract_x
_atom_site_fract_y
_atom_site_fract_z
S1 S 0.08623(15) -0.05272(10) 0.12925(5)
S2 S 0.22012(15) 0.17881(10) -0.00866(4)
S3 S 0.32095(15) 0.06870(9) 0.25503(4)
S4 S 0.49906(14) 0.31714(10) 0.09300(5)
N1 N 0.4613(4) -0.2184(3) 0.41860(16)
N2 N 0.2314(4) 0.5275(3) 0.26024(17)
C1 C 0.0632(5) 0.0252(3) 0.02466(16)
C2 C 0.2608(5) 0.0750(3) 0.15116(16)
C3 C 0.3246(5) 0.1794(3) 0.08771(16)
C4 C 0.4827(6) -0.1365(3) 0.26912(18)
H1 H 0.6038(5) -0.1577(3) 0.22394(18)
H2 H 0.3860(5) -0.2135(3) 0.27024(18)
C5 C 0.5763(5) -0.1505(3) 0.35219(17)
C6 C 0.7705(5) -0.0960(4) 0.35743(19)
H3 H 0.8447(5) -0.0448(4) 0.30849(19)
C7 C 0.8554(6) -0.1140(5) 0.4335(2)
H4 H 0.9938(6) -0.0795(5) 0.4384(2)
C8 C 0.7410(7) -0.1824(4) 0.5018(2)
H5 H 0.7974(7) -0.1968(4) 0.5556(2)
C9 C 0.5472(7) -0.2321(4) 0.4917(2)
H6 H 0.4660(7) -0.2780(4) 0.5406(2)
C10 C 0.2875(6) 0.5029(3) 0.1110(2)
H7 H 0.1920(6) 0.5234(3) 0.0665(2)
H8 H 0.3630(6) 0.5926(3) 0.1091(2)
C11 C 0.1445(5) 0.4918(3) 0.1941(2)
C12 C -0.0609(6) 0.4449(4) 0.2022(2)
H9 H -0.1193(6) 0.4235(4) 0.1528(2)
C13 C -0.1802(6) 0.4293(5) 0.2806(2)
H10 H -0.3227(6) 0.3943(5) 0.2873(2)
C14 C -0.0915(7) 0.4649(4) 0.3485(2)
H11 H -0.1712(7) 0.4550(4) 0.4041(2)
C15 C 0.1114(7) 0.5141(4) 0.3355(2)
H12 H 0.1707(7) 0.5423(4) 0.3831(2)
S1A S -0.08623(15) 0.05272(10) -0.12925(5)
S2A S -0.22012(15) -0.17881(10) 0.00866(4)
S3A S -0.32095(15) -0.06870(9) -0.25503(4)
S4A S -0.49906(14) -0.31714(10) -0.09300(5)
N1A N -0.4613(4) 0.2184(3) -0.41860(16)
N2A N -0.2314(4) -0.5275(3) -0.26024(17)
C1A C -0.0632(5) -0.0252(3) -0.02466(16)
C2A C -0.2608(5) -0.0750(3) -0.15116(16)
C3A C -0.3246(5) -0.1794(3) -0.08771(16)
C4A C -0.4827(6) 0.1365(3) -0.26912(18)
H1A H -0.6038(5) 0.1577(3) -0.22394(18)
H2A H -0.3860(5) 0.2135(3) -0.27024(18)
C5A C -0.5763(5) 0.1505(3) -0.35219(17)
C6A C -0.7705(5) 0.0960(4) -0.35743(19)
H3A H -0.8447(5) 0.0448(4) -0.30849(19)
C7A C -0.8554(6) 0.1140(5) -0.4335(2)
H4A H -0.9938(6) 0.0795(5) -0.4384(2)
C8A C -0.7410(7) 0.1824(4) -0.5018(2)
H5A H -0.7974(7) 0.1968(4) -0.5556(2)
C9A C -0.5472(7) 0.2321(4) -0.4917(2)
H6A H -0.4660(7) 0.2780(4) -0.5406(2)
C10A C -0.2875(6) -0.5029(3) -0.1110(2)
H7A H -0.1920(6) -0.5234(3) -0.0665(2)
H8A H -0.3630(6) -0.5926(3) -0.1091(2)
C11A C -0.1445(5) -0.4918(3) -0.1941(2)
C12A C 0.0609(6) -0.4449(4) -0.2022(2)
H9A H 0.1193(6) -0.4235(4) -0.1528(2)
C13A C 0.1802(6) -0.4293(5) -0.2806(2)
H10A H 0.3227(6) -0.3943(5) -0.2873(2)
C14A C 0.0915(7) -0.4649(4) -0.3485(2)
H11A H 0.1712(7) -0.4550(4) -0.4041(2)
C15A C -0.1114(7) -0.5141(4) -0.3355(2)
H12A H -0.1707(7) -0.5423(4) -0.3831(2)
loop_
_geom_bond_atom_site_label_1
_geom_bond_atom_site_label_2
_geom_bond_site_symmetry_1
_geom_bond_site_symmetry_2
S1 C1 1_555 1_555
S2 C1 1_555 1_555
S3 C2 1_555 1_555
S4 C3 1_555 1_555
N1 C5 1_555 1_555
N2 C11 1_555 1_555
C1 C1A 1_555 1_555
C2 S1 1_555 1_555
C3 S2 1_555 1_555
C4 S3 1_555 1_555
H1 C4 1_555 1_555
H2 C4 1_555 1_555
C5 C4 1_555 1_555
C6 C5 1_555 1_555
H3 C6 1_555 1_555
C7 C6 1_555 1_555
H4 C7 1_555 1_555
C8 C7 1_555 1_555
H5 C8 1_555 1_555
C9 N1 1_555 1_555
H6 C9 1_555 1_555
C10 S4 1_555 1_555
H7 C10 1_555 1_555
H8 C10 1_555 1_555
C11 C10 1_555 1_555
C12 C11 1_555 1_555
H9 C12 1_555 1_555
C13 C12 1_555 1_555
H10 C13 1_555 1_555
C14 C13 1_555 1_555
H11 C14 1_555 1_555
C15 N2 1_555 1_555
H12 C15 1_555 1_555
S1A C1A 1_555 1_555
S2A C1A 1_555 1_555
S3A C2A 1_555 1_555
S4A C3A 1_555 1_555
N1A C5A 1_555 1_555
N2A C11A 1_555 1_555
C2A S1A 1_555 1_555
C3A S2A 1_555 1_555
C4A S3A 1_555 1_555
H1A C4A 1_555 1_555
H2A C4A 1_555 1_555
C5A C4A 1_555 1_555
C6A C5A 1_555 1_555
H3A C6A 1_555 1_555
C7A C6A 1_555 1_555
H4A C7A 1_555 1_555
C8A C7A 1_555 1_555
H5A C8A 1_555 1_555
C9A N1A 1_555 1_555
H6A C9A 1_555 1_555
C10A S4A 1_555 1_555
H7A C10A 1_555 1_555
H8A C10A 1_555 1_555
C11A C10A 1_555 1_555
C12A C11A 1_555 1_555
H9A C12A 1_555 1_555
C13A C12A 1_555 1_555
H10A C13A 1_555 1_555
C14A C13A 1_555 1_555
H11A C14A 1_555 1_555
C15A N2A 1_555 1_555
H12A C15A 1_555 1_555
C2 C3 1_555 1_555
C8 C9 1_555 1_555
C14 C15 1_555 1_555
C2A C3A 1_555 1_555
C8A C9A 1_555 1_555
C14A C15A 1_555 1_555

#END
