
#######################################################################
#
#                 Cambridge Crystallographic Data Centre
#                                CCDC 
#
#######################################################################
#
# If this CIF has been generated from an entry in the Cambridge 
# Structural Database, then it will include bibliographic, chemical, 
# crystal, experimental, refinement or atomic coordinate data resulting 
# from the CCDC's data processing and validation procedures.
#
#######################################################################

data_NAWTAH
_chemical_formula_moiety         'C32 H52 O2 P2'
_chemical_name_systematic        
'(2-(Dicyclohexylphosphorylmethyl)benzyl)dicyclohexylphosphine oxide'
_symmetry_cell_setting           triclinic
_symmetry_space_group_name_H-M   'P -1'
_symmetry_Int_Tables_number      2
_space_group_name_Hall           '-P 1'
loop_
_symmetry_equiv_pos_site_id
_symmetry_equiv_pos_as_xyz
1 x,y,z
2 -x,-y,-z
_cell_length_a                   10.641(1)
_cell_length_b                   10.932(1)
_cell_length_c                   13.967(1)
_cell_angle_alpha                111.05(1)
_cell_angle_beta                 90.85(1)
_cell_angle_gamma                94.47(1)
_cell_volume                     1510.11
_exptl_crystal_colour            colorless
_exptl_crystal_description       plate
_cell_formula_units_Z            2
loop_
_atom_site_label
_atom_site_type_symbol
_atom_site_fract_x
_atom_site_fract_y
_atom_site_fract_z
P1 P 0.21978(5) 0.48816(6) 0.31485(4)
P2 P 0.28865(5) 0.68442(6) 0.68611(4)
O1 O 0.35888(14) 0.50806(17) 0.33031(12)
O2 O 0.15672(14) 0.70387(16) 0.66386(12)
C1 C 0.17692(19) 0.3996(2) 0.47789(15)
C2 C 0.28525(19) 0.4279(2) 0.54435(15)
C3 C 0.3218(2) 0.3302(2) 0.57887(17)
H1 H 0.396(2) 0.351(2) 0.6232(19)
C4 C 0.2529(3) 0.2102(3) 0.55199(19)
H2 H 0.278(2) 0.147(3) 0.575(2)
C5 C 0.1437(3) 0.1846(2) 0.49026(18)
H3 H 0.098(2) 0.106(3) 0.4736(18)
C6 C 0.1064(2) 0.2784(2) 0.45364(16)
H4 H 0.032(2) 0.261(2) 0.4099(18)
C7 C 0.1361(2) 0.4943(2) 0.42960(16)
H5 H 0.145(2) 0.582(2) 0.4744(18)
H6 H 0.050(2) 0.473(2) 0.4087(17)
C8 C 0.15774(19) 0.6159(2) 0.27681(16)
H7 H 0.190(2) 0.599(2) 0.2094(18)
C9 C 0.2137(2) 0.7549(2) 0.34302(18)
H8 H 0.306(3) 0.755(3) 0.351(2)
H9 H 0.182(2) 0.779(2) 0.4141(19)
C10 C 0.1739(2) 0.8527(2) 0.2955(2)
H10 H 0.211(2) 0.941(3) 0.338(2)
H11 H 0.212(2) 0.831(2) 0.225(2)
C11 C 0.0310(2) 0.8482(2) 0.2835(2)
H12 H 0.007(2) 0.911(3) 0.252(2)
H13 H -0.002(2) 0.879(2) 0.351(2)
C12 C -0.0287(2) 0.7100(2) 0.22364(19)
H14 H -0.006(2) 0.681(2) 0.151(2)
H15 H -0.121(2) 0.706(2) 0.2235(18)
C13 C 0.0131(2) 0.6109(2) 0.26931(17)
H16 H -0.021(2) 0.523(2) 0.2301(17)
H17 H -0.019(2) 0.632(2) 0.3379(18)
C14 C 0.3602(2) 0.5603(2) 0.58052(16)
H18 H 0.370(2) 0.595(2) 0.5281(19)
H19 H 0.444(2) 0.554(2) 0.6040(19)
C15 C 0.1629(2) 0.3306(2) 0.21514(15)
H20 H 0.076(2) 0.312(2) 0.2273(18)
C16 C 0.2362(2) 0.2178(2) 0.22154(18)
H21 H 0.323(3) 0.233(2) 0.2075(19)
H22 H 0.238(2) 0.217(2) 0.290(2)
C17 C 0.1823(3) 0.0861(2) 0.14399(19)
H23 H 0.094(3) 0.064(3) 0.158(2)
H24 H 0.228(3) 0.015(3) 0.148(2)
C18 C 0.1881(3) 0.0862(2) 0.03502(19)
H25 H 0.149(2) 0.002(3) -0.0147(19)
H26 H 0.276(3) 0.095(2) 0.0190(19)
C19 C 0.1208(3) 0.1985(2) 0.02423(18)
H27 H 0.030(3) 0.184(2) 0.0323(19)
H28 H 0.131(2) 0.202(3) -0.043(2)
C20 C 0.1684(2) 0.3320(2) 0.10527(16)
H29 H 0.117(2) 0.400(2) 0.0988(17)
H30 H 0.256(2) 0.357(2) 0.0918(18)
C21 C 0.3967(2) 0.8330(2) 0.71334(16)
H31 H 0.478(2) 0.809(2) 0.7221(18)
C22 C 0.3650(2) 0.9428(2) 0.81217(18)
H32 H 0.279(2) 0.965(2) 0.8047(18)
H33 H 0.368(2) 0.915(2) 0.872(2)
C23 C 0.4533(3) 1.0679(3) 0.83416(19)
H34 H 0.430(2) 1.141(3) 0.898(2)
H35 H 0.537(3) 1.046(3) 0.847(2)
C24 C 0.4514(3) 1.1165(3) 0.7450(2)
H36 H 0.512(3) 1.195(3) 0.758(2)
H37 H 0.368(3) 1.146(3) 0.739(2)
C25 C 0.4822(3) 1.0076(3) 0.6462(2)
H38 H 0.477(2) 1.040(3) 0.589(2)
H39 H 0.569(2) 0.982(2) 0.6545(18)
C26 C 0.3942(3) 0.8826(3) 0.62312(18)
H40 H 0.419(2) 0.815(3) 0.562(2)
H41 H 0.305(3) 0.901(3) 0.612(2)
C27 C 0.29799(19) 0.6275(2) 0.79397(16)
H42 H 0.269(2) 0.541(2) 0.7643(16)
C28 C 0.4305(2) 0.6341(3) 0.84110(18)
H43 H 0.488(2) 0.590(2) 0.7899(18)
H44 H 0.464(2) 0.728(2) 0.8755(17)
C29 C 0.4270(2) 0.5702(3) 0.9219(2)
H45 H 0.512(3) 0.580(3) 0.954(2)
H46 H 0.402(2) 0.476(3) 0.888(2)
C30 C 0.3338(2) 0.6289(3) 1.00444(18)
H47 H 0.361(2) 0.723(3) 1.0445(19)
H48 H 0.330(2) 0.585(3) 1.054(2)
C31 C 0.2022(2) 0.6238(2) 0.95751(17)
H49 H 0.147(2) 0.673(2) 1.0129(19)
H50 H 0.167(2) 0.529(3) 0.9242(19)
C32 C 0.2066(2) 0.6907(2) 0.87835(17)
H51 H 0.235(2) 0.784(2) 0.9130(17)
H52 H 0.125(2) 0.688(2) 0.8483(18)
loop_
_geom_bond_atom_site_label_1
_geom_bond_atom_site_label_2
_geom_bond_site_symmetry_1
_geom_bond_site_symmetry_2
P1 O1 1_555 1_555
P2 O2 1_555 1_555
C1 C2 1_555 1_555
C2 C3 1_555 1_555
C3 H1 1_555 1_555
C4 C3 1_555 1_555
H2 C4 1_555 1_555
C5 C4 1_555 1_555
H3 C5 1_555 1_555
C6 C1 1_555 1_555
H4 C6 1_555 1_555
C7 P1 1_555 1_555
H5 C7 1_555 1_555
H6 C7 1_555 1_555
C8 P1 1_555 1_555
H7 C8 1_555 1_555
C9 C8 1_555 1_555
H8 C9 1_555 1_555
H9 C9 1_555 1_555
C10 C9 1_555 1_555
H10 C10 1_555 1_555
H11 C10 1_555 1_555
C11 C10 1_555 1_555
H12 C11 1_555 1_555
H13 C11 1_555 1_555
C12 C11 1_555 1_555
H14 C12 1_555 1_555
H15 C12 1_555 1_555
C13 C8 1_555 1_555
H16 C13 1_555 1_555
H17 C13 1_555 1_555
C14 P2 1_555 1_555
H18 C14 1_555 1_555
H19 C14 1_555 1_555
C15 P1 1_555 1_555
H20 C15 1_555 1_555
C16 C15 1_555 1_555
H21 C16 1_555 1_555
H22 C16 1_555 1_555
C17 C16 1_555 1_555
H23 C17 1_555 1_555
H24 C17 1_555 1_555
C18 C17 1_555 1_555
H25 C18 1_555 1_555
H26 C18 1_555 1_555
C19 C18 1_555 1_555
H27 C19 1_555 1_555
H28 C19 1_555 1_555
C20 C15 1_555 1_555
H29 C20 1_555 1_555
H30 C20 1_555 1_555
C21 P2 1_555 1_555
H31 C21 1_555 1_555
C22 C21 1_555 1_555
H32 C22 1_555 1_555
H33 C22 1_555 1_555
C23 C22 1_555 1_555
H34 C23 1_555 1_555
H35 C23 1_555 1_555
C24 C23 1_555 1_555
H36 C24 1_555 1_555
H37 C24 1_555 1_555
C25 C24 1_555 1_555
H38 C25 1_555 1_555
H39 C25 1_555 1_555
C26 C21 1_555 1_555
H40 C26 1_555 1_555
H41 C26 1_555 1_555
C27 P2 1_555 1_555
H42 C27 1_555 1_555
C28 C27 1_555 1_555
H43 C28 1_555 1_555
H44 C28 1_555 1_555
C29 C28 1_555 1_555
H45 C29 1_555 1_555
H46 C29 1_555 1_555
C30 C29 1_555 1_555
H47 C30 1_555 1_555
H48 C30 1_555 1_555
C31 C30 1_555 1_555
H49 C31 1_555 1_555
H50 C31 1_555 1_555
C32 C27 1_555 1_555
H51 C32 1_555 1_555
H52 C32 1_555 1_555
C1 C7 1_555 1_555
C2 C14 1_555 1_555
C5 C6 1_555 1_555
C12 C13 1_555 1_555
C19 C20 1_555 1_555
C25 C26 1_555 1_555
C31 C32 1_555 1_555

#END
