
#######################################################################
#
#                 Cambridge Crystallographic Data Centre
#                                CCDC 
#
#######################################################################
#
# If this CIF has been generated from an entry in the Cambridge 
# Structural Database, then it will include bibliographic, chemical, 
# crystal, experimental, refinement or atomic coordinate data resulting 
# from the CCDC's data processing and validation procedures.
#
#######################################################################

data_NAWXIS
_chemical_formula_moiety         'C76 H50 S10'
_chemical_name_systematic        
1,4-bis(hexakis(Pentaphenylthio)phenyl)buta-1,3-diyne
_symmetry_cell_setting           triclinic
_symmetry_space_group_name_H-M   'P -1'
_symmetry_Int_Tables_number      2
_space_group_name_Hall           '-P 1'
loop_
_symmetry_equiv_pos_site_id
_symmetry_equiv_pos_as_xyz
1 x,y,z
2 -x,-y,-z
_cell_length_a                   8.148(2)
_cell_length_b                   10.663(2)
_cell_length_c                   18.453(4)
_cell_angle_alpha                85.62(3)
_cell_angle_beta                 77.89(3)
_cell_angle_gamma                74.36(3)
_cell_volume                     1509.18
_exptl_crystal_colour            orange
_exptl_crystal_description       rods
_cell_formula_units_Z            1
_exptl_crystal_recrystallization_method toluene
loop_
_atom_site_label
_atom_site_type_symbol
_atom_site_fract_x
_atom_site_fract_y
_atom_site_fract_z
S1 S 0.1563(2) 0.85945(13) 0.55750(6)
S2 S -0.0963(2) 1.00155(12) 0.70168(7)
S3 S -0.0727(2) 0.85765(13) 0.86317(7)
S4 S 0.1653(2) 0.56900(12) 0.87189(6)
S5 S 0.4124(2) 0.43359(13) 0.72643(7)
C1 C 0.1545(6) 0.7839(5) 0.6469(3)
C2 C 0.0375(6) 0.8419(5) 0.7114(3)
C3 C 0.0440(6) 0.7733(5) 0.7803(2)
C4 C 0.1576(6) 0.6489(5) 0.7841(2)
C5 C 0.2712(6) 0.5910(5) 0.7201(2)
C6 C 0.2647(6) 0.6585(5) 0.6510(2)
C7 C 0.3667(6) 0.5952(5) 0.5842(3)
C8 C 0.4501(7) 0.5344(5) 0.5304(3)
C9 C 0.2406(6) 0.9952(5) 0.5617(3)
C10 C 0.2678(7) 1.0659(5) 0.4952(3)
C11 C 0.3341(8) 1.1730(6) 0.4937(3)
C12 C 0.3721(8) 1.2105(6) 0.5579(3)
C13 C 0.3455(7) 1.1411(6) 0.6227(3)
C14 C 0.2806(7) 1.0331(5) 0.6250(3)
H1 H 0.2394(75) 1.0386(57) 0.4510(33)
H2 H 0.3644(89) 1.2253(68) 0.4495(38)
H3 H 0.4339(76) 1.2839(58) 0.5529(30)
H4 H 0.3866(91) 1.1695(70) 0.6693(39)
H5 H 0.2722(78) 0.9788(60) 0.6721(33)
C15 C -0.3070(6) 0.9928(5) 0.7485(3)
C16 C -0.4104(7) 1.0989(5) 0.7920(3)
C17 C -0.5761(8) 1.0988(6) 0.8271(3)
C18 C -0.6428(8) 0.9951(6) 0.8198(3)
C19 C -0.5414(8) 0.8911(6) 0.7751(4)
C20 C -0.3754(7) 0.8918(6) 0.7391(3)
H6 H -0.3592(58) 1.1622(46) 0.7952(23)
H7 H -0.6462(77) 1.1736(59) 0.8560(31)
H8 H -0.7483(74) 0.9930(52) 0.8428(29)
H9 H -0.5839(72) 0.8224(56) 0.7621(29)
H10 H -0.2830(84) 0.8220(64) 0.7068(35)
C21 C -0.2413(6) 0.7825(5) 0.8993(3)
C22 C -0.3553(7) 0.8364(6) 0.9646(3)
C23 C -0.4906(8) 0.7838(7) 0.9965(3)
C24 C -0.5152(9) 0.6772(7) 0.9663(4)
C25 C -0.4045(8) 0.6235(6) 0.9016(4)
C26 C -0.2690(7) 0.6768(6) 0.8681(3)
H11 H -0.3245(68) 0.9062(53) 0.9858(28)
H12 H -0.5597(91) 0.8032(67) 1.0463(38)
H13 H -0.6116(80) 0.6406(58) 0.9918(33)
H14 H -0.4336(99) 0.5519(76) 0.8762(42)
H15 H -0.1873(78) 0.6510(59) 0.8193(33)
C27 C 0.0823(6) 0.4322(5) 0.8676(2)
C28 C 0.0584(7) 0.3612(5) 0.9333(3)
C29 C -0.0121(8) 0.2569(6) 0.9369(3)
C30 C -0.0605(8) 0.2217(6) 0.8755(3)
C31 C -0.0361(8) 0.2916(6) 0.8090(3)
C32 C 0.0343(7) 0.3964(6) 0.8050(3)
H16 H 0.1066(79) 0.3806(60) 0.9734(34)
H17 H 0.0001(84) 0.2040(64) 0.9899(35)
H18 H -0.1077(76) 0.1559(60) 0.8749(31)
H19 H -0.0624(65) 0.2734(49) 0.7600(28)
H20 H 0.0545(69) 0.4367(53) 0.7651(30)
C33 C 0.6192(7) 0.4481(5) 0.6767(3)
C34 C 0.7241(7) 0.3405(6) 0.6347(3)
C35 C 0.8910(7) 0.3440(6) 0.5988(3)
C36 C 0.9524(7) 0.4499(6) 0.6032(3)
C37 C 0.8464(8) 0.5562(6) 0.6452(3)
C38 C 0.6824(7) 0.5529(6) 0.6830(3)
H21 H 0.6665(78) 0.2678(62) 0.6322(32)
H22 H 0.9613(81) 0.2706(63) 0.5748(34)
H23 H 1.0846(68) 0.4590(49) 0.5817(27)
H24 H 0.9023(77) 0.6314(60) 0.6485(31)
H25 H 0.6065(80) 0.6368(62) 0.7104(33)
C8A C 0.5499(7) 0.4656(5) 0.4696(3)
C7A C 0.6333(6) 0.4048(5) 0.4158(3)
C6A C 0.7353(6) 0.3415(5) 0.3490(2)
C1A C 0.8455(6) 0.2161(5) 0.3531(3)
S1A S 0.8437(2) 0.14055(13) 0.44250(6)
C9A C 0.7594(6) 0.0048(5) 0.4383(3)
C10A C 0.7322(7) -0.0659(5) 0.5048(3)
C11A C 0.6659(8) -0.1730(6) 0.5063(3)
C12A C 0.6279(8) -0.2105(6) 0.4421(3)
C13A C 0.6545(7) -0.1411(6) 0.3773(3)
C14A C 0.7194(7) -0.0331(5) 0.3750(3)
H5A H 0.7278(78) 0.0212(60) 0.3279(33)
H4A H 0.6134(91) -0.1695(70) 0.3307(39)
H3A H 0.5661(76) -0.2839(58) 0.4471(30)
H2A H 0.6356(89) -0.2253(68) 0.5505(38)
H1A H 0.7606(75) -0.0386(57) 0.5490(33)
C2A C 0.9625(6) 0.1581(5) 0.2886(3)
S2A S 1.0963(2) -0.00155(12) 0.29832(7)
C15A C 1.3070(6) 0.0072(5) 0.2515(3)
C16A C 1.4104(7) -0.0989(5) 0.2080(3)
C17A C 1.5761(8) -0.0988(6) 0.1729(3)
C18A C 1.6428(8) 0.0049(6) 0.1802(3)
C19A C 1.5414(8) 0.1089(6) 0.2249(4)
C20A C 1.3754(7) 0.1082(6) 0.2609(3)
H10A H 1.2830(84) 0.1780(64) 0.2932(35)
H9A H 1.5839(72) 0.1776(56) 0.2379(29)
H8A H 1.7483(74) 0.0070(52) 0.1572(29)
H7A H 1.6462(77) -0.1736(59) 0.1440(31)
H6A H 1.3592(58) -0.1622(46) 0.2048(23)
C3A C 0.9560(6) 0.2267(5) 0.2197(2)
S3A S 1.0727(2) 0.14235(13) 0.13683(7)
C21A C 1.2413(6) 0.2175(5) 0.1007(3)
C22A C 1.3553(7) 0.1636(6) 0.0354(3)
C23A C 1.4906(8) 0.2162(7) 0.0035(3)
C24A C 1.5152(9) 0.3228(7) 0.0337(4)
C25A C 1.4045(8) 0.3765(6) 0.0984(4)
C26A C 1.2690(7) 0.3232(6) 0.1319(3)
H15A H 1.1873(78) 0.3490(59) 0.1807(33)
H14A H 1.4336(99) 0.4481(76) 0.1238(42)
H13A H 1.6116(80) 0.3594(58) 0.0082(33)
H12A H 1.5597(91) 0.1968(67) -0.0463(38)
H11A H 1.3245(68) 0.0938(53) 0.0142(28)
C4A C 0.8424(6) 0.3511(5) 0.2159(2)
S4A S 0.8347(2) 0.43100(12) 0.12811(6)
C27A C 0.9177(6) 0.5678(5) 0.1324(2)
C28A C 0.9416(7) 0.6388(5) 0.0667(3)
C29A C 1.0121(8) 0.7431(6) 0.0631(3)
C30A C 1.0605(8) 0.7783(6) 0.1245(3)
C31A C 1.0361(8) 0.7084(6) 0.1910(3)
C32A C 0.9657(7) 0.6036(6) 0.1950(3)
H20A H 0.9455(69) 0.5633(53) 0.2349(30)
H19A H 1.0624(65) 0.7266(49) 0.2400(28)
H18A H 1.1077(76) 0.8441(60) 0.1251(31)
H17A H 0.9999(84) 0.7960(64) 0.0101(35)
H16A H 0.8934(79) 0.6194(60) 0.0266(34)
C5A C 0.7288(6) 0.4090(5) 0.2799(2)
S5A S 0.5876(2) 0.56641(13) 0.27357(7)
C33A C 0.3808(7) 0.5519(5) 0.3233(3)
C34A C 0.2759(7) 0.6595(6) 0.3653(3)
C35A C 0.1090(7) 0.6560(6) 0.4012(3)
C36A C 0.0476(7) 0.5501(6) 0.3968(3)
C37A C 0.1536(8) 0.4438(6) 0.3548(3)
C38A C 0.3176(7) 0.4471(6) 0.3170(3)
H25A H 0.3935(80) 0.3632(62) 0.2896(33)
H24A H 0.0977(77) 0.3686(60) 0.3515(31)
H23A H -0.0846(68) 0.5410(49) 0.4183(27)
H22A H 0.0387(81) 0.7294(63) 0.4252(34)
H21A H 0.3335(78) 0.7322(62) 0.3678(32)
loop_
_geom_bond_atom_site_label_1
_geom_bond_atom_site_label_2
_geom_bond_site_symmetry_1
_geom_bond_site_symmetry_2
S1 C1 1_555 1_555
S2 C2 1_555 1_555
S3 C3 1_555 1_555
S4 C4 1_555 1_555
S5 C5 1_555 1_555
C1 C2 1_555 1_555
C2 C3 1_555 1_555
C3 C4 1_555 1_555
C4 C5 1_555 1_555
C5 C6 1_555 1_555
C6 C1 1_555 1_555
C7 C6 1_555 1_555
C8 C7 1_555 1_555
C9 S1 1_555 1_555
C10 C9 1_555 1_555
C11 C10 1_555 1_555
C12 C11 1_555 1_555
C13 C12 1_555 1_555
C14 C9 1_555 1_555
H1 C10 1_555 1_555
H2 C11 1_555 1_555
H3 C12 1_555 1_555
H4 C13 1_555 1_555
H5 C14 1_555 1_555
C15 S2 1_555 1_555
C16 C15 1_555 1_555
C17 C16 1_555 1_555
C18 C17 1_555 1_555
C19 C18 1_555 1_555
C20 C15 1_555 1_555
H6 C16 1_555 1_555
H7 C17 1_555 1_555
H8 C18 1_555 1_555
H9 C19 1_555 1_555
H10 C20 1_555 1_555
C21 S3 1_555 1_555
C22 C21 1_555 1_555
C23 C22 1_555 1_555
C24 C23 1_555 1_555
C25 C24 1_555 1_555
C26 C21 1_555 1_555
H11 C22 1_555 1_555
H12 C23 1_555 1_555
H13 C24 1_555 1_555
H14 C25 1_555 1_555
H15 C26 1_555 1_555
C27 S4 1_555 1_555
C28 C27 1_555 1_555
C29 C28 1_555 1_555
C30 C29 1_555 1_555
C31 C30 1_555 1_555
C32 C27 1_555 1_555
H16 C28 1_555 1_555
H17 C29 1_555 1_555
H18 C30 1_555 1_555
H19 C31 1_555 1_555
H20 C32 1_555 1_555
C33 S5 1_555 1_555
C34 C33 1_555 1_555
C35 C34 1_555 1_555
C36 C35 1_555 1_555
C37 C36 1_555 1_555
C38 C33 1_555 1_555
H21 C34 1_555 1_555
H22 C35 1_555 1_555
H23 C36 1_555 1_555
H24 C37 1_555 1_555
H25 C38 1_555 1_555
C8A C8 1_555 1_555
C7A C8A 1_555 1_555
C6A C7A 1_555 1_555
C1A C6A 1_555 1_555
S1A C1A 1_555 1_555
C9A S1A 1_555 1_555
C10A C9A 1_555 1_555
C11A C10A 1_555 1_555
C12A C11A 1_555 1_555
C13A C12A 1_555 1_555
C14A C9A 1_555 1_555
H5A C14A 1_555 1_555
H4A C13A 1_555 1_555
H3A C12A 1_555 1_555
H2A C11A 1_555 1_555
H1A C10A 1_555 1_555
C2A C1A 1_555 1_555
S2A C2A 1_555 1_555
C15A S2A 1_555 1_555
C16A C15A 1_555 1_555
C17A C16A 1_555 1_555
C18A C17A 1_555 1_555
C19A C18A 1_555 1_555
C20A C15A 1_555 1_555
H10A C20A 1_555 1_555
H9A C19A 1_555 1_555
H8A C18A 1_555 1_555
H7A C17A 1_555 1_555
H6A C16A 1_555 1_555
C3A C2A 1_555 1_555
S3A C3A 1_555 1_555
C21A S3A 1_555 1_555
C22A C21A 1_555 1_555
C23A C22A 1_555 1_555
C24A C23A 1_555 1_555
C25A C24A 1_555 1_555
C26A C21A 1_555 1_555
H15A C26A 1_555 1_555
H14A C25A 1_555 1_555
H13A C24A 1_555 1_555
H12A C23A 1_555 1_555
H11A C22A 1_555 1_555
C4A C3A 1_555 1_555
S4A C4A 1_555 1_555
C27A S4A 1_555 1_555
C28A C27A 1_555 1_555
C29A C28A 1_555 1_555
C30A C29A 1_555 1_555
C31A C30A 1_555 1_555
C32A C27A 1_555 1_555
H20A C32A 1_555 1_555
H19A C31A 1_555 1_555
H18A C30A 1_555 1_555
H17A C29A 1_555 1_555
H16A C28A 1_555 1_555
C5A C6A 1_555 1_555
S5A C5A 1_555 1_555
C33A S5A 1_555 1_555
C34A C33A 1_555 1_555
C35A C34A 1_555 1_555
C36A C35A 1_555 1_555
C37A C36A 1_555 1_555
C38A C33A 1_555 1_555
H25A C38A 1_555 1_555
H24A C37A 1_555 1_555
H23A C36A 1_555 1_555
H22A C35A 1_555 1_555
H21A C34A 1_555 1_555
C13 C14 1_555 1_555
C19 C20 1_555 1_555
C25 C26 1_555 1_555
C31 C32 1_555 1_555
C37 C38 1_555 1_555
C13A C14A 1_555 1_555
C19A C20A 1_555 1_555
C25A C26A 1_555 1_555
C4A C5A 1_555 1_555
C31A C32A 1_555 1_555
C37A C38A 1_555 1_555

#END
