
#######################################################################
#
#                 Cambridge Crystallographic Data Centre
#                                CCDC 
#
#######################################################################
#
# If this CIF has been generated from an entry in the Cambridge 
# Structural Database, then it will include bibliographic, chemical, 
# crystal, experimental, refinement or atomic coordinate data resulting 
# from the CCDC's data processing and validation procedures.
#
#######################################################################

data_NAXDUN
_chemical_formula_moiety         'C35 H34 N2 O4 S2'
_chemical_name_systematic        
'N-(1-Allyl-3-((4-methylphenyl)sulfonyl)-2,7-diphenyl-3-azabicyclo[3.1.1]hept-6-ylidene)-4-methylbenzenesulfonamide unknown solvate'
_symmetry_cell_setting           monoclinic
_symmetry_space_group_name_H-M   'I 2/a'
_symmetry_Int_Tables_number      15
_space_group_name_Hall           '-I 2ya'
loop_
_symmetry_equiv_pos_site_id
_symmetry_equiv_pos_as_xyz
1 x,y,z
2 1/2-x,y,-z
3 1/2+x,1/2+y,1/2+z
4 -x,1/2+y,1/2-z
5 -x,-y,-z
6 1/2+x,-y,z
7 1/2-x,1/2-y,1/2-z
8 x,1/2-y,1/2+z
_cell_length_a                   22.784(3)
_cell_length_b                   11.0292(13)
_cell_length_c                   29.490(5)
_cell_angle_alpha                90
_cell_angle_beta                 104.934(1)
_cell_angle_gamma                90
_cell_volume                     7160.22
_exptl_crystal_colour            colorless
_exptl_crystal_description       plate
_cell_formula_units_Z            8
loop_
_atom_site_label
_atom_site_type_symbol
_atom_site_fract_x
_atom_site_fract_y
_atom_site_fract_z
S1 S 0.28260(2) 0.42769(5) 0.107790(17)
S2 S 0.48734(2) 0.16573(4) 0.268235(16)
O1 O 0.28530(7) 0.48164(13) 0.15251(5)
O2 O 0.22533(7) 0.42630(15) 0.07319(5)
O3 O 0.53160(6) 0.09735(13) 0.25245(5)
O4 O 0.50466(6) 0.27423(12) 0.29506(5)
N1 N 0.30700(7) 0.28389(14) 0.11196(5)
N2 N 0.43440(7) 0.20452(14) 0.22160(5)
C1 C 0.32388(7) 0.23538(16) 0.15245(6)
C2 C 0.34535(8) 0.10723(16) 0.16518(6)
C3 C 0.41611(8) 0.11039(16) 0.18433(6)
H1 H 0.4289 0.0301 0.1994
C4 C 0.39084(8) 0.29880(16) 0.22784(6)
H2 H 0.4008 0.3767 0.2149
H3 H 0.3943 0.3103 0.2617
C5 C 0.32597(8) 0.26257(16) 0.20303(6)
H4 H 0.2930 0.3158 0.2086
C6 C 0.31792(8) 0.12314(16) 0.20900(6)
H5 H 0.3461 0.0917 0.2385
C7 C 0.33795(10) 0.49513(19) 0.08449(7)
C8 C 0.38254(10) 0.5671(2) 0.11291(7)
H6 H 0.3829 0.5806 0.1448
C9 C 0.42610(12) 0.6185(2) 0.09440(8)
H7 H 0.4561 0.6693 0.1136
C10 C 0.42726(13) 0.5978(3) 0.04818(9)
C11 C 0.38288(14) 0.5257(3) 0.02073(9)
H8 H 0.3832 0.5108 -0.0109
C12 C 0.33773(12) 0.4744(3) 0.03820(8)
H9 H 0.3071 0.4256 0.0187
C13 C 0.47686(17) 0.6524(4) 0.02898(12)
H10 H 0.4655 0.6460 -0.0053
H11 H 0.5150 0.6085 0.0417
H12 H 0.4823 0.7379 0.0381
C14 C 0.32334(9) 0.00683(17) 0.12953(7)
H13 H 0.2790 0.0155 0.1164
H14 H 0.3429 0.0170 0.1034
C15 C 0.33629(10) -0.11756(19) 0.14909(8)
H15 H 0.3774 -0.1439 0.1574
C16 C 0.29584(15) -0.1917(3) 0.15555(12)
H16 H 0.2543 -0.1683 0.1477
H17 H 0.3074 -0.2699 0.1682
C17 C 0.44793(8) 0.12595(17) 0.14560(6)
C18 C 0.45322(9) 0.2386(2) 0.12626(7)
H18 H 0.4385 0.3089 0.1384
C19 C 0.48014(10) 0.2489(2) 0.08903(8)
H19 H 0.4835 0.3261 0.0756
C20 C 0.50189(10) 0.1475(3) 0.07170(8)
H20 H 0.5200 0.1547 0.0462
C21 C 0.49749(10) 0.0351(2) 0.09112(8)
H21 H 0.5128 -0.0347 0.0792
C22 C 0.47078(9) 0.0243(2) 0.12796(7)
H22 H 0.4680 -0.0531 0.1414
C23 C 0.45222(8) 0.06842(16) 0.30046(6)
C24 C 0.44976(9) -0.05474(17) 0.29113(7)
H23 H 0.4703 -0.0877 0.2697
C25 C 0.41703(10) -0.12911(19) 0.31333(8)
H24 H 0.4150 -0.2136 0.3068
C26 C 0.38708(10) -0.0829(2) 0.34493(8)
C27 C 0.38989(10) 0.0411(2) 0.35368(8)
H25 H 0.3692 0.0741 0.3750
C28 C 0.42216(9) 0.11657(18) 0.33188(7)
H26 H 0.4239 0.2011 0.3382
C29 C 0.35207(13) -0.1651(2) 0.36947(11)
H27 H 0.3218 -0.1175 0.3800
H28 H 0.3801 -0.2029 0.3966
H29 H 0.3316 -0.2282 0.3477
C30 C 0.25372(8) 0.07883(17) 0.20329(7)
C31 C 0.20503(9) 0.11779(19) 0.16741(8)
H30 H 0.2113 0.1782 0.1462
C32 C 0.14747(9) 0.06964(19) 0.16217(9)
H31 H 0.1150 0.0954 0.1368
C33 C 0.13707(10) -0.0154(2) 0.19350(8)
H32 H 0.0977 -0.0486 0.1900
C34 C 0.18460(11) -0.0513(2) 0.22977(8)
H33 H 0.1777 -0.1083 0.2520
C35 C 0.24249(10) -0.00584(19) 0.23451(7)
H34 H 0.2749 -0.0332 0.2596
loop_
_geom_bond_atom_site_label_1
_geom_bond_atom_site_label_2
_geom_bond_site_symmetry_1
_geom_bond_site_symmetry_2
S1 O1 1_555 1_555
S2 O3 1_555 1_555
O2 S1 1_555 1_555
O4 S2 1_555 1_555
N1 S1 1_555 1_555
N2 S2 1_555 1_555
C1 N1 1_555 1_555
C2 C1 1_555 1_555
C3 N2 1_555 1_555
H1 C3 1_555 1_555
C4 N2 1_555 1_555
H2 C4 1_555 1_555
H3 C4 1_555 1_555
C5 C1 1_555 1_555
H4 C5 1_555 1_555
C6 C2 1_555 1_555
H5 C6 1_555 1_555
C7 S1 1_555 1_555
C8 C7 1_555 1_555
H6 C8 1_555 1_555
C9 C8 1_555 1_555
H7 C9 1_555 1_555
C10 C9 1_555 1_555
C11 C10 1_555 1_555
H8 C11 1_555 1_555
C12 C7 1_555 1_555
H9 C12 1_555 1_555
C13 C10 1_555 1_555
H10 C13 1_555 1_555
H11 C13 1_555 1_555
H12 C13 1_555 1_555
C14 C2 1_555 1_555
H13 C14 1_555 1_555
H14 C14 1_555 1_555
C15 C14 1_555 1_555
H15 C15 1_555 1_555
C16 C15 1_555 1_555
H16 C16 1_555 1_555
H17 C16 1_555 1_555
C17 C3 1_555 1_555
C18 C17 1_555 1_555
H18 C18 1_555 1_555
C19 C18 1_555 1_555
H19 C19 1_555 1_555
C20 C19 1_555 1_555
H20 C20 1_555 1_555
C21 C20 1_555 1_555
H21 C21 1_555 1_555
C22 C17 1_555 1_555
H22 C22 1_555 1_555
C23 S2 1_555 1_555
C24 C23 1_555 1_555
H23 C24 1_555 1_555
C25 C24 1_555 1_555
H24 C25 1_555 1_555
C26 C25 1_555 1_555
C27 C26 1_555 1_555
H25 C27 1_555 1_555
C28 C23 1_555 1_555
H26 C28 1_555 1_555
C29 C26 1_555 1_555
H27 C29 1_555 1_555
H28 C29 1_555 1_555
H29 C29 1_555 1_555
C30 C6 1_555 1_555
C31 C30 1_555 1_555
H30 C31 1_555 1_555
C32 C31 1_555 1_555
H31 C32 1_555 1_555
C33 C32 1_555 1_555
H32 C33 1_555 1_555
C34 C33 1_555 1_555
H33 C34 1_555 1_555
C35 C30 1_555 1_555
H34 C35 1_555 1_555
C2 C3 1_555 1_555
C4 C5 1_555 1_555
C5 C6 1_555 1_555
C11 C12 1_555 1_555
C21 C22 1_555 1_555
C27 C28 1_555 1_555
C34 C35 1_555 1_555

#END
