
#######################################################################
#
#                 Cambridge Crystallographic Data Centre
#                                CCDC 
#
#######################################################################
#
# If this CIF has been generated from an entry in the Cambridge 
# Structural Database, then it will include bibliographic, chemical, 
# crystal, experimental, refinement or atomic coordinate data resulting 
# from the CCDC's data processing and validation procedures.
#
#######################################################################

data_NAXDOH
_chemical_name_common            'Ternifolide C'
_chemical_formula_moiety         'C22 H30 O6'
_chemical_name_systematic        
"2-Formyl-11'-hydroxy-3,3-dimethyl-10'-methylene-2'-oxo-3'-oxaspiro[cyclohexane-1,5'-tricyclo[7.2.1.0^1,6^]dodecan]-7'-yl acetate"
_symmetry_cell_setting           orthorhombic
_symmetry_space_group_name_H-M   'P 21 21 21'
_symmetry_Int_Tables_number      19
_space_group_name_Hall           'P 2ac 2ab'
loop_
_symmetry_equiv_pos_site_id
_symmetry_equiv_pos_as_xyz
1 x,y,z
2 1/2+x,1/2-y,-z
3 -x,1/2+y,1/2-z
4 1/2-x,-y,1/2+z
_cell_length_a                   7.9328(2)
_cell_length_b                   9.0343(2)
_cell_length_c                   28.3599(6)
_cell_angle_alpha                90
_cell_angle_beta                 90
_cell_angle_gamma                90
_cell_volume                     2032.48
_exptl_crystal_colour            colorless
_exptl_crystal_description       prism
_cell_formula_units_Z            4
loop_
_atom_site_label
_atom_site_type_symbol
_atom_site_fract_x
_atom_site_fract_y
_atom_site_fract_z
O1 O 0.49011(18) 0.63049(14) 0.88139(5)
O2 O 0.6366(2) 0.4713(2) 0.92624(6)
O3 O 0.2396(3) 0.1414(2) 0.80712(6)
O4 O -0.07435(18) 0.60482(16) 0.86339(6)
O5 O -0.0117(2) 0.82909(17) 0.84120(7)
O6 O 0.0363(2) 0.47858(19) 0.75708(5)
H1 H -0.0024 0.4764 0.7303
C1 C -0.0489(3) 0.1251(3) 0.92494(8)
H2 H -0.0766 0.0724 0.9533
H3 H -0.0670 0.0620 0.8982
H4 H -0.1192 0.2112 0.9223
C2 C 0.1372(3) 0.1727(2) 0.92656(7)
C3 C 0.2003(2) 0.26028(19) 0.88219(6)
H5 H 0.3237 0.2558 0.8833
C4 C 0.1545(2) 0.42949(18) 0.87877(6)
C5 C 0.2622(2) 0.49954(18) 0.83815(6)
H6 H 0.2553 0.4257 0.8129
C6 C 0.4518(2) 0.5189(2) 0.84538(6)
H7 H 0.5007 0.4239 0.8550
C7 C 0.5919(3) 0.5952(3) 0.91717(7)
C8 C 0.1497(3) 0.1792(2) 0.83763(7)
H8 H 0.0358 0.1573 0.8341
C9 C 0.1690(3) 0.2657(3) 0.97070(7)
H9 H 0.1187 0.2165 0.9976
H10 H 0.2895 0.2717 0.9762
C10 C 0.0980(3) 0.4214(3) 0.96712(7)
H11 H -0.0224 0.4171 0.9613
H12 H 0.1164 0.4740 0.9965
C11 C 0.1849(3) 0.5020(2) 0.92708(7)
H13 H 0.3051 0.5047 0.9332
H14 H 0.1446 0.6033 0.9261
C12 C -0.0282(3) 0.4490(2) 0.86366(7)
H15 H -0.0437 0.4078 0.8324
H16 H -0.1012 0.3956 0.8852
C13 C 0.0269(3) 0.6997(2) 0.84079(7)
C14 C 0.1791(2) 0.64127(19) 0.81541(7)
C15 C 0.1340(3) 0.6076(2) 0.76281(7)
H17 H 0.0702 0.6916 0.7502
C16 C 0.3047(3) 0.6055(2) 0.73954(7)
C17 C 0.4286(3) 0.6827(2) 0.77203(7)
H18 H 0.4994 0.7527 0.7546
C18 C 0.5374(3) 0.5709(2) 0.80003(7)
H19 H 0.5605 0.4857 0.7802
H20 H 0.6443 0.6167 0.8079
C19 C 0.6371(4) 0.7278(4) 0.94492(10)
H21 H 0.5372 0.7692 0.9588
H22 H 0.6886 0.7998 0.9246
H23 H 0.7148 0.7007 0.9694
C20 C 0.3109(2) 0.76353(19) 0.80601(7)
H24 H 0.2604 0.8500 0.7915
H25 H 0.3688 0.7926 0.8347
C21 C 0.3392(4) 0.5415(3) 0.69880(9)
H26 H 0.2546 0.4928 0.6822
H27 H 0.4481 0.5450 0.6867
C22 C 0.2450(4) 0.0311(3) 0.92931(9)
H28 H 0.3623 0.0570 0.9280
H29 H 0.2178 -0.0326 0.9033
H30 H 0.2221 -0.0195 0.9584
loop_
_geom_bond_atom_site_label_1
_geom_bond_atom_site_label_2
_geom_bond_site_symmetry_1
_geom_bond_site_symmetry_2
O1 C6 1_555 1_555
O2 C7 1_555 1_555
O3 C8 1_555 1_555
O4 C12 1_555 1_555
O5 C13 1_555 1_555
O6 H1 1_555 1_555
C1 H2 1_555 1_555
H3 C1 1_555 1_555
H4 C1 1_555 1_555
C2 C1 1_555 1_555
C3 C2 1_555 1_555
H5 C3 1_555 1_555
C4 C3 1_555 1_555
C5 C4 1_555 1_555
H6 C5 1_555 1_555
C6 C5 1_555 1_555
H7 C6 1_555 1_555
C7 O1 1_555 1_555
C8 C3 1_555 1_555
H8 C8 1_555 1_555
C9 C2 1_555 1_555
H9 C9 1_555 1_555
H10 C9 1_555 1_555
C10 C9 1_555 1_555
H11 C10 1_555 1_555
H12 C10 1_555 1_555
C11 C4 1_555 1_555
H13 C11 1_555 1_555
H14 C11 1_555 1_555
C12 C4 1_555 1_555
H15 C12 1_555 1_555
H16 C12 1_555 1_555
C13 O4 1_555 1_555
C14 C5 1_555 1_555
C15 O6 1_555 1_555
H17 C15 1_555 1_555
C16 C15 1_555 1_555
C17 C16 1_555 1_555
H18 C17 1_555 1_555
C18 C6 1_555 1_555
H19 C18 1_555 1_555
H20 C18 1_555 1_555
C19 C7 1_555 1_555
H21 C19 1_555 1_555
H22 C19 1_555 1_555
H23 C19 1_555 1_555
C20 C14 1_555 1_555
H24 C20 1_555 1_555
H25 C20 1_555 1_555
C21 C16 1_555 1_555
H26 C21 1_555 1_555
H27 C21 1_555 1_555
C22 C2 1_555 1_555
H28 C22 1_555 1_555
H29 C22 1_555 1_555
H30 C22 1_555 1_555
C10 C11 1_555 1_555
C13 C14 1_555 1_555
C14 C15 1_555 1_555
C17 C18 1_555 1_555
C17 C20 1_555 1_555

#END
