
#######################################################################
#
#                 Cambridge Crystallographic Data Centre
#                                CCDC 
#
#######################################################################
#
# If this CIF has been generated from an entry in the Cambridge 
# Structural Database, then it will include bibliographic, chemical, 
# crystal, experimental, refinement or atomic coordinate data resulting 
# from the CCDC's data processing and validation procedures.
#
#######################################################################

data_NAXFAV
_chemical_name_common            12085a
_chemical_formula_moiety         'C22 H29 N1 O3 S1'
_chemical_name_systematic        
N-(5-Allyl-4-cyclohexyl-3-oxabicyclo[3.2.0]hept-6-ylidene)-4-methylbenzenesulfonamide
_symmetry_cell_setting           triclinic
_symmetry_space_group_name_H-M   'P -1'
_symmetry_Int_Tables_number      2
_space_group_name_Hall           '-P 1'
loop_
_symmetry_equiv_pos_site_id
_symmetry_equiv_pos_as_xyz
1 x,y,z
2 -x,-y,-z
_cell_length_a                   8.6376(16)
_cell_length_b                   10.4261(19)
_cell_length_c                   11.464(2)
_cell_angle_alpha                83.918(2)
_cell_angle_beta                 83.558(2)
_cell_angle_gamma                84.077(2)
_cell_volume                     1015.75
_exptl_crystal_colour            colorless
_exptl_crystal_description       prism
_cell_formula_units_Z            2
loop_
_atom_site_label
_atom_site_type_symbol
_atom_site_fract_x
_atom_site_fract_y
_atom_site_fract_z
S1 S 0.82996(5) 0.69987(5) 0.29131(5)
O1 O 0.31358(17) 0.72727(13) 0.08888(11)
O2 O 0.89688(18) 0.71611(18) 0.39733(17)
O3 O 0.86924(18) 0.78267(15) 0.18739(18)
N1 N 0.63699(17) 0.70338(15) 0.32706(14)
C1 C 0.5435(2) 0.77472(17) 0.26381(16)
C2 C 0.36638(19) 0.78301(16) 0.27693(15)
C3 C 0.3047(2) 0.67737(16) 0.21054(15)
H1 H 0.1921 0.6701 0.2397
C4 C 0.2798(3) 0.86446(19) 0.08595(19)
H2 H 0.1661 0.8880 0.1027
H3 H 0.3164 0.9075 0.0080
C5 C 0.3686(2) 0.90244(18) 0.18158(17)
H4 H 0.3286 0.9872 0.2122
C6 C 0.5496(2) 0.8787(2) 0.16160(19)
H5 H 0.5889 0.8458 0.0848
H6 H 0.6047 0.9536 0.1753
C7 C 0.8707(2) 0.53810(19) 0.26032(17)
C8 C 0.9102(2) 0.4435(2) 0.34905(17)
H7 H 0.9163 0.4661 0.4264
C9 C 0.9406(2) 0.3166(2) 0.32412(18)
H8 H 0.9689 0.2519 0.3847
C10 C 0.9306(2) 0.2815(2) 0.21204(19)
C11 C 0.8900(2) 0.3778(2) 0.12390(18)
H9 H 0.8825 0.3549 0.0468
C12 C 0.8607(2) 0.5060(2) 0.14674(18)
H10 H 0.8341 0.5711 0.0860
C13 C 0.9638(3) 0.1425(2) 0.1854(3)
H11 H 1.0442 0.0992 0.2337
H12 H 1.0011 0.1393 0.1017
H13 H 0.8678 0.0986 0.2035
C14 C 0.2786(2) 0.79888(17) 0.39848(16)
H14 H 0.1651 0.8146 0.3903
H15 H 0.2956 0.7169 0.4494
C15 C 0.3276(3) 0.90742(19) 0.45800(18)
H16 H 0.4334 0.9016 0.4748
C16 C 0.2385(3) 1.0077(2) 0.4882(2)
H17 H 0.1319 1.0175 0.4730
H18 H 0.2795 1.0720 0.5256
C17 C 0.39022(19) 0.54207(16) 0.21915(14)
H19 H 0.5030 0.5499 0.1911
C18 C 0.3806(2) 0.47898(17) 0.34603(16)
H20 H 0.4289 0.5327 0.3956
H21 H 0.2694 0.4751 0.3772
C19 C 0.4637(2) 0.34271(18) 0.35353(18)
H22 H 0.4505 0.3033 0.4361
H23 H 0.5771 0.3474 0.3303
C20 C 0.3997(3) 0.25732(18) 0.27370(19)
H24 H 0.4612 0.1717 0.2763
H25 H 0.2897 0.2437 0.3028
C21 C 0.4074(3) 0.31903(19) 0.14724(18)
H26 H 0.3575 0.2651 0.0988
H27 H 0.5183 0.3218 0.1149
C22 C 0.3254(2) 0.45633(18) 0.13891(16)
H28 H 0.2119 0.4525 0.1617
H29 H 0.3396 0.4953 0.0563
loop_
_geom_bond_atom_site_label_1
_geom_bond_atom_site_label_2
_geom_bond_site_symmetry_1
_geom_bond_site_symmetry_2
S1 O2 1_555 1_555
O1 C3 1_555 1_555
O3 S1 1_555 1_555
N1 S1 1_555 1_555
C1 N1 1_555 1_555
C2 C1 1_555 1_555
C3 C2 1_555 1_555
H1 C3 1_555 1_555
C4 O1 1_555 1_555
H2 C4 1_555 1_555
H3 C4 1_555 1_555
C5 C2 1_555 1_555
H4 C5 1_555 1_555
C6 C1 1_555 1_555
H5 C6 1_555 1_555
H6 C6 1_555 1_555
C7 S1 1_555 1_555
C8 C7 1_555 1_555
H7 C8 1_555 1_555
C9 C8 1_555 1_555
H8 C9 1_555 1_555
C10 C9 1_555 1_555
C11 C10 1_555 1_555
H9 C11 1_555 1_555
C12 C7 1_555 1_555
H10 C12 1_555 1_555
C13 C10 1_555 1_555
H11 C13 1_555 1_555
H12 C13 1_555 1_555
H13 C13 1_555 1_555
C14 C2 1_555 1_555
H14 C14 1_555 1_555
H15 C14 1_555 1_555
C15 C14 1_555 1_555
H16 C15 1_555 1_555
C16 C15 1_555 1_555
H17 C16 1_555 1_555
H18 C16 1_555 1_555
C17 C3 1_555 1_555
H19 C17 1_555 1_555
C18 C17 1_555 1_555
H20 C18 1_555 1_555
H21 C18 1_555 1_555
C19 C18 1_555 1_555
H22 C19 1_555 1_555
H23 C19 1_555 1_555
C20 C19 1_555 1_555
H24 C20 1_555 1_555
H25 C20 1_555 1_555
C21 C20 1_555 1_555
H26 C21 1_555 1_555
H27 C21 1_555 1_555
C22 C17 1_555 1_555
H28 C22 1_555 1_555
H29 C22 1_555 1_555
C4 C5 1_555 1_555
C5 C6 1_555 1_555
C11 C12 1_555 1_555
C21 C22 1_555 1_555

#END
