
#######################################################################
#
#                 Cambridge Crystallographic Data Centre
#                                CCDC 
#
#######################################################################
#
# If this CIF has been generated from an entry in the Cambridge 
# Structural Database, then it will include bibliographic, chemical, 
# crystal, experimental, refinement or atomic coordinate data resulting 
# from the CCDC's data processing and validation procedures.
#
#######################################################################

data_NAXGAX
_chemical_formula_moiety         'C16 H15 Br1 O1'
_chemical_name_systematic        
1-[2-(4-bromophenyl)cyclopropyl]-2-methoxybenzene
_symmetry_cell_setting           orthorhombic
_symmetry_space_group_name_H-M   'P 21 21 21'
_symmetry_Int_Tables_number      19
_space_group_name_Hall           'P 2ac 2ab'
loop_
_symmetry_equiv_pos_site_id
_symmetry_equiv_pos_as_xyz
1 x,y,z
2 1/2+x,1/2-y,-z
3 -x,1/2+y,1/2-z
4 1/2-x,-y,1/2+z
_cell_length_a                   5.2682(2)
_cell_length_b                   13.5894(4)
_cell_length_c                   18.7378(5)
_cell_angle_alpha                90
_cell_angle_beta                 90
_cell_angle_gamma                90
_cell_volume                     1341.47
_exptl_crystal_colour            colorless
_exptl_crystal_description       plate
_cell_formula_units_Z            4
loop_
_atom_site_label
_atom_site_type_symbol
_atom_site_fract_x
_atom_site_fract_y
_atom_site_fract_z
Br1 Br 0.45119(6) 0.30414(2) 0.93259(2)
O1 O -0.2132(3) 0.83468(13) 0.91783(10)
C1 C 0.4298(6) 0.43176(17) 0.89120(14)
C2 C 0.2381(5) 0.4531(2) 0.84342(15)
H1 H 0.1194 0.4039 0.8298
C3 C 0.2212(5) 0.54776(19) 0.81542(14)
H2 H 0.0908 0.5628 0.7821
C4 C 0.3933(4) 0.62097(17) 0.83554(14)
C5 C 0.3734(5) 0.72431(17) 0.80900(13)
H3 H 0.5244 0.7664 0.8196
C6 C 0.1188(4) 0.77818(18) 0.81203(13)
H4 H -0.0285 0.7365 0.8268
C7 C 0.1077(4) 0.88229(17) 0.83720(13)
C8 C -0.0655(5) 0.90962(18) 0.89069(12)
C9 C -0.4012(5) 0.8600(2) 0.97015(15)
H5 H -0.3177 0.8879 1.0123
H6 H -0.4956 0.8008 0.9839
H7 H -0.5186 0.9085 0.9500
C10 C 0.5857(5) 0.59631(18) 0.88313(13)
H8 H 0.7052 0.6451 0.8968
C11 C 0.6075(5) 0.5021(2) 0.91123(14)
H9 H 0.7407 0.4861 0.9434
C12 C 0.2346(5) 0.7509(2) 0.74172(15)
H10 H 0.3056 0.8046 0.7121
H11 H 0.1543 0.6969 0.7144
C13 C 0.2698(5) 0.95487(19) 0.81074(14)
H12 H 0.3897 0.9379 0.7749
C14 C 0.2609(5) 1.05136(19) 0.83536(15)
H13 H 0.3754 1.0993 0.8173
C15 C 0.0832(5) 1.07672(18) 0.88654(14)
H14 H 0.0740 1.1427 0.9030
C16 C -0.0818(5) 1.00670(19) 0.91409(13)
H15 H -0.2050 1.0249 0.9487
loop_
_geom_bond_atom_site_label_1
_geom_bond_atom_site_label_2
_geom_bond_site_symmetry_1
_geom_bond_site_symmetry_2
Br1 C1 1_555 1_555
O1 C8 1_555 1_555
C1 C2 1_555 1_555
C2 H1 1_555 1_555
C3 C2 1_555 1_555
H2 C3 1_555 1_555
C4 C3 1_555 1_555
C5 C4 1_555 1_555
H3 C5 1_555 1_555
C6 C5 1_555 1_555
H4 C6 1_555 1_555
C7 C6 1_555 1_555
C8 C7 1_555 1_555
C9 O1 1_555 1_555
H5 C9 1_555 1_555
H6 C9 1_555 1_555
H7 C9 1_555 1_555
C10 C4 1_555 1_555
H8 C10 1_555 1_555
C11 C1 1_555 1_555
H9 C11 1_555 1_555
C12 C5 1_555 1_555
H10 C12 1_555 1_555
H11 C12 1_555 1_555
C13 C7 1_555 1_555
H12 C13 1_555 1_555
C14 C13 1_555 1_555
H13 C14 1_555 1_555
C15 C14 1_555 1_555
H14 C15 1_555 1_555
C16 C8 1_555 1_555
H15 C16 1_555 1_555
C6 C12 1_555 1_555
C10 C11 1_555 1_555
C15 C16 1_555 1_555

#END
