
#######################################################################
#
#                 Cambridge Crystallographic Data Centre
#                                CCDC 
#
#######################################################################
#
# If this CIF has been generated from an entry in the Cambridge 
# Structural Database, then it will include bibliographic, chemical, 
# crystal, experimental, refinement or atomic coordinate data resulting 
# from the CCDC's data processing and validation procedures.
#
#######################################################################

data_NAXMEH01
_chemical_formula_moiety         'C21 H15 Br1,C6 H12 N2'
_chemical_name_systematic        
"1,1',1''-(1-bromoprop-1-yne-3,3,3-triyl)tribenzene 1,4-diazabicyclo[2.2.2]octane"
_symmetry_cell_setting           monoclinic
_symmetry_space_group_name_H-M   'P 21/c'
_symmetry_Int_Tables_number      14
_space_group_name_Hall           '-P 2ybc'
loop_
_symmetry_equiv_pos_site_id
_symmetry_equiv_pos_as_xyz
1 x,y,z
2 -x,1/2+y,1/2-z
3 -x,-y,-z
4 x,1/2-y,1/2+z
_cell_length_a                   13.4442(16)
_cell_length_b                   7.1664(9)
_cell_length_c                   24.537(3)
_cell_angle_alpha                90
_cell_angle_beta                 100.806(2)
_cell_angle_gamma                90
_cell_volume                     2322.13
_exptl_crystal_colour            colorless
_exptl_crystal_description       block
_cell_formula_units_Z            4
loop_
_atom_site_label
_atom_site_type_symbol
_atom_site_fract_x
_atom_site_fract_y
_atom_site_fract_z
Br1 Br 0.20055(2) 0.89483(3) 0.45671(2)
C1 C 0.22969(15) 0.7149(3) 0.40977(8)
C2 C 0.25137(15) 0.5974(2) 0.38017(8)
C3 C 0.27973(13) 0.4457(2) 0.34465(7)
C4 C 0.36607(13) 0.3312(3) 0.38025(7)
C5 C 0.37079(17) 0.1393(3) 0.37789(10)
H1 H 0.3200 0.0735 0.3548
C6 C 0.45123(18) 0.0434(4) 0.40986(11)
H2 H 0.4539 -0.0860 0.4077
C7 C 0.52676(18) 0.1375(4) 0.44462(10)
H3 H 0.5795 0.0723 0.4664
C8 C 0.52353(18) 0.3278(4) 0.44676(10)
H4 H 0.5751 0.3929 0.4696
C9 C 0.44377(18) 0.4241(3) 0.41510(10)
H5 H 0.4422 0.5536 0.4172
C10 C 0.31541(13) 0.5348(2) 0.29404(7)
C11 C 0.39742(16) 0.4648(3) 0.27381(9)
H6 H 0.4353 0.3677 0.2924
C12 C 0.42372(19) 0.5387(4) 0.22580(10)
H7 H 0.4786 0.4896 0.2125
C13 C 0.36957(18) 0.6821(4) 0.19830(10)
H8 H 0.3874 0.7311 0.1664
C14 C 0.28793(18) 0.7544(3) 0.21821(10)
H9 H 0.2507 0.8522 0.1996
C15 C 0.26120(16) 0.6815(3) 0.26599(9)
H10 H 0.2065 0.7315 0.2792
C16 C 0.18592(13) 0.3220(2) 0.32379(7)
C17 C 0.17966(15) 0.2149(3) 0.27604(8)
H11 H 0.2319 0.2197 0.2560
C18 C 0.09689(18) 0.1013(3) 0.25776(10)
H12 H 0.0943 0.0302 0.2258
C19 C 0.01864(18) 0.0929(3) 0.28647(11)
H13 H -0.0369 0.0163 0.2742
C20 C 0.02327(18) 0.1987(4) 0.33348(11)
H14 H -0.0298 0.1943 0.3529
C21 C 0.10604(16) 0.3120(3) 0.35227(9)
H15 H 0.1082 0.3821 0.3844
N1 N 0.17754(16) 0.1717(3) 0.53580(8)
N2 N 0.1702(2) 0.3887(3) 0.61821(10)
C22 C 0.2773(5) 0.2192(13) 0.5661(4)
H16 H 0.3182 0.2657 0.5404
H17 H 0.3098 0.1078 0.5836
C23 C 0.2728(5) 0.3683(14) 0.6110(4)
H18 H 0.3152 0.3307 0.6457
H19 H 0.2979 0.4864 0.5998
C24 C 0.1318(8) 0.2005(10) 0.6283(3)
H20 H 0.0633 0.2097 0.6352
H21 H 0.1740 0.1452 0.6606
C25 C 0.1329(7) 0.0762(8) 0.5769(2)
H22 H 0.1711 -0.0366 0.5883
H23 H 0.0642 0.0403 0.5608
C26 C 0.1166(8) 0.3324(11) 0.5193(2)
H24 H 0.0500 0.2933 0.5003
H25 H 0.1471 0.4061 0.4937
C27 C 0.1059(8) 0.4535(12) 0.5702(3)
H26 H 0.1225 0.5820 0.5634
H27 H 0.0363 0.4497 0.5757
C28? C 0.2306(13) 0.3313(16) 0.5290(4)
H28? H 0.2072 0.3826 0.4922
H29? H 0.3022 0.3032 0.5330
C29? C 0.2128(15) 0.4796(17) 0.5754(5)
H30? H 0.2768 0.5371 0.5917
H31? H 0.1673 0.5769 0.5583
C30? C 0.2219(12) 0.2234(18) 0.6358(4)
H32? H 0.1924 0.1683 0.6652
H33? H 0.2920 0.2527 0.6509
C31? C 0.2179(10) 0.0780(14) 0.5880(4)
H34? H 0.2853 0.0306 0.5875
H35? H 0.1748 -0.0261 0.5936
C32? C 0.0743(7) 0.1861(18) 0.5451(5)
H36? H 0.0503 0.0636 0.5534
H37? H 0.0308 0.2313 0.5116
C33? C 0.0680(8) 0.3212(19) 0.5939(5)
H38? H 0.0247 0.4261 0.5805
H39? H 0.0389 0.2568 0.6219
loop_
_geom_bond_atom_site_label_1
_geom_bond_atom_site_label_2
_geom_bond_site_symmetry_1
_geom_bond_site_symmetry_2
Br1 C1 1_555 1_555
C1 C2 1_555 1_555
C2 C3 1_555 1_555
C3 C4 1_555 1_555
C4 C5 1_555 1_555
C5 H1 1_555 1_555
C6 C5 1_555 1_555
H2 C6 1_555 1_555
C7 C6 1_555 1_555
H3 C7 1_555 1_555
C8 C7 1_555 1_555
H4 C8 1_555 1_555
C9 C4 1_555 1_555
H5 C9 1_555 1_555
C10 C3 1_555 1_555
C11 C10 1_555 1_555
H6 C11 1_555 1_555
C12 C11 1_555 1_555
H7 C12 1_555 1_555
C13 C12 1_555 1_555
H8 C13 1_555 1_555
C14 C13 1_555 1_555
H9 C14 1_555 1_555
C15 C10 1_555 1_555
H10 C15 1_555 1_555
C16 C3 1_555 1_555
C17 C16 1_555 1_555
H11 C17 1_555 1_555
C18 C17 1_555 1_555
H12 C18 1_555 1_555
C19 C18 1_555 1_555
H13 C19 1_555 1_555
C20 C19 1_555 1_555
H14 C20 1_555 1_555
C21 C16 1_555 1_555
H15 C21 1_555 1_555
N1 C22 1_555 1_555
N2 C23 1_555 1_555
C22 H16 1_555 1_555
H17 C22 1_555 1_555
C23 C22 1_555 1_555
H18 C23 1_555 1_555
H19 C23 1_555 1_555
C24 N2 1_555 1_555
H20 C24 1_555 1_555
H21 C24 1_555 1_555
C25 N1 1_555 1_555
H22 C25 1_555 1_555
H23 C25 1_555 1_555
C26 N1 1_555 1_555
H24 C26 1_555 1_555
H25 C26 1_555 1_555
C27 N2 1_555 1_555
H26 C27 1_555 1_555
H27 C27 1_555 1_555
C8 C9 1_555 1_555
C14 C15 1_555 1_555
C20 C21 1_555 1_555
C24 C25 1_555 1_555
C26 C27 1_555 1_555

#END
