
#######################################################################
#
#                 Cambridge Crystallographic Data Centre
#                                CCDC 
#
#######################################################################
#
# If this CIF has been generated from an entry in the Cambridge 
# Structural Database, then it will include bibliographic, chemical, 
# crystal, experimental, refinement or atomic coordinate data resulting 
# from the CCDC's data processing and validation procedures.
#
#######################################################################

data_NAXQAF
_chemical_formula_moiety         'C20 H36 Li2 N6'
_chemical_name_systematic        
bis(\m~2~-2,5-bis(Dimethylaminomethyl)pyrrolyl)-di-lithium
_symmetry_cell_setting           monoclinic
_symmetry_space_group_name_H-M   'P 21/c'
_symmetry_Int_Tables_number      14
_space_group_name_Hall           '-P 2ybc'
loop_
_symmetry_equiv_pos_site_id
_symmetry_equiv_pos_as_xyz
1 x,y,z
2 -x,1/2+y,1/2-z
3 -x,-y,-z
4 x,1/2-y,1/2+z
_cell_length_a                   12.9786(13)
_cell_length_b                   9.7764(10)
_cell_length_c                   18.9299(19)
_cell_angle_alpha                90
_cell_angle_beta                 94.217(2)
_cell_angle_gamma                90
_cell_volume                     2395.4
_exptl_crystal_colour            white
_exptl_crystal_description       cubic
_cell_formula_units_Z            4
_chemical_properties_physical    'air- and moisture-sensitive'
_exptl_crystal_recrystallization_method 'diethyl ether'
loop_
_atom_site_label
_atom_site_type_symbol
_atom_site_fract_x
_atom_site_fract_y
_atom_site_fract_z
Li1 Li 0.3124(2) 0.1466(3) 0.16371(15)
Li2 Li 0.1614(2) -0.0199(3) 0.12998(15)
N1 N 0.18508(12) 0.17078(14) 0.09150(8)
N2 N 0.27683(10) -0.02824(16) 0.21439(8)
N3 N 0.40744(12) 0.21240(17) 0.08290(8)
N4 N 0.01032(11) 0.03508(16) 0.14985(8)
N5 N 0.19826(11) -0.22178(14) 0.09944(8)
N6 N 0.33866(12) 0.23693(16) 0.26439(7)
C1 C 0.22743(15) 0.2356(2) 0.03598(11)
C2 C 0.16373(17) 0.3352(2) 0.00711(10)
H1 H 0.1764 0.3929 -0.0303
C3 C 0.07515(15) 0.33276(19) 0.04552(11)
H2 H 0.0171 0.3880 0.0381
C4 C 0.09098(15) 0.2333(2) 0.09588(10)
C5 C 0.33370(15) 0.19283(18) 0.02025(9)
H3 H 0.3330 0.0973 0.0064
H4 H 0.3559 0.2463 -0.0190
C6 C 0.02510(13) 0.18543(18) 0.15251(9)
H5 H 0.0574 0.2109 0.1985
H6 H -0.0417 0.2302 0.1467
C7 C -0.06673(12) 0.00014(16) 0.09229(9)
H7 H -0.1339 0.0281 0.1048
H8 H -0.0664 -0.0969 0.0846
H9 H -0.0504 0.0463 0.0498
C8 C -0.02330(13) -0.01560(18) 0.21762(9)
H10 H -0.0928 0.0139 0.2230
H11 H 0.0216 0.0199 0.2559
H12 H -0.0206 -0.1137 0.2182
C9 C 0.50445(14) 0.1397(2) 0.07355(9)
H13 H 0.5386 0.1811 0.0357
H14 H 0.4898 0.0456 0.0623
H15 H 0.5484 0.1448 0.1166
C10 C 0.42825(14) 0.35955(18) 0.09363(9)
H16 H 0.4712 0.3918 0.0579
H17 H 0.4630 0.3736 0.1396
H18 H 0.3642 0.4090 0.0903
C11 C 0.27099(13) 0.0076(2) 0.28420(12)
C12 C 0.27525(14) -0.1039(2) 0.32774(10)
H19 H 0.2731 -0.1042 0.3767
C13 C 0.28348(14) -0.2179(2) 0.28335(13)
H20 H 0.2870 -0.3092 0.2971
C14 C 0.28525(13) -0.1682(2) 0.21589(12)
C15 C 0.26390(13) 0.15614(19) 0.30201(9)
H21 H 0.1945 0.1887 0.2890
H22 H 0.2775 0.1684 0.3527
C16 C 0.29336(13) -0.24033(17) 0.14683(10)
H23 H 0.3521 -0.2048 0.1238
H24 H 0.3048 -0.3371 0.1555
C17 C 0.21825(13) -0.26150(17) 0.02672(9)
H25 H 0.2335 -0.3575 0.0254
H26 H 0.2760 -0.2105 0.0118
H27 H 0.1583 -0.2424 -0.0045
C18 C 0.11522(13) -0.30857(17) 0.12381(9)
H28 H 0.1276 -0.4021 0.1115
H29 H 0.0500 -0.2795 0.1016
H30 H 0.1139 -0.3008 0.1743
C19 C 0.44493(13) 0.20511(17) 0.29241(9)
H31 H 0.4578 0.2461 0.3383
H32 H 0.4930 0.2407 0.2609
H33 H 0.4532 0.1078 0.2963
C20 C 0.31946(14) 0.38396(18) 0.27305(9)
H34 H 0.3352 0.4093 0.3216
H35 H 0.2482 0.4035 0.2597
H36 H 0.3624 0.4351 0.2434
loop_
_geom_bond_atom_site_label_1
_geom_bond_atom_site_label_2
_geom_bond_site_symmetry_1
_geom_bond_site_symmetry_2
Li1 N1 1_555 1_555
Li2 N1 1_555 1_555
N1 C1 1_555 1_555
N2 Li1 1_555 1_555
N3 Li1 1_555 1_555
N4 Li2 1_555 1_555
N5 Li2 1_555 1_555
N6 Li1 1_555 1_555
C1 C2 1_555 1_555
C2 H1 1_555 1_555
C3 C2 1_555 1_555
H2 C3 1_555 1_555
C4 N1 1_555 1_555
C5 N3 1_555 1_555
H3 C5 1_555 1_555
H4 C5 1_555 1_555
C6 N4 1_555 1_555
H5 C6 1_555 1_555
H6 C6 1_555 1_555
C7 N4 1_555 1_555
H7 C7 1_555 1_555
H8 C7 1_555 1_555
H9 C7 1_555 1_555
C8 N4 1_555 1_555
H10 C8 1_555 1_555
H11 C8 1_555 1_555
H12 C8 1_555 1_555
C9 N3 1_555 1_555
H13 C9 1_555 1_555
H14 C9 1_555 1_555
H15 C9 1_555 1_555
C10 N3 1_555 1_555
H16 C10 1_555 1_555
H17 C10 1_555 1_555
H18 C10 1_555 1_555
C11 N2 1_555 1_555
C12 C11 1_555 1_555
H19 C12 1_555 1_555
C13 C12 1_555 1_555
H20 C13 1_555 1_555
C14 N2 1_555 1_555
C15 N6 1_555 1_555
H21 C15 1_555 1_555
H22 C15 1_555 1_555
C16 N5 1_555 1_555
H23 C16 1_555 1_555
H24 C16 1_555 1_555
C17 N5 1_555 1_555
H25 C17 1_555 1_555
H26 C17 1_555 1_555
H27 C17 1_555 1_555
C18 N5 1_555 1_555
H28 C18 1_555 1_555
H29 C18 1_555 1_555
H30 C18 1_555 1_555
C19 N6 1_555 1_555
H31 C19 1_555 1_555
H32 C19 1_555 1_555
H33 C19 1_555 1_555
C20 N6 1_555 1_555
H34 C20 1_555 1_555
H35 C20 1_555 1_555
H36 C20 1_555 1_555
Li2 N2 1_555 1_555
C1 C5 1_555 1_555
C3 C4 1_555 1_555
C4 C6 1_555 1_555
C11 C15 1_555 1_555
C13 C14 1_555 1_555
C14 C16 1_555 1_555

#END
