
#######################################################################
#
#                 Cambridge Crystallographic Data Centre
#                                CCDC 
#
#######################################################################
#
# If this CIF has been generated from an entry in the Cambridge 
# Structural Database, then it will include bibliographic, chemical, 
# crystal, experimental, refinement or atomic coordinate data resulting 
# from the CCDC's data processing and validation procedures.
#
#######################################################################

data_NAXREL
_chemical_name_common            '1,3,5-Triazine-2,4,6-triamine hexaacetic acid'
_chemical_formula_moiety         'C15 H18 N6 O12'
_chemical_name_systematic        
"2,2',2'',2''',2'''',2'''''-(1,3,5-Triazine-2,4,6-triyltrinitrilo)hexaacetic acid"
_symmetry_cell_setting           monoclinic
_symmetry_space_group_name_H-M   'C 2/c'
_symmetry_Int_Tables_number      15
_space_group_name_Hall           '-C 2yn'
loop_
_symmetry_equiv_pos_site_id
_symmetry_equiv_pos_as_xyz
1 x,y,z
2 -x,y,1/2-z
3 1/2+x,1/2+y,z
4 1/2-x,1/2+y,1/2-z
5 -x,-y,-z
6 x,-y,1/2+z
7 1/2-x,1/2-y,-z
8 1/2+x,1/2-y,1/2+z
_cell_length_a                   20.443(4)
_cell_length_b                   10.5104(14)
_cell_length_c                   9.8022(11)
_cell_angle_alpha                90
_cell_angle_beta                 118.212(6)
_cell_angle_gamma                90
_cell_volume                     1855.94
_exptl_crystal_colour            colorless
_exptl_crystal_description       'rectangular block'
_cell_formula_units_Z            4
loop_
_atom_site_label
_atom_site_type_symbol
_atom_site_fract_x
_atom_site_fract_y
_atom_site_fract_z
N1 N 0.0000 1.2271(5) 0.7500
C1 C 0.0399(3) 1.2982(5) 0.8928(6)
C2 C 0.1178(3) 1.3348(4) 0.9277(5)
N2 N 0.0000 0.8446(5) 0.7500
O1 O 0.1442(2) 1.3081(4) 0.8435(4)
O2 O 0.1546(2) 1.4027(4) 1.0526(4)
H1 H 0.1287 1.4150 1.0945
C3 C 0.2100(3) 0.9842(4) 1.0826(5)
C4 C 0.1560(3) 0.9182(5) 1.1224(5)
N3 N 0.1001(2) 0.8476(3) 0.9929(4)
C5 C 0.0470(2) 0.9141(4) 0.8700(5)
C6 C 0.0000 1.0991(6) 0.7500
C7 C 0.1073(3) 0.7117(5) 0.9701(6)
C8 C 0.1188(3) 0.6815(5) 0.8316(6)
N4 N 0.0485(2) 1.0410(4) 0.8811(4)
O3 O 0.2208(2) 0.9513(4) 0.9753(4)
O4 O 0.2438(2) 1.0803(3) 1.1718(4)
H2 H 0.2724 1.1123 1.1445
O5 O 0.1588(2) 0.7598(3) 0.7976(4)
H3 H 0.1735 0.8184 0.8602
O6 O 0.0931(2) 0.5866(3) 0.7534(4)
H4 H 0.041(3) 1.250(5) 0.974(6)
H5 H 0.011(4) 1.382(6) 0.874(7)
H6 H 0.186(3) 0.860(5) 1.213(6)
H7 H 0.131(3) 0.976(6) 1.174(7)
H8 H 0.062(3) 0.668(4) 0.962(5)
H9 H 0.145(3) 0.679(4) 1.045(5)
C1A C -0.0399(3) 1.2982(5) 0.6072(6)
C2A C -0.1178(3) 1.3348(4) 0.5723(5)
O1A O -0.1442(2) 1.3081(4) 0.6565(4)
O2A O -0.1546(2) 1.4027(4) 0.4474(4)
H1A H -0.1287 1.4150 0.4055
C3A C -0.2100(3) 0.9842(4) 0.4174(5)
C4A C -0.1560(3) 0.9182(5) 0.3776(5)
N3A N -0.1001(2) 0.8476(3) 0.5071(4)
C5A C -0.0470(2) 0.9141(4) 0.6300(5)
C7A C -0.1073(3) 0.7117(5) 0.5299(6)
C8A C -0.1188(3) 0.6815(5) 0.6684(6)
N4A N -0.0485(2) 1.0410(4) 0.6189(4)
O3A O -0.2208(2) 0.9513(4) 0.5247(4)
O4A O -0.2438(2) 1.0803(3) 0.3282(4)
H2A H -0.2724 1.1123 0.3555
O5A O -0.1588(2) 0.7598(3) 0.7024(4)
H3A H -0.1735 0.8184 0.6398
O6A O -0.0931(2) 0.5866(3) 0.7466(4)
H4A H -0.041(3) 1.250(5) 0.526(6)
H5A H -0.011(4) 1.382(6) 0.626(7)
H6A H -0.186(3) 0.860(5) 0.287(6)
H7A H -0.131(3) 0.976(6) 0.326(7)
H8A H -0.062(3) 0.668(4) 0.538(5)
H9A H -0.145(3) 0.679(4) 0.455(5)
loop_
_geom_bond_atom_site_label_1
_geom_bond_atom_site_label_2
_geom_bond_site_symmetry_1
_geom_bond_site_symmetry_2
N1 C1 1_555 1_555
C1 C2 1_555 1_555
C2 O1 1_555 1_555
N2 C5 1_555 1_555
O2 C2 1_555 1_555
H1 O2 1_555 1_555
C3 C4 1_555 1_555
C4 N3 1_555 1_555
N3 C5 1_555 1_555
C5 N4 1_555 1_555
C6 N1 1_555 1_555
C7 N3 1_555 1_555
C8 C7 1_555 1_555
N4 C6 1_555 1_555
O3 C3 1_555 1_555
O4 C3 1_555 1_555
H2 O4 1_555 1_555
O5 C8 1_555 1_555
H3 O5 1_555 1_555
O6 C8 1_555 1_555
H4 C1 1_555 1_555
H5 C1 1_555 1_555
H6 C4 1_555 1_555
H7 C4 1_555 1_555
H8 C7 1_555 1_555
H9 C7 1_555 1_555
C1A N1 1_555 1_555
C2A C1A 1_555 1_555
O1A C2A 1_555 1_555
O2A C2A 1_555 1_555
H1A O2A 1_555 1_555
C3A C4A 1_555 1_555
C4A N3A 1_555 1_555
N3A C5A 1_555 1_555
C5A N2 1_555 1_555
C7A N3A 1_555 1_555
C8A C7A 1_555 1_555
N4A C6 1_555 1_555
O3A C3A 1_555 1_555
O4A C3A 1_555 1_555
H2A O4A 1_555 1_555
O5A C8A 1_555 1_555
H3A O5A 1_555 1_555
O6A C8A 1_555 1_555
H4A C1A 1_555 1_555
H5A C1A 1_555 1_555
H6A C4A 1_555 1_555
H7A C4A 1_555 1_555
H8A C7A 1_555 1_555
H9A C7A 1_555 1_555
C5A N4A 1_555 1_555

#END
