
#######################################################################
#
#                 Cambridge Crystallographic Data Centre
#                                CCDC 
#
#######################################################################
#
# If this CIF has been generated from an entry in the Cambridge 
# Structural Database, then it will include bibliographic, chemical, 
# crystal, experimental, refinement or atomic coordinate data resulting 
# from the CCDC's data processing and validation procedures.
#
#######################################################################

data_NAXRAH
_chemical_formula_moiety         'C30 H32 N6 O12,0.5(C1 H1 Cl3)'
_chemical_name_systematic        
'Diethyl 8,11-dimethoxy-2,3-dimethyl-1,4-dinitro-6,13-dioxo-5,7,12,14-tetrahydro-5a,6a,12a,13a-tetraazabenzo[5,6]azuleno[2,1,8-ija]benzo[f]azulene-13b,13c-dicarboxylate chloroform solvate'
_symmetry_cell_setting           orthorhombic
_symmetry_space_group_name_H-M   'P 21 21 21'
_symmetry_Int_Tables_number      19
_space_group_name_Hall           'P 2ac 2ab'
loop_
_symmetry_equiv_pos_site_id
_symmetry_equiv_pos_as_xyz
1 x,y,z
2 1/2-x,-y,1/2+z
3 1/2+x,1/2-y,-z
4 -x,1/2+y,1/2-z
_cell_length_a                   13.868
_cell_length_b                   20.844
_cell_length_c                   22.990
_cell_angle_alpha                90
_cell_angle_beta                 90
_cell_angle_gamma                90
_cell_volume                     6645.59
_exptl_crystal_colour            colorless
_exptl_crystal_description       block
_cell_formula_units_Z            8
loop_
_atom_site_label
_atom_site_type_symbol
_atom_site_fract_x
_atom_site_fract_y
_atom_site_fract_z
C1 C 1.0690(3) 0.4553(3) 0.11615(14)
H1 H 1.0408 0.4159 0.1028
H2 H 1.1350 0.4575 0.1037
H3 H 1.0339 0.4909 0.1002
C2 C 1.2016(2) 0.37822(19) 0.18887(16)
H4 H 1.2533 0.4033 0.1729
H5 H 1.1718 0.3537 0.1584
H6 H 1.2266 0.3497 0.2180
C3 C 1.0647(2) 0.45789(15) 0.18197(11)
C4 C 1.12804(18) 0.42204(13) 0.21590(12)
C5 C 1.12197(16) 0.42986(11) 0.27587(11)
C6 C 1.05885(15) 0.47052(11) 0.30465(10)
C7 C 0.99402(15) 0.50562(11) 0.27005(9)
C8 C 1.00011(17) 0.49767(12) 0.21036(10)
C9 C 0.92185(18) 0.55194(11) 0.29684(10)
H7 H 0.9568 0.5870 0.3149
H8 H 0.8822 0.5699 0.2661
C10 C 1.06186(16) 0.47945(13) 0.36997(10)
H9 H 1.1127 0.4526 0.3856
H10 H 1.0788 0.5237 0.3782
C11 C 0.77234(16) 0.49590(10) 0.32534(9)
C12 C 0.94522(18) 0.40144(12) 0.40941(10)
C13 C 0.89041(15) 0.50688(11) 0.39772(9)
C14 C 0.91037(18) 0.56574(13) 0.43689(11)
C15 C 0.9053(4) 0.67756(16) 0.44619(17)
H11 H 0.8580 0.6787 0.4772
H12 H 0.9692 0.6774 0.4635
C16 C 0.8941(5) 0.73287(19) 0.4089(2)
H13 H 0.9347 0.7282 0.3754
H14 H 0.9122 0.7709 0.4299
H15 H 0.8281 0.7363 0.3968
C17 C 0.80573(16) 0.46362(11) 0.42041(9)
C18 C 0.75993(17) 0.48614(12) 0.47812(9)
C19 C 0.6757(3) 0.57129(18) 0.52238(13)
H16 H 0.7251 0.5783 0.5516
H17 H 0.6278 0.5425 0.5385
C20 C 0.6303(3) 0.63259(18) 0.50694(16)
H18 H 0.6769 0.6598 0.4883
H19 H 0.6069 0.6531 0.5415
H20 H 0.5775 0.6249 0.4809
C21 C 0.65177(17) 0.42488(12) 0.37314(11)
H21 H 0.6038 0.4434 0.3475
H22 H 0.6243 0.4234 0.4119
C22 C 0.79519(19) 0.34263(12) 0.43349(11)
H23 H 0.7486 0.3493 0.4644
H24 H 0.8388 0.3090 0.4461
C23 C 0.67208(17) 0.35697(12) 0.35347(11)
C24 C 0.74189(18) 0.31943(12) 0.38002(11)
C25 C 0.7581(2) 0.25628(13) 0.36002(13)
C26 C 0.7032(2) 0.23222(14) 0.31477(14)
H25 H 0.7146 0.1909 0.3010
C27 C 0.6317(2) 0.26919(14) 0.29001(14)
H26 H 0.5938 0.2520 0.2605
C28 C 0.6154(2) 0.33140(13) 0.30828(12)
C29 C 0.8503(3) 0.16054(15) 0.36593(19)
H27 H 0.7946 0.1335 0.3694
H28 H 0.9026 0.1423 0.3877
H29 H 0.8684 0.1640 0.3258
C30 C 0.4780(3) 0.34439(19) 0.2470(2)
H30 H 0.5109 0.3230 0.2158
H31 H 0.4380 0.3778 0.2314
H32 H 0.4387 0.3141 0.2676
N1 N 0.93462(17) 0.53622(13) 0.17428(9)
N2 N 1.19317(15) 0.39395(10) 0.31090(10)
N3 N 0.85965(13) 0.52264(9) 0.33989(7)
N4 N 0.97262(13) 0.46445(10) 0.40014(8)
N5 N 0.73622(13) 0.46702(9) 0.37409(8)
N6 N 0.85063(14) 0.40159(10) 0.42615(9)
O1 O 0.8717(2) 0.50826(14) 0.14777(11)
O2 O 0.9461(2) 0.59411(13) 0.17362(11)
O3 O 1.17680(17) 0.33885(11) 0.32327(13)
O4 O 1.26502(16) 0.42208(11) 0.32549(12)
O5 O 0.73305(13) 0.49958(8) 0.27848(7)
O6 O 0.99765(14) 0.35533(10) 0.40470(10)
O7 O 0.93852(18) 0.55977(12) 0.48545(8)
O8 O 0.89176(17) 0.62016(9) 0.41087(8)
O9 O 0.76130(18) 0.45575(11) 0.52209(8)
O10 O 0.71854(13) 0.54271(9) 0.47081(7)
O11 O 0.82860(17) 0.22222(10) 0.38799(10)
O12 O 0.54639(15) 0.37125(10) 0.28539(10)
C31 C 0.6891(3) 0.6723(3) 0.1464(2)
H33 H 0.6808 0.7177 0.1507
H34 H 0.6834 0.6610 0.1061
H35 H 0.7517 0.6602 0.1604
C32 C 0.5338(3) 0.5962(2) 0.08778(14)
H36 H 0.5016 0.5570 0.0775
H37 H 0.5974 0.5964 0.0713
H38 H 0.4979 0.6320 0.0729
C33 C 0.6120(2) 0.63735(15) 0.18123(15)
C34 C 0.5407(2) 0.60130(16) 0.15317(13)
C35 C 0.47594(19) 0.56899(13) 0.18896(11)
C36 C 0.47770(17) 0.56795(11) 0.24966(11)
C37 C 0.54847(17) 0.60478(11) 0.27707(11)
C38 C 0.61236(18) 0.63826(12) 0.24120(14)
C39 C 0.55886(17) 0.60388(13) 0.34297(12)
H39 H 0.5753 0.5606 0.3549
H40 H 0.6123 0.6315 0.3536
C40 C 0.40690(18) 0.52758(12) 0.28403(10)
H41 H 0.3629 0.5069 0.2571
H42 H 0.4422 0.4942 0.3042
C41 C 0.45196(17) 0.68855(11) 0.38068(10)
C42 C 0.26229(17) 0.59052(10) 0.31342(9)
C43 C 0.38983(16) 0.58448(10) 0.38076(9)
C44 C 0.41013(19) 0.52668(12) 0.42088(10)
C45 C 0.3469(10) 0.4335(6) 0.4595(7)
H43 H 0.3944 0.4375 0.4903
H44 H 0.3711 0.4034 0.4308
C46 C 0.2542(10) 0.4106(6) 0.4836(6)
H45 H 0.2163 0.4467 0.4959
H46 H 0.2664 0.3831 0.5163
H47 H 0.2198 0.3871 0.4542
C47 C 0.30991(16) 0.63165(10) 0.40278(9)
C48 C 0.28140(17) 0.61996(11) 0.46721(10)
C49 C 0.1560(2) 0.59642(18) 0.53404(12)
H48 H 0.2066 0.5755 0.5562
H49 H 0.1002 0.5684 0.5338
C50 C 0.1302(4) 0.6580(3) 0.56237(17)
H50 H 0.1861 0.6852 0.5640
H51 H 0.1075 0.6499 0.6011
H52 H 0.0805 0.6789 0.5403
C51 C 0.30925(19) 0.75298(11) 0.41011(10)
H53 H 0.3571 0.7857 0.4181
H54 H 0.2697 0.7484 0.4446
C52 C 0.15293(17) 0.66975(12) 0.35791(11)
H55 H 0.1250 0.6739 0.3964
H56 H 0.1039 0.6512 0.3330
C53 C 0.24617(17) 0.77560(11) 0.36064(10)
C54 C 0.17478(17) 0.73656(11) 0.33568(10)
C55 C 0.11725(18) 0.76191(12) 0.29134(11)
C56 C 0.1309(2) 0.82400(13) 0.27206(12)
H57 H 0.0920 0.8402 0.2426
C57 C 0.2018(2) 0.86220(13) 0.29600(12)
H58 H 0.2111 0.9037 0.2823
C58 C 0.2592(2) 0.83852(11) 0.34068(11)
C59 C -0.0204(3) 0.74677(18) 0.22979(17)
H59 H -0.0574 0.7800 0.2482
H60 H -0.0627 0.7132 0.2170
H61 H 0.0133 0.7643 0.1969
C60 C 0.3499(3) 0.93613(14) 0.34679(17)
H62 H 0.3728 0.9337 0.3075
H63 H 0.3984 0.9554 0.3709
H64 H 0.2924 0.9617 0.3480
N7 N 0.68709(16) 0.67747(11) 0.27003(13)
N8 N 0.40071(18) 0.53066(14) 0.15966(10)
N9 N 0.47397(14) 0.62426(9) 0.37533(9)
N10 N 0.35132(14) 0.56349(9) 0.32600(8)
N11 N 0.35842(14) 0.69279(9) 0.39954(8)
N12 N 0.23274(13) 0.62421(9) 0.36158(8)
O13 O 0.6770(2) 0.73436(11) 0.27121(19)
O14 O 0.75458(17) 0.65123(12) 0.29178(17)
O15 O 0.3353(2) 0.55859(16) 0.13692(14)
O16 O 0.4094(2) 0.47289(13) 0.15888(12)
O17 O 0.50578(14) 0.73257(9) 0.37136(10)
O18 O 0.21816(14) 0.58278(9) 0.26877(7)
O19 O 0.48789(17) 0.51236(12) 0.43795(10)
O20 O 0.32934(16) 0.49608(9) 0.43251(9)
O21 O 0.18907(13) 0.60680(10) 0.47422(7)
O22 O 0.33971(14) 0.62411(11) 0.50498(7)
O23 O 0.04727(15) 0.72151(10) 0.27011(9)
O24 O 0.32911(16) 0.87331(9) 0.36749(9)
C61 C 0.0456(4) 0.2308(2) 0.4792(2)
H65 H 0.0155 0.2533 0.4465
Cl1 Cl 0.1416(2) 0.27472(8) 0.50313(15)
Cl2 Cl 0.08087(12) 0.15497(9) 0.45625(8)
Cl3 Cl -0.0379(3) 0.22224(10) 0.53355(10)
C62? C 0.3335(8) 0.4426(5) 0.4744(5)
C63? C 0.2362(10) 0.4344(6) 0.4997(6)
H66? H 0.3798 0.4520 0.5049
H67? H 0.3533 0.4035 0.4549
H68? H 0.2288 0.4628 0.5323
H69? H 0.2282 0.3909 0.5124
H70? H 0.1884 0.4443 0.4708
loop_
_geom_bond_atom_site_label_1
_geom_bond_atom_site_label_2
_geom_bond_site_symmetry_1
_geom_bond_site_symmetry_2
C1 H1 1_555 1_555
H2 C1 1_555 1_555
H3 C1 1_555 1_555
C2 H4 1_555 1_555
H5 C2 1_555 1_555
H6 C2 1_555 1_555
C3 C1 1_555 1_555
C4 C2 1_555 1_555
C5 C4 1_555 1_555
C6 C5 1_555 1_555
C7 C6 1_555 1_555
C8 C3 1_555 1_555
C9 C7 1_555 1_555
H7 C9 1_555 1_555
H8 C9 1_555 1_555
C10 C6 1_555 1_555
H9 C10 1_555 1_555
H10 C10 1_555 1_555
C11 N3 1_555 1_555
C12 N4 1_555 1_555
C13 C14 1_555 1_555
C14 O7 1_555 1_555
C15 H11 1_555 1_555
H12 C15 1_555 1_555
C16 C15 1_555 1_555
H13 C16 1_555 1_555
H14 C16 1_555 1_555
H15 C16 1_555 1_555
C17 C13 1_555 1_555
C18 C17 1_555 1_555
C19 H16 1_555 1_555
H17 C19 1_555 1_555
C20 C19 1_555 1_555
H18 C20 1_555 1_555
H19 C20 1_555 1_555
H20 C20 1_555 1_555
C21 H21 1_555 1_555
H22 C21 1_555 1_555
C22 H23 1_555 1_555
H24 C22 1_555 1_555
C23 C21 1_555 1_555
C24 C22 1_555 1_555
C25 C24 1_555 1_555
C26 C25 1_555 1_555
H25 C26 1_555 1_555
C27 C26 1_555 1_555
H26 C27 1_555 1_555
C28 C23 1_555 1_555
C29 H27 1_555 1_555
H28 C29 1_555 1_555
H29 C29 1_555 1_555
C30 H30 1_555 1_555
H31 C30 1_555 1_555
H32 C30 1_555 1_555
C31 H33 1_555 1_555
H34 C31 1_555 1_555
H35 C31 1_555 1_555
C32 H36 1_555 1_555
H37 C32 1_555 1_555
H38 C32 1_555 1_555
C33 C31 1_555 1_555
C34 C32 1_555 1_555
C35 C34 1_555 1_555
C36 C35 1_555 1_555
C37 C36 1_555 1_555
C38 C33 1_555 1_555
C39 C37 1_555 1_555
H39 C39 1_555 1_555
H40 C39 1_555 1_555
C40 C36 1_555 1_555
H41 C40 1_555 1_555
H42 C40 1_555 1_555
C41 N9 1_555 1_555
C42 N10 1_555 1_555
C43 C44 1_555 1_555
C44 O19 1_555 1_555
C45 H43 1_555 1_555
H44 C45 1_555 1_555
C46 C45 1_555 1_555
H45 C46 1_555 1_555
H46 C46 1_555 1_555
H47 C46 1_555 1_555
C47 C43 1_555 1_555
C48 C47 1_555 1_555
C49 H48 1_555 1_555
H49 C49 1_555 1_555
C50 C49 1_555 1_555
H50 C50 1_555 1_555
H51 C50 1_555 1_555
H52 C50 1_555 1_555
C51 H53 1_555 1_555
H54 C51 1_555 1_555
C52 H55 1_555 1_555
H56 C52 1_555 1_555
C53 C51 1_555 1_555
C54 C52 1_555 1_555
C55 C54 1_555 1_555
C56 C55 1_555 1_555
H57 C56 1_555 1_555
C57 C56 1_555 1_555
H58 C57 1_555 1_555
C58 C53 1_555 1_555
C59 H59 1_555 1_555
H60 C59 1_555 1_555
H61 C59 1_555 1_555
C60 H62 1_555 1_555
H63 C60 1_555 1_555
H64 C60 1_555 1_555
C61 H65 1_555 1_555
Cl1 C61 1_555 1_555
Cl2 C61 1_555 1_555
Cl3 C61 1_555 1_555
N1 C8 1_555 1_555
N2 C5 1_555 1_555
N3 C9 1_555 1_555
N4 C10 1_555 1_555
N5 C11 1_555 1_555
N6 C12 1_555 1_555
N7 C38 1_555 1_555
N8 C35 1_555 1_555
N9 C39 1_555 1_555
N10 C40 1_555 1_555
N11 C41 1_555 1_555
N12 C42 1_555 1_555
O1 N1 1_555 1_555
O2 N1 1_555 1_555
O3 N2 1_555 1_555
O4 N2 1_555 1_555
O5 C11 1_555 1_555
O6 C12 1_555 1_555
O8 C14 1_555 1_555
O9 C18 1_555 1_555
O10 C18 1_555 1_555
O11 C25 1_555 1_555
O12 C28 1_555 1_555
O13 N7 1_555 1_555
O14 N7 1_555 1_555
O15 N8 1_555 1_555
O16 N8 1_555 1_555
O17 C41 1_555 1_555
O18 C42 1_555 1_555
O20 C44 1_555 1_555
O21 C48 1_555 1_555
O22 C48 1_555 1_555
O23 C55 1_555 1_555
O24 C58 1_555 1_555
C3 C4 1_555 1_555
C7 C8 1_555 1_555
C13 N3 1_555 1_555
C13 N4 1_555 1_555
C15 O8 1_555 1_555
C17 N5 1_555 1_555
C17 N6 1_555 1_555
C19 O10 1_555 1_555
C21 N5 1_555 1_555
C22 N6 1_555 1_555
C23 C24 1_555 1_555
C27 C28 1_555 1_555
C29 O11 1_555 1_555
C30 O12 1_555 1_555
C33 C34 1_555 1_555
C37 C38 1_555 1_555
C43 N9 1_555 1_555
C43 N10 1_555 1_555
C45 O20 1_555 1_555
C47 N11 1_555 1_555
C47 N12 1_555 1_555
C49 O21 1_555 1_555
C51 N11 1_555 1_555
C52 N12 1_555 1_555
C53 C54 1_555 1_555
C57 C58 1_555 1_555
C59 O23 1_555 1_555
C60 O24 1_555 1_555

#END
