
#######################################################################
#
#                 Cambridge Crystallographic Data Centre
#                                CCDC 
#
#######################################################################
#
# If this CIF has been generated from an entry in the Cambridge 
# Structural Database, then it will include bibliographic, chemical, 
# crystal, experimental, refinement or atomic coordinate data resulting 
# from the CCDC's data processing and validation procedures.
#
#######################################################################

data_NAXSUD
_chemical_name_common            2,2'-bis(hydroxymethyl)-6,6'-dimethylbiphenyl
_chemical_formula_moiety         'C16 H18 O2'
_chemical_name_systematic        
(6,6'-dimethyl[1,1'-biphenyl]-2,2'-diyl)dimethanol
_symmetry_cell_setting           monoclinic
_symmetry_space_group_name_H-M   'P 21/n'
_symmetry_Int_Tables_number      14
_space_group_name_Hall           '-P 2yn'
loop_
_symmetry_equiv_pos_site_id
_symmetry_equiv_pos_as_xyz
1 x,y,z
2 1/2-x,1/2+y,1/2-z
3 -x,-y,-z
4 1/2+x,1/2-y,1/2+z
_cell_length_a                   12.3755(5)
_cell_length_b                   8.1684(3)
_cell_length_c                   14.1317(4)
_cell_angle_alpha                90
_cell_angle_beta                 108.352(2)
_cell_angle_gamma                90
_cell_volume                     1355.89
_exptl_crystal_colour            colorless
_exptl_crystal_description       blocks
_cell_formula_units_Z            4
loop_
_atom_site_label
_atom_site_type_symbol
_atom_site_fract_x
_atom_site_fract_y
_atom_site_fract_z
C1 C 0.39365(7) 0.25106(11) 0.14027(7)
C2 C 0.44401(8) 0.09581(12) 0.15807(7)
C3 C 0.53433(8) 0.05622(12) 0.25537(7)
H1 H 0.5284 0.1346 0.3070
H2 H 0.5205 -0.0550 0.2769
O1 O 0.64682(6) 0.06343(10) 0.24793(6)
H3 H 0.6557(12) 0.1599(16) 0.2227(10)
C4 C 0.41141(9) -0.02462(13) 0.08461(8)
H4 H 0.4463 -0.1295 0.0964
C5 C 0.32841(9) 0.00776(14) -0.00555(8)
H5 H 0.3071 -0.0742 -0.0557
C6 C 0.27697(8) 0.15975(14) -0.02203(7)
H6 H 0.2194 0.1806 -0.0835
C7 C 0.30765(8) 0.28339(13) 0.04955(7)
C8 C 0.24966(10) 0.44786(14) 0.03002(8)
H7 H 0.1996 0.4526 -0.0392
H8 H 0.3072 0.5344 0.0414
H9 H 0.2045 0.4635 0.0752
C9 C 0.43359(8) 0.38334(11) 0.21711(7)
C10 C 0.52500(8) 0.48418(11) 0.21597(7)
C11 C 0.58465(8) 0.46244(13) 0.13843(7)
H10 H 0.5304 0.4162 0.0770
H11 H 0.6097 0.5707 0.1217
O2 O 0.68167(6) 0.35616(9) 0.17283(6)
H12 H 0.7397(11) 0.4212(16) 0.2045(10)
C12 C 0.56489(9) 0.60232(12) 0.28988(8)
H13 H 0.6266 0.6708 0.2891
C13 C 0.51543(9) 0.62079(12) 0.36451(8)
H14 H 0.5437 0.7007 0.4151
C14 C 0.42440(9) 0.52225(13) 0.36513(7)
H15 H 0.3903 0.5360 0.4162
C15 C 0.38221(8) 0.40352(12) 0.29218(7)
C16 C 0.28365(10) 0.29687(14) 0.29416(8)
H16 H 0.2174 0.3220 0.2363
H17 H 0.2650 0.3177 0.3555
H18 H 0.3044 0.1815 0.2919
loop_
_geom_bond_atom_site_label_1
_geom_bond_atom_site_label_2
_geom_bond_site_symmetry_1
_geom_bond_site_symmetry_2
C1 C2 1_555 1_555
C2 C3 1_555 1_555
C3 H1 1_555 1_555
H2 C3 1_555 1_555
O1 C3 1_555 1_555
H3 O1 1_555 1_555
C4 C2 1_555 1_555
H4 C4 1_555 1_555
C5 C4 1_555 1_555
H5 C5 1_555 1_555
C6 C5 1_555 1_555
H6 C6 1_555 1_555
C7 C1 1_555 1_555
C8 C7 1_555 1_555
H7 C8 1_555 1_555
H8 C8 1_555 1_555
H9 C8 1_555 1_555
C9 C1 1_555 1_555
C10 C9 1_555 1_555
C11 C10 1_555 1_555
H10 C11 1_555 1_555
H11 C11 1_555 1_555
O2 C11 1_555 1_555
H12 O2 1_555 1_555
C12 C10 1_555 1_555
H13 C12 1_555 1_555
C13 C12 1_555 1_555
H14 C13 1_555 1_555
C14 C13 1_555 1_555
H15 C14 1_555 1_555
C15 C9 1_555 1_555
C16 C15 1_555 1_555
H16 C16 1_555 1_555
H17 C16 1_555 1_555
H18 C16 1_555 1_555
C6 C7 1_555 1_555
C14 C15 1_555 1_555

#END
