
#######################################################################
#
#                 Cambridge Crystallographic Data Centre
#                                CCDC 
#
#######################################################################
#
# If this CIF has been generated from an entry in the Cambridge 
# Structural Database, then it will include bibliographic, chemical, 
# crystal, experimental, refinement or atomic coordinate data resulting 
# from the CCDC's data processing and validation procedures.
#
#######################################################################

data_NAXXAM
_chemical_name_common            
"N,N,N',N'-tetrakis(Antipyryl-4-methyl)-1,2-ethanediamine ethanol solvate"
_chemical_formula_moiety         'C50 H56 N10 O4,2(C2 H6 O1)'
_chemical_name_systematic        
"N,N,N',N'-tetrakis((1,5-dimethyl-2-phenyl-3-oxo-1,2-dihydro-3H-pyrazol-4-yl)methyl)ethane-1,2-diamine ethanol solvate"
_chemical_properties_biological  'potential biological activity'
_symmetry_cell_setting           triclinic
_symmetry_space_group_name_H-M   'P -1'
_symmetry_Int_Tables_number      2
_space_group_name_Hall           '-P 1'
loop_
_symmetry_equiv_pos_site_id
_symmetry_equiv_pos_as_xyz
1 x,y,z
2 -x,-y,-z
_cell_length_a                   8.7732(11)
_cell_length_b                   10.7809(14)
_cell_length_c                   14.3327(18)
_cell_angle_alpha                71.926(10)
_cell_angle_beta                 82.157(10)
_cell_angle_gamma                84.542(10)
_cell_volume                     1274.68
_exptl_crystal_colour            colorless
_exptl_crystal_description       plate
_chemical_melting_point          95deg.C
_cell_formula_units_Z            1
loop_
_atom_site_label
_atom_site_type_symbol
_atom_site_fract_x
_atom_site_fract_y
_atom_site_fract_z
C1 C -0.02148(16) 0.42906(13) 0.52435(10)
N1 N -0.13065(13) 0.39098(11) 0.47110(9)
C2 C -0.13240(16) 0.24802(14) 0.49381(11)
C3 C 0.00309(16) 0.19541(13) 0.43949(10)
C4 C 0.01915(16) 0.22036(14) 0.33449(11)
O1 O -0.06978(12) 0.27752(11) 0.27221(8)
N2 N 0.16137(14) 0.16038(12) 0.31112(8)
C5 C 0.21048(16) 0.12735(15) 0.22317(10)
C6 C 0.18154(19) 0.21743(17) 0.13282(12)
C7 C 0.2277(2) 0.1855(2) 0.04620(12)
C8 C 0.3064(2) 0.0677(2) 0.04818(13)
C9 C 0.3373(2) -0.02054(18) 0.13784(12)
C10 C 0.28753(18) 0.00753(15) 0.22572(11)
N3 N 0.22373(13) 0.08964(11) 0.39894(8)
C11 C 0.12808(16) 0.11928(13) 0.47457(10)
C12 C 0.39286(17) 0.08066(15) 0.39739(11)
C13 C 0.17218(18) 0.06990(15) 0.57703(11)
C14 C -0.28718(16) 0.44920(14) 0.48516(10)
C15 C -0.37247(15) 0.40880(13) 0.58783(10)
C16 C -0.48014(16) 0.30674(14) 0.62170(10)
O2 O -0.52040(12) 0.23270(10) 0.58007(8)
N4 N -0.54528(14) 0.30901(12) 0.71707(9)
C17 C -0.70091(17) 0.27787(16) 0.75550(10)
C18 C -0.7403(2) 0.14904(17) 0.78033(11)
C19 C -0.8927(2) 0.1191(2) 0.81745(13)
C20 C -1.0007(2) 0.2159(2) 0.83075(14)
C21 C -0.9600(2) 0.3429(2) 0.80596(13)
C22 C -0.81044(19) 0.37576(17) 0.76741(11)
N5 N -0.49392(14) 0.41846(12) 0.73497(9)
C23 C -0.38367(16) 0.47085(14) 0.65825(11)
C24 C -0.4723(2) 0.40146(18) 0.83761(12)
C25 C -0.30276(19) 0.58433(16) 0.66069(13)
H7 H -0.2351 0.2359 0.4744
H8 H -0.2786 0.5529 0.4605
H9 H 0.0757 0.3649 0.5224
H10 H -0.1398 0.1927 0.5684
H11 H -0.0636 0.4108 0.5938
H12 H -0.3558 0.4264 0.4397
H13 H -0.6619 0.0831 0.7695
H14 H 0.3072 -0.0581 0.2943
H15 H 0.1338 0.2994 0.1322
H16 H 0.4407 0.1241 0.3332
H17 H -0.7816 0.4698 0.7431
H18 H 0.2176 -0.0235 0.5952
H19 H -0.3694 0.6390 0.6954
H20 H 0.2552 0.1294 0.5838
H21 H 0.4230 0.1295 0.4414
H22 H -0.5743 0.3630 0.8856
H23 H -1.1142 0.1968 0.8528
H24 H 0.0731 0.0729 0.6256
H25 H 0.2021 0.2503 -0.0185
H26 H 0.3998 -0.1057 0.1402
H27 H 0.4330 -0.0076 0.4150
H28 H -0.4517 0.4887 0.8480
H29 H -0.9179 0.0257 0.8337
H30 H 0.3511 0.0477 -0.0156
H31 H -0.2711 0.6428 0.5924
H32 H -0.3811 0.3316 0.8601
H33 H -1.0374 0.4131 0.8161
H34 H -0.2050 0.5558 0.6880
C1A C 0.02148(16) 0.57094(13) 0.47565(10)
N1A N 0.13065(13) 0.60902(11) 0.52890(9)
C2A C 0.13240(16) 0.75198(14) 0.50619(11)
C3A C -0.00309(16) 0.80459(13) 0.56051(10)
C4A C -0.01915(16) 0.77964(14) 0.66551(11)
O1A O 0.06978(12) 0.72248(11) 0.72779(8)
N2A N -0.16137(14) 0.83962(12) 0.68888(8)
C5A C -0.21048(16) 0.87265(15) 0.77683(10)
C6A C -0.18154(19) 0.78257(17) 0.86718(12)
C7A C -0.2277(2) 0.8145(2) 0.95380(12)
C8A C -0.3064(2) 0.9323(2) 0.95182(13)
C9A C -0.3373(2) 1.02054(18) 0.86216(12)
C10A C -0.28753(18) 0.99247(15) 0.77428(11)
N3A N -0.22373(13) 0.91036(11) 0.60106(8)
C11A C -0.12808(16) 0.88072(13) 0.52543(10)
C12A C -0.39286(17) 0.91934(15) 0.60261(11)
C13A C -0.17218(18) 0.93010(15) 0.42297(11)
C14A C 0.28718(16) 0.55080(14) 0.51484(10)
C15A C 0.37247(15) 0.59120(13) 0.41217(10)
C16A C 0.48014(16) 0.69326(14) 0.37830(10)
O2A O 0.52040(12) 0.76730(10) 0.41993(8)
N4A N 0.54528(14) 0.69099(12) 0.28293(9)
C17A C 0.70091(17) 0.72213(16) 0.24450(10)
C18A C 0.7403(2) 0.85096(17) 0.21967(11)
C19A C 0.8927(2) 0.8809(2) 0.18255(13)
C20A C 1.0007(2) 0.7841(2) 0.16925(14)
C21A C 0.9600(2) 0.6571(2) 0.19404(13)
C22A C 0.81044(19) 0.62424(17) 0.23259(11)
N5A N 0.49392(14) 0.58154(12) 0.26503(9)
C23A C 0.38367(16) 0.52915(14) 0.34175(11)
C24A C 0.4723(2) 0.59854(18) 0.16239(12)
C25A C 0.30276(19) 0.41567(16) 0.33931(13)
H7A H 0.2351 0.7641 0.5256
H8A H 0.2786 0.4471 0.5395
H9A H -0.0757 0.6351 0.4776
H10A H 0.1398 0.8073 0.4316
H11A H 0.0636 0.5892 0.4062
H12A H 0.3558 0.5736 0.5603
H13A H 0.6619 0.9169 0.2305
H14A H -0.3072 1.0581 0.7057
H15A H -0.1338 0.7006 0.8678
H16A H -0.4407 0.8759 0.6668
H17A H 0.7816 0.5302 0.2569
H18A H -0.2176 1.0235 0.4048
H19A H 0.3694 0.3610 0.3046
H20A H -0.2552 0.8706 0.4162
H21A H -0.4230 0.8705 0.5586
H22A H 0.5743 0.6370 0.1144
H23A H 1.1142 0.8032 0.1472
H24A H -0.0731 0.9271 0.3744
H25A H -0.2021 0.7497 1.0185
H26A H -0.3998 1.1057 0.8598
H27A H -0.4330 1.0076 0.5850
H28A H 0.4517 0.5113 0.1520
H29A H 0.9179 0.9743 0.1663
H30A H -0.3511 0.9523 1.0156
H31A H 0.2711 0.3572 0.4076
H32A H 0.3811 0.6684 0.1399
H33A H 1.0374 0.5869 0.1839
H34A H 0.2050 0.4442 0.3120
C26 C -0.2417(4) 0.3528(6) 0.0537(2)
H1 H -0.2159 0.3225 -0.0031
H2 H -0.1491 0.3699 0.0752
H3 H -0.3064 0.4317 0.0367
C27 C -0.3258(4) 0.2502(4) 0.1354(3)
H4 H -0.4193 0.2330 0.1136
H5 H -0.2616 0.1697 0.1509
O3 O -0.36319(16) 0.28956(16) 0.21977(11)
H6 H -0.2994 0.2568 0.2585
loop_
_geom_bond_atom_site_label_1
_geom_bond_atom_site_label_2
_geom_bond_site_symmetry_1
_geom_bond_site_symmetry_2
C1 N1 1_555 1_555
N1 C2 1_555 1_555
C2 C3 1_555 1_555
C3 C4 1_555 1_555
C4 O1 1_555 1_555
N2 C4 1_555 1_555
C5 N2 1_555 1_555
C6 C5 1_555 1_555
C7 C6 1_555 1_555
C8 C7 1_555 1_555
C9 C8 1_555 1_555
C10 C5 1_555 1_555
N3 N2 1_555 1_555
C11 C3 1_555 1_555
C12 N3 1_555 1_555
C13 C11 1_555 1_555
C14 N1 1_555 1_555
C15 C14 1_555 1_555
C16 C15 1_555 1_555
O2 C16 1_555 1_555
N4 C16 1_555 1_555
C17 N4 1_555 1_555
C18 C17 1_555 1_555
C19 C18 1_555 1_555
C20 C19 1_555 1_555
C21 C20 1_555 1_555
C22 C17 1_555 1_555
N5 N4 1_555 1_555
C23 C15 1_555 1_555
C24 N5 1_555 1_555
C25 C23 1_555 1_555
C26 H1 1_555 1_555
H2 C26 1_555 1_555
H3 C26 1_555 1_555
C27 C26 1_555 1_555
H4 C27 1_555 1_555
H5 C27 1_555 1_555
O3 C27 1_555 1_555
H6 O3 1_555 1_555
H7 C2 1_555 1_555
H8 C14 1_555 1_555
H9 C1 1_555 1_555
H10 C2 1_555 1_555
H11 C1 1_555 1_555
H12 C14 1_555 1_555
H13 C18 1_555 1_555
H14 C10 1_555 1_555
H15 C6 1_555 1_555
H16 C12 1_555 1_555
H17 C22 1_555 1_555
H18 C13 1_555 1_555
H19 C25 1_555 1_555
H20 C13 1_555 1_555
H21 C12 1_555 1_555
H22 C24 1_555 1_555
H23 C20 1_555 1_555
H24 C13 1_555 1_555
H25 C7 1_555 1_555
H26 C9 1_555 1_555
H27 C12 1_555 1_555
H28 C24 1_555 1_555
H29 C19 1_555 1_555
H30 C8 1_555 1_555
H31 C25 1_555 1_555
H32 C24 1_555 1_555
H33 C21 1_555 1_555
H34 C25 1_555 1_555
C1A C1 1_555 1_555
N1A C1A 1_555 1_555
C2A N1A 1_555 1_555
C3A C2A 1_555 1_555
C4A C3A 1_555 1_555
O1A C4A 1_555 1_555
N2A C4A 1_555 1_555
C5A N2A 1_555 1_555
C6A C5A 1_555 1_555
C7A C6A 1_555 1_555
C8A C7A 1_555 1_555
C9A C8A 1_555 1_555
C10A C5A 1_555 1_555
N3A N2A 1_555 1_555
C11A C3A 1_555 1_555
C12A N3A 1_555 1_555
C13A C11A 1_555 1_555
C14A N1A 1_555 1_555
C15A C14A 1_555 1_555
C16A C15A 1_555 1_555
O2A C16A 1_555 1_555
N4A C16A 1_555 1_555
C17A N4A 1_555 1_555
C18A C17A 1_555 1_555
C19A C18A 1_555 1_555
C20A C19A 1_555 1_555
C21A C20A 1_555 1_555
C22A C17A 1_555 1_555
N5A N4A 1_555 1_555
C23A C15A 1_555 1_555
C24A N5A 1_555 1_555
C25A C23A 1_555 1_555
H7A C2A 1_555 1_555
H8A C14A 1_555 1_555
H9A C1A 1_555 1_555
H10A C2A 1_555 1_555
H11A C1A 1_555 1_555
H12A C14A 1_555 1_555
H13A C18A 1_555 1_555
H14A C10A 1_555 1_555
H15A C6A 1_555 1_555
H16A C12A 1_555 1_555
H17A C22A 1_555 1_555
H18A C13A 1_555 1_555
H19A C25A 1_555 1_555
H20A C13A 1_555 1_555
H21A C12A 1_555 1_555
H22A C24A 1_555 1_555
H23A C20A 1_555 1_555
H24A C13A 1_555 1_555
H25A C7A 1_555 1_555
H26A C9A 1_555 1_555
H27A C12A 1_555 1_555
H28A C24A 1_555 1_555
H29A C19A 1_555 1_555
H30A C8A 1_555 1_555
H31A C25A 1_555 1_555
H32A C24A 1_555 1_555
H33A C21A 1_555 1_555
H34A C25A 1_555 1_555
C9 C10 1_555 1_555
N3 C11 1_555 1_555
C21 C22 1_555 1_555
N5 C23 1_555 1_555
C9A C10A 1_555 1_555
N3A C11A 1_555 1_555
C21A C22A 1_555 1_555
N5A C23A 1_555 1_555

#END
