
#######################################################################
#
#                 Cambridge Crystallographic Data Centre
#                                CCDC 
#
#######################################################################
#
# If this CIF has been generated from an entry in the Cambridge 
# Structural Database, then it will include bibliographic, chemical, 
# crystal, experimental, refinement or atomic coordinate data resulting 
# from the CCDC's data processing and validation procedures.
#
#######################################################################

data_NAYHUR01
_chemical_formula_moiety         'C28 H26'
_chemical_name_systematic        
1-(Fluoren-9-yl)-2-(2-methyl-5,6-dihydrocyclopenta(f)-1H-inden-1-yl)ethane
_symmetry_cell_setting           orthorhombic
_symmetry_space_group_name_H-M   'P b c a'
_symmetry_Int_Tables_number      61
_space_group_name_Hall           '-P 2ac 2ab'
loop_
_symmetry_equiv_pos_site_id
_symmetry_equiv_pos_as_xyz
1 x,y,z
2 1/2-x,-y,1/2+z
3 -x,1/2+y,1/2-z
4 1/2+x,1/2-y,-z
5 -x,-y,-z
6 1/2+x,y,1/2-z
7 x,1/2-y,1/2+z
8 1/2-x,1/2+y,z
_cell_length_a                   19.978(4)
_cell_length_b                   16.311(4)
_cell_length_c                   25.705(9)
_cell_angle_alpha                90
_cell_angle_beta                 90
_cell_angle_gamma                90
_cell_volume                     8376.26
_exptl_crystal_colour            colorless
_exptl_crystal_description       block
_cell_formula_units_Z            16
_exptl_crystal_recrystallization_method benzene/hexane/dichloromethane
loop_
_atom_site_label
_atom_site_type_symbol
_atom_site_fract_x
_atom_site_fract_y
_atom_site_fract_z
C1 C 0.2816(4) 0.4435(3) -0.0101(2)
H1 H 0.2793(4) 0.3860(3) -0.0209(2)
C2 C 0.2238(4) 0.4885(4) -0.0345(2)
C3 C 0.1579(5) 0.4778(4) -0.0234(3)
H2 H 0.1445(5) 0.4404(4) 0.0019(3)
C4 C 0.1108(4) 0.5234(6) -0.0505(4)
H3 H 0.0655(4) 0.5161(6) -0.0436(4)
C5 C 0.1305(5) 0.5794(5) -0.0873(3)
H4 H 0.0986(5) 0.6108(5) -0.1046(3)
C6 C 0.1978(5) 0.5895(5) -0.0990(2)
H5 H 0.2112(5) 0.6262(5) -0.1246(2)
C7 C 0.2448(4) 0.5442(4) -0.0718(2)
C8 C 0.3173(4) 0.5401(4) -0.0729(3)
C9 C 0.3600(5) 0.5842(4) -0.1044(2)
H6 H 0.3438(5) 0.6226(4) -0.1280(2)
C10 C 0.4279(5) 0.5691(5) -0.0996(3)
H7 H 0.4578(5) 0.5971(5) -0.1209(3)
C11 C 0.4522(4) 0.5141(6) -0.0642(3)
H8 H 0.4981(4) 0.5059(6) -0.0613(3)
C12 C 0.4085(4) 0.4700(4) -0.0324(2)
H9 H 0.4249(4) 0.4325(4) -0.0083(2)
C13 C 0.3403(4) 0.4830(4) -0.0371(3)
C14 C 0.2861(3) 0.4465(3) 0.0494(2)
H10 H 0.2476(3) 0.4184(3) 0.0638(2)
H11 H 0.3258(3) 0.4166(3) 0.0602(2)
C15 C 0.2892(3) 0.5318(3) 0.0725(2)
H12 H 0.3308(3) 0.5577(3) 0.0621(2)
H13 H 0.2527(3) 0.5643(3) 0.0585(2)
C16 C 0.2847(3) 0.5318(3) 0.1307(2)
C17 C 0.3345(3) 0.5450(3) 0.1644(2)
C18 C 0.3076(3) 0.5393(3) 0.2193(2)
H14 H 0.3293(3) 0.4954(3) 0.2383(2)
H15 H 0.3142(3) 0.5904(3) 0.2379(2)
C19 C 0.2348(3) 0.5218(3) 0.2118(2)
C20 C 0.1838(3) 0.5135(3) 0.2479(2)
H16 H 0.1920(3) 0.5157(3) 0.2835(2)
C21 C 0.1202(3) 0.5017(3) 0.2284(3)
C22 C 0.0559(3) 0.4913(4) 0.2599(2)
H17 H 0.0544(3) 0.4380(4) 0.2765(2)
H18 H 0.0521(3) 0.5335(4) 0.2864(2)
C23 C 0.0016(4) 0.4995(5) 0.2203(3)
H19 H -0.0175(4) 0.5542(5) 0.2216(3)
H20 H -0.0337(4) 0.4602(5) 0.2272(3)
C24 C 0.0321(3) 0.4837(4) 0.1673(3)
H21 H 0.0147(3) 0.5217(4) 0.1417(3)
H22 H 0.0232(3) 0.4281(4) 0.1559(3)
C25 C 0.1067(3) 0.4972(3) 0.1759(3)
C26 C 0.1586(3) 0.5050(3) 0.1401(2)
H23 H 0.1503(3) 0.5013(3) 0.1045(2)
C27 C 0.2230(3) 0.5185(3) 0.1586(2)
C28 C 0.4064(3) 0.5625(4) 0.1539(2)
H24 H 0.4117(4) 0.5796(21) 0.1184(5)
H25 H 0.4323(4) 0.5139(7) 0.1599(14)
H26 H 0.4216(6) 0.6053(16) 0.1766(10)
C29 C 0.2237(3) 0.8134(3) 0.2604(2)
H27 H 0.2250(3) 0.8704(3) 0.2725(2)
C30 C 0.2850(4) 0.7707(4) 0.2809(2)
C31 C 0.3518(4) 0.7807(4) 0.2683(2)
H28 H 0.3647(4) 0.8177(4) 0.2426(2)
C32 C 0.3993(4) 0.7346(6) 0.2946(3)
H29 H 0.4444(4) 0.7419(6) 0.2869(3)
C33 C 0.3811(5) 0.6785(5) 0.3317(3)
H30 H 0.4139(5) 0.6480(5) 0.3486(3)
C34 C 0.3140(5) 0.6666(5) 0.3443(3)
H31 H 0.3012(5) 0.6282(5) 0.3692(3)
C35 C 0.2670(4) 0.7141(4) 0.3185(2)
C36 C 0.1951(4) 0.7144(4) 0.3228(2)
C37 C 0.1540(5) 0.6661(5) 0.3533(3)
H32 H 0.1716(5) 0.6274(5) 0.3760(3)
C38 C 0.0858(5) 0.6774(5) 0.3488(3)
H33 H 0.0574(5) 0.6458(5) 0.3694(3)
C39 C 0.0581(4) 0.7339(5) 0.3149(3)
H34 H 0.0119(4) 0.7400(5) 0.3126(3)
C40 C 0.1009(4) 0.7819(4) 0.2841(3)
H35 H 0.0837(4) 0.8206(4) 0.2611(3)
C41 C 0.1680(4) 0.7705(4) 0.2888(2)
C42 C 0.2179(3) 0.8143(3) 0.2011(2)
H36 H 0.2567(3) 0.8419(3) 0.1866(2)
H37 H 0.1786(3) 0.8455(3) 0.1913(2)
C43 C 0.2130(3) 0.7284(3) 0.1774(2)
H38 H 0.2521(3) 0.6970(3) 0.1877(2)
H39 H 0.1739(3) 0.7011(3) 0.1916(2)
C44 C 0.2081(3) 0.7282(3) 0.1195(2)
C45 C 0.1541(3) 0.7170(4) 0.0893(2)
C46 C 0.1740(3) 0.7197(3) 0.0326(2)
H40 H 0.1636(3) 0.6683(3) 0.0154(2)
H41 H 0.1513(3) 0.7639(3) 0.0146(2)
C47 C 0.2481(3) 0.7340(4) 0.0341(2)
C48 C 0.2956(3) 0.7425(3) -0.0043(2)
H42 H 0.2835(3) 0.7379(3) -0.0391(2)
C49 C 0.3612(3) 0.7580(4) 0.0091(2)
C50 C 0.4228(3) 0.7678(4) -0.0259(2)
H43 H 0.4289(3) 0.7201(4) -0.0479(2)
H44 H 0.4189(3) 0.8161(4) -0.0477(2)
C51 C 0.4787(3) 0.7764(6) 0.0114(3)
H45 H 0.5083(3) 0.7295(6) 0.0085(3)
H46 H 0.5043(3) 0.8253(6) 0.0032(3)
C52 C 0.4529(3) 0.7822(4) 0.0650(2)
H47 H 0.4604(3) 0.8366(4) 0.0791(2)
H48 H 0.4746(3) 0.7423(4) 0.0873(2)
C53 C 0.3789(3) 0.7646(4) 0.0608(2)
C54 C 0.3332(3) 0.7559(3) 0.1000(2)
H49 H 0.3458(3) 0.7596(3) 0.1347(2)
C55 C 0.2681(3) 0.7415(3) 0.0859(2)
C56 C 0.0842(3) 0.7033(4) 0.1057(2)
H50 H 0.0823(4) 0.6991(23) 0.1429(2)
H51 H 0.0679(7) 0.6534(13) 0.0904(12)
H52 H 0.0570(4) 0.7484(12) 0.0944(13)
loop_
_geom_bond_atom_site_label_1
_geom_bond_atom_site_label_2
_geom_bond_site_symmetry_1
_geom_bond_site_symmetry_2
C1 H1 1_555 1_555
C2 C1 1_555 1_555
C3 C2 1_555 1_555
H2 C3 1_555 1_555
C4 C3 1_555 1_555
H3 C4 1_555 1_555
C5 C4 1_555 1_555
H4 C5 1_555 1_555
C6 C5 1_555 1_555
H5 C6 1_555 1_555
C7 C2 1_555 1_555
C8 C7 1_555 1_555
C9 C8 1_555 1_555
H6 C9 1_555 1_555
C10 C9 1_555 1_555
H7 C10 1_555 1_555
C11 C10 1_555 1_555
H8 C11 1_555 1_555
C12 C11 1_555 1_555
H9 C12 1_555 1_555
C13 C1 1_555 1_555
C14 C1 1_555 1_555
H10 C14 1_555 1_555
H11 C14 1_555 1_555
C15 C14 1_555 1_555
H12 C15 1_555 1_555
H13 C15 1_555 1_555
C16 C15 1_555 1_555
C17 C16 1_555 1_555
C18 C17 1_555 1_555
H14 C18 1_555 1_555
H15 C18 1_555 1_555
C19 C18 1_555 1_555
C20 C19 1_555 1_555
H16 C20 1_555 1_555
C21 C20 1_555 1_555
C22 C21 1_555 1_555
H17 C22 1_555 1_555
H18 C22 1_555 1_555
C23 C22 1_555 1_555
H19 C23 1_555 1_555
H20 C23 1_555 1_555
C24 C23 1_555 1_555
H21 C24 1_555 1_555
H22 C24 1_555 1_555
C25 C21 1_555 1_555
C26 C25 1_555 1_555
H23 C26 1_555 1_555
C27 C16 1_555 1_555
C28 C17 1_555 1_555
H24 C28 1_555 1_555
H25 C28 1_555 1_555
H26 C28 1_555 1_555
C29 H27 1_555 1_555
C30 C29 1_555 1_555
C31 C30 1_555 1_555
H28 C31 1_555 1_555
C32 C31 1_555 1_555
H29 C32 1_555 1_555
C33 C32 1_555 1_555
H30 C33 1_555 1_555
C34 C33 1_555 1_555
H31 C34 1_555 1_555
C35 C30 1_555 1_555
C36 C35 1_555 1_555
C37 C36 1_555 1_555
H32 C37 1_555 1_555
C38 C37 1_555 1_555
H33 C38 1_555 1_555
C39 C38 1_555 1_555
H34 C39 1_555 1_555
C40 C39 1_555 1_555
H35 C40 1_555 1_555
C41 C29 1_555 1_555
C42 C29 1_555 1_555
H36 C42 1_555 1_555
H37 C42 1_555 1_555
C43 C42 1_555 1_555
H38 C43 1_555 1_555
H39 C43 1_555 1_555
C44 C43 1_555 1_555
C45 C44 1_555 1_555
C46 C45 1_555 1_555
H40 C46 1_555 1_555
H41 C46 1_555 1_555
C47 C46 1_555 1_555
C48 C47 1_555 1_555
H42 C48 1_555 1_555
C49 C48 1_555 1_555
C50 C49 1_555 1_555
H43 C50 1_555 1_555
H44 C50 1_555 1_555
C51 C50 1_555 1_555
H45 C51 1_555 1_555
H46 C51 1_555 1_555
C52 C51 1_555 1_555
H47 C52 1_555 1_555
H48 C52 1_555 1_555
C53 C49 1_555 1_555
C54 C53 1_555 1_555
H49 C54 1_555 1_555
C55 C44 1_555 1_555
C56 C45 1_555 1_555
H50 C56 1_555 1_555
H51 C56 1_555 1_555
H52 C56 1_555 1_555
C6 C7 1_555 1_555
C8 C13 1_555 1_555
C12 C13 1_555 1_555
C19 C27 1_555 1_555
C24 C25 1_555 1_555
C26 C27 1_555 1_555
C34 C35 1_555 1_555
C36 C41 1_555 1_555
C40 C41 1_555 1_555
C47 C55 1_555 1_555
C52 C53 1_555 1_555
C54 C55 1_555 1_555

#END
