
#######################################################################
#
#                 Cambridge Crystallographic Data Centre
#                                CCDC 
#
#######################################################################
#
# If this CIF has been generated from an entry in the Cambridge 
# Structural Database, then it will include bibliographic, chemical, 
# crystal, experimental, refinement or atomic coordinate data resulting 
# from the CCDC's data processing and validation procedures.
#
#######################################################################

data_NAYLAD
_chemical_formula_moiety         'C22 H20 O4'
_chemical_name_systematic        
(2-(benzyloxy)-8-oxabicyclo[3.2.1]octa-3,6-dien-6-yl)(4-methoxyphenyl)methanone
_symmetry_cell_setting           orthorhombic
_symmetry_space_group_name_H-M   'P 21 21 21'
_symmetry_Int_Tables_number      19
_space_group_name_Hall           'P 2ac 2ab'
loop_
_symmetry_equiv_pos_site_id
_symmetry_equiv_pos_as_xyz
1 x,y,z
2 1/2-x,-y,1/2+z
3 -x,1/2+y,1/2-z
4 1/2+x,1/2-y,-z
_cell_length_a                   5.8597(6)
_cell_length_b                   8.4350(8)
_cell_length_c                   35.607(4)
_cell_angle_alpha                90
_cell_angle_beta                 90
_cell_angle_gamma                90
_cell_volume                     1759.93
_exptl_crystal_colour            colorless
_exptl_crystal_description       plate
_cell_formula_units_Z            4
loop_
_atom_site_label
_atom_site_type_symbol
_atom_site_fract_x
_atom_site_fract_y
_atom_site_fract_z
C1 C 0.3755(6) 0.4884(4) 0.15220(9)
C2 C 0.5503(6) 0.5545(4) 0.17316(10)
H1 H 0.6702 0.6097 0.1608
C3 C 0.5518(7) 0.5409(5) 0.21197(10)
H2 H 0.6723 0.5867 0.2261
C4 C 0.3787(7) 0.4608(5) 0.22997(9)
H3 H 0.3792 0.452 0.2566
C5 C 0.2046(7) 0.3936(5) 0.20937(9)
H4 H 0.0857 0.3377 0.2218
C6 C 0.2028(6) 0.4077(4) 0.17036(9)
H5 H 0.0824 0.3616 0.1562
C7 C 0.3828(5) 0.5021(4) 0.11009(9)
H6 H 0.4297 0.6106 0.1028
H7 H 0.4957 0.4265 0.0998
C8 C 0.1604(5) 0.4279(4) 0.05638(8)
H8 H 0.2866 0.3512 0.0511
C9 C -0.0637(5) 0.3496(4) 0.04869(8)
H9 H -0.0999 0.2536 0.0613
C10 C -0.2135(5) 0.4103(4) 0.02476(9)
H10 H -0.3526 0.357 0.0195
C11 C -0.1572(5) 0.5664(4) 0.00611(8)
H11 H -0.2965 0.6239 -0.0027
C12 C 0.1901(5) 0.5748(4) 0.03140(8)
H12 H 0.318 0.6432 0.0405
C13 C 0.2189(5) 0.5338(3) -0.00976(8)
H13 H 0.3587 0.5107 -0.0221
C14 C 0.0132(5) 0.5362(3) -0.02552(8)
C15 C -0.0678(5) 0.4923(4) -0.06329(9)
C16 C 0.0848(5) 0.5029(4) -0.09627(8)
C17 C 0.2708(5) 0.6045(4) -0.09794(8)
H14 H 0.3071 0.6682 -0.0768
C18 C 0.4044(6) 0.6147(4) -0.12993(8)
H15 H 0.5294 0.6863 -0.1309
C19 C 0.3540(6) 0.5194(4) -0.16059(8)
C20 C 0.1695(7) 0.4162(4) -0.15923(9)
H16 H 0.1363 0.3502 -0.1802
C21 C 0.0351(6) 0.4093(4) -0.12777(9)
H17 H -0.0931 0.3404 -0.1273
C22 C 0.6500(7) 0.6369(5) -0.19714(10)
H18 H 0.5854 0.743 -0.1937
H19 H 0.7179 0.6291 -0.2222
H20 H 0.7678 0.618 -0.1781
O1 O 0.1632(4) 0.4685(3) 0.09529(5)
O2 O -0.0224(4) 0.6594(2) 0.03156(6)
O3 O -0.2652(4) 0.4440(3) -0.06592(6)
O4 O 0.4742(4) 0.5213(3) -0.19339(6)
loop_
_geom_bond_atom_site_label_1
_geom_bond_atom_site_label_2
_geom_bond_site_symmetry_1
_geom_bond_site_symmetry_2
C1 C2 1_555 1_555
C2 H1 1_555 1_555
C3 C2 1_555 1_555
H2 C3 1_555 1_555
C4 C3 1_555 1_555
H3 C4 1_555 1_555
C5 C4 1_555 1_555
H4 C5 1_555 1_555
C6 C1 1_555 1_555
H5 C6 1_555 1_555
C7 C1 1_555 1_555
H6 C7 1_555 1_555
H7 C7 1_555 1_555
C8 H8 1_555 1_555
C9 C8 1_555 1_555
H9 C9 1_555 1_555
C10 C9 1_555 1_555
H10 C10 1_555 1_555
C11 C10 1_555 1_555
H11 C11 1_555 1_555
C12 C8 1_555 1_555
H12 C12 1_555 1_555
C13 C12 1_555 1_555
H13 C13 1_555 1_555
C14 C11 1_555 1_555
C15 C14 1_555 1_555
C16 C15 1_555 1_555
C17 C16 1_555 1_555
H14 C17 1_555 1_555
C18 C17 1_555 1_555
H15 C18 1_555 1_555
C19 C18 1_555 1_555
C20 C19 1_555 1_555
H16 C20 1_555 1_555
C21 C16 1_555 1_555
H17 C21 1_555 1_555
C22 H18 1_555 1_555
H19 C22 1_555 1_555
H20 C22 1_555 1_555
O1 C7 1_555 1_555
O2 C11 1_555 1_555
O3 C15 1_555 1_555
O4 C19 1_555 1_555
C5 C6 1_555 1_555
C8 O1 1_555 1_555
C12 O2 1_555 1_555
C13 C14 1_555 1_555
C20 C21 1_555 1_555
C22 O4 1_555 1_555

#END
