
#######################################################################
#
#                 Cambridge Crystallographic Data Centre
#                                CCDC 
#
#######################################################################
#
# If this CIF has been generated from an entry in the Cambridge 
# Structural Database, then it will include bibliographic, chemical, 
# crystal, experimental, refinement or atomic coordinate data resulting 
# from the CCDC's data processing and validation procedures.
#
#######################################################################

data_NAYPAH
_chemical_formula_moiety         'C27 H28 N4 O7'
_chemical_name_systematic        
14-(benzyloxy)-9-((2,4-dinitrophenyl)hydrazono)-15-oxatetracyclo[9.3.1.0^2,10^.0^3,8^]pentadec-12-en-10-ol
_symmetry_cell_setting           orthorhombic
_symmetry_space_group_name_H-M   'P 21 21 21'
_symmetry_Int_Tables_number      19
_space_group_name_Hall           'P 2ac 2ab'
loop_
_symmetry_equiv_pos_site_id
_symmetry_equiv_pos_as_xyz
1 x,y,z
2 1/2-x,-y,1/2+z
3 -x,1/2+y,1/2-z
4 1/2+x,1/2-y,-z
_cell_length_a                   5.5338(6)
_cell_length_b                   16.6117(17)
_cell_length_c                   26.533(3)
_cell_angle_alpha                90
_cell_angle_beta                 90
_cell_angle_gamma                90
_cell_volume                     2439.07
_exptl_crystal_colour            yellow
_exptl_crystal_description       block
_cell_formula_units_Z            4
loop_
_atom_site_label
_atom_site_type_symbol
_atom_site_fract_x
_atom_site_fract_y
_atom_site_fract_z
C1 C 0.2035(6) 0.4681(2) 0.57680(13)
C2 C 0.3432(7) 0.3879(2) 0.56889(14)
H1 H 0.4105 0.367 0.6013
C3 C 0.1836(7) 0.3267(2) 0.54376(14)
H2 H 0.1048 0.2866 0.5633
C4 C 0.1530(7) 0.3286(2) 0.49413(14)
H3 H 0.0576 0.2882 0.4784
C5 C 0.2655(7) 0.3930(2) 0.46238(13)
H4 H 0.1324 0.4226 0.4448
C6 C 0.4026(7) 0.4540(2) 0.49560(13)
H5 H 0.5165 0.4868 0.4747
C7 C 0.2243(7) 0.5091(2) 0.52424(13)
H6 H 0.0638 0.5103 0.507
C8 C 0.3153(7) 0.5949(2) 0.53456(13)
H7 H 0.4122 0.6152 0.5054
C9 C 0.1014(7) 0.6504(2) 0.54470(14)
H8 H 0.0146 0.6604 0.5127
H9 H -0.0118 0.6233 0.568
C10 C 0.1765(8) 0.7309(2) 0.56739(16)
H10 H 0.032 0.7649 0.5727
H11 H 0.2862 0.7594 0.5439
C11 C 0.3045(8) 0.7168(2) 0.61747(15)
H12 H 0.1934 0.6895 0.6412
H13 H 0.3511 0.7692 0.6324
C12 C 0.5294(8) 0.6652(2) 0.60960(14)
H14 H 0.6013 0.6525 0.6428
H15 H 0.6499 0.6965 0.5901
C13 C 0.4756(7) 0.5867(2) 0.58171(13)
H16 H 0.6334 0.5629 0.5709
C14 C 0.3422(7) 0.5237(2) 0.61186(13)
C15 C 0.4207(8) 0.4037(2) 0.38005(14)
H17 H 0.49 0.4572 0.3878
H18 H 0.2547 0.4116 0.3671
C16 C 0.5731(7) 0.3623(2) 0.34054(14)
C17 C 0.7854(7) 0.3215(2) 0.35253(15)
H19 H 0.8345 0.3171 0.3867
C18 C 0.9259(8) 0.2873(3) 0.31479(17)
H20 H 1.0683 0.2583 0.3232
C19 C 0.8572(8) 0.2956(3) 0.26457(16)
H21 H 0.9549 0.2733 0.2387
C20 C 0.6473(8) 0.3363(3) 0.25231(15)
H22 H 0.6004 0.3416 0.218
C21 C 0.5052(8) 0.3693(2) 0.29016(14)
H23 H 0.3604 0.3969 0.2816
C22 C 0.2854(7) 0.4462(2) 0.73306(13)
C23 C 0.1433(7) 0.3954(2) 0.76467(13)
C24 C 0.1966(7) 0.3854(2) 0.81571(14)
H24 H 0.0987 0.352 0.8364
C25 C 0.3931(8) 0.4247(2) 0.83547(13)
C26 C 0.5401(7) 0.4736(2) 0.80578(14)
H25 H 0.6766 0.4996 0.8201
C27 C 0.4869(7) 0.4840(2) 0.75590(14)
H26 H 0.5879 0.5175 0.736
N1 N 0.3633(6) 0.52020(19) 0.65989(11)
N2 N 0.2355(6) 0.45917(19) 0.68395(12)
H27 H 0.104(10) 0.434(3) 0.6690(17)
N3 N -0.0665(6) 0.35312(19) 0.74593(11)
N4 N 0.4462(7) 0.4160(2) 0.88891(12)
O1 O 0.5325(5) 0.41099(15) 0.53460(9)
O2 O -0.0342(5) 0.45713(16) 0.59632(9)
H28 H -0.1248 0.4394 0.5735
O3 O 0.4133(5) 0.35622(15) 0.42473(9)
O4 O -0.1192(6) 0.35827(19) 0.70068(10)
O5 O -0.1883(6) 0.31391(17) 0.77583(11)
O6 O 0.3043(6) 0.3781(2) 0.91545(10)
O7 O 0.6299(6) 0.4480(2) 0.90560(11)
loop_
_geom_bond_atom_site_label_1
_geom_bond_atom_site_label_2
_geom_bond_site_symmetry_1
_geom_bond_site_symmetry_2
C1 C2 1_555 1_555
C2 H1 1_555 1_555
C3 C2 1_555 1_555
H2 C3 1_555 1_555
C4 C3 1_555 1_555
H3 C4 1_555 1_555
C5 C4 1_555 1_555
H4 C5 1_555 1_555
C6 C5 1_555 1_555
H5 C6 1_555 1_555
C7 C1 1_555 1_555
H6 C7 1_555 1_555
C8 C7 1_555 1_555
H7 C8 1_555 1_555
C9 C8 1_555 1_555
H8 C9 1_555 1_555
H9 C9 1_555 1_555
C10 C9 1_555 1_555
H10 C10 1_555 1_555
H11 C10 1_555 1_555
C11 C10 1_555 1_555
H12 C11 1_555 1_555
H13 C11 1_555 1_555
C12 C11 1_555 1_555
H14 C12 1_555 1_555
H15 C12 1_555 1_555
C13 C8 1_555 1_555
H16 C13 1_555 1_555
C14 C1 1_555 1_555
C15 H17 1_555 1_555
H18 C15 1_555 1_555
C16 C15 1_555 1_555
C17 C16 1_555 1_555
H19 C17 1_555 1_555
C18 C17 1_555 1_555
H20 C18 1_555 1_555
C19 C18 1_555 1_555
H21 C19 1_555 1_555
C20 C19 1_555 1_555
H22 C20 1_555 1_555
C21 C16 1_555 1_555
H23 C21 1_555 1_555
C22 C23 1_555 1_555
C23 C24 1_555 1_555
C24 H24 1_555 1_555
C25 C24 1_555 1_555
C26 C25 1_555 1_555
H25 C26 1_555 1_555
C27 C22 1_555 1_555
H26 C27 1_555 1_555
N1 C14 1_555 1_555
N2 C22 1_555 1_555
H27 N2 1_555 1_555
N3 C23 1_555 1_555
N4 C25 1_555 1_555
O1 C2 1_555 1_555
O2 C1 1_555 1_555
H28 O2 1_555 1_555
O3 C5 1_555 1_555
O4 N3 1_555 1_555
O5 N3 1_555 1_555
O6 N4 1_555 1_555
O7 N4 1_555 1_555
C6 C7 1_555 1_555
C6 O1 1_555 1_555
C12 C13 1_555 1_555
C13 C14 1_555 1_555
C15 O3 1_555 1_555
C20 C21 1_555 1_555
C26 C27 1_555 1_555
N1 N2 1_555 1_555

#END
