
#######################################################################
#
#                 Cambridge Crystallographic Data Centre
#                                CCDC 
#
#######################################################################
#
# If this CIF has been generated from an entry in the Cambridge 
# Structural Database, then it will include bibliographic, chemical, 
# crystal, experimental, refinement or atomic coordinate data resulting 
# from the CCDC's data processing and validation procedures.
#
#######################################################################

data_NAYZIY
_chemical_formula_moiety         'C36 H44 Mg1 N4 O10 S2,C12 H8 N2,2(H2 O1)'
_chemical_name_systematic        
'Diaqua-(1,10-phenanthroline)-bis(N-(phenylsulfonyl)leucinato)-magnesium 1,10-phenanthroline dihydrate'
_symmetry_cell_setting           triclinic
_symmetry_space_group_name_H-M   'P 1'
_symmetry_Int_Tables_number      1
_space_group_name_Hall           'P 1'
loop_
_symmetry_equiv_pos_site_id
_symmetry_equiv_pos_as_xyz
1 x,y,z
_cell_length_a                   7.2772(15)
_cell_length_b                   14.279(3)
_cell_length_c                   14.418(3)
_cell_angle_alpha                63.53(3)
_cell_angle_beta                 79.75(3)
_cell_angle_gamma                81.83(3)
_cell_volume                     1316.37
_exptl_crystal_colour            colorless
_exptl_crystal_description       block
_cell_formula_units_Z            1
loop_
_atom_site_label
_atom_site_type_symbol
_atom_site_fract_x
_atom_site_fract_y
_atom_site_fract_z
S1 S 0.52901(14) 0.42554(9) 0.33767(7)
S2 S 0.36569(15) 0.87949(8) 0.78520(8)
Mg1 Mg 0.43235(13) 0.47857(7) 0.73726(7)
O1 O 0.4748(3) 0.4955(2) 0.58739(17)
O2 O 0.7685(4) 0.5349(3) 0.5262(2)
O3 O 0.3743(5) 0.3789(3) 0.3303(3)
O4 O 0.6450(5) 0.4862(3) 0.2445(2)
O5 O 0.4082(3) 0.63070(18) 0.7114(2)
O6 O 0.1229(4) 0.6946(2) 0.6679(3)
O7 O 0.5180(5) 0.8909(3) 0.8280(3)
O8 O 0.2534(5) 0.9709(2) 0.7259(3)
O9 O 0.1459(3) 0.48540(18) 0.73396(18)
H1 H 0.101(4) 0.5487(11) 0.716(3)
H2 H 0.092(4) 0.444(2) 0.7928(17)
O10 O 0.7221(3) 0.47584(18) 0.73174(17)
H3 H 0.774(4) 0.500(3) 0.6680(11)
H4 H 0.771(4) 0.4155(14) 0.766(3)
C1 C 0.8635(7) 0.3332(5) 0.4082(4)
H9 H 0.9166 0.3945 0.3589
C2 C 0.9752(8) 0.2501(6) 0.4727(6)
H10 H 1.1030 0.2565 0.4648
C3 C 0.9039(10) 0.1619(5) 0.5451(5)
H11 H 0.9811 0.1077 0.5875
C4 C 0.7148(10) 0.1513(5) 0.5568(5)
H12 H 0.6649 0.0895 0.6072
C5 C 0.5990(8) 0.2310(4) 0.4950(4)
H13 H 0.4713 0.2234 0.5042
C6 C 0.6746(6) 0.3241(3) 0.4178(3)
C7 C 0.5589(5) 0.5699(3) 0.4051(2)
H14 H 0.6759 0.5772 0.3575
C8 C 0.6056(4) 0.5280(3) 0.5148(2)
C9 C 0.4562(8) 0.6760(4) 0.3754(3)
H15 H 0.5211 0.7177 0.3953
H16 H 0.3318 0.6676 0.4145
C10 C 0.4384(12) 0.7356(5) 0.2583(5)
H17 H 0.4073 0.6862 0.2342
C11 C 0.2787(14) 0.8223(7) 0.2409(8)
H18 H 0.2931 0.8624 0.2775
H19 H 0.1607 0.7911 0.2668
H20 H 0.2827 0.8676 0.1676
C12 C 0.6121(14) 0.7847(6) 0.1936(6)
H21 H 0.7191 0.7430 0.2252
H22 H 0.6109 0.8540 0.1889
H23 H 0.6185 0.7889 0.1248
C13 C 0.2762(9) 0.7339(5) 0.9862(4)
H24 H 0.3980 0.7367 0.9957
C14 C 0.1568(13) 0.6677(7) 1.0669(5)
H25 H 0.1985 0.6249 1.1311
C15 C -0.0227(13) 0.6647(6) 1.0531(6)
H26 H -0.1039 0.6213 1.1084
C16 C -0.0833(9) 0.7255(7) 0.9582(6)
H27 H -0.2049 0.7218 0.9489
C17 C 0.0333(8) 0.7918(5) 0.8763(5)
H28 H -0.0090 0.8331 0.8120
C18 C 0.2124(6) 0.7966(3) 0.8903(3)
C19 C 0.3421(5) 0.8152(3) 0.6396(3)
H29 H 0.2297 0.8635 0.6327
C20 C 0.2846(5) 0.7049(2) 0.6768(3)
C21 C 0.4603(8) 0.8463(3) 0.5326(4)
H30 H 0.3970 0.8292 0.4889
H31 H 0.5796 0.8053 0.5415
C22 C 0.4963(12) 0.9634(5) 0.4766(5)
H32 H 0.5319 0.9833 0.5275
C23 C 0.3273(15) 1.0326(5) 0.4333(7)
H33 H 0.2253 1.0209 0.4886
H34 H 0.2928 1.0163 0.3811
H35 H 0.3558 1.1047 0.4024
C24 C 0.6529(14) 0.9825(7) 0.3916(7)
H36 H 0.6352 0.9481 0.3501
H37 H 0.7684 0.9552 0.4208
H38 H 0.6571 1.0565 0.3485
C25 C 0.4044(5) 0.2522(3) 0.7538(3)
H39 H 0.3932 0.2869 0.6829
C26 C 0.4026(6) 0.1423(3) 0.8039(4)
H40 H 0.3899 0.1053 0.7665
C27 C 0.4190(6) 0.0917(3) 0.9050(4)
H41 H 0.4195 0.0189 0.9382
C28 C 0.4358(5) 0.1476(3) 0.9627(3)
C29 C 0.4343(4) 0.2561(2) 0.9079(2)
C30 C 0.4431(4) 0.3189(3) 0.9621(2)
C31 C 0.4632(5) 0.2689(4) 1.0689(3)
C32 C 0.4702(7) 0.1575(5) 1.1212(4)
H42 H 0.4833 0.1240 1.1920
C33 C 0.4581(7) 0.0995(4) 1.0703(4)
H43 H 0.4645 0.0267 1.1064
C34 C 0.4744(6) 0.3348(5) 1.1169(3)
H44 H 0.4886 0.3055 1.1874
C35 C 0.4647(7) 0.4380(5) 1.0621(3)
H45 H 0.4723 0.4810 1.0941
C36 C 0.4426(6) 0.4829(4) 0.9551(3)
H46 H 0.4365 0.5555 0.9176
N1 N 0.4449(4) 0.4986(3) 0.3946(2)
H55 H 0.3285 0.4963 0.4201
N2 N 0.4515(5) 0.8214(2) 0.7127(3)
H56 H 0.5642 0.7933 0.7166
N3 N 0.4214(4) 0.3078(2) 0.8040(2)
N4 N 0.4303(4) 0.4246(2) 0.9064(2)
O11 O 0.7557(4) 0.6642(3) 0.7787(3)
H5 H 0.868(4) 0.678(5) 0.750(5)
H6 H 0.720(8) 0.622(4) 0.759(5)
O12 O 0.1289(4) 0.4277(3) 0.5527(3)
H7 H 0.174(9) 0.442(4) 0.595(4)
H8 H 0.089(9) 0.486(2) 0.506(4)
C37 C 0.8963(6) 0.2112(4) 0.7794(4)
H47 H 0.8831 0.2484 0.7088
C38 C 0.9039(7) 0.1026(4) 0.8232(5)
H48 H 0.8958 0.0688 0.7820
C39 C 0.9229(7) 0.0458(4) 0.9251(5)
H49 H 0.9263 -0.0270 0.9550
C40 C 0.9376(5) 0.0992(3) 0.9860(4)
C41 C 0.9313(4) 0.2099(3) 0.9352(3)
C42 C 0.9483(4) 0.2677(3) 0.9943(3)
C43 C 0.9659(5) 0.2101(4) 1.1008(3)
C44 C 0.9711(7) 0.0980(5) 1.1486(4)
H50 H 0.9826 0.0610 1.2194
C45 C 0.9598(7) 0.0460(4) 1.0932(5)
H51 H 0.9666 -0.0269 1.1257
C46 C 0.9754(7) 0.2685(6) 1.1572(4)
H52 H 0.9859 0.2348 1.2282
C47 C 0.9688(7) 0.3756(6) 1.1050(4)
H53 H 0.9727 0.4156 1.1408
C48 C 0.9565(7) 0.4241(4) 0.9995(4)
H54 H 0.9537 0.4969 0.9657
N5 N 0.9069(4) 0.2648(2) 0.8332(2)
N6 N 0.9485(4) 0.3724(3) 0.9435(2)
loop_
_geom_bond_atom_site_label_1
_geom_bond_atom_site_label_2
_geom_bond_site_symmetry_1
_geom_bond_site_symmetry_2
S1 O3 1_555 1_555
S2 O7 1_555 1_555
Mg1 O1 1_555 1_555
O1 C8 1_555 1_555
O2 C8 1_555 1_555
O4 S1 1_555 1_555
O5 Mg1 1_555 1_555
O6 C20 1_555 1_555
O8 S2 1_555 1_555
O9 Mg1 1_555 1_555
H1 O9 1_555 1_555
H2 O9 1_555 1_555
O10 Mg1 1_555 1_555
H3 O10 1_555 1_555
H4 O10 1_555 1_555
O11 H5 1_555 1_555
H6 O11 1_555 1_555
O12 H7 1_555 1_555
H8 O12 1_555 1_555
C1 H9 1_555 1_555
C2 C1 1_555 1_555
H10 C2 1_555 1_555
C3 C2 1_555 1_555
H11 C3 1_555 1_555
C4 C3 1_555 1_555
H12 C4 1_555 1_555
C5 C4 1_555 1_555
H13 C5 1_555 1_555
C6 S1 1_555 1_555
C7 H14 1_555 1_555
C8 C7 1_555 1_555
C9 C7 1_555 1_555
H15 C9 1_555 1_555
H16 C9 1_555 1_555
C10 C9 1_555 1_555
H17 C10 1_555 1_555
C11 C10 1_555 1_555
H18 C11 1_555 1_555
H19 C11 1_555 1_555
H20 C11 1_555 1_555
C12 C10 1_555 1_555
H21 C12 1_555 1_555
H22 C12 1_555 1_555
H23 C12 1_555 1_555
C13 H24 1_555 1_555
C14 C13 1_555 1_555
H25 C14 1_555 1_555
C15 C14 1_555 1_555
H26 C15 1_555 1_555
C16 C15 1_555 1_555
H27 C16 1_555 1_555
C17 C16 1_555 1_555
H28 C17 1_555 1_555
C18 S2 1_555 1_555
C19 H29 1_555 1_555
C20 O5 1_555 1_555
C21 C19 1_555 1_555
H30 C21 1_555 1_555
H31 C21 1_555 1_555
C22 C21 1_555 1_555
H32 C22 1_555 1_555
C23 C22 1_555 1_555
H33 C23 1_555 1_555
H34 C23 1_555 1_555
H35 C23 1_555 1_555
C24 C22 1_555 1_555
H36 C24 1_555 1_555
H37 C24 1_555 1_555
H38 C24 1_555 1_555
C25 H39 1_555 1_555
C26 C25 1_555 1_555
H40 C26 1_555 1_555
C27 C26 1_555 1_555
H41 C27 1_555 1_555
C28 C27 1_555 1_555
C29 C28 1_555 1_555
C30 C29 1_555 1_555
C31 C30 1_555 1_555
C32 C31 1_555 1_555
H42 C32 1_555 1_555
C33 C28 1_555 1_555
H43 C33 1_555 1_555
C34 C31 1_555 1_555
H44 C34 1_555 1_555
C35 C34 1_555 1_555
H45 C35 1_555 1_555
C36 C35 1_555 1_555
H46 C36 1_555 1_555
C37 H47 1_555 1_555
C38 C37 1_555 1_555
H48 C38 1_555 1_555
C39 C38 1_555 1_555
H49 C39 1_555 1_555
C40 C39 1_555 1_555
C41 C40 1_555 1_555
C42 C41 1_555 1_555
C43 C42 1_555 1_555
C44 C43 1_555 1_555
H50 C44 1_555 1_555
C45 C40 1_555 1_555
H51 C45 1_555 1_555
C46 C43 1_555 1_555
H52 C46 1_555 1_555
C47 C46 1_555 1_555
H53 C47 1_555 1_555
C48 C47 1_555 1_555
H54 C48 1_555 1_555
N1 S1 1_555 1_555
H55 N1 1_555 1_555
N2 S2 1_555 1_555
H56 N2 1_555 1_555
N3 Mg1 1_555 1_555
N4 Mg1 1_555 1_555
N5 C37 1_555 1_555
N6 C42 1_555 1_555
C1 C6 1_555 1_555
C5 C6 1_555 1_555
C7 N1 1_555 1_555
C13 C18 1_555 1_555
C17 C18 1_555 1_555
C19 C20 1_555 1_555
C19 N2 1_555 1_555
C25 N3 1_555 1_555
C29 N3 1_555 1_555
C30 N4 1_555 1_555
C32 C33 1_555 1_555
C36 N4 1_555 1_555
C41 N5 1_555 1_555
C44 C45 1_555 1_555
C48 N6 1_555 1_555

#END
