
#######################################################################
#
#                 Cambridge Crystallographic Data Centre
#                                CCDC 
#
#######################################################################
#
# If this CIF has been generated from an entry in the Cambridge 
# Structural Database, then it will include bibliographic, chemical, 
# crystal, experimental, refinement or atomic coordinate data resulting 
# from the CCDC's data processing and validation procedures.
#
#######################################################################

data_NAZFIF
_chemical_formula_moiety         'C49 H50 O6'
_chemical_name_systematic        
2,3,4,6-Tetra-O-(phenylmethyl)-1-C-[3-[(4-ethylphenyl)methyl]phenyl]glucopyranose
_symmetry_cell_setting           monoclinic
_symmetry_space_group_name_H-M   'P 21'
_symmetry_Int_Tables_number      4
_space_group_name_Hall           'P 2yb'
loop_
_symmetry_equiv_pos_site_id
_symmetry_equiv_pos_as_xyz
1 x,y,z
2 -x,1/2+y,-z
_cell_length_a                   17.6890
_cell_length_b                   5.6980
_cell_length_c                   20.3330
_cell_angle_alpha                90
_cell_angle_beta                 96.670
_cell_angle_gamma                90
_cell_volume                     2035.53
_cell_formula_units_Z            2
loop_
_atom_site_label
_atom_site_type_symbol
_atom_site_fract_x
_atom_site_fract_y
_atom_site_fract_z
O1 O 0.381592 0.706564 0.364361
O2 O 0.217050 0.487238 0.438810
O3 O 0.244725 0.672021 0.215476
O4 O 0.181853 0.358605 0.300686
O5 O 0.317064 0.998275 0.300501
C1 C 0.348785 0.764134 0.301240
C2 C 0.269501 0.496773 0.391776
O6 O 0.409415 0.857000 0.501292
C3 C 0.464173 0.573911 0.266090
C4 C 0.413412 0.761058 0.257128
C5 C 0.286105 0.587771 0.275324
C6 C 0.326291 0.691830 0.411978
C7 C 0.231193 0.549408 0.325683
C8 C 0.196702 0.590400 0.103146
C9 C 0.208446 0.256477 0.467274
C10 C 0.420982 0.921875 0.206998
C11 C 0.151946 0.273769 0.517362
C12 C 0.054421 0.227270 0.257384
C13 C 0.474743 0.902632 0.165180
C14 C 0.521463 0.558190 0.224041
C15 C 0.423325 1.088190 0.054746
C16 C 0.391521 0.788432 0.617734
C17 C 0.087469 0.045452 0.227091
C18 C 0.412159 0.904022 0.010920
C19 C 0.372849 0.644274 0.479164
C20 C 0.357437 0.916373 -0.041780
C21 C -0.019155 0.280220 0.247912
C22 C 0.526103 0.717314 0.174349
C23 C 0.039071 -0.106948 0.185864
C24 C 0.333031 0.945408 0.621881
C25 C 0.397617 0.591628 0.657548
C26 C 0.285356 0.713679 0.704741
C27 C 0.156873 0.449180 0.562539
C28 C 0.095006 0.103246 0.519572
C29 C 0.373261 1.272614 0.045306
C30 C 0.278778 0.905396 0.668466
C31 C 0.106223 0.456950 0.607537
C32 C 0.103779 0.396439 0.303368
C33 C 0.447334 0.840234 0.566643
C34 C 0.097872 0.629667 0.002154
C35 C -0.066297 0.134059 0.206254
C36 C -0.037712 -0.056549 0.176638
C37 C 0.344763 0.564778 0.699953
C38 C 0.309500 1.113753 -0.051721
C39 C 0.486398 1.073236 0.111890
C40 C 0.195842 0.779931 0.064303
C41 C 0.051771 0.294191 0.611319
C42 C 0.085506 0.440706 0.043874
C43 C 0.141326 0.434214 0.084602
C44 C 0.323967 1.290709 -0.003640
C45 C 0.261449 0.556574 0.159916
C46 C 0.046808 0.116248 0.567408
C47 C 0.153429 0.833290 0.014847
C48 C 0.248141 1.219601 -0.157364
C49 C 0.244243 1.116175 -0.109573
H1 H 0.303200 0.344100 0.393400
H2 H 0.312700 0.432300 0.264400
H3 H 0.293400 0.874700 0.408900
H4 H 0.195900 0.714400 0.330400
H5 H 0.188800 0.140600 0.428600
H6 H 0.263800 0.205900 0.490900
H7 H 0.148500 0.022800 0.235600
H8 H 0.450300 0.761500 0.018400
H9 H 0.415000 0.517400 0.472100
H10 H 0.336200 0.587300 0.514200
H11 H 0.353000 0.769200 -0.075300
H12 H -0.043000 0.444500 0.273500
H13 H 0.062100 -0.249200 0.161300
H14 H 0.327600 1.107800 0.588100
H15 H 0.442900 0.470400 0.653800
H16 H 0.239700 0.692200 0.737900
H17 H 0.202600 0.591900 0.563700
H18 H 0.088000 -0.026800 0.482600
H19 H 0.375100 1.429600 0.081800
H20 H 0.233700 1.053200 0.674200
H21 H 0.108200 0.607500 0.644700
H22 H 0.090600 0.379600 0.354600
H23 H 0.088400 0.587200 0.290000
H24 H 0.490700 0.707200 0.568300
H25 H 0.480000 1.011900 0.579400
H26 H -0.127600 0.186600 0.193500
H27 H -0.076600 -0.159500 0.145300
H28 H 0.348900 0.419600 0.734800
H29 H 0.495500 1.255500 0.133500
H30 H 0.540700 1.033400 0.092000
H31 H 0.011300 0.315400 0.649600
H32 H 0.284100 1.453300 -0.019200
H33 H -0.000300 0.005000 0.568000
H34 H 0.269900 1.001800 0.266000
H35 H 0.062800 0.639900 -0.044900
H36 H 0.244100 0.898400 0.081900
H37 H 0.037100 0.321100 0.039800
H38 H 0.149900 0.264300 0.115000
H39 H 0.314700 0.628700 0.144300
H40 H 0.271000 0.370600 0.169300
H41 H 0.162300 1.001700 -0.012700
H42 H 0.198300 1.191100 -0.194200
H43 H 0.247600 1.403500 -0.142600
H44 H 0.298500 1.183900 -0.179900
H45 H 0.241800 0.921100 -0.129700
H46 H 0.190900 1.140700 -0.092400
H47 H 0.459700 0.442000 0.304100
H48 H 0.563000 0.415600 0.230500
H49 H 0.570200 0.693700 0.141200
H50 H 0.381500 1.066300 0.200800
loop_
_geom_bond_atom_site_label_1
_geom_bond_atom_site_label_2
_geom_bond_site_symmetry_1
_geom_bond_site_symmetry_2
O1 C1 1_555 1_555
O2 C2 1_555 1_555
O3 C5 1_555 1_555
O4 C7 1_555 1_555
O5 C1 1_555 1_555
C1 C4 1_555 1_555
C2 C6 1_555 1_555
O6 C19 1_555 1_555
C3 C4 1_555 1_555
C4 C10 1_555 1_555
C5 C1 1_555 1_555
C6 O1 1_555 1_555
C7 C2 1_555 1_555
C8 C40 1_555 1_555
C9 O2 1_555 1_555
C10 C13 1_555 1_555
C11 C9 1_555 1_555
C12 C17 1_555 1_555
C13 C22 1_555 1_555
C14 C3 1_555 1_555
C15 C18 1_555 1_555
C16 C24 1_555 1_555
C17 C23 1_555 1_555
C18 C20 1_555 1_555
C19 C6 1_555 1_555
C20 C38 1_555 1_555
C21 C12 1_555 1_555
C22 C14 1_555 1_555
C23 C36 1_555 1_555
C24 C30 1_555 1_555
C25 C16 1_555 1_555
C26 C30 1_555 1_555
C27 C11 1_555 1_555
C28 C11 1_555 1_555
C29 C15 1_555 1_555
C30 H20 1_555 1_555
C31 C27 1_555 1_555
C32 O4 1_555 1_555
C33 O6 1_555 1_555
C34 C42 1_555 1_555
C35 C21 1_555 1_555
C36 C35 1_555 1_555
C37 C25 1_555 1_555
C38 C44 1_555 1_555
C39 C13 1_555 1_555
C40 C47 1_555 1_555
C41 C31 1_555 1_555
C42 C43 1_555 1_555
C43 C8 1_555 1_555
C44 C29 1_555 1_555
C45 O3 1_555 1_555
C46 C28 1_555 1_555
C47 C34 1_555 1_555
C48 C49 1_555 1_555
C49 C38 1_555 1_555
H1 C2 1_555 1_555
H2 C5 1_555 1_555
H3 C6 1_555 1_555
H4 C7 1_555 1_555
H5 C9 1_555 1_555
H6 C9 1_555 1_555
H7 C17 1_555 1_555
H8 C18 1_555 1_555
H9 C19 1_555 1_555
H10 C19 1_555 1_555
H11 C20 1_555 1_555
H12 C21 1_555 1_555
H13 C23 1_555 1_555
H14 C24 1_555 1_555
H15 C25 1_555 1_555
H16 C26 1_555 1_555
H17 C27 1_555 1_555
H18 C28 1_555 1_555
H19 C29 1_555 1_555
H21 C31 1_555 1_555
H22 C32 1_555 1_555
H23 C32 1_555 1_555
H24 C33 1_555 1_555
H25 C33 1_555 1_555
H26 C35 1_555 1_555
H27 C36 1_555 1_555
H28 C37 1_555 1_555
H29 C39 1_555 1_555
H30 C39 1_555 1_555
H31 C41 1_555 1_555
H32 C44 1_555 1_555
H33 C46 1_555 1_555
H34 O5 1_555 1_555
H35 C34 1_555 1_555
H36 C40 1_555 1_555
H37 C42 1_555 1_555
H38 C43 1_555 1_555
H39 C45 1_555 1_555
H40 C45 1_555 1_555
H41 C47 1_555 1_555
H42 C48 1_555 1_555
H43 C48 1_555 1_555
H44 C48 1_555 1_555
H45 C49 1_555 1_555
H46 C49 1_555 1_555
H47 C3 1_555 1_555
H48 C14 1_555 1_555
H49 C22 1_555 1_555
H50 C10 1_555 1_555
C5 C7 1_555 1_555
C8 C45 1_555 1_555
C12 C32 1_555 1_555
C15 C39 1_555 1_555
C16 C33 1_555 1_555
C26 C37 1_555 1_555
C41 C46 1_555 1_555

#END
