
#######################################################################
#
#                 Cambridge Crystallographic Data Centre
#                                CCDC 
#
#######################################################################
#
# If this CIF has been generated from an entry in the Cambridge 
# Structural Database, then it will include bibliographic, chemical, 
# crystal, experimental, refinement or atomic coordinate data resulting 
# from the CCDC's data processing and validation procedures.
#
#######################################################################

data_NAZGEC
_chemical_formula_moiety         'C21 H26 O5,C9 H11 N1 O2,H2 O1'
_chemical_name_systematic        
'(2S,3R,4R,5S,6R)-2-(3-(4-Ethylbenzyl)-phenyl)-6-hydroxymethyl-tetrahydro-2H-pyran-3,4,5-triol L-phenylalanine monohydrate'
_symmetry_cell_setting           monoclinic
_symmetry_space_group_name_H-M   'P 21'
_symmetry_Int_Tables_number      4
_space_group_name_Hall           'P 2yb'
loop_
_symmetry_equiv_pos_site_id
_symmetry_equiv_pos_as_xyz
1 x,y,z
2 -x,1/2+y,-z
_cell_length_a                   5.9040
_cell_length_b                   39.8540
_cell_length_c                   11.5280
_cell_angle_alpha                90
_cell_angle_beta                 90.710
_cell_angle_gamma                90
_cell_volume                     2712.31
_cell_formula_units_Z            4
loop_
_atom_site_label
_atom_site_type_symbol
_atom_site_fract_x
_atom_site_fract_y
_atom_site_fract_z
O1 O 0.67303 0.12638 0.60508
O2 O 0.96394 0.20744 0.64368
O3 O 0.92017 0.11032 0.89248
O4 O 0.46853 0.15980 0.42082
O5 O 1.18950 0.16504 0.80938
C1 C 0.91278 0.12236 0.77624
C2 C 0.67408 0.11622 0.72558
C3 C 0.96495 0.16007 0.76930
C4 C 0.56050 -0.00853 0.30189
C5 C 0.70480 0.16218 0.59502
C6 C 0.66116 0.02047 0.67448
C7 C 0.68762 0.16996 0.46619
C8 C 0.95366 0.01014 0.41510
C9 C 0.72983 0.05472 0.67049
C10 C 0.41599 0.06993 0.79021
C11 C 0.93262 0.01438 0.29443
C12 C 0.93784 0.17141 0.64316
C13 C 0.60743 0.07989 0.72905
C14 C 0.78039 -0.00256 0.47817
C15 C 0.73478 0.00580 0.23848
C16 C 0.46985 0.01277 0.73443
C17 C 0.79597 -0.00565 0.61098
C18 C 0.57709 -0.01197 0.42030
C19 C 0.86707 0.03415 0.04962
C20 C 0.34593 0.03658 0.79281
C21 C 0.70180 0.01154 0.10740
H1 H 1.03569 0.10909 0.72471
H2 H 0.55004 0.13180 0.77216
H3 H 0.84841 0.17410 0.82508
H4 H 0.40714 -0.01641 0.25669
H5 H 0.57365 0.17588 0.64212
H6 H 0.81966 0.15709 0.42126
H7 H 0.70847 0.19708 0.45301
H8 H 1.11158 0.01701 0.45943
H9 H 0.87769 0.06220 0.62122
H10 H 0.31784 0.08980 0.83618
H11 H 1.07374 0.02489 0.24663
H12 H 1.06596 0.16040 0.58990
H13 H 0.41087 -0.01239 0.73295
H14 H 0.97107 -0.00359 0.63735
H15 H 0.73032 -0.02981 0.63501
H16 H 0.43752 -0.02140 0.46940
H17 H 0.82862 0.03651 -0.04164
H18 H 0.86124 0.05929 0.08848
H19 H 1.03858 0.02469 0.06064
H20 H 0.19603 0.02971 0.84208
H21 H 0.71517 -0.01209 0.06506
H22 H 0.53783 0.02251 0.09300
H23 H 0.35747 0.17849 0.43011
H24 H 1.04520 0.21439 0.57186
H25 H 1.23930 0.18810 0.78838
H26 H 0.93300 0.12979 0.94696
O6 O 0.18391 0.21675 0.44616
H27 H 0.27165 0.23798 0.43948
H28 H 0.14540 0.20830 0.36669
O7 O 0.17013 0.30269 0.82170
O8 O 0.67548 0.26372 0.61523
O9 O 0.39177 0.31771 0.53152
O10 O 0.46479 0.22170 0.78413
O11 O -0.02019 0.27009 1.00613
C22 C 0.43594 0.25720 0.78179
C23 C 0.45478 0.26954 0.65756
C24 C 0.39595 0.30647 0.64828
C25 C 0.20445 0.26696 0.83280
C26 C -0.10030 0.35743 0.62859
C27 C 0.16333 0.31247 0.70163
C28 C -0.17600 0.39063 0.62226
C29 C 0.09069 0.34883 0.69547
C30 C 0.20820 0.37349 0.75715
C31 C 0.19366 0.25976 0.96119
C32 C -0.17151 0.42071 0.38101
C33 C -0.39041 0.39818 0.55320
C34 C -0.54591 0.39876 0.35012
C35 C -0.34789 0.43428 0.06367
C36 C 0.13607 0.40671 0.75099
C37 C -0.06085 0.41552 0.68402
C38 C -0.34672 0.42312 0.18885
C39 C -0.53939 0.40731 0.23457
C40 C -0.36317 0.40555 0.42612
C41 C -0.13472 0.44906 0.01822
C42 C -0.16028 0.42909 0.26389
H29 H 0.56390 0.26969 0.83410
H30 H 0.33071 0.25639 0.60508
H31 H 0.52280 0.32108 0.69652
H32 H 0.07274 0.25399 0.78691
H33 H -0.19485 0.33829 0.58496
H34 H 0.03621 0.29807 0.65626
H35 H 0.35698 0.36727 0.80860
H36 H 0.33024 0.27298 1.00552
H37 H 0.21499 0.23319 0.97438
H38 H -0.02665 0.42648 0.43835
H39 H -0.50202 0.37718 0.56067
H40 H -0.47092 0.42018 0.59276
H41 H -0.69788 0.38706 0.38326
H42 H -0.38391 0.41258 0.00998
H43 H -0.48151 0.45267 0.05049
H44 H 0.23419 0.42648 0.79506
H45 H -0.12308 0.44168 0.68116
H46 H -0.68023 0.40167 0.17506
H47 H -0.15250 0.45656 -0.07218
H48 H -0.09169 0.47227 0.06784
H49 H 0.00591 0.43218 0.02724
H50 H -0.00565 0.44038 0.22850
H51 H 0.39522 0.29769 0.47808
H52 H 0.73277 0.24149 0.64499
H53 H 0.54416 0.21510 0.85830
H54 H -0.13584 0.25168 0.99381
O12 O -0.09453 0.15711 0.06931
O13 O 0.06684 0.19056 0.20039
N1 N 0.48471 0.16993 0.17246
C43 C 0.49565 0.08596 0.27474
C44 C 0.48441 0.07530 0.39098
C45 C 0.32107 0.11524 0.10184
C46 C 0.11120 0.10726 0.29035
C47 C 0.30577 0.10277 0.22546
C48 C 0.10422 0.09594 0.40781
C49 C 0.29539 0.08061 0.45457
C50 C 0.07487 0.16858 0.12631
C51 C 0.30681 0.15403 0.09369
H55 H 0.64925 0.08240 0.22442
H56 H 0.62849 0.06310 0.43037
H57 H 0.48199 0.10779 0.06723
H58 H 0.18518 0.10480 0.05084
H59 H -0.03421 0.12058 0.25218
H60 H -0.04751 0.09901 0.45847
H61 H 0.29162 0.07319 0.54358
H62 H 0.33143 0.16238 0.00512
H63 H 0.47356 0.19490 0.16673
H64 H 0.46043 0.16278 0.25418
H65 H 0.63908 0.16258 0.14721
O14 O -0.59085 0.27180 0.35472
O15 O -0.43285 0.23913 0.22043
N2 N -0.01516 0.25925 0.25522
C52 C -0.38825 0.33435 0.01969
C53 C -0.18813 0.27499 0.33104
C54 C -0.19902 0.35076 -0.02793
C55 C -0.38378 0.32346 0.13438
C56 C -0.17284 0.31365 0.32592
C57 C -0.18713 0.32740 0.20421
C58 C -0.00026 0.34373 0.15710
C59 C -0.00797 0.35585 0.04164
C60 C -0.42387 0.26109 0.29764
H66 H -0.54059 0.33099 -0.03201
H67 H -0.16193 0.26718 0.41961
H68 H -0.20186 0.36007 -0.11746
H69 H -0.53094 0.31177 0.17072
H70 H -0.30493 0.32509 0.37606
H71 H -0.00867 0.32168 0.36261
H72 H 0.15173 0.34727 0.20846
H73 H 0.13875 0.36968 0.00807
H74 H -0.02675 0.23409 0.25947
H75 H -0.03935 0.26648 0.17289
H76 H 0.14046 0.26618 0.28176
O16 O -0.31027 0.21291 -0.01961
H77 H -0.23173 0.19249 0.01310
H78 H -0.36523 0.22679 0.04693
loop_
_geom_bond_atom_site_label_1
_geom_bond_atom_site_label_2
_geom_bond_site_symmetry_1
_geom_bond_site_symmetry_2
O1 C2 1_555 1_555
O2 C12 1_555 1_555
O3 C1 1_555 1_555
O4 C7 1_555 1_555
O5 C3 1_555 1_555
C1 C2 1_555 1_555
C2 C13 1_555 1_555
C3 C1 1_555 1_555
C4 C15 1_555 1_555
C5 O1 1_555 1_555
C6 C9 1_555 1_555
C7 C5 1_555 1_555
C8 C11 1_555 1_555
C9 C13 1_555 1_555
C10 C13 1_555 1_555
C11 C15 1_555 1_555
C12 C3 1_555 1_555
C14 C8 1_555 1_555
C15 C21 1_555 1_555
C16 C6 1_555 1_555
C17 C6 1_555 1_555
C18 C4 1_555 1_555
C19 C21 1_555 1_555
C20 C10 1_555 1_555
C21 H21 1_555 1_555
H1 C1 1_555 1_555
H2 C2 1_555 1_555
H3 C3 1_555 1_555
H4 C4 1_555 1_555
H5 C5 1_555 1_555
H6 C7 1_555 1_555
H7 C7 1_555 1_555
H8 C8 1_555 1_555
H9 C9 1_555 1_555
H10 C10 1_555 1_555
H11 C11 1_555 1_555
H12 C12 1_555 1_555
H13 C16 1_555 1_555
H14 C17 1_555 1_555
H15 C17 1_555 1_555
H16 C18 1_555 1_555
H17 C19 1_555 1_555
H18 C19 1_555 1_555
H19 C19 1_555 1_555
H20 C20 1_555 1_555
H22 C21 1_555 1_555
H23 O4 1_555 1_555
H24 O2 1_555 1_555
H25 O5 1_555 1_555
H26 O3 1_555 1_555
O6 H27 1_555 1_555
H28 O6 1_555 1_555
O7 C25 1_555 1_555
O8 C23 1_555 1_555
O9 C24 1_555 1_555
O10 C22 1_555 1_555
O11 C31 1_555 1_555
C22 C23 1_555 1_555
C23 C24 1_555 1_555
C24 C27 1_555 1_555
C25 C22 1_555 1_555
C26 C28 1_555 1_555
C27 O7 1_555 1_555
C28 C33 1_555 1_555
C29 C26 1_555 1_555
C30 C29 1_555 1_555
C31 C25 1_555 1_555
C32 C40 1_555 1_555
C33 C40 1_555 1_555
C34 C39 1_555 1_555
C35 C38 1_555 1_555
C36 C30 1_555 1_555
C37 C28 1_555 1_555
C38 C39 1_555 1_555
C39 H46 1_555 1_555
C40 C34 1_555 1_555
C41 C35 1_555 1_555
C42 C32 1_555 1_555
H29 C22 1_555 1_555
H30 C23 1_555 1_555
H31 C24 1_555 1_555
H32 C25 1_555 1_555
H33 C26 1_555 1_555
H34 C27 1_555 1_555
H35 C30 1_555 1_555
H36 C31 1_555 1_555
H37 C31 1_555 1_555
H38 C32 1_555 1_555
H39 C33 1_555 1_555
H40 C33 1_555 1_555
H41 C34 1_555 1_555
H42 C35 1_555 1_555
H43 C35 1_555 1_555
H44 C36 1_555 1_555
H45 C37 1_555 1_555
H47 C41 1_555 1_555
H48 C41 1_555 1_555
H49 C41 1_555 1_555
H50 C42 1_555 1_555
H51 O9 1_555 1_555
H52 O8 1_555 1_555
H53 O10 1_555 1_555
H54 O11 1_555 1_555
O12 C50 1_555 1_555
O13 C50 1_555 1_555
N1 C51 1_555 1_555
C43 C44 1_555 1_555
C44 C49 1_555 1_555
C45 C47 1_555 1_555
C46 C47 1_555 1_555
C47 C43 1_555 1_555
C48 C46 1_555 1_555
C49 C48 1_555 1_555
C50 C51 1_555 1_555
C51 C45 1_555 1_555
H55 C43 1_555 1_555
H56 C44 1_555 1_555
H57 C45 1_555 1_555
H58 C45 1_555 1_555
H59 C46 1_555 1_555
H60 C48 1_555 1_555
H61 C49 1_555 1_555
H62 C51 1_555 1_555
H63 N1 1_555 1_555
H64 N1 1_555 1_555
H65 N1 1_555 1_555
O14 C60 1_555 1_555
O15 C60 1_555 1_555
N2 C53 1_555 1_555
C52 C54 1_555 1_555
C53 C56 1_555 1_555
C54 C59 1_555 1_555
C55 C52 1_555 1_555
C56 C57 1_555 1_555
C57 C55 1_555 1_555
C58 C57 1_555 1_555
C59 C58 1_555 1_555
C60 C53 1_555 1_555
H66 C52 1_555 1_555
H67 C53 1_555 1_555
H68 C54 1_555 1_555
H69 C55 1_555 1_555
H70 C56 1_555 1_555
H71 C56 1_555 1_555
H72 C58 1_555 1_555
H73 C59 1_555 1_555
H74 N2 1_555 1_555
H75 N2 1_555 1_555
H76 N2 1_555 1_555
O16 H77 1_555 1_555
H78 O16 1_555 1_555
C5 C12 1_555 1_555
C14 C17 1_555 1_555
C14 C18 1_555 1_555
C16 C20 1_555 1_555
C27 C29 1_555 1_555
C36 C37 1_555 1_555
C38 C42 1_555 1_555

#END
