
#######################################################################
#
#                 Cambridge Crystallographic Data Centre
#                                CCDC 
#
#######################################################################
#
# If this CIF has been generated from an entry in the Cambridge 
# Structural Database, then it will include bibliographic, chemical, 
# crystal, experimental, refinement or atomic coordinate data resulting 
# from the CCDC's data processing and validation procedures.
#
#######################################################################

data_NAZGUS
_chemical_formula_moiety         'C21 H26 O5,C5 H9 N1 O2'
_chemical_name_systematic        
'(2S,3R,4R,5S,6R)-2-(3-(4-Ethylbenzyl)-phenyl)-6-hydroxymethyl-tetrahydro-2H-pyran-3,4,5-triol L-proline'
_symmetry_cell_setting           orthorhombic
_symmetry_space_group_name_H-M   'P 21 21 21'
_symmetry_Int_Tables_number      19
_space_group_name_Hall           'P 2ac 2ab'
loop_
_symmetry_equiv_pos_site_id
_symmetry_equiv_pos_as_xyz
1 x,y,z
2 1/2-x,-y,1/2+z
3 -x,1/2+y,1/2-z
4 1/2+x,1/2-y,-z
_cell_length_a                   5.7500
_cell_length_b                   10.0290
_cell_length_c                   43.0710
_cell_angle_alpha                90
_cell_angle_beta                 90
_cell_angle_gamma                90
_cell_volume                     2483.76
_cell_formula_units_Z            4
loop_
_atom_site_label
_atom_site_type_symbol
_atom_site_fract_x
_atom_site_fract_y
_atom_site_fract_z
O1 O 0.40141 0.33497 0.18614
O2 O 0.14228 0.63188 0.14976
C1 C 0.39560 0.45501 0.16707
C2 C 0.45415 0.41630 0.13401
C3 C 0.63678 0.47813 0.11954
O3 O 0.26655 0.13084 0.22877
O4 O -0.11239 0.61044 0.20516
C4 C 0.33015 0.31983 0.11920
C5 C 0.84301 0.65357 0.05995
C6 C 0.99940 0.70923 0.04067
C7 C 0.96180 0.83160 0.02612
C8 C 0.56102 0.35096 0.07349
C9 C 0.15893 0.52081 0.16985
C10 C 0.64682 0.72474 0.06537
C11 C 0.77554 0.90534 0.03344
C12 C 0.69408 0.44496 0.08914
C13 C 0.61275 0.85096 0.05241
C14 C 0.12911 0.42623 0.22253
C15 C 0.43211 0.23310 0.23568
C16 C 0.38736 0.28759 0.08828
C17 C 0.89941 0.51826 0.07453
C18 C 0.36962 0.36478 0.21874
C19 C 0.11258 0.55133 0.20280
C20 C 0.73168 1.04460 0.01826
C21 C 0.92852 1.12829 0.01979
O5 O 0.09038 0.44157 0.25467
H1 H 0.29880 0.21860 0.07680
H2 H 0.59100 0.33020 0.05110
H3 H 0.51870 0.52670 0.17590
H4 H 0.02380 0.44770 0.16310
H5 H -0.00340 0.35540 0.21420
H6 H 0.28070 0.68760 0.15310
H7 H 1.03350 0.52970 0.09170
H8 H 0.96810 0.45210 0.05600
H9 H 0.24060 0.62540 0.21110
H10 H 0.19900 0.27140 0.13010
H11 H 0.72860 0.54860 0.13060
H12 H 0.50310 0.43790 0.22660
H13 H 0.59100 1.09640 0.03040
H14 H 0.68820 1.03400 -0.00560
H15 H 1.15310 0.65960 0.03620
H16 H 1.06710 0.86360 0.00930
H17 H 0.51460 0.68450 0.07930
H18 H 0.46190 0.90520 0.05740
H19 H 0.43330 0.25200 0.26060
H20 H 0.60580 0.20260 0.22870
H21 H -0.15850 0.61550 0.22640
H22 H -0.03070 0.50480 0.25820
H23 H 0.32870 0.07780 0.21210
H24 H 0.90360 1.22560 0.00940
H25 H 0.98430 1.14620 0.04430
H26 H 1.08250 1.08280 0.00840
O6 O 0.34873 0.95417 0.18475
N1 N 0.93885 0.88532 0.15854
C22 C 0.76764 1.09815 0.15727
C23 C 0.75555 0.96876 0.17448
O7 O 0.51264 0.79346 0.15704
C24 C 0.79835 1.05231 0.12375
C25 C 0.96822 0.93524 0.12521
C26 C 0.51724 0.89801 0.17251
H27 H 0.91360 1.16120 0.16460
H28 H 0.60910 1.15800 0.15980
H29 H 0.86490 1.12830 0.10880
H30 H 0.63530 1.01430 0.11450
H31 H 0.79590 0.98020 0.19870
H32 H 0.93810 0.86450 0.10740
H33 H 1.15150 0.97520 0.12160
H34 H 0.89230 0.79220 0.15940
H35 H 1.08210 0.89120 0.17060
loop_
_geom_bond_atom_site_label_1
_geom_bond_atom_site_label_2
_geom_bond_site_symmetry_1
_geom_bond_site_symmetry_2
O1 C1 1_555 1_555
O2 C9 1_555 1_555
C1 C2 1_555 1_555
C2 C3 1_555 1_555
C3 C12 1_555 1_555
O3 C15 1_555 1_555
O4 C19 1_555 1_555
C4 C2 1_555 1_555
C5 C6 1_555 1_555
C6 C7 1_555 1_555
C7 C11 1_555 1_555
C8 C12 1_555 1_555
C9 C1 1_555 1_555
C10 C5 1_555 1_555
C11 C13 1_555 1_555
C12 C17 1_555 1_555
C13 C10 1_555 1_555
C14 C18 1_555 1_555
C15 C18 1_555 1_555
C16 C4 1_555 1_555
C17 C5 1_555 1_555
C18 O1 1_555 1_555
C19 C9 1_555 1_555
C20 C11 1_555 1_555
C21 C20 1_555 1_555
O5 C14 1_555 1_555
H1 C16 1_555 1_555
H2 C8 1_555 1_555
H3 C1 1_555 1_555
H4 C9 1_555 1_555
H5 C14 1_555 1_555
H6 O2 1_555 1_555
H7 C17 1_555 1_555
H8 C17 1_555 1_555
H9 C19 1_555 1_555
H10 C4 1_555 1_555
H11 C3 1_555 1_555
H12 C18 1_555 1_555
H13 C20 1_555 1_555
H14 C20 1_555 1_555
H15 C6 1_555 1_555
H16 C7 1_555 1_555
H17 C10 1_555 1_555
H18 C13 1_555 1_555
H19 C15 1_555 1_555
H20 C15 1_555 1_555
H21 O4 1_555 1_555
H22 O5 1_555 1_555
H23 O3 1_555 1_555
H24 C21 1_555 1_555
H25 C21 1_555 1_555
H26 C21 1_555 1_555
O6 C26 1_555 1_555
N1 C23 1_555 1_555
C22 C23 1_555 1_555
C23 C26 1_555 1_555
O7 C26 1_555 1_555
C24 C22 1_555 1_555
C25 N1 1_555 1_555
H27 C22 1_555 1_555
H28 C22 1_555 1_555
H29 C24 1_555 1_555
H30 C24 1_555 1_555
H31 C23 1_555 1_555
H32 C25 1_555 1_555
H33 C25 1_555 1_555
H34 N1 1_555 1_555
H35 N1 1_555 1_555
C8 C16 1_555 1_555
C14 C19 1_555 1_555
C24 C25 1_555 1_555

#END
