
#######################################################################
#
#                 Cambridge Crystallographic Data Centre
#                                CCDC 
#
#######################################################################
#
# If this CIF has been generated from an entry in the Cambridge 
# Structural Database, then it will include bibliographic, chemical, 
# crystal, experimental, refinement or atomic coordinate data resulting 
# from the CCDC's data processing and validation procedures.
#
#######################################################################

data_NAZGAY
_chemical_formula_moiety         'C21 H26 O5,2(C9 H11 N1 O2),H2 O1'
_chemical_name_systematic        
'(2S,3R,4R,5S,6R)-2-(3-(4-Ethylbenzyl)-phenyl)-6-hydroxymethyl-tetrahydro-2H-pyran-3,4,5-triol bis(L-phenylalanine) monohydrate'
_symmetry_cell_setting           monoclinic
_symmetry_space_group_name_H-M   'P 21'
_symmetry_Int_Tables_number      4
_space_group_name_Hall           'P 2yb'
loop_
_symmetry_equiv_pos_site_id
_symmetry_equiv_pos_as_xyz
1 x,y,z
2 -x,1/2+y,-z
_cell_length_a                   15.5910
_cell_length_b                   5.5410
_cell_length_c                   21.2380
_cell_angle_alpha                90
_cell_angle_beta                 100.740
_cell_angle_gamma                90
_cell_volume                     1802.61
_cell_formula_units_Z            2
loop_
_atom_site_label
_atom_site_type_symbol
_atom_site_fract_x
_atom_site_fract_y
_atom_site_fract_z
O1 O 0.820616 0.107784 0.670373
O2 O 0.623018 0.625883 0.652374
O3 O 0.639220 0.322212 0.543898
O4 O 0.849833 0.159822 0.539387
C1 C 0.751149 0.085071 0.614306
C2 C 0.705105 0.330482 0.601440
C3 C 0.667225 0.394307 0.659617
C4 C 0.853205 -0.280753 0.955654
C5 C 0.861589 0.152355 0.782929
C6 C 0.786651 0.160015 0.727912
C7 C 0.792806 -0.007158 0.560292
C8 C 0.932960 -0.039344 0.881683
C9 C 0.741721 0.407057 0.718243
C10 C 0.938508 -0.228185 0.932885
C11 C 1.002353 0.118864 0.884903
C12 C 0.862210 -0.021742 0.830334
C13 C 0.930428 0.308357 0.786750
C14 C 1.002219 0.287392 0.838068
C15 C 0.821589 -0.122288 0.998481
C16 C 0.694929 -0.402048 1.003694
C17 C 0.805815 -0.491860 0.938625
C18 C 0.743702 -0.184698 1.021290
C19 C 0.729713 -0.544511 0.962351
C20 C 0.608023 -0.475931 1.022396
C21 C 0.590649 -0.348520 1.072512
O5 O 0.709073 0.466887 0.774204
H1 H 0.704300 -0.049400 0.622800
H2 H 0.754500 0.463200 0.595500
H3 H 0.620600 0.255900 0.666700
H4 H 0.737900 0.025000 0.734200
H5 H 0.741800 -0.056500 0.521000
H6 H 0.829500 -0.170500 0.577800
H7 H 0.789700 0.538800 0.709100
H8 H 0.988700 -0.173700 0.974500
H9 H 0.963300 -0.398300 0.915100
H10 H 1.057600 0.107700 0.925400
H11 H 0.806900 -0.144800 0.827800
H12 H 0.930900 0.444900 0.749900
H13 H 1.059500 0.408800 0.839800
H14 H 0.860100 0.041100 1.014400
H15 H 0.829700 -0.626200 0.906100
H16 H 0.718900 -0.054500 1.052800
H17 H 0.695000 -0.712200 0.945900
H18 H 0.556004 -0.446831 0.981803
H19 H 0.611102 -0.665082 1.034886
H20 H 0.529134 -0.407202 1.083668
H21 H 0.641986 -0.377195 1.113579
H22 H 0.586888 -0.158945 1.060497
H23 H 0.610945 0.143781 0.538333
H24 H 0.916460 0.114646 0.560240
H25 H 0.553675 0.597772 0.637338
H26 H 0.653426 0.585097 0.761696
O6 O 0.312254 -0.487839 0.598017
N1 N 0.322094 0.001332 0.573692
O7 O 0.456666 -0.501956 0.615899
C22 C 0.390827 -0.119718 0.623694
C23 C 0.370638 -0.055118 0.690413
C24 C 0.386199 -0.396819 0.611843
C25 C 0.450448 -0.316027 0.781441
C26 C 0.445721 -0.108620 0.743878
C27 C 0.584752 0.021287 0.808624
C28 C 0.514964 0.063305 0.757868
C29 C 0.520805 -0.355077 0.831379
C30 C 0.587839 -0.185201 0.845306
H27 H 0.455400 -0.052600 0.620600
H28 H 0.354100 0.134700 0.691700
H29 H 0.313300 -0.159400 0.697900
H30 H 0.397700 -0.451500 0.770400
H31 H 0.636700 0.158500 0.819000
H32 H 0.511500 0.226000 0.728400
H33 H 0.523900 -0.521900 0.859200
H34 H 0.643000 -0.219600 0.884000
H35 H 0.324782 -0.071999 0.526984
H36 H 0.258241 -0.031014 0.584800
H37 H 0.333426 0.178966 0.573698
O8 O 0.156033 -0.003202 0.598364
O9 O 0.017437 0.104021 0.582698
N2 N 0.123881 -0.467252 0.580599
C31 C 0.020419 -0.382830 0.655506
C32 C 0.048972 -0.318438 0.591493
C33 C 0.155268 -0.552465 0.726351
C34 C 0.077788 -0.051861 0.591133
C35 C 0.101038 -0.171484 0.755445
C36 C 0.093969 -0.368994 0.713494
C37 C 0.169558 -0.159539 0.808179
C38 C 0.223359 -0.541963 0.779312
C39 C 0.230271 -0.338202 0.820522
H38 H -0.031500 -0.255600 0.663400
H39 H -0.007800 -0.562400 0.652600
H40 H -0.007200 -0.350900 0.552700
H41 H 0.149300 -0.710500 0.695100
H42 H 0.051200 -0.026400 0.746800
H43 H 0.175400 -0.005600 0.840900
H44 H 0.271000 -0.687000 0.788700
H45 H 0.284600 -0.326000 0.860700
H46 H 0.128686 -0.459774 0.530560
H47 H 0.183326 -0.398439 0.609356
H48 H 0.114914 -0.638264 0.592956
O10 O 0.558700 -0.118100 0.523300
H49 H 0.592383 -0.255778 0.554469
H50 H 0.575277 -0.134678 0.476331
loop_
_geom_bond_atom_site_label_1
_geom_bond_atom_site_label_2
_geom_bond_site_symmetry_1
_geom_bond_site_symmetry_2
O1 C1 1_555 1_555
O2 C3 1_555 1_555
O3 C2 1_555 1_555
O4 C7 1_555 1_555
C1 C2 1_555 1_555
C2 C3 1_555 1_555
C3 C9 1_555 1_555
C4 C10 1_555 1_555
C5 C6 1_555 1_555
C6 O1 1_555 1_555
C7 C1 1_555 1_555
C8 C10 1_555 1_555
C9 C6 1_555 1_555
C10 H8 1_555 1_555
C11 C8 1_555 1_555
C12 C5 1_555 1_555
C13 C5 1_555 1_555
C14 C11 1_555 1_555
C15 C4 1_555 1_555
C16 C18 1_555 1_555
C17 C4 1_555 1_555
C18 C15 1_555 1_555
C19 C16 1_555 1_555
C20 C16 1_555 1_555
C21 C20 1_555 1_555
O5 C9 1_555 1_555
H1 C1 1_555 1_555
H2 C2 1_555 1_555
H3 C3 1_555 1_555
H4 C6 1_555 1_555
H5 C7 1_555 1_555
H6 C7 1_555 1_555
H7 C9 1_555 1_555
H9 C10 1_555 1_555
H10 C11 1_555 1_555
H11 C12 1_555 1_555
H12 C13 1_555 1_555
H13 C14 1_555 1_555
H14 C15 1_555 1_555
H15 C17 1_555 1_555
H16 C18 1_555 1_555
H17 C19 1_555 1_555
H18 C20 1_555 1_555
H19 C20 1_555 1_555
H20 C21 1_555 1_555
H21 C21 1_555 1_555
H22 C21 1_555 1_555
H23 O3 1_555 1_555
H24 O4 1_555 1_555
H25 O2 1_555 1_555
H26 O5 1_555 1_555
O6 C24 1_555 1_555
N1 C22 1_555 1_555
O7 C24 1_555 1_555
C22 C23 1_555 1_555
C23 C26 1_555 1_555
C24 C22 1_555 1_555
C25 C26 1_555 1_555
C26 C28 1_555 1_555
C27 C28 1_555 1_555
C28 H32 1_555 1_555
C29 C25 1_555 1_555
C30 C27 1_555 1_555
H27 C22 1_555 1_555
H28 C23 1_555 1_555
H29 C23 1_555 1_555
H30 C25 1_555 1_555
H31 C27 1_555 1_555
H33 C29 1_555 1_555
H34 C30 1_555 1_555
H35 N1 1_555 1_555
H36 N1 1_555 1_555
H37 N1 1_555 1_555
O8 C34 1_555 1_555
O9 C34 1_555 1_555
N2 C32 1_555 1_555
C31 C32 1_555 1_555
C32 C34 1_555 1_555
C33 C36 1_555 1_555
C35 C36 1_555 1_555
C36 C31 1_555 1_555
C37 C35 1_555 1_555
C38 C33 1_555 1_555
C39 C37 1_555 1_555
H38 C31 1_555 1_555
H39 C31 1_555 1_555
H40 C32 1_555 1_555
H41 C33 1_555 1_555
H42 C35 1_555 1_555
H43 C37 1_555 1_555
H44 C38 1_555 1_555
H45 C39 1_555 1_555
H46 N2 1_555 1_555
H47 N2 1_555 1_555
H48 N2 1_555 1_555
O10 H49 1_555 1_555
H50 O10 1_555 1_555
C8 C12 1_555 1_555
C13 C14 1_555 1_555
C17 C19 1_555 1_555
C29 C30 1_555 1_555
C38 C39 1_555 1_555

#END
