
#######################################################################
#
#                 Cambridge Crystallographic Data Centre
#                                CCDC 
#
#######################################################################
#
# If this CIF has been generated from an entry in the Cambridge 
# Structural Database, then it will include bibliographic, chemical, 
# crystal, experimental, refinement or atomic coordinate data resulting 
# from the CCDC's data processing and validation procedures.
#
#######################################################################

data_NAZKEF
_chemical_formula_moiety         'C15 H22 O11 S2'
_chemical_name_systematic        
'2,3,4,6-Tetra-O-acetyl-\b-D-galactopyranosyl methanethiosulfonate'
_symmetry_cell_setting           orthorhombic
_symmetry_space_group_name_H-M   'P 21 21 21'
_symmetry_Int_Tables_number      19
_space_group_name_Hall           'P 2ac 2ab'
loop_
_symmetry_equiv_pos_site_id
_symmetry_equiv_pos_as_xyz
1 x,y,z
2 1/2-x,-y,1/2+z
3 -x,1/2+y,1/2-z
4 1/2+x,1/2-y,-z
_cell_length_a                   9.279(1)
_cell_length_b                   9.311(1)
_cell_length_c                   47.042(4)
_cell_angle_alpha                90
_cell_angle_beta                 90
_cell_angle_gamma                90
_cell_volume                     4064.28
_exptl_crystal_colour            colorless
_exptl_crystal_description       block
_chemical_melting_point          '391-392 K'
_cell_formula_units_Z            8
_exptl_crystal_recrystallization_method 'petroleum ether/ethyl acetate'
loop_
_atom_site_label
_atom_site_type_symbol
_atom_site_fract_x
_atom_site_fract_y
_atom_site_fract_z
S1 S 0.45096(6) 0.39397(6) 0.512933(15)
S2 S 0.38390(6) 0.24988(6) 0.481649(14)
O1 O 0.2473(2) 0.45939(19) 0.56367(4)
O2 O 0.21634(19) 0.7541(2) 0.57696(4)
O3 O 0.36660(18) 0.87172(18) 0.53119(4)
O4 O 0.32601(18) 0.63049(18) 0.49535(4)
O5 O 0.2002(2) 0.79194(19) 0.44769(4)
O6 O 0.23003(18) 0.2424(2) 0.48235(4)
O7 O 0.4664(2) 0.12231(19) 0.48715(5)
O8 O 0.4353(3) 0.4869(3) 0.59366(5)
O9 O -0.0112(2) 0.8396(2) 0.57655(5)
O10 O 0.2708(2) 1.0537(2) 0.55653(5)
O11 O 0.3088(3) 0.9710(2) 0.42374(5)
C1 C 0.3003(3) 0.5173(2) 0.51493(6)
H1 H 0.2078 0.4671 0.5104
C2 C 0.2991(3) 0.5733(2) 0.54557(6)
H2 H 0.3982 0.6034 0.5514
C3 C 0.1941(3) 0.6981(2) 0.54869(6)
H3 H 0.0929 0.6626 0.5467
C4 C 0.2239(2) 0.8132(2) 0.52650(6)
H4 H 0.1501 0.8911 0.5278
C5 C 0.2208(2) 0.7447(3) 0.49711(6)
H5 H 0.1227 0.7038 0.4936
C6 C 0.2552(3) 0.8509(3) 0.47388(6)
H6 H 0.2092 0.9446 0.4779
H7 H 0.3607 0.8656 0.4725
C7 C 0.4370(4) 0.3238(3) 0.44892(7)
H8 H 0.401(2) 0.2677(19) 0.4341(3)
H9 H 0.537(2) 0.326(2) 0.4479(2)
H10 H 0.401(2) 0.417(2) 0.4473(2)
C8 C 0.3239(3) 0.4288(3) 0.58746(7)
C9 C 0.2508(3) 0.3134(3) 0.60436(7)
H11 H 0.2810(17) 0.2203(18) 0.5975(3)
H12 H 0.147(2) 0.3226(13) 0.6023(3)
H13 H 0.2767(18) 0.3229(13) 0.6242(4)
C10 C 0.1042(3) 0.8299(3) 0.58792(6)
C11 C 0.1445(3) 0.8974(3) 0.61577(7)
H14 H 0.096(2) 0.979(2) 0.6180(3)
H15 H 0.238(2) 0.915(3) 0.6160(2)
H16 H 0.123(3) 0.8381(18) 0.6298(3)
C12 C 0.3749(3) 0.9910(3) 0.54784(6)
C13 C 0.5280(3) 1.0327(3) 0.55354(7)
H17 H 0.5646(13) 1.080(3) 0.5380(4)
H18 H 0.5818(14) 0.9516(19) 0.5569(6)
H19 H 0.5315(4) 1.092(3) 0.5692(5)
C14 C 0.2380(3) 0.8624(3) 0.42386(7)
C15 C 0.1823(3) 0.7853(3) 0.39808(7)
H20 H 0.188(2) 0.8453(16) 0.3824(4)
H21 H 0.087(2) 0.759(2) 0.4010(2)
H22 H 0.237(2) 0.704(2) 0.3949(3)
S3 S 0.57277(7) 0.32201(7) 0.332202(16)
S4 S 0.72010(8) 0.25483(8) 0.301609(17)
O12 O 0.6511(3) 0.2443(3) 0.27462(5)
O13 O 0.2370(2) 0.3990(2) 0.33493(4)
O14 O 0.1568(2) 0.6865(2) 0.32805(4)
O15 O 0.4413(2) 0.80124(19) 0.32417(4)
O16 O 0.5617(2) 0.55725(19) 0.30247(4)
O17 O 0.7082(3) 0.6597(2) 0.25777(5)
O18 O 0.7832(3) 0.1291(2) 0.31451(6)
O19 O 0.3441(3) 0.3624(3) 0.37729(5)
O20 O 0.0308(3) 0.7422(3) 0.28876(5)
O21 O 0.2897(3) 0.9900(2) 0.32253(5)
O22 O 0.8084(3) 0.8471(3) 0.23501(5)
C16 C 0.4668(3) 0.4460(3) 0.31097(6)
H23 H 0.4283 0.3955 0.2938
C17 C 0.3413(3) 0.5082(3) 0.32848(6)
H24 H 0.3783 0.5526 0.3464
C18 C 0.2654(3) 0.6209(3) 0.31025(6)
H25 H 0.2183 0.5734 0.2936
C19 C 0.3728(3) 0.7337(3) 0.29981(6)
H26 H 0.3243 0.8067 0.2875
C20 C 0.4918(3) 0.6567(3) 0.28368(6)
H27 H 0.4479 0.6020 0.2676
C21 C 0.6081(3) 0.7535(3) 0.27212(7)
H28 H 0.5669 0.8243 0.2587
H29 H 0.6566 0.8058 0.2877
C22 C 0.8533(4) 0.3913(4) 0.29963(9)
H30 H 0.927(2) 0.3631(15) 0.2863(5)
H31 H 0.896(2) 0.405(2) 0.3182(5)
H32 H 0.8094(12) 0.480(2) 0.2934(6)
C23 C 0.2480(3) 0.3371(3) 0.36110(7)
C24 C 0.1264(4) 0.2335(4) 0.36608(8)
H33 H 0.1418(15) 0.184(2) 0.3832(5)
H34 H 0.1224(18) 0.168(2) 0.3510(4)
H35 H 0.039(2) 0.2841(12) 0.3671(6)
C25 C 0.0425(3) 0.7452(3) 0.31391(7)
C26 C -0.0618(4) 0.8142(4) 0.33418(8)
H36 H -0.0751 0.9153 0.3290
H37 H -0.0238 0.8079 0.3536
H38 H -0.1547 0.7643 0.3332
C27 C 0.3886(3) 0.9293(3) 0.33345(7)
C28 C 0.4730(3) 0.9777(3) 0.35876(7)
H42 H 0.4389(18) 1.068(2) 0.3648(3)
H43 H 0.571(2) 0.985(2) 0.35385(18)
H44 H 0.462(2) 0.9106(19) 0.3735(4)
C29 C 0.8067(3) 0.7193(3) 0.24029(7)
C30 C 0.9091(4) 0.6100(4) 0.22906(7)
H45 H 0.933(2) 0.6329(18) 0.2100(5)
H46 H 0.8653(15) 0.518(2) 0.2297(6)
H47 H 0.994(2) 0.610(2) 0.2404(5)
H39? H -0.0940 0.7430 0.3482
H40? H -0.1452 0.8504 0.3236
H41? H -0.0144 0.8940 0.3440
loop_
_geom_bond_atom_site_label_1
_geom_bond_atom_site_label_2
_geom_bond_site_symmetry_1
_geom_bond_site_symmetry_2
S1 S2 1_555 1_555
S2 O6 1_555 1_555
O1 C2 1_555 1_555
O2 C3 1_555 1_555
O3 C4 1_555 1_555
O4 C1 1_555 1_555
O5 C6 1_555 1_555
O7 S2 1_555 1_555
O8 C8 1_555 1_555
O9 C10 1_555 1_555
O10 C12 1_555 1_555
O11 C14 1_555 1_555
C1 S1 1_555 1_555
H1 C1 1_555 1_555
C2 C1 1_555 1_555
H2 C2 1_555 1_555
C3 C2 1_555 1_555
H3 C3 1_555 1_555
C4 C3 1_555 1_555
H4 C4 1_555 1_555
C5 O4 1_555 1_555
H5 C5 1_555 1_555
C6 C5 1_555 1_555
H6 C6 1_555 1_555
H7 C6 1_555 1_555
C7 S2 1_555 1_555
H8 C7 1_555 1_555
H9 C7 1_555 1_555
H10 C7 1_555 1_555
C8 O1 1_555 1_555
C9 C8 1_555 1_555
H11 C9 1_555 1_555
H12 C9 1_555 1_555
H13 C9 1_555 1_555
C10 O2 1_555 1_555
C11 C10 1_555 1_555
H14 C11 1_555 1_555
H15 C11 1_555 1_555
H16 C11 1_555 1_555
C12 O3 1_555 1_555
C13 C12 1_555 1_555
H17 C13 1_555 1_555
H18 C13 1_555 1_555
H19 C13 1_555 1_555
C14 O5 1_555 1_555
C15 C14 1_555 1_555
H20 C15 1_555 1_555
H21 C15 1_555 1_555
H22 C15 1_555 1_555
S3 S4 1_555 1_555
S4 O12 1_555 1_555
O13 C17 1_555 1_555
O14 C18 1_555 1_555
O15 C19 1_555 1_555
O16 C16 1_555 1_555
O17 C21 1_555 1_555
O18 S4 1_555 1_555
O19 C23 1_555 1_555
O20 C25 1_555 1_555
O21 C27 1_555 1_555
O22 C29 1_555 1_555
C16 S3 1_555 1_555
H23 C16 1_555 1_555
C17 C16 1_555 1_555
H24 C17 1_555 1_555
C18 C17 1_555 1_555
H25 C18 1_555 1_555
C19 C18 1_555 1_555
H26 C19 1_555 1_555
C20 O16 1_555 1_555
H27 C20 1_555 1_555
C21 C20 1_555 1_555
H28 C21 1_555 1_555
H29 C21 1_555 1_555
C22 S4 1_555 1_555
H30 C22 1_555 1_555
H31 C22 1_555 1_555
H32 C22 1_555 1_555
C23 O13 1_555 1_555
C24 C23 1_555 1_555
H33 C24 1_555 1_555
H34 C24 1_555 1_555
H35 C24 1_555 1_555
C25 O14 1_555 1_555
C26 C25 1_555 1_555
H36 C26 1_555 1_555
H37 C26 1_555 1_555
H38 C26 1_555 1_555
C27 O15 1_555 1_555
C28 C27 1_555 1_555
H42 C28 1_555 1_555
H43 C28 1_555 1_555
H44 C28 1_555 1_555
C29 O17 1_555 1_555
C30 C29 1_555 1_555
H45 C30 1_555 1_555
H46 C30 1_555 1_555
H47 C30 1_555 1_555
C4 C5 1_555 1_555
C19 C20 1_555 1_555

#END
