
#######################################################################
#
#                 Cambridge Crystallographic Data Centre
#                                CCDC 
#
#######################################################################
#
# If this CIF has been generated from an entry in the Cambridge 
# Structural Database, then it will include bibliographic, chemical, 
# crystal, experimental, refinement or atomic coordinate data resulting 
# from the CCDC's data processing and validation procedures.
#
#######################################################################

data_NAZROY
_chemical_formula_moiety         'C38 H26 O2'
_chemical_name_systematic        
3,3'-dimethyl[1,1'-bibenzo[c]phenanthrene]-2,2'-diol
_symmetry_cell_setting           monoclinic
_symmetry_space_group_name_H-M   'P 21/n'
_symmetry_Int_Tables_number      14
_space_group_name_Hall           '-P 2yn'
loop_
_symmetry_equiv_pos_site_id
_symmetry_equiv_pos_as_xyz
1 x,y,z
2 1/2-x,1/2+y,1/2-z
3 -x,-y,-z
4 1/2+x,1/2-y,1/2+z
_cell_length_a                   13.897(3)
_cell_length_b                   12.289(3)
_cell_length_c                   15.842(3)
_cell_angle_alpha                90
_cell_angle_beta                 113.439(2)
_cell_angle_gamma                90
_cell_volume                     2482.25
_exptl_crystal_colour            yellow
_exptl_crystal_description       prism
_chemical_melting_point          '567-569 K'
_cell_formula_units_Z            4
loop_
_atom_site_label
_atom_site_type_symbol
_atom_site_fract_x
_atom_site_fract_y
_atom_site_fract_z
C1 C 0.45569(17) 0.29542(18) 0.65396(14)
C2 C 0.42577(16) 0.18488(18) 0.65877(14)
C3 C 0.41062(16) 0.13547(18) 0.73603(15)
C4 C 0.37369(17) 0.19311(18) 0.79693(15)
C5 C 0.32541(17) 0.29637(19) 0.77607(15)
H1 H 0.3146 0.3296 0.7188
C6 C 0.29381(18) 0.3497(2) 0.83669(17)
H2 H 0.2636 0.4202 0.8218
C7 C 0.3055(2) 0.3016(2) 0.92013(18)
H3 H 0.2863 0.3403 0.963
C8 C 0.3448(2) 0.1986(2) 0.93959(17)
H4 H 0.3501 0.1649 0.9952
C9 C 0.37763(19) 0.1412(2) 0.87853(16)
C10 C 0.4076(2) 0.0302(2) 0.89424(17)
H5 H 0.4129 -0.0038 0.9498
C11 C 0.4286(2) -0.0271(2) 0.83157(17)
H6 H 0.4447 -0.1024 0.8418
C12 C 0.42718(17) 0.02284(19) 0.74970(16)
C13 C 0.43646(19) -0.04394(19) 0.67986(17)
H7 H 0.4518 -0.1192 0.6909
C14 C 0.42346(18) -0.0002(2) 0.59824(17)
H8 H 0.4162 -0.0466 0.5481
C15 C 0.42039(17) 0.11450(19) 0.58615(15)
C16 C 0.42141(17) 0.15752(19) 0.50423(15)
H9 H 0.41 0.1099 0.4539
C17 C 0.43826(17) 0.2653(2) 0.49463(15)
C18 C 0.45860(18) 0.33186(18) 0.57184(15)
C19 C 0.49902(17) 0.36635(18) 0.73763(14)
C20 C 0.57549(17) 0.32687(17) 0.82346(14)
C21 C 0.63299(16) 0.22604(18) 0.83468(14)
C22 C 0.66329(16) 0.17873(19) 0.76516(15)
C23 C 0.66961(17) 0.24005(18) 0.69248(15)
H10 H 0.6508 0.3149 0.6869
C24 C 0.70241(18) 0.1939(2) 0.62934(16)
H11 H 0.7066 0.237 0.5811
C25 C 0.72964(18) 0.0839(2) 0.63586(16)
H12 H 0.7493 0.0513 0.5907
C26 C 0.72789(19) 0.0235(2) 0.70737(17)
H13 H 0.7468 -0.0512 0.7116
C27 C 0.69868(17) 0.06954(19) 0.77510(16)
C28 C 0.71436(19) 0.0124(2) 0.85777(18)
H14 H 0.7308 -0.063 0.8625
C29 C 0.70599(18) 0.0646(2) 0.92913(17)
H15 H 0.7257 0.0282 0.9864
C30 C 0.66802(17) 0.1739(2) 0.92044(15)
C31 C 0.66897(18) 0.2305(2) 0.99901(16)
H16 H 0.6916 0.1944 1.0567
C32 C 0.63780(18) 0.3353(2) 0.99194(15)
H17 H 0.6499 0.3763 1.0461
C33 C 0.58706(17) 0.38478(19) 0.90429(15)
C34 C 0.54334(18) 0.48964(19) 0.89768(16)
H18 H 0.5567 0.5298 0.9525
C35 C 0.48250(19) 0.53508(19) 0.81521(17)
C36 C 0.45644(18) 0.46928(18) 0.73666(16)
C37 C 0.4463(2) 0.3084(2) 0.40866(16)
H19 H 0.5198 0.3239 0.4211
H20 H 0.405 0.3755 0.3894
H21 H 0.4191 0.254 0.3596
C38 C 0.4387(2) 0.6482(2) 0.80691(19)
H22 H 0.4667 0.6834 0.8674
H23 H 0.3621 0.6446 0.7839
H24 H 0.4588 0.6904 0.764
O1 O 0.49323(15) 0.43599(14) 0.56900(13)
O2 O 0.37956(14) 0.50706(15) 0.65711(12)
H25 H 0.480(5) 0.461(5) 0.513(4)
H26 H 0.378(5) 0.489(5) 0.606(4)
H27? H 0.501(6) 0.484(6) 0.623(5)
H28? H 0.349(6) 0.571(6) 0.665(5)
loop_
_geom_bond_atom_site_label_1
_geom_bond_atom_site_label_2
_geom_bond_site_symmetry_1
_geom_bond_site_symmetry_2
C1 C2 1_555 1_555
C2 C3 1_555 1_555
C3 C4 1_555 1_555
C4 C5 1_555 1_555
C5 H1 1_555 1_555
C6 C5 1_555 1_555
H2 C6 1_555 1_555
C7 C6 1_555 1_555
H3 C7 1_555 1_555
C8 C7 1_555 1_555
H4 C8 1_555 1_555
C9 C4 1_555 1_555
C10 C9 1_555 1_555
H5 C10 1_555 1_555
C11 C10 1_555 1_555
H6 C11 1_555 1_555
C12 C3 1_555 1_555
C13 C12 1_555 1_555
H7 C13 1_555 1_555
C14 C13 1_555 1_555
H8 C14 1_555 1_555
C15 C2 1_555 1_555
C16 C15 1_555 1_555
H9 C16 1_555 1_555
C17 C16 1_555 1_555
C18 C1 1_555 1_555
C19 C1 1_555 1_555
C20 C19 1_555 1_555
C21 C20 1_555 1_555
C22 C21 1_555 1_555
C23 C22 1_555 1_555
H10 C23 1_555 1_555
C24 C23 1_555 1_555
H11 C24 1_555 1_555
C25 C24 1_555 1_555
H12 C25 1_555 1_555
C26 C25 1_555 1_555
H13 C26 1_555 1_555
C27 C22 1_555 1_555
C28 C27 1_555 1_555
H14 C28 1_555 1_555
C29 C28 1_555 1_555
H15 C29 1_555 1_555
C30 C21 1_555 1_555
C31 C30 1_555 1_555
H16 C31 1_555 1_555
C32 C31 1_555 1_555
H17 C32 1_555 1_555
C33 C20 1_555 1_555
C34 C33 1_555 1_555
H18 C34 1_555 1_555
C35 C34 1_555 1_555
C36 C19 1_555 1_555
C37 C17 1_555 1_555
H19 C37 1_555 1_555
H20 C37 1_555 1_555
H21 C37 1_555 1_555
C38 C35 1_555 1_555
H22 C38 1_555 1_555
H23 C38 1_555 1_555
H24 C38 1_555 1_555
O1 C18 1_555 1_555
O2 C36 1_555 1_555
H25 O1 1_555 1_555
H26 O2 1_555 1_555
C8 C9 1_555 1_555
C11 C12 1_555 1_555
C14 C15 1_555 1_555
C17 C18 1_555 1_555
C26 C27 1_555 1_555
C29 C30 1_555 1_555
C32 C33 1_555 1_555
C35 C36 1_555 1_555

#END
