
#######################################################################
#
#                 Cambridge Crystallographic Data Centre
#                                CCDC 
#
#######################################################################
#
# If this CIF has been generated from an entry in the Cambridge 
# Structural Database, then it will include bibliographic, chemical, 
# crystal, experimental, refinement or atomic coordinate data resulting 
# from the CCDC's data processing and validation procedures.
#
#######################################################################

data_NAZSAK
_chemical_formula_moiety         'C16 H12 N2 O8 S2'
_chemical_name_systematic        
"5,5'-Dithio-bis(2-nitrobenzoic acid methyl ester)"
_symmetry_cell_setting           triclinic
_symmetry_space_group_name_H-M   'P -1'
_symmetry_Int_Tables_number      2
_space_group_name_Hall           '-P 1'
loop_
_symmetry_equiv_pos_site_id
_symmetry_equiv_pos_as_xyz
1 x,y,z
2 -x,-y,-z
_cell_length_a                   8.041(2)
_cell_length_b                   10.036(3)
_cell_length_c                   11.340(3)
_cell_angle_alpha                106.067(3)
_cell_angle_beta                 93.719(3)
_cell_angle_gamma                91.352(3)
_cell_volume                     876.71
_exptl_crystal_colour            colorless
_exptl_crystal_description       block
_cell_formula_units_Z            2
loop_
_atom_site_label
_atom_site_type_symbol
_atom_site_fract_x
_atom_site_fract_y
_atom_site_fract_z
C1 C 0.2551(5) 0.2053(3) 0.4782(3)
C2 C 0.1815(6) -0.0341(4) 0.3910(5)
H1 H 0.2959 -0.0592 0.3860
H2 H 0.1159 -0.0906 0.3202
H3 H 0.1405 -0.0487 0.4643
O1 O 0.3527(6) 0.1774(4) 0.5563(4)
O2 O 0.1694(5) 0.1158(3) 0.3947(3)
C3 C 0.3277(6) 0.3425(4) 0.0146(4)
C4 C 0.4915(6) 0.3118(4) 0.0382(4)
H4 H 0.5567 0.3702 0.1038
C5 C 0.5588(6) 0.1939(5) -0.0360(4)
C6 C 0.4568(7) 0.1092(5) -0.1311(4)
C7 C 0.2965(7) 0.1411(5) -0.1571(4)
H5 H 0.2322 0.0830 -0.2234
C8 C 0.2304(6) 0.2584(5) -0.0858(4)
H6 H 0.1223 0.2815 -0.1042
C9 C 0.7400(7) 0.1747(5) -0.0155(5)
N1 N 0.5163(6) -0.0261(5) -0.2030(4)
C10 C 0.9502(6) 0.1598(5) 0.1339(5)
H7 H 0.9983 0.0850 0.0757
H8 H 0.9625 0.1454 0.2142
H9 H 1.0061 0.2460 0.1356
C11 C 0.3169(5) 0.5286(4) 0.3703(4)
C12 C 0.3042(6) 0.6285(5) 0.4804(4)
H10 H 0.3301 0.7211 0.4865
C13 C 0.2539(6) 0.5922(5) 0.5808(4)
H11 H 0.2457 0.6599 0.6549
C14 C 0.2158(5) 0.4571(5) 0.5717(4)
C15 C 0.2314(6) 0.3532(5) 0.4640(4)
C16 C 0.2825(6) 0.3909(4) 0.3645(4)
H12 H 0.2944 0.3226 0.2914
N2 N 0.1467(5) 0.4222(5) 0.6778(4)
O3 O 0.7754(4) 0.1644(3) 0.0982(3)
O4 O 0.8407(4) 0.1745(4) -0.0885(3)
O5 O 0.6328(5) -0.0744(3) -0.1569(4)
O6 O 0.4378(5) -0.0827(4) -0.3006(3)
O7 O 0.1712(4) 0.5055(3) 0.7792(3)
O8 O 0.0661(4) 0.3133(4) 0.6587(3)
S1 S 0.22649(16) 0.48903(13) 0.10182(11)
S2 S 0.38647(16) 0.58657(12) 0.24698(11)
C17? C 0.1669(5) 0.2039(3) 0.4401(3)
C18? C 0.2551(6) -0.0156(4) 0.4486(5)
H13? H 0.1678 -0.0361 0.4956
H14? H 0.3561 -0.0555 0.4697
H15? H 0.2237 -0.0538 0.3624
O9? O 0.2827(4) 0.1396(3) 0.4770(3)
O10? O 0.0334(7) 0.1527(5) 0.3867(4)
loop_
_geom_bond_atom_site_label_1
_geom_bond_atom_site_label_2
_geom_bond_site_symmetry_1
_geom_bond_site_symmetry_2
C1 O1 1_555 1_555
C2 H1 1_555 1_555
H2 C2 1_555 1_555
H3 C2 1_555 1_555
O2 C1 1_555 1_555
C3 C4 1_555 1_555
C4 H4 1_555 1_555
C5 C4 1_555 1_555
C6 C5 1_555 1_555
C7 C6 1_555 1_555
H5 C7 1_555 1_555
C8 C3 1_555 1_555
H6 C8 1_555 1_555
C9 C5 1_555 1_555
N1 C6 1_555 1_555
C10 H7 1_555 1_555
H8 C10 1_555 1_555
H9 C10 1_555 1_555
C11 C12 1_555 1_555
C12 H10 1_555 1_555
C13 C12 1_555 1_555
H11 C13 1_555 1_555
C14 C13 1_555 1_555
C15 C1 1_555 1_555
C16 C11 1_555 1_555
H12 C16 1_555 1_555
N2 C14 1_555 1_555
O3 C9 1_555 1_555
O4 C9 1_555 1_555
O5 N1 1_555 1_555
O6 N1 1_555 1_555
O7 N2 1_555 1_555
O8 N2 1_555 1_555
S1 C3 1_555 1_555
S2 C11 1_555 1_555
C2 O2 1_555 1_555
C7 C8 1_555 1_555
C10 O3 1_555 1_555
C14 C15 1_555 1_555
C15 C16 1_555 1_555
S1 S2 1_555 1_555

#END
