
#######################################################################
#
#                 Cambridge Crystallographic Data Centre
#                                CCDC 
#
#######################################################################
#
# If this CIF has been generated from an entry in the Cambridge 
# Structural Database, then it will include bibliographic, chemical, 
# crystal, experimental, refinement or atomic coordinate data resulting 
# from the CCDC's data processing and validation procedures.
#
#######################################################################

data_NAZTAJ
_chemical_formula_moiety         'C22 H23 N1 O2'
_chemical_name_systematic        
2-(1-(1,2-Diphenyl-2-hydroxyethylamine)but-3-enyl)tetrahydrofuran
_symmetry_cell_setting           orthorhombic
_symmetry_space_group_name_H-M   'P 21 21 21'
_symmetry_Int_Tables_number      19
_space_group_name_Hall           'P 2ac 2ab'
loop_
_symmetry_equiv_pos_site_id
_symmetry_equiv_pos_as_xyz
1 x,y,z
2 1/2-x,-y,1/2+z
3 1/2+x,1/2-y,-z
4 -x,1/2+y,1/2-z
_cell_length_a                   12.517(2)
_cell_length_b                   23.612(8)
_cell_length_c                   6.253(3)
_cell_angle_alpha                90
_cell_angle_beta                 90
_cell_angle_gamma                90
_cell_volume                     1848.08
_exptl_crystal_colour            colorless
_exptl_crystal_description       prismatic
_cell_formula_units_Z            4
loop_
_atom_site_label
_atom_site_type_symbol
_atom_site_fract_x
_atom_site_fract_y
_atom_site_fract_z
O1 O 0.3544(3) 0.4900(2) -0.2248(7)
O2 O 0.1212(6) 0.3196(3) -0.0912
N1 N 0.2685(3) 0.4202(2) 0.0862(8)
C1 C 0.4954(5) 0.5251(2) 0.009(1)
C2 C 0.5262(5) 0.5517(3) 0.196(1)
C3 C 0.6278(6) 0.5721(3) 0.229(1)
C4 C 0.7007(5) 0.5679(3) 0.062(1)
C5 C 0.6729(5) 0.5425(3) -0.128(1)
C6 C 0.5705(5) 0.5210(3) -0.151(1)
C7 C 0.3845(4) 0.4993(2) -0.012(1)
C8 C 0.3791(4) 0.4422(2) 0.1131(9)
C9 C 0.4672(4) 0.4023(2) 0.0482(10)
C10 C 0.5522(5) 0.3919(3) 0.189(1)
C11 C 0.6347(6) 0.3568(3) 0.134(2)
C12 C 0.6356(6) 0.3306(3) -0.060(2)
C13 C 0.5553(5) 0.3400(3) -0.199(1)
C14 C 0.4706(5) 0.3760(3) -0.149(1)
C15 C 0.2513(5) 0.3602(2) 0.1525(10)
C16 C 0.2743(7) 0.3511(3) 0.385(1)
C17 C 0.272(1) 0.2906(4) 0.445(2)
C18 C 0.330(1) 0.2555(5) 0.489(3)
C19 C 0.1407(5) 0.3434(3) 0.097(1)
C20 C 0.0629(9) 0.3534(6) 0.215(2)
C21 C -0.019(1) 0.3269(8) 0.121(4)
C22 C 0.007(1) 0.3084(5) -0.076(4)
H1 H 0.4758 0.5529 0.2982
H2 H 0.6440 0.5944 0.3703
H3 H 0.7704 0.5825 0.0800
H4 H 0.7092 0.5349 -0.2433
H5 H 0.5601 0.5008 -0.2688
H6 H 0.3358 0.4825 -0.3702
H7 H 0.3321 0.5279 0.0590
H8 H 0.3877 0.4559 0.2693
H9 H 0.5402 0.4116 0.3401
H10 H 0.6908 0.3507 0.2343
H11 H 0.6929 0.3058 -0.0982
H12 H 0.5542 0.3255 -0.3414
H13 H 0.4195 0.3871 -0.2547
H14 H 0.2458 0.4296 -0.0646
H15 H 0.2991 0.3370 0.0727
H16 H 0.3425 0.3662 0.4181
H17 H 0.2213 0.3707 0.4670
H18 H 0.2008 0.2766 0.4464
H19 H 0.3047 0.2190 0.5208
H20 H 0.4045 0.2636 0.4941
H21 H 0.0614 0.3751 0.3410
H22 H -0.0882 0.3224 0.1844
H23 H -0.0395 0.2909 -0.1780
loop_
_geom_bond_atom_site_label_1
_geom_bond_atom_site_label_2
_geom_bond_site_symmetry_1
_geom_bond_site_symmetry_2
O1 C7 1_555 1_555
O2 C19 1_555 1_555
N1 C8 1_555 1_555
C1 C2 1_555 1_555
C2 C3 1_555 1_555
C3 C4 1_555 1_555
C4 C5 1_555 1_555
C5 C6 1_555 1_555
C6 C1 1_555 1_555
C7 C1 1_555 1_555
C8 C7 1_555 1_555
C9 C8 1_555 1_555
C10 C9 1_555 1_555
C11 C10 1_555 1_555
C12 C11 1_555 1_555
C13 C12 1_555 1_555
C14 C9 1_555 1_555
C15 N1 1_555 1_555
C16 C15 1_555 1_555
C17 C16 1_555 1_555
C18 C17 1_555 1_555
C19 C15 1_555 1_555
C20 C19 1_555 1_555
C21 C20 1_555 1_555
C22 O2 1_555 1_555
H1 C2 1_555 1_555
H2 C3 1_555 1_555
H3 C4 1_555 1_555
H4 C5 1_555 1_555
H5 C6 1_555 1_555
H6 O1 1_555 1_555
H7 C7 1_555 1_555
H8 C8 1_555 1_555
H9 C10 1_555 1_555
H10 C11 1_555 1_555
H11 C12 1_555 1_555
H12 C13 1_555 1_555
H13 C14 1_555 1_555
H14 N1 1_555 1_555
H15 C15 1_555 1_555
H16 C16 1_555 1_555
H17 C16 1_555 1_555
H18 C17 1_555 1_555
H19 C18 1_555 1_555
H20 C18 1_555 1_555
H21 C20 1_555 1_555
H22 C21 1_555 1_555
H23 C22 1_555 1_555
C13 C14 1_555 1_555
C21 C22 1_555 1_555

#END
