
#######################################################################
#
#                 Cambridge Crystallographic Data Centre
#                                CCDC 
#
#######################################################################
#
# If this CIF has been generated from an entry in the Cambridge 
# Structural Database, then it will include bibliographic, chemical, 
# crystal, experimental, refinement or atomic coordinate data resulting 
# from the CCDC's data processing and validation procedures.
#
#######################################################################

data_NAZYAR
_chemical_name_common            
'3-methyl-2-(octadecylthio)-1H-imidazolium bromide'
_chemical_formula_moiety         'C22 H43 N2 S1 1+,Br1 1-'
_chemical_name_systematic        
'1-methyl-2-(octadecylsulfanyl)-1H-imidazol-3-ium bromide'
_symmetry_cell_setting           triclinic
_symmetry_space_group_name_H-M   'P -1'
_symmetry_Int_Tables_number      2
_space_group_name_Hall           '-P 1'
loop_
_symmetry_equiv_pos_site_id
_symmetry_equiv_pos_as_xyz
1 x,y,z
2 -x,-y,-z
_cell_length_a                   6.9143(5)
_cell_length_b                   9.0307(5)
_cell_length_c                   20.7192(12)
_cell_angle_alpha                98.373(5)
_cell_angle_beta                 96.675(5)
_cell_angle_gamma                105.621(5)
_cell_volume                     1216.15
_exptl_crystal_colour            colorless
_exptl_crystal_description       plate
_chemical_melting_point          '387 K'
_cell_formula_units_Z            2
_exptl_crystal_recrystallization_method acetonitrile
loop_
_atom_site_label
_atom_site_type_symbol
_atom_site_fract_x
_atom_site_fract_y
_atom_site_fract_z
Br1 Br 0.21040(5) 0.24984(3) 0.442424(15)
S1 S 0.63632(12) 0.92980(8) 0.35478(4)
N1 N 0.4058(4) 0.7135(2) 0.41193(10)
C1 C 0.7703(4) 1.2031(3) 0.31214(13)
H1 H 0.7201 1.1489 0.2668
H2 H 0.9049 1.1928 0.3248
C2 C 0.4485(4) 0.8604(3) 0.40027(12)
N2 N 0.3249(3) 0.9295(2) 0.42915(10)
H3 H 0.3228 1.0242 0.4288
C3 C 1.2140(4) 2.1529(3) 0.20793(13)
H4 H 1.0766 2.1583 0.1959
H5 H 1.2617 2.2049 0.2537
C4 C 0.7833(4) 1.3755(3) 0.31689(13)
H6 H 0.6482 1.3837 0.3031
H7 H 0.8266 1.4269 0.3628
C5 C 1.2089(4) 1.9818(3) 0.20227(13)
H8 H 1.1639 1.9305 0.1564
H9 H 1.3461 1.9767 0.2150
C6 C 1.6353(5) 2.7578(3) 0.08894(13)
H10 H 1.7722 2.7507 0.1001
H11 H 1.5857 2.7079 0.0431
C7 C 1.3496(4) 2.2402(3) 0.16463(13)
H12 H 1.4868 2.2343 0.1767
H13 H 1.3019 2.1879 0.1190
C8 C 1.0711(4) 1.7218(3) 0.23863(13)
H14 H 1.0305 1.6707 0.1926
H15 H 1.2084 1.7186 0.2529
C9 C 1.5001(4) 2.6691(3) 0.13218(13)
H16 H 1.5487 2.7204 0.1780
H17 H 1.3629 2.6756 0.1206
C10 C 0.9269(4) 1.4619(3) 0.27582(13)
H18 H 0.8872 1.4088 0.2300
H19 H 1.0635 1.4584 0.2908
C11 C 0.6288(4) 1.1295(3) 0.35714(13)
H20 H 0.4910 1.1308 0.3422
H21 H 0.6722 1.1881 0.4020
C12 C 0.9290(4) 1.6316(3) 0.27966(13)
H22 H 0.9687 1.6842 0.3255
H23 H 0.7918 1.6345 0.2651
C13 C 1.0710(4) 1.8924(3) 0.24433(13)
H24 H 0.9332 1.8956 0.2311
H25 H 1.1145 1.9441 0.2902
C14 C 1.6431(5) 2.9293(3) 0.09633(13)
H26 H 1.6917 2.9787 0.1423
H27 H 1.5059 2.9360 0.0851
C15 C 1.4923(4) 2.4985(3) 0.12626(13)
H28 H 1.6293 2.4919 0.1379
H29 H 1.4435 2.4471 0.0805
C16 C 1.7779(4) 3.0206(3) 0.05382(13)
H30 H 1.9157 3.0155 0.0653
H31 H 1.7301 2.9715 0.0078
C17 C 1.7807(5) 3.1903(3) 0.06189(14)
H32 H 1.8295 3.2393 0.1079
H33 H 1.6425 3.1950 0.0510
C18 C 0.2015(4) 0.8251(3) 0.45954(13)
H34 H 0.1012 0.8440 0.4830
C19 C 1.3568(4) 2.4110(3) 0.16967(13)
H35 H 1.4047 2.4633 0.2153
H36 H 1.2195 2.4169 0.1577
C20 C 0.2510(5) 0.6914(3) 0.44948(13)
H37 H 0.1925 0.6006 0.4648
C21 C 1.9132(5) 3.2837(3) 0.01921(15)
H38 H 1.8632 3.2385 -0.0266
H39 H 2.0510 3.2814 0.0301
H40 H 1.9087 3.3900 0.0272
C22 C 0.5101(5) 0.6007(3) 0.38960(14)
H41 H 0.5059 0.5903 0.3426
H42 H 0.4442 0.5012 0.4001
H43 H 0.6492 0.6361 0.4113
loop_
_geom_bond_atom_site_label_1
_geom_bond_atom_site_label_2
_geom_bond_site_symmetry_1
_geom_bond_site_symmetry_2
S1 C2 1_555 1_555
N1 C2 1_555 1_555
C1 H1 1_555 1_555
H2 C1 1_555 1_555
C2 N2 1_555 1_555
N2 H3 1_555 1_555
C3 H4 1_555 1_555
H5 C3 1_555 1_555
C4 C1 1_555 1_555
H6 C4 1_555 1_555
H7 C4 1_555 1_555
C5 C3 1_555 1_555
H8 C5 1_555 1_555
H9 C5 1_555 1_555
C6 H10 1_555 1_555
H11 C6 1_555 1_555
C7 C3 1_555 1_555
H12 C7 1_555 1_555
H13 C7 1_555 1_555
C8 H14 1_555 1_555
H15 C8 1_555 1_555
C9 C6 1_555 1_555
H16 C9 1_555 1_555
H17 C9 1_555 1_555
C10 C4 1_555 1_555
H18 C10 1_555 1_555
H19 C10 1_555 1_555
C11 S1 1_555 1_555
H20 C11 1_555 1_555
H21 C11 1_555 1_555
C12 C8 1_555 1_555
H22 C12 1_555 1_555
H23 C12 1_555 1_555
C13 C5 1_555 1_555
H24 C13 1_555 1_555
H25 C13 1_555 1_555
C14 C6 1_555 1_555
H26 C14 1_555 1_555
H27 C14 1_555 1_555
C15 C9 1_555 1_555
H28 C15 1_555 1_555
H29 C15 1_555 1_555
C16 C14 1_555 1_555
H30 C16 1_555 1_555
H31 C16 1_555 1_555
C17 C16 1_555 1_555
H32 C17 1_555 1_555
H33 C17 1_555 1_555
C18 N2 1_555 1_555
H34 C18 1_555 1_555
C19 C7 1_555 1_555
H35 C19 1_555 1_555
H36 C19 1_555 1_555
C20 N1 1_555 1_555
H37 C20 1_555 1_555
C21 C17 1_555 1_555
H38 C21 1_555 1_555
H39 C21 1_555 1_555
H40 C21 1_555 1_555
C22 N1 1_555 1_555
H41 C22 1_555 1_555
H42 C22 1_555 1_555
H43 C22 1_555 1_555
C1 C11 1_555 1_555
C8 C13 1_555 1_555
C10 C12 1_555 1_555
C15 C19 1_555 1_555
C18 C20 1_555 1_555

#END
