
#######################################################################
#
#                 Cambridge Crystallographic Data Centre
#                                CCDC 
#
#######################################################################
#
# If this CIF has been generated from an entry in the Cambridge 
# Structural Database, then it will include bibliographic, chemical, 
# crystal, experimental, refinement or atomic coordinate data resulting 
# from the CCDC's data processing and validation procedures.
#
#######################################################################

data_NBSUCA02
_chemical_name_common            N-Bromosuccinimide
_chemical_formula_moiety         'C4 H4 Br1 N1 O2'
_chemical_name_systematic        1-bromopyrrolidine-2,5-dione
_symmetry_cell_setting           orthorhombic
_symmetry_space_group_name_H-M   'P 21 21 21'
_symmetry_Int_Tables_number      19
_space_group_name_Hall           'P 2ac 2ab'
loop_
_symmetry_equiv_pos_site_id
_symmetry_equiv_pos_as_xyz
1 x,y,z
2 1/2-x,-y,1/2+z
3 1/2+x,1/2-y,-z
4 -x,1/2+y,1/2-z
_cell_length_a                   6.4268(9)
_cell_length_b                   7.1205(8)
_cell_length_c                   11.7389(14)
_cell_angle_alpha                90
_cell_angle_beta                 90
_cell_angle_gamma                90
_cell_volume                     537.196
_exptl_crystal_colour            colorless
_cell_formula_units_Z            4
_exptl_crystal_recrystallization_method 
'Re-crystallisation from solvent: chloroform'
loop_
_atom_site_label
_atom_site_type_symbol
_atom_site_fract_x
_atom_site_fract_y
_atom_site_fract_z
Br1 Br 0.08831(6) 0.20707(5) 0.07371(3)
O1 O 0.4955(4) 0.4116(4) 0.1441(2)
O2 O -0.0739(5) 0.1670(4) 0.3237(2)
N1 N 0.2019(5) 0.2656(4) 0.2132(3)
C1 C 0.3862(6) 0.3632(5) 0.2237(3)
C2 C 0.4256(7) 0.3956(5) 0.3486(3)
H1 H 0.4236 0.5314 0.3667
H2 H 0.5618 0.3428 0.3716
C3 C 0.2459(6) 0.2926(5) 0.4095(3)
H3 H 0.2987 0.1818 0.4516
H4 H 0.1751 0.3774 0.4640
C4 C 0.0986(6) 0.2329(5) 0.3162(3)
loop_
_geom_bond_atom_site_label_1
_geom_bond_atom_site_label_2
_geom_bond_site_symmetry_1
_geom_bond_site_symmetry_2
Br1 N1 1_555 1_555
O1 C1 1_555 1_555
O2 C4 1_555 1_555
N1 C1 1_555 1_555
C1 C2 1_555 1_555
C2 H1 1_555 1_555
H2 C2 1_555 1_555
C3 C2 1_555 1_555
H3 C3 1_555 1_555
H4 C3 1_555 1_555
C4 N1 1_555 1_555
C3 C4 1_555 1_555

#END
