
#######################################################################
#
#                 Cambridge Crystallographic Data Centre
#                                CCDC 
#
#######################################################################
#
# If this CIF has been generated from an entry in the Cambridge 
# Structural Database, then it will include bibliographic, chemical, 
# crystal, experimental, refinement or atomic coordinate data resulting 
# from the CCDC's data processing and validation procedures.
#
#######################################################################

data_NBZOAC10
_chemical_formula_moiety         'C7 H5 N1 O4'
_chemical_name_systematic        'p-Nitrobenzoic acid'
_symmetry_cell_setting           monoclinic
_symmetry_space_group_name_H-M   'A 2/a'
_symmetry_Int_Tables_number      15
_space_group_name_Hall           '-A 2yn'
loop_
_symmetry_equiv_pos_site_id
_symmetry_equiv_pos_as_xyz
1 x,y,z
2 x,1/2+y,1/2+z
3 1/2-x,y,-z
4 1/2-x,1/2+y,1/2-z
5 -x,-y,-z
6 -x,1/2-y,1/2-z
7 1/2+x,-y,z
8 1/2+x,1/2-y,1/2+z
_cell_length_a                   12.970
_cell_length_b                   5.070
_cell_length_c                   21.430
_cell_angle_alpha                90
_cell_angle_beta                 96.40
_cell_angle_gamma                90
_cell_volume                     1400.41
_cell_formula_units_Z            8
loop_
_atom_site_label
_atom_site_type_symbol
_atom_site_fract_x
_atom_site_fract_y
_atom_site_fract_z
C1 C 0.41460 0.49600 0.08860
C2 C 0.49010 0.64600 0.12940
C3 C 0.45870 0.83540 0.17040
C4 C 0.35330 0.89350 0.16720
C5 C 0.27980 0.75370 0.12680
C6 C 0.30950 0.54590 0.08830
C7 C 0.45260 0.28810 0.04870
N1 N 0.31790 1.08870 0.21000
O1 O 0.54630 0.24880 0.04910
O2 O 0.38030 0.15940 0.01430
O3 O 0.38250 1.17850 0.25080
O4 O 0.23130 1.16750 0.19850
loop_
_geom_bond_atom_site_label_1
_geom_bond_atom_site_label_2
_geom_bond_site_symmetry_1
_geom_bond_site_symmetry_2
C1 C2 1_555 1_555
C2 C3 1_555 1_555
C3 C4 1_555 1_555
C4 C5 1_555 1_555
C5 C6 1_555 1_555
C6 C1 1_555 1_555
C7 C1 1_555 1_555
N1 C4 1_555 1_555
O1 C7 1_555 1_555
O2 C7 1_555 1_555
O3 N1 1_555 1_555
O4 N1 1_555 1_555

#END
