
#######################################################################
#
#                 Cambridge Crystallographic Data Centre
#                                CCDC 
#
#######################################################################
#
# If this CIF has been generated from an entry in the Cambridge 
# Structural Database, then it will include bibliographic, chemical, 
# crystal, experimental, refinement or atomic coordinate data resulting 
# from the CCDC's data processing and validation procedures.
#
#######################################################################

data_NEBBIH
_chemical_formula_moiety         'C9 H10 N4 S1'
_chemical_name_systematic        
1-(2-Phenylethyl)-1,4-dihydro-5H-tetrazole-5-thione
_symmetry_cell_setting           orthorhombic
_symmetry_space_group_name_H-M   'P c c n'
_symmetry_Int_Tables_number      56
_space_group_name_Hall           '-P 2ab 2ac'
loop_
_symmetry_equiv_pos_site_id
_symmetry_equiv_pos_as_xyz
1 x,y,z
2 1/2-x,1/2-y,z
3 -x,1/2+y,1/2-z
4 1/2+x,-y,1/2-z
5 -x,-y,-z
6 1/2+x,1/2+y,-z
7 x,1/2-y,1/2+z
8 1/2-x,y,1/2+z
_cell_length_a                   24.0607(6)
_cell_length_b                   12.0026(3)
_cell_length_c                   14.6889(4)
_cell_angle_alpha                90
_cell_angle_beta                 90
_cell_angle_gamma                90
_cell_volume                     4242.02
_exptl_crystal_colour            colorless
_exptl_crystal_description       block
_cell_formula_units_Z            16
loop_
_atom_site_label
_atom_site_type_symbol
_atom_site_fract_x
_atom_site_fract_y
_atom_site_fract_z
S1 S 0.41788(3) 0.59188(6) 0.50796(7)
N1 N 0.47247(9) 0.78904(18) 0.49481(15)
N2 N 0.52500(10) 0.8291(2) 0.48367(17)
N3 N 0.55769(9) 0.7452(2) 0.47752(17)
N4 N 0.52628(8) 0.6536(2) 0.48374(16)
C1 C 0.24103(17) 1.0507(4) 0.4717(3)
C2 C 0.2890(2) 1.1099(4) 0.4621(3)
C3 C 0.33807(15) 1.0570(3) 0.4468(3)
C4 C 0.34020(11) 0.9441(2) 0.43844(18)
C5 C 0.29198(15) 0.8862(3) 0.4489(3)
C6 C 0.24271(16) 0.9394(4) 0.4654(3)
C7 C 0.39419(14) 0.8833(3) 0.4202(2)
C8 C 0.42460(13) 0.8638(3) 0.5080(2)
C9 C 0.47215(10) 0.6770(2) 0.49493(18)
H1 H 0.2089(15) 1.081(3) 0.485(2)
H2 H 0.2916(16) 1.175(3) 0.473(3)
H3 H 0.3662(11) 1.091(2) 0.440(2)
H4 H 0.2902(14) 0.807(3) 0.440(2)
H5 H 0.2118(16) 0.900(3) 0.466(3)
H6 H 0.3886(12) 0.813(2) 0.389(2)
H7 H 0.4176(12) 0.923(2) 0.381(2)
H8 H 0.3999(10) 0.833(2) 0.5502(17)
H9 H 0.4400(11) 0.935(2) 0.5364(18)
H19 H 0.5394(10) 0.586(2) 0.4869(17)
S2 S 0.33545(3) 0.66999(7) 0.22501(6)
N5 N 0.28810(8) 0.4657(2) 0.20519(18)
N6 N 0.23669(11) 0.4189(2) 0.1996(2)
N7 N 0.20128(10) 0.4968(2) 0.20357(19)
N8 N 0.22927(9) 0.5922(2) 0.21173(18)
C10 C 0.50759(13) 0.1669(3) 0.2552(2)
C11 C 0.51093(13) 0.2757(3) 0.2765(2)
C12 C 0.46316(12) 0.3378(3) 0.2870(2)
C13 C 0.41163(10) 0.2915(2) 0.27582(19)
C14 C 0.40952(12) 0.1798(3) 0.2521(2)
C15 C 0.45684(14) 0.1189(3) 0.2427(2)
C16 C 0.35888(14) 0.3618(3) 0.2887(2)
C17 C 0.33898(14) 0.3967(3) 0.1965(2)
C18 C 0.28447(9) 0.5776(2) 0.21415(18)
H10 H 0.5411(13) 0.120(3) 0.248(2)
H11 H 0.5454(13) 0.309(2) 0.285(2)
H12 H 0.4650(11) 0.414(2) 0.3055(19)
H13 H 0.3755(12) 0.151(2) 0.2383(18)
H14 H 0.4535(12) 0.046(3) 0.2277(19)
H15 H 0.3621(16) 0.439(3) 0.325(3)
H16 H 0.3289(12) 0.318(2) 0.311(2)
H17 H 0.3304(11) 0.329(2) 0.149(2)
H18 H 0.3680(11) 0.438(2) 0.1658(19)
H20 H 0.2134(9) 0.6520(19) 0.2134(16)
loop_
_geom_bond_atom_site_label_1
_geom_bond_atom_site_label_2
_geom_bond_site_symmetry_1
_geom_bond_site_symmetry_2
S1 C9 1_555 1_555
S2 C18 1_555 1_555
N1 N2 1_555 1_555
N2 N3 1_555 1_555
N3 N4 1_555 1_555
N4 C9 1_555 1_555
N5 N6 1_555 1_555
N6 N7 1_555 1_555
N7 N8 1_555 1_555
N8 C18 1_555 1_555
C1 C2 1_555 1_555
C2 C3 1_555 1_555
C3 C4 1_555 1_555
C4 C5 1_555 1_555
C5 C6 1_555 1_555
C6 C1 1_555 1_555
C7 C4 1_555 1_555
C8 N1 1_555 1_555
C9 N1 1_555 1_555
C10 C11 1_555 1_555
C11 C12 1_555 1_555
C12 C13 1_555 1_555
C13 C14 1_555 1_555
C14 C15 1_555 1_555
C15 C10 1_555 1_555
C16 C13 1_555 1_555
C17 N5 1_555 1_555
C18 N5 1_555 1_555
H1 C1 1_555 1_555
H2 C2 1_555 1_555
H3 C3 1_555 1_555
H4 C5 1_555 1_555
H5 C6 1_555 1_555
H6 C7 1_555 1_555
H7 C7 1_555 1_555
H8 C8 1_555 1_555
H9 C8 1_555 1_555
H10 C10 1_555 1_555
H11 C11 1_555 1_555
H12 C12 1_555 1_555
H13 C14 1_555 1_555
H14 C15 1_555 1_555
H15 C16 1_555 1_555
H16 C16 1_555 1_555
H17 C17 1_555 1_555
H18 C17 1_555 1_555
H19 N4 1_555 1_555
H20 N8 1_555 1_555
C7 C8 1_555 1_555
C16 C17 1_555 1_555

#END
