
#######################################################################
#
#                 Cambridge Crystallographic Data Centre
#                                CCDC 
#
#######################################################################
#
# If this CIF has been generated from an entry in the Cambridge 
# Structural Database, then it will include bibliographic, chemical, 
# crystal, experimental, refinement or atomic coordinate data resulting 
# from the CCDC's data processing and validation procedures.
#
#######################################################################

data_NEBCEF
_chemical_formula_moiety         'C29 H26 Cl1 N1 O2'
_chemical_name_systematic        
2-[3-(4-chlorophenyl)-1H-2-benzopyran-1-yl]-5,5-dimethyl-3-(phenylamino)cyclohex-2-en-1-one
_symmetry_cell_setting           monoclinic
_symmetry_space_group_name_H-M   'C 2/c'
_symmetry_Int_Tables_number      15
_space_group_name_Hall           '-C 2yn'
loop_
_symmetry_equiv_pos_site_id
_symmetry_equiv_pos_as_xyz
1 x,y,z
2 -x,y,1/2-z
3 1/2+x,1/2+y,z
4 1/2-x,1/2+y,1/2-z
5 -x,-y,-z
6 x,-y,1/2+z
7 1/2-x,1/2-y,-z
8 1/2+x,1/2-y,1/2+z
_cell_length_a                   21.590(2)
_cell_length_b                   9.1866(9)
_cell_length_c                   24.923(2)
_cell_angle_alpha                90
_cell_angle_beta                 103.841(3)
_cell_angle_gamma                90
_cell_volume                     4799.66
_exptl_crystal_colour            colorless
_exptl_crystal_description       block
_cell_formula_units_Z            8
loop_
_atom_site_label
_atom_site_type_symbol
_atom_site_fract_x
_atom_site_fract_y
_atom_site_fract_z
Cl1 Cl 0.32018(3) 0.81869(9) 0.44140(3)
O1 O 0.59322(5) 0.61597(14) 0.61143(4)
O2 O 0.72377(7) 0.76929(16) 0.74313(5)
N1 N 0.59745(8) 0.36386(18) 0.67231(6)
H1 H 0.5915 0.3998 0.6396
C1 C 0.63652(8) 0.38821(18) 0.77159(6)
H2 H 0.6705 0.3167 0.7796
H3 H 0.5971 0.3389 0.7727
C2 C 0.69623(8) 0.6564(2) 0.75035(7)
C3 C 0.63087(7) 0.44590(18) 0.71419(6)
C4 C 0.57119(8) 0.22419(19) 0.67680(7)
C5 C 0.65720(8) 0.57581(19) 0.70476(6)
C6 C 0.76087(9) 0.5077(2) 0.64944(8)
H4 H 0.7658 0.4825 0.6864
C7 C 0.70568(8) 0.5947(2) 0.80794(7)
H5 H 0.7437 0.5345 0.8158
H6 H 0.7129 0.6745 0.8342
C8 C 0.70685(8) 0.58004(19) 0.62160(7)
C9 C 0.65002(8) 0.50464(19) 0.81651(6)
C10 C 0.69918(9) 0.6158(2) 0.56564(7)
C11 C 0.65622(8) 0.63668(19) 0.64836(6)
H7 H 0.6629 0.7419 0.6529
C12 C 0.63860(9) 0.6808(2) 0.53801(7)
H8 H 0.6351 0.7279 0.5044
C13 C 0.66827(11) 0.4297(2) 0.87316(8)
H9 H 0.6329 0.3728 0.8785
H10 H 0.7044 0.3675 0.8748
H11 H 0.6789 0.5021 0.9017
C14 C 0.58820(9) 0.6744(2) 0.55961(7)
C15 C 0.59137(9) 0.5995(2) 0.81364(9)
H12 H 0.5568 0.5402 0.8192
H13 H 0.6011 0.6728 0.8419
H14 H 0.5793 0.6454 0.7780
C16 C 0.80768(10) 0.4727(2) 0.62237(10)
H15 H 0.8441 0.4235 0.6412
C17 C 0.52210(9) 0.7127(2) 0.53183(7)
C18 C 0.60896(10) 0.1063(2) 0.69629(9)
H16 H 0.6529 0.1173 0.7085
C19 C 0.80097(10) 0.5100(2) 0.56794(9)
H17 H 0.8332 0.4880 0.5503
C20 C 0.74667(10) 0.5797(2) 0.53947(9)
H18 H 0.7419 0.6027 0.5024
C21 C 0.50679(10) 0.2054(3) 0.65932(11)
H19 H 0.4805 0.2846 0.6468
C22 C 0.39785(11) 0.7790(3) 0.47687(9)
C23 C 0.40882(11) 0.6846(3) 0.52011(11)
H20 H 0.3748 0.6410 0.5309
C24 C 0.47091(11) 0.6538(3) 0.54806(9)
H21 H 0.4782 0.5920 0.5785
C25 C 0.50911(11) 0.8076(3) 0.48763(9)
H22 H 0.5427 0.8497 0.4758
C26 C 0.44704(12) 0.8414(3) 0.46062(9)
H23 H 0.4392 0.9069 0.4313
C27 C 0.58130(18) -0.0283(3) 0.69760(12)
H24 H 0.6068 -0.1083 0.7108
C28 C 0.5179(2) -0.0451(4) 0.68000(17)
H25 H 0.4995 -0.1361 0.6814
C29 C 0.48118(16) 0.0709(5) 0.66031(17)
H26 H 0.4374 0.0585 0.6472
loop_
_geom_bond_atom_site_label_1
_geom_bond_atom_site_label_2
_geom_bond_site_symmetry_1
_geom_bond_site_symmetry_2
Cl1 C22 1_555 1_555
O1 C11 1_555 1_555
O2 C2 1_555 1_555
N1 H1 1_555 1_555
C1 H2 1_555 1_555
H3 C1 1_555 1_555
C2 C5 1_555 1_555
C3 N1 1_555 1_555
C4 N1 1_555 1_555
C5 C3 1_555 1_555
C6 H4 1_555 1_555
C7 C2 1_555 1_555
H5 C7 1_555 1_555
H6 C7 1_555 1_555
C8 C6 1_555 1_555
C9 C1 1_555 1_555
C10 C8 1_555 1_555
C11 C5 1_555 1_555
H7 C11 1_555 1_555
C12 C10 1_555 1_555
H8 C12 1_555 1_555
C13 C9 1_555 1_555
H9 C13 1_555 1_555
H10 C13 1_555 1_555
H11 C13 1_555 1_555
C14 O1 1_555 1_555
C15 C9 1_555 1_555
H12 C15 1_555 1_555
H13 C15 1_555 1_555
H14 C15 1_555 1_555
C16 C6 1_555 1_555
H15 C16 1_555 1_555
C17 C14 1_555 1_555
C18 C4 1_555 1_555
H16 C18 1_555 1_555
C19 C16 1_555 1_555
H17 C19 1_555 1_555
C20 C10 1_555 1_555
H18 C20 1_555 1_555
C21 C4 1_555 1_555
H19 C21 1_555 1_555
C22 C23 1_555 1_555
C23 H20 1_555 1_555
C24 C17 1_555 1_555
H21 C24 1_555 1_555
C25 C17 1_555 1_555
H22 C25 1_555 1_555
C26 C22 1_555 1_555
H23 C26 1_555 1_555
C27 C18 1_555 1_555
H24 C27 1_555 1_555
C28 C27 1_555 1_555
H25 C28 1_555 1_555
C29 C21 1_555 1_555
H26 C29 1_555 1_555
C1 C3 1_555 1_555
C7 C9 1_555 1_555
C8 C11 1_555 1_555
C12 C14 1_555 1_555
C19 C20 1_555 1_555
C23 C24 1_555 1_555
C25 C26 1_555 1_555
C28 C29 1_555 1_555

#END
