
#######################################################################
#
#                 Cambridge Crystallographic Data Centre
#                                CCDC 
#
#######################################################################
#
# If this CIF has been generated from an entry in the Cambridge 
# Structural Database, then it will include bibliographic, chemical, 
# crystal, experimental, refinement or atomic coordinate data resulting 
# from the CCDC's data processing and validation procedures.
#
#######################################################################

data_NEBDOO
_chemical_formula_moiety         'C36 H32 N2 O6 S2,2(C1 H2 Cl2)'
_chemical_name_systematic        
"3,3'-(1,2-Ethynediylbis(2,5-dihydrofuran-4,3-diyl-2,1-ethynediyl))bis(1-(p-tosyl)-2,5-dihydro-1H-pyrrole) dichloromethane solvate"
_symmetry_cell_setting           triclinic
_symmetry_space_group_name_H-M   'P -1'
_symmetry_Int_Tables_number      2
_space_group_name_Hall           '-P 1'
loop_
_symmetry_equiv_pos_site_id
_symmetry_equiv_pos_as_xyz
1 x,y,z
2 -x,-y,-z
_cell_length_a                   6.2717(11)
_cell_length_b                   9.5873(17)
_cell_length_c                   16.319(3)
_cell_angle_alpha                95.316(2)
_cell_angle_beta                 97.598(2)
_cell_angle_gamma                96.233(2)
_cell_volume                     961.157
_exptl_crystal_colour            colorless
_exptl_crystal_description       block
_cell_formula_units_Z            1
loop_
_atom_site_label
_atom_site_type_symbol
_atom_site_fract_x
_atom_site_fract_y
_atom_site_fract_z
S1 S 0.45126(7) 1.00916(4) 0.69165(3)
O1 O 0.2202(2) 1.00457(14) 0.67981(9)
O2 O 0.5868(2) 1.14201(13) 0.70554(9)
O3 O 1.4693(2) 0.60346(13) 1.10100(9)
N1 N 0.5130(2) 0.92785(16) 0.77306(10)
C1 C 0.5248(3) 0.90866(18) 0.60629(11)
C2 C 0.7305(3) 0.93890(19) 0.58409(12)
H1 H 0.8273 1.0170 0.6121
C3 C 0.7911(3) 0.8534(2) 0.52058(13)
H2 H 0.9309 0.8741 0.5050
C4 C 0.6538(3) 0.7380(2) 0.47881(12)
C5 C 0.4485(3) 0.7099(2) 0.50176(12)
H3 H 0.3519 0.6318 0.4736
C6 C 0.3833(3) 0.79458(19) 0.56517(12)
H4 H 0.2429 0.7747 0.5804
C7 C 0.7252(4) 0.6462(2) 0.41022(15)
H5 H 0.6355 0.5543 0.4016
H6 H 0.8774 0.6328 0.4256
H7 H 0.7091 0.6917 0.3588
C8 C 0.7433(3) 0.93054(18) 0.80849(12)
H8 H 0.7959 1.0173 0.8468
H9 H 0.8369 0.9230 0.7643
C9 C 0.7339(3) 0.80041(18) 0.85462(11)
C10 C 0.5386(3) 0.72476(19) 0.83770(11)
H10 H 0.5013 0.6390 0.8602
C11 C 0.3868(3) 0.7902(2) 0.77974(13)
H11 H 0.2512 0.8034 0.8028
H12 H 0.3510 0.7328 0.7250
C12 C 0.9157(3) 0.76992(18) 0.90865(11)
C13 C 1.0692(3) 0.74641(18) 0.95496(11)
C14 C 1.2491(3) 0.71919(17) 1.01018(10)
C15 C 1.2679(3) 0.58227(18) 1.04670(11)
H13 H 1.1460 0.5593 1.0780
H14 H 1.2673 0.5043 1.0024
C16 C 1.5834(3) 0.74009(18) 1.09575(12)
H15 H 1.7216 0.7310 1.0738
H16 H 1.6147 0.7959 1.1510
C17 C 1.4322(3) 0.80809(17) 1.03715(11)
C18 C 1.4801(3) 0.94390(19) 1.01218(11)
S1A S 2.54874(7) 0.99084(4) 1.30835(3)
O1A O 2.7798(2) 0.99543(14) 1.32019(9)
O2A O 2.4132(2) 0.85799(13) 1.29446(9)
O3A O 1.5307(2) 1.39654(13) 0.89900(9)
N1A N 2.4870(2) 1.07215(16) 1.22694(10)
C1A C 2.4752(3) 1.09134(18) 1.39371(11)
C2A C 2.2695(3) 1.06110(19) 1.41591(12)
H1A H 2.1727 0.9830 1.3879
C3A C 2.2089(3) 1.1466(2) 1.47942(13)
H2A H 2.0691 1.1259 1.4950
C4A C 2.3462(3) 1.2620(2) 1.52119(12)
C5A C 2.5515(3) 1.2901(2) 1.49824(12)
H3A H 2.6481 1.3682 1.5264
C6A C 2.6167(3) 1.20542(19) 1.43483(12)
H4A H 2.7571 1.2253 1.4196
C7A C 2.2748(4) 1.3538(2) 1.58978(15)
H5A H 2.3645 1.4457 1.5984
H6A H 2.1226 1.3672 1.5744
H7A H 2.2909 1.3083 1.6412
C8A C 2.2567(3) 1.06946(18) 1.19151(12)
H8A H 2.2041 0.9827 1.1532
H9A H 2.1631 1.0770 1.2357
C9A C 2.2661(3) 1.19959(18) 1.14538(11)
C10A C 2.4614(3) 1.27524(19) 1.16230(11)
H10A H 2.4987 1.3610 1.1398
C11A C 2.6132(3) 1.2098(2) 1.22026(13)
H11A H 2.7488 1.1966 1.1972
H12A H 2.6490 1.2672 1.2750
C12A C 2.0843(3) 1.23008(18) 1.09135(11)
C13A C 1.9308(3) 1.25359(18) 1.04504(11)
C14A C 1.7509(3) 1.28081(17) 0.98982(10)
C15A C 1.7321(3) 1.41773(18) 0.95330(11)
H13A H 1.8540 1.4407 0.9220
H14A H 1.7327 1.4957 0.9976
C16A C 1.4166(3) 1.25991(18) 0.90425(12)
H15A H 1.2784 1.2690 0.9262
H16A H 1.3853 1.2041 0.8490
C17A C 1.5678(3) 1.19191(17) 0.96285(11)
C18A C 1.5199(3) 1.05610(19) 0.98782(11)
Cl1 Cl -0.08685(8) 0.55759(5) 0.21549(3)
Cl2 Cl 0.15865(8) 0.40272(5) 0.33380(3)
C19 C 0.1696(3) 0.5447(2) 0.27177(14)
H17 H 0.2210 0.6340 0.3079
H18 H 0.2746 0.5308 0.2324
loop_
_geom_bond_atom_site_label_1
_geom_bond_atom_site_label_2
_geom_bond_site_symmetry_1
_geom_bond_site_symmetry_2
S1 O1 1_555 1_555
Cl1 C19 1_555 1_555
Cl2 C19 1_555 1_555
O2 S1 1_555 1_555
O3 C15 1_555 1_555
N1 S1 1_555 1_555
C1 S1 1_555 1_555
C2 C1 1_555 1_555
H1 C2 1_555 1_555
C3 C2 1_555 1_555
H2 C3 1_555 1_555
C4 C3 1_555 1_555
C5 C4 1_555 1_555
H3 C5 1_555 1_555
C6 C1 1_555 1_555
H4 C6 1_555 1_555
C7 C4 1_555 1_555
H5 C7 1_555 1_555
H6 C7 1_555 1_555
H7 C7 1_555 1_555
C8 N1 1_555 1_555
H8 C8 1_555 1_555
H9 C8 1_555 1_555
C9 C8 1_555 1_555
C10 C9 1_555 1_555
H10 C10 1_555 1_555
C11 N1 1_555 1_555
H11 C11 1_555 1_555
H12 C11 1_555 1_555
C12 C9 1_555 1_555
C13 C12 1_555 1_555
C14 C13 1_555 1_555
C15 C14 1_555 1_555
H13 C15 1_555 1_555
H14 C15 1_555 1_555
C16 O3 1_555 1_555
H15 C16 1_555 1_555
H16 C16 1_555 1_555
C17 C14 1_555 1_555
C18 C17 1_555 1_555
C19 H17 1_555 1_555
H18 C19 1_555 1_555
S1A O1A 1_555 1_555
O2A S1A 1_555 1_555
O3A C15A 1_555 1_555
N1A S1A 1_555 1_555
C1A S1A 1_555 1_555
C2A C1A 1_555 1_555
H1A C2A 1_555 1_555
C3A C2A 1_555 1_555
H2A C3A 1_555 1_555
C4A C3A 1_555 1_555
C5A C4A 1_555 1_555
H3A C5A 1_555 1_555
C6A C1A 1_555 1_555
H4A C6A 1_555 1_555
C7A C4A 1_555 1_555
H5A C7A 1_555 1_555
H6A C7A 1_555 1_555
H7A C7A 1_555 1_555
C8A N1A 1_555 1_555
H8A C8A 1_555 1_555
H9A C8A 1_555 1_555
C9A C8A 1_555 1_555
C10A C9A 1_555 1_555
H10A C10A 1_555 1_555
C11A N1A 1_555 1_555
H11A C11A 1_555 1_555
H12A C11A 1_555 1_555
C12A C9A 1_555 1_555
C13A C12A 1_555 1_555
C14A C13A 1_555 1_555
C15A C14A 1_555 1_555
H13A C15A 1_555 1_555
H14A C15A 1_555 1_555
C16A O3A 1_555 1_555
H15A C16A 1_555 1_555
H16A C16A 1_555 1_555
C17A C14A 1_555 1_555
C18A C18 1_555 1_555
C5 C6 1_555 1_555
C10 C11 1_555 1_555
C16 C17 1_555 1_555
C5A C6A 1_555 1_555
C10A C11A 1_555 1_555
C16A C17A 1_555 1_555
C17A C18A 1_555 1_555

#END
