
#######################################################################
#
#                 Cambridge Crystallographic Data Centre
#                                CCDC 
#
#######################################################################
#
# If this CIF has been generated from an entry in the Cambridge 
# Structural Database, then it will include bibliographic, chemical, 
# crystal, experimental, refinement or atomic coordinate data resulting 
# from the CCDC's data processing and validation procedures.
#
#######################################################################

data_NEBDEE
_chemical_formula_moiety         'C42 H42 N28 O14,C4 H8 O1,14(H2 O1)'
_chemical_name_systematic        
'Inverted cucurbit(7)uril tetrahydrofuran clathrate tetradecahydrate'
_symmetry_cell_setting           rhombohedral
_symmetry_space_group_name_H-M   'R -3'
_symmetry_Int_Tables_number      148
_space_group_name_Hall           '-R 3'
loop_
_symmetry_equiv_pos_site_id
_symmetry_equiv_pos_as_xyz
1 x,y,z
2 -y,x-y,z
3 -x+y,-x,z
4 2/3+x,1/3+y,1/3+z
5 2/3-y,1/3+x-y,1/3+z
6 2/3-x+y,1/3-x,1/3+z
7 1/3+x,2/3+y,2/3+z
8 1/3-y,2/3+x-y,2/3+z
9 1/3-x+y,2/3-x,2/3+z
10 -x,-y,-z
11 y,-x+y,-z
12 x-y,x,-z
13 1/3-x,2/3-y,2/3-z
14 1/3+y,2/3-x+y,2/3-z
15 1/3+x-y,2/3+x,2/3-z
16 2/3-x,1/3-y,1/3-z
17 2/3+y,1/3-x+y,1/3-z
18 2/3+x-y,1/3+x,1/3-z
_cell_length_a                   32.200(5)
_cell_length_b                   32.200(5)
_cell_length_c                   32.581(7)
_cell_angle_alpha                90
_cell_angle_beta                 90
_cell_angle_gamma                120.00
_cell_volume                     29255.5
_exptl_crystal_colour            colorless
_exptl_crystal_description       block
_cell_formula_units_Z            18
loop_
_atom_site_label
_atom_site_type_symbol
_atom_site_fract_x
_atom_site_fract_y
_atom_site_fract_z
O1 O 0.85675(10) 0.86810(10) 0.22510(8)
O2 O 0.77302(10) 0.74889(10) 0.11676(9)
O3 O 0.67231(9) 0.67608(9) 0.04781(8)
O4 O 0.55811(9) 0.67113(10) 0.05703(9)
O5 O 0.52801(10) 0.73604(10) 0.13705(8)
O6 O 0.60331(10) 0.82089(10) 0.21556(9)
O7 O 0.73213(11) 0.87459(11) 0.25130(8)
O8 O 0.91489(9) 1.01987(9) 0.10388(8)
O9 O 0.86111(9) 0.91950(9) 0.00081(8)
O10 O 0.75436(10) 0.85577(10) -0.06472(9)
O11 O 0.63451(10) 0.85448(10) -0.05149(9)
O12 O 0.58974(11) 0.91214(10) 0.03154(9)
O13 O 0.64306(9) 0.99619(10) 0.11154(8)
O14 O 0.76394(10) 1.02269(10) 0.12752(9)
N1 N 0.84169(13) 0.86868(12) 0.15587(10)
N2 N 0.84390(11) 0.81869(11) 0.10302(10)
N3 N 0.80426(11) 0.76964(11) 0.05144(9)
N4 N 0.73592(12) 0.72775(11) 0.00699(9)
N5 N 0.66194(11) 0.70290(11) -0.01458(9)
N6 N 0.58767(11) 0.70391(11) -0.00745(10)
N7 N 0.53913(12) 0.72314(11) 0.02505(10)
N8 N 0.50905(13) 0.75711(11) 0.07488(10)
N9 N 0.52268(12) 0.80426(11) 0.12851(10)
N10 N 0.56644(11) 0.85750(11) 0.18453(9)
N11 N 0.63548(11) 0.90331(11) 0.21754(10)
N12 N 0.71780(11) 0.93708(12) 0.23929(10)
N13 N 0.79234(12) 0.95183(12) 0.23650(10)
N14 N 0.83283(13) 0.91862(13) 0.19676(10)
N15 N 0.84602(11) 0.97563(11) 0.14167(10)
N16 N 0.87751(11) 0.93713(11) 0.10953(10)
N17 N 0.87950(11) 0.88723(11) 0.05610(9)
N18 N 0.83795(10) 0.83867(10) 0.00464(9)
N19 N 0.76772(11) 0.79682(11) -0.03858(10)
N20 N 0.69391(11) 0.77772(11) -0.05398(10)
N21 N 0.61772(11) 0.77600(12) -0.04965(11)
N22 N 0.56840(12) 0.79443(12) -0.01822(10)
N23 N 0.54081(12) 0.82979(12) 0.03333(9)
N24 N 0.53910(12) 0.87321(11) 0.08543(10)
N25 N 0.58341(11) 0.92670(11) 0.14160(10)
N26 N 0.64892(11) 0.97320(11) 0.17755(9)
N27 N 0.73228(11) 1.00203(11) 0.19293(9)
N28 N 0.80109(11) 1.00390(11) 0.17894(9)
C1 C 0.84501(14) 0.88445(15) 0.19541(13)
C2 C 0.85755(15) 0.83539(14) 0.14425(12)
H1 H 0.8929 0.8514 0.1468
H2 H 0.8434 0.8077 0.1632
C3 C 0.80360(14) 0.77614(13) 0.09259(12)
C4 C 0.77245(13) 0.72567(13) 0.03125(12)
H3 H 0.7567 0.7002 0.0522
H4 H 0.7914 0.7167 0.0132
C5 C 0.68774(13) 0.69966(13) 0.01622(12)
C6 C 0.61066(14) 0.67533(13) -0.01645(13)
H5 H 0.5991 0.6486 0.0035
H6 H 0.6009 0.6612 -0.0442
C7 C 0.56174(14) 0.69742(15) 0.02802(12)
C8 C 0.50051(15) 0.71534(15) 0.05184(13)
H7 H 0.4946 0.6894 0.0713
H8 H 0.4711 0.7043 0.0352
C9 C 0.52120(14) 0.76320(15) 0.11577(13)
C10 C 0.52349(14) 0.81486(14) 0.17220(12)
H9 H 0.4955 0.8186 0.1787
H10 H 0.5204 0.7874 0.1883
C11 C 0.60203(14) 0.85679(15) 0.20651(12)
C12 C 0.66725(13) 0.91206(14) 0.25188(12)
H11 H 0.6593 0.8811 0.2648
H12 H 0.6623 0.9316 0.2726
C13 C 0.74550(14) 0.91677(15) 0.24302(11)
C14 C 0.83151(14) 0.94205(16) 0.23490(12)
H13 H 0.8287 0.9213 0.2584
H14 H 0.8621 0.9726 0.2379
C15 C 0.81805(14) 0.92676(14) 0.15664(11)
H15 H 0.7828 0.9144 0.1551
C16 C 0.83418(14) 0.89886(14) 0.12812(12)
H16 H 0.8093 0.8797 0.1070
C17 C 0.87541(14) 0.84150(14) 0.06801(12)
H17 H 0.9075 0.8441 0.0717
C18 C 0.84694(13) 0.80806(13) 0.03169(12)
H18 H 0.8659 0.7954 0.0175
C19 C 0.74315(13) 0.74596(13) -0.03487(11)
H19 H 0.7577 0.7313 -0.0527
C20 C 0.69091(13) 0.73092(13) -0.04872(12)
H20 H 0.6819 0.7120 -0.0748
C21 C 0.57755(13) 0.72947(14) -0.03836(12)
H21 H 0.5620 0.7090 -0.0630
C22 C 0.54332(14) 0.74291(14) -0.01601(12)
H22 H 0.5114 0.7285 -0.0300
C23 C 0.50200(15) 0.79499(14) 0.05890(12)
H23 H 0.4701 0.7821 0.0452
C24 C 0.50591(13) 0.82459(13) 0.09775(12)
H24 H 0.4741 0.8207 0.1054
C25 C 0.57225(14) 0.90539(14) 0.18228(12)
H25 H 0.5443 0.9063 0.1947
C26 C 0.61914(13) 0.93711(14) 0.20640(12)
H26 H 0.6131 0.9514 0.2313
C27 C 0.74554(14) 0.98805(14) 0.23110(11)
H27 H 0.7449 1.0074 0.2549
C28 C 0.79615(14) 0.99622(14) 0.22346(12)
H28 H 0.8212 1.0244 0.2391
C29 C 0.84507(14) 1.01752(14) 0.15766(13)
H29 H 0.8724 1.0352 0.1766
H30 H 0.8487 1.0392 0.1347
C30 C 0.88263(14) 0.98131(14) 0.11719(11)
C31 C 0.90643(13) 0.93032(13) 0.07869(12)
H31 H 0.9199 0.9578 0.0595
H32 H 0.9335 0.9297 0.0924
C32 C 0.85988(14) 0.88530(15) 0.01891(12)
C33 C 0.82056(13) 0.82604(14) -0.03659(12)
H33 H 0.8346 0.8079 -0.0492
H34 H 0.8313 0.8557 -0.0528
C34 C 0.74038(14) 0.81443(15) -0.05321(12)
C35 C 0.65637(14) 0.78155(15) -0.07652(13)
H35 H 0.6708 0.8132 -0.0902
H36 H 0.6430 0.7566 -0.0981
C36 C 0.60935(14) 0.81239(15) -0.04109(12)
C37 C 0.54522(16) 0.82212(15) -0.00986(13)
H37 H 0.5128 0.8055 -0.0222
H38 H 0.5636 0.8537 -0.0235
C38 C 0.55973(15) 0.87559(15) 0.04902(13)
C39 C 0.54823(15) 0.91439(14) 0.10991(13)
H39 H 0.5589 0.9423 0.0915
H40 H 0.5177 0.9081 0.1227
C40 C 0.62771(14) 0.96809(14) 0.14050(12)
C41 C 0.69571(13) 1.01390(13) 0.18834(12)
H41 H 0.7055 1.0387 0.1667
H42 H 0.6926 1.0280 0.2144
C42 C 0.76587(14) 1.01073(13) 0.16247(13)
O15 O 0.73415(16) 0.88921(16) 0.07492(13)
C43 C 0.6926(2) 0.8787(3) 0.0998(2)
C44 C 0.6547(7) 0.8538(8) 0.0709(6)
C45 C 0.6693(4) 0.8216(7) 0.0548(8)
C48 C 0.7211(2) 0.8456(2) 0.0511(2)
O16 O 1.0629(8) 1.1243(11) 0.3975(8)
O18 O 0.9799(8) 0.9127(5) 0.3078(5)
O20 O 0.9466(5) 1.0298(5) 0.4626(5)
O22 O 0.89991(15) 0.80618(14) 0.22613(12)
O24 O 0.9798(7) 0.9530(7) 0.1993(5)
O27 O 0.7254(3) 0.8182(3) 0.31601(15)
O29 O 0.7505(10) 0.8885(12) 0.3770(9)
O31 O 0.6272(19) 0.7507(18) 0.3272(14)
O34 O 0.82443(18) 0.85890(16) 0.30851(16)
O35 O 0.7328(4) 0.8252(3) 0.1799(3)
O36 O 0.75925(11) 0.75399(12) 0.20317(10)
O37 O 0.9064(4) 0.9218(4) 0.2996(4)
O38 O 0.86797(13) 0.74160(13) 0.15320(12)
O40 O 0.88731(13) 0.68007(12) 0.19521(11)
O41 O 0.6404(5) 0.7741(5) 0.1530(5)
O42 O 0.7483(6) 0.8070(5) 0.2641(4)
C46? C 0.6566(4) 0.8273(4) 0.0877(4)
C47? C 0.6812(4) 0.8033(3) 0.0706(4)
O17? O 1.0322(8) 1.0912(10) 0.4222(7)
O19? O 1.0009(14) 0.9299(11) 0.3114(12)
O21? O 1.0414(9) 1.0872(10) 0.4417(10)
O23? O 0.9401(5) 0.8634(5) 0.2418(4)
O25? O 1.0000 1.0000 0.1724(7)
O26? O 0.9663(8) 0.9831(7) 0.1931(6)
O28? O 0.724(2) 0.838(2) 0.3220(19)
O30? O 0.7689(10) 0.8896(12) 0.3760(9)
O32? O 0.6425(18) 0.7495(18) 0.3176(14)
O33? O 0.842(2) 0.923(2) 0.348(2)
O39? O 0.8530(7) 0.9330(5) 0.3622(7)
O43? O 0.6732(7) 0.7913(7) 0.1861(6)
loop_
_geom_bond_atom_site_label_1
_geom_bond_atom_site_label_2
_geom_bond_site_symmetry_1
_geom_bond_site_symmetry_2
O1 C1 1_555 1_555
O2 C3 1_555 1_555
O3 C5 1_555 1_555
O4 C7 1_555 1_555
O5 C9 1_555 1_555
O6 C11 1_555 1_555
O7 C13 1_555 1_555
O8 C30 1_555 1_555
O9 C32 1_555 1_555
O10 C34 1_555 1_555
O11 C36 1_555 1_555
O12 C38 1_555 1_555
O13 C40 1_555 1_555
O14 C42 1_555 1_555
N1 C1 1_555 1_555
N2 C2 1_555 1_555
N3 C3 1_555 1_555
N4 C4 1_555 1_555
N5 C5 1_555 1_555
N6 C6 1_555 1_555
N7 C7 1_555 1_555
N8 C8 1_555 1_555
N9 C9 1_555 1_555
N10 C10 1_555 1_555
N11 C11 1_555 1_555
N12 C12 1_555 1_555
N13 C13 1_555 1_555
N14 C1 1_555 1_555
N15 C15 1_555 1_555
N16 C16 1_555 1_555
N17 C17 1_555 1_555
N18 C18 1_555 1_555
N19 C19 1_555 1_555
N20 C20 1_555 1_555
N21 C21 1_555 1_555
N22 C22 1_555 1_555
N23 C23 1_555 1_555
N24 C24 1_555 1_555
N25 C25 1_555 1_555
N26 C26 1_555 1_555
N27 C27 1_555 1_555
N28 C28 1_555 1_555
C2 N1 1_555 1_555
H1 C2 1_555 1_555
H2 C2 1_555 1_555
C3 N2 1_555 1_555
C4 N3 1_555 1_555
H3 C4 1_555 1_555
H4 C4 1_555 1_555
C5 N4 1_555 1_555
C6 N5 1_555 1_555
H5 C6 1_555 1_555
H6 C6 1_555 1_555
C7 N6 1_555 1_555
C8 N7 1_555 1_555
H7 C8 1_555 1_555
H8 C8 1_555 1_555
C9 N8 1_555 1_555
C10 N9 1_555 1_555
H9 C10 1_555 1_555
H10 C10 1_555 1_555
C11 N10 1_555 1_555
C12 N11 1_555 1_555
H11 C12 1_555 1_555
H12 C12 1_555 1_555
C13 N12 1_555 1_555
C14 N13 1_555 1_555
H13 C14 1_555 1_555
H14 C14 1_555 1_555
C15 N14 1_555 1_555
H15 C15 1_555 1_555
C16 N1 1_555 1_555
H16 C16 1_555 1_555
C17 N2 1_555 1_555
H17 C17 1_555 1_555
C18 N3 1_555 1_555
H18 C18 1_555 1_555
C19 N4 1_555 1_555
H19 C19 1_555 1_555
C20 N5 1_555 1_555
H20 C20 1_555 1_555
C21 N6 1_555 1_555
H21 C21 1_555 1_555
C22 N7 1_555 1_555
H22 C22 1_555 1_555
C23 N8 1_555 1_555
H23 C23 1_555 1_555
C24 N9 1_555 1_555
H24 C24 1_555 1_555
C25 N10 1_555 1_555
H25 C25 1_555 1_555
C26 N11 1_555 1_555
H26 C26 1_555 1_555
C27 N12 1_555 1_555
H27 C27 1_555 1_555
C28 N13 1_555 1_555
H28 C28 1_555 1_555
C29 N15 1_555 1_555
H29 C29 1_555 1_555
H30 C29 1_555 1_555
C30 N15 1_555 1_555
C31 N16 1_555 1_555
H31 C31 1_555 1_555
H32 C31 1_555 1_555
C32 N17 1_555 1_555
C33 N18 1_555 1_555
H33 C33 1_555 1_555
H34 C33 1_555 1_555
C34 N19 1_555 1_555
C35 N20 1_555 1_555
H35 C35 1_555 1_555
H36 C35 1_555 1_555
C36 N21 1_555 1_555
C37 N22 1_555 1_555
H37 C37 1_555 1_555
H38 C37 1_555 1_555
C38 N23 1_555 1_555
C39 N24 1_555 1_555
H39 C39 1_555 1_555
H40 C39 1_555 1_555
C40 N25 1_555 1_555
C41 N26 1_555 1_555
H41 C41 1_555 1_555
H42 C41 1_555 1_555
C42 N27 1_555 1_555
O15 C43 1_555 1_555
C43 C44 1_555 1_555
C44 C45 1_555 1_555
C45 C48 1_555 1_555
C48 O15 1_555 1_555
N14 C14 1_555 1_555
N16 C30 1_555 1_555
N17 C31 1_555 1_555
N18 C32 1_555 1_555
N19 C33 1_555 1_555
N20 C34 1_555 1_555
N21 C35 1_555 1_555
N22 C36 1_555 1_555
N23 C37 1_555 1_555
N24 C38 1_555 1_555
N25 C39 1_555 1_555
N26 C40 1_555 1_555
N27 C41 1_555 1_555
N28 C29 1_555 1_555
N28 C42 1_555 1_555
C15 C16 1_555 1_555
C17 C18 1_555 1_555
C19 C20 1_555 1_555
C21 C22 1_555 1_555
C23 C24 1_555 1_555
C25 C26 1_555 1_555
C27 C28 1_555 1_555

#END
