
#######################################################################
#
#                 Cambridge Crystallographic Data Centre
#                                CCDC 
#
#######################################################################
#
# If this CIF has been generated from an entry in the Cambridge 
# Structural Database, then it will include bibliographic, chemical, 
# crystal, experimental, refinement or atomic coordinate data resulting 
# from the CCDC's data processing and validation procedures.
#
#######################################################################

data_NEBMIS
_chemical_formula_moiety         'C21 H15 Br3 N2'
_chemical_name_systematic        
2,4,5-tris(2-bromophenyl)-4,5-dihydro-1H-imidazole
_symmetry_cell_setting           monoclinic
_symmetry_space_group_name_H-M   'P 21/n'
_symmetry_Int_Tables_number      14
_space_group_name_Hall           '-P 2yn'
loop_
_symmetry_equiv_pos_site_id
_symmetry_equiv_pos_as_xyz
1 x,y,z
2 1/2-x,1/2+y,1/2-z
3 -x,-y,-z
4 1/2+x,1/2-y,1/2+z
_cell_length_a                   11.633(2)
_cell_length_b                   17.196(3)
_cell_length_c                   20.112(4)
_cell_angle_alpha                90
_cell_angle_beta                 93.68(3)
_cell_angle_gamma                90
_cell_volume                     4014.93
_exptl_crystal_colour            colorless
_exptl_crystal_description       prism
_cell_formula_units_Z            8
loop_
_atom_site_label
_atom_site_type_symbol
_atom_site_fract_x
_atom_site_fract_y
_atom_site_fract_z
Br1 Br 0.45463(9) 0.33286(7) 0.36892(5)
N1 N 0.3737(6) 0.3211(4) 0.2108(3)
H1 H 0.4157 0.3578 0.2284
C1 C 0.2898(6) 0.2824(4) 0.2399(3)
Br2 Br 0.49549(7) 0.08650(5) 0.08492(4)
N2 N 0.2544(5) 0.2185(4) 0.2125(3)
C2 C 0.3802(6) 0.2890(4) 0.1440(3)
H2 H 0.4604 0.2864 0.1320
Br3 Br 0.45959(9) 0.28444(6) -0.00620(5)
C3 C 0.3324(6) 0.2048(4) 0.1575(4)
H4 H 0.3973 0.1736 0.1759
C20 C 0.2339(7) 0.3129(4) 0.2993(4)
C21 C 0.2935(8) 0.3406(5) 0.3561(4)
C22 C 0.2376(11) 0.3704(6) 0.4096(4)
H15 H 0.2795 0.3891 0.4472
C23 C 0.1131(8) 0.3160(5) 0.2963(4)
H16 H 0.0707 0.2995 0.2581
C24 C 0.3075(7) 0.3361(4) 0.0924(4)
C25 C 0.3321(8) 0.3401(5) 0.0257(4)
C26 C 0.2657(11) 0.3838(6) -0.0203(5)
H17 H 0.2857 0.3865 -0.0643
C27 C 0.1698(10) 0.4233(6) -0.0010(5)
H18 H 0.1240 0.4518 -0.0318
C28 C 0.1436(9) 0.4197(5) 0.0640(5)
H19 H 0.0793 0.4460 0.0776
C29 C 0.2116(8) 0.3772(5) 0.1102(4)
H20 H 0.1923 0.3763 0.1544
C30 C 0.2774(7) 0.1608(4) 0.1000(4)
C31 C 0.3370(7) 0.1066(5) 0.0634(4)
C32 C 0.2844(8) 0.0658(5) 0.0103(4)
H21 H 0.3268 0.0307 -0.0135
C33 C 0.1600(7) 0.1720(5) 0.0804(4)
H22 H 0.1170 0.2074 0.1034
C35 C 0.1696(8) 0.0774(6) -0.0072(5)
H23 H 0.1327 0.0496 -0.0420
C39 C 0.1092(7) 0.1321(6) 0.0289(4)
H27 H 0.0318 0.1411 0.0169
C40 C 0.0575(9) 0.3436(6) 0.3500(5)
H28 H -0.0226 0.3434 0.3486
C41 C 0.1193(12) 0.3715(6) 0.4059(5)
H29 H 0.0805 0.3912 0.4413
N3 N 0.0851(5) 0.1141(4) 0.2595(3)
H3 H 0.1033 0.1605 0.2724
Br4 Br 0.20894(9) 0.13443(6) 0.41188(5)
C4 C -0.2042(6) 0.1616(5) 0.1854(4)
C5 C -0.0187(6) 0.0917(5) 0.2208(4)
H5 H -0.0044 0.0975 0.1735
C6 C -0.3104(8) 0.2336(5) 0.2631(5)
H6 H -0.3732 0.2641 0.2727
C7 C 0.4299(8) 0.1065(5) 0.3656(5)
H7 H 0.4554 0.1342 0.4034
C8 C -0.1207(6) 0.1400(4) 0.2344(4)
C9 C -0.0220(6) 0.0022(4) 0.2368(4)
H8 H -0.0413 -0.0262 0.1953
C10 C -0.2103(8) -0.0540(5) 0.2721(5)
C11 C 0.3129(7) 0.0962(5) 0.3505(4)
C12 C -0.2813(9) -0.0852(6) 0.3202(6)
H9 H -0.3528 -0.1063 0.3073
C13 C -0.2283(8) 0.2138(6) 0.3134(5)
H10 H -0.2352 0.2317 0.3566
C14 C -0.2983(7) 0.2075(5) 0.1980(4)
H11 H -0.3524 0.2207 0.1638
C15 C 0.3529(7) 0.0240(5) 0.2533(4)
H12 H 0.3274 -0.0039 0.2156
C16 C -0.0668(8) -0.0248(6) 0.3568(4)
H13 H 0.0054 -0.0050 0.3702
C17 C 0.4701(7) 0.0335(6) 0.2681(5)
H14 H 0.5230 0.0119 0.2406
C18 C 0.2733(6) 0.0556(4) 0.2938(4)
C19 C -0.1021(7) -0.0247(4) 0.2892(4)
N4 N 0.0971(5) -0.0166(4) 0.2600(4)
Br5 Br -0.26739(8) -0.05733(6) 0.18121(5)
Br6 Br -0.19216(8) 0.13271(7) 0.09469(4)
C34 C 0.1498(6) 0.0478(4) 0.2719(4)
C36 C -0.2428(10) -0.0838(6) 0.3860(6)
H24 H -0.2887 -0.1033 0.4183
C37 C -0.1366(7) 0.1677(5) 0.2988(4)
H25 H -0.0829 0.1542 0.3331
C38 C 0.5079(8) 0.0757(6) 0.3246(5)
H26 H 0.5863 0.0830 0.3345
C42 C -0.1363(11) -0.0535(6) 0.4041(5)
H30 H -0.1106 -0.0524 0.4489
loop_
_geom_bond_atom_site_label_1
_geom_bond_atom_site_label_2
_geom_bond_site_symmetry_1
_geom_bond_site_symmetry_2
Br1 C21 1_555 1_555
N1 H1 1_555 1_555
C1 N1 1_555 1_555
Br2 C31 1_555 1_555
N2 C1 1_555 1_555
C2 N1 1_555 1_555
H2 C2 1_555 1_555
Br3 C25 1_555 1_555
N3 H3 1_555 1_555
C3 N2 1_555 1_555
H4 C3 1_555 1_555
Br4 C11 1_555 1_555
C4 C8 1_555 1_555
C5 N3 1_555 1_555
H5 C5 1_555 1_555
C6 H6 1_555 1_555
C7 H7 1_555 1_555
C8 C5 1_555 1_555
C9 C5 1_555 1_555
H8 C9 1_555 1_555
C10 C12 1_555 1_555
C11 C7 1_555 1_555
C12 H9 1_555 1_555
C13 C6 1_555 1_555
H10 C13 1_555 1_555
C14 C4 1_555 1_555
H11 C14 1_555 1_555
C15 H12 1_555 1_555
C16 H13 1_555 1_555
C17 C15 1_555 1_555
H14 C17 1_555 1_555
C18 C11 1_555 1_555
C19 C9 1_555 1_555
N4 C9 1_555 1_555
C20 C1 1_555 1_555
Br5 C10 1_555 1_555
C21 C20 1_555 1_555
Br6 C4 1_555 1_555
C22 C21 1_555 1_555
H15 C22 1_555 1_555
C23 C20 1_555 1_555
H16 C23 1_555 1_555
C24 C2 1_555 1_555
C25 C24 1_555 1_555
C26 C25 1_555 1_555
H17 C26 1_555 1_555
C27 C26 1_555 1_555
H18 C27 1_555 1_555
C28 C27 1_555 1_555
H19 C28 1_555 1_555
C29 C24 1_555 1_555
H20 C29 1_555 1_555
C30 C3 1_555 1_555
C31 C30 1_555 1_555
C32 C31 1_555 1_555
H21 C32 1_555 1_555
C33 C30 1_555 1_555
H22 C33 1_555 1_555
C34 N3 1_555 1_555
C35 C32 1_555 1_555
H23 C35 1_555 1_555
C36 C12 1_555 1_555
H24 C36 1_555 1_555
C37 C8 1_555 1_555
H25 C37 1_555 1_555
C38 C7 1_555 1_555
H26 C38 1_555 1_555
C39 C33 1_555 1_555
H27 C39 1_555 1_555
C40 C23 1_555 1_555
H28 C40 1_555 1_555
C41 C22 1_555 1_555
H29 C41 1_555 1_555
C42 C16 1_555 1_555
H30 C42 1_555 1_555
C2 C3 1_555 1_555
C6 C14 1_555 1_555
C10 C19 1_555 1_555
C13 C37 1_555 1_555
C15 C18 1_555 1_555
C16 C19 1_555 1_555
C17 C38 1_555 1_555
C18 C34 1_555 1_555
N4 C34 1_555 1_555
C28 C29 1_555 1_555
C35 C39 1_555 1_555
C36 C42 1_555 1_555
C40 C41 1_555 1_555

#END
