
#######################################################################
#
#                 Cambridge Crystallographic Data Centre
#                                CCDC 
#
#######################################################################
#
# If this CIF has been generated from an entry in the Cambridge 
# Structural Database, then it will include bibliographic, chemical, 
# crystal, experimental, refinement or atomic coordinate data resulting 
# from the CCDC's data processing and validation procedures.
#
#######################################################################

data_NEBPOC
_chemical_formula_moiety         'C12 H12 N2 O2 S1,C6 H12 N4'
_chemical_name_systematic        
'4-((4-aminophenyl)sulfonyl)aniline 1,3,5,7-tetra-azatricyclo[3.3.1.1^3,7^]decane'
_symmetry_cell_setting           orthorhombic
_symmetry_space_group_name_H-M   'P m n 21'
_symmetry_Int_Tables_number      31
_space_group_name_Hall           'P 2ac -2'
loop_
_symmetry_equiv_pos_site_id
_symmetry_equiv_pos_as_xyz
1 x,y,z
2 1/2-x,-y,1/2+z
3 -x,y,z
4 1/2+x,-y,1/2+z
_cell_length_a                   15.0716(6)
_cell_length_b                   5.9851(2)
_cell_length_c                   10.0131(3)
_cell_angle_alpha                90
_cell_angle_beta                 90
_cell_angle_gamma                90
_cell_volume                     903.232
_exptl_crystal_colour            colorless
_exptl_crystal_description       prism
_cell_formula_units_Z            2
loop_
_atom_site_label
_atom_site_type_symbol
_atom_site_fract_x
_atom_site_fract_y
_atom_site_fract_z
S1 S 0.0000 0.11690(18) 0.41062(12)
O1 O 0.0000 0.3559(5) 0.4234(4)
O2 O 0.0000 0.0257(6) 0.2740(3)
C1 C 0.1320(2) 0.1257(5) 0.5945(3)
H1 H 0.1090 0.2670 0.6204
C2 C 0.1973(2) -0.2913(6) 0.5195(4)
H2 H 0.2196 -0.4334 0.4937
C3 C 0.0933(2) 0.0086(5) 0.4889(3)
N1 N 0.3046(2) -0.2741(7) 0.6961(4)
C4 C 0.1260(2) -0.2006(6) 0.4520(3)
H3 H 0.0993 -0.2804 0.3805
C5 C 0.2038(2) 0.0355(6) 0.6615(4)
H4 H 0.2308 0.1168 0.7321
C6 C 0.2373(2) -0.1764(6) 0.6257(4)
H5 H 0.334(3) -0.398(9) 0.660(5)
H6 H 0.333(4) -0.195(10) 0.751(5)
C1B C -0.1320(2) 0.1257(5) 0.5945(3)
H1B H -0.1090 0.2670 0.6204
C2B C -0.1973(2) -0.2913(6) 0.5195(4)
H2B H -0.2196 -0.4334 0.4937
C3B C -0.0933(2) 0.0086(5) 0.4889(3)
N1B N -0.3046(2) -0.2741(7) 0.6961(4)
C4B C -0.1260(2) -0.2006(6) 0.4520(3)
H3B H -0.0993 -0.2804 0.3805
C5B C -0.2038(2) 0.0355(6) 0.6615(4)
H4B H -0.2308 0.1168 0.7321
C6B C -0.2373(2) -0.1764(6) 0.6257(4)
H5B H -0.334(3) -0.398(9) 0.660(5)
H6B H -0.333(4) -0.195(10) 0.751(5)
C7 C 0.5000 0.2744(8) 0.2785(5)
H7 H 0.5531 0.2377 0.2245
N2 N 0.41856(18) 0.4336(5) 0.5152(3)
C8 C 0.4207(2) 0.5649(5) 0.3899(4)
H8 H 0.3668 0.5315 0.3371
H9 H 0.4200 0.7261 0.4120
N3 N 0.5000 0.5155(7) 0.3081(4)
C9 C 0.5000 0.4854(8) 0.5908(5)
H10 H 0.5000 0.3986 0.6750
H11 H 0.5000 0.6461 0.6144
C10 C 0.4211(2) 0.1953(6) 0.4791(4)
H12 H 0.4202 0.1046 0.5618
H13 H 0.3672 0.1581 0.4271
N4 N 0.5000 0.1359(6) 0.4004(5)
H7B H 0.4469 0.2377 0.2245
N2B N 0.58144(18) 0.4336(5) 0.5152(3)
C8B C 0.5793(2) 0.5649(5) 0.3899(4)
H8B H 0.6332 0.5315 0.3371
H9B H 0.5800 0.7261 0.4120
C10B C 0.5789(2) 0.1953(6) 0.4791(4)
H12B H 0.5798 0.1046 0.5618
H13B H 0.6328 0.1581 0.4271
H14? H 0.5531 0.2377 0.2245
loop_
_geom_bond_atom_site_label_1
_geom_bond_atom_site_label_2
_geom_bond_site_symmetry_1
_geom_bond_site_symmetry_2
S1 O1 1_555 1_555
O2 S1 1_555 1_555
C1 H1 1_555 1_555
C2 H2 1_555 1_555
C3 S1 1_555 1_555
N1 C6 1_555 1_555
C4 C2 1_555 1_555
H3 C4 1_555 1_555
C5 C1 1_555 1_555
H4 C5 1_555 1_555
C6 C2 1_555 1_555
H5 N1 1_555 1_555
H6 N1 1_555 1_555
C7 H7 1_555 1_555
N2 C8 1_555 1_555
C8 H8 1_555 1_555
H9 C8 1_555 1_555
N3 C7 1_555 1_555
C9 N2 1_555 1_555
H10 C9 1_555 1_555
H11 C9 1_555 1_555
C10 N2 1_555 1_555
H12 C10 1_555 1_555
H13 C10 1_555 1_555
N4 C7 1_555 1_555
C1B H1B 1_555 1_555
C2B H2B 1_555 1_555
C3B S1 1_555 1_555
N1B C6B 1_555 1_555
C4B C2B 1_555 1_555
H3B C4B 1_555 1_555
C5B C1B 1_555 1_555
H4B C5B 1_555 1_555
C6B C2B 1_555 1_555
H5B N1B 1_555 1_555
H6B N1B 1_555 1_555
H7B C7 1_555 1_555
N2B C9 1_555 1_555
C8B N3 1_555 1_555
H8B C8B 1_555 1_555
H9B C8B 1_555 1_555
C10B N4 1_555 1_555
H12B C10B 1_555 1_555
H13B C10B 1_555 1_555
C1 C3 1_555 1_555
C3 C4 1_555 1_555
C5 C6 1_555 1_555
C8 N3 1_555 1_555
C10 N4 1_555 1_555
C1B C3B 1_555 1_555
C3B C4B 1_555 1_555
C5B C6B 1_555 1_555
N2B C8B 1_555 1_555
N2B C10B 1_555 1_555

#END
