
#######################################################################
#
#                 Cambridge Crystallographic Data Centre
#                                CCDC 
#
#######################################################################
#
# If this CIF has been generated from an entry in the Cambridge 
# Structural Database, then it will include bibliographic, chemical, 
# crystal, experimental, refinement or atomic coordinate data resulting 
# from the CCDC's data processing and validation procedures.
#
#######################################################################

data_NEBQIX
_chemical_compound_source        
'deep-sea derived Streptomyces koyangensis SCSIO 5802'
_chemical_name_common            'neoabyssomicin A'
_chemical_formula_moiety         'C19 H24 O8'
_chemical_name_systematic        
5,14-dihydroxy-8,15,19-trimethyl-2,9,16-trioxatetracyclo[13.2.2.0^1,13^.0^4,12^]nonadec-4-ene-3,10,17-trione
_chemical_properties_biological  'tested for antibacterial activity'
_symmetry_cell_setting           orthorhombic
_symmetry_space_group_name_H-M   'P 21 21 21'
_symmetry_Int_Tables_number      19
_space_group_name_Hall           'P 2ac 2ab'
loop_
_symmetry_equiv_pos_site_id
_symmetry_equiv_pos_as_xyz
1 x,y,z
2 1/2-x,-y,1/2+z
3 -x,1/2+y,1/2-z
4 1/2+x,1/2-y,-z
_cell_length_a                   11.5164(2)
_cell_length_b                   11.8157(3)
_cell_length_c                   12.9037(3)
_cell_angle_alpha                90
_cell_angle_beta                 90
_cell_angle_gamma                90
_cell_volume                     1755.86
_exptl_crystal_colour            colorless
_exptl_crystal_description       block
_cell_formula_units_Z            4
loop_
_atom_site_label
_atom_site_type_symbol
_atom_site_fract_x
_atom_site_fract_y
_atom_site_fract_z
C1 C 0.30053(14) 0.08456(14) 0.04439(12)
C2 C 0.12891(13) 0.02169(14) 0.13034(12)
C3 C 0.08242(13) 0.14384(14) 0.12160(13)
H1 H 0.0529 0.1564 0.0513
C4 C 0.18114(13) 0.22797(13) 0.14363(12)
H2 H 0.1719 0.2519 0.2159
C5 C 0.29550(13) 0.16235(13) 0.13829(13)
C6 C 0.30289(14) 0.08256(14) 0.23194(13)
H3 H 0.3062 0.1263 0.2955
H4 H 0.3728 0.0370 0.2275
C7 C 0.19473(14) 0.00502(14) 0.23298(12)
H5 H 0.1440 0.0301 0.2894
C8 C 0.39429(13) 0.34559(14) 0.13593(12)
C9 C 0.28715(14) 0.40512(14) 0.11417(11)
C10 C 0.28909(14) 0.52044(14) 0.12418(11)
C11 C 0.19208(15) 0.60157(14) 0.10174(12)
H6 H 0.1886 0.6586 0.1557
H7 H 0.1187 0.5612 0.1012
C12 C 0.21149(15) 0.65948(14) -0.00475(13)
H8 H 0.2005 0.7404 0.0030
H9 H 0.2911 0.6469 -0.0265
C13 C 0.13006(15) 0.61618(13) -0.08892(13)
H10 H 0.1634 0.6316 -0.1573
C14 C 0.20355(13) 0.42602(14) -0.09490(11)
C15 C 0.18962(14) 0.31528(14) -0.04034(12)
H11 H 0.2549 0.2663 -0.0561
H12 H 0.1191 0.2782 -0.0636
C16 C 0.18340(13) 0.33663(14) 0.07829(12)
H13 H 0.1128 0.3800 0.0931
C17 C 0.03591(14) -0.06504(15) 0.11034(14)
H14 H -0.0034 -0.0473 0.0468
H15 H -0.0188 -0.0645 0.1664
H16 H 0.0706 -0.1387 0.1051
C18 C 0.22819(15) -0.11760(14) 0.25387(15)
H17 H 0.1595 -0.1610 0.2680
H18 H 0.2793 -0.1209 0.3126
H19 H 0.2669 -0.1482 0.1942
C19 C 0.00920(15) 0.66566(17) -0.08249(16)
H20 H -0.0384 0.6336 -0.1361
H21 H 0.0132 0.7462 -0.0912
H22 H -0.0239 0.6485 -0.0160
O1 O 0.21225(9) 0.00926(10) 0.04396(8)
O2 O 0.37386(10) 0.08318(10) -0.02152(9)
O3 O 0.39790(9) 0.23125(10) 0.13794(10)
O4 O 0.48866(10) 0.39151(10) 0.15289(9)
O5 O 0.11396(9) 0.49406(9) -0.07567(9)
O6 O 0.28720(9) 0.45409(10) -0.14605(9)
O7 O -0.00721(10) 0.16602(10) 0.19411(9)
H23 H -0.0673 0.1354 0.1749
O8 O 0.38445(10) 0.57711(10) 0.15197(10)
H24 H 0.4380 0.5324 0.1610
loop_
_geom_bond_atom_site_label_1
_geom_bond_atom_site_label_2
_geom_bond_site_symmetry_1
_geom_bond_site_symmetry_2
C1 C5 1_555 1_555
C2 C3 1_555 1_555
C3 H1 1_555 1_555
C4 C3 1_555 1_555
H2 C4 1_555 1_555
C5 C4 1_555 1_555
C6 C5 1_555 1_555
H3 C6 1_555 1_555
H4 C6 1_555 1_555
C7 C2 1_555 1_555
H5 C7 1_555 1_555
C8 C9 1_555 1_555
C9 C10 1_555 1_555
C10 C11 1_555 1_555
C11 H6 1_555 1_555
H7 C11 1_555 1_555
C12 C11 1_555 1_555
H8 C12 1_555 1_555
H9 C12 1_555 1_555
C13 C12 1_555 1_555
H10 C13 1_555 1_555
C14 C15 1_555 1_555
C15 H11 1_555 1_555
H12 C15 1_555 1_555
C16 C4 1_555 1_555
H13 C16 1_555 1_555
C17 C2 1_555 1_555
H14 C17 1_555 1_555
H15 C17 1_555 1_555
H16 C17 1_555 1_555
C18 C7 1_555 1_555
H17 C18 1_555 1_555
H18 C18 1_555 1_555
H19 C18 1_555 1_555
C19 C13 1_555 1_555
H20 C19 1_555 1_555
H21 C19 1_555 1_555
H22 C19 1_555 1_555
O1 C1 1_555 1_555
O2 C1 1_555 1_555
O3 C5 1_555 1_555
O4 C8 1_555 1_555
O5 C13 1_555 1_555
O6 C14 1_555 1_555
O7 C3 1_555 1_555
H23 O7 1_555 1_555
O8 C10 1_555 1_555
H24 O8 1_555 1_555
C2 O1 1_555 1_555
C6 C7 1_555 1_555
C8 O3 1_555 1_555
C9 C16 1_555 1_555
C14 O5 1_555 1_555
C15 C16 1_555 1_555

#END
