
#######################################################################
#
#                 Cambridge Crystallographic Data Centre
#                                CCDC 
#
#######################################################################
#
# If this CIF has been generated from an entry in the Cambridge 
# Structural Database, then it will include bibliographic, chemical, 
# crystal, experimental, refinement or atomic coordinate data resulting 
# from the CCDC's data processing and validation procedures.
#
#######################################################################

data_NEBYEB
_chemical_formula_moiety         
'C25 H18 Cl2 I1 N2 O3 1+,C2 F3 O2 1-,0.5(C1 H2 Cl2)'
_chemical_name_systematic        
"{5'-chloro-5-[(4-chlorophenyl)(methyl)amino]-1'-methyl-2',3-dioxo-1',2'-dihydro-3H-spiro[furan-2,3'-indol]-4-yl}(phenyl)iodanium trifluoroacetate dichloromethane solvate"
_symmetry_cell_setting           triclinic
_symmetry_space_group_name_H-M   'P -1'
_symmetry_Int_Tables_number      2
_space_group_name_Hall           '-P 1'
loop_
_symmetry_equiv_pos_site_id
_symmetry_equiv_pos_as_xyz
1 x,y,z
2 -x,-y,-z
_cell_length_a                   10.0271(18)
_cell_length_b                   11.878(2)
_cell_length_c                   12.522(2)
_cell_angle_alpha                102.605(3)
_cell_angle_beta                 95.412(4)
_cell_angle_gamma                100.054(4)
_cell_volume                     1419.43
_exptl_crystal_colour            colorless
_exptl_crystal_description       Prism
_cell_formula_units_Z            2
loop_
_atom_site_label
_atom_site_type_symbol
_atom_site_fract_x
_atom_site_fract_y
_atom_site_fract_z
F1 F 0.88998(18) 0.42975(17) 0.38017(13)
F2 F 0.7876(3) 0.25060(17) 0.30987(16)
F3 F 0.67146(19) 0.3847(2) 0.34742(14)
O4 O 0.70791(17) 0.30181(15) 0.11773(13)
O5 O 0.8634(2) 0.47128(15) 0.18069(15)
C26 C 0.7876(2) 0.38135(19) 0.18986(18)
C27 C 0.7863(3) 0.3605(2) 0.30747(19)
I1 I 0.22485(2) 0.67870(2) 0.07561(2)
Cl1 Cl 0.34733(7) 0.26526(7) -0.15140(5)
Cl2 Cl -0.45022(6) 0.65919(6) 0.40690(5)
N1 N 0.2248(2) 0.50325(16) 0.28570(15)
N2 N 0.12045(19) 0.90362(16) 0.55694(15)
O1 O 0.13045(16) 0.63654(13) 0.39547(12)
O2 O 0.05714(16) 0.84557(13) 0.24732(13)
O3 O 0.31623(17) 0.86568(15) 0.48422(14)
C1 C 0.1780(2) 0.60234(18) 0.29857(17)
C2 C 0.1654(2) 0.67830(18) 0.22942(17)
C3 C 0.0975(2) 0.76664(18) 0.28122(17)
C4 C 0.0886(2) 0.74768(18) 0.39849(17)
C5 C 0.1936(2) 0.84626(18) 0.48438(17)
C6 C -0.0194(2) 0.85232(18) 0.53401(17)
C7 C -0.0448(2) 0.75665(18) 0.44144(17)
C8 C -0.1758(2) 0.69567(19) 0.39963(18)
H1 H -0.1936 0.6317 0.3362
C9 C -0.2814(2) 0.73219(19) 0.45463(19)
C10 C -0.2575(2) 0.8258(2) 0.5472(2)
H2 H -0.3320 0.8477 0.5826
C11 C -0.1247(2) 0.88792(19) 0.58857(19)
H3 H -0.1070 0.9522 0.6517
C12 C 0.2545(2) 0.44621(18) 0.17916(17)
C13 C 0.3868(2) 0.4310(2) 0.1668(2)
H4 H 0.4576 0.4587 0.2278
C14 C 0.4147(3) 0.3747(3) 0.0641(2)
H5 H 0.5047 0.3633 0.0545
C15 C 0.3105(2) 0.3354(2) -0.02365(19)
C16 C 0.1783(2) 0.3485(2) -0.01212(19)
H6 H 0.1078 0.3202 -0.0734
C17 C 0.1496(2) 0.4038(2) 0.09104(19)
H7 H 0.0588 0.4125 0.1010
C18 C 0.2319(3) 0.4400(2) 0.37458(19)
H8 H 0.2264 0.4931 0.4452
H9 H 0.3185 0.4126 0.3790
H10 H 0.1555 0.3722 0.3586
C19 C 0.1830(2) 0.99983(19) 0.65181(18)
H11 H 0.1920 0.9691 0.7181
H12 H 0.1253 1.0589 0.6623
H13 H 0.2736 1.0361 0.6388
C20 C 0.3293(2) 0.85850(19) 0.12590(19)
C21 C 0.3984(2) 0.8997(2) 0.2317(2)
H14 H 0.4014 0.8496 0.2811
C22 C 0.4640(3) 1.0183(2) 0.2634(2)
H15 H 0.5131 1.0498 0.3356
C23 C 0.4576(3) 1.0897(2) 0.1906(3)
H16 H 0.5018 1.1703 0.2131
C24 C 0.3879(4) 1.0452(3) 0.0859(3)
H17 H 0.3847 1.0954 0.0366
C25 C 0.3215(3) 0.9271(2) 0.0507(2)
H18 H 0.2733 0.8956 -0.0217
Cl3? Cl 0.02191(15) 0.09885(14) 0.09981(13)
C28? C 0.0413(8) 0.0456(7) -0.0375(8)
H19? H 0.1375 0.0607 -0.0425
H20? H 0.0001 0.0917 -0.0802
loop_
_geom_bond_atom_site_label_1
_geom_bond_atom_site_label_2
_geom_bond_site_symmetry_1
_geom_bond_site_symmetry_2
I1 C2 1_555 1_555
Cl1 C15 1_555 1_555
Cl2 C9 1_555 1_555
N1 C1 1_555 1_555
N2 C5 1_555 1_555
O1 C1 1_555 1_555
O2 C3 1_555 1_555
O3 C5 1_555 1_555
C1 C2 1_555 1_555
C2 C3 1_555 1_555
C3 C4 1_555 1_555
C4 O1 1_555 1_555
C5 C4 1_555 1_555
C6 N2 1_555 1_555
C7 C4 1_555 1_555
C8 C7 1_555 1_555
H1 C8 1_555 1_555
C9 C8 1_555 1_555
C10 C9 1_555 1_555
H2 C10 1_555 1_555
C11 C6 1_555 1_555
H3 C11 1_555 1_555
C12 N1 1_555 1_555
C13 C12 1_555 1_555
H4 C13 1_555 1_555
C14 C13 1_555 1_555
H5 C14 1_555 1_555
C15 C14 1_555 1_555
C16 C15 1_555 1_555
H6 C16 1_555 1_555
C17 C12 1_555 1_555
H7 C17 1_555 1_555
C18 N1 1_555 1_555
H8 C18 1_555 1_555
H9 C18 1_555 1_555
H10 C18 1_555 1_555
C19 N2 1_555 1_555
H11 C19 1_555 1_555
H12 C19 1_555 1_555
H13 C19 1_555 1_555
C20 I1 1_555 1_555
C21 C20 1_555 1_555
H14 C21 1_555 1_555
C22 C21 1_555 1_555
H15 C22 1_555 1_555
C23 C22 1_555 1_555
H16 C23 1_555 1_555
C24 C23 1_555 1_555
H17 C24 1_555 1_555
C25 C20 1_555 1_555
H18 C25 1_555 1_555
F1 C27 1_555 1_555
F2 C27 1_555 1_555
F3 C27 1_555 1_555
O4 C26 1_555 1_555
O5 C26 1_555 1_555
C26 C27 1_555 1_555
C6 C7 1_555 1_555
C10 C11 1_555 1_555
C16 C17 1_555 1_555
C24 C25 1_555 1_555

#END
