
#######################################################################
#
#                 Cambridge Crystallographic Data Centre
#                                CCDC 
#
#######################################################################
#
# If this CIF has been generated from an entry in the Cambridge 
# Structural Database, then it will include bibliographic, chemical, 
# crystal, experimental, refinement or atomic coordinate data resulting 
# from the CCDC's data processing and validation procedures.
#
#######################################################################

data_NECBOO
_chemical_formula_moiety         'C15 H17 N4 O2'
_chemical_name_systematic        
4,4,5,5-tetramethyl-2-(quinoxalin-2-yl)imidazoline-1-oxyl-3-oxide
_symmetry_cell_setting           orthorhombic
_symmetry_space_group_name_H-M   'P 21 21 21'
_symmetry_Int_Tables_number      19
_space_group_name_Hall           'P 2ac 2ab'
loop_
_symmetry_equiv_pos_site_id
_symmetry_equiv_pos_as_xyz
1 x,y,z
2 1/2-x,-y,1/2+z
3 1/2+x,1/2-y,-z
4 -x,1/2+y,1/2-z
_cell_length_a                   10.452(2)
_cell_length_b                   11.713(2)
_cell_length_c                   24.571(5)
_cell_angle_alpha                90
_cell_angle_beta                 90
_cell_angle_gamma                90
_cell_volume                     3008.09
_exptl_crystal_colour            'dark green'
_exptl_crystal_description       block
_cell_formula_units_Z            8
loop_
_atom_site_label
_atom_site_type_symbol
_atom_site_fract_x
_atom_site_fract_y
_atom_site_fract_z
C1 C 0.6551(4) 0.0280(4) 0.51386(18)
C2 C 0.8676(5) 0.0443(5) 0.5406(2)
C3 C 0.9917(6) 0.0840(6) 0.5166(3)
H1 H 0.9757 0.1454 0.4916
H2 H 1.0318 0.0219 0.4976
H3 H 1.0471 0.1101 0.5452
C4 C 0.8939(8) -0.0631(7) 0.5763(3)
H4 H 0.9576 -0.0452 0.6031
H5 H 0.9240 -0.1242 0.5537
H6 H 0.8163 -0.0859 0.5942
C5 C 0.7872(6) 0.1317(6) 0.5705(3)
C6 C 0.7944(11) 0.2456(7) 0.5361(5)
H7 H 0.8671 0.2896 0.5476
H8 H 0.7177 0.2892 0.5417
H9 H 0.8028 0.2272 0.4982
C7 C 0.8048(13) 0.1202(13) 0.6334(4)
H10 H 0.8047 0.0409 0.6433
H11 H 0.7358 0.1585 0.6516
H12 H 0.8846 0.1542 0.6439
C8 C 0.5435(4) -0.0052(3) 0.48144(16)
C9 C 0.5370(5) 0.0277(4) 0.42633(17)
H13 H 0.6044 0.0700 0.4121
C10 C 0.3468(5) -0.0614(3) 0.41710(16)
C11 C 0.2421(5) -0.0950(4) 0.38478(19)
H14 H 0.2383 -0.0741 0.3483
C12 C 0.1477(5) -0.1574(4) 0.4069(2)
H15 H 0.0773 -0.1772 0.3858
C13 C 0.1531(6) -0.1927(5) 0.4609(2)
H16 H 0.0866 -0.2362 0.4751
C14 C 0.2550(5) -0.1644(4) 0.49353(19)
H17 H 0.2592 -0.1901 0.5293
C15 C 0.3525(4) -0.0963(4) 0.47192(16)
N1 N 0.7754(4) 0.0062(3) 0.49892(15)
N2 N 0.6539(4) 0.0906(4) 0.55915(18)
N3 N 0.4429(4) 0.0024(3) 0.39452(13)
N4 N 0.4538(4) -0.0674(3) 0.50458(13)
O1 O 0.806(2) -0.063(3) 0.4606(12)
O2 O 0.5562(4) 0.1247(5) 0.58463(19)
C16 C 0.8134(4) 0.3265(3) 0.30317(16)
C17 C 0.9338(5) 0.1819(4) 0.26333(19)
C18 C 0.8554(14) 0.1317(8) 0.2116(3)
H18 H 0.7653 0.1407 0.2177
H19 H 0.8749 0.0521 0.2072
H20 H 0.8797 0.1725 0.1794
C19 C 1.0737(7) 0.1765(7) 0.2618(3)
H21 H 1.1009 0.0986 0.2655
H22 H 1.1083 0.2210 0.2911
H23 H 1.1038 0.2065 0.2277
C20 C 0.8690(4) 0.1350(3) 0.31431(17)
C21 C 0.7826(6) 0.0339(5) 0.3063(3)
H24 H 0.7400 0.0166 0.3400
H25 H 0.8325 -0.0308 0.2951
H26 H 0.7202 0.0512 0.2789
C22 C 0.9611(7) 0.1078(6) 0.3597(2)
H27 H 0.9141 0.0845 0.3913
H28 H 1.0108 0.1745 0.3681
H29 H 1.0170 0.0472 0.3484
C23 C 0.7551(4) 0.4387(3) 0.31359(15)
C24 C 0.7756(5) 0.4973(4) 0.36259(16)
H30 H 0.8242 0.4625 0.3896
C25 C 0.6580(4) 0.6454(3) 0.33093(16)
C26 C 0.6031(5) 0.7551(4) 0.33845(19)
H31 H 0.6154 0.7943 0.3709
C27 C 0.5333(5) 0.8020(4) 0.2983(2)
H32 H 0.4981 0.8742 0.3032
C28 C 0.5127(5) 0.7441(4) 0.2495(2)
H33 H 0.4630 0.7777 0.2225
C29 C 0.5644(4) 0.6394(4) 0.24094(19)
H34 H 0.5525 0.6023 0.2078
C30 C 0.6353(4) 0.5880(3) 0.28215(15)
N5 N 0.7915(4) 0.2335(3) 0.33303(14)
N6 N 0.8948(3) 0.3032(3) 0.26352(14)
N7 N 0.7292(4) 0.5986(3) 0.37165(14)
N8 N 0.6873(3) 0.4817(3) 0.27356(13)
O3 O 0.7138(4) 0.2282(3) 0.37292(14)
O4 O 0.9376(3) 0.3744(2) 0.22912(13)
C31? C 0.952(2) 0.1305(12) 0.2096(4)
C32? C 0.789(3) 0.2573(10) 0.5725(13)
C33? C 0.8117(18) 0.1980(16) 0.6207(6)
O5? O 0.813(4) -0.033(6) 0.4535(17)
loop_
_geom_bond_atom_site_label_1
_geom_bond_atom_site_label_2
_geom_bond_site_symmetry_1
_geom_bond_site_symmetry_2
C1 C8 1_555 1_555
C2 C3 1_555 1_555
C3 H1 1_555 1_555
H2 C3 1_555 1_555
H3 C3 1_555 1_555
C4 C2 1_555 1_555
H4 C4 1_555 1_555
H5 C4 1_555 1_555
H6 C4 1_555 1_555
C5 C2 1_555 1_555
C6 C5 1_555 1_555
H7 C6 1_555 1_555
H8 C6 1_555 1_555
H9 C6 1_555 1_555
C7 C5 1_555 1_555
H10 C7 1_555 1_555
H11 C7 1_555 1_555
H12 C7 1_555 1_555
C8 C9 1_555 1_555
C9 H13 1_555 1_555
C10 C11 1_555 1_555
C11 H14 1_555 1_555
C12 C11 1_555 1_555
H15 C12 1_555 1_555
C13 C12 1_555 1_555
H16 C13 1_555 1_555
C14 C13 1_555 1_555
H17 C14 1_555 1_555
C15 C10 1_555 1_555
C16 C23 1_555 1_555
C17 C18 1_555 1_555
C18 H18 1_555 1_555
H19 C18 1_555 1_555
H20 C18 1_555 1_555
C19 C17 1_555 1_555
H21 C19 1_555 1_555
H22 C19 1_555 1_555
H23 C19 1_555 1_555
C20 C17 1_555 1_555
C21 C20 1_555 1_555
H24 C21 1_555 1_555
H25 C21 1_555 1_555
H26 C21 1_555 1_555
C22 C20 1_555 1_555
H27 C22 1_555 1_555
H28 C22 1_555 1_555
H29 C22 1_555 1_555
C23 C24 1_555 1_555
C24 H30 1_555 1_555
C25 C26 1_555 1_555
C26 H31 1_555 1_555
C27 C26 1_555 1_555
H32 C27 1_555 1_555
C28 C27 1_555 1_555
H33 C28 1_555 1_555
C29 C28 1_555 1_555
H34 C29 1_555 1_555
C30 C25 1_555 1_555
N1 C1 1_555 1_555
N2 C1 1_555 1_555
N3 C9 1_555 1_555
N4 C8 1_555 1_555
N5 C16 1_555 1_555
N6 C16 1_555 1_555
N7 C24 1_555 1_555
N8 C23 1_555 1_555
O1 N1 1_555 1_555
O2 N2 1_555 1_555
O3 N5 1_555 1_555
O4 N6 1_555 1_555
C2 N1 1_555 1_555
C5 N2 1_555 1_555
C10 N3 1_555 1_555
C14 C15 1_555 1_555
C15 N4 1_555 1_555
C17 N6 1_555 1_555
C20 N5 1_555 1_555
C25 N7 1_555 1_555
C29 C30 1_555 1_555
C30 N8 1_555 1_555

#END
