
#######################################################################
#
#                 Cambridge Crystallographic Data Centre
#                                CCDC 
#
#######################################################################
#
# If this CIF has been generated from an entry in the Cambridge 
# Structural Database, then it will include bibliographic, chemical, 
# crystal, experimental, refinement or atomic coordinate data resulting 
# from the CCDC's data processing and validation procedures.
#
#######################################################################

data_NECBOP
_chemical_name_common            
"2',3,3',3',3'',5',5',5',6'-nonamethyldispiro[cyclohexane-1,2'-4,8,12,16-tetraaza-6(2,6)-pyridina-1,14(1,3),3,9,11(1,4)-pentabenzenacyclohexadecaphane-10',1''-cyclohexane]-5',7',13',15'-tetraone methanol solvate heptahydrate"
_chemical_formula_moiety         'C61 H67 N5 O4,4(C1 H4 O1),7(H2 O1)'
_chemical_name_systematic        
"3,3'',5',17',23',35',38',40',43',45'-decamethyl-7',15',25',33',39'-pentaazadispiro[cyclohexane-1,2'-heptacyclo[32.2.2.2^3,6^.2^16,19^.2^21,24^.1^9,13^.1^27,31^]hexatetracontane-20',1''-cyclohexane]-1'(36'),3',5',9'(44'),10',12',16',18',21',23',27'(39'),28',30',34',37',40',42',45'-octadecaene-8',14',26',32'-tetrone methanol solvate heptahydrate"
_symmetry_cell_setting           monoclinic
_symmetry_space_group_name_H-M   'P 21/n'
_symmetry_Int_Tables_number      14
_space_group_name_Hall           '-P 2yn'
loop_
_symmetry_equiv_pos_site_id
_symmetry_equiv_pos_as_xyz
1 x,y,z
2 1/2-x,1/2+y,1/2-z
3 -x,-y,-z
4 1/2+x,1/2-y,1/2+z
_cell_length_a                   15.6538(4)
_cell_length_b                   8.3978(2)
_cell_length_c                   27.6633(8)
_cell_angle_alpha                90
_cell_angle_beta                 106.044(1)
_cell_angle_gamma                90
_cell_volume                     3494.9
_exptl_crystal_colour            colorless
_exptl_crystal_description       plates
_cell_formula_units_Z            2
loop_
_atom_site_label
_atom_site_type_symbol
_atom_site_fract_x
_atom_site_fract_y
_atom_site_fract_z
O3 O 0.31859(15) 0.5633(2) 0.03942(10)
H34 H 0.3004 0.6256 0.0582
C31 C 0.4136(2) 0.5669(5) 0.05275(19)
H35 H 0.4331 0.6451 0.0317
H36 H 0.4361 0.4613 0.0474
H37 H 0.4368 0.5966 0.0882
O4 O 0.26592(16) -0.2323(3) 0.09909(11)
H38 H 0.2441 -0.1459 0.0860
C32 C 0.3094(3) -0.2078(5) 0.14899(18)
H39 H 0.3444 -0.1095 0.1525
H40 H 0.3491 -0.2978 0.1617
H41 H 0.2658 -0.1985 0.1683
C1 C 0.90265(17) 0.4081(3) 0.08222(11)
O1 O 0.95332(13) 0.3563(3) 0.12104(9)
N1 N 0.81916(14) 0.3540(3) 0.06318(9)
H1 H 0.7929 0.3726 0.0312
C2 C 0.77007(17) 0.2681(3) 0.09155(11)
C3 C 0.70208(18) 0.3505(3) 0.10494(11)
C4 C 0.65255(18) 0.2692(3) 0.13082(11)
H2 H 0.6060 0.3241 0.1397
C5 C 0.66745(16) 0.1094(3) 0.14475(10)
C6 C 0.73557(17) 0.0319(3) 0.13042(10)
H3 H 0.7472 -0.0769 0.1393
C7 C 0.78715(17) 0.1088(3) 0.10350(11)
C8 C 0.60962(17) 0.0314(3) 0.17480(10)
C9 C 0.62111(18) -0.1515(3) 0.17846(11)
H4 H 0.5973 -0.1983 0.1445
H5 H 0.6853 -0.1770 0.1902
C10 C 0.5741(2) -0.2270(3) 0.21407(11)
H6 H 0.5108 -0.1910 0.2027
C11 C 0.6126(2) -0.1610(4) 0.26726(11)
H7 H 0.5817 -0.2101 0.2903
H8 H 0.6765 -0.1884 0.2795
C12 C 0.6015(2) 0.0179(4) 0.26732(11)
H9 H 0.6309 0.0599 0.3013
H10 H 0.5374 0.0442 0.2594
C13 C 0.64172(19) 0.0985(3) 0.22858(11)
H11 H 0.6275 0.2135 0.2275
H12 H 0.7072 0.0880 0.2403
C14 C 0.51317(16) 0.0741(3) 0.14684(10)
C15 C 0.47843(16) 0.0210(3) 0.09704(10)
H13 H 0.5129 -0.0503 0.0834
C16 C 0.39632(17) 0.0683(3) 0.06709(11)
C17 C 0.34607(16) 0.1720(3) 0.08792(11)
C18 C 0.37656(19) 0.2240(3) 0.13716(12)
C19 C 0.46023(18) 0.1750(3) 0.16580(11)
H14 H 0.4817 0.2120 0.1994
N2 N 0.26444(15) 0.2365(3) 0.05643(11)
H15 H 0.2661 0.3351 0.0459
C20 C 0.18674(17) 0.1617(3) 0.04166(12)
O2 O 0.17451(13) 0.0249(2) 0.05379(10)
C21 C 0.11323(17) 0.2548(3) 0.00699(11)
C22 C 0.02488(16) 0.2118(3) 0.00018(12)
H16 H 0.0100 0.1271 0.0191
C23 C -0.04052(18) 0.2933(3) -0.03427(12)
H17 H -0.1010 0.2642 -0.0395
C24 C -0.01860(17) 0.4177(3) -0.06139(11)
H18 H -0.0636 0.4739 -0.0854
C25 C 0.07074(17) 0.4596(3) -0.05293(10)
N3 N 0.13526(15) 0.3783(3) -0.01922(10)
C26 C 0.6831(2) 0.5238(4) 0.09101(16)
H19 H 0.6321 0.5595 0.1023
H20 H 0.6696 0.5358 0.0544
H21 H 0.7353 0.5882 0.1073
C27 C 0.8570(2) 0.0185(4) 0.08691(14)
H22 H 0.8530 0.0454 0.0519
H23 H 0.8475 -0.0961 0.0897
H24 H 0.9159 0.0473 0.1084
C28 C 0.5723(4) -0.4103(7) 0.2123(2)
H25 H 0.5412 -0.4508 0.2360
H26 H 0.5413 -0.4456 0.1782
H27 H 0.6334 -0.4511 0.2215
C29 C 0.3636(2) 0.0134(4) 0.01322(12)
H28 H 0.4115 -0.0426 0.0038
H29 H 0.3450 0.1059 -0.0088
H30 H 0.3130 -0.0587 0.0096
C30 C 0.3210(2) 0.3344(4) 0.15963(15)
H31 H 0.3018 0.4261 0.1374
H32 H 0.3566 0.3714 0.1927
H33 H 0.2687 0.2771 0.1634
C1B C 0.09735(17) 0.5919(3) -0.08222(11)
O1B O 0.04668(13) 0.6437(3) -0.12104(9)
N1B N 0.18084(14) 0.6460(3) -0.06318(9)
H1B H 0.2071 0.6274 -0.0312
C2B C 0.22993(17) 0.7319(3) -0.09155(11)
C3B C 0.29792(18) 0.6495(3) -0.10494(11)
C4B C 0.34745(18) 0.7308(3) -0.13082(11)
H2B H 0.3940 0.6759 -0.1397
C5B C 0.33255(16) 0.8906(3) -0.14475(10)
C6B C 0.26443(17) 0.9681(3) -0.13042(10)
H3B H 0.2528 1.0769 -0.1393
C7B C 0.21285(17) 0.8912(3) -0.10350(11)
C8B C 0.39038(17) 0.9686(3) -0.17480(10)
C9B C 0.37889(18) 1.1515(3) -0.17846(11)
H4B H 0.4027 1.1983 -0.1445
H5B H 0.3147 1.1770 -0.1902
C10B C 0.4259(2) 1.2270(3) -0.21407(11)
H6B H 0.4892 1.1910 -0.2027
C11B C 0.3874(2) 1.1610(4) -0.26726(11)
H7B H 0.4183 1.2101 -0.2903
H8B H 0.3235 1.1884 -0.2795
C12B C 0.3985(2) 0.9821(4) -0.26732(11)
H9B H 0.3691 0.9401 -0.3013
H10B H 0.4626 0.9558 -0.2594
C13B C 0.35828(19) 0.9015(3) -0.22858(11)
H11B H 0.3725 0.7865 -0.2275
H12B H 0.2928 0.9120 -0.2403
C14B C 0.48683(16) 0.9259(3) -0.14684(10)
C15B C 0.52157(16) 0.9790(3) -0.09704(10)
H13B H 0.4871 1.0503 -0.0834
C16B C 0.60368(17) 0.9317(3) -0.06709(11)
C17B C 0.65393(16) 0.8280(3) -0.08792(11)
C18B C 0.62344(19) 0.7760(3) -0.13716(12)
C19B C 0.53977(18) 0.8250(3) -0.16580(11)
H14B H 0.5183 0.7880 -0.1994
N2B N 0.73556(15) 0.7635(3) -0.05643(11)
H15B H 0.7339 0.6649 -0.0459
C20B C 0.81326(17) 0.8383(3) -0.04166(12)
O2B O 0.82549(13) 0.9751(2) -0.05379(10)
C21B C 0.88677(17) 0.7452(3) -0.00699(11)
C22B C 0.97512(16) 0.7882(3) -0.00018(12)
H16B H 0.9900 0.8729 -0.0191
C23B C 1.04052(18) 0.7067(3) 0.03427(12)
H17B H 1.1010 0.7358 0.0395
C24B C 1.01860(17) 0.5823(3) 0.06139(11)
H18B H 1.0636 0.5261 0.0854
C25B C 0.92926(17) 0.5404(3) 0.05293(10)
N3B N 0.86474(15) 0.6217(3) 0.01922(10)
C26B C 0.3169(2) 0.4762(4) -0.09101(16)
H19B H 0.3679 0.4405 -0.1023
H20B H 0.3304 0.4642 -0.0544
H21B H 0.2647 0.4118 -0.1073
C27B C 0.1430(2) 0.9815(4) -0.08691(14)
H22B H 0.1470 0.9546 -0.0519
H23B H 0.1525 1.0961 -0.0897
H24B H 0.0841 0.9527 -0.1084
C28B C 0.4277(4) 1.4103(7) -0.2123(2)
H25B H 0.4588 1.4508 -0.2360
H26B H 0.4587 1.4456 -0.1782
H27B H 0.3666 1.4511 -0.2215
C29B C 0.6364(2) 0.9866(4) -0.01322(12)
H28B H 0.5885 1.0426 -0.0038
H29B H 0.6550 0.8941 0.0088
H30B H 0.6870 1.0587 -0.0096
C30B C 0.6790(2) 0.6656(4) -0.15963(15)
H31B H 0.6982 0.5739 -0.1374
H32B H 0.6434 0.6286 -0.1927
H33B H 0.7313 0.7229 -0.1634
H42? H 0.5820 -0.3440 0.2143
H43? H 0.5097 -0.2037 0.2024
H44? H 0.5361 0.0393 0.2561
C33? C 0.6377(4) 0.1105(7) 0.3149(2)
H45? H 0.6249 0.2239 0.3083
H46? H 0.6099 0.0733 0.3405
H47? H 0.7022 0.0948 0.3269
H48? H 0.1958 0.4073 -0.0139
C34? C 0.13526(15) 0.3783(3) -0.01922(10)
loop_
_geom_bond_atom_site_label_1
_geom_bond_atom_site_label_2
_geom_bond_site_symmetry_1
_geom_bond_site_symmetry_2
C1 O1 1_555 1_555
N1 C1 1_555 1_555
H1 N1 1_555 1_555
C2 N1 1_555 1_555
C3 C2 1_555 1_555
C4 C3 1_555 1_555
H2 C4 1_555 1_555
C5 C4 1_555 1_555
C6 C5 1_555 1_555
H3 C6 1_555 1_555
C7 C2 1_555 1_555
C8 C5 1_555 1_555
C9 C8 1_555 1_555
H4 C9 1_555 1_555
H5 C9 1_555 1_555
C10 C9 1_555 1_555
H6 C10 1_555 1_555
C11 C10 1_555 1_555
H7 C11 1_555 1_555
H8 C11 1_555 1_555
C12 C11 1_555 1_555
H9 C12 1_555 1_555
H10 C12 1_555 1_555
C13 C8 1_555 1_555
H11 C13 1_555 1_555
H12 C13 1_555 1_555
C14 C8 1_555 1_555
C15 C14 1_555 1_555
H13 C15 1_555 1_555
C16 C15 1_555 1_555
C17 C16 1_555 1_555
C18 C17 1_555 1_555
C19 C14 1_555 1_555
H14 C19 1_555 1_555
N2 C17 1_555 1_555
H15 N2 1_555 1_555
C20 N2 1_555 1_555
O2 C20 1_555 1_555
C21 C20 1_555 1_555
C22 C21 1_555 1_555
H16 C22 1_555 1_555
C23 C22 1_555 1_555
H17 C23 1_555 1_555
C24 C23 1_555 1_555
H18 C24 1_555 1_555
C25 C24 1_555 1_555
N3 C21 1_555 1_555
C26 C3 1_555 1_555
H19 C26 1_555 1_555
H20 C26 1_555 1_555
H21 C26 1_555 1_555
C27 C7 1_555 1_555
H22 C27 1_555 1_555
H23 C27 1_555 1_555
H24 C27 1_555 1_555
C28 C10 1_555 1_555
H25 C28 1_555 1_555
H26 C28 1_555 1_555
H27 C28 1_555 1_555
C29 C16 1_555 1_555
H28 C29 1_555 1_555
H29 C29 1_555 1_555
H30 C29 1_555 1_555
C30 C18 1_555 1_555
H31 C30 1_555 1_555
H32 C30 1_555 1_555
H33 C30 1_555 1_555
O3 H34 1_555 1_555
C31 O3 1_555 1_555
H35 C31 1_555 1_555
H36 C31 1_555 1_555
H37 C31 1_555 1_555
O4 H38 1_555 1_555
C32 O4 1_555 1_555
H39 C32 1_555 1_555
H40 C32 1_555 1_555
H41 C32 1_555 1_555
C1B C25 1_555 1_555
O1B C1B 1_555 1_555
N1B C1B 1_555 1_555
H1B N1B 1_555 1_555
C2B N1B 1_555 1_555
C3B C2B 1_555 1_555
C4B C3B 1_555 1_555
H2B C4B 1_555 1_555
C5B C4B 1_555 1_555
C6B C5B 1_555 1_555
H3B C6B 1_555 1_555
C7B C2B 1_555 1_555
C8B C5B 1_555 1_555
C9B C8B 1_555 1_555
H4B C9B 1_555 1_555
H5B C9B 1_555 1_555
C10B C9B 1_555 1_555
H6B C10B 1_555 1_555
C11B C10B 1_555 1_555
H7B C11B 1_555 1_555
H8B C11B 1_555 1_555
C12B C11B 1_555 1_555
H9B C12B 1_555 1_555
H10B C12B 1_555 1_555
C13B C8B 1_555 1_555
H11B C13B 1_555 1_555
H12B C13B 1_555 1_555
C14B C8B 1_555 1_555
C15B C14B 1_555 1_555
H13B C15B 1_555 1_555
C16B C15B 1_555 1_555
C17B C16B 1_555 1_555
C18B C17B 1_555 1_555
C19B C14B 1_555 1_555
H14B C19B 1_555 1_555
N2B C17B 1_555 1_555
H15B N2B 1_555 1_555
C20B N2B 1_555 1_555
O2B C20B 1_555 1_555
C21B C20B 1_555 1_555
C22B C21B 1_555 1_555
H16B C22B 1_555 1_555
C23B C22B 1_555 1_555
H17B C23B 1_555 1_555
C24B C23B 1_555 1_555
H18B C24B 1_555 1_555
C25B C1 1_555 1_555
N3B C21B 1_555 1_555
C26B C3B 1_555 1_555
H19B C26B 1_555 1_555
H20B C26B 1_555 1_555
H21B C26B 1_555 1_555
C27B C7B 1_555 1_555
H22B C27B 1_555 1_555
H23B C27B 1_555 1_555
H24B C27B 1_555 1_555
C28B C10B 1_555 1_555
H25B C28B 1_555 1_555
H26B C28B 1_555 1_555
H27B C28B 1_555 1_555
C29B C16B 1_555 1_555
H28B C29B 1_555 1_555
H29B C29B 1_555 1_555
H30B C29B 1_555 1_555
C30B C18B 1_555 1_555
H31B C30B 1_555 1_555
H32B C30B 1_555 1_555
H33B C30B 1_555 1_555
C6 C7 1_555 1_555
C12 C13 1_555 1_555
C18 C19 1_555 1_555
C25 N3 1_555 1_555
C6B C7B 1_555 1_555
C12B C13B 1_555 1_555
C18B C19B 1_555 1_555
C24B C25B 1_555 1_555
C25B N3B 1_555 1_555

#END
