
#######################################################################
#
#                 Cambridge Crystallographic Data Centre
#                                CCDC 
#
#######################################################################
#
# If this CIF has been generated from an entry in the Cambridge 
# Structural Database, then it will include bibliographic, chemical, 
# crystal, experimental, refinement or atomic coordinate data resulting 
# from the CCDC's data processing and validation procedures.
#
#######################################################################

data_NECCAB
_chemical_formula_moiety         'C28 H29 N1 O4'
_chemical_name_systematic        
3-(3-(3-(Benzyloxy)phenyl)-2-methylpentanoyl)-4-phenyl-1,3-oxazolidin-2-one
_symmetry_cell_setting           monoclinic
_symmetry_space_group_name_H-M   'P 21'
_symmetry_Int_Tables_number      4
_space_group_name_Hall           'P 2yb'
loop_
_symmetry_equiv_pos_site_id
_symmetry_equiv_pos_as_xyz
1 x,y,z
2 -x,1/2+y,-z
_cell_length_a                   6.4959(14)
_cell_length_b                   11.598(3)
_cell_length_c                   16.357(4)
_cell_angle_alpha                90
_cell_angle_beta                 95.077(3)
_cell_angle_gamma                90
_cell_volume                     1227.49
_exptl_crystal_colour            colorless
_exptl_crystal_description       prismatic
_cell_formula_units_Z            2
loop_
_atom_site_label
_atom_site_type_symbol
_atom_site_fract_x
_atom_site_fract_y
_atom_site_fract_z
N1 N 0.8028(3) 0.40524(15) 0.07303(10)
O1 O 1.0384(3) 0.52033(17) 0.13886(10)
O2 O 0.4658(3) 0.3559(2) 0.09497(17)
O3 O 0.6256(3) 0.27778(18) -0.00516(14)
O4 O 0.6523(3) 0.13952(15) 0.36138(14)
C1 C 0.8133(3) 0.5297(2) 0.28237(13)
H1 H 0.9359 0.5787 0.2813
C2 C 0.7097(4) 0.5225(2) 0.19442(14)
H2 H 0.5947 0.4677 0.1927
C3 C 0.8647(3) 0.48270(19) 0.13615(13)
C4 C 0.6180(4) 0.3472(2) 0.05884(18)
C5 C 0.8295(5) 0.2743(2) -0.03139(17)
H3 H 0.8254 0.2813 -0.0906
H4 H 0.8978 0.2026 -0.0148
C6 C 0.9424(3) 0.37708(18) 0.01062(12)
H5 H 1.0766 0.3525 0.0369
C7 C 0.9710(3) 0.47511(17) -0.04791(12)
C8 C 1.1575(4) 0.4862(2) -0.08183(15)
H6 H 1.2654 0.4358 -0.0666
C9 C 1.1836(5) 0.5731(3) -0.13877(18)
H7 H 1.3101 0.5812 -0.1608
C10 C 1.0262(5) 0.6463(2) -0.16253(15)
H8 H 1.0446 0.7034 -0.2011
C11 C 0.8389(4) 0.6358(2) -0.12937(15)
H9 H 0.7311 0.6860 -0.1452
C12 C 0.8130(3) 0.55091(19) -0.07296(13)
H10 H 0.6864 0.5440 -0.0510
C13 C 0.8841(3) 0.41264(18) 0.31358(12)
C14 C 1.0920(4) 0.3883(3) 0.33445(16)
H11 H 1.1907 0.4447 0.3275
C15 C 1.1538(4) 0.2820(3) 0.36523(18)
H12 H 1.2936 0.2682 0.3789
C16 C 1.0136(4) 0.1963(2) 0.37606(15)
H13 H 1.0565 0.1251 0.3974
C17 C 0.8081(3) 0.21816(19) 0.35472(13)
C18 C 0.7443(3) 0.32497(18) 0.32368(14)
H14 H 0.6044 0.3379 0.3094
C19 C 0.7072(4) 0.0242(2) 0.3827(2)
H15 H 0.7663 0.0207 0.4392
H16 H 0.8090 -0.0041 0.3477
C20 C 0.5161(4) -0.0481(2) 0.37200(17)
C21 C 0.3915(5) -0.0471(3) 0.3000(2)
H17 H 0.4274 -0.0002 0.2575
C22 C 0.2146(5) -0.1131(3) 0.2881(2)
H18 H 0.1324 -0.1098 0.2387
C23 C 0.1627(6) -0.1824(3) 0.3494(2)
H19 H 0.0463 -0.2292 0.3417
C24 C 0.2795(7) -0.1836(3) 0.4216(3)
H20 H 0.2411 -0.2300 0.4641
C25 C 0.4564(6) -0.1167(3) 0.43343(19)
H21 H 0.5351 -0.1185 0.4837
C26 C 0.6300(8) 0.6395(4) 0.1604(2)
H22 H 0.7386 0.6956 0.1676
H23 H 0.5153 0.6639 0.1894
H24 H 0.5861 0.6318 0.1031
C27 C 0.6693(5) 0.5860(2) 0.34085(17)
H25 H 0.6336 0.6630 0.3212
H26 H 0.5426 0.5416 0.3398
C28 C 0.7651(6) 0.5938(3) 0.42851(18)
H27 H 0.7926 0.5176 0.4496
H28 H 0.6714 0.6323 0.4616
H29 H 0.8921 0.6364 0.4299
loop_
_geom_bond_atom_site_label_1
_geom_bond_atom_site_label_2
_geom_bond_site_symmetry_1
_geom_bond_site_symmetry_2
N1 C3 1_555 1_555
O1 C3 1_555 1_555
O2 C4 1_555 1_555
O3 C4 1_555 1_555
O4 C17 1_555 1_555
C1 H1 1_555 1_555
C2 C1 1_555 1_555
H2 C2 1_555 1_555
C3 C2 1_555 1_555
C4 N1 1_555 1_555
C5 O3 1_555 1_555
H3 C5 1_555 1_555
H4 C5 1_555 1_555
C6 N1 1_555 1_555
H5 C6 1_555 1_555
C7 C6 1_555 1_555
C8 C7 1_555 1_555
H6 C8 1_555 1_555
C9 C8 1_555 1_555
H7 C9 1_555 1_555
C10 C9 1_555 1_555
H8 C10 1_555 1_555
C11 C10 1_555 1_555
H9 C11 1_555 1_555
C12 C7 1_555 1_555
H10 C12 1_555 1_555
C13 C1 1_555 1_555
C14 C13 1_555 1_555
H11 C14 1_555 1_555
C15 C14 1_555 1_555
H12 C15 1_555 1_555
C16 C15 1_555 1_555
H13 C16 1_555 1_555
C17 C16 1_555 1_555
C18 C13 1_555 1_555
H14 C18 1_555 1_555
C19 O4 1_555 1_555
H15 C19 1_555 1_555
H16 C19 1_555 1_555
C20 C19 1_555 1_555
C21 C20 1_555 1_555
H17 C21 1_555 1_555
C22 C21 1_555 1_555
H18 C22 1_555 1_555
C23 C22 1_555 1_555
H19 C23 1_555 1_555
C24 C23 1_555 1_555
H20 C24 1_555 1_555
C25 C20 1_555 1_555
H21 C25 1_555 1_555
C26 C2 1_555 1_555
H22 C26 1_555 1_555
H23 C26 1_555 1_555
H24 C26 1_555 1_555
C27 C1 1_555 1_555
H25 C27 1_555 1_555
H26 C27 1_555 1_555
C28 C27 1_555 1_555
H27 C28 1_555 1_555
H28 C28 1_555 1_555
H29 C28 1_555 1_555
C5 C6 1_555 1_555
C11 C12 1_555 1_555
C17 C18 1_555 1_555
C24 C25 1_555 1_555

#END
