
#######################################################################
#
#                 Cambridge Crystallographic Data Centre
#                                CCDC 
#
#######################################################################
#
# If this CIF has been generated from an entry in the Cambridge 
# Structural Database, then it will include bibliographic, chemical, 
# crystal, experimental, refinement or atomic coordinate data resulting 
# from the CCDC's data processing and validation procedures.
#
#######################################################################

data_NECFIN
_chemical_formula_moiety         'C22 H25 N1 O3 S1'
_chemical_name_systematic        
3-(2,2-dimethyl-1,1-dioxido-5-phenyl-3,4-dihydro-2H-1,4-thiazin-3-yl)--(ptolyl)propan-1-one
_symmetry_cell_setting           monoclinic
_symmetry_space_group_name_H-M   'P 21/n'
_symmetry_Int_Tables_number      14
_space_group_name_Hall           '-P 2yn'
loop_
_symmetry_equiv_pos_site_id
_symmetry_equiv_pos_as_xyz
1 x,y,z
2 1/2-x,1/2+y,1/2-z
3 -x,-y,-z
4 1/2+x,1/2-y,1/2+z
_cell_length_a                   13.232(4)
_cell_length_b                   10.248(3)
_cell_length_c                   14.595(5)
_cell_angle_alpha                90
_cell_angle_beta                 93.697(5)
_cell_angle_gamma                90
_cell_volume                     1974.99
_exptl_crystal_colour            pink
_exptl_crystal_description       prism
_cell_formula_units_Z            4
loop_
_atom_site_label
_atom_site_type_symbol
_atom_site_fract_x
_atom_site_fract_y
_atom_site_fract_z
S1 S 0.07757(3) 1.03966(5) 0.73957(3)
N1 N 0.28106(12) 0.90731(18) 0.71408(10)
O1 O 0.09634(10) 1.17206(14) 0.77176(10)
O2 O -0.02782(10) 1.00425(16) 0.72647(10)
O3 O 0.40476(11) 1.13002(16) 0.92503(11)
C1 C 0.13599(15) 1.0097(2) 0.63968(12)
H1 H 0.1061 1.0425 0.5842
C2 C 0.22319(14) 0.94088(19) 0.63755(12)
C3 C 0.25716(13) 0.95238(19) 0.80513(11)
H2 H 0.2704 1.0474 0.8083
C4 C 0.14378(14) 0.9305(2) 0.82096(12)
C5 C 0.26269(14) 0.89972(19) 0.54840(12)
C6 C 0.19654(16) 0.8703(2) 0.47331(13)
H3 H 0.1262 0.8744 0.4789
C7 C 0.23399(18) 0.8347(2) 0.38984(13)
H4 H 0.1887 0.8161 0.3393
C8 C 0.33624(19) 0.8266(3) 0.38078(14)
H5 H 0.3611 0.8019 0.3244
C9 C 0.40263(19) 0.8552(3) 0.45522(15)
H6 H 0.4728 0.8502 0.4493
C10 C 0.36600(16) 0.8912(3) 0.53903(14)
H7 H 0.4116 0.9098 0.5894
C11 C 0.32841(14) 0.8862(2) 0.87755(12)
H8 H 0.3097 0.9129 0.9387
H9 H 0.3194 0.7914 0.8728
C12 C 0.43982(14) 0.9189(2) 0.86787(13)
H10 H 0.4817 0.8594 0.9068
H11 H 0.4559 0.9040 0.8041
C13 C 0.46719(14) 1.0580(2) 0.89397(12)
C14 C 0.57198(14) 1.10691(19) 0.88218(12)
C15 C 0.65222(15) 1.0252(2) 0.86319(13)
H12 H 0.6409 0.9352 0.8554
C16 C 0.74834(15) 1.0756(2) 0.85571(13)
H13 H 0.8017 1.0192 0.8432
C17 C 0.76722(15) 1.2088(2) 0.86647(12)
C18 C 0.68646(17) 1.2894(2) 0.88351(15)
H14 H 0.6973 1.3798 0.8896
C19 C 0.59065(15) 1.2399(2) 0.89171(14)
H15 H 0.5373 1.2966 0.9039
C20 C 0.87194(17) 1.2644(3) 0.86057(17)
H16 H 0.8676 1.3477 0.8290
H17 H 0.9127 1.2046 0.8270
H18 H 0.9030 1.2768 0.9220
C21 C 0.11615(17) 0.9768(3) 0.91622(14)
H19 H 0.0433 0.9874 0.9165
H20 H 0.1490 1.0597 0.9304
H21 H 0.1386 0.9127 0.9620
C22 C 0.10869(16) 0.7908(2) 0.80203(16)
H22 H 0.1450 0.7321 0.8447
H23 H 0.1222 0.7670 0.7397
H24 H 0.0366 0.7843 0.8097
H25 H 0.322(2) 0.836(3) 0.7126(18)
loop_
_geom_bond_atom_site_label_1
_geom_bond_atom_site_label_2
_geom_bond_site_symmetry_1
_geom_bond_site_symmetry_2
S1 O1 1_555 1_555
N1 C2 1_555 1_555
O2 S1 1_555 1_555
O3 C13 1_555 1_555
C1 S1 1_555 1_555
H1 C1 1_555 1_555
C2 C1 1_555 1_555
C3 N1 1_555 1_555
H2 C3 1_555 1_555
C4 S1 1_555 1_555
C5 C2 1_555 1_555
C6 C5 1_555 1_555
H3 C6 1_555 1_555
C7 C6 1_555 1_555
H4 C7 1_555 1_555
C8 C7 1_555 1_555
H5 C8 1_555 1_555
C9 C8 1_555 1_555
H6 C9 1_555 1_555
C10 C5 1_555 1_555
H7 C10 1_555 1_555
C11 C3 1_555 1_555
H8 C11 1_555 1_555
H9 C11 1_555 1_555
C12 C11 1_555 1_555
H10 C12 1_555 1_555
H11 C12 1_555 1_555
C13 C12 1_555 1_555
C14 C13 1_555 1_555
C15 C14 1_555 1_555
H12 C15 1_555 1_555
C16 C15 1_555 1_555
H13 C16 1_555 1_555
C17 C16 1_555 1_555
C18 C17 1_555 1_555
H14 C18 1_555 1_555
C19 C14 1_555 1_555
H15 C19 1_555 1_555
C20 C17 1_555 1_555
H16 C20 1_555 1_555
H17 C20 1_555 1_555
H18 C20 1_555 1_555
C21 C4 1_555 1_555
H19 C21 1_555 1_555
H20 C21 1_555 1_555
H21 C21 1_555 1_555
C22 C4 1_555 1_555
H22 C22 1_555 1_555
H23 C22 1_555 1_555
H24 C22 1_555 1_555
H25 N1 1_555 1_555
C3 C4 1_555 1_555
C9 C10 1_555 1_555
C18 C19 1_555 1_555

#END
