
#######################################################################
#
#                 Cambridge Crystallographic Data Centre
#                                CCDC 
#
#######################################################################
#
# If this CIF has been generated from an entry in the Cambridge 
# Structural Database, then it will include bibliographic, chemical, 
# crystal, experimental, refinement or atomic coordinate data resulting 
# from the CCDC's data processing and validation procedures.
#
#######################################################################

data_NECNIT
_chemical_formula_moiety         'C7 H10 N1 O2 1+,Cl1 1-'
_chemical_name_systematic        '2,6-bis(Hydroxymethyl)pyridinium chloride'
_symmetry_cell_setting           monoclinic
_symmetry_space_group_name_H-M   'P 21/m'
_symmetry_Int_Tables_number      11
_space_group_name_Hall           '-P 2yb'
loop_
_symmetry_equiv_pos_site_id
_symmetry_equiv_pos_as_xyz
1 x,y,z
2 -x,1/2+y,-z
3 -x,-y,-z
4 x,1/2-y,z
_cell_length_a                   4.1861(6)
_cell_length_b                   12.3631(16)
_cell_length_c                   7.9174(11)
_cell_angle_alpha                90
_cell_angle_beta                 100.623(2)
_cell_angle_gamma                90
_cell_volume                     402.728
_exptl_crystal_colour            colorless
_cell_formula_units_Z            2
_exptl_crystal_recrystallization_method ethanol
loop_
_atom_site_label
_atom_site_type_symbol
_atom_site_fract_x
_atom_site_fract_y
_atom_site_fract_z
Cl1 Cl 0.67913(13) 0.2500 0.41397(6)
N1 N 0.3319(4) 0.2500 0.7239(2)
H1 H 0.400(6) 0.2500 0.625(3)
O1 O 0.1832(4) -0.03252(10) 0.75917(19)
H2 H 0.245(6) -0.084(2) 0.723(3)
C1 C 0.3393(4) 0.05441(11) 0.69544(19)
H3 H 0.2520 0.0648 0.5729
H4 H 0.5729 0.0401 0.7092
C2 C 0.2814(3) 0.15389(10) 0.79476(18)
C3 C 0.1741(4) 0.15263(11) 0.9494(2)
H5 H 0.1368 0.0866 1.0013
C4 C 0.1217(6) 0.2500 1.0276(3)
H6 H 0.0508 0.2500 1.1335
O1C O 0.1832(4) 0.53252(10) 0.75917(19)
H2C H 0.245(6) 0.584(2) 0.723(3)
C1C C 0.3393(4) 0.44559(11) 0.69544(19)
H3C H 0.2520 0.4352 0.5729
H4C H 0.5729 0.4599 0.7092
C2C C 0.2814(3) 0.34611(10) 0.79476(18)
C3C C 0.1741(4) 0.34737(11) 0.9494(2)
H5C H 0.1368 0.4134 1.0013
loop_
_geom_bond_atom_site_label_1
_geom_bond_atom_site_label_2
_geom_bond_site_symmetry_1
_geom_bond_site_symmetry_2
N1 H1 1_555 1_555
O1 H2 1_555 1_555
C1 O1 1_555 1_555
H3 C1 1_555 1_555
H4 C1 1_555 1_555
C2 N1 1_555 1_555
C3 C2 1_555 1_555
H5 C3 1_555 1_555
C4 C3 1_555 1_555
H6 C4 1_555 1_555
O1C H2C 1_555 1_555
C1C O1C 1_555 1_555
H3C C1C 1_555 1_555
H4C C1C 1_555 1_555
C2C N1 1_555 1_555
C3C C4 1_555 1_555
H5C C3C 1_555 1_555
C1 C2 1_555 1_555
C1C C2C 1_555 1_555
C2C C3C 1_555 1_555

#END
