
#######################################################################
#
#                 Cambridge Crystallographic Data Centre
#                                CCDC 
#
#######################################################################
#
# If this CIF has been generated from an entry in the Cambridge 
# Structural Database, then it will include bibliographic, chemical, 
# crystal, experimental, refinement or atomic coordinate data resulting 
# from the CCDC's data processing and validation procedures.
#
#######################################################################

data_NEDBEG
_chemical_formula_moiety         'C336 H520 Mg24 N8 O120'
_chemical_name_systematic        
'hexakis(\m-C-hexylpyrogallol[4]arene)-octakis(dimethylformamide)-tetracontakis(aqua)-tetracosa-magnesium(ii) unknown solvate'
_symmetry_cell_setting           triclinic
_symmetry_space_group_name_H-M   'P -1'
_symmetry_Int_Tables_number      2
_space_group_name_Hall           '-P 1'
loop_
_symmetry_equiv_pos_site_id
_symmetry_equiv_pos_as_xyz
1 x,y,z
2 -x,-y,-z
_cell_length_a                   22.7515(6)
_cell_length_b                   22.7793(6)
_cell_length_c                   26.1131(7)
_cell_angle_alpha                107.781(2)
_cell_angle_beta                 108.542(2)
_cell_angle_gamma                101.392(2)
_cell_volume                     11549.1
_exptl_crystal_colour            blue
_exptl_crystal_description       block
_cell_formula_units_Z            1
loop_
_atom_site_label
_atom_site_type_symbol
_atom_site_fract_x
_atom_site_fract_y
_atom_site_fract_z
Mg1 Mg 0.70632(8) 0.82650(9) 0.75887(8)
Mg2 Mg 0.54234(9) 0.85439(13) 0.60951(10)
O1 O 0.7723(3) 0.9041(3) 0.8432(2)
O2 O 0.6453(4) 0.7475(3) 0.6759(3)
O3 O 0.5511(5) 0.7603(4) 0.5973(4)
O4 O 0.5311(5) 0.9493(5) 0.6178(5)
O5 O 0.81526(15) 0.61898(16) 0.42466(15)
O6 O 0.58582(17) 0.75703(17) 0.35335(16)
O7 O 0.73242(15) 0.63892(17) 0.34950(16)
O8 O 0.61086(15) 0.64636(17) 0.31244(17)
O9 O 0.87320(16) 0.76334(18) 0.71111(16)
O10 O 0.89354(17) 0.69014(18) 0.62983(15)
O11 O 0.56127(16) 0.82684(18) 0.43167(16)
O12 O 0.64166(17) 0.89699(18) 0.63666(17)
O13 O 0.72803(17) 0.88457(17) 0.71644(17)
O14 O 0.84394(19) 0.59544(17) 0.52169(16)
O15 O 0.78117(18) 0.7983(2) 0.74595(18)
O16 O 0.54342(17) 0.8396(2) 0.53000(18)
C1 C 0.6613(2) 0.7011(3) 0.3511(2)
C2 C 0.8534(2) 0.8122(2) 0.6980(2)
C3 C 0.8804(2) 0.8447(2) 0.6695(2)
C4 C 0.8587(2) 0.6573(3) 0.5278(2)
C5 C 0.8454(2) 0.6716(2) 0.4775(2)
C6 C 0.7258(2) 0.6985(2) 0.3705(2)
C7 C 0.8866(2) 0.7079(3) 0.5835(2)
C8 C 0.9050(2) 0.7736(2) 0.5900(2)
C9 C 0.6503(2) 0.7597(3) 0.3721(2)
C10 C 0.7786(2) 0.8750(2) 0.7009(2)
C11 C 0.7198(3) 0.9259(2) 0.5947(3)
C12 C 0.6145(3) 0.8602(2) 0.4835(2)
C13 C 0.8632(2) 0.7357(2) 0.4818(2)
C14 C 0.6563(2) 0.8969(2) 0.5901(2)
C15 C 0.7788(2) 0.7553(3) 0.4072(2)
C16 C 0.8550(2) 0.8927(2) 0.6574(2)
H1 H 0.8732 0.9158 0.6383
C17 C 0.8928(2) 0.7858(3) 0.5395(2)
H2 H 0.9049 0.8299 0.5436
C18 C 0.8476(2) 0.7511(3) 0.4281(2)
H3 H 0.8458 0.7117 0.3965
C19 C 0.6036(2) 0.8650(3) 0.5338(3)
C20 C 0.9338(2) 0.8281(2) 0.6521(2)
H4 H 0.9567 0.8098 0.6798
C21 C 0.7283(2) 0.9207(2) 0.5441(3)
H5 H 0.7711 0.9398 0.5475
C22 C 0.7762(2) 0.9593(2) 0.6568(3)
H6 H 0.7564 0.9753 0.6852
C23 C 0.8046(2) 0.8276(2) 0.7154(2)
C24 C 0.8043(2) 0.9086(2) 0.6719(2)
C25 C 0.6780(2) 0.8891(2) 0.4880(3)
C26 C 0.7029(3) 0.8170(3) 0.4095(3)
C27 C 0.7659(2) 0.8134(3) 0.4262(3)
H7 H 0.8017 0.8523 0.4517
C28 C 0.6884(3) 0.8807(2) 0.4320(3)
H8 H 0.6455 0.8755 0.4017
C29 C 0.8999(3) 0.8077(3) 0.4317(3)
H9 H 0.9017 0.8489 0.4604
H10 H 0.9432 0.8017 0.4465
C30 C 0.9861(2) 0.8873(3) 0.6586(3)
H11 H 0.9647 0.9078 0.6330
H12 H 1.0182 0.8719 0.6447
C31 C 0.8280(3) 1.0188(3) 0.6636(3)
H13 H 0.8494 1.0043 0.6366
H14 H 0.8061 1.0489 0.6519
C32 C 0.7389(3) 0.9414(3) 0.4378(3)
H15 H 0.7276 0.9806 0.4546
H16 H 0.7830 0.9465 0.4654
C33 C 1.0230(3) 0.9390(3) 0.7219(3)
H17 H 0.9918 0.9579 0.7345
H18 H 1.0409 0.9178 0.7484
C34 C 0.8876(3) 0.8139(4) 0.3731(3)
H19 H 0.8556 0.8375 0.3666
H20 H 0.8673 0.7696 0.3414
C35 C 1.0790(4) 0.9936(4) 0.7279(4)
H21 H 1.1105 0.9742 0.7164
H22 H 1.0608 1.0127 0.6996
C36 C 0.8807(3) 1.0557(3) 0.7264(4)
H23 H 0.8592 1.0617 0.7542
H24 H 0.9090 1.0290 0.7350
C37 C 1.0716(4) 1.0211(4) 0.4519(4)
H25 H 1.1108 1.0430 0.4483
H26 H 1.0403 1.0450 0.4465
H27 H 1.0840 1.0199 0.4911
C38 C 0.9799(4) 0.9190(4) 0.4116(4)
H28 H 0.9918 0.9198 0.4518
H29 H 0.9477 0.9425 0.4053
C39 C 0.7412(5) 0.9369(4) 0.3788(4)
H30 H 0.7492 0.8956 0.3616
H31 H 0.6969 0.9329 0.3525
C40 C 1.0414(4) 0.9546(4) 0.4071(4)
H32 H 1.0733 0.9306 0.4122
H33 H 1.0296 0.9558 0.3676
C41 C 1.1153(5) 1.0469(5) 0.7869(5)
H34 H 1.1336 1.0280 0.8154
H35 H 1.0840 1.0665 0.7985
C42 C 0.9485(4) 0.8491(5) 0.3674(4)
H36 H 0.9807 0.8257 0.3733
H37 H 0.9358 0.8483 0.3272
C43 C 0.9227(6) 1.1208(5) 0.7362(6)
H38 H 0.8955 1.1497 0.7346
H39 H 0.9367 1.1154 0.7034
C44 C 0.8585(8) 1.1010(9) 0.4047(8)
H40 H 0.8553 1.0798 0.3642
H41 H 0.8469 1.1412 0.4070
C45 C 0.7896(13) 0.9902(12) 0.3762(12)
H42 H 0.8311 0.9798 0.3842
H43 H 0.7732 0.9862 0.3350
C46 C 1.1731(10) 1.1028(8) 0.7920(7)
H44 H 1.1918 1.0837 0.7640
H45 H 1.1549 1.1349 0.7800
C47 C 0.9845(9) 1.1553(6) 0.7947(7)
H46 H 0.9700 1.1619 0.8274
H47 H 1.0104 1.1253 0.7969
C48 C 0.9275(12) 1.1214(13) 0.4447(11)
H48 H 0.9545 1.1503 0.4337
H49 H 0.9329 1.1447 0.4851
H50 H 0.9414 1.0829 0.4421
C49 C 0.8063(12) 1.0562(12) 0.4119(12)
H51 H 0.8218 1.0617 0.4535
H52 H 0.7664 1.0693 0.4024
C50 C 1.0291(9) 1.2194(7) 0.8054(10)
H53 H 1.0353 1.2136 0.7685
H54 H 1.0039 1.2501 0.8092
C51 C 1.0921(12) 1.2530(12) 0.8515(11)
H55 H 1.1113 1.2939 0.8488
H56 H 1.0885 1.2627 0.8894
H57 H 1.1202 1.2258 0.8484
C52 C 1.229(2) 1.139(2) 0.8538(12)
H58 H 1.2625 1.1726 0.8535
H59 H 1.2109 1.1590 0.8818
H60 H 1.2478 1.1077 0.8657
Mg3 Mg 0.47919(9) 0.79476(13) 0.44411(9)
O17 O 0.4542(4) 0.8842(3) 0.4486(3)
O18 O 0.4944(4) 0.7048(4) 0.4411(4)
C53 C 0.4087(12) 0.9850(7) 0.4666(11)
H61 H 0.3815 1.0132 0.4630
H62 H 0.4545 1.0100 0.4781
H63 H 0.4057 0.9686 0.4967
C54 C 0.4148(8) 0.8883(8) 0.4063(10)
N1 N 0.3877(7) 0.9349(7) 0.4152(10)
C55 C 0.3444(14) 0.9435(13) 0.3521(12)
H64 H 0.3259 0.9787 0.3621
H65 H 0.3088 0.9026 0.3249
H66 H 0.3738 0.9542 0.3334
Mg4 Mg 0.86991(9) 0.59059(9) 0.60182(8)
O19 O 0.9676(2) 0.5988(2) 0.61261(18)
O20 O 0.7682(3) 0.5791(4) 0.5873(3)
N2 N 1.0620(3) 0.5825(4) 0.6563(4)
C56 C 0.9983(3) 0.5698(5) 0.6389(4)
C57 C 1.0957(5) 0.5511(8) 0.6899(6)
H67 H 1.1426 0.5666 0.6987
H68 H 1.0896 0.5613 0.7267
H69 H 1.0781 0.5038 0.6672
C58 C 1.1019(5) 0.6367(7) 0.6539(9)
H70 H 1.1477 0.6379 0.6686
H71 H 1.0876 0.6329 0.6131
H72 H 1.0982 0.6769 0.6782
Mg5 Mg 0.52624(8) 0.66702(9) 0.29046(8)
O21 O 0.5484(3) 0.7008(3) 0.2264(2)
O22 O 0.5055(4) 0.6284(4) 0.3504(3)
Mg6 Mg 0.82324(8) 0.72951(9) 0.75582(8)
O23 O 0.8996(2) 0.7963(3) 0.8388(2)
O24 O 0.7441(3) 0.6652(3) 0.6751(3)
O25 O 0.31864(16) 0.50495(17) 0.72744(16)
O26 O 0.63111(18) 0.85843(18) 0.76874(17)
O27 O 0.23540(18) 0.67395(18) 0.56332(17)
O28 O 0.23419(18) 0.52220(17) 0.65085(16)
O29 O 0.54468(16) 0.60806(18) 0.84146(16)
O30 O 0.62995(18) 0.70511(19) 0.85512(16)
O31 O 0.54752(17) 0.8747(2) 0.69251(17)
O32 O 0.44176(17) 0.50245(19) 0.76632(18)
O33 O 0.32149(17) 0.7680(2) 0.57436(17)
O34 O 0.67794(18) 0.7688(2) 0.79804(18)
O35 O 0.44613(17) 0.8149(3) 0.58762(18)
O36 O 0.2075(3) 0.55144(19) 0.55600(18)
C59 C 0.2461(2) 0.6653(3) 0.6141(2)
C60 C 0.6066(2) 0.8329(3) 0.8011(2)
C61 C 0.3666(2) 0.5614(3) 0.7690(2)
C62 C 0.6051(3) 0.7519(3) 0.8452(2)
C63 C 0.2463(2) 0.5871(2) 0.6599(2)
C64 C 0.5574(3) 0.7696(3) 0.8638(2)
C65 C 0.2697(2) 0.7165(3) 0.6689(2)
C66 C 0.4309(2) 0.5576(3) 0.7874(2)
C67 C 0.5352(2) 0.8175(2) 0.8499(2)
H73 H 0.5027 0.8291 0.8625
C68 C 0.4086(2) 0.6733(3) 0.8333(2)
H74 H 0.4007 0.7128 0.8496
C69 C 0.5573(3) 0.8494(2) 0.8190(2)
C70 C 0.3552(2) 0.6195(3) 0.7926(2)
C71 C 0.2817(2) 0.7009(2) 0.7185(2)
H75 H 0.2986 0.7355 0.7562
C72 C 0.4843(2) 0.6151(3) 0.8287(2)
C73 C 0.4854(3) 0.8559(3) 0.6914(3)
C74 C 0.6309(3) 0.7842(3) 0.8150(2)
C75 C 0.3687(3) 0.8010(3) 0.6303(2)
C76 C 0.4733(2) 0.6736(3) 0.8524(2)
C77 C 0.2700(2) 0.6375(3) 0.7153(2)
C78 C 0.2846(2) 0.6213(3) 0.7701(2)
H76 H 0.2545 0.5764 0.7576
C79 C 0.4088(3) 0.8468(3) 0.7354(3)
H77 H 0.4001 0.8559 0.7698
C80 C 0.3561(3) 0.8135(2) 0.6807(2)
C81 C 0.4742(3) 0.8677(2) 0.7422(3)
C82 C 0.2340(3) 0.6010(3) 0.6096(2)
C83 C 0.4344(2) 0.8249(3) 0.6358(2)
C84 C 0.5317(2) 0.9008(2) 0.8024(2)
H78 H 0.5676 0.9294 0.7980
C85 C 0.5314(2) 0.7333(3) 0.8967(2)
H79 H 0.5667 0.7173 0.9160
C86 C 0.2679(3) 0.8311(3) 0.7193(3)
H80 H 0.2808 0.8761 0.7211
H81 H 0.2934 0.8323 0.7584
C87 C 0.2853(2) 0.7870(3) 0.6734(2)
H82 H 0.2566 0.7852 0.6345
C88 C 0.2711(3) 0.6676(3) 0.8185(3)
H83 H 0.3036 0.7116 0.8344
H84 H 0.2271 0.6708 0.8005
C89 C 0.5164(3) 0.9452(3) 0.8510(3)
H85 H 0.4986 0.9766 0.8373
H86 H 0.4821 0.9180 0.8575
C90 C 0.5166(3) 0.7771(3) 0.9460(2)
H87 H 0.4879 0.8003 0.9299
H88 H 0.4933 0.7498 0.9612
C91 C 0.5753(4) 0.9824(3) 0.9083(3)
H89 H 0.6116 1.0054 0.9011
H90 H 0.5897 0.9514 0.9248
C92 C 0.5609(4) 1.0322(4) 0.9532(3)
H91 H 0.5569 1.0685 0.9404
H92 H 0.5177 1.0111 0.9518
C93 C 0.2740(4) 0.6477(4) 0.8682(3)
H93 H 0.3173 0.6425 0.8848
H94 H 0.2403 0.6045 0.8523
C94 C 0.1937(4) 0.8084(4) 0.7062(4)
H95 H 0.1802 0.7630 0.7033
H96 H 0.1680 0.8091 0.6680
C95 C 0.5806(4) 0.8269(5) 0.9963(3)
H97 H 0.6014 0.8575 0.9822
H98 H 0.6114 0.8040 1.0093
C96 C 0.6092(7) 1.0606(5) 1.0153(4)
H99 H 0.6528 1.0809 1.0169
H100 H 0.6121 1.0248 1.0289
C97 C 0.5933(5) 1.1127(5) 1.0586(5)
H101 H 0.5939 1.1504 1.0473
H102 H 0.5486 1.0937 1.0556
C98 C 0.5665(6) 0.8652(6) 1.0482(4)
H103 H 0.5434 0.8344 1.0608
H104 H 0.5379 0.8902 1.0358
C99 C 0.6389(7) 1.1345(6) 1.1178(5)
H105 H 0.6273 1.1671 1.1435
H106 H 0.6378 1.0974 1.1294
H107 H 0.6831 1.1541 1.1211
C100 C 0.6317(7) 0.9126(7) 1.1004(5)
H108 H 0.6596 0.8872 1.1133
H109 H 0.6554 0.9420 1.0871
C101 C 0.1785(7) 0.8548(6) 0.7569(10)
H110 H 0.2140 0.8656 0.7954
H111 H 0.1790 0.8960 0.7515
C102 C 0.6198(10) 0.9538(11) 1.1530(7)
H112 H 0.6062 0.9891 1.1432
H113 H 0.5814 0.9255 1.1540
C103 C 0.2635(13) 0.6943(13) 0.9186(10)
H114 H 0.3053 0.7308 0.9434
H115 H 0.2557 0.6706 0.9431
C104 C 0.1132(12) 0.8252(12) 0.7582(12)
H116 H 0.0788 0.8133 0.7187
H117 H 0.1056 0.8604 0.7861
C105 C 0.6687(13) 0.9837(12) 1.2114(10)
H118 H 0.6512 1.0074 1.2378
H119 H 0.6819 0.9501 1.2237
H120 H 0.7069 1.0142 1.2129
C106 C 0.1005(12) 0.7654(13) 0.7743(12)
H121 H 0.1136 0.7318 0.7504
H122 H 0.1298 0.7788 0.8160
C107 C 0.0312(9) 0.7340(8) 0.7660(8)
H123 H 0.0294 0.6968 0.7776
H124 H 0.0178 0.7660 0.7905
H125 H 0.0015 0.7188 0.7246
C108 C 0.1379(12) 0.6757(13) 0.8975(11)
H126 H 0.1361 0.6296 0.8830
H127 H 0.0986 0.6803 0.8708
C109 C 0.2068(12) 0.7252(13) 0.9038(12)
H128 H 0.1999 0.7310 0.8665
H129 H 0.2192 0.7685 0.9355
C110 C 0.1443(13) 0.7034(13) 0.9693(11)
H130 H 0.1840 0.6990 0.9947
H131 H 0.1469 0.7493 0.9826
Mg7 Mg 0.70279(9) 0.69983(9) 0.82584(8)
O37 O 0.7718(2) 0.7681(2) 0.9109(2)
O38 O 0.6340(3) 0.6265(4) 0.7400(2)
N3 N 0.7878(13) 0.8408(12) 1.0057(11)
C111 C 0.8480(14) 0.8290(13) 1.0256(12)
H132 H 0.8469 0.7899 0.9956
H133 H 0.8839 0.8665 1.0327
H134 H 0.8550 0.8225 1.0622
C112 C 0.7547(15) 0.8048(15) 0.9397(14)
C113 C 0.7679(13) 0.8941(13) 1.0363(12)
H135 H 0.7233 0.8895 1.0116
H136 H 0.7693 0.8921 1.0736
H137 H 0.7981 0.9361 1.0441
Mg8 Mg 0.35643(8) 0.42978(8) 0.70936(8)
O39 O 0.3380(3) 0.4073(3) 0.7784(2)
O40 O 0.3738(4) 0.4508(4) 0.6400(3)
N4 N 0.2774(7) 0.3382(6) 0.8042(6)
C114 C 0.3003(7) 0.3520(8) 0.7692(5)
C115 C 0.2968(14) 0.3786(13) 0.8587(12)
H138 H 0.2733 0.3587 0.8780
H139 H 0.2874 0.4190 0.8593
C116 C 0.2328(13) 0.2704(13) 0.7838(12)
H140 H 0.2190 0.2664 0.8148
H141 H 0.2561 0.2393 0.7748
H142 H 0.1942 0.2609 0.7484
H143 H 0.3440 0.3886 0.8796
Mg9 Mg 0.53822(8) 0.51242(9) 0.80489(8)
O41 O 0.5267(3) 0.5008(3) 0.8802(2)
O42 O 0.5457(4) 0.5170(4) 0.7271(3)
Mg10 Mg 0.36326(10) 0.76582(17) 0.51550(10)
O43 O 0.3466(4) 0.8618(3) 0.5177(4)
O44 O 0.3785(5) 0.6740(6) 0.5097(6)
Mg11 Mg 0.2045(2) 0.46560(10) 0.56415(9)
O45 O 0.2933(5) 0.4709(6) 0.5616(4)
O46 O 0.0927(4) 0.4516(6) 0.5617(5)
Mg12 Mg 0.1984(2) 0.58743(12) 0.49375(10)
O47 O 0.0935(3) 0.5895(3) 0.4861(3)
O48 O 0.2977(7) 0.5841(7) 0.4987(7)
O49 O 0.13128(17) 0.33800(18) 0.23662(16)
O50 O 0.36135(16) 0.46876(18) 0.15578(16)
O51 O 0.18677(18) 0.63150(18) 0.43615(17)
O52 O 0.44377(17) 0.69388(19) 0.27500(17)
O53 O 0.41937(17) 0.7576(2) 0.35666(17)
O54 O 0.27396(16) 0.7228(2) 0.44609(17)
O55 O 0.22543(18) 0.31061(19) 0.20284(17)
O56 O 0.1077(2) 0.4088(2) 0.31566(17)
O57 O 0.27764(17) 0.37292(19) 0.14788(16)
O58 O 0.46207(17) 0.58002(19) 0.22858(19)
O59 O 0.1580(2) 0.5070(2) 0.42162(17)
O60 O 0.39460(17) 0.7635(2) 0.45123(18)
C117 C 0.1506(2) 0.3694(3) 0.2056(2)
C118 C 0.1482(2) 0.4432(3) 0.1573(2)
H144 H 0.1289 0.4729 0.1454
C119 C 0.3259(3) 0.6454(3) 0.2135(2)
C120 C 0.1996(2) 0.4321(3) 0.1419(2)
C121 C 0.3552(2) 0.7374(3) 0.3487(2)
C122 C 0.1402(2) 0.6010(3) 0.3298(3)
C123 C 0.2012(2) 0.3550(3) 0.1892(2)
C124 C 0.2263(3) 0.6976(3) 0.3414(3)
C125 C 0.1433(3) 0.5210(3) 0.3736(2)
C126 C 0.1234(2) 0.4143(3) 0.1886(2)
C127 C 0.1564(2) 0.5859(3) 0.3792(3)
C128 C 0.3895(3) 0.6418(3) 0.2333(2)
C129 C 0.3475(2) 0.5252(3) 0.1724(2)
C130 C 0.2272(2) 0.3880(3) 0.1594(2)
C131 C 0.2387(2) 0.6953(3) 0.2921(3)
H145 H 0.2025 0.6794 0.2552
C132 C 0.2827(3) 0.5276(3) 0.1510(2)
C133 C 0.3020(3) 0.7153(3) 0.2944(2)
C134 C 0.1158(2) 0.4706(3) 0.3161(2)
C135 C 0.0977(2) 0.4836(3) 0.2668(3)
C136 C 0.4004(3) 0.5827(3) 0.2115(2)
C137 C 0.1114(2) 0.5499(3) 0.2745(2)
H146 H 0.1006 0.5600 0.2406
C138 C 0.2793(3) 0.7194(3) 0.3948(2)
C139 C 0.2271(2) 0.4658(3) 0.1080(2)
H147 H 0.2463 0.4361 0.0866
C140 C 0.2745(2) 0.5887(3) 0.1724(2)
H148 H 0.2316 0.5914 0.1582
C141 C 0.3444(3) 0.7410(3) 0.3996(2)
C142 C 0.1570(2) 0.6726(3) 0.3380(3)
H149 H 0.1578 0.6978 0.3772
C143 C 0.0683(2) 0.4287(3) 0.2064(2)
H150 H 0.0458 0.3890 0.2103
C144 C 0.3148(3) 0.7099(3) 0.2388(2)
H151 H 0.3570 0.7450 0.2519
C145 C 0.1732(3) 0.4756(4) 0.0611(3)
H152 H 0.1938 0.4989 0.0416
H153 H 0.1521 0.5036 0.0809
C146 C 0.0155(3) 0.4406(4) 0.1599(3)
H154 H 0.0367 0.4764 0.1511
H155 H -0.0159 0.4542 0.1760
C147 C 0.1050(3) 0.6852(3) 0.2921(3)
H156 H 0.1026 0.6604 0.2526
H157 H 0.1195 0.7321 0.2996
C148 C 0.2624(3) 0.7231(4) 0.1943(3)
H158 H 0.2192 0.6914 0.1833
H159 H 0.2711 0.7148 0.1584
C149 C 0.1212(3) 0.4131(4) 0.0150(3)
H160 H 0.1415 0.3869 -0.0075
H161 H 0.1034 0.3878 0.0346
C150 C 0.0367(4) 0.6666(5) 0.2914(6)
H162 H 0.0192 0.6183 0.2743
H163 H 0.0092 0.6812 0.2634
C151 C 0.0642(6) 0.4240(6) -0.0282(5)
H164 H 0.0815 0.4453 -0.0507
H165 H 0.0474 0.4542 -0.0052
C152 C -0.0718(5) 0.4136(6) -0.1089(6)
H166 H -0.1022 0.4117 -0.1462
H167 H -0.0401 0.4577 -0.0859
H168 H -0.0965 0.4025 -0.0866
C153 C -0.0220(5) 0.3788(7) 0.1027(5)
H169 H -0.0393 0.3427 0.1131
H170 H 0.0099 0.3673 0.0864
C154 C 0.0098(5) 0.3645(7) -0.0697(6)
H171 H -0.0148 0.3506 -0.0479
H172 H 0.0286 0.3300 -0.0831
C155 C 0.2578(5) 0.7898(6) 0.2145(5)
H173 H 0.2471 0.7976 0.2493
H174 H 0.3013 0.8217 0.2269
C156 C -0.0365(12) 0.3665(12) -0.1211(10)
H175 H -0.0130 0.3774 -0.1447
H176 H -0.0692 0.3223 -0.1454
C157 C -0.1207(12) 0.4166(13) 0.0726(11)
H177 H -0.1352 0.3985 0.0982
H178 H -0.0928 0.4624 0.0978
C158 C -0.1812(6) 0.4192(9) 0.0293(6)
H179 H -0.2012 0.3798 -0.0079
H180 H -0.2142 0.4247 0.0459
C159 C -0.0997(11) 0.6045(12) 0.2694(12)
H181 H -0.0755 0.5733 0.2728
H182 H -0.1102 0.6049 0.2297
C160 C -0.0760(12) 0.3815(13) 0.0564(11)
H183 H -0.0573 0.4018 0.0341
C161 C 0.0250(12) 0.6889(13) 0.3450(10)
H184 H 0.0373 0.6637 0.3692
H185 H 0.0489 0.7360 0.3690
C162 C 0.2078(9) 0.8017(8) 0.1690(12)
H186 H 0.1686 0.7624 0.1510
H187 H 0.2248 0.8002 0.1383
C163 C -0.0554(11) 0.6738(12) 0.3165(12)
H188 H -0.0639 0.7056 0.2988
H189 H -0.0698 0.6827 0.3493
C164 C -0.1638(6) 0.5816(8) 0.2764(10)
H190 H -0.1903 0.5379 0.2461
H191 H -0.1883 0.6120 0.2723
H192 H -0.1536 0.5804 0.3154
C165 C -0.1485(13) 0.4863(12) 0.0198(12)
H193 H -0.1832 0.4943 -0.0081
H194 H -0.1153 0.4795 0.0044
H195 H -0.1282 0.5240 0.0576
C166 C 0.1831(12) 0.8554(12) 0.1762(11)
H196 H 0.1627 0.8607 0.2049
H197 H 0.2166 0.8970 0.1865
C167 C 0.1258(12) 0.8236(13) 0.1041(11)
H198 H 0.1344 0.7880 0.0776
H199 H 0.1212 0.8573 0.0880
C168 C 0.0655(12) 0.7978(13) 0.1193(11)
H200 H 0.0252 0.7766 0.0832
H201 H 0.0606 0.8347 0.1471
H202 H 0.0736 0.7663 0.1369
Mg1A Mg 0.29368(8) 0.17350(9) 0.24113(8)
Mg2A Mg 0.45766(9) 0.14561(13) 0.39049(10)
O1A O 0.2277(3) 0.0959(3) 0.1568(2)
O2A O 0.3547(4) 0.2525(3) 0.3241(3)
O3A O 0.4489(5) 0.2397(4) 0.4027(4)
O4A O 0.4689(5) 0.0507(5) 0.3822(5)
O5A O 0.18474(15) 0.38102(16) 0.57534(15)
O6A O 0.41418(17) 0.24297(17) 0.64665(16)
O7A O 0.26758(15) 0.36108(17) 0.65050(16)
O8A O 0.38914(15) 0.35364(17) 0.68756(17)
O9A O 0.12680(16) 0.23666(18) 0.28889(16)
O10A O 0.10646(17) 0.30986(18) 0.37017(15)
O11A O 0.43873(16) 0.17316(18) 0.56833(16)
O12A O 0.35834(17) 0.10301(18) 0.36334(17)
O13A O 0.27197(17) 0.11543(17) 0.28356(17)
O14A O 0.15606(19) 0.40456(17) 0.47831(16)
O15A O 0.21883(18) 0.2017(2) 0.25405(18)
O16A O 0.45658(17) 0.1604(2) 0.47000(18)
C1A C 0.3387(2) 0.2989(3) 0.6489(2)
C2A C 0.1466(2) 0.1878(2) 0.3020(2)
C3A C 0.1196(2) 0.1553(2) 0.3305(2)
C4A C 0.1413(2) 0.3427(3) 0.4722(2)
C5A C 0.1546(2) 0.3284(2) 0.5225(2)
C6A C 0.2742(2) 0.3015(2) 0.6295(2)
C7A C 0.1134(2) 0.2921(3) 0.4165(2)
C8A C 0.0950(2) 0.2264(2) 0.4100(2)
C9A C 0.3497(2) 0.2403(3) 0.6279(2)
C10A C 0.2214(2) 0.1250(2) 0.2991(2)
C11A C 0.2802(3) 0.0741(2) 0.4053(3)
C12A C 0.3855(3) 0.1398(2) 0.5165(2)
C13A C 0.1368(2) 0.2643(2) 0.5182(2)
C14A C 0.3437(2) 0.1031(2) 0.4099(2)
C15A C 0.2212(2) 0.2447(3) 0.5928(2)
C16A C 0.1450(2) 0.1073(2) 0.3426(2)
H1A H 0.1268 0.0842 0.3617
C17A C 0.1072(2) 0.2142(3) 0.4605(2)
H2A H 0.0951 0.1701 0.4564
C18A C 0.1524(2) 0.2489(3) 0.5719(2)
H3A H 0.1542 0.2883 0.6035
C19A C 0.3964(2) 0.1350(3) 0.4662(3)
C20A C 0.0662(2) 0.1719(2) 0.3479(2)
H4A H 0.0433 0.1902 0.3202
C21A C 0.2717(2) 0.0793(2) 0.4559(3)
H5A H 0.2289 0.0602 0.4525
C22A C 0.2238(2) 0.0407(2) 0.3432(3)
H6A H 0.2436 0.0247 0.3148
C23A C 0.1954(2) 0.1724(2) 0.2846(2)
C24A C 0.1957(2) 0.0914(2) 0.3281(2)
C25A C 0.3220(2) 0.1109(2) 0.5120(3)
C26A C 0.2971(3) 0.1830(3) 0.5905(3)
C27A C 0.2341(2) 0.1866(3) 0.5738(3)
H7A H 0.1983 0.1477 0.5483
C28A C 0.3116(3) 0.1193(2) 0.5680(3)
H8A H 0.3545 0.1245 0.5983
C29A C 0.1001(3) 0.1923(3) 0.5683(3)
H9A H 0.0983 0.1511 0.5396
H10A H 0.0568 0.1983 0.5535
C30A C 0.0139(2) 0.1127(3) 0.3414(3)
H11A H 0.0353 0.0922 0.3670
H12A H -0.0182 0.1281 0.3553
C31A C 0.1720(3) -0.0188(3) 0.3364(3)
H13A H 0.1506 -0.0043 0.3634
H14A H 0.1939 -0.0489 0.3481
C32A C 0.2611(3) 0.0586(3) 0.5622(3)
H15A H 0.2724 0.0194 0.5454
H16A H 0.2170 0.0535 0.5346
C33A C -0.0230(3) 0.0610(3) 0.2781(3)
H17A H 0.0082 0.0421 0.2655
H18A H -0.0409 0.0822 0.2516
C34A C 0.1124(3) 0.1861(4) 0.6269(3)
H19A H 0.1444 0.1625 0.6334
H20A H 0.1327 0.2304 0.6586
C35A C -0.0790(4) 0.0064(4) 0.2721(4)
H21A H -0.1105 0.0258 0.2836
H22A H -0.0608 -0.0127 0.3004
C36A C 0.1193(3) -0.0557(3) 0.2736(4)
H23A H 0.1408 -0.0617 0.2458
H24A H 0.0910 -0.0290 0.2650
C37A C -0.0716(4) -0.0211(4) 0.5481(4)
H25A H -0.1108 -0.0430 0.5517
H26A H -0.0403 -0.0450 0.5535
H27A H -0.0840 -0.0199 0.5089
C38A C 0.0201(4) 0.0810(4) 0.5884(4)
H28A H 0.0082 0.0802 0.5482
H29A H 0.0523 0.0575 0.5947
C39A C 0.2588(5) 0.0631(4) 0.6212(4)
H30A H 0.2508 0.1044 0.6384
H31A H 0.3031 0.0671 0.6475
C40A C -0.0414(4) 0.0454(4) 0.5929(4)
H32A H -0.0733 0.0694 0.5878
H33A H -0.0296 0.0442 0.6324
C41A C -0.1153(5) -0.0469(5) 0.2131(5)
H34A H -0.1336 -0.0280 0.1846
H35A H -0.0840 -0.0665 0.2015
C42A C 0.0515(4) 0.1509(5) 0.6326(4)
H36A H 0.0193 0.1743 0.6267
H37A H 0.0642 0.1517 0.6728
C43A C 0.0773(6) -0.1208(5) 0.2638(6)
H38A H 0.1045 -0.1497 0.2654
H39A H 0.0633 -0.1154 0.2966
C44A C 0.1415(8) -0.1010(9) 0.5953(8)
H40A H 0.1447 -0.0798 0.6358
H41A H 0.1531 -0.1412 0.5930
C45A C 0.2104(13) 0.0098(12) 0.6238(12)
H42A H 0.1689 0.0202 0.6158
H43A H 0.2268 0.0138 0.6650
C46A C -0.1731(10) -0.1028(8) 0.2080(7)
H44A H -0.1918 -0.0837 0.2360
H45A H -0.1549 -0.1349 0.2200
C47A C 0.0155(9) -0.1553(6) 0.2053(7)
H46A H 0.0300 -0.1619 0.1726
H47A H -0.0104 -0.1253 0.2031
C48A C 0.0725(12) -0.1214(13) 0.5553(11)
H48A H 0.0455 -0.1503 0.5663
H49A H 0.0671 -0.1447 0.5149
H50A H 0.0586 -0.0829 0.5579
C49A C 0.1937(12) -0.0562(12) 0.5881(12)
H51A H 0.1782 -0.0617 0.5465
H52A H 0.2336 -0.0693 0.5976
C50A C -0.0291(9) -0.2194(7) 0.1946(10)
H53A H -0.0353 -0.2136 0.2315
H54A H -0.0039 -0.2501 0.1908
C51A C -0.0921(12) -0.2530(12) 0.1485(11)
H55A H -0.1113 -0.2939 0.1512
H56A H -0.0885 -0.2627 0.1106
H57A H -0.1202 -0.2258 0.1516
C52A C -0.229(2) -0.139(2) 0.1462(12)
H58A H -0.2625 -0.1726 0.1465
H59A H -0.2109 -0.1590 0.1182
H60A H -0.2478 -0.1077 0.1343
Mg3A Mg 0.52081(9) 0.20524(13) 0.55589(9)
O17A O 0.5458(4) 0.1158(3) 0.5514(3)
O18A O 0.5056(4) 0.2952(4) 0.5589(4)
C53A C 0.5913(12) 0.0150(7) 0.5334(11)
H61A H 0.6185 -0.0132 0.5370
H62A H 0.5455 -0.0100 0.5219
H63A H 0.5943 0.0314 0.5033
C54A C 0.5852(8) 0.1117(8) 0.5937(10)
N1A N 0.6123(7) 0.0651(7) 0.5848(10)
C55A C 0.6556(14) 0.0565(13) 0.6479(12)
H64A H 0.6741 0.0213 0.6379
H65A H 0.6912 0.0974 0.6751
H66A H 0.6262 0.0458 0.6666
Mg4A Mg 0.13009(9) 0.40941(9) 0.39818(8)
O19A O 0.0324(2) 0.4012(2) 0.38739(18)
O20A O 0.2318(3) 0.4209(4) 0.4127(3)
N2A N -0.0620(3) 0.4175(4) 0.3437(4)
C56A C 0.0017(3) 0.4302(5) 0.3611(4)
C57A C -0.0957(5) 0.4489(8) 0.3101(6)
H67A H -0.1426 0.4334 0.3013
H68A H -0.0896 0.4387 0.2733
H69A H -0.0781 0.4962 0.3328
C58A C -0.1019(5) 0.3633(7) 0.3461(9)
H70A H -0.1477 0.3621 0.3314
H71A H -0.0876 0.3671 0.3869
H72A H -0.0982 0.3231 0.3218
Mg5A Mg 0.47376(8) 0.33298(9) 0.70954(8)
O21A O 0.4516(3) 0.2992(3) 0.7736(2)
O22A O 0.4945(4) 0.3716(4) 0.6496(3)
Mg6A Mg 0.17676(8) 0.27049(9) 0.24418(8)
O23A O 0.1004(2) 0.2037(3) 0.1612(2)
O24A O 0.2559(3) 0.3348(3) 0.3249(3)
O25A O 0.68136(16) 0.49505(17) 0.27256(16)
O26A O 0.36889(18) 0.14157(18) 0.23126(17)
O27A O 0.76460(18) 0.32605(18) 0.43668(17)
O28A O 0.76581(18) 0.47780(17) 0.34915(16)
O29A O 0.45532(16) 0.39194(18) 0.15854(16)
O30A O 0.37005(18) 0.29489(19) 0.14488(16)
O31A O 0.45248(17) 0.1253(2) 0.30749(17)
O32A O 0.55824(17) 0.49755(19) 0.23368(18)
O33A O 0.67851(17) 0.2320(2) 0.42564(17)
O34A O 0.32206(18) 0.2312(2) 0.20196(18)
O35A O 0.55387(17) 0.1851(3) 0.41238(18)
O36A O 0.7925(3) 0.44856(19) 0.44400(18)
C59A C 0.7539(2) 0.3347(3) 0.3859(2)
C60A C 0.3934(2) 0.1671(3) 0.1989(2)
C61A C 0.6334(2) 0.4386(3) 0.2310(2)
C62A C 0.3949(3) 0.2481(3) 0.1548(2)
C63A C 0.7537(2) 0.4129(2) 0.3401(2)
C64A C 0.4426(3) 0.2304(3) 0.1362(2)
C65A C 0.7303(2) 0.2835(3) 0.3311(2)
C66A C 0.5691(2) 0.4424(3) 0.2126(2)
C67A C 0.4648(2) 0.1825(2) 0.1501(2)
H73A H 0.4973 0.1709 0.1375
C68A C 0.5914(2) 0.3267(3) 0.1667(2)
H74A H 0.5993 0.2872 0.1504
C69A C 0.4427(3) 0.1506(2) 0.1810(2)
C70A C 0.6448(2) 0.3805(3) 0.2074(2)
C71A C 0.7183(2) 0.2991(2) 0.2815(2)
H75A H 0.7014 0.2645 0.2438
C72A C 0.5157(2) 0.3849(3) 0.1713(2)
C73A C 0.5146(3) 0.1441(3) 0.3086(3)
C74A C 0.3691(3) 0.2158(3) 0.1850(2)
C75A C 0.6313(3) 0.1990(3) 0.3697(2)
C76A C 0.5267(2) 0.3264(3) 0.1476(2)
C77A C 0.7300(2) 0.3625(3) 0.2847(2)
C78A C 0.7154(2) 0.3787(3) 0.2299(2)
H76A H 0.7455 0.4236 0.2424
C79A C 0.5912(3) 0.1532(3) 0.2646(3)
H77A H 0.5999 0.1441 0.2302
C80A C 0.6439(3) 0.1865(2) 0.3193(2)
C81A C 0.5258(3) 0.1323(2) 0.2578(3)
C82A C 0.7660(3) 0.3990(3) 0.3904(2)
C83A C 0.5656(2) 0.1751(3) 0.3642(2)
C84A C 0.4683(2) 0.0992(2) 0.1976(2)
H78A H 0.4324 0.0706 0.2020
C85A C 0.4686(2) 0.2667(3) 0.1033(2)
H79A H 0.4333 0.2827 0.0840
C86A C 0.7321(3) 0.1689(3) 0.2807(3)
H80A H 0.7192 0.1239 0.2789
H81A H 0.7066 0.1677 0.2416
C87A C 0.7147(2) 0.2130(3) 0.3266(2)
H82A H 0.7434 0.2148 0.3655
C88A C 0.7289(3) 0.3324(3) 0.1815(3)
H83A H 0.6964 0.2884 0.1656
H84A H 0.7729 0.3292 0.1995
C89A C 0.4836(3) 0.0548(3) 0.1490(3)
H85A H 0.5014 0.0234 0.1627
H86A H 0.5179 0.0820 0.1425
C90A C 0.4834(3) 0.2229(3) 0.0540(2)
H87A H 0.5121 0.1997 0.0701
H88A H 0.5067 0.2502 0.0388
C91A C 0.4247(4) 0.0176(3) 0.0917(3)
H89A H 0.3884 -0.0054 0.0989
H90A H 0.4103 0.0486 0.0752
C92A C 0.4391(4) -0.0322(4) 0.0468(3)
H91A H 0.4431 -0.0685 0.0596
H92A H 0.4823 -0.0111 0.0482
C93A C 0.7260(4) 0.3523(4) 0.1318(3)
H93A H 0.6827 0.3575 0.1152
H94A H 0.7597 0.3955 0.1477
C94A C 0.8063(4) 0.1916(4) 0.2938(4)
H95A H 0.8198 0.2370 0.2967
H96A H 0.8320 0.1909 0.3320
C95A C 0.4194(4) 0.1731(5) 0.0037(3)
H97A H 0.3986 0.1425 0.0178
H98A H 0.3886 0.1960 -0.0093
C96A C 0.3908(7) -0.0606(5) -0.0153(4)
H99A H 0.3472 -0.0809 -0.0169
H100A H 0.3879 -0.0248 -0.0289
C97A C 0.4067(5) -0.1127(5) -0.0586(5)
H101A H 0.4061 -0.1504 -0.0473
H102A H 0.4514 -0.0937 -0.0556
C98A C 0.4335(6) 0.1348(6) -0.0482(4)
H103A H 0.4566 0.1656 -0.0608
H104A H 0.4621 0.1098 -0.0358
C99A C 0.3611(7) -0.1345(6) -0.1178(5)
H105A H 0.3727 -0.1671 -0.1435
H106A H 0.3622 -0.0974 -0.1294
H107A H 0.3169 -0.1541 -0.1211
C100A C 0.3683(7) 0.0874(7) -0.1004(5)
H108A H 0.3404 0.1128 -0.1133
H109A H 0.3446 0.0580 -0.0871
C101A C 0.8215(7) 0.1452(6) 0.2431(10)
H110A H 0.7860 0.1344 0.2046
H111A H 0.8210 0.1040 0.2485
C102A C 0.3802(10) 0.0462(11) -0.1530(7)
H112A H 0.3938 0.0109 -0.1432
H113A H 0.4186 0.0745 -0.1540
C103A C 0.7365(13) 0.3057(13) 0.0814(10)
H114A H 0.6947 0.2692 0.0566
H115A H 0.7443 0.3294 0.0569
C104A C 0.8868(12) 0.1748(12) 0.2418(12)
H116A H 0.9212 0.1867 0.2813
H117A H 0.8944 0.1396 0.2139
C105A C 0.3313(13) 0.0163(12) -0.2114(10)
H118A H 0.3488 -0.0074 -0.2378
H119A H 0.3181 0.0499 -0.2237
H120A H 0.2931 -0.0142 -0.2129
C106A C 0.8995(12) 0.2346(13) 0.2257(12)
H121A H 0.8864 0.2682 0.2496
H122A H 0.8702 0.2212 0.1840
C107A C 0.9688(9) 0.2660(8) 0.2340(8)
H123A H 0.9706 0.3032 0.2224
H124A H 0.9822 0.2340 0.2095
H125A H 0.9985 0.2812 0.2754
C108A C 0.8621(12) 0.3243(13) 0.1025(11)
H126A H 0.8639 0.3704 0.1170
H127A H 0.9014 0.3197 0.1292
C109A C 0.7932(12) 0.2748(13) 0.0962(12)
H128A H 0.8001 0.2690 0.1335
H129A H 0.7808 0.2315 0.0645
C110A C 0.8557(13) 0.2966(13) 0.0307(11)
H130A H 0.8160 0.3010 0.0053
H131A H 0.8531 0.2507 0.0174
Mg7A Mg 0.29721(9) 0.30017(9) 0.17416(8)
O37A O 0.2282(2) 0.2319(2) 0.0891(2)
O38A O 0.3660(3) 0.3735(4) 0.2600(2)
N3A N 0.2122(13) 0.1592(12) -0.0057(11)
C111A C 0.1520(14) 0.1710(13) -0.0256(12)
H132A H 0.1531 0.2101 0.0044
H133A H 0.1161 0.1335 -0.0327
H134A H 0.1450 0.1775 -0.0622
C112A C 0.2453(15) 0.1952(15) 0.0603(14)
C113A C 0.2321(13) 0.1059(13) -0.0363(12)
H135A H 0.2767 0.1105 -0.0116
H136A H 0.2307 0.1079 -0.0736
H137A H 0.2019 0.0639 -0.0441
Mg8A Mg 0.64357(8) 0.57022(8) 0.29064(8)
O39A O 0.6620(3) 0.5927(3) 0.2216(2)
O40A O 0.6262(4) 0.5492(4) 0.3600(3)
N4A N 0.7226(7) 0.6618(6) 0.1958(6)
C114A C 0.6997(7) 0.6480(8) 0.2308(5)
C115A C 0.7032(14) 0.6214(13) 0.1413(12)
H138A H 0.7267 0.6413 0.1220
H139A H 0.7126 0.5810 0.1407
C116A C 0.7672(13) 0.7296(13) 0.2162(12)
H140A H 0.7810 0.7336 0.1852
H141A H 0.7439 0.7607 0.2252
H142A H 0.8058 0.7391 0.2516
H143A H 0.6560 0.6114 0.1204
Mg9A Mg 0.46178(8) 0.48758(9) 0.19511(8)
O41A O 0.4733(3) 0.4992(3) 0.1198(2)
O42A O 0.4543(4) 0.4830(4) 0.2729(3)
Mg10A Mg 0.63674(10) 0.23418(17) 0.48450(10)
O43A O 0.6534(4) 0.1382(3) 0.4823(4)
O44A O 0.6215(5) 0.3260(6) 0.4903(6)
Mg11A Mg 0.7955(2) 0.53440(10) 0.43585(9)
O45A O 0.7067(5) 0.5291(6) 0.4384(4)
O46A O 0.9073(4) 0.5484(6) 0.4383(5)
Mg12A Mg 0.8016(2) 0.41257(12) 0.50625(10)
O47A O 0.9065(3) 0.4105(3) 0.5139(3)
O48A O 0.7023(7) 0.4159(7) 0.5013(7)
O49A O 0.86872(17) 0.66200(18) 0.76338(16)
O50A O 0.63865(16) 0.53124(18) 0.84422(16)
O51A O 0.81323(18) 0.36850(18) 0.56385(17)
O52A O 0.55623(17) 0.30612(19) 0.72500(17)
O53A O 0.58063(17) 0.2424(2) 0.64334(17)
O54A O 0.72604(16) 0.2772(2) 0.55391(17)
O55A O 0.77457(18) 0.68939(19) 0.79716(17)
O56A O 0.8923(2) 0.5912(2) 0.68434(17)
O57A O 0.72236(17) 0.62708(19) 0.85212(16)
O58A O 0.53793(17) 0.41998(19) 0.77142(19)
O59A O 0.8420(2) 0.4930(2) 0.57838(17)
O60A O 0.60540(17) 0.2365(2) 0.54877(18)
C117A C 0.8494(2) 0.6306(3) 0.7944(2)
C118A C 0.8518(2) 0.5568(3) 0.8427(2)
H144A H 0.8711 0.5271 0.8546
C119A C 0.6741(3) 0.3546(3) 0.7865(2)
C120A C 0.8004(2) 0.5679(3) 0.8581(2)
C121A C 0.6448(2) 0.2626(3) 0.6513(2)
C122A C 0.8598(2) 0.3990(3) 0.6702(3)
C123A C 0.7988(2) 0.6450(3) 0.8108(2)
C124A C 0.7737(3) 0.3024(3) 0.6586(3)
C125A C 0.8567(3) 0.4790(3) 0.6264(2)
C126A C 0.8766(2) 0.5857(3) 0.8114(2)
C127A C 0.8436(2) 0.4141(3) 0.6208(3)
C128A C 0.6105(3) 0.3582(3) 0.7667(2)
C129A C 0.6525(2) 0.4748(3) 0.8276(2)
C130A C 0.7728(2) 0.6120(3) 0.8406(2)
C131A C 0.7613(2) 0.3047(3) 0.7079(3)
H145A H 0.7975 0.3206 0.7448
C132A C 0.7173(3) 0.4724(3) 0.8490(2)
C133A C 0.6980(3) 0.2847(3) 0.7056(2)
C134A C 0.8842(2) 0.5294(3) 0.6839(2)
C135A C 0.9023(2) 0.5164(3) 0.7332(3)
C136A C 0.5996(3) 0.4173(3) 0.7885(2)
C137A C 0.8886(2) 0.4501(3) 0.7255(2)
H146A H 0.8994 0.4400 0.7594
C138A C 0.7207(3) 0.2806(3) 0.6052(2)
C139A C 0.7729(2) 0.5342(3) 0.8920(2)
H147A H 0.7537 0.5639 0.9134
C140A C 0.7255(2) 0.4113(3) 0.8276(2)
H148A H 0.7684 0.4086 0.8418
C141A C 0.6556(3) 0.2590(3) 0.6004(2)
C142A C 0.8430(2) 0.3274(3) 0.6620(3)
H149A H 0.8422 0.3022 0.6228
C143A C 0.9317(2) 0.5713(3) 0.7936(2)
H150A H 0.9542 0.6110 0.7897
C144A C 0.6852(3) 0.2901(3) 0.7612(2)
H151A H 0.6430 0.2550 0.7481
C145A C 0.8268(3) 0.5244(4) 0.9389(3)
H152A H 0.8062 0.5011 0.9584
H153A H 0.8479 0.4964 0.9191
C146A C 0.9845(3) 0.5594(4) 0.8401(3)
H154A H 0.9633 0.5236 0.8489
H155A H 1.0159 0.5458 0.8240
C147A C 0.8950(3) 0.3148(3) 0.7079(3)
H156A H 0.8974 0.3396 0.7474
H157A H 0.8805 0.2679 0.7004
C148A C 0.7376(3) 0.2769(4) 0.8057(3)
H158A H 0.7808 0.3086 0.8167
H159A H 0.7289 0.2852 0.8416
C149A C 0.8788(3) 0.5869(4) 0.9850(3)
H160A H 0.8585 0.6131 1.0075
H161A H 0.8966 0.6122 0.9654
C150A C 0.9633(4) 0.3334(5) 0.7086(6)
H162A H 0.9808 0.3817 0.7257
H163A H 0.9908 0.3188 0.7366
C151A C 0.9358(6) 0.5760(6) 1.0282(5)
H164A H 0.9185 0.5547 1.0507
H165A H 0.9526 0.5458 1.0052
C152A C 1.0718(5) 0.5864(6) 1.1089(6)
H166A H 1.1022 0.5883 1.1462
H167A H 1.0401 0.5423 1.0859
H168A H 1.0965 0.5975 1.0866
C153A C 1.0220(5) 0.6212(7) 0.8973(5)
H169A H 1.0393 0.6573 0.8869
H170A H 0.9901 0.6327 0.9136
C154A C 0.9902(5) 0.6355(7) 1.0697(6)
H171A H 1.0148 0.6494 1.0479
H172A H 0.9714 0.6700 1.0831
C155A C 0.7422(5) 0.2102(6) 0.7855(5)
H173A H 0.7529 0.2024 0.7507
H174A H 0.6987 0.1783 0.7731
C156A C 1.0365(12) 0.6335(12) 1.1211(10)
H175A H 1.0130 0.6226 1.1447
H176A H 1.0692 0.6777 1.1454
C157A C 1.1207(12) 0.5834(13) 0.9274(11)
H177A H 1.1352 0.6015 0.9018
H178A H 1.0928 0.5376 0.9022
C158A C 1.1812(6) 0.5808(9) 0.9707(6)
H179A H 1.2012 0.6202 1.0079
H180A H 1.2142 0.5753 0.9541
C159A C 1.0997(11) 0.3955(12) 0.7306(12)
H181A H 1.0755 0.4267 0.7272
H182A H 1.1102 0.3951 0.7703
C160A C 1.0760(12) 0.6185(13) 0.9436(11)
H183A H 1.0573 0.5982 0.9659
C161A C 0.9750(12) 0.3111(13) 0.6550(10)
H184A H 0.9627 0.3363 0.6308
H185A H 0.9511 0.2640 0.6310
C162A C 0.7922(9) 0.1983(8) 0.8310(12)
H186A H 0.8314 0.2376 0.8490
H187A H 0.7752 0.1998 0.8617
C163A C 1.0554(11) 0.3262(12) 0.6835(12)
H188A H 1.0639 0.2944 0.7012
H189A H 1.0698 0.3173 0.6507
C164A C 1.1638(6) 0.4184(8) 0.7236(10)
H190A H 1.1903 0.4621 0.7539
H191A H 1.1883 0.3880 0.7277
H192A H 1.1536 0.4196 0.6846
C165A C 1.1485(13) 0.5137(12) 0.9802(12)
H193A H 1.1832 0.5057 1.0081
H194A H 1.1153 0.5205 0.9956
H195A H 1.1282 0.4760 0.9424
C166A C 0.8169(12) 0.1446(12) 0.8238(11)
H196A H 0.8373 0.1393 0.7951
H197A H 0.7834 0.1030 0.8135
C167A C 0.8742(12) 0.1764(13) 0.8959(11)
H198A H 0.8656 0.2120 0.9224
H199A H 0.8788 0.1427 0.9120
C168A C 0.9345(12) 0.2022(13) 0.8807(11)
H200A H 0.9748 0.2234 0.9168
H201A H 0.9394 0.1653 0.8529
H202A H 0.9264 0.2337 0.8631
H203? H 0.1034 0.6640 0.9709
H204? H 0.1058 0.6775 0.9711
H205? H 0.4463 0.9814 0.4955
H206? H 0.3733 0.9845 0.4804
H207? H 0.4221 1.0259 0.4619
H208? H 0.3298 0.4188 0.8666
H209? H 0.2591 0.3889 0.8650
H210? H 0.3158 0.3585 0.8853
loop_
_geom_bond_atom_site_label_1
_geom_bond_atom_site_label_2
_geom_bond_site_symmetry_1
_geom_bond_site_symmetry_2
Mg1 O1 1_555 1_555
Mg2 O3 1_555 1_555
O2 Mg1 1_555 1_555
O4 Mg2 1_555 1_555
O5 C5 1_555 1_555
O6 C9 1_555 1_555
O7 C6 1_555 1_555
O8 C1 1_555 1_555
O9 C2 1_555 1_555
O10 C7 1_555 1_555
O11 C12 1_555 1_555
O12 Mg2 1_555 1_555
O13 Mg1 1_555 1_555
O14 C4 1_555 1_555
O15 Mg1 1_555 1_555
O16 Mg2 1_555 1_555
C1 C6 1_555 1_555
C2 C3 1_555 1_555
C3 C16 1_555 1_555
C4 C5 1_555 1_555
C5 C13 1_555 1_555
C6 C15 1_555 1_555
C7 C4 1_555 1_555
C8 C7 1_555 1_555
C9 C1 1_555 1_555
C10 O13 1_555 1_555
C11 C14 1_555 1_555
C12 C19 1_555 1_555
C13 C17 1_555 1_555
C14 O12 1_555 1_555
C15 C18 1_555 1_555
C16 H1 1_555 1_555
C17 C8 1_555 1_555
H2 C17 1_555 1_555
C18 C13 1_555 1_555
H3 C18 1_555 1_555
C19 O16 1_555 1_555
C20 C3 1_555 1_555
H4 C20 1_555 1_555
C21 C11 1_555 1_555
H5 C21 1_555 1_555
C22 C11 1_555 1_555
H6 C22 1_555 1_555
C23 O15 1_555 1_555
C24 C10 1_555 1_555
C25 C12 1_555 1_555
C26 C9 1_555 1_555
C27 C15 1_555 1_555
H7 C27 1_555 1_555
C28 C25 1_555 1_555
H8 C28 1_555 1_555
C29 C18 1_555 1_555
H9 C29 1_555 1_555
H10 C29 1_555 1_555
C30 C20 1_555 1_555
H11 C30 1_555 1_555
H12 C30 1_555 1_555
C31 C22 1_555 1_555
H13 C31 1_555 1_555
H14 C31 1_555 1_555
C32 C28 1_555 1_555
H15 C32 1_555 1_555
H16 C32 1_555 1_555
C33 C30 1_555 1_555
H17 C33 1_555 1_555
H18 C33 1_555 1_555
C34 C29 1_555 1_555
H19 C34 1_555 1_555
H20 C34 1_555 1_555
C35 C33 1_555 1_555
H21 C35 1_555 1_555
H22 C35 1_555 1_555
C36 C31 1_555 1_555
H23 C36 1_555 1_555
H24 C36 1_555 1_555
C37 H25 1_555 1_555
H26 C37 1_555 1_555
H27 C37 1_555 1_555
C38 H28 1_555 1_555
H29 C38 1_555 1_555
C39 C32 1_555 1_555
H30 C39 1_555 1_555
H31 C39 1_555 1_555
C40 C37 1_555 1_555
H32 C40 1_555 1_555
H33 C40 1_555 1_555
C41 C35 1_555 1_555
H34 C41 1_555 1_555
H35 C41 1_555 1_555
C42 C34 1_555 1_555
H36 C42 1_555 1_555
H37 C42 1_555 1_555
C43 C36 1_555 1_555
H38 C43 1_555 1_555
H39 C43 1_555 1_555
C44 H40 1_555 1_555
H41 C44 1_555 1_555
C45 C39 1_555 1_555
H42 C45 1_555 1_555
H43 C45 1_555 1_555
C46 C41 1_555 1_555
H44 C46 1_555 1_555
H45 C46 1_555 1_555
C47 C43 1_555 1_555
H46 C47 1_555 1_555
H47 C47 1_555 1_555
C48 C44 1_555 1_555
H48 C48 1_555 1_555
H49 C48 1_555 1_555
H50 C48 1_555 1_555
C49 C44 1_555 1_555
H51 C49 1_555 1_555
H52 C49 1_555 1_555
C50 C47 1_555 1_555
H53 C50 1_555 1_555
H54 C50 1_555 1_555
C51 C50 1_555 1_555
H55 C51 1_555 1_555
H56 C51 1_555 1_555
H57 C51 1_555 1_555
C52 C46 1_555 1_555
H58 C52 1_555 1_555
H59 C52 1_555 1_555
H60 C52 1_555 1_555
Mg3 O11 1_555 1_555
O17 Mg3 1_555 1_555
O18 Mg3 1_555 1_555
C53 H61 1_555 1_555
H62 C53 1_555 1_555
H63 C53 1_555 1_555
C54 O17 1_555 1_555
N1 C53 1_555 1_555
C55 N1 1_555 1_555
H64 C55 1_555 1_555
H65 C55 1_555 1_555
H66 C55 1_555 1_555
Mg4 O10 1_555 1_555
O19 Mg4 1_555 1_555
O20 Mg4 1_555 1_555
N2 C56 1_555 1_555
C56 O19 1_555 1_555
C57 N2 1_555 1_555
H67 C57 1_555 1_555
H68 C57 1_555 1_555
H69 C57 1_555 1_555
C58 N2 1_555 1_555
H70 C58 1_555 1_555
H71 C58 1_555 1_555
H72 C58 1_555 1_555
Mg5 O6 1_555 1_555
O21 Mg5 1_555 1_555
O22 Mg5 1_555 1_555
Mg6 O9 1_555 1_555
O23 Mg6 1_555 1_555
O24 Mg6 1_555 1_555
O25 C61 1_555 1_555
O26 Mg1 1_555 1_555
O27 C59 1_555 1_555
O28 C63 1_555 1_555
O29 C72 1_555 1_555
O30 C62 1_555 1_555
O31 Mg2 1_555 1_555
O32 C66 1_555 1_555
O33 C75 1_555 1_555
O34 Mg1 1_555 1_555
O35 Mg2 1_555 1_555
O36 C82 1_555 1_555
C59 C65 1_555 1_555
C60 O26 1_555 1_555
C61 C66 1_555 1_555
C62 C64 1_555 1_555
C63 C77 1_555 1_555
C64 C67 1_555 1_555
C65 C71 1_555 1_555
C66 C72 1_555 1_555
C67 H73 1_555 1_555
C68 H74 1_555 1_555
C69 C60 1_555 1_555
C70 C61 1_555 1_555
C71 H75 1_555 1_555
C72 C76 1_555 1_555
C73 O31 1_555 1_555
C74 O34 1_555 1_555
C75 C80 1_555 1_555
C76 C68 1_555 1_555
C77 C71 1_555 1_555
C78 C70 1_555 1_555
H76 C78 1_555 1_555
C79 H77 1_555 1_555
C80 C79 1_555 1_555
C81 C73 1_555 1_555
C82 C59 1_555 1_555
C83 O35 1_555 1_555
C84 C69 1_555 1_555
H78 C84 1_555 1_555
C85 C64 1_555 1_555
H79 C85 1_555 1_555
C86 H80 1_555 1_555
H81 C86 1_555 1_555
C87 C65 1_555 1_555
H82 C87 1_555 1_555
C88 C78 1_555 1_555
H83 C88 1_555 1_555
H84 C88 1_555 1_555
C89 C84 1_555 1_555
H85 C89 1_555 1_555
H86 C89 1_555 1_555
C90 C85 1_555 1_555
H87 C90 1_555 1_555
H88 C90 1_555 1_555
C91 C89 1_555 1_555
H89 C91 1_555 1_555
H90 C91 1_555 1_555
C92 C91 1_555 1_555
H91 C92 1_555 1_555
H92 C92 1_555 1_555
C93 C88 1_555 1_555
H93 C93 1_555 1_555
H94 C93 1_555 1_555
C94 C86 1_555 1_555
H95 C94 1_555 1_555
H96 C94 1_555 1_555
C95 C90 1_555 1_555
H97 C95 1_555 1_555
H98 C95 1_555 1_555
C96 C92 1_555 1_555
H99 C96 1_555 1_555
H100 C96 1_555 1_555
C97 C96 1_555 1_555
H101 C97 1_555 1_555
H102 C97 1_555 1_555
C98 C95 1_555 1_555
H103 C98 1_555 1_555
H104 C98 1_555 1_555
C99 C97 1_555 1_555
H105 C99 1_555 1_555
H106 C99 1_555 1_555
H107 C99 1_555 1_555
C100 C98 1_555 1_555
H108 C100 1_555 1_555
H109 C100 1_555 1_555
C101 C94 1_555 1_555
H110 C101 1_555 1_555
H111 C101 1_555 1_555
C102 C100 1_555 1_555
H112 C102 1_555 1_555
H113 C102 1_555 1_555
C103 C93 1_555 1_555
H114 C103 1_555 1_555
H115 C103 1_555 1_555
C104 C101 1_555 1_555
H116 C104 1_555 1_555
H117 C104 1_555 1_555
C105 C102 1_555 1_555
H118 C105 1_555 1_555
H119 C105 1_555 1_555
H120 C105 1_555 1_555
C106 C104 1_555 1_555
H121 C106 1_555 1_555
H122 C106 1_555 1_555
C107 C106 1_555 1_555
H123 C107 1_555 1_555
H124 C107 1_555 1_555
H125 C107 1_555 1_555
C108 H126 1_555 1_555
H127 C108 1_555 1_555
C109 C103 1_555 1_555
H128 C109 1_555 1_555
H129 C109 1_555 1_555
C110 C108 1_555 1_555
H130 C110 1_555 1_555
H131 C110 1_555 1_555
Mg7 O30 1_555 1_555
O37 Mg7 1_555 1_555
O38 Mg7 1_555 1_555
N3 C111 1_555 1_555
C111 H132 1_555 1_555
H133 C111 1_555 1_555
H134 C111 1_555 1_555
C112 O37 1_555 1_555
C113 N3 1_555 1_555
H135 C113 1_555 1_555
H136 C113 1_555 1_555
H137 C113 1_555 1_555
Mg8 O25 1_555 1_555
O39 Mg8 1_555 1_555
O40 Mg8 1_555 1_555
N4 C114 1_555 1_555
C114 O39 1_555 1_555
C115 N4 1_555 1_555
H138 C115 1_555 1_555
H139 C115 1_555 1_555
C116 N4 1_555 1_555
H140 C116 1_555 1_555
H141 C116 1_555 1_555
H142 C116 1_555 1_555
H143 C115 1_555 1_555
Mg9 O29 1_555 1_555
O41 Mg9 1_555 1_555
O42 Mg9 1_555 1_555
Mg10 O33 1_555 1_555
O43 Mg10 1_555 1_555
O44 Mg10 1_555 1_555
Mg11 O28 1_555 1_555
O45 Mg11 1_555 1_555
O46 Mg11 1_555 1_555
Mg12 O27 1_555 1_555
O47 Mg12 1_555 1_555
O48 Mg12 1_555 1_555
O49 C117 1_555 1_555
O50 C129 1_555 1_555
O51 Mg12 1_555 1_555
O52 Mg5 1_555 1_555
O53 Mg3 1_555 1_555
O54 Mg10 1_555 1_555
O55 C123 1_555 1_555
O56 C134 1_555 1_555
O57 C130 1_555 1_555
O58 Mg5 1_555 1_555
O59 Mg12 1_555 1_555
O60 Mg3 1_555 1_555
C117 C123 1_555 1_555
C118 H144 1_555 1_555
C119 C128 1_555 1_555
C120 C118 1_555 1_555
C121 O53 1_555 1_555
C122 C127 1_555 1_555
C123 C130 1_555 1_555
C124 C131 1_555 1_555
C125 O59 1_555 1_555
C126 C117 1_555 1_555
C127 O51 1_555 1_555
C128 O52 1_555 1_555
C129 C132 1_555 1_555
C130 C120 1_555 1_555
C131 H145 1_555 1_555
C132 C139 1_555 1_555
C133 C121 1_555 1_555
C134 C125 1_555 1_555
C135 C134 1_555 1_555
C136 O58 1_555 1_555
C137 C122 1_555 1_555
H146 C137 1_555 1_555
C138 O54 1_555 1_555
C139 C120 1_555 1_555
H147 C139 1_555 1_555
C140 C119 1_555 1_555
H148 C140 1_555 1_555
C141 O60 1_555 1_555
C142 C122 1_555 1_555
H149 C142 1_555 1_555
C143 C126 1_555 1_555
H150 C143 1_555 1_555
C144 C119 1_555 1_555
H151 C144 1_555 1_555
C145 C139 1_555 1_555
H152 C145 1_555 1_555
H153 C145 1_555 1_555
C146 C143 1_555 1_555
H154 C146 1_555 1_555
H155 C146 1_555 1_555
C147 C142 1_555 1_555
H156 C147 1_555 1_555
H157 C147 1_555 1_555
C148 C144 1_555 1_555
H158 C148 1_555 1_555
H159 C148 1_555 1_555
C149 C145 1_555 1_555
H160 C149 1_555 1_555
H161 C149 1_555 1_555
C150 C147 1_555 1_555
H162 C150 1_555 1_555
H163 C150 1_555 1_555
C151 C149 1_555 1_555
H164 C151 1_555 1_555
H165 C151 1_555 1_555
C152 H166 1_555 1_555
H167 C152 1_555 1_555
H168 C152 1_555 1_555
C153 C146 1_555 1_555
H169 C153 1_555 1_555
H170 C153 1_555 1_555
C154 C151 1_555 1_555
H171 C154 1_555 1_555
H172 C154 1_555 1_555
C155 C148 1_555 1_555
H173 C155 1_555 1_555
H174 C155 1_555 1_555
C156 C152 1_555 1_555
H175 C156 1_555 1_555
H176 C156 1_555 1_555
C157 H177 1_555 1_555
H178 C157 1_555 1_555
C158 C157 1_555 1_555
H179 C158 1_555 1_555
H180 C158 1_555 1_555
C159 H181 1_555 1_555
H182 C159 1_555 1_555
C160 C153 1_555 1_555
H183 C160 1_555 1_555
C161 C150 1_555 1_555
H184 C161 1_555 1_555
H185 C161 1_555 1_555
C162 C155 1_555 1_555
H186 C162 1_555 1_555
H187 C162 1_555 1_555
C163 C159 1_555 1_555
H188 C163 1_555 1_555
H189 C163 1_555 1_555
C164 C159 1_555 1_555
H190 C164 1_555 1_555
H191 C164 1_555 1_555
H192 C164 1_555 1_555
C165 C158 1_555 1_555
H193 C165 1_555 1_555
H194 C165 1_555 1_555
H195 C165 1_555 1_555
C166 C162 1_555 1_555
H196 C166 1_555 1_555
H197 C166 1_555 1_555
C167 C166 1_555 1_555
H198 C167 1_555 1_555
H199 C167 1_555 1_555
C168 C167 1_555 1_555
H200 C168 1_555 1_555
H201 C168 1_555 1_555
H202 C168 1_555 1_555
Mg1A O1A 1_555 1_555
Mg2A O3A 1_555 1_555
O2A Mg1A 1_555 1_555
O4A Mg2A 1_555 1_555
O5A Mg11 1_555 1_555
O6A C9A 1_555 1_555
O7A Mg8 1_555 1_555
O8A Mg8 1_555 1_555
O9A C2A 1_555 1_555
O10A C7A 1_555 1_555
O11A C12A 1_555 1_555
O12A Mg2A 1_555 1_555
O13A Mg1A 1_555 1_555
O14A Mg11 1_555 1_555
O15A Mg1A 1_555 1_555
O16A Mg2A 1_555 1_555
C1A O8A 1_555 1_555
C2A C3A 1_555 1_555
C3A C16A 1_555 1_555
C4A O14A 1_555 1_555
C5A O5A 1_555 1_555
C6A O7A 1_555 1_555
C7A C4A 1_555 1_555
C8A C7A 1_555 1_555
C9A C1A 1_555 1_555
C10A O13A 1_555 1_555
C11A C14A 1_555 1_555
C12A C19A 1_555 1_555
C13A C5A 1_555 1_555
C14A O12A 1_555 1_555
C15A C6A 1_555 1_555
C16A H1A 1_555 1_555
C17A C8A 1_555 1_555
H2A C17A 1_555 1_555
C18A C13A 1_555 1_555
H3A C18A 1_555 1_555
C19A O16A 1_555 1_555
C20A C3A 1_555 1_555
H4A C20A 1_555 1_555
C21A C11A 1_555 1_555
H5A C21A 1_555 1_555
C22A C11A 1_555 1_555
H6A C22A 1_555 1_555
C23A O15A 1_555 1_555
C24A C10A 1_555 1_555
C25A C12A 1_555 1_555
C26A C9A 1_555 1_555
C27A C15A 1_555 1_555
H7A C27A 1_555 1_555
C28A C25A 1_555 1_555
H8A C28A 1_555 1_555
C29A C18A 1_555 1_555
H9A C29A 1_555 1_555
H10A C29A 1_555 1_555
C30A C20A 1_555 1_555
H11A C30A 1_555 1_555
H12A C30A 1_555 1_555
C31A C22A 1_555 1_555
H13A C31A 1_555 1_555
H14A C31A 1_555 1_555
C32A C28A 1_555 1_555
H15A C32A 1_555 1_555
H16A C32A 1_555 1_555
C33A C30A 1_555 1_555
H17A C33A 1_555 1_555
H18A C33A 1_555 1_555
C34A C29A 1_555 1_555
H19A C34A 1_555 1_555
H20A C34A 1_555 1_555
C35A C33A 1_555 1_555
H21A C35A 1_555 1_555
H22A C35A 1_555 1_555
C36A C31A 1_555 1_555
H23A C36A 1_555 1_555
H24A C36A 1_555 1_555
C37A H25A 1_555 1_555
H26A C37A 1_555 1_555
H27A C37A 1_555 1_555
C38A H28A 1_555 1_555
H29A C38A 1_555 1_555
C39A C32A 1_555 1_555
H30A C39A 1_555 1_555
H31A C39A 1_555 1_555
C40A C37A 1_555 1_555
H32A C40A 1_555 1_555
H33A C40A 1_555 1_555
C41A C35A 1_555 1_555
H34A C41A 1_555 1_555
H35A C41A 1_555 1_555
C42A C34A 1_555 1_555
H36A C42A 1_555 1_555
H37A C42A 1_555 1_555
C43A C36A 1_555 1_555
H38A C43A 1_555 1_555
H39A C43A 1_555 1_555
C44A H40A 1_555 1_555
H41A C44A 1_555 1_555
C45A C39A 1_555 1_555
H42A C45A 1_555 1_555
H43A C45A 1_555 1_555
C46A C41A 1_555 1_555
H44A C46A 1_555 1_555
H45A C46A 1_555 1_555
C47A C43A 1_555 1_555
H46A C47A 1_555 1_555
H47A C47A 1_555 1_555
C48A C44A 1_555 1_555
H48A C48A 1_555 1_555
H49A C48A 1_555 1_555
H50A C48A 1_555 1_555
C49A C44A 1_555 1_555
H51A C49A 1_555 1_555
H52A C49A 1_555 1_555
C50A C47A 1_555 1_555
H53A C50A 1_555 1_555
H54A C50A 1_555 1_555
C51A C50A 1_555 1_555
H55A C51A 1_555 1_555
H56A C51A 1_555 1_555
H57A C51A 1_555 1_555
C52A C46A 1_555 1_555
H58A C52A 1_555 1_555
H59A C52A 1_555 1_555
H60A C52A 1_555 1_555
Mg3A O11A 1_555 1_555
O17A Mg3A 1_555 1_555
O18A Mg3A 1_555 1_555
C53A H61A 1_555 1_555
H62A C53A 1_555 1_555
H63A C53A 1_555 1_555
C54A O17A 1_555 1_555
N1A C53A 1_555 1_555
C55A N1A 1_555 1_555
H64A C55A 1_555 1_555
H65A C55A 1_555 1_555
H66A C55A 1_555 1_555
Mg4A O56 1_555 1_555
O19A Mg4A 1_555 1_555
O20A Mg4A 1_555 1_555
N2A C56A 1_555 1_555
C56A O19A 1_555 1_555
C57A N2A 1_555 1_555
H67A C57A 1_555 1_555
H68A C57A 1_555 1_555
H69A C57A 1_555 1_555
C58A N2A 1_555 1_555
H70A C58A 1_555 1_555
H71A C58A 1_555 1_555
H72A C58A 1_555 1_555
Mg5A O6A 1_555 1_555
O21A Mg5A 1_555 1_555
O22A Mg5A 1_555 1_555
Mg6A O49 1_555 1_555
O23A Mg6A 1_555 1_555
O24A Mg6A 1_555 1_555
O25A C61A 1_555 1_555
O26A Mg1A 1_555 1_555
O27A C59A 1_555 1_555
O28A C63A 1_555 1_555
O29A C72A 1_555 1_555
O30A C62A 1_555 1_555
O31A Mg2A 1_555 1_555
O32A C66A 1_555 1_555
O33A C75A 1_555 1_555
O34A Mg1A 1_555 1_555
O35A Mg2A 1_555 1_555
O36A C82A 1_555 1_555
C59A C65A 1_555 1_555
C60A O26A 1_555 1_555
C61A C66A 1_555 1_555
C62A C64A 1_555 1_555
C63A C77A 1_555 1_555
C64A C67A 1_555 1_555
C65A C71A 1_555 1_555
C66A C72A 1_555 1_555
C67A H73A 1_555 1_555
C68A H74A 1_555 1_555
C69A C60A 1_555 1_555
C70A C61A 1_555 1_555
C71A H75A 1_555 1_555
C72A C76A 1_555 1_555
C73A O31A 1_555 1_555
C74A O34A 1_555 1_555
C75A C80A 1_555 1_555
C76A C68A 1_555 1_555
C77A C71A 1_555 1_555
C78A C70A 1_555 1_555
H76A C78A 1_555 1_555
C79A H77A 1_555 1_555
C80A C79A 1_555 1_555
C81A C73A 1_555 1_555
C82A C59A 1_555 1_555
C83A O35A 1_555 1_555
C84A C69A 1_555 1_555
H78A C84A 1_555 1_555
C85A C64A 1_555 1_555
H79A C85A 1_555 1_555
C86A H80A 1_555 1_555
H81A C86A 1_555 1_555
C87A C65A 1_555 1_555
H82A C87A 1_555 1_555
C88A C78A 1_555 1_555
H83A C88A 1_555 1_555
H84A C88A 1_555 1_555
C89A C84A 1_555 1_555
H85A C89A 1_555 1_555
H86A C89A 1_555 1_555
C90A C85A 1_555 1_555
H87A C90A 1_555 1_555
H88A C90A 1_555 1_555
C91A C89A 1_555 1_555
H89A C91A 1_555 1_555
H90A C91A 1_555 1_555
C92A C91A 1_555 1_555
H91A C92A 1_555 1_555
H92A C92A 1_555 1_555
C93A C88A 1_555 1_555
H93A C93A 1_555 1_555
H94A C93A 1_555 1_555
C94A C86A 1_555 1_555
H95A C94A 1_555 1_555
H96A C94A 1_555 1_555
C95A C90A 1_555 1_555
H97A C95A 1_555 1_555
H98A C95A 1_555 1_555
C96A C92A 1_555 1_555
H99A C96A 1_555 1_555
H100A C96A 1_555 1_555
C97A C96A 1_555 1_555
H101A C97A 1_555 1_555
H102A C97A 1_555 1_555
C98A C95A 1_555 1_555
H103A C98A 1_555 1_555
H104A C98A 1_555 1_555
C99A C97A 1_555 1_555
H105A C99A 1_555 1_555
H106A C99A 1_555 1_555
H107A C99A 1_555 1_555
C100A C98A 1_555 1_555
H108A C100A 1_555 1_555
H109A C100A 1_555 1_555
C101A C94A 1_555 1_555
H110A C101A 1_555 1_555
H111A C101A 1_555 1_555
C102A C100A 1_555 1_555
H112A C102A 1_555 1_555
H113A C102A 1_555 1_555
C103A C93A 1_555 1_555
H114A C103A 1_555 1_555
H115A C103A 1_555 1_555
C104A C101A 1_555 1_555
H116A C104A 1_555 1_555
H117A C104A 1_555 1_555
C105A C102A 1_555 1_555
H118A C105A 1_555 1_555
H119A C105A 1_555 1_555
H120A C105A 1_555 1_555
C106A C104A 1_555 1_555
H121A C106A 1_555 1_555
H122A C106A 1_555 1_555
C107A C106A 1_555 1_555
H123A C107A 1_555 1_555
H124A C107A 1_555 1_555
H125A C107A 1_555 1_555
C108A H126A 1_555 1_555
H127A C108A 1_555 1_555
C109A C103A 1_555 1_555
H128A C109A 1_555 1_555
H129A C109A 1_555 1_555
C110A C108A 1_555 1_555
H130A C110A 1_555 1_555
H131A C110A 1_555 1_555
Mg7A O55 1_555 1_555
O37A Mg7A 1_555 1_555
O38A Mg7A 1_555 1_555
N3A C111A 1_555 1_555
C111A H132A 1_555 1_555
H133A C111A 1_555 1_555
H134A C111A 1_555 1_555
C112A O37A 1_555 1_555
C113A N3A 1_555 1_555
H135A C113A 1_555 1_555
H136A C113A 1_555 1_555
H137A C113A 1_555 1_555
Mg8A O7 1_555 1_555
O39A Mg8A 1_555 1_555
O40A Mg8A 1_555 1_555
N4A C114A 1_555 1_555
C114A O39A 1_555 1_555
C115A N4A 1_555 1_555
H138A C115A 1_555 1_555
H139A C115A 1_555 1_555
C116A N4A 1_555 1_555
H140A C116A 1_555 1_555
H141A C116A 1_555 1_555
H142A C116A 1_555 1_555
H143A C115A 1_555 1_555
Mg9A O50 1_555 1_555
O41A Mg9A 1_555 1_555
O42A Mg9A 1_555 1_555
Mg10A O33A 1_555 1_555
O43A Mg10A 1_555 1_555
O44A Mg10A 1_555 1_555
Mg11A O5 1_555 1_555
O45A Mg11A 1_555 1_555
O46A Mg11A 1_555 1_555
Mg12A O27A 1_555 1_555
O47A Mg12A 1_555 1_555
O48A Mg12A 1_555 1_555
O49A Mg6 1_555 1_555
O50A Mg9 1_555 1_555
O51A Mg12A 1_555 1_555
O52A Mg5A 1_555 1_555
O53A Mg3A 1_555 1_555
O54A Mg10A 1_555 1_555
O55A Mg6 1_555 1_555
O56A Mg4 1_555 1_555
O57A Mg7 1_555 1_555
O58A Mg9 1_555 1_555
O59A Mg4 1_555 1_555
O60A Mg3A 1_555 1_555
C117A O49A 1_555 1_555
C118A H144A 1_555 1_555
C119A C128A 1_555 1_555
C120A C118A 1_555 1_555
C121A O53A 1_555 1_555
C122A C127A 1_555 1_555
C123A O55A 1_555 1_555
C124A C131A 1_555 1_555
C125A O59A 1_555 1_555
C126A C117A 1_555 1_555
C127A O51A 1_555 1_555
C128A O52A 1_555 1_555
C129A O50A 1_555 1_555
C130A O57A 1_555 1_555
C131A H145A 1_555 1_555
C132A C129A 1_555 1_555
C133A C121A 1_555 1_555
C134A O56A 1_555 1_555
C135A C134A 1_555 1_555
C136A O58A 1_555 1_555
C137A C122A 1_555 1_555
H146A C137A 1_555 1_555
C138A O54A 1_555 1_555
C139A C120A 1_555 1_555
H147A C139A 1_555 1_555
C140A C119A 1_555 1_555
H148A C140A 1_555 1_555
C141A O60A 1_555 1_555
C142A C122A 1_555 1_555
H149A C142A 1_555 1_555
C143A C126A 1_555 1_555
H150A C143A 1_555 1_555
C144A C119A 1_555 1_555
H151A C144A 1_555 1_555
C145A C139A 1_555 1_555
H152A C145A 1_555 1_555
H153A C145A 1_555 1_555
C146A C143A 1_555 1_555
H154A C146A 1_555 1_555
H155A C146A 1_555 1_555
C147A C142A 1_555 1_555
H156A C147A 1_555 1_555
H157A C147A 1_555 1_555
C148A C144A 1_555 1_555
H158A C148A 1_555 1_555
H159A C148A 1_555 1_555
C149A C145A 1_555 1_555
H160A C149A 1_555 1_555
H161A C149A 1_555 1_555
C150A C147A 1_555 1_555
H162A C150A 1_555 1_555
H163A C150A 1_555 1_555
C151A C149A 1_555 1_555
H164A C151A 1_555 1_555
H165A C151A 1_555 1_555
C152A H166A 1_555 1_555
H167A C152A 1_555 1_555
H168A C152A 1_555 1_555
C153A C146A 1_555 1_555
H169A C153A 1_555 1_555
H170A C153A 1_555 1_555
C154A C151A 1_555 1_555
H171A C154A 1_555 1_555
H172A C154A 1_555 1_555
C155A C148A 1_555 1_555
H173A C155A 1_555 1_555
H174A C155A 1_555 1_555
C156A C152A 1_555 1_555
H175A C156A 1_555 1_555
H176A C156A 1_555 1_555
C157A H177A 1_555 1_555
H178A C157A 1_555 1_555
C158A C157A 1_555 1_555
H179A C158A 1_555 1_555
H180A C158A 1_555 1_555
C159A H181A 1_555 1_555
H182A C159A 1_555 1_555
C160A C153A 1_555 1_555
H183A C160A 1_555 1_555
C161A C150A 1_555 1_555
H184A C161A 1_555 1_555
H185A C161A 1_555 1_555
C162A C155A 1_555 1_555
H186A C162A 1_555 1_555
H187A C162A 1_555 1_555
C163A C159A 1_555 1_555
H188A C163A 1_555 1_555
H189A C163A 1_555 1_555
C164A C159A 1_555 1_555
H190A C164A 1_555 1_555
H191A C164A 1_555 1_555
H192A C164A 1_555 1_555
C165A C158A 1_555 1_555
H193A C165A 1_555 1_555
H194A C165A 1_555 1_555
H195A C165A 1_555 1_555
C166A C162A 1_555 1_555
H196A C166A 1_555 1_555
H197A C166A 1_555 1_555
C167A C166A 1_555 1_555
H198A C167A 1_555 1_555
H199A C167A 1_555 1_555
C168A C167A 1_555 1_555
H200A C168A 1_555 1_555
H201A C168A 1_555 1_555
H202A C168A 1_555 1_555
O8 Mg5 1_555 1_555
O8 Mg8A 1_555 1_555
O14 Mg4 1_555 1_555
O14 Mg11A 1_555 1_555
O15 Mg6 1_555 1_555
O16 Mg3 1_555 1_555
C2 C23 1_555 1_555
C8 C20 1_555 1_555
C10 C23 1_555 1_555
C14 C19 1_555 1_555
C16 C24 1_555 1_555
C21 C25 1_555 1_555
C22 C24 1_555 1_555
C26 C27 1_555 1_555
C26 C28 1_555 1_555
C38 C40 1_555 1_555
C38 C42 1_555 1_555
C45 C49 1_555 1_555
C54 N1 1_555 1_555
O32 Mg8 1_555 1_555
O32 Mg9 1_555 1_555
O34 Mg7 1_555 1_555
O35 Mg10 1_555 1_555
O36 Mg11 1_555 1_555
O36 Mg12 1_555 1_555
C60 C74 1_555 1_555
C62 C74 1_555 1_555
C63 C82 1_555 1_555
C67 C69 1_555 1_555
C68 C70 1_555 1_555
C73 C83 1_555 1_555
C75 C83 1_555 1_555
C76 C85 1_555 1_555
C77 C78 1_555 1_555
C79 C81 1_555 1_555
C80 C87 1_555 1_555
C81 C84 1_555 1_555
C86 C87 1_555 1_555
C108 C109 1_555 1_555
Mg7 O55A 1_555 1_555
N3 C112 1_555 1_555
Mg10 O60 1_555 1_555
O55 Mg6A 1_555 1_555
O57 Mg7A 1_555 1_555
O58 Mg9A 1_555 1_555
O59 Mg4A 1_555 1_555
C118 C126 1_555 1_555
C121 C141 1_555 1_555
C124 C138 1_555 1_555
C124 C142 1_555 1_555
C125 C127 1_555 1_555
C128 C136 1_555 1_555
C129 C136 1_555 1_555
C131 C133 1_555 1_555
C132 C140 1_555 1_555
C133 C144 1_555 1_555
C135 C137 1_555 1_555
C135 C143 1_555 1_555
C138 C141 1_555 1_555
C154 C156 1_555 1_555
C157 C160 1_555 1_555
C161 C163 1_555 1_555
O8A Mg5A 1_555 1_555
O9A Mg6A 1_555 1_555
O10A Mg4A 1_555 1_555
O14A Mg4A 1_555 1_555
O15A Mg6A 1_555 1_555
O16A Mg3A 1_555 1_555
C1A C6A 1_555 1_555
C2A C23A 1_555 1_555
C4A C5A 1_555 1_555
C8A C20A 1_555 1_555
C10A C23A 1_555 1_555
C13A C17A 1_555 1_555
C14A C19A 1_555 1_555
C15A C18A 1_555 1_555
C16A C24A 1_555 1_555
C21A C25A 1_555 1_555
C22A C24A 1_555 1_555
C26A C27A 1_555 1_555
C26A C28A 1_555 1_555
C38A C40A 1_555 1_555
C38A C42A 1_555 1_555
C45A C49A 1_555 1_555
C54A N1A 1_555 1_555
Mg5A O58A 1_555 1_555
O25A Mg8A 1_555 1_555
O28A Mg11A 1_555 1_555
O29A Mg9A 1_555 1_555
O30A Mg7A 1_555 1_555
O32A Mg8A 1_555 1_555
O32A Mg9A 1_555 1_555
O34A Mg7A 1_555 1_555
O35A Mg10A 1_555 1_555
O36A Mg11A 1_555 1_555
O36A Mg12A 1_555 1_555
C60A C74A 1_555 1_555
C62A C74A 1_555 1_555
C63A C82A 1_555 1_555
C67A C69A 1_555 1_555
C68A C70A 1_555 1_555
C73A C83A 1_555 1_555
C75A C83A 1_555 1_555
C76A C85A 1_555 1_555
C77A C78A 1_555 1_555
C79A C81A 1_555 1_555
C80A C87A 1_555 1_555
C81A C84A 1_555 1_555
C86A C87A 1_555 1_555
C108A C109A 1_555 1_555
N3A C112A 1_555 1_555
Mg10A O60A 1_555 1_555
Mg12A O59A 1_555 1_555
C117A C123A 1_555 1_555
C118A C126A 1_555 1_555
C120A C130A 1_555 1_555
C121A C141A 1_555 1_555
C123A C130A 1_555 1_555
C124A C138A 1_555 1_555
C124A C142A 1_555 1_555
C125A C127A 1_555 1_555
C125A C134A 1_555 1_555
C128A C136A 1_555 1_555
C129A C136A 1_555 1_555
C131A C133A 1_555 1_555
C132A C139A 1_555 1_555
C132A C140A 1_555 1_555
C133A C144A 1_555 1_555
C135A C137A 1_555 1_555
C135A C143A 1_555 1_555
C138A C141A 1_555 1_555
C154A C156A 1_555 1_555
C157A C160A 1_555 1_555
C161A C163A 1_555 1_555

#END
