
#######################################################################
#
#                 Cambridge Crystallographic Data Centre
#                                CCDC 
#
#######################################################################
#
# If this CIF has been generated from an entry in the Cambridge 
# Structural Database, then it will include bibliographic, chemical, 
# crystal, experimental, refinement or atomic coordinate data resulting 
# from the CCDC's data processing and validation procedures.
#
#######################################################################

data_NEDBAC
_chemical_formula_moiety         'C192 H240 Mg24 O120'
_chemical_name_systematic        
'hexakis(\m-C-methylpyrogallol[4]arene)-octatetracontakis(aqua)-tetracosa-magnesium(ii)  unknown solvate'
_symmetry_cell_setting           cubic
_symmetry_space_group_name_H-M   'F m -3 c'
_symmetry_Int_Tables_number      226
_space_group_name_Hall           '-F 4n 2 3'
loop_
_symmetry_equiv_pos_site_id
_symmetry_equiv_pos_as_xyz
1 x,y,z
2 -y,x,1/2+z
3 -x,-y,z
4 y,-x,1/2+z
5 x,-z,1/2+y
6 x,-y,-z
7 x,z,1/2-y
8 z,y,1/2-x
9 -x,y,-z
10 -z,y,1/2+x
11 z,x,y
12 y,z,x
13 -y,-z,x
14 z,-x,-y
15 -y,z,-x
16 -z,-x,y
17 -z,x,-y
18 y,-z,-x
19 y,x,1/2-z
20 -y,-x,1/2-z
21 -x,z,1/2+y
22 -x,-z,1/2-y
23 z,-y,1/2+x
24 -z,-y,1/2-x
25 x,1/2+y,1/2+z
26 -y,1/2+x,z
27 -x,1/2-y,1/2+z
28 y,1/2-x,z
29 x,1/2-z,y
30 x,1/2-y,1/2-z
31 x,1/2+z,-y
32 z,1/2+y,-x
33 -x,1/2+y,1/2-z
34 -z,1/2+y,x
35 z,1/2+x,1/2+y
36 y,1/2+z,1/2+x
37 -y,1/2-z,1/2+x
38 z,1/2-x,1/2-y
39 -y,1/2+z,1/2-x
40 -z,1/2-x,1/2+y
41 -z,1/2+x,1/2-y
42 y,1/2-z,1/2-x
43 y,1/2+x,-z
44 -y,1/2-x,-z
45 -x,1/2+z,y
46 -x,1/2-z,-y
47 z,1/2-y,x
48 -z,1/2-y,-x
49 1/2+x,y,1/2+z
50 1/2-y,x,z
51 1/2-x,-y,1/2+z
52 1/2+y,-x,z
53 1/2+x,-z,y
54 1/2+x,-y,1/2-z
55 1/2+x,z,-y
56 1/2+z,y,-x
57 1/2-x,y,1/2-z
58 1/2-z,y,x
59 1/2+z,x,1/2+y
60 1/2+y,z,1/2+x
61 1/2-y,-z,1/2+x
62 1/2+z,-x,1/2-y
63 1/2-y,z,1/2-x
64 1/2-z,-x,1/2+y
65 1/2-z,x,1/2-y
66 1/2+y,-z,1/2-x
67 1/2+y,x,-z
68 1/2-y,-x,-z
69 1/2-x,z,y
70 1/2-x,-z,-y
71 1/2+z,-y,x
72 1/2-z,-y,-x
73 1/2+x,1/2+y,z
74 1/2-y,1/2+x,1/2+z
75 1/2-x,1/2-y,z
76 1/2+y,1/2-x,1/2+z
77 1/2+x,1/2-z,1/2+y
78 1/2+x,1/2-y,-z
79 1/2+x,1/2+z,1/2-y
80 1/2+z,1/2+y,1/2-x
81 1/2-x,1/2+y,-z
82 1/2-z,1/2+y,1/2+x
83 1/2+z,1/2+x,y
84 1/2+y,1/2+z,x
85 1/2-y,1/2-z,x
86 1/2+z,1/2-x,-y
87 1/2-y,1/2+z,-x
88 1/2-z,1/2-x,y
89 1/2-z,1/2+x,-y
90 1/2+y,1/2-z,-x
91 1/2+y,1/2+x,1/2-z
92 1/2-y,1/2-x,1/2-z
93 1/2-x,1/2+z,1/2+y
94 1/2-x,1/2-z,1/2-y
95 1/2+z,1/2-y,1/2+x
96 1/2-z,1/2-y,1/2-x
97 -x,-y,-z
98 y,-x,1/2-z
99 x,y,-z
100 -y,x,1/2-z
101 -x,z,1/2-y
102 -x,y,z
103 -x,-z,1/2+y
104 -z,-y,1/2+x
105 x,-y,z
106 z,-y,1/2-x
107 -z,-x,-y
108 -y,-z,-x
109 y,z,-x
110 -z,x,y
111 y,-z,x
112 z,x,-y
113 z,-x,y
114 -y,z,x
115 -y,-x,1/2+z
116 y,x,1/2+z
117 x,-z,1/2-y
118 x,z,1/2+y
119 -z,y,1/2-x
120 z,y,1/2+x
121 -x,1/2-y,1/2-z
122 y,1/2-x,-z
123 x,1/2+y,1/2-z
124 -y,1/2+x,-z
125 -x,1/2+z,-y
126 -x,1/2+y,1/2+z
127 -x,1/2-z,y
128 -z,1/2-y,x
129 x,1/2-y,1/2+z
130 z,1/2-y,-x
131 -z,1/2-x,1/2-y
132 -y,1/2-z,1/2-x
133 y,1/2+z,1/2-x
134 -z,1/2+x,1/2+y
135 y,1/2-z,1/2+x
136 z,1/2+x,1/2-y
137 z,1/2-x,1/2+y
138 -y,1/2+z,1/2+x
139 -y,1/2-x,z
140 y,1/2+x,z
141 x,1/2-z,-y
142 x,1/2+z,y
143 -z,1/2+y,-x
144 z,1/2+y,x
145 1/2-x,-y,1/2-z
146 1/2+y,-x,-z
147 1/2+x,y,1/2-z
148 1/2-y,x,-z
149 1/2-x,z,-y
150 1/2-x,y,1/2+z
151 1/2-x,-z,y
152 1/2-z,-y,x
153 1/2+x,-y,1/2+z
154 1/2+z,-y,-x
155 1/2-z,-x,1/2-y
156 1/2-y,-z,1/2-x
157 1/2+y,z,1/2-x
158 1/2-z,x,1/2+y
159 1/2+y,-z,1/2+x
160 1/2+z,x,1/2-y
161 1/2+z,-x,1/2+y
162 1/2-y,z,1/2+x
163 1/2-y,-x,z
164 1/2+y,x,z
165 1/2+x,-z,-y
166 1/2+x,z,y
167 1/2-z,y,-x
168 1/2+z,y,x
169 1/2-x,1/2-y,-z
170 1/2+y,1/2-x,1/2-z
171 1/2+x,1/2+y,-z
172 1/2-y,1/2+x,1/2-z
173 1/2-x,1/2+z,1/2-y
174 1/2-x,1/2+y,z
175 1/2-x,1/2-z,1/2+y
176 1/2-z,1/2-y,1/2+x
177 1/2+x,1/2-y,z
178 1/2+z,1/2-y,1/2-x
179 1/2-z,1/2-x,-y
180 1/2-y,1/2-z,-x
181 1/2+y,1/2+z,-x
182 1/2-z,1/2+x,y
183 1/2+y,1/2-z,x
184 1/2+z,1/2+x,-y
185 1/2+z,1/2-x,y
186 1/2-y,1/2+z,x
187 1/2-y,1/2-x,1/2+z
188 1/2+y,1/2+x,1/2+z
189 1/2+x,1/2-z,1/2-y
190 1/2+x,1/2+z,1/2+y
191 1/2-z,1/2+y,1/2-x
192 1/2+z,1/2+y,1/2+x
_cell_length_a                   62.692(13)
_cell_length_b                   62.692(13)
_cell_length_c                   62.692(13)
_cell_angle_alpha                90
_cell_angle_beta                 90
_cell_angle_gamma                90
_cell_volume                     246398
_exptl_crystal_colour            green
_exptl_crystal_description       block
_cell_formula_units_Z            24
loop_
_atom_site_label
_atom_site_type_symbol
_atom_site_fract_x
_atom_site_fract_y
_atom_site_fract_z
Mg1 Mg 0.46147(2) 0.27457(2) 0.36262(2)
Mg2 Mg 0.41943(2) 0.29792(2) 0.32680(3)
Mg3 Mg 0.42293(3) 0.33482(4) 0.26210(3)
O1 O 0.48054(4) 0.37885(4) 0.24634(4)
O2 O 0.42835(4) 0.34929(4) 0.29110(4)
O3 O 0.39553(4) 0.30537(4) 0.19937(4)
O4 O 0.42757(4) 0.32933(4) 0.32499(4)
O5 O 0.39559(4) 0.32133(4) 0.27245(4)
O6 O 0.48002(4) 0.30067(4) 0.37020(4)
O7 O 0.44589(4) 0.35472(4) 0.25259(4)
O8 O 0.44453(5) 0.29661(4) 0.34669(5)
O9 O 0.41245(5) 0.32494(5) 0.23350(4)
O10 O 0.44296(5) 0.27883(6) 0.39159(6)
C1 C 0.5000 0.34223(9) 0.37822(8)
H1 H 0.5000 0.3303 0.3888
C2 C 0.45266(5) 0.35392(6) 0.34080(6)
C3 C 0.48019(5) 0.33923(6) 0.36464(6)
C4 C 0.45311(5) 0.37505(5) 0.30693(6)
C5 C 0.44289(5) 0.37271(6) 0.32893(6)
H2 H 0.4276 0.3690 0.3264
C6 C 0.47202(5) 0.37871(5) 0.26631(6)
C7 C 0.38488(6) 0.31181(6) 0.25609(6)
C8 C 0.48013(5) 0.39044(5) 0.28332(6)
C9 C 0.44438(5) 0.33356(6) 0.33821(6)
C10 C 0.39410(6) 0.31344(6) 0.23572(6)
C11 C 0.47045(6) 0.38833(5) 0.30324(6)
H3 H 0.4760 0.3964 0.3148
C12 C 0.44527(5) 0.36331(6) 0.28980(6)
C13 C 0.36551(5) 0.30080(6) 0.25866(6)
C14 C 0.45332(6) 0.31605(6) 0.34881(6)
C15 C 0.38482(6) 0.30346(6) 0.21838(6)
C16 C 0.45401(6) 0.36559(6) 0.26912(6)
C17 C 0.5000 0.40404(7) 0.28006(8)
H4 H 0.5000 0.4084 0.2647
C18 C 0.35631(5) 0.29138(6) 0.24082(6)
H5 H 0.3432 0.2839 0.2425
C19 C 0.47045(5) 0.35649(6) 0.35430(6)
H6 H 0.4760 0.3704 0.3565
C20 C 0.47171(5) 0.31895(6) 0.36145(6)
C21 C 0.36539(5) 0.29241(6) 0.22068(6)
C22 C 0.35597(5) 0.28096(6) 0.20129(6)
H7 H 0.3604 0.2892 0.1884
C23 C 0.44302(7) 0.39356(7) 0.34166(7)
H8 H 0.4365 0.4049 0.3331
H9 H 0.4349 0.3917 0.3549
H10 H 0.4577 0.3974 0.3452
O11 O 0.39579(8) 0.30478(9) 0.35153(7)
C24 C 0.5000 0.36297(10) 0.39113(9)
H11 H 0.5132 0.3639 0.3995
C25 C 0.5000 0.42447(9) 0.29306(11)
H12 H 0.4868 0.4324 0.2902
C26 C 0.33136(6) 0.28057(7) 0.20148(8)
H13 H 0.3259 0.2952 0.2028
H14 H 0.3261 0.2743 0.1882
H15 H 0.3264 0.2720 0.2136
O12 O 0.44442(10) 0.30940(10) 0.26725(11)
O13 O 0.47818(9) 0.27087(10) 0.33262(8)
O14 O 0.44389(12) 0.29158(13) 0.30242(15)
O15 O 0.39832(12) 0.36592(13) 0.25500(12)
O1WC O 0.51946(4) 0.37885(4) 0.24634(4)
O2WC O 0.57165(4) 0.34929(4) 0.29110(4)
O4WC O 0.57243(4) 0.32933(4) 0.32499(4)
O6WC O 0.51998(4) 0.30067(4) 0.37020(4)
O7WC O 0.55411(4) 0.35472(4) 0.25259(4)
O8WC O 0.55547(5) 0.29661(4) 0.34669(5)
C2WC C 0.54734(5) 0.35392(6) 0.34080(6)
C3WC C 0.51981(5) 0.33923(6) 0.36464(6)
C4WC C 0.54689(5) 0.37505(5) 0.30693(6)
C5WC C 0.55711(5) 0.37271(6) 0.32893(6)
H2WC H 0.5724 0.3690 0.3264
C6WC C 0.52798(5) 0.37871(5) 0.26631(6)
C8WC C 0.51987(5) 0.39044(5) 0.28332(6)
C9WC C 0.55562(5) 0.33356(6) 0.33821(6)
C11WC C 0.52955(6) 0.38833(5) 0.30324(6)
H3WC H 0.5240 0.3964 0.3148
C12WC C 0.55473(5) 0.36331(6) 0.28980(6)
C14WC C 0.54668(6) 0.31605(6) 0.34881(6)
C16WC C 0.54599(6) 0.36559(6) 0.26912(6)
C19WC C 0.52955(5) 0.35649(6) 0.35430(6)
H6WC H 0.5240 0.3704 0.3565
C20WC C 0.52829(5) 0.31895(6) 0.36145(6)
C23WC C 0.55698(7) 0.39356(7) 0.34166(7)
H8WC H 0.5635 0.4049 0.3331
H9WC H 0.5651 0.3917 0.3549
H10WC H 0.5423 0.3974 0.3452
H11WC H 0.4868 0.3639 0.3995
H12WC H 0.5132 0.4324 0.2902
O3F O 0.39553(4) 0.19937(4) 0.19463(4)
O5F O 0.39559(4) 0.27245(4) 0.17867(4)
O9F O 0.41245(5) 0.23350(4) 0.17506(5)
C7F C 0.38488(6) 0.25609(6) 0.18819(6)
C10F C 0.39410(6) 0.23572(6) 0.18656(6)
C13F C 0.36551(5) 0.25866(6) 0.19920(6)
C15F C 0.38482(6) 0.21838(6) 0.19654(6)
C18F C 0.35631(5) 0.24082(6) 0.20862(6)
H5F H 0.3432 0.2425 0.2161
C21F C 0.36539(5) 0.22068(6) 0.20759(6)
C22F C 0.35597(5) 0.20129(6) 0.21904(6)
H7F H 0.3604 0.1884 0.2108
C26F C 0.33136(6) 0.20148(8) 0.21943(7)
H13F H 0.3259 0.2028 0.2048
H14F H 0.3261 0.1882 0.2257
H15F H 0.3264 0.2136 0.2280
O3BA O 0.39553(4) 0.30063(4) 0.30537(4)
O5BA O 0.39559(4) 0.22755(4) 0.32133(4)
O9BA O 0.41245(5) 0.26650(4) 0.32494(5)
C7BA C 0.38488(6) 0.24391(6) 0.31181(6)
C10BA C 0.39410(6) 0.26428(6) 0.31344(6)
C13BA C 0.36551(5) 0.24134(6) 0.30080(6)
C15BA C 0.38482(6) 0.28162(6) 0.30346(6)
C18BA C 0.35631(5) 0.25918(6) 0.29138(6)
H5BA H 0.3432 0.2575 0.2839
C21BA C 0.36539(5) 0.27932(6) 0.29241(6)
C22BA C 0.35597(5) 0.29871(6) 0.28096(6)
H7BA H 0.3604 0.3116 0.2892
C26BA C 0.33136(6) 0.29852(8) 0.28057(7)
H13BA H 0.3259 0.2972 0.2952
H14BA H 0.3261 0.3118 0.2743
H15BA H 0.3264 0.2864 0.2720
O3CA O 0.39553(4) 0.19463(4) 0.30063(4)
O5CA O 0.39559(4) 0.17867(4) 0.22755(4)
O9CA O 0.41245(5) 0.17506(5) 0.26650(4)
C7CA C 0.38488(6) 0.18819(6) 0.24391(6)
C10CA C 0.39410(6) 0.18656(6) 0.26428(6)
C13CA C 0.36551(5) 0.19920(6) 0.24134(6)
C15CA C 0.38482(6) 0.19654(6) 0.28162(6)
C18CA C 0.35631(5) 0.20862(6) 0.25918(6)
H5CA H 0.3432 0.2161 0.2575
C21CA C 0.36539(5) 0.20759(6) 0.27932(6)
C22CA C 0.35597(5) 0.21904(6) 0.29871(6)
H7CA H 0.3604 0.2108 0.3116
C26CA C 0.33136(6) 0.21943(7) 0.29852(8)
H13CA H 0.3259 0.2048 0.2972
H14CA H 0.3261 0.2257 0.3118
H15CA H 0.3264 0.2280 0.2864
Mg1F Mg 0.46147(2) 0.36262(2) 0.22543(2)
Mg2F Mg 0.41943(2) 0.32680(3) 0.20208(2)
Mg3F Mg 0.42293(3) 0.26210(3) 0.16518(4)
O1F O 0.48054(4) 0.24634(4) 0.12115(4)
O2F O 0.42835(4) 0.29110(4) 0.15071(4)
O4F O 0.42757(4) 0.32499(4) 0.17067(4)
O6F O 0.48002(4) 0.37020(4) 0.19933(4)
O7F O 0.44589(4) 0.25259(4) 0.14528(4)
O8F O 0.44453(5) 0.34669(5) 0.20339(4)
O10F O 0.44296(5) 0.39159(6) 0.22117(6)
C1F C 0.5000 0.37822(8) 0.15777(9)
H1F H 0.5000 0.3888 0.1697
C2F C 0.45266(5) 0.34080(6) 0.14608(6)
C3F C 0.48019(5) 0.36464(6) 0.16077(6)
C4F C 0.45311(5) 0.30693(6) 0.12495(5)
C5F C 0.44289(5) 0.32893(6) 0.12729(6)
H2F H 0.4276 0.3264 0.1310
C6F C 0.47202(5) 0.26631(6) 0.12129(5)
C8F C 0.48013(5) 0.28332(6) 0.10956(5)
C9F C 0.44438(5) 0.33821(6) 0.16644(6)
C11F C 0.47045(6) 0.30324(6) 0.11167(5)
H3F H 0.4760 0.3148 0.1036
C12F C 0.44527(5) 0.28980(6) 0.13669(6)
C14F C 0.45332(6) 0.34881(6) 0.18395(6)
C16F C 0.45401(6) 0.26912(6) 0.13441(6)
C17F C 0.5000 0.28006(8) 0.09596(7)
H4F H 0.5000 0.2647 0.0916
C19F C 0.47045(5) 0.35430(6) 0.14351(6)
H6F H 0.4760 0.3565 0.1296
C20F C 0.47171(5) 0.36145(6) 0.18105(6)
C23F C 0.44302(7) 0.34166(7) 0.10644(7)
H8F H 0.4365 0.3331 0.0951
H9F H 0.4349 0.3549 0.1083
H10F H 0.4577 0.3452 0.1026
O11F O 0.39579(8) 0.35153(7) 0.19522(9)
C24F C 0.5000 0.39113(9) 0.13703(10)
H11F H 0.5132 0.3995 0.1361
C25F C 0.5000 0.29306(11) 0.07553(9)
H12F H 0.4868 0.2902 0.0676
O12F O 0.44442(10) 0.26725(11) 0.19060(10)
O13F O 0.47818(9) 0.33262(8) 0.22913(10)
O14F O 0.44389(12) 0.30242(15) 0.20842(13)
O15F O 0.39832(12) 0.25500(12) 0.13408(13)
O1VC O 0.51946(4) 0.24634(4) 0.12115(4)
O2VC O 0.57165(4) 0.29110(4) 0.15071(4)
O4VC O 0.57243(4) 0.32499(4) 0.17067(4)
O6VC O 0.51998(4) 0.37020(4) 0.19933(4)
O7VC O 0.55411(4) 0.25259(4) 0.14528(4)
O8VC O 0.55547(5) 0.34669(5) 0.20339(4)
C2VC C 0.54734(5) 0.34080(6) 0.14608(6)
C3VC C 0.51981(5) 0.36464(6) 0.16077(6)
C4VC C 0.54689(5) 0.30693(6) 0.12495(5)
C5VC C 0.55711(5) 0.32893(6) 0.12729(6)
H2VC H 0.5724 0.3264 0.1310
C6VC C 0.52798(5) 0.26631(6) 0.12129(5)
C8VC C 0.51987(5) 0.28332(6) 0.10956(5)
C9VC C 0.55562(5) 0.33821(6) 0.16644(6)
C11VC C 0.52955(6) 0.30324(6) 0.11167(5)
H3VC H 0.5240 0.3148 0.1036
C12VC C 0.55473(5) 0.28980(6) 0.13669(6)
C14VC C 0.54668(6) 0.34881(6) 0.18395(6)
C16VC C 0.54599(6) 0.26912(6) 0.13441(6)
C19VC C 0.52955(5) 0.35430(6) 0.14351(6)
H6VC H 0.5240 0.3565 0.1296
C20VC C 0.52829(5) 0.36145(6) 0.18105(6)
C23VC C 0.55698(7) 0.34166(7) 0.10644(7)
H8VC H 0.5635 0.3331 0.0951
H9VC H 0.5651 0.3549 0.1083
H10VC H 0.5423 0.3452 0.1026
H11VC H 0.4868 0.3995 0.1361
H12VC H 0.5132 0.2902 0.0676
Mg1BA Mg 0.46147(2) 0.13738(2) 0.27457(2)
Mg2BA Mg 0.41943(2) 0.17320(3) 0.29792(2)
Mg3BA Mg 0.42293(3) 0.23790(3) 0.33482(4)
O1BA O 0.48054(4) 0.25366(4) 0.37885(4)
O2BA O 0.42835(4) 0.20890(4) 0.34929(4)
O4BA O 0.42757(4) 0.17501(4) 0.32933(4)
O6BA O 0.48002(4) 0.12980(4) 0.30067(4)
O7BA O 0.44589(4) 0.24741(4) 0.35472(4)
O8BA O 0.44453(5) 0.15331(5) 0.29661(4)
O10BA O 0.44296(5) 0.10841(6) 0.27883(6)
C1BA C 0.5000 0.12178(8) 0.34223(9)
H1BA H 0.5000 0.1112 0.3303
C2BA C 0.45266(5) 0.15920(6) 0.35392(6)
C3BA C 0.48019(5) 0.13536(6) 0.33923(6)
C4BA C 0.45311(5) 0.19307(6) 0.37505(5)
C5BA C 0.44289(5) 0.17107(6) 0.37271(6)
H2BA H 0.4276 0.1736 0.3690
C6BA C 0.47202(5) 0.23369(6) 0.37871(5)
C8BA C 0.48013(5) 0.21668(6) 0.39044(5)
C9BA C 0.44438(5) 0.16179(6) 0.33356(6)
C11BA C 0.47045(6) 0.19676(6) 0.38833(5)
H3BA H 0.4760 0.1852 0.3964
C12BA C 0.44527(5) 0.21020(6) 0.36331(6)
C14BA C 0.45332(6) 0.15119(6) 0.31605(6)
C16BA C 0.45401(6) 0.23088(6) 0.36559(6)
C17BA C 0.5000 0.21994(8) 0.40404(7)
H4BA H 0.5000 0.2353 0.4084
C19BA C 0.47045(5) 0.14570(6) 0.35649(6)
H6BA H 0.4760 0.1435 0.3704
C20BA C 0.47171(5) 0.13855(6) 0.31895(6)
C23BA C 0.44302(7) 0.15834(7) 0.39356(7)
H8BA H 0.4365 0.1669 0.4049
H9BA H 0.4349 0.1451 0.3917
H10BA H 0.4577 0.1548 0.3974
O11BA O 0.39579(8) 0.14847(7) 0.30478(9)
C24BA C 0.5000 0.10887(9) 0.36297(10)
H11BA H 0.5132 0.1005 0.3639
C25BA C 0.5000 0.20694(11) 0.42447(9)
H12BA H 0.4868 0.2098 0.4324
O12BA O 0.44442(10) 0.23275(11) 0.30940(10)
O13BA O 0.47818(9) 0.16738(8) 0.27087(10)
O14BA O 0.44389(12) 0.19758(15) 0.29158(13)
O15BA O 0.39832(12) 0.24500(12) 0.36592(13)
O1VD O 0.51946(4) 0.25366(4) 0.37885(4)
O2VD O 0.57165(4) 0.20890(4) 0.34929(4)
O4VD O 0.57243(4) 0.17501(4) 0.32933(4)
O6VD O 0.51998(4) 0.12980(4) 0.30067(4)
O7VD O 0.55411(4) 0.24741(4) 0.35472(4)
O8VD O 0.55547(5) 0.15331(5) 0.29661(4)
C2VD C 0.54734(5) 0.15920(6) 0.35392(6)
C3VD C 0.51981(5) 0.13536(6) 0.33923(6)
C4VD C 0.54689(5) 0.19307(6) 0.37505(5)
C5VD C 0.55711(5) 0.17107(6) 0.37271(6)
H2VD H 0.5724 0.1736 0.3690
C6VD C 0.52798(5) 0.23369(6) 0.37871(5)
C8VD C 0.51987(5) 0.21668(6) 0.39044(5)
C9VD C 0.55562(5) 0.16179(6) 0.33356(6)
C11VD C 0.52955(6) 0.19676(6) 0.38833(5)
H3VD H 0.5240 0.1852 0.3964
C12VD C 0.55473(5) 0.21020(6) 0.36331(6)
C14VD C 0.54668(6) 0.15119(6) 0.31605(6)
C16VD C 0.54599(6) 0.23088(6) 0.36559(6)
C19VD C 0.52955(5) 0.14570(6) 0.35649(6)
H6VD H 0.5240 0.1435 0.3704
C20VD C 0.52829(5) 0.13855(6) 0.31895(6)
C23VD C 0.55698(7) 0.15834(7) 0.39356(7)
H8VD H 0.5635 0.1669 0.4049
H9VD H 0.5651 0.1451 0.3917
H10VD H 0.5423 0.1548 0.3974
H11VD H 0.4868 0.1005 0.3639
H12VD H 0.5132 0.2098 0.4324
Mg1CA Mg 0.46147(2) 0.22543(2) 0.13738(2)
Mg2CA Mg 0.41943(2) 0.20208(2) 0.17320(3)
Mg3CA Mg 0.42293(3) 0.16518(4) 0.23790(3)
O1CA O 0.48054(4) 0.12115(4) 0.25366(4)
O2CA O 0.42835(4) 0.15071(4) 0.20890(4)
O4CA O 0.42757(4) 0.17067(4) 0.17501(4)
O6CA O 0.48002(4) 0.19933(4) 0.12980(4)
O7CA O 0.44589(4) 0.14528(4) 0.24741(4)
O8CA O 0.44453(5) 0.20339(4) 0.15331(5)
O10CA O 0.44296(5) 0.22117(6) 0.10841(6)
C1CA C 0.5000 0.15777(9) 0.12178(8)
H1CA H 0.5000 0.1697 0.1112
C2CA C 0.45266(5) 0.14608(6) 0.15920(6)
C3CA C 0.48019(5) 0.16077(6) 0.13536(6)
C4CA C 0.45311(5) 0.12495(5) 0.19307(6)
C5CA C 0.44289(5) 0.12729(6) 0.17107(6)
H2CA H 0.4276 0.1310 0.1736
C6CA C 0.47202(5) 0.12129(5) 0.23369(6)
C8CA C 0.48013(5) 0.10956(5) 0.21668(6)
C9CA C 0.44438(5) 0.16644(6) 0.16179(6)
C11CA C 0.47045(6) 0.11167(5) 0.19676(6)
H3CA H 0.4760 0.1036 0.1852
C12CA C 0.44527(5) 0.13669(6) 0.21020(6)
C14CA C 0.45332(6) 0.18395(6) 0.15119(6)
C16CA C 0.45401(6) 0.13441(6) 0.23088(6)
C17CA C 0.5000 0.09596(7) 0.21994(8)
H4CA H 0.5000 0.0916 0.2353
C19CA C 0.47045(5) 0.14351(6) 0.14570(6)
H6CA H 0.4760 0.1296 0.1435
C20CA C 0.47171(5) 0.18105(6) 0.13855(6)
C23CA C 0.44302(7) 0.10644(7) 0.15834(7)
H8CA H 0.4365 0.0951 0.1669
H9CA H 0.4349 0.1083 0.1451
H10CA H 0.4577 0.1026 0.1548
O11CA O 0.39579(8) 0.19522(9) 0.14847(7)
C24CA C 0.5000 0.13703(10) 0.10887(9)
H11CA H 0.5132 0.1361 0.1005
C25CA C 0.5000 0.07553(9) 0.20694(11)
H12CA H 0.4868 0.0676 0.2098
O12CA O 0.44442(10) 0.19060(10) 0.23275(11)
O13CA O 0.47818(9) 0.22913(10) 0.16738(8)
O14CA O 0.44389(12) 0.20842(13) 0.19758(15)
O15CA O 0.39832(12) 0.13408(13) 0.24500(12)
O1PD O 0.51946(4) 0.12115(4) 0.25366(4)
O2PD O 0.57165(4) 0.15071(4) 0.20890(4)
O4PD O 0.57243(4) 0.17067(4) 0.17501(4)
O6PD O 0.51998(4) 0.19933(4) 0.12980(4)
O7PD O 0.55411(4) 0.14528(4) 0.24741(4)
O8PD O 0.55547(5) 0.20339(4) 0.15331(5)
C2PD C 0.54734(5) 0.14608(6) 0.15920(6)
C3PD C 0.51981(5) 0.16077(6) 0.13536(6)
C4PD C 0.54689(5) 0.12495(5) 0.19307(6)
C5PD C 0.55711(5) 0.12729(6) 0.17107(6)
H2PD H 0.5724 0.1310 0.1736
C6PD C 0.52798(5) 0.12129(5) 0.23369(6)
C8PD C 0.51987(5) 0.10956(5) 0.21668(6)
C9PD C 0.55562(5) 0.16644(6) 0.16179(6)
C11PD C 0.52955(6) 0.11167(5) 0.19676(6)
H3PD H 0.5240 0.1036 0.1852
C12PD C 0.55473(5) 0.13669(6) 0.21020(6)
C14PD C 0.54668(6) 0.18395(6) 0.15119(6)
C16PD C 0.54599(6) 0.13441(6) 0.23088(6)
C19PD C 0.52955(5) 0.14351(6) 0.14570(6)
H6PD H 0.5240 0.1296 0.1435
C20PD C 0.52829(5) 0.18105(6) 0.13855(6)
C23PD C 0.55698(7) 0.10644(7) 0.15834(7)
H8PD H 0.5635 0.0951 0.1669
H9PD H 0.5651 0.1083 0.1451
H10PD H 0.5423 0.1026 0.1548
H11PD H 0.4868 0.1361 0.1005
H12PD H 0.5132 0.0676 0.2098
Mg1VC Mg 0.53853(2) 0.36262(2) 0.22543(2)
Mg2VC Mg 0.58057(2) 0.32680(3) 0.20208(2)
Mg3VC Mg 0.57707(3) 0.26210(3) 0.16518(4)
O3VC O 0.60447(4) 0.19937(4) 0.19463(4)
O5VC O 0.60441(4) 0.27245(4) 0.17867(4)
O9VC O 0.58755(5) 0.23350(4) 0.17506(5)
O10VC O 0.55704(5) 0.39159(6) 0.22117(6)
C7VC C 0.61512(6) 0.25609(6) 0.18819(6)
C10VC C 0.60590(6) 0.23572(6) 0.18656(6)
C13VC C 0.63449(5) 0.25866(6) 0.19920(6)
C15VC C 0.61518(6) 0.21838(6) 0.19654(6)
C18VC C 0.64369(5) 0.24082(6) 0.20862(6)
H5VC H 0.6568 0.2425 0.2161
C21VC C 0.63461(5) 0.22068(6) 0.20759(6)
C22VC C 0.64403(5) 0.20129(6) 0.21904(6)
H7VC H 0.6396 0.1884 0.2108
O11VC O 0.60421(8) 0.35153(7) 0.19522(9)
C26VC C 0.66864(6) 0.20148(8) 0.21943(7)
H13VC H 0.6741 0.2028 0.2048
H14VC H 0.6739 0.1882 0.2257
H15VC H 0.6736 0.2136 0.2280
O12VC O 0.55558(10) 0.26725(11) 0.19060(10)
O13VC O 0.52182(9) 0.33262(8) 0.22913(10)
O14VC O 0.55611(12) 0.30242(15) 0.20842(13)
O15VC O 0.60168(12) 0.25500(12) 0.13408(13)
O3PD O 0.60447(4) 0.19463(4) 0.30063(4)
O5PD O 0.60441(4) 0.17867(4) 0.22755(4)
O9PD O 0.58755(5) 0.17506(5) 0.26650(4)
C7PD C 0.61512(6) 0.18819(6) 0.24391(6)
C10PD C 0.60590(6) 0.18656(6) 0.26428(6)
C13PD C 0.63449(5) 0.19920(6) 0.24134(6)
C15PD C 0.61518(6) 0.19654(6) 0.28162(6)
C18PD C 0.64369(5) 0.20862(6) 0.25918(6)
H5PD H 0.6568 0.2161 0.2575
C21PD C 0.63461(5) 0.20759(6) 0.27932(6)
C22PD C 0.64403(5) 0.21904(6) 0.29871(6)
H7PD H 0.6396 0.2108 0.3116
C26PD C 0.66864(6) 0.21943(7) 0.29852(8)
H13PD H 0.6741 0.2048 0.2972
H14PD H 0.6739 0.2257 0.3118
H15PD H 0.6736 0.2280 0.2864
O3WC O 0.60447(4) 0.30537(4) 0.19937(4)
O5WC O 0.60441(4) 0.32133(4) 0.27245(4)
O9WC O 0.58755(5) 0.32494(5) 0.23350(4)
C7WC C 0.61512(6) 0.31181(6) 0.25609(6)
C10WC C 0.60590(6) 0.31344(6) 0.23572(6)
C13WC C 0.63449(5) 0.30080(6) 0.25866(6)
C15WC C 0.61518(6) 0.30346(6) 0.21838(6)
C18WC C 0.64369(5) 0.29138(6) 0.24082(6)
H5WC H 0.6568 0.2839 0.2425
C21WC C 0.63461(5) 0.29241(6) 0.22068(6)
C22WC C 0.64403(5) 0.28096(6) 0.20129(6)
H7WC H 0.6396 0.2892 0.1884
C26WC C 0.66864(6) 0.28057(7) 0.20148(8)
H13WC H 0.6741 0.2952 0.2028
H14WC H 0.6739 0.2743 0.1882
H15WC H 0.6736 0.2720 0.2136
O3VD O 0.60447(4) 0.30063(4) 0.30537(4)
O5VD O 0.60441(4) 0.22755(4) 0.32133(4)
O9VD O 0.58755(5) 0.26650(4) 0.32494(5)
C7VD C 0.61512(6) 0.24391(6) 0.31181(6)
C10VD C 0.60590(6) 0.26428(6) 0.31344(6)
C13VD C 0.63449(5) 0.24134(6) 0.30080(6)
C15VD C 0.61518(6) 0.28162(6) 0.30346(6)
C18VD C 0.64369(5) 0.25918(6) 0.29138(6)
H5VD H 0.6568 0.2575 0.2839
C21VD C 0.63461(5) 0.27932(6) 0.29241(6)
C22VD C 0.64403(5) 0.29871(6) 0.28096(6)
H7VD H 0.6396 0.3116 0.2892
C26VD C 0.66864(6) 0.29852(8) 0.28057(7)
H13VD H 0.6741 0.2972 0.2952
H14VD H 0.6739 0.3118 0.2743
H15VD H 0.6736 0.2864 0.2720
Mg1WC Mg 0.53853(2) 0.27457(2) 0.36262(2)
Mg2WC Mg 0.58057(2) 0.29792(2) 0.32680(3)
Mg3WC Mg 0.57707(3) 0.33482(4) 0.26210(3)
O10WC O 0.55704(5) 0.27883(6) 0.39159(6)
O11WC O 0.60421(8) 0.30478(9) 0.35153(7)
O12WC O 0.55558(10) 0.30940(10) 0.26725(11)
O13WC O 0.52182(9) 0.27087(10) 0.33262(8)
O14WC O 0.55611(12) 0.29158(13) 0.30242(15)
O15WC O 0.60168(12) 0.36592(13) 0.25500(12)
Mg1PD Mg 0.53853(2) 0.22543(2) 0.13738(2)
Mg2PD Mg 0.58057(2) 0.20208(2) 0.17320(3)
Mg3PD Mg 0.57707(3) 0.16518(4) 0.23790(3)
O10PD O 0.55704(5) 0.22117(6) 0.10841(6)
O11PD O 0.60421(8) 0.19522(9) 0.14847(7)
O12PD O 0.55558(10) 0.19060(10) 0.23275(11)
O13PD O 0.52182(9) 0.22913(10) 0.16738(8)
O14PD O 0.55611(12) 0.20842(13) 0.19758(15)
O15PD O 0.60168(12) 0.13408(13) 0.24500(12)
Mg1VD Mg 0.53853(2) 0.13738(2) 0.27457(2)
Mg2VD Mg 0.58057(2) 0.17320(3) 0.29792(2)
Mg3VD Mg 0.57707(3) 0.23790(3) 0.33482(4)
O10VD O 0.55704(5) 0.10841(6) 0.27883(6)
O11VD O 0.60421(8) 0.14847(7) 0.30478(9)
O12VD O 0.55558(10) 0.23275(11) 0.30940(10)
O13VD O 0.52182(9) 0.16738(8) 0.27087(10)
O14VD O 0.55611(12) 0.19758(15) 0.29158(13)
O15VD O 0.60168(12) 0.24500(12) 0.36592(13)
H16? H 0.4877 0.3631 0.4008
H17? H 0.5123 0.4332 0.2891
H18? H 0.4991 0.3752 0.3814
H19? H 0.5008 0.4210 0.3083
loop_
_geom_bond_atom_site_label_1
_geom_bond_atom_site_label_2
_geom_bond_site_symmetry_1
_geom_bond_site_symmetry_2
Mg1 O6 1_555 1_555
Mg2 O4 1_555 1_555
Mg3 O2 1_555 1_555
O1 C6 1_555 1_555
O2 C12 1_555 1_555
O3 C15 1_555 1_555
O4 C9 1_555 1_555
O5 Mg3 1_555 1_555
O6 C20 1_555 1_555
O7 Mg3 1_555 1_555
O8 Mg1 1_555 1_555
O9 Mg3 1_555 1_555
O10 Mg1 1_555 1_555
C1 H1 1_555 1_555
C2 C5 1_555 1_555
C3 C1 1_555 1_555
C4 C5 1_555 1_555
C5 H2 1_555 1_555
C6 C8 1_555 1_555
C7 O5 1_555 1_555
C8 C11 1_555 1_555
C9 C2 1_555 1_555
C10 O9 1_555 1_555
C11 C4 1_555 1_555
H3 C11 1_555 1_555
C12 C4 1_555 1_555
C13 C7 1_555 1_555
C14 O8 1_555 1_555
C15 C10 1_555 1_555
C16 O7 1_555 1_555
C17 C8 1_555 1_555
H4 C17 1_555 1_555
C18 C13 1_555 1_555
H5 C18 1_555 1_555
C19 C2 1_555 1_555
H6 C19 1_555 1_555
C20 C3 1_555 1_555
C21 C15 1_555 1_555
C22 C21 1_555 1_555
H7 C22 1_555 1_555
C23 C5 1_555 1_555
H8 C23 1_555 1_555
H9 C23 1_555 1_555
H10 C23 1_555 1_555
O11 Mg2 1_555 1_555
C24 C1 1_555 1_555
H11 C24 1_555 1_555
C25 C17 1_555 1_555
H12 C25 1_555 1_555
C26 C22 1_555 1_555
H13 C26 1_555 1_555
H14 C26 1_555 1_555
H15 C26 1_555 1_555
O12 Mg3 1_555 1_555
O13 Mg1 1_555 1_555
O14 Mg2 1_555 1_555
O15 Mg3 1_555 1_555
O1WC C6WC 1_555 1_555
O2WC C12WC 1_555 1_555
O4WC C9WC 1_555 1_555
O6WC C20WC 1_555 1_555
O7WC C16WC 1_555 1_555
O8WC C14WC 1_555 1_555
C2WC C5WC 1_555 1_555
C3WC C1 1_555 1_555
C4WC C5WC 1_555 1_555
C5WC H2WC 1_555 1_555
C6WC C8WC 1_555 1_555
C8WC C17 1_555 1_555
C9WC C2WC 1_555 1_555
C11WC C4WC 1_555 1_555
H3WC C11WC 1_555 1_555
C12WC C4WC 1_555 1_555
C14WC C9WC 1_555 1_555
C16WC C6WC 1_555 1_555
C19WC C2WC 1_555 1_555
H6WC C19WC 1_555 1_555
C20WC C3WC 1_555 1_555
C23WC C5WC 1_555 1_555
H8WC C23WC 1_555 1_555
H9WC C23WC 1_555 1_555
H10WC C23WC 1_555 1_555
H11WC C24 1_555 1_555
H12WC C25 1_555 1_555
O3F C15F 1_555 1_555
O5F C7F 1_555 1_555
O9F C10F 1_555 1_555
C7F C10F 1_555 1_555
C10F C15F 1_555 1_555
C13F C22 1_555 1_555
C15F C21F 1_555 1_555
C18F C13F 1_555 1_555
H5F C18F 1_555 1_555
C21F C18F 1_555 1_555
C22F C21F 1_555 1_555
H7F C22F 1_555 1_555
C26F C22F 1_555 1_555
H13F C26F 1_555 1_555
H14F C26F 1_555 1_555
H15F C26F 1_555 1_555
O3BA Mg2 1_555 1_555
O5BA C7BA 1_555 1_555
O9BA Mg2 1_555 1_555
C7BA C10BA 1_555 1_555
C10BA O9BA 1_555 1_555
C13BA C7BA 1_555 1_555
C15BA O3BA 1_555 1_555
C18BA C13BA 1_555 1_555
H5BA C18BA 1_555 1_555
C21BA C15BA 1_555 1_555
C22BA C13 1_555 1_555
H7BA C22BA 1_555 1_555
C26BA C22BA 1_555 1_555
H13BA C26BA 1_555 1_555
H14BA C26BA 1_555 1_555
H15BA C26BA 1_555 1_555
O3CA C15CA 1_555 1_555
O5CA C7CA 1_555 1_555
O9CA C10CA 1_555 1_555
C7CA C10CA 1_555 1_555
C10CA C15CA 1_555 1_555
C13CA C22F 1_555 1_555
C15CA C21CA 1_555 1_555
C18CA C13CA 1_555 1_555
H5CA C18CA 1_555 1_555
C21CA C18CA 1_555 1_555
C22CA C13BA 1_555 1_555
H7CA C22CA 1_555 1_555
C26CA C22CA 1_555 1_555
H13CA C26CA 1_555 1_555
H14CA C26CA 1_555 1_555
H15CA C26CA 1_555 1_555
Mg1F O1 1_555 1_555
Mg2F O3 1_555 1_555
Mg3F O5F 1_555 1_555
O1F C6F 1_555 1_555
O2F Mg3F 1_555 1_555
O4F Mg2F 1_555 1_555
O6F Mg1F 1_555 1_555
O7F Mg3F 1_555 1_555
O8F Mg1F 1_555 1_555
O10F Mg1F 1_555 1_555
C1F H1F 1_555 1_555
C2F C5F 1_555 1_555
C3F C1F 1_555 1_555
C4F C5F 1_555 1_555
C5F H2F 1_555 1_555
C6F C8F 1_555 1_555
C8F C11F 1_555 1_555
C9F O4F 1_555 1_555
C11F C4F 1_555 1_555
H3F C11F 1_555 1_555
C12F O2F 1_555 1_555
C14F O8F 1_555 1_555
C16F O7F 1_555 1_555
C17F C8F 1_555 1_555
H4F C17F 1_555 1_555
C19F C2F 1_555 1_555
H6F C19F 1_555 1_555
C20F O6F 1_555 1_555
C23F C5F 1_555 1_555
H8F C23F 1_555 1_555
H9F C23F 1_555 1_555
H10F C23F 1_555 1_555
O11F Mg2F 1_555 1_555
C24F C1F 1_555 1_555
H11F C24F 1_555 1_555
C25F C17F 1_555 1_555
H12F C25F 1_555 1_555
O12F Mg3F 1_555 1_555
O13F Mg1F 1_555 1_555
O14F Mg2F 1_555 1_555
O15F Mg3F 1_555 1_555
O1VC C6VC 1_555 1_555
O2VC C12VC 1_555 1_555
O4VC C9VC 1_555 1_555
O6VC C20VC 1_555 1_555
O7VC C16VC 1_555 1_555
O8VC C14VC 1_555 1_555
C2VC C5VC 1_555 1_555
C3VC C1F 1_555 1_555
C4VC C5VC 1_555 1_555
C5VC H2VC 1_555 1_555
C6VC C8VC 1_555 1_555
C8VC C17F 1_555 1_555
C9VC C2VC 1_555 1_555
C11VC C4VC 1_555 1_555
H3VC C11VC 1_555 1_555
C12VC C4VC 1_555 1_555
C14VC C9VC 1_555 1_555
C16VC C6VC 1_555 1_555
C19VC C2VC 1_555 1_555
H6VC C19VC 1_555 1_555
C20VC C3VC 1_555 1_555
C23VC C5VC 1_555 1_555
H8VC C23VC 1_555 1_555
H9VC C23VC 1_555 1_555
H10VC C23VC 1_555 1_555
H11VC C24F 1_555 1_555
H12VC C25F 1_555 1_555
Mg1BA O6BA 1_555 1_555
Mg2BA O3CA 1_555 1_555
Mg3BA O5BA 1_555 1_555
O1BA Mg1 1_555 1_555
O2BA Mg3BA 1_555 1_555
O4BA Mg2BA 1_555 1_555
O6BA C20BA 1_555 1_555
O7BA Mg1 1_555 1_555
O8BA Mg1BA 1_555 1_555
O10BA Mg1BA 1_555 1_555
C1BA H1BA 1_555 1_555
C2BA C5BA 1_555 1_555
C3BA C1BA 1_555 1_555
C4BA C5BA 1_555 1_555
C5BA H2BA 1_555 1_555
C6BA O1BA 1_555 1_555
C8BA C6BA 1_555 1_555
C9BA O4BA 1_555 1_555
C11BA C4BA 1_555 1_555
H3BA C11BA 1_555 1_555
C12BA O2BA 1_555 1_555
C14BA O8BA 1_555 1_555
C16BA O7BA 1_555 1_555
C17BA C8BA 1_555 1_555
H4BA C17BA 1_555 1_555
C19BA C2BA 1_555 1_555
H6BA C19BA 1_555 1_555
C20BA C3BA 1_555 1_555
C23BA C5BA 1_555 1_555
H8BA C23BA 1_555 1_555
H9BA C23BA 1_555 1_555
H10BA C23BA 1_555 1_555
O11BA Mg2BA 1_555 1_555
C24BA C1BA 1_555 1_555
H11BA C24BA 1_555 1_555
C25BA C17BA 1_555 1_555
H12BA C25BA 1_555 1_555
O12BA Mg3BA 1_555 1_555
O13BA Mg1BA 1_555 1_555
O14BA Mg2BA 1_555 1_555
O15BA Mg3BA 1_555 1_555
O1VD C6VD 1_555 1_555
O2VD C12VD 1_555 1_555
O4VD C9VD 1_555 1_555
O6VD C20VD 1_555 1_555
O7VD C16VD 1_555 1_555
O8VD C14VD 1_555 1_555
C2VD C5VD 1_555 1_555
C3VD C1BA 1_555 1_555
C4VD C5VD 1_555 1_555
C5VD H2VD 1_555 1_555
C6VD C8VD 1_555 1_555
C8VD C17BA 1_555 1_555
C9VD C2VD 1_555 1_555
C11VD C4VD 1_555 1_555
H3VD C11VD 1_555 1_555
C12VD C4VD 1_555 1_555
C14VD C9VD 1_555 1_555
C16VD C6VD 1_555 1_555
C19VD C2VD 1_555 1_555
H6VD C19VD 1_555 1_555
C20VD C3VD 1_555 1_555
C23VD C5VD 1_555 1_555
H8VD C23VD 1_555 1_555
H9VD C23VD 1_555 1_555
H10VD C23VD 1_555 1_555
H11VD C24BA 1_555 1_555
H12VD C25BA 1_555 1_555
Mg1CA O1F 1_555 1_555
Mg2CA O3F 1_555 1_555
Mg3CA O5CA 1_555 1_555
O1CA Mg1BA 1_555 1_555
O2CA Mg3CA 1_555 1_555
O4CA Mg2CA 1_555 1_555
O6CA Mg1CA 1_555 1_555
O7CA Mg1BA 1_555 1_555
O8CA Mg1CA 1_555 1_555
O10CA Mg1CA 1_555 1_555
C1CA H1CA 1_555 1_555
C2CA C5CA 1_555 1_555
C3CA C1CA 1_555 1_555
C4CA C5CA 1_555 1_555
C5CA H2CA 1_555 1_555
C6CA O1CA 1_555 1_555
C8CA C6CA 1_555 1_555
C9CA O4CA 1_555 1_555
C11CA C4CA 1_555 1_555
H3CA C11CA 1_555 1_555
C12CA O2CA 1_555 1_555
C14CA O8CA 1_555 1_555
C16CA O7CA 1_555 1_555
C17CA C8CA 1_555 1_555
H4CA C17CA 1_555 1_555
C19CA C2CA 1_555 1_555
H6CA C19CA 1_555 1_555
C20CA O6CA 1_555 1_555
C23CA C5CA 1_555 1_555
H8CA C23CA 1_555 1_555
H9CA C23CA 1_555 1_555
H10CA C23CA 1_555 1_555
O11CA Mg2CA 1_555 1_555
C24CA C1CA 1_555 1_555
H11CA C24CA 1_555 1_555
C25CA C17CA 1_555 1_555
H12CA C25CA 1_555 1_555
O12CA Mg3CA 1_555 1_555
O13CA Mg1CA 1_555 1_555
O14CA Mg2CA 1_555 1_555
O15CA Mg3CA 1_555 1_555
O1PD C6PD 1_555 1_555
O2PD C12PD 1_555 1_555
O4PD C9PD 1_555 1_555
O6PD C20PD 1_555 1_555
O7PD C16PD 1_555 1_555
O8PD C14PD 1_555 1_555
C2PD C5PD 1_555 1_555
C3PD C1CA 1_555 1_555
C4PD C5PD 1_555 1_555
C5PD H2PD 1_555 1_555
C6PD C8PD 1_555 1_555
C8PD C17CA 1_555 1_555
C9PD C2PD 1_555 1_555
C11PD C4PD 1_555 1_555
H3PD C11PD 1_555 1_555
C12PD C4PD 1_555 1_555
C14PD C9PD 1_555 1_555
C16PD C6PD 1_555 1_555
C19PD C2PD 1_555 1_555
H6PD C19PD 1_555 1_555
C20PD C3PD 1_555 1_555
C23PD C5PD 1_555 1_555
H8PD C23PD 1_555 1_555
H9PD C23PD 1_555 1_555
H10PD C23PD 1_555 1_555
H11PD C24CA 1_555 1_555
H12PD C25CA 1_555 1_555
Mg1VC O1WC 1_555 1_555
Mg2VC O4VC 1_555 1_555
Mg3VC O2VC 1_555 1_555
O3VC C15VC 1_555 1_555
O5VC Mg3VC 1_555 1_555
O9VC Mg3VC 1_555 1_555
O10VC Mg1VC 1_555 1_555
C7VC O5VC 1_555 1_555
C10VC O9VC 1_555 1_555
C13VC C7VC 1_555 1_555
C15VC C10VC 1_555 1_555
C18VC C13VC 1_555 1_555
H5VC C18VC 1_555 1_555
C21VC C15VC 1_555 1_555
C22VC C21VC 1_555 1_555
H7VC C22VC 1_555 1_555
O11VC Mg2VC 1_555 1_555
C26VC C22VC 1_555 1_555
H13VC C26VC 1_555 1_555
H14VC C26VC 1_555 1_555
H15VC C26VC 1_555 1_555
O12VC Mg3VC 1_555 1_555
O13VC Mg1VC 1_555 1_555
O14VC Mg2VC 1_555 1_555
O15VC Mg3VC 1_555 1_555
O3PD C15PD 1_555 1_555
O5PD C7PD 1_555 1_555
O9PD C10PD 1_555 1_555
C7PD C10PD 1_555 1_555
C10PD C15PD 1_555 1_555
C13PD C22VC 1_555 1_555
C15PD C21PD 1_555 1_555
C18PD C13PD 1_555 1_555
H5PD C18PD 1_555 1_555
C21PD C18PD 1_555 1_555
C22PD C21PD 1_555 1_555
H7PD C22PD 1_555 1_555
C26PD C22PD 1_555 1_555
H13PD C26PD 1_555 1_555
H14PD C26PD 1_555 1_555
H15PD C26PD 1_555 1_555
O3WC Mg2VC 1_555 1_555
O5WC C7WC 1_555 1_555
O9WC Mg2VC 1_555 1_555
C7WC C10WC 1_555 1_555
C10WC O9WC 1_555 1_555
C13WC C7WC 1_555 1_555
C15WC O3WC 1_555 1_555
C18WC C13WC 1_555 1_555
H5WC C18WC 1_555 1_555
C21WC C15WC 1_555 1_555
C22WC C13VC 1_555 1_555
H7WC C22WC 1_555 1_555
C26WC C22WC 1_555 1_555
H13WC C26WC 1_555 1_555
H14WC C26WC 1_555 1_555
H15WC C26WC 1_555 1_555
O3VD C15VD 1_555 1_555
O5VD C7VD 1_555 1_555
O9VD C10VD 1_555 1_555
C7VD C10VD 1_555 1_555
C10VD C15VD 1_555 1_555
C13VD C22PD 1_555 1_555
C15VD C21VD 1_555 1_555
C18VD C13VD 1_555 1_555
H5VD C18VD 1_555 1_555
C21VD C18VD 1_555 1_555
C22VD C13WC 1_555 1_555
H7VD C22VD 1_555 1_555
C26VD C22VD 1_555 1_555
H13VD C26VD 1_555 1_555
H14VD C26VD 1_555 1_555
H15VD C26VD 1_555 1_555
Mg1WC O6WC 1_555 1_555
Mg2WC O4WC 1_555 1_555
Mg3WC O2WC 1_555 1_555
O10WC Mg1WC 1_555 1_555
O11WC Mg2WC 1_555 1_555
O12WC Mg3WC 1_555 1_555
O13WC Mg1WC 1_555 1_555
O14WC Mg2WC 1_555 1_555
O15WC Mg3WC 1_555 1_555
Mg1PD O1VC 1_555 1_555
Mg2PD O4PD 1_555 1_555
Mg3PD O2PD 1_555 1_555
O10PD Mg1PD 1_555 1_555
O11PD Mg2PD 1_555 1_555
O12PD Mg3PD 1_555 1_555
O13PD Mg1PD 1_555 1_555
O14PD Mg2PD 1_555 1_555
O15PD Mg3PD 1_555 1_555
Mg1VD O6VD 1_555 1_555
Mg2VD O4VD 1_555 1_555
Mg3VD O2VD 1_555 1_555
O10VD Mg1VD 1_555 1_555
O11VD Mg2VD 1_555 1_555
O12VD Mg3VD 1_555 1_555
O13VD Mg1VD 1_555 1_555
O14VD Mg2VD 1_555 1_555
O15VD Mg3VD 1_555 1_555
Mg2 O8 1_555 1_555
O7 Mg1F 1_555 1_555
O9 Mg2F 1_555 1_555
C3 C19 1_555 1_555
C6 C16 1_555 1_555
C7 C10 1_555 1_555
C9 C14 1_555 1_555
C12 C16 1_555 1_555
C14 C20 1_555 1_555
C18 C21 1_555 1_555
O7WC Mg1VC 1_555 1_555
O7WC Mg3WC 1_555 1_555
O8WC Mg1WC 1_555 1_555
O8WC Mg2WC 1_555 1_555
C3WC C19WC 1_555 1_555
C8WC C11WC 1_555 1_555
C12WC C16WC 1_555 1_555
C14WC C20WC 1_555 1_555
O9F Mg3F 1_555 1_555
O9F Mg2CA 1_555 1_555
C7F C13F 1_555 1_555
O9BA Mg3BA 1_555 1_555
C10BA C15BA 1_555 1_555
C18BA C21BA 1_555 1_555
C21BA C22BA 1_555 1_555
O9CA Mg2BA 1_555 1_555
O9CA Mg3CA 1_555 1_555
C7CA C13CA 1_555 1_555
C21CA C22CA 1_555 1_555
Mg2F O8F 1_555 1_555
O7F Mg1CA 1_555 1_555
C2F C9F 1_555 1_555
C3F C19F 1_555 1_555
C3F C20F 1_555 1_555
C4F C12F 1_555 1_555
C6F C16F 1_555 1_555
C9F C14F 1_555 1_555
C12F C16F 1_555 1_555
C14F C20F 1_555 1_555
O6VC Mg1VC 1_555 1_555
O7VC Mg3VC 1_555 1_555
O7VC Mg1PD 1_555 1_555
O8VC Mg1VC 1_555 1_555
O8VC Mg2VC 1_555 1_555
C3VC C19VC 1_555 1_555
C8VC C11VC 1_555 1_555
C12VC C16VC 1_555 1_555
C14VC C20VC 1_555 1_555
Mg2BA O8BA 1_555 1_555
Mg3BA O7BA 1_555 1_555
C2BA C9BA 1_555 1_555
C3BA C19BA 1_555 1_555
C4BA C12BA 1_555 1_555
C6BA C16BA 1_555 1_555
C8BA C11BA 1_555 1_555
C9BA C14BA 1_555 1_555
C12BA C16BA 1_555 1_555
C14BA C20BA 1_555 1_555
O1VD Mg1WC 1_555 1_555
O7VD Mg1WC 1_555 1_555
O7VD Mg3VD 1_555 1_555
O8VD Mg1VD 1_555 1_555
O8VD Mg2VD 1_555 1_555
C3VD C19VD 1_555 1_555
C8VD C11VD 1_555 1_555
C12VD C16VD 1_555 1_555
C14VD C20VD 1_555 1_555
Mg2CA O8CA 1_555 1_555
Mg3CA O7CA 1_555 1_555
C2CA C9CA 1_555 1_555
C3CA C19CA 1_555 1_555
C3CA C20CA 1_555 1_555
C4CA C12CA 1_555 1_555
C6CA C16CA 1_555 1_555
C8CA C11CA 1_555 1_555
C9CA C14CA 1_555 1_555
C12CA C16CA 1_555 1_555
C14CA C20CA 1_555 1_555
O1PD Mg1VD 1_555 1_555
O6PD Mg1PD 1_555 1_555
O7PD Mg3PD 1_555 1_555
O7PD Mg1VD 1_555 1_555
O8PD Mg1PD 1_555 1_555
O8PD Mg2PD 1_555 1_555
C3PD C19PD 1_555 1_555
C8PD C11PD 1_555 1_555
C12PD C16PD 1_555 1_555
C14PD C20PD 1_555 1_555
O3VC Mg2PD 1_555 1_555
O9VC Mg2PD 1_555 1_555
C7VC C10VC 1_555 1_555
C18VC C21VC 1_555 1_555
O3PD Mg2VD 1_555 1_555
O5PD Mg3PD 1_555 1_555
O9PD Mg3PD 1_555 1_555
O9PD Mg2VD 1_555 1_555
C7PD C13PD 1_555 1_555
O5WC Mg3WC 1_555 1_555
O9WC Mg3WC 1_555 1_555
C10WC C15WC 1_555 1_555
C18WC C21WC 1_555 1_555
C21WC C22WC 1_555 1_555
O3VD Mg2WC 1_555 1_555
O5VD Mg3VD 1_555 1_555
O9VD Mg2WC 1_555 1_555
O9VD Mg3VD 1_555 1_555
C7VD C13VD 1_555 1_555
C21VD C22VD 1_555 1_555

#END
