
#######################################################################
#
#                 Cambridge Crystallographic Data Centre
#                                CCDC 
#
#######################################################################
#
# If this CIF has been generated from an entry in the Cambridge 
# Structural Database, then it will include bibliographic, chemical, 
# crystal, experimental, refinement or atomic coordinate data resulting 
# from the CCDC's data processing and validation procedures.
#
#######################################################################

data_NEDBIK
_chemical_formula_moiety         'C300 H452 Mg24 N4 O120'
_chemical_name_systematic        
'hexakis(\m-C-pentylpyrogallol[4]arene)-tetrakis(dimethylformamide)-tetratetracontakis(aqua)-tetracosa-magnesium(ii) unknown solvate'
_symmetry_cell_setting           monoclinic
_symmetry_space_group_name_H-M   'C 2/m'
_symmetry_Int_Tables_number      12
_space_group_name_Hall           '-C 2y'
loop_
_symmetry_equiv_pos_site_id
_symmetry_equiv_pos_as_xyz
1 x,y,z
2 -x,y,-z
3 1/2+x,1/2+y,z
4 1/2-x,1/2+y,-z
5 -x,-y,-z
6 x,-y,z
7 1/2-x,1/2-y,-z
8 1/2+x,1/2-y,z
_cell_length_a                   27.914(6)
_cell_length_b                   36.005(7)
_cell_length_c                   27.302(5)
_cell_angle_alpha                90
_cell_angle_beta                 126.25(3)
_cell_angle_gamma                90
_cell_volume                     22128.6
_exptl_crystal_colour            blue
_exptl_crystal_description       block
_cell_formula_units_Z            2
loop_
_atom_site_label
_atom_site_type_symbol
_atom_site_fract_x
_atom_site_fract_y
_atom_site_fract_z
Mg1 Mg 0.64316(10) 0.5000 0.83538(10)
Mg2 Mg 0.49922(7) 0.55281(5) 0.76892(8)
Mg3 Mg 0.79950(14) 0.5000 0.80960(12)
Mg4 Mg 0.39540(8) 0.64615(5) 0.61401(7)
Mg5 Mg 0.42193(9) 0.69959(5) 0.51418(7)
Mg6 Mg 0.82506(10) 0.55310(5) 0.70795(8)
Mg7 Mg 0.28405(10) 0.63941(11) 0.44286(9)
O1 O 0.78519(15) 0.54175(9) 0.85089(14)
O2 O 0.70424(14) 0.54180(9) 0.86358(15)
O3 O 0.52545(15) 0.60720(9) 0.77830(15)
O4 O 0.58683(15) 0.54369(9) 0.80875(17)
O5 O 0.58592(17) 0.71970(10) 0.56055(15)
O6 O 0.41108(15) 0.56545(11) 0.72617(15)
O7 O 0.76500(16) 0.65466(12) 0.64657(15)
O8 O 0.35916(16) 0.61229(12) 0.64385(15)
O9 O 0.47122(15) 0.65631(10) 0.70013(14)
O10 O 0.4688(2) 0.5000 0.7570(2)
O11 O 0.43654(18) 0.68032(11) 0.59076(15)
O12 O 0.82208(17) 0.60744(11) 0.72815(16)
O13 O 0.15928(17) 0.56522(12) 0.35422(16)
O14 O 0.21336(16) 0.61416(12) 0.43247(15)
O15 O 0.65914(17) 0.67736(11) 0.55068(15)
O16 O 0.50612(19) 0.72176(11) 0.57520(15)
O17 O 0.31904(17) 0.63374(12) 0.53167(15)
O18 O 0.8117(2) 0.54375(11) 0.77188(19)
O19 O 0.1695(3) 0.5000 0.3138(2)
O20 O 0.6634(3) 0.5000 0.9243(3)
O21 O 0.3840(3) 0.74879(13) 0.5181(2)
C1 C 0.6168(2) 0.64291(12) 0.82801(18)
O22 O 0.5154(2) 0.55752(14) 0.8562(2)
C2 C 0.5856(2) 0.60974(13) 0.8102(2)
C3 C 0.77663(19) 0.60815(12) 0.90568(18)
H1 H 0.7906 0.5836 0.9267
C4 C 0.6781(2) 0.57578(12) 0.85402(19)
C5 C 0.7102(2) 0.60896(12) 0.87303(18)
C6 C 0.7945(2) 0.57552(13) 0.83588(19)
C7 C 0.6167(2) 0.57537(12) 0.8241(2)
C8 C 0.6782(2) 0.64173(12) 0.85884(18)
H2 H 0.6993 0.6646 0.8708
C9 C 0.7997(2) 0.64198(13) 0.83943(19)
H3 H 0.7970 0.6647 0.8553
C10 C 0.6771(2) 0.68911(14) 0.6058(2)
C11 C 0.79177(19) 0.60894(13) 0.86072(18)
C12 C 0.5625(2) 0.69281(13) 0.7497(2)
C13 C 0.6408(2) 0.71171(13) 0.6129(2)
C14 C 0.5267(3) 0.71414(13) 0.6338(2)
C15 C 0.8114(2) 0.64354(14) 0.79625(19)
C16 C 0.8141(2) 0.60942(16) 0.7721(2)
C17 C 0.5818(2) 0.67991(12) 0.81199(19)
H4 H 0.5449 0.6743 0.8086
C18 C 0.5083(2) 0.67979(13) 0.6984(2)
C19 C 0.8068(2) 0.57606(14) 0.7928(2)
C20 C 0.4886(2) 0.69103(14) 0.6397(2)
C21 C 0.5807(3) 0.72681(13) 0.6841(2)
C22 C 0.3788(2) 0.53395(15) 0.7121(2)
C23 C 0.1497(2) 0.53389(17) 0.3750(2)
C24 C 0.2271(2) 0.60330(18) 0.4874(2)
C25 C 0.8099(2) 0.63791(14) 0.95571(19)
H5 H 0.8527 0.6372 0.9732
H6 H 0.7944 0.6628 0.9378
O23 O 0.8908(3) 0.5000 0.8812(3)
C26 C 0.5969(2) 0.71598(12) 0.7409(2)
H7 H 0.6336 0.7248 0.7758
O24 O 0.3537(3) 0.69180(19) 0.6261(3)
C27 C 0.1556(3) 0.5000 0.3529(3)
C28 C 0.4094(3) 0.5000 0.7272(3)
C29 C 0.6603(3) 0.72530(14) 0.6689(2)
C30 C 0.3023(2) 0.60261(17) 0.5967(2)
C31 C 0.7338(2) 0.67798(15) 0.6571(2)
C32 C 0.8158(2) 0.67972(16) 0.7700(2)
H8 H 0.8403 0.6742 0.7552
C33 C 0.2835(2) 0.61361(17) 0.5381(2)
C34 C 0.7177(2) 0.71447(13) 0.7192(2)
H9 H 0.7317 0.7235 0.7582
C35 C 0.1339(2) 0.53393(19) 0.4144(2)
C36 C 0.6215(2) 0.75042(13) 0.6761(2)
H10 H 0.5948 0.7638 0.6365
C37 C 0.1879(2) 0.58374(18) 0.4934(2)
O25 O 0.6232(4) 0.5000 0.7459(3)
C38 C 0.2633(2) 0.58188(18) 0.6041(2)
C39 C 0.2885(3) 0.5000 0.6710(3)
H11 H 0.2470 0.5000 0.6522
C40 C 0.1274(2) 0.5712(2) 0.4371(2)
H12 H 0.1151 0.5899 0.4046
C41 C 0.3178(2) 0.53430(17) 0.6842(2)
C42 C 0.6291(3) 0.69825(14) 0.9224(2)
H13 H 0.5912 0.6924 0.9162
H14 H 0.6538 0.6755 0.9372
C43 C 0.6164(3) 0.70983(13) 0.8619(2)
H15 H 0.6545 0.7149 0.8681
H16 H 0.5931 0.7331 0.8480
C44 C 0.7549(2) 0.69133(14) 0.7148(2)
C45 C 0.2848(2) 0.5708(2) 0.6677(2)
H17 H 0.3140 0.5901 0.6963
C46 C 0.1262(3) 0.5000 0.4340(3)
H18 H 0.1155 0.5000 0.4612
C47 C 0.8484(3) 0.71084(17) 0.8178(2)
H19 H 0.8458 0.7340 0.7968
H20 H 0.8274 0.7152 0.8364
C48 C 0.2076(2) 0.57384(19) 0.5523(2)
H21 H 0.1808 0.5608 0.5568
C49 C 0.6552(3) 0.78042(14) 0.7246(2)
H22 H 0.6829 0.7686 0.7647
H23 H 0.6268 0.7957 0.7263
O26 O 0.9210(3) 0.5553(2) 0.7784(3)
C50 C 0.6612(3) 0.72864(16) 0.9698(3)
H24 H 0.6986 0.7346 0.9749
H25 H 0.6362 0.7513 0.9544
C51 C 0.8022(3) 0.63119(17) 1.0064(2)
H26 H 0.7593 0.6313 0.9884
H27 H 0.8180 0.6063 1.0242
O27 O 0.4388(4) 0.60176(18) 0.6009(4)
O28 O 0.4844(4) 0.5470(2) 0.6824(3)
O29 O 0.4595(3) 0.64732(18) 0.5116(4)
C52 C 0.0778(2) 0.5707(3) 0.4467(3)
H28 H 0.0851 0.5498 0.4740
H29 H 0.0796 0.5940 0.4670
C53 C 0.2337(3) 0.5699(2) 0.6750(3)
H30 H 0.2127 0.5941 0.6615
H31 H 0.2049 0.5505 0.6480
O30 O 0.7121(5) 0.5000 0.7275(4)
C54 C 0.6758(4) 0.71938(19) 1.0302(3)
H32 H 0.7033 0.6979 1.0472
H33 H 0.6389 0.7118 1.0250
O31 O 0.3258(3) 0.5939(3) 0.4386(4)
O32 O 0.7306(3) 0.5504(3) 0.6443(4)
C55 C 0.2546(4) 0.5624(3) 0.7397(3)
H34 H 0.2810 0.5828 0.7667
H35 H 0.2773 0.5389 0.7545
C56 C 0.0161(3) 0.5666(4) 0.3875(4)
H36 H 0.0108 0.5408 0.3724
H37 H 0.0123 0.5835 0.3568
C57 C 0.8336(4) 0.6601(2) 1.0571(3)
H38 H 0.8761 0.6611 1.0736
H39 H 0.8161 0.6849 1.0399
C58 C 0.9126(3) 0.7032(3) 0.8676(4)
H40 H 0.9147 0.6809 0.8900
H41 H 0.9327 0.6970 0.8486
N1 N 0.3442(5) 0.8055(3) 0.4864(4)
C59 C 0.6902(4) 0.80538(19) 0.7106(3)
H42 H 0.7177 0.7896 0.7080
H43 H 0.6619 0.8167 0.6701
C60 C 0.7047(6) 0.7521(3) 1.0761(4)
H44 H 0.7132 0.7443 1.1149
H45 H 0.7418 0.7593 1.0823
H46 H 0.6774 0.7733 1.0601
C61 C 0.3604(5) 0.7718(3) 0.4817(5)
C62 C 0.8286(7) 0.6518(3) 1.1075(5)
H47 H 0.8492 0.6281 1.1271
H48 H 0.7862 0.6488 1.0906
C63 C 0.1989(5) 0.5598(3) 0.7406(5)
H49 H 0.1736 0.5819 0.7200
H50 H 0.1754 0.5376 0.7171
C64 C 0.7258(7) 0.8361(3) 0.7557(5)
H51 H 0.7418 0.8523 0.7392
H52 H 0.6986 0.8513 0.7595
C65 C 0.3142(12) 0.8343(7) 0.4373(12)
H53 H 0.3072 0.8567 0.4526
H54 H 0.3397 0.8405 0.4247
H55 H 0.2762 0.8246 0.4024
C66 C 0.2140(8) 0.5573(6) 0.8021(7)
H56 H 0.2357 0.5799 0.8253
H57 H 0.2402 0.5356 0.8236
C67 C 0.9454(6) 0.7323(5) 0.9107(7)
H58 H 0.9250 0.7401 0.9288
H59 H 0.9857 0.7234 0.9438
C68 C 0.7764(10) 0.8237(5) 0.8179(6)
H60 H 0.7582 0.8144 0.8376
H61 H 0.7936 0.8017 0.8117
C69 C 0.8237(11) 0.8450(7) 0.8605(11)
H62 H 0.8504 0.8302 0.8972
H63 H 0.8451 0.8536 0.8443
H64 H 0.8094 0.8665 0.8705
C70 C 0.1562(8) 0.5531(5) 0.7982(9)
H65 H 0.1666 0.5515 0.8393
H66 H 0.1306 0.5748 0.7773
H67 H 0.1351 0.5305 0.7755
C71 C 0.8554(11) 0.6825(6) 1.1549(10)
H68 H 0.8513 0.6761 1.1872
H69 H 0.8976 0.6853 1.1723
H70 H 0.8346 0.7059 1.1358
C72 C 0.9678(11) 0.7425(7) 0.8384(11)
H71 H 0.9717 0.7618 0.8157
H72 H 1.0056 0.7294 0.8648
H73 H 0.9367 0.7249 0.8100
C73 C 0.9496(12) 0.7622(7) 0.8810(11)
H74 H 0.9806 0.7799 0.9104
H75 H 0.9112 0.7755 0.8552
C74 C -0.0386(11) 0.6209(7) 0.4050(12)
H76 H 0.0001 0.6313 0.4386
H77 H -0.0535 0.6350 0.3674
C75 C -0.0841(11) 0.6218(7) 0.4203(12)
H78 H -0.0905 0.6476 0.4268
H79 H -0.1218 0.6111 0.3866
H80 H -0.0686 0.6074 0.4573
C76 C -0.0329(11) 0.5757(7) 0.3955(12)
H81 H -0.0246 0.5620 0.4312
H82 H -0.0714 0.5668 0.3593
C77 C 0.3435(14) 0.8125(9) 0.5343(15)
H83 H 0.3308 0.8382 0.5322
H84 H 0.3158 0.7956 0.5337
H85 H 0.3835 0.8090 0.5719
O33 O 0.2435(6) 0.6996(3) 0.4513(6)
O6E O 0.41108(15) 0.43455(11) 0.72617(15)
O8E O 0.35916(16) 0.38771(12) 0.64385(15)
O13E O 0.15928(17) 0.43478(12) 0.35422(16)
O14E O 0.21336(16) 0.38584(12) 0.43247(15)
O17E O 0.31904(17) 0.36626(12) 0.53167(15)
C22E C 0.3788(2) 0.46605(15) 0.7121(2)
C23E C 0.1497(2) 0.46611(17) 0.3750(2)
C24E C 0.2271(2) 0.39670(18) 0.4874(2)
C30E C 0.3023(2) 0.39739(17) 0.5967(2)
C33E C 0.2835(2) 0.38639(17) 0.5381(2)
C35E C 0.1339(2) 0.46607(19) 0.4144(2)
C37E C 0.1879(2) 0.41626(18) 0.4934(2)
C38E C 0.2633(2) 0.41812(18) 0.6041(2)
C40E C 0.1274(2) 0.4288(2) 0.4371(2)
H12E H 0.1151 0.4101 0.4046
C41E C 0.3178(2) 0.46570(17) 0.6842(2)
C45E C 0.2848(2) 0.4292(2) 0.6677(2)
H17E H 0.3140 0.4099 0.6963
C48E C 0.2076(2) 0.42616(19) 0.5523(2)
H21E H 0.1808 0.4392 0.5568
C52E C 0.0778(2) 0.4293(3) 0.4467(3)
H28E H 0.0851 0.4502 0.4740
H29E H 0.0796 0.4060 0.4670
C53E C 0.2337(3) 0.4301(2) 0.6750(3)
H30E H 0.2127 0.4059 0.6615
H31E H 0.2049 0.4495 0.6480
C55E C 0.2546(4) 0.4376(3) 0.7397(3)
H34E H 0.2810 0.4172 0.7667
H35E H 0.2773 0.4611 0.7545
C56E C 0.0161(3) 0.4334(4) 0.3875(4)
H36E H 0.0108 0.4592 0.3724
H37E H 0.0123 0.4165 0.3568
C63E C 0.1989(5) 0.4402(3) 0.7406(5)
H49E H 0.1736 0.4181 0.7200
H50E H 0.1754 0.4624 0.7171
C66E C 0.2140(8) 0.4427(6) 0.8021(7)
H56E H 0.2357 0.4201 0.8253
H57E H 0.2402 0.4644 0.8236
C70E C 0.1562(8) 0.4469(5) 0.7982(9)
H65E H 0.1666 0.4485 0.8393
H66E H 0.1306 0.4252 0.7773
H67E H 0.1351 0.4695 0.7755
C74E C -0.0386(11) 0.3791(7) 0.4050(12)
H76E H 0.0001 0.3687 0.4386
H77E H -0.0535 0.3650 0.3674
C75E C -0.0841(11) 0.3782(7) 0.4203(12)
H78E H -0.0905 0.3524 0.4268
H79E H -0.1218 0.3889 0.3866
H80E H -0.0686 0.3926 0.4573
C76E C -0.0329(11) 0.4243(7) 0.3955(12)
H81E H -0.0246 0.4380 0.4312
H82E H -0.0714 0.4332 0.3593
Mg1A Mg 0.35684(10) 0.5000 0.16462(10)
Mg2A Mg 0.50078(7) 0.55281(5) 0.23108(8)
Mg3A Mg 0.20050(14) 0.5000 0.19040(12)
Mg4A Mg 0.60460(8) 0.64615(5) 0.38599(7)
Mg5A Mg 0.57807(9) 0.69959(5) 0.48582(7)
Mg6A Mg 0.17494(10) 0.55310(5) 0.29205(8)
Mg7A Mg 0.71595(10) 0.63941(11) 0.55714(9)
O1A O 0.21481(15) 0.54175(9) 0.14911(14)
O2A O 0.29576(14) 0.54180(9) 0.13642(15)
O3A O 0.47455(15) 0.60720(9) 0.22170(15)
O4A O 0.41317(15) 0.54369(9) 0.19125(17)
O5A O 0.41408(17) 0.71970(10) 0.43945(15)
O6A O 0.58892(15) 0.56545(11) 0.27383(15)
O7A O 0.23500(16) 0.65466(12) 0.35343(15)
O8A O 0.64084(16) 0.61229(12) 0.35615(15)
O9A O 0.52878(15) 0.65631(10) 0.29987(14)
O10A O 0.5312(2) 0.5000 0.2430(2)
O11A O 0.56346(18) 0.68032(11) 0.40924(15)
O12A O 0.17792(17) 0.60744(11) 0.27185(16)
O13A O 0.84072(17) 0.56522(12) 0.64578(16)
O14A O 0.78664(16) 0.61416(12) 0.56753(15)
O15A O 0.34086(17) 0.67736(11) 0.44932(15)
O16A O 0.49388(19) 0.72176(11) 0.42480(15)
O17A O 0.68096(17) 0.63374(12) 0.46833(15)
O18A O 0.1883(2) 0.54375(11) 0.22812(19)
O19A O 0.8305(3) 0.5000 0.6862(2)
O20A O 0.3366(3) 0.5000 0.0757(3)
O21A O 0.6160(3) 0.74879(13) 0.4819(2)
C1A C 0.3832(2) 0.64291(12) 0.17199(18)
O22A O 0.4846(2) 0.55752(14) 0.1438(2)
C2A C 0.4144(2) 0.60974(13) 0.1898(2)
C3A C 0.22337(19) 0.60815(12) 0.09432(18)
H1A H 0.2094 0.5836 0.0733
C4A C 0.3219(2) 0.57578(12) 0.14598(19)
C5A C 0.2898(2) 0.60896(12) 0.12697(18)
C6A C 0.2055(2) 0.57552(13) 0.16412(19)
C7A C 0.3833(2) 0.57537(12) 0.1759(2)
C8A C 0.3218(2) 0.64173(12) 0.14116(18)
H2A H 0.3007 0.6646 0.1292
C9A C 0.2003(2) 0.64198(13) 0.16057(19)
H3A H 0.2030 0.6647 0.1447
C10A C 0.3229(2) 0.68911(14) 0.3942(2)
C11A C 0.20823(19) 0.60894(13) 0.13928(18)
C12A C 0.4375(2) 0.69281(13) 0.2503(2)
C13A C 0.3592(2) 0.71171(13) 0.3871(2)
C14A C 0.4733(3) 0.71414(13) 0.3662(2)
C15A C 0.1886(2) 0.64354(14) 0.20375(19)
C16A C 0.1859(2) 0.60942(16) 0.2279(2)
C17A C 0.4182(2) 0.67991(12) 0.18801(19)
H4A H 0.4551 0.6743 0.1914
C18A C 0.4917(2) 0.67979(13) 0.3016(2)
C19A C 0.1932(2) 0.57606(14) 0.2072(2)
C20A C 0.5114(2) 0.69103(14) 0.3603(2)
C21A C 0.4193(3) 0.72681(13) 0.3159(2)
C22A C 0.6212(2) 0.53395(15) 0.2879(2)
C23A C 0.8503(2) 0.53389(17) 0.6250(2)
C24A C 0.7729(2) 0.60330(18) 0.5126(2)
C25A C 0.1901(2) 0.63791(14) 0.04429(19)
H5A H 0.1473 0.6372 0.0268
H6A H 0.2056 0.6628 0.0622
O23A O 0.1092(3) 0.5000 0.1188(3)
C26A C 0.4031(2) 0.71598(12) 0.2591(2)
H7A H 0.3664 0.7248 0.2242
O24A O 0.6463(3) 0.69180(19) 0.3739(3)
C27A C 0.8444(3) 0.5000 0.6471(3)
C28A C 0.5906(3) 0.5000 0.2728(3)
C29A C 0.3397(3) 0.72530(14) 0.3311(2)
C30A C 0.6977(2) 0.60261(17) 0.4033(2)
C31A C 0.2662(2) 0.67798(15) 0.3429(2)
C32A C 0.1842(2) 0.67972(16) 0.2300(2)
H8A H 0.1597 0.6742 0.2448
C33A C 0.7165(2) 0.61361(17) 0.4619(2)
C34A C 0.2823(2) 0.71447(13) 0.2808(2)
H9A H 0.2683 0.7235 0.2418
C35A C 0.8661(2) 0.53393(19) 0.5856(2)
C36A C 0.3785(2) 0.75042(13) 0.3239(2)
H10A H 0.4052 0.7638 0.3635
C37A C 0.8121(2) 0.58374(18) 0.5066(2)
O25A O 0.3768(4) 0.5000 0.2541(3)
C38A C 0.7367(2) 0.58188(18) 0.3959(2)
C39A C 0.7115(3) 0.5000 0.3290(3)
H11A H 0.7530 0.5000 0.3478
C40A C 0.8726(2) 0.5712(2) 0.5629(2)
H12A H 0.8849 0.5899 0.5954
C41A C 0.6822(2) 0.53430(17) 0.3158(2)
C42A C 0.3709(3) 0.69825(14) 0.0776(2)
H13A H 0.4088 0.6924 0.0838
H14A H 0.3462 0.6755 0.0628
C43A C 0.3836(3) 0.70983(13) 0.1381(2)
H15A H 0.3455 0.7149 0.1319
H16A H 0.4069 0.7331 0.1520
C44A C 0.2451(2) 0.69133(14) 0.2852(2)
C45A C 0.7152(2) 0.5708(2) 0.3323(2)
H17A H 0.6860 0.5901 0.3037
C46A C 0.8738(3) 0.5000 0.5660(3)
H18A H 0.8845 0.5000 0.5388
C47A C 0.1516(3) 0.71084(17) 0.1822(2)
H19A H 0.1542 0.7340 0.2032
H20A H 0.1726 0.7152 0.1636
C48A C 0.7924(2) 0.57384(19) 0.4477(2)
H21A H 0.8192 0.5608 0.4432
C49A C 0.3448(3) 0.78042(14) 0.2754(2)
H22A H 0.3171 0.7686 0.2353
H23A H 0.3732 0.7957 0.2737
O26A O 0.0790(3) 0.5553(2) 0.2216(3)
C50A C 0.3388(3) 0.72864(16) 0.0302(3)
H24A H 0.3014 0.7346 0.0251
H25A H 0.3638 0.7513 0.0456
C51A C 0.1978(3) 0.63119(17) -0.0064(2)
H26A H 0.2407 0.6313 0.0116
H27A H 0.1820 0.6063 -0.0242
O27A O 0.5612(4) 0.60176(18) 0.3991(4)
O28A O 0.5156(4) 0.5470(2) 0.3176(3)
O29A O 0.5405(3) 0.64732(18) 0.4884(4)
C52A C 0.9222(2) 0.5707(3) 0.5533(3)
H28A H 0.9149 0.5498 0.5260
H29A H 0.9204 0.5940 0.5330
C53A C 0.7663(3) 0.5699(2) 0.3250(3)
H30A H 0.7873 0.5941 0.3385
H31A H 0.7951 0.5505 0.3520
O30A O 0.2879(5) 0.5000 0.2725(4)
C54A C 0.3242(4) 0.71938(19) -0.0302(3)
H32A H 0.2967 0.6979 -0.0472
H33A H 0.3611 0.7118 -0.0250
O31A O 0.6742(3) 0.5939(3) 0.5614(4)
O32A O 0.2694(3) 0.5504(3) 0.3557(4)
C55A C 0.7454(4) 0.5624(3) 0.2603(3)
H34A H 0.7190 0.5828 0.2333
H35A H 0.7227 0.5389 0.2455
C56A C 0.9839(3) 0.5666(4) 0.6125(4)
H36A H 0.9892 0.5408 0.6276
H37A H 0.9877 0.5835 0.6432
C57A C 0.1664(4) 0.6601(2) -0.0571(3)
H38A H 0.1239 0.6611 -0.0736
H39A H 0.1839 0.6849 -0.0399
C58A C 0.0874(3) 0.7032(3) 0.1324(4)
H40A H 0.0853 0.6809 0.1100
H41A H 0.0673 0.6970 0.1514
N1A N 0.6558(5) 0.8055(3) 0.5136(4)
C59A C 0.3098(4) 0.80538(19) 0.2894(3)
H42A H 0.2823 0.7896 0.2920
H43A H 0.3381 0.8167 0.3299
C60A C 0.2953(6) 0.7521(3) -0.0761(4)
H44A H 0.2868 0.7443 -0.1149
H45A H 0.2582 0.7593 -0.0823
H46A H 0.3226 0.7733 -0.0601
C61A C 0.6396(5) 0.7718(3) 0.5183(5)
C62A C 0.1714(7) 0.6518(3) -0.1075(5)
H47A H 0.1508 0.6281 -0.1271
H48A H 0.2138 0.6488 -0.0906
C63A C 0.8011(5) 0.5598(3) 0.2594(5)
H49A H 0.8264 0.5819 0.2800
H50A H 0.8246 0.5376 0.2829
C64A C 0.2742(7) 0.8361(3) 0.2443(5)
H51A H 0.2582 0.8523 0.2608
H52A H 0.3014 0.8513 0.2405
C65A C 0.6858(12) 0.8343(7) 0.5627(12)
H53A H 0.6928 0.8567 0.5474
H54A H 0.6603 0.8405 0.5753
H55A H 0.7238 0.8246 0.5976
C66A C 0.7860(8) 0.5573(6) 0.1979(7)
H56A H 0.7643 0.5799 0.1747
H57A H 0.7598 0.5356 0.1764
C67A C 0.0546(6) 0.7323(5) 0.0893(7)
H58A H 0.0750 0.7401 0.0712
H59A H 0.0143 0.7234 0.0562
C68A C 0.2236(10) 0.8237(5) 0.1821(6)
H60A H 0.2418 0.8144 0.1624
H61A H 0.2064 0.8017 0.1883
C69A C 0.1763(11) 0.8450(7) 0.1395(11)
H62A H 0.1496 0.8302 0.1028
H63A H 0.1549 0.8536 0.1557
H64A H 0.1906 0.8665 0.1295
C70A C 0.8438(8) 0.5531(5) 0.2018(9)
H65A H 0.8334 0.5515 0.1607
H66A H 0.8694 0.5748 0.2227
H67A H 0.8649 0.5305 0.2245
C71A C 0.1446(11) 0.6825(6) -0.1549(10)
H68A H 0.1487 0.6761 -0.1872
H69A H 0.1024 0.6853 -0.1723
H70A H 0.1654 0.7059 -0.1358
C72A C 0.0322(11) 0.7425(7) 0.1616(11)
H71A H 0.0283 0.7618 0.1843
H72A H -0.0056 0.7294 0.1352
H73A H 0.0633 0.7249 0.1900
C73A C 0.0504(12) 0.7622(7) 0.1190(11)
H74A H 0.0194 0.7799 0.0896
H75A H 0.0888 0.7755 0.1448
C74A C 1.0386(11) 0.6209(7) 0.5950(12)
H76A H 0.9999 0.6313 0.5614
H77A H 1.0535 0.6350 0.6326
C75A C 1.0841(11) 0.6218(7) 0.5797(12)
H78A H 1.0905 0.6476 0.5732
H79A H 1.1218 0.6111 0.6134
H80A H 1.0686 0.6074 0.5427
C76A C 1.0329(11) 0.5757(7) 0.6045(12)
H81A H 1.0246 0.5620 0.5688
H82A H 1.0714 0.5668 0.6407
C77A C 0.6565(14) 0.8125(9) 0.4657(15)
H83A H 0.6692 0.8382 0.4678
H84A H 0.6842 0.7956 0.4663
H85A H 0.6165 0.8090 0.4281
O33A O 0.7565(6) 0.6996(3) 0.5487(6)
O6D O 0.58892(15) 0.43455(11) 0.27383(15)
O8D O 0.64084(16) 0.38771(12) 0.35615(15)
O13D O 0.84072(17) 0.43478(12) 0.64578(16)
O14D O 0.78664(16) 0.38584(12) 0.56753(15)
O17D O 0.68096(17) 0.36626(12) 0.46833(15)
C22D C 0.6212(2) 0.46605(15) 0.2879(2)
C23D C 0.8503(2) 0.46611(17) 0.6250(2)
C24D C 0.7729(2) 0.39670(18) 0.5126(2)
C30D C 0.6977(2) 0.39739(17) 0.4033(2)
C33D C 0.7165(2) 0.38639(17) 0.4619(2)
C35D C 0.8661(2) 0.46607(19) 0.5856(2)
C37D C 0.8121(2) 0.41626(18) 0.5066(2)
C38D C 0.7367(2) 0.41812(18) 0.3959(2)
C40D C 0.8726(2) 0.4288(2) 0.5629(2)
H12D H 0.8849 0.4101 0.5954
C41D C 0.6822(2) 0.46570(17) 0.3158(2)
C45D C 0.7152(2) 0.4292(2) 0.3323(2)
H17D H 0.6860 0.4099 0.3037
C48D C 0.7924(2) 0.42616(19) 0.4477(2)
H21D H 0.8192 0.4392 0.4432
C52D C 0.9222(2) 0.4293(3) 0.5533(3)
H28D H 0.9149 0.4502 0.5260
H29D H 0.9204 0.4060 0.5330
C53D C 0.7663(3) 0.4301(2) 0.3250(3)
H30D H 0.7873 0.4059 0.3385
H31D H 0.7951 0.4495 0.3520
C55D C 0.7454(4) 0.4376(3) 0.2603(3)
H34D H 0.7190 0.4172 0.2333
H35D H 0.7227 0.4611 0.2455
C56D C 0.9839(3) 0.4334(4) 0.6125(4)
H36D H 0.9892 0.4592 0.6276
H37D H 0.9877 0.4165 0.6432
C63D C 0.8011(5) 0.4402(3) 0.2594(5)
H49D H 0.8264 0.4181 0.2800
H50D H 0.8246 0.4624 0.2829
C66D C 0.7860(8) 0.4427(6) 0.1979(7)
H56D H 0.7643 0.4201 0.1747
H57D H 0.7598 0.4644 0.1764
C70D C 0.8438(8) 0.4469(5) 0.2018(9)
H65D H 0.8334 0.4485 0.1607
H66D H 0.8694 0.4252 0.2227
H67D H 0.8649 0.4695 0.2245
C74D C 1.0386(11) 0.3791(7) 0.5950(12)
H76D H 0.9999 0.3687 0.5614
H77D H 1.0535 0.3650 0.6326
C75D C 1.0841(11) 0.3782(7) 0.5797(12)
H78D H 1.0905 0.3524 0.5732
H79D H 1.1218 0.3889 0.6134
H80D H 1.0686 0.3926 0.5427
C76D C 1.0329(11) 0.4243(7) 0.6045(12)
H81D H 1.0246 0.4380 0.5688
H82D H 1.0714 0.4332 0.6407
Mg2D Mg 0.50078(7) 0.44719(5) 0.23108(8)
Mg4D Mg 0.60460(8) 0.35385(5) 0.38599(7)
Mg5D Mg 0.57807(9) 0.30041(5) 0.48582(7)
Mg6D Mg 0.17494(10) 0.44690(5) 0.29205(8)
Mg7D Mg 0.71595(10) 0.36059(11) 0.55714(9)
O1D O 0.21481(15) 0.45825(9) 0.14911(14)
O2D O 0.29576(14) 0.45820(9) 0.13642(15)
O3D O 0.47455(15) 0.39280(9) 0.22170(15)
O4D O 0.41317(15) 0.45631(9) 0.19125(17)
O5D O 0.41408(17) 0.28030(10) 0.43945(15)
O7D O 0.23500(16) 0.34534(12) 0.35343(15)
O9D O 0.52878(15) 0.34369(10) 0.29987(14)
O11D O 0.56346(18) 0.31968(11) 0.40924(15)
O12D O 0.17792(17) 0.39256(11) 0.27185(16)
O15D O 0.34086(17) 0.32264(11) 0.44932(15)
O16D O 0.49388(19) 0.27824(11) 0.42480(15)
O18D O 0.1883(2) 0.45625(11) 0.22812(19)
O21D O 0.6160(3) 0.25121(13) 0.4819(2)
C1D C 0.3832(2) 0.35709(12) 0.17199(18)
O22D O 0.4846(2) 0.44248(14) 0.1438(2)
C2D C 0.4144(2) 0.39026(13) 0.1898(2)
C3D C 0.22337(19) 0.39185(12) 0.09432(18)
H1D H 0.2094 0.4164 0.0733
C4D C 0.3219(2) 0.42422(12) 0.14598(19)
C5D C 0.2898(2) 0.39104(12) 0.12697(18)
C6D C 0.2055(2) 0.42448(13) 0.16412(19)
C7D C 0.3833(2) 0.42463(12) 0.1759(2)
C8D C 0.3218(2) 0.35827(12) 0.14116(18)
H2D H 0.3007 0.3354 0.1292
C9D C 0.2003(2) 0.35802(13) 0.16057(19)
H3D H 0.2030 0.3353 0.1447
C10D C 0.3229(2) 0.31089(14) 0.3942(2)
C11D C 0.20823(19) 0.39106(13) 0.13928(18)
C12D C 0.4375(2) 0.30719(13) 0.2503(2)
C13D C 0.3592(2) 0.28829(13) 0.3871(2)
C14D C 0.4733(3) 0.28586(13) 0.3662(2)
C15D C 0.1886(2) 0.35646(14) 0.20375(19)
C16D C 0.1859(2) 0.39058(16) 0.2279(2)
C17D C 0.4182(2) 0.32009(12) 0.18801(19)
H4D H 0.4551 0.3257 0.1914
C18D C 0.4917(2) 0.32021(13) 0.3016(2)
C19D C 0.1932(2) 0.42394(14) 0.2072(2)
C20D C 0.5114(2) 0.30897(14) 0.3603(2)
C21D C 0.4193(3) 0.27319(13) 0.3159(2)
C25D C 0.1901(2) 0.36209(14) 0.04429(19)
H5D H 0.1473 0.3628 0.0268
H6D H 0.2056 0.3372 0.0622
C26D C 0.4031(2) 0.28402(12) 0.2591(2)
H7D H 0.3664 0.2752 0.2242
O24D O 0.6463(3) 0.30820(19) 0.3739(3)
C29D C 0.3397(3) 0.27470(14) 0.3311(2)
C31D C 0.2662(2) 0.32202(15) 0.3429(2)
C32D C 0.1842(2) 0.32028(16) 0.2300(2)
H8D H 0.1597 0.3258 0.2448
C34D C 0.2823(2) 0.28553(13) 0.2808(2)
H9D H 0.2683 0.2765 0.2418
C36D C 0.3785(2) 0.24958(13) 0.3239(2)
H10D H 0.4052 0.2362 0.3635
C42D C 0.3709(3) 0.30175(14) 0.0776(2)
H13D H 0.4088 0.3076 0.0838
H14D H 0.3462 0.3245 0.0628
C43D C 0.3836(3) 0.29017(13) 0.1381(2)
H15D H 0.3455 0.2851 0.1319
H16D H 0.4069 0.2669 0.1520
C44D C 0.2451(2) 0.30867(14) 0.2852(2)
C47D C 0.1516(3) 0.28916(17) 0.1822(2)
H19D H 0.1542 0.2660 0.2032
H20D H 0.1726 0.2848 0.1636
C49D C 0.3448(3) 0.21958(14) 0.2754(2)
H22D H 0.3171 0.2314 0.2353
H23D H 0.3732 0.2043 0.2737
O26D O 0.0790(3) 0.4447(2) 0.2216(3)
C50D C 0.3388(3) 0.27136(16) 0.0302(3)
H24D H 0.3014 0.2654 0.0251
H25D H 0.3638 0.2487 0.0456
C51D C 0.1978(3) 0.36881(17) -0.0064(2)
H26D H 0.2407 0.3687 0.0116
H27D H 0.1820 0.3937 -0.0242
O27D O 0.5612(4) 0.39824(18) 0.3991(4)
O28D O 0.5156(4) 0.4530(2) 0.3176(3)
O29D O 0.5405(3) 0.35268(18) 0.4884(4)
C54D C 0.3242(4) 0.28062(19) -0.0302(3)
H32D H 0.2967 0.3021 -0.0472
H33D H 0.3611 0.2882 -0.0250
O31D O 0.6742(3) 0.4061(3) 0.5614(4)
O32D O 0.2694(3) 0.4496(3) 0.3557(4)
C57D C 0.1664(4) 0.3399(2) -0.0571(3)
H38D H 0.1239 0.3389 -0.0736
H39D H 0.1839 0.3151 -0.0399
C58D C 0.0874(3) 0.2968(3) 0.1324(4)
H40D H 0.0853 0.3191 0.1100
H41D H 0.0673 0.3030 0.1514
N1D N 0.6558(5) 0.1945(3) 0.5136(4)
C59D C 0.3098(4) 0.19462(19) 0.2894(3)
H42D H 0.2823 0.2104 0.2920
H43D H 0.3381 0.1833 0.3299
C60D C 0.2953(6) 0.2479(3) -0.0761(4)
H44D H 0.2868 0.2557 -0.1149
H45D H 0.2582 0.2407 -0.0823
H46D H 0.3226 0.2267 -0.0601
C61D C 0.6396(5) 0.2282(3) 0.5183(5)
C62D C 0.1714(7) 0.3482(3) -0.1075(5)
H47D H 0.1508 0.3719 -0.1271
H48D H 0.2138 0.3512 -0.0906
C64D C 0.2742(7) 0.1639(3) 0.2443(5)
H51D H 0.2582 0.1477 0.2608
H52D H 0.3014 0.1487 0.2405
C65D C 0.6858(12) 0.1657(7) 0.5627(12)
H53D H 0.6928 0.1433 0.5474
H54D H 0.6603 0.1595 0.5753
H55D H 0.7238 0.1754 0.5976
C67D C 0.0546(6) 0.2677(5) 0.0893(7)
H58D H 0.0750 0.2599 0.0712
H59D H 0.0143 0.2766 0.0562
C68D C 0.2236(10) 0.1763(5) 0.1821(6)
H60D H 0.2418 0.1856 0.1624
H61D H 0.2064 0.1983 0.1883
C69D C 0.1763(11) 0.1550(7) 0.1395(11)
H62D H 0.1496 0.1698 0.1028
H63D H 0.1549 0.1464 0.1557
H64D H 0.1906 0.1335 0.1295
C71D C 0.1446(11) 0.3175(6) -0.1549(10)
H68D H 0.1487 0.3239 -0.1872
H69D H 0.1024 0.3147 -0.1723
H70D H 0.1654 0.2941 -0.1358
C72D C 0.0322(11) 0.2575(7) 0.1616(11)
H71D H 0.0283 0.2382 0.1843
H72D H -0.0056 0.2706 0.1352
H73D H 0.0633 0.2751 0.1900
C73D C 0.0504(12) 0.2378(7) 0.1190(11)
H74D H 0.0194 0.2201 0.0896
H75D H 0.0888 0.2245 0.1448
C77D C 0.6565(14) 0.1875(9) 0.4657(15)
H83D H 0.6692 0.1618 0.4678
H84D H 0.6842 0.2044 0.4663
H85D H 0.6165 0.1910 0.4281
O33D O 0.7565(6) 0.3004(3) 0.5487(6)
Mg2E Mg 0.49922(7) 0.44719(5) 0.76892(8)
Mg4E Mg 0.39540(8) 0.35385(5) 0.61401(7)
Mg5E Mg 0.42193(9) 0.30041(5) 0.51418(7)
Mg6E Mg 0.82506(10) 0.44690(5) 0.70795(8)
Mg7E Mg 0.28405(10) 0.36059(11) 0.44286(9)
O1E O 0.78519(15) 0.45825(9) 0.85089(14)
O2E O 0.70424(14) 0.45820(9) 0.86358(15)
O3E O 0.52545(15) 0.39280(9) 0.77830(15)
O4E O 0.58683(15) 0.45631(9) 0.80875(17)
O5E O 0.58592(17) 0.28030(10) 0.56055(15)
O7E O 0.76500(16) 0.34534(12) 0.64657(15)
O9E O 0.47122(15) 0.34369(10) 0.70013(14)
O11E O 0.43654(18) 0.31968(11) 0.59076(15)
O12E O 0.82208(17) 0.39256(11) 0.72815(16)
O15E O 0.65914(17) 0.32264(11) 0.55068(15)
O16E O 0.50612(19) 0.27824(11) 0.57520(15)
O18E O 0.8117(2) 0.45625(11) 0.77188(19)
O21E O 0.3840(3) 0.25121(13) 0.5181(2)
C1E C 0.6168(2) 0.35709(12) 0.82801(18)
O22E O 0.5154(2) 0.44248(14) 0.8562(2)
C2E C 0.5856(2) 0.39026(13) 0.8102(2)
C3E C 0.77663(19) 0.39185(12) 0.90568(18)
H1E H 0.7906 0.4164 0.9267
C4E C 0.6781(2) 0.42422(12) 0.85402(19)
C5E C 0.7102(2) 0.39104(12) 0.87303(18)
C6E C 0.7945(2) 0.42448(13) 0.83588(19)
C7E C 0.6167(2) 0.42463(12) 0.8241(2)
C8E C 0.6782(2) 0.35827(12) 0.85884(18)
H2E H 0.6993 0.3354 0.8708
C9E C 0.7997(2) 0.35802(13) 0.83943(19)
H3E H 0.7970 0.3353 0.8553
C10E C 0.6771(2) 0.31089(14) 0.6058(2)
C11E C 0.79177(19) 0.39106(13) 0.86072(18)
C12E C 0.5625(2) 0.30719(13) 0.7497(2)
C13E C 0.6408(2) 0.28829(13) 0.6129(2)
C14E C 0.5267(3) 0.28586(13) 0.6338(2)
C15E C 0.8114(2) 0.35646(14) 0.79625(19)
C16E C 0.8141(2) 0.39058(16) 0.7721(2)
C17E C 0.5818(2) 0.32009(12) 0.81199(19)
H4E H 0.5449 0.3257 0.8086
C18E C 0.5083(2) 0.32021(13) 0.6984(2)
C19E C 0.8068(2) 0.42394(14) 0.7928(2)
C20E C 0.4886(2) 0.30897(14) 0.6397(2)
C21E C 0.5807(3) 0.27319(13) 0.6841(2)
C25E C 0.8099(2) 0.36209(14) 0.95571(19)
H5E H 0.8527 0.3628 0.9732
H6E H 0.7944 0.3372 0.9378
C26E C 0.5969(2) 0.28402(12) 0.7409(2)
H7E H 0.6336 0.2752 0.7758
O24E O 0.3537(3) 0.30820(19) 0.6261(3)
C29E C 0.6603(3) 0.27470(14) 0.6689(2)
C31E C 0.7338(2) 0.32202(15) 0.6571(2)
C32E C 0.8158(2) 0.32028(16) 0.7700(2)
H8E H 0.8403 0.3258 0.7552
C34E C 0.7177(2) 0.28553(13) 0.7192(2)
H9E H 0.7317 0.2765 0.7582
C36E C 0.6215(2) 0.24958(13) 0.6761(2)
H10E H 0.5948 0.2362 0.6365
C42E C 0.6291(3) 0.30175(14) 0.9224(2)
H13E H 0.5912 0.3076 0.9162
H14E H 0.6538 0.3245 0.9372
C43E C 0.6164(3) 0.29017(13) 0.8619(2)
H15E H 0.6545 0.2851 0.8681
H16E H 0.5931 0.2669 0.8480
C44E C 0.7549(2) 0.30867(14) 0.7148(2)
C47E C 0.8484(3) 0.28916(17) 0.8178(2)
H19E H 0.8458 0.2660 0.7968
H20E H 0.8274 0.2848 0.8364
C49E C 0.6552(3) 0.21958(14) 0.7246(2)
H22E H 0.6829 0.2314 0.7647
H23E H 0.6268 0.2043 0.7263
O26E O 0.9210(3) 0.4447(2) 0.7784(3)
C50E C 0.6612(3) 0.27136(16) 0.9698(3)
H24E H 0.6986 0.2654 0.9749
H25E H 0.6362 0.2487 0.9544
C51E C 0.8022(3) 0.36881(17) 1.0064(2)
H26E H 0.7593 0.3687 0.9884
H27E H 0.8180 0.3937 1.0242
O27E O 0.4388(4) 0.39824(18) 0.6009(4)
O28E O 0.4844(4) 0.4530(2) 0.6824(3)
O29E O 0.4595(3) 0.35268(18) 0.5116(4)
C54E C 0.6758(4) 0.28062(19) 1.0302(3)
H32E H 0.7033 0.3021 1.0472
H33E H 0.6389 0.2882 1.0250
O31E O 0.3258(3) 0.4061(3) 0.4386(4)
O32E O 0.7306(3) 0.4496(3) 0.6443(4)
C57E C 0.8336(4) 0.3399(2) 1.0571(3)
H38E H 0.8761 0.3389 1.0736
H39E H 0.8161 0.3151 1.0399
C58E C 0.9126(3) 0.2968(3) 0.8676(4)
H40E H 0.9147 0.3191 0.8900
H41E H 0.9327 0.3030 0.8486
N1E N 0.3442(5) 0.1945(3) 0.4864(4)
C59E C 0.6902(4) 0.19462(19) 0.7106(3)
H42E H 0.7177 0.2104 0.7080
H43E H 0.6619 0.1833 0.6701
C60E C 0.7047(6) 0.2479(3) 1.0761(4)
H44E H 0.7132 0.2557 1.1149
H45E H 0.7418 0.2407 1.0823
H46E H 0.6774 0.2267 1.0601
C61E C 0.3604(5) 0.2282(3) 0.4817(5)
C62E C 0.8286(7) 0.3482(3) 1.1075(5)
H47E H 0.8492 0.3719 1.1271
H48E H 0.7862 0.3512 1.0906
C64E C 0.7258(7) 0.1639(3) 0.7557(5)
H51E H 0.7418 0.1477 0.7392
H52E H 0.6986 0.1487 0.7595
C65E C 0.3142(12) 0.1657(7) 0.4373(12)
H53E H 0.3072 0.1433 0.4526
H54E H 0.3397 0.1595 0.4247
H55E H 0.2762 0.1754 0.4024
C67E C 0.9454(6) 0.2677(5) 0.9107(7)
H58E H 0.9250 0.2599 0.9288
H59E H 0.9857 0.2766 0.9438
C68E C 0.7764(10) 0.1763(5) 0.8179(6)
H60E H 0.7582 0.1856 0.8376
H61E H 0.7936 0.1983 0.8117
C69E C 0.8237(11) 0.1550(7) 0.8605(11)
H62E H 0.8504 0.1698 0.8972
H63E H 0.8451 0.1464 0.8443
H64E H 0.8094 0.1335 0.8705
C71E C 0.8554(11) 0.3175(6) 1.1549(10)
H68E H 0.8513 0.3239 1.1872
H69E H 0.8976 0.3147 1.1723
H70E H 0.8346 0.2941 1.1358
C72E C 0.9678(11) 0.2575(7) 0.8384(11)
H71E H 0.9717 0.2382 0.8157
H72E H 1.0056 0.2706 0.8648
H73E H 0.9367 0.2751 0.8100
C73E C 0.9496(12) 0.2378(7) 0.8810(11)
H74E H 0.9806 0.2201 0.9104
H75E H 0.9112 0.2245 0.8552
C77E C 0.3435(14) 0.1875(9) 0.5343(15)
H83E H 0.3308 0.1618 0.5322
H84E H 0.3158 0.2044 0.5337
H85E H 0.3835 0.1910 0.5719
O33E O 0.2435(6) 0.3004(3) 0.4513(6)
H86? H 0.3083 0.8244 0.4006
H87? H 0.2757 0.8407 0.4284
H88? H 0.3392 0.8566 0.4507
H89? H 0.3559 0.7903 0.5597
H90? H 0.3709 0.8329 0.5581
H91? H 0.3032 0.8195 0.5199
loop_
_geom_bond_atom_site_label_1
_geom_bond_atom_site_label_2
_geom_bond_site_symmetry_1
_geom_bond_site_symmetry_2
Mg1 O2 1_555 1_555
Mg2 O3 1_555 1_555
Mg3 O1 1_555 1_555
Mg4 O8 1_555 1_555
Mg5 O11 1_555 1_555
Mg6 O12 1_555 1_555
Mg7 O14 1_555 1_555
O1 C6 1_555 1_555
O2 C4 1_555 1_555
O3 C2 1_555 1_555
O4 Mg1 1_555 1_555
O5 C13 1_555 1_555
O6 Mg2 1_555 1_555
O7 C31 1_555 1_555
O8 C30 1_555 1_555
O9 Mg4 1_555 1_555
O10 Mg2 1_555 1_555
O11 Mg4 1_555 1_555
O12 C16 1_555 1_555
O13 C23 1_555 1_555
O14 C24 1_555 1_555
O15 C10 1_555 1_555
O16 Mg5 1_555 1_555
O17 Mg4 1_555 1_555
O18 Mg3 1_555 1_555
O19 C27 1_555 1_555
O20 Mg1 1_555 1_555
O21 Mg5 1_555 1_555
C1 C2 1_555 1_555
O22 Mg2 1_555 1_555
C2 C7 1_555 1_555
C3 H1 1_555 1_555
C4 C5 1_555 1_555
C5 C3 1_555 1_555
C6 C11 1_555 1_555
C7 O4 1_555 1_555
C8 C1 1_555 1_555
H2 C8 1_555 1_555
C9 H3 1_555 1_555
C10 C13 1_555 1_555
C11 C3 1_555 1_555
C12 C17 1_555 1_555
C13 C29 1_555 1_555
C14 O16 1_555 1_555
C15 C9 1_555 1_555
C16 C15 1_555 1_555
C17 C1 1_555 1_555
H4 C17 1_555 1_555
C18 O9 1_555 1_555
C19 O18 1_555 1_555
C20 O11 1_555 1_555
C21 C14 1_555 1_555
C22 O6 1_555 1_555
C23 C27 1_555 1_555
C24 C33 1_555 1_555
C25 C3 1_555 1_555
H5 C25 1_555 1_555
H6 C25 1_555 1_555
O23 Mg3 1_555 1_555
C26 C12 1_555 1_555
H7 C26 1_555 1_555
O24 Mg4 1_555 1_555
C27 C23E 1_555 1_555
C28 O10 1_555 1_555
C29 C34 1_555 1_555
C30 C33 1_555 1_555
C31 C10 1_555 1_555
C32 C15 1_555 1_555
H8 C32 1_555 1_555
C33 O17 1_555 1_555
C34 H9 1_555 1_555
C35 C23 1_555 1_555
C36 C21 1_555 1_555
H10 C36 1_555 1_555
C37 C24 1_555 1_555
O25 Mg1 1_555 1_555
C38 C30 1_555 1_555
C39 H11 1_555 1_555
C40 C35 1_555 1_555
H12 C40 1_555 1_555
C41 C22 1_555 1_555
C42 H13 1_555 1_555
H14 C42 1_555 1_555
C43 C17 1_555 1_555
H15 C43 1_555 1_555
H16 C43 1_555 1_555
C44 C31 1_555 1_555
C45 C38 1_555 1_555
H17 C45 1_555 1_555
C46 C35 1_555 1_555
H18 C46 1_555 1_555
C47 C32 1_555 1_555
H19 C47 1_555 1_555
H20 C47 1_555 1_555
C48 C37 1_555 1_555
H21 C48 1_555 1_555
C49 C36 1_555 1_555
H22 C49 1_555 1_555
H23 C49 1_555 1_555
O26 Mg6 1_555 1_555
C50 C42 1_555 1_555
H24 C50 1_555 1_555
H25 C50 1_555 1_555
C51 C25 1_555 1_555
H26 C51 1_555 1_555
H27 C51 1_555 1_555
O27 Mg4 1_555 1_555
O28 Mg2 1_555 1_555
O29 Mg5 1_555 1_555
C52 C40 1_555 1_555
H28 C52 1_555 1_555
H29 C52 1_555 1_555
C53 C45 1_555 1_555
H30 C53 1_555 1_555
H31 C53 1_555 1_555
O30 Mg3 1_555 1_555
C54 C50 1_555 1_555
H32 C54 1_555 1_555
H33 C54 1_555 1_555
O31 Mg7 1_555 1_555
O32 Mg6 1_555 1_555
C55 C53 1_555 1_555
H34 C55 1_555 1_555
H35 C55 1_555 1_555
C56 C52 1_555 1_555
H36 C56 1_555 1_555
H37 C56 1_555 1_555
C57 C51 1_555 1_555
H38 C57 1_555 1_555
H39 C57 1_555 1_555
C58 C47 1_555 1_555
H40 C58 1_555 1_555
H41 C58 1_555 1_555
N1 C61 1_555 1_555
C59 C49 1_555 1_555
H42 C59 1_555 1_555
H43 C59 1_555 1_555
C60 C54 1_555 1_555
H44 C60 1_555 1_555
H45 C60 1_555 1_555
H46 C60 1_555 1_555
C61 O21 1_555 1_555
C62 C57 1_555 1_555
H47 C62 1_555 1_555
H48 C62 1_555 1_555
C63 C55 1_555 1_555
H49 C63 1_555 1_555
H50 C63 1_555 1_555
C64 C59 1_555 1_555
H51 C64 1_555 1_555
H52 C64 1_555 1_555
C65 N1 1_555 1_555
H53 C65 1_555 1_555
H54 C65 1_555 1_555
H55 C65 1_555 1_555
C66 C63 1_555 1_555
H56 C66 1_555 1_555
H57 C66 1_555 1_555
C67 C58 1_555 1_555
H58 C67 1_555 1_555
H59 C67 1_555 1_555
C68 C64 1_555 1_555
H60 C68 1_555 1_555
H61 C68 1_555 1_555
C69 C68 1_555 1_555
H62 C69 1_555 1_555
H63 C69 1_555 1_555
H64 C69 1_555 1_555
C70 C66 1_555 1_555
H65 C70 1_555 1_555
H66 C70 1_555 1_555
H67 C70 1_555 1_555
C71 C62 1_555 1_555
H68 C71 1_555 1_555
H69 C71 1_555 1_555
H70 C71 1_555 1_555
C72 H71 1_555 1_555
H72 C72 1_555 1_555
H73 C72 1_555 1_555
C73 C67 1_555 1_555
H74 C73 1_555 1_555
H75 C73 1_555 1_555
C74 H76 1_555 1_555
H77 C74 1_555 1_555
C75 C74 1_555 1_555
H78 C75 1_555 1_555
H79 C75 1_555 1_555
H80 C75 1_555 1_555
C76 C56 1_555 1_555
H81 C76 1_555 1_555
H82 C76 1_555 1_555
C77 N1 1_555 1_555
H83 C77 1_555 1_555
H84 C77 1_555 1_555
H85 C77 1_555 1_555
O33 Mg7 1_555 1_555
O6E C22E 1_555 1_555
O8E C30E 1_555 1_555
O13E C23E 1_555 1_555
O14E C24E 1_555 1_555
O17E C33E 1_555 1_555
C22E C28 1_555 1_555
C23E C35E 1_555 1_555
C24E C33E 1_555 1_555
C30E C33E 1_555 1_555
C35E C46 1_555 1_555
C37E C24E 1_555 1_555
C38E C30E 1_555 1_555
C40E C35E 1_555 1_555
H12E C40E 1_555 1_555
C41E C39 1_555 1_555
C45E C38E 1_555 1_555
H17E C45E 1_555 1_555
C48E C37E 1_555 1_555
H21E C48E 1_555 1_555
C52E C40E 1_555 1_555
H28E C52E 1_555 1_555
H29E C52E 1_555 1_555
C53E C45E 1_555 1_555
H30E C53E 1_555 1_555
H31E C53E 1_555 1_555
C55E C53E 1_555 1_555
H34E C55E 1_555 1_555
H35E C55E 1_555 1_555
C56E C52E 1_555 1_555
H36E C56E 1_555 1_555
H37E C56E 1_555 1_555
C63E C55E 1_555 1_555
H49E C63E 1_555 1_555
H50E C63E 1_555 1_555
C66E C63E 1_555 1_555
H56E C66E 1_555 1_555
H57E C66E 1_555 1_555
C70E C66E 1_555 1_555
H65E C70E 1_555 1_555
H66E C70E 1_555 1_555
H67E C70E 1_555 1_555
C74E H76E 1_555 1_555
H77E C74E 1_555 1_555
C75E C74E 1_555 1_555
H78E C75E 1_555 1_555
H79E C75E 1_555 1_555
H80E C75E 1_555 1_555
C76E C56E 1_555 1_555
H81E C76E 1_555 1_555
H82E C76E 1_555 1_555
Mg1A O2A 1_555 1_555
Mg2A O3A 1_555 1_555
Mg3A O1A 1_555 1_555
Mg4A O8A 1_555 1_555
Mg5A O5 1_555 1_555
Mg6A O13 1_555 1_555
Mg7A O7 1_555 1_555
O1A C6A 1_555 1_555
O2A C4A 1_555 1_555
O3A C2A 1_555 1_555
O4A Mg1A 1_555 1_555
O5A Mg5 1_555 1_555
O6A Mg2A 1_555 1_555
O7A Mg7 1_555 1_555
O8A C30A 1_555 1_555
O9A Mg4A 1_555 1_555
O10A Mg2A 1_555 1_555
O11A Mg4A 1_555 1_555
O12A Mg6A 1_555 1_555
O13A Mg6 1_555 1_555
O14A Mg7A 1_555 1_555
O15A Mg5 1_555 1_555
O16A Mg5A 1_555 1_555
O17A Mg4A 1_555 1_555
O18A Mg3A 1_555 1_555
O19A Mg6 1_555 1_555
O20A Mg1A 1_555 1_555
O21A Mg5A 1_555 1_555
C1A C2A 1_555 1_555
O22A Mg2A 1_555 1_555
C2A C7A 1_555 1_555
C3A H1A 1_555 1_555
C4A C5A 1_555 1_555
C5A C3A 1_555 1_555
C6A C11A 1_555 1_555
C7A O4A 1_555 1_555
C8A C1A 1_555 1_555
H2A C8A 1_555 1_555
C9A H3A 1_555 1_555
C10A O15A 1_555 1_555
C11A C3A 1_555 1_555
C12A C17A 1_555 1_555
C13A O5A 1_555 1_555
C14A O16A 1_555 1_555
C15A C9A 1_555 1_555
C16A O12A 1_555 1_555
C17A C1A 1_555 1_555
H4A C17A 1_555 1_555
C18A O9A 1_555 1_555
C19A O18A 1_555 1_555
C20A O11A 1_555 1_555
C21A C14A 1_555 1_555
C22A O6A 1_555 1_555
C23A O13A 1_555 1_555
C24A O14A 1_555 1_555
C25A C3A 1_555 1_555
H5A C25A 1_555 1_555
H6A C25A 1_555 1_555
O23A Mg3A 1_555 1_555
C26A C12A 1_555 1_555
H7A C26A 1_555 1_555
O24A Mg4A 1_555 1_555
C27A O19A 1_555 1_555
C28A O10A 1_555 1_555
C29A C13A 1_555 1_555
C30A C33A 1_555 1_555
C31A O7A 1_555 1_555
C32A C15A 1_555 1_555
H8A C32A 1_555 1_555
C33A O17A 1_555 1_555
C34A C29A 1_555 1_555
H9A C34A 1_555 1_555
C35A C23A 1_555 1_555
C36A C21A 1_555 1_555
H10A C36A 1_555 1_555
C37A C24A 1_555 1_555
O25A Mg1A 1_555 1_555
C38A C30A 1_555 1_555
C39A H11A 1_555 1_555
C40A C35A 1_555 1_555
H12A C40A 1_555 1_555
C41A C22A 1_555 1_555
C42A H13A 1_555 1_555
H14A C42A 1_555 1_555
C43A C17A 1_555 1_555
H15A C43A 1_555 1_555
H16A C43A 1_555 1_555
C44A C31A 1_555 1_555
C45A C38A 1_555 1_555
H17A C45A 1_555 1_555
C46A C35A 1_555 1_555
H18A C46A 1_555 1_555
C47A C32A 1_555 1_555
H19A C47A 1_555 1_555
H20A C47A 1_555 1_555
C48A C37A 1_555 1_555
H21A C48A 1_555 1_555
C49A C36A 1_555 1_555
H22A C49A 1_555 1_555
H23A C49A 1_555 1_555
O26A Mg6A 1_555 1_555
C50A C42A 1_555 1_555
H24A C50A 1_555 1_555
H25A C50A 1_555 1_555
C51A C25A 1_555 1_555
H26A C51A 1_555 1_555
H27A C51A 1_555 1_555
O27A Mg4A 1_555 1_555
O28A Mg2A 1_555 1_555
O29A Mg5A 1_555 1_555
C52A C40A 1_555 1_555
H28A C52A 1_555 1_555
H29A C52A 1_555 1_555
C53A C45A 1_555 1_555
H30A C53A 1_555 1_555
H31A C53A 1_555 1_555
O30A Mg3A 1_555 1_555
C54A C50A 1_555 1_555
H32A C54A 1_555 1_555
H33A C54A 1_555 1_555
O31A Mg7A 1_555 1_555
O32A Mg6A 1_555 1_555
C55A C53A 1_555 1_555
H34A C55A 1_555 1_555
H35A C55A 1_555 1_555
C56A C52A 1_555 1_555
H36A C56A 1_555 1_555
H37A C56A 1_555 1_555
C57A C51A 1_555 1_555
H38A C57A 1_555 1_555
H39A C57A 1_555 1_555
C58A C47A 1_555 1_555
H40A C58A 1_555 1_555
H41A C58A 1_555 1_555
N1A C61A 1_555 1_555
C59A C49A 1_555 1_555
H42A C59A 1_555 1_555
H43A C59A 1_555 1_555
C60A C54A 1_555 1_555
H44A C60A 1_555 1_555
H45A C60A 1_555 1_555
H46A C60A 1_555 1_555
C61A O21A 1_555 1_555
C62A C57A 1_555 1_555
H47A C62A 1_555 1_555
H48A C62A 1_555 1_555
C63A C55A 1_555 1_555
H49A C63A 1_555 1_555
H50A C63A 1_555 1_555
C64A C59A 1_555 1_555
H51A C64A 1_555 1_555
H52A C64A 1_555 1_555
C65A N1A 1_555 1_555
H53A C65A 1_555 1_555
H54A C65A 1_555 1_555
H55A C65A 1_555 1_555
C66A C63A 1_555 1_555
H56A C66A 1_555 1_555
H57A C66A 1_555 1_555
C67A C58A 1_555 1_555
H58A C67A 1_555 1_555
H59A C67A 1_555 1_555
C68A C64A 1_555 1_555
H60A C68A 1_555 1_555
H61A C68A 1_555 1_555
C69A C68A 1_555 1_555
H62A C69A 1_555 1_555
H63A C69A 1_555 1_555
H64A C69A 1_555 1_555
C70A C66A 1_555 1_555
H65A C70A 1_555 1_555
H66A C70A 1_555 1_555
H67A C70A 1_555 1_555
C71A C62A 1_555 1_555
H68A C71A 1_555 1_555
H69A C71A 1_555 1_555
H70A C71A 1_555 1_555
C72A H71A 1_555 1_555
H72A C72A 1_555 1_555
H73A C72A 1_555 1_555
C73A C67A 1_555 1_555
H74A C73A 1_555 1_555
H75A C73A 1_555 1_555
C74A H76A 1_555 1_555
H77A C74A 1_555 1_555
C75A C74A 1_555 1_555
H78A C75A 1_555 1_555
H79A C75A 1_555 1_555
H80A C75A 1_555 1_555
C76A C56A 1_555 1_555
H81A C76A 1_555 1_555
H82A C76A 1_555 1_555
C77A N1A 1_555 1_555
H83A C77A 1_555 1_555
H84A C77A 1_555 1_555
H85A C77A 1_555 1_555
O33A Mg7A 1_555 1_555
O6D C22D 1_555 1_555
O8D C30D 1_555 1_555
O13D C23D 1_555 1_555
O14D C24D 1_555 1_555
O17D C33D 1_555 1_555
C22D C28A 1_555 1_555
C23D C27A 1_555 1_555
C24D C33D 1_555 1_555
C30D C33D 1_555 1_555
C35D C46A 1_555 1_555
C37D C24D 1_555 1_555
C38D C30D 1_555 1_555
C40D C35D 1_555 1_555
H12D C40D 1_555 1_555
C41D C39A 1_555 1_555
C45D C38D 1_555 1_555
H17D C45D 1_555 1_555
C48D C37D 1_555 1_555
H21D C48D 1_555 1_555
C52D C40D 1_555 1_555
H28D C52D 1_555 1_555
H29D C52D 1_555 1_555
C53D C45D 1_555 1_555
H30D C53D 1_555 1_555
H31D C53D 1_555 1_555
C55D C53D 1_555 1_555
H34D C55D 1_555 1_555
H35D C55D 1_555 1_555
C56D C52D 1_555 1_555
H36D C56D 1_555 1_555
H37D C56D 1_555 1_555
C63D C55D 1_555 1_555
H49D C63D 1_555 1_555
H50D C63D 1_555 1_555
C66D C63D 1_555 1_555
H56D C66D 1_555 1_555
H57D C66D 1_555 1_555
C70D C66D 1_555 1_555
H65D C70D 1_555 1_555
H66D C70D 1_555 1_555
H67D C70D 1_555 1_555
C74D H76D 1_555 1_555
H77D C74D 1_555 1_555
C75D C74D 1_555 1_555
H78D C75D 1_555 1_555
H79D C75D 1_555 1_555
H80D C75D 1_555 1_555
C76D C56D 1_555 1_555
H81D C76D 1_555 1_555
H82D C76D 1_555 1_555
Mg2D O10A 1_555 1_555
Mg4D O8D 1_555 1_555
Mg5D O11D 1_555 1_555
Mg6D O19 1_555 1_555
Mg7D O14D 1_555 1_555
O1D Mg3A 1_555 1_555
O2D Mg1A 1_555 1_555
O3D Mg2D 1_555 1_555
O4D Mg1A 1_555 1_555
O5D C13D 1_555 1_555
O7D C31D 1_555 1_555
O9D Mg4D 1_555 1_555
O11D Mg4D 1_555 1_555
O12D Mg6D 1_555 1_555
O15D C10D 1_555 1_555
O16D Mg5D 1_555 1_555
O18D Mg3A 1_555 1_555
O21D Mg5D 1_555 1_555
C1D C2D 1_555 1_555
O22D Mg2D 1_555 1_555
C2D O3D 1_555 1_555
C3D H1D 1_555 1_555
C4D O2D 1_555 1_555
C5D C3D 1_555 1_555
C6D O1D 1_555 1_555
C7D O4D 1_555 1_555
C8D C1D 1_555 1_555
H2D C8D 1_555 1_555
C9D H3D 1_555 1_555
C10D C13D 1_555 1_555
C11D C3D 1_555 1_555
C12D C17D 1_555 1_555
C13D C29D 1_555 1_555
C14D O16D 1_555 1_555
C15D C9D 1_555 1_555
C16D O12D 1_555 1_555
C17D C1D 1_555 1_555
H4D C17D 1_555 1_555
C18D O9D 1_555 1_555
C19D O18D 1_555 1_555
C20D O11D 1_555 1_555
C21D C14D 1_555 1_555
C25D C3D 1_555 1_555
H5D C25D 1_555 1_555
H6D C25D 1_555 1_555
C26D C12D 1_555 1_555
H7D C26D 1_555 1_555
O24D Mg4D 1_555 1_555
C29D C34D 1_555 1_555
C31D C10D 1_555 1_555
C32D C15D 1_555 1_555
H8D C32D 1_555 1_555
C34D H9D 1_555 1_555
C36D C21D 1_555 1_555
H10D C36D 1_555 1_555
C42D H13D 1_555 1_555
H14D C42D 1_555 1_555
C43D C17D 1_555 1_555
H15D C43D 1_555 1_555
H16D C43D 1_555 1_555
C44D C31D 1_555 1_555
C47D C32D 1_555 1_555
H19D C47D 1_555 1_555
H20D C47D 1_555 1_555
C49D C36D 1_555 1_555
H22D C49D 1_555 1_555
H23D C49D 1_555 1_555
O26D Mg6D 1_555 1_555
C50D C42D 1_555 1_555
H24D C50D 1_555 1_555
H25D C50D 1_555 1_555
C51D C25D 1_555 1_555
H26D C51D 1_555 1_555
H27D C51D 1_555 1_555
O27D Mg4D 1_555 1_555
O28D Mg2D 1_555 1_555
O29D Mg5D 1_555 1_555
C54D C50D 1_555 1_555
H32D C54D 1_555 1_555
H33D C54D 1_555 1_555
O31D Mg7D 1_555 1_555
O32D Mg6D 1_555 1_555
C57D C51D 1_555 1_555
H38D C57D 1_555 1_555
H39D C57D 1_555 1_555
C58D C47D 1_555 1_555
H40D C58D 1_555 1_555
H41D C58D 1_555 1_555
N1D C61D 1_555 1_555
C59D C49D 1_555 1_555
H42D C59D 1_555 1_555
H43D C59D 1_555 1_555
C60D C54D 1_555 1_555
H44D C60D 1_555 1_555
H45D C60D 1_555 1_555
H46D C60D 1_555 1_555
C61D O21D 1_555 1_555
C62D C57D 1_555 1_555
H47D C62D 1_555 1_555
H48D C62D 1_555 1_555
C64D C59D 1_555 1_555
H51D C64D 1_555 1_555
H52D C64D 1_555 1_555
C65D N1D 1_555 1_555
H53D C65D 1_555 1_555
H54D C65D 1_555 1_555
H55D C65D 1_555 1_555
C67D C58D 1_555 1_555
H58D C67D 1_555 1_555
H59D C67D 1_555 1_555
C68D C64D 1_555 1_555
H60D C68D 1_555 1_555
H61D C68D 1_555 1_555
C69D C68D 1_555 1_555
H62D C69D 1_555 1_555
H63D C69D 1_555 1_555
H64D C69D 1_555 1_555
C71D C62D 1_555 1_555
H68D C71D 1_555 1_555
H69D C71D 1_555 1_555
H70D C71D 1_555 1_555
C72D H71D 1_555 1_555
H72D C72D 1_555 1_555
H73D C72D 1_555 1_555
C73D C67D 1_555 1_555
H74D C73D 1_555 1_555
H75D C73D 1_555 1_555
C77D N1D 1_555 1_555
H83D C77D 1_555 1_555
H84D C77D 1_555 1_555
H85D C77D 1_555 1_555
O33D Mg7D 1_555 1_555
Mg2E O10 1_555 1_555
Mg4E O8E 1_555 1_555
Mg5E O5D 1_555 1_555
Mg6E O19A 1_555 1_555
Mg7E O14E 1_555 1_555
O1E Mg3 1_555 1_555
O2E Mg1 1_555 1_555
O3E Mg2E 1_555 1_555
O4E Mg1 1_555 1_555
O5E Mg5D 1_555 1_555
O7E Mg7D 1_555 1_555
O9E Mg4E 1_555 1_555
O11E Mg4E 1_555 1_555
O12E Mg6E 1_555 1_555
O15E Mg5D 1_555 1_555
O16E Mg5E 1_555 1_555
O18E Mg3 1_555 1_555
O21E Mg5E 1_555 1_555
C1E C2E 1_555 1_555
O22E Mg2E 1_555 1_555
C2E O3E 1_555 1_555
C3E H1E 1_555 1_555
C4E O2E 1_555 1_555
C5E C3E 1_555 1_555
C6E O1E 1_555 1_555
C7E O4E 1_555 1_555
C8E C1E 1_555 1_555
H2E C8E 1_555 1_555
C9E H3E 1_555 1_555
C10E O15E 1_555 1_555
C11E C3E 1_555 1_555
C12E C17E 1_555 1_555
C13E O5E 1_555 1_555
C14E O16E 1_555 1_555
C15E C9E 1_555 1_555
C16E O12E 1_555 1_555
C17E C1E 1_555 1_555
H4E C17E 1_555 1_555
C18E O9E 1_555 1_555
C19E O18E 1_555 1_555
C20E O11E 1_555 1_555
C21E C14E 1_555 1_555
C25E C3E 1_555 1_555
H5E C25E 1_555 1_555
H6E C25E 1_555 1_555
C26E C12E 1_555 1_555
H7E C26E 1_555 1_555
O24E Mg4E 1_555 1_555
C29E C13E 1_555 1_555
C31E O7E 1_555 1_555
C32E C15E 1_555 1_555
H8E C32E 1_555 1_555
C34E C29E 1_555 1_555
H9E C34E 1_555 1_555
C36E C21E 1_555 1_555
H10E C36E 1_555 1_555
C42E H13E 1_555 1_555
H14E C42E 1_555 1_555
C43E C17E 1_555 1_555
H15E C43E 1_555 1_555
H16E C43E 1_555 1_555
C44E C31E 1_555 1_555
C47E C32E 1_555 1_555
H19E C47E 1_555 1_555
H20E C47E 1_555 1_555
C49E C36E 1_555 1_555
H22E C49E 1_555 1_555
H23E C49E 1_555 1_555
O26E Mg6E 1_555 1_555
C50E C42E 1_555 1_555
H24E C50E 1_555 1_555
H25E C50E 1_555 1_555
C51E C25E 1_555 1_555
H26E C51E 1_555 1_555
H27E C51E 1_555 1_555
O27E Mg4E 1_555 1_555
O28E Mg2E 1_555 1_555
O29E Mg5E 1_555 1_555
C54E C50E 1_555 1_555
H32E C54E 1_555 1_555
H33E C54E 1_555 1_555
O31E Mg7E 1_555 1_555
O32E Mg6E 1_555 1_555
C57E C51E 1_555 1_555
H38E C57E 1_555 1_555
H39E C57E 1_555 1_555
C58E C47E 1_555 1_555
H40E C58E 1_555 1_555
H41E C58E 1_555 1_555
N1E C61E 1_555 1_555
C59E C49E 1_555 1_555
H42E C59E 1_555 1_555
H43E C59E 1_555 1_555
C60E C54E 1_555 1_555
H44E C60E 1_555 1_555
H45E C60E 1_555 1_555
H46E C60E 1_555 1_555
C61E O21E 1_555 1_555
C62E C57E 1_555 1_555
H47E C62E 1_555 1_555
H48E C62E 1_555 1_555
C64E C59E 1_555 1_555
H51E C64E 1_555 1_555
H52E C64E 1_555 1_555
C65E N1E 1_555 1_555
H53E C65E 1_555 1_555
H54E C65E 1_555 1_555
H55E C65E 1_555 1_555
C67E C58E 1_555 1_555
H58E C67E 1_555 1_555
H59E C67E 1_555 1_555
C68E C64E 1_555 1_555
H60E C68E 1_555 1_555
H61E C68E 1_555 1_555
C69E C68E 1_555 1_555
H62E C69E 1_555 1_555
H63E C69E 1_555 1_555
H64E C69E 1_555 1_555
C71E C62E 1_555 1_555
H68E C71E 1_555 1_555
H69E C71E 1_555 1_555
H70E C71E 1_555 1_555
C72E H71E 1_555 1_555
H72E C72E 1_555 1_555
H73E C72E 1_555 1_555
C73E C67E 1_555 1_555
H74E C73E 1_555 1_555
H75E C73E 1_555 1_555
C77E N1E 1_555 1_555
H83E C77E 1_555 1_555
H84E C77E 1_555 1_555
H85E C77E 1_555 1_555
O33E Mg7E 1_555 1_555
Mg2 O4 1_555 1_555
Mg6 O18 1_555 1_555
Mg7 O17 1_555 1_555
Mg7 O15A 1_555 1_555
O15 Mg5A 1_555 1_555
O15 Mg7A 1_555 1_555
O19 Mg6A 1_555 1_555
C4 C7 1_555 1_555
C5 C8 1_555 1_555
C6 C19 1_555 1_555
C9 C11 1_555 1_555
C12 C18 1_555 1_555
C14 C20 1_555 1_555
C16 C19 1_555 1_555
C18 C20 1_555 1_555
C21 C26 1_555 1_555
C22 C28 1_555 1_555
C29 C36 1_555 1_555
C32 C44 1_555 1_555
C34 C44 1_555 1_555
C37 C40 1_555 1_555
C38 C48 1_555 1_555
C39 C41 1_555 1_555
C41 C45 1_555 1_555
C42 C43 1_555 1_555
C72 C73 1_555 1_555
C74 C76 1_555 1_555
O6E Mg2E 1_555 1_555
O13E Mg6D 1_555 1_555
O17E Mg4E 1_555 1_555
O17E Mg7E 1_555 1_555
C22E C41E 1_555 1_555
C37E C40E 1_555 1_555
C38E C48E 1_555 1_555
C41E C45E 1_555 1_555
C74E C76E 1_555 1_555
Mg2A O4A 1_555 1_555
Mg5A O11A 1_555 1_555
Mg6A O18A 1_555 1_555
Mg7A O17A 1_555 1_555
C4A C7A 1_555 1_555
C5A C8A 1_555 1_555
C6A C19A 1_555 1_555
C9A C11A 1_555 1_555
C10A C13A 1_555 1_555
C10A C31A 1_555 1_555
C12A C18A 1_555 1_555
C14A C20A 1_555 1_555
C15A C16A 1_555 1_555
C16A C19A 1_555 1_555
C18A C20A 1_555 1_555
C21A C26A 1_555 1_555
C22A C28A 1_555 1_555
C23A C27A 1_555 1_555
C24A C33A 1_555 1_555
C29A C36A 1_555 1_555
C32A C44A 1_555 1_555
C34A C44A 1_555 1_555
C37A C40A 1_555 1_555
C38A C48A 1_555 1_555
C39A C41A 1_555 1_555
C41A C45A 1_555 1_555
C42A C43A 1_555 1_555
C72A C73A 1_555 1_555
C74A C76A 1_555 1_555
O6D Mg2D 1_555 1_555
O13D Mg6E 1_555 1_555
O17D Mg4D 1_555 1_555
O17D Mg7D 1_555 1_555
C22D C41D 1_555 1_555
C23D C35D 1_555 1_555
C37D C40D 1_555 1_555
C38D C48D 1_555 1_555
C41D C45D 1_555 1_555
C74D C76D 1_555 1_555
Mg2D O4D 1_555 1_555
Mg6D O18D 1_555 1_555
Mg7D O15E 1_555 1_555
O7D Mg7E 1_555 1_555
O15D Mg5E 1_555 1_555
O15D Mg7E 1_555 1_555
C2D C7D 1_555 1_555
C4D C5D 1_555 1_555
C4D C7D 1_555 1_555
C5D C8D 1_555 1_555
C6D C11D 1_555 1_555
C6D C19D 1_555 1_555
C9D C11D 1_555 1_555
C12D C18D 1_555 1_555
C14D C20D 1_555 1_555
C15D C16D 1_555 1_555
C16D C19D 1_555 1_555
C18D C20D 1_555 1_555
C21D C26D 1_555 1_555
C29D C36D 1_555 1_555
C32D C44D 1_555 1_555
C34D C44D 1_555 1_555
C42D C43D 1_555 1_555
C72D C73D 1_555 1_555
Mg2E O4E 1_555 1_555
Mg5E O11E 1_555 1_555
Mg6E O18E 1_555 1_555
C2E C7E 1_555 1_555
C4E C5E 1_555 1_555
C4E C7E 1_555 1_555
C5E C8E 1_555 1_555
C6E C11E 1_555 1_555
C6E C19E 1_555 1_555
C9E C11E 1_555 1_555
C10E C13E 1_555 1_555
C10E C31E 1_555 1_555
C12E C18E 1_555 1_555
C14E C20E 1_555 1_555
C15E C16E 1_555 1_555
C16E C19E 1_555 1_555
C18E C20E 1_555 1_555
C21E C26E 1_555 1_555
C29E C36E 1_555 1_555
C32E C44E 1_555 1_555
C34E C44E 1_555 1_555
C42E C43E 1_555 1_555
C72E C73E 1_555 1_555

#END
