
#######################################################################
#
#                 Cambridge Crystallographic Data Centre
#                                CCDC 
#
#######################################################################
#
# If this CIF has been generated from an entry in the Cambridge 
# Structural Database, then it will include bibliographic, chemical, 
# crystal, experimental, refinement or atomic coordinate data resulting 
# from the CCDC's data processing and validation procedures.
#
#######################################################################

data_NEDBOQ
_chemical_formula_moiety         'C276 H404 Mg24 N4 O120'
_chemical_name_systematic        
'hexakis(\m-C-butylpyrogallol[4]arene)-tetrakis(dimethylformamide)-tetratetracontakis(aqua)-tetracosa-magnesium(ii) unknown solvate'
_symmetry_cell_setting           monoclinic
_symmetry_space_group_name_H-M   'C 2/m'
_symmetry_Int_Tables_number      12
_space_group_name_Hall           '-C 2y'
loop_
_symmetry_equiv_pos_site_id
_symmetry_equiv_pos_as_xyz
1 x,y,z
2 -x,y,-z
3 1/2+x,1/2+y,z
4 1/2-x,1/2+y,-z
5 -x,-y,-z
6 x,-y,z
7 1/2-x,1/2-y,-z
8 1/2+x,1/2-y,z
_cell_length_a                   28.255(6)
_cell_length_b                   35.863(7)
_cell_length_c                   22.140(4)
_cell_angle_alpha                90
_cell_angle_beta                 117.70(3)
_cell_angle_gamma                90
_cell_volume                     19863.5
_exptl_crystal_colour            green
_exptl_crystal_description       block
_cell_formula_units_Z            2
loop_
_atom_site_label
_atom_site_type_symbol
_atom_site_fract_x
_atom_site_fract_y
_atom_site_fract_z
Mg1 Mg 0.41307(7) 0.70309(5) 0.50013(10)
Mg2 Mg 0.27838(14) 0.500000 0.13612(16)
Mg3 Mg 0.22420(11) 0.55304(6) 0.23683(13)
Mg4 Mg 0.57775(9) 0.55244(5) 0.23887(14)
Mg5 Mg 0.64507(11) 0.64906(8) 0.40371(13)
Mg6 Mg 0.71488(12) 0.64767(10) 0.59538(13)
Mg7 Mg 0.44946(16) 0.500000 0.1435(3)
O1 O 0.59070(15) 0.65699(10) 0.3040(2)
O2 O 0.78165(15) 0.61657(10) 0.6182(2)
O3 O 0.80975(17) 0.56545(10) 0.7026(2)
O4 O 0.26519(15) 0.65728(10) 0.3051(2)
O5 O 0.69282(15) 0.61750(10) 0.3783(2)
O6 O 0.42663(15) 0.72292(11) 0.4216(2)
O7 O 0.65746(16) 0.56540(10) 0.2942(2)
O8 O 0.59383(16) 0.68173(11) 0.4201(2)
O9 O 0.70195(17) 0.63959(11) 0.4990(2)
O10 O 0.34672(16) 0.68153(11) 0.4209(2)
O11 O 0.51487(16) 0.72258(11) 0.4220(2)
O12 O 0.23343(18) 0.60774(11) 0.2172(2)
O13 O 0.7875(3) 0.500000 0.7414(3)
O14 O 0.6065(2) 0.500000 0.2594(3)
O15 O 0.37748(19) 0.75426(11) 0.5018(3)
O16 O 0.55518(17) 0.60637(11) 0.2178(2)
O17 O 0.3053(2) 0.54117(11) 0.0960(2)
O18 O 0.2562(2) 0.54381(11) 0.1744(2)
O19 O 0.39391(18) 0.54087(12) 0.0985(2)
O20 O 0.49928(18) 0.54290(11) 0.1806(3)
C1 C 0.5498(2) 0.68010(14) 0.2977(3)
C2 C 0.3803(2) 0.72737(14) 0.2977(3)
C3 C 0.7786(2) 0.58423(13) 0.4345(3)
C4 C 0.3005(2) 0.68041(13) 0.2991(3)
C5 C 0.3442(2) 0.69230(15) 0.3608(3)
C6 C 0.7374(2) 0.60608(13) 0.4366(3)
C7 C 0.8246(2) 0.58408(12) 0.5596(3)
C8 C 0.7403(2) 0.61753(14) 0.4971(3)
C9 C 0.5091(2) 0.69217(14) 0.2358(3)
C10 C 0.7837(2) 0.60574(13) 0.5605(3)
C11 C 0.5530(2) 0.69207(14) 0.3605(3)
C12 C 0.5109(2) 0.71436(13) 0.3595(3)
C13 C 0.7444(2) 0.53425(14) 0.3464(3)
C14 C 0.3851(2) 0.71416(14) 0.3607(3)
C15 C 0.6880(2) 0.53396(14) 0.3117(3)
C16 C 0.4694(2) 0.72647(13) 0.2983(3)
C17 C 0.8210(2) 0.57398(13) 0.4973(3)
H1 H 0.848859 0.559211 0.497218
C18 C 0.8140(3) 0.500000 0.7061(4)
C19 C 0.4258(2) 0.75085(15) 0.2985(3)
H2 H 0.441995 0.764987 0.342432
C20 C 0.6594(3) 0.500000 0.2932(4)
C21 C 0.2962(2) 0.69283(14) 0.2363(3)
C22 C 0.4694(2) 0.71524(13) 0.2380(3)
H3 H 0.441033 0.723568 0.196011
C23 C 0.7735(2) 0.57143(14) 0.3665(3)
H4 H 0.750614 0.590105 0.331638
C24 C 0.3367(2) 0.71599(13) 0.2375(3)
H5 H 0.334165 0.724268 0.195367
C25 C 0.8701(2) 0.57148(14) 0.6268(3)
H6 H 0.873070 0.590349 0.661628
C26 C 0.8703(3) 0.500000 0.6309(4)
H7 H 0.889576 0.500000 0.605353
C27 C 0.2490(2) 0.68000(14) 0.1704(3)
H8 H 0.219166 0.674330 0.181431
C28 C 0.8567(2) 0.53450(14) 0.6490(3)
C29 C 0.8270(2) 0.53415(13) 0.6844(3)
C30 C 0.2545(3) 0.60986(16) 0.1725(3)
C31 C 0.7700(3) 0.500000 0.3635(4)
H9 H 0.807934 0.500000 0.388642
C32 C 0.2634(2) 0.64293(16) 0.1468(3)
O21 O 0.2026(4) 0.500000 0.0437(4)
C33 C 0.3911(3) 0.60816(17) 0.0861(3)
C34 C 0.5075(2) 0.67917(14) 0.1698(3)
H10 H 0.544983 0.673072 0.180008
C35 C 0.3294(3) 0.60797(17) 0.0401(3)
H11 H 0.320533 0.583161 0.016819
C36 C 0.4189(3) 0.57528(17) 0.1122(3)
C37 C 0.4748(2) 0.64253(15) 0.1469(3)
C38 C 0.2281(2) 0.71047(16) 0.1141(3)
H12 H 0.221940 0.733790 0.133309
H13 H 0.255845 0.715564 0.099751
C39 C 0.9254(2) 0.57074(18) 0.6270(4)
H14 H 0.924334 0.551014 0.595157
H15 H 0.930255 0.594850 0.608886
C40 C 0.2872(2) 0.64172(16) 0.1049(3)
H16 H 0.293866 0.664647 0.088761
C41 C 0.5014(2) 0.60910(16) 0.1742(3)
C42 C 0.4198(2) 0.64151(16) 0.1038(3)
H17 H 0.401369 0.664263 0.085926
C43 C 0.2674(3) 0.57592(17) 0.1523(3)
C44 C 0.3019(2) 0.60896(16) 0.0850(3)
C45 C 0.2918(3) 0.57625(17) 0.1102(3)
O22 O 0.6876(3) 0.69871(16) 0.3924(3)
C46 C 0.4864(3) 0.70848(18) 0.1119(3)
H18 H 0.483037 0.696635 0.069738
H19 H 0.450238 0.716430 0.103283
O23 O 0.4498(3) 0.64984(17) 0.4980(5)
C47 C 0.4723(3) 0.57517(16) 0.1560(4)
C48 C 0.4051(3) 0.78036(16) 0.2398(4)
H20 H 0.390928 0.767239 0.195471
H21 H 0.375238 0.794451 0.240577
O24 O 0.3047(4) 0.5501(3) 0.3216(5)
C49 C 0.3093(3) 0.6372(2) -0.0167(3)
H22 H 0.329722 0.635000 -0.042725
H23 H 0.315552 0.662401 0.003716
O25 O 0.6656(4) 0.6021(2) 0.5852(5)
O26 O 0.1437(3) 0.5547(2) 0.1492(4)
O27 O 0.7676(3) 0.69854(19) 0.6038(4)
O28 O 0.6031(4) 0.6018(3) 0.4172(5)
C50 C 0.1765(3) 0.6994(2) 0.0517(4)
H24 H 0.152519 0.687099 0.067014
H25 H 0.184849 0.681016 0.024651
O29 O 0.5887(4) 0.5509(2) 0.1481(4)
O30 O 0.5654(5) 0.5506(3) 0.3307(5)
C51 C 0.5213(4) 0.7424(2) 0.1269(5)
H26 H 0.511756 0.760040 0.153974
H27 H 0.558885 0.734792 0.155652
C52 C 0.9730(3) 0.5641(3) 0.6942(5)
H28 H 0.968720 0.539486 0.711187
H29 H 0.972790 0.583099 0.726609
O31 O 0.4635(5) 0.500000 0.0527(8)
O32 O 0.3518(7) 0.500000 0.2325(7)
C53 C 0.1733(4) 0.7509(3) -0.0278(6)
H30 H 0.151497 0.771606 -0.055693
H31 H 0.207894 0.760360 0.006606
H32 H 0.178927 0.732788 -0.057038
C54 C 0.1465(4) 0.7332(3) 0.0051(5)
H33 H 0.111205 0.724543 -0.030323
H34 H 0.140099 0.752045 0.033161
C55 C 0.4484(4) 0.8079(3) 0.2453(8)
H35 H 0.481355 0.793927 0.254895
H36 H 0.456720 0.825009 0.284049
C56 C 0.3601(9) 0.8299(3) 0.5052(8)
H37 H 0.356207 0.855565 0.517588
H38 H 0.385726 0.829485 0.486856
H39 H 0.325432 0.820698 0.470597
N1 N 0.3803(6) 0.8054(3) 0.5677(6)
C57 C 0.3884(4) 0.7684(3) 0.5607(6)
O33 O 0.4409(8) 0.500000 0.2414(8)
C58 C 0.2481(5) 0.6320(5) -0.0664(7)
H40 H 0.240117 0.605025 -0.073929
H41 H 0.227314 0.642243 -0.044504
C59 C 0.3918(11) 0.8186(8) 0.6371(11)
H42 H 0.384479 0.845369 0.635523
H43 H 0.368927 0.805140 0.652171
H44 H 0.429379 0.813874 0.669089
C60 C 0.4311(14) 0.8310(9) 0.1796(16)
H45 H 0.416926 0.813829 0.140058
H46 H 0.401713 0.847885 0.174303
C61 C 1.0268(6) 0.5651(6) 0.6966(10)
H47 H 1.028729 0.539544 0.680831
H48 H 1.019389 0.581165 0.656909
C62 C 0.8565(7) 0.6059(5) 0.3786(10)
H49 H 0.891223 0.601650 0.379020
H50 H 0.864033 0.614313 0.424840
C63 C 0.2305(9) 0.6502(7) -0.1325(12)
H51 H 0.191037 0.648239 -0.157594
H52 H 0.244673 0.635435 -0.158382
C64 C 0.245(2) 0.6899(10) -0.135(2)
H53 H 0.230135 0.697890 -0.182666
H54 H 0.229819 0.705424 -0.111611
H55 H 0.283757 0.692548 -0.112403
C65 C 0.5177(12) 0.7623(8) 0.0665(13)
H56 H 0.479686 0.768664 0.036993
H57 H 0.528351 0.744666 0.040582
C66 C 0.8704(13) 0.6675(7) 0.3366(15)
H58 H 0.853292 0.688192 0.304913
H59 H 0.887228 0.676908 0.383527
H60 H 0.897681 0.656177 0.326820
C67 C 0.4758(12) 0.8541(9) 0.1784(15)
H61 H 0.461969 0.867961 0.135421
H62 H 0.489524 0.871696 0.216717
H63 H 0.504756 0.837594 0.182428
C68 C 0.8269(12) 0.6372(7) 0.3277(16)
H64 H 0.799047 0.648292 0.337456
H65 H 0.809551 0.627458 0.280472
C69 C 0.5513(13) 0.7989(8) 0.0778(15)
H66 H 0.545047 0.809008 0.033595
H67 H 0.540486 0.817361 0.101705
H68 H 0.589390 0.793245 0.105312
C70 C 1.0800(10) 0.5724(8) 0.7375(14)
H69 H 1.099851 0.568272 0.711702
H70 H 1.084353 0.598436 0.752814
H71 H 1.093905 0.555867 0.777281
C71 C 0.8275(3) 0.56996(17) 0.3645(4)
H72 H 0.850758 0.551358 0.398264
H73 H 0.820780 0.561152 0.318795
O2E O 0.78165(15) 0.38343(10) 0.6182(2)
O3E O 0.80975(17) 0.43455(10) 0.7026(2)
O5E O 0.69282(15) 0.38250(10) 0.3783(2)
O7E O 0.65746(16) 0.43460(10) 0.2942(2)
O9E O 0.70195(17) 0.36041(11) 0.4990(2)
C3E C 0.7786(2) 0.41577(13) 0.4345(3)
C6E C 0.7374(2) 0.39392(13) 0.4366(3)
C7E C 0.8246(2) 0.41592(12) 0.5596(3)
C8E C 0.7403(2) 0.38247(14) 0.4971(3)
C10E C 0.7837(2) 0.39426(13) 0.5605(3)
C13E C 0.7444(2) 0.46575(14) 0.3464(3)
C15E C 0.6880(2) 0.46604(14) 0.3117(3)
C17E C 0.8210(2) 0.42602(13) 0.4973(3)
H1E H 0.848859 0.440789 0.497218
C23E C 0.7735(2) 0.42857(14) 0.3665(3)
H4E H 0.750614 0.409895 0.331638
C25E C 0.8701(2) 0.42852(14) 0.6268(3)
H6E H 0.873070 0.409651 0.661628
C28E C 0.8567(2) 0.46550(14) 0.6490(3)
C29E C 0.8270(2) 0.46585(13) 0.6844(3)
C39E C 0.9254(2) 0.42926(18) 0.6270(4)
H14E H 0.924334 0.448986 0.595157
H15E H 0.930255 0.405150 0.608886
C52E C 0.9730(3) 0.4359(3) 0.6942(5)
H28E H 0.968720 0.460514 0.711187
H29E H 0.972790 0.416901 0.726609
C61E C 1.0268(6) 0.4349(6) 0.6966(10)
H47E H 1.028729 0.460456 0.680831
H48E H 1.019389 0.418835 0.656909
C62E C 0.8565(7) 0.3941(5) 0.3786(10)
H49E H 0.891223 0.398350 0.379020
H50E H 0.864033 0.385687 0.424840
C66E C 0.8704(13) 0.3325(7) 0.3366(15)
H58E H 0.853292 0.311808 0.304913
H59E H 0.887228 0.323092 0.383527
H60E H 0.897681 0.343823 0.326820
C68E C 0.8269(12) 0.3628(7) 0.3277(16)
H64E H 0.799047 0.351708 0.337456
H65E H 0.809551 0.372542 0.280472
C70E C 1.0800(10) 0.4276(8) 0.7375(14)
H69E H 1.099851 0.431728 0.711702
H70E H 1.084353 0.401564 0.752814
H71E H 1.093905 0.444133 0.777281
C71E C 0.8275(3) 0.43004(17) 0.3645(4)
H72E H 0.850758 0.448642 0.398264
H73E H 0.820780 0.438848 0.318795
Mg1A Mg 0.58693(7) 0.70309(5) 0.49987(10)
Mg2A Mg 0.72162(14) 0.500000 0.86388(16)
Mg3A Mg 0.77580(11) 0.55304(6) 0.76317(13)
Mg4A Mg 0.42225(9) 0.55244(5) 0.76113(14)
Mg5A Mg 0.35493(11) 0.64906(8) 0.59629(13)
Mg6A Mg 0.28512(12) 0.64767(10) 0.40462(13)
Mg7A Mg 0.55054(16) 0.500000 0.8565(3)
O1A O 0.40930(15) 0.65699(10) 0.6960(2)
O2A O 0.21835(15) 0.61657(10) 0.3818(2)
O3A O 0.19025(17) 0.56545(10) 0.2974(2)
O4A O 0.73481(15) 0.65728(10) 0.6949(2)
O5A O 0.30718(15) 0.61750(10) 0.6217(2)
O6A O 0.57337(15) 0.72292(11) 0.5784(2)
O7A O 0.34254(16) 0.56540(10) 0.7058(2)
O8A O 0.40617(16) 0.68173(11) 0.5799(2)
O9A O 0.29805(17) 0.63959(11) 0.5010(2)
O10A O 0.65328(16) 0.68153(11) 0.5791(2)
O11A O 0.48513(16) 0.72258(11) 0.5780(2)
O12A O 0.76657(18) 0.60774(11) 0.7828(2)
O13A O 0.2125(3) 0.500000 0.2586(3)
O14A O 0.3935(2) 0.500000 0.7406(3)
O15A O 0.62252(19) 0.75426(11) 0.4982(3)
O16A O 0.44482(17) 0.60637(11) 0.7822(2)
O17A O 0.6947(2) 0.54117(11) 0.9040(2)
O18A O 0.7438(2) 0.54381(11) 0.8256(2)
O19A O 0.60609(18) 0.54087(12) 0.9015(2)
O20A O 0.50072(18) 0.54290(11) 0.8194(3)
C1A C 0.4502(2) 0.68010(14) 0.7023(3)
C2A C 0.6197(2) 0.72737(14) 0.7023(3)
C3A C 0.2214(2) 0.58423(13) 0.5655(3)
C4A C 0.6995(2) 0.68041(13) 0.7009(3)
C5A C 0.6558(2) 0.69230(15) 0.6392(3)
C6A C 0.2626(2) 0.60608(13) 0.5634(3)
C7A C 0.1754(2) 0.58408(12) 0.4404(3)
C8A C 0.2597(2) 0.61753(14) 0.5029(3)
C9A C 0.4909(2) 0.69217(14) 0.7642(3)
C10A C 0.2163(2) 0.60574(13) 0.4395(3)
C11A C 0.4470(2) 0.69207(14) 0.6395(3)
C12A C 0.4891(2) 0.71436(13) 0.6405(3)
C13A C 0.2556(2) 0.53425(14) 0.6536(3)
C14A C 0.6149(2) 0.71416(14) 0.6393(3)
C15A C 0.3120(2) 0.53396(14) 0.6883(3)
C16A C 0.5306(2) 0.72647(13) 0.7017(3)
C17A C 0.1790(2) 0.57398(13) 0.5027(3)
H1A H 0.151141 0.559211 0.502782
C18A C 0.1860(3) 0.500000 0.2939(4)
C19A C 0.5742(2) 0.75085(15) 0.7015(3)
H2A H 0.558005 0.764987 0.657568
C20A C 0.3406(3) 0.500000 0.7068(4)
C21A C 0.7038(2) 0.69283(14) 0.7637(3)
C22A C 0.5306(2) 0.71524(13) 0.7620(3)
H3A H 0.558967 0.723568 0.803989
C23A C 0.2265(2) 0.57143(14) 0.6335(3)
H4A H 0.249386 0.590105 0.668362
C24A C 0.6633(2) 0.71599(13) 0.7625(3)
H5A H 0.665835 0.724268 0.804633
C25A C 0.1299(2) 0.57148(14) 0.3732(3)
H6A H 0.126930 0.590349 0.338372
C26A C 0.1297(3) 0.500000 0.3691(4)
H7A H 0.110424 0.500000 0.394647
C27A C 0.7510(2) 0.68000(14) 0.8296(3)
H8A H 0.780834 0.674330 0.818569
C28A C 0.1433(2) 0.53450(14) 0.3510(3)
C29A C 0.1730(2) 0.53415(13) 0.3156(3)
C30A C 0.7455(3) 0.60986(16) 0.8275(3)
C31A C 0.2300(3) 0.500000 0.6365(4)
H9A H 0.192066 0.500000 0.611358
C32A C 0.7366(2) 0.64293(16) 0.8532(3)
O21A O 0.7974(4) 0.500000 0.9563(4)
C33A C 0.6089(3) 0.60816(17) 0.9139(3)
C34A C 0.4925(2) 0.67917(14) 0.8302(3)
H10A H 0.455017 0.673072 0.819992
C35A C 0.6706(3) 0.60797(17) 0.9599(3)
H11A H 0.679467 0.583161 0.983181
C36A C 0.5811(3) 0.57528(17) 0.8878(3)
C37A C 0.5252(2) 0.64253(15) 0.8531(3)
C38A C 0.7719(2) 0.71047(16) 0.8859(3)
H12A H 0.778060 0.733790 0.866691
H13A H 0.744155 0.715564 0.900249
C39A C 0.0746(2) 0.57074(18) 0.3730(4)
H14A H 0.075666 0.551014 0.404843
H15A H 0.069745 0.594850 0.391114
C40A C 0.7128(2) 0.64172(16) 0.8951(3)
H16A H 0.706134 0.664647 0.911239
C41A C 0.4986(2) 0.60910(16) 0.8258(3)
C42A C 0.5802(2) 0.64151(16) 0.8962(3)
H17A H 0.598631 0.664263 0.914074
C43A C 0.7326(3) 0.57592(17) 0.8477(3)
C44A C 0.6981(2) 0.60896(16) 0.9150(3)
C45A C 0.7082(3) 0.57625(17) 0.8898(3)
O22A O 0.3124(3) 0.69871(16) 0.6076(3)
C46A C 0.5136(3) 0.70848(18) 0.8881(3)
H18A H 0.516963 0.696635 0.930262
H19A H 0.549762 0.716430 0.896717
O23A O 0.5502(3) 0.64984(17) 0.5020(5)
C47A C 0.5277(3) 0.57517(16) 0.8440(4)
C48A C 0.5949(3) 0.78036(16) 0.7602(4)
H20A H 0.609072 0.767239 0.804529
H21A H 0.624762 0.794451 0.759423
O24A O 0.6953(4) 0.5501(3) 0.6784(5)
C49A C 0.6907(3) 0.6372(2) 1.0167(3)
H22A H 0.670278 0.635000 1.042725
H23A H 0.684448 0.662401 0.996284
O25A O 0.3344(4) 0.6021(2) 0.4148(5)
O26A O 0.8563(3) 0.5547(2) 0.8508(4)
O27A O 0.2324(3) 0.69854(19) 0.3962(4)
O28A O 0.3969(4) 0.6018(3) 0.5828(5)
C50A C 0.8235(3) 0.6994(2) 0.9483(4)
H24A H 0.847481 0.687099 0.932986
H25A H 0.815151 0.681016 0.975349
O29A O 0.4113(4) 0.5509(2) 0.8519(4)
O30A O 0.4346(5) 0.5506(3) 0.6693(5)
C51A C 0.4787(4) 0.7424(2) 0.8731(5)
H26A H 0.488244 0.760040 0.846026
H27A H 0.441115 0.734792 0.844348
C52A C 0.0270(3) 0.5641(3) 0.3058(5)
H28A H 0.031280 0.539486 0.288813
H29A H 0.027210 0.583099 0.273391
O31A O 0.5365(5) 0.500000 0.9473(8)
O32A O 0.6482(7) 0.500000 0.7675(7)
C53A C 0.8267(4) 0.7509(3) 1.0278(6)
H30A H 0.848503 0.771606 1.055693
H31A H 0.792106 0.760360 0.993394
H32A H 0.821073 0.732788 1.057038
C54A C 0.8535(4) 0.7332(3) 0.9949(5)
H33A H 0.888795 0.724543 1.030323
H34A H 0.859901 0.752045 0.966839
C55A C 0.5516(4) 0.8079(3) 0.7547(8)
H35A H 0.518645 0.793927 0.745105
H36A H 0.543280 0.825009 0.715951
C56A C 0.6399(9) 0.8299(3) 0.4948(8)
H37A H 0.643793 0.855565 0.482412
H38A H 0.614274 0.829485 0.513144
H39A H 0.674568 0.820698 0.529403
N1A N 0.6197(6) 0.8054(3) 0.4323(6)
C57A C 0.6116(4) 0.7684(3) 0.4393(6)
O33A O 0.5591(8) 0.500000 0.7586(8)
C58A C 0.7519(5) 0.6320(5) 1.0664(7)
H40A H 0.759883 0.605025 1.073929
H41A H 0.772686 0.642243 1.044504
C59A C 0.6082(11) 0.8186(8) 0.3629(11)
H42A H 0.615521 0.845369 0.364477
H43A H 0.631073 0.805140 0.347829
H44A H 0.570621 0.813874 0.330911
C60A C 0.5689(14) 0.8310(9) 0.8204(16)
H45A H 0.583074 0.813829 0.859942
H46A H 0.598287 0.847885 0.825697
C61A C -0.0268(6) 0.5651(6) 0.3034(10)
H47A H -0.028729 0.539544 0.319169
H48A H -0.019389 0.581165 0.343091
C62A C 0.1435(7) 0.6059(5) 0.6214(10)
H49A H 0.108777 0.601650 0.620980
H50A H 0.135967 0.614313 0.575160
C63A C 0.7695(9) 0.6502(7) 1.1325(12)
H51A H 0.808963 0.648239 1.157594
H52A H 0.755327 0.635435 1.158382
C64A C 0.755(2) 0.6899(10) 1.135(2)
H53A H 0.769865 0.697890 1.182666
H54A H 0.770181 0.705424 1.111611
H55A H 0.716243 0.692548 1.112403
C65A C 0.4823(12) 0.7623(8) 0.9335(13)
H56A H 0.520314 0.768664 0.963007
H57A H 0.471649 0.744666 0.959418
C66A C 0.1296(13) 0.6675(7) 0.6634(15)
H58A H 0.146708 0.688192 0.695087
H59A H 0.112772 0.676908 0.616473
H60A H 0.102319 0.656177 0.673180
C67A C 0.5242(12) 0.8541(9) 0.8216(15)
H61A H 0.538031 0.867961 0.864579
H62A H 0.510476 0.871696 0.783283
H63A H 0.495244 0.837594 0.817572
C68A C 0.1731(12) 0.6372(7) 0.6723(16)
H64A H 0.200953 0.648292 0.662544
H65A H 0.190449 0.627458 0.719528
C69A C 0.4487(13) 0.7989(8) 0.9222(15)
H66A H 0.454953 0.809008 0.966405
H67A H 0.459514 0.817361 0.898295
H68A H 0.410610 0.793245 0.894688
C70A C -0.0800(10) 0.5724(8) 0.2625(14)
H69A H -0.099851 0.568272 0.288298
H70A H -0.084353 0.598436 0.247186
H71A H -0.093905 0.555867 0.222719
C71A C 0.1725(3) 0.56996(17) 0.6355(4)
H72A H 0.149242 0.551358 0.601736
H73A H 0.179220 0.561152 0.681205
O2D O 0.21835(15) 0.38343(10) 0.3818(2)
O3D O 0.19025(17) 0.43455(10) 0.2974(2)
O5D O 0.30718(15) 0.38250(10) 0.6217(2)
O7D O 0.34254(16) 0.43460(10) 0.7058(2)
O9D O 0.29805(17) 0.36041(11) 0.5010(2)
C3D C 0.2214(2) 0.41577(13) 0.5655(3)
C6D C 0.2626(2) 0.39392(13) 0.5634(3)
C7D C 0.1754(2) 0.41592(12) 0.4404(3)
C8D C 0.2597(2) 0.38247(14) 0.5029(3)
C10D C 0.2163(2) 0.39426(13) 0.4395(3)
C13D C 0.2556(2) 0.46575(14) 0.6536(3)
C15D C 0.3120(2) 0.46604(14) 0.6883(3)
C17D C 0.1790(2) 0.42602(13) 0.5027(3)
H1D H 0.151141 0.440789 0.502782
C23D C 0.2265(2) 0.42857(14) 0.6335(3)
H4D H 0.249386 0.409895 0.668362
C25D C 0.1299(2) 0.42852(14) 0.3732(3)
H6D H 0.126930 0.409651 0.338372
C28D C 0.1433(2) 0.46550(14) 0.3510(3)
C29D C 0.1730(2) 0.46585(13) 0.3156(3)
C39D C 0.0746(2) 0.42926(18) 0.3730(4)
H14D H 0.075666 0.448986 0.404843
H15D H 0.069745 0.405150 0.391114
C52D C 0.0270(3) 0.4359(3) 0.3058(5)
H28D H 0.031280 0.460514 0.288813
H29D H 0.027210 0.416901 0.273391
C61D C -0.0268(6) 0.4349(6) 0.3034(10)
H47D H -0.028729 0.460456 0.319169
H48D H -0.019389 0.418835 0.343091
C62D C 0.1435(7) 0.3941(5) 0.6214(10)
H49D H 0.108777 0.398350 0.620980
H50D H 0.135967 0.385687 0.575160
C66D C 0.1296(13) 0.3325(7) 0.6634(15)
H58D H 0.146708 0.311808 0.695087
H59D H 0.112772 0.323092 0.616473
H60D H 0.102319 0.343823 0.673180
C68D C 0.1731(12) 0.3628(7) 0.6723(16)
H64D H 0.200953 0.351708 0.662544
H65D H 0.190449 0.372542 0.719528
C70D C -0.0800(10) 0.4276(8) 0.2625(14)
H69D H -0.099851 0.431728 0.288298
H70D H -0.084353 0.401564 0.247186
H71D H -0.093905 0.444133 0.222719
C71D C 0.1725(3) 0.43004(17) 0.6355(4)
H72D H 0.149242 0.448642 0.601736
H73D H 0.179220 0.438848 0.681205
Mg1D Mg 0.58693(7) 0.29691(5) 0.49987(10)
Mg3D Mg 0.77580(11) 0.44696(6) 0.76317(13)
Mg4D Mg 0.42225(9) 0.44756(5) 0.76113(14)
Mg5D Mg 0.35493(11) 0.35094(8) 0.59629(13)
Mg6D Mg 0.28512(12) 0.35233(10) 0.40462(13)
O1D O 0.40930(15) 0.34301(10) 0.6960(2)
O4D O 0.73481(15) 0.34272(10) 0.6949(2)
O6D O 0.57337(15) 0.27708(11) 0.5784(2)
O8D O 0.40617(16) 0.31827(11) 0.5799(2)
O10D O 0.65328(16) 0.31847(11) 0.5791(2)
O11D O 0.48513(16) 0.27742(11) 0.5780(2)
O12D O 0.76657(18) 0.39226(11) 0.7828(2)
O15D O 0.62252(19) 0.24574(11) 0.4982(3)
O16D O 0.44482(17) 0.39363(11) 0.7822(2)
O17D O 0.6947(2) 0.45883(11) 0.9040(2)
O18D O 0.7438(2) 0.45619(11) 0.8256(2)
O19D O 0.60609(18) 0.45913(12) 0.9015(2)
O20D O 0.50072(18) 0.45710(11) 0.8194(3)
C1D C 0.4502(2) 0.31990(14) 0.7023(3)
C2D C 0.6197(2) 0.27263(14) 0.7023(3)
C4D C 0.6995(2) 0.31959(13) 0.7009(3)
C5D C 0.6558(2) 0.30770(15) 0.6392(3)
C9D C 0.4909(2) 0.30783(14) 0.7642(3)
C11D C 0.4470(2) 0.30793(14) 0.6395(3)
C12D C 0.4891(2) 0.28564(13) 0.6405(3)
C14D C 0.6149(2) 0.28584(14) 0.6393(3)
C16D C 0.5306(2) 0.27353(13) 0.7017(3)
C19D C 0.5742(2) 0.24915(15) 0.7015(3)
H2D H 0.558005 0.235013 0.657568
C21D C 0.7038(2) 0.30717(14) 0.7637(3)
C22D C 0.5306(2) 0.28476(13) 0.7620(3)
H3D H 0.558967 0.276432 0.803989
C24D C 0.6633(2) 0.28401(13) 0.7625(3)
H5D H 0.665835 0.275732 0.804633
C27D C 0.7510(2) 0.32000(14) 0.8296(3)
H8D H 0.780834 0.325670 0.818569
C30D C 0.7455(3) 0.39014(16) 0.8275(3)
C32D C 0.7366(2) 0.35707(16) 0.8532(3)
C33D C 0.6089(3) 0.39184(17) 0.9139(3)
C34D C 0.4925(2) 0.32083(14) 0.8302(3)
H10D H 0.455017 0.326928 0.819992
C35D C 0.6706(3) 0.39203(17) 0.9599(3)
H11D H 0.679467 0.416839 0.983181
C36D C 0.5811(3) 0.42472(17) 0.8878(3)
C37D C 0.5252(2) 0.35747(15) 0.8531(3)
C38D C 0.7719(2) 0.28953(16) 0.8859(3)
H12D H 0.778060 0.266210 0.866691
H13D H 0.744155 0.284436 0.900249
C40D C 0.7128(2) 0.35828(16) 0.8951(3)
H16D H 0.706134 0.335353 0.911239
C41D C 0.4986(2) 0.39090(16) 0.8258(3)
C42D C 0.5802(2) 0.35849(16) 0.8962(3)
H17D H 0.598631 0.335737 0.914074
C43D C 0.7326(3) 0.42408(17) 0.8477(3)
C44D C 0.6981(2) 0.39104(16) 0.9150(3)
C45D C 0.7082(3) 0.42375(17) 0.8898(3)
O22D O 0.3124(3) 0.30129(16) 0.6076(3)
C46D C 0.5136(3) 0.29152(18) 0.8881(3)
H18D H 0.516963 0.303365 0.930262
H19D H 0.549762 0.283570 0.896717
O23D O 0.5502(3) 0.35016(17) 0.5020(5)
C47D C 0.5277(3) 0.42483(16) 0.8440(4)
C48D C 0.5949(3) 0.21964(16) 0.7602(4)
H20D H 0.609072 0.232761 0.804529
H21D H 0.624762 0.205549 0.759423
O24D O 0.6953(4) 0.4499(3) 0.6784(5)
C49D C 0.6907(3) 0.3628(2) 1.0167(3)
H22D H 0.670278 0.365000 1.042725
H23D H 0.684448 0.337599 0.996284
O25D O 0.3344(4) 0.3979(2) 0.4148(5)
O26D O 0.8563(3) 0.4453(2) 0.8508(4)
O27D O 0.2324(3) 0.30146(19) 0.3962(4)
O28D O 0.3969(4) 0.3982(3) 0.5828(5)
C50D C 0.8235(3) 0.3006(2) 0.9483(4)
H24D H 0.847481 0.312901 0.932986
H25D H 0.815151 0.318984 0.975349
O29D O 0.4113(4) 0.4491(2) 0.8519(4)
O30D O 0.4346(5) 0.4494(3) 0.6693(5)
C51D C 0.4787(4) 0.2576(2) 0.8731(5)
H26D H 0.488244 0.239960 0.846026
H27D H 0.441115 0.265208 0.844348
C53D C 0.8267(4) 0.2491(3) 1.0278(6)
H30D H 0.848503 0.228394 1.055693
H31D H 0.792106 0.239640 0.993394
H32D H 0.821073 0.267212 1.057038
C54D C 0.8535(4) 0.2668(3) 0.9949(5)
H33D H 0.888795 0.275457 1.030323
H34D H 0.859901 0.247955 0.966839
C55D C 0.5516(4) 0.1921(3) 0.7547(8)
H35D H 0.518645 0.206073 0.745105
H36D H 0.543280 0.174991 0.715951
C56D C 0.6399(9) 0.1701(3) 0.4948(8)
H37D H 0.643793 0.144435 0.482412
H38D H 0.614274 0.170515 0.513144
H39D H 0.674568 0.179302 0.529403
N1D N 0.6197(6) 0.1946(3) 0.4323(6)
C57D C 0.6116(4) 0.2316(3) 0.4393(6)
C58D C 0.7519(5) 0.3680(5) 1.0664(7)
H40D H 0.759883 0.394975 1.073929
H41D H 0.772686 0.357757 1.044504
C59D C 0.6082(11) 0.1814(8) 0.3629(11)
H42D H 0.615521 0.154631 0.364477
H43D H 0.631073 0.194860 0.347829
H44D H 0.570621 0.186126 0.330911
C60D C 0.5689(14) 0.1690(9) 0.8204(16)
H45D H 0.583074 0.186171 0.859942
H46D H 0.598287 0.152115 0.825697
C63D C 0.7695(9) 0.3498(7) 1.1325(12)
H51D H 0.808963 0.351761 1.157594
H52D H 0.755327 0.364565 1.158382
C64D C 0.755(2) 0.3101(10) 1.135(2)
H53D H 0.769865 0.302110 1.182666
H54D H 0.770181 0.294576 1.111611
H55D H 0.716243 0.307452 1.112403
C65D C 0.4823(12) 0.2377(8) 0.9335(13)
H56D H 0.520314 0.231336 0.963007
H57D H 0.471649 0.255334 0.959418
C67D C 0.5242(12) 0.1459(9) 0.8216(15)
H61D H 0.538031 0.132039 0.864579
H62D H 0.510476 0.128304 0.783283
H63D H 0.495244 0.162406 0.817572
C69D C 0.4487(13) 0.2011(8) 0.9222(15)
H66D H 0.454953 0.190992 0.966405
H67D H 0.459514 0.182639 0.898295
H68D H 0.410610 0.206755 0.894688
Mg1E Mg 0.41307(7) 0.29691(5) 0.50013(10)
Mg3E Mg 0.22420(11) 0.44696(6) 0.23683(13)
Mg4E Mg 0.57775(9) 0.44756(5) 0.23887(14)
Mg5E Mg 0.64507(11) 0.35094(8) 0.40371(13)
Mg6E Mg 0.71488(12) 0.35233(10) 0.59538(13)
O1E O 0.59070(15) 0.34301(10) 0.3040(2)
O4E O 0.26519(15) 0.34272(10) 0.3051(2)
O6E O 0.42663(15) 0.27708(11) 0.4216(2)
O8E O 0.59383(16) 0.31827(11) 0.4201(2)
O10E O 0.34672(16) 0.31847(11) 0.4209(2)
O11E O 0.51487(16) 0.27742(11) 0.4220(2)
O12E O 0.23343(18) 0.39226(11) 0.2172(2)
O15E O 0.37748(19) 0.24574(11) 0.5018(3)
O16E O 0.55518(17) 0.39363(11) 0.2178(2)
O17E O 0.3053(2) 0.45883(11) 0.0960(2)
O18E O 0.2562(2) 0.45619(11) 0.1744(2)
O19E O 0.39391(18) 0.45913(12) 0.0985(2)
O20E O 0.49928(18) 0.45710(11) 0.1806(3)
C1E C 0.5498(2) 0.31990(14) 0.2977(3)
C2E C 0.3803(2) 0.27263(14) 0.2977(3)
C4E C 0.3005(2) 0.31959(13) 0.2991(3)
C5E C 0.3442(2) 0.30770(15) 0.3608(3)
C9E C 0.5091(2) 0.30783(14) 0.2358(3)
C11E C 0.5530(2) 0.30793(14) 0.3605(3)
C12E C 0.5109(2) 0.28564(13) 0.3595(3)
C14E C 0.3851(2) 0.28584(14) 0.3607(3)
C16E C 0.4694(2) 0.27353(13) 0.2983(3)
C19E C 0.4258(2) 0.24915(15) 0.2985(3)
H2E H 0.441995 0.235013 0.342432
C21E C 0.2962(2) 0.30717(14) 0.2363(3)
C22E C 0.4694(2) 0.28476(13) 0.2380(3)
H3E H 0.441033 0.276432 0.196011
C24E C 0.3367(2) 0.28401(13) 0.2375(3)
H5E H 0.334165 0.275732 0.195367
C27E C 0.2490(2) 0.32000(14) 0.1704(3)
H8E H 0.219166 0.325670 0.181431
C30E C 0.2545(3) 0.39014(16) 0.1725(3)
C32E C 0.2634(2) 0.35707(16) 0.1468(3)
C33E C 0.3911(3) 0.39184(17) 0.0861(3)
C34E C 0.5075(2) 0.32083(14) 0.1698(3)
H10E H 0.544983 0.326928 0.180008
C35E C 0.3294(3) 0.39203(17) 0.0401(3)
H11E H 0.320533 0.416839 0.016819
C36E C 0.4189(3) 0.42472(17) 0.1122(3)
C37E C 0.4748(2) 0.35747(15) 0.1469(3)
C38E C 0.2281(2) 0.28953(16) 0.1141(3)
H12E H 0.221940 0.266210 0.133309
H13E H 0.255845 0.284436 0.099751
C40E C 0.2872(2) 0.35828(16) 0.1049(3)
H16E H 0.293866 0.335353 0.088761
C41E C 0.5014(2) 0.39090(16) 0.1742(3)
C42E C 0.4198(2) 0.35849(16) 0.1038(3)
H17E H 0.401369 0.335737 0.085926
C43E C 0.2674(3) 0.42408(17) 0.1523(3)
C44E C 0.3019(2) 0.39104(16) 0.0850(3)
C45E C 0.2918(3) 0.42375(17) 0.1102(3)
O22E O 0.6876(3) 0.30129(16) 0.3924(3)
C46E C 0.4864(3) 0.29152(18) 0.1119(3)
H18E H 0.483037 0.303365 0.069738
H19E H 0.450238 0.283570 0.103283
O23E O 0.4498(3) 0.35016(17) 0.4980(5)
C47E C 0.4723(3) 0.42483(16) 0.1560(4)
C48E C 0.4051(3) 0.21964(16) 0.2398(4)
H20E H 0.390928 0.232761 0.195471
H21E H 0.375238 0.205549 0.240577
O24E O 0.3047(4) 0.4499(3) 0.3216(5)
C49E C 0.3093(3) 0.3628(2) -0.0167(3)
H22E H 0.329722 0.365000 -0.042725
H23E H 0.315552 0.337599 0.003716
O25E O 0.6656(4) 0.3979(2) 0.5852(5)
O26E O 0.1437(3) 0.4453(2) 0.1492(4)
O27E O 0.7676(3) 0.30146(19) 0.6038(4)
O28E O 0.6031(4) 0.3982(3) 0.4172(5)
C50E C 0.1765(3) 0.3006(2) 0.0517(4)
H24E H 0.152519 0.312901 0.067014
H25E H 0.184849 0.318984 0.024651
O29E O 0.5887(4) 0.4491(2) 0.1481(4)
O30E O 0.5654(5) 0.4494(3) 0.3307(5)
C51E C 0.5213(4) 0.2576(2) 0.1269(5)
H26E H 0.511756 0.239960 0.153974
H27E H 0.558885 0.265208 0.155652
C53E C 0.1733(4) 0.2491(3) -0.0278(6)
H30E H 0.151497 0.228394 -0.055693
H31E H 0.207894 0.239640 0.006606
H32E H 0.178927 0.267212 -0.057038
C54E C 0.1465(4) 0.2668(3) 0.0051(5)
H33E H 0.111205 0.275457 -0.030323
H34E H 0.140099 0.247955 0.033161
C55E C 0.4484(4) 0.1921(3) 0.2453(8)
H35E H 0.481355 0.206073 0.254895
H36E H 0.456720 0.174991 0.284049
C56E C 0.3601(9) 0.1701(3) 0.5052(8)
H37E H 0.356207 0.144435 0.517588
H38E H 0.385726 0.170515 0.486856
H39E H 0.325432 0.179302 0.470597
N1E N 0.3803(6) 0.1946(3) 0.5677(6)
C57E C 0.3884(4) 0.2316(3) 0.5607(6)
C58E C 0.2481(5) 0.3680(5) -0.0664(7)
H40E H 0.240117 0.394975 -0.073929
H41E H 0.227314 0.357757 -0.044504
C59E C 0.3918(11) 0.1814(8) 0.6371(11)
H42E H 0.384479 0.154631 0.635523
H43E H 0.368927 0.194860 0.652171
H44E H 0.429379 0.186126 0.669089
C60E C 0.4311(14) 0.1690(9) 0.1796(16)
H45E H 0.416926 0.186171 0.140058
H46E H 0.401713 0.152115 0.174303
C63E C 0.2305(9) 0.3498(7) -0.1325(12)
H51E H 0.191037 0.351761 -0.157594
H52E H 0.244673 0.364565 -0.158382
C64E C 0.245(2) 0.3101(10) -0.135(2)
H53E H 0.230135 0.302110 -0.182666
H54E H 0.229819 0.294576 -0.111611
H55E H 0.283757 0.307452 -0.112403
C65E C 0.5177(12) 0.2377(8) 0.0665(13)
H56E H 0.479686 0.231336 0.036993
H57E H 0.528351 0.255334 0.040582
C67E C 0.4758(12) 0.1459(9) 0.1784(15)
H61E H 0.461969 0.132039 0.135421
H62E H 0.489524 0.128304 0.216717
H63E H 0.504756 0.162406 0.182428
C69E C 0.5513(13) 0.2011(8) 0.0778(15)
H66E H 0.545047 0.190992 0.033595
H67E H 0.540486 0.182639 0.101705
H68E H 0.589390 0.206755 0.105312
C72? C 0.3324(8) 0.6304(6) -0.0698(9)
H74? H 0.371850 0.628581 -0.044476
H75? H 0.318491 0.606485 -0.093818
C73? C 0.342(3) 0.656(2) -0.171(3)
H76? H 0.331482 0.676712 -0.203953
H77? H 0.381296 0.655663 -0.144503
H78? H 0.329781 0.632473 -0.195689
C74? C 0.317(3) 0.6617(16) -0.122(3)
H79? H 0.329060 0.685838 -0.097860
H80? H 0.277513 0.662635 -0.149077
H81? H 0.320135 0.662257 0.003810
H82? H 0.269776 0.636412 -0.041436
loop_
_geom_bond_atom_site_label_1
_geom_bond_atom_site_label_2
_geom_bond_site_symmetry_1
_geom_bond_site_symmetry_2
Mg1 O6 1_555 1_555
Mg2 O17 1_555 1_555
Mg3 O12 1_555 1_555
Mg4 O7 1_555 1_555
Mg5 O1 1_555 1_555
Mg6 O2 1_555 1_555
Mg7 O19 1_555 1_555
O1 C1 1_555 1_555
O2 C10 1_555 1_555
O3 C29 1_555 1_555
O4 C4 1_555 1_555
O5 Mg5 1_555 1_555
O6 C14 1_555 1_555
O7 C15 1_555 1_555
O8 Mg5 1_555 1_555
O9 Mg5 1_555 1_555
O10 Mg1 1_555 1_555
O11 C12 1_555 1_555
O12 C30 1_555 1_555
O13 C18 1_555 1_555
O14 Mg4 1_555 1_555
O15 Mg1 1_555 1_555
O16 Mg4 1_555 1_555
O17 C45 1_555 1_555
O18 Mg2 1_555 1_555
O19 C36 1_555 1_555
O20 Mg4 1_555 1_555
C1 C9 1_555 1_555
C2 C14 1_555 1_555
C3 C6 1_555 1_555
C4 C5 1_555 1_555
C5 O10 1_555 1_555
C6 O5 1_555 1_555
C7 C10 1_555 1_555
C8 O9 1_555 1_555
C9 C22 1_555 1_555
C10 C8 1_555 1_555
C11 O8 1_555 1_555
C12 C11 1_555 1_555
C13 C15 1_555 1_555
C14 C5 1_555 1_555
C15 C20 1_555 1_555
C16 C12 1_555 1_555
C17 C3 1_555 1_555
H1 C17 1_555 1_555
C18 C29 1_555 1_555
C19 C2 1_555 1_555
H2 C19 1_555 1_555
C20 O14 1_555 1_555
C21 C4 1_555 1_555
C22 C16 1_555 1_555
H3 C22 1_555 1_555
C23 C3 1_555 1_555
H4 C23 1_555 1_555
C24 C2 1_555 1_555
H5 C24 1_555 1_555
C25 C7 1_555 1_555
H6 C25 1_555 1_555
C26 H7 1_555 1_555
C27 C21 1_555 1_555
H8 C27 1_555 1_555
C28 C25 1_555 1_555
C29 C28 1_555 1_555
C30 C32 1_555 1_555
C31 C13 1_555 1_555
H9 C31 1_555 1_555
C32 C27 1_555 1_555
O21 Mg2 1_555 1_555
C33 C35 1_555 1_555
C34 C9 1_555 1_555
H10 C34 1_555 1_555
C35 H11 1_555 1_555
C36 C33 1_555 1_555
C37 C34 1_555 1_555
C38 C27 1_555 1_555
H12 C38 1_555 1_555
H13 C38 1_555 1_555
C39 C25 1_555 1_555
H14 C39 1_555 1_555
H15 C39 1_555 1_555
C40 C32 1_555 1_555
H16 C40 1_555 1_555
C41 O16 1_555 1_555
C42 C33 1_555 1_555
H17 C42 1_555 1_555
C43 O18 1_555 1_555
C44 C35 1_555 1_555
C45 C43 1_555 1_555
O22 Mg5 1_555 1_555
C46 C34 1_555 1_555
H18 C46 1_555 1_555
H19 C46 1_555 1_555
O23 Mg1 1_555 1_555
C47 O20 1_555 1_555
C48 C19 1_555 1_555
H20 C48 1_555 1_555
H21 C48 1_555 1_555
O24 Mg3 1_555 1_555
C49 C35 1_555 1_555
H22 C49 1_555 1_555
H23 C49 1_555 1_555
O25 Mg6 1_555 1_555
O26 Mg3 1_555 1_555
O27 Mg6 1_555 1_555
O28 Mg5 1_555 1_555
C50 C38 1_555 1_555
H24 C50 1_555 1_555
H25 C50 1_555 1_555
O29 Mg4 1_555 1_555
O30 Mg4 1_555 1_555
C51 C46 1_555 1_555
H26 C51 1_555 1_555
H27 C51 1_555 1_555
C52 C39 1_555 1_555
H28 C52 1_555 1_555
H29 C52 1_555 1_555
O31 Mg7 1_555 1_555
O32 Mg2 1_555 1_555
C53 H30 1_555 1_555
H31 C53 1_555 1_555
H32 C53 1_555 1_555
C54 C50 1_555 1_555
H33 C54 1_555 1_555
H34 C54 1_555 1_555
C55 C48 1_555 1_555
H35 C55 1_555 1_555
H36 C55 1_555 1_555
C56 H37 1_555 1_555
H38 C56 1_555 1_555
H39 C56 1_555 1_555
N1 C56 1_555 1_555
C57 O15 1_555 1_555
O33 Mg7 1_555 1_555
C58 C49 1_555 1_555
H40 C58 1_555 1_555
H41 C58 1_555 1_555
C59 N1 1_555 1_555
H42 C59 1_555 1_555
H43 C59 1_555 1_555
H44 C59 1_555 1_555
C60 C55 1_555 1_555
H45 C60 1_555 1_555
H46 C60 1_555 1_555
C61 C52 1_555 1_555
H47 C61 1_555 1_555
H48 C61 1_555 1_555
C62 H49 1_555 1_555
H50 C62 1_555 1_555
C63 C58 1_555 1_555
H51 C63 1_555 1_555
H52 C63 1_555 1_555
C64 C63 1_555 1_555
H53 C64 1_555 1_555
H54 C64 1_555 1_555
H55 C64 1_555 1_555
C65 C51 1_555 1_555
H56 C65 1_555 1_555
H57 C65 1_555 1_555
C66 H58 1_555 1_555
H59 C66 1_555 1_555
H60 C66 1_555 1_555
C67 C60 1_555 1_555
H61 C67 1_555 1_555
H62 C67 1_555 1_555
H63 C67 1_555 1_555
C68 C62 1_555 1_555
H64 C68 1_555 1_555
H65 C68 1_555 1_555
C69 C65 1_555 1_555
H66 C69 1_555 1_555
H67 C69 1_555 1_555
H68 C69 1_555 1_555
C70 C61 1_555 1_555
H69 C70 1_555 1_555
H70 C70 1_555 1_555
H71 C70 1_555 1_555
C71 C23 1_555 1_555
H72 C71 1_555 1_555
H73 C71 1_555 1_555
O2E C10E 1_555 1_555
O3E C29E 1_555 1_555
O5E C6E 1_555 1_555
O7E C15E 1_555 1_555
O9E C8E 1_555 1_555
C3E C6E 1_555 1_555
C6E C8E 1_555 1_555
C7E C10E 1_555 1_555
C8E C10E 1_555 1_555
C13E C31 1_555 1_555
C15E C20 1_555 1_555
C17E C3E 1_555 1_555
H1E C17E 1_555 1_555
C23E C3E 1_555 1_555
H4E C23E 1_555 1_555
C25E C7E 1_555 1_555
H6E C25E 1_555 1_555
C28E C26 1_555 1_555
C29E C18 1_555 1_555
C39E C25E 1_555 1_555
H14E C39E 1_555 1_555
H15E C39E 1_555 1_555
C52E C39E 1_555 1_555
H28E C52E 1_555 1_555
H29E C52E 1_555 1_555
C61E C52E 1_555 1_555
H47E C61E 1_555 1_555
H48E C61E 1_555 1_555
C62E H49E 1_555 1_555
H50E C62E 1_555 1_555
C66E H58E 1_555 1_555
H59E C66E 1_555 1_555
H60E C66E 1_555 1_555
C68E C62E 1_555 1_555
H64E C68E 1_555 1_555
H65E C68E 1_555 1_555
C70E C61E 1_555 1_555
H69E C70E 1_555 1_555
H70E C70E 1_555 1_555
H71E C70E 1_555 1_555
C71E C23E 1_555 1_555
H72E C71E 1_555 1_555
H73E C71E 1_555 1_555
Mg1A O8 1_555 1_555
Mg2A O17A 1_555 1_555
Mg3A O3 1_555 1_555
Mg4A O7A 1_555 1_555
Mg5A O1A 1_555 1_555
Mg6A O4 1_555 1_555
Mg7A O19A 1_555 1_555
O1A C1A 1_555 1_555
O2A Mg6A 1_555 1_555
O3A Mg3 1_555 1_555
O4A Mg6 1_555 1_555
O5A Mg5A 1_555 1_555
O6A Mg1A 1_555 1_555
O7A C15A 1_555 1_555
O8A Mg1 1_555 1_555
O9A Mg5A 1_555 1_555
O10A Mg6 1_555 1_555
O11A Mg1 1_555 1_555
O12A Mg3A 1_555 1_555
O13A Mg3 1_555 1_555
O14A Mg4A 1_555 1_555
O15A Mg1A 1_555 1_555
O16A Mg4A 1_555 1_555
O17A C45A 1_555 1_555
O18A Mg2A 1_555 1_555
O19A C36A 1_555 1_555
O20A Mg4A 1_555 1_555
C1A C9A 1_555 1_555
C2A C14A 1_555 1_555
C3A C6A 1_555 1_555
C4A O4A 1_555 1_555
C5A O10A 1_555 1_555
C6A O5A 1_555 1_555
C7A C10A 1_555 1_555
C8A O9A 1_555 1_555
C9A C22A 1_555 1_555
C10A O2A 1_555 1_555
C11A O8A 1_555 1_555
C12A O11A 1_555 1_555
C13A C15A 1_555 1_555
C14A O6A 1_555 1_555
C15A C20A 1_555 1_555
C16A C12A 1_555 1_555
C17A C3A 1_555 1_555
H1A C17A 1_555 1_555
C18A O13A 1_555 1_555
C19A C2A 1_555 1_555
H2A C19A 1_555 1_555
C20A O14A 1_555 1_555
C21A C4A 1_555 1_555
C22A C16A 1_555 1_555
H3A C22A 1_555 1_555
C23A C3A 1_555 1_555
H4A C23A 1_555 1_555
C24A C2A 1_555 1_555
H5A C24A 1_555 1_555
C25A C7A 1_555 1_555
H6A C25A 1_555 1_555
C26A H7A 1_555 1_555
C27A C21A 1_555 1_555
H8A C27A 1_555 1_555
C28A C25A 1_555 1_555
C29A O3A 1_555 1_555
C30A O12A 1_555 1_555
C31A C13A 1_555 1_555
H9A C31A 1_555 1_555
C32A C27A 1_555 1_555
O21A Mg2A 1_555 1_555
C33A C35A 1_555 1_555
C34A C9A 1_555 1_555
H10A C34A 1_555 1_555
C35A H11A 1_555 1_555
C36A C33A 1_555 1_555
C37A C34A 1_555 1_555
C38A C27A 1_555 1_555
H12A C38A 1_555 1_555
H13A C38A 1_555 1_555
C39A C25A 1_555 1_555
H14A C39A 1_555 1_555
H15A C39A 1_555 1_555
C40A C32A 1_555 1_555
H16A C40A 1_555 1_555
C41A O16A 1_555 1_555
C42A C33A 1_555 1_555
H17A C42A 1_555 1_555
C43A O18A 1_555 1_555
C44A C35A 1_555 1_555
C45A C43A 1_555 1_555
O22A Mg5A 1_555 1_555
C46A C34A 1_555 1_555
H18A C46A 1_555 1_555
H19A C46A 1_555 1_555
O23A Mg1A 1_555 1_555
C47A O20A 1_555 1_555
C48A C19A 1_555 1_555
H20A C48A 1_555 1_555
H21A C48A 1_555 1_555
O24A Mg3A 1_555 1_555
C49A C35A 1_555 1_555
H22A C49A 1_555 1_555
H23A C49A 1_555 1_555
O25A Mg6A 1_555 1_555
O26A Mg3A 1_555 1_555
O27A Mg6A 1_555 1_555
O28A Mg5A 1_555 1_555
C50A C38A 1_555 1_555
H24A C50A 1_555 1_555
H25A C50A 1_555 1_555
O29A Mg4A 1_555 1_555
O30A Mg4A 1_555 1_555
C51A C46A 1_555 1_555
H26A C51A 1_555 1_555
H27A C51A 1_555 1_555
C52A C39A 1_555 1_555
H28A C52A 1_555 1_555
H29A C52A 1_555 1_555
O31A Mg7A 1_555 1_555
O32A Mg2A 1_555 1_555
C53A H30A 1_555 1_555
H31A C53A 1_555 1_555
H32A C53A 1_555 1_555
C54A C50A 1_555 1_555
H33A C54A 1_555 1_555
H34A C54A 1_555 1_555
C55A C48A 1_555 1_555
H35A C55A 1_555 1_555
H36A C55A 1_555 1_555
C56A H37A 1_555 1_555
H38A C56A 1_555 1_555
H39A C56A 1_555 1_555
N1A C56A 1_555 1_555
C57A O15A 1_555 1_555
O33A Mg7A 1_555 1_555
C58A C49A 1_555 1_555
H40A C58A 1_555 1_555
H41A C58A 1_555 1_555
C59A N1A 1_555 1_555
H42A C59A 1_555 1_555
H43A C59A 1_555 1_555
H44A C59A 1_555 1_555
C60A C55A 1_555 1_555
H45A C60A 1_555 1_555
H46A C60A 1_555 1_555
C61A C52A 1_555 1_555
H47A C61A 1_555 1_555
H48A C61A 1_555 1_555
C62A H49A 1_555 1_555
H50A C62A 1_555 1_555
C63A C58A 1_555 1_555
H51A C63A 1_555 1_555
H52A C63A 1_555 1_555
C64A C63A 1_555 1_555
H53A C64A 1_555 1_555
H54A C64A 1_555 1_555
H55A C64A 1_555 1_555
C65A C51A 1_555 1_555
H56A C65A 1_555 1_555
H57A C65A 1_555 1_555
C66A H58A 1_555 1_555
H59A C66A 1_555 1_555
H60A C66A 1_555 1_555
C67A C60A 1_555 1_555
H61A C67A 1_555 1_555
H62A C67A 1_555 1_555
H63A C67A 1_555 1_555
C68A C62A 1_555 1_555
H64A C68A 1_555 1_555
H65A C68A 1_555 1_555
C69A C65A 1_555 1_555
H66A C69A 1_555 1_555
H67A C69A 1_555 1_555
H68A C69A 1_555 1_555
C70A C61A 1_555 1_555
H69A C70A 1_555 1_555
H70A C70A 1_555 1_555
H71A C70A 1_555 1_555
C71A C23A 1_555 1_555
H72A C71A 1_555 1_555
H73A C71A 1_555 1_555
O2D C10D 1_555 1_555
O3D C29D 1_555 1_555
O5D C6D 1_555 1_555
O7D C15D 1_555 1_555
O9D C8D 1_555 1_555
C3D C6D 1_555 1_555
C6D C8D 1_555 1_555
C7D C10D 1_555 1_555
C8D C10D 1_555 1_555
C13D C31A 1_555 1_555
C15D C20A 1_555 1_555
C17D C3D 1_555 1_555
H1D C17D 1_555 1_555
C23D C3D 1_555 1_555
H4D C23D 1_555 1_555
C25D C7D 1_555 1_555
H6D C25D 1_555 1_555
C28D C26A 1_555 1_555
C29D C18A 1_555 1_555
C39D C25D 1_555 1_555
H14D C39D 1_555 1_555
H15D C39D 1_555 1_555
C52D C39D 1_555 1_555
H28D C52D 1_555 1_555
H29D C52D 1_555 1_555
C61D C52D 1_555 1_555
H47D C61D 1_555 1_555
H48D C61D 1_555 1_555
C62D H49D 1_555 1_555
H50D C62D 1_555 1_555
C66D H58D 1_555 1_555
H59D C66D 1_555 1_555
H60D C66D 1_555 1_555
C68D C62D 1_555 1_555
H64D C68D 1_555 1_555
H65D C68D 1_555 1_555
C70D C61D 1_555 1_555
H69D C70D 1_555 1_555
H70D C70D 1_555 1_555
H71D C70D 1_555 1_555
C71D C23D 1_555 1_555
H72D C71D 1_555 1_555
H73D C71D 1_555 1_555
Mg1D O6D 1_555 1_555
Mg3D O13 1_555 1_555
Mg4D O14A 1_555 1_555
Mg5D O5D 1_555 1_555
Mg6D O2D 1_555 1_555
O1D Mg5D 1_555 1_555
O4D C4D 1_555 1_555
O6D C14D 1_555 1_555
O8D Mg5D 1_555 1_555
O10D Mg1D 1_555 1_555
O11D C12D 1_555 1_555
O12D Mg3D 1_555 1_555
O15D Mg1D 1_555 1_555
O16D Mg4D 1_555 1_555
O17D Mg2A 1_555 1_555
O18D Mg2A 1_555 1_555
O19D Mg7A 1_555 1_555
O20D Mg7A 1_555 1_555
C1D O1D 1_555 1_555
C2D C14D 1_555 1_555
C4D C5D 1_555 1_555
C5D O10D 1_555 1_555
C9D C1D 1_555 1_555
C11D O8D 1_555 1_555
C12D C11D 1_555 1_555
C14D C5D 1_555 1_555
C16D C12D 1_555 1_555
C19D C2D 1_555 1_555
H2D C19D 1_555 1_555
C21D C4D 1_555 1_555
C22D C9D 1_555 1_555
H3D C22D 1_555 1_555
C24D C2D 1_555 1_555
H5D C24D 1_555 1_555
C27D C21D 1_555 1_555
H8D C27D 1_555 1_555
C30D O12D 1_555 1_555
C32D C27D 1_555 1_555
C33D C35D 1_555 1_555
C34D C9D 1_555 1_555
H10D C34D 1_555 1_555
C35D H11D 1_555 1_555
C36D O19D 1_555 1_555
C37D C34D 1_555 1_555
C38D C27D 1_555 1_555
H12D C38D 1_555 1_555
H13D C38D 1_555 1_555
C40D C32D 1_555 1_555
H16D C40D 1_555 1_555
C41D O16D 1_555 1_555
C42D C33D 1_555 1_555
H17D C42D 1_555 1_555
C43D O18D 1_555 1_555
C44D C35D 1_555 1_555
C45D O17D 1_555 1_555
O22D Mg5D 1_555 1_555
C46D C34D 1_555 1_555
H18D C46D 1_555 1_555
H19D C46D 1_555 1_555
O23D Mg1D 1_555 1_555
C47D O20D 1_555 1_555
C48D C19D 1_555 1_555
H20D C48D 1_555 1_555
H21D C48D 1_555 1_555
O24D Mg3D 1_555 1_555
C49D C35D 1_555 1_555
H22D C49D 1_555 1_555
H23D C49D 1_555 1_555
O25D Mg6D 1_555 1_555
O26D Mg3D 1_555 1_555
O27D Mg6D 1_555 1_555
O28D Mg5D 1_555 1_555
C50D C38D 1_555 1_555
H24D C50D 1_555 1_555
H25D C50D 1_555 1_555
O29D Mg4D 1_555 1_555
O30D Mg4D 1_555 1_555
C51D C46D 1_555 1_555
H26D C51D 1_555 1_555
H27D C51D 1_555 1_555
C53D H30D 1_555 1_555
H31D C53D 1_555 1_555
H32D C53D 1_555 1_555
C54D C50D 1_555 1_555
H33D C54D 1_555 1_555
H34D C54D 1_555 1_555
C55D C48D 1_555 1_555
H35D C55D 1_555 1_555
H36D C55D 1_555 1_555
C56D H37D 1_555 1_555
H38D C56D 1_555 1_555
H39D C56D 1_555 1_555
N1D C56D 1_555 1_555
C57D O15D 1_555 1_555
C58D C49D 1_555 1_555
H40D C58D 1_555 1_555
H41D C58D 1_555 1_555
C59D N1D 1_555 1_555
H42D C59D 1_555 1_555
H43D C59D 1_555 1_555
H44D C59D 1_555 1_555
C60D C55D 1_555 1_555
H45D C60D 1_555 1_555
H46D C60D 1_555 1_555
C63D C58D 1_555 1_555
H51D C63D 1_555 1_555
H52D C63D 1_555 1_555
C64D C63D 1_555 1_555
H53D C64D 1_555 1_555
H54D C64D 1_555 1_555
H55D C64D 1_555 1_555
C65D C51D 1_555 1_555
H56D C65D 1_555 1_555
H57D C65D 1_555 1_555
C67D C60D 1_555 1_555
H61D C67D 1_555 1_555
H62D C67D 1_555 1_555
H63D C67D 1_555 1_555
C69D C65D 1_555 1_555
H66D C69D 1_555 1_555
H67D C69D 1_555 1_555
H68D C69D 1_555 1_555
Mg1E O8D 1_555 1_555
Mg3E O13A 1_555 1_555
Mg4E O14 1_555 1_555
Mg5E O5E 1_555 1_555
Mg6E O2E 1_555 1_555
O1E Mg5E 1_555 1_555
O4E Mg6D 1_555 1_555
O6E Mg1E 1_555 1_555
O8E Mg1D 1_555 1_555
O10E Mg6D 1_555 1_555
O11E Mg1D 1_555 1_555
O12E Mg3E 1_555 1_555
O15E Mg1E 1_555 1_555
O16E Mg4E 1_555 1_555
O17E Mg2 1_555 1_555
O18E Mg2 1_555 1_555
O19E Mg7 1_555 1_555
O20E Mg7 1_555 1_555
C1E O1E 1_555 1_555
C2E C14E 1_555 1_555
C4E O4E 1_555 1_555
C5E O10E 1_555 1_555
C9E C1E 1_555 1_555
C11E O8E 1_555 1_555
C12E O11E 1_555 1_555
C14E O6E 1_555 1_555
C16E C12E 1_555 1_555
C19E C2E 1_555 1_555
H2E C19E 1_555 1_555
C21E C4E 1_555 1_555
C22E C9E 1_555 1_555
H3E C22E 1_555 1_555
C24E C2E 1_555 1_555
H5E C24E 1_555 1_555
C27E C21E 1_555 1_555
H8E C27E 1_555 1_555
C30E O12E 1_555 1_555
C32E C27E 1_555 1_555
C33E C35E 1_555 1_555
C34E C9E 1_555 1_555
H10E C34E 1_555 1_555
C35E H11E 1_555 1_555
C36E O19E 1_555 1_555
C37E C34E 1_555 1_555
C38E C27E 1_555 1_555
H12E C38E 1_555 1_555
H13E C38E 1_555 1_555
C40E C32E 1_555 1_555
H16E C40E 1_555 1_555
C41E O16E 1_555 1_555
C42E C33E 1_555 1_555
H17E C42E 1_555 1_555
C43E O18E 1_555 1_555
C44E C35E 1_555 1_555
C45E O17E 1_555 1_555
O22E Mg5E 1_555 1_555
C46E C34E 1_555 1_555
H18E C46E 1_555 1_555
H19E C46E 1_555 1_555
O23E Mg1E 1_555 1_555
C47E O20E 1_555 1_555
C48E C19E 1_555 1_555
H20E C48E 1_555 1_555
H21E C48E 1_555 1_555
O24E Mg3E 1_555 1_555
C49E C35E 1_555 1_555
H22E C49E 1_555 1_555
H23E C49E 1_555 1_555
O25E Mg6E 1_555 1_555
O26E Mg3E 1_555 1_555
O27E Mg6E 1_555 1_555
O28E Mg5E 1_555 1_555
C50E C38E 1_555 1_555
H24E C50E 1_555 1_555
H25E C50E 1_555 1_555
O29E Mg4E 1_555 1_555
O30E Mg4E 1_555 1_555
C51E C46E 1_555 1_555
H26E C51E 1_555 1_555
H27E C51E 1_555 1_555
C53E H30E 1_555 1_555
H31E C53E 1_555 1_555
H32E C53E 1_555 1_555
C54E C50E 1_555 1_555
H33E C54E 1_555 1_555
H34E C54E 1_555 1_555
C55E C48E 1_555 1_555
H35E C55E 1_555 1_555
H36E C55E 1_555 1_555
C56E H37E 1_555 1_555
H38E C56E 1_555 1_555
H39E C56E 1_555 1_555
N1E C56E 1_555 1_555
C57E O15E 1_555 1_555
C58E C49E 1_555 1_555
H40E C58E 1_555 1_555
H41E C58E 1_555 1_555
C59E N1E 1_555 1_555
H42E C59E 1_555 1_555
H43E C59E 1_555 1_555
H44E C59E 1_555 1_555
C60E C55E 1_555 1_555
H45E C60E 1_555 1_555
H46E C60E 1_555 1_555
C63E C58E 1_555 1_555
H51E C63E 1_555 1_555
H52E C63E 1_555 1_555
C64E C63E 1_555 1_555
H53E C64E 1_555 1_555
H54E C64E 1_555 1_555
H55E C64E 1_555 1_555
C65E C51E 1_555 1_555
H56E C65E 1_555 1_555
H57E C65E 1_555 1_555
C67E C60E 1_555 1_555
H61E C67E 1_555 1_555
H62E C67E 1_555 1_555
H63E C67E 1_555 1_555
C69E C65E 1_555 1_555
H66E C69E 1_555 1_555
H67E C69E 1_555 1_555
H68E C69E 1_555 1_555
Mg3 O18 1_555 1_555
Mg6 O9 1_555 1_555
Mg7 O20 1_555 1_555
O10 Mg6A 1_555 1_555
O11 Mg1A 1_555 1_555
O13 Mg3A 1_555 1_555
C1 C11 1_555 1_555
C6 C8 1_555 1_555
C7 C17 1_555 1_555
C13 C23 1_555 1_555
C16 C19 1_555 1_555
C21 C24 1_555 1_555
C26 C28 1_555 1_555
C30 C43 1_555 1_555
C36 C47 1_555 1_555
C37 C41 1_555 1_555
C37 C42 1_555 1_555
C40 C44 1_555 1_555
C41 C47 1_555 1_555
C44 C45 1_555 1_555
C53 C54 1_555 1_555
N1 C57 1_555 1_555
C62 C71 1_555 1_555
C66 C68 1_555 1_555
O3E Mg3D 1_555 1_555
O7E Mg4E 1_555 1_555
O9E Mg5E 1_555 1_555
O9E Mg6E 1_555 1_555
C7E C17E 1_555 1_555
C13E C15E 1_555 1_555
C13E C23E 1_555 1_555
C25E C28E 1_555 1_555
C28E C29E 1_555 1_555
C62E C71E 1_555 1_555
C66E C68E 1_555 1_555
Mg1A O10A 1_555 1_555
Mg3A O18A 1_555 1_555
Mg5A O8A 1_555 1_555
Mg6A O9A 1_555 1_555
Mg7A O20A 1_555 1_555
C1A C11A 1_555 1_555
C4A C5A 1_555 1_555
C5A C14A 1_555 1_555
C6A C8A 1_555 1_555
C7A C17A 1_555 1_555
C8A C10A 1_555 1_555
C11A C12A 1_555 1_555
C13A C23A 1_555 1_555
C16A C19A 1_555 1_555
C18A C29A 1_555 1_555
C21A C24A 1_555 1_555
C26A C28A 1_555 1_555
C28A C29A 1_555 1_555
C30A C32A 1_555 1_555
C30A C43A 1_555 1_555
C36A C47A 1_555 1_555
C37A C41A 1_555 1_555
C37A C42A 1_555 1_555
C40A C44A 1_555 1_555
C41A C47A 1_555 1_555
C44A C45A 1_555 1_555
C53A C54A 1_555 1_555
N1A C57A 1_555 1_555
C62A C71A 1_555 1_555
C66A C68A 1_555 1_555
O3D Mg3E 1_555 1_555
O7D Mg4D 1_555 1_555
O9D Mg5D 1_555 1_555
O9D Mg6D 1_555 1_555
C7D C17D 1_555 1_555
C13D C15D 1_555 1_555
C13D C23D 1_555 1_555
C25D C28D 1_555 1_555
C28D C29D 1_555 1_555
C62D C71D 1_555 1_555
C66D C68D 1_555 1_555
Mg3D O18D 1_555 1_555
Mg4D O20D 1_555 1_555
O4D Mg6E 1_555 1_555
O10D Mg6E 1_555 1_555
O11D Mg1E 1_555 1_555
C1D C11D 1_555 1_555
C16D C19D 1_555 1_555
C16D C22D 1_555 1_555
C21D C24D 1_555 1_555
C30D C32D 1_555 1_555
C30D C43D 1_555 1_555
C33D C36D 1_555 1_555
C36D C47D 1_555 1_555
C37D C41D 1_555 1_555
C37D C42D 1_555 1_555
C40D C44D 1_555 1_555
C41D C47D 1_555 1_555
C43D C45D 1_555 1_555
C44D C45D 1_555 1_555
C53D C54D 1_555 1_555
N1D C57D 1_555 1_555
Mg1E O10E 1_555 1_555
Mg3E O18E 1_555 1_555
Mg4E O20E 1_555 1_555
Mg5E O8E 1_555 1_555
C1E C11E 1_555 1_555
C4E C5E 1_555 1_555
C5E C14E 1_555 1_555
C11E C12E 1_555 1_555
C16E C19E 1_555 1_555
C16E C22E 1_555 1_555
C21E C24E 1_555 1_555
C30E C32E 1_555 1_555
C30E C43E 1_555 1_555
C33E C36E 1_555 1_555
C36E C47E 1_555 1_555
C37E C41E 1_555 1_555
C37E C42E 1_555 1_555
C40E C44E 1_555 1_555
C41E C47E 1_555 1_555
C43E C45E 1_555 1_555
C44E C45E 1_555 1_555
C53E C54E 1_555 1_555
N1E C57E 1_555 1_555

#END
