
#######################################################################
#
#                 Cambridge Crystallographic Data Centre
#                                CCDC 
#
#######################################################################
#
# If this CIF has been generated from an entry in the Cambridge 
# Structural Database, then it will include bibliographic, chemical, 
# crystal, experimental, refinement or atomic coordinate data resulting 
# from the CCDC's data processing and validation procedures.
#
#######################################################################

data_NEDGIO
_chemical_formula_moiety         'C7 H10 N4 2+,2(C8 H5 O4 1-)'
_chemical_name_systematic        
"1,1'-Methylenebis(1H-imidazol-3-ium) bis(hydrogen phthalate)"
_symmetry_cell_setting           monoclinic
_symmetry_space_group_name_H-M   'C 2/m'
_symmetry_Int_Tables_number      12
_space_group_name_Hall           '-C 2y'
loop_
_symmetry_equiv_pos_site_id
_symmetry_equiv_pos_as_xyz
1 x,y,z
2 -x,y,-z
3 1/2+x,1/2+y,z
4 1/2-x,1/2+y,-z
5 -x,-y,-z
6 x,-y,z
7 1/2-x,1/2-y,-z
8 1/2+x,1/2-y,z
_cell_length_a                   15.0468(12)
_cell_length_b                   18.6291(16)
_cell_length_c                   8.116(10)
_cell_angle_alpha                90
_cell_angle_beta                 105.6730(10)
_cell_angle_gamma                90
_cell_volume                     2190.4
_exptl_crystal_colour            colorless
_exptl_crystal_description       block
_cell_formula_units_Z            4
loop_
_atom_site_label
_atom_site_type_symbol
_atom_site_fract_x
_atom_site_fract_y
_atom_site_fract_z
N1 N -0.06095(13) 0.28513(9) 0.8692(2)
N2 N -0.11134(16) 0.22032(11) 0.6466(2)
H1 H -0.1141 0.1967 0.5543
C1 C -0.03958(19) 0.25557(13) 0.7358(3)
H4 H 0.0169 0.2594 0.7104
C2 C -0.1815(2) 0.22682(16) 0.7228(4)
H5 H -0.2401 0.2068 0.6853
C3 C -0.14967(19) 0.26748(14) 0.8615(3)
H6 H -0.1822 0.2812 0.9388
C4 C 0.0000 0.32927(17) 1.0000
H7 H 0.0367 0.3599 0.9473
N1A N 0.06095(13) 0.28513(9) 1.1308(2)
N2A N 0.11134(16) 0.22032(11) 1.3534(2)
H1A H 0.1141 0.1967 1.4457
C1A C 0.03958(19) 0.25557(13) 1.2642(3)
H4A H -0.0169 0.2594 1.2896
C2A C 0.1815(2) 0.22682(16) 1.2772(4)
H5A H 0.2401 0.2068 1.3147
C3A C 0.14967(19) 0.26748(14) 1.1385(3)
H6A H 0.1822 0.2812 1.0612
H7A H -0.0367 0.3599 1.0527
O1 O 0.10812(14) 0.93636(9) 0.47766(18)
O2 O 0.11692(13) 0.84643(10) 0.6507(2)
C5 C 0.11418(16) 0.91216(14) 0.6262(3)
C6 C 0.11782(15) 0.96198(12) 0.7752(2)
C7 C 0.12271(18) 0.92706(14) 0.9284(3)
H8 H 0.1232 0.8771 0.9300
C8 C 0.1269(2) 0.96327(15) 1.0780(3)
H9 H 0.1298 0.9381 1.1782
O1E O 0.10812(14) 1.06364(9) 0.47766(18)
O2E O 0.11692(13) 1.15357(10) 0.6507(2)
C5E C 0.11418(16) 1.08784(14) 0.6262(3)
C6E C 0.11782(15) 1.03802(12) 0.7752(2)
C7E C 0.12271(18) 1.07294(14) 0.9284(3)
H8E H 0.1232 1.1229 0.9300
C8E C 0.1269(2) 1.03673(15) 1.0780(3)
H9E H 0.1298 1.0619 1.1782
O3 O 0.12482(14) 0.65329(10) 0.6892(3)
O4 O 0.12169(16) 0.56339(11) 0.8569(2)
C9 C 0.12656(16) 0.58827(14) 0.7139(3)
C10 C 0.13517(14) 0.53776(11) 0.5722(3)
C11 C 0.14461(18) 0.57271(13) 0.4263(3)
H10 H 0.1447 0.6226 0.4248
C12 C 0.15383(19) 0.53658(14) 0.2847(3)
H11 H 0.1600 0.5618 0.1895
O3E O 0.12482(14) 0.34671(10) 0.6892(3)
O4E O 0.12169(16) 0.43661(11) 0.8569(2)
C9E C 0.12656(16) 0.41173(14) 0.7139(3)
C10E C 0.13517(14) 0.46224(11) 0.5722(3)
C11E C 0.14461(18) 0.42729(13) 0.4263(3)
H10E H 0.1447 0.3774 0.4248
C12E C 0.15383(19) 0.46342(14) 0.2847(3)
H11E H 0.1600 0.4382 0.1895
H2? H 0.1070 0.9804 0.4796
H3? H 0.1242 0.5194 0.8551
loop_
_geom_bond_atom_site_label_1
_geom_bond_atom_site_label_2
_geom_bond_site_symmetry_1
_geom_bond_site_symmetry_2
N1 C1 1_555 1_555
N2 H1 1_555 1_555
O1 C5 1_555 1_555
O2 C5 1_555 1_555
O3 C9 1_555 1_555
O4 C9 1_555 1_555
C1 N2 1_555 1_555
H4 C1 1_555 1_555
C2 N2 1_555 1_555
H5 C2 1_555 1_555
C3 N1 1_555 1_555
H6 C3 1_555 1_555
C4 N1 1_555 1_555
H7 C4 1_555 1_555
C5 C6 1_555 1_555
C6 C7 1_555 1_555
C7 H8 1_555 1_555
C8 C7 1_555 1_555
H9 C8 1_555 1_555
C9 C10 1_555 1_555
C10 C11 1_555 1_555
C11 H10 1_555 1_555
C12 C11 1_555 1_555
H11 C12 1_555 1_555
N1A C4 1_555 1_555
N2A H1A 1_555 1_555
O1E C5E 1_555 1_555
O2E C5E 1_555 1_555
O3E C9E 1_555 1_555
O4E C9E 1_555 1_555
C1A N1A 1_555 1_555
H4A C1A 1_555 1_555
C2A N2A 1_555 1_555
H5A C2A 1_555 1_555
C3A N1A 1_555 1_555
H6A C3A 1_555 1_555
H7A C4 1_555 1_555
C5E C6E 1_555 1_555
C6E C6 1_555 1_555
C7E C6E 1_555 1_555
H8E C7E 1_555 1_555
C8E C8 1_555 1_555
H9E C8E 1_555 1_555
C9E C10E 1_555 1_555
C10E C10 1_555 1_555
C11E C10E 1_555 1_555
H10E C11E 1_555 1_555
C12E C12 1_555 1_555
H11E C12E 1_555 1_555
C2 C3 1_555 1_555
N2A C1A 1_555 1_555
C2A C3A 1_555 1_555
C7E C8E 1_555 1_555
C11E C12E 1_555 1_555

#END
