
#######################################################################
#
#                 Cambridge Crystallographic Data Centre
#                                CCDC 
#
#######################################################################
#
# If this CIF has been generated from an entry in the Cambridge 
# Structural Database, then it will include bibliographic, chemical, 
# crystal, experimental, refinement or atomic coordinate data resulting 
# from the CCDC's data processing and validation procedures.
#
#######################################################################

data_NEDGOU
_chemical_formula_moiety         'C10 H16 N4 2+,2(C7 H3 N2 O7 1-)'
_chemical_name_systematic        
"1,1'-Butane-1,4-diylbis(1H-imidazol-3-ium) bis(2-carboxy-4,6-dinitrophenolate)"
_symmetry_cell_setting           triclinic
_symmetry_space_group_name_H-M   'P -1'
_symmetry_Int_Tables_number      2
_space_group_name_Hall           '-P 1'
loop_
_symmetry_equiv_pos_site_id
_symmetry_equiv_pos_as_xyz
1 x,y,z
2 -x,-y,-z
_cell_length_a                   4.6129(4)
_cell_length_b                   12.9249(13)
_cell_length_c                   12.9980(13)
_cell_angle_alpha                115.592(2)
_cell_angle_beta                 96.4670(10)
_cell_angle_gamma                95.0350(10)
_cell_volume                     686.388
_exptl_crystal_colour            colorless
_exptl_crystal_description       block
_cell_formula_units_Z            1
loop_
_atom_site_label
_atom_site_type_symbol
_atom_site_fract_x
_atom_site_fract_y
_atom_site_fract_z
N1 N 0.3381(12) 0.2915(4) 0.5555(4)
N2 N 0.0823(13) 0.2300(5) 0.6517(5)
H1 H 0.0142 0.2251 0.7087
C1 C 0.2934(16) 0.3092(6) 0.6610(6)
H3 H 0.3963 0.3685 0.7301
C2 C -0.0137(17) 0.1563(6) 0.5377(6)
H4 H -0.1596 0.0917 0.5081
C3 C 0.1424(16) 0.1946(6) 0.4754(6)
H5 H 0.1227 0.1625 0.3952
C4 C 0.5425(15) 0.3652(6) 0.5263(6)
H6 H 0.6075 0.3178 0.4543
H7 H 0.7150 0.3997 0.5865
C5 C 0.3940(16) 0.4603(6) 0.5140(6)
H8 H 0.3251 0.5064 0.5855
H9 H 0.2237 0.4255 0.4528
N1A N 0.6619(12) 0.7085(4) 0.4445(4)
N2A N 0.9177(13) 0.7700(5) 0.3483(5)
H1A H 0.9858 0.7749 0.2913
C1A C 0.7066(16) 0.6908(6) 0.3390(6)
H3A H 0.6037 0.6315 0.2699
C2A C 1.0137(17) 0.8437(6) 0.4623(6)
H4A H 1.1596 0.9083 0.4919
C3A C 0.8576(16) 0.8054(6) 0.5246(6)
H5A H 0.8773 0.8375 0.6048
C4A C 0.4575(15) 0.6348(6) 0.4737(6)
H6A H 0.3925 0.6822 0.5457
H7A H 0.2850 0.6003 0.4135
C5A C 0.6060(16) 0.5397(6) 0.4860(6)
H8A H 0.6749 0.4936 0.4145
H9A H 0.7763 0.5745 0.5472
N3 N 0.4732(15) 0.9282(6) 1.2322(5)
N4 N 0.6709(14) 0.8239(6) 0.8435(5)
O1 O -0.1354(14) 0.5039(5) 0.7853(4)
O2 O -0.2662(11) 0.5474(4) 0.9555(4)
H2 H -0.2192 0.5990 1.0220
O3 O 0.0072(11) 0.7246(4) 1.1309(4)
O4 O 0.3646(16) 0.9089(5) 1.3031(4)
O5 O 0.6492(18) 1.0146(6) 1.2632(4)
O6 O 0.8505(14) 0.9137(5) 0.8839(5)
O7 O 0.6389(15) 0.7512(5) 0.7420(4)
C6 C -0.1007(17) 0.5685(7) 0.8882(7)
C7 C 0.1258(15) 0.6781(6) 0.9463(5)
C8 C 0.1689(15) 0.7495(5) 1.0670(6)
C9 C 0.3935(15) 0.8490(6) 1.1095(5)
C10 C 0.5552(15) 0.8736(6) 1.0366(6)
H10 H 0.6996 0.9387 1.0662
C11 C 0.4988(15) 0.8005(6) 0.9207(6)
C12 C 0.2873(15) 0.7016(6) 0.8740(6)
H11 H 0.2554 0.6521 0.7952
loop_
_geom_bond_atom_site_label_1
_geom_bond_atom_site_label_2
_geom_bond_site_symmetry_1
_geom_bond_site_symmetry_2
N1 C1 1_555 1_555
N2 H1 1_555 1_555
N3 O4 1_555 1_555
N4 O6 1_555 1_555
O1 C6 1_555 1_555
O2 H2 1_555 1_555
O3 C8 1_555 1_555
O5 N3 1_555 1_555
O7 N4 1_555 1_555
C1 N2 1_555 1_555
H3 C1 1_555 1_555
C2 N2 1_555 1_555
H4 C2 1_555 1_555
C3 N1 1_555 1_555
H5 C3 1_555 1_555
C4 N1 1_555 1_555
H6 C4 1_555 1_555
H7 C4 1_555 1_555
C5 C4 1_555 1_555
H8 C5 1_555 1_555
H9 C5 1_555 1_555
C6 O2 1_555 1_555
C7 C6 1_555 1_555
C8 C7 1_555 1_555
C9 N3 1_555 1_555
C10 C9 1_555 1_555
H10 C10 1_555 1_555
C11 N4 1_555 1_555
C12 C7 1_555 1_555
H11 C12 1_555 1_555
N1A C1A 1_555 1_555
N2A H1A 1_555 1_555
C1A N2A 1_555 1_555
H3A C1A 1_555 1_555
C2A N2A 1_555 1_555
H4A C2A 1_555 1_555
C3A N1A 1_555 1_555
H5A C3A 1_555 1_555
C4A N1A 1_555 1_555
H6A C4A 1_555 1_555
H7A C4A 1_555 1_555
C5A C5 1_555 1_555
H8A C5A 1_555 1_555
H9A C5A 1_555 1_555
C2 C3 1_555 1_555
C8 C9 1_555 1_555
C10 C11 1_555 1_555
C11 C12 1_555 1_555
C2A C3A 1_555 1_555
C4A C5A 1_555 1_555

#END
