
#######################################################################
#
#                 Cambridge Crystallographic Data Centre
#                                CCDC 
#
#######################################################################
#
# If this CIF has been generated from an entry in the Cambridge 
# Structural Database, then it will include bibliographic, chemical, 
# crystal, experimental, refinement or atomic coordinate data resulting 
# from the CCDC's data processing and validation procedures.
#
#######################################################################

data_NEDHIQ
_chemical_formula_moiety         'C2 H10 N2 2+,O3 S1 2-'
_chemical_name_systematic        'ethane-1,2-diaminium sulfite'
_symmetry_cell_setting           orthorhombic
_symmetry_space_group_name_H-M   'P 21 21 21'
_symmetry_Int_Tables_number      19
_space_group_name_Hall           'P 2ac 2ab'
loop_
_symmetry_equiv_pos_site_id
_symmetry_equiv_pos_as_xyz
1 x,y,z
2 1/2-x,-y,1/2+z
3 -x,1/2+y,1/2-z
4 1/2+x,1/2-y,-z
_cell_length_a                   6.4607(13)
_cell_length_b                   8.7972(18)
_cell_length_c                   11.571(2)
_cell_angle_alpha                90
_cell_angle_beta                 90
_cell_angle_gamma                90
_cell_volume                     657.65
_exptl_crystal_colour            colorless
_exptl_crystal_description       block
_cell_formula_units_Z            4
_chemical_properties_physical    
', Air-sensitive,Moisture-sensitive,Hygroscopic,Efflorescent,Deliquescent'
_exptl_crystal_recrystallization_method ethanol
loop_
_atom_site_label
_atom_site_type_symbol
_atom_site_fract_x
_atom_site_fract_y
_atom_site_fract_z
S1 S 0.15021(7) -0.01180(5) 0.38210(3)
O1 O 0.2890(2) 0.13165(14) 0.38456(12)
O2 O 0.2235(2) -0.09803(15) 0.27498(11)
O3 O 0.2185(3) -0.10566(16) 0.48412(11)
C1 C 0.1714(3) -0.4754(2) 0.41802(17)
H1 H 0.2411 -0.4711 0.4922
H2 H 0.0895 -0.3837 0.4092
C2 C 0.3301(3) -0.4858(2) 0.32133(19)
H3 H 0.4094 -0.5788 0.3297
H4 H 0.2594 -0.4893 0.2474
N1 N 0.0353(3) -0.61071(15) 0.41318(12)
H5 H -0.0593 -0.6048 0.4689
H6 H 0.1109 -0.6943 0.4229
H7 H -0.0276 -0.6143 0.3448
N2 N 0.4723(2) -0.35321(16) 0.32403(13)
H8 H 0.5651 -0.3620 0.2676
H9 H 0.5370 -0.3501 0.3919
H10 H 0.3999 -0.2681 0.3143
loop_
_geom_bond_atom_site_label_1
_geom_bond_atom_site_label_2
_geom_bond_site_symmetry_1
_geom_bond_site_symmetry_2
S1 O1 1_555 1_555
O2 S1 1_555 1_555
O3 S1 1_555 1_555
C1 H1 1_555 1_555
H2 C1 1_555 1_555
C2 C1 1_555 1_555
H3 C2 1_555 1_555
H4 C2 1_555 1_555
N1 C1 1_555 1_555
H5 N1 1_555 1_555
H6 N1 1_555 1_555
H7 N1 1_555 1_555
N2 C2 1_555 1_555
H8 N2 1_555 1_555
H9 N2 1_555 1_555
H10 N2 1_555 1_555

#END
