
#######################################################################
#
#                 Cambridge Crystallographic Data Centre
#                                CCDC 
#
#######################################################################
#
# If this CIF has been generated from an entry in the Cambridge 
# Structural Database, then it will include bibliographic, chemical, 
# crystal, experimental, refinement or atomic coordinate data resulting 
# from the CCDC's data processing and validation procedures.
#
#######################################################################

data_NEDHIP
_chemical_formula_moiety         'C18 H19 N4 O1 1+,C7 H3 N2 O7 1-'
_chemical_name_systematic        
'1-(2-(2-(1H-Benzimidazol-1-yl)ethoxy)ethyl)-1H-benzimidazol-3-ium 2-hydroxy-3,5-dinitrobenzoate'
_symmetry_cell_setting           triclinic
_symmetry_space_group_name_H-M   'P -1'
_symmetry_Int_Tables_number      2
_space_group_name_Hall           '-P 1'
loop_
_symmetry_equiv_pos_site_id
_symmetry_equiv_pos_as_xyz
1 x,y,z
2 -x,-y,-z
_cell_length_a                   13.5757(12)
_cell_length_b                   13.6543(13)
_cell_length_c                   13.7485(14)
_cell_angle_alpha                97.9990(10)
_cell_angle_beta                 106.217(2)
_cell_angle_gamma                91.0000(10)
_cell_volume                     2419.05
_exptl_crystal_colour            colorless
_exptl_crystal_description       block
_cell_formula_units_Z            4
loop_
_atom_site_label
_atom_site_type_symbol
_atom_site_fract_x
_atom_site_fract_y
_atom_site_fract_z
N1 N 0.7680(2) 1.0931(3) -0.0184(2)
N2 N 0.9184(3) 1.1157(3) -0.0444(3)
H1 H 0.9646 1.1234 -0.0751
N3 N 0.7920(3) 0.8383(3) 0.1730(3)
N4 N 0.9452(3) 0.8553(3) 0.1464(3)
O1 O 0.6490(2) 0.9468(2) 0.0447(2)
C1 C 0.8199(4) 1.1065(3) -0.0859(3)
H5 H 0.7886 1.1089 -0.1549
C2 C 0.9352(3) 1.1107(3) 0.0587(3)
C3 C 0.8408(3) 1.0958(3) 0.0763(3)
C4 C 0.8308(3) 1.0905(3) 0.1724(3)
H6 H 0.7668 1.0825 0.1836
C5 C 0.9203(3) 1.0977(3) 0.2507(3)
H7 H 0.9172 1.0927 0.3166
C6 C 1.0160(4) 1.1123(3) 0.2341(3)
H8 H 1.0748 1.1180 0.2894
C7 C 1.0255(3) 1.1185(3) 0.1387(3)
H9 H 1.0894 1.1275 0.1278
C8 C 0.8444(3) 0.8420(3) 0.1040(3)
H10 H 0.8134 0.8359 0.0339
C9 C 0.9585(3) 0.8604(3) 0.2511(3)
C10 C 0.8627(3) 0.8507(3) 0.2682(3)
C11 C 0.8508(4) 0.8546(4) 0.3655(3)
H11 H 0.7866 0.8477 0.3766
C12 C 0.9401(4) 0.8694(4) 0.4446(4)
H12 H 0.9362 0.8721 0.5114
C13 C 1.0366(4) 0.8804(4) 0.4289(4)
H13 H 1.0946 0.8910 0.4852
C14 C 1.0479(4) 0.8762(4) 0.3329(4)
H14 H 1.1122 0.8835 0.3225
C15 C 0.6556(3) 1.0824(4) -0.0412(3)
H15 H 0.6244 1.1084 -0.1042
H16 H 0.6348 1.1215 0.0134
C16 C 0.6162(3) 0.9763(4) -0.0524(3)
H17 H 0.5418 0.9710 -0.0774
H18 H 0.6434 0.9345 -0.1007
C17 C 0.6233(3) 0.8471(4) 0.0499(4)
H19 H 0.6428 0.8029 -0.0023
H20 H 0.5499 0.8371 0.0392
C18 C 0.6804(3) 0.8268(4) 0.1535(3)
H21 H 0.6600 0.8717 0.2046
H22 H 0.6618 0.7598 0.1604
N5 N 1.0511(3) 0.6213(3) 0.2458(3)
N6 N 1.0770(3) 0.6365(3) 0.0980(3)
H2 H 1.1080 0.6451 0.0529
N7 N 0.8238(4) 0.3429(3) 0.2069(3)
N8 N 0.8338(3) 0.3389(3) 0.0474(3)
O2 O 0.9780(3) 0.4744(2) 0.3496(2)
C19 C 1.1203(4) 0.6387(4) 0.1969(4)
H23 H 1.1903 0.6509 0.2286
C20 C 0.9724(4) 0.6179(3) 0.0801(3)
C21 C 0.9550(4) 0.6079(3) 0.1737(3)
C22 C 0.8580(4) 0.5923(3) 0.1826(4)
H24 H 0.8468 0.5867 0.2454
C23 C 0.7790(4) 0.5853(4) 0.0948(4)
H25 H 0.7120 0.5751 0.0978
C24 C 0.7960(4) 0.5932(4) 0.0007(4)
H26 H 0.7400 0.5864 -0.0576
C25 C 0.8922(4) 0.6104(4) -0.0088(4)
H27 H 0.9030 0.6167 -0.0715
C26 C 0.8841(4) 0.3378(3) 0.1435(4)
H28 H 0.9550 0.3339 0.1661
C27 C 0.7323(5) 0.3465(4) 0.0460(4)
C28 C 0.7265(5) 0.3497(4) 0.1466(4)
C29 C 0.6328(5) 0.3603(5) 0.1690(5)
H29 H 0.6275 0.3606 0.2350
C30 C 0.5509(6) 0.3701(5) 0.0906(6)
H30 H 0.4877 0.3791 0.1036
C31 C 0.5559(5) 0.3672(5) -0.0098(6)
H31 H 0.4964 0.3743 -0.0613
C32 C 0.6472(5) 0.3541(4) -0.0346(5)
H32 H 0.6510 0.3506 -0.1015
C33 C 1.0752(4) 0.6187(4) 0.3556(3)
H33 H 1.0231 0.6520 0.3816
H34 H 1.1407 0.6548 0.3898
C34 C 1.0803(4) 0.5159(4) 0.3807(4)
H35 H 1.1221 0.4774 0.3445
H36 H 1.1102 0.5169 0.4537
C35 C 0.9659(5) 0.3763(4) 0.3658(4)
H37 H 0.9852 0.3726 0.4386
H38 H 1.0090 0.3343 0.3345
C36 C 0.8557(5) 0.3436(4) 0.3183(4)
H39 H 0.8439 0.2774 0.3325
H40 H 0.8137 0.3875 0.3490
N9 N 0.6964(3) 0.9250(3) 0.6172(3)
N10 N 0.3537(4) 0.8871(4) 0.6537(4)
O3 O 0.3066(3) 0.7965(3) 0.2708(3)
O4 O 0.4614(3) 0.8200(3) 0.2524(2)
O5 O 0.6097(2) 0.8681(3) 0.4009(2)
H3 H 0.5748 0.8509 0.3415
O6 O 0.7565(3) 0.9212(4) 0.5687(3)
O7 O 0.7235(3) 0.9491(4) 0.7090(3)
O8 O 0.3913(4) 0.9142(4) 0.7458(3)
O9 O 0.2628(3) 0.8640(4) 0.6148(3)
C37 C 0.3995(5) 0.8188(4) 0.3072(4)
C38 C 0.4437(3) 0.8485(3) 0.4192(3)
C39 C 0.5523(3) 0.8723(3) 0.4597(3)
C40 C 0.5877(3) 0.8993(3) 0.5668(3)
C41 C 0.5246(3) 0.9039(3) 0.6296(3)
H41 H 0.5515 0.9222 0.7000
C42 C 0.4195(3) 0.8807(3) 0.5861(3)
C43 C 0.3806(3) 0.8534(3) 0.4819(3)
H42 H 0.3104 0.8380 0.4536
N11 N 0.3698(5) 0.6062(4) 0.4678(6)
N12 N 0.6944(5) 0.6189(4) 0.3757(5)
O10 O 0.8015(5) 0.6915(4) 0.7587(4)
O11 O 0.6614(5) 0.7152(4) 0.8017(4)
O12 O 0.4926(5) 0.6609(5) 0.6708(5)
H4 H 0.5345 0.6767 0.7271
O13 O 0.3252(4) 0.6174(4) 0.5350(5)
O14 O 0.3278(4) 0.5830(4) 0.3744(5)
O15 O 0.6446(5) 0.6146(4) 0.2869(4)
O16 O 0.7883(5) 0.6177(4) 0.4058(4)
C44 C 0.7062(6) 0.6924(5) 0.7351(5)
C45 C 0.6465(4) 0.6649(4) 0.6294(4)
C46 C 0.5388(5) 0.6505(4) 0.6024(4)
C47 C 0.4847(4) 0.6240(4) 0.5005(4)
C48 C 0.5325(4) 0.6133(4) 0.4227(4)
H43 H 0.4957 0.5960 0.3541
C49 C 0.6400(4) 0.6300(4) 0.4542(4)
C50 C 0.6963(4) 0.6553(4) 0.5552(4)
H44 H 0.7674 0.6657 0.5727
loop_
_geom_bond_atom_site_label_1
_geom_bond_atom_site_label_2
_geom_bond_site_symmetry_1
_geom_bond_site_symmetry_2
N1 C1 1_555 1_555
N2 H1 1_555 1_555
N3 C8 1_555 1_555
N4 C8 1_555 1_555
N5 C19 1_555 1_555
N6 H2 1_555 1_555
N7 C26 1_555 1_555
N8 C26 1_555 1_555
N9 O6 1_555 1_555
N10 O8 1_555 1_555
N11 O13 1_555 1_555
N12 O15 1_555 1_555
O1 C16 1_555 1_555
O2 C34 1_555 1_555
O3 C37 1_555 1_555
O4 C37 1_555 1_555
O5 H3 1_555 1_555
O7 N9 1_555 1_555
O9 N10 1_555 1_555
O10 C44 1_555 1_555
O11 C44 1_555 1_555
O12 H4 1_555 1_555
O14 N11 1_555 1_555
O16 N12 1_555 1_555
C1 N2 1_555 1_555
H5 C1 1_555 1_555
C2 N2 1_555 1_555
C3 N1 1_555 1_555
C4 C3 1_555 1_555
H6 C4 1_555 1_555
C5 C4 1_555 1_555
H7 C5 1_555 1_555
C6 C5 1_555 1_555
H8 C6 1_555 1_555
C7 C2 1_555 1_555
H9 C7 1_555 1_555
C8 H10 1_555 1_555
C9 N4 1_555 1_555
C10 N3 1_555 1_555
C11 C10 1_555 1_555
H11 C11 1_555 1_555
C12 C11 1_555 1_555
H12 C12 1_555 1_555
C13 C12 1_555 1_555
H13 C13 1_555 1_555
C14 C9 1_555 1_555
H14 C14 1_555 1_555
C15 N1 1_555 1_555
H15 C15 1_555 1_555
H16 C15 1_555 1_555
C16 C15 1_555 1_555
H17 C16 1_555 1_555
H18 C16 1_555 1_555
C17 O1 1_555 1_555
H19 C17 1_555 1_555
H20 C17 1_555 1_555
C18 N3 1_555 1_555
H21 C18 1_555 1_555
H22 C18 1_555 1_555
C19 N6 1_555 1_555
H23 C19 1_555 1_555
C20 N6 1_555 1_555
C21 N5 1_555 1_555
C22 C21 1_555 1_555
H24 C22 1_555 1_555
C23 C22 1_555 1_555
H25 C23 1_555 1_555
C24 C23 1_555 1_555
H26 C24 1_555 1_555
C25 C20 1_555 1_555
H27 C25 1_555 1_555
C26 H28 1_555 1_555
C27 N8 1_555 1_555
C28 N7 1_555 1_555
C29 C28 1_555 1_555
H29 C29 1_555 1_555
C30 C29 1_555 1_555
H30 C30 1_555 1_555
C31 C30 1_555 1_555
H31 C31 1_555 1_555
C32 C27 1_555 1_555
H32 C32 1_555 1_555
C33 N5 1_555 1_555
H33 C33 1_555 1_555
H34 C33 1_555 1_555
C34 C33 1_555 1_555
H35 C34 1_555 1_555
H36 C34 1_555 1_555
C35 O2 1_555 1_555
H37 C35 1_555 1_555
H38 C35 1_555 1_555
C36 N7 1_555 1_555
H39 C36 1_555 1_555
H40 C36 1_555 1_555
C37 C38 1_555 1_555
C38 C39 1_555 1_555
C39 O5 1_555 1_555
C40 N9 1_555 1_555
C41 C40 1_555 1_555
H41 C41 1_555 1_555
C42 N10 1_555 1_555
C43 C38 1_555 1_555
H42 C43 1_555 1_555
C44 C45 1_555 1_555
C45 C46 1_555 1_555
C46 O12 1_555 1_555
C47 N11 1_555 1_555
C48 C47 1_555 1_555
H43 C48 1_555 1_555
C49 N12 1_555 1_555
C50 C45 1_555 1_555
H44 C50 1_555 1_555
C2 C3 1_555 1_555
C6 C7 1_555 1_555
C9 C10 1_555 1_555
C13 C14 1_555 1_555
C17 C18 1_555 1_555
C20 C21 1_555 1_555
C24 C25 1_555 1_555
C27 C28 1_555 1_555
C31 C32 1_555 1_555
C35 C36 1_555 1_555
C39 C40 1_555 1_555
C41 C42 1_555 1_555
C42 C43 1_555 1_555
C46 C47 1_555 1_555
C48 C49 1_555 1_555
C49 C50 1_555 1_555

#END
