
#######################################################################
#
#                 Cambridge Crystallographic Data Centre
#                                CCDC 
#
#######################################################################
#
# If this CIF has been generated from an entry in the Cambridge 
# Structural Database, then it will include bibliographic, chemical, 
# crystal, experimental, refinement or atomic coordinate data resulting 
# from the CCDC's data processing and validation procedures.
#
#######################################################################

data_NEDHAH
_chemical_formula_moiety         'C17 H18 N4 2+,2(C7 H3 N2 O6 1-)'
_chemical_name_systematic        
"1,1'-Propane-1,3-diylbis(1H-benzimidazol-3-ium) bis(3,5-dinitrobenzoate)"
_symmetry_cell_setting           monoclinic
_symmetry_space_group_name_H-M   'C 2/c'
_symmetry_Int_Tables_number      15
_space_group_name_Hall           '-C 2yn'
loop_
_symmetry_equiv_pos_site_id
_symmetry_equiv_pos_as_xyz
1 x,y,z
2 -x,y,1/2-z
3 1/2+x,1/2+y,z
4 1/2-x,1/2+y,1/2-z
5 -x,-y,-z
6 x,-y,1/2+z
7 1/2-x,1/2-y,-z
8 1/2+x,1/2-y,1/2+z
_cell_length_a                   9.9370(10)
_cell_length_b                   10.9609(12)
_cell_length_c                   28.540(3)
_cell_angle_alpha                90
_cell_angle_beta                 93.6900(10)
_cell_angle_gamma                90
_cell_volume                     3102.09
_exptl_crystal_colour            colorless
_exptl_crystal_description       block
_cell_formula_units_Z            4
loop_
_atom_site_label
_atom_site_type_symbol
_atom_site_fract_x
_atom_site_fract_y
_atom_site_fract_z
N1 N 0.6646(6) 0.0765(6) 0.1885(2)
N2 N 0.8426(6) 0.1638(6) 0.1613(2)
H1 H 0.9203 0.1982 0.1605
C1 C 0.7884(9) 0.1216(8) 0.1977(3)
H2 H 0.8314 0.1224 0.2276
C2 C 0.7531(7) 0.1433(7) 0.1243(3)
C3 C 0.6402(7) 0.0873(7) 0.1406(2)
C4 C 0.5307(7) 0.0541(8) 0.1108(3)
H3 H 0.4554 0.0170 0.1224
C5 C 0.5368(11) 0.0779(9) 0.0629(4)
H4 H 0.4651 0.0570 0.0419
C6 C 0.6505(12) 0.1329(10) 0.0471(4)
H5 H 0.6528 0.1492 0.0151
C7 C 0.7609(9) 0.1649(8) 0.0764(3)
H6 H 0.8373 0.1994 0.0647
C8 C 0.5806(9) 0.0102(8) 0.2206(3)
H7 H 0.6386 -0.0407 0.2411
H8 H 0.5197 -0.0432 0.2023
C9 C 0.5000 0.0908(10) 0.2500
H9 H 0.4409 0.1425 0.2303
N1A N 0.3354(6) 0.0765(6) 0.3115(2)
N2A N 0.1574(6) 0.1638(6) 0.3387(2)
H1A H 0.0797 0.1982 0.3395
C1A C 0.2116(9) 0.1216(8) 0.3023(3)
H2A H 0.1686 0.1224 0.2724
C2A C 0.2469(7) 0.1433(7) 0.3757(3)
C3A C 0.3598(7) 0.0873(7) 0.3594(2)
C4A C 0.4693(7) 0.0541(8) 0.3892(3)
H3A H 0.5446 0.0170 0.3776
C5A C 0.4632(11) 0.0779(9) 0.4371(4)
H4A H 0.5349 0.0570 0.4581
C6A C 0.3495(12) 0.1329(10) 0.4529(4)
H5A H 0.3472 0.1492 0.4849
C7A C 0.2391(9) 0.1649(8) 0.4236(3)
H6A H 0.1627 0.1994 0.4353
C8A C 0.4194(9) 0.0102(8) 0.2794(3)
H7A H 0.3614 -0.0407 0.2589
H8A H 0.4803 -0.0432 0.2977
H9A H 0.5591 0.1425 0.2697
N3 N 0.3858(9) 0.3753(7) 0.0152(2)
N4 N 0.6284(7) 0.4261(8) 0.1665(3)
O1 O 0.1828(6) 0.2298(6) 0.2004(2)
O2 O 0.0618(6) 0.2471(6) 0.1330(2)
O3 O 0.2781(8) 0.3884(7) -0.0063(2)
O4 O 0.4903(8) 0.3696(8) -0.0045(2)
O5 O 0.7267(6) 0.4625(7) 0.1468(3)
O6 O 0.6314(7) 0.4161(8) 0.2089(3)
C10 C 0.1708(8) 0.2574(7) 0.1589(3)
C11 C 0.2890(7) 0.3099(7) 0.1355(2)
C12 C 0.2776(7) 0.3219(7) 0.0871(2)
H10 H 0.1986 0.3015 0.0696
C13 C 0.3895(8) 0.3656(7) 0.0661(3)
C14 C 0.5055(8) 0.3994(7) 0.0907(3)
H11 H 0.5792 0.4284 0.0755
C15 C 0.5092(7) 0.3890(7) 0.1383(3)
C16 C 0.4020(7) 0.3442(7) 0.1613(3)
H12 H 0.4071 0.3376 0.1939
loop_
_geom_bond_atom_site_label_1
_geom_bond_atom_site_label_2
_geom_bond_site_symmetry_1
_geom_bond_site_symmetry_2
N1 C1 1_555 1_555
N2 H1 1_555 1_555
N3 O3 1_555 1_555
N4 O5 1_555 1_555
O1 C10 1_555 1_555
O2 C10 1_555 1_555
O4 N3 1_555 1_555
O6 N4 1_555 1_555
C1 N2 1_555 1_555
H2 C1 1_555 1_555
C2 N2 1_555 1_555
C3 N1 1_555 1_555
C4 C3 1_555 1_555
H3 C4 1_555 1_555
C5 C4 1_555 1_555
H4 C5 1_555 1_555
C6 C5 1_555 1_555
H5 C6 1_555 1_555
C7 C2 1_555 1_555
H6 C7 1_555 1_555
C8 N1 1_555 1_555
H7 C8 1_555 1_555
H8 C8 1_555 1_555
C9 C8 1_555 1_555
H9 C9 1_555 1_555
C10 C11 1_555 1_555
C11 C12 1_555 1_555
C12 H10 1_555 1_555
C13 N3 1_555 1_555
C14 C13 1_555 1_555
H11 C14 1_555 1_555
C15 N4 1_555 1_555
C16 C11 1_555 1_555
H12 C16 1_555 1_555
N1A C1A 1_555 1_555
N2A H1A 1_555 1_555
C1A N2A 1_555 1_555
H2A C1A 1_555 1_555
C2A N2A 1_555 1_555
C3A N1A 1_555 1_555
C4A C3A 1_555 1_555
H3A C4A 1_555 1_555
C5A C4A 1_555 1_555
H4A C5A 1_555 1_555
C6A C5A 1_555 1_555
H5A C6A 1_555 1_555
C7A C2A 1_555 1_555
H6A C7A 1_555 1_555
C8A C9 1_555 1_555
H7A C8A 1_555 1_555
H8A C8A 1_555 1_555
H9A C9 1_555 1_555
C2 C3 1_555 1_555
C6 C7 1_555 1_555
C12 C13 1_555 1_555
C14 C15 1_555 1_555
C15 C16 1_555 1_555
N1A C8A 1_555 1_555
C2A C3A 1_555 1_555
C6A C7A 1_555 1_555

#END
