
#######################################################################
#
#                 Cambridge Crystallographic Data Centre
#                                CCDC 
#
#######################################################################
#
# If this CIF has been generated from an entry in the Cambridge 
# Structural Database, then it will include bibliographic, chemical, 
# crystal, experimental, refinement or atomic coordinate data resulting 
# from the CCDC's data processing and validation procedures.
#
#######################################################################

data_NEDJIS
_chemical_formula_moiety         'C14 H14 N4 O4'
_chemical_name_systematic        
'methyl (4-((3-oxo-2,3-dihydro-4H-1,4-benzoxazin-4-yl)methyl)-1H-1,2,3-triazol-1-yl)acetate'
_symmetry_cell_setting           monoclinic
_symmetry_space_group_name_H-M   'P 21/n'
_symmetry_Int_Tables_number      14
_space_group_name_Hall           '-P 2yn'
loop_
_symmetry_equiv_pos_site_id
_symmetry_equiv_pos_as_xyz
1 x,y,z
2 1/2-x,1/2+y,1/2-z
3 -x,-y,-z
4 1/2+x,1/2-y,1/2+z
_cell_length_a                   13.6642(9)
_cell_length_b                   4.6031(3)
_cell_length_c                   22.6165(13)
_cell_angle_alpha                90
_cell_angle_beta                 103.662(2)
_cell_angle_gamma                90
_cell_volume                     1382.28
_exptl_crystal_colour            colorless
_exptl_crystal_description       plate
_cell_formula_units_Z            4
loop_
_atom_site_label
_atom_site_type_symbol
_atom_site_fract_x
_atom_site_fract_y
_atom_site_fract_z
C1 C 0.28585(14) 0.3199(4) 0.40266(8)
C2 C 0.38540(15) 0.2898(5) 0.43470(9)
H1 H 0.4087 0.3915 0.4719
C3 C 0.45060(17) 0.1137(6) 0.41303(11)
H2 H 0.5186 0.0958 0.4353
C4 C 0.41807(19) -0.0358(6) 0.35953(12)
H3 H 0.4634 -0.1581 0.3451
C5 C 0.31944(19) -0.0091(5) 0.32658(10)
H4 H 0.2968 -0.1114 0.2894
C6 C 0.25395(15) 0.1687(5) 0.34841(9)
C7 C 0.10329(16) 0.4390(5) 0.32397(9)
H5 H 0.0301 0.4089 0.3079
H6 H 0.1248 0.5937 0.2994
C8 C 0.12156(15) 0.5409(5) 0.38906(9)
C9 C 0.24076(15) 0.6165(5) 0.48594(8)
H7 H 0.1938 0.778 0.488
H8 H 0.3096 0.6983 0.4938
C10 C 0.23617(14) 0.4012(4) 0.53446(8)
C11 C 0.15534(15) 0.3086(4) 0.55532(8)
H9 H 0.0873 0.3704 0.5422
C12 C 0.14357(16) -0.0446(5) 0.63880(8)
H10 H 0.179 -0.2306 0.651
H11 H 0.0735 -0.0897 0.617
C13 C 0.14243(14) 0.1320(4) 0.69495(8)
C14 C 0.08012(17) 0.1298(6) 0.78417(9)
H12 H 0.1312 0.0394 0.8167
H13 H 0.0132 0.0979 0.7917
H14 H 0.0931 0.3389 0.7832
N1 N 0.21476(12) 0.4908(4) 0.42425(7)
N2 N 0.31941(12) 0.2574(4) 0.56556(7)
N3 N 0.29345(12) 0.0810(4) 0.60469(7)
N4 N 0.19334(12) 0.1107(4) 0.59845(7)
O1 O 0.15452(11) 0.1778(3) 0.31648(6)
O2 O 0.05622(11) 0.6711(4) 0.40686(7)
O3 O 0.18705(11) 0.3550(3) 0.70859(6)
O4 O 0.08420(10) 0.0014(3) 0.72626(6)
loop_
_geom_bond_atom_site_label_1
_geom_bond_atom_site_label_2
_geom_bond_site_symmetry_1
_geom_bond_site_symmetry_2
C1 C2 1_555 1_555
C2 H1 1_555 1_555
C3 C2 1_555 1_555
H2 C3 1_555 1_555
C4 C3 1_555 1_555
H3 C4 1_555 1_555
C5 C4 1_555 1_555
H4 C5 1_555 1_555
C6 C1 1_555 1_555
C7 H5 1_555 1_555
H6 C7 1_555 1_555
C8 C7 1_555 1_555
C9 H7 1_555 1_555
H8 C9 1_555 1_555
C10 C9 1_555 1_555
C11 C10 1_555 1_555
H9 C11 1_555 1_555
C12 H10 1_555 1_555
H11 C12 1_555 1_555
C13 C12 1_555 1_555
C14 H12 1_555 1_555
H13 C14 1_555 1_555
H14 C14 1_555 1_555
N1 C1 1_555 1_555
N2 C10 1_555 1_555
N3 N2 1_555 1_555
N4 C11 1_555 1_555
O1 C6 1_555 1_555
O2 C8 1_555 1_555
O3 C13 1_555 1_555
O4 C13 1_555 1_555
C5 C6 1_555 1_555
C7 O1 1_555 1_555
C8 N1 1_555 1_555
C9 N1 1_555 1_555
C12 N4 1_555 1_555
C14 O4 1_555 1_555
N3 N4 1_555 1_555

#END
