
#######################################################################
#
#                 Cambridge Crystallographic Data Centre
#                                CCDC 
#
#######################################################################
#
# If this CIF has been generated from an entry in the Cambridge 
# Structural Database, then it will include bibliographic, chemical, 
# crystal, experimental, refinement or atomic coordinate data resulting 
# from the CCDC's data processing and validation procedures.
#
#######################################################################

data_NEDNUH
_chemical_formula_moiety         'C14 H22 N2 O2'
_chemical_name_systematic        
6-(Butylamino)-4-(butyliminio)-3-oxocyclohexa-1,5-dien-1-olate
_symmetry_cell_setting           triclinic
_symmetry_space_group_name_H-M   'P -1'
_symmetry_Int_Tables_number      2
_space_group_name_Hall           '-P 1'
loop_
_symmetry_equiv_pos_site_id
_symmetry_equiv_pos_as_xyz
1 x,y,z
2 -x,-y,-z
_cell_length_a                   9.9349(6)
_cell_length_b                   10.7892(7)
_cell_length_c                   13.8083(10)
_cell_angle_alpha                80.842(3)
_cell_angle_beta                 76.789(3)
_cell_angle_gamma                89.087(3)
_cell_volume                     1422.25
_exptl_crystal_colour            red
_exptl_crystal_description       plate
_cell_formula_units_Z            4
loop_
_atom_site_label
_atom_site_type_symbol
_atom_site_fract_x
_atom_site_fract_y
_atom_site_fract_z
C1 C 0.9838(7) 0.7755(8) 0.9527(4)
H1 H 1.0023 0.7651 1.0195
H2 H 1.0329 0.8510 0.9140
C2 C 0.8316(7) 0.7933(6) 0.9618(4)
H3 H 0.8127 0.8076 0.8951
H4 H 0.7818 0.7174 0.9989
C3 C 0.782(2) 0.9014(13) 1.0143(12)
H5 H 0.8267 0.9773 0.9755
H6 H 0.8025 0.8884 1.0797
H7 H 0.6834 0.9080 1.0216
C4 C 0.4524(3) 0.2836(3) 1.1656(3)
H8 H 0.3626 0.2909 1.1506
H9 H 0.4832 0.3642 1.1742
H10 H 0.4472 0.2250 1.2266
H11 H 0.657(3) 0.323(2) 0.755(2)
H13 H 1.066(3) 0.743(3) 0.749(2)
C19 C 0.9428(2) 0.6665(2) 0.65123(18)
C20 C 0.8588(2) 0.6080(2) 0.60386(19)
H35 H 0.8583 0.6394 0.5372
C21 C 0.7756(2) 0.5045(2) 0.6522(2)
C22 C 0.7781(2) 0.4533(2) 0.76145(18)
C23 C 0.8595(2) 0.5104(2) 0.81206(19)
H36 H 0.8589 0.4800 0.8791
C24 C 0.9418(2) 0.6136(2) 0.76042(18)
C25 C 1.0441(3) 0.6569(2) 0.8999(2)
H37 H 1.0511 0.5674 0.9214
H38 H 1.1311 0.6961 0.9002
C26 C 0.6828(2) 0.2783(2) 0.89821(19)
H39 H 0.7716 0.2762 0.9165
H40 H 0.6576 0.1928 0.8950
C27 C 0.5760(3) 0.3261(2) 0.9802(2)
H41 H 0.4890 0.3364 0.9595
H42 H 0.6060 0.4077 0.9894
C28 C 0.5536(3) 0.2373(2) 1.0797(2)
H43 H 0.5201 0.1569 1.0706
H44 H 0.6418 0.2238 1.0981
N3 N 1.0259(2) 0.67682(19) 0.79691(17)
N4 N 0.6978(2) 0.35285(18) 0.79906(17)
O3 O 1.01929(17) 0.76079(16) 0.61293(13)
O4 O 0.69584(19) 0.44713(16) 0.61519(14)
H12 H 0.596(3) 0.312(2) 0.572(2)
H14 H 0.173(2) -0.102(2) 0.5679(19)
C5 C 0.3037(2) -0.0345(2) 0.68267(19)
C6 C 0.3852(2) 0.0275(2) 0.73072(19)
H15 H 0.3864 -0.0045 0.7972
C7 C 0.4649(2) 0.1347(2) 0.68411(19)
C8 C 0.4633(2) 0.1838(2) 0.57511(18)
C9 C 0.3813(2) 0.1257(2) 0.52534(19)
H16 H 0.3789 0.1583 0.4592
C10 C 0.3032(2) 0.0193(2) 0.57427(18)
C11 C 0.2132(2) -0.0036(2) 0.42682(18)
H17 H 0.3048 0.0041 0.3825
H18 H 0.1715 0.0784 0.4208
C12 C 0.1271(2) -0.0951(2) 0.39308(19)
H19 H 0.0355 -0.1035 0.4374
H20 H 0.1692 -0.1769 0.3978
C13 C 0.1146(3) -0.0517(2) 0.2855(2)
H21 H 0.2056 -0.0496 0.2407
H22 H 0.0795 0.0329 0.2797
C14 C 0.0192(3) -0.1369(3) 0.2528(2)
H23 H -0.0719 -0.1369 0.2954
H24 H 0.0536 -0.2208 0.2582
H25 H 0.0155 -0.1070 0.1842
C15 C 0.5589(2) 0.3392(2) 0.42650(19)
H26 H 0.4698 0.3701 0.4171
H27 H 0.5863 0.2756 0.3838
C16 C 0.6642(2) 0.4464(2) 0.39410(19)
H28 H 0.7545 0.4148 0.3998
H29 H 0.6397 0.5082 0.4387
C17 C 0.6714(3) 0.5087(2) 0.2861(2)
H30 H 0.6978 0.4470 0.2416
H31 H 0.5803 0.5380 0.2803
C18 C 0.7740(3) 0.6187(3) 0.2528(3)
H32 H 0.8653 0.5893 0.2545
H33 H 0.7493 0.6794 0.2973
H34 H 0.7723 0.6570 0.1854
N1 N 0.2262(2) -0.04165(19) 0.53064(16)
N2 N 0.54502(19) 0.28190(17) 0.53197(16)
O1 O 0.23094(17) -0.13125(15) 0.72157(13)
O2 O 0.53886(17) 0.19342(15) 0.72475(13)
C29? C 0.9379(9) 0.7036(9) 0.9717(6)
C30? C 0.9269(12) 0.8479(9) 0.9457(7)
C31? C 0.807(3) 0.8998(15) 1.0172(18)
H45? H 0.9570 0.6824 1.0381
H46? H 0.8502 0.6640 0.9733
H47? H 1.0126 0.8874 0.9488
H48? H 0.9149 0.8692 0.8773
H49? H 0.8156 0.8753 1.0854
H50? H 0.7211 0.8671 1.0098
H51? H 0.8082 0.9898 1.0013
loop_
_geom_bond_atom_site_label_1
_geom_bond_atom_site_label_2
_geom_bond_site_symmetry_1
_geom_bond_site_symmetry_2
C1 H1 1_555 1_555
H2 C1 1_555 1_555
C2 C1 1_555 1_555
H3 C2 1_555 1_555
H4 C2 1_555 1_555
C3 C2 1_555 1_555
H5 C3 1_555 1_555
H6 C3 1_555 1_555
H7 C3 1_555 1_555
C4 H8 1_555 1_555
H9 C4 1_555 1_555
H10 C4 1_555 1_555
H11 N4 1_555 1_555
H12 N2 1_555 1_555
H13 N3 1_555 1_555
H14 N1 1_555 1_555
C5 C6 1_555 1_555
C6 H15 1_555 1_555
C7 C6 1_555 1_555
C8 C7 1_555 1_555
C9 C8 1_555 1_555
H16 C9 1_555 1_555
C10 C5 1_555 1_555
C11 H17 1_555 1_555
H18 C11 1_555 1_555
C12 C11 1_555 1_555
H19 C12 1_555 1_555
H20 C12 1_555 1_555
C13 C12 1_555 1_555
H21 C13 1_555 1_555
H22 C13 1_555 1_555
C14 C13 1_555 1_555
H23 C14 1_555 1_555
H24 C14 1_555 1_555
H25 C14 1_555 1_555
C15 H26 1_555 1_555
H27 C15 1_555 1_555
C16 C15 1_555 1_555
H28 C16 1_555 1_555
H29 C16 1_555 1_555
C17 C16 1_555 1_555
H30 C17 1_555 1_555
H31 C17 1_555 1_555
C18 C17 1_555 1_555
H32 C18 1_555 1_555
H33 C18 1_555 1_555
H34 C18 1_555 1_555
C19 C20 1_555 1_555
C20 H35 1_555 1_555
C21 C20 1_555 1_555
C22 C21 1_555 1_555
C23 C22 1_555 1_555
H36 C23 1_555 1_555
C24 C19 1_555 1_555
C25 C1 1_555 1_555
H37 C25 1_555 1_555
H38 C25 1_555 1_555
C26 H39 1_555 1_555
H40 C26 1_555 1_555
C27 C26 1_555 1_555
H41 C27 1_555 1_555
H42 C27 1_555 1_555
C28 C4 1_555 1_555
H43 C28 1_555 1_555
H44 C28 1_555 1_555
N1 C10 1_555 1_555
N2 C8 1_555 1_555
N3 C24 1_555 1_555
N4 C22 1_555 1_555
O1 C5 1_555 1_555
O2 C7 1_555 1_555
O3 C19 1_555 1_555
O4 C21 1_555 1_555
C9 C10 1_555 1_555
C11 N1 1_555 1_555
C15 N2 1_555 1_555
C23 C24 1_555 1_555
C25 N3 1_555 1_555
C26 N4 1_555 1_555
C27 C28 1_555 1_555

#END
