
#######################################################################
#
#                 Cambridge Crystallographic Data Centre
#                                CCDC 
#
#######################################################################
#
# If this CIF has been generated from an entry in the Cambridge 
# Structural Database, then it will include bibliographic, chemical, 
# crystal, experimental, refinement or atomic coordinate data resulting 
# from the CCDC's data processing and validation procedures.
#
#######################################################################

data_NEDSAR02
_chemical_formula_moiety         'C19 H13 N5 O6,C2 H6 O1 S1'
_chemical_name_systematic        
"N,N'-bis(4-nitrophenyl)pyridine-2,6-dicarboxamide dimethyl sulfoxide solvate"
_symmetry_cell_setting           triclinic
_symmetry_space_group_name_H-M   'P -1'
_symmetry_Int_Tables_number      2
_space_group_name_Hall           '-P 1'
loop_
_symmetry_equiv_pos_site_id
_symmetry_equiv_pos_as_xyz
1 x,y,z
2 -x,-y,-z
_cell_length_a                   10.0205(3)
_cell_length_b                   12.4284(4)
_cell_length_c                   18.1181(4)
_cell_angle_alpha                101.220(2)
_cell_angle_beta                 98.431(2)
_cell_angle_gamma                91.869(2)
_cell_volume                     2185.01
_exptl_crystal_colour            colorless
_exptl_crystal_description       Block
_cell_formula_units_Z            4
loop_
_atom_site_label
_atom_site_type_symbol
_atom_site_fract_x
_atom_site_fract_y
_atom_site_fract_z
O1 O 1.2931(2) 1.52476(19) 0.11685(11)
O2 O 1.1512(2) 1.42752(18) 0.15934(11)
O3 O 1.0439(2) 1.36207(17) -0.27012(10)
O4 O 0.46864(18) 0.99968(16) -0.39286(10)
O5 O 0.1486(2) 0.77619(19) -0.13995(12)
O6 O 0.2615(2) 0.8739(2) -0.03635(12)
N1 N 1.1956(2) 1.4583(2) 0.10660(13)
N2 N 0.9379(2) 1.27874(19) -0.19018(12)
H1 H 0.8737 1.2282 -0.1911
N3 N 0.7630(2) 1.16796(18) -0.30738(11)
N4 N 0.5848(2) 1.02904(19) -0.27169(12)
H2 H 0.6626 1.0569 -0.2444
N5 N 0.2421(2) 0.8430(2) -0.10572(14)
C1 C 1.1134(3) 1.4064(2) -0.10515(15)
H3 H 1.1437 1.4305 -0.1468
C2 C 1.1763(3) 1.4484(2) -0.03129(15)
H4 H 1.2510 1.5009 -0.0220
C3 C 1.1298(3) 1.4137(2) 0.02856(14)
C4 C 1.0209(3) 1.3382(2) 0.01764(15)
H5 H 0.9895 1.3160 0.0597
C5 C 0.9590(3) 1.2962(2) -0.05575(14)
H6 H 0.8836 1.2445 -0.0645
C6 C 1.0055(3) 1.3285(2) -0.11756(14)
C7 C 0.9576(3) 1.2977(2) -0.25957(15)
C8 C 0.8599(3) 1.2311(2) -0.32470(14)
C9 C 0.8716(3) 1.2394(2) -0.39859(14)
H7 H 0.9422 1.2850 -0.4085
C10 C 0.7789(3) 1.1804(2) -0.45754(15)
H8 H 0.7847 1.1843 -0.5088
C11 C 0.6771(3) 1.1152(2) -0.44072(14)
H9 H 0.6113 1.0743 -0.4801
C12 C 0.6736(3) 1.1111(2) -0.36507(14)
C13 C 0.5647(3) 1.0412(2) -0.34551(14)
C14 C 0.4972(3) 0.9776(2) -0.23384(14)
C15 C 0.5297(3) 0.9943(2) -0.15460(14)
H10 H 0.6097 1.0367 -0.1293
C16 C 0.4466(3) 0.9497(2) -0.11333(15)
H11 H 0.4682 0.9615 -0.0594
C17 C 0.3312(3) 0.8877(2) -0.15078(15)
C18 C 0.2978(3) 0.8689(2) -0.22911(16)
H12 H 0.2181 0.8256 -0.2539
C19 C 0.3811(3) 0.9135(2) -0.27092(15)
H13 H 0.3595 0.9007 -0.3249
O7 O 0.6439(2) 0.7668(2) -0.06712(12)
O8 O 0.4515(2) 0.6848(2) -0.06575(12)
O9 O 0.86091(19) 0.90407(17) 0.32295(11)
O10 O 0.5004(2) 0.70225(17) 0.57646(10)
O11 O -0.0358(2) 0.2924(2) 0.33798(13)
O12 O -0.0387(2) 0.31847(19) 0.45868(13)
N6 N 0.5588(3) 0.7328(2) -0.03338(14)
N7 N 0.6715(2) 0.78512(18) 0.28396(12)
H14 H 0.6146 0.7453 0.3019
N8 N 0.6558(2) 0.77337(18) 0.42800(12)
N9 N 0.4586(2) 0.63501(19) 0.44744(12)
H15 H 0.4894 0.6392 0.4050
N10 N 0.0082(2) 0.3388(2) 0.40356(15)
C20 C 0.7349(3) 0.8265(2) 0.16559(16)
H16 H 0.8145 0.8684 0.1922
C21 C 0.7046(3) 0.8120(2) 0.08738(16)
H17 H 0.7640 0.8430 0.0597
C22 C 0.5878(3) 0.7523(2) 0.04968(15)
C23 C 0.4980(3) 0.7075(2) 0.08831(16)
H18 H 0.4170 0.6680 0.0615
C24 C 0.5279(3) 0.7212(2) 0.16598(15)
H19 H 0.4669 0.6912 0.1933
C25 C 0.6474(3) 0.7790(2) 0.20531(15)
C26 C 0.7712(3) 0.8445(2) 0.33643(16)
C27 C 0.7608(3) 0.8345(2) 0.41682(15)
C28 C 0.8579(3) 0.8896(2) 0.47569(16)
H20 H 0.9324 0.9305 0.4654
C29 C 0.8440(3) 0.8839(2) 0.54961(17)
H21 H 0.9089 0.9209 0.5911
C30 C 0.7345(3) 0.8235(2) 0.56225(16)
H22 H 0.7210 0.8199 0.6126
C31 C 0.6446(3) 0.7682(2) 0.49961(15)
C32 C 0.5275(3) 0.6987(2) 0.51234(15)
C33 C 0.3448(3) 0.5637(2) 0.44027(14)
C34 C 0.2985(3) 0.5311(2) 0.50197(15)
H23 H 0.3438 0.5588 0.5523
C35 C 0.1867(3) 0.4586(2) 0.48971(16)
H24 H 0.1543 0.4362 0.5314
C36 C 0.1224(3) 0.4189(2) 0.41634(16)
C37 C 0.1652(3) 0.4507(2) 0.35422(15)
H25 H 0.1190 0.4227 0.3041
C38 C 0.2760(3) 0.5236(2) 0.36633(15)
H26 H 0.3063 0.5469 0.3243
S1 S 0.57350(8) 0.48384(6) 0.23849(4)
O13 O 0.5415(2) 0.57734(16) 0.29870(10)
C39 C 0.4729(3) 0.3674(2) 0.24615(16)
H27 H 0.4858 0.3584 0.2992
H28 H 0.4999 0.3015 0.2138
H29 H 0.3774 0.3779 0.2296
C40 C 0.7332(3) 0.4413(3) 0.27515(19)
H30 H 0.8016 0.5023 0.2831
H31 H 0.7581 0.3788 0.2388
H32 H 0.7278 0.4193 0.3238
S2 S 0.06688(7) 0.01996(7) 0.15273(4)
O14 O 0.1640(2) -0.06782(18) 0.16114(11)
C41 C 0.0592(6) 0.0683(5) 0.2505(3)
H33 H 0.0095 0.0131 0.2696
H34 H 0.0127 0.1369 0.2568
H35 H 0.1510 0.0817 0.2791
C42 C 0.1512(7) 0.1575(5) 0.1966(4)
H36 H 0.1615 0.1678 0.2522
H37 H 0.0961 0.2145 0.1797
H38 H 0.2404 0.1628 0.1810
C43? C 0.1594(7) 0.1241(6) 0.1328(4)
H39? H 0.2439 0.1391 0.1689
H40? H 0.1079 0.1901 0.1371
H41? H 0.1799 0.1033 0.0808
C44? C 0.0735(7) 0.0419(6) 0.0567(4)
H42? H 0.1669 0.0620 0.0521
H43? H 0.0159 0.1013 0.0467
H44? H 0.0413 -0.0258 0.0197
loop_
_geom_bond_atom_site_label_1
_geom_bond_atom_site_label_2
_geom_bond_site_symmetry_1
_geom_bond_site_symmetry_2
O1 N1 1_555 1_555
O2 N1 1_555 1_555
O3 C7 1_555 1_555
O4 C13 1_555 1_555
O5 N5 1_555 1_555
O6 N5 1_555 1_555
N1 C3 1_555 1_555
N2 H1 1_555 1_555
N3 C8 1_555 1_555
N4 H2 1_555 1_555
N5 C17 1_555 1_555
C1 H3 1_555 1_555
C2 C1 1_555 1_555
H4 C2 1_555 1_555
C3 C2 1_555 1_555
C4 C3 1_555 1_555
H5 C4 1_555 1_555
C5 C4 1_555 1_555
H6 C5 1_555 1_555
C6 N2 1_555 1_555
C7 N2 1_555 1_555
C8 C7 1_555 1_555
C9 C8 1_555 1_555
H7 C9 1_555 1_555
C10 C9 1_555 1_555
H8 C10 1_555 1_555
C11 C10 1_555 1_555
H9 C11 1_555 1_555
C12 N3 1_555 1_555
C13 N4 1_555 1_555
C14 N4 1_555 1_555
C15 C14 1_555 1_555
H10 C15 1_555 1_555
C16 C15 1_555 1_555
H11 C16 1_555 1_555
C17 C16 1_555 1_555
C18 C17 1_555 1_555
H12 C18 1_555 1_555
C19 C14 1_555 1_555
H13 C19 1_555 1_555
O7 N6 1_555 1_555
O8 N6 1_555 1_555
O9 C26 1_555 1_555
O10 C32 1_555 1_555
O11 N10 1_555 1_555
O12 N10 1_555 1_555
N6 C22 1_555 1_555
N7 H14 1_555 1_555
N8 C27 1_555 1_555
N9 H15 1_555 1_555
N10 C36 1_555 1_555
C20 H16 1_555 1_555
C21 C20 1_555 1_555
H17 C21 1_555 1_555
C22 C21 1_555 1_555
C23 C22 1_555 1_555
H18 C23 1_555 1_555
C24 C23 1_555 1_555
H19 C24 1_555 1_555
C25 N7 1_555 1_555
C26 N7 1_555 1_555
C27 C26 1_555 1_555
C28 C27 1_555 1_555
H20 C28 1_555 1_555
C29 C28 1_555 1_555
H21 C29 1_555 1_555
C30 C29 1_555 1_555
H22 C30 1_555 1_555
C31 N8 1_555 1_555
C32 N9 1_555 1_555
C33 N9 1_555 1_555
C34 C33 1_555 1_555
H23 C34 1_555 1_555
C35 C34 1_555 1_555
H24 C35 1_555 1_555
C36 C35 1_555 1_555
C37 C36 1_555 1_555
H25 C37 1_555 1_555
C38 C33 1_555 1_555
H26 C38 1_555 1_555
S1 O13 1_555 1_555
C39 S1 1_555 1_555
H27 C39 1_555 1_555
H28 C39 1_555 1_555
H29 C39 1_555 1_555
C40 S1 1_555 1_555
H30 C40 1_555 1_555
H31 C40 1_555 1_555
H32 C40 1_555 1_555
S2 O14 1_555 1_555
C41 S2 1_555 1_555
H33 C41 1_555 1_555
H34 C41 1_555 1_555
H35 C41 1_555 1_555
C42 S2 1_555 1_555
H36 C42 1_555 1_555
H37 C42 1_555 1_555
H38 C42 1_555 1_555
C1 C6 1_555 1_555
C5 C6 1_555 1_555
C11 C12 1_555 1_555
C12 C13 1_555 1_555
C18 C19 1_555 1_555
C20 C25 1_555 1_555
C24 C25 1_555 1_555
C30 C31 1_555 1_555
C31 C32 1_555 1_555
C37 C38 1_555 1_555

#END
