
#######################################################################
#
#                 Cambridge Crystallographic Data Centre
#                                CCDC 
#
#######################################################################
#
# If this CIF has been generated from an entry in the Cambridge 
# Structural Database, then it will include bibliographic, chemical, 
# crystal, experimental, refinement or atomic coordinate data resulting 
# from the CCDC's data processing and validation procedures.
#
#######################################################################

data_NEDZOO
_chemical_formula_moiety         'C17 H18 N2 O6'
_chemical_name_systematic        
'3-ethyl 4-propyl 2-methyl-6-nitroquinoline-3,4-dicarboxylate'
_symmetry_cell_setting           triclinic
_symmetry_space_group_name_H-M   'P -1'
_symmetry_Int_Tables_number      2
_space_group_name_Hall           '-P 1'
loop_
_symmetry_equiv_pos_site_id
_symmetry_equiv_pos_as_xyz
1 x,y,z
2 -x,-y,-z
_cell_length_a                   7.1284(9)
_cell_length_b                   10.7581(13)
_cell_length_c                   12.0300(14)
_cell_angle_alpha                97.7380(10)
_cell_angle_beta                 105.5230(10)
_cell_angle_gamma                98.4010(10)
_cell_volume                     864.635
_exptl_crystal_colour            colorless
_exptl_crystal_description       block
_cell_formula_units_Z            2
loop_
_atom_site_label
_atom_site_type_symbol
_atom_site_fract_x
_atom_site_fract_y
_atom_site_fract_z
N1 N 0.2780(3) 0.0568(2) 0.20882(18)
N2 N 0.2259(2) -0.06053(15) 0.64051(15)
O1 O 0.2451(3) -0.0325(2) 0.12855(17)
O2 O 0.3262(4) 0.1677(2) 0.20091(17)
O3 O 0.2187(2) 0.26650(14) 0.87844(12)
O4 O 0.5345(2) 0.32837(17) 0.88235(16)
O5 O 0.2977(2) 0.40780(13) 0.65992(14)
O6 O 0.5480(3) 0.37077(15) 0.58808(18)
C1 C 0.2632(3) 0.0283(2) 0.32306(18)
C2 C 0.3088(3) 0.1268(2) 0.41480(18)
H1 H 0.3465 0.2102 0.4051
C3 C 0.2983(3) 0.10111(18) 0.52517(17)
C4 C 0.2381(3) -0.02696(18) 0.53668(17)
C5 C 0.1913(3) -0.1251(2) 0.43721(19)
H2 H 0.1514 -0.2092 0.4441
C6 C 0.2035(3) -0.0988(2) 0.33183(19)
H3 H 0.1729 -0.1639 0.2669
C7 C 0.3419(3) 0.19655(18) 0.62736(18)
C8 C 0.3249(3) 0.16191(18) 0.73012(17)
C9 C 0.2673(3) 0.02975(19) 0.73374(18)
C10 C 0.2571(4) -0.0127(2) 0.8466(2)
H4 H 0.2136 -0.1037 0.8323
H5 H 0.1650 0.0282 0.8765
H6 H 0.3860 0.0103 0.9031
C11 C 0.4102(3) 0.3344(2) 0.62221(19)
C12 C 0.3746(3) 0.2620(2) 0.83870(19)
C13 C 0.3606(4) 0.5458(2) 0.6686(3)
H7 H 0.3465 0.5664 0.5911
H8 H 0.4985 0.5730 0.7149
C14 C 0.2297(5) 0.6122(3) 0.7270(3)
H9 H 0.2438 0.5876 0.8030
H10 H 0.2786 0.7036 0.7407
C15 C 0.0213(5) 0.5872(4) 0.6636(3)
H11 H 0.0048 0.6062 0.5863
H12 H -0.0458 0.6398 0.7045
H13 H -0.0337 0.4988 0.6580
C16 C 0.2469(4) 0.3560(2) 0.9860(2)
H14 H 0.2805 0.4430 0.9742
H15 H 0.3542 0.3402 1.0483
C17 C 0.0607(5) 0.3383(3) 1.0179(3)
H16 H -0.0439 0.3556 0.9564
H17 H 0.0766 0.3959 1.0895
H18 H 0.0281 0.2518 1.0288
loop_
_geom_bond_atom_site_label_1
_geom_bond_atom_site_label_2
_geom_bond_site_symmetry_1
_geom_bond_site_symmetry_2
N1 O1 1_555 1_555
N2 C4 1_555 1_555
O2 N1 1_555 1_555
O3 C12 1_555 1_555
O4 C12 1_555 1_555
O5 C11 1_555 1_555
O6 C11 1_555 1_555
C1 N1 1_555 1_555
C2 C1 1_555 1_555
H1 C2 1_555 1_555
C3 C2 1_555 1_555
C4 C3 1_555 1_555
C5 C4 1_555 1_555
H2 C5 1_555 1_555
C6 C1 1_555 1_555
H3 C6 1_555 1_555
C7 C3 1_555 1_555
C8 C7 1_555 1_555
C9 N2 1_555 1_555
C10 C9 1_555 1_555
H4 C10 1_555 1_555
H5 C10 1_555 1_555
H6 C10 1_555 1_555
C11 C7 1_555 1_555
C12 C8 1_555 1_555
C13 O5 1_555 1_555
H7 C13 1_555 1_555
H8 C13 1_555 1_555
C14 C13 1_555 1_555
H9 C14 1_555 1_555
H10 C14 1_555 1_555
C15 C14 1_555 1_555
H11 C15 1_555 1_555
H12 C15 1_555 1_555
H13 C15 1_555 1_555
C16 O3 1_555 1_555
H14 C16 1_555 1_555
H15 C16 1_555 1_555
C17 C16 1_555 1_555
H16 C17 1_555 1_555
H17 C17 1_555 1_555
H18 C17 1_555 1_555
C5 C6 1_555 1_555
C8 C9 1_555 1_555

#END
