
#######################################################################
#
#                 Cambridge Crystallographic Data Centre
#                                CCDC 
#
#######################################################################
#
# If this CIF has been generated from an entry in the Cambridge 
# Structural Database, then it will include bibliographic, chemical, 
# crystal, experimental, refinement or atomic coordinate data resulting 
# from the CCDC's data processing and validation procedures.
#
#######################################################################

data_NEFGOW
_chemical_formula_moiety         'C28 H31 B1 N2'
_chemical_name_systematic        
1-methyl-5,9-bis(2,4,6-trimethylphenyl)-imidazo(1,2-a)(1,3)benzazaborate-1-ium
_symmetry_cell_setting           monoclinic
_symmetry_space_group_name_H-M   'P 21/c'
_symmetry_Int_Tables_number      14
_space_group_name_Hall           '-P 2ybc'
loop_
_symmetry_equiv_pos_site_id
_symmetry_equiv_pos_as_xyz
1 x,y,z
2 -x,1/2+y,1/2-z
3 -x,-y,-z
4 x,1/2-y,1/2+z
_cell_length_a                   12.848(11)
_cell_length_b                   13.839(12)
_cell_length_c                   13.201(11)
_cell_angle_alpha                90
_cell_angle_beta                 92.276(11)
_cell_angle_gamma                90
_cell_volume                     2345.33
_exptl_crystal_colour            colorless
_exptl_crystal_description       needle
_cell_formula_units_Z            4
loop_
_atom_site_label
_atom_site_type_symbol
_atom_site_fract_x
_atom_site_fract_y
_atom_site_fract_z
B1 B 0.3846(7) 0.1290(6) 0.2883(7)
H1 H 0.416(4) 0.192(4) 0.344(4)
N1 N 0.2104(5) 0.1774(4) 0.2166(5)
N2 N 0.3237(5) 0.2581(4) 0.1313(5)
C1 C 0.2856(6) 0.0769(5) 0.3376(6)
C2 C 0.2797(6) 0.0067(5) 0.4149(6)
H2 H 0.3402 -0.0165 0.4474
C3 C 0.1818(7) -0.0279(6) 0.4423(6)
H3 H 0.1790 -0.0756 0.4918
C4 C 0.0901(6) 0.0063(5) 0.3988(6)
H4 H 0.0269 -0.0175 0.4200
C5 C 0.0912(6) 0.0781(5) 0.3213(6)
C6 C 0.1896(6) 0.1087(5) 0.2965(5)
C7 C 0.3162(7) 0.1912(6) 0.2060(6)
C8 C 0.1533(6) 0.2365(6) 0.1486(6)
H5 H 0.0812 0.2402 0.1400
C9 C 0.2250(7) 0.2872(5) 0.0981(6)
H6 H 0.2103 0.3340 0.0491
C10 C 0.4232(6) 0.2963(5) 0.0998(6)
H7 H 0.4777 0.2513 0.1175
H8 H 0.4370 0.3568 0.1334
H9 H 0.4202 0.3062 0.0277
C11 C 0.4758(6) 0.0627(5) 0.2470(6)
C12 C 0.4587(6) -0.0096(6) 0.1703(6)
C13 C 0.5397(7) -0.0671(5) 0.1355(6)
H10 H 0.5249 -0.1129 0.0854
C14 C 0.6404(6) -0.0575(5) 0.1733(6)
C15 C 0.6605(6) 0.0103(6) 0.2515(6)
H11 H 0.7274 0.0155 0.2807
C16 C 0.5809(6) 0.0699(5) 0.2858(6)
C17 C 0.6114(5) 0.1448(5) 0.3672(5)
H12 H 0.6848 0.1405 0.3831
H13 H 0.5735 0.1324 0.4271
H14 H 0.5948 0.2083 0.3423
C18 C 0.7285(5) -0.1181(5) 0.1344(6)
H15 H 0.7043 -0.1828 0.1219
H16 H 0.7851 -0.1193 0.1842
H17 H 0.7520 -0.0906 0.0726
C19 C 0.3494(6) -0.0272(5) 0.1234(6)
H18 H 0.3526 -0.0761 0.0720
H19 H 0.3231 0.0317 0.0936
H20 H 0.3041 -0.0481 0.1751
C20 C -0.0060(6) 0.1152(5) 0.2699(6)
C21 C -0.0445(6) 0.0757(5) 0.1799(7)
C22 C -0.1326(6) 0.1144(6) 0.1300(6)
H21 H -0.1572 0.0871 0.0693
C23 C -0.1846(6) 0.1937(6) 0.1698(7)
C24 C -0.1478(6) 0.2329(5) 0.2614(6)
H22 H -0.1824 0.2849 0.2893
C25 C -0.0593(6) 0.1949(5) 0.3121(6)
C26 C -0.0224(6) 0.2376(5) 0.4137(6)
H23 H -0.0688 0.2884 0.4321
H24 H 0.0466 0.2632 0.4082
H25 H -0.0217 0.1881 0.4646
C27 C -0.2819(6) 0.2314(6) 0.1148(6)
H26 H -0.3108 0.2831 0.1532
H27 H -0.3319 0.1802 0.1072
H28 H -0.2646 0.2548 0.0491
C28 C 0.0110(6) -0.0133(6) 0.1363(6)
H29 H 0.0128 -0.0643 0.1856
H30 H 0.0809 0.0039 0.1204
H31 H -0.0262 -0.0347 0.0759
loop_
_geom_bond_atom_site_label_1
_geom_bond_atom_site_label_2
_geom_bond_site_symmetry_1
_geom_bond_site_symmetry_2
B1 H1 1_555 1_555
N1 C6 1_555 1_555
N2 C7 1_555 1_555
C1 B1 1_555 1_555
C2 C1 1_555 1_555
H2 C2 1_555 1_555
C3 C2 1_555 1_555
H3 C3 1_555 1_555
C4 C3 1_555 1_555
H4 C4 1_555 1_555
C5 C4 1_555 1_555
C6 C1 1_555 1_555
C7 B1 1_555 1_555
C8 N1 1_555 1_555
H5 C8 1_555 1_555
C9 N2 1_555 1_555
H6 C9 1_555 1_555
C10 N2 1_555 1_555
H7 C10 1_555 1_555
H8 C10 1_555 1_555
H9 C10 1_555 1_555
C11 B1 1_555 1_555
C12 C11 1_555 1_555
C13 C12 1_555 1_555
H10 C13 1_555 1_555
C14 C13 1_555 1_555
C15 C14 1_555 1_555
H11 C15 1_555 1_555
C16 C11 1_555 1_555
C17 C16 1_555 1_555
H12 C17 1_555 1_555
H13 C17 1_555 1_555
H14 C17 1_555 1_555
C18 C14 1_555 1_555
H15 C18 1_555 1_555
H16 C18 1_555 1_555
H17 C18 1_555 1_555
C19 C12 1_555 1_555
H18 C19 1_555 1_555
H19 C19 1_555 1_555
H20 C19 1_555 1_555
C20 C5 1_555 1_555
C21 C20 1_555 1_555
C22 C21 1_555 1_555
H21 C22 1_555 1_555
C23 C22 1_555 1_555
C24 C23 1_555 1_555
H22 C24 1_555 1_555
C25 C20 1_555 1_555
C26 C25 1_555 1_555
H23 C26 1_555 1_555
H24 C26 1_555 1_555
H25 C26 1_555 1_555
C27 C23 1_555 1_555
H26 C27 1_555 1_555
H27 C27 1_555 1_555
H28 C27 1_555 1_555
C28 C21 1_555 1_555
H29 C28 1_555 1_555
H30 C28 1_555 1_555
H31 C28 1_555 1_555
N1 C7 1_555 1_555
C5 C6 1_555 1_555
C8 C9 1_555 1_555
C15 C16 1_555 1_555
C24 C25 1_555 1_555

#END
