
#######################################################################
#
#                 Cambridge Crystallographic Data Centre
#                                CCDC 
#
#######################################################################
#
# If this CIF has been generated from an entry in the Cambridge 
# Structural Database, then it will include bibliographic, chemical, 
# crystal, experimental, refinement or atomic coordinate data resulting 
# from the CCDC's data processing and validation procedures.
#
#######################################################################

data_NEFGUC
_chemical_formula_moiety         'C32 H33 B1 N2'
_chemical_name_systematic        
5-methyl-6-(2,4,6-trimethylphenyl)-(1,2-a)(1,3)benzazaborate-5-ium
_symmetry_cell_setting           monoclinic
_symmetry_space_group_name_H-M   'P 21/n'
_symmetry_Int_Tables_number      14
_space_group_name_Hall           '-P 2yn'
loop_
_symmetry_equiv_pos_site_id
_symmetry_equiv_pos_as_xyz
1 x,y,z
2 1/2-x,1/2+y,1/2-z
3 -x,-y,-z
4 1/2+x,1/2-y,1/2+z
_cell_length_a                   11.9281(8)
_cell_length_b                   13.8623(10)
_cell_length_c                   15.7265(11)
_cell_angle_alpha                90
_cell_angle_beta                 103.3070(10)
_cell_angle_gamma                90
_cell_volume                     2530.57
_exptl_crystal_colour            colorless
_exptl_crystal_description       block
_cell_formula_units_Z            4
loop_
_atom_site_label
_atom_site_type_symbol
_atom_site_fract_x
_atom_site_fract_y
_atom_site_fract_z
B1 B 0.33591(14) 0.36815(12) 0.14100(11)
N1 N 0.12742(10) 0.37688(9) 0.14099(8)
N2 N 0.17879(10) 0.22854(9) 0.17169(8)
C1 C 0.27087(13) 0.47251(11) 0.10915(9)
C2 C 0.31023(14) 0.56151(11) 0.08657(10)
H1 H 0.3884 0.5680 0.0832
C3 C 0.23724(15) 0.64113(12) 0.06881(11)
H2 H 0.2656 0.7004 0.0518
C4 C 0.12392(14) 0.63480(12) 0.07569(11)
H3 H 0.0750 0.6896 0.0633
C5 C 0.08146(13) 0.54901(11) 0.10056(10)
H4 H 0.0043 0.5438 0.1067
C6 C 0.15605(13) 0.47104(11) 0.11606(9)
C7 C 0.21876(12) 0.31590(10) 0.15615(9)
C8 C 0.06171(12) 0.23470(11) 0.17065(10)
C9 C -0.01408(14) 0.16461(12) 0.18646(11)
H5 H 0.0096 0.1001 0.2009
C10 C -0.12614(14) 0.19466(14) 0.17991(13)
H6 H -0.1814 0.1492 0.1897
C11 C -0.16044(14) 0.28870(14) 0.15960(13)
H7 H -0.2385 0.3057 0.1561
C12 C -0.08518(13) 0.35901(13) 0.14412(11)
H8 H -0.1095 0.4235 0.1301
C13 C 0.02805(12) 0.32986(11) 0.15034(10)
C14 C 0.24426(14) 0.13906(11) 0.18910(11)
H9 H 0.3075 0.1403 0.1589
H10 H 0.1935 0.0843 0.1680
H11 H 0.2757 0.1325 0.2521
C15 C 0.38260(12) 0.29782(11) 0.07158(10)
C16 C 0.33503(13) 0.30162(11) -0.01987(10)
C17 C 0.38226(14) 0.24844(13) -0.07802(11)
H12 H 0.3507 0.2553 -0.1389
C18 C 0.47371(14) 0.18592(13) -0.05013(11)
C19 C 0.51455(14) 0.17584(12) 0.03880(11)
H13 H 0.5748 0.1309 0.0596
C20 C 0.47126(13) 0.22877(11) 0.09954(10)
C21 C 0.52550(14) 0.20453(12) 0.19443(11)
H14 H 0.5416 0.1352 0.1999
H15 H 0.4723 0.2221 0.2310
H16 H 0.5975 0.2406 0.2136
C22 C 0.52199(18) 0.12744(18) -0.11436(14)
H17 H 0.5818 0.0839 -0.0825
H18 H 0.5554 0.1709 -0.1511
H19 H 0.4601 0.0895 -0.1513
C23 C 0.22810(14) 0.35952(13) -0.05895(10)
H20 H 0.2019 0.3439 -0.1211
H21 H 0.2459 0.4285 -0.0524
H22 H 0.1673 0.3437 -0.0287
C24 C 0.43652(12) 0.39676(10) 0.22834(10)
C25 C 0.54490(13) 0.42911(11) 0.21702(11)
C26 C 0.63545(14) 0.44598(12) 0.28921(12)
H23 H 0.7083 0.4642 0.2796
C27 C 0.62346(15) 0.43724(13) 0.37412(12)
C28 C 0.51518(15) 0.41282(12) 0.38551(11)
H24 H 0.5035 0.4091 0.4432
C29 C 0.42259(14) 0.39343(11) 0.31514(10)
C30 C 0.30855(15) 0.37179(12) 0.33687(11)
H25 H 0.3154 0.3806 0.3997
H26 H 0.2864 0.3050 0.3207
H27 H 0.2497 0.4157 0.3043
C31 C 0.57019(15) 0.44864(14) 0.12850(12)
H28 H 0.6052 0.5126 0.1287
H29 H 0.4983 0.4463 0.0834
H30 H 0.6235 0.3996 0.1162
C32 C 0.72150(18) 0.45907(17) 0.45141(14)
H31 H 0.7898 0.4777 0.4306
H32 H 0.7389 0.4016 0.4884
H33 H 0.6994 0.5121 0.4854
loop_
_geom_bond_atom_site_label_1
_geom_bond_atom_site_label_2
_geom_bond_site_symmetry_1
_geom_bond_site_symmetry_2
B1 C1 1_555 1_555
N1 C6 1_555 1_555
N2 C7 1_555 1_555
C1 C2 1_555 1_555
C2 H1 1_555 1_555
C3 C2 1_555 1_555
H2 C3 1_555 1_555
C4 C3 1_555 1_555
H3 C4 1_555 1_555
C5 C4 1_555 1_555
H4 C5 1_555 1_555
C6 C1 1_555 1_555
C7 B1 1_555 1_555
C8 N2 1_555 1_555
C9 C8 1_555 1_555
H5 C9 1_555 1_555
C10 C9 1_555 1_555
H6 C10 1_555 1_555
C11 C10 1_555 1_555
H7 C11 1_555 1_555
C12 C11 1_555 1_555
H8 C12 1_555 1_555
C13 N1 1_555 1_555
C14 N2 1_555 1_555
H9 C14 1_555 1_555
H10 C14 1_555 1_555
H11 C14 1_555 1_555
C15 B1 1_555 1_555
C16 C15 1_555 1_555
C17 C16 1_555 1_555
H12 C17 1_555 1_555
C18 C17 1_555 1_555
C19 C18 1_555 1_555
H13 C19 1_555 1_555
C20 C15 1_555 1_555
C21 C20 1_555 1_555
H14 C21 1_555 1_555
H15 C21 1_555 1_555
H16 C21 1_555 1_555
C22 C18 1_555 1_555
H17 C22 1_555 1_555
H18 C22 1_555 1_555
H19 C22 1_555 1_555
C23 C16 1_555 1_555
H20 C23 1_555 1_555
H21 C23 1_555 1_555
H22 C23 1_555 1_555
C24 B1 1_555 1_555
C25 C24 1_555 1_555
C26 C25 1_555 1_555
H23 C26 1_555 1_555
C27 C26 1_555 1_555
C28 C27 1_555 1_555
H24 C28 1_555 1_555
C29 C24 1_555 1_555
C30 C29 1_555 1_555
H25 C30 1_555 1_555
H26 C30 1_555 1_555
H27 C30 1_555 1_555
C31 C25 1_555 1_555
H28 C31 1_555 1_555
H29 C31 1_555 1_555
H30 C31 1_555 1_555
C32 C27 1_555 1_555
H31 C32 1_555 1_555
H32 C32 1_555 1_555
H33 C32 1_555 1_555
N1 C7 1_555 1_555
C5 C6 1_555 1_555
C8 C13 1_555 1_555
C12 C13 1_555 1_555
C19 C20 1_555 1_555
C28 C29 1_555 1_555

#END
