
#######################################################################
#
#                 Cambridge Crystallographic Data Centre
#                                CCDC 
#
#######################################################################
#
# If this CIF has been generated from an entry in the Cambridge 
# Structural Database, then it will include bibliographic, chemical, 
# crystal, experimental, refinement or atomic coordinate data resulting 
# from the CCDC's data processing and validation procedures.
#
#######################################################################

data_NEFHAJ
_chemical_formula_moiety         'C32 H33 B1 N2'
_chemical_name_systematic        
2,4,14,15a-tetramethyl-15-(2,4,6-trimethylphenyl)-benzimidazo(1,2-a)(1)benzoborieno(1,5a-c)(1,3)benzazaborinin-14-ium
_symmetry_cell_setting           monoclinic
_symmetry_space_group_name_H-M   'P 21/c'
_symmetry_Int_Tables_number      14
_space_group_name_Hall           '-P 2ybc'
loop_
_symmetry_equiv_pos_site_id
_symmetry_equiv_pos_as_xyz
1 x,y,z
2 -x,1/2+y,1/2-z
3 -x,-y,-z
4 x,1/2-y,1/2+z
_cell_length_a                   11.3963(9)
_cell_length_b                   11.0691(8)
_cell_length_c                   19.3717(13)
_cell_angle_alpha                90
_cell_angle_beta                 93.130(5)
_cell_angle_gamma                90
_cell_volume                     2440.03
_exptl_crystal_colour            orange
_exptl_crystal_description       needle
_cell_formula_units_Z            4
loop_
_atom_site_label
_atom_site_type_symbol
_atom_site_fract_x
_atom_site_fract_y
_atom_site_fract_z
B1 B 0.2652(4) 0.0241(4) 0.3374(2)
N1 N 0.3252(3) 0.1410(3) 0.22757(15)
N2 N 0.3130(2) -0.0542(2) 0.21463(15)
C1 C 0.2623(3) 0.2688(3) 0.32136(18)
C2 C 0.2526(3) 0.3859(3) 0.34780(19)
H1 H 0.2122 0.3974 0.3889
C3 C 0.2998(3) 0.4857(3) 0.3160(2)
H2 H 0.2887 0.5643 0.3342
C4 C 0.3625(3) 0.4706(3) 0.2581(2)
H3 H 0.3989 0.5381 0.2378
C5 C 0.3726(3) 0.3566(3) 0.22951(19)
H4 H 0.4162 0.3454 0.1896
C6 C 0.3182(3) 0.2582(3) 0.25976(19)
C7 C 0.3049(3) 0.0352(3) 0.26304(19)
C8 C 0.3326(3) -0.0077(3) 0.15020(18)
C9 C 0.3390(3) 0.1173(3) 0.15678(19)
C10 C 0.3474(3) 0.1900(3) 0.09867(19)
H5 H 0.3476 0.2756 0.1021
C11 C 0.3552(3) 0.1328(4) 0.0358(2)
H6 H 0.3616 0.1803 -0.0046
C12 C 0.3541(3) 0.0080(4) 0.0300(2)
H7 H 0.3624 -0.0282 -0.0139
C13 C 0.3411(3) -0.0648(3) 0.08719(19)
H8 H 0.3381 -0.1503 0.0833
C14 C 0.3064(3) -0.1842(3) 0.2271(2)
H9 H 0.3336 -0.2017 0.2749
H10 H 0.3563 -0.2268 0.1954
H11 H 0.2249 -0.2114 0.2193
C15 C 0.2295(3) 0.1636(3) 0.36414(18)
C16 C 0.1242(3) 0.1760(3) 0.40533(19)
C17 C 0.1198(3) 0.1202(3) 0.46688(19)
H12 H 0.0475 0.1201 0.4890
C18 C 0.2196(3) 0.0606(3) 0.50096(18)
C19 C 0.3228(3) 0.0590(3) 0.46938(18)
H13 H 0.3903 0.0306 0.4954
C20 C 0.3379(3) 0.0979(3) 0.39806(18)
C21 C 0.4605(3) 0.1463(3) 0.38770(19)
H14 H 0.4712 0.2232 0.4123
H15 H 0.4702 0.1589 0.3383
H16 H 0.5190 0.0880 0.4059
C22 C 0.0190(3) 0.2476(3) 0.3764(2)
H17 H -0.0534 0.2108 0.3915
H18 H 0.0180 0.2473 0.3258
H19 H 0.0246 0.3310 0.3932
C23 C 0.2067(3) 0.0040(4) 0.57003(19)
H20 H 0.2835 -0.0251 0.5884
H21 H 0.1519 -0.0641 0.5653
H22 H 0.1763 0.0639 0.6017
C24 C 0.1870(3) -0.0908(3) 0.35501(18)
C25 C 0.2309(3) -0.1854(3) 0.39820(18)
C26 C 0.1580(3) -0.2786(3) 0.41766(19)
H23 H 0.1891 -0.3375 0.4492
C27 C 0.0422(3) -0.2894(3) 0.3932(2)
C28 C 0.0014(3) -0.2028(3) 0.3459(2)
H24 H -0.0757 -0.2108 0.3251
C29 C 0.0703(3) -0.1041(3) 0.32779(19)
C30 C 0.0177(3) -0.0167(3) 0.2750(2)
H25 H -0.0671 -0.0104 0.2803
H26 H 0.0320 -0.0458 0.2285
H27 H 0.0540 0.0629 0.2821
C31 C -0.0350(3) -0.3890(4) 0.4160(2)
H28 H 0.0137 -0.4542 0.4363
H29 H -0.0822 -0.4201 0.3760
H30 H -0.0871 -0.3582 0.4505
C32 C 0.3603(3) -0.1962(3) 0.4210(2)
H31 H 0.3689 -0.1963 0.4716
H32 H 0.4035 -0.1275 0.4029
H33 H 0.3919 -0.2716 0.4032
loop_
_geom_bond_atom_site_label_1
_geom_bond_atom_site_label_2
_geom_bond_site_symmetry_1
_geom_bond_site_symmetry_2
B1 C7 1_555 1_555
N1 C6 1_555 1_555
N2 C7 1_555 1_555
C1 C2 1_555 1_555
C2 H1 1_555 1_555
C3 C2 1_555 1_555
H2 C3 1_555 1_555
C4 C3 1_555 1_555
H3 C4 1_555 1_555
C5 C4 1_555 1_555
H4 C5 1_555 1_555
C6 C1 1_555 1_555
C7 N1 1_555 1_555
C8 N2 1_555 1_555
C9 N1 1_555 1_555
C10 C9 1_555 1_555
H5 C10 1_555 1_555
C11 C10 1_555 1_555
H6 C11 1_555 1_555
C12 C11 1_555 1_555
H7 C12 1_555 1_555
C13 C8 1_555 1_555
H8 C13 1_555 1_555
C14 N2 1_555 1_555
H9 C14 1_555 1_555
H10 C14 1_555 1_555
H11 C14 1_555 1_555
C15 B1 1_555 1_555
C16 C15 1_555 1_555
C17 C16 1_555 1_555
H12 C17 1_555 1_555
C18 C17 1_555 1_555
C19 C18 1_555 1_555
H13 C19 1_555 1_555
C20 B1 1_555 1_555
C21 C20 1_555 1_555
H14 C21 1_555 1_555
H15 C21 1_555 1_555
H16 C21 1_555 1_555
C22 C16 1_555 1_555
H17 C22 1_555 1_555
H18 C22 1_555 1_555
H19 C22 1_555 1_555
C23 C18 1_555 1_555
H20 C23 1_555 1_555
H21 C23 1_555 1_555
H22 C23 1_555 1_555
C24 B1 1_555 1_555
C25 C24 1_555 1_555
C26 C25 1_555 1_555
H23 C26 1_555 1_555
C27 C26 1_555 1_555
C28 C27 1_555 1_555
H24 C28 1_555 1_555
C29 C24 1_555 1_555
C30 C29 1_555 1_555
H25 C30 1_555 1_555
H26 C30 1_555 1_555
H27 C30 1_555 1_555
C31 C27 1_555 1_555
H28 C31 1_555 1_555
H29 C31 1_555 1_555
H30 C31 1_555 1_555
C32 C25 1_555 1_555
H31 C32 1_555 1_555
H32 C32 1_555 1_555
H33 C32 1_555 1_555
C1 C15 1_555 1_555
C5 C6 1_555 1_555
C8 C9 1_555 1_555
C12 C13 1_555 1_555
C15 C20 1_555 1_555
C19 C20 1_555 1_555
C28 C29 1_555 1_555

#END
