
#######################################################################
#
#                 Cambridge Crystallographic Data Centre
#                                CCDC 
#
#######################################################################
#
# If this CIF has been generated from an entry in the Cambridge 
# Structural Database, then it will include bibliographic, chemical, 
# crystal, experimental, refinement or atomic coordinate data resulting 
# from the CCDC's data processing and validation procedures.
#
#######################################################################

data_NEFMAN
_chemical_formula_moiety         'C25 H22 N6,C1 H1 Cl3'
_chemical_name_systematic        
'2,10,17,24,30,31-Hexa-azapentacyclo-(23,4,1^4,8^,1^19,22^,0^11,16^,0^1,25^)untriaconta-4,6,8(30),11,13,15,17,19,21,25,27,29-tridecaene chloroform solvate'
_symmetry_cell_setting           monoclinic
_symmetry_space_group_name_H-M   'P 21/n'
_symmetry_Int_Tables_number      14
_space_group_name_Hall           '-P 2yn'
loop_
_symmetry_equiv_pos_site_id
_symmetry_equiv_pos_as_xyz
1 x,y,z
2 1/2-x,1/2+y,1/2-z
3 -x,-y,-z
4 1/2+x,1/2-y,1/2+z
_cell_length_a                   11.9520(3)
_cell_length_b                   13.7752(3)
_cell_length_c                   30.0259(8)
_cell_angle_alpha                90
_cell_angle_beta                 97.589(2)
_cell_angle_gamma                90
_cell_volume                     4900.2
_exptl_crystal_colour            red
_exptl_crystal_description       parallelepiped
_cell_formula_units_Z            8
loop_
_atom_site_label
_atom_site_type_symbol
_atom_site_fract_x
_atom_site_fract_y
_atom_site_fract_z
N1 N 0.4527(4) 0.6686(4) 0.31174(18)
H1 H 0.5124 0.6970 0.3017
N2 N 0.5923(5) 0.7676(4) 0.37825(17)
N3 N 0.7653(4) 0.8667(4) 0.35013(16)
H2 H 0.7085 0.8425 0.3306
N4 N 0.7767(4) 0.8645(4) 0.25751(17)
N5 N 0.6235(5) 0.7488(4) 0.19203(17)
H3 H 0.6333 0.7270 0.2205
N6 N 0.4561(5) 0.6460(4) 0.22116(17)
C1 C 0.3699(6) 0.6208(5) 0.2850(2)
C2 C 0.2944(6) 0.5865(5) 0.3135(2)
H4 H 0.2277 0.5493 0.3039
C3 C 0.3336(6) 0.6126(6) 0.3581(2)
H5 H 0.3001 0.5985 0.3847
C4 C 0.4347(6) 0.6679(5) 0.3554(2)
C5 C 0.5100(6) 0.7182(6) 0.3896(2)
H6 H 0.4979 0.7143 0.4205
C6 C 0.6682(6) 0.8151(5) 0.4110(2)
C7 C 0.6616(6) 0.8178(6) 0.4576(2)
H7 H 0.6009 0.7836 0.4687
C8 C 0.7387(6) 0.8655(6) 0.4873(2)
H8 H 0.7313 0.8660 0.5187
C9 C 0.8282(6) 0.9140(5) 0.4717(2)
H9 H 0.8825 0.9484 0.4923
C10 C 0.8377(6) 0.9138(5) 0.4265(2)
H10 H 0.9007 0.9456 0.4160
C11 C 0.7577(5) 0.8663(5) 0.3950(2)
C12 C 0.8639(5) 0.9062(5) 0.3341(2)
H11 H 0.9296 0.8785 0.3512
H12 H 0.8654 0.9750 0.3392
C13 C 0.8680(6) 0.8880(5) 0.2846(2)
C14 C 0.9728(6) 0.9030(5) 0.2691(2)
H13 H 1.0380 0.9192 0.2901
C15 C 0.9817(6) 0.8934(5) 0.2246(2)
H14 H 1.0516 0.9039 0.2127
C16 C 0.8883(6) 0.8698(6) 0.1981(2)
H15 H 0.8897 0.8629 0.1664
C17 C 0.7892(5) 0.8535(5) 0.2142(2)
C18 C 0.6817(6) 0.8350(6) 0.1815(2)
H16 H 0.6318 0.8894 0.1825
H17 H 0.7004 0.8294 0.1515
C19 C 0.5534(6) 0.6969(5) 0.1600(2)
C20 C 0.5689(6) 0.6931(5) 0.1153(2)
H18 H 0.6280 0.7304 0.1048
C21 C 0.4985(6) 0.6353(5) 0.0856(2)
H19 H 0.5112 0.6327 0.0547
C22 C 0.4119(6) 0.5811(5) 0.0987(2)
H20 H 0.3640 0.5424 0.0775
C23 C 0.3973(6) 0.5851(5) 0.1436(2)
H21 H 0.3373 0.5486 0.1539
C24 C 0.4677(6) 0.6401(5) 0.1749(2)
C25 C 0.3703(6) 0.6125(5) 0.2379(2)
H22 H 0.3090 0.5812 0.2195
N7 N 0.2282(4) 0.3366(4) 0.25816(16)
H23 H 0.2888 0.3095 0.2483
N8 N 0.3612(5) 0.2290(4) 0.32398(17)
N9 N 0.5379(4) 0.1326(4) 0.29659(16)
H24 H 0.4800 0.1534 0.2766
N10 N 0.5524(4) 0.1400(4) 0.20494(17)
N11 N 0.4011(5) 0.2534(5) 0.13883(17)
H25 H 0.4147 0.2774 0.1669
N12 N 0.2354(5) 0.3568(4) 0.16745(18)
C26 C 0.1472(6) 0.3857(5) 0.2321(2)
C27 C 0.0699(6) 0.4169(5) 0.2607(2)
H26 H 0.0041 0.4556 0.2515
C28 C 0.1071(5) 0.3832(5) 0.3049(2)
H27 H 0.0720 0.3916 0.3316
C29 C 0.2072(5) 0.3339(5) 0.3009(2)
C30 C 0.2812(6) 0.2815(5) 0.3354(2)
H28 H 0.2692 0.2861 0.3664
C31 C 0.4354(6) 0.1786(5) 0.3572(2)
C32 C 0.4231(6) 0.1744(6) 0.4026(2)
H29 H 0.3584 0.2052 0.4123
C33 C 0.5008(6) 0.1266(5) 0.4338(2)
H30 H 0.4914 0.1263 0.4651
C34 C 0.5897(6) 0.0813(5) 0.4188(2)
H31 H 0.6431 0.0465 0.4396
C35 C 0.6028(6) 0.0842(5) 0.3732(2)
H32 H 0.6672 0.0537 0.3631
C36 C 0.5285(6) 0.1304(5) 0.3419(2)
C37 C 0.6413(5) 0.1009(5) 0.28217(19)
H33 H 0.6504 0.0330 0.2889
H34 H 0.7029 0.1351 0.2990
C38 C 0.6458(5) 0.1149(5) 0.2327(2)
C39 C 0.7481(6) 0.0961(5) 0.2167(2)
H35 H 0.8139 0.0782 0.2370
C40 C 0.7525(7) 0.1041(6) 0.1719(3)
H36 H 0.8229 0.0942 0.1605
C41 C 0.6625(6) 0.1249(6) 0.1432(2)
H37 H 0.6648 0.1275 0.1114
C42 C 0.5643(6) 0.1447(6) 0.1605(2)
C43 C 0.4563(6) 0.1669(7) 0.1280(2)
H38 H 0.4749 0.1725 0.0980
H39 H 0.4045 0.1138 0.1287
C44 C 0.3261(6) 0.3025(6) 0.1066(2)
C45 C 0.3378(6) 0.2986(6) 0.0604(2)
H40 H 0.3961 0.2601 0.0500
C46 C 0.2632(7) 0.3518(6) 0.0300(2)
H41 H 0.2695 0.3493 -0.0015
C47 C 0.1809(6) 0.4072(6) 0.0445(2)
H42 H 0.1319 0.4444 0.0230
C48 C 0.1683(6) 0.4114(6) 0.0891(2)
H43 H 0.1086 0.4491 0.0989
C49 C 0.2407(6) 0.3611(5) 0.1205(2)
C50 C 0.1495(6) 0.3944(5) 0.1839(2)
H44 H 0.0897 0.4268 0.1651
Cl1 Cl 0.5224(2) 0.4501(2) 0.41197(7)
Cl2 Cl 0.5723(2) 0.37396(19) 0.50067(7)
Cl3 Cl 0.74839(19) 0.3895(2) 0.44468(8)
C51 C 0.6085(6) 0.3667(7) 0.4455(2)
H45 H 0.5913 0.2997 0.4337
Cl4 Cl 0.9761(2) 0.5617(2) 0.57711(8)
Cl5 Cl 0.7457(2) 0.6009(2) 0.54424(9)
Cl6 Cl 0.9209(3) 0.6432(2) 0.49014(8)
C52 C 0.8771(7) 0.6363(8) 0.5424(3)
H46 H 0.8840 0.7032 0.5555
loop_
_geom_bond_atom_site_label_1
_geom_bond_atom_site_label_2
_geom_bond_site_symmetry_1
_geom_bond_site_symmetry_2
N1 H1 1_555 1_555
N2 C5 1_555 1_555
N3 H2 1_555 1_555
N4 C13 1_555 1_555
N5 H3 1_555 1_555
N6 C24 1_555 1_555
C1 N1 1_555 1_555
C2 C1 1_555 1_555
H4 C2 1_555 1_555
C3 C2 1_555 1_555
H5 C3 1_555 1_555
C4 N1 1_555 1_555
C5 C4 1_555 1_555
H6 C5 1_555 1_555
C6 N2 1_555 1_555
C7 C6 1_555 1_555
H7 C7 1_555 1_555
C8 C7 1_555 1_555
H8 C8 1_555 1_555
C9 C8 1_555 1_555
H9 C9 1_555 1_555
C10 C9 1_555 1_555
H10 C10 1_555 1_555
C11 N3 1_555 1_555
C12 N3 1_555 1_555
H11 C12 1_555 1_555
H12 C12 1_555 1_555
C13 C12 1_555 1_555
C14 C13 1_555 1_555
H13 C14 1_555 1_555
C15 C14 1_555 1_555
H14 C15 1_555 1_555
C16 C15 1_555 1_555
H15 C16 1_555 1_555
C17 N4 1_555 1_555
C18 N5 1_555 1_555
H16 C18 1_555 1_555
H17 C18 1_555 1_555
C19 N5 1_555 1_555
C20 C19 1_555 1_555
H18 C20 1_555 1_555
C21 C20 1_555 1_555
H19 C21 1_555 1_555
C22 C21 1_555 1_555
H20 C22 1_555 1_555
C23 C22 1_555 1_555
H21 C23 1_555 1_555
C24 C19 1_555 1_555
C25 N6 1_555 1_555
H22 C25 1_555 1_555
N7 H23 1_555 1_555
N8 C30 1_555 1_555
N9 H24 1_555 1_555
N10 C38 1_555 1_555
N11 H25 1_555 1_555
N12 C49 1_555 1_555
C26 N7 1_555 1_555
C27 C26 1_555 1_555
H26 C27 1_555 1_555
C28 C27 1_555 1_555
H27 C28 1_555 1_555
C29 N7 1_555 1_555
C30 C29 1_555 1_555
H28 C30 1_555 1_555
C31 N8 1_555 1_555
C32 C31 1_555 1_555
H29 C32 1_555 1_555
C33 C32 1_555 1_555
H30 C33 1_555 1_555
C34 C33 1_555 1_555
H31 C34 1_555 1_555
C35 C34 1_555 1_555
H32 C35 1_555 1_555
C36 N9 1_555 1_555
C37 N9 1_555 1_555
H33 C37 1_555 1_555
H34 C37 1_555 1_555
C38 C37 1_555 1_555
C39 C38 1_555 1_555
H35 C39 1_555 1_555
C40 C39 1_555 1_555
H36 C40 1_555 1_555
C41 C40 1_555 1_555
H37 C41 1_555 1_555
C42 N10 1_555 1_555
C43 N11 1_555 1_555
H38 C43 1_555 1_555
H39 C43 1_555 1_555
C44 N11 1_555 1_555
C45 C44 1_555 1_555
H40 C45 1_555 1_555
C46 C45 1_555 1_555
H41 C46 1_555 1_555
C47 C46 1_555 1_555
H42 C47 1_555 1_555
C48 C47 1_555 1_555
H43 C48 1_555 1_555
C49 C44 1_555 1_555
C50 N12 1_555 1_555
H44 C50 1_555 1_555
Cl1 C51 1_555 1_555
Cl2 C51 1_555 1_555
Cl3 C51 1_555 1_555
C51 H45 1_555 1_555
Cl4 C52 1_555 1_555
Cl5 C52 1_555 1_555
Cl6 C52 1_555 1_555
C52 H46 1_555 1_555
C1 C25 1_555 1_555
C3 C4 1_555 1_555
C6 C11 1_555 1_555
C10 C11 1_555 1_555
C16 C17 1_555 1_555
C17 C18 1_555 1_555
C23 C24 1_555 1_555
C26 C50 1_555 1_555
C28 C29 1_555 1_555
C31 C36 1_555 1_555
C35 C36 1_555 1_555
C41 C42 1_555 1_555
C42 C43 1_555 1_555
C48 C49 1_555 1_555

#END
