
#######################################################################
#
#                 Cambridge Crystallographic Data Centre
#                                CCDC 
#
#######################################################################
#
# If this CIF has been generated from an entry in the Cambridge 
# Structural Database, then it will include bibliographic, chemical, 
# crystal, experimental, refinement or atomic coordinate data resulting 
# from the CCDC's data processing and validation procedures.
#
#######################################################################

data_NEFROI
_chemical_formula_moiety         'C16 H36 N1 1+,C22 H22 N4 O2,Br1 1-'
_chemical_name_systematic        
"tetrabutylammonium N,N'-1,2-phenylenebis(N'-(3-methylphenyl)urea) bromide"
_symmetry_cell_setting           monoclinic
_symmetry_space_group_name_H-M   'P 21/c'
_symmetry_Int_Tables_number      14
_space_group_name_Hall           '-P 2ybc'
loop_
_symmetry_equiv_pos_site_id
_symmetry_equiv_pos_as_xyz
1 x,y,z
2 -x,1/2+y,1/2-z
3 -x,-y,-z
4 x,1/2-y,1/2+z
_cell_length_a                   10.5879(2)
_cell_length_b                   20.3165(5)
_cell_length_c                   18.0828(3)
_cell_angle_alpha                90
_cell_angle_beta                 91.0672(17)
_cell_angle_gamma                90
_cell_volume                     3889.1
_exptl_crystal_colour            colorless
_exptl_crystal_description       plate
_cell_formula_units_Z            4
loop_
_atom_site_label
_atom_site_type_symbol
_atom_site_fract_x
_atom_site_fract_y
_atom_site_fract_z
Br1 Br 0.34211(3) 0.43688(2) 0.38077(2)
O1 O 0.5943(2) 0.53896(12) 0.16204(11)
O2 O 0.5000(2) 0.63425(12) 0.36423(11)
N1 N 0.5894(2) 0.51747(12) 0.28578(12)
H1 H 0.5429 0.5018 0.3200
N2 N 0.4204(2) 0.49196(13) 0.21256(12)
H2 H 0.3891 0.4809 0.2543
N3 N 0.6278(2) 0.56443(11) 0.43059(12)
H3 H 0.6325 0.5399 0.4693
N4 N 0.4466(2) 0.60268(12) 0.48120(12)
H4 H 0.4770 0.5831 0.5198
C1 C 0.5396(3) 0.51775(13) 0.21594(14)
C2 C 0.7096(3) 0.54030(14) 0.30717(14)
C3 C 0.5225(3) 0.60358(13) 0.42087(14)
C4 C 0.7283(3) 0.56239(13) 0.38033(16)
C5 C 0.3253(3) 0.62968(13) 0.48808(15)
C6 C 0.3425(2) 0.48111(14) 0.15059(14)
C7 C 0.2207(3) 0.45888(15) 0.16407(16)
H5 H 0.1967 0.4510 0.2125
C8 C 0.8125(3) 0.53723(17) 0.26118(17)
H6 H 0.8009 0.5239 0.2123
C9 C 0.2560(3) 0.60972(15) 0.54807(18)
H7 H 0.2911 0.5794 0.5811
C10 C 0.8496(3) 0.57762(17) 0.40527(19)
H8 H 0.8624 0.5911 0.4540
C11 C 0.1347(3) 0.44823(17) 0.10692(19)
C12 C 0.3791(3) 0.49117(18) 0.07796(16)
H9 H 0.4603 0.5057 0.0678
C13 C 0.1355(3) 0.63368(17) 0.5604(2)
C14 C 0.1728(3) 0.4587(2) 0.03532(18)
H10 H 0.1160 0.4518 -0.0038
C15 C 0.9512(3) 0.57316(19) 0.3592(2)
H11 H 1.0321 0.5832 0.3767
C16 C 0.9318(3) 0.55363(19) 0.2865(2)
H12 H 0.9997 0.5516 0.2546
C17 C 0.2928(3) 0.4793(2) 0.02111(17)
H13 H 0.3169 0.4854 -0.0276
C18 C 0.2736(3) 0.67575(19) 0.4405(2)
H14 H 0.3188 0.6905 0.4000
C19 C 0.0860(3) 0.6795(2) 0.5119(2)
H15 H 0.0057 0.6966 0.5193
C20 C 0.0019(4) 0.4253(2) 0.1226(3)
H16 H -0.0115 0.3826 0.1012
H17 H -0.0577 0.4559 0.1015
H18 H -0.0093 0.4230 0.1751
C21 C 0.1542(4) 0.6998(2) 0.4534(3)
H19 H 0.1195 0.7308 0.4212
C22 C 0.0624(5) 0.6100(3) 0.6255(3)
H20 H 0.0562 0.5628 0.6239
H21 H -0.0208 0.6287 0.6237
H22 H 0.1049 0.6231 0.6704
N5 N 0.4877(2) 0.73056(12) 0.16680(14)
C23 C 0.3884(3) 0.67697(15) 0.16931(18)
H23 H 0.4245 0.6368 0.1498
H24 H 0.3684 0.6688 0.2206
C24 C 0.5245(3) 0.74586(17) 0.08761(18)
H25 H 0.5877 0.7804 0.0887
H26 H 0.4507 0.7629 0.0613
C25 C 0.6001(3) 0.70568(16) 0.21147(17)
H27 H 0.5718 0.6948 0.2607
H28 H 0.6294 0.6653 0.1889
C26 C 0.4370(3) 0.79435(16) 0.1983(2)
H29 H 0.5024 0.8276 0.1951
H30 H 0.3664 0.8087 0.1673
C27 C 0.2667(3) 0.69114(19) 0.1273(2)
H31 H 0.2353 0.7341 0.1413
H32 H 0.2828 0.6919 0.0746
C28 C 0.5761(4) 0.6878(2) 0.0441(2)
H33 H 0.5089 0.6565 0.0340
H34 H 0.6414 0.6658 0.0732
C29 C 0.3937(4) 0.79121(19) 0.2773(2)
H35 H 0.3246 0.7601 0.2804
H36 H 0.4625 0.7752 0.3085
C30 C 0.7107(4) 0.7521(2) 0.2190(3)
H37 H 0.7390 0.7644 0.1702
H38 H 0.6844 0.7917 0.2442
C31 C 0.6311(4) 0.7119(3) -0.0290(2)
H39 H 0.6438 0.6744 -0.0611
H40 H 0.5706 0.7410 -0.0532
C32 C 0.8161(4) 0.7213(3) 0.2608(3)
H41 H 0.7852 0.7068 0.3083
H42 H 0.8433 0.6825 0.2342
C33 C 0.1691(4) 0.6399(2) 0.1432(3)
H43 H 0.2039 0.5969 0.1323
H44 H 0.1511 0.6410 0.1956
C34 C 0.3513(6) 0.8563(2) 0.3056(3)
H45 H 0.4176 0.8880 0.2963
H46 H 0.2779 0.8698 0.2764
C35 C 0.0478(5) 0.6480(3) 0.1005(3)
H47 H 0.0640 0.6458 0.0485
H48 H 0.0110 0.6899 0.1119
H49 H -0.0095 0.6135 0.1136
C36 C 0.3190(5) 0.8613(3) 0.3830(3)
H50 H 0.2433 0.8367 0.3917
H51 H 0.3056 0.9067 0.3955
H52 H 0.3868 0.8439 0.4130
C37 C 0.9261(6) 0.7642(4) 0.2737(4)
H53 H 0.9602 0.7772 0.2271
H54 H 0.9893 0.7409 0.3020
H55 H 0.9006 0.8027 0.3004
C38 C 0.7528(5) 0.7474(3) -0.0189(3)
H56 H 0.7751 0.7681 -0.0646
H57 H 0.8177 0.7167 -0.0044
H58 H 0.7445 0.7803 0.0188
loop_
_geom_bond_atom_site_label_1
_geom_bond_atom_site_label_2
_geom_bond_site_symmetry_1
_geom_bond_site_symmetry_2
O1 C1 1_555 1_555
O2 C3 1_555 1_555
N1 H1 1_555 1_555
N2 H2 1_555 1_555
N3 H3 1_555 1_555
N4 H4 1_555 1_555
C1 N1 1_555 1_555
C2 N1 1_555 1_555
C3 N3 1_555 1_555
C4 N3 1_555 1_555
C5 N4 1_555 1_555
C6 N2 1_555 1_555
C7 C6 1_555 1_555
H5 C7 1_555 1_555
C8 C2 1_555 1_555
H6 C8 1_555 1_555
C9 C5 1_555 1_555
H7 C9 1_555 1_555
C10 C4 1_555 1_555
H8 C10 1_555 1_555
C11 C7 1_555 1_555
C12 C6 1_555 1_555
H9 C12 1_555 1_555
C13 C9 1_555 1_555
C14 C11 1_555 1_555
H10 C14 1_555 1_555
C15 C10 1_555 1_555
H11 C15 1_555 1_555
C16 C8 1_555 1_555
H12 C16 1_555 1_555
C17 C12 1_555 1_555
H13 C17 1_555 1_555
C18 C5 1_555 1_555
H14 C18 1_555 1_555
C19 C13 1_555 1_555
H15 C19 1_555 1_555
C20 C11 1_555 1_555
H16 C20 1_555 1_555
H17 C20 1_555 1_555
H18 C20 1_555 1_555
C21 C18 1_555 1_555
H19 C21 1_555 1_555
C22 C13 1_555 1_555
H20 C22 1_555 1_555
H21 C22 1_555 1_555
H22 C22 1_555 1_555
N5 C23 1_555 1_555
C23 H23 1_555 1_555
H24 C23 1_555 1_555
C24 N5 1_555 1_555
H25 C24 1_555 1_555
H26 C24 1_555 1_555
C25 N5 1_555 1_555
H27 C25 1_555 1_555
H28 C25 1_555 1_555
C26 N5 1_555 1_555
H29 C26 1_555 1_555
H30 C26 1_555 1_555
C27 C23 1_555 1_555
H31 C27 1_555 1_555
H32 C27 1_555 1_555
C28 C24 1_555 1_555
H33 C28 1_555 1_555
H34 C28 1_555 1_555
C29 C26 1_555 1_555
H35 C29 1_555 1_555
H36 C29 1_555 1_555
C30 C25 1_555 1_555
H37 C30 1_555 1_555
H38 C30 1_555 1_555
C31 C28 1_555 1_555
H39 C31 1_555 1_555
H40 C31 1_555 1_555
C32 C30 1_555 1_555
H41 C32 1_555 1_555
H42 C32 1_555 1_555
C33 C27 1_555 1_555
H43 C33 1_555 1_555
H44 C33 1_555 1_555
C34 C29 1_555 1_555
H45 C34 1_555 1_555
H46 C34 1_555 1_555
C35 C33 1_555 1_555
H47 C35 1_555 1_555
H48 C35 1_555 1_555
H49 C35 1_555 1_555
C36 C34 1_555 1_555
H50 C36 1_555 1_555
H51 C36 1_555 1_555
H52 C36 1_555 1_555
C37 C32 1_555 1_555
H53 C37 1_555 1_555
H54 C37 1_555 1_555
H55 C37 1_555 1_555
C38 C31 1_555 1_555
H56 C38 1_555 1_555
H57 C38 1_555 1_555
H58 C38 1_555 1_555
N2 C1 1_555 1_555
N4 C3 1_555 1_555
C2 C4 1_555 1_555
C14 C17 1_555 1_555
C15 C16 1_555 1_555
C19 C21 1_555 1_555

#END
