
#######################################################################
#
#                 Cambridge Crystallographic Data Centre
#                                CCDC 
#
#######################################################################
#
# If this CIF has been generated from an entry in the Cambridge 
# Structural Database, then it will include bibliographic, chemical, 
# crystal, experimental, refinement or atomic coordinate data resulting 
# from the CCDC's data processing and validation procedures.
#
#######################################################################

data_NEFSOH
_chemical_name_common            N-(2-Fluorophenyl)phthalimide
_chemical_formula_moiety         'C14 H8 F1 N1 O2'
_chemical_name_systematic        2-(2-fluorophenyl)-1H-isoindole-1,3(2H)-dione
_symmetry_cell_setting           orthorhombic
_symmetry_space_group_name_H-M   'P b c a'
_symmetry_Int_Tables_number      61
_space_group_name_Hall           '-P 2ac 2ab'
loop_
_symmetry_equiv_pos_site_id
_symmetry_equiv_pos_as_xyz
1 x,y,z
2 1/2-x,-y,1/2+z
3 -x,1/2+y,1/2-z
4 1/2+x,1/2-y,-z
5 -x,-y,-z
6 1/2+x,y,1/2-z
7 x,1/2-y,1/2+z
8 1/2-x,1/2+y,z
_cell_length_a                   11.622(3)
_cell_length_b                   7.8368(16)
_cell_length_c                   24.017(5)
_cell_angle_alpha                90
_cell_angle_beta                 90
_cell_angle_gamma                90
_cell_volume                     2187.45
_exptl_crystal_colour            white
_exptl_crystal_description       prism
_chemical_melting_point          '465 K'
_cell_formula_units_Z            8
_exptl_crystal_recrystallization_method 'ethyl acetate'
loop_
_atom_site_label
_atom_site_type_symbol
_atom_site_fract_x
_atom_site_fract_y
_atom_site_fract_z
F1 F 0.45336(15) -0.0205(2) 0.31890(7)
N1 N 0.61566(13) 0.14038(19) 0.38251(6)
O1 O 0.78204(14) -0.0051(2) 0.40639(6)
O2 O 0.45026(12) 0.30430(19) 0.38866(6)
C1 C 0.62486(17) 0.1271(2) 0.32346(8)
C2 C 0.54049(18) 0.0479(3) 0.29278(9)
C3 C 0.5477(2) 0.0293(3) 0.23594(9)
H2 H 0.4889 -0.0235 0.2160
C4 C 0.6433(2) 0.0902(3) 0.20940(9)
H3 H 0.6501 0.0774 0.1710
C5 C 0.7294(2) 0.1700(3) 0.23856(9)
H4 H 0.7940 0.2115 0.2201
C6 C 0.71918(19) 0.1882(3) 0.29553(9)
H5 H 0.7773 0.2428 0.3153
C7 C 0.69670(18) 0.0731(3) 0.41974(8)
C8 C 0.65634(16) 0.1192(2) 0.47600(8)
C9 C 0.70264(18) 0.0835(3) 0.52747(9)
H6 H 0.7694 0.0190 0.5309
C10 C 0.6470(2) 0.1463(3) 0.57373(9)
H7 H 0.6773 0.1253 0.6089
C11 C 0.54689(19) 0.2401(3) 0.56882(9)
H8 H 0.5105 0.2802 0.6007
C12 C 0.49990(17) 0.2751(3) 0.51708(9)
H9 H 0.4325 0.3381 0.5136
C13 C 0.55637(15) 0.2134(2) 0.47096(8)
C14 C 0.52877(17) 0.2300(2) 0.41065(8)
F2? F 0.8064(3) 0.2372(5) 0.32862(16)
H1? H 0.4761 0.0054 0.3111
loop_
_geom_bond_atom_site_label_1
_geom_bond_atom_site_label_2
_geom_bond_site_symmetry_1
_geom_bond_site_symmetry_2
F1 C2 1_555 1_555
N1 C1 1_555 1_555
O1 C7 1_555 1_555
O2 C14 1_555 1_555
C1 C2 1_555 1_555
C2 C3 1_555 1_555
C3 H2 1_555 1_555
C4 C3 1_555 1_555
H3 C4 1_555 1_555
C5 C4 1_555 1_555
H4 C5 1_555 1_555
C6 C1 1_555 1_555
H5 C6 1_555 1_555
C7 N1 1_555 1_555
C8 C7 1_555 1_555
C9 C8 1_555 1_555
H6 C9 1_555 1_555
C10 C9 1_555 1_555
H7 C10 1_555 1_555
C11 C10 1_555 1_555
H8 C11 1_555 1_555
C12 C11 1_555 1_555
H9 C12 1_555 1_555
C13 C8 1_555 1_555
C14 N1 1_555 1_555
C5 C6 1_555 1_555
C12 C13 1_555 1_555
C13 C14 1_555 1_555

#END
