
#######################################################################
#
#                 Cambridge Crystallographic Data Centre
#                                CCDC 
#
#######################################################################
#
# If this CIF has been generated from an entry in the Cambridge 
# Structural Database, then it will include bibliographic, chemical, 
# crystal, experimental, refinement or atomic coordinate data resulting 
# from the CCDC's data processing and validation procedures.
#
#######################################################################

data_NEFTUQ
_chemical_name_common            penoxsulam
_chemical_formula_moiety         'C16 H14 F5 N5 O5 S1'
_chemical_name_systematic        
2-(2,2-difluoroethoxy)-N-(5,8-dimethoxy[1,2,4]triazolo[1,5-c]pyrimidin-2-yl)-6-(trifluoromethyl)benzene-1-sulfonamide
_chemical_properties_biological  herbicide
_symmetry_cell_setting           triclinic
_symmetry_space_group_name_H-M   'P -1'
_symmetry_Int_Tables_number      2
_space_group_name_Hall           '-P 1'
loop_
_symmetry_equiv_pos_site_id
_symmetry_equiv_pos_as_xyz
1 x,y,z
2 -x,-y,-z
_cell_length_a                   8.1945(3)
_cell_length_b                   8.3733(3)
_cell_length_c                   28.3277(9)
_cell_angle_alpha                82.698(2)
_cell_angle_beta                 84.183(2)
_cell_angle_gamma                81.814(2)
_cell_volume                     1901.42
_exptl_crystal_colour            colorless
_exptl_crystal_description       plate
_cell_formula_units_Z            4
_exptl_crystal_recrystallization_method acetonitrile
loop_
_atom_site_label
_atom_site_type_symbol
_atom_site_fract_x
_atom_site_fract_y
_atom_site_fract_z
S1 S 0.40491(7) 0.27322(7) 0.33986(2)
F1 F 0.6784(2) -0.21313(19) 0.28932(6)
F2 F 0.6798(2) -0.2261(2) 0.36604(6)
F3 F 0.0164(2) 0.53003(19) 0.34514(6)
F4 F 0.18482(19) 0.53143(16) 0.28142(5)
F5 F -0.0713(2) 0.51888(19) 0.27738(6)
O1 O 0.4016(2) -0.06137(18) 0.33033(6)
O2 O 0.3455(2) 0.42426(19) 0.35764(6)
O3 O 0.5333(2) 0.2632(2) 0.30221(6)
O4 O 0.3555(3) -0.3031(3) 0.52168(8)
O5 O 0.0298(3) 0.3079(3) 0.51945(7)
N1 N 0.4795(2) 0.1502(2) 0.38497(7)
H1 H 0.5842 0.1083 0.3822
N2 N 0.4113(3) -0.0440(2) 0.44874(8)
N3 N 0.2718(3) 0.2139(2) 0.44832(7)
N4 N 0.2201(3) 0.1158(3) 0.48799(7)
N5 N 0.0657(4) 0.0425(4) 0.55905(8)
C1 C 0.4275(3) -0.2344(3) 0.33482(10)
H2 H 0.3768 -0.2749 0.3091
H3 H 0.3776 -0.2797 0.3661
C2 C 0.6090(4) -0.2821(3) 0.33091(10)
H4 H 0.6349 -0.4030 0.3329
C3 C 0.2487(3) 0.0195(3) 0.32428(8)
C4 C 0.1131(3) -0.0560(3) 0.31745(9)
H5 H 0.1223 -0.1710 0.3198
C5 C -0.0334(3) 0.0372(3) 0.30731(9)
H6 H -0.1263 -0.0142 0.3032
C6 C -0.0480(3) 0.2044(3) 0.30301(9)
H7 H -0.1488 0.2671 0.2944
C7 C 0.0837(3) 0.2816(3) 0.31124(8)
C8 C 0.2322(3) 0.1891(3) 0.32403(7)
C9 C 0.0556(3) 0.4652(3) 0.30368(9)
C10 C 0.3842(3) 0.1093(3) 0.42737(8)
C11 C 0.3046(3) -0.0355(3) 0.48755(9)
C12 C 0.2670(4) -0.1556(4) 0.52547(11)
C13 C 0.1508(4) -0.1123(4) 0.55917(10)
H8 H 0.1246 -0.1919 0.5848
C14 C 0.1007(4) 0.1546(4) 0.52415(9)
C15 C 0.3152(5) -0.4323(4) 0.55754(13)
H9 H 0.3362 -0.4064 0.5890
H10 H 0.3837 -0.5338 0.5506
H11 H 0.1981 -0.4448 0.5575
C16 C -0.0932(4) 0.3529(4) 0.55773(11)
H12 H -0.1876 0.2927 0.5580
H13 H -0.1309 0.4697 0.5526
H14 H -0.0443 0.3266 0.5884
S2 S 1.17808(7) 0.29094(7) 0.15763(2)
F6 F 0.6485(2) 0.5512(2) 0.21727(6)
F7 F 0.6787(3) 0.5868(2) 0.13991(7)
F8 F 1.4342(2) -0.0947(2) 0.15363(6)
F9 F 1.39010(18) 0.03048(19) 0.21686(5)
F10 F 1.3647(2) -0.22070(19) 0.22130(6)
O6 O 0.8254(2) 0.2966(2) 0.17644(6)
O7 O 1.1568(2) 0.3944(2) 0.19444(6)
O8 O 1.3393(2) 0.2352(2) 0.13777(6)
O9 O 0.7015(3) 0.3776(3) -0.02223(8)
O10 O 1.3171(3) 0.0395(3) -0.02043(7)
N6 N 1.0775(3) 0.3946(2) 0.11402(7)
H15 H 1.0315 0.4945 0.1175
N7 N 0.9191(3) 0.3767(2) 0.05042(7)
N8 N 1.1790(3) 0.2324(3) 0.05044(7)
N9 N 1.1034(3) 0.2116(3) 0.01107(7)
N10 N 1.0719(3) 0.1088(3) -0.05969(8)
C17 C 0.6501(3) 0.3241(3) 0.17727(11)
H16 H 0.5996 0.2640 0.2062
H17 H 0.6132 0.2872 0.1487
C18 C 0.6008(4) 0.5018(4) 0.17763(12)
H18 H 0.4782 0.5284 0.1767
C19 C 0.8998(3) 0.1400(3) 0.17952(8)
C20 C 0.8126(3) 0.0072(3) 0.18630(9)
H19 H 0.6953 0.0231 0.1871
C21 C 0.8963(3) -0.1464(3) 0.19184(9)
H20 H 0.8369 -0.2372 0.1948
C22 C 1.0651(3) -0.1711(3) 0.19321(9)
H21 H 1.1208 -0.2783 0.1991
C23 C 1.1547(3) -0.0404(3) 0.18604(8)
C24 C 1.0729(3) 0.1177(3) 0.17622(8)
C25 C 1.3353(3) -0.0779(3) 0.19369(9)
C26 C 1.0613(3) 0.3314(3) 0.07141(8)
C27 C 0.9510(3) 0.2979(3) 0.01135(8)
C28 C 0.8526(4) 0.2892(3) -0.02617(10)
C29 C 0.9154(4) 0.1956(4) -0.05974(9)
H22 H 0.8498 0.1880 -0.0850
C30 C 1.1653(4) 0.1154(3) -0.02503(9)
C31 C 0.5908(5) 0.3640(5) -0.05730(12)
H23 H 0.6383 0.4036 -0.0891
H24 H 0.4841 0.4291 -0.0501
H25 H 0.5747 0.2500 -0.0567
C32 C 1.3861(4) -0.0568(4) -0.05853(11)
H26 H 1.3238 -0.1487 -0.0580
H27 H 1.5023 -0.0976 -0.0540
H28 H 1.3789 0.0106 -0.0894
loop_
_geom_bond_atom_site_label_1
_geom_bond_atom_site_label_2
_geom_bond_site_symmetry_1
_geom_bond_site_symmetry_2
S1 O2 1_555 1_555
F1 C2 1_555 1_555
F2 C2 1_555 1_555
F3 C9 1_555 1_555
F4 C9 1_555 1_555
F5 C9 1_555 1_555
O1 C1 1_555 1_555
O3 S1 1_555 1_555
O4 C12 1_555 1_555
O5 C14 1_555 1_555
N1 S1 1_555 1_555
H1 N1 1_555 1_555
N2 C10 1_555 1_555
N3 N4 1_555 1_555
N4 C11 1_555 1_555
N5 C13 1_555 1_555
C1 H2 1_555 1_555
H3 C1 1_555 1_555
C2 C1 1_555 1_555
H4 C2 1_555 1_555
C3 O1 1_555 1_555
C4 C3 1_555 1_555
H5 C4 1_555 1_555
C5 C4 1_555 1_555
H6 C5 1_555 1_555
C6 C5 1_555 1_555
H7 C6 1_555 1_555
C7 C6 1_555 1_555
C8 S1 1_555 1_555
C9 C7 1_555 1_555
C10 N1 1_555 1_555
C11 N2 1_555 1_555
C12 C11 1_555 1_555
C13 C12 1_555 1_555
H8 C13 1_555 1_555
C14 N4 1_555 1_555
C15 O4 1_555 1_555
H9 C15 1_555 1_555
H10 C15 1_555 1_555
H11 C15 1_555 1_555
C16 O5 1_555 1_555
H12 C16 1_555 1_555
H13 C16 1_555 1_555
H14 C16 1_555 1_555
S2 O7 1_555 1_555
F6 C18 1_555 1_555
F7 C18 1_555 1_555
F8 C25 1_555 1_555
F9 C25 1_555 1_555
F10 C25 1_555 1_555
O6 C17 1_555 1_555
O8 S2 1_555 1_555
O9 C28 1_555 1_555
O10 C30 1_555 1_555
N6 S2 1_555 1_555
H15 N6 1_555 1_555
N7 C26 1_555 1_555
N8 N9 1_555 1_555
N9 C27 1_555 1_555
N10 C29 1_555 1_555
C17 H16 1_555 1_555
H17 C17 1_555 1_555
C18 C17 1_555 1_555
H18 C18 1_555 1_555
C19 O6 1_555 1_555
C20 C19 1_555 1_555
H19 C20 1_555 1_555
C21 C20 1_555 1_555
H20 C21 1_555 1_555
C22 C21 1_555 1_555
H21 C22 1_555 1_555
C23 C22 1_555 1_555
C24 S2 1_555 1_555
C25 C23 1_555 1_555
C26 N6 1_555 1_555
C27 N7 1_555 1_555
C28 C27 1_555 1_555
C29 C28 1_555 1_555
H22 C29 1_555 1_555
C30 N9 1_555 1_555
C31 O9 1_555 1_555
H23 C31 1_555 1_555
H24 C31 1_555 1_555
H25 C31 1_555 1_555
C32 O10 1_555 1_555
H26 C32 1_555 1_555
H27 C32 1_555 1_555
H28 C32 1_555 1_555
N3 C10 1_555 1_555
N5 C14 1_555 1_555
C3 C8 1_555 1_555
C7 C8 1_555 1_555
N8 C26 1_555 1_555
N10 C30 1_555 1_555
C19 C24 1_555 1_555
C23 C24 1_555 1_555

#END
