
#######################################################################
#
#                 Cambridge Crystallographic Data Centre
#                                CCDC 
#
#######################################################################
#
# If this CIF has been generated from an entry in the Cambridge 
# Structural Database, then it will include bibliographic, chemical, 
# crystal, experimental, refinement or atomic coordinate data resulting 
# from the CCDC's data processing and validation procedures.
#
#######################################################################

data_NEFWAX
_chemical_formula_moiety         'C30 H24 N12 S3'
_chemical_name_systematic        
1,3,5-tris(1-phenyl-1H-tetrazole-5-ylsulfanylmethyl)benzene
_symmetry_cell_setting           triclinic
_symmetry_space_group_name_H-M   'P -1'
_symmetry_Int_Tables_number      2
_space_group_name_Hall           '-P 1'
loop_
_symmetry_equiv_pos_site_id
_symmetry_equiv_pos_as_xyz
1 x,y,z
2 -x,-y,-z
_cell_length_a                   10.0160(19)
_cell_length_b                   11.323(2)
_cell_length_c                   15.379(3)
_cell_angle_alpha                68.488(3)
_cell_angle_beta                 71.162(3)
_cell_angle_gamma                84.523(3)
_cell_volume                     1535.22
_exptl_crystal_colour            colorless
_exptl_crystal_description       block
_chemical_melting_point          '425-426 K'
_cell_formula_units_Z            2
_exptl_crystal_recrystallization_method chloroform
loop_
_atom_site_label
_atom_site_type_symbol
_atom_site_fract_x
_atom_site_fract_y
_atom_site_fract_z
S1 S 0.08780(8) 0.28478(7) 0.36733(5)
S2 S 0.55027(8) 0.65753(7) 0.16704(6)
S3 S -0.02785(8) 0.76032(8) 0.08160(5)
N1 N -0.0689(2) 0.0815(2) 0.39369(15)
N2 N -0.1820(3) 0.0106(2) 0.46679(18)
N3 N -0.2225(2) 0.0498(2) 0.54031(17)
N4 N -0.1353(2) 0.14976(19) 0.51535(15)
N5 N 0.6903(3) 0.4320(3) 0.19254(19)
N6 N 0.7620(3) 0.3611(3) 0.2558(2)
N7 N 0.7597(3) 0.4123(3) 0.3186(2)
N8 N 0.6852(2) 0.5202(2) 0.29746(17)
N9 N -0.1454(2) 0.8225(2) -0.06588(16)
N10 N -0.2480(3) 0.9004(3) -0.09320(17)
N11 N -0.3033(3) 0.9620(2) -0.03475(18)
N12 N -0.2347(2) 0.9246(2) 0.03487(15)
C1 C 0.2208(3) 0.3905(2) 0.17462(17)
C2 C 0.1284(3) 0.4643(3) 0.12696(18)
H1 H 0.0391 0.4316 0.1409
C3 C 0.1670(3) 0.5852(3) 0.05933(17)
C4 C 0.3005(3) 0.6331(2) 0.03989(17)
H2 H 0.3272 0.7147 -0.0054
C5 C 0.3944(3) 0.5622(3) 0.08628(17)
C6 C 0.3534(3) 0.4398(2) 0.15338(17)
H3 H 0.4162 0.3906 0.1843
C7 C 0.1702(3) 0.2612(2) 0.25130(17)
H4 H 0.2490 0.2048 0.2554
H5 H 0.1028 0.2241 0.2348
C8 C -0.0423(3) 0.1670(2) 0.42571(18)
C9 C -0.1483(3) 0.2171(2) 0.58047(18)
C10 C -0.1505(3) 0.3475(3) 0.54498(19)
H6 H -0.1459 0.3913 0.4797
C11 C -0.1595(3) 0.4129(3) 0.6063(2)
H7 H -0.1593 0.5012 0.5823
C12 C -0.1687(3) 0.3477(3) 0.7029(2)
H8 H -0.1749 0.3919 0.7444
C13 C -0.1689(3) 0.2175(3) 0.7384(2)
H9 H -0.1766 0.1738 0.8042
C14 C -0.1578(3) 0.1504(3) 0.67724(19)
H10 H -0.1567 0.0621 0.7010
C15 C 0.5367(3) 0.6173(3) 0.06552(19)
H11 H 0.5552 0.6932 0.0068
H12 H 0.6082 0.5565 0.0526
C16 C 0.6438(3) 0.5306(3) 0.2198(2)
C17 C 0.6662(3) 0.6036(3) 0.3514(2)
C18 C 0.5339(3) 0.6382(3) 0.3940(2)
H13 H 0.4553 0.6081 0.3880
C19 C 0.5180(4) 0.7184(4) 0.4460(3)
H14 H 0.4287 0.7442 0.4740
C20 C 0.6352(5) 0.7600(3) 0.4560(3)
H15 H 0.6250 0.8125 0.4921
C21 C 0.7664(4) 0.7240(3) 0.4131(3)
H16 H 0.8453 0.7528 0.4196
C22 C 0.7830(3) 0.6461(3) 0.3607(2)
H17 H 0.8727 0.6219 0.3315
C23 C 0.0647(3) 0.6640(3) 0.0093(2)
H18 H -0.0016 0.6095 0.0065
H19 H 0.1149 0.7179 -0.0573
C24 C -0.1389(3) 0.8389(2) 0.01359(19)
C25 C -0.2785(3) 0.9709(2) 0.11470(19)
C26 C -0.4189(3) 0.9923(3) 0.1525(2)
H20 H -0.4853 0.9753 0.1278
C27 C -0.4594(4) 1.0394(3) 0.2276(3)
H21 H -0.5542 1.0544 0.2538
C28 C -0.3627(5) 1.0646(3) 0.2646(3)
H22 H -0.3915 1.0969 0.3151
C29 C -0.2227(4) 1.0418(3) 0.2266(2)
H23 H -0.1567 1.0580 0.2519
C30 C -0.1796(3) 0.9952(3) 0.1512(2)
H24 H -0.0848 0.9802 0.1252
loop_
_geom_bond_atom_site_label_1
_geom_bond_atom_site_label_2
_geom_bond_site_symmetry_1
_geom_bond_site_symmetry_2
S1 C7 1_555 1_555
S2 C15 1_555 1_555
S3 C23 1_555 1_555
N1 N2 1_555 1_555
N2 N3 1_555 1_555
N3 N4 1_555 1_555
N4 C8 1_555 1_555
N5 N6 1_555 1_555
N6 N7 1_555 1_555
N7 N8 1_555 1_555
N8 C16 1_555 1_555
N9 N10 1_555 1_555
N10 N11 1_555 1_555
N11 N12 1_555 1_555
N12 C24 1_555 1_555
C1 C2 1_555 1_555
C2 H1 1_555 1_555
C3 C2 1_555 1_555
C4 C3 1_555 1_555
H2 C4 1_555 1_555
C5 C4 1_555 1_555
C6 C1 1_555 1_555
H3 C6 1_555 1_555
C7 C1 1_555 1_555
H4 C7 1_555 1_555
H5 C7 1_555 1_555
C8 S1 1_555 1_555
C9 N4 1_555 1_555
C10 C9 1_555 1_555
H6 C10 1_555 1_555
C11 C10 1_555 1_555
H7 C11 1_555 1_555
C12 C11 1_555 1_555
H8 C12 1_555 1_555
C13 C12 1_555 1_555
H9 C13 1_555 1_555
C14 C9 1_555 1_555
H10 C14 1_555 1_555
C15 C5 1_555 1_555
H11 C15 1_555 1_555
H12 C15 1_555 1_555
C16 S2 1_555 1_555
C17 N8 1_555 1_555
C18 C17 1_555 1_555
H13 C18 1_555 1_555
C19 C18 1_555 1_555
H14 C19 1_555 1_555
C20 C19 1_555 1_555
H15 C20 1_555 1_555
C21 C20 1_555 1_555
H16 C21 1_555 1_555
C22 C17 1_555 1_555
H17 C22 1_555 1_555
C23 C3 1_555 1_555
H18 C23 1_555 1_555
H19 C23 1_555 1_555
C24 S3 1_555 1_555
C25 N12 1_555 1_555
C26 C25 1_555 1_555
H20 C26 1_555 1_555
C27 C26 1_555 1_555
H21 C27 1_555 1_555
C28 C27 1_555 1_555
H22 C28 1_555 1_555
C29 C28 1_555 1_555
H23 C29 1_555 1_555
C30 C25 1_555 1_555
H24 C30 1_555 1_555
N1 C8 1_555 1_555
N5 C16 1_555 1_555
N9 C24 1_555 1_555
C5 C6 1_555 1_555
C13 C14 1_555 1_555
C21 C22 1_555 1_555
C29 C30 1_555 1_555

#END
