
#######################################################################
#
#                 Cambridge Crystallographic Data Centre
#                                CCDC 
#
#######################################################################
#
# If this CIF has been generated from an entry in the Cambridge 
# Structural Database, then it will include bibliographic, chemical, 
# crystal, experimental, refinement or atomic coordinate data resulting 
# from the CCDC's data processing and validation procedures.
#
#######################################################################

data_NEFWEB
_chemical_formula_moiety         'C33 H29 N3'
_chemical_name_systematic        
"4-(N,N-di-p-tolylamino)benzaldehyde N',N'-diphenylhydrazone"
_symmetry_cell_setting           monoclinic
_symmetry_space_group_name_H-M   'P 21/n'
_symmetry_Int_Tables_number      14
_space_group_name_Hall           '-P 2yn'
loop_
_symmetry_equiv_pos_site_id
_symmetry_equiv_pos_as_xyz
1 x,y,z
2 1/2-x,1/2+y,1/2-z
3 -x,-y,-z
4 1/2+x,1/2-y,1/2+z
_cell_length_a                   12.875(3)
_cell_length_b                   15.037(3)
_cell_length_c                   13.591(3)
_cell_angle_alpha                90
_cell_angle_beta                 95.107(4)
_cell_angle_gamma                90
_cell_volume                     2620.79
_exptl_crystal_colour            yellow
_exptl_crystal_description       block
_chemical_melting_point          '437 K'
_cell_formula_units_Z            4
_exptl_crystal_recrystallization_method 'ethyl acetate'
loop_
_atom_site_label
_atom_site_type_symbol
_atom_site_fract_x
_atom_site_fract_y
_atom_site_fract_z
N1 N 0.26578(13) -0.01522(11) 0.82921(13)
N2 N 0.63401(12) 0.20823(12) 0.66041(12)
N3 N 0.71507(13) 0.24643(11) 0.61725(13)
C1 C 0.26906(17) -0.09848(15) 0.87709(15)
C2 C 0.18008(18) -0.15077(15) 0.87819(15)
H1 H 0.1171 -0.1309 0.8470
C3 C 0.1849(2) -0.23207(16) 0.92541(17)
H2 H 0.1243 -0.2657 0.9255
C4 C 0.2755(3) -0.26543(16) 0.97228(18)
C5 C 0.3636(2) -0.21309(18) 0.97057(18)
H3 H 0.4264 -0.2334 1.0018
C6 C 0.36101(18) -0.13167(15) 0.92390(17)
H4 H 0.4219 -0.0984 0.9238
C7 C 0.2783(3) -0.35429(17) 1.0256(2)
H5 H 0.2712 -0.3447 1.0945
H6 H 0.3435 -0.3834 1.0180
H7 H 0.2220 -0.3909 0.9979
C8 C 0.18033(15) 0.04386(14) 0.83211(15)
C9 C 0.15464(17) 0.10051(15) 0.75333(16)
H8 H 0.1907 0.0965 0.6972
C10 C 0.07649(17) 0.16283(15) 0.75684(16)
H9 H 0.0620 0.2009 0.7034
C11 C 0.01907(16) 0.17018(14) 0.83790(16)
C12 C 0.04321(15) 0.11176(14) 0.91489(15)
H10 H 0.0048 0.1141 0.9696
C13 C 0.12242(15) 0.05000(13) 0.91347(15)
H11 H 0.1371 0.0123 0.9672
C14 C -0.06401(19) 0.24048(15) 0.84233(19)
H12 H -0.0436 0.2817 0.8945
H13 H -0.1287 0.2128 0.8548
H14 H -0.0725 0.2717 0.7805
C15 C 0.35528(16) 0.01741(14) 0.78531(16)
C16 C 0.40056(17) -0.03018(15) 0.71369(17)
H15 H 0.3758 -0.0866 0.6961
C17 C 0.48305(16) 0.00576(14) 0.66773(16)
H16 H 0.5134 -0.0274 0.6201
C18 C 0.52098(15) 0.08981(13) 0.69128(15)
C19 C 0.47693(16) 0.13550(14) 0.76630(16)
H17 H 0.5027 0.1912 0.7855
C20 C 0.39599(16) 0.09951(14) 0.81233(16)
H18 H 0.3682 0.1311 0.8626
C21 C 0.60587(15) 0.12809(14) 0.64094(15)
H19 H 0.6390 0.0947 0.5954
C22 C 0.77350(15) 0.19932(12) 0.54925(15)
C23 C 0.84658(18) 0.13801(14) 0.58387(18)
H20 H 0.8572 0.1260 0.6511
C24 C 0.9039(2) 0.09446(16) 0.5185(2)
H21 H 0.9531 0.0524 0.5417
C25 C 0.8896(2) 0.11215(17) 0.4194(2)
H22 H 0.9288 0.0823 0.3755
C26 C 0.8174(2) 0.17382(17) 0.38534(18)
H23 H 0.8079 0.1866 0.3182
C27 C 0.75842(17) 0.21734(14) 0.45035(17)
H24 H 0.7086 0.2588 0.4270
C28 C 0.72950(16) 0.33802(13) 0.63326(14)
C29 C 0.81880(16) 0.38010(14) 0.60682(15)
H25 H 0.8706 0.3471 0.5801
C30 C 0.8312(2) 0.47036(16) 0.61996(17)
H26 H 0.8908 0.4980 0.6008
C31 C 0.7566(2) 0.52007(16) 0.66105(19)
H27 H 0.7651 0.5811 0.6694
C32 C 0.6694(2) 0.47842(17) 0.68955(17)
H28 H 0.6192 0.5116 0.7183
C33 C 0.65486(17) 0.38841(15) 0.67639(15)
H29 H 0.5953 0.3612 0.6963
loop_
_geom_bond_atom_site_label_1
_geom_bond_atom_site_label_2
_geom_bond_site_symmetry_1
_geom_bond_site_symmetry_2
N1 C1 1_555 1_555
N2 N3 1_555 1_555
N3 C22 1_555 1_555
C1 C2 1_555 1_555
C2 H1 1_555 1_555
C3 C2 1_555 1_555
H2 C3 1_555 1_555
C4 C3 1_555 1_555
C5 C4 1_555 1_555
H3 C5 1_555 1_555
C6 C1 1_555 1_555
H4 C6 1_555 1_555
C7 C4 1_555 1_555
H5 C7 1_555 1_555
H6 C7 1_555 1_555
H7 C7 1_555 1_555
C8 N1 1_555 1_555
C9 C8 1_555 1_555
H8 C9 1_555 1_555
C10 C9 1_555 1_555
H9 C10 1_555 1_555
C11 C10 1_555 1_555
C12 C11 1_555 1_555
H10 C12 1_555 1_555
C13 C8 1_555 1_555
H11 C13 1_555 1_555
C14 C11 1_555 1_555
H12 C14 1_555 1_555
H13 C14 1_555 1_555
H14 C14 1_555 1_555
C15 N1 1_555 1_555
C16 C15 1_555 1_555
H15 C16 1_555 1_555
C17 C16 1_555 1_555
H16 C17 1_555 1_555
C18 C17 1_555 1_555
C19 C18 1_555 1_555
H17 C19 1_555 1_555
C20 C15 1_555 1_555
H18 C20 1_555 1_555
C21 N2 1_555 1_555
H19 C21 1_555 1_555
C22 C23 1_555 1_555
C23 H20 1_555 1_555
C24 C23 1_555 1_555
H21 C24 1_555 1_555
C25 C24 1_555 1_555
H22 C25 1_555 1_555
C26 C25 1_555 1_555
H23 C26 1_555 1_555
C27 C22 1_555 1_555
H24 C27 1_555 1_555
C28 N3 1_555 1_555
C29 C28 1_555 1_555
H25 C29 1_555 1_555
C30 C29 1_555 1_555
H26 C30 1_555 1_555
C31 C30 1_555 1_555
H27 C31 1_555 1_555
C32 C31 1_555 1_555
H28 C32 1_555 1_555
C33 C28 1_555 1_555
H29 C33 1_555 1_555
C5 C6 1_555 1_555
C12 C13 1_555 1_555
C18 C21 1_555 1_555
C19 C20 1_555 1_555
C26 C27 1_555 1_555
C32 C33 1_555 1_555

#END
