
#######################################################################
#
#                 Cambridge Crystallographic Data Centre
#                                CCDC 
#
#######################################################################
#
# If this CIF has been generated from an entry in the Cambridge 
# Structural Database, then it will include bibliographic, chemical, 
# crystal, experimental, refinement or atomic coordinate data resulting 
# from the CCDC's data processing and validation procedures.
#
#######################################################################

data_NEGDAG
_chemical_formula_moiety         'C17 H30 N2 P1 1+,Br1 1-'
_chemical_name_systematic        
'2-((Dicyclohexylphosphino)methyl)-1-methyl-1H-imidazol-3-ium bromide'
_symmetry_cell_setting           monoclinic
_symmetry_space_group_name_H-M   'C 2/c'
_symmetry_Int_Tables_number      15
_space_group_name_Hall           '-C 2yn'
loop_
_symmetry_equiv_pos_site_id
_symmetry_equiv_pos_as_xyz
1 x,y,z
2 -x,y,1/2-z
3 1/2+x,1/2+y,z
4 1/2-x,1/2+y,1/2-z
5 -x,-y,-z
6 x,-y,1/2+z
7 1/2-x,1/2-y,-z
8 1/2+x,1/2-y,1/2+z
_cell_length_a                   27.4808(9)
_cell_length_b                   9.2518(2)
_cell_length_c                   17.4564(6)
_cell_angle_alpha                90
_cell_angle_beta                 118.496(2)
_cell_angle_gamma                90
_cell_volume                     3900.54
_exptl_crystal_colour            colorless
_exptl_crystal_description       prism
_cell_formula_units_Z            8
loop_
_atom_site_label
_atom_site_type_symbol
_atom_site_fract_x
_atom_site_fract_y
_atom_site_fract_z
C1 C 0.17456(9) 0.8901(2) 0.19224(14)
H1 H 0.1917 0.9227 0.2536
H2 H 0.1847 0.7873 0.1923
C2 C 0.19775(9) 0.9753(2) 0.14617(14)
C3 C 0.22258(10) 1.1550(3) 0.08880(15)
H3 H 0.2282 1.2499 0.0738
C4 C 0.23695(10) 1.0314(3) 0.06474(16)
H4 H 0.2543 1.0216 0.0292
C5 C 0.17648(11) 1.2231(2) 0.17880(16)
H5 H 0.1365 1.2089 0.1545
H6 H 0.1837 1.3216 0.1663
H7 H 0.1947 1.2082 0.2420
C6 C 0.07323(9) 0.7854(2) 0.04668(13)
H8 H 0.0967 0.6965 0.0625
C7 C 0.07785(11) 0.8656(3) -0.02600(15)
H9 H 0.1171 0.8899 -0.0063
H10 H 0.0568 0.9572 -0.0387
C8 C 0.05564(14) 0.7751(3) -0.10908(16)
H11 H 0.0581 0.8315 -0.1553
H12 H 0.0786 0.6873 -0.0978
C9 C -0.00384(13) 0.7318(3) -0.13996(16)
H13 H -0.0275 0.8192 -0.1570
H14 H -0.0167 0.6688 -0.1918
C10 C -0.00928(13) 0.6526(3) -0.06888(16)
H15 H 0.0114 0.5604 -0.0563
H16 H -0.0487 0.6294 -0.0894
C11 C 0.01277(10) 0.7420(2) 0.01470(15)
H17 H 0.0100 0.6848 0.0604
H18 H -0.0101 0.8300 0.0037
C12 C 0.08824(9) 0.7922(3) 0.22371(14)
H19 H 0.0474 0.7772 0.1983
C13 C 0.11383(11) 0.6420(2) 0.24327(15)
H20 H 0.1546 0.6503 0.2701
H21 H 0.1005 0.5872 0.1882
C14 C 0.09866(14) 0.5602(3) 0.30511(18)
H22 H 0.0582 0.5425 0.2757
H23 H 0.1176 0.4653 0.3196
C15 C 0.11517(13) 0.6447(3) 0.38838(17)
H24 H 0.1024 0.5924 0.4249
H25 H 0.1560 0.6515 0.4215
C16 C 0.09076(12) 0.7952(4) 0.36990(17)
H26 H 0.1046 0.8492 0.4254
H27 H 0.0500 0.7887 0.3434
C17 C 0.10605(12) 0.8769(3) 0.30855(16)
H28 H 0.1466 0.8928 0.3376
H29 H 0.0877 0.9726 0.2949
N1 N 0.19817(8) 1.11937(19) 0.13937(12)
N2 N 0.22159(8) 0.9217(2) 0.10183(12)
P1 P 0.09764(2) 0.90380(6) 0.14367(4)
H30 H 0.2258(11) 0.836(3) 0.0963(16)
Br1 Br 0.221030(11) 0.57097(2) 0.100491(15)
loop_
_geom_bond_atom_site_label_1
_geom_bond_atom_site_label_2
_geom_bond_site_symmetry_1
_geom_bond_site_symmetry_2
C1 H1 1_555 1_555
H2 C1 1_555 1_555
C2 C1 1_555 1_555
C3 H3 1_555 1_555
C4 C3 1_555 1_555
H4 C4 1_555 1_555
C5 H5 1_555 1_555
H6 C5 1_555 1_555
H7 C5 1_555 1_555
C6 H8 1_555 1_555
C7 C6 1_555 1_555
H9 C7 1_555 1_555
H10 C7 1_555 1_555
C8 C7 1_555 1_555
H11 C8 1_555 1_555
H12 C8 1_555 1_555
C9 C8 1_555 1_555
H13 C9 1_555 1_555
H14 C9 1_555 1_555
C10 C9 1_555 1_555
H15 C10 1_555 1_555
H16 C10 1_555 1_555
C11 C6 1_555 1_555
H17 C11 1_555 1_555
H18 C11 1_555 1_555
C12 H19 1_555 1_555
C13 C12 1_555 1_555
H20 C13 1_555 1_555
H21 C13 1_555 1_555
C14 C13 1_555 1_555
H22 C14 1_555 1_555
H23 C14 1_555 1_555
C15 C14 1_555 1_555
H24 C15 1_555 1_555
H25 C15 1_555 1_555
C16 C15 1_555 1_555
H26 C16 1_555 1_555
H27 C16 1_555 1_555
C17 C12 1_555 1_555
H28 C17 1_555 1_555
H29 C17 1_555 1_555
N1 C2 1_555 1_555
N2 C2 1_555 1_555
P1 C1 1_555 1_555
H30 N2 1_555 1_555
C3 N1 1_555 1_555
C4 N2 1_555 1_555
C5 N1 1_555 1_555
C6 P1 1_555 1_555
C10 C11 1_555 1_555
C12 P1 1_555 1_555
C16 C17 1_555 1_555

#END
