
#######################################################################
#
#                 Cambridge Crystallographic Data Centre
#                                CCDC 
#
#######################################################################
#
# If this CIF has been generated from an entry in the Cambridge 
# Structural Database, then it will include bibliographic, chemical, 
# crystal, experimental, refinement or atomic coordinate data resulting 
# from the CCDC's data processing and validation procedures.
#
#######################################################################

data_NEGHEP
_chemical_formula_moiety         'C38 H27 N5,3(C1 H1 Cl3)'
_chemical_name_systematic        
'2^4^-(5-(anthracen-9-yl)-3-phenyl-4,5-dihydro-1H-pyrazol-1-yl)-1^2^,2^2^:2^6^,3^2^-terpyridine chloroform solvate'
_symmetry_cell_setting           monoclinic
_symmetry_space_group_name_H-M   'P 21/c'
_symmetry_Int_Tables_number      14
_space_group_name_Hall           '-P 2ybc'
loop_
_symmetry_equiv_pos_site_id
_symmetry_equiv_pos_as_xyz
1 x,y,z
2 -x,1/2+y,1/2-z
3 -x,-y,-z
4 x,1/2-y,1/2+z
_cell_length_a                   14.9087(13)
_cell_length_b                   9.7891(8)
_cell_length_c                   27.404(2)
_cell_angle_alpha                90
_cell_angle_beta                 96.628(5)
_cell_angle_gamma                90
_cell_volume                     3972.69
_exptl_crystal_colour            colorless
_exptl_crystal_description       block
_cell_formula_units_Z            4
loop_
_atom_site_label
_atom_site_type_symbol
_atom_site_fract_x
_atom_site_fract_y
_atom_site_fract_z
N1 N 0.2462(3) 0.7711(5) 0.27806(18)
N2 N 0.2367(3) 0.6654(4) 0.15536(17)
N3 N 0.2090(4) 0.7298(5) 0.02719(19)
N4 N 0.4449(3) 0.9469(5) 0.14939(16)
N5 N 0.4523(3) 1.0151(4) 0.10589(16)
C1 C 0.2136(4) 0.7337(7) 0.3198(2)
C2 C 0.1810(4) 0.6037(7) 0.3280(2)
C3 C 0.1842(4) 0.5073(6) 0.2914(2)
C4 C 0.2150(3) 0.5430(5) 0.2481(2)
C5 C 0.2459(3) 0.6769(5) 0.24314(19)
C6 C 0.2794(3) 0.7208(5) 0.1964(2)
C7 C 0.3496(3) 0.8164(5) 0.1971(2)
C8 C 0.3764(3) 0.8565(5) 0.1520(2)
C9 C 0.3287(3) 0.8044(5) 0.1087(2)
C10 C 0.2608(3) 0.7095(5) 0.1122(2)
C11 C 0.2097(3) 0.6534(5) 0.0672(2)
C12 C 0.1675(3) 0.5269(5) 0.0669(2)
C13 C 0.1222(4) 0.4779(6) 0.0235(2)
C14 C 0.1199(4) 0.5575(7) -0.0185(2)
C15 C 0.1633(4) 0.6823(7) -0.0148(2)
C16 C 0.5049(3) 1.0046(5) 0.19142(19)
C17 C 0.5548(3) 1.1173(5) 0.16635(19)
C18 C 0.5127(3) 1.1099(5) 0.11380(19)
C19 C 0.5363(3) 1.1982(5) 0.07437(19)
C20 C 0.4984(4) 1.1756(6) 0.0255(2)
C21 C 0.5213(4) 1.2598(6) -0.0115(2)
C22 C 0.5816(4) 1.3662(6) -0.0011(2)
C23 C 0.6181(4) 1.3902(6) 0.0469(2)
C24 C 0.5953(4) 1.3062(5) 0.0849(2)
C25 C 0.6223(3) 0.8087(5) 0.14261(18)
C26 C 0.6758(4) 0.7234(6) 0.1205(2)
C27 C 0.7292(4) 0.6214(5) 0.1487(2)
C28 C 0.7280(3) 0.6152(5) 0.1972(2)
C29 C 0.6757(3) 0.7088(5) 0.22241(19)
C30 C 0.6803(3) 0.7082(5) 0.2733(2)
C31 C 0.6352(3) 0.8040(5) 0.29872(19)
C32 C 0.6468(3) 0.8070(5) 0.3507(2)
C33 C 0.6037(4) 0.9014(6) 0.3759(2)
C34 C 0.5443(4) 0.9964(6) 0.3499(2)
C35 C 0.5319(3) 0.9972(5) 0.3002(2)
C36 C 0.5755(3) 0.9011(5) 0.27158(18)
C37 C 0.5675(3) 0.8997(5) 0.21966(18)
C38 C 0.6188(3) 0.8073(5) 0.19494(18)
H1 H 0.2138 0.7970 0.3447
H2 H 0.1580 0.5842 0.3574
H3 H 0.1658 0.4187 0.2966
H4 H 0.2154 0.4799 0.2227
H5 H 0.3764 0.8514 0.2265
H6 H 0.3426 0.8329 0.0781
H7 H 0.1688 0.4769 0.0956
H8 H 0.0929 0.3933 0.0230
H9 H 0.0916 0.5259 -0.0485
H10 H 0.1590 0.7381 -0.0424
H11 H 0.4674 1.0473 0.2145
H12 H 0.5442 1.2051 0.1805
H13 H 0.6191 1.1005 0.1690
H14 H 0.4578 1.1049 0.0186
H15 H 0.4969 1.2432 -0.0434
H16 H 0.5975 1.4209 -0.0263
H17 H 0.6586 1.4614 0.0535
H18 H 0.6173 1.3246 0.1171
H19 H 0.5863 0.8707 0.1238
H20 H 0.6768 0.7309 0.0866
H21 H 0.7648 0.5614 0.1331
H22 H 0.7621 0.5485 0.2150
H23 H 0.7151 0.6423 0.2910
H24 H 0.6851 0.7438 0.3678
H25 H 0.6132 0.9027 0.4099
H26 H 0.5135 1.0590 0.3671
H27 H 0.4936 1.0629 0.2842
C39 C 0.2232(4) 0.4582(6) 0.5028(2)
Cl1 Cl 0.28732(12) 0.51651(17) 0.45705(7)
Cl2 Cl 0.10731(11) 0.4557(2) 0.48219(7)
Cl3 Cl 0.26082(11) 0.29711(17) 0.52360(7)
H28 H 0.2328 0.5211 0.5308
C40 C -0.0243(4) 0.1617(6) 0.3396(2)
Cl4 Cl 0.03288(12) 0.22750(19) 0.39381(7)
Cl5 Cl -0.02298(11) 0.28362(16) 0.29189(6)
Cl6 Cl 0.02371(12) 0.00689(18) 0.32299(8)
H29 H -0.0877 0.1454 0.3449
C41 C 0.0585(4) 0.4162(6) 0.6388(2)
Cl7 Cl 0.15772(10) 0.50022(17) 0.62560(6)
Cl8 Cl 0.07172(13) 0.3508(2) 0.69792(6)
Cl9 Cl 0.02737(13) 0.28857(19) 0.59552(7)
H30 H 0.0097 0.4829 0.6368
loop_
_geom_bond_atom_site_label_1
_geom_bond_atom_site_label_2
_geom_bond_site_symmetry_1
_geom_bond_site_symmetry_2
N1 C1 1_555 1_555
N2 C6 1_555 1_555
N3 C11 1_555 1_555
N4 N5 1_555 1_555
N5 C18 1_555 1_555
C1 C2 1_555 1_555
C2 C3 1_555 1_555
C3 C4 1_555 1_555
C4 C5 1_555 1_555
C5 N1 1_555 1_555
C6 C5 1_555 1_555
C7 C6 1_555 1_555
C8 N4 1_555 1_555
C9 C8 1_555 1_555
C10 N2 1_555 1_555
C11 C10 1_555 1_555
C12 C11 1_555 1_555
C13 C12 1_555 1_555
C14 C13 1_555 1_555
C15 N3 1_555 1_555
C16 N4 1_555 1_555
C17 C16 1_555 1_555
C18 C17 1_555 1_555
C19 C18 1_555 1_555
C20 C19 1_555 1_555
C21 C20 1_555 1_555
C22 C21 1_555 1_555
C23 C22 1_555 1_555
C24 C19 1_555 1_555
C25 C26 1_555 1_555
C26 C27 1_555 1_555
C27 C28 1_555 1_555
C28 C29 1_555 1_555
C29 C30 1_555 1_555
C30 C31 1_555 1_555
C31 C32 1_555 1_555
C32 C33 1_555 1_555
C33 C34 1_555 1_555
C34 C35 1_555 1_555
C35 C36 1_555 1_555
C36 C31 1_555 1_555
C37 C16 1_555 1_555
C38 C25 1_555 1_555
H1 C1 1_555 1_555
H2 C2 1_555 1_555
H3 C3 1_555 1_555
H4 C4 1_555 1_555
H5 C7 1_555 1_555
H6 C9 1_555 1_555
H7 C12 1_555 1_555
H8 C13 1_555 1_555
H9 C14 1_555 1_555
H10 C15 1_555 1_555
H11 C16 1_555 1_555
H12 C17 1_555 1_555
H13 C17 1_555 1_555
H14 C20 1_555 1_555
H15 C21 1_555 1_555
H16 C22 1_555 1_555
H17 C23 1_555 1_555
H18 C24 1_555 1_555
H19 C25 1_555 1_555
H20 C26 1_555 1_555
H21 C27 1_555 1_555
H22 C28 1_555 1_555
H23 C30 1_555 1_555
H24 C32 1_555 1_555
H25 C33 1_555 1_555
H26 C34 1_555 1_555
H27 C35 1_555 1_555
C39 Cl1 1_555 1_555
Cl2 C39 1_555 1_555
Cl3 C39 1_555 1_555
H28 C39 1_555 1_555
C40 Cl4 1_555 1_555
Cl5 C40 1_555 1_555
Cl6 C40 1_555 1_555
H29 C40 1_555 1_555
C41 Cl7 1_555 1_555
Cl8 C41 1_555 1_555
Cl9 C41 1_555 1_555
H30 C41 1_555 1_555
C7 C8 1_555 1_555
C9 C10 1_555 1_555
C14 C15 1_555 1_555
C23 C24 1_555 1_555
C29 C38 1_555 1_555
C36 C37 1_555 1_555
C37 C38 1_555 1_555

#END
