
#######################################################################
#
#                 Cambridge Crystallographic Data Centre
#                                CCDC 
#
#######################################################################
#
# If this CIF has been generated from an entry in the Cambridge 
# Structural Database, then it will include bibliographic, chemical, 
# crystal, experimental, refinement or atomic coordinate data resulting 
# from the CCDC's data processing and validation procedures.
#
#######################################################################

data_NEGJUF
_chemical_formula_moiety         'C25 H24 Cl1 N3 O11'
_chemical_name_systematic        
"5'-Chloro-2',7'-dimethyl-6',8'-dioxo-7'-(propanoyloxy)-4,4',5,6',7',8'-hexahydro-2'H,3H-spiro(furan-2,3'-isoquinolin)-4'-yl 3,5-dintrobenzoate"
_symmetry_cell_setting           triclinic
_symmetry_space_group_name_H-M   'P -1'
_symmetry_Int_Tables_number      2
_space_group_name_Hall           '-P 1'
loop_
_symmetry_equiv_pos_site_id
_symmetry_equiv_pos_as_xyz
1 x,y,z
2 -x,-y,-z
_cell_length_a                   8.9536(10)
_cell_length_b                   10.7585(12)
_cell_length_c                   15.5711(18)
_cell_angle_alpha                95.788(2)
_cell_angle_beta                 99.961(2)
_cell_angle_gamma                111.585(2)
_cell_volume                     1351.38
_exptl_crystal_colour            green
_cell_formula_units_Z            2
loop_
_atom_site_label
_atom_site_type_symbol
_atom_site_fract_x
_atom_site_fract_y
_atom_site_fract_z
Cl1 Cl 0.79471(10) -0.13716(8) 0.40464(5)
O1 O 0.8614(3) -0.2799(2) 0.25370(15)
O2 O 0.5959(3) -0.1330(3) 0.02843(14)
O3 O 0.4680(2) 0.17583(18) 0.35325(12)
O4 O 0.9511(4) -0.0845(5) 0.1215(2)
O5 O 0.7584(4) -0.2911(3) 0.07540(16)
O6 O 0.7567(3) 0.1679(2) 0.49765(12)
O7 O 0.7535(2) 0.14559(17) 0.35133(11)
O8 O 1.2729(4) 0.5497(3) 0.69510(19)
O9 O 1.4806(3) 0.5413(3) 0.6430(2)
O10 O 1.3576(4) 0.6525(3) 0.3343(2)
O11 O 1.1766(5) 0.4790(5) 0.2436(2)
N1 N 0.4574(3) 0.0916(2) 0.20699(14)
N2 N 1.3350(4) 0.5256(3) 0.6362(2)
N3 N 1.2440(4) 0.5421(4) 0.3172(3)
C1 C 0.7148(3) -0.1483(3) 0.29252(17)
C2 C 0.7622(4) -0.2306(3) 0.23141(19)
C3 C 0.6674(4) -0.2594(3) 0.1337(2)
C4 C 0.6134(4) -0.1463(3) 0.10577(18)
C5 C 0.5762(3) -0.0691(3) 0.17475(17)
C6 C 0.6289(3) -0.0741(3) 0.26607(16)
C7 C 0.6026(3) 0.0244(3) 0.33169(16)
C8 C 0.4545(3) 0.0596(3) 0.29712(16)
C9 C 0.5040(4) 0.0203(3) 0.15168(18)
C10 C 0.2896(3) -0.0552(3) 0.2993(2)
H1 H 0.2275 -0.1019 0.2399
H2 H 0.3084 -0.1207 0.3335
C11 C 0.2002(4) 0.0185(4) 0.3432(3)
H3 H 0.1291 0.0424 0.2995
H4 H 0.1345 -0.0366 0.3795
C12 C 0.3366(4) 0.1419(4) 0.3986(2)
H5 H 0.3005 0.2161 0.4060
H6 H 0.3726 0.1238 0.4567
C13 C 0.5127(5) -0.3890(4) 0.1226(3)
H7 H 0.4526 -0.4139 0.0619
H8 H 0.4443 -0.3733 0.1600
H9 H 0.5441 -0.4612 0.1390
C14 C 0.8989(8) -0.1946(9) 0.0729(3)
C15 C 0.9457(12) -0.2688(11) -0.0082(6)
C16 C 1.0986(15) -0.2556(13) 0.0115(8)
C17 C 1.1625(10) -0.2877(8) -0.0742(6)
C18 C 0.8180(3) 0.2037(3) 0.43716(17)
C19 C 0.9810(3) 0.3191(3) 0.44811(18)
C20 C 1.0371(3) 0.3722(3) 0.3765(2)
H10 H 0.9739 0.3364 0.3190
C21 C 1.1885(4) 0.4792(3) 0.3926(2)
C22 C 1.2888(4) 0.5311(3) 0.4763(3)
H11 H 1.3924 0.6010 0.4858
C23 C 1.2298(4) 0.4753(3) 0.5448(2)
C24 C 1.0761(3) 0.3728(3) 0.5343(2)
H12 H 1.0373 0.3408 0.5828
C25 C 0.3727(4) 0.1790(3) 0.17596(19)
H13 H 0.3920 0.1976 0.1189
H14 H 0.4146 0.2629 0.2174
H15 H 0.2564 0.1334 0.1714
H16 H 0.582(3) -0.013(2) 0.3888(15)
H17 H 0.479(3) 0.030(3) 0.096(2)
C26? C 1.0296(16) -0.1699(14) 0.0156(9)
loop_
_geom_bond_atom_site_label_1
_geom_bond_atom_site_label_2
_geom_bond_site_symmetry_1
_geom_bond_site_symmetry_2
Cl1 C1 1_555 1_555
O1 C2 1_555 1_555
O2 C4 1_555 1_555
O3 C8 1_555 1_555
O4 C14 1_555 1_555
O5 C3 1_555 1_555
O6 C18 1_555 1_555
O7 C7 1_555 1_555
O8 N2 1_555 1_555
O9 N2 1_555 1_555
O10 N3 1_555 1_555
O11 N3 1_555 1_555
N1 C8 1_555 1_555
N2 C23 1_555 1_555
N3 C21 1_555 1_555
C1 C2 1_555 1_555
C2 C3 1_555 1_555
C3 C4 1_555 1_555
C4 C5 1_555 1_555
C5 C6 1_555 1_555
C6 C1 1_555 1_555
C7 C6 1_555 1_555
C8 C7 1_555 1_555
C9 N1 1_555 1_555
C10 C8 1_555 1_555
H1 C10 1_555 1_555
H2 C10 1_555 1_555
C11 C10 1_555 1_555
H3 C11 1_555 1_555
H4 C11 1_555 1_555
C12 O3 1_555 1_555
H5 C12 1_555 1_555
H6 C12 1_555 1_555
C13 C3 1_555 1_555
H7 C13 1_555 1_555
H8 C13 1_555 1_555
H9 C13 1_555 1_555
C14 O5 1_555 1_555
C15 C14 1_555 1_555
C16 C15 1_555 1_555
C17 C16 1_555 1_555
C18 O7 1_555 1_555
C19 C18 1_555 1_555
C20 C19 1_555 1_555
H10 C20 1_555 1_555
C21 C20 1_555 1_555
C22 C21 1_555 1_555
H11 C22 1_555 1_555
C23 C22 1_555 1_555
C24 C19 1_555 1_555
H12 C24 1_555 1_555
C25 N1 1_555 1_555
H13 C25 1_555 1_555
H14 C25 1_555 1_555
H15 C25 1_555 1_555
H16 C7 1_555 1_555
H17 C9 1_555 1_555
C5 C9 1_555 1_555
C11 C12 1_555 1_555
C23 C24 1_555 1_555

#END
