
#######################################################################
#
#                 Cambridge Crystallographic Data Centre
#                                CCDC 
#
#######################################################################
#
# If this CIF has been generated from an entry in the Cambridge 
# Structural Database, then it will include bibliographic, chemical, 
# crystal, experimental, refinement or atomic coordinate data resulting 
# from the CCDC's data processing and validation procedures.
#
#######################################################################

data_NEGJUH
_chemical_formula_moiety         'C66 H44,0.5(C1 H4 O1)'
_chemical_name_systematic        
"9,21-bis(2,4,6-trimethylphenyl)dibenzo[a,c]diindeno[7,1,2-fgh:7',1',2'-mno]phenanthro[9,10-k]tetraphene methanol solvate"
_symmetry_cell_setting           triclinic
_symmetry_space_group_name_H-M   'P -1'
_symmetry_Int_Tables_number      2
_space_group_name_Hall           '-P 1'
loop_
_symmetry_equiv_pos_site_id
_symmetry_equiv_pos_as_xyz
1 x,y,z
2 -x,-y,-z
_cell_length_a                   11.3283(3)
_cell_length_b                   12.3518(3)
_cell_length_c                   17.8043(6)
_cell_angle_alpha                94.985(3)
_cell_angle_beta                 91.707(2)
_cell_angle_gamma                116.401(3)
_cell_volume                     2216.45
_exptl_crystal_colour            red
_exptl_crystal_description       plate
_cell_formula_units_Z            2
loop_
_atom_site_label
_atom_site_type_symbol
_atom_site_fract_x
_atom_site_fract_y
_atom_site_fract_z
C1 C 0.66788(11) 0.47846(10) 0.60579(6)
C2 C 0.68196(11) 0.37111(10) 0.60565(6)
C3 C 0.69150(11) 0.30950(10) 0.53907(6)
C4 C 0.67320(11) 0.35691(10) 0.46936(6)
C5 C 0.63379(11) 0.28315(10) 0.39583(6)
C6 C 0.56280(11) 0.15558(10) 0.39130(6)
H1 H 0.5500 0.1178 0.4354
C7 C 0.51200(12) 0.08567(11) 0.32274(7)
H2 H 0.4652 0.0016 0.3211
C8 C 0.53034(13) 0.14038(11) 0.25570(7)
H3 H 0.4978 0.0928 0.2094
C9 C 0.59694(12) 0.26516(11) 0.25870(6)
H4 H 0.6084 0.3015 0.2141
C10 C 0.64803(11) 0.33871(10) 0.32824(6)
C11 C 0.71082(11) 0.47075(10) 0.33287(6)
C12 C 0.76100(12) 0.53262(11) 0.26951(7)
H5 H 0.7535 0.4881 0.2232
C13 C 0.82096(12) 0.65767(12) 0.27466(7)
H6 H 0.8521 0.6971 0.2320
C14 C 0.83473(13) 0.72503(11) 0.34446(7)
H7 H 0.8758 0.8096 0.3484
C15 C 0.78748(12) 0.66637(11) 0.40755(7)
H8 H 0.7990 0.7123 0.4538
C16 C 0.72201(11) 0.53800(10) 0.40338(6)
C17 C 0.68377(11) 0.47581(10) 0.47149(6)
C18 C 0.66906(11) 0.53550(10) 0.54176(6)
C19 C 0.65106(11) 0.64258(10) 0.55520(7)
H9 H 0.6397 0.6805 0.5146
C20 C 0.65054(12) 0.69004(11) 0.62836(7)
H10 H 0.6377 0.7594 0.6356
C21 C 0.66873(12) 0.63774(11) 0.69278(7)
H11 H 0.6770 0.6761 0.7413
C22 C 0.67380(11) 0.52822(11) 0.68114(6)
C23 C 0.69514(11) 0.44768(11) 0.73073(6)
C24 C 0.69489(11) 0.35070(11) 0.68501(6)
C25 C 0.71984(11) 0.24741(10) 0.69685(6)
C26 C 0.73064(12) 0.19693(10) 0.76662(6)
C27 C 0.65031(13) 0.19586(11) 0.82993(7)
C28 C 0.53228(14) 0.20478(13) 0.81808(7)
H12 H 0.5122 0.2243 0.7717
C29 C 0.44505(16) 0.18515(16) 0.87394(9)
H13 H 0.3667 0.1907 0.8649
C30 C 0.47525(18) 0.15692(18) 0.94425(9)
H14 H 0.4173 0.1446 0.9822
C31 C 0.58972(18) 0.14740(16) 0.95733(8)
H15 H 0.6089 0.1290 1.0043
C32 C 0.67895(15) 0.16505(12) 0.90077(7)
C33 C 0.79647(15) 0.14720(12) 0.91158(7)
C34 C 0.85288(18) 0.15079(14) 0.98412(8)
H16 H 0.8138 0.1648 1.0266
C35 C 0.96403(19) 0.13401(15) 0.99319(8)
H17 H 0.9992 0.1360 1.0414
C36 C 1.02409(17) 0.11397(14) 0.92977(8)
H18 H 1.0999 0.1032 0.9357
C37 C 0.97103(15) 0.11011(12) 0.85800(7)
H19 H 1.0123 0.0973 0.8162
C38 C 0.85602(14) 0.12522(11) 0.84695(7)
C39 C 0.80674(13) 0.13279(10) 0.77146(7)
C40 C 0.83659(12) 0.08154(10) 0.70243(7)
C41 C 0.88575(12) -0.00617(11) 0.69174(7)
H20 H 0.9058 -0.0373 0.7333
C42 C 0.90389(12) -0.04538(11) 0.61970(7)
H21 H 0.9362 -0.1027 0.6143
C43 C 0.87523(12) -0.00192(10) 0.55377(7)
H22 H 0.8915 -0.0275 0.5062
C44 C 0.82269(11) 0.07921(10) 0.56222(6)
C45 C 0.78381(11) 0.14636(10) 0.50970(6)
C46 C 0.73721(11) 0.21781(10) 0.55186(6)
C47 C 0.74916(11) 0.19797(10) 0.63181(6)
C48 C 0.80183(11) 0.11500(10) 0.63566(6)
C49 C 0.72849(12) 0.47943(11) 0.81335(6)
C50 C 0.63668(13) 0.49032(13) 0.86111(7)
C51 C 0.66985(14) 0.51825(14) 0.93874(7)
H23 H 0.6081 0.5237 0.9701
C52 C 0.79222(14) 0.53831(12) 0.97086(7)
C53 C 0.88359(13) 0.53229(12) 0.92256(7)
H24 H 0.9672 0.5486 0.9429
C54 C 0.85433(12) 0.50267(10) 0.84463(6)
C55 C 0.50158(14) 0.46918(16) 0.83046(8)
H25 H 0.5055 0.5445 0.8175
H26 H 0.4397 0.4386 0.8682
H27 H 0.4737 0.4110 0.7862
C56 C 0.82346(16) 0.56242(15) 1.05543(7)
H28 H 0.7940 0.4865 1.0765
H29 H 0.7791 0.6068 1.0771
H30 H 0.9171 0.6093 1.0665
C57 C 0.96023(12) 0.49756(11) 0.79728(7)
H31 H 0.9626 0.4213 0.8001
H32 H 1.0444 0.5630 0.8159
H33 H 0.9411 0.5052 0.7457
C58 C 0.80997(11) 0.13792(10) 0.42902(6)
C59 C 0.74811(12) 0.02495(11) 0.38357(7)
C60 C 0.77630(13) 0.01884(12) 0.30810(7)
H34 H 0.7355 -0.0556 0.2782
C61 C 0.86358(14) 0.12057(13) 0.27620(7)
C62 C 0.92742(13) 0.22982(12) 0.32252(7)
H35 H 0.9888 0.2977 0.3023
C63 C 0.90256(11) 0.24112(11) 0.39826(6)
C64 C 0.64244(13) -0.08735(11) 0.41165(7)
H36 H 0.6759 -0.1030 0.4575
H37 H 0.6180 -0.1557 0.3740
H38 H 0.5664 -0.0746 0.4213
C65 C 0.88615(19) 0.11436(17) 0.19326(8)
H39 H 0.8343 0.1447 0.1666
H40 H 0.8604 0.0315 0.1736
H41 H 0.9781 0.1629 0.1867
C66 C 0.97420(12) 0.36341(11) 0.44428(7)
H42 H 0.9194 0.4045 0.4448
H43 H 1.0550 0.4112 0.4223
H44 H 0.9938 0.3526 0.4951
O1 O 0.8088(2) 0.7853(2) 0.86239(13)
H45 H 0.8023 0.7191 0.8717
C67 C 0.7164(3) 0.8097(3) 0.89990(19)
H46 H 0.6382 0.7842 0.8667
H47 H 0.7526 0.8955 0.9153
H48 H 0.6945 0.7664 0.9437
H49? H 0.5643 -0.1192 0.3777
H50? H 0.6222 -0.0665 0.4612
H51? H 0.6738 -0.1476 0.4139
H52? H 0.9476 0.0813 0.1847
H53? H 0.9214 0.1946 0.1777
H54? H 0.8038 0.0632 0.1646
loop_
_geom_bond_atom_site_label_1
_geom_bond_atom_site_label_2
_geom_bond_site_symmetry_1
_geom_bond_site_symmetry_2
C1 C2 1_555 1_555
C2 C3 1_555 1_555
C3 C4 1_555 1_555
C4 C5 1_555 1_555
C5 C6 1_555 1_555
C6 H1 1_555 1_555
C7 C6 1_555 1_555
H2 C7 1_555 1_555
C8 C7 1_555 1_555
H3 C8 1_555 1_555
C9 C8 1_555 1_555
H4 C9 1_555 1_555
C10 C5 1_555 1_555
C11 C10 1_555 1_555
C12 C11 1_555 1_555
H5 C12 1_555 1_555
C13 C12 1_555 1_555
H6 C13 1_555 1_555
C14 C13 1_555 1_555
H7 C14 1_555 1_555
C15 C14 1_555 1_555
H8 C15 1_555 1_555
C16 C11 1_555 1_555
C17 C4 1_555 1_555
C18 C1 1_555 1_555
C19 C18 1_555 1_555
H9 C19 1_555 1_555
C20 C19 1_555 1_555
H10 C20 1_555 1_555
C21 C20 1_555 1_555
H11 C21 1_555 1_555
C22 C1 1_555 1_555
C23 C22 1_555 1_555
C24 C2 1_555 1_555
C25 C24 1_555 1_555
C26 C25 1_555 1_555
C27 C26 1_555 1_555
C28 C27 1_555 1_555
H12 C28 1_555 1_555
C29 C28 1_555 1_555
H13 C29 1_555 1_555
C30 C29 1_555 1_555
H14 C30 1_555 1_555
C31 C30 1_555 1_555
H15 C31 1_555 1_555
C32 C27 1_555 1_555
C33 C32 1_555 1_555
C34 C33 1_555 1_555
H16 C34 1_555 1_555
C35 C34 1_555 1_555
H17 C35 1_555 1_555
C36 C35 1_555 1_555
H18 C36 1_555 1_555
C37 C36 1_555 1_555
H19 C37 1_555 1_555
C38 C33 1_555 1_555
C39 C26 1_555 1_555
C40 C39 1_555 1_555
C41 C40 1_555 1_555
H20 C41 1_555 1_555
C42 C41 1_555 1_555
H21 C42 1_555 1_555
C43 C42 1_555 1_555
H22 C43 1_555 1_555
C44 C43 1_555 1_555
C45 C44 1_555 1_555
C46 C3 1_555 1_555
C47 C25 1_555 1_555
C48 C40 1_555 1_555
C49 C23 1_555 1_555
C50 C49 1_555 1_555
C51 C50 1_555 1_555
H23 C51 1_555 1_555
C52 C51 1_555 1_555
C53 C52 1_555 1_555
H24 C53 1_555 1_555
C54 C49 1_555 1_555
C55 C50 1_555 1_555
H25 C55 1_555 1_555
H26 C55 1_555 1_555
H27 C55 1_555 1_555
C56 C52 1_555 1_555
H28 C56 1_555 1_555
H29 C56 1_555 1_555
H30 C56 1_555 1_555
C57 C54 1_555 1_555
H31 C57 1_555 1_555
H32 C57 1_555 1_555
H33 C57 1_555 1_555
C58 C45 1_555 1_555
C59 C58 1_555 1_555
C60 C59 1_555 1_555
H34 C60 1_555 1_555
C61 C60 1_555 1_555
C62 C61 1_555 1_555
H35 C62 1_555 1_555
C63 C58 1_555 1_555
C64 C59 1_555 1_555
H36 C64 1_555 1_555
H37 C64 1_555 1_555
H38 C64 1_555 1_555
C65 C61 1_555 1_555
H39 C65 1_555 1_555
H40 C65 1_555 1_555
H41 C65 1_555 1_555
C66 C63 1_555 1_555
H42 C66 1_555 1_555
H43 C66 1_555 1_555
H44 C66 1_555 1_555
O1 H45 1_555 1_555
C67 O1 1_555 1_555
H46 C67 1_555 1_555
H47 C67 1_555 1_555
H48 C67 1_555 1_555
C9 C10 1_555 1_555
C15 C16 1_555 1_555
C16 C17 1_555 1_555
C17 C18 1_555 1_555
C21 C22 1_555 1_555
C23 C24 1_555 1_555
C31 C32 1_555 1_555
C37 C38 1_555 1_555
C38 C39 1_555 1_555
C44 C48 1_555 1_555
C45 C46 1_555 1_555
C46 C47 1_555 1_555
C47 C48 1_555 1_555
C53 C54 1_555 1_555
C62 C63 1_555 1_555

#END
