
#######################################################################
#
#                 Cambridge Crystallographic Data Centre
#                                CCDC 
#
#######################################################################
#
# If this CIF has been generated from an entry in the Cambridge 
# Structural Database, then it will include bibliographic, chemical, 
# crystal, experimental, refinement or atomic coordinate data resulting 
# from the CCDC's data processing and validation procedures.
#
#######################################################################

data_NEGKER
_chemical_formula_moiety         'C29 H22 Br1 N1 O5'
_chemical_name_systematic        
't-Butyl 5-bromo-3-(1,4-dioxo-1,4-dihydronaphthalen-2-yl)-2-oxo-3-phenylindoline-1-carboxylate'
_symmetry_cell_setting           monoclinic
_symmetry_space_group_name_H-M   'C 2/c'
_symmetry_Int_Tables_number      15
_space_group_name_Hall           '-C 2yn'
loop_
_symmetry_equiv_pos_site_id
_symmetry_equiv_pos_as_xyz
1 x,y,z
2 -x,y,1/2-z
3 1/2+x,1/2+y,z
4 1/2-x,1/2+y,1/2-z
5 -x,-y,-z
6 x,-y,1/2+z
7 1/2-x,1/2-y,-z
8 1/2+x,1/2-y,1/2+z
_cell_length_a                   35.197(2)
_cell_length_b                   10.9631(8)
_cell_length_c                   12.8478(9)
_cell_angle_alpha                90
_cell_angle_beta                 92.737(2)
_cell_angle_gamma                90
_cell_volume                     4951.9
_exptl_crystal_colour            yellow
_exptl_crystal_description       plate
_cell_formula_units_Z            8
loop_
_atom_site_label
_atom_site_type_symbol
_atom_site_fract_x
_atom_site_fract_y
_atom_site_fract_z
Br1 Br 0.051325(12) 0.23093(3) 0.88105(3)
O1 O 0.14176(6) 0.2379(2) 0.35383(17)
O2 O 0.20168(6) 0.1072(2) 0.42383(17)
O3 O 0.19155(7) -0.0030(2) 0.5673(2)
O4 O 0.07081(6) 0.10539(18) 0.43658(16)
O5 O -0.01042(6) 0.5101(2) 0.37301(19)
N1 N 0.15288(6) 0.1566(2) 0.52081(17)
C1 C 0.13541(8) 0.2347(3) 0.4439(2)
C2 C 0.10758(7) 0.3185(2) 0.50164(19)
C3 C 0.10583(8) 0.2547(2) 0.6065(2)
C4 C 0.13291(7) 0.1622(3) 0.6150(2)
C5 C 0.13639(8) 0.0900(3) 0.7031(2)
H1 H 0.1545 0.0271 0.7087
C6 C 0.11234(8) 0.1133(3) 0.7829(2)
H2 H 0.1146 0.0673 0.8446
C7 C 0.08479(8) 0.2043(3) 0.7726(2)
C8 C 0.08104(8) 0.2755(3) 0.6847(2)
H3 H 0.0623 0.3363 0.6780
C9 C 0.18373(8) 0.0768(3) 0.5070(2)
C10 C 0.23852(8) 0.0464(3) 0.4007(3)
C11 C 0.26715(10) 0.0692(4) 0.4892(3)
H4 H 0.2689 0.1561 0.5029
H5 H 0.2918 0.0388 0.4707
H6 H 0.2592 0.0274 0.5511
C12 C 0.23242(11) -0.0868(4) 0.3802(4)
H7 H 0.2274 -0.1279 0.4450
H8 H 0.2550 -0.1213 0.3514
H9 H 0.2109 -0.0975 0.3310
C13 C 0.24912(13) 0.1127(6) 0.3043(4)
H10 H 0.2290 0.1030 0.2506
H11 H 0.2726 0.0792 0.2800
H12 H 0.2526 0.1986 0.3200
C14 C 0.06790(7) 0.3189(3) 0.44803(19)
C15 C 0.05115(8) 0.1963(3) 0.4261(2)
C16 C 0.01016(8) 0.1892(3) 0.3941(2)
C17 C -0.00728(9) 0.0761(3) 0.3818(2)
H13 H 0.0071 0.0045 0.3922
C18 C -0.04545(9) 0.0683(3) 0.3546(2)
H14 H -0.0573 -0.0084 0.3485
C19 C -0.06647(9) 0.1732(3) 0.3363(2)
H15 H -0.0925 0.1673 0.3167
C20 C -0.04971(8) 0.2863(3) 0.3462(2)
H16 H -0.0642 0.3571 0.3330
C21 C -0.01124(8) 0.2955(3) 0.3761(2)
C22 C 0.00703(8) 0.4155(3) 0.3895(2)
C23 C 0.04743(8) 0.4193(3) 0.4285(2)
H17 H 0.0590 0.4957 0.4399
C24 C 0.12543(7) 0.4461(3) 0.5090(2)
C25 C 0.13320(8) 0.5031(3) 0.6034(2)
H18 H 0.1279 0.4630 0.6657
C26 C 0.14891(9) 0.6200(3) 0.6069(3)
H19 H 0.1536 0.6588 0.6715
C27 C 0.15751(9) 0.6786(3) 0.5169(3)
H20 H 0.1681 0.7573 0.5196
C28 C 0.15067(9) 0.6218(3) 0.4228(3)
H21 H 0.1569 0.6613 0.3610
C29 C 0.13454(9) 0.5064(3) 0.4184(3)
H22 H 0.1297 0.4686 0.3534
loop_
_geom_bond_atom_site_label_1
_geom_bond_atom_site_label_2
_geom_bond_site_symmetry_1
_geom_bond_site_symmetry_2
Br1 C7 1_555 1_555
O1 C1 1_555 1_555
O2 C9 1_555 1_555
O3 C9 1_555 1_555
O4 C15 1_555 1_555
O5 C22 1_555 1_555
N1 C1 1_555 1_555
C1 C2 1_555 1_555
C2 C3 1_555 1_555
C3 C4 1_555 1_555
C4 N1 1_555 1_555
C5 C4 1_555 1_555
H1 C5 1_555 1_555
C6 C5 1_555 1_555
H2 C6 1_555 1_555
C7 C6 1_555 1_555
C8 C3 1_555 1_555
H3 C8 1_555 1_555
C9 N1 1_555 1_555
C10 O2 1_555 1_555
C11 C10 1_555 1_555
H4 C11 1_555 1_555
H5 C11 1_555 1_555
H6 C11 1_555 1_555
C12 C10 1_555 1_555
H7 C12 1_555 1_555
H8 C12 1_555 1_555
H9 C12 1_555 1_555
C13 C10 1_555 1_555
H10 C13 1_555 1_555
H11 C13 1_555 1_555
H12 C13 1_555 1_555
C14 C2 1_555 1_555
C15 C14 1_555 1_555
C16 C15 1_555 1_555
C17 C16 1_555 1_555
H13 C17 1_555 1_555
C18 C17 1_555 1_555
H14 C18 1_555 1_555
C19 C18 1_555 1_555
H15 C19 1_555 1_555
C20 C19 1_555 1_555
H16 C20 1_555 1_555
C21 C16 1_555 1_555
C22 C21 1_555 1_555
C23 C14 1_555 1_555
H17 C23 1_555 1_555
C24 C2 1_555 1_555
C25 C24 1_555 1_555
H18 C25 1_555 1_555
C26 C25 1_555 1_555
H19 C26 1_555 1_555
C27 C26 1_555 1_555
H20 C27 1_555 1_555
C28 C27 1_555 1_555
H21 C28 1_555 1_555
C29 C24 1_555 1_555
H22 C29 1_555 1_555
C7 C8 1_555 1_555
C20 C21 1_555 1_555
C22 C23 1_555 1_555
C28 C29 1_555 1_555

#END
