
#######################################################################
#
#                 Cambridge Crystallographic Data Centre
#                                CCDC 
#
#######################################################################
#
# If this CIF has been generated from an entry in the Cambridge 
# Structural Database, then it will include bibliographic, chemical, 
# crystal, experimental, refinement or atomic coordinate data resulting 
# from the CCDC's data processing and validation procedures.
#
#######################################################################

data_NEGKIU
_chemical_formula_moiety         'C18 H22 Cl1 N1 O6,0.5(H2 O1)'
_chemical_name_systematic        
'10-Chloro-4a-hydroxy-5,8-dimethyl-7,9-dioxo-3,4,4a,5,7,8,9,10b-octahydro-2H-pyrano(3,2-c)isoquinolin-8-yl propanoate hemihydrate'
_symmetry_cell_setting           monoclinic
_symmetry_space_group_name_H-M   'C c'
_symmetry_Int_Tables_number      9
_space_group_name_Hall           'C -2yc'
loop_
_symmetry_equiv_pos_site_id
_symmetry_equiv_pos_as_xyz
1 x,y,z
2 x,-y,1/2+z
3 1/2+x,1/2+y,z
4 1/2+x,1/2-y,1/2+z
_cell_length_a                   19.747(2)
_cell_length_b                   22.966(2)
_cell_length_c                   10.3971(10)
_cell_angle_alpha                90
_cell_angle_beta                 119.130(3)
_cell_angle_gamma                90
_cell_volume                     4118.8
_exptl_crystal_colour            yellow
_cell_formula_units_Z            8
loop_
_atom_site_label
_atom_site_type_symbol
_atom_site_fract_x
_atom_site_fract_y
_atom_site_fract_z
Cl1 Cl 0.58367(9) 0.87189(8) 0.18041(17)
N2 N 0.3920(3) 0.8825(2) 0.4046(5)
O1 O 0.4785(3) 0.80499(17) 0.4382(5)
H1 H 0.4619 0.7864 0.4842
O2 O 0.4587(3) 0.8611(2) -0.1226(5)
O3 O 0.2489(2) 0.8900(2) -0.0416(4)
O4 O 0.3028(2) 0.86343(16) -0.2357(4)
O5 O 0.3347(3) 0.78317(19) -0.0957(5)
O6 O 0.5100(2) 0.95656(16) 0.3941(4)
C1 C 0.5617(4) 0.9726(3) 0.5440(8)
H3 H 0.5640 1.0147 0.5530
H4 H 0.6134 0.9584 0.5729
C2 C 0.5343(5) 0.9472(3) 0.6444(7)
H5 H 0.4852 0.9647 0.6228
H6 H 0.5717 0.9560 0.7459
C3 C 0.5244(4) 0.8810(3) 0.6242(6)
H7 H 0.5749 0.8628 0.6624
H8 H 0.5004 0.8662 0.6799
C4 C 0.4741(3) 0.8649(2) 0.4615(6)
C5 C 0.5069(3) 0.8962(2) 0.3728(6)
H9 H 0.5591 0.8815 0.4028
C6 C 0.4567(3) 0.8881(2) 0.2101(6)
C7 C 0.3752(3) 0.8909(2) 0.1608(6)
C8 C 0.3501(4) 0.8902(2) 0.2633(6)
H10 H 0.2973 0.8958 0.2275
C9 C 0.4844(3) 0.8811(2) 0.1164(6)
C10 C 0.4368(3) 0.8757(2) -0.0387(6)
C11 C 0.3524(3) 0.8957(2) -0.0993(6)
C12 C 0.3198(3) 0.8911(2) 0.0058(5)
C13 C 0.3445(4) 0.9591(2) -0.1461(7)
H11 H 0.3638 0.9640 -0.2142
H12 H 0.3739 0.9831 -0.0611
H13 H 0.2910 0.9704 -0.1926
C14 C 0.3561(4) 0.8743(4) 0.4979(8)
H14 H 0.3693 0.9064 0.5649
H15 H 0.3747 0.8387 0.5526
H16 H 0.3008 0.8723 0.4372
C15 C 0.3014(3) 0.8055(3) -0.2189(6)
C16 C 0.2583(4) 0.7744(3) -0.3597(7)
H17 H 0.2899 0.7735 -0.4078
H18 H 0.2117 0.7962 -0.4226
C17 C 0.2358(7) 0.7131(4) -0.3470(12)
H19 H 0.2821 0.6917 -0.2804
H20 H 0.2021 0.7140 -0.3035
C18 C 0.1958(8) 0.6812(6) -0.4887(14)
H21 H 0.1658 0.7081 -0.5666
H22 H 0.1622 0.6523 -0.4834
H23 H 0.2336 0.6626 -0.5077
Cl2 Cl 0.17195(9) 0.97220(6) 0.44298(16)
N1 N 0.0136(3) 0.81499(19) 0.5705(5)
O7 O 0.1414(2) 0.83190(17) 0.7271(4)
H2 H 0.1760 0.8554 0.7742
O8 O 0.1568(3) 0.9084(2) 0.1842(5)
O9 O 0.0055(3) 0.7536(2) 0.1919(5)
O10 O 0.0827(3) 0.80585(19) 0.0653(4)
O11 O 0.1872(3) 0.7827(2) 0.2808(6)
O12 O 0.0025(2) 0.93944(18) 0.4814(4)
C19 C -0.0102(5) 0.9707(3) 0.5847(8)
H24 H -0.0565 0.9944 0.5335
H25 H 0.0333 0.9964 0.6412
C20 C -0.0197(5) 0.9293(3) 0.6866(9)
H26 H -0.0652 0.9053 0.6310
H27 H -0.0268 0.9511 0.7590
C21 C 0.0518(4) 0.8909(3) 0.7639(7)
H28 H 0.0959 0.9145 0.8301
H29 H 0.0433 0.8618 0.8222
C22 C 0.0692(3) 0.8614(2) 0.6551(6)
C23 C 0.0732(3) 0.9064(2) 0.5523(6)
H30 H 0.1168 0.9328 0.6087
C24 C 0.0804(3) 0.8809(2) 0.4252(6)
C25 C 0.0397(3) 0.8265(2) 0.3696(6)
C26 C 0.0098(3) 0.7985(3) 0.4479(6)
H31 H -0.0161 0.7637 0.4084
C27 C 0.1188(3) 0.9083(2) 0.3652(6)
C28 C 0.1199(4) 0.8874(3) 0.2397(6)
C29 C 0.0570(4) 0.8401(3) 0.1499(7)
C30 C 0.0344(4) 0.8014(3) 0.2403(7)
C31 C -0.0172(4) 0.8690(3) 0.0344(9)
H32 H -0.0061 0.8921 -0.0303
H33 H -0.0375 0.8936 0.0822
H34 H -0.0547 0.8397 -0.0216
C32 C -0.0147(4) 0.7779(3) 0.6479(7)
H35 H -0.0376 0.7434 0.5909
H36 H -0.0529 0.7987 0.6617
H37 H 0.0277 0.7673 0.7420
C33 C 0.1533(5) 0.7794(3) 0.1478(8)
C34 C 0.1785(5) 0.7475(3) 0.0546(8)
H38 H 0.1891 0.7753 -0.0036
H39 H 0.1367 0.7224 -0.0127
C35 C 0.2498(8) 0.7111(6) 0.1434(15)
H40 H 0.2934 0.7376 0.1898
H41 H 0.2440 0.6930 0.2218
C36 C 0.2711(12) 0.6653(9) 0.072(2)
H42 H 0.2565 0.6281 0.0932
H43 H 0.3262 0.6661 0.1092
H44 H 0.2448 0.6716 -0.0322
O13 O 0.765(2) -0.0059(13) 0.356(4)
H45 H 0.775(6) -0.005(4) 0.281(8)
H46 H 0.767(6) 0.017(3) 0.422(8)
loop_
_geom_bond_atom_site_label_1
_geom_bond_atom_site_label_2
_geom_bond_site_symmetry_1
_geom_bond_site_symmetry_2
Cl1 C9 1_555 1_555
Cl2 C27 1_555 1_555
N1 C22 1_555 1_555
N2 C4 1_555 1_555
O1 H1 1_555 1_555
O2 C10 1_555 1_555
O3 C12 1_555 1_555
O4 C11 1_555 1_555
O5 C15 1_555 1_555
O6 C1 1_555 1_555
O7 H2 1_555 1_555
O8 C28 1_555 1_555
O9 C30 1_555 1_555
O10 C29 1_555 1_555
O11 C33 1_555 1_555
O12 C19 1_555 1_555
O13 H45 1_555 1_555
C1 H3 1_555 1_555
H4 C1 1_555 1_555
C2 C1 1_555 1_555
H5 C2 1_555 1_555
H6 C2 1_555 1_555
C3 C2 1_555 1_555
H7 C3 1_555 1_555
H8 C3 1_555 1_555
C4 O1 1_555 1_555
C5 O6 1_555 1_555
H9 C5 1_555 1_555
C6 C5 1_555 1_555
C7 C6 1_555 1_555
C8 N2 1_555 1_555
H10 C8 1_555 1_555
C9 C6 1_555 1_555
C10 C9 1_555 1_555
C11 C10 1_555 1_555
C12 C7 1_555 1_555
C13 C11 1_555 1_555
H11 C13 1_555 1_555
H12 C13 1_555 1_555
H13 C13 1_555 1_555
C14 N2 1_555 1_555
H14 C14 1_555 1_555
H15 C14 1_555 1_555
H16 C14 1_555 1_555
C15 O4 1_555 1_555
C16 C15 1_555 1_555
H17 C16 1_555 1_555
H18 C16 1_555 1_555
C17 C16 1_555 1_555
H19 C17 1_555 1_555
H20 C17 1_555 1_555
C18 C17 1_555 1_555
H21 C18 1_555 1_555
H22 C18 1_555 1_555
H23 C18 1_555 1_555
C19 H24 1_555 1_555
H25 C19 1_555 1_555
C20 C19 1_555 1_555
H26 C20 1_555 1_555
H27 C20 1_555 1_555
C21 C20 1_555 1_555
H28 C21 1_555 1_555
H29 C21 1_555 1_555
C22 O7 1_555 1_555
C23 O12 1_555 1_555
H30 C23 1_555 1_555
C24 C23 1_555 1_555
C25 C24 1_555 1_555
C26 N1 1_555 1_555
H31 C26 1_555 1_555
C27 C24 1_555 1_555
C28 C27 1_555 1_555
C29 C28 1_555 1_555
C30 C25 1_555 1_555
C31 C29 1_555 1_555
H32 C31 1_555 1_555
H33 C31 1_555 1_555
H34 C31 1_555 1_555
C32 N1 1_555 1_555
H35 C32 1_555 1_555
H36 C32 1_555 1_555
H37 C32 1_555 1_555
C33 O10 1_555 1_555
C34 C33 1_555 1_555
H38 C34 1_555 1_555
H39 C34 1_555 1_555
C35 C34 1_555 1_555
H40 C35 1_555 1_555
H41 C35 1_555 1_555
C36 C35 1_555 1_555
H42 C36 1_555 1_555
H43 C36 1_555 1_555
H44 C36 1_555 1_555
H46 O13 1_555 1_555
C3 C4 1_555 1_555
C4 C5 1_555 1_555
C7 C8 1_555 1_555
C11 C12 1_555 1_555
C21 C22 1_555 1_555
C22 C23 1_555 1_555
C25 C26 1_555 1_555
C29 C30 1_555 1_555

#END
