
#######################################################################
#
#                 Cambridge Crystallographic Data Centre
#                                CCDC 
#
#######################################################################
#
# If this CIF has been generated from an entry in the Cambridge 
# Structural Database, then it will include bibliographic, chemical, 
# crystal, experimental, refinement or atomic coordinate data resulting 
# from the CCDC's data processing and validation procedures.
#
#######################################################################

data_NEGQEX
_chemical_formula_moiety         'C32 H25 N5 O5'
_chemical_name_systematic        
1'-Benzyl-2-(2,6-dimethylphenyl)-3a-methyl-5'-nitro-1,2',3-trioxo-1,1',2,2',3,3a,6,6a-octahydro-5H-spiro[cyclopenta[c]pyrrole-4,3'-indole]-5,5-dicarbonitrile
_symmetry_cell_setting           monoclinic
_symmetry_space_group_name_H-M   'P 21/c'
_symmetry_Int_Tables_number      14
_space_group_name_Hall           '-P 2ybc'
loop_
_symmetry_equiv_pos_site_id
_symmetry_equiv_pos_as_xyz
1 x,y,z
2 -x,1/2+y,1/2-z
3 -x,-y,-z
4 x,1/2-y,1/2+z
_cell_length_a                   16.712(5)
_cell_length_b                   7.630(2)
_cell_length_c                   22.561(6)
_cell_angle_alpha                90
_cell_angle_beta                 97.341(4)
_cell_angle_gamma                90
_cell_volume                     2853.23
_cell_formula_units_Z            4
loop_
_atom_site_label
_atom_site_type_symbol
_atom_site_fract_x
_atom_site_fract_y
_atom_site_fract_z
C1 C 0.2606(2) 0.1629(5) 0.53808(18)
C2 C 0.2600(3) 0.0601(5) 0.58779(19)
H1 H 0.3039 -0.0106 0.6015
C3 C 0.1918(3) 0.0649(6) 0.61714(19)
H2 H 0.1893 -0.0031 0.6510
C4 C 0.1287(3) 0.1701(6) 0.5959(2)
C5 C 0.1287(3) 0.2718(6) 0.54545(19)
H3 H 0.0848 0.3428 0.5322
C6 C 0.1953(2) 0.2660(5) 0.51506(17)
C7 C 0.2142(2) 0.3550(5) 0.45923(18)
C8 C 0.3004(3) 0.2870(5) 0.4550(2)
C9 C 0.3993(3) 0.0852(6) 0.5113(2)
H4 H 0.4273 0.1040 0.4767
H5 H 0.3887 -0.0394 0.5138
C10 C 0.4538(3) 0.1408(7) 0.5667(2)
C11 C 0.4803(3) 0.0236(8) 0.6097(3)
H6 H 0.4628 -0.0921 0.6061
C12 C 0.5327(4) 0.0732(12) 0.6588(4)
H7 H 0.5504 -0.0090 0.6881
C13 C 0.5592(4) 0.2439(14) 0.6650(4)
H8 H 0.5951 0.2773 0.6979
C14 C 0.5319(4) 0.3638(10) 0.6220(4)
H9 H 0.5483 0.4800 0.6263
C15 C 0.4801(3) 0.3134(8) 0.5722(3)
H10 H 0.4629 0.3946 0.5426
C16 C 0.2181(3) 0.5618(5) 0.4613(2)
C17 C 0.2178(3) 0.6158(6) 0.3953(2)
H11 H 0.2003 0.7363 0.3890
H12 H 0.2710 0.6025 0.3830
C18 C 0.1579(3) 0.4897(5) 0.36157(18)
H13 H 0.1039 0.5417 0.3557
C19 C 0.1828(3) 0.4334(6) 0.3022(2)
C20 C 0.1936(2) 0.1831(6) 0.36062(19)
C21 C 0.1578(2) 0.3208(5) 0.39852(17)
C22 C 0.0727(3) 0.2592(6) 0.40660(19)
H14 H 0.0478 0.3437 0.4299
H15 H 0.0757 0.1481 0.4267
H16 H 0.0411 0.2472 0.3682
C23 C 0.2914(4) 0.6201(6) 0.5003(2)
C24 C 0.1476(4) 0.6374(7) 0.4856(2)
C25 C 0.2221(3) 0.1520(6) 0.25592(19)
C26 C 0.1695(3) 0.0253(6) 0.2311(2)
C27 C 0.1926(4) -0.0709(7) 0.1847(2)
H17 H 0.1577 -0.1554 0.1664
C28 C 0.2651(5) -0.0461(8) 0.1648(3)
H18 H 0.2799 -0.1164 0.1343
C29 C 0.3167(4) 0.0825(8) 0.1894(3)
H19 H 0.3654 0.1015 0.1745
C30 C 0.2962(3) 0.1850(6) 0.2368(2)
C31 C 0.3527(3) 0.3232(8) 0.2637(2)
H20 H 0.3321 0.4367 0.2513
H21 H 0.4047 0.3068 0.2507
H22 H 0.3577 0.3151 0.3065
C32 C 0.0888(3) -0.0078(8) 0.2511(2)
H23 H 0.0959 -0.0715 0.2881
H24 H 0.0561 -0.0751 0.2213
H25 H 0.0628 0.1020 0.2568
N1 N 0.32232(19) 0.1783(4) 0.50208(16)
N2 N 0.0589(3) 0.1775(7) 0.62843(19)
N3 N 0.3477(3) 0.6635(6) 0.5290(2)
N4 N 0.0946(3) 0.6951(6) 0.5049(2)
N5 N 0.1991(2) 0.2544(4) 0.30491(14)
O1 O 0.34201(18) 0.3253(4) 0.41646(13)
O2 O 0.21110(19) 0.0358(4) 0.37587(13)
O3 O 0.1870(2) 0.5251(4) 0.25968(14)
O4 O 0.0510(2) 0.0654(6) 0.6647(2)
O5 O 0.0120(2) 0.2979(7) 0.61832(18)
loop_
_geom_bond_atom_site_label_1
_geom_bond_atom_site_label_2
_geom_bond_site_symmetry_1
_geom_bond_site_symmetry_2
C1 C2 1_555 1_555
C2 H1 1_555 1_555
C3 C2 1_555 1_555
H2 C3 1_555 1_555
C4 C3 1_555 1_555
C5 C4 1_555 1_555
H3 C5 1_555 1_555
C6 C1 1_555 1_555
C7 C6 1_555 1_555
C8 C7 1_555 1_555
C9 H4 1_555 1_555
H5 C9 1_555 1_555
C10 C9 1_555 1_555
C11 C10 1_555 1_555
H6 C11 1_555 1_555
C12 C11 1_555 1_555
H7 C12 1_555 1_555
C13 C12 1_555 1_555
H8 C13 1_555 1_555
C14 C13 1_555 1_555
H9 C14 1_555 1_555
C15 C10 1_555 1_555
H10 C15 1_555 1_555
C16 C7 1_555 1_555
C17 C16 1_555 1_555
H11 C17 1_555 1_555
H12 C17 1_555 1_555
C18 C17 1_555 1_555
H13 C18 1_555 1_555
C19 C18 1_555 1_555
C20 C21 1_555 1_555
C21 C7 1_555 1_555
C22 C21 1_555 1_555
H14 C22 1_555 1_555
H15 C22 1_555 1_555
H16 C22 1_555 1_555
C23 C16 1_555 1_555
C24 C16 1_555 1_555
C25 C26 1_555 1_555
C26 C27 1_555 1_555
C27 H17 1_555 1_555
C28 C27 1_555 1_555
H18 C28 1_555 1_555
C29 C28 1_555 1_555
H19 C29 1_555 1_555
C30 C25 1_555 1_555
C31 C30 1_555 1_555
H20 C31 1_555 1_555
H21 C31 1_555 1_555
H22 C31 1_555 1_555
C32 C26 1_555 1_555
H23 C32 1_555 1_555
H24 C32 1_555 1_555
H25 C32 1_555 1_555
N1 C1 1_555 1_555
N2 C4 1_555 1_555
N3 C23 1_555 1_555
N4 C24 1_555 1_555
N5 C19 1_555 1_555
O1 C8 1_555 1_555
O2 C20 1_555 1_555
O3 C19 1_555 1_555
O4 N2 1_555 1_555
O5 N2 1_555 1_555
C5 C6 1_555 1_555
C8 N1 1_555 1_555
C9 N1 1_555 1_555
C14 C15 1_555 1_555
C18 C21 1_555 1_555
C20 N5 1_555 1_555
C25 N5 1_555 1_555
C29 C30 1_555 1_555

#END
