
#######################################################################
#
#                 Cambridge Crystallographic Data Centre
#                                CCDC 
#
#######################################################################
#
# If this CIF has been generated from an entry in the Cambridge 
# Structural Database, then it will include bibliographic, chemical, 
# crystal, experimental, refinement or atomic coordinate data resulting 
# from the CCDC's data processing and validation procedures.
#
#######################################################################

data_NEGQAT
_chemical_formula_moiety         'C38 H28 Cl1 F1 N4 O3'
_chemical_name_systematic        
1'-Benzyl-5'-chloro-2-(2,6-dimethylphenyl)-3a-(3-fluorobenzyl)-1,2',3-trioxo-1,1',2,2',3,3a,6,6a-octahydro-5H-spiro[cyclopenta[c]pyrrole-4,3'-indole]-5,5-dicarbonitrile
_symmetry_cell_setting           triclinic
_symmetry_space_group_name_H-M   'P -1'
_symmetry_Int_Tables_number      2
_space_group_name_Hall           '-P 1'
loop_
_symmetry_equiv_pos_site_id
_symmetry_equiv_pos_as_xyz
1 x,y,z
2 -x,-y,-z
_cell_length_a                   7.873(9)
_cell_length_b                   11.287(12)
_cell_length_c                   18.52(2)
_cell_angle_alpha                101.871(15)
_cell_angle_beta                 91.264(15)
_cell_angle_gamma                99.062(15)
_cell_volume                     1587.91
_cell_formula_units_Z            2
loop_
_atom_site_label
_atom_site_type_symbol
_atom_site_fract_x
_atom_site_fract_y
_atom_site_fract_z
C1 C 0.2391(11) 0.0315(8) 0.5145(5)
C2 C 0.2987(12) -0.0798(9) 0.4965(6)
H1 H 0.3194 -0.1126 0.4478
C3 C 0.3270(12) -0.1414(9) 0.5522(5)
H2 H 0.3657 -0.2165 0.5414
C4 C 0.2964(11) -0.0888(8) 0.6240(5)
C5 C 0.2372(10) 0.0235(7) 0.6417(4)
C6 C 0.2077(10) 0.0851(8) 0.5855(4)
H3 H 0.1682 0.1599 0.5959
C7 C 0.2155(10) 0.0541(8) 0.7245(4)
C8 C 0.2618(11) -0.0624(9) 0.7477(5)
C9 C 0.3858(15) -0.2475(9) 0.6912(8)
H4 H 0.5005 -0.2388 0.6728
H5 H 0.3969 -0.2540 0.7425
C10 C 0.2828(15) -0.3621(9) 0.6485(7)
C11 C 0.364(2) -0.4497(13) 0.6055(9)
H6 H 0.4834 -0.4352 0.6029
C12 C 0.270(3) -0.5577(14) 0.5669(9)
H7 H 0.3278 -0.6144 0.5380
C13 C 0.100(3) -0.5853(12) 0.5684(10)
H8 H 0.0398 -0.6600 0.5424
C14 C 0.017(2) -0.4979(14) 0.6106(11)
H9 H -0.1026 -0.5121 0.6110
C15 C 0.1084(19) -0.3899(11) 0.6521(7)
H10 H 0.0506 -0.3355 0.6828
C16 C 0.0254(11) 0.0674(9) 0.7494(5)
C17 C 0.0524(11) 0.1250(10) 0.8332(5)
H11 H -0.0419 0.1674 0.8504
H12 H 0.0611 0.0627 0.8615
C18 C 0.2216(10) 0.2153(8) 0.8401(4)
H13 H 0.1981 0.2984 0.8414
C19 C 0.3341(10) 0.2142(7) 0.9073(4)
C20 C 0.4930(10) 0.1485(7) 0.8078(4)
C21 C 0.3287(10) 0.1739(7) 0.7724(4)
C22 C -0.0854(12) -0.0539(10) 0.7353(5)
C23 C -0.0469(11) 0.1483(10) 0.7078(5)
C24 C 0.3774(11) 0.2738(7) 0.7258(5)
H14 H 0.4449 0.2409 0.6856
H15 H 0.2723 0.2897 0.7041
C25 C 0.4788(12) 0.3955(8) 0.7685(5)
C26 C 0.3945(13) 0.4894(9) 0.8024(5)
H16 H 0.2748 0.4772 0.8012
C27 C 0.4878(16) 0.6004(9) 0.8378(6)
H17 H 0.4309 0.6638 0.8594
C28 C 0.6661(16) 0.6182(10) 0.8412(6)
H18 H 0.7307 0.6914 0.8671
C29 C 0.7416(13) 0.5271(10) 0.8064(6)
C30 C 0.6538(13) 0.4142(9) 0.7694(5)
H19 H 0.7125 0.3531 0.7458
C31 C 0.6345(10) 0.1801(8) 0.9346(4)
C32 C 0.7197(11) 0.2925(9) 0.9751(5)
C33 C 0.8529(13) 0.2905(10) 1.0263(6)
H20 H 0.9134 0.3641 1.0535
C34 C 0.8958(13) 0.1802(11) 1.0370(6)
H21 H 0.9827 0.1802 1.0718
C35 C 0.8088(12) 0.0707(10) 0.9956(6)
H22 H 0.8385 -0.0029 1.0026
C36 C 0.6783(11) 0.0687(9) 0.9440(5)
C37 C 0.5898(13) -0.0562(9) 0.9017(5)
H23 H 0.6235 -0.0689 0.8516
H24 H 0.4672 -0.0600 0.9023
H25 H 0.6227 -0.1189 0.9246
C38 C 0.6715(15) 0.4128(10) 0.9684(6)
H26 H 0.6801 0.4220 0.9181
H27 H 0.7482 0.4783 1.0002
H28 H 0.5554 0.4154 0.9826
Cl1 Cl 0.2082(3) 0.1084(3) 0.44364(13)
F1 F 0.9185(9) 0.5431(7) 0.8100(5)
N1 N 0.3122(11) -0.1358(7) 0.6879(5)
N2 N 0.4921(8) 0.1812(6) 0.8833(3)
N3 N -0.1706(12) -0.1483(10) 0.7263(6)
N4 N -0.0966(12) 0.2149(8) 0.6782(5)
O1 O 0.6110(7) 0.1104(6) 0.7733(3)
O2 O 0.2986(8) 0.2361(7) 0.9706(3)
O3 O 0.2498(9) -0.0826(6) 0.8097(4)
loop_
_geom_bond_atom_site_label_1
_geom_bond_atom_site_label_2
_geom_bond_site_symmetry_1
_geom_bond_site_symmetry_2
C1 C2 1_555 1_555
C2 H1 1_555 1_555
C3 C2 1_555 1_555
H2 C3 1_555 1_555
C4 C3 1_555 1_555
C5 C4 1_555 1_555
C6 C1 1_555 1_555
H3 C6 1_555 1_555
C7 C5 1_555 1_555
C8 C7 1_555 1_555
C9 H4 1_555 1_555
H5 C9 1_555 1_555
C10 C9 1_555 1_555
C11 C10 1_555 1_555
H6 C11 1_555 1_555
C12 C11 1_555 1_555
H7 C12 1_555 1_555
C13 C12 1_555 1_555
H8 C13 1_555 1_555
C14 C13 1_555 1_555
H9 C14 1_555 1_555
C15 C10 1_555 1_555
H10 C15 1_555 1_555
C16 C7 1_555 1_555
C17 C16 1_555 1_555
H11 C17 1_555 1_555
H12 C17 1_555 1_555
C18 C17 1_555 1_555
H13 C18 1_555 1_555
C19 C18 1_555 1_555
C20 C21 1_555 1_555
C21 C7 1_555 1_555
C22 C16 1_555 1_555
C23 C16 1_555 1_555
C24 C21 1_555 1_555
H14 C24 1_555 1_555
H15 C24 1_555 1_555
C25 C24 1_555 1_555
C26 C25 1_555 1_555
H16 C26 1_555 1_555
C27 C26 1_555 1_555
H17 C27 1_555 1_555
C28 C27 1_555 1_555
H18 C28 1_555 1_555
C29 C28 1_555 1_555
C30 C25 1_555 1_555
H19 C30 1_555 1_555
C31 C32 1_555 1_555
C32 C33 1_555 1_555
C33 H20 1_555 1_555
C34 C33 1_555 1_555
H21 C34 1_555 1_555
C35 C34 1_555 1_555
H22 C35 1_555 1_555
C36 C31 1_555 1_555
C37 C36 1_555 1_555
H23 C37 1_555 1_555
H24 C37 1_555 1_555
H25 C37 1_555 1_555
C38 C32 1_555 1_555
H26 C38 1_555 1_555
H27 C38 1_555 1_555
H28 C38 1_555 1_555
Cl1 C1 1_555 1_555
F1 C29 1_555 1_555
N1 C4 1_555 1_555
N2 C19 1_555 1_555
N3 C22 1_555 1_555
N4 C23 1_555 1_555
O1 C20 1_555 1_555
O2 C19 1_555 1_555
O3 C8 1_555 1_555
C5 C6 1_555 1_555
C8 N1 1_555 1_555
C9 N1 1_555 1_555
C14 C15 1_555 1_555
C18 C21 1_555 1_555
C20 N2 1_555 1_555
C29 C30 1_555 1_555
C31 N2 1_555 1_555
C35 C36 1_555 1_555

#END
