
#######################################################################
#
#                 Cambridge Crystallographic Data Centre
#                                CCDC 
#
#######################################################################
#
# If this CIF has been generated from an entry in the Cambridge 
# Structural Database, then it will include bibliographic, chemical, 
# crystal, experimental, refinement or atomic coordinate data resulting 
# from the CCDC's data processing and validation procedures.
#
#######################################################################

data_NEGTUO01
_chemical_formula_moiety         'C16 H18 N4 O2'
_chemical_name_systematic        N,N'-bis(2-Pyridylethyl)oxamide
_symmetry_cell_setting           monoclinic
_symmetry_space_group_name_H-M   'P 21/c'
_symmetry_Int_Tables_number      14
_space_group_name_Hall           '-P 2ybc'
loop_
_symmetry_equiv_pos_site_id
_symmetry_equiv_pos_as_xyz
1 x,y,z
2 x,1/2-y,1/2+z
3 -x,-y,-z
4 -x,1/2+y,1/2-z
_cell_length_a                   9.489(6)
_cell_length_b                   6.248(4)
_cell_length_c                   13.062(8)
_cell_angle_alpha                90
_cell_angle_beta                 100.280(10)
_cell_angle_gamma                90
_cell_volume                     761.979
_exptl_crystal_colour            colorless
_exptl_crystal_description       prism
_cell_formula_units_Z            2
_exptl_crystal_recrystallization_method ethanol
loop_
_atom_site_label
_atom_site_type_symbol
_atom_site_fract_x
_atom_site_fract_y
_atom_site_fract_z
N1 N 0.03947(14) 0.1630(2) 0.89738(10)
O1 O 0.17259(11) 0.0845(2) 1.05455(9)
C1 C 0.06301(13) 0.0690(2) 0.98966(11)
C2 C 0.14418(17) 0.3021(2) 0.86280(12)
N2 N 0.21408(14) 0.7539(2) 0.77070(9)
C3 C 0.24531(15) 0.6710(2) 0.86563(10)
C4 C 0.13294(17) 0.5315(3) 0.89930(14)
C5 C 0.37601(18) 0.7055(3) 0.92896(13)
C6 C 0.3141(2) 0.8751(3) 0.73874(15)
C7 C 0.4470(2) 0.9117(3) 0.79621(16)
C8 C 0.47833(19) 0.8265(3) 0.89319(15)
H1 H 0.1271(19) 0.300(3) 0.7856(14)
H2 H 0.151(2) 0.531(3) 0.9788(16)
H3 H 0.238(2) 0.245(3) 0.8888(13)
H4 H 0.040(3) 0.583(3) 0.8719(17)
H5 H -0.045(2) 0.149(3) 0.8577(14)
H6 H 0.570(2) 0.850(3) 0.9324(16)
H7 H 0.284(3) 0.934(4) 0.666(2)
H8 H 0.517(2) 0.999(4) 0.7675(19)
H9 H 0.392(2) 0.644(3) 0.9969(16)
C1B C -0.06301(13) -0.0690(2) 1.01034(11)
N1B N -0.03947(14) -0.1630(2) 1.10262(10)
C2B C -0.14418(17) -0.3021(2) 1.13720(12)
C4B C -0.13294(17) -0.5315(3) 1.10070(14)
C3B C -0.24531(15) -0.6710(2) 1.13437(10)
N2B N -0.21408(14) -0.7539(2) 1.22930(9)
C6B C -0.3141(2) -0.8751(3) 1.26126(15)
C7B C -0.4470(2) -0.9117(3) 1.20379(16)
C8B C -0.47833(19) -0.8265(3) 1.10681(15)
C5B C -0.37601(18) -0.7055(3) 1.07104(13)
H9B H -0.392(2) -0.644(3) 1.0031(16)
H6B H -0.570(2) -0.850(3) 1.0676(16)
H8B H -0.517(2) -0.999(4) 1.2325(19)
H7B H -0.284(3) -0.934(4) 1.334(2)
H2B H -0.151(2) -0.531(3) 1.0212(16)
H4B H -0.040(3) -0.583(3) 1.1281(17)
H1B H -0.1271(19) -0.300(3) 1.2144(14)
H3B H -0.238(2) -0.245(3) 1.1112(13)
H5B H 0.045(2) -0.149(3) 1.1423(14)
O1B O -0.17259(11) -0.0845(2) 0.94545(9)
loop_
_geom_bond_atom_site_label_1
_geom_bond_atom_site_label_2
_geom_bond_site_symmetry_1
_geom_bond_site_symmetry_2
N1 C1 1_555 1_555
O1 C1 1_555 1_555
C1 C1B 1_555 1_555
C2 N1 1_555 1_555
N2 C3 1_555 1_555
C3 C4 1_555 1_555
C4 C2 1_555 1_555
C5 C3 1_555 1_555
C6 N2 1_555 1_555
C7 C6 1_555 1_555
C8 C5 1_555 1_555
H1 C2 1_555 1_555
H2 C4 1_555 1_555
H3 C2 1_555 1_555
H4 C4 1_555 1_555
H5 N1 1_555 1_555
H6 C8 1_555 1_555
H7 C6 1_555 1_555
H8 C7 1_555 1_555
H9 C5 1_555 1_555
C1B N1B 1_555 1_555
N1B C2B 1_555 1_555
C2B C4B 1_555 1_555
C4B C3B 1_555 1_555
C3B N2B 1_555 1_555
N2B C6B 1_555 1_555
C6B C7B 1_555 1_555
C7B C8B 1_555 1_555
C8B C5B 1_555 1_555
C5B C3B 1_555 1_555
H9B C5B 1_555 1_555
H6B C8B 1_555 1_555
H8B C7B 1_555 1_555
H7B C6B 1_555 1_555
H2B C4B 1_555 1_555
H4B C4B 1_555 1_555
H1B C2B 1_555 1_555
H3B C2B 1_555 1_555
H5B N1B 1_555 1_555
O1B C1B 1_555 1_555
C7 C8 1_555 1_555

#END
