
#######################################################################
#
#                 Cambridge Crystallographic Data Centre
#                                CCDC 
#
#######################################################################
#
# If this CIF has been generated from an entry in the Cambridge 
# Structural Database, then it will include bibliographic, chemical, 
# crystal, experimental, refinement or atomic coordinate data resulting 
# from the CCDC's data processing and validation procedures.
#
#######################################################################

data_NEGZEH
_chemical_formula_moiety         'C16 H10,C6 F4 I2'
_chemical_name_systematic        
'fluoranthene 1,2,3,4-tetrafluoro-5,6-diiodobenzene'
_symmetry_cell_setting           triclinic
_symmetry_space_group_name_H-M   'P -1'
_symmetry_Int_Tables_number      2
_space_group_name_Hall           '-P 1'
loop_
_symmetry_equiv_pos_site_id
_symmetry_equiv_pos_as_xyz
1 x,y,z
2 -x,-y,-z
_cell_length_a                   15.2963(3)
_cell_length_b                   18.1009(4)
_cell_length_c                   30.4800(5)
_cell_angle_alpha                99.2518(16)
_cell_angle_beta                 90.4052(15)
_cell_angle_gamma                114.420(2)
_cell_volume                     7558.83
_exptl_crystal_colour            orange
_exptl_crystal_description       block
_cell_formula_units_Z            16
loop_
_atom_site_label
_atom_site_type_symbol
_atom_site_fract_x
_atom_site_fract_y
_atom_site_fract_z
C1 C 0.7099(3) 1.0382(3) 0.38716(14)
C2 C 0.7876(3) 1.0245(3) 0.36927(14)
C3 C 0.7705(3) 0.9481(3) 0.34499(14)
C4 C 0.6805(4) 0.8845(3) 0.33848(14)
C5 C 0.6041(3) 0.8975(3) 0.35610(15)
C6 C 0.6198(3) 0.9740(3) 0.38024(14)
F1 F 0.8439(2) 0.93314(18) 0.32756(9)
F2 F 0.6664(2) 0.80981(16) 0.31686(9)
F3 F 0.5152(2) 0.83652(16) 0.34980(9)
F4 F 0.54319(19) 0.98344(17) 0.39716(9)
I1 I 0.72420(3) 1.15012(2) 0.42473(2)
I2 I 0.92798(2) 1.11538(2) 0.37768(2)
C7 C 0.2631(3) 0.0662(3) 0.38571(13)
C8 C 0.3616(3) 0.1076(3) 0.38123(15)
C9 C 0.4087(3) 0.0648(3) 0.35787(15)
C10 C 0.3618(4) -0.0172(3) 0.33972(15)
C11 C 0.2653(4) -0.0584(3) 0.34433(15)
C12 C 0.2161(4) -0.0166(3) 0.36667(15)
F5 F 0.5035(2) 0.10338(19) 0.35233(9)
F6 F 0.4101(2) -0.05730(19) 0.31841(9)
F7 F 0.2196(2) -0.13819(18) 0.32655(9)
F8 F 0.1216(2) -0.05885(18) 0.36989(9)
I3 I 0.18401(3) 0.12310(2) 0.42006(2)
I4 I 0.44185(3) 0.23213(2) 0.40683(2)
C13 C 0.2535(3) 0.4328(3) 0.12552(14)
C14 C 0.1622(3) 0.4070(3) 0.10379(14)
C15 C 0.1224(3) 0.4632(3) 0.10487(14)
C16 C 0.1693(4) 0.5431(3) 0.12797(15)
C17 C 0.2591(4) 0.5685(3) 0.14865(15)
C18 C 0.3003(3) 0.5134(3) 0.14734(14)
F9 F 0.0355(2) 0.44186(18) 0.08328(9)
F10 F 0.1284(2) 0.59602(17) 0.12883(9)
F11 F 0.3066(2) 0.64705(16) 0.16965(9)
F12 F 0.3891(2) 0.54205(17) 0.16834(8)
I5 I 0.32406(3) 0.35594(2) 0.12562(2)
I6 I 0.08212(3) 0.28776(2) 0.06892(2)
C19 C 0.2522(3) 0.4608(3) 0.37683(13)
C20 C 0.1579(3) 0.4402(3) 0.36073(14)
C21 C 0.1305(3) 0.5022(3) 0.35684(14)
C22 C 0.1937(4) 0.5839(3) 0.36835(14)
C23 C 0.2867(4) 0.6044(3) 0.38305(14)
C24 C 0.3159(3) 0.5426(3) 0.38712(14)
F13 F 0.0410(2) 0.48562(18) 0.34094(8)
F14 F 0.1646(2) 0.64374(17) 0.36505(9)
F15 F 0.3500(2) 0.68367(16) 0.39272(8)
F16 F 0.40763(19) 0.56531(16) 0.40255(8)
I7 I 0.30352(2) 0.37233(2) 0.38471(2)
I8 I 0.05246(2) 0.31922(2) 0.34484(2)
C25 C 0.8109(3) 0.4450(3) 0.13341(14)
C26 C 0.7406(4) 0.4722(3) 0.12382(15)
C27 C 0.7574(5) 0.5535(4) 0.13981(18)
C28 C 0.8417(5) 0.6075(3) 0.16425(17)
C29 C 0.9106(4) 0.5813(3) 0.17333(15)
C30 C 0.8957(4) 0.5012(3) 0.15821(14)
F17 F 0.6908(3) 0.5809(2) 0.13124(11)
F18 F 0.8567(3) 0.6851(2) 0.17921(11)
F19 F 0.9939(2) 0.63444(18) 0.19632(9)
F20 F 0.9648(2) 0.47819(18) 0.16861(9)
I9 I 0.79836(3) 0.32619(2) 0.11189(2)
I10 I 0.61233(3) 0.39516(3) 0.08531(2)
C31 C 0.7873(4) 0.4713(3) 0.38734(14)
C32 C 0.7303(3) 0.5102(3) 0.37721(14)
C33 C 0.7694(4) 0.5951(3) 0.38380(14)
C34 C 0.8633(4) 0.6418(3) 0.40007(14)
C35 C 0.9213(4) 0.6040(3) 0.41004(15)
C36 C 0.8819(4) 0.5190(3) 0.40390(14)
F21 F 0.7160(2) 0.63502(17) 0.37452(9)
F22 F 0.9005(2) 0.72468(16) 0.40665(9)
F23 F 1.0133(2) 0.64950(18) 0.42527(9)
F24 F 0.9406(2) 0.48516(17) 0.41577(9)
I11 I 0.74154(3) 0.34398(2) 0.37940(2)
I12 I 0.58524(3) 0.44574(2) 0.35474(2)
C37 C 0.7017(3) 1.0053(3) 0.12975(14)
C38 C 0.7776(3) 0.9866(3) 0.11293(14)
C39 C 0.7613(3) 0.9054(3) 0.09942(14)
C40 C 0.6723(4) 0.8418(3) 0.10187(15)
C41 C 0.5986(3) 0.8605(3) 0.11779(14)
C42 C 0.6139(3) 0.9407(3) 0.13168(14)
F25 F 0.5392(2) 0.95511(19) 0.14726(9)
F26 F 0.5115(2) 0.79912(18) 0.11941(9)
F27 F 0.6599(2) 0.76363(16) 0.08996(9)
F28 F 0.8320(2) 0.88540(17) 0.08355(8)
I13 I 0.71471(3) 1.12475(2) 0.15081(2)
I14 I 0.91506(2) 1.07771(2) 0.10904(2)
C43 C 0.2640(3) 1.0431(3) 0.13021(14)
C44 C 0.3579(4) 1.0671(3) 0.11797(14)
C45 C 0.3869(4) 1.0054(3) 0.10051(14)
C46 C 0.3284(4) 0.9239(3) 0.09684(14)
C47 C 0.2352(4) 0.9010(3) 0.10864(14)
C48 C 0.2043(3) 0.9605(3) 0.12537(14)
F29 F 0.4772(2) 1.02634(18) 0.08723(9)
F30 F 0.3599(2) 0.86674(17) 0.08141(8)
F31 F 0.1753(2) 0.82083(16) 0.10313(9)
F32 F 0.1124(2) 0.93479(17) 0.13656(8)
I15 I 0.20794(3) 1.12751(2) 0.15504(2)
I16 I 0.45803(3) 1.18916(2) 0.12252(2)
C49 C 0.6874(4) 1.0135(3) 0.51809(15)
C50 C 0.6400(4) 1.0530(4) 0.54424(17)
H1 H 0.5735 1.0277 0.5451
C51 C 0.6933(5) 1.1309(4) 0.56897(18)
H2 H 0.6618 1.1578 0.5864
C52 C 0.7910(5) 1.1691(3) 0.56826(17)
H3 H 0.8248 1.2215 0.5851
C53 C 0.8411(4) 1.1305(3) 0.54252(16)
H4 H 0.9079 1.1562 0.5427
C54 C 0.7893(4) 1.0532(3) 0.51679(15)
C55 C 0.8191(3) 0.9981(3) 0.48614(15)
C56 C 0.9039(4) 1.0012(3) 0.47033(16)
H5 H 0.9614 1.0475 0.4795
C57 C 0.9028(4) 0.9329(4) 0.43989(17)
H6 H 0.9607 0.9350 0.4296
C58 C 0.8201(4) 0.8642(3) 0.42501(17)
H7 H 0.8227 0.8210 0.4048
C59 C 0.7300(4) 0.8580(3) 0.44014(16)
C60 C 0.6378(4) 0.7914(3) 0.42919(17)
H8 H 0.6310 0.7442 0.4094
C61 C 0.5591(4) 0.7966(3) 0.44759(17)
H9 H 0.4995 0.7519 0.4401
C62 C 0.5641(4) 0.8668(3) 0.47751(18)
H10 H 0.5088 0.8687 0.4891
C63 C 0.6523(4) 0.9322(3) 0.48912(16)
C64 C 0.7336(3) 0.9262(3) 0.47036(15)
C65 C 0.8118(3) 0.4719(3) 0.51330(13)
C66 C 0.8501(4) 0.4177(3) 0.52048(13)
H11 H 0.9156 0.4365 0.5281
C67 C 0.7890(4) 0.3346(3) 0.51607(15)
H12 H 0.8140 0.2973 0.5205
C68 C 0.6919(4) 0.3068(3) 0.50525(15)
H13 H 0.6520 0.2510 0.5030
C69 C 0.6524(4) 0.3606(3) 0.49761(14)
H14 H 0.5866 0.3414 0.4905
C70 C 0.7130(3) 0.4435(3) 0.50075(13)
C71 C 0.6938(3) 0.5149(3) 0.49412(13)
C72 C 0.6146(4) 0.5259(3) 0.48066(14)
H15 H 0.5548 0.4814 0.4734
C73 C 0.6267(4) 0.6073(3) 0.47821(15)
H16 H 0.5735 0.6153 0.4693
C74 C 0.7134(4) 0.6742(3) 0.48840(15)
H17 H 0.7177 0.7264 0.4868
C75 C 0.7968(4) 0.6649(3) 0.50131(14)
C76 C 0.8925(4) 0.7260(3) 0.51154(15)
H18 H 0.9062 0.7805 0.5098
C77 C 0.9652(4) 0.7058(3) 0.52394(15)
H19 H 1.0271 0.7474 0.5308
C78 C 0.9492(3) 0.6234(3) 0.52676(14)
H20 H 0.9992 0.6110 0.5356
C79 C 0.8573(3) 0.5629(3) 0.51590(13)
C80 C 0.7833(3) 0.5844(3) 0.50349(13)
C81 C 0.6803(3) 1.0072(3) 0.25745(13)
C82 C 0.6353(4) 1.0549(3) 0.27722(14)
H21 H 0.5698 1.0307 0.2811
C83 C 0.6882(4) 1.1387(3) 0.29123(16)
H22 H 0.6580 1.1710 0.3044
C84 C 0.7852(4) 1.1747(3) 0.28589(16)
H23 H 0.8200 1.2310 0.2960
C85 C 0.8323(4) 1.1286(3) 0.26567(16)
H24 H 0.8978 1.1538 0.2620
C86 C 0.7804(4) 1.0449(3) 0.25113(14)
C87 C 0.8088(4) 0.9809(4) 0.22901(15)
C88 C 0.8923(5) 0.9801(5) 0.21304(18)
H25 H 0.9485 1.0284 0.2159
C89 C 0.8904(7) 0.9045(6) 0.1923(2)
H26 H 0.9469 0.9038 0.1818
C90 C 0.8118(7) 0.8338(5) 0.1870(2)
H27 H 0.8154 0.7858 0.1727
C91 C 0.7205(6) 0.8291(4) 0.20279(19)
C92 C 0.6300(7) 0.7630(4) 0.2001(2)
H28 H 0.6230 0.7107 0.1869
C93 C 0.5513(6) 0.7725(4) 0.21613(19)
H29 H 0.4927 0.7265 0.2137
C94 C 0.5570(4) 0.8516(3) 0.23654(16)
H30 H 0.5030 0.8575 0.2472
C95 C 0.6443(4) 0.9184(3) 0.23984(14)
C96 C 0.7246(4) 0.9065(3) 0.22322(15)
C97 C 0.8153(4) 0.6267(3) 0.27523(15)
C98 C 0.8474(5) 0.7119(4) 0.28718(17)
H31 H 0.8078 0.7374 0.2816
C99 C 0.9397(5) 0.7577(4) 0.30762(19)
H32 H 0.9624 0.8147 0.3158
C100 C 0.9982(5) 0.7195(4) 0.31592(19)
H33 H 1.0597 0.7516 0.3298
C101 C 0.9682(4) 0.6351(4) 0.30430(17)
H34 H 1.0087 0.6105 0.3102
C102 C 0.8759(4) 0.5878(3) 0.28356(15)
C103 C 0.8240(4) 0.4998(3) 0.26701(15)
C104 C 0.8452(4) 0.4309(4) 0.26456(16)
H35 H 0.9045 0.4361 0.2759
C105 C 0.7739(4) 0.3540(3) 0.24433(16)
H36 H 0.7870 0.3079 0.2430
C106 C 0.6859(4) 0.3429(3) 0.22640(16)
H37 H 0.6419 0.2905 0.2129
C107 C 0.6617(4) 0.4109(3) 0.22835(15)
C108 C 0.5755(4) 0.4116(3) 0.21134(15)
H38 H 0.5249 0.3626 0.1979
C109 C 0.5671(4) 0.4852(4) 0.21485(16)
H39 H 0.5106 0.4848 0.2031
C110 C 0.6409(4) 0.5613(4) 0.23565(16)
H40 H 0.6330 0.6100 0.2377
C111 C 0.7244(4) 0.5620(3) 0.25276(15)
C112 C 0.7340(4) 0.4865(3) 0.24856(14)
C113 C 0.3219(3) -0.0278(3) 0.22750(14)
C114 C 0.3712(4) -0.0726(3) 0.20817(14)
H41 H 0.4366 -0.0462 0.2045
C115 C 0.3220(4) -0.1569(3) 0.19438(15)
H42 H 0.3550 -0.1873 0.1821
C116 C 0.2236(4) -0.1969(3) 0.19866(16)
H43 H 0.1912 -0.2534 0.1883
C117 C 0.1733(4) -0.1531(3) 0.21831(15)
H44 H 0.1078 -0.1802 0.2216
C118 C 0.2223(4) -0.0683(3) 0.23299(14)
C119 C 0.1897(4) -0.0062(3) 0.25393(14)
C120 C 0.1044(4) -0.0076(3) 0.26803(15)
H45 H 0.0493 -0.0569 0.2646
C121 C 0.1015(4) 0.0681(4) 0.28801(16)
H46 H 0.0433 0.0674 0.2971
C122 C 0.1812(4) 0.1416(3) 0.29430(15)
H47 H 0.1763 0.1896 0.3076
C123 C 0.2722(4) 0.1457(3) 0.28059(14)
C124 C 0.3615(4) 0.2156(3) 0.28422(15)
H48 H 0.3658 0.2673 0.2970
C125 C 0.4413(4) 0.2074(3) 0.26909(16)
H49 H 0.4995 0.2541 0.2722
C126 C 0.4385(4) 0.1296(3) 0.24859(15)
H50 H 0.4935 0.1259 0.2378
C127 C 0.3541(4) 0.0612(3) 0.24521(14)
C128 C 0.2718(3) 0.0704(3) 0.26114(14)
C129 C 0.7934(5) 0.5982(3) 0.02783(19)
C130 C 0.8174(6) 0.6774(4) 0.0524(2)
H51 H 0.7765 0.7032 0.0504
C131 C 0.9010(7) 0.7164(4) 0.0793(2)
H52 H 0.9161 0.7689 0.0954
C132 C 0.9645(6) 0.6805(4) 0.0833(2)
H53 H 1.0210 0.7088 0.1019
C133 C 0.9431(5) 0.6010(4) 0.05915(19)
H54 H 0.9850 0.5763 0.0615
C134 C 0.8597(4) 0.5612(3) 0.03220(17)
C135 C 0.8165(4) 0.4794(3) 0.00247(16)
C136 C 0.8424(4) 0.4150(3) -0.00811(16)
H55 H 0.8993 0.4180 0.0049
C137 C 0.7826(4) 0.3447(3) -0.03861(16)
H56 H 0.8014 0.3018 -0.0459
C138 C 0.6968(4) 0.3369(3) -0.05819(17)
H57 H 0.6591 0.2895 -0.0784
C139 C 0.6663(4) 0.4014(3) -0.04736(17)
C140 C 0.5800(4) 0.4042(4) -0.0635(2)
H58 H 0.5353 0.3599 -0.0835
C141 C 0.5638(5) 0.4731(5) -0.0491(2)
H59 H 0.5073 0.4739 -0.0599
C142 C 0.6272(5) 0.5418(4) -0.0192(2)
H60 H 0.6127 0.5868 -0.0103
C143 C 0.7123(5) 0.5419(4) -0.00293(19)
C144 C 0.7288(4) 0.4710(3) -0.01753(17)
C145 C 0.7043(3) 0.8901(3) 0.98925(13)
C146 C 0.6816(4) 0.8068(3) 0.98307(14)
H61 H 0.7265 0.7866 0.9736
C147 C 0.5898(4) 0.7541(3) 0.99146(16)
H62 H 0.5734 0.6978 0.9875
C148 C 0.5218(4) 0.7830(3) 1.00565(15)
H63 H 0.4606 0.7461 1.0107
C149 C 0.5451(3) 0.8673(3) 1.01241(14)
H64 H 0.5002 0.8872 1.0223
C150 C 0.6357(3) 0.9205(3) 1.00418(13)
C151 C 0.6813(3) 1.0117(3) 1.00833(13)
C152 C 0.6513(4) 1.0731(3) 1.01959(14)
H65 H 0.5891 1.0613 1.0278
C153 C 0.7173(4) 1.1555(3) 1.01838(15)
H66 H 0.6974 1.1976 1.0262
C154 C 0.8088(4) 1.1750(3) 1.00621(14)
H67 H 0.8500 1.2298 1.0062
C155 C 0.8420(4) 1.1121(3) 0.99350(14)
C156 C 0.9330(4) 1.1203(3) 0.97808(14)
H68 H 0.9803 1.1721 0.9760
C157 C 0.9500(4) 1.0520(3) 0.96647(15)
H69 H 1.0098 1.0589 0.9566
C158 C 0.8818(3) 0.9710(3) 0.96850(14)
H70 H 0.8964 0.9259 0.9601
C159 C 0.7937(3) 0.9608(3) 0.98323(13)
C160 C 0.7756(3) 1.0317(3) 0.99513(13)
C161 C 0.2097(3) 0.3953(3) 0.24416(14)
C162 C 0.1887(4) 0.3116(3) 0.23499(15)
H71 H 0.2350 0.2930 0.2411
C163 C 0.0963(4) 0.2560(3) 0.21646(15)
H72 H 0.0814 0.1999 0.2105
C164 C 0.0267(4) 0.2825(3) 0.20680(15)
H73 H -0.0339 0.2444 0.1942
C165 C 0.0473(4) 0.3662(3) 0.21595(14)
H74 H 0.0008 0.3843 0.2095
C166 C 0.1381(4) 0.4223(3) 0.23483(14)
C167 C 0.1808(4) 0.5132(3) 0.24841(14)
C168 C 0.1482(4) 0.5742(3) 0.24911(14)
H75 H 0.0854 0.5614 0.2387
C169 C 0.2130(4) 0.6562(3) 0.26603(15)
H76 H 0.1911 0.6973 0.2667
C170 C 0.3063(4) 0.6789(3) 0.28149(15)
H77 H 0.3463 0.7342 0.2920
C171 C 0.3420(4) 0.6178(3) 0.28136(14)
C172 C 0.4345(4) 0.6286(3) 0.29750(15)
H78 H 0.4811 0.6813 0.3089
C173 C 0.4554(4) 0.5610(3) 0.29631(15)
H79 H 0.5163 0.5696 0.3073
C174 C 0.3885(4) 0.4796(3) 0.27912(15)
H80 H 0.4049 0.4354 0.2786
C175 C 0.2991(4) 0.4676(3) 0.26336(14)
C176 C 0.2772(3) 0.5362(3) 0.26482(14)
loop_
_geom_bond_atom_site_label_1
_geom_bond_atom_site_label_2
_geom_bond_site_symmetry_1
_geom_bond_site_symmetry_2
C1 C2 1_555 1_555
C2 C3 1_555 1_555
C3 C4 1_555 1_555
C4 C5 1_555 1_555
C5 C6 1_555 1_555
C6 C1 1_555 1_555
F1 C3 1_555 1_555
F2 C4 1_555 1_555
F3 C5 1_555 1_555
F4 C6 1_555 1_555
I1 C1 1_555 1_555
I2 C2 1_555 1_555
C7 C8 1_555 1_555
C8 C9 1_555 1_555
C9 C10 1_555 1_555
C10 C11 1_555 1_555
C11 C12 1_555 1_555
C12 C7 1_555 1_555
F5 C9 1_555 1_555
F6 C10 1_555 1_555
F7 C11 1_555 1_555
F8 C12 1_555 1_555
I3 C7 1_555 1_555
I4 C8 1_555 1_555
C13 C14 1_555 1_555
C14 C15 1_555 1_555
C15 C16 1_555 1_555
C16 C17 1_555 1_555
C17 C18 1_555 1_555
C18 C13 1_555 1_555
F9 C15 1_555 1_555
F10 C16 1_555 1_555
F11 C17 1_555 1_555
F12 C18 1_555 1_555
I5 C13 1_555 1_555
I6 C14 1_555 1_555
C19 C20 1_555 1_555
C20 C21 1_555 1_555
C21 C22 1_555 1_555
C22 C23 1_555 1_555
C23 C24 1_555 1_555
C24 C19 1_555 1_555
F13 C21 1_555 1_555
F14 C22 1_555 1_555
F15 C23 1_555 1_555
F16 C24 1_555 1_555
I7 C19 1_555 1_555
I8 C20 1_555 1_555
C25 C26 1_555 1_555
C26 C27 1_555 1_555
C27 C28 1_555 1_555
C28 C29 1_555 1_555
C29 C30 1_555 1_555
C30 C25 1_555 1_555
F17 C27 1_555 1_555
F18 C28 1_555 1_555
F19 C29 1_555 1_555
F20 C30 1_555 1_555
I9 C25 1_555 1_555
I10 C26 1_555 1_555
C31 C32 1_555 1_555
C32 C33 1_555 1_555
C33 C34 1_555 1_555
C34 C35 1_555 1_555
C35 C36 1_555 1_555
C36 C31 1_555 1_555
F21 C33 1_555 1_555
F22 C34 1_555 1_555
F23 C35 1_555 1_555
F24 C36 1_555 1_555
I11 C31 1_555 1_555
I12 C32 1_555 1_555
C37 C38 1_555 1_555
C38 C39 1_555 1_555
C39 C40 1_555 1_555
C40 C41 1_555 1_555
C41 C42 1_555 1_555
C42 C37 1_555 1_555
F25 C42 1_555 1_555
F26 C41 1_555 1_555
F27 C40 1_555 1_555
F28 C39 1_555 1_555
I13 C37 1_555 1_555
I14 C38 1_555 1_555
C43 C44 1_555 1_555
C44 C45 1_555 1_555
C45 C46 1_555 1_555
C46 C47 1_555 1_555
C47 C48 1_555 1_555
C48 C43 1_555 1_555
F29 C45 1_555 1_555
F30 C46 1_555 1_555
F31 C47 1_555 1_555
F32 C48 1_555 1_555
I15 C43 1_555 1_555
I16 C44 1_555 1_555
C49 C50 1_555 1_555
C50 H1 1_555 1_555
C51 C50 1_555 1_555
H2 C51 1_555 1_555
C52 C51 1_555 1_555
H3 C52 1_555 1_555
C53 C52 1_555 1_555
H4 C53 1_555 1_555
C54 C49 1_555 1_555
C55 C54 1_555 1_555
C56 C55 1_555 1_555
H5 C56 1_555 1_555
C57 C56 1_555 1_555
H6 C57 1_555 1_555
C58 C57 1_555 1_555
H7 C58 1_555 1_555
C59 C58 1_555 1_555
C60 C59 1_555 1_555
H8 C60 1_555 1_555
C61 C60 1_555 1_555
H9 C61 1_555 1_555
C62 C61 1_555 1_555
H10 C62 1_555 1_555
C63 C49 1_555 1_555
C64 C55 1_555 1_555
C65 C66 1_555 1_555
C66 H11 1_555 1_555
C67 C66 1_555 1_555
H12 C67 1_555 1_555
C68 C67 1_555 1_555
H13 C68 1_555 1_555
C69 C68 1_555 1_555
H14 C69 1_555 1_555
C70 C65 1_555 1_555
C71 C70 1_555 1_555
C72 C71 1_555 1_555
H15 C72 1_555 1_555
C73 C72 1_555 1_555
H16 C73 1_555 1_555
C74 C73 1_555 1_555
H17 C74 1_555 1_555
C75 C74 1_555 1_555
C76 C75 1_555 1_555
H18 C76 1_555 1_555
C77 C76 1_555 1_555
H19 C77 1_555 1_555
C78 C77 1_555 1_555
H20 C78 1_555 1_555
C79 C65 1_555 1_555
C80 C71 1_555 1_555
C81 C82 1_555 1_555
C82 H21 1_555 1_555
C83 C82 1_555 1_555
H22 C83 1_555 1_555
C84 C83 1_555 1_555
H23 C84 1_555 1_555
C85 C84 1_555 1_555
H24 C85 1_555 1_555
C86 C81 1_555 1_555
C87 C86 1_555 1_555
C88 C87 1_555 1_555
H25 C88 1_555 1_555
C89 C88 1_555 1_555
H26 C89 1_555 1_555
C90 C89 1_555 1_555
H27 C90 1_555 1_555
C91 C90 1_555 1_555
C92 C91 1_555 1_555
H28 C92 1_555 1_555
C93 C92 1_555 1_555
H29 C93 1_555 1_555
C94 C93 1_555 1_555
H30 C94 1_555 1_555
C95 C81 1_555 1_555
C96 C87 1_555 1_555
C97 C98 1_555 1_555
C98 H31 1_555 1_555
C99 C98 1_555 1_555
H32 C99 1_555 1_555
C100 C99 1_555 1_555
H33 C100 1_555 1_555
C101 C100 1_555 1_555
H34 C101 1_555 1_555
C102 C97 1_555 1_555
C103 C102 1_555 1_555
C104 C103 1_555 1_555
H35 C104 1_555 1_555
C105 C104 1_555 1_555
H36 C105 1_555 1_555
C106 C105 1_555 1_555
H37 C106 1_555 1_555
C107 C106 1_555 1_555
C108 C107 1_555 1_555
H38 C108 1_555 1_555
C109 C108 1_555 1_555
H39 C109 1_555 1_555
C110 C109 1_555 1_555
H40 C110 1_555 1_555
C111 C97 1_555 1_555
C112 C103 1_555 1_555
C113 C114 1_555 1_555
C114 H41 1_555 1_555
C115 C114 1_555 1_555
H42 C115 1_555 1_555
C116 C115 1_555 1_555
H43 C116 1_555 1_555
C117 C116 1_555 1_555
H44 C117 1_555 1_555
C118 C113 1_555 1_555
C119 C118 1_555 1_555
C120 C119 1_555 1_555
H45 C120 1_555 1_555
C121 C120 1_555 1_555
H46 C121 1_555 1_555
C122 C121 1_555 1_555
H47 C122 1_555 1_555
C123 C122 1_555 1_555
C124 C123 1_555 1_555
H48 C124 1_555 1_555
C125 C124 1_555 1_555
H49 C125 1_555 1_555
C126 C125 1_555 1_555
H50 C126 1_555 1_555
C127 C113 1_555 1_555
C128 C119 1_555 1_555
C129 C130 1_555 1_555
C130 H51 1_555 1_555
C131 C130 1_555 1_555
H52 C131 1_555 1_555
C132 C131 1_555 1_555
H53 C132 1_555 1_555
C133 C132 1_555 1_555
H54 C133 1_555 1_555
C134 C129 1_555 1_555
C135 C134 1_555 1_555
C136 C135 1_555 1_555
H55 C136 1_555 1_555
C137 C136 1_555 1_555
H56 C137 1_555 1_555
C138 C137 1_555 1_555
H57 C138 1_555 1_555
C139 C138 1_555 1_555
C140 C139 1_555 1_555
H58 C140 1_555 1_555
C141 C140 1_555 1_555
H59 C141 1_555 1_555
C142 C141 1_555 1_555
H60 C142 1_555 1_555
C143 C129 1_555 1_555
C144 C135 1_555 1_555
C145 C146 1_555 1_555
C146 H61 1_555 1_555
C147 C146 1_555 1_555
H62 C147 1_555 1_555
C148 C147 1_555 1_555
H63 C148 1_555 1_555
C149 C148 1_555 1_555
H64 C149 1_555 1_555
C150 C145 1_555 1_555
C151 C150 1_555 1_555
C152 C151 1_555 1_555
H65 C152 1_555 1_555
C153 C152 1_555 1_555
H66 C153 1_555 1_555
C154 C153 1_555 1_555
H67 C154 1_555 1_555
C155 C154 1_555 1_555
C156 C155 1_555 1_555
H68 C156 1_555 1_555
C157 C156 1_555 1_555
H69 C157 1_555 1_555
C158 C157 1_555 1_555
H70 C158 1_555 1_555
C159 C145 1_555 1_555
C160 C151 1_555 1_555
C161 C162 1_555 1_555
C162 H71 1_555 1_555
C163 C162 1_555 1_555
H72 C163 1_555 1_555
C164 C163 1_555 1_555
H73 C164 1_555 1_555
C165 C164 1_555 1_555
H74 C165 1_555 1_555
C166 C161 1_555 1_555
C167 C166 1_555 1_555
C168 C167 1_555 1_555
H75 C168 1_555 1_555
C169 C168 1_555 1_555
H76 C169 1_555 1_555
C170 C169 1_555 1_555
H77 C170 1_555 1_555
C171 C170 1_555 1_555
C172 C171 1_555 1_555
H78 C172 1_555 1_555
C173 C172 1_555 1_555
H79 C173 1_555 1_555
C174 C173 1_555 1_555
H80 C174 1_555 1_555
C175 C161 1_555 1_555
C176 C167 1_555 1_555
C53 C54 1_555 1_555
C59 C64 1_555 1_555
C62 C63 1_555 1_555
C63 C64 1_555 1_555
C69 C70 1_555 1_555
C75 C80 1_555 1_555
C78 C79 1_555 1_555
C79 C80 1_555 1_555
C85 C86 1_555 1_555
C91 C96 1_555 1_555
C94 C95 1_555 1_555
C95 C96 1_555 1_555
C101 C102 1_555 1_555
C107 C112 1_555 1_555
C110 C111 1_555 1_555
C111 C112 1_555 1_555
C117 C118 1_555 1_555
C123 C128 1_555 1_555
C126 C127 1_555 1_555
C127 C128 1_555 1_555
C133 C134 1_555 1_555
C139 C144 1_555 1_555
C142 C143 1_555 1_555
C143 C144 1_555 1_555
C149 C150 1_555 1_555
C155 C160 1_555 1_555
C158 C159 1_555 1_555
C159 C160 1_555 1_555
C165 C166 1_555 1_555
C171 C176 1_555 1_555
C174 C175 1_555 1_555
C175 C176 1_555 1_555

#END
