
#######################################################################
#
#                 Cambridge Crystallographic Data Centre
#                                CCDC 
#
#######################################################################
#
# If this CIF has been generated from an entry in the Cambridge 
# Structural Database, then it will include bibliographic, chemical, 
# crystal, experimental, refinement or atomic coordinate data resulting 
# from the CCDC's data processing and validation procedures.
#
#######################################################################

data_NEHCUB
_chemical_formula_moiety         'C16 H10,C6 F5 I1'
_chemical_name_systematic        
'fluoranthene 1,2,3,4,5-pentafluoro-6-iodobenzene'
_symmetry_cell_setting           monoclinic
_symmetry_space_group_name_H-M   'P 21/n'
_symmetry_Int_Tables_number      14
_space_group_name_Hall           '-P 2yn'
loop_
_symmetry_equiv_pos_site_id
_symmetry_equiv_pos_as_xyz
1 x,y,z
2 1/2-x,1/2+y,1/2-z
3 -x,-y,-z
4 1/2+x,1/2-y,1/2+z
_cell_length_a                   9.5860(6)
_cell_length_b                   15.0356(7)
_cell_length_c                   12.5798(6)
_cell_angle_alpha                90
_cell_angle_beta                 105.274(5)
_cell_angle_gamma                90
_cell_volume                     1749.1
_exptl_crystal_colour            colorless
_exptl_crystal_description       cube
_cell_formula_units_Z            4
loop_
_atom_site_label
_atom_site_type_symbol
_atom_site_fract_x
_atom_site_fract_y
_atom_site_fract_z
C1 C 0.7235(4) 0.3310(2) 0.5014(2)
C2 C 0.7546(4) 0.2427(3) 0.4888(2)
C3 C 0.6814(4) 0.1754(2) 0.5260(2)
C4 C 0.5743(4) 0.1970(3) 0.5768(2)
C5 C 0.5420(4) 0.2844(3) 0.5911(2)
C6 C 0.6157(4) 0.3508(2) 0.5522(2)
F1 F 0.8580(2) 0.22007(15) 0.43915(14)
F2 F 0.7137(2) 0.08981(14) 0.51374(15)
F3 F 0.5028(2) 0.13168(15) 0.61217(15)
F4 F 0.4385(2) 0.30546(15) 0.64030(14)
F5 F 0.5819(2) 0.43548(13) 0.56736(15)
I1 I 0.83589(2) 0.43248(2) 0.44793(2)
C7 C 0.5589(4) 0.3185(2) 0.2034(2)
C8 C 0.6590(4) 0.3441(3) 0.1468(2)
H1 H 0.7167 0.3020 0.1248
C9 C 0.6713(4) 0.4336(3) 0.1238(3)
H2 H 0.7376 0.4515 0.0858
C10 C 0.5856(4) 0.4969(3) 0.1569(2)
H3 H 0.5952 0.5565 0.1404
C11 C 0.4859(4) 0.4725(3) 0.2142(2)
H4 H 0.4297 0.5153 0.2368
C12 C 0.4714(3) 0.3837(2) 0.2371(2)
C13 C 0.3735(3) 0.3360(2) 0.2922(2)
C14 C 0.2660(4) 0.3610(3) 0.3404(2)
H5 H 0.2423 0.4206 0.3450
C15 C 0.1919(4) 0.2928(3) 0.3830(3)
H6 H 0.1188 0.3092 0.4153
C16 C 0.2243(4) 0.2039(3) 0.3782(2)
H7 H 0.1733 0.1616 0.4066
C17 C 0.3362(4) 0.1766(2) 0.3295(2)
C18 C 0.3861(4) 0.0889(3) 0.3198(3)
H8 H 0.3437 0.0413 0.3467
C19 C 0.4967(4) 0.0737(2) 0.2708(3)
H9 H 0.5275 0.0156 0.2651
C20 C 0.5651(4) 0.1444(3) 0.2288(2)
H10 H 0.6401 0.1328 0.1966
C21 C 0.5189(3) 0.2299(2) 0.2365(2)
C22 C 0.4056(3) 0.2442(2) 0.2878(2)
loop_
_geom_bond_atom_site_label_1
_geom_bond_atom_site_label_2
_geom_bond_site_symmetry_1
_geom_bond_site_symmetry_2
C1 C2 1_555 1_555
C2 C3 1_555 1_555
C3 C4 1_555 1_555
C4 C5 1_555 1_555
C5 C6 1_555 1_555
C6 C1 1_555 1_555
F1 C2 1_555 1_555
F2 C3 1_555 1_555
F3 C4 1_555 1_555
F4 C5 1_555 1_555
F5 C6 1_555 1_555
I1 C1 1_555 1_555
C7 C8 1_555 1_555
C8 H1 1_555 1_555
C9 C8 1_555 1_555
H2 C9 1_555 1_555
C10 C9 1_555 1_555
H3 C10 1_555 1_555
C11 C10 1_555 1_555
H4 C11 1_555 1_555
C12 C7 1_555 1_555
C13 C12 1_555 1_555
C14 C13 1_555 1_555
H5 C14 1_555 1_555
C15 C14 1_555 1_555
H6 C15 1_555 1_555
C16 C15 1_555 1_555
H7 C16 1_555 1_555
C17 C16 1_555 1_555
C18 C17 1_555 1_555
H8 C18 1_555 1_555
C19 C18 1_555 1_555
H9 C19 1_555 1_555
C20 C19 1_555 1_555
H10 C20 1_555 1_555
C21 C7 1_555 1_555
C22 C13 1_555 1_555
C11 C12 1_555 1_555
C17 C22 1_555 1_555
C20 C21 1_555 1_555
C21 C22 1_555 1_555

#END
