
#######################################################################
#
#                 Cambridge Crystallographic Data Centre
#                                CCDC 
#
#######################################################################
#
# If this CIF has been generated from an entry in the Cambridge 
# Structural Database, then it will include bibliographic, chemical, 
# crystal, experimental, refinement or atomic coordinate data resulting 
# from the CCDC's data processing and validation procedures.
#
#######################################################################

data_NEHCIP
_chemical_formula_moiety         'C16 H10,C6 F4 I2'
_chemical_name_systematic        
'fluoranthene 1,2,4,5-tetrafluoro-3,6-diiodobenzene'
_symmetry_cell_setting           monoclinic
_symmetry_space_group_name_H-M   'P 21/c'
_symmetry_Int_Tables_number      14
_space_group_name_Hall           '-P 2ybc'
loop_
_symmetry_equiv_pos_site_id
_symmetry_equiv_pos_as_xyz
1 x,y,z
2 -x,1/2+y,1/2-z
3 -x,-y,-z
4 x,1/2-y,1/2+z
_cell_length_a                   8.3808(6)
_cell_length_b                   18.0644(10)
_cell_length_c                   12.8815(10)
_cell_angle_alpha                90
_cell_angle_beta                 105.561(9)
_cell_angle_gamma                90
_cell_volume                     1878.7
_exptl_crystal_colour            colorless
_exptl_crystal_description       block
_cell_formula_units_Z            4
loop_
_atom_site_label
_atom_site_type_symbol
_atom_site_fract_x
_atom_site_fract_y
_atom_site_fract_z
I1 I 0.15906(4) 0.720205(14) 0.26384(2)
I2 I 0.58163(4) 1.053514(15) 0.27178(3)
F1 F 0.3901(3) 0.81478(13) 0.45519(17)
F2 F 0.1779(3) 0.83480(13) 0.07682(18)
F3 F 0.5607(3) 0.93896(12) 0.45803(18)
F4 F 0.3419(3) 0.96142(13) 0.08110(19)
C1 C 0.2820(5) 0.8207(2) 0.2660(3)
C2 C 0.2706(5) 0.8600(2) 0.1725(3)
C3 C 0.4652(6) 0.9145(2) 0.3630(3)
C4 C 0.4535(6) 0.9545(2) 0.2698(3)
C5 C 0.3778(6) 0.8496(2) 0.3617(3)
C6 C 0.3572(6) 0.9261(2) 0.1752(3)
C7 C 1.1524(6) 0.4278(2) 0.8130(3)
H1 H 1.2247 0.3921 0.8511
C8 C 1.0045(5) 0.5404(2) 0.8103(3)
C9 C 0.6139(6) 0.7195(2) 0.6506(3)
H2 H 0.5468 0.7611 0.6450
C10 C 1.0865(6) 0.4201(2) 0.7024(3)
H3 H 1.1172 0.3798 0.6671
C11 C 0.9750(6) 0.4720(2) 0.6434(3)
H4 H 0.9294 0.4661 0.5697
C12 C 1.1112(6) 0.4884(2) 0.8673(3)
H5 H 1.1555 0.4935 0.9413
C13 C 0.7244(5) 0.7003(2) 0.7515(3)
C14 C 0.8200(6) 0.6371(2) 0.7524(3)
C15 C 0.9334(5) 0.5325(2) 0.6971(3)
C16 C 0.7457(6) 0.7360(2) 0.8516(3)
H6 H 0.6836 0.7779 0.8563
C17 C 0.8161(5) 0.5939(2) 0.6596(3)
C18 C 0.9334(5) 0.6090(2) 0.8448(3)
C19 C 0.7078(6) 0.6133(2) 0.5639(3)
H7 H 0.7009 0.5857 0.5019
C20 C 0.6061(6) 0.6764(2) 0.5610(3)
H8 H 0.5313 0.6893 0.4961
C21 C 0.8570(6) 0.7095(2) 0.9421(3)
H9 H 0.8701 0.7347 1.0068
C22 C 0.9533(6) 0.6449(2) 0.9406(3)
H10 H 1.0277 0.6276 1.0030
loop_
_geom_bond_atom_site_label_1
_geom_bond_atom_site_label_2
_geom_bond_site_symmetry_1
_geom_bond_site_symmetry_2
I1 C1 1_555 1_555
I2 C4 1_555 1_555
F1 C5 1_555 1_555
F2 C2 1_555 1_555
F3 C3 1_555 1_555
F4 C6 1_555 1_555
C1 C2 1_555 1_555
C2 C6 1_555 1_555
C3 C4 1_555 1_555
C4 C6 1_555 1_555
C5 C1 1_555 1_555
C7 H1 1_555 1_555
C8 C12 1_555 1_555
C9 H2 1_555 1_555
C10 C7 1_555 1_555
H3 C10 1_555 1_555
C11 C10 1_555 1_555
H4 C11 1_555 1_555
C12 C7 1_555 1_555
H5 C12 1_555 1_555
C13 C9 1_555 1_555
C14 C13 1_555 1_555
C15 C8 1_555 1_555
C16 C13 1_555 1_555
H6 C16 1_555 1_555
C17 C14 1_555 1_555
C18 C8 1_555 1_555
C19 C17 1_555 1_555
H7 C19 1_555 1_555
C20 C9 1_555 1_555
H8 C20 1_555 1_555
C21 C16 1_555 1_555
H9 C21 1_555 1_555
C22 C18 1_555 1_555
H10 C22 1_555 1_555
C3 C5 1_555 1_555
C11 C15 1_555 1_555
C14 C18 1_555 1_555
C15 C17 1_555 1_555
C19 C20 1_555 1_555
C21 C22 1_555 1_555

#END
