
#######################################################################
#
#                 Cambridge Crystallographic Data Centre
#                                CCDC 
#
#######################################################################
#
# If this CIF has been generated from an entry in the Cambridge 
# Structural Database, then it will include bibliographic, chemical, 
# crystal, experimental, refinement or atomic coordinate data resulting 
# from the CCDC's data processing and validation procedures.
#
#######################################################################

data_NEHDEM
_chemical_formula_moiety         'C16 H10,C6 Br1 F5'
_chemical_name_systematic        
'1-bromo-2,3,4,5,6-pentafluorobenzene fluoranthene'
_symmetry_cell_setting           orthorhombic
_symmetry_space_group_name_H-M   'P 21 21 21'
_symmetry_Int_Tables_number      19
_space_group_name_Hall           'P 2ac 2ab'
loop_
_symmetry_equiv_pos_site_id
_symmetry_equiv_pos_as_xyz
1 x,y,z
2 1/2-x,-y,1/2+z
3 -x,1/2+y,1/2-z
4 1/2+x,1/2-y,-z
_cell_length_a                   7.5813(6)
_cell_length_b                   7.9328(5)
_cell_length_c                   28.450(3)
_cell_angle_alpha                90
_cell_angle_beta                 90
_cell_angle_gamma                90
_cell_volume                     1711.01
_exptl_crystal_colour            colorless
_exptl_crystal_description       plate
_cell_formula_units_Z            4
loop_
_atom_site_label
_atom_site_type_symbol
_atom_site_fract_x
_atom_site_fract_y
_atom_site_fract_z
Br1 Br 0.49420(8) 0.29076(7) 0.68589(2)
F1 F 0.3367(4) -0.0427(4) 0.71806(10)
F2 F 0.4442(4) -0.3624(4) 0.58192(11)
F3 F 0.6355(4) 0.1995(4) 0.58919(11)
F4 F 0.3123(4) -0.3364(4) 0.67049(12)
F5 F 0.6065(4) -0.0939(5) 0.54199(10)
C1 C 0.5543(6) 0.0692(7) 0.60952(18)
C2 C 0.4852(8) 0.0851(6) 0.65430(17)
C3 C 0.4042(7) -0.0528(7) 0.67438(17)
C4 C 0.3917(6) -0.2026(8) 0.65087(19)
C5 C 0.4596(6) -0.2156(7) 0.60572(19)
C6 C 0.5396(6) -0.0797(7) 0.58589(18)
C7 C 0.5124(8) 0.4091(6) 0.35866(15)
C8 C 0.5950(6) 0.3690(7) 0.40521(17)
C9 C 0.4837(6) 0.3221(6) 0.31804(16)
H1 H 0.5168 0.2097 0.3151
C10 C 0.4994(8) 0.6498(6) 0.40643(16)
C11 C 0.4593(6) 0.5786(6) 0.36193(17)
C12 C 0.6780(6) 0.2238(7) 0.42079(18)
H2 H 0.6835 0.1284 0.4019
C13 C 0.5874(7) 0.5159(7) 0.43342(18)
C14 C 0.4009(7) 0.4096(8) 0.2801(2)
H3 H 0.3807 0.3527 0.2520
C15 C 0.3506(7) 0.5745(8) 0.28376(19)
H4 H 0.2971 0.6270 0.2582
C16 C 0.3782(6) 0.6666(7) 0.32551(18)
C17 C 0.6621(7) 0.5141(8) 0.47795(19)
H5 H 0.6575 0.6087 0.4972
C18 C 0.7532(7) 0.2241(8) 0.46553(19)
H6 H 0.8093 0.1280 0.4768
C19 C 0.3711(7) 0.9059(7) 0.3781(2)
H7 H 0.3409 1.0177 0.3836
C20 C 0.4553(6) 0.8139(7) 0.4143(2)
H8 H 0.4802 0.8646 0.4430
C21 C 0.7443(7) 0.3662(8) 0.49301(18)
H9 H 0.7949 0.3638 0.5228
C22 C 0.3327(7) 0.8375(8) 0.3356(2)
H10 H 0.2762 0.9023 0.3129
loop_
_geom_bond_atom_site_label_1
_geom_bond_atom_site_label_2
_geom_bond_site_symmetry_1
_geom_bond_site_symmetry_2
Br1 C2 1_555 1_555
F1 C3 1_555 1_555
F2 C5 1_555 1_555
F3 C1 1_555 1_555
F4 C4 1_555 1_555
F5 C6 1_555 1_555
C1 C2 1_555 1_555
C2 C3 1_555 1_555
C3 C4 1_555 1_555
C4 C5 1_555 1_555
C5 C6 1_555 1_555
C6 C1 1_555 1_555
C7 C8 1_555 1_555
C8 C12 1_555 1_555
C9 C7 1_555 1_555
H1 C9 1_555 1_555
C10 C11 1_555 1_555
C11 C7 1_555 1_555
C12 H2 1_555 1_555
C13 C8 1_555 1_555
C14 C9 1_555 1_555
H3 C14 1_555 1_555
C15 C14 1_555 1_555
H4 C15 1_555 1_555
C16 C11 1_555 1_555
C17 C13 1_555 1_555
H5 C17 1_555 1_555
C18 C12 1_555 1_555
H6 C18 1_555 1_555
C19 H7 1_555 1_555
C20 C10 1_555 1_555
H8 C20 1_555 1_555
C21 C17 1_555 1_555
H9 C21 1_555 1_555
C22 C16 1_555 1_555
H10 C22 1_555 1_555
C10 C13 1_555 1_555
C15 C16 1_555 1_555
C18 C21 1_555 1_555
C19 C20 1_555 1_555
C19 C22 1_555 1_555

#END
