
#######################################################################
#
#                 Cambridge Crystallographic Data Centre
#                                CCDC 
#
#######################################################################
#
# If this CIF has been generated from an entry in the Cambridge 
# Structural Database, then it will include bibliographic, chemical, 
# crystal, experimental, refinement or atomic coordinate data resulting 
# from the CCDC's data processing and validation procedures.
#
#######################################################################

data_NEHDAI
_chemical_formula_moiety         'C16 H10,C6 Br2 F4'
_chemical_name_systematic        
'1,3-dibromo-2,4,5,6-tetrafluorobenzene fluoranthene'
_symmetry_cell_setting           triclinic
_symmetry_space_group_name_H-M   'P -1'
_symmetry_Int_Tables_number      2
_space_group_name_Hall           '-P 1'
loop_
_symmetry_equiv_pos_site_id
_symmetry_equiv_pos_as_xyz
1 x,y,z
2 -x,-y,-z
_cell_length_a                   6.8502(7)
_cell_length_b                   8.0650(7)
_cell_length_c                   17.0969(16)
_cell_angle_alpha                97.180(8)
_cell_angle_beta                 100.583(8)
_cell_angle_gamma                100.330(8)
_cell_volume                     901.172
_exptl_crystal_colour            colorless
_exptl_crystal_description       cube
_cell_formula_units_Z            2
loop_
_atom_site_label
_atom_site_type_symbol
_atom_site_fract_x
_atom_site_fract_y
_atom_site_fract_z
Br1 Br 0.38192(9) 0.98183(9) 0.89749(3)
Br2 Br 0.28471(10) 0.93638(10) 0.55950(4)
F1 F 0.3738(5) 1.0970(4) 0.73532(19)
F2 F 0.1841(5) 0.5580(5) 0.57056(18)
F3 F 0.2586(5) 0.5950(5) 0.84889(19)
F4 F 0.1771(5) 0.4061(4) 0.7012(2)
C1 C 0.3257(7) 0.9265(7) 0.7272(3)
C2 C 0.3192(8) 0.8481(7) 0.7940(3)
C3 C 0.2317(8) 0.6563(8) 0.6433(3)
C4 C 0.2684(8) 0.6733(7) 0.7846(3)
C5 C 0.2809(8) 0.8313(8) 0.6506(3)
C6 C 0.2241(8) 0.5769(8) 0.7098(3)
C7 C 0.2256(8) 0.2575(7) 0.2615(3)
C8 C 0.1261(8) -0.0188(7) 0.1799(3)
H1 H 0.0939 -0.0904 0.1303
C9 C 0.1820(8) 0.1553(7) 0.1849(3)
C10 C 0.2167(8) 0.1945(7) 0.3333(3)
C11 C 0.3069(8) 0.5767(7) 0.1284(3)
H2 H 0.3485 0.6881 0.1562
C12 C 0.2078(7) 0.2740(7) 0.1270(3)
C13 C 0.1187(8) -0.0871(8) 0.2524(3)
H3 H 0.0834 -0.2049 0.2495
C14 C 0.2788(8) 0.4329(7) 0.2558(3)
C15 C 0.2693(8) 0.4422(7) 0.1696(3)
C16 C 0.1847(7) 0.2434(7) 0.0435(3)
H4 H 0.1444 0.1325 0.0152
C17 C 0.2822(9) 0.5445(8) 0.0452(3)
H5 H 0.3062 0.6354 0.0173
C18 C 0.1615(8) 0.0146(7) 0.3260(3)
H6 H 0.1543 -0.0350 0.3719
C19 C 0.2678(8) 0.3192(9) 0.4038(3)
H7 H 0.2630 0.2852 0.4536
C20 C 0.3310(8) 0.5495(8) 0.3259(3)
H8 H 0.3700 0.6656 0.3247
C21 C 0.3242(8) 0.4893(8) 0.3999(3)
H9 H 0.3593 0.5678 0.4474
C22 C 0.2225(8) 0.3801(8) 0.0030(3)
H10 H 0.2077 0.3611 -0.0527
loop_
_geom_bond_atom_site_label_1
_geom_bond_atom_site_label_2
_geom_bond_site_symmetry_1
_geom_bond_site_symmetry_2
Br1 C2 1_555 1_555
Br2 C5 1_555 1_555
F1 C1 1_555 1_555
F2 C3 1_555 1_555
F3 C4 1_555 1_555
F4 C6 1_555 1_555
C1 C2 1_555 1_555
C2 C4 1_555 1_555
C3 C5 1_555 1_555
C4 C6 1_555 1_555
C5 C1 1_555 1_555
C6 C3 1_555 1_555
C7 C9 1_555 1_555
C8 H1 1_555 1_555
C9 C8 1_555 1_555
C10 C7 1_555 1_555
C11 H2 1_555 1_555
C12 C9 1_555 1_555
C13 C8 1_555 1_555
H3 C13 1_555 1_555
C14 C7 1_555 1_555
C15 C11 1_555 1_555
C16 C12 1_555 1_555
H4 C16 1_555 1_555
C17 C11 1_555 1_555
H5 C17 1_555 1_555
C18 C10 1_555 1_555
H6 C18 1_555 1_555
C19 C10 1_555 1_555
H7 C19 1_555 1_555
C20 C14 1_555 1_555
H8 C20 1_555 1_555
C21 C19 1_555 1_555
H9 C21 1_555 1_555
C22 C16 1_555 1_555
H10 C22 1_555 1_555
C12 C15 1_555 1_555
C13 C18 1_555 1_555
C14 C15 1_555 1_555
C17 C22 1_555 1_555
C20 C21 1_555 1_555

#END
