
#######################################################################
#
#                 Cambridge Crystallographic Data Centre
#                                CCDC 
#
#######################################################################
#
# If this CIF has been generated from an entry in the Cambridge 
# Structural Database, then it will include bibliographic, chemical, 
# crystal, experimental, refinement or atomic coordinate data resulting 
# from the CCDC's data processing and validation procedures.
#
#######################################################################

data_NEHDIQ
_chemical_formula_moiety         'C16 H10,C6 Cl1 F5'
_chemical_name_systematic        
'1-chloro-2,3,4,5,6-pentafluorobenzene fluoranthene'
_symmetry_cell_setting           orthorhombic
_symmetry_space_group_name_H-M   'P 21 21 21'
_symmetry_Int_Tables_number      19
_space_group_name_Hall           'P 2ac 2ab'
loop_
_symmetry_equiv_pos_site_id
_symmetry_equiv_pos_as_xyz
1 x,y,z
2 1/2-x,-y,1/2+z
3 -x,1/2+y,1/2-z
4 1/2+x,1/2-y,-z
_cell_length_a                   7.5282(2)
_cell_length_b                   7.8131(2)
_cell_length_c                   28.2918(9)
_cell_angle_alpha                90
_cell_angle_beta                 90
_cell_angle_gamma                90
_cell_volume                     1664.08
_exptl_crystal_colour            colorless
_exptl_crystal_description       block
_cell_formula_units_Z            4
loop_
_atom_site_label
_atom_site_type_symbol
_atom_site_fract_x
_atom_site_fract_y
_atom_site_fract_z
Cl1 Cl 0.50869(6) 0.27772(5) 0.313973(16)
F1 F 0.36801(13) 0.20906(12) 0.40906(4)
F2 F 0.39362(13) -0.08706(14) 0.45793(3)
F3 F 0.55533(14) -0.36298(13) 0.41835(4)
F4 F 0.66417(14) -0.04689(14) 0.28018(3)
F5 F 0.68727(14) -0.34300(13) 0.32917(4)
C1 C 0.5417(2) -0.2164(2) 0.39393(6)
C2 C 0.5968(2) -0.0549(2) 0.32409(6)
C3 C 0.4473(2) 0.0741(2) 0.38910(6)
C4 C 0.4596(2) -0.0768(2) 0.41404(6)
C5 C 0.6099(2) -0.2059(2) 0.34870(6)
C6 C 0.5174(2) 0.0874(2) 0.34394(6)
C7 C 0.4138(2) 0.5148(2) 0.56699(6)
C8 C 0.2451(2) 0.2202(2) 0.53545(6)
H1 H 0.1881 0.1224 0.5244
C9 C 0.4049(2) 0.3668(2) 0.59604(6)
C10 C 0.5035(2) 0.65185(19) 0.59395(6)
C11 C 0.6276(2) 0.6709(2) 0.67513(6)
C12 C 0.3205(2) 0.2204(2) 0.58030(6)
H2 H 0.3143 0.1236 0.5994
C13 C 0.5442(2) 0.5814(2) 0.63866(6)
C14 C 0.4890(2) 0.4084(2) 0.64192(6)
C15 C 0.6726(2) 0.8443(2) 0.66506(6)
H3 H 0.7278 0.9107 0.6880
C16 C 0.5202(2) 0.3218(2) 0.68327(6)
H4 H 0.4868 0.2078 0.6865
C17 C 0.3383(2) 0.5134(2) 0.52214(6)
H5 H 0.3440 0.6095 0.5028
C18 C 0.2538(2) 0.3645(2) 0.50695(6)
H6 H 0.2023 0.3618 0.4771
C19 C 0.5497(2) 0.8193(2) 0.58512(6)
H7 H 0.5258 0.8695 0.5560
C20 C 0.6573(2) 0.5776(2) 0.71753(6)
H8 H 0.7127 0.6305 0.7430
C21 C 0.6047(2) 0.4099(2) 0.72099(6)
H9 H 0.6251 0.3517 0.7491
C22 C 0.6350(2) 0.9135(2) 0.62180(7)
H10 H 0.6664 1.0267 0.6161
loop_
_geom_bond_atom_site_label_1
_geom_bond_atom_site_label_2
_geom_bond_site_symmetry_1
_geom_bond_site_symmetry_2
Cl1 C6 1_555 1_555
F1 C3 1_555 1_555
F2 C4 1_555 1_555
F3 C1 1_555 1_555
F4 C2 1_555 1_555
F5 C5 1_555 1_555
C1 C4 1_555 1_555
C2 C5 1_555 1_555
C3 C4 1_555 1_555
C5 C1 1_555 1_555
C6 C2 1_555 1_555
C7 C9 1_555 1_555
C8 H1 1_555 1_555
C9 C12 1_555 1_555
C10 C7 1_555 1_555
C11 C13 1_555 1_555
C12 C8 1_555 1_555
H2 C12 1_555 1_555
C13 C10 1_555 1_555
C14 C9 1_555 1_555
C15 C11 1_555 1_555
H3 C15 1_555 1_555
C16 C14 1_555 1_555
H4 C16 1_555 1_555
C17 C7 1_555 1_555
H5 C17 1_555 1_555
C18 C8 1_555 1_555
H6 C18 1_555 1_555
C19 C10 1_555 1_555
H7 C19 1_555 1_555
C20 C11 1_555 1_555
H8 C20 1_555 1_555
C21 C16 1_555 1_555
H9 C21 1_555 1_555
C22 C15 1_555 1_555
H10 C22 1_555 1_555
C3 C6 1_555 1_555
C13 C14 1_555 1_555
C17 C18 1_555 1_555
C19 C22 1_555 1_555
C20 C21 1_555 1_555

#END
