
#######################################################################
#
#                 Cambridge Crystallographic Data Centre
#                                CCDC 
#
#######################################################################
#
# If this CIF has been generated from an entry in the Cambridge 
# Structural Database, then it will include bibliographic, chemical, 
# crystal, experimental, refinement or atomic coordinate data resulting 
# from the CCDC's data processing and validation procedures.
#
#######################################################################

data_NEHHUF
_chemical_formula_moiety         'C54 H68 N4 O4,C1 H4 O1'
_chemical_name_systematic        
'1,6,14,22,27,35-hexamethyl-11,17,32,38-tetraoxa-47,49,55,56-tetraazanonacyclo[25.15.4.4^6,22^.1^2,5^.1^12,16^.1^23,26^.1^33,37^.1^43,46^.1^50,53^]hexapentaconta-2,4,12(54),13,15,23,25,33(48),34,36,43,45,50,52-tetradecaene methanol solvate'
_symmetry_cell_setting           orthorhombic
_symmetry_space_group_name_H-M   'P c c n'
_symmetry_Int_Tables_number      56
_space_group_name_Hall           '-P 2ab 2ac'
loop_
_symmetry_equiv_pos_site_id
_symmetry_equiv_pos_as_xyz
1 x,y,z
2 1/2-x,1/2-y,z
3 1/2+x,-y,1/2-z
4 -x,1/2+y,1/2-z
5 -x,-y,-z
6 1/2+x,1/2+y,-z
7 1/2-x,y,1/2+z
8 x,1/2-y,1/2+z
_cell_length_a                   34.4374(8)
_cell_length_b                   10.2869(2)
_cell_length_c                   13.5539(3)
_cell_angle_alpha                90
_cell_angle_beta                 90
_cell_angle_gamma                90
_cell_volume                     4801.52
_exptl_crystal_colour            colorless
_exptl_crystal_description       prism
_cell_formula_units_Z            4
loop_
_atom_site_label
_atom_site_type_symbol
_atom_site_fract_x
_atom_site_fract_y
_atom_site_fract_z
O1 O 0.49360(6) 0.33046(19) 0.52947(15)
O2 O 0.55637(6) -0.07629(19) 0.61374(15)
N1 N 0.73255(7) 0.4667(2) 0.34975(19)
H1 H 0.7375 0.4310 0.2921
N2 N 0.68343(7) 0.1849(2) 0.36890(19)
H2 H 0.6943 0.2011 0.4264
C1 C 0.75985(8) 0.5288(3) 0.4078(2)
C2 C 0.66075(8) 0.4167(3) 0.3439(2)
C3 C 0.47001(8) 0.1973(3) 0.6562(2)
H3 H 0.4505 0.2608 0.6680
C4 C 0.51839(8) 0.3463(3) 0.4444(2)
H4 H 0.5064 0.4098 0.3988
H5 H 0.5204 0.2622 0.4093
C5 C 0.69662(8) 0.4681(3) 0.3942(2)
C6 C 0.55856(8) 0.3923(3) 0.4710(2)
H6 H 0.5680 0.3419 0.5284
H7 H 0.5572 0.4848 0.4909
C7 C 0.52801(9) 0.0165(3) 0.6246(2)
C8 C 0.66543(8) 0.2771(3) 0.3112(2)
C9 C 0.62711(8) 0.4255(3) 0.4200(2)
H8 H 0.6347 0.3750 0.4791
H9 H 0.6246 0.5175 0.4406
C10 C 0.68233(8) 0.0632(3) 0.3249(2)
C11 C 0.58756(8) 0.3784(3) 0.3868(2)
H10 H 0.5892 0.2862 0.3664
H11 H 0.5787 0.4301 0.3294
C12 C 0.47060(9) 0.0842(3) 0.7120(2)
C13 C 0.50000(9) -0.0060(3) 0.6959(2)
H12 H 0.5009 -0.0835 0.7340
C14 C 0.70172(9) -0.1659(3) 0.2949(2)
H13 H 0.6757 -0.1830 0.2684
H14 H 0.7118 -0.2446 0.3266
H15 H 0.7191 -0.1402 0.2411
C15 C 0.58350(9) -0.0571(3) 0.5342(2)
H16 H 0.6006 0.0178 0.5491
H17 H 0.5692 -0.0379 0.4724
C16 C 0.69943(8) -0.0545(3) 0.3720(2)
C17 C 0.66257(9) 0.0805(3) 0.2379(2)
H18 H 0.6569 0.0145 0.1910
C18 C 0.60750(9) -0.1776(3) 0.5212(2)
H19 H 0.5902 -0.2530 0.5093
H20 H 0.6225 -0.1946 0.5822
C19 C 0.63561(8) -0.1614(3) 0.4336(2)
H21 H 0.6407 -0.2480 0.4044
H22 H 0.6229 -0.1075 0.3824
C20 C 0.70128(9) 0.5329(3) 0.4820(2)
H23 H 0.6814 0.5492 0.5290
C21 C 0.65208(9) 0.2130(3) 0.2296(2)
H24 H 0.6382 0.2510 0.1764
C22 C 0.49752(9) 0.2185(3) 0.5836(2)
C23 C 0.74047(9) 0.5713(3) 0.4908(2)
H25 H 0.7515 0.6181 0.5443
C24 C 0.65148(9) 0.5017(3) 0.2537(2)
H26 H 0.6476 0.5918 0.2749
H27 H 0.6278 0.4697 0.2217
H28 H 0.6731 0.4978 0.2069
C25 C 0.67403(8) -0.0993(3) 0.4613(2)
H29 H 0.6892 -0.1623 0.5009
H30 H 0.6687 -0.0229 0.5037
C26 C 0.43908(9) 0.0583(4) 0.7861(2)
H31 H 0.4370 0.1324 0.8312
H32 H 0.4454 -0.0202 0.8237
H33 H 0.4143 0.0459 0.7517
C27 C 0.52691(9) 0.1278(3) 0.5673(2)
H34 H 0.5459 0.1421 0.5177
O1A O 1.00640(6) 0.16954(19) 0.52947(15)
O2A O 0.94363(6) 0.57629(19) 0.61374(15)
N1A N 0.76745(7) 0.0333(2) 0.34975(19)
H1A H 0.7625 0.0690 0.2921
N2A N 0.81657(7) 0.3151(2) 0.36890(19)
H2A H 0.8057 0.2989 0.4264
C1A C 0.74015(8) -0.0288(3) 0.4078(2)
C2A C 0.83925(8) 0.0833(3) 0.3439(2)
C3A C 1.02999(8) 0.3027(3) 0.6562(2)
H3A H 1.0495 0.2392 0.6680
C4A C 0.98161(8) 0.1537(3) 0.4444(2)
H4A H 0.9936 0.0902 0.3988
H5A H 0.9796 0.2378 0.4093
C5A C 0.80338(8) 0.0319(3) 0.3942(2)
C6A C 0.94144(8) 0.1077(3) 0.4710(2)
H6A H 0.9320 0.1581 0.5284
H7A H 0.9428 0.0152 0.4909
C7A C 0.97199(9) 0.4835(3) 0.6246(2)
C8A C 0.83457(8) 0.2229(3) 0.3112(2)
C9A C 0.87289(8) 0.0745(3) 0.4200(2)
H8A H 0.8653 0.1250 0.4791
H9A H 0.8754 -0.0175 0.4406
C10A C 0.81767(8) 0.4368(3) 0.3249(2)
C11A C 0.91244(8) 0.1216(3) 0.3868(2)
H10A H 0.9108 0.2138 0.3664
H11A H 0.9213 0.0699 0.3294
C12A C 1.02940(9) 0.4158(3) 0.7120(2)
C13A C 1.00000(9) 0.5060(3) 0.6959(2)
H12A H 0.9991 0.5835 0.7340
C14A C 0.79828(9) 0.6659(3) 0.2949(2)
H13A H 0.8243 0.6830 0.2684
H14A H 0.7882 0.7446 0.3266
H15A H 0.7809 0.6402 0.2411
C15A C 0.91650(9) 0.5571(3) 0.5342(2)
H16A H 0.8994 0.4822 0.5491
H17A H 0.9308 0.5379 0.4724
C16A C 0.80057(8) 0.5545(3) 0.3720(2)
C17A C 0.83743(9) 0.4195(3) 0.2379(2)
H18A H 0.8431 0.4855 0.1910
C18A C 0.89250(9) 0.6776(3) 0.5212(2)
H19A H 0.9098 0.7530 0.5093
H20A H 0.8775 0.6946 0.5822
C19A C 0.86439(8) 0.6614(3) 0.4336(2)
H21A H 0.8593 0.7480 0.4044
H22A H 0.8771 0.6075 0.3824
C20A C 0.79872(9) -0.0329(3) 0.4820(2)
H23A H 0.8186 -0.0492 0.5290
C21A C 0.84792(9) 0.2870(3) 0.2296(2)
H24A H 0.8618 0.2490 0.1764
C22A C 1.00248(9) 0.2815(3) 0.5836(2)
C23A C 0.75953(9) -0.0713(3) 0.4908(2)
H25A H 0.7485 -0.1181 0.5443
C24A C 0.84852(9) -0.0017(3) 0.2537(2)
H26A H 0.8524 -0.0918 0.2749
H27A H 0.8722 0.0303 0.2217
H28A H 0.8269 0.0022 0.2069
C25A C 0.82597(8) 0.5993(3) 0.4613(2)
H29A H 0.8108 0.6623 0.5009
H30A H 0.8313 0.5229 0.5037
C26A C 1.06092(9) 0.4417(4) 0.7861(2)
H31A H 1.0630 0.3676 0.8312
H32A H 1.0546 0.5202 0.8237
H33A H 1.0857 0.4541 0.7517
C27A C 0.97309(9) 0.3722(3) 0.5673(2)
H34A H 0.9541 0.3579 0.5177
O3 O 0.7500 0.2500 0.1969(4)
C28 C 0.7500 0.2500 0.1048(7)
O4? O 0.7500 0.2500 0.0189(11)
loop_
_geom_bond_atom_site_label_1
_geom_bond_atom_site_label_2
_geom_bond_site_symmetry_1
_geom_bond_site_symmetry_2
O1 C4 1_555 1_555
O2 C7 1_555 1_555
N1 H1 1_555 1_555
N2 H2 1_555 1_555
C1 N1 1_555 1_555
C2 C5 1_555 1_555
C3 H3 1_555 1_555
C4 H4 1_555 1_555
H5 C4 1_555 1_555
C5 N1 1_555 1_555
C6 C4 1_555 1_555
H6 C6 1_555 1_555
H7 C6 1_555 1_555
C7 C13 1_555 1_555
C8 N2 1_555 1_555
C9 C2 1_555 1_555
H8 C9 1_555 1_555
H9 C9 1_555 1_555
C10 N2 1_555 1_555
C11 C6 1_555 1_555
H10 C11 1_555 1_555
H11 C11 1_555 1_555
C12 C3 1_555 1_555
C13 C12 1_555 1_555
H12 C13 1_555 1_555
C14 H13 1_555 1_555
H14 C14 1_555 1_555
H15 C14 1_555 1_555
C15 O2 1_555 1_555
H16 C15 1_555 1_555
H17 C15 1_555 1_555
C16 C10 1_555 1_555
C17 C10 1_555 1_555
H18 C17 1_555 1_555
C18 C15 1_555 1_555
H19 C18 1_555 1_555
H20 C18 1_555 1_555
C19 C18 1_555 1_555
H21 C19 1_555 1_555
H22 C19 1_555 1_555
C20 C5 1_555 1_555
H23 C20 1_555 1_555
C21 C8 1_555 1_555
H24 C21 1_555 1_555
C22 O1 1_555 1_555
C23 C1 1_555 1_555
H25 C23 1_555 1_555
C24 C2 1_555 1_555
H26 C24 1_555 1_555
H27 C24 1_555 1_555
H28 C24 1_555 1_555
C25 C16 1_555 1_555
H29 C25 1_555 1_555
H30 C25 1_555 1_555
C26 C12 1_555 1_555
H31 C26 1_555 1_555
H32 C26 1_555 1_555
H33 C26 1_555 1_555
C27 C7 1_555 1_555
H34 C27 1_555 1_555
O3 C28 1_555 1_555
O1A C4A 1_555 1_555
O2A C7A 1_555 1_555
N1A H1A 1_555 1_555
N2A H2A 1_555 1_555
C1A C16 1_555 1_555
C2A C5A 1_555 1_555
C3A H3A 1_555 1_555
C4A H4A 1_555 1_555
H5A C4A 1_555 1_555
C5A N1A 1_555 1_555
C6A C4A 1_555 1_555
H6A C6A 1_555 1_555
H7A C6A 1_555 1_555
C7A C13A 1_555 1_555
C8A N2A 1_555 1_555
C9A C2A 1_555 1_555
H8A C9A 1_555 1_555
H9A C9A 1_555 1_555
C10A N2A 1_555 1_555
C11A C6A 1_555 1_555
H10A C11A 1_555 1_555
H11A C11A 1_555 1_555
C12A C3A 1_555 1_555
C13A C12A 1_555 1_555
H12A C13A 1_555 1_555
C14A H13A 1_555 1_555
H14A C14A 1_555 1_555
H15A C14A 1_555 1_555
C15A O2A 1_555 1_555
H16A C15A 1_555 1_555
H17A C15A 1_555 1_555
C16A C1 1_555 1_555
C17A C10A 1_555 1_555
H18A C17A 1_555 1_555
C18A C15A 1_555 1_555
H19A C18A 1_555 1_555
H20A C18A 1_555 1_555
C19A C18A 1_555 1_555
H21A C19A 1_555 1_555
H22A C19A 1_555 1_555
C20A C5A 1_555 1_555
H23A C20A 1_555 1_555
C21A C8A 1_555 1_555
H24A C21A 1_555 1_555
C22A O1A 1_555 1_555
C23A C1A 1_555 1_555
H25A C23A 1_555 1_555
C24A C2A 1_555 1_555
H26A C24A 1_555 1_555
H27A C24A 1_555 1_555
H28A C24A 1_555 1_555
C25A C16A 1_555 1_555
H29A C25A 1_555 1_555
H30A C25A 1_555 1_555
C26A C12A 1_555 1_555
H31A C26A 1_555 1_555
H32A C26A 1_555 1_555
H33A C26A 1_555 1_555
C27A C7A 1_555 1_555
H34A C27A 1_555 1_555
C2 C8 1_555 1_555
C3 C22 1_555 1_555
C9 C11 1_555 1_555
C14 C16 1_555 1_555
C17 C21 1_555 1_555
C19 C25 1_555 1_555
C20 C23 1_555 1_555
C22 C27 1_555 1_555
N1A C1A 1_555 1_555
C2A C8A 1_555 1_555
C3A C22A 1_555 1_555
C9A C11A 1_555 1_555
C10A C16A 1_555 1_555
C14A C16A 1_555 1_555
C17A C21A 1_555 1_555
C19A C25A 1_555 1_555
C20A C23A 1_555 1_555
C22A C27A 1_555 1_555

#END
