
#######################################################################
#
#                 Cambridge Crystallographic Data Centre
#                                CCDC 
#
#######################################################################
#
# If this CIF has been generated from an entry in the Cambridge 
# Structural Database, then it will include bibliographic, chemical, 
# crystal, experimental, refinement or atomic coordinate data resulting 
# from the CCDC's data processing and validation procedures.
#
#######################################################################

data_NEHKOB
_chemical_formula_moiety         'C18 H25 N1 O3 S2'
_chemical_name_systematic        
5-(5-(1,3-Dithian-2-yl)-4,4-dimethyl-2,5-dioxopentyl)-3,4-dimethyl-1H-pyrrole-2-carbaldehyde
_symmetry_cell_setting           monoclinic
_symmetry_space_group_name_H-M   'C 2/c'
_symmetry_Int_Tables_number      15
_space_group_name_Hall           '-C 2yn'
loop_
_symmetry_equiv_pos_site_id
_symmetry_equiv_pos_as_xyz
1 x,y,z
2 1/2+x,1/2+y,z
3 -x,y,1/2-z
4 1/2-x,1/2+y,1/2-z
5 -x,-y,-z
6 1/2-x,1/2-y,-z
7 x,-y,1/2+z
8 1/2+x,1/2-y,1/2+z
_cell_length_a                   35.397(3)
_cell_length_b                   8.1002(7)
_cell_length_c                   13.1578(12)
_cell_angle_alpha                90
_cell_angle_beta                 93.618(2)
_cell_angle_gamma                90
_cell_volume                     3765.12
_exptl_crystal_colour            yellow
_exptl_crystal_description       block
_chemical_melting_point          '142.3-142.9 deg.C'
_cell_formula_units_Z            8
loop_
_atom_site_label
_atom_site_type_symbol
_atom_site_fract_x
_atom_site_fract_y
_atom_site_fract_z
C1 C 0.15288(8) 0.1969(4) 0.4184(2)
H1 H 0.1261 0.2023 0.3891
S1 S 0.15014(3) 0.14568(12) 0.55068(6)
C2 C 0.19828(11) 0.0943(5) 0.5887(3)
H2 H 0.2140 0.1945 0.5829
H3 H 0.1996 0.0616 0.6613
C3 C 0.21520(11) -0.0429(5) 0.5279(3)
H4 H 0.2401 -0.0747 0.5607
H5 H 0.1984 -0.1407 0.5277
C4 C 0.22021(10) 0.0101(5) 0.4197(3)
H6 H 0.2352 -0.0748 0.3861
H7 H 0.2348 0.1144 0.4207
S2 S 0.17609(2) 0.04063(11) 0.34536(6)
C5 C 0.17035(8) 0.3624(4) 0.3962(2)
O1 O 0.19380(6) 0.4239(3) 0.45585(16)
C6 C 0.15999(8) 0.4496(4) 0.2936(2)
C7 C 0.19713(9) 0.4719(5) 0.2393(3)
H8 H 0.1918 0.5318 0.1753
H9 H 0.2078 0.3634 0.2250
H10 H 0.2153 0.5348 0.2833
C8 C 0.13141(9) 0.3588(5) 0.2222(2)
H11 H 0.1073 0.3490 0.2545
H12 H 0.1411 0.2484 0.2078
H13 H 0.1275 0.4207 0.1584
C9 C 0.14447(9) 0.6202(4) 0.3189(2)
H14 H 0.1650 0.6854 0.3540
H15 H 0.1369 0.6776 0.2544
C10 C 0.11104(8) 0.6170(4) 0.3848(2)
O2 O 0.10324(6) 0.4943(3) 0.43136(16)
C11 C 0.08918(8) 0.7773(4) 0.3945(2)
H16 H 0.1043 0.8527 0.4403
H17 H 0.0863 0.8303 0.3267
C12 C 0.05067(8) 0.7571(4) 0.4348(2)
N1 N 0.02299(6) 0.6800(3) 0.37797(18)
H18 H 0.0253 0.6381 0.3170
C13 C 0.03662(8) 0.8062(3) 0.5260(2)
C14 C 0.05692(9) 0.8990(4) 0.6113(2)
H19 H 0.0825 0.9266 0.5925
H20 H 0.0585 0.8304 0.6728
H21 H 0.0431 1.0008 0.6245
C15 C -0.00141(8) 0.7558(3) 0.5229(2)
C16 C -0.02819(9) 0.7832(4) 0.6063(2)
H22 H -0.0282 0.9003 0.6250
H23 H -0.0200 0.7170 0.6660
H24 H -0.0538 0.7501 0.5821
C17 C -0.00967(8) 0.6767(4) 0.4303(2)
C18 C -0.04361(8) 0.6054(4) 0.3882(2)
H25 H -0.0645 0.6006 0.4301
O3 O -0.04821(6) 0.5488(3) 0.30122(16)
loop_
_geom_bond_atom_site_label_1
_geom_bond_atom_site_label_2
_geom_bond_site_symmetry_1
_geom_bond_site_symmetry_2
C1 H1 1_555 1_555
S1 C1 1_555 1_555
C2 S1 1_555 1_555
H2 C2 1_555 1_555
H3 C2 1_555 1_555
C3 C2 1_555 1_555
H4 C3 1_555 1_555
H5 C3 1_555 1_555
C4 C3 1_555 1_555
H6 C4 1_555 1_555
H7 C4 1_555 1_555
S2 C1 1_555 1_555
C5 C1 1_555 1_555
O1 C5 1_555 1_555
C6 C5 1_555 1_555
C7 C6 1_555 1_555
H8 C7 1_555 1_555
H9 C7 1_555 1_555
H10 C7 1_555 1_555
C8 C6 1_555 1_555
H11 C8 1_555 1_555
H12 C8 1_555 1_555
H13 C8 1_555 1_555
C9 C6 1_555 1_555
H14 C9 1_555 1_555
H15 C9 1_555 1_555
C10 C9 1_555 1_555
O2 C10 1_555 1_555
C11 C10 1_555 1_555
H16 C11 1_555 1_555
H17 C11 1_555 1_555
C12 C11 1_555 1_555
N1 C12 1_555 1_555
H18 N1 1_555 1_555
C13 C12 1_555 1_555
C14 C13 1_555 1_555
H19 C14 1_555 1_555
H20 C14 1_555 1_555
H21 C14 1_555 1_555
C15 C13 1_555 1_555
C16 C15 1_555 1_555
H22 C16 1_555 1_555
H23 C16 1_555 1_555
H24 C16 1_555 1_555
C17 N1 1_555 1_555
C18 C17 1_555 1_555
H25 C18 1_555 1_555
O3 C18 1_555 1_555
C4 S2 1_555 1_555
C15 C17 1_555 1_555

#END
