
#######################################################################
#
#                 Cambridge Crystallographic Data Centre
#                                CCDC 
#
#######################################################################
#
# If this CIF has been generated from an entry in the Cambridge 
# Structural Database, then it will include bibliographic, chemical, 
# crystal, experimental, refinement or atomic coordinate data resulting 
# from the CCDC's data processing and validation procedures.
#
#######################################################################

data_NEHMUK
_chemical_formula_moiety         'C38 H56 O2 Si2'
_chemical_name_systematic        
((2,7-Di-t-butyl-14c,14d-dimethyl-9,10,13,14,14c,14d-hexahydrocycloocta[e]pyrene-9,14-diyl)bis(oxy))bis(trimethylsilane)
_symmetry_cell_setting           triclinic
_symmetry_space_group_name_H-M   'P -1'
_symmetry_Int_Tables_number      2
_space_group_name_Hall           '-P 1'
loop_
_symmetry_equiv_pos_site_id
_symmetry_equiv_pos_as_xyz
1 x,y,z
2 -x,-y,-z
_cell_length_a                   10.1203(14)
_cell_length_b                   10.179(2)
_cell_length_c                   17.871(3)
_cell_angle_alpha                90.724(4)
_cell_angle_beta                 94.432(9)
_cell_angle_gamma                94.513(5)
_cell_volume                     1829.45
_exptl_crystal_colour            green
_exptl_crystal_description       plate
_cell_formula_units_Z            2
loop_
_atom_site_label
_atom_site_type_symbol
_atom_site_fract_x
_atom_site_fract_y
_atom_site_fract_z
C1 C 1.5066(4) 0.1298(3) 0.2571(2)
H1 H 1.5203 0.1063 0.3082
C2 C 1.5672(4) 0.0586(4) 0.2040(2)
C3 C 1.5476(4) 0.0912(4) 0.1287(2)
H2 H 1.5875 0.0413 0.0926
C4 C 1.4730(4) 0.1928(4) 0.1039(2)
C5 C 1.4543(5) 0.2282(4) 0.0297(2)
H3 H 1.4899 0.1772 -0.0077
C6 C 1.3860(5) 0.3348(5) 0.0083(2)
H4 H 1.3767 0.3558 -0.0434
C7 C 1.3301(5) 0.4126(5) 0.0596(3)
C8 C 1.2651(5) 0.5228(5) 0.0400(3)
H5 H 1.2566 0.5466 -0.0113
C9 C 1.2117(5) 0.6005(5) 0.0931(3)
C10 C 1.2213(4) 0.5646(4) 0.1681(3)
H6 H 1.1830 0.6184 0.2031
C11 C 1.2838(4) 0.4545(4) 0.1959(2)
C12 C 1.2963(4) 0.4160(3) 0.2715(2)
C13 C 1.3672(4) 0.3066(3) 0.2928(2)
C14 C 1.4279(4) 0.2328(3) 0.2405(2)
C15 C 1.4411(14) 0.2904(13) 0.1621(8)
C16 C 1.5577(9) 0.4021(12) 0.1698(5)
H7 H 1.5389 0.4677 0.2074
H8 H 1.5659 0.4446 0.1213
H9 H 1.6410 0.3638 0.1856
C17 C 1.3103(13) 0.3463(11) 0.1376(5)
C18 C 1.1911(10) 0.2348(11) 0.1314(6)
H10 H 1.1081 0.2740 0.1157
H11 H 1.1831 0.1939 0.1803
H12 H 1.2083 0.1678 0.0942
C19 C 1.6522(5) -0.0539(4) 0.2272(2)
C20 C 1.5756(9) -0.1823(6) 0.2016(5)
H13 H 1.6280 -0.2561 0.2163
H14 H 1.5581 -0.1831 0.1469
H15 H 1.4911 -0.1909 0.2251
C21 C 1.7850(10) -0.0350(11) 0.1904(6)
H16 H 1.8404 -0.1065 0.2052
H17 H 1.8314 0.0498 0.2070
H18 H 1.7677 -0.0362 0.1357
C22 C 1.6857(11) -0.0584(9) 0.3110(4)
H19 H 1.7399 -0.1323 0.3225
H20 H 1.6035 -0.0701 0.3366
H21 H 1.7355 0.0242 0.3284
C23 C 1.1372(5) 0.7206(5) 0.0691(3)
C24 C 0.9923(6) 0.6925(7) 0.0852(5)
H22 H 0.9549 0.6125 0.0576
H23 H 0.9421 0.7670 0.0692
H24 H 0.9867 0.6797 0.1392
C25 C 1.1363(9) 0.7407(8) -0.0167(4)
H25 H 1.0920 0.6625 -0.0432
H26 H 1.2279 0.7543 -0.0309
H27 H 1.0884 0.8180 -0.0304
C26 C 1.1992(9) 0.8395(6) 0.1103(6)
H28 H 1.2920 0.8547 0.0985
H29 H 1.1957 0.8266 0.1644
H30 H 1.1508 0.9159 0.0953
C27 C 1.2378(4) 0.4973(4) 0.3305(2)
H31 H 1.1972 0.5685 0.3008
C28 C 1.3302(7) 0.5707(6) 0.3868(4)
H32 H 1.3148 0.5316 0.4361
H33 H 1.3030 0.6619 0.3888
C29 C 1.4752(6) 0.5804(5) 0.3802(3)
H34 H 1.5165 0.6620 0.3654
C30 C 1.5495(6) 0.4835(6) 0.3935(3)
H35 H 1.6420 0.5048 0.3906
C31 C 1.5125(7) 0.3465(5) 0.4124(3)
H36 H 1.5067 0.3435 0.4674
H37 H 1.5866 0.2937 0.4006
C32 C 1.3879(4) 0.2790(4) 0.3764(2)
H38 H 1.3135 0.3178 0.4004
C33 C 0.9269(14) 0.3568(17) 0.2271(9)
H39 H 0.9694 0.2735 0.2283
H40 H 0.9632 0.4128 0.1881
H41 H 0.8308 0.3388 0.2159
C34 C 0.8820(13) 0.5939(12) 0.3096(9)
H42 H 0.8974 0.6424 0.3576
H43 H 0.7861 0.5763 0.2972
H44 H 0.9208 0.6466 0.2701
C35 C 0.8811(15) 0.3343(14) 0.3937(11)
H45 H 0.8999 0.3798 0.4425
H46 H 0.9194 0.2488 0.3955
H47 H 0.7847 0.3207 0.3822
C36 C 1.1820(8) 0.1666(7) 0.4988(4)
H48 H 1.2505 0.1817 0.5405
H49 H 1.1028 0.1195 0.5169
H50 H 1.1588 0.2515 0.4785
C37 C 1.3038(9) -0.0893(6) 0.4652(4)
H51 H 1.3685 -0.0678 0.5081
H52 H 1.3455 -0.1385 0.4271
H53 H 1.2275 -0.1432 0.4819
C38 C 1.1227(7) 0.0343(9) 0.3440(4)
H54 H 1.1598 -0.0191 0.3060
H55 H 1.0994 0.1181 0.3223
H56 H 1.0429 -0.0133 0.3610
O1 O 1.1258(5) 0.4258(4) 0.3589(3)
O2 O 1.3810(3) 0.1464(3) 0.39534(17)
Si1 Si 0.9586(5) 0.4399(6) 0.3169(3)
Si2 Si 1.2462(3) 0.0664(3) 0.42398(19)
C39? C 1.3801(16) 0.2560(15) 0.1580(9)
C40? C 1.2397(13) 0.1825(11) 0.1422(6)
C41? C 1.3807(14) 0.4012(12) 0.1446(6)
C42? C 1.5241(11) 0.4719(13) 0.1617(6)
C43? C 1.5532(18) -0.1592(17) 0.2637(16)
C44? C 1.718(3) -0.120(3) 0.1637(11)
C45? C 1.757(2) -0.005(2) 0.2909(17)
C46? C 1.0103(18) 0.684(3) 0.0206(14)
C47? C 1.223(2) 0.8227(17) 0.0277(13)
C48? C 1.100(3) 0.793(2) 0.1400(8)
C49? C 1.2378(4) 0.4973(4) 0.3305(2)
C50? C 1.3879(4) 0.2790(4) 0.3764(2)
C51? C 0.923(4) 0.374(4) 0.2696(16)
C52? C 0.957(2) 0.6377(18) 0.3514(14)
C53? C 0.938(3) 0.424(3) 0.4356(15)
C54? C 1.072(5) 0.069(5) 0.454(3)
C55? C 1.336(3) -0.0367(18) 0.4658(12)
C56? C 1.196(3) -0.047(2) 0.3080(11)
H57? H 1.2447 0.0885 0.1519
H58? H 1.2081 0.1941 0.0896
H59? H 1.1778 0.2189 0.1750
H60? H 1.5217 0.5663 0.1524
H61? H 1.5855 0.4343 0.1290
H62? H 1.5544 0.4589 0.2143
H63? H 1.6014 -0.2348 0.2803
H64? H 1.4806 -0.1889 0.2264
H65? H 1.5166 -0.1188 0.3068
H66? H 1.7695 -0.1906 0.1842
H67? H 1.7776 -0.0542 0.1405
H68? H 1.6495 -0.1565 0.1259
H69? H 1.8112 -0.0772 0.3061
H70? H 1.7120 0.0249 0.3339
H71? H 1.8142 0.0683 0.2731
H72? H 0.9668 0.7636 0.0069
H73? H 0.9506 0.6256 0.0484
H74? H 1.0312 0.6378 -0.0251
H75? H 1.1711 0.8974 0.0141
H76? H 1.2510 0.7821 -0.0179
H77? H 1.3017 0.8537 0.0605
H78? H 1.0522 0.8696 0.1253
H79? H 1.1811 0.8217 0.1714
H80? H 1.0431 0.7328 0.1685
H81? H 1.2055 0.4261 0.3617
H82? H 1.4309 0.1995 0.3663
H83? H 0.9433 0.2821 0.2745
H84? H 0.9658 0.4127 0.2266
H85? H 0.8266 0.3787 0.2617
H86? H 0.9963 0.6768 0.3076
H87? H 0.9986 0.6825 0.3972
H88? H 0.8614 0.6475 0.3477
H89? H 0.9507 0.3303 0.4434
H90? H 0.8436 0.4380 0.4376
H91? H 0.9905 0.4770 0.4749
H92? H 1.1032 0.1142 0.5017
H93? H 1.0237 -0.0154 0.4643
H94? H 1.0119 0.1241 0.4251
H95? H 1.3400 0.0089 0.5147
H96? H 1.4237 -0.0294 0.4464
H97? H 1.3063 -0.1298 0.4715
H98? H 1.1324 -0.0032 0.2744
H99? H 1.1618 -0.1386 0.3147
H100? H 1.2816 -0.0450 0.2863
O3? O 1.1186(9) 0.5409(9) 0.3139(5)
O4? O 1.2550(19) 0.1936(13) 0.3919(9)
Si3? Si 0.9853(8) 0.4660(9) 0.3546(5)
Si4? Si 1.216(2) 0.0396(18) 0.3996(9)
loop_
_geom_bond_atom_site_label_1
_geom_bond_atom_site_label_2
_geom_bond_site_symmetry_1
_geom_bond_site_symmetry_2
C1 H1 1_555 1_555
C2 C1 1_555 1_555
C3 C2 1_555 1_555
H2 C3 1_555 1_555
C4 C3 1_555 1_555
C5 C4 1_555 1_555
H3 C5 1_555 1_555
C6 C5 1_555 1_555
H4 C6 1_555 1_555
C7 C6 1_555 1_555
C8 C7 1_555 1_555
H5 C8 1_555 1_555
C9 C8 1_555 1_555
C10 C9 1_555 1_555
H6 C10 1_555 1_555
C11 C10 1_555 1_555
C12 C11 1_555 1_555
C13 C12 1_555 1_555
C14 C1 1_555 1_555
C15 C4 1_555 1_555
C16 C15 1_555 1_555
H7 C16 1_555 1_555
H8 C16 1_555 1_555
H9 C16 1_555 1_555
C17 C7 1_555 1_555
C18 C17 1_555 1_555
H10 C18 1_555 1_555
H11 C18 1_555 1_555
H12 C18 1_555 1_555
C19 C2 1_555 1_555
C20 C19 1_555 1_555
H13 C20 1_555 1_555
H14 C20 1_555 1_555
H15 C20 1_555 1_555
C21 C19 1_555 1_555
H16 C21 1_555 1_555
H17 C21 1_555 1_555
H18 C21 1_555 1_555
C22 C19 1_555 1_555
H19 C22 1_555 1_555
H20 C22 1_555 1_555
H21 C22 1_555 1_555
C23 C9 1_555 1_555
C24 C23 1_555 1_555
H22 C24 1_555 1_555
H23 C24 1_555 1_555
H24 C24 1_555 1_555
C25 C23 1_555 1_555
H25 C25 1_555 1_555
H26 C25 1_555 1_555
H27 C25 1_555 1_555
C26 C23 1_555 1_555
H28 C26 1_555 1_555
H29 C26 1_555 1_555
H30 C26 1_555 1_555
C27 C12 1_555 1_555
H31 C27 1_555 1_555
C28 C27 1_555 1_555
H32 C28 1_555 1_555
H33 C28 1_555 1_555
C29 C28 1_555 1_555
H34 C29 1_555 1_555
C30 C29 1_555 1_555
H35 C30 1_555 1_555
C31 C30 1_555 1_555
H36 C31 1_555 1_555
H37 C31 1_555 1_555
C32 C13 1_555 1_555
H38 C32 1_555 1_555
C33 H39 1_555 1_555
H40 C33 1_555 1_555
H41 C33 1_555 1_555
C34 H42 1_555 1_555
H43 C34 1_555 1_555
H44 C34 1_555 1_555
C35 H45 1_555 1_555
H46 C35 1_555 1_555
H47 C35 1_555 1_555
C36 H48 1_555 1_555
H49 C36 1_555 1_555
H50 C36 1_555 1_555
C37 H51 1_555 1_555
H52 C37 1_555 1_555
H53 C37 1_555 1_555
C38 H54 1_555 1_555
H55 C38 1_555 1_555
H56 C38 1_555 1_555
O1 C27 1_555 1_555
O2 C32 1_555 1_555
Si1 C33 1_555 1_555
Si2 C36 1_555 1_555
C11 C17 1_555 1_555
C13 C14 1_555 1_555
C14 C15 1_555 1_555
C15 C17 1_555 1_555
C31 C32 1_555 1_555
C34 Si1 1_555 1_555
C35 Si1 1_555 1_555
C37 Si2 1_555 1_555
C38 Si2 1_555 1_555
O1 Si1 1_555 1_555
O2 Si2 1_555 1_555

#END
