
#######################################################################
#
#                 Cambridge Crystallographic Data Centre
#                                CCDC 
#
#######################################################################
#
# If this CIF has been generated from an entry in the Cambridge 
# Structural Database, then it will include bibliographic, chemical, 
# crystal, experimental, refinement or atomic coordinate data resulting 
# from the CCDC's data processing and validation procedures.
#
#######################################################################

data_NEHMES01
_chemical_formula_moiety         'C7 H11 N3 O4 S2'
_chemical_name_systematic        
4-(\b-D-Ribofuranosyl)-2-amino-5-thio-1,3,4-thiadiazoline
_chemical_properties_biological  
'anticancer activity against NCI CNS cancer cell line SNB19'
_symmetry_cell_setting           monoclinic
_symmetry_space_group_name_H-M   'P 21'
_symmetry_Int_Tables_number      4
_space_group_name_Hall           'P 2yb'
loop_
_symmetry_equiv_pos_site_id
_symmetry_equiv_pos_as_xyz
1 x,y,z
2 -x,1/2+y,-z
_cell_length_a                   6.809(2)
_cell_length_b                   8.985(2)
_cell_length_c                   9.130(1)
_cell_angle_alpha                90
_cell_angle_beta                 103.93(1)
_cell_angle_gamma                90
_cell_volume                     542.136
_chemical_melting_point          195-196deg.C
_cell_formula_units_Z            2
loop_
_atom_site_label
_atom_site_type_symbol
_atom_site_fract_x
_atom_site_fract_y
_atom_site_fract_z
S1 S -0.1056(1) 0.1950 -0.16037(9)
S2 S 0.2766(1) 0.0213 -0.15036(8)
O1 O 0.2302(3) 0.3264(2) 0.2370(2)
O2 O -0.0362(3) 0.3028(2) 0.4631(2)
O3 O -0.0651(3) 0.0272(2) 0.3252(2)
O4 O 0.5779(3) 0.1839(3) 0.4396(2)
N1 N 0.1920(3) 0.1187(3) 0.0834(2)
N2 N 0.3878(3) 0.0622(3) 0.1367(2)
N3 N 0.6308(4) -0.0601(3) 0.0392(3)
C1 C 0.1087(4) 0.1988(3) 0.1931(3)
C2 C 0.1156(3) 0.1095(3) 0.3367(3)
C3 C 0.1491(4) 0.2321(3) 0.4570(3)
C4 C 0.2778(4) 0.3458(3) 0.3999(3)
C5 C 0.5042(4) 0.3290(4) 0.4611(3)
C6 C 0.1087(4) 0.1176(3) -0.0669(3)
C7 C 0.4502(4) 0.0082(4) 0.0247(3)
H1 H -0.0275 0.2237 0.1331
H2 H 0.2340 0.0444 0.3577
H3 H 0.2125 0.1880 0.5526
H4 H 0.2438 0.4466 0.4297
H5 H 0.5739 0.4126 0.3991
H6 H 0.5397 0.3604 0.5640
H7 H 0.5333 0.1757 0.3377
H8 H -0.1431 0.2460 0.4370
H9 H -0.0309 -0.0504 0.3962
H10 H 0.7324 -0.0233 0.1292
H11 H 0.6957 -0.0959 -0.0389
loop_
_geom_bond_atom_site_label_1
_geom_bond_atom_site_label_2
_geom_bond_site_symmetry_1
_geom_bond_site_symmetry_2
S1 C6 1_555 1_555
S2 C6 1_555 1_555
O1 C1 1_555 1_555
O2 C3 1_555 1_555
O3 C2 1_555 1_555
O4 C5 1_555 1_555
N1 N2 1_555 1_555
N2 C7 1_555 1_555
N3 C7 1_555 1_555
C1 N1 1_555 1_555
C2 C1 1_555 1_555
C3 C2 1_555 1_555
C4 O1 1_555 1_555
C5 C4 1_555 1_555
C6 N1 1_555 1_555
C7 S2 1_555 1_555
H1 C1 1_555 1_555
H2 C2 1_555 1_555
H3 C3 1_555 1_555
H4 C4 1_555 1_555
H5 C5 1_555 1_555
H6 C5 1_555 1_555
H7 O4 1_555 1_555
H8 O2 1_555 1_555
H9 O3 1_555 1_555
H10 N3 1_555 1_555
H11 N3 1_555 1_555
C3 C4 1_555 1_555

#END
