
#######################################################################
#
#                 Cambridge Crystallographic Data Centre
#                                CCDC 
#
#######################################################################
#
# If this CIF has been generated from an entry in the Cambridge 
# Structural Database, then it will include bibliographic, chemical, 
# crystal, experimental, refinement or atomic coordinate data resulting 
# from the CCDC's data processing and validation procedures.
#
#######################################################################

data_NEHPOI
_chemical_formula_moiety         'C25 H29 N1 O5 S1'
_chemical_name_systematic        
'ethyl 4-{1-[(4-methylphenyl)sulfonyl]-3-oxodecahydroquinolin-4-yl}benzoate'
_symmetry_cell_setting           monoclinic
_symmetry_space_group_name_H-M   'P 21/c'
_symmetry_Int_Tables_number      14
_space_group_name_Hall           '-P 2ybc'
loop_
_symmetry_equiv_pos_site_id
_symmetry_equiv_pos_as_xyz
1 x,y,z
2 -x,1/2+y,1/2-z
3 -x,-y,-z
4 x,1/2-y,1/2+z
_cell_length_a                   18.2993(12)
_cell_length_b                   20.2906(12)
_cell_length_c                   6.3698(6)
_cell_angle_alpha                90
_cell_angle_beta                 99.864(7)
_cell_angle_gamma                90
_cell_volume                     2330.17
_exptl_crystal_colour            colorless
_exptl_crystal_description       block
_cell_formula_units_Z            4
loop_
_atom_site_label
_atom_site_type_symbol
_atom_site_fract_x
_atom_site_fract_y
_atom_site_fract_z
S1 S 0.84458(4) 0.11649(4) 0.57202(12)
O1 O 0.63559(12) 0.25377(10) 0.3545(4)
O2 O 0.25319(15) 0.17143(16) 0.1206(6)
O3 O 0.28643(17) 0.1611(2) 0.4697(8)
O4 O 0.84565(12) 0.05235(12) 0.6624(4)
O5 O 0.85563(13) 0.17286(12) 0.7069(4)
N1 N 0.76298(12) 0.12578(11) 0.4226(4)
C1 C 0.74304(15) 0.19137(14) 0.3364(6)
H1 H 0.7585 0.1961 0.1989
H2 H 0.7684 0.2246 0.4315
C2 C 0.65969(15) 0.20115(13) 0.3118(4)
C3 C 0.61181(14) 0.14435(13) 0.2174(4)
H3 H 0.6134 0.1450 0.0645
C4 C 0.64274(14) 0.07619(13) 0.2983(5)
H4 H 0.6354 0.0715 0.4464
C5 C 0.72624(14) 0.07057(13) 0.2958(5)
H5 H 0.7436 0.0297 0.3701
C6 C 0.74340(17) 0.06571(16) 0.0691(5)
H6 H 0.7294 0.1065 -0.0063
H7 H 0.7963 0.0594 0.0756
C7 C 0.70176(19) 0.00881(18) -0.0512(6)
H8 H 0.7196 -0.0324 0.0159
H9 H 0.7114 0.0083 -0.1963
C8 C 0.61887(18) 0.01453(17) -0.0547(6)
H10 H 0.5939 -0.0236 -0.1260
H11 H 0.6001 0.0536 -0.1339
C9 C 0.60232(17) 0.01883(15) 0.1708(6)
H12 H 0.6169 -0.0222 0.2446
H13 H 0.5493 0.0241 0.1643
C10 C 0.53074(15) 0.15307(13) 0.2357(5)
C11 C 0.47902(16) 0.16812(16) 0.0612(5)
H14 H 0.4942 0.1754 -0.0689
C12 C 0.40429(18) 0.17272(17) 0.0740(6)
H15 H 0.3699 0.1824 -0.0473
C13 C 0.38087(16) 0.16296(15) 0.2656(6)
C14 C 0.43262(19) 0.1502(2) 0.4441(6)
H16 H 0.4176 0.1446 0.5753
C15 C 0.50729(18) 0.1455(2) 0.4291(5)
H17 H 0.5420 0.1372 0.5509
C16 C 0.2998(2) 0.16602(19) 0.2712(9)
C17 C 0.2079(3) 0.1729(3) 0.5051(15)
H18 H 0.2066 0.1998 0.6302
H19 H 0.1778 0.1933 0.3820
C18 C 0.1862(3) 0.1102(3) 0.5334(13)
H20 H 0.1361 0.1103 0.5596
H21 H 0.2182 0.0911 0.6530
H22 H 0.1889 0.0849 0.4077
C19 C 0.91138(15) 0.11837(15) 0.4051(5)
C20 C 0.93020(18) 0.17791(18) 0.3212(7)
H23 H 0.9090 0.2171 0.3568
C21 C 0.9814(2) 0.1779(2) 0.1830(7)
H24 H 0.9946 0.2178 0.1281
C22 C 1.0131(2) 0.1202(3) 0.1249(7)
C23 C 0.9947(2) 0.0624(2) 0.2151(7)
H25 H 1.0174 0.0234 0.1838
C24 C 0.94331(18) 0.06055(17) 0.3517(6)
H26 H 0.9304 0.0206 0.4068
C25 C 1.0649(3) 0.1214(3) -0.0328(9)
H27 H 1.0824 0.1656 -0.0459
H28 H 1.0392 0.1066 -0.1688
H29 H 1.1063 0.0929 0.0148
loop_
_geom_bond_atom_site_label_1
_geom_bond_atom_site_label_2
_geom_bond_site_symmetry_1
_geom_bond_site_symmetry_2
S1 O4 1_555 1_555
O1 C2 1_555 1_555
O2 C16 1_555 1_555
O3 C16 1_555 1_555
O5 S1 1_555 1_555
N1 S1 1_555 1_555
C1 N1 1_555 1_555
H1 C1 1_555 1_555
H2 C1 1_555 1_555
C2 C1 1_555 1_555
C3 C2 1_555 1_555
H3 C3 1_555 1_555
C4 C3 1_555 1_555
H4 C4 1_555 1_555
C5 N1 1_555 1_555
H5 C5 1_555 1_555
C6 C5 1_555 1_555
H6 C6 1_555 1_555
H7 C6 1_555 1_555
C7 C6 1_555 1_555
H8 C7 1_555 1_555
H9 C7 1_555 1_555
C8 C7 1_555 1_555
H10 C8 1_555 1_555
H11 C8 1_555 1_555
C9 C4 1_555 1_555
H12 C9 1_555 1_555
H13 C9 1_555 1_555
C10 C3 1_555 1_555
C11 C10 1_555 1_555
H14 C11 1_555 1_555
C12 C11 1_555 1_555
H15 C12 1_555 1_555
C13 C12 1_555 1_555
C14 C13 1_555 1_555
H16 C14 1_555 1_555
C15 C10 1_555 1_555
H17 C15 1_555 1_555
C16 C13 1_555 1_555
C17 O3 1_555 1_555
H18 C17 1_555 1_555
H19 C17 1_555 1_555
C18 C17 1_555 1_555
H20 C18 1_555 1_555
H21 C18 1_555 1_555
H22 C18 1_555 1_555
C19 S1 1_555 1_555
C20 C19 1_555 1_555
H23 C20 1_555 1_555
C21 C20 1_555 1_555
H24 C21 1_555 1_555
C22 C21 1_555 1_555
C23 C22 1_555 1_555
H25 C23 1_555 1_555
C24 C19 1_555 1_555
H26 C24 1_555 1_555
C25 C22 1_555 1_555
H27 C25 1_555 1_555
H28 C25 1_555 1_555
H29 C25 1_555 1_555
C4 C5 1_555 1_555
C8 C9 1_555 1_555
C14 C15 1_555 1_555
C23 C24 1_555 1_555

#END
