
#######################################################################
#
#                 Cambridge Crystallographic Data Centre
#                                CCDC 
#
#######################################################################
#
# If this CIF has been generated from an entry in the Cambridge 
# Structural Database, then it will include bibliographic, chemical, 
# crystal, experimental, refinement or atomic coordinate data resulting 
# from the CCDC's data processing and validation procedures.
#
#######################################################################

data_NEHQEX
_chemical_formula_moiety         'C20 H18 O4 S4'
_chemical_name_systematic        
'Diethyl 2,7-bis(4-methyl-1,3-dithiol-2-ylidene)octa-3,5-diyne-1,8-dioate'
_symmetry_cell_setting           monoclinic
_symmetry_space_group_name_H-M   'P 21/n'
_symmetry_Int_Tables_number      14
_space_group_name_Hall           '-P 2yn'
loop_
_symmetry_equiv_pos_site_id
_symmetry_equiv_pos_as_xyz
1 x,y,z
2 1/2-x,1/2+y,1/2-z
3 -x,-y,-z
4 1/2+x,1/2-y,1/2+z
_cell_length_a                   10.7902(8)
_cell_length_b                   7.4372(10)
_cell_length_c                   13.6358(14)
_cell_angle_alpha                90
_cell_angle_beta                 102.762(2)
_cell_angle_gamma                90
_cell_volume                     1067.23
_exptl_crystal_colour            red
_exptl_crystal_description       block
_chemical_melting_point          '192-194 deg.C'
_cell_formula_units_Z            2
_exptl_crystal_recrystallization_method 'diethyl ether/hexane'
loop_
_atom_site_label
_atom_site_type_symbol
_atom_site_fract_x
_atom_site_fract_y
_atom_site_fract_z
S1 S 0.76485(11) 0.13398(15) 1.17657(8)
S2 S 0.51727(11) 0.25521(16) 1.06946(9)
O1 O 0.5164(3) 0.2507(5) 0.8677(2)
O2 O 0.6761(3) 0.1461(5) 0.8006(2)
C1 C 0.6899(7) 0.1663(9) 1.3617(5)
H1 H 0.6187 0.2009 1.3890
H2 H 0.7613 0.2417 1.3891
H3 H 0.7114 0.0432 1.3786
C2 C 0.6560(5) 0.1865(6) 1.2494(3)
C3 C 0.5452(5) 0.2438(6) 1.1992(4)
H4 H 0.4826 0.2777 1.2328
C4 C 0.6654(4) 0.1775(5) 1.0619(3)
C5 C 0.7073(4) 0.1526(5) 0.9747(3)
C6 C 0.6228(4) 0.1893(6) 0.8776(3)
C7 C 0.8331(4) 0.0864(6) 0.9814(3)
C8 C 0.9389(4) 0.0324(6) 0.9938(3)
C9 C 0.5982(6) 0.1810(9) 0.7012(4)
H5 H 0.5946 0.3093 0.6879
H6 H 0.5123 0.1382 0.6973
C10 C 0.6541(7) 0.0876(11) 0.6265(4)
H7 H 0.6042 0.1116 0.5603
H8 H 0.6553 -0.0394 0.6390
H9 H 0.7394 0.1297 0.6312
S1B S 1.23515(11) -0.13398(15) 0.82343(8)
S2B S 1.48273(11) -0.25521(16) 0.93054(9)
O1B O 1.4836(3) -0.2507(5) 1.1323(2)
O2B O 1.3239(3) -0.1461(5) 1.1994(2)
C1B C 1.3101(7) -0.1663(9) 0.6383(5)
H1B H 1.3813 -0.2009 0.6110
H2B H 1.2387 -0.2417 0.6109
H3B H 1.2886 -0.0432 0.6214
C2B C 1.3440(5) -0.1865(6) 0.7506(3)
C3B C 1.4548(5) -0.2438(6) 0.8008(4)
H4B H 1.5174 -0.2777 0.7672
C4B C 1.3346(4) -0.1775(5) 0.9381(3)
C5B C 1.2927(4) -0.1526(5) 1.0253(3)
C6B C 1.3772(4) -0.1893(6) 1.1224(3)
C7B C 1.1669(4) -0.0864(6) 1.0186(3)
C8B C 1.0611(4) -0.0324(6) 1.0062(3)
C9B C 1.4018(6) -0.1810(9) 1.2988(4)
H5B H 1.4054 -0.3093 1.3121
H6B H 1.4877 -0.1382 1.3027
C10B C 1.3459(7) -0.0876(11) 1.3735(4)
H7B H 1.3958 -0.1116 1.4397
H8B H 1.3447 0.0394 1.3610
H9B H 1.2606 -0.1297 1.3688
loop_
_geom_bond_atom_site_label_1
_geom_bond_atom_site_label_2
_geom_bond_site_symmetry_1
_geom_bond_site_symmetry_2
S1 C2 1_555 1_555
S2 C3 1_555 1_555
O1 C6 1_555 1_555
O2 C6 1_555 1_555
C1 H1 1_555 1_555
H2 C1 1_555 1_555
H3 C1 1_555 1_555
C2 C1 1_555 1_555
C3 C2 1_555 1_555
H4 C3 1_555 1_555
C4 S1 1_555 1_555
C5 C4 1_555 1_555
C6 C5 1_555 1_555
C7 C5 1_555 1_555
C8 C7 1_555 1_555
C9 O2 1_555 1_555
H5 C9 1_555 1_555
H6 C9 1_555 1_555
C10 C9 1_555 1_555
H7 C10 1_555 1_555
H8 C10 1_555 1_555
H9 C10 1_555 1_555
S1B C2B 1_555 1_555
S2B C3B 1_555 1_555
O1B C6B 1_555 1_555
O2B C6B 1_555 1_555
C1B H1B 1_555 1_555
H2B C1B 1_555 1_555
H3B C1B 1_555 1_555
C2B C1B 1_555 1_555
C3B C2B 1_555 1_555
H4B C3B 1_555 1_555
C4B S1B 1_555 1_555
C5B C4B 1_555 1_555
C6B C5B 1_555 1_555
C7B C5B 1_555 1_555
C8B C8 1_555 1_555
C9B O2B 1_555 1_555
H5B C9B 1_555 1_555
H6B C9B 1_555 1_555
C10B C9B 1_555 1_555
H7B C10B 1_555 1_555
H8B C10B 1_555 1_555
H9B C10B 1_555 1_555
S2 C4 1_555 1_555
S2B C4B 1_555 1_555
C7B C8B 1_555 1_555

#END
