
#######################################################################
#
#                 Cambridge Crystallographic Data Centre
#                                CCDC 
#
#######################################################################
#
# If this CIF has been generated from an entry in the Cambridge 
# Structural Database, then it will include bibliographic, chemical, 
# crystal, experimental, refinement or atomic coordinate data resulting 
# from the CCDC's data processing and validation procedures.
#
#######################################################################

data_NEHSIE
_chemical_formula_moiety         'C20 H12 N2 O4'
_chemical_name_systematic        
'Methyl 5,6-dicyano-3-(4-methylbenzoyl)-1-benzofuran-2-carboxylate'
_symmetry_cell_setting           triclinic
_symmetry_space_group_name_H-M   'P -1'
_symmetry_Int_Tables_number      2
_space_group_name_Hall           '-P 1'
loop_
_symmetry_equiv_pos_site_id
_symmetry_equiv_pos_as_xyz
1 x,y,z
2 -x,-y,-z
_cell_length_a                   6.7222(5)
_cell_length_b                   8.3646(7)
_cell_length_c                   14.5905(12)
_cell_angle_alpha                101.6360(10)
_cell_angle_beta                 92.353(2)
_cell_angle_gamma                91.182(2)
_cell_volume                     802.514
_exptl_crystal_colour            yellow
_exptl_crystal_description       prism
_cell_formula_units_Z            2
loop_
_atom_site_label
_atom_site_type_symbol
_atom_site_fract_x
_atom_site_fract_y
_atom_site_fract_z
O1 O 0.23136(13) 0.86327(10) 0.45040(6)
O2 O -0.10500(14) 1.01891(12) 0.22969(7)
O3 O 0.16032(16) 0.57027(12) 0.33206(7)
O4 O 0.12038(14) 0.69790(11) 0.21085(6)
N1 N 0.2871(2) 1.66939(15) 0.60794(8)
N2 N 0.38679(19) 1.38549(16) 0.78629(8)
C1 C 0.17849(18) 0.85855(15) 0.35796(8)
C2 C 0.15760(17) 1.00934(15) 0.33834(8)
C3 C 0.20528(17) 1.12225(15) 0.42565(8)
C4 C 0.21469(18) 1.29211(15) 0.45405(8)
H1 H 0.1876 1.3610 0.4109
C5 C 0.26508(18) 1.35623(15) 0.54743(8)
C6 C 0.30405(17) 1.25330(16) 0.61269(8)
C7 C 0.24694(17) 1.02442(15) 0.49116(8)
C8 C 0.29443(17) 1.08467(15) 0.58496(8)
H2 H 0.3190 1.0148 0.6278
C9 C 0.07222(18) 1.04490(14) 0.24751(8)
C10 C 0.20694(18) 1.10604(14) 0.18418(8)
C11 C 0.40653(19) 1.14432(16) 0.20908(9)
H3 H 0.4590 1.1332 0.2689
C12 C 0.52977(19) 1.19886(16) 0.14688(9)
H4 H 0.6653 1.2272 0.1652
C13 C 0.4573(2) 1.21249(15) 0.05808(9)
C14 C 0.2570(2) 1.17237(15) 0.03311(9)
H5 H 0.2058 1.1799 -0.0275
C15 C 0.13179(19) 1.12169(15) 0.09552(8)
H6 H -0.0050 1.0976 0.0782
C16 C 0.5920(2) 1.27022(18) -0.00888(10)
H7 H 0.6763 1.3620 0.0249
H8 H 0.5115 1.3055 -0.0583
H9 H 0.6762 1.1808 -0.0370
C17 C 0.15299(18) 0.69243(15) 0.30031(9)
C18 C 0.0972(2) 0.53972(17) 0.14857(10)
H10 H 0.0644 0.5543 0.0848
H11 H -0.0103 0.4766 0.1694
H12 H 0.2218 0.4811 0.1494
C19 C 0.27676(19) 1.53057(16) 0.58059(9)
C20 C 0.35061(19) 1.32666(16) 0.70929(9)
loop_
_geom_bond_atom_site_label_1
_geom_bond_atom_site_label_2
_geom_bond_site_symmetry_1
_geom_bond_site_symmetry_2
O1 C1 1_555 1_555
O2 C9 1_555 1_555
O3 C17 1_555 1_555
O4 C17 1_555 1_555
N1 C19 1_555 1_555
N2 C20 1_555 1_555
C1 C2 1_555 1_555
C2 C3 1_555 1_555
C3 C4 1_555 1_555
C4 H1 1_555 1_555
C5 C4 1_555 1_555
C6 C5 1_555 1_555
C7 O1 1_555 1_555
C8 C6 1_555 1_555
H2 C8 1_555 1_555
C9 C2 1_555 1_555
C10 C9 1_555 1_555
C11 C10 1_555 1_555
H3 C11 1_555 1_555
C12 C11 1_555 1_555
H4 C12 1_555 1_555
C13 C12 1_555 1_555
C14 C13 1_555 1_555
H5 C14 1_555 1_555
C15 C10 1_555 1_555
H6 C15 1_555 1_555
C16 C13 1_555 1_555
H7 C16 1_555 1_555
H8 C16 1_555 1_555
H9 C16 1_555 1_555
C17 C1 1_555 1_555
C18 O4 1_555 1_555
H10 C18 1_555 1_555
H11 C18 1_555 1_555
H12 C18 1_555 1_555
C19 C5 1_555 1_555
C20 C6 1_555 1_555
C3 C7 1_555 1_555
C7 C8 1_555 1_555
C14 C15 1_555 1_555

#END
