
#######################################################################
#
#                 Cambridge Crystallographic Data Centre
#                                CCDC 
#
#######################################################################
#
# If this CIF has been generated from an entry in the Cambridge 
# Structural Database, then it will include bibliographic, chemical, 
# crystal, experimental, refinement or atomic coordinate data resulting 
# from the CCDC's data processing and validation procedures.
#
#######################################################################

data_NEHSOK
_chemical_formula_moiety         'C17 H9 N3 O3'
_chemical_name_systematic        
3-(4-Methoxybenzoyl)-1,2-benzoxazole-5,6-dicarbonitrile
_symmetry_cell_setting           monoclinic
_symmetry_space_group_name_H-M   'P 21/c'
_symmetry_Int_Tables_number      14
_space_group_name_Hall           '-P 2ybc'
loop_
_symmetry_equiv_pos_site_id
_symmetry_equiv_pos_as_xyz
1 x,y,z
2 -x,1/2+y,1/2-z
3 -x,-y,-z
4 x,1/2-y,1/2+z
_cell_length_a                   16.061(6)
_cell_length_b                   25.068(10)
_cell_length_c                   6.885(3)
_cell_angle_alpha                90
_cell_angle_beta                 99.621(7)
_cell_angle_gamma                90
_cell_volume                     2733.03
_exptl_crystal_colour            'light yellow'
_exptl_crystal_description       plate
_cell_formula_units_Z            8
loop_
_atom_site_label
_atom_site_type_symbol
_atom_site_fract_x
_atom_site_fract_y
_atom_site_fract_z
O1 O 0.7306(2) 0.36034(12) 0.0469(5)
O2 O 0.6962(2) 0.52598(13) 0.2480(5)
O3 O 0.3115(2) 0.50330(13) 0.2787(5)
N1 N 1.0627(3) 0.51904(17) 0.2895(7)
N2 N 1.1003(3) 0.37398(17) 0.0965(7)
N3 N 0.6648(3) 0.39344(15) 0.0903(6)
C1 C 0.6993(3) 0.43852(19) 0.1580(7)
C2 C 0.7887(3) 0.43761(18) 0.1618(7)
C3 C 0.8556(3) 0.47282(19) 0.2191(7)
H1 H 0.8467 0.5071 0.2707
C4 C 0.9351(3) 0.45589(18) 0.1978(7)
C5 C 0.9485(3) 0.40387(19) 0.1238(7)
C6 C 0.8828(3) 0.36874(19) 0.0718(7)
H2 H 0.8912 0.3338 0.0255
C7 C 0.8040(3) 0.38766(18) 0.0915(7)
C8 C 0.6523(3) 0.48610(19) 0.2166(7)
C9 C 0.5632(3) 0.48622(19) 0.2299(7)
C10 C 0.5102(3) 0.44191(18) 0.2030(7)
H3 H 0.5324 0.4084 0.1720
C11 C 0.4261(3) 0.44564(19) 0.2204(7)
H4 H 0.3909 0.4150 0.2036
C12 C 0.3935(3) 0.49474(19) 0.2627(7)
C13 C 0.4443(3) 0.53914(19) 0.2892(7)
H5 H 0.4213 0.5726 0.3176
C14 C 0.5282(3) 0.53498(19) 0.2746(7)
H6 H 0.5632 0.5657 0.2951
C15 C 0.2556(3) 0.4580(2) 0.2572(9)
H7 H 0.1991 0.4693 0.2755
H8 H 0.2770 0.4310 0.3563
H9 H 0.2529 0.4427 0.1252
C16 C 1.0063(3) 0.4908(2) 0.2501(8)
C17 C 1.0331(3) 0.38753(19) 0.1083(8)
O4 O 0.8900(2) 0.60535(12) 0.3711(5)
O5 O 1.0221(2) 0.75802(13) 0.5457(5)
O6 O 1.3757(2) 0.65506(13) 0.4787(5)
N4 N 0.6686(3) 0.82757(18) 0.1663(7)
N5 N 0.5497(3) 0.69128(18) 0.0874(7)
N6 N 0.9719(3) 0.62547(16) 0.4363(6)
C18 C 0.9662(3) 0.67736(19) 0.4256(7)
C19 C 0.8822(3) 0.69446(18) 0.3531(7)
C20 C 0.8397(3) 0.74324(19) 0.3149(7)
H10 H 0.8685 0.7764 0.3366
C21 C 0.7541(3) 0.74069(19) 0.2440(7)
C22 C 0.7108(3) 0.69150(19) 0.2131(7)
C23 C 0.7519(3) 0.6437(2) 0.2506(7)
H11 H 0.7236 0.6104 0.2287
C24 C 0.8375(3) 0.64718(18) 0.3224(7)
C25 C 1.0403(3) 0.71348(19) 0.4916(7)
C26 C 1.1274(3) 0.69596(18) 0.4927(7)
C27 C 1.1496(3) 0.64785(19) 0.4157(7)
H12 H 1.1068 0.6232 0.3630
C28 C 1.2330(3) 0.63541(18) 0.4149(7)
H13 H 1.2471 0.6022 0.3626
C29 C 1.2960(3) 0.6706(2) 0.4890(7)
C30 C 1.2760(3) 0.71904(19) 0.5704(7)
H14 H 1.3193 0.7434 0.6226
C31 C 1.1927(3) 0.73072(19) 0.5737(7)
H15 H 1.1789 0.7631 0.6322
C32 C 1.4446(3) 0.6896(2) 0.5556(9)
H16 H 1.4979 0.6732 0.5356
H17 H 1.4453 0.6953 0.6967
H18 H 1.4376 0.7240 0.4869
C33 C 0.7068(3) 0.7895(2) 0.2028(7)
C34 C 0.6214(4) 0.69162(19) 0.1430(8)
loop_
_geom_bond_atom_site_label_1
_geom_bond_atom_site_label_2
_geom_bond_site_symmetry_1
_geom_bond_site_symmetry_2
O1 N3 1_555 1_555
O2 C8 1_555 1_555
O3 C12 1_555 1_555
N1 C16 1_555 1_555
N2 C17 1_555 1_555
N3 C1 1_555 1_555
C1 C2 1_555 1_555
C2 C3 1_555 1_555
C3 H1 1_555 1_555
C4 C3 1_555 1_555
C5 C4 1_555 1_555
C6 C5 1_555 1_555
H2 C6 1_555 1_555
C7 O1 1_555 1_555
C8 C1 1_555 1_555
C9 C8 1_555 1_555
C10 C9 1_555 1_555
H3 C10 1_555 1_555
C11 C10 1_555 1_555
H4 C11 1_555 1_555
C12 C11 1_555 1_555
C13 C12 1_555 1_555
H5 C13 1_555 1_555
C14 C9 1_555 1_555
H6 C14 1_555 1_555
C15 O3 1_555 1_555
H7 C15 1_555 1_555
H8 C15 1_555 1_555
H9 C15 1_555 1_555
C16 C4 1_555 1_555
C17 C5 1_555 1_555
O4 N6 1_555 1_555
O5 C25 1_555 1_555
O6 C29 1_555 1_555
N4 C33 1_555 1_555
N5 C34 1_555 1_555
N6 C18 1_555 1_555
C18 C19 1_555 1_555
C19 C20 1_555 1_555
C20 H10 1_555 1_555
C21 C20 1_555 1_555
C22 C21 1_555 1_555
C23 C22 1_555 1_555
H11 C23 1_555 1_555
C24 O4 1_555 1_555
C25 C18 1_555 1_555
C26 C25 1_555 1_555
C27 C26 1_555 1_555
H12 C27 1_555 1_555
C28 C27 1_555 1_555
H13 C28 1_555 1_555
C29 C28 1_555 1_555
C30 C29 1_555 1_555
H14 C30 1_555 1_555
C31 C26 1_555 1_555
H15 C31 1_555 1_555
C32 O6 1_555 1_555
H16 C32 1_555 1_555
H17 C32 1_555 1_555
H18 C32 1_555 1_555
C33 C21 1_555 1_555
C34 C22 1_555 1_555
C2 C7 1_555 1_555
C6 C7 1_555 1_555
C13 C14 1_555 1_555
C19 C24 1_555 1_555
C23 C24 1_555 1_555
C30 C31 1_555 1_555

#END
