
#######################################################################
#
#                 Cambridge Crystallographic Data Centre
#                                CCDC 
#
#######################################################################
#
# If this CIF has been generated from an entry in the Cambridge 
# Structural Database, then it will include bibliographic, chemical, 
# crystal, experimental, refinement or atomic coordinate data resulting 
# from the CCDC's data processing and validation procedures.
#
#######################################################################

data_NEHVOO
_chemical_formula_moiety         'C30 H26 N2 Si1'
_chemical_name_systematic        bis(1-methyl-1H-indol-3-yl)diphenylsilane
_symmetry_cell_setting           monoclinic
_symmetry_space_group_name_H-M   'P 21/c'
_symmetry_Int_Tables_number      14
_space_group_name_Hall           '-P 2ybc'
loop_
_symmetry_equiv_pos_site_id
_symmetry_equiv_pos_as_xyz
1 x,y,z
2 -x,1/2+y,1/2-z
3 -x,-y,-z
4 x,1/2-y,1/2+z
_cell_length_a                   16.290(3)
_cell_length_b                   7.9432(13)
_cell_length_c                   18.521(3)
_cell_angle_alpha                90
_cell_angle_beta                 105.826(4)
_cell_angle_gamma                90
_cell_volume                     2305.68
_exptl_crystal_colour            colorless
_exptl_crystal_description       block
_cell_formula_units_Z            4
loop_
_atom_site_label
_atom_site_type_symbol
_atom_site_fract_x
_atom_site_fract_y
_atom_site_fract_z
C1 C 0.12732(19) 0.8273(3) 0.39863(18)
H1 H 0.1769 0.8974 0.4055
H2 H 0.1112 0.8216 0.4447
H3 H 0.0812 0.8739 0.3599
C2 C 0.22313(15) 0.6043(3) 0.36787(13)
H4 H 0.2721 0.6700 0.3771
C3 C 0.21793(13) 0.4396(3) 0.34320(12)
C4 C 0.08382(14) 0.2444(3) 0.31128(13)
H5 H 0.1097 0.1514 0.2963
C5 C -0.00124(15) 0.2394(3) 0.30999(14)
H6 H -0.0326 0.1420 0.2939
C6 C -0.04115(15) 0.3780(3) 0.33236(14)
H7 H -0.0985 0.3707 0.3311
C7 C 0.00229(15) 0.5242(3) 0.35611(14)
H8 H -0.0243 0.6164 0.3709
C8 C 0.13063(13) 0.3912(3) 0.33547(12)
C9 C 0.08828(14) 0.5290(3) 0.35713(12)
C10 C 0.2508(2) -0.1457(3) 0.10076(18)
H9 H 0.1961 -0.1998 0.0852
H10 H 0.2910 -0.2196 0.1333
H11 H 0.2700 -0.1198 0.0574
C11 C 0.28316(16) 0.0410(3) 0.21442(14)
H12 H 0.3186 -0.0345 0.2469
C12 C 0.26366(14) 0.2008(3) 0.23465(13)
C13 C 0.16300(15) 0.4217(3) 0.14977(14)
H13 H 0.1684 0.5053 0.1860
C14 C 0.11127(17) 0.4453(4) 0.07842(15)
H14 H 0.0819 0.5464 0.0666
C15 C 0.10162(17) 0.3216(4) 0.02313(16)
H15 H 0.0661 0.3421 -0.0246
C16 C 0.14326(17) 0.1716(4) 0.03784(15)
H16 H 0.1365 0.0889 0.0011
C17 C 0.20733(14) 0.2702(3) 0.16707(13)
C18 C 0.19622(15) 0.1468(3) 0.10975(14)
C19 C 0.33642(13) 0.1449(3) 0.40222(13)
C20 C 0.39274(15) 0.0127(3) 0.40003(15)
H17 H 0.4157 0.0044 0.3594
C21 C 0.41497(16) -0.1053(3) 0.45663(16)
H18 H 0.4520 -0.1925 0.4535
C22 C 0.38241(16) -0.0944(3) 0.51769(16)
H19 H 0.3974 -0.1740 0.5558
C23 C 0.32772(15) 0.0346(3) 0.52214(15)
H20 H 0.3061 0.0429 0.5636
C24 C 0.30479(14) 0.1523(3) 0.46481(13)
H21 H 0.2673 0.2384 0.4683
C25 C 0.39803(13) 0.4444(3) 0.32778(13)
C26 C 0.46858(14) 0.4516(3) 0.38995(14)
H22 H 0.4698 0.3845 0.4314
C27 C 0.53716(15) 0.5559(3) 0.39180(15)
H23 H 0.5837 0.5579 0.4341
C28 C 0.53665(16) 0.6573(3) 0.33091(16)
H24 H 0.5827 0.7277 0.3322
C29 C 0.46764(17) 0.6534(3) 0.26842(16)
H25 H 0.4668 0.7215 0.2273
C30 C 0.39924(16) 0.5475(3) 0.26692(14)
H26 H 0.3531 0.5451 0.2243
N1 N 0.14666(12) 0.6583(2) 0.37694(11)
N2 N 0.24369(14) 0.0079(3) 0.14037(12)
Si1 Si 0.30354(4) 0.30688(7) 0.32607(3)
loop_
_geom_bond_atom_site_label_1
_geom_bond_atom_site_label_2
_geom_bond_site_symmetry_1
_geom_bond_site_symmetry_2
C1 H1 1_555 1_555
H2 C1 1_555 1_555
H3 C1 1_555 1_555
C2 H4 1_555 1_555
C3 C2 1_555 1_555
C4 H5 1_555 1_555
C5 C4 1_555 1_555
H6 C5 1_555 1_555
C6 C5 1_555 1_555
H7 C6 1_555 1_555
C7 C6 1_555 1_555
H8 C7 1_555 1_555
C8 C3 1_555 1_555
C9 C7 1_555 1_555
C10 H9 1_555 1_555
H10 C10 1_555 1_555
H11 C10 1_555 1_555
C11 H12 1_555 1_555
C12 C11 1_555 1_555
C13 H13 1_555 1_555
C14 C13 1_555 1_555
H14 C14 1_555 1_555
C15 C14 1_555 1_555
H15 C15 1_555 1_555
C16 C15 1_555 1_555
H16 C16 1_555 1_555
C17 C12 1_555 1_555
C18 C16 1_555 1_555
C19 C20 1_555 1_555
C20 H17 1_555 1_555
C21 C20 1_555 1_555
H18 C21 1_555 1_555
C22 C21 1_555 1_555
H19 C22 1_555 1_555
C23 C22 1_555 1_555
H20 C23 1_555 1_555
C24 C19 1_555 1_555
H21 C24 1_555 1_555
C25 C26 1_555 1_555
C26 H22 1_555 1_555
C27 C26 1_555 1_555
H23 C27 1_555 1_555
C28 C27 1_555 1_555
H24 C28 1_555 1_555
C29 C28 1_555 1_555
H25 C29 1_555 1_555
C30 C25 1_555 1_555
H26 C30 1_555 1_555
N1 C1 1_555 1_555
N2 C10 1_555 1_555
Si1 C3 1_555 1_555
C2 N1 1_555 1_555
C4 C8 1_555 1_555
C8 C9 1_555 1_555
C9 N1 1_555 1_555
C11 N2 1_555 1_555
C12 Si1 1_555 1_555
C13 C17 1_555 1_555
C17 C18 1_555 1_555
C18 N2 1_555 1_555
C19 Si1 1_555 1_555
C23 C24 1_555 1_555
C25 Si1 1_555 1_555
C29 C30 1_555 1_555

#END
