
#######################################################################
#
#                 Cambridge Crystallographic Data Centre
#                                CCDC 
#
#######################################################################
#
# If this CIF has been generated from an entry in the Cambridge 
# Structural Database, then it will include bibliographic, chemical, 
# crystal, experimental, refinement or atomic coordinate data resulting 
# from the CCDC's data processing and validation procedures.
#
#######################################################################

data_NEHVEE
_chemical_formula_moiety         'C52 H48 O4 P2'
_chemical_name_systematic        
6,6'-bis(anthracen-9-yl)-3,3'-di-t-butyl-4,4'-dimethoxy-2,2',3,3'-tetrahydro-2,2'-bi-1,3-benzoxaphosphole
_symmetry_cell_setting           tetragonal
_symmetry_space_group_name_H-M   'P 41 21 2'
_symmetry_Int_Tables_number      92
_space_group_name_Hall           'P 4abw 2nw'
loop_
_symmetry_equiv_pos_site_id
_symmetry_equiv_pos_as_xyz
1 x,y,z
2 1/2-y,1/2+x,1/4+z
3 -x,-y,1/2+z
4 1/2+y,1/2-x,3/4+z
5 1/2+x,1/2-y,3/4-z
6 y,x,-z
7 1/2-x,1/2+y,1/4-z
8 -y,-x,1/2-z
_cell_length_a                   8.29740(10)
_cell_length_b                   8.29740(10)
_cell_length_c                   62.6514(12)
_cell_angle_alpha                90
_cell_angle_beta                 90
_cell_angle_gamma                90
_cell_volume                     4313.35
_exptl_crystal_colour            colorless
_exptl_crystal_description       block
_cell_formula_units_Z            4
loop_
_atom_site_label
_atom_site_type_symbol
_atom_site_fract_x
_atom_site_fract_y
_atom_site_fract_z
C1 C 0.7091(4) 0.2004(4) 0.74128(4)
H1 H 0.5940 0.2015 0.7448
C2 C 0.8245(4) 0.2097(4) 0.70749(4)
C3 C 0.8584(4) 0.0489(4) 0.71152(4)
C4 C 0.9584(4) -0.0326(4) 0.69742(5)
C5 C 1.0218(4) 0.0467(4) 0.67956(5)
H2 H 1.0884 -0.0083 0.6701
C6 C 0.9846(4) 0.2092(4) 0.67598(4)
C7 C 0.8853(4) 0.2907(4) 0.68992(4)
H3 H 0.8595 0.3983 0.6876
C8 C 0.8224(4) 0.2855(5) 0.63522(5)
H4 H 0.7667 0.2283 0.6456
C9 C 0.7486(5) 0.3179(5) 0.61609(5)
H5 H 0.6437 0.2829 0.6137
C10 C 0.8309(5) 0.4038(5) 0.60001(5)
H6 H 0.7809 0.4221 0.5869
C11 C 0.9815(5) 0.4596(5) 0.60341(5)
H7 H 1.0330 0.5184 0.5928
C12 C 1.0629(4) 0.4299(4) 0.62309(5)
C13 C 0.9824(4) 0.3380(4) 0.63936(5)
C14 C 1.0647(4) 0.3021(4) 0.65838(4)
C15 C 1.2211(4) 0.3597(4) 0.66192(5)
C16 C 1.3078(4) 0.3322(4) 0.68134(5)
H8 H 1.2617 0.2689 0.6919
C17 C 1.4547(4) 0.3963(5) 0.68453(6)
H9 H 1.5082 0.3768 0.6973
C18 C 1.5287(5) 0.4921(5) 0.66885(6)
H10 H 1.6298 0.5365 0.6714
C19 C 1.4538(5) 0.5200(5) 0.65008(6)
H11 H 1.5053 0.5818 0.6397
C20 C 1.2985(4) 0.4572(4) 0.64580(5)
C21 C 1.2174(4) 0.4877(4) 0.62689(5)
H12 H 1.2680 0.5489 0.6164
C22 C 0.5734(5) -0.1117(5) 0.73014(6)
C23 C 0.4726(6) -0.0167(6) 0.71421(6)
H13 H 0.5331 -0.0014 0.7013
H14 H 0.4456 0.0864 0.7202
H15 H 0.3756 -0.0751 0.7111
C24 C 0.4830(7) -0.1260(7) 0.75137(7)
H16 H 0.4616 -0.0203 0.7569
H17 H 0.5477 -0.1850 0.7614
H18 H 0.3831 -0.1818 0.7491
C25 C 0.6125(8) -0.2790(6) 0.72121(9)
H19 H 0.5142 -0.3325 0.7173
H20 H 0.6675 -0.3412 0.7319
H21 H 0.6801 -0.2682 0.7089
C26 C 1.0894(5) -0.2808(5) 0.68812(6)
H22 H 1.0376 -0.2895 0.6745
H23 H 1.1069 -0.3866 0.6939
H24 H 1.1910 -0.2269 0.6865
O1 O 0.7324(3) 0.2911(3) 0.72174(3)
O2 O 0.9898(4) -0.1911(3) 0.70222(4)
P1 P 0.77321(11) -0.01509(10) 0.73706(2)
C1G C 0.7996(4) 0.2909(4) 0.75872(4)
H1G H 0.7985 0.4060 0.7552
C2G C 0.7903(4) 0.1755(4) 0.79251(4)
C3G C 0.9511(4) 0.1416(4) 0.78848(4)
C4G C 1.0326(4) 0.0416(4) 0.80258(5)
C5G C 0.9533(4) -0.0218(4) 0.82044(5)
H2G H 1.0083 -0.0884 0.8299
C6G C 0.7908(4) 0.0154(4) 0.82402(4)
C7G C 0.7093(4) 0.1147(4) 0.81008(4)
H3G H 0.6017 0.1405 0.8124
C8G C 0.7145(5) 0.1776(4) 0.86478(5)
H4G H 0.7717 0.2333 0.8544
C9G C 0.6821(5) 0.2514(5) 0.88391(5)
H5G H 0.7171 0.3563 0.8863
C10G C 0.5962(5) 0.1691(5) 0.89999(5)
H6G H 0.5779 0.2191 0.9131
C11G C 0.5404(5) 0.0185(5) 0.89659(5)
H7G H 0.4816 -0.0330 0.9072
C12G C 0.5701(4) -0.0629(4) 0.87691(5)
C13G C 0.6620(4) 0.0176(4) 0.86064(5)
C14G C 0.6979(4) -0.0647(4) 0.84162(4)
C15G C 0.6403(4) -0.2211(4) 0.83808(5)
C16G C 0.6678(4) -0.3078(4) 0.81866(5)
H8G H 0.7311 -0.2617 0.8081
C17G C 0.6037(5) -0.4547(4) 0.81547(6)
H9G H 0.6232 -0.5082 0.8027
C18G C 0.5079(5) -0.5287(5) 0.83115(6)
H10G H 0.4635 -0.6298 0.8286
C19G C 0.4800(5) -0.4538(5) 0.84992(6)
H11G H 0.4182 -0.5053 0.8603
C20G C 0.5428(4) -0.2985(4) 0.85420(5)
C21G C 0.5123(4) -0.2174(4) 0.87311(5)
H12G H 0.4511 -0.2680 0.8836
C22G C 1.1117(5) 0.4266(5) 0.76986(6)
C23G C 1.0167(6) 0.5274(6) 0.78579(6)
H13G H 1.0014 0.4669 0.7987
H14G H 0.9136 0.5544 0.7798
H15G H 1.0751 0.6244 0.7889
C24G C 1.1260(7) 0.5170(7) 0.74863(7)
H16G H 1.0203 0.5384 0.7431
H17G H 1.1850 0.4523 0.7386
H18G H 1.1818 0.6169 0.7509
C25G C 1.2790(6) 0.3875(8) 0.77879(9)
H19G H 1.3325 0.4858 0.7827
H20G H 1.3412 0.3325 0.7681
H21G H 1.2682 0.3199 0.7911
C26G C 1.2808(5) -0.0894(5) 0.81188(6)
H22G H 1.2895 -0.0376 0.8255
H23G H 1.3866 -0.1069 0.8061
H24G H 1.2269 -0.1910 0.8135
O1G O 0.7089(3) 0.2676(3) 0.77826(3)
O2G O 1.1911(3) 0.0102(4) 0.79778(4)
P1G P 1.01509(10) 0.22679(11) 0.76294(2)
loop_
_geom_bond_atom_site_label_1
_geom_bond_atom_site_label_2
_geom_bond_site_symmetry_1
_geom_bond_site_symmetry_2
C1 H1 1_555 1_555
C2 C3 1_555 1_555
C3 C4 1_555 1_555
C4 C5 1_555 1_555
C5 H2 1_555 1_555
C6 C5 1_555 1_555
C7 C2 1_555 1_555
H3 C7 1_555 1_555
C8 H4 1_555 1_555
C9 C8 1_555 1_555
H5 C9 1_555 1_555
C10 C9 1_555 1_555
H6 C10 1_555 1_555
C11 C10 1_555 1_555
H7 C11 1_555 1_555
C12 C11 1_555 1_555
C13 C8 1_555 1_555
C14 C6 1_555 1_555
C15 C14 1_555 1_555
C16 C15 1_555 1_555
H8 C16 1_555 1_555
C17 C16 1_555 1_555
H9 C17 1_555 1_555
C18 C17 1_555 1_555
H10 C18 1_555 1_555
C19 C18 1_555 1_555
H11 C19 1_555 1_555
C20 C15 1_555 1_555
C21 C12 1_555 1_555
H12 C21 1_555 1_555
C22 C23 1_555 1_555
C23 H13 1_555 1_555
H14 C23 1_555 1_555
H15 C23 1_555 1_555
C24 C22 1_555 1_555
H16 C24 1_555 1_555
H17 C24 1_555 1_555
H18 C24 1_555 1_555
C25 C22 1_555 1_555
H19 C25 1_555 1_555
H20 C25 1_555 1_555
H21 C25 1_555 1_555
C26 H22 1_555 1_555
H23 C26 1_555 1_555
H24 C26 1_555 1_555
O1 C1 1_555 1_555
O2 C4 1_555 1_555
P1 C1 1_555 1_555
C1G C1 1_555 1_555
H1G C1G 1_555 1_555
C2G C3G 1_555 1_555
C3G C4G 1_555 1_555
C4G C5G 1_555 1_555
C5G H2G 1_555 1_555
C6G C5G 1_555 1_555
C7G C2G 1_555 1_555
H3G C7G 1_555 1_555
C8G H4G 1_555 1_555
C9G C8G 1_555 1_555
H5G C9G 1_555 1_555
C10G C9G 1_555 1_555
H6G C10G 1_555 1_555
C11G C10G 1_555 1_555
H7G C11G 1_555 1_555
C12G C11G 1_555 1_555
C13G C8G 1_555 1_555
C14G C6G 1_555 1_555
C15G C14G 1_555 1_555
C16G C15G 1_555 1_555
H8G C16G 1_555 1_555
C17G C16G 1_555 1_555
H9G C17G 1_555 1_555
C18G C17G 1_555 1_555
H10G C18G 1_555 1_555
C19G C18G 1_555 1_555
H11G C19G 1_555 1_555
C20G C15G 1_555 1_555
C21G C12G 1_555 1_555
H12G C21G 1_555 1_555
C22G C23G 1_555 1_555
C23G H13G 1_555 1_555
H14G C23G 1_555 1_555
H15G C23G 1_555 1_555
C24G C22G 1_555 1_555
H16G C24G 1_555 1_555
H17G C24G 1_555 1_555
H18G C24G 1_555 1_555
C25G C22G 1_555 1_555
H19G C25G 1_555 1_555
H20G C25G 1_555 1_555
H21G C25G 1_555 1_555
C26G H22G 1_555 1_555
H23G C26G 1_555 1_555
H24G C26G 1_555 1_555
O1G C1G 1_555 1_555
O2G C4G 1_555 1_555
P1G C1G 1_555 1_555
C2 O1 1_555 1_555
C3 P1 1_555 1_555
C6 C7 1_555 1_555
C12 C13 1_555 1_555
C13 C14 1_555 1_555
C19 C20 1_555 1_555
C20 C21 1_555 1_555
C22 P1 1_555 1_555
C26 O2 1_555 1_555
C2G O1G 1_555 1_555
C3G P1G 1_555 1_555
C6G C7G 1_555 1_555
C12G C13G 1_555 1_555
C13G C14G 1_555 1_555
C19G C20G 1_555 1_555
C20G C21G 1_555 1_555
C22G P1G 1_555 1_555
C26G O2G 1_555 1_555

#END
