
#######################################################################
#
#                 Cambridge Crystallographic Data Centre
#                                CCDC 
#
#######################################################################
#
# If this CIF has been generated from an entry in the Cambridge 
# Structural Database, then it will include bibliographic, chemical, 
# crystal, experimental, refinement or atomic coordinate data resulting 
# from the CCDC's data processing and validation procedures.
#
#######################################################################

data_NEHWII
_chemical_formula_moiety         'C23 H16 Cl2 N2 O5'
_chemical_name_systematic        
2-(1-(2-(Benzyloxy)phenyl)-2,2-dichloro-2-nitroethyl)-1H-isoindole-1,3(2H)-dione
_symmetry_cell_setting           triclinic
_symmetry_space_group_name_H-M   'P -1'
_symmetry_Int_Tables_number      2
_space_group_name_Hall           '-P 1'
loop_
_symmetry_equiv_pos_site_id
_symmetry_equiv_pos_as_xyz
1 x,y,z
2 -x,-y,-z
_cell_length_a                   9.1545(16)
_cell_length_b                   9.2426(16)
_cell_length_c                   12.991(2)
_cell_angle_alpha                79.749(2)
_cell_angle_beta                 86.397(2)
_cell_angle_gamma                86.670(2)
_cell_volume                     1078.27
_exptl_crystal_description       block
_cell_formula_units_Z            2
loop_
_atom_site_label
_atom_site_type_symbol
_atom_site_fract_x
_atom_site_fract_y
_atom_site_fract_z
Cl1 Cl 0.30732(8) -0.24654(7) 0.08951(5)
Cl2 Cl 0.00576(8) -0.14562(8) 0.10993(6)
O1 O 0.04406(16) 0.17380(16) 0.27934(11)
N1 N 0.33488(17) -0.09052(17) 0.28733(12)
O2 O 0.53521(16) -0.05093(17) 0.16783(12)
C1 C 0.1202(2) 0.2095(2) 0.18489(16)
O3 O 0.19794(17) -0.14840(18) 0.44335(12)
C2 C 0.4857(2) -0.0836(2) 0.25600(17)
C3 C 0.2074(2) -0.0541(2) 0.22444(15)
H1 H 0.1254 -0.0449 0.2755
C4 C 0.2078(2) 0.0945(2) 0.15225(15)
N2 N 0.1413(2) -0.3168(2) 0.26554(16)
C5 C 0.3160(2) -0.1350(2) 0.39758(16)
C6 C 0.4646(2) -0.1597(2) 0.43694(17)
C7 C 0.2874(2) 0.1237(2) 0.05720(16)
H2 H 0.3451 0.0486 0.0339
C8 C 0.2824(2) 0.2624(2) -0.00352(17)
H3 H 0.3368 0.2802 -0.0670
C9 C 0.5652(2) -0.1274(2) 0.35333(17)
C10 C 0.1973(2) 0.3737(2) 0.02990(18)
H4 H 0.1948 0.4670 -0.0111
C11 C 0.1156(2) 0.3490(2) 0.12346(18)
H5 H 0.0577 0.4251 0.1454
C12 C -0.1829(2) 0.3328(2) 0.27227(16)
C13 C -0.0401(2) 0.2868(2) 0.32210(17)
H6 H 0.0185 0.3725 0.3149
H7 H -0.0600 0.2525 0.3964
C14 C 0.5086(3) -0.2055(3) 0.53777(18)
H8 H 0.4408 -0.2273 0.5940
O4 O 0.2405(2) -0.4061(2) 0.28713(16)
O5 O 0.0245(2) -0.3157(2) 0.31154(17)
C15 C -0.2475(3) 0.2506(2) 0.20985(18)
H9 H -0.1982 0.1662 0.1932
C16 C -0.3836(3) 0.2919(3) 0.17202(19)
H10 H -0.4252 0.2354 0.1301
C17 C -0.4579(3) 0.4149(3) 0.1955(2)
H11 H -0.5503 0.4419 0.1704
C18 C -0.2588(3) 0.4588(2) 0.2941(2)
H12 H -0.2172 0.5171 0.3347
C19 C -0.3957(3) 0.4986(3) 0.2563(2)
H13 H -0.4460 0.5828 0.2722
C20 C 0.7133(3) -0.1383(3) 0.3665(2)
H14 H 0.7808 -0.1163 0.3101
C21 C 0.6578(3) -0.2178(3) 0.5516(2)
H15 H 0.6913 -0.2494 0.6183
C22 C 0.7574(3) -0.1837(3) 0.4678(2)
H16 H 0.8570 -0.1915 0.4796
C23 C 0.1706(2) -0.1844(2) 0.17210(17)
loop_
_geom_bond_atom_site_label_1
_geom_bond_atom_site_label_2
_geom_bond_site_symmetry_1
_geom_bond_site_symmetry_2
Cl1 C23 1_555 1_555
Cl2 C23 1_555 1_555
O1 C1 1_555 1_555
N1 C2 1_555 1_555
O2 C2 1_555 1_555
C1 C4 1_555 1_555
O3 C5 1_555 1_555
C2 C9 1_555 1_555
C3 N1 1_555 1_555
H1 C3 1_555 1_555
C4 C3 1_555 1_555
N2 O4 1_555 1_555
C5 N1 1_555 1_555
C6 C5 1_555 1_555
C7 C4 1_555 1_555
H2 C7 1_555 1_555
C8 C7 1_555 1_555
H3 C8 1_555 1_555
C9 C6 1_555 1_555
C10 C8 1_555 1_555
H4 C10 1_555 1_555
C11 C1 1_555 1_555
H5 C11 1_555 1_555
C12 C13 1_555 1_555
C13 O1 1_555 1_555
H6 C13 1_555 1_555
H7 C13 1_555 1_555
C14 C6 1_555 1_555
H8 C14 1_555 1_555
O5 N2 1_555 1_555
C15 C12 1_555 1_555
H9 C15 1_555 1_555
C16 C15 1_555 1_555
H10 C16 1_555 1_555
C17 C16 1_555 1_555
H11 C17 1_555 1_555
C18 C12 1_555 1_555
H12 C18 1_555 1_555
C19 C17 1_555 1_555
H13 C19 1_555 1_555
C20 C9 1_555 1_555
H14 C20 1_555 1_555
C21 C14 1_555 1_555
H15 C21 1_555 1_555
C22 C20 1_555 1_555
H16 C22 1_555 1_555
C23 C3 1_555 1_555
N2 C23 1_555 1_555
C10 C11 1_555 1_555
C18 C19 1_555 1_555
C21 C22 1_555 1_555

#END
