
#######################################################################
#
#                 Cambridge Crystallographic Data Centre
#                                CCDC 
#
#######################################################################
#
# If this CIF has been generated from an entry in the Cambridge 
# Structural Database, then it will include bibliographic, chemical, 
# crystal, experimental, refinement or atomic coordinate data resulting 
# from the CCDC's data processing and validation procedures.
#
#######################################################################

data_NEHXUW
_chemical_formula_moiety         'C26 H30 Br1 N3 O4,C1 H4 O1,H2 O1'
_chemical_name_systematic        
't-butyl 5-bromo-14b-(2-hydroxyethyl)-9-methyl-1-oxo-1,3,4,9,9a,14b-hexahydrobenzo[c]indolo[3,2-j][2,6]naphthyridine-10(2H)-carboxylate methanol solvate monohydrate'
_symmetry_cell_setting           monoclinic
_symmetry_space_group_name_H-M   'C 2'
_symmetry_Int_Tables_number      5
_space_group_name_Hall           'C 2y'
loop_
_symmetry_equiv_pos_site_id
_symmetry_equiv_pos_as_xyz
1 x,y,z
2 -x,y,-z
3 1/2+x,1/2+y,z
4 1/2-x,1/2+y,-z
_cell_length_a                   32.039(6)
_cell_length_b                   8.1020(14)
_cell_length_c                   10.3858(18)
_cell_angle_alpha                90
_cell_angle_beta                 101.971(3)
_cell_angle_gamma                90
_cell_volume                     2637.32
_exptl_crystal_colour            colorless
_exptl_crystal_description       needle
_cell_formula_units_Z            4
loop_
_atom_site_label
_atom_site_type_symbol
_atom_site_fract_x
_atom_site_fract_y
_atom_site_fract_z
Br1 Br 0.85018(2) 0.58345(6) 1.14142(4)
O1 O 0.87680(10) 1.0160(4) 0.5441(3)
O2 O 0.99031(9) 0.9821(4) 0.7705(3)
H1 H 1.0073(18) 0.913(8) 0.808(5)
O3 O 0.87829(11) 0.7646(4) 0.4499(3)
O4 O 0.94399(9) 0.7840(4) 1.1058(3)
N1 N 0.85826(10) 0.7912(5) 0.6450(3)
N2 N 0.93996(12) 0.5155(5) 1.0491(4)
H2 H 0.9613 0.4952 1.1156
N3 N 0.82261(11) 0.5241(4) 0.6286(3)
C1 C 0.89524(14) 1.2812(6) 0.4902(4)
H3 H 0.8682 1.3127 0.5132
H4 H 0.9014 1.3560 0.4223
H5 H 0.9182 1.2882 0.5686
C2 C 0.89208(12) 1.1063(7) 0.4385(4)
C3 C 0.87192(13) 0.8514(6) 0.5371(4)
C4 C 0.84966(12) 0.8926(5) 0.7500(4)
C5 C 0.87329(12) 0.8633(5) 0.8774(4)
C6 C 0.90462(13) 0.7188(6) 0.8875(4)
C7 C 0.94267(12) 0.7641(6) 0.8160(4)
H6 H 0.9678 0.6949 0.8529
H7 H 0.9339 0.7381 0.7211
C8 C 0.95539(12) 0.9451(6) 0.8317(4)
H8 H 0.9306 1.0146 0.7922
H9 H 0.9634 0.9723 0.9266
C9 C 0.85890(14) 1.0951(9) 0.3115(4)
H10 H 0.8554 0.9796 0.2832
H11 H 0.8682 1.1606 0.2432
H12 H 0.8316 1.1379 0.3258
C10 C 0.92968(14) 0.6737(6) 1.0258(5)
C11 C 0.91977(14) 0.3723(6) 0.9766(5)
H13 H 0.8959 0.3341 1.0164
H14 H 0.9408 0.2814 0.9838
C12 C 0.90305(14) 0.4119(6) 0.8337(4)
H15 H 0.8849 0.3199 0.7915
H16 H 0.9273 0.4237 0.7888
C13 C 0.87685(11) 0.5725(7) 0.8178(3)
C14 C 0.83262(12) 0.5447(5) 0.8548(4)
C15 C 0.81732(13) 0.5374(5) 0.9703(4)
C16 C 0.77433(14) 0.4979(6) 0.9681(5)
H17 H 0.7646 0.4897 1.0482
C17 C 0.74661(14) 0.4712(6) 0.8503(5)
H18 H 0.7177 0.4442 0.8494
C18 C 0.76036(14) 0.4831(6) 0.7326(5)
H19 H 0.7409 0.4687 0.6509
C19 C 0.80279(13) 0.5162(5) 0.7364(4)
C20 C 0.86239(12) 0.6124(6) 0.6678(4)
H20 H 0.8838 0.5668 0.6194
C21 C 0.79704(14) 0.5477(6) 0.4968(4)
H21 H 0.7791 0.4503 0.4712
H22 H 0.8159 0.5635 0.4346
H23 H 0.7789 0.6453 0.4958
C22 C 0.86473(12) 0.9563(6) 0.9795(4)
H24 H 0.8808 0.9393 1.0662
C23 C 0.83251(11) 1.0761(8) 0.9567(3)
H25 H 0.8267 1.1392 1.0280
C24 C 0.80904(12) 1.1029(7) 0.8305(4)
H26 H 0.7871 1.1840 0.8155
C25 C 0.81760(13) 1.0110(5) 0.7264(4)
H27 H 0.8017 1.0289 0.6396
C26 C 0.93534(15) 1.0441(6) 0.4244(5)
H28 H 0.9537 1.0305 0.5118
H29 H 0.9483 1.1238 0.3735
H30 H 0.9321 0.9376 0.3786
O5 O 1.00130(11) 0.3341(4) 0.7457(3)
H31 H 0.9983(19) 0.367(6) 0.670(2)
H32 H 1.000(2) 0.2333(18) 0.741(5)
C27 C 0.4698(4) 0.072(3) 0.4572(15)
H33 H 0.4605 -0.0209 0.5044
H34 H 0.4756 0.1678 0.5161
H35 H 0.4959 0.0419 0.4273
O6 O 0.4363(3) 0.1140(16) 0.3434(8)
H36 H 0.4467 0.1167 0.2754
C28? C 0.4852(8) 0.1453(19) 0.475(3)
H37? H 0.4889 0.1769 0.3866
H38? H 0.5036 0.2138 0.5407
H39? H 0.4553 0.1617 0.4806
O7? O 0.4965(9) -0.0260(10) 0.498(4)
H40? H 0.5036 -0.0659 0.4309
loop_
_geom_bond_atom_site_label_1
_geom_bond_atom_site_label_2
_geom_bond_site_symmetry_1
_geom_bond_site_symmetry_2
Br1 C15 1_555 1_555
O1 C2 1_555 1_555
O2 H1 1_555 1_555
O3 C3 1_555 1_555
O4 C10 1_555 1_555
N1 C3 1_555 1_555
N2 H2 1_555 1_555
N3 C19 1_555 1_555
C1 H3 1_555 1_555
H4 C1 1_555 1_555
H5 C1 1_555 1_555
C2 C1 1_555 1_555
C3 O1 1_555 1_555
C4 N1 1_555 1_555
C5 C4 1_555 1_555
C6 C5 1_555 1_555
C7 C6 1_555 1_555
H6 C7 1_555 1_555
H7 C7 1_555 1_555
C8 O2 1_555 1_555
H8 C8 1_555 1_555
H9 C8 1_555 1_555
C9 C2 1_555 1_555
H10 C9 1_555 1_555
H11 C9 1_555 1_555
H12 C9 1_555 1_555
C10 N2 1_555 1_555
C11 N2 1_555 1_555
H13 C11 1_555 1_555
H14 C11 1_555 1_555
C12 C11 1_555 1_555
H15 C12 1_555 1_555
H16 C12 1_555 1_555
C13 C6 1_555 1_555
C14 C13 1_555 1_555
C15 C14 1_555 1_555
C16 C15 1_555 1_555
H17 C16 1_555 1_555
C17 C16 1_555 1_555
H18 C17 1_555 1_555
C18 C17 1_555 1_555
H19 C18 1_555 1_555
C19 C14 1_555 1_555
C20 N1 1_555 1_555
H20 C20 1_555 1_555
C21 N3 1_555 1_555
H21 C21 1_555 1_555
H22 C21 1_555 1_555
H23 C21 1_555 1_555
C22 C5 1_555 1_555
H24 C22 1_555 1_555
C23 C22 1_555 1_555
H25 C23 1_555 1_555
C24 C23 1_555 1_555
H26 C24 1_555 1_555
C25 C4 1_555 1_555
H27 C25 1_555 1_555
C26 C2 1_555 1_555
H28 C26 1_555 1_555
H29 C26 1_555 1_555
H30 C26 1_555 1_555
O5 H31 1_555 1_555
H32 O5 1_555 1_555
C27 H33 1_555 1_555
H34 C27 1_555 1_555
H35 C27 1_555 1_555
O6 C27 1_555 1_555
H36 O6 1_555 1_555
N3 C20 1_555 1_555
C6 C10 1_555 1_555
C7 C8 1_555 1_555
C12 C13 1_555 1_555
C13 C20 1_555 1_555
C18 C19 1_555 1_555
C24 C25 1_555 1_555

#END
