
#######################################################################
#
#                 Cambridge Crystallographic Data Centre
#                                CCDC 
#
#######################################################################
#
# If this CIF has been generated from an entry in the Cambridge 
# Structural Database, then it will include bibliographic, chemical, 
# crystal, experimental, refinement or atomic coordinate data resulting 
# from the CCDC's data processing and validation procedures.
#
#######################################################################

data_NEHXEF
_chemical_formula_moiety         'C16 H22 O3'
_chemical_name_systematic        
7-Methoxy-5-methyl-2,3,4,5,9,10,11,12-octahydrooxepino[2,3-g][1]benzoxepine
_symmetry_cell_setting           monoclinic
_symmetry_space_group_name_H-M   'P 21/c'
_symmetry_Int_Tables_number      14
_space_group_name_Hall           '-P 2ybc'
loop_
_symmetry_equiv_pos_site_id
_symmetry_equiv_pos_as_xyz
1 x,y,z
2 -x,1/2+y,1/2-z
3 -x,-y,-z
4 x,1/2-y,1/2+z
_cell_length_a                   10.1627(8)
_cell_length_b                   17.1270(13)
_cell_length_c                   8.8092(7)
_cell_angle_alpha                90
_cell_angle_beta                 113.522(2)
_cell_angle_gamma                90
_cell_volume                     1405.89
_exptl_crystal_colour            colorless
_exptl_crystal_description       block
_cell_formula_units_Z            4
loop_
_atom_site_label
_atom_site_type_symbol
_atom_site_fract_x
_atom_site_fract_y
_atom_site_fract_z
O1 O 0.55443(18) 0.05777(10) 0.8947(2)
O2 O 0.94623(18) 0.09665(10) 0.7324(2)
O3 O 1.05212(18) 0.20839(11) 0.9551(2)
C1 C 0.9265(2) 0.17467(14) 0.9449(3)
C2 C 0.8525(3) 0.19727(15) 1.0397(3)
H1 H 0.8881 0.2379 1.1151
C3 C 0.7257(3) 0.16038(15) 1.0245(3)
C4 C 0.6750(2) 0.10015(14) 0.9100(3)
C5 C 0.7449(2) 0.07744(13) 0.8079(3)
C6 C 0.8729(2) 0.11518(14) 0.8301(3)
C7 C 0.6524(3) 0.18659(17) 1.1370(3)
H2 H 0.7005 0.2350 1.1895
C8 C 0.4940(3) 0.20726(18) 1.0461(4)
H3 H 0.4624 0.2329 1.1239
H4 H 0.4854 0.2449 0.9603
C9 C 0.3922(3) 0.14010(18) 0.9666(4)
H5 H 0.3993 0.1023 1.0515
H6 H 0.2947 0.1599 0.9207
C10 C 0.4212(3) 0.09951(17) 0.8320(4)
H7 H 0.3437 0.0633 0.7753
H8 H 0.4231 0.1379 0.7519
C11 C 0.6844(3) 0.01553(15) 0.6775(3)
H9 H 0.6662 0.0386 0.5704
H10 H 0.5929 -0.0014 0.6763
C12 C 0.7795(3) -0.05615(16) 0.6995(4)
H11 H 0.8127 -0.0736 0.8134
H12 H 0.7221 -0.0978 0.6296
C13 C 0.9090(3) -0.04225(18) 0.6579(4)
H13 H 0.9617 -0.0908 0.6725
H14 H 0.8754 -0.0278 0.5420
C14 C 1.0100(3) 0.01998(16) 0.7604(3)
H15 H 1.0410 0.0069 0.8766
H16 H 1.0943 0.0208 0.7346
C15 C 1.1175(3) 0.26357(17) 1.0818(4)
H17 H 1.0533 0.3067 1.0680
H18 H 1.2046 0.2821 1.0763
H19 H 1.1390 0.2395 1.1875
C16 C 0.6782(4) 0.1297(2) 1.2752(4)
H20 H 0.6364 0.0802 1.2303
H21 H 0.6351 0.1491 1.3470
H22 H 0.7796 0.1234 1.3370
loop_
_geom_bond_atom_site_label_1
_geom_bond_atom_site_label_2
_geom_bond_site_symmetry_1
_geom_bond_site_symmetry_2
O1 C4 1_555 1_555
O2 C6 1_555 1_555
O3 C1 1_555 1_555
C1 C2 1_555 1_555
C2 H1 1_555 1_555
C3 C2 1_555 1_555
C4 C3 1_555 1_555
C5 C4 1_555 1_555
C6 C1 1_555 1_555
C7 C3 1_555 1_555
H2 C7 1_555 1_555
C8 C7 1_555 1_555
H3 C8 1_555 1_555
H4 C8 1_555 1_555
C9 C8 1_555 1_555
H5 C9 1_555 1_555
H6 C9 1_555 1_555
C10 O1 1_555 1_555
H7 C10 1_555 1_555
H8 C10 1_555 1_555
C11 C5 1_555 1_555
H9 C11 1_555 1_555
H10 C11 1_555 1_555
C12 C11 1_555 1_555
H11 C12 1_555 1_555
H12 C12 1_555 1_555
C13 C12 1_555 1_555
H13 C13 1_555 1_555
H14 C13 1_555 1_555
C14 O2 1_555 1_555
H15 C14 1_555 1_555
H16 C14 1_555 1_555
C15 O3 1_555 1_555
H17 C15 1_555 1_555
H18 C15 1_555 1_555
H19 C15 1_555 1_555
C16 C7 1_555 1_555
H20 C16 1_555 1_555
H21 C16 1_555 1_555
H22 C16 1_555 1_555
C5 C6 1_555 1_555
C9 C10 1_555 1_555
C13 C14 1_555 1_555

#END
