
#######################################################################
#
#                 Cambridge Crystallographic Data Centre
#                                CCDC 
#
#######################################################################
#
# If this CIF has been generated from an entry in the Cambridge 
# Structural Database, then it will include bibliographic, chemical, 
# crystal, experimental, refinement or atomic coordinate data resulting 
# from the CCDC's data processing and validation procedures.
#
#######################################################################

data_NEHXOQ
_chemical_formula_moiety         'C32 H33 Br1 N2 O4 S1'
_chemical_name_systematic        
't-butyl 10-bromo-11-ethenyl-5-((4-methylphenyl)sulfonyl)-10b-(prop-2-en-1-yl)-5,5a,10b,11-tetrahydro-6H-indolo[2,3-b]quinoline-6-carboxylate'
_symmetry_cell_setting           orthorhombic
_symmetry_space_group_name_H-M   'P 21 21 21'
_symmetry_Int_Tables_number      19
_space_group_name_Hall           'P 2ac 2ab'
loop_
_symmetry_equiv_pos_site_id
_symmetry_equiv_pos_as_xyz
1 x,y,z
2 1/2+x,1/2-y,-z
3 -x,1/2+y,1/2-z
4 1/2-x,-y,1/2+z
_cell_length_a                   10.557(2)
_cell_length_b                   11.967(2)
_cell_length_c                   23.185(5)
_cell_angle_alpha                90
_cell_angle_beta                 90
_cell_angle_gamma                90
_cell_volume                     2929.09
_cell_formula_units_Z            4
loop_
_atom_site_label
_atom_site_type_symbol
_atom_site_fract_x
_atom_site_fract_y
_atom_site_fract_z
Br1 Br 0.33046(2) 0.58835(3) 0.756898(11)
S1 S 0.67042(5) 0.60242(5) 0.49055(2)
O1 O 0.46231(14) 0.37623(13) 0.47004(7)
O2 O 0.75095(15) 0.69820(14) 0.49833(8)
O3 O 0.72681(15) 0.49308(14) 0.48823(7)
O4 O 0.24713(15) 0.39088(15) 0.47918(8)
N1 N 0.38237(18) 0.47984(16) 0.54106(9)
N2 N 0.56772(17) 0.60317(16) 0.54413(8)
C1 C 0.3898(3) 0.3479(2) 0.36994(11)
H1 H 0.3034 0.3632 0.3803
H2 H 0.3916 0.2973 0.3378
H3 H 0.4313 0.4163 0.3595
C2 C 0.4578(2) 0.2952(2) 0.42100(11)
C3 C 0.3541(2) 0.4123(2) 0.49445(10)
C4 C 0.5106(2) 0.49678(19) 0.56525(10)
H4 H 0.5652 0.4336 0.5551
C5 C 0.5815(2) 0.62293(19) 0.42627(11)
C6 C 0.6489(2) 0.61842(19) 0.37469(11)
H5 H 0.7353 0.6033 0.3747
C7 C 0.5847(3) 0.6370(2) 0.32315(11)
H6 H 0.6292 0.6346 0.2886
C8 C 0.4539(2) 0.6593(2) 0.32226(11)
C9 C 0.3872(3) 0.6793(2) 0.26564(11)
H7 H 0.2975 0.6829 0.2720
H8 H 0.4059 0.6192 0.2396
H9 H 0.4159 0.7486 0.2493
C10 C 0.4524(2) 0.6456(2) 0.42666(11)
H10 H 0.4082 0.6490 0.4613
C11 C 0.3897(2) 0.66321(19) 0.37418(11)
H11 H 0.3032 0.6778 0.3743
C12 C 0.3954(3) 0.1869(2) 0.44125(13)
H12 H 0.4383 0.1599 0.4750
H13 H 0.4006 0.1320 0.4112
H14 H 0.3081 0.2010 0.4503
C13 C 0.5974(2) 0.2771(2) 0.40765(11)
H15 H 0.6340 0.3459 0.3943
H16 H 0.6058 0.2211 0.3783
H17 H 0.6405 0.2530 0.4419
C14 C 0.2906(2) 0.51720(19) 0.58139(11)
C15 C 0.1623(2) 0.53611(19) 0.57072(11)
H18 H 0.1274 0.5249 0.5344
C16 C 0.0887(2) 0.5726(2) 0.61699(11)
H19 H 0.0030 0.5869 0.6113
C17 C 0.1406(2) 0.5880(2) 0.67104(11)
H20 H 0.0899 0.6119 0.7014
C18 C 0.2699(2) 0.5675(2) 0.68006(11)
C19 C 0.3467(2) 0.53299(18) 0.63505(10)
C20 C 0.4885(2) 0.4996(2) 0.63172(10)
C21 C 0.5089(2) 0.3807(2) 0.65837(11)
H21 H 0.5957 0.3579 0.6513
H22 H 0.4976 0.3856 0.6998
C22 C 0.4216(2) 0.2918(2) 0.63530(11)
H23 H 0.3357 0.2995 0.6432
C23 C 0.4566(3) 0.2042(2) 0.60487(13)
H24 H 0.5417 0.1934 0.5960
H25 H 0.3963 0.1531 0.5923
C24 C 0.5779(2) 0.5849(2) 0.66154(10)
H26 H 0.5553 0.5881 0.7025
C25 C 0.7163(2) 0.5520(2) 0.65721(12)
H27 H 0.7525 0.5462 0.6208
C26 C 0.7876(3) 0.5314(2) 0.70260(12)
H28 H 0.7534 0.5367 0.7395
H29 H 0.8721 0.5115 0.6978
C27 C 0.5529(2) 0.6988(2) 0.63538(11)
C28 C 0.5461(2) 0.7057(2) 0.57562(11)
C29 C 0.5230(2) 0.8069(2) 0.54818(11)
H30 H 0.5183 0.8104 0.5082
C30 C 0.5069(2) 0.9030(2) 0.58129(11)
H31 H 0.4939 0.9716 0.5633
C31 C 0.5104(2) 0.8966(2) 0.64081(11)
H32 H 0.4979 0.9607 0.6628
C32 C 0.5325(2) 0.7950(2) 0.66801(12)
H33 H 0.5338 0.7911 0.7081
loop_
_geom_bond_atom_site_label_1
_geom_bond_atom_site_label_2
_geom_bond_site_symmetry_1
_geom_bond_site_symmetry_2
Br1 C18 1_555 1_555
S1 O2 1_555 1_555
O1 C2 1_555 1_555
O3 S1 1_555 1_555
O4 C3 1_555 1_555
N1 C3 1_555 1_555
N2 S1 1_555 1_555
C1 H1 1_555 1_555
H2 C1 1_555 1_555
H3 C1 1_555 1_555
C2 C1 1_555 1_555
C3 O1 1_555 1_555
C4 N1 1_555 1_555
H4 C4 1_555 1_555
C5 S1 1_555 1_555
C6 C5 1_555 1_555
H5 C6 1_555 1_555
C7 C6 1_555 1_555
H6 C7 1_555 1_555
C8 C7 1_555 1_555
C9 C8 1_555 1_555
H7 C9 1_555 1_555
H8 C9 1_555 1_555
H9 C9 1_555 1_555
C10 C5 1_555 1_555
H10 C10 1_555 1_555
C11 C8 1_555 1_555
H11 C11 1_555 1_555
C12 C2 1_555 1_555
H12 C12 1_555 1_555
H13 C12 1_555 1_555
H14 C12 1_555 1_555
C13 C2 1_555 1_555
H15 C13 1_555 1_555
H16 C13 1_555 1_555
H17 C13 1_555 1_555
C14 N1 1_555 1_555
C15 C14 1_555 1_555
H18 C15 1_555 1_555
C16 C15 1_555 1_555
H19 C16 1_555 1_555
C17 C16 1_555 1_555
H20 C17 1_555 1_555
C18 C17 1_555 1_555
C19 C14 1_555 1_555
C20 C4 1_555 1_555
C21 C20 1_555 1_555
H21 C21 1_555 1_555
H22 C21 1_555 1_555
C22 C21 1_555 1_555
H23 C22 1_555 1_555
C23 C22 1_555 1_555
H24 C23 1_555 1_555
H25 C23 1_555 1_555
C24 C20 1_555 1_555
H26 C24 1_555 1_555
C25 C24 1_555 1_555
H27 C25 1_555 1_555
C26 C25 1_555 1_555
H28 C26 1_555 1_555
H29 C26 1_555 1_555
C27 C24 1_555 1_555
C28 N2 1_555 1_555
C29 C28 1_555 1_555
H30 C29 1_555 1_555
C30 C29 1_555 1_555
H31 C30 1_555 1_555
C31 C30 1_555 1_555
H32 C31 1_555 1_555
C32 C27 1_555 1_555
H33 C32 1_555 1_555
N2 C4 1_555 1_555
C10 C11 1_555 1_555
C18 C19 1_555 1_555
C19 C20 1_555 1_555
C27 C28 1_555 1_555
C31 C32 1_555 1_555

#END
