
#######################################################################
#
#                 Cambridge Crystallographic Data Centre
#                                CCDC 
#
#######################################################################
#
# If this CIF has been generated from an entry in the Cambridge 
# Structural Database, then it will include bibliographic, chemical, 
# crystal, experimental, refinement or atomic coordinate data resulting 
# from the CCDC's data processing and validation procedures.
#
#######################################################################

data_NEHXIJ
_chemical_formula_moiety         'C12 H14 O4'
_chemical_name_systematic        
4-Methoxy-1a-methyl-1a,2,8,8a-tetrahydrooxireno[c][1]benzoxepin-7-ol
_symmetry_cell_setting           monoclinic
_symmetry_space_group_name_H-M   'P 21/n'
_symmetry_Int_Tables_number      14
_space_group_name_Hall           '-P 2yn'
loop_
_symmetry_equiv_pos_site_id
_symmetry_equiv_pos_as_xyz
1 x,y,z
2 1/2-x,1/2+y,1/2-z
3 -x,-y,-z
4 1/2+x,1/2-y,1/2+z
_cell_length_a                   9.3065(6)
_cell_length_b                   9.8913(6)
_cell_length_c                   11.2771(6)
_cell_angle_alpha                90
_cell_angle_beta                 97.663(3)
_cell_angle_gamma                90
_cell_volume                     1028.82
_exptl_crystal_colour            colorless
_cell_formula_units_Z            4
loop_
_atom_site_label
_atom_site_type_symbol
_atom_site_fract_x
_atom_site_fract_y
_atom_site_fract_z
O1 O 0.08248(14) 0.53749(12) 0.29428(11)
O2 O 0.21459(14) 0.16500(13) 0.58304(11)
O3 O 0.27486(14) 0.33836(12) 0.35073(11)
O4 O 0.38672(16) 0.49779(14) 0.75021(11)
H1 H 0.3560 0.5526 0.7979
C1 C -0.0142(2) 0.64862(18) 0.26361(17)
H2 H -0.0915 0.6472 0.3147
H3 H -0.0568 0.6409 0.1796
H4 H 0.0396 0.7338 0.2755
C2 C 0.15591(19) 0.53858(17) 0.40824(15)
C3 C 0.25480(19) 0.43356(17) 0.43706(15)
C4 C 0.33502(19) 0.42166(17) 0.54921(15)
C5 C 0.4386(2) 0.30500(18) 0.57369(16)
H5 H 0.4909 0.3144 0.6557
H6 H 0.5113 0.3097 0.5172
C6 C 0.3662(2) 0.16800(17) 0.56228(15)
H7 H 0.4267 0.0927 0.6014
C7 C 0.2274(2) -0.02292(18) 0.44038(17)
H8 H 0.2854 -0.0524 0.3787
H9 H 0.1243 -0.0375 0.4121
H10 H 0.2551 -0.0752 0.5137
C8 C 0.2538(2) 0.12469(17) 0.46591(15)
C9 C 0.1970(2) 0.21503(17) 0.36142(15)
H11 H 0.1975 0.1627 0.2866
H12 H 0.0949 0.2379 0.3682
C10 C 0.1382(2) 0.63339(17) 0.49582(16)
H13 H 0.0724 0.7063 0.4781
C11 C 0.2165(2) 0.62215(17) 0.60951(16)
H14 H 0.2038 0.6878 0.6687
C12 C 0.3127(2) 0.51649(17) 0.63750(16)
loop_
_geom_bond_atom_site_label_1
_geom_bond_atom_site_label_2
_geom_bond_site_symmetry_1
_geom_bond_site_symmetry_2
O1 C1 1_555 1_555
O2 C6 1_555 1_555
O3 C3 1_555 1_555
O4 H1 1_555 1_555
C1 H2 1_555 1_555
H3 C1 1_555 1_555
H4 C1 1_555 1_555
C2 O1 1_555 1_555
C3 C2 1_555 1_555
C4 C3 1_555 1_555
C5 C4 1_555 1_555
H5 C5 1_555 1_555
H6 C5 1_555 1_555
C6 C5 1_555 1_555
H7 C6 1_555 1_555
C7 H8 1_555 1_555
H9 C7 1_555 1_555
H10 C7 1_555 1_555
C8 O2 1_555 1_555
C9 O3 1_555 1_555
H11 C9 1_555 1_555
H12 C9 1_555 1_555
C10 C2 1_555 1_555
H13 C10 1_555 1_555
C11 C10 1_555 1_555
H14 C11 1_555 1_555
C12 O4 1_555 1_555
C4 C12 1_555 1_555
C6 C8 1_555 1_555
C7 C8 1_555 1_555
C8 C9 1_555 1_555
C11 C12 1_555 1_555

#END
