
#######################################################################
#
#                 Cambridge Crystallographic Data Centre
#                                CCDC 
#
#######################################################################
#
# If this CIF has been generated from an entry in the Cambridge 
# Structural Database, then it will include bibliographic, chemical, 
# crystal, experimental, refinement or atomic coordinate data resulting 
# from the CCDC's data processing and validation procedures.
#
#######################################################################

data_NEHYEG
_chemical_formula_moiety         'C16 H15 N1 O6'
_chemical_name_systematic        
'Diethyl 4-benzoyl-1,2-oxazole-3,5-dicarboxylate'
_symmetry_cell_setting           triclinic
_symmetry_space_group_name_H-M   'P -1'
_symmetry_Int_Tables_number      2
_space_group_name_Hall           '-P 1'
loop_
_symmetry_equiv_pos_site_id
_symmetry_equiv_pos_as_xyz
1 x,y,z
2 -x,-y,-z
_cell_length_a                   7.7457(4)
_cell_length_b                   10.4061(5)
_cell_length_c                   10.4809(6)
_cell_angle_alpha                85.9410(10)
_cell_angle_beta                 88.7100(10)
_cell_angle_gamma                76.0350(10)
_cell_volume                     817.749
_exptl_crystal_colour            colorless
_exptl_crystal_description       plate
_cell_formula_units_Z            2
loop_
_atom_site_label
_atom_site_type_symbol
_atom_site_fract_x
_atom_site_fract_y
_atom_site_fract_z
C1 C 0.0791(5) 0.7661(3) 0.7137(3)
C2 C 0.1479(5) 0.6319(4) 0.7183(3)
H1 H 0.1666 0.5833 0.7968
C3 C 0.1891(7) 0.5693(4) 0.6072(4)
H2 H 0.2338 0.4777 0.6107
C4 C 0.1653(7) 0.6396(5) 0.4909(4)
H3 H 0.1938 0.5961 0.4159
C5 C 0.1006(7) 0.7718(5) 0.4856(3)
H4 H 0.0845 0.8197 0.4066
C6 C 0.0585(6) 0.8363(4) 0.5951(3)
H5 H 0.0155 0.9280 0.5903
C7 C 0.0233(5) 0.8400(4) 0.8283(3)
C8 C 0.0331(4) 0.7626(3) 0.9580(3)
C9 C -0.0772(5) 0.6864(3) 1.0081(3)
C10 C 0.1473(5) 0.7617(3) 1.0579(3)
C11 C -0.2283(5) 0.6423(4) 0.9560(3)
C12 C -0.4002(6) 0.6586(5) 0.7691(4)
H6 H -0.3784 0.5627 0.7710
H7 H -0.5155 0.6930 0.8080
C13 C -0.3974(8) 0.7134(6) 0.6392(5)
H8 H -0.4112 0.8076 0.6389
H9 H -0.4930 0.6952 0.5924
H10 H -0.2860 0.6739 0.5997
C14 C 0.2977(5) 0.8261(4) 1.0587(3)
C15 C 0.5081(7) 0.8899(6) 1.1837(5)
H11 H 0.6053 0.8556 1.1259
H12 H 0.4610 0.9833 1.1591
C16 C 0.5711(10) 0.8758(8) 1.3079(6)
H13 H 0.4820 0.9257 1.3623
H14 H 0.6769 0.9083 1.3099
H15 H 0.5979 0.7838 1.3375
O1 O -0.0294(5) 0.9586(3) 0.8256(2)
O2 O -0.3066(4) 0.5705(3) 1.0124(3)
O3 O -0.2615(3) 0.6964(3) 0.8387(2)
O4 O 0.3459(4) 0.8773(3) 0.9633(3)
O5 O 0.3682(3) 0.8182(3) 1.1730(2)
N1 N 0.1143(4) 0.6904(3) 1.1588(2)
O6 O -0.0316(4) 0.6417(3) 1.1288(2)
loop_
_geom_bond_atom_site_label_1
_geom_bond_atom_site_label_2
_geom_bond_site_symmetry_1
_geom_bond_site_symmetry_2
C1 C2 1_555 1_555
C2 H1 1_555 1_555
C3 C2 1_555 1_555
H2 C3 1_555 1_555
C4 C3 1_555 1_555
H3 C4 1_555 1_555
C5 C4 1_555 1_555
H4 C5 1_555 1_555
C6 C1 1_555 1_555
H5 C6 1_555 1_555
C7 C1 1_555 1_555
C8 C7 1_555 1_555
C9 C8 1_555 1_555
C10 C8 1_555 1_555
C11 C9 1_555 1_555
C12 H6 1_555 1_555
H7 C12 1_555 1_555
C13 C12 1_555 1_555
H8 C13 1_555 1_555
H9 C13 1_555 1_555
H10 C13 1_555 1_555
C14 C10 1_555 1_555
C15 H11 1_555 1_555
H12 C15 1_555 1_555
C16 C15 1_555 1_555
H13 C16 1_555 1_555
H14 C16 1_555 1_555
H15 C16 1_555 1_555
O1 C7 1_555 1_555
O2 C11 1_555 1_555
O3 C11 1_555 1_555
O4 C14 1_555 1_555
O5 C14 1_555 1_555
N1 C10 1_555 1_555
O6 C9 1_555 1_555
C5 C6 1_555 1_555
C12 O3 1_555 1_555
C15 O5 1_555 1_555
N1 O6 1_555 1_555

#END
