
#######################################################################
#
#                 Cambridge Crystallographic Data Centre
#                                CCDC 
#
#######################################################################
#
# If this CIF has been generated from an entry in the Cambridge 
# Structural Database, then it will include bibliographic, chemical, 
# crystal, experimental, refinement or atomic coordinate data resulting 
# from the CCDC's data processing and validation procedures.
#
#######################################################################

data_NEJCUC
_chemical_formula_moiety         'C24 H20 Br1 N3 O3'
_chemical_name_systematic        
(6-(4-Bromophenyl)-4-((4-nitrophenyl)amino)-3,4-dihydropyridin-1(2H)-yl)(phenyl)methanone
_symmetry_cell_setting           monoclinic
_symmetry_space_group_name_H-M   'P 21/c'
_symmetry_Int_Tables_number      14
_space_group_name_Hall           '-P 2ybc'
loop_
_symmetry_equiv_pos_site_id
_symmetry_equiv_pos_as_xyz
1 x,y,z
2 -x,1/2+y,1/2-z
3 -x,-y,-z
4 x,1/2-y,1/2+z
_cell_length_a                   9.5707(19)
_cell_length_b                   26.437(5)
_cell_length_c                   8.1388(16)
_cell_angle_alpha                90
_cell_angle_beta                 90.98(3)
_cell_angle_gamma                90
_cell_volume                     2058.98
_exptl_crystal_colour            colorless
_exptl_crystal_description       plate
_cell_formula_units_Z            4
loop_
_atom_site_label
_atom_site_type_symbol
_atom_site_fract_x
_atom_site_fract_y
_atom_site_fract_z
Br1 Br 0.22719(7) 0.73369(2) 0.51188(8)
O1 O 0.6271(4) 0.94945(14) 0.1132(4)
O2 O 0.9349(6) 1.1525(3) 1.3765(7)
O3 O 1.1137(5) 1.15198(19) 1.2281(6)
N1 N 0.6446(5) 0.94460(16) 0.3912(5)
N2 N 0.7004(5) 1.01824(17) 0.8029(5)
H1 H 0.6136 1.0114 0.8337
N3 N 0.9938(5) 1.1412(2) 1.2508(6)
C1 C 0.5510(6) 0.8316(2) 0.6342(7)
H2 H 0.6288 0.8315 0.7083
C2 C 0.4602(6) 0.7908(2) 0.6306(7)
H3 H 0.4749 0.7631 0.7031
C3 C 0.3486(6) 0.7906(2) 0.5216(7)
C4 C 0.3225(6) 0.8307(2) 0.4165(7)
H4 H 0.2443 0.8304 0.3432
C5 C 0.4138(5) 0.8715(2) 0.4211(6)
H5 H 0.3978 0.8992 0.3490
C6 C 0.5290(6) 0.87268(19) 0.5297(6)
C7 C 0.6511(6) 0.9234(2) 0.2360(6)
C8 C 0.7021(6) 0.8703(2) 0.2204(6)
C9 C 0.6521(6) 0.8413(2) 0.0903(7)
H6 H 0.5785 0.8536 0.0215
C10 C 0.7112(7) 0.7936(2) 0.0610(8)
H7 H 0.6762 0.7730 -0.0261
C11 C 0.8195(7) 0.7770(2) 0.1588(7)
H8 H 0.8597 0.7447 0.1388
C12 C 0.8715(7) 0.8065(2) 0.2866(7)
H9 H 0.9483 0.7950 0.3520
C13 C 0.8105(6) 0.8528(2) 0.3181(6)
H10 H 0.8437 0.8726 0.4079
C14 C 0.6236(5) 0.9176(2) 0.5379(6)
C15 C 0.6739(6) 0.9355(2) 0.6810(6)
H11 H 0.6491 0.9182 0.7787
C16 C 0.7678(6) 0.9815(2) 0.6973(7)
H12 H 0.8572 0.9707 0.7521
C17 C 0.8022(6) 1.0030(2) 0.5288(7)
H13 H 0.8296 1.0389 0.5404
H14 H 0.8822 0.9843 0.4830
C18 C 0.6780(6) 0.9989(2) 0.4122(7)
H15 H 0.5969 1.0170 0.4576
H16 H 0.7006 1.0142 0.3048
C19 C 0.7718(6) 1.0500(2) 0.9091(6)
C20 C 0.9169(6) 1.0582(2) 0.8917(7)
H17 H 0.9656 1.0425 0.8046
C21 C 0.9878(7) 1.0894(2) 1.0025(7)
H18 H 1.0849 1.0956 0.9904
C22 C 0.9173(6) 1.1111(2) 1.1286(6)
C23 C 0.7738(6) 1.1045(2) 1.1453(7)
H19 H 0.7259 1.1208 1.2319
C24 C 0.7018(6) 1.0741(2) 1.0345(6)
H20 H 0.6038 1.0697 1.0444
loop_
_geom_bond_atom_site_label_1
_geom_bond_atom_site_label_2
_geom_bond_site_symmetry_1
_geom_bond_site_symmetry_2
Br1 C3 1_555 1_555
O1 C7 1_555 1_555
O2 N3 1_555 1_555
O3 N3 1_555 1_555
N1 C7 1_555 1_555
N2 H1 1_555 1_555
N3 C22 1_555 1_555
C1 H2 1_555 1_555
C2 C1 1_555 1_555
H3 C2 1_555 1_555
C3 C2 1_555 1_555
C4 C3 1_555 1_555
H4 C4 1_555 1_555
C5 C4 1_555 1_555
H5 C5 1_555 1_555
C6 C1 1_555 1_555
C7 C8 1_555 1_555
C8 C9 1_555 1_555
C9 H6 1_555 1_555
C10 C9 1_555 1_555
H7 C10 1_555 1_555
C11 C10 1_555 1_555
H8 C11 1_555 1_555
C12 C11 1_555 1_555
H9 C12 1_555 1_555
C13 C8 1_555 1_555
H10 C13 1_555 1_555
C14 N1 1_555 1_555
C15 C14 1_555 1_555
H11 C15 1_555 1_555
C16 N2 1_555 1_555
H12 C16 1_555 1_555
C17 C16 1_555 1_555
H13 C17 1_555 1_555
H14 C17 1_555 1_555
C18 N1 1_555 1_555
H15 C18 1_555 1_555
H16 C18 1_555 1_555
C19 N2 1_555 1_555
C20 C19 1_555 1_555
H17 C20 1_555 1_555
C21 C20 1_555 1_555
H18 C21 1_555 1_555
C22 C21 1_555 1_555
C23 C22 1_555 1_555
H19 C23 1_555 1_555
C24 C19 1_555 1_555
H20 C24 1_555 1_555
C5 C6 1_555 1_555
C6 C14 1_555 1_555
C12 C13 1_555 1_555
C15 C16 1_555 1_555
C17 C18 1_555 1_555
C23 C24 1_555 1_555

#END
