
#######################################################################
#
#                 Cambridge Crystallographic Data Centre
#                                CCDC 
#
#######################################################################
#
# If this CIF has been generated from an entry in the Cambridge 
# Structural Database, then it will include bibliographic, chemical, 
# crystal, experimental, refinement or atomic coordinate data resulting 
# from the CCDC's data processing and validation procedures.
#
#######################################################################

data_NEJCEN
_chemical_formula_moiety         'C17 H20 F3 N1 O5 S1'
_chemical_name_systematic        
'methyl 3-(6-methoxy-2-methyl-3-((((trifluoromethyl)sulfonyl)amino)methyl)-2,3-dihydro-1H-inden-4-yl)prop-2-enoate'
_symmetry_cell_setting           monoclinic
_symmetry_space_group_name_H-M   'P 21'
_symmetry_Int_Tables_number      4
_space_group_name_Hall           'P 2yb'
loop_
_symmetry_equiv_pos_site_id
_symmetry_equiv_pos_as_xyz
1 x,y,z
2 -x,1/2+y,-z
_cell_length_a                   15.473(3)
_cell_length_b                   6.5866(13)
_cell_length_c                   19.166(4)
_cell_angle_alpha                90
_cell_angle_beta                 92.601(5)
_cell_angle_gamma                90
_cell_volume                     1951.28
_exptl_crystal_colour            colorless
_exptl_crystal_description       prismatic
_chemical_melting_point          '145-146 deg.C'
_cell_formula_units_Z            4
loop_
_atom_site_label
_atom_site_type_symbol
_atom_site_fract_x
_atom_site_fract_y
_atom_site_fract_z
S1 S 0.89994(8) 0.5591(2) 0.62460(6)
N1 N 0.8194(2) 0.6698(6) 0.5891(2)
O1 O 0.5326(2) 0.5862(7) 0.3590(2)
O2 O 0.7984(2) 1.5202(6) 0.45104(17)
O3 O 0.7812(3) 1.4919(6) 0.33659(19)
O4 O 0.8979(3) 0.3531(6) 0.6056(2)
O5 O 0.9110(2) 0.6207(7) 0.69502(17)
F1 F 1.0645(2) 0.5676(9) 0.6042(2)
F2 F 0.9847(2) 0.6535(7) 0.51620(19)
F3 F 1.0039(3) 0.8527(8) 0.6009(2)
C1 C 0.6573(3) 0.8521(8) 0.5302(2)
C2 C 0.6615(3) 0.9515(7) 0.4661(2)
C3 C 0.6191(3) 0.8611(8) 0.4080(2)
H1 H 0.6209 0.9243 0.3647
C4 C 0.5753(3) 0.6829(9) 0.4134(3)
C5 C 0.5703(3) 0.5876(9) 0.4781(3)
H2 H 0.5393 0.4676 0.4824
C6 C 0.6117(3) 0.6743(8) 0.5349(2)
C7 C 0.6163(4) 0.5980(10) 0.6095(3)
H3 H 0.6569 0.4863 0.6151
H4 H 0.5599 0.5533 0.6235
C8 C 0.6472(3) 0.7820(11) 0.6519(2)
H5 H 0.5955 0.8604 0.6620
C9 C 0.6985(3) 0.9105(8) 0.6008(2)
H6 H 0.6864 1.0542 0.6093
C10 C 0.7967(3) 0.8799(7) 0.6041(2)
H7 H 0.8226 0.9690 0.5706
H8 H 0.8199 0.9161 0.6503
C11 C 0.6919(4) 0.7304(13) 0.7222(2)
H9 H 0.6516 0.6636 0.7512
H10 H 0.7121 0.8530 0.7446
H11 H 0.7401 0.6422 0.7151
C12 C 0.5449(4) 0.6586(12) 0.2914(3)
H12 H 0.5200 0.7916 0.2863
H13 H 0.5176 0.5684 0.2578
H14 H 0.6058 0.6656 0.2837
C13 C 0.7075(3) 1.1418(7) 0.4595(2)
H15 H 0.7289 1.2006 0.5009
C14 C 0.7224(3) 1.2408(8) 0.4019(2)
H16 H 0.7011 1.1881 0.3595
C15 C 0.7710(3) 1.4293(8) 0.4017(2)
C16 C 0.8307(5) 1.6739(12) 0.3290(4)
H17 H 0.8062 1.7807 0.3560
H18 H 0.8295 1.7127 0.2807
H19 H 0.8894 1.6504 0.3454
C17 C 0.9943(4) 0.6635(12) 0.5838(3)
H20 H 0.807(3) 0.630(7) 0.5510(15)
S2 S 0.37127(10) 0.7463(2) 0.84696(7)
N2 N 0.2956(3) 0.6522(7) 0.8892(2)
O6 O 0.0638(3) 0.7316(7) 1.15229(19)
O7 O 0.3066(2) -0.1791(6) 1.02334(18)
O8 O 0.3155(3) -0.1797(6) 1.13793(18)
O9 O 0.3779(3) 0.9554(7) 0.8610(3)
O10 O 0.3675(3) 0.6678(8) 0.7784(2)
F4 F 0.5376(3) 0.7040(11) 0.8535(3)
F5 F 0.4689(3) 0.4439(10) 0.8833(3)
F6 F 0.4814(3) 0.6934(12) 0.9502(3)
C18 C 0.1471(2) 0.4910(7) 0.9679(2)
C19 C 0.1661(3) 0.3831(7) 1.0295(2)
C20 C 0.1380(3) 0.4651(8) 1.0922(2)
H21 H 0.1496 0.3953 1.1337
C21 C 0.0939(3) 0.6456(8) 1.0936(3)
C22 C 0.0760(3) 0.7516(9) 1.0321(3)
H22 H 0.0460 0.8739 1.0326
C23 C 0.1032(3) 0.6732(8) 0.9706(2)
C24 C 0.0912(3) 0.7629(9) 0.8985(2)
H23 H 0.1335 0.8687 0.8912
H24 H 0.0336 0.8189 0.8910
C25 C 0.1050(3) 0.5828(9) 0.8504(3)
H25 H 0.0491 0.5130 0.8448
C26 C 0.1665(3) 0.4372(8) 0.8930(2)
H26 H 0.1471 0.2977 0.8842
C27 C 0.2621(3) 0.4495(8) 0.8776(2)
H27 H 0.2945 0.3548 0.9075
H28 H 0.2697 0.4106 0.8295
C28 C 0.1303(4) 0.6413(11) 0.7777(3)
H29 H 0.0852 0.7220 0.7556
H30 H 0.1388 0.5209 0.7507
H31 H 0.1830 0.7184 0.7808
C29 C 0.0858(5) 0.6415(12) 1.2174(3)
H32 H 0.0653 0.5040 1.2176
H33 H 0.0596 0.7166 1.2538
H34 H 0.1475 0.6426 1.2252
C30 C 0.2131(3) 0.1925(7) 1.0298(2)
H35 H 0.2235 0.1379 0.9863
C31 C 0.2427(3) 0.0884(8) 1.0837(2)
H36 H 0.2331 0.1374 1.1283
C32 C 0.2899(3) -0.1009(7) 1.0771(2)
C33 C 0.3644(4) -0.3650(10) 1.1359(4)
H37 H 0.3308 -0.4670 1.1113
H38 H 0.3782 -0.4103 1.1827
H39 H 0.4169 -0.3415 1.1122
C34 C 0.4697(5) 0.6436(17) 0.8857(5)
H40 H 0.297(2) 0.701(6) 0.9284(13)
loop_
_geom_bond_atom_site_label_1
_geom_bond_atom_site_label_2
_geom_bond_site_symmetry_1
_geom_bond_site_symmetry_2
S1 N1 1_555 1_555
N1 C10 1_555 1_555
O1 C4 1_555 1_555
O2 C15 1_555 1_555
O3 C15 1_555 1_555
O4 S1 1_555 1_555
O5 S1 1_555 1_555
F1 C17 1_555 1_555
F2 C17 1_555 1_555
F3 C17 1_555 1_555
C1 C2 1_555 1_555
C2 C3 1_555 1_555
C3 H1 1_555 1_555
C4 C3 1_555 1_555
C5 C4 1_555 1_555
H2 C5 1_555 1_555
C6 C1 1_555 1_555
C7 C6 1_555 1_555
H3 C7 1_555 1_555
H4 C7 1_555 1_555
C8 C7 1_555 1_555
H5 C8 1_555 1_555
C9 C1 1_555 1_555
H6 C9 1_555 1_555
C10 C9 1_555 1_555
H7 C10 1_555 1_555
H8 C10 1_555 1_555
C11 C8 1_555 1_555
H9 C11 1_555 1_555
H10 C11 1_555 1_555
H11 C11 1_555 1_555
C12 O1 1_555 1_555
H12 C12 1_555 1_555
H13 C12 1_555 1_555
H14 C12 1_555 1_555
C13 C2 1_555 1_555
H15 C13 1_555 1_555
C14 C13 1_555 1_555
H16 C14 1_555 1_555
C15 C14 1_555 1_555
C16 O3 1_555 1_555
H17 C16 1_555 1_555
H18 C16 1_555 1_555
H19 C16 1_555 1_555
C17 S1 1_555 1_555
H20 N1 1_555 1_555
S2 N2 1_555 1_555
N2 C27 1_555 1_555
O6 C21 1_555 1_555
O7 C32 1_555 1_555
O8 C32 1_555 1_555
O9 S2 1_555 1_555
O10 S2 1_555 1_555
F4 C34 1_555 1_555
F5 C34 1_555 1_555
F6 C34 1_555 1_555
C18 C19 1_555 1_555
C19 C20 1_555 1_555
C20 H21 1_555 1_555
C21 C20 1_555 1_555
C22 C21 1_555 1_555
H22 C22 1_555 1_555
C23 C18 1_555 1_555
C24 C23 1_555 1_555
H23 C24 1_555 1_555
H24 C24 1_555 1_555
C25 C24 1_555 1_555
H25 C25 1_555 1_555
C26 C18 1_555 1_555
H26 C26 1_555 1_555
C27 C26 1_555 1_555
H27 C27 1_555 1_555
H28 C27 1_555 1_555
C28 C25 1_555 1_555
H29 C28 1_555 1_555
H30 C28 1_555 1_555
H31 C28 1_555 1_555
C29 O6 1_555 1_555
H32 C29 1_555 1_555
H33 C29 1_555 1_555
H34 C29 1_555 1_555
C30 C19 1_555 1_555
H35 C30 1_555 1_555
C31 C30 1_555 1_555
H36 C31 1_555 1_555
C32 C31 1_555 1_555
C33 O8 1_555 1_555
H37 C33 1_555 1_555
H38 C33 1_555 1_555
H39 C33 1_555 1_555
C34 S2 1_555 1_555
H40 N2 1_555 1_555
C5 C6 1_555 1_555
C8 C9 1_555 1_555
C22 C23 1_555 1_555
C25 C26 1_555 1_555

#END
