
#######################################################################
#
#                 Cambridge Crystallographic Data Centre
#                                CCDC 
#
#######################################################################
#
# If this CIF has been generated from an entry in the Cambridge 
# Structural Database, then it will include bibliographic, chemical, 
# crystal, experimental, refinement or atomic coordinate data resulting 
# from the CCDC's data processing and validation procedures.
#
#######################################################################

data_NEJDAJ
_chemical_formula_moiety         'C24 H34 N2 O9'
_chemical_name_systematic        
't-Butyl 4-hydroxy-4,8,8-trimethyl-3-(2-((4-nitrobenzoyl)oxy)ethyl)-7,9-dioxa-1-azaspiro[4.5]decane-1-carboxylate'
_symmetry_cell_setting           triclinic
_symmetry_space_group_name_H-M   'P -1'
_symmetry_Int_Tables_number      2
_space_group_name_Hall           '-P 1'
loop_
_symmetry_equiv_pos_site_id
_symmetry_equiv_pos_as_xyz
1 x,y,z
2 -x,-y,-z
_cell_length_a                   6.295(2)
_cell_length_b                   10.072(4)
_cell_length_c                   20.377(5)
_cell_angle_alpha                84.483(7)
_cell_angle_beta                 89.566(4)
_cell_angle_gamma                83.102(8)
_cell_volume                     1276.66
_exptl_crystal_colour            colorless
_exptl_crystal_description       parallelepipedic
_cell_formula_units_Z            2
loop_
_atom_site_label
_atom_site_type_symbol
_atom_site_fract_x
_atom_site_fract_y
_atom_site_fract_z
O1 O 0.19056(19) 0.26275(12) 0.12427(6)
O2 O 0.1807(2) -0.16055(14) 0.29345(7)
H1 H 0.1615 -0.1781 0.3330
O3 O -0.2387(2) -0.22048(12) 0.37601(7)
O4 O -0.4194(2) 0.32209(12) 0.27403(6)
N1 N -0.2389(2) 0.11797(14) 0.28503(7)
O5 O 0.0342(2) -0.11876(14) 0.41838(6)
O6 O -0.4810(3) 0.18057(15) 0.36359(8)
C1 C 0.1290(3) 0.48943(18) 0.08191(8)
C2 C 0.2809(3) 0.36443(19) 0.09380(9)
C3 C -0.1355(3) 0.72587(18) 0.06128(8)
C4 C 0.0008(3) -0.07327(16) 0.26573(9)
C5 C 0.0823(3) 0.05281(17) 0.23036(9)
H2 H 0.1848 0.0832 0.2599
C6 C -0.0324(3) 0.00669(19) 0.38161(9)
H3 H 0.0919 0.0519 0.3696
H4 H -0.1244 0.0633 0.4087
O7 O 0.4663(2) 0.35593(16) 0.07852(9)
C7 C -0.3320(3) -0.09932(18) 0.33993(10)
H5 H -0.4346 -0.0504 0.3673
H6 H -0.4065 -0.1200 0.3014
C8 C -0.3875(3) 0.20549(18) 0.31226(10)
C9 C -0.1149(3) 0.15650(17) 0.22599(9)
H7 H -0.0757 0.2466 0.2269
H8 H -0.1956 0.1524 0.1860
C10 C 0.1963(3) 0.03060(19) 0.16512(10)
H9 H 0.2871 -0.0547 0.1704
H10 H 0.0897 0.0242 0.1318
N2 N -0.2780(3) 0.85312(17) 0.05304(8)
C11 C 0.3308(3) 0.13858(19) 0.14072(10)
H11 H 0.4321 0.1511 0.1746
H12 H 0.4105 0.1129 0.1021
C12 C -0.2143(3) 0.6159(2) 0.09283(9)
H13 H -0.3557 0.6216 0.1070
C13 C -0.1537(3) -0.01373(16) 0.31885(8)
C14 C -0.0810(3) 0.49662(19) 0.10331(9)
H14 H -0.1321 0.4211 0.1247
C15 C 0.2029(3) 0.6017(2) 0.04869(9)
H15 H 0.3428 0.5962 0.0332
C16 C 0.0703(3) 0.7218(2) 0.03836(10)
H16 H 0.1193 0.7976 0.0165
C17 C -0.1347(4) -0.1988(2) 0.43489(10)
C18 C -0.1094(4) -0.1517(2) 0.21885(10)
H17 H -0.0105 -0.1801 0.1854
H18 H -0.2298 -0.0956 0.1986
H19 H -0.1577 -0.2291 0.2429
C19 C -0.5484(3) 0.44015(18) 0.29770(10)
O8 O -0.2034(3) 0.95370(18) 0.03253(12)
O9 O -0.4631(3) 0.85362(18) 0.06980(10)
C20 C -0.5185(4) 0.5484(2) 0.24277(13)
H20 H -0.3694 0.5594 0.2388
H21 H -0.5979 0.6316 0.2526
H22 H -0.5693 0.5230 0.2020
C21 C -0.4578(5) 0.4729(3) 0.36169(13)
H23 H -0.4900 0.4074 0.3966
H24 H -0.5203 0.5605 0.3714
H25 H -0.3055 0.4716 0.3579
C22 C -0.2893(5) -0.1361(3) 0.48396(12)
H26 H -0.3349 -0.0442 0.4683
H27 H -0.2193 -0.1396 0.5259
H28 H -0.4115 -0.1848 0.4887
C23 C -0.0271(6) -0.3353(3) 0.46150(15)
H29 H -0.1334 -0.3953 0.4707
H30 H 0.0488 -0.3272 0.5013
H31 H 0.0716 -0.3700 0.4294
C24 C -0.7795(4) 0.4160(3) 0.30327(15)
H32 H -0.8259 0.3882 0.2625
H33 H -0.8652 0.4975 0.3125
H34 H -0.7948 0.3470 0.3383
loop_
_geom_bond_atom_site_label_1
_geom_bond_atom_site_label_2
_geom_bond_site_symmetry_1
_geom_bond_site_symmetry_2
O1 C2 1_555 1_555
O2 H1 1_555 1_555
O3 C7 1_555 1_555
O4 C8 1_555 1_555
N1 C8 1_555 1_555
O5 C6 1_555 1_555
O6 C8 1_555 1_555
C1 C2 1_555 1_555
C2 O7 1_555 1_555
C3 N2 1_555 1_555
C4 O2 1_555 1_555
C5 C4 1_555 1_555
H2 C5 1_555 1_555
C6 H3 1_555 1_555
H4 C6 1_555 1_555
C7 H5 1_555 1_555
H6 C7 1_555 1_555
C9 N1 1_555 1_555
H7 C9 1_555 1_555
H8 C9 1_555 1_555
C10 C5 1_555 1_555
H9 C10 1_555 1_555
H10 C10 1_555 1_555
N2 O8 1_555 1_555
C11 O1 1_555 1_555
H11 C11 1_555 1_555
H12 C11 1_555 1_555
C12 C3 1_555 1_555
H13 C12 1_555 1_555
C13 N1 1_555 1_555
C14 C1 1_555 1_555
H14 C14 1_555 1_555
C15 C1 1_555 1_555
H15 C15 1_555 1_555
C16 C3 1_555 1_555
H16 C16 1_555 1_555
C17 O3 1_555 1_555
C18 C4 1_555 1_555
H17 C18 1_555 1_555
H18 C18 1_555 1_555
H19 C18 1_555 1_555
C19 O4 1_555 1_555
O9 N2 1_555 1_555
C20 C19 1_555 1_555
H20 C20 1_555 1_555
H21 C20 1_555 1_555
H22 C20 1_555 1_555
C21 C19 1_555 1_555
H23 C21 1_555 1_555
H24 C21 1_555 1_555
H25 C21 1_555 1_555
C22 C17 1_555 1_555
H26 C22 1_555 1_555
H27 C22 1_555 1_555
H28 C22 1_555 1_555
C23 C17 1_555 1_555
H29 C23 1_555 1_555
H30 C23 1_555 1_555
H31 C23 1_555 1_555
C24 C19 1_555 1_555
H32 C24 1_555 1_555
H33 C24 1_555 1_555
H34 C24 1_555 1_555
O5 C17 1_555 1_555
C4 C13 1_555 1_555
C5 C9 1_555 1_555
C6 C13 1_555 1_555
C7 C13 1_555 1_555
C10 C11 1_555 1_555
C12 C14 1_555 1_555
C15 C16 1_555 1_555

#END
