
#######################################################################
#
#                 Cambridge Crystallographic Data Centre
#                                CCDC 
#
#######################################################################
#
# If this CIF has been generated from an entry in the Cambridge 
# Structural Database, then it will include bibliographic, chemical, 
# crystal, experimental, refinement or atomic coordinate data resulting 
# from the CCDC's data processing and validation procedures.
#
#######################################################################

data_NEJDIS
_chemical_formula_moiety         'C15 H12 N2 O3,H2 O1'
_chemical_name_systematic        
'4-[4-(4-hydroxyphenyl)-1H-pyrazol-5-yl]benzene-1,3-diol monohydrate'
_symmetry_cell_setting           rhombohedral
_symmetry_space_group_name_H-M   'R -3'
_symmetry_Int_Tables_number      148
_space_group_name_Hall           '-R 3'
loop_
_symmetry_equiv_pos_site_id
_symmetry_equiv_pos_as_xyz
1 x,y,z
2 -y,x-y,z
3 -x+y,-x,z
4 2/3+x,1/3+y,1/3+z
5 2/3-y,1/3+x-y,1/3+z
6 2/3-x+y,1/3-x,1/3+z
7 1/3+x,2/3+y,2/3+z
8 1/3-y,2/3+x-y,2/3+z
9 1/3-x+y,2/3-x,2/3+z
10 -x,-y,-z
11 y,-x+y,-z
12 x-y,x,-z
13 1/3-x,2/3-y,2/3-z
14 1/3+y,2/3-x+y,2/3-z
15 1/3+x-y,2/3+x,2/3-z
16 2/3-x,1/3-y,1/3-z
17 2/3+y,1/3-x+y,1/3-z
18 2/3+x-y,1/3+x,1/3-z
_cell_length_a                   31.4958(12)
_cell_length_b                   31.4958(12)
_cell_length_c                   7.1857(6)
_cell_angle_alpha                90
_cell_angle_beta                 90
_cell_angle_gamma                120
_cell_volume                     6173.12
_exptl_crystal_colour            colorless
_exptl_crystal_description       block
_chemical_melting_point          '453 K'
_cell_formula_units_Z            18
loop_
_atom_site_label
_atom_site_type_symbol
_atom_site_fract_x
_atom_site_fract_y
_atom_site_fract_z
N1 N 0.43036(6) 0.12173(6) 0.4331(2)
N2 N 0.44466(5) 0.08815(6) 0.4578(2)
O1 O 0.56249(5) -0.01321(4) 0.81042(19)
H1 H 0.5924 0.0041 0.8187
O2 O 0.42077(4) 0.00001(5) 0.6821(2)
O3 O 0.58364(5) 0.24656(5) 1.31945(18)
H2 H 0.5838 0.2727 1.3242
C1 C 0.54262(6) 0.01502(6) 0.7538(2)
C2 C 0.49214(6) -0.00700(6) 0.7481(2)
H3 H 0.4728 -0.0398 0.7817
C3 C 0.47045(6) 0.01982(6) 0.6923(2)
C4 C 0.49916(6) 0.06931(6) 0.6462(2)
C5 C 0.54995(6) 0.09022(6) 0.6509(3)
H4 H 0.5696 0.1230 0.6184
C6 C 0.57179(7) 0.06346(6) 0.7027(3)
H5 H 0.6058 0.0779 0.7031
C7 C 0.47705(6) 0.09958(6) 0.5982(2)
C8 C 0.48432(6) 0.14328(6) 0.6726(2)
C9 C 0.45470(7) 0.15489(7) 0.5643(3)
H6 H 0.4523 0.1828 0.5821
C10 C 0.51286(6) 0.17019(6) 0.8378(2)
C11 C 0.51440(6) 0.14600(6) 0.9975(2)
H7 H 0.4993 0.1120 0.9973
C12 C 0.53803(7) 0.17172(7) 1.1567(3)
H8 H 0.5387 0.1550 1.2624
C13 C 0.56044(6) 0.22197(7) 1.1578(2)
C14 C 0.56025(6) 0.24703(6) 1.0005(3)
H9 H 0.5760 0.2811 1.0012
C15 C 0.53655(6) 0.22117(6) 0.8419(2)
H10 H 0.5364 0.2381 0.7361
H11 H 0.4059(7) -0.0297(4) 0.709(3)
H12 H 0.4358(8) 0.0637(8) 0.379(3)
O4 O 0.66160(6) 0.02590(7) 0.8290(3)
H13 H 0.6874(9) 0.0499(9) 0.870(5)
H14 H 0.669(2) 0.0185(19) 0.728(4)
loop_
_geom_bond_atom_site_label_1
_geom_bond_atom_site_label_2
_geom_bond_site_symmetry_1
_geom_bond_site_symmetry_2
N1 N2 1_555 1_555
N2 C7 1_555 1_555
O1 H1 1_555 1_555
O2 C3 1_555 1_555
O3 H2 1_555 1_555
C1 O1 1_555 1_555
C2 C1 1_555 1_555
H3 C2 1_555 1_555
C3 C2 1_555 1_555
C4 C3 1_555 1_555
C5 C4 1_555 1_555
H4 C5 1_555 1_555
C6 C1 1_555 1_555
H5 C6 1_555 1_555
C7 C4 1_555 1_555
C8 C7 1_555 1_555
C9 N1 1_555 1_555
H6 C9 1_555 1_555
C10 C8 1_555 1_555
C11 C10 1_555 1_555
H7 C11 1_555 1_555
C12 C11 1_555 1_555
H8 C12 1_555 1_555
C13 O3 1_555 1_555
C14 C13 1_555 1_555
H9 C14 1_555 1_555
C15 C10 1_555 1_555
H10 C15 1_555 1_555
H11 O2 1_555 1_555
H12 N2 1_555 1_555
O4 H13 1_555 1_555
H14 O4 1_555 1_555
C5 C6 1_555 1_555
C8 C9 1_555 1_555
C12 C13 1_555 1_555
C14 C15 1_555 1_555

#END
