
#######################################################################
#
#                 Cambridge Crystallographic Data Centre
#                                CCDC 
#
#######################################################################
#
# If this CIF has been generated from an entry in the Cambridge 
# Structural Database, then it will include bibliographic, chemical, 
# crystal, experimental, refinement or atomic coordinate data resulting 
# from the CCDC's data processing and validation procedures.
#
#######################################################################

data_NEJHAO
_chemical_formula_moiety         'C21 H20 F1 N1 Si1'
_chemical_name_systematic        
5-(diphenylsilyl)-6-fluoro-1-methyl-2,3-dihydro-1H-indole
_symmetry_cell_setting           monoclinic
_symmetry_space_group_name_H-M   'P 21/n'
_symmetry_Int_Tables_number      14
_space_group_name_Hall           '-P 2yn'
loop_
_symmetry_equiv_pos_site_id
_symmetry_equiv_pos_as_xyz
1 x,y,z
2 1/2-x,1/2+y,1/2-z
3 -x,-y,-z
4 1/2+x,1/2-y,1/2+z
_cell_length_a                   10.6463(12)
_cell_length_b                   19.807(2)
_cell_length_c                   16.5261(18)
_cell_angle_alpha                90
_cell_angle_beta                 96.816(2)
_cell_angle_gamma                90
_cell_volume                     3460.25
_exptl_crystal_colour            colorless
_exptl_crystal_description       block
_cell_formula_units_Z            8
loop_
_atom_site_label
_atom_site_type_symbol
_atom_site_fract_x
_atom_site_fract_y
_atom_site_fract_z
C1 C 0.4501(5) 0.1001(3) 0.5233(3)
H1 H 0.4725 0.0586 0.5514
H2 H 0.4160 0.0904 0.4681
H3 H 0.3879 0.1234 0.5503
C2 C 0.6641(5) 0.1180(3) 0.4785(3)
H4 H 0.6407 0.1223 0.4202
H5 H 0.6838 0.0711 0.4914
C3 C 0.7774(5) 0.1642(3) 0.5078(3)
H6 H 0.8567 0.1396 0.5120
H7 H 0.7820 0.2025 0.4716
C4 C 0.8203(4) 0.2149(2) 0.6555(3)
H8 H 0.9052 0.2239 0.6519
C5 C 0.7683(4) 0.2307(2) 0.7279(3)
C6 C 0.6413(5) 0.2167(3) 0.7278(3)
C7 C 0.5625(4) 0.1877(3) 0.6657(3)
H9 H 0.4777 0.1792 0.6701
C8 C 0.7460(4) 0.1862(2) 0.5899(3)
C9 C 0.6179(4) 0.1717(2) 0.5950(3)
C10 C 0.8772(4) 0.1908(2) 0.9003(3)
C11 C 0.9034(5) 0.2045(2) 0.9832(3)
H10 H 0.9127 0.2492 1.0004
C12 C 0.9160(5) 0.1535(3) 1.0408(3)
H11 H 0.9331 0.1641 1.0959
C13 C 0.9032(5) 0.0870(3) 1.0166(3)
H12 H 0.9114 0.0526 1.0551
C14 C 0.8782(5) 0.0720(3) 0.9346(3)
H13 H 0.8703 0.0271 0.9182
C15 C 0.8646(5) 0.1228(3) 0.8766(3)
H14 H 0.8471 0.1118 0.8217
C16 C 1.0350(5) 0.2763(2) 0.7976(3)
C17 C 1.0639(5) 0.3321(2) 0.7513(3)
H15 H 0.9996 0.3614 0.7310
C18 C 1.1875(5) 0.3446(3) 0.7351(3)
H16 H 1.2055 0.3824 0.7051
C19 C 1.2830(5) 0.3003(3) 0.7639(3)
H17 H 1.3652 0.3078 0.7523
C20 C 1.2566(5) 0.2455(3) 0.8096(3)
H18 H 1.3212 0.2165 0.8303
C21 C 1.1332(5) 0.2335(2) 0.8249(3)
H19 H 1.1161 0.1953 0.8545
F1 F 0.5883(3) 0.23071(18) 0.79804(19)
N1 N 0.5633(4) 0.1426(2) 0.5235(3)
Si1 Si 0.86956(13) 0.25927(6) 0.82189(8)
H20 H 0.818(5) 0.321(2) 0.849(3)
C22 C 0.5910(5) 0.1082(3) 1.0057(4)
H21 H 0.6110 0.0614 1.0151
H22 H 0.6142 0.1333 1.0549
H23 H 0.6368 0.1252 0.9634
C23 C 0.3685(5) 0.1110(3) 1.0419(3)
H24 H 0.3756 0.1504 1.0771
H25 H 0.3842 0.0708 1.0751
C24 C 0.2381(5) 0.1080(3) 0.9922(3)
H26 H 0.1819 0.0777 1.0169
H27 H 0.1996 0.1524 0.9861
C25 C 0.1944(4) 0.0573(2) 0.8448(3)
H28 H 0.1074 0.0548 0.8461
C26 C 0.2462(4) 0.0363(2) 0.7731(3)
C27 C 0.3761(5) 0.0432(3) 0.7766(3)
C28 C 0.4563(5) 0.0670(3) 0.8417(3)
H29 H 0.5432 0.0698 0.8403
C29 C 0.2696(4) 0.0810(2) 0.9115(3)
C30 C 0.4003(5) 0.0868(3) 0.9101(3)
C31 C 0.1372(4) 0.0808(2) 0.6009(3)
C32 C 0.1213(4) 0.0686(2) 0.5171(3)
H30 H 0.1147 0.0243 0.4984
C33 C 0.1150(5) 0.1210(3) 0.4612(3)
H31 H 0.1046 0.1118 0.4056
C34 C 0.1244(5) 0.1873(3) 0.4885(3)
H32 H 0.1184 0.2226 0.4512
C35 C 0.1426(5) 0.2009(3) 0.5705(3)
H33 H 0.1511 0.2452 0.5887
C36 C 0.1484(5) 0.1484(2) 0.6261(3)
H34 H 0.1600 0.1581 0.6815
C37 C -0.0187(4) -0.0068(2) 0.7064(3)
C38 C -0.1235(4) 0.0299(2) 0.6748(3)
H35 H -0.1133 0.0659 0.6400
C39 C -0.2430(5) 0.0143(2) 0.6935(3)
H36 H -0.3124 0.0392 0.6709
C40 C -0.2594(5) -0.0391(3) 0.7464(3)
H37 H -0.3396 -0.0496 0.7597
C41 C -0.1561(5) -0.0763(3) 0.7789(3)
H38 H -0.1664 -0.1122 0.8138
C42 C -0.0367(5) -0.0599(2) 0.7594(3)
H39 H 0.0328 -0.0848 0.7820
F2 F 0.4299(3) 0.02330(19) 0.70940(19)
N2 N 0.4572(4) 0.1154(3) 0.9813(3)
Si2 Si 0.14411(12) 0.01167(6) 0.67809(8)
H40 H 0.197(5) -0.048(3) 0.640(3)
loop_
_geom_bond_atom_site_label_1
_geom_bond_atom_site_label_2
_geom_bond_site_symmetry_1
_geom_bond_site_symmetry_2
C1 H1 1_555 1_555
H2 C1 1_555 1_555
H3 C1 1_555 1_555
C2 H4 1_555 1_555
H5 C2 1_555 1_555
C3 C2 1_555 1_555
H6 C3 1_555 1_555
H7 C3 1_555 1_555
C4 H8 1_555 1_555
C5 C4 1_555 1_555
C6 C5 1_555 1_555
C7 C6 1_555 1_555
H9 C7 1_555 1_555
C8 C3 1_555 1_555
C9 C7 1_555 1_555
C10 C11 1_555 1_555
C11 H10 1_555 1_555
C12 C11 1_555 1_555
H11 C12 1_555 1_555
C13 C12 1_555 1_555
H12 C13 1_555 1_555
C14 C13 1_555 1_555
H13 C14 1_555 1_555
C15 C10 1_555 1_555
H14 C15 1_555 1_555
C16 C17 1_555 1_555
C17 H15 1_555 1_555
C18 C17 1_555 1_555
H16 C18 1_555 1_555
C19 C18 1_555 1_555
H17 C19 1_555 1_555
C20 C19 1_555 1_555
H18 C20 1_555 1_555
C21 C16 1_555 1_555
H19 C21 1_555 1_555
F1 C6 1_555 1_555
N1 C1 1_555 1_555
Si1 C5 1_555 1_555
H20 Si1 1_555 1_555
C22 H21 1_555 1_555
H22 C22 1_555 1_555
H23 C22 1_555 1_555
C23 H24 1_555 1_555
H25 C23 1_555 1_555
C24 C23 1_555 1_555
H26 C24 1_555 1_555
H27 C24 1_555 1_555
C25 H28 1_555 1_555
C26 C25 1_555 1_555
C27 C26 1_555 1_555
C28 C27 1_555 1_555
H29 C28 1_555 1_555
C29 C24 1_555 1_555
C30 C28 1_555 1_555
C31 C32 1_555 1_555
C32 H30 1_555 1_555
C33 C32 1_555 1_555
H31 C33 1_555 1_555
C34 C33 1_555 1_555
H32 C34 1_555 1_555
C35 C34 1_555 1_555
H33 C35 1_555 1_555
C36 C31 1_555 1_555
H34 C36 1_555 1_555
C37 C38 1_555 1_555
C38 H35 1_555 1_555
C39 C38 1_555 1_555
H36 C39 1_555 1_555
C40 C39 1_555 1_555
H37 C40 1_555 1_555
C41 C40 1_555 1_555
H38 C41 1_555 1_555
C42 C37 1_555 1_555
H39 C42 1_555 1_555
F2 C27 1_555 1_555
N2 C22 1_555 1_555
Si2 C26 1_555 1_555
H40 Si2 1_555 1_555
C2 N1 1_555 1_555
C4 C8 1_555 1_555
C8 C9 1_555 1_555
C9 N1 1_555 1_555
C10 Si1 1_555 1_555
C14 C15 1_555 1_555
C16 Si1 1_555 1_555
C20 C21 1_555 1_555
C23 N2 1_555 1_555
C25 C29 1_555 1_555
C29 C30 1_555 1_555
C30 N2 1_555 1_555
C31 Si2 1_555 1_555
C35 C36 1_555 1_555
C37 Si2 1_555 1_555
C41 C42 1_555 1_555

#END
