
#######################################################################
#
#                 Cambridge Crystallographic Data Centre
#                                CCDC 
#
#######################################################################
#
# If this CIF has been generated from an entry in the Cambridge 
# Structural Database, then it will include bibliographic, chemical, 
# crystal, experimental, refinement or atomic coordinate data resulting 
# from the CCDC's data processing and validation procedures.
#
#######################################################################

data_NEJLUL
_chemical_formula_moiety         'C28 H30 N2 O6'
_chemical_name_systematic        
"Dipropyl 1,1''-dimethyl-2,2''-dioxo-1,1'',2,2''-tetrahydrodispiro[indole-3,1'-cyclobutane-2',3''-indole]-3',4'-dicarboxylate"
_symmetry_cell_setting           orthorhombic
_symmetry_space_group_name_H-M   'P b c a'
_symmetry_Int_Tables_number      61
_space_group_name_Hall           '-P 2ac 2ab'
loop_
_symmetry_equiv_pos_site_id
_symmetry_equiv_pos_as_xyz
1 x,y,z
2 1/2-x,-y,1/2+z
3 -x,1/2+y,1/2-z
4 1/2+x,1/2-y,-z
5 -x,-y,-z
6 1/2+x,y,1/2-z
7 x,1/2-y,1/2+z
8 1/2-x,1/2+y,z
_cell_length_a                   23.421(3)
_cell_length_b                   9.1738(13)
_cell_length_c                   24.114(4)
_cell_angle_alpha                90
_cell_angle_beta                 90
_cell_angle_gamma                90
_cell_volume                     5181.12
_exptl_crystal_colour            colorless
_exptl_crystal_description       block
_cell_formula_units_Z            8
loop_
_atom_site_label
_atom_site_type_symbol
_atom_site_fract_x
_atom_site_fract_y
_atom_site_fract_z
C1 C 0.0675(2) 1.0572(6) 0.4018(2)
C2 C 0.0921(3) 1.1946(6) 0.4005(2)
H1 H 0.1292 1.2082 0.3878
C3 C 0.0592(3) 1.3115(6) 0.4189(3)
H2 H 0.0748 1.4048 0.4190
C4 C 0.0043(3) 1.2917(6) 0.4368(3)
H3 H -0.0166 1.3720 0.4487
C5 C -0.0208(3) 1.1568(7) 0.4376(3)
H4 H -0.0581 1.1438 0.4498
C6 C 0.0120(2) 1.0409(6) 0.4195(2)
C7 C 0.0417(2) 0.8063(6) 0.4042(2)
C8 C 0.0897(2) 0.9107(5) 0.3864(2)
C9 C -0.0585(3) 0.8356(8) 0.4343(3)
H5 H -0.0589 0.7318 0.4293
H6 H -0.0882 0.8788 0.4124
H7 H -0.0648 0.8580 0.4727
C10 C 0.1133(2) 0.8904(5) 0.3233(2)
C11 C 0.1745(2) 0.9054(6) 0.3481(2)
H8 H 0.1865 1.0078 0.3473
C12 C 0.1515(2) 0.8669(6) 0.4052(2)
H9 H 0.1528 0.7606 0.4094
C13 C 0.0955(2) 1.0027(6) 0.2802(2)
C14 C 0.0721(3) 0.7813(6) 0.2443(3)
C15 C 0.0990(2) 0.7477(6) 0.2936(2)
C16 C 0.1112(3) 0.6037(6) 0.3069(3)
H10 H 0.1303 0.5795 0.3394
C17 C 0.0934(3) 0.4964(7) 0.2692(3)
H11 H 0.1005 0.3987 0.2769
C18 C 0.0655(4) 0.5336(9) 0.2207(3)
H12 H 0.0540 0.4604 0.1964
C19 C 0.0542(4) 0.6784(8) 0.2075(3)
H13 H 0.0353 0.7038 0.1750
C20 C 0.0503(3) 1.0060(8) 0.1876(3)
H14 H 0.0506 1.1096 0.1932
H15 H 0.0123 0.9748 0.1786
H16 H 0.0756 0.9814 0.1577
C21 C 0.1748(3) 0.9339(7) 0.4568(3)
C22 C 0.2582(4) 1.0421(13) 0.4948(4)
H17 H 0.2392 1.0164 0.5292
H18 H 0.2597 1.1476 0.4924
C23 C 0.3169(5) 0.9830(13) 0.4950(5)
H19 H 0.3147 0.8779 0.4990
H20 H 0.3343 1.0033 0.4593
C24 C 0.3538(5) 1.0387(15) 0.5377(6)
H21 H 0.3564 1.1428 0.5344
H22 H 0.3911 0.9967 0.5338
H23 H 0.3384 1.0140 0.5734
C25 C 0.2201(3) 0.8118(7) 0.3240(3)
C26 C 0.2719(9) 0.762(3) 0.2412(8)
H24 H 0.3091 0.7958 0.2534
H25 H 0.2691 0.6588 0.2496
C27 C 0.2668(10) 0.783(2) 0.1821(10)
H26 H 0.2965 0.7267 0.1640
H27 H 0.2741 0.8850 0.1741
C28 C 0.2106(10) 0.743(3) 0.1562(10)
H28 H 0.2051 0.6392 0.1588
H29 H 0.2105 0.7712 0.1179
H30 H 0.1802 0.7918 0.1753
N1 N -0.00412(19) 0.8927(5) 0.41729(19)
N2 N 0.0691(2) 0.9335(5) 0.2380(2)
O1 O 0.0435(2) 0.6757(4) 0.4071(2)
O2 O 0.10505(18) 1.1321(4) 0.28221(18)
O3 O 0.1510(2) 0.9364(8) 0.5003(2)
O4 O 0.2260(2) 0.9851(7) 0.4484(2)
O5 O 0.2468(2) 0.7222(6) 0.3496(2)
O6 O 0.22780(18) 0.8403(5) 0.27055(19)
C29? C 0.2597(18) 0.721(4) 0.2432(17)
C30? C 0.2462(16) 0.703(6) 0.1835(19)
C31? C 0.2987(18) 0.693(5) 0.1468(15)
H31? H 0.3003 0.7390 0.2470
H32? H 0.2513 0.6299 0.2621
H33? H 0.2232 0.7855 0.1716
H34? H 0.2235 0.6158 0.1787
H35? H 0.3162 0.7876 0.1439
H36? H 0.2877 0.6600 0.1106
H37? H 0.3254 0.6258 0.1628
loop_
_geom_bond_atom_site_label_1
_geom_bond_atom_site_label_2
_geom_bond_site_symmetry_1
_geom_bond_site_symmetry_2
C1 C2 1_555 1_555
C2 H1 1_555 1_555
C3 C2 1_555 1_555
H2 C3 1_555 1_555
C4 C3 1_555 1_555
H3 C4 1_555 1_555
C5 C4 1_555 1_555
H4 C5 1_555 1_555
C6 C1 1_555 1_555
C7 C8 1_555 1_555
C8 C1 1_555 1_555
C9 H5 1_555 1_555
H6 C9 1_555 1_555
H7 C9 1_555 1_555
C10 C8 1_555 1_555
C11 C10 1_555 1_555
H8 C11 1_555 1_555
C12 C8 1_555 1_555
H9 C12 1_555 1_555
C13 C10 1_555 1_555
C14 C15 1_555 1_555
C15 C10 1_555 1_555
C16 C15 1_555 1_555
H10 C16 1_555 1_555
C17 C16 1_555 1_555
H11 C17 1_555 1_555
C18 C17 1_555 1_555
H12 C18 1_555 1_555
C19 C14 1_555 1_555
H13 C19 1_555 1_555
C20 H14 1_555 1_555
H15 C20 1_555 1_555
H16 C20 1_555 1_555
C21 C12 1_555 1_555
C22 H17 1_555 1_555
H18 C22 1_555 1_555
C23 C22 1_555 1_555
H19 C23 1_555 1_555
H20 C23 1_555 1_555
C24 C23 1_555 1_555
H21 C24 1_555 1_555
H22 C24 1_555 1_555
H23 C24 1_555 1_555
C25 C11 1_555 1_555
C26 H24 1_555 1_555
H25 C26 1_555 1_555
C27 C26 1_555 1_555
H26 C27 1_555 1_555
H27 C27 1_555 1_555
C28 C27 1_555 1_555
H28 C28 1_555 1_555
H29 C28 1_555 1_555
H30 C28 1_555 1_555
N1 C6 1_555 1_555
N2 C13 1_555 1_555
O1 C7 1_555 1_555
O2 C13 1_555 1_555
O3 C21 1_555 1_555
O4 C21 1_555 1_555
O5 C25 1_555 1_555
O6 C25 1_555 1_555
C5 C6 1_555 1_555
C7 N1 1_555 1_555
C9 N1 1_555 1_555
C11 C12 1_555 1_555
C14 N2 1_555 1_555
C18 C19 1_555 1_555
C20 N2 1_555 1_555
C22 O4 1_555 1_555
C26 O6 1_555 1_555

#END
