
#######################################################################
#
#                 Cambridge Crystallographic Data Centre
#                                CCDC 
#
#######################################################################
#
# If this CIF has been generated from an entry in the Cambridge 
# Structural Database, then it will include bibliographic, chemical, 
# crystal, experimental, refinement or atomic coordinate data resulting 
# from the CCDC's data processing and validation procedures.
#
#######################################################################

data_NEJPOJ
_chemical_formula_moiety         'C8 H14 B1 N4 1+,C2 H2 B1 N2 1-'
_chemical_name_systematic        
'bis(1-Methyl-1H-imidazol-3-ium-3-yl)dihydroborate dicyanodihydroborate'
_symmetry_cell_setting           triclinic
_symmetry_space_group_name_H-M   'P -1'
_symmetry_Int_Tables_number      2
_space_group_name_Hall           '-P 1'
loop_
_symmetry_equiv_pos_site_id
_symmetry_equiv_pos_as_xyz
1 x,y,z
2 -x,-y,-z
_cell_length_a                   6.9889(6)
_cell_length_b                   8.7981(8)
_cell_length_c                   11.9868(10)
_cell_angle_alpha                76.160(3)
_cell_angle_beta                 89.921(3)
_cell_angle_gamma                73.140(3)
_cell_volume                     683.06
_exptl_crystal_colour            colorless
_exptl_crystal_description       irregular
_cell_formula_units_Z            2
loop_
_atom_site_label
_atom_site_type_symbol
_atom_site_fract_x
_atom_site_fract_y
_atom_site_fract_z
N1 N 0.09888(14) 0.57313(11) 0.66061(8)
C1 C -0.02194(18) 0.70226(14) 0.58645(9)
H1 H 0.0038 0.8021 0.5591
N2 N -0.18527(15) 0.66837(12) 0.55688(8)
C2 C -0.16910(18) 0.50976(14) 0.61437(10)
H2 H -0.2619 0.4537 0.6099
C3 C 0.00709(18) 0.45085(14) 0.67849(10)
H3 H 0.0580 0.3460 0.7265
B1 B 0.3048(2) 0.56501(18) 0.71676(12)
H4 H 0.417(2) 0.4427(16) 0.7176(12)
H5 H 0.342(2) 0.6734(16) 0.6688(12)
N3 N 0.27520(14) 0.57602(12) 0.84424(8)
C4 C 0.24115(17) 0.71108(14) 0.88171(10)
H6 H 0.2307 0.8149 0.8356
N4 N 0.22424(14) 0.67598(11) 0.99492(8)
C5 C 0.24692(17) 0.51078(14) 1.03223(10)
H7 H 0.2414 0.4528 1.1074
C6 C 0.27880(17) 0.44918(14) 0.93874(10)
H8 H 0.2996 0.3401 0.9380
C7 C -0.3518(2) 0.78130(17) 0.47682(11)
H9 H -0.3136 0.8750 0.4364
H10 H -0.4663 0.8164 0.5190
H11 H -0.3848 0.7267 0.4226
C8 C 0.1876(2) 0.79282(15) 1.06731(11)
H12 H 0.2168 0.8908 1.0268
H13 H 0.2723 0.7447 1.1374
H14 H 0.0497 0.8196 1.0851
N5 N 0.1190(2) 0.90652(15) 1.35424(11)
C9 C 0.2032(2) 0.98004(15) 1.29205(11)
B2 B 0.3100(2) 1.08994(17) 1.20605(13)
H15 H 0.210(2) 1.1530(16) 1.1234(12)
H16 H 0.348(2) 1.1794(16) 1.2469(12)
C10 C 0.51646(19) 0.98142(14) 1.17434(10)
N6 N 0.66764(17) 0.90735(13) 1.14994(10)
loop_
_geom_bond_atom_site_label_1
_geom_bond_atom_site_label_2
_geom_bond_site_symmetry_1
_geom_bond_site_symmetry_2
N1 C1 1_555 1_555
C1 H1 1_555 1_555
N2 C1 1_555 1_555
C2 N2 1_555 1_555
H2 C2 1_555 1_555
C3 N1 1_555 1_555
H3 C3 1_555 1_555
B1 N1 1_555 1_555
H4 B1 1_555 1_555
H5 B1 1_555 1_555
N3 B1 1_555 1_555
C4 N3 1_555 1_555
H6 C4 1_555 1_555
N4 C4 1_555 1_555
C5 N4 1_555 1_555
H7 C5 1_555 1_555
C6 N3 1_555 1_555
H8 C6 1_555 1_555
C7 N2 1_555 1_555
H9 C7 1_555 1_555
H10 C7 1_555 1_555
H11 C7 1_555 1_555
C8 N4 1_555 1_555
H12 C8 1_555 1_555
H13 C8 1_555 1_555
H14 C8 1_555 1_555
N5 C9 1_555 1_555
C9 B2 1_555 1_555
B2 H15 1_555 1_555
H16 B2 1_555 1_555
C10 B2 1_555 1_555
N6 C10 1_555 1_555
C2 C3 1_555 1_555
C5 C6 1_555 1_555

#END
