
#######################################################################
#
#                 Cambridge Crystallographic Data Centre
#                                CCDC 
#
#######################################################################
#
# If this CIF has been generated from an entry in the Cambridge 
# Structural Database, then it will include bibliographic, chemical, 
# crystal, experimental, refinement or atomic coordinate data resulting 
# from the CCDC's data processing and validation procedures.
#
#######################################################################

data_NEJTAA
_chemical_formula_moiety         'C20 H20 N2 O4 S1'
_chemical_name_systematic        
N-((3aS,8S,8aR)-2,6-dimethyl-1,3-dioxo-1,2,3,3a,8,8a-hexahydroindeno[1,2-c]pyrrol-8-yl)-4-methylbenzenesulfonamide
_symmetry_cell_setting           monoclinic
_symmetry_space_group_name_H-M   'P 21/c'
_symmetry_Int_Tables_number      14
_space_group_name_Hall           '-P 2ybc'
loop_
_symmetry_equiv_pos_site_id
_symmetry_equiv_pos_as_xyz
1 x,y,z
2 -x,1/2+y,1/2-z
3 -x,-y,-z
4 x,1/2-y,1/2+z
_cell_length_a                   10.6321(14)
_cell_length_b                   9.4761(12)
_cell_length_c                   18.731(2)
_cell_angle_alpha                90
_cell_angle_beta                 91.570(7)
_cell_angle_gamma                90
_cell_volume                     1886.46
_exptl_crystal_colour            colorless
_exptl_crystal_description       block
_chemical_melting_point          '223.9-225.8 deg.C'
_cell_formula_units_Z            4
loop_
_atom_site_label
_atom_site_type_symbol
_atom_site_fract_x
_atom_site_fract_y
_atom_site_fract_z
C1 C 0.97036(17) -0.01574(18) 0.11038(8)
H1 H 0.9913 -0.0039 0.0601
C2 C 1.08814(16) -0.05042(17) 0.15437(8)
C3 C 1.16798(18) -0.16444(18) 0.14491(10)
H2 H 1.1558 -0.2242 0.106
C4 C 1.26640(19) -0.1889(2) 0.19393(12)
C5 C 1.2813(2) -0.0980(2) 0.25227(12)
H3 H 1.345 -0.1156 0.2861
C6 C 1.2033(2) 0.0182(2) 0.26114(10)
H4 H 1.2156 0.0788 0.2998
C7 C 1.10656(17) 0.04199(18) 0.21117(8)
C8 C 1.01179(18) 0.16028(18) 0.20826(9)
H5 H 0.9631 0.1648 0.2519
C9 C 1.07270(18) 0.30089(19) 0.19172(9)
C10 C 0.94919(17) 0.25071(18) 0.09175(9)
C11 C 0.92714(17) 0.12802(18) 0.14188(9)
H6 H 0.8385 0.1236 0.1548
C12 C 1.3538(2) -0.3127(3) 0.18444(16)
H7 H 1.3237 -0.3921 0.2108
H8 H 1.4367 -0.288 0.2018
H9 H 1.3566 -0.3366 0.1347
C13 C 1.0724(2) 0.4750(2) 0.09215(12)
H10 H 1.1345 0.5203 0.1224
H11 H 1.0014 0.5365 0.0852
H12 H 1.1081 0.4541 0.0468
C14 C 0.65755(18) -0.0187(2) 0.06933(10)
C15 C 0.6546(2) 0.0905(2) 0.02164(11)
H13 H 0.7049 0.0877 -0.0182
C16 C 0.5765(2) 0.2057(3) 0.03255(16)
H14 H 0.5769 0.2796 -0.0001
C17 C 0.5001(2) 0.2143(3) 0.08894(18)
C18 C 0.5002(3) 0.1026(4) 0.13556(18)
H15 H 0.4461 0.1048 0.1737
C19 C 0.5786(3) -0.0142(3) 0.12770(14)
H16 H 0.5784 -0.0875 0.1607
C20 C 0.4009(5) 0.3177(6) 0.1164(4)
N1 N 1.03176(16) 0.34431(15) 0.12556(8)
N2 N 0.88033(16) -0.13180(16) 0.11762(8)
H17 H 0.8885 -0.1879 0.1535
O1 O 1.14751(15) 0.36604(15) 0.22958(7)
O2 O 0.90521(15) 0.26849(16) 0.03266(8)
O3 O 0.81633(15) -0.14737(18) -0.00989(7)
O4 O 0.70575(19) -0.28517(18) 0.08204(10)
S1 S 0.76538(5) -0.15790(5) 0.05979(3)
C21? C 0.4279(5) 0.3560(4) 0.0910(3)
loop_
_geom_bond_atom_site_label_1
_geom_bond_atom_site_label_2
_geom_bond_site_symmetry_1
_geom_bond_site_symmetry_2
C1 H1 1_555 1_555
C2 C1 1_555 1_555
C3 C2 1_555 1_555
H2 C3 1_555 1_555
C4 C3 1_555 1_555
C5 C4 1_555 1_555
H3 C5 1_555 1_555
C6 C5 1_555 1_555
H4 C6 1_555 1_555
C7 C2 1_555 1_555
C8 C7 1_555 1_555
H5 C8 1_555 1_555
C9 C8 1_555 1_555
C10 C11 1_555 1_555
C11 C1 1_555 1_555
H6 C11 1_555 1_555
C12 C4 1_555 1_555
H7 C12 1_555 1_555
H8 C12 1_555 1_555
H9 C12 1_555 1_555
C13 H10 1_555 1_555
H11 C13 1_555 1_555
H12 C13 1_555 1_555
C14 C15 1_555 1_555
C15 H13 1_555 1_555
C16 C15 1_555 1_555
H14 C16 1_555 1_555
C17 C16 1_555 1_555
C18 C17 1_555 1_555
H15 C18 1_555 1_555
C19 C14 1_555 1_555
H16 C19 1_555 1_555
C20 C17 1_555 1_555
N1 C9 1_555 1_555
N2 C1 1_555 1_555
H17 N2 1_555 1_555
O1 C9 1_555 1_555
O2 C10 1_555 1_555
O3 S1 1_555 1_555
O4 S1 1_555 1_555
S1 C14 1_555 1_555
C6 C7 1_555 1_555
C8 C11 1_555 1_555
C10 N1 1_555 1_555
C13 N1 1_555 1_555
C18 C19 1_555 1_555
N2 S1 1_555 1_555

#END
