
#######################################################################
#
#                 Cambridge Crystallographic Data Centre
#                                CCDC 
#
#######################################################################
#
# If this CIF has been generated from an entry in the Cambridge 
# Structural Database, then it will include bibliographic, chemical, 
# crystal, experimental, refinement or atomic coordinate data resulting 
# from the CCDC's data processing and validation procedures.
#
#######################################################################

data_NEJTEE
_chemical_formula_moiety         'C19 H21 N1 O3 S1'
_chemical_name_systematic        
N-((1S,2R)-2-acetyl-7-methyl-2,3-dihydro-1H-inden-1-yl)-4-methylbenzenesulfonamide
_symmetry_cell_setting           monoclinic
_symmetry_space_group_name_H-M   'P 21/c'
_symmetry_Int_Tables_number      14
_space_group_name_Hall           '-P 2ybc'
loop_
_symmetry_equiv_pos_site_id
_symmetry_equiv_pos_as_xyz
1 x,y,z
2 -x,1/2+y,1/2-z
3 -x,-y,-z
4 x,1/2-y,1/2+z
_cell_length_a                   11.714(3)
_cell_length_b                   8.0596(18)
_cell_length_c                   19.079(4)
_cell_angle_alpha                90
_cell_angle_beta                 99.620(2)
_cell_angle_gamma                90
_cell_volume                     1775.92
_exptl_crystal_colour            colorless
_exptl_crystal_description       plate
_cell_formula_units_Z            4
loop_
_atom_site_label
_atom_site_type_symbol
_atom_site_fract_x
_atom_site_fract_y
_atom_site_fract_z
C1 C 0.72775(15) 0.2292(2) 0.21240(10)
H1 H 0.6794 0.3107 0.1831
C2 C 0.67153(15) 0.1826(2) 0.27554(10)
C3 C 0.63868(17) 0.2895(3) 0.32660(11)
C4 C 0.58627(19) 0.2178(3) 0.37958(13)
H2 H 0.5642 0.2854 0.4145
C5 C 0.5662(2) 0.0491(4) 0.38177(15)
H3 H 0.5306 0.0051 0.4177
C6 C 0.5985(2) -0.0543(3) 0.33122(14)
H4 H 0.5846 -0.1677 0.3326
C7 C 0.65235(17) 0.0131(3) 0.27787(12)
C8 C 0.6940(2) -0.0761(3) 0.21790(13)
H5 H 0.6328 -0.1436 0.1917
H6 H 0.7595 -0.1469 0.2356
C9 C 0.73029(16) 0.0647(3) 0.16995(11)
H7 H 0.8096 0.0441 0.162
C10 C 0.6572(2) 0.4738(3) 0.32425(14)
H8 H 0.6194 0.5268 0.3592
H9 H 0.6255 0.5149 0.2779
H10 H 0.7387 0.4973 0.3342
C11 C 0.64996(18) 0.0648(3) 0.09908(11)
C12 C 0.6689(2) -0.0694(4) 0.04770(14)
H11 H 0.5991 -0.086 0.0142
H12 H 0.6895 -0.1706 0.0732
H13 H 0.7302 -0.0373 0.0229
C13 C 0.92698(17) 0.3742(2) 0.11312(10)
C14 C 1.03568(19) 0.3120(3) 0.11040(12)
H14 H 1.0921 0.3111 0.151
C15 C 1.0601(2) 0.2510(4) 0.04711(13)
H15 H 1.1339 0.2098 0.0457
C16 C 0.9796(2) 0.2489(3) -0.01399(11)
C17 C 0.8719(2) 0.3122(4) -0.01039(12)
H16 H 0.8159 0.3129 -0.0511
C18 C 0.84455(19) 0.3751(3) 0.05233(12)
H17 H 0.7711 0.4175 0.0534
C19 C 1.0075(3) 0.1804(4) -0.08319(13)
H18 H 1.0677 0.2457 -0.0981
H19 H 0.9395 0.1845 -0.119
H20 H 1.033 0.0675 -0.0763
N1 N 0.84438(13) 0.2997(2) 0.23625(8)
H21 H 0.8871 0.2595 0.2734
O1 O 0.57341(15) 0.1659(2) 0.08457(9)
O2 O 1.00032(14) 0.5006(2) 0.23713(8)
O3 O 0.80166(15) 0.56817(19) 0.17638(10)
S1 S 0.89318(4) 0.45098(6) 0.19388(3)
loop_
_geom_bond_atom_site_label_1
_geom_bond_atom_site_label_2
_geom_bond_site_symmetry_1
_geom_bond_site_symmetry_2
C1 H1 1_555 1_555
C2 C1 1_555 1_555
C3 C2 1_555 1_555
C4 C3 1_555 1_555
H2 C4 1_555 1_555
C5 C4 1_555 1_555
H3 C5 1_555 1_555
C6 C5 1_555 1_555
H4 C6 1_555 1_555
C7 C2 1_555 1_555
C8 C7 1_555 1_555
H5 C8 1_555 1_555
H6 C8 1_555 1_555
C9 C1 1_555 1_555
H7 C9 1_555 1_555
C10 C3 1_555 1_555
H8 C10 1_555 1_555
H9 C10 1_555 1_555
H10 C10 1_555 1_555
C11 C9 1_555 1_555
C12 C11 1_555 1_555
H11 C12 1_555 1_555
H12 C12 1_555 1_555
H13 C12 1_555 1_555
C13 C14 1_555 1_555
C14 H14 1_555 1_555
C15 C14 1_555 1_555
H15 C15 1_555 1_555
C16 C15 1_555 1_555
C17 C16 1_555 1_555
H16 C17 1_555 1_555
C18 C13 1_555 1_555
H17 C18 1_555 1_555
C19 C16 1_555 1_555
H18 C19 1_555 1_555
H19 C19 1_555 1_555
H20 C19 1_555 1_555
N1 C1 1_555 1_555
H21 N1 1_555 1_555
O1 C11 1_555 1_555
O2 S1 1_555 1_555
O3 S1 1_555 1_555
S1 C13 1_555 1_555
C6 C7 1_555 1_555
C8 C9 1_555 1_555
C17 C18 1_555 1_555
N1 S1 1_555 1_555

#END
