
#######################################################################
#
#                 Cambridge Crystallographic Data Centre
#                                CCDC 
#
#######################################################################
#
# If this CIF has been generated from an entry in the Cambridge 
# Structural Database, then it will include bibliographic, chemical, 
# crystal, experimental, refinement or atomic coordinate data resulting 
# from the CCDC's data processing and validation procedures.
#
#######################################################################

data_NEJVUW
_chemical_formula_moiety         'C39 H29 B1 N2 O1'
_chemical_name_systematic        
1,2,3,5,5-pentaphenyl-1,5-dihydro-4\l^5^,5\l^5^-imidazo[1,2-c][1,3,2]benzoxazaborinine
_symmetry_cell_setting           triclinic
_symmetry_space_group_name_H-M   'P -1'
_symmetry_Int_Tables_number      2
_space_group_name_Hall           '-P 1'
loop_
_symmetry_equiv_pos_site_id
_symmetry_equiv_pos_as_xyz
1 x,y,z
2 -x,-y,-z
_cell_length_a                   10.144(2)
_cell_length_b                   11.510(2)
_cell_length_c                   14.188(3)
_cell_angle_alpha                77.15(3)
_cell_angle_beta                 77.52(3)
_cell_angle_gamma                69.49(3)
_cell_volume                     1495.27
_exptl_crystal_colour            colorless
_exptl_crystal_description       block
_cell_formula_units_Z            2
loop_
_atom_site_label
_atom_site_type_symbol
_atom_site_fract_x
_atom_site_fract_y
_atom_site_fract_z
O1 O 0.58764(12) 0.83326(10) 0.09218(8)
N1 N 0.66049(13) 0.64282(12) 0.21121(9)
N2 N 0.78779(13) 0.46001(12) 0.16751(10)
C1 C 0.69921(15) 0.57649(14) 0.13762(11)
C2 C 0.72470(15) 0.56681(14) 0.29001(11)
C3 C 0.65393(16) 0.63189(15) 0.04259(12)
C4 C 0.57746(15) 0.87355(14) 0.25835(11)
C5 C 0.80418(16) 0.45266(14) 0.26357(12)
C6 C 0.59951(16) 0.76394(15) 0.02431(12)
C7 C 0.47735(17) 0.92998(16) 0.33218(12)
H1 H 0.3923 0.9114 0.3504
C8 C 0.71076(17) 0.60521(14) 0.38544(12)
C9 C 0.56388(18) 0.82593(17) -0.06722(13)
H2 H 0.5299 0.9133 -0.0795
C10 C 0.66614(19) 0.56519(17) -0.03226(13)
H3 H 0.6999 0.4778 -0.0211
C11 C 0.84857(16) 0.35785(14) 0.11117(12)
C12 C 0.39033(16) 0.77520(15) 0.21987(12)
C13 C 0.89098(17) 0.33991(15) 0.32135(13)
C14 C 0.27874(18) 0.88392(17) 0.19569(15)
H4 H 0.2996 0.9570 0.1647
B1 B 0.55056(18) 0.78369(16) 0.19737(13)
C15 C 0.5789(2) 0.75803(19) -0.13942(14)
H5 H 0.5555 0.7998 -0.2006
C16 C 0.4997(2) 1.01271(17) 0.37941(13)
H6 H 0.4296 1.0497 0.4278
C17 C 0.70253(18) 0.90555(17) 0.23467(14)
H7 H 0.7717 0.8715 0.1847
C18 C 0.97911(18) 0.34519(16) 0.05284(13)
H8 H 1.0296 0.3992 0.0517
C19 C 0.8340(2) 0.29882(18) 0.41578(15)
H9 H 0.7405 0.3404 0.4406
C20 C 0.58475(19) 0.62935(18) 0.44916(13)
H10 H 0.5031 0.6271 0.4308
C21 C 1.03053(19) 0.27591(18) 0.28616(15)
H11 H 1.0708 0.3029 0.2234
C22 C 0.6252(2) 1.04049(17) 0.35516(14)
H12 H 0.6410 1.0955 0.3873
C23 C 0.6288(2) 0.6276(2) -0.12174(14)
H13 H 0.6369 0.5824 -0.1707
C24 C 0.77418(19) 0.27806(17) 0.11514(15)
H14 H 0.6879 0.2859 0.1566
C25 C 1.0334(2) 0.2508(2) -0.00390(16)
H15 H 1.1219 0.2399 -0.0428
C26 C 0.13849(19) 0.8866(2) 0.21622(17)
H16 H 0.0667 0.9610 0.2000
C27 C 0.9568(2) 0.17309(19) -0.00287(16)
H17 H 0.9922 0.1117 -0.0430
C28 C 1.1103(2) 0.17276(19) 0.34302(19)
H18 H 1.2032 0.1297 0.3182
C29 C 0.35278(19) 0.66907(17) 0.26338(14)
H19 H 0.4241 0.5943 0.2797
C30 C 0.8312(2) 0.60879(19) 0.41430(15)
H20 H 0.9173 0.5924 0.3721
C31 C 0.7271(2) 0.98594(19) 0.28283(16)
H21 H 0.8129 1.0033 0.2663
C32 C 0.5787(2) 0.6569(2) 0.54024(15)
H22 H 0.4930 0.6732 0.5827
C33 C 0.8289(2) 0.18506(19) 0.05652(17)
H23 H 0.7785 0.1309 0.0577
C34 C 0.6972(3) 0.66038(19) 0.56836(15)
H24 H 0.6925 0.6788 0.6298
C35 C 0.9152(3) 0.1966(2) 0.47307(17)
H25 H 0.8766 0.1703 0.5366
C36 C 0.2114(2) 0.6703(2) 0.28372(18)
H26 H 0.1898 0.5971 0.3130
C37 C 0.8238(3) 0.6366(2) 0.50541(17)
H27 H 0.9049 0.6394 0.5243
C38 C 0.1046(2) 0.7795(2) 0.26055(18)
H28 H 0.0101 0.7811 0.2746
C39 C 1.0525(3) 0.13361(19) 0.4365(2)
H29 H 1.1065 0.0643 0.4750
loop_
_geom_bond_atom_site_label_1
_geom_bond_atom_site_label_2
_geom_bond_site_symmetry_1
_geom_bond_site_symmetry_2
O1 C6 1_555 1_555
N1 C1 1_555 1_555
N2 C1 1_555 1_555
C1 C3 1_555 1_555
C2 N1 1_555 1_555
C3 C6 1_555 1_555
C4 C7 1_555 1_555
C5 N2 1_555 1_555
C6 C9 1_555 1_555
C7 H1 1_555 1_555
C8 C2 1_555 1_555
C9 H2 1_555 1_555
C10 C3 1_555 1_555
H3 C10 1_555 1_555
C11 N2 1_555 1_555
C12 C14 1_555 1_555
C13 C5 1_555 1_555
C14 H4 1_555 1_555
B1 O1 1_555 1_555
C15 C9 1_555 1_555
H5 C15 1_555 1_555
C16 C7 1_555 1_555
H6 C16 1_555 1_555
C17 C4 1_555 1_555
H7 C17 1_555 1_555
C18 C11 1_555 1_555
H8 C18 1_555 1_555
C19 C13 1_555 1_555
H9 C19 1_555 1_555
C20 C8 1_555 1_555
H10 C20 1_555 1_555
C21 C13 1_555 1_555
H11 C21 1_555 1_555
C22 C16 1_555 1_555
H12 C22 1_555 1_555
C23 C10 1_555 1_555
H13 C23 1_555 1_555
C24 C11 1_555 1_555
H14 C24 1_555 1_555
C25 C18 1_555 1_555
H15 C25 1_555 1_555
C26 C14 1_555 1_555
H16 C26 1_555 1_555
C27 C25 1_555 1_555
H17 C27 1_555 1_555
C28 C21 1_555 1_555
H18 C28 1_555 1_555
C29 C12 1_555 1_555
H19 C29 1_555 1_555
C30 C8 1_555 1_555
H20 C30 1_555 1_555
C31 C17 1_555 1_555
H21 C31 1_555 1_555
C32 C20 1_555 1_555
H22 C32 1_555 1_555
C33 C24 1_555 1_555
H23 C33 1_555 1_555
C34 C32 1_555 1_555
H24 C34 1_555 1_555
C35 C19 1_555 1_555
H25 C35 1_555 1_555
C36 C29 1_555 1_555
H26 C36 1_555 1_555
C37 C30 1_555 1_555
H27 C37 1_555 1_555
C38 C26 1_555 1_555
H28 C38 1_555 1_555
C39 C28 1_555 1_555
H29 C39 1_555 1_555
N1 B1 1_555 1_555
C2 C5 1_555 1_555
C4 B1 1_555 1_555
C12 B1 1_555 1_555
C15 C23 1_555 1_555
C22 C31 1_555 1_555
C27 C33 1_555 1_555
C34 C37 1_555 1_555
C35 C39 1_555 1_555
C36 C38 1_555 1_555

#END
