
#######################################################################
#
#                 Cambridge Crystallographic Data Centre
#                                CCDC 
#
#######################################################################
#
# If this CIF has been generated from an entry in the Cambridge 
# Structural Database, then it will include bibliographic, chemical, 
# crystal, experimental, refinement or atomic coordinate data resulting 
# from the CCDC's data processing and validation procedures.
#
#######################################################################

data_NEJVEG
_chemical_formula_moiety         'C20 H24 N2 O2 S1'
_chemical_name_systematic        
N-(2,7-dimethyl-1,2,3,3a,8,8a-hexahydroindeno[1,2-c]pyrrol-8-yl)-4-methylbenzene-1-sulfonamide
_symmetry_cell_setting           monoclinic
_symmetry_space_group_name_H-M   'P 21/c'
_symmetry_Int_Tables_number      14
_space_group_name_Hall           '-P 2ybc'
loop_
_symmetry_equiv_pos_site_id
_symmetry_equiv_pos_as_xyz
1 x,y,z
2 -x,1/2+y,1/2-z
3 -x,-y,-z
4 x,1/2-y,1/2+z
_cell_length_a                   10.5886(4)
_cell_length_b                   9.4603(4)
_cell_length_c                   18.9804(8)
_cell_angle_alpha                90
_cell_angle_beta                 106.1047(16)
_cell_angle_gamma                90
_cell_volume                     1826.68
_exptl_crystal_colour            colorless
_exptl_crystal_description       block
_cell_formula_units_Z            4
loop_
_atom_site_label
_atom_site_type_symbol
_atom_site_fract_x
_atom_site_fract_y
_atom_site_fract_z
C1 C 0.54919(19) 0.82656(19) 0.12533(11)
C2 C 0.6638(2) 0.7988(2) 0.10546(12)
H1 H 0.6658 0.8179 0.0577
C3 C 0.7752(2) 0.7435(2) 0.15469(13)
H2 H 0.8495 0.7244 0.1393
C4 C 0.7763(2) 0.7165(2) 0.22641(13)
H3 H 0.8518 0.6827 0.26
C5 C 0.66237(18) 0.74115(19) 0.24730(11)
C6 C 0.55002(18) 0.79228(19) 0.19727(10)
C7 C 0.4317(2) 0.8924(2) 0.07114(11)
H4 H 0.4409 0.9934 0.0726
H5 H 0.353 0.8666 0.0837
H6 H 0.4266 0.859 0.0227
C8 C 0.43597(18) 0.7983(2) 0.23113(10)
H7 H 0.4054 0.8962 0.2308
C9 C 0.49425(19) 0.7485(2) 0.31174(11)
H8 H 0.4483 0.6637 0.3211
C10 C 0.4959(2) 0.8609(2) 0.37006(12)
H9 H 0.424 0.9271 0.3529
H10 H 0.4888 0.8175 0.4151
C11 C 0.7153(2) 0.8169(2) 0.38250(11)
H11 H 0.7389 0.7697 0.4297
H12 H 0.7947 0.8524 0.3727
C12 C 0.64227(19) 0.7149(2) 0.32146(11)
H13 H 0.662 0.6164 0.3364
C13 C 0.6581(2) 1.0125(2) 0.45043(12)
H14 H 0.6634 0.9496 0.4908
H15 H 0.5923 1.0831 0.4491
H16 H 0.7417 1.0574 0.4563
C14 C 0.14670(17) 0.7344(2) 0.26673(10)
C15 C 0.1470(2) 0.6019(2) 0.29851(12)
H17 H 0.1672 0.5215 0.2756
C16 C 0.1168(2) 0.5913(2) 0.36460(12)
H18 H 0.1167 0.5027 0.3858
C17 C 0.08676(19) 0.7099(2) 0.40018(11)
C18 C 0.0890(2) 0.8412(2) 0.36817(12)
H19 H 0.0705 0.9217 0.3916
C19 C 0.1186(2) 0.8541(2) 0.30156(11)
H20 H 0.1195 0.9427 0.2805
C20 C 0.0487(2) 0.6926(3) 0.47058(12)
H21 H 0.0348 0.7839 0.4891
H22 H 0.1178 0.6446 0.506
H23 H -0.0308 0.6382 0.4614
N1 N 0.62260(16) 0.93193(17) 0.38154(9)
N2 N 0.32786(15) 0.70909(17) 0.18891(9)
H24 H 0.3462 0.6338 0.1683
O1 O 0.15646(14) 0.89291(15) 0.15806(8)
O2 O 0.10104(13) 0.63912(16) 0.13392(8)
S1 S 0.17639(4) 0.74766(5) 0.17989(3)
loop_
_geom_bond_atom_site_label_1
_geom_bond_atom_site_label_2
_geom_bond_site_symmetry_1
_geom_bond_site_symmetry_2
C1 C2 1_555 1_555
C2 H1 1_555 1_555
C3 C2 1_555 1_555
H2 C3 1_555 1_555
C4 C3 1_555 1_555
H3 C4 1_555 1_555
C5 C4 1_555 1_555
C6 C1 1_555 1_555
C7 C1 1_555 1_555
H4 C7 1_555 1_555
H5 C7 1_555 1_555
H6 C7 1_555 1_555
C8 C6 1_555 1_555
H7 C8 1_555 1_555
C9 C8 1_555 1_555
H8 C9 1_555 1_555
C10 C9 1_555 1_555
H9 C10 1_555 1_555
H10 C10 1_555 1_555
C11 H11 1_555 1_555
H12 C11 1_555 1_555
C12 C5 1_555 1_555
H13 C12 1_555 1_555
C13 H14 1_555 1_555
H15 C13 1_555 1_555
H16 C13 1_555 1_555
C14 C15 1_555 1_555
C15 H17 1_555 1_555
C16 C15 1_555 1_555
H18 C16 1_555 1_555
C17 C16 1_555 1_555
C18 C17 1_555 1_555
H19 C18 1_555 1_555
C19 C14 1_555 1_555
H20 C19 1_555 1_555
C20 C17 1_555 1_555
H21 C20 1_555 1_555
H22 C20 1_555 1_555
H23 C20 1_555 1_555
N1 C10 1_555 1_555
N2 C8 1_555 1_555
H24 N2 1_555 1_555
O1 S1 1_555 1_555
O2 S1 1_555 1_555
S1 C14 1_555 1_555
C5 C6 1_555 1_555
C9 C12 1_555 1_555
C11 C12 1_555 1_555
C11 N1 1_555 1_555
C13 N1 1_555 1_555
C18 C19 1_555 1_555
N2 S1 1_555 1_555

#END
