
#######################################################################
#
#                 Cambridge Crystallographic Data Centre
#                                CCDC 
#
#######################################################################
#
# If this CIF has been generated from an entry in the Cambridge 
# Structural Database, then it will include bibliographic, chemical, 
# crystal, experimental, refinement or atomic coordinate data resulting 
# from the CCDC's data processing and validation procedures.
#
#######################################################################

data_NEJXOS
_chemical_formula_moiety         'C17 H16 N2 O5 S1'
_chemical_name_systematic        
'methyl 3-[2-nitro-1-(thiophen-2-yl)ethyl]-2-oxo-1,2,3,4-tetrahydroquinoline-3-carboxylate'
_symmetry_cell_setting           monoclinic
_symmetry_space_group_name_H-M   'P 21/c'
_symmetry_Int_Tables_number      14
_space_group_name_Hall           '-P 2ybc'
loop_
_symmetry_equiv_pos_site_id
_symmetry_equiv_pos_as_xyz
1 x,y,z
2 -x,1/2+y,1/2-z
3 -x,-y,-z
4 x,1/2-y,1/2+z
_cell_length_a                   9.3891(5)
_cell_length_b                   7.7761(4)
_cell_length_c                   23.6648(15)
_cell_angle_alpha                90
_cell_angle_beta                 91.381(5)
_cell_angle_gamma                90
_cell_volume                     1727.28
_exptl_crystal_colour            colorless
_exptl_crystal_description       plate
_cell_formula_units_Z            4
loop_
_atom_site_label
_atom_site_type_symbol
_atom_site_fract_x
_atom_site_fract_y
_atom_site_fract_z
S1 S 0.39459(12) 0.04149(16) 0.57831(5)
O1 O 0.0812(3) -0.0389(3) 0.56855(11)
O2 O -0.1537(3) 0.0352(4) 0.65534(12)
N1 N -0.0420(3) 0.1942(4) 0.53885(12)
O3 O -0.0680(4) 0.2075(6) 0.72280(15)
C1 C 0.0336(4) 0.1053(5) 0.57820(15)
C2 C -0.1014(4) 0.3594(5) 0.54707(15)
C3 C 0.0589(4) 0.1911(5) 0.63639(14)
C4 C 0.3323(4) 0.1652(5) 0.63285(15)
C5 C -0.0625(4) 0.1474(5) 0.67616(16)
C6 C -0.0550(4) 0.4575(5) 0.59301(16)
C7 C 0.4249(4) 0.3008(6) 0.64440(19)
H1 H 0.4107 0.3825 0.6724
C8 C -0.2022(4) 0.4216(5) 0.50798(18)
H2 H -0.2313 0.3550 0.4772
C9 C 0.2008(4) 0.1252(6) 0.66492(15)
H3 H 0.2109 0.1925 0.6998
N2 N 0.3239(6) -0.0916(9) 0.7250(3)
C10 C 0.0643(4) 0.3879(5) 0.63000(18)
H4 H 0.0595 0.4403 0.6671
H5 H 0.1547 0.4201 0.6140
C11 C -0.2581(5) 0.5844(6) 0.5159(2)
H6 H -0.3238 0.6289 0.4897
C12 C 0.5413(5) 0.1673(7) 0.5715(2)
H7 H 0.6116 0.1469 0.5453
C13 C 0.5446(5) 0.2999(7) 0.6082(2)
H8 H 0.6168 0.3818 0.6097
C14 C -0.1154(5) 0.6190(5) 0.6001(2)
H9 H -0.0873 0.6867 0.6308
C15 C -0.2172(5) 0.6798(6) 0.5618(2)
H10 H -0.2582 0.7871 0.5675
C16 C -0.2700(5) -0.0195(8) 0.6919(2)
H11 H -0.2314 -0.0842 0.7232
H12 H -0.3357 -0.0900 0.6705
H13 H -0.3187 0.0799 0.7057
C17 C 0.1971(5) -0.0574(7) 0.6842(2)
H14 H 0.2021 -0.1337 0.6519
H15 H 0.1086 -0.0798 0.7032
O4 O 0.3330(7) 0.0062(8) 0.7648(3)
O5 O 0.3969(6) -0.2040(11) 0.7156(3)
loop_
_geom_bond_atom_site_label_1
_geom_bond_atom_site_label_2
_geom_bond_site_symmetry_1
_geom_bond_site_symmetry_2
S1 C4 1_555 1_555
O1 C1 1_555 1_555
O2 C5 1_555 1_555
N1 C1 1_555 1_555
O3 C5 1_555 1_555
C1 C3 1_555 1_555
C2 N1 1_555 1_555
C3 C5 1_555 1_555
C4 C7 1_555 1_555
C6 C2 1_555 1_555
C7 H1 1_555 1_555
C8 C2 1_555 1_555
H2 C8 1_555 1_555
C9 C3 1_555 1_555
H3 C9 1_555 1_555
N2 C17 1_555 1_555
C10 C3 1_555 1_555
H4 C10 1_555 1_555
H5 C10 1_555 1_555
C11 C8 1_555 1_555
H6 C11 1_555 1_555
C12 S1 1_555 1_555
H7 C12 1_555 1_555
C13 C7 1_555 1_555
H8 C13 1_555 1_555
C14 C6 1_555 1_555
H9 C14 1_555 1_555
C15 C11 1_555 1_555
H10 C15 1_555 1_555
C16 O2 1_555 1_555
H11 C16 1_555 1_555
H12 C16 1_555 1_555
H13 C16 1_555 1_555
C17 C9 1_555 1_555
H14 C17 1_555 1_555
H15 C17 1_555 1_555
O4 N2 1_555 1_555
O5 N2 1_555 1_555
C4 C9 1_555 1_555
C6 C10 1_555 1_555
C12 C13 1_555 1_555
C14 C15 1_555 1_555

#END
