
#######################################################################
#
#                 Cambridge Crystallographic Data Centre
#                                CCDC 
#
#######################################################################
#
# If this CIF has been generated from an entry in the Cambridge 
# Structural Database, then it will include bibliographic, chemical, 
# crystal, experimental, refinement or atomic coordinate data resulting 
# from the CCDC's data processing and validation procedures.
#
#######################################################################

data_NEJXUW
_chemical_formula_moiety         'C23 H24 N4 O3'
_chemical_name_systematic        
1-(5-N,N-Dimethylamino-2-(2-quinolinyl)benzimidazole)-1'-\a-deoxyriboside
_symmetry_cell_setting           orthorhombic
_symmetry_space_group_name_H-M   'P 21 21 21'
_symmetry_Int_Tables_number      19
_space_group_name_Hall           'P 2ac 2ab'
loop_
_symmetry_equiv_pos_site_id
_symmetry_equiv_pos_as_xyz
1 x,y,z
2 1/2+x,1/2-y,-z
3 -x,1/2+y,1/2-z
4 1/2-x,-y,1/2+z
_cell_length_a                   6.0674(17)
_cell_length_b                   17.024(5)
_cell_length_c                   19.105(5)
_cell_angle_alpha                90
_cell_angle_beta                 90
_cell_angle_gamma                90
_cell_volume                     1973.38
_exptl_crystal_colour            orange
_exptl_crystal_description       needle
_cell_formula_units_Z            4
_exptl_crystal_recrystallization_method chloroform/methanol/hexane
loop_
_atom_site_label
_atom_site_type_symbol
_atom_site_fract_x
_atom_site_fract_y
_atom_site_fract_z
O1 O 0.3671(7) 0.3185(2) 0.63741(17)
O2 O -0.1002(9) 0.3684(4) 0.6886(5)
H1 H -0.1583 0.3793 0.6511
O3 O 0.5613(8) 0.4679(3) 0.6572(3)
H2 H 0.5042 0.4792 0.6948
N1 N 0.3628(8) 0.2199(2) 0.7230(2)
N2 N 0.4541(8) 0.0982(2) 0.7582(2)
N3 N 0.6216(8) 0.2712(2) 0.8447(2)
N4 N -0.2613(11) 0.1238(3) 0.5813(3)
C1 C 0.3907(11) 0.3046(3) 0.7103(3)
H3 H 0.5396 0.3201 0.7247
C2 C 0.2269(15) 0.3562(4) 0.7468(4)
H4 H 0.1217 0.3244 0.7724
H5 H 0.3014 0.3906 0.7796
C3 C 0.1113(11) 0.4035(4) 0.6919(4)
H6 H 0.1037 0.4593 0.7042
C4 C 0.2439(13) 0.3896(3) 0.6266(3)
H7 H 0.1417 0.3811 0.5876
C5 C 0.3968(14) 0.4547(4) 0.6073(4)
H8 H 0.4658 0.4424 0.5628
H9 H 0.3122 0.5025 0.6012
C6 C 0.0389(10) 0.1815(3) 0.6448(3)
H10 H 0.0005 0.2319 0.6303
C7 C -0.0808(11) 0.1149(3) 0.6229(3)
C8 C -0.0145(11) 0.0393(3) 0.6467(3)
H11 H -0.0942 -0.0044 0.6320
C9 C 0.1614(10) 0.0282(3) 0.6901(3)
H12 H 0.2021 -0.0220 0.7043
C10 C 0.2793(10) 0.0944(3) 0.7129(3)
C11 C 0.2169(9) 0.1684(3) 0.6890(3)
C12 C -0.3206(12) 0.1971(4) 0.5528(3)
H13 H -0.3276 0.2356 0.5894
H14 H -0.4621 0.1929 0.5306
H15 H -0.2126 0.2128 0.5188
C13 C -0.4052(12) 0.0580(4) 0.5649(3)
H16 H -0.3268 0.0207 0.5366
H17 H -0.5317 0.0767 0.5397
H18 H -0.4521 0.0333 0.6075
C14 C 0.5000(10) 0.1747(3) 0.7632(3)
C15 C 0.6688(9) 0.2042(3) 0.8108(2)
C16 C 0.8641(9) 0.1618(3) 0.8217(3)
H19 H 0.8871 0.1150 0.7977
C17 C 1.0194(10) 0.1881(3) 0.8669(3)
H20 H 1.1496 0.1603 0.8736
C18 C 0.9791(9) 0.2596(3) 0.9041(3)
C19 C 1.1266(10) 0.2912(3) 0.9524(3)
H21 H 1.2624 0.2671 0.9595
C20 C 1.0732(10) 0.3579(3) 0.9897(3)
H22 H 1.1722 0.3785 1.0220
C21 C 0.8689(11) 0.3944(3) 0.9788(3)
H23 H 0.8326 0.4387 1.0049
C22 C 0.7229(10) 0.3665(3) 0.9310(3)
H24 H 0.5896 0.3923 0.9239
C23 C 0.7742(10) 0.2975(3) 0.8915(3)
loop_
_geom_bond_atom_site_label_1
_geom_bond_atom_site_label_2
_geom_bond_site_symmetry_1
_geom_bond_site_symmetry_2
O1 C1 1_555 1_555
O2 H1 1_555 1_555
O3 H2 1_555 1_555
N1 C1 1_555 1_555
N2 C10 1_555 1_555
N3 C15 1_555 1_555
N4 C7 1_555 1_555
C1 H3 1_555 1_555
C2 C1 1_555 1_555
H4 C2 1_555 1_555
H5 C2 1_555 1_555
C3 O2 1_555 1_555
H6 C3 1_555 1_555
C4 O1 1_555 1_555
H7 C4 1_555 1_555
C5 O3 1_555 1_555
H8 C5 1_555 1_555
H9 C5 1_555 1_555
C6 H10 1_555 1_555
C7 C6 1_555 1_555
C8 C7 1_555 1_555
H11 C8 1_555 1_555
C9 C8 1_555 1_555
H12 C9 1_555 1_555
C10 C9 1_555 1_555
C11 N1 1_555 1_555
C12 N4 1_555 1_555
H13 C12 1_555 1_555
H14 C12 1_555 1_555
H15 C12 1_555 1_555
C13 N4 1_555 1_555
H16 C13 1_555 1_555
H17 C13 1_555 1_555
H18 C13 1_555 1_555
C14 N1 1_555 1_555
C15 C14 1_555 1_555
C16 C15 1_555 1_555
H19 C16 1_555 1_555
C17 C16 1_555 1_555
H20 C17 1_555 1_555
C18 C17 1_555 1_555
C19 C18 1_555 1_555
H21 C19 1_555 1_555
C20 C19 1_555 1_555
H22 C20 1_555 1_555
C21 C20 1_555 1_555
H23 C21 1_555 1_555
C22 C21 1_555 1_555
H24 C22 1_555 1_555
C23 N3 1_555 1_555
N2 C14 1_555 1_555
C2 C3 1_555 1_555
C3 C4 1_555 1_555
C4 C5 1_555 1_555
C6 C11 1_555 1_555
C10 C11 1_555 1_555
C18 C23 1_555 1_555
C22 C23 1_555 1_555

#END
