
#######################################################################
#
#                 Cambridge Crystallographic Data Centre
#                                CCDC 
#
#######################################################################
#
# If this CIF has been generated from an entry in the Cambridge 
# Structural Database, then it will include bibliographic, chemical, 
# crystal, experimental, refinement or atomic coordinate data resulting 
# from the CCDC's data processing and validation procedures.
#
#######################################################################

data_NEJXOQ
_chemical_formula_moiety         'C19 H22 N4 O3'
_chemical_name_systematic        
1-(5-N,N-Dimethylamino-2-(2-pyridyl)benzimidazole)-1'-\a-deoxyriboside
_symmetry_cell_setting           monoclinic
_symmetry_space_group_name_H-M   'P 21'
_symmetry_Int_Tables_number      4
_space_group_name_Hall           'P 2yb'
loop_
_symmetry_equiv_pos_site_id
_symmetry_equiv_pos_as_xyz
1 x,y,z
2 -x,1/2+y,-z
_cell_length_a                   5.7989(15)
_cell_length_b                   14.419(4)
_cell_length_c                   10.387(3)
_cell_angle_alpha                90
_cell_angle_beta                 90.218(5)
_cell_angle_gamma                90
_cell_volume                     868.496
_exptl_crystal_colour            colorless
_exptl_crystal_description       rhombic
_cell_formula_units_Z            2
_exptl_crystal_recrystallization_method chloroform/methanol/hexane
loop_
_atom_site_label
_atom_site_type_symbol
_atom_site_fract_x
_atom_site_fract_y
_atom_site_fract_z
O1 O 0.6824(3) 0.32890(14) -0.1043(2)
O2 O 0.1341(4) 0.3088(2) -0.2294(2)
H1 H -0.0014 0.3184 -0.2115
O3 O 0.7555(4) 0.48745(16) -0.26839(19)
H2 H 0.8442 0.5178 -0.2234
N1 N 0.7078(4) 0.19725(15) 0.0258(2)
N2 N 0.9722(4) 0.09921(14) 0.1071(2)
N3 N 0.6558(4) 0.26955(19) 0.2852(2)
N4 N 0.6525(4) 0.02730(18) -0.3881(2)
C1 C 0.5811(5) 0.28332(19) 0.0041(3)
H3 H 0.5962 0.3231 0.0802
C2 C 0.3283(5) 0.2704(2) -0.0274(3)
H4 H 0.2342 0.2805 0.0484
H5 H 0.2995 0.2083 -0.0596
C3 C 0.2756(5) 0.3421(2) -0.1296(3)
H6 H 0.2049 0.3968 -0.0901
C4 C 0.5081(5) 0.36739(19) -0.1852(3)
H7 H 0.5208 0.3389 -0.2705
C5 C 0.5483(5) 0.47003(19) -0.1989(3)
H8 H 0.4190 0.4980 -0.2439
H9 H 0.5590 0.4981 -0.1142
C6 C 0.6640(5) 0.1218(2) -0.1939(3)
H10 H 0.5550 0.1630 -0.2266
C7 C 0.7438(5) 0.0475(2) -0.2672(3)
C8 C 0.9163(5) -0.0120(2) -0.2139(3)
H11 H 0.9721 -0.0606 -0.2637
C9 C 1.0020(5) -0.0002(2) -0.0929(3)
H12 H 1.1141 -0.0401 -0.0606
C10 C 0.9186(5) 0.07322(18) -0.0176(3)
C11 C 0.7532(5) 0.13225(18) -0.0699(3)
C12 C 0.4553(6) 0.0818(3) -0.4307(3)
H13 H 0.3462 0.0869 -0.3618
H14 H 0.3836 0.0519 -0.5031
H15 H 0.5061 0.1426 -0.4555
C13 C 0.8082(6) 0.0044(2) -0.4916(3)
H16 H 0.8340 0.0584 -0.5437
H17 H 0.7417 -0.0438 -0.5436
H18 H 0.9523 -0.0166 -0.4564
C14 C 0.8458(4) 0.17337(19) 0.1304(3)
C15 C 0.8456(5) 0.22166(19) 0.2544(3)
C16 C 1.0356(5) 0.2155(2) 0.3354(3)
H19 H 1.1663 0.1828 0.3105
C17 C 1.0266(6) 0.2588(2) 0.4535(3)
H20 H 1.1498 0.2540 0.5107
C18 C 0.8350(6) 0.3090(2) 0.4860(3)
H21 H 0.8264 0.3397 0.5646
C19 C 0.6550(5) 0.3128(2) 0.3989(3)
H22 H 0.5256 0.3474 0.4207
loop_
_geom_bond_atom_site_label_1
_geom_bond_atom_site_label_2
_geom_bond_site_symmetry_1
_geom_bond_site_symmetry_2
O1 C1 1_555 1_555
O2 H1 1_555 1_555
O3 H2 1_555 1_555
N1 C1 1_555 1_555
N2 C10 1_555 1_555
N3 C15 1_555 1_555
N4 C7 1_555 1_555
C1 H3 1_555 1_555
C2 C1 1_555 1_555
H4 C2 1_555 1_555
H5 C2 1_555 1_555
C3 O2 1_555 1_555
H6 C3 1_555 1_555
C4 O1 1_555 1_555
H7 C4 1_555 1_555
C5 O3 1_555 1_555
H8 C5 1_555 1_555
H9 C5 1_555 1_555
C6 H10 1_555 1_555
C7 C6 1_555 1_555
C8 C7 1_555 1_555
H11 C8 1_555 1_555
C9 C8 1_555 1_555
H12 C9 1_555 1_555
C10 C9 1_555 1_555
C11 N1 1_555 1_555
C12 N4 1_555 1_555
H13 C12 1_555 1_555
H14 C12 1_555 1_555
H15 C12 1_555 1_555
C13 N4 1_555 1_555
H16 C13 1_555 1_555
H17 C13 1_555 1_555
H18 C13 1_555 1_555
C14 N1 1_555 1_555
C15 C14 1_555 1_555
C16 C15 1_555 1_555
H19 C16 1_555 1_555
C17 C16 1_555 1_555
H20 C17 1_555 1_555
C18 C17 1_555 1_555
H21 C18 1_555 1_555
C19 N3 1_555 1_555
H22 C19 1_555 1_555
N2 C14 1_555 1_555
C2 C3 1_555 1_555
C3 C4 1_555 1_555
C4 C5 1_555 1_555
C6 C11 1_555 1_555
C10 C11 1_555 1_555
C18 C19 1_555 1_555

#END
