
#######################################################################
#
#                 Cambridge Crystallographic Data Centre
#                                CCDC 
#
#######################################################################
#
# If this CIF has been generated from an entry in the Cambridge 
# Structural Database, then it will include bibliographic, chemical, 
# crystal, experimental, refinement or atomic coordinate data resulting 
# from the CCDC's data processing and validation procedures.
#
#######################################################################

data_NEJYEJ
_chemical_formula_moiety         'C27 H32 Br1 N1 O3'
_chemical_name_systematic        
5-bromo-3-(3,5-di-t-butyl-4-hydroxyphenyl)-1-methyl-3-(3-oxobut-1-en-2-yl)-1,3-dihydro-2H-indol-2-one
_symmetry_cell_setting           orthorhombic
_symmetry_space_group_name_H-M   'P 21 21 21'
_symmetry_Int_Tables_number      19
_space_group_name_Hall           'P 2ac 2ab'
loop_
_symmetry_equiv_pos_site_id
_symmetry_equiv_pos_as_xyz
1 x,y,z
2 1/2-x,-y,1/2+z
3 -x,1/2+y,1/2-z
4 1/2+x,1/2-y,-z
_cell_length_a                   6.21550(10)
_cell_length_b                   19.2776(3)
_cell_length_c                   20.6061(3)
_cell_angle_alpha                90
_cell_angle_beta                 90
_cell_angle_gamma                90
_cell_volume                     2469.02
_exptl_crystal_colour            colorless
_exptl_crystal_description       needle
_cell_formula_units_Z            4
loop_
_atom_site_label
_atom_site_type_symbol
_atom_site_fract_x
_atom_site_fract_y
_atom_site_fract_z
Br1 Br 0.15220(4) 0.765522(14) 0.777700(12)
C1 C 0.7089(3) 0.90255(12) 0.70138(10)
C2 C 0.6932(4) 0.83515(12) 0.68004(10)
H1 H 0.7930 0.8169 0.6510
C3 C 0.5239(4) 0.79508(12) 0.70306(10)
H2 H 0.5099 0.7492 0.6899
C4 C 0.3769(4) 0.82337(12) 0.74533(10)
C5 C 0.3901(3) 0.89181(11) 0.76658(10)
H3 H 0.2880 0.9103 0.7947
C6 C 0.5600(3) 0.93120(12) 0.74444(10)
C7 C 0.4593(3) 1.05806(12) 0.75310(10)
C8 C 0.3259(4) 1.07639(13) 0.80052(11)
H4 H 0.2095 1.1052 0.7917
H5 H 0.3490 1.0604 0.8425
C9 C 0.4257(3) 1.08295(12) 0.68545(11)
C10 C 0.3276(4) 1.15279(11) 0.67334(11)
H6 H 0.2802 1.1556 0.6291
H7 H 0.4327 1.1882 0.6814
H8 H 0.2069 1.1593 0.7018
C11 C 0.8234(3) 1.01416(11) 0.71541(10)
C12 C 1.0294(4) 0.94292(13) 0.63603(11)
H9 H 1.1205 0.9831 0.6348
H10 H 0.9607 0.9371 0.5947
H11 H 1.1144 0.9026 0.6457
C13 C 0.7269(3) 1.00518(12) 0.83240(10)
C14 C 0.7450(3) 0.94537(11) 0.86921(10)
H12 H 0.6992 0.9036 0.8514
C15 C 0.8295(4) 0.94533(11) 0.93211(10)
C16 C 0.8971(3) 1.00918(11) 0.95747(10)
C17 C 0.8853(3) 1.07109(11) 0.92092(10)
C18 C 0.8000(3) 1.06704(11) 0.85880(10)
H13 H 0.7916 1.1072 0.8340
C19 C 0.9611(3) 1.14060(11) 0.94994(10)
C20 C 0.9277(4) 1.20117(12) 0.90244(11)
H14 H 0.7772 1.2058 0.8928
H15 H 1.0055 1.1922 0.8631
H16 H 0.9794 1.2433 0.9217
C21 C 1.2016(3) 1.13824(12) 0.96722(11)
H17 H 1.2848 1.1330 0.9283
H18 H 1.2286 1.0997 0.9956
H19 H 1.2417 1.1806 0.9886
C22 C 0.8306(4) 1.15799(11) 1.01114(10)
H20 H 0.8593 1.1240 1.0441
H21 H 0.6800 1.1577 1.0009
H22 H 0.8711 1.2031 1.0267
C23 C 0.8482(4) 0.87688(11) 0.97005(10)
C24 C 0.7733(5) 0.81465(13) 0.92961(13)
H23 H 0.6227 0.8193 0.9202
H24 H 0.7972 0.7726 0.9536
H25 H 0.8530 0.8131 0.8897
C25 C 0.7050(4) 0.87840(14) 1.03092(11)
H26 H 0.5574 0.8840 1.0182
H27 H 0.7471 0.9165 1.0582
H28 H 0.7212 0.8357 1.0544
C26 C 1.0851(4) 0.86310(14) 0.98710(13)
H29 H 1.0961 0.8205 1.0110
H30 H 1.1393 0.9006 1.0130
H31 H 1.1679 0.8596 0.9479
C27 C 0.6333(3) 1.00319(11) 0.76303(9)
N1 N 0.8662(3) 0.95189(9) 0.68609(8)
O1 O 0.9209(2) 1.06793(8) 0.70698(7)
O2 O 0.4829(2) 1.04564(8) 0.64053(7)
O3 O 0.9795(3) 1.01629(8) 1.01875(7)
H32 H 0.9788 0.9802 1.0465
loop_
_geom_bond_atom_site_label_1
_geom_bond_atom_site_label_2
_geom_bond_site_symmetry_1
_geom_bond_site_symmetry_2
Br1 C4 1_555 1_555
C1 C2 1_555 1_555
C2 H1 1_555 1_555
C3 C2 1_555 1_555
H2 C3 1_555 1_555
C4 C3 1_555 1_555
C5 C4 1_555 1_555
H3 C5 1_555 1_555
C6 C1 1_555 1_555
C7 C8 1_555 1_555
C8 H4 1_555 1_555
H5 C8 1_555 1_555
C9 C7 1_555 1_555
C10 C9 1_555 1_555
H6 C10 1_555 1_555
H7 C10 1_555 1_555
H8 C10 1_555 1_555
C11 C27 1_555 1_555
C12 H9 1_555 1_555
H10 C12 1_555 1_555
H11 C12 1_555 1_555
C13 C14 1_555 1_555
C14 H12 1_555 1_555
C15 C14 1_555 1_555
C16 C15 1_555 1_555
C17 C16 1_555 1_555
C18 C13 1_555 1_555
H13 C18 1_555 1_555
C19 C17 1_555 1_555
C20 C19 1_555 1_555
H14 C20 1_555 1_555
H15 C20 1_555 1_555
H16 C20 1_555 1_555
C21 C19 1_555 1_555
H17 C21 1_555 1_555
H18 C21 1_555 1_555
H19 C21 1_555 1_555
C22 C19 1_555 1_555
H20 C22 1_555 1_555
H21 C22 1_555 1_555
H22 C22 1_555 1_555
C23 C15 1_555 1_555
C24 C23 1_555 1_555
H23 C24 1_555 1_555
H24 C24 1_555 1_555
H25 C24 1_555 1_555
C25 C23 1_555 1_555
H26 C25 1_555 1_555
H27 C25 1_555 1_555
H28 C25 1_555 1_555
C26 C23 1_555 1_555
H29 C26 1_555 1_555
H30 C26 1_555 1_555
H31 C26 1_555 1_555
C27 C6 1_555 1_555
N1 C1 1_555 1_555
O1 C11 1_555 1_555
O2 C9 1_555 1_555
O3 C16 1_555 1_555
H32 O3 1_555 1_555
C5 C6 1_555 1_555
C7 C27 1_555 1_555
C11 N1 1_555 1_555
C12 N1 1_555 1_555
C13 C27 1_555 1_555
C17 C18 1_555 1_555

#END
