
#######################################################################
#
#                 Cambridge Crystallographic Data Centre
#                                CCDC 
#
#######################################################################
#
# If this CIF has been generated from an entry in the Cambridge 
# Structural Database, then it will include bibliographic, chemical, 
# crystal, experimental, refinement or atomic coordinate data resulting 
# from the CCDC's data processing and validation procedures.
#
#######################################################################

data_NEJYOT
_chemical_formula_moiety         'C23 H19 N1 O3'
_chemical_name_systematic        
4-benzyl-3-(2-oxo-2-phenylethyl)-3,4-dihydro-2H-1,4-benzoxazin-2-one
_symmetry_cell_setting           monoclinic
_symmetry_space_group_name_H-M   'P 21/c'
_symmetry_Int_Tables_number      14
_space_group_name_Hall           '-P 2ybc'
loop_
_symmetry_equiv_pos_site_id
_symmetry_equiv_pos_as_xyz
1 x,y,z
2 -x,1/2+y,1/2-z
3 -x,-y,-z
4 x,1/2-y,1/2+z
_cell_length_a                   12.9700(13)
_cell_length_b                   13.8326(17)
_cell_length_c                   10.7436(13)
_cell_angle_alpha                90
_cell_angle_beta                 109.870(13)
_cell_angle_gamma                90
_cell_volume                     1812.75
_exptl_crystal_colour            colorless
_exptl_crystal_description       block
_cell_formula_units_Z            4
loop_
_atom_site_label
_atom_site_type_symbol
_atom_site_fract_x
_atom_site_fract_y
_atom_site_fract_z
O1 O 0.51872(14) 0.39208(14) 0.40974(19)
O2 O 0.62541(17) 0.48586(16) 0.3442(2)
O3 O 0.76972(14) 0.33266(15) 0.55222(17)
N1 N 0.60540(16) 0.22587(16) 0.32893(19)
C1 C 0.52504(18) 0.2185(2) 0.3866(2)
C2 C 0.4837(2) 0.1300(2) 0.4101(3)
H1 H 0.5091 0.0731 0.3846
C3 C 0.4051(2) 0.1254(2) 0.4710(3)
H2 H 0.3780 0.0657 0.4849
C4 C 0.3668(2) 0.2087(3) 0.5113(3)
H3 H 0.3150 0.2054 0.5533
C5 C 0.4065(2) 0.2964(2) 0.4884(3)
H4 H 0.3812 0.3533 0.5143
C6 C 0.48363(19) 0.2997(2) 0.4270(2)
C7 C 0.5954(2) 0.4053(2) 0.3533(3)
C8 C 0.63610(19) 0.3205(2) 0.2946(2)
H5 H 0.6034 0.3265 0.1983
C9 C 0.76023(19) 0.3309(2) 0.3288(2)
H6 H 0.7873 0.2766 0.2917
H7 H 0.7753 0.3895 0.2884
C10 C 0.8204(2) 0.33478(19) 0.4755(2)
C11 C 0.94200(19) 0.34217(19) 0.5257(2)
C12 C 0.9977(2) 0.3286(2) 0.6592(3)
H8 H 0.9586 0.3137 0.7150
C13 C 1.1104(2) 0.3367(3) 0.7111(3)
H9 H 1.1467 0.3258 0.8008
C14 C 1.1684(2) 0.3606(3) 0.6316(4)
H10 H 1.2442 0.3668 0.6669
C15 C 1.1154(2) 0.3754(3) 0.5007(4)
H11 H 1.1553 0.3923 0.4465
C16 C 1.0019(2) 0.3656(3) 0.4463(3)
H12 H 0.9666 0.3749 0.3560
C17 C 0.6266(2) 0.1441(2) 0.2557(2)
H13 H 0.6472 0.1689 0.1830
H14 H 0.5588 0.1083 0.2176
C18 C 0.7140(2) 0.0749(2) 0.3339(3)
C19 C 0.7375(3) -0.0031(2) 0.2686(3)
H15 H 0.6991 -0.0117 0.1789
C20 C 0.8166(3) -0.0682(3) 0.3342(4)
H16 H 0.8318 -0.1203 0.2883
C21 C 0.8740(3) -0.0578(3) 0.4667(4)
H17 H 0.9279 -0.1022 0.5108
C22 C 0.8506(2) 0.0190(3) 0.5327(3)
H18 H 0.8889 0.0267 0.6226
C23 C 0.7710(2) 0.0851(2) 0.4674(3)
H19 H 0.7556 0.1368 0.5136
loop_
_geom_bond_atom_site_label_1
_geom_bond_atom_site_label_2
_geom_bond_site_symmetry_1
_geom_bond_site_symmetry_2
O1 C6 1_555 1_555
O2 C7 1_555 1_555
O3 C10 1_555 1_555
N1 C1 1_555 1_555
C1 C2 1_555 1_555
C2 H1 1_555 1_555
C3 C2 1_555 1_555
H2 C3 1_555 1_555
C4 C3 1_555 1_555
H3 C4 1_555 1_555
C5 C4 1_555 1_555
H4 C5 1_555 1_555
C6 C1 1_555 1_555
C7 O1 1_555 1_555
C8 N1 1_555 1_555
H5 C8 1_555 1_555
C9 C8 1_555 1_555
H6 C9 1_555 1_555
H7 C9 1_555 1_555
C10 C9 1_555 1_555
C11 C10 1_555 1_555
C12 C11 1_555 1_555
H8 C12 1_555 1_555
C13 C12 1_555 1_555
H9 C13 1_555 1_555
C14 C13 1_555 1_555
H10 C14 1_555 1_555
C15 C14 1_555 1_555
H11 C15 1_555 1_555
C16 C11 1_555 1_555
H12 C16 1_555 1_555
C17 N1 1_555 1_555
H13 C17 1_555 1_555
H14 C17 1_555 1_555
C18 C17 1_555 1_555
C19 C18 1_555 1_555
H15 C19 1_555 1_555
C20 C19 1_555 1_555
H16 C20 1_555 1_555
C21 C20 1_555 1_555
H17 C21 1_555 1_555
C22 C21 1_555 1_555
H18 C22 1_555 1_555
C23 C18 1_555 1_555
H19 C23 1_555 1_555
C5 C6 1_555 1_555
C7 C8 1_555 1_555
C15 C16 1_555 1_555
C22 C23 1_555 1_555

#END
