
#######################################################################
#
#                 Cambridge Crystallographic Data Centre
#                                CCDC 
#
#######################################################################
#
# If this CIF has been generated from an entry in the Cambridge 
# Structural Database, then it will include bibliographic, chemical, 
# crystal, experimental, refinement or atomic coordinate data resulting 
# from the CCDC's data processing and validation procedures.
#
#######################################################################

data_NEJZAG
_chemical_formula_moiety         'C11 H10 O4'
_chemical_name_systematic        
6-methoxy-2H,4H-spiro[1-benzopyran-3,2'-oxiran]-4-one
_symmetry_cell_setting           monoclinic
_symmetry_space_group_name_H-M   'P 21/c'
_symmetry_Int_Tables_number      14
_space_group_name_Hall           '-P 2ybc'
loop_
_symmetry_equiv_pos_site_id
_symmetry_equiv_pos_as_xyz
1 x,y,z
2 -x,1/2+y,1/2-z
3 -x,-y,-z
4 x,1/2-y,1/2+z
_cell_length_a                   8.7652(8)
_cell_length_b                   15.6086(14)
_cell_length_c                   7.0182(6)
_cell_angle_alpha                90
_cell_angle_beta                 103.881(3)
_cell_angle_gamma                90
_cell_volume                     932.137
_exptl_crystal_colour            colorless
_exptl_crystal_description       block
_cell_formula_units_Z            4
loop_
_atom_site_label
_atom_site_type_symbol
_atom_site_fract_x
_atom_site_fract_y
_atom_site_fract_z
C1 C 0.3611(2) 0.29557(11) 0.2689(3)
C2 C 0.5235(2) 0.28867(11) 0.2440(3)
C3 C 0.5952(2) 0.20851(11) 0.2503(3)
H1 H 0.536254 0.158091 0.257793
C4 C 0.7526(2) 0.20202(11) 0.2455(3)
C5 C 0.8399(2) 0.27621(12) 0.2380(3)
H2 H 0.948430 0.272047 0.240255
C6 C 0.7684(2) 0.35612(12) 0.2272(3)
H3 H 0.827878 0.406385 0.219880
C7 C 0.6102(2) 0.36271(11) 0.2270(3)
C8 C 0.3783(2) 0.44503(12) 0.1422(3)
H4 H 0.349739 0.425500 0.003993
H5 H 0.338460 0.504136 0.147255
C9 C 0.3049(2) 0.38661(12) 0.2669(3)
C10 C 0.2541(2) 0.41928(14) 0.4381(3)
H6 H 0.259747 0.379995 0.550342
H7 H 0.274387 0.480316 0.473648
C11 C 0.9750(2) 0.11242(15) 0.2625(4)
H8 H 0.996438 0.133294 0.139782
H9 H 1.005658 0.052052 0.281196
H10 H 1.035369 0.146240 0.372668
O1 O 0.28224(16) 0.23478(9) 0.2967(2)
O2 O 0.81157(16) 0.12067(9) 0.2534(2)
O3 O 0.54649(16) 0.44378(9) 0.2149(2)
O4 O 0.14267(16) 0.39986(10) 0.2563(2)
loop_
_geom_bond_atom_site_label_1
_geom_bond_atom_site_label_2
_geom_bond_site_symmetry_1
_geom_bond_site_symmetry_2
C1 C2 1_555 1_555
C2 C3 1_555 1_555
C3 H1 1_555 1_555
C4 C3 1_555 1_555
C5 C4 1_555 1_555
H2 C5 1_555 1_555
C6 C5 1_555 1_555
H3 C6 1_555 1_555
C7 C2 1_555 1_555
C8 H4 1_555 1_555
H5 C8 1_555 1_555
C9 C1 1_555 1_555
C10 C9 1_555 1_555
H6 C10 1_555 1_555
H7 C10 1_555 1_555
C11 H8 1_555 1_555
H9 C11 1_555 1_555
H10 C11 1_555 1_555
O1 C1 1_555 1_555
O2 C4 1_555 1_555
O3 C7 1_555 1_555
O4 C9 1_555 1_555
C6 C7 1_555 1_555
C8 C9 1_555 1_555
C8 O3 1_555 1_555
C10 O4 1_555 1_555
C11 O2 1_555 1_555

#END
