
#######################################################################
#
#                 Cambridge Crystallographic Data Centre
#                                CCDC 
#
#######################################################################
#
# If this CIF has been generated from an entry in the Cambridge 
# Structural Database, then it will include bibliographic, chemical, 
# crystal, experimental, refinement or atomic coordinate data resulting 
# from the CCDC's data processing and validation procedures.
#
#######################################################################

data_NEKCAK
_chemical_formula_moiety         'C34 H36 O2'
_chemical_name_systematic        
1,1'-[2,2-bis(4-butoxyphenyl)ethene-1,1-diyl]dibenzene
_symmetry_cell_setting           orthorhombic
_symmetry_space_group_name_H-M   'I b c a'
_symmetry_Int_Tables_number      73
_space_group_name_Hall           '-I 2b 2c'
loop_
_symmetry_equiv_pos_site_id
_symmetry_equiv_pos_as_xyz
1 x,y,z
2 x,-y,1/2-z
3 1/2-x,y,-z
4 -x,1/2-y,z
5 1/2+x,1/2+y,1/2+z
6 1/2+x,1/2-y,-z
7 -x,1/2+y,1/2-z
8 1/2-x,-y,1/2+z
9 -x,-y,-z
10 -x,y,1/2+z
11 1/2+x,-y,z
12 x,1/2+y,-z
13 1/2-x,1/2-y,1/2-z
14 1/2-x,1/2+y,z
15 x,1/2-y,1/2+z
16 1/2+x,y,1/2-z
_cell_length_a                   16.6206(18)
_cell_length_b                   17.1087(18)
_cell_length_c                   18.788(2)
_cell_angle_alpha                90
_cell_angle_beta                 90
_cell_angle_gamma                90
_cell_volume                     5342.5
_exptl_crystal_colour            colorless
_exptl_crystal_description       block
_cell_formula_units_Z            8
loop_
_atom_site_label
_atom_site_type_symbol
_atom_site_fract_x
_atom_site_fract_y
_atom_site_fract_z
C1 C 0.98403(9) 0.60559(8) 0.03365(8)
H1 H 0.9453 0.5717 0.0093
H2 H 1.0264 0.5735 0.0551
H3 H 1.0080 0.6419 -0.0007
C2 C 0.94111(8) 0.65174(8) 0.09161(7)
H4 H 0.9812 0.6830 0.1183
H5 H 0.9158 0.6148 0.1254
C3 C 0.87678(8) 0.70614(8) 0.06188(7)
H6 H 0.9010 0.7395 0.0245
H7 H 0.8339 0.6744 0.0394
C4 C 0.83976(7) 0.75774(7) 0.11831(7)
H8 H 0.8149 0.7254 0.1561
H9 H 0.8815 0.7913 0.1403
C5 C 0.73184(7) 0.85039(7) 0.12691(6)
C6 C 0.66884(7) 0.88912(7) 0.09294(7)
H10 H 0.6615 0.8834 0.0431
C7 C 0.61681(7) 0.93604(7) 0.13174(7)
H11 H 0.5736 0.9616 0.1082
C8 C 0.62710(7) 0.94620(7) 0.20521(6)
C9 C 0.69103(7) 0.90747(7) 0.23739(6)
H12 H 0.6995 0.9143 0.2870
C10 C 0.74295(7) 0.85918(7) 0.19974(6)
H13 H 0.7854 0.8326 0.2234
C11 C 0.57680(10) 1.0000 0.2500
C12 C 0.49537(11) 1.0000 0.2500
C13 C 0.44615(7) 1.05619(7) 0.29283(6)
C14 C 0.45798(7) 1.13697(7) 0.29033(7)
H14 H 0.4989 1.1579 0.2606
C15 C 0.41062(8) 1.18700(8) 0.33069(7)
H15 H 0.4191 1.2419 0.3283
C16 C 0.35097(8) 1.15709(8) 0.37454(7)
H16 H 0.3192 1.1913 0.4028
C17 C 0.33783(8) 1.07728(8) 0.37705(7)
H17 H 0.2969 1.0567 0.4070
C18 C 0.38436(7) 1.02707(8) 0.33592(7)
H18 H 0.3741 0.9725 0.3371
O1 O 0.77991(5) 0.80497(5) 0.08415(4)
C1A C 0.98403(9) 1.39441(8) 0.46635(8)
H1A H 0.9453 1.4283 0.4907
H2A H 1.0264 1.4265 0.4449
H3A H 1.0080 1.3581 0.5007
C2A C 0.94111(8) 1.34826(8) 0.40839(7)
H4A H 0.9812 1.3170 0.3817
H5A H 0.9158 1.3852 0.3746
C3A C 0.87678(8) 1.29386(8) 0.43812(7)
H6A H 0.9010 1.2605 0.4755
H7A H 0.8339 1.3256 0.4606
C4A C 0.83976(7) 1.24226(7) 0.38169(7)
H8A H 0.8149 1.2746 0.3439
H9A H 0.8815 1.2087 0.3597
C5A C 0.73184(7) 1.14961(7) 0.37309(6)
C6A C 0.66884(7) 1.11088(7) 0.40706(7)
H10A H 0.6615 1.1166 0.4569
C7A C 0.61681(7) 1.06396(7) 0.36826(7)
H11A H 0.5736 1.0384 0.3918
C8A C 0.62710(7) 1.05380(7) 0.29479(6)
C9A C 0.69103(7) 1.09253(7) 0.26261(6)
H12A H 0.6995 1.0857 0.2130
C10A C 0.74295(7) 1.14082(7) 0.30026(6)
H13A H 0.7854 1.1674 0.2766
C13A C 0.44615(7) 0.94381(7) 0.20717(6)
C14A C 0.45798(7) 0.86303(7) 0.20967(7)
H14A H 0.4989 0.8421 0.2394
C15A C 0.41062(8) 0.81300(8) 0.16931(7)
H15A H 0.4191 0.7581 0.1717
C16A C 0.35097(8) 0.84291(8) 0.12546(7)
H16A H 0.3192 0.8087 0.0972
C17A C 0.33783(8) 0.92272(8) 0.12295(7)
H17A H 0.2969 0.9433 0.0930
C18A C 0.38436(7) 0.97293(8) 0.16408(7)
H18A H 0.3741 1.0275 0.1629
O1A O 0.77991(5) 1.19503(5) 0.41585(4)
loop_
_geom_bond_atom_site_label_1
_geom_bond_atom_site_label_2
_geom_bond_site_symmetry_1
_geom_bond_site_symmetry_2
C1 H1 1_555 1_555
H2 C1 1_555 1_555
H3 C1 1_555 1_555
C2 C1 1_555 1_555
H4 C2 1_555 1_555
H5 C2 1_555 1_555
C3 C2 1_555 1_555
H6 C3 1_555 1_555
H7 C3 1_555 1_555
C4 C3 1_555 1_555
H8 C4 1_555 1_555
H9 C4 1_555 1_555
C5 C6 1_555 1_555
C6 H10 1_555 1_555
C7 C6 1_555 1_555
H11 C7 1_555 1_555
C8 C7 1_555 1_555
C9 C8 1_555 1_555
H12 C9 1_555 1_555
C10 C5 1_555 1_555
H13 C10 1_555 1_555
C11 C8 1_555 1_555
C12 C11 1_555 1_555
C13 C12 1_555 1_555
C14 C13 1_555 1_555
H14 C14 1_555 1_555
C15 C14 1_555 1_555
H15 C15 1_555 1_555
C16 C15 1_555 1_555
H16 C16 1_555 1_555
C17 C16 1_555 1_555
H17 C17 1_555 1_555
C18 C13 1_555 1_555
H18 C18 1_555 1_555
O1 C4 1_555 1_555
C1A H1A 1_555 1_555
H2A C1A 1_555 1_555
H3A C1A 1_555 1_555
C2A C1A 1_555 1_555
H4A C2A 1_555 1_555
H5A C2A 1_555 1_555
C3A C2A 1_555 1_555
H6A C3A 1_555 1_555
H7A C3A 1_555 1_555
C4A C3A 1_555 1_555
H8A C4A 1_555 1_555
H9A C4A 1_555 1_555
C5A C6A 1_555 1_555
C6A H10A 1_555 1_555
C7A C6A 1_555 1_555
H11A C7A 1_555 1_555
C8A C11 1_555 1_555
C9A C8A 1_555 1_555
H12A C9A 1_555 1_555
C10A C5A 1_555 1_555
H13A C10A 1_555 1_555
C13A C12 1_555 1_555
C14A C13A 1_555 1_555
H14A C14A 1_555 1_555
C15A C14A 1_555 1_555
H15A C15A 1_555 1_555
C16A C15A 1_555 1_555
H16A C16A 1_555 1_555
C17A C16A 1_555 1_555
H17A C17A 1_555 1_555
C18A C13A 1_555 1_555
H18A C18A 1_555 1_555
O1A C4A 1_555 1_555
C5 O1 1_555 1_555
C9 C10 1_555 1_555
C17 C18 1_555 1_555
C5A O1A 1_555 1_555
C7A C8A 1_555 1_555
C9A C10A 1_555 1_555
C17A C18A 1_555 1_555

#END
