
#######################################################################
#
#                 Cambridge Crystallographic Data Centre
#                                CCDC 
#
#######################################################################
#
# If this CIF has been generated from an entry in the Cambridge 
# Structural Database, then it will include bibliographic, chemical, 
# crystal, experimental, refinement or atomic coordinate data resulting 
# from the CCDC's data processing and validation procedures.
#
#######################################################################

data_NEKVAD
_chemical_formula_moiety         'C12 H16 Cl1 N1 O4'
_chemical_name_systematic        
N-(4-chlorophenyl)-2-hydroxy-3,3-dimethoxybutanamide
_symmetry_cell_setting           monoclinic
_symmetry_space_group_name_H-M   'P 21/c'
_symmetry_Int_Tables_number      14
_space_group_name_Hall           '-P 2ybc'
loop_
_symmetry_equiv_pos_site_id
_symmetry_equiv_pos_as_xyz
1 x,y,z
2 -x,1/2+y,1/2-z
3 -x,-y,-z
4 x,1/2-y,1/2+z
_cell_length_a                   13.0910(5)
_cell_length_b                   12.8548(7)
_cell_length_c                   8.1538(5)
_cell_angle_alpha                90
_cell_angle_beta                 94.208(4)
_cell_angle_gamma                90
_cell_volume                     1368.44
_exptl_crystal_colour            colorless
_exptl_crystal_description       plate
_cell_formula_units_Z            4
loop_
_atom_site_label
_atom_site_type_symbol
_atom_site_fract_x
_atom_site_fract_y
_atom_site_fract_z
C1 C 0.49253(16) 0.30886(17) 0.2043(3)
C2 C 0.39552(16) 0.34442(16) 0.1043(2)
H1 H 0.3629 0.2832 0.0516
C3 C 0.31838(17) 0.39464(18) 0.2168(3)
C4 C 0.3655(2) 0.4808(2) 0.3229(4)
H2 H 0.4195 0.4529 0.3960
H3 H 0.3140 0.5112 0.3861
H4 H 0.3928 0.5330 0.2544
C5 C 0.2236(2) 0.2367(2) 0.2577(4)
H5 H 0.1695 0.2639 0.1839
H6 H 0.1947 0.1980 0.3436
H7 H 0.2665 0.1919 0.1982
C6 C 0.1548(3) 0.4811(3) 0.1753(5)
H8 H 0.0942 0.4756 0.1020
H9 H 0.1720 0.5532 0.1917
H10 H 0.1426 0.4499 0.2789
C7 C 0.67328(16) 0.36143(17) 0.2756(3)
C8 C 0.6999(2) 0.2845(2) 0.3898(3)
H11 H 0.6515 0.2357 0.4172
C9 C 0.7986(2) 0.2805(2) 0.4631(4)
H12 H 0.8166 0.2289 0.5398
C10 C 0.86957(19) 0.3519(2) 0.4231(3)
C11 C 0.84458(19) 0.4294(2) 0.3111(3)
H13 H 0.8933 0.4784 0.2855
C12 C 0.74680(18) 0.43379(18) 0.2374(3)
H14 H 0.7296 0.4858 0.1611
Cl1 Cl 0.99363(5) 0.34428(8) 0.51718(12)
N1 N 0.57466(14) 0.37153(14) 0.1948(2)
H15 H 0.5670(17) 0.4215(19) 0.127(3)
O1 O 0.49417(13) 0.22843(14) 0.2850(2)
O2 O 0.41773(12) 0.41557(11) -0.01983(19)
H16 H 0.435(2) 0.382(3) -0.094(4)
O3 O 0.28300(13) 0.32024(14) 0.32752(19)
O4 O 0.23775(13) 0.42860(15) 0.1053(2)
loop_
_geom_bond_atom_site_label_1
_geom_bond_atom_site_label_2
_geom_bond_site_symmetry_1
_geom_bond_site_symmetry_2
C1 C2 1_555 1_555
C2 H1 1_555 1_555
C3 C2 1_555 1_555
C4 C3 1_555 1_555
H2 C4 1_555 1_555
H3 C4 1_555 1_555
H4 C4 1_555 1_555
C5 H5 1_555 1_555
H6 C5 1_555 1_555
H7 C5 1_555 1_555
C6 H8 1_555 1_555
H9 C6 1_555 1_555
H10 C6 1_555 1_555
C7 C8 1_555 1_555
C8 H11 1_555 1_555
C9 C8 1_555 1_555
H12 C9 1_555 1_555
C10 C9 1_555 1_555
C11 C10 1_555 1_555
H13 C11 1_555 1_555
C12 C7 1_555 1_555
H14 C12 1_555 1_555
Cl1 C10 1_555 1_555
N1 C1 1_555 1_555
H15 N1 1_555 1_555
O1 C1 1_555 1_555
O2 C2 1_555 1_555
H16 O2 1_555 1_555
O3 C3 1_555 1_555
O4 C3 1_555 1_555
C5 O3 1_555 1_555
C6 O4 1_555 1_555
C7 N1 1_555 1_555
C11 C12 1_555 1_555

#END
