
#######################################################################
#
#                 Cambridge Crystallographic Data Centre
#                                CCDC 
#
#######################################################################
#
# If this CIF has been generated from an entry in the Cambridge 
# Structural Database, then it will include bibliographic, chemical, 
# crystal, experimental, refinement or atomic coordinate data resulting 
# from the CCDC's data processing and validation procedures.
#
#######################################################################

data_NEKZIP
_chemical_formula_moiety         'C32 H27 N1 O4 S1'
_chemical_name_systematic        
4-[(4-methylphenyl)sulfonyl]-1,3a-diphenyl-3,3a,4,5-tetrahydro-1H-[1]benzofuro[3,2-b]furo[3,4-c]pyridine
_symmetry_cell_setting           triclinic
_symmetry_space_group_name_H-M   'P -1'
_symmetry_Int_Tables_number      2
_space_group_name_Hall           '-P 1'
loop_
_symmetry_equiv_pos_site_id
_symmetry_equiv_pos_as_xyz
1 x,y,z
2 -x,-y,-z
_cell_length_a                   8.1378(4)
_cell_length_b                   12.5793(6)
_cell_length_c                   12.7814(6)
_cell_angle_alpha                94.224(3)
_cell_angle_beta                 98.277(3)
_cell_angle_gamma                92.505(4)
_cell_volume                     1289.3
_exptl_crystal_colour            'pale yellow'
_exptl_crystal_description       'prism fragment'
_cell_formula_units_Z            2
loop_
_atom_site_label
_atom_site_type_symbol
_atom_site_fract_x
_atom_site_fract_y
_atom_site_fract_z
S1 S 0.71493(9) -0.00142(6) 0.33362(6)
N1 N 0.8035(3) 0.23892(19) 0.14938(19)
O1 O 0.9328(2) 0.40606(14) 0.38812(15)
O2 O 1.1276(2) 0.16647(15) 0.36246(15)
O3 O 0.6980(2) 0.00304(15) 0.44402(15)
O4 O 0.8413(2) -0.06552(15) 0.29665(15)
C1 C 0.7482(3) 0.1342(2) 0.2967(2)
H1 H 0.6358 0.1642 0.2860
C2 C 0.8096(3) 0.1325(2) 0.1893(2)
H2 H 0.9253 0.1096 0.1966
H3 H 0.7392 0.0806 0.1381
C3 C 0.8595(3) 0.3146(2) 0.2196(2)
C4 C 0.8526(3) 0.4292(2) 0.2111(2)
C5 C 0.8144(3) 0.4922(2) 0.1268(3)
H4 H 0.7874 0.4608 0.0561
C6 C 0.8167(4) 0.6016(2) 0.1485(3)
H5 H 0.7920 0.6459 0.0919
C7 C 0.8547(4) 0.6478(2) 0.2518(3)
H6 H 0.8540 0.7232 0.2647
C8 C 0.8935(3) 0.5862(2) 0.3365(3)
H7 H 0.9198 0.6174 0.4073
C9 C 0.8921(3) 0.4774(2) 0.3131(2)
C10 C 0.9380(3) 0.3018(2) 0.3326(2)
C11 C 1.1251(3) 0.2760(2) 0.3445(2)
H8 H 1.1823 0.3168 0.4107
C12 C 1.0123(3) 0.1545(2) 0.4360(2)
H9 H 1.0578 0.1901 0.5065
H10 H 0.9866 0.0781 0.4438
C13 C 0.8549(3) 0.2086(2) 0.3868(2)
C14 C 0.7448(3) 0.2520(2) 0.4659(2)
C15 C 0.7694(3) 0.2328(2) 0.5722(2)
H11 H 0.8558 0.1890 0.5982
C16 C 0.6690(4) 0.2770(2) 0.6411(2)
H12 H 0.6871 0.2629 0.7137
C17 C 0.5434(4) 0.3411(2) 0.6052(3)
H13 H 0.4754 0.3715 0.6527
C18 C 0.5175(3) 0.3608(2) 0.4986(2)
H14 H 0.4313 0.4049 0.4730
C19 C 0.6165(3) 0.3164(2) 0.4302(2)
H15 H 0.5971 0.3299 0.3574
C20 C 1.2214(3) 0.3018(2) 0.2563(2)
C21 C 1.2635(3) 0.2226(2) 0.1851(2)
H16 H 1.2252 0.1507 0.1886
C22 C 1.3606(4) 0.2475(3) 0.1092(2)
H17 H 1.3897 0.1924 0.0614
C23 C 1.4158(4) 0.3520(3) 0.1023(3)
H18 H 1.4829 0.3688 0.0501
C24 C 1.3727(4) 0.4317(3) 0.1719(3)
H19 H 1.4096 0.5036 0.1672
C25 C 1.2758(3) 0.4071(2) 0.2484(2)
H20 H 1.2464 0.4624 0.2959
C26 C 0.5216(3) -0.0450(2) 0.2577(2)
C27 C 0.5155(4) -0.1038(2) 0.1613(2)
H21 H 0.6152 -0.1219 0.1354
C28 C 0.3624(3) -0.1359(2) 0.1028(2)
H22 H 0.3573 -0.1764 0.0365
C29 C 0.2148(3) -0.1091(2) 0.1405(2)
C30 C 0.2263(3) -0.0512(2) 0.2380(2)
H23 H 0.1271 -0.0336 0.2649
C31 C 0.3779(3) -0.0186(2) 0.2972(2)
H24 H 0.3834 0.0213 0.3638
C32 C 0.0486(3) -0.1435(2) 0.0769(2)
H25 H 0.0217 -0.0947 0.0212
H26 H -0.0370 -0.1419 0.1236
H27 H 0.0526 -0.2161 0.0443
loop_
_geom_bond_atom_site_label_1
_geom_bond_atom_site_label_2
_geom_bond_site_symmetry_1
_geom_bond_site_symmetry_2
S1 O3 1_555 1_555
N1 C2 1_555 1_555
O1 C9 1_555 1_555
O2 C11 1_555 1_555
O4 S1 1_555 1_555
C1 S1 1_555 1_555
H1 C1 1_555 1_555
C2 C1 1_555 1_555
H2 C2 1_555 1_555
H3 C2 1_555 1_555
C3 N1 1_555 1_555
C4 C3 1_555 1_555
C5 C4 1_555 1_555
H4 C5 1_555 1_555
C6 C5 1_555 1_555
H5 C6 1_555 1_555
C7 C6 1_555 1_555
H6 C7 1_555 1_555
C8 C7 1_555 1_555
H7 C8 1_555 1_555
C9 C4 1_555 1_555
C10 O1 1_555 1_555
C11 C10 1_555 1_555
H8 C11 1_555 1_555
C12 O2 1_555 1_555
H9 C12 1_555 1_555
H10 C12 1_555 1_555
C13 C1 1_555 1_555
C14 C13 1_555 1_555
C15 C14 1_555 1_555
H11 C15 1_555 1_555
C16 C15 1_555 1_555
H12 C16 1_555 1_555
C17 C16 1_555 1_555
H13 C17 1_555 1_555
C18 C17 1_555 1_555
H14 C18 1_555 1_555
C19 C14 1_555 1_555
H15 C19 1_555 1_555
C20 C11 1_555 1_555
C21 C20 1_555 1_555
H16 C21 1_555 1_555
C22 C21 1_555 1_555
H17 C22 1_555 1_555
C23 C22 1_555 1_555
H18 C23 1_555 1_555
C24 C23 1_555 1_555
H19 C24 1_555 1_555
C25 C20 1_555 1_555
H20 C25 1_555 1_555
C26 S1 1_555 1_555
C27 C26 1_555 1_555
H21 C27 1_555 1_555
C28 C27 1_555 1_555
H22 C28 1_555 1_555
C29 C28 1_555 1_555
C30 C29 1_555 1_555
H23 C30 1_555 1_555
C31 C26 1_555 1_555
H24 C31 1_555 1_555
C32 C29 1_555 1_555
H25 C32 1_555 1_555
H26 C32 1_555 1_555
H27 C32 1_555 1_555
C3 C10 1_555 1_555
C8 C9 1_555 1_555
C10 C13 1_555 1_555
C12 C13 1_555 1_555
C18 C19 1_555 1_555
C24 C25 1_555 1_555
C30 C31 1_555 1_555

#END
