
#######################################################################
#
#                 Cambridge Crystallographic Data Centre
#                                CCDC 
#
#######################################################################
#
# If this CIF has been generated from an entry in the Cambridge 
# Structural Database, then it will include bibliographic, chemical, 
# crystal, experimental, refinement or atomic coordinate data resulting 
# from the CCDC's data processing and validation procedures.
#
#######################################################################

data_NELCUD
_chemical_formula_moiety         'C13 H17 N3 O2'
_chemical_name_systematic        
"Methyl 3-(5'-amino-3',4'-diethyl-1'H-pyrrol-2'-yl)-2-cyanoacrylate"
_symmetry_cell_setting           monoclinic
_symmetry_space_group_name_H-M   'P 21/c'
_symmetry_Int_Tables_number      14
_space_group_name_Hall           '-P 2ybc'
loop_
_symmetry_equiv_pos_site_id
_symmetry_equiv_pos_as_xyz
1 x,y,z
2 -x,1/2+y,1/2-z
3 -x,-y,-z
4 x,1/2-y,1/2+z
_cell_length_a                   10.5504(10)
_cell_length_b                   9.0899(8)
_cell_length_c                   13.5949(14)
_cell_angle_alpha                90
_cell_angle_beta                 96.867(4)
_cell_angle_gamma                90
_cell_volume                     1294.43
_exptl_crystal_colour            yellow
_exptl_crystal_description       plates
_cell_formula_units_Z            4
_exptl_crystal_recrystallization_method dichloromethane
loop_
_atom_site_label
_atom_site_type_symbol
_atom_site_fract_x
_atom_site_fract_y
_atom_site_fract_z
O1 O 0.6519(3) 0.0694(4) 0.3329(3)
O2 O 0.8304(3) 0.0608(4) 0.4409(2)
N1 N 0.4953(4) 0.3646(5) 0.6292(3)
N2 N 0.4074(4) 0.5118(5) 0.7465(3)
H1 H 0.4768 0.5025 0.7889
H2 H 0.3428 0.5644 0.7624
N3 N 0.7893(4) 0.2185(5) 0.6617(3)
C1 C 0.4001(5) 0.4465(6) 0.6582(4)
C2 C 0.2972(4) 0.4545(6) 0.5808(4)
C3 C 0.3349(5) 0.3776(6) 0.5021(4)
C4 C 0.4593(5) 0.3172(6) 0.5299(4)
C5 C 0.5305(5) 0.2346(6) 0.4731(4)
H3 H 0.484(5) 0.212(6) 0.400(4)
C6 C 0.6538(4) 0.1761(6) 0.4926(3)
C7 C 0.7071(5) 0.0978(6) 0.4150(4)
C8 C 0.8908(5) -0.0146(6) 0.3647(4)
H4 H 0.8426 -0.1040 0.3446
H5 H 0.9784 -0.0409 0.3908
H6 H 0.8920 0.0503 0.3073
C9 C 0.7318(5) 0.1986(6) 0.5847(4)
C10 C 0.1745(4) 0.5355(6) 0.5894(4)
H7 H 0.1317 0.5556 0.5245
H8 H 0.1949 0.6279 0.6217
C11 C 0.0852(5) 0.4516(7) 0.6494(4)
H9 H 0.0583 0.3600 0.6151
H10 H 0.0100 0.5121 0.6567
H11 H 0.1298 0.4287 0.7150
C12 C 0.2591(5) 0.3605(6) 0.4000(4)
H12 H 0.3150 0.3364 0.3516
H13 H 0.2172 0.4518 0.3812
C13 C 0.1598(6) 0.2441(7) 0.4015(4)
H14 H 0.2012 0.1484 0.4143
H15 H 0.1067 0.2416 0.3372
H16 H 0.1063 0.2659 0.4538
H17 H 0.563(5) 0.357(7) 0.663(4)
loop_
_geom_bond_atom_site_label_1
_geom_bond_atom_site_label_2
_geom_bond_site_symmetry_1
_geom_bond_site_symmetry_2
O1 C7 1_555 1_555
O2 C7 1_555 1_555
N1 C1 1_555 1_555
N2 H1 1_555 1_555
H2 N2 1_555 1_555
N3 C9 1_555 1_555
C1 N2 1_555 1_555
C2 C1 1_555 1_555
C3 C2 1_555 1_555
C4 N1 1_555 1_555
C5 C4 1_555 1_555
H3 C5 1_555 1_555
C6 C5 1_555 1_555
C7 C6 1_555 1_555
C8 O2 1_555 1_555
H4 C8 1_555 1_555
H5 C8 1_555 1_555
H6 C8 1_555 1_555
C9 C6 1_555 1_555
C10 C2 1_555 1_555
H7 C10 1_555 1_555
H8 C10 1_555 1_555
C11 C10 1_555 1_555
H9 C11 1_555 1_555
H10 C11 1_555 1_555
H11 C11 1_555 1_555
C12 C3 1_555 1_555
H12 C12 1_555 1_555
H13 C12 1_555 1_555
C13 C12 1_555 1_555
H14 C13 1_555 1_555
H15 C13 1_555 1_555
H16 C13 1_555 1_555
H17 N1 1_555 1_555
C3 C4 1_555 1_555

#END
