
#######################################################################
#
#                 Cambridge Crystallographic Data Centre
#                                CCDC 
#
#######################################################################
#
# If this CIF has been generated from an entry in the Cambridge 
# Structural Database, then it will include bibliographic, chemical, 
# crystal, experimental, refinement or atomic coordinate data resulting 
# from the CCDC's data processing and validation procedures.
#
#######################################################################

data_NELCOX
_chemical_formula_moiety         'C49 H43 N11 O6'
_chemical_name_systematic        
N^2^,N^6^-bis(3'-(3'',4''-Diethyl-5''-[2'''-methoxycarbonyl-2'''-cyanovinyl]-1''H-pyrrol-2''-ylimino)isoindol-1'-yl)pyridine-2,6-dicarboxamide
_symmetry_cell_setting           triclinic
_symmetry_space_group_name_H-M   'P -1'
_symmetry_Int_Tables_number      2
_space_group_name_Hall           '-P 1'
loop_
_symmetry_equiv_pos_site_id
_symmetry_equiv_pos_as_xyz
1 x,y,z
2 -x,-y,-z
_cell_length_a                   12.7239(4)
_cell_length_b                   13.6559(5)
_cell_length_c                   15.0447(7)
_cell_angle_alpha                65.588(2)
_cell_angle_beta                 69.964(2)
_cell_angle_gamma                67.954(2)
_cell_volume                     2151.23
_exptl_crystal_colour            'dark blue'
_exptl_crystal_description       needles
_cell_formula_units_Z            2
loop_
_atom_site_label
_atom_site_type_symbol
_atom_site_fract_x
_atom_site_fract_y
_atom_site_fract_z
C1 C -0.1042(3) 0.5851(3) 0.3158(3)
H1 H -0.1170 0.6342 0.3515
H2 H -0.0963 0.6263 0.2455
H3 H -0.1689 0.5541 0.3394
O1 O 0.00034(19) 0.49375(19) 0.33313(18)
C2 C 0.0296(3) 0.4188(3) 0.2860(3)
O2 O -0.0274(2) 0.4206(2) 0.23539(18)
C3 C 0.1406(3) 0.3343(3) 0.3041(2)
C4 C 0.1957(3) 0.3391(3) 0.3702(3)
N1 N 0.2410(3) 0.3406(2) 0.4245(2)
C5 C 0.1896(3) 0.2575(3) 0.2552(2)
H4 H 0.1451 0.2637 0.2120
C6 C 0.2944(3) 0.1719(3) 0.2567(2)
C7 C 0.3410(3) 0.0922(3) 0.2057(2)
C8 C 0.4489(3) 0.0267(3) 0.2282(2)
C9 C 0.4677(3) 0.0658(3) 0.2929(2)
N2 N 0.3740(2) 0.1528(2) 0.30931(19)
N3 N 0.5636(2) 0.0221(2) 0.33357(19)
C10 C 0.5756(3) 0.0679(2) 0.3890(2)
C11 C 0.6753(3) 0.0294(2) 0.4343(2)
C12 C 0.7749(3) -0.0584(3) 0.4320(2)
H5 H 0.7863 -0.1083 0.3975
C13 C 0.8576(3) -0.0711(3) 0.4802(2)
H6 H 0.9286 -0.1302 0.4787
C14 C 0.8380(3) 0.0014(3) 0.5304(2)
H7 H 0.8959 -0.0095 0.5636
C15 C 0.7366(3) 0.0888(3) 0.5359(2)
H8 H 0.7229 0.1390 0.5707
C16 C 0.6548(3) 0.1021(2) 0.4865(2)
C17 C 0.5403(3) 0.1830(2) 0.4689(2)
N4 N 0.4974(2) 0.1623(2) 0.41278(18)
N5 N 0.4769(2) 0.2763(2) 0.4965(2)
C18 C 0.4887(3) 0.3151(2) 0.5620(2)
O3 O 0.55970(19) 0.26626(17) 0.61452(16)
C19 C 0.4046(3) 0.4260(2) 0.5652(2)
C20 C 0.3948(3) 0.4660(3) 0.6399(2)
H9 H 0.4403 0.4231 0.6898
C21 C 0.3170(3) 0.5687(3) 0.6412(2)
H10 H 0.3081 0.5987 0.6918
C22 C 0.2526(3) 0.6281(3) 0.5685(2)
H11 H 0.1976 0.6993 0.5676
C23 C 0.2700(3) 0.5831(2) 0.4956(2)
N6 N 0.3441(2) 0.4836(2) 0.49267(18)
C24 C 0.2043(3) 0.6506(3) 0.4129(2)
O4 O 0.1339(2) 0.7394(2) 0.41373(18)
N7 N 0.2329(2) 0.6029(2) 0.34078(19)
C25 C 0.1902(3) 0.6375(2) 0.2570(2)
C26 C 0.0978(3) 0.7382(2) 0.2178(2)
C27 C 0.0240(3) 0.8303(3) 0.2457(2)
H12 H 0.0264 0.8387 0.3052
C28 C -0.0526(3) 0.9090(3) 0.1852(3)
H13 H -0.1050 0.9731 0.2035
C29 C -0.0556(3) 0.8959(3) 0.0996(2)
H14 H -0.1088 0.9516 0.0590
C30 C 0.0169(3) 0.8043(3) 0.0711(2)
H15 H 0.0158 0.7954 0.0114
C31 C 0.0923(3) 0.7260(2) 0.1314(2)
C32 C 0.1781(3) 0.6209(2) 0.1225(2)
N8 N 0.2366(2) 0.5723(2) 0.20118(18)
N9 N 0.1942(2) 0.5797(2) 0.05379(19)
C33 C 0.2813(3) 0.4845(2) 0.0466(2)
C34 C 0.2984(3) 0.4249(2) -0.0163(2)
C35 C 0.4014(3) 0.3390(2) -0.0056(2)
C36 C 0.4465(3) 0.3475(2) 0.0643(2)
N10 N 0.3707(2) 0.4366(2) 0.09472(19)
C37 C 0.5527(3) 0.2849(2) 0.0947(2)
H16 H 0.5981 0.2248 0.0683
C38 C 0.5995(3) 0.2968(2) 0.1573(2)
C39 C 0.5403(3) 0.3735(3) 0.2119(2)
N11 N 0.4892(2) 0.4351(2) 0.2567(2)
C40 C 0.7183(3) 0.2290(3) 0.1685(2)
O5 O 0.77691(18) 0.15711(18) 0.13112(17)
O6 O 0.75559(18) 0.25898(17) 0.22539(16)
C41 C 0.8745(3) 0.2035(3) 0.2355(3)
H17 H 0.8917 0.2304 0.2772
H18 H 0.8853 0.1242 0.2652
H19 H 0.9256 0.2197 0.1705
C42 C 0.2813(3) 0.0806(3) 0.1418(3)
H20 H 0.3394 0.0455 0.0954
H21 H 0.2415 0.1535 0.1042
C43 C 0.1957(3) 0.0109(3) 0.2004(3)
H22 H 0.1599 0.0049 0.1569
H23 H 0.2357 -0.0625 0.2373
H24 H 0.1370 0.0466 0.2462
C44 C 0.5334(3) -0.0667(3) 0.1919(3)
H25 H 0.4938 -0.0901 0.1635
H26 H 0.5579 -0.1286 0.2483
C45 C 0.6384(3) -0.0373(3) 0.1150(3)
H27 H 0.6884 -0.1009 0.0949
H28 H 0.6146 0.0235 0.0577
H29 H 0.6794 -0.0153 0.1434
C46 C 0.2158(3) 0.4514(3) -0.0797(2)
H30 H 0.2592 0.4359 -0.1409
H31 H 0.1759 0.5297 -0.0965
C47 C 0.1260(3) 0.3842(3) -0.0284(3)
H32 H 0.0750 0.4037 -0.0711
H33 H 0.1656 0.3059 -0.0125
H34 H 0.0815 0.4005 0.0323
C48 C 0.4569(3) 0.2551(3) -0.0597(2)
H35 H 0.4023 0.2619 -0.0944
H36 H 0.4704 0.1814 -0.0115
C49 C 0.5710(3) 0.2697(3) -0.1353(2)
H37 H 0.6005 0.2140 -0.1676
H38 H 0.5577 0.3427 -0.1847
H39 H 0.6265 0.2613 -0.1009
H40 H 0.417(3) 0.321(3) 0.466(2)
H41 H 0.286(3) 0.540(3) 0.349(2)
H42 H 0.373(3) 0.196(3) 0.348(3)
H43 H 0.370(3) 0.460(3) 0.145(3)
loop_
_geom_bond_atom_site_label_1
_geom_bond_atom_site_label_2
_geom_bond_site_symmetry_1
_geom_bond_site_symmetry_2
C1 H1 1_555 1_555
H2 C1 1_555 1_555
H3 C1 1_555 1_555
O1 C1 1_555 1_555
C2 O1 1_555 1_555
O2 C2 1_555 1_555
C3 C2 1_555 1_555
C4 C3 1_555 1_555
N1 C4 1_555 1_555
C5 C3 1_555 1_555
H4 C5 1_555 1_555
C6 C5 1_555 1_555
C7 C6 1_555 1_555
C8 C7 1_555 1_555
C9 C8 1_555 1_555
N2 C6 1_555 1_555
N3 C9 1_555 1_555
C10 N3 1_555 1_555
C11 C10 1_555 1_555
C12 C11 1_555 1_555
H5 C12 1_555 1_555
C13 C12 1_555 1_555
H6 C13 1_555 1_555
C14 C13 1_555 1_555
H7 C14 1_555 1_555
C15 C14 1_555 1_555
H8 C15 1_555 1_555
C16 C11 1_555 1_555
C17 C16 1_555 1_555
N4 C10 1_555 1_555
N5 C17 1_555 1_555
C18 N5 1_555 1_555
O3 C18 1_555 1_555
C19 C18 1_555 1_555
C20 C19 1_555 1_555
H9 C20 1_555 1_555
C21 C20 1_555 1_555
H10 C21 1_555 1_555
C22 C21 1_555 1_555
H11 C22 1_555 1_555
C23 C22 1_555 1_555
N6 C19 1_555 1_555
C24 C23 1_555 1_555
O4 C24 1_555 1_555
N7 C24 1_555 1_555
C25 N7 1_555 1_555
C26 C25 1_555 1_555
C27 C26 1_555 1_555
H12 C27 1_555 1_555
C28 C27 1_555 1_555
H13 C28 1_555 1_555
C29 C28 1_555 1_555
H14 C29 1_555 1_555
C30 C29 1_555 1_555
H15 C30 1_555 1_555
C31 C26 1_555 1_555
C32 C31 1_555 1_555
N8 C25 1_555 1_555
N9 C32 1_555 1_555
C33 N9 1_555 1_555
C34 C33 1_555 1_555
C35 C34 1_555 1_555
C36 C35 1_555 1_555
N10 C33 1_555 1_555
C37 C36 1_555 1_555
H16 C37 1_555 1_555
C38 C37 1_555 1_555
C39 C38 1_555 1_555
N11 C39 1_555 1_555
C40 C38 1_555 1_555
O5 C40 1_555 1_555
O6 C40 1_555 1_555
C41 O6 1_555 1_555
H17 C41 1_555 1_555
H18 C41 1_555 1_555
H19 C41 1_555 1_555
C42 C7 1_555 1_555
H20 C42 1_555 1_555
H21 C42 1_555 1_555
C43 C42 1_555 1_555
H22 C43 1_555 1_555
H23 C43 1_555 1_555
H24 C43 1_555 1_555
C44 C8 1_555 1_555
H25 C44 1_555 1_555
H26 C44 1_555 1_555
C45 C44 1_555 1_555
H27 C45 1_555 1_555
H28 C45 1_555 1_555
H29 C45 1_555 1_555
C46 C34 1_555 1_555
H30 C46 1_555 1_555
H31 C46 1_555 1_555
C47 C46 1_555 1_555
H32 C47 1_555 1_555
H33 C47 1_555 1_555
H34 C47 1_555 1_555
C48 C35 1_555 1_555
H35 C48 1_555 1_555
H36 C48 1_555 1_555
C49 C48 1_555 1_555
H37 C49 1_555 1_555
H38 C49 1_555 1_555
H39 C49 1_555 1_555
H40 N5 1_555 1_555
H41 N7 1_555 1_555
H42 N2 1_555 1_555
H43 N10 1_555 1_555
C9 N2 1_555 1_555
C15 C16 1_555 1_555
C17 N4 1_555 1_555
C23 N6 1_555 1_555
C30 C31 1_555 1_555
C32 N8 1_555 1_555
C36 N10 1_555 1_555

#END
