
#######################################################################
#
#                 Cambridge Crystallographic Data Centre
#                                CCDC 
#
#######################################################################
#
# If this CIF has been generated from an entry in the Cambridge 
# Structural Database, then it will include bibliographic, chemical, 
# crystal, experimental, refinement or atomic coordinate data resulting 
# from the CCDC's data processing and validation procedures.
#
#######################################################################

data_NELDOA
_chemical_formula_moiety         'C33 H30 N2 O5 S1'
_chemical_name_systematic        
'3-{[(4-methoxyphenyl)diazenyl](4-methylphenyl)methylidene}-2-{[(4-methoxyphenyl)sulfonyl]methyl}-2-methyl-2,3-dihydro-1H-inden-1-one unknown solvate'
_symmetry_cell_setting           triclinic
_symmetry_space_group_name_H-M   'P -1'
_symmetry_Int_Tables_number      2
_space_group_name_Hall           '-P 1'
loop_
_symmetry_equiv_pos_site_id
_symmetry_equiv_pos_as_xyz
1 x,y,z
2 -x,-y,-z
_cell_length_a                   11.4008(12)
_cell_length_b                   12.9855(13)
_cell_length_c                   13.2123(15)
_cell_angle_alpha                64.9820(10)
_cell_angle_beta                 66.8950(10)
_cell_angle_gamma                83.284(2)
_cell_volume                     1627.5
_exptl_crystal_colour            orange
_exptl_crystal_description       block
_cell_formula_units_Z            2
loop_
_atom_site_label
_atom_site_type_symbol
_atom_site_fract_x
_atom_site_fract_y
_atom_site_fract_z
N1 N 0.3609(4) 0.8411(3) 0.1191(4)
N2 N 0.4678(4) 0.7973(4) 0.1066(4)
O1 O -0.0900(3) 1.0171(3) 0.1877(4)
O2 O 0.6428(4) 0.6071(4) -0.2266(5)
O3 O 0.1081(3) 0.6544(3) 0.3505(4)
O4 O -0.0457(3) 0.7927(3) 0.3951(3)
O5 O -0.3896(4) 0.4745(3) 0.3448(4)
S1 S 0.01365(14) 0.73143(14) 0.32321(14)
C1 C 0.0072(5) 1.0066(4) 0.2069(5)
C2 C 0.1225(4) 0.9466(4) 0.1541(4)
C3 C 0.2132(4) 0.9460(4) 0.2130(4)
C4 C 0.1593(4) 1.0167(4) 0.2805(4)
C5 C 0.0391(5) 1.0519(4) 0.2779(4)
C6 C -0.0321(5) 1.1187(5) 0.3355(5)
H1 H -0.1131 1.1382 0.3353
C7 C 0.0182(5) 1.1551(5) 0.3922(5)
H2 H -0.0279 1.2014 0.4304
C8 C 0.1380(5) 1.1241(5) 0.3941(5)
H3 H 0.1710 1.1502 0.4338
C9 C 0.2088(5) 1.0566(4) 0.3396(4)
H4 H 0.2892 1.0371 0.3417
C10 C 0.3231(4) 0.8925(4) 0.2013(4)
C11 C 0.4010(5) 0.8868(5) 0.2706(5)
C12 C 0.3614(5) 0.8113(5) 0.3901(6)
H5 H 0.2899 0.7621 0.4244
C13 C 0.4284(6) 0.8083(5) 0.4604(5)
H6 H 0.3996 0.7578 0.5414
C14 C 0.5350(5) 0.8779(5) 0.4124(6)
C15 C 0.5733(5) 0.9519(5) 0.2911(6)
H7 H 0.6457 1.0004 0.2552
C16 C 0.5067(5) 0.9553(5) 0.2225(5)
H8 H 0.5353 1.0057 0.1415
C17 C 0.6064(5) 0.8737(6) 0.4892(6)
H9 H 0.5512 0.8397 0.5730
H10 H 0.6339 0.9496 0.4687
H11 H 0.6796 0.8292 0.4748
C18 C 0.5055(5) 0.7480(4) 0.0231(4)
C19 C 0.6210(5) 0.7044(5) 0.0013(5)
H12 H 0.6694 0.7069 0.0429
C20 C 0.6699(5) 0.6564(5) -0.0800(6)
H13 H 0.7510 0.6284 -0.0940
C21 C 0.6009(6) 0.6493(6) -0.1403(6)
C22 C 0.4849(6) 0.6930(6) -0.1195(6)
H14 H 0.4366 0.6904 -0.1611
C23 C 0.4369(5) 0.7411(6) -0.0379(6)
H15 H 0.3560 0.7694 -0.0241
C24 C 0.7594(6) 0.5560(6) -0.2480(6)
H16 H 0.8260 0.6088 -0.2687
H17 H 0.7774 0.5344 -0.3134
H18 H 0.7551 0.4896 -0.1766
C25 C 0.1817(4) 1.0231(5) 0.0157(5)
H19 H 0.2072 1.0969 0.0030
H20 H 0.1194 1.0309 -0.0188
H21 H 0.2548 0.9886 -0.0221
C26 C 0.0765(4) 0.8320(4) 0.1724(4)
H22 H 0.1475 0.8000 0.1269
H23 H 0.0114 0.8449 0.1389
C27 C -0.1067(5) 0.6569(5) 0.3264(5)
C28 C -0.2092(5) 0.7121(5) 0.3040(5)
H24 H -0.2132 0.7897 0.2851
C29 C -0.3057(5) 0.6554(5) 0.3088(5)
H25 H -0.3753 0.6934 0.2934
C30 C -0.2979(6) 0.5389(6) 0.3374(5)
C31 C -0.1947(6) 0.4848(5) 0.3601(6)
H26 H -0.1893 0.4072 0.3792
C32 C -0.0999(5) 0.5439(5) 0.3550(5)
H27 H -0.0303 0.5066 0.3711
C33 C -0.5080(6) 0.5208(6) 0.3382(6)
H28 H -0.5499 0.5462 0.4017
H29 H -0.5617 0.4633 0.3472
H30 H -0.4918 0.5840 0.2614
loop_
_geom_bond_atom_site_label_1
_geom_bond_atom_site_label_2
_geom_bond_site_symmetry_1
_geom_bond_site_symmetry_2
N1 N2 1_555 1_555
N2 C18 1_555 1_555
O1 C1 1_555 1_555
O2 C21 1_555 1_555
O3 S1 1_555 1_555
O4 S1 1_555 1_555
O5 C30 1_555 1_555
S1 C26 1_555 1_555
C1 C2 1_555 1_555
C2 C3 1_555 1_555
C3 C4 1_555 1_555
C4 C5 1_555 1_555
C5 C1 1_555 1_555
C6 C5 1_555 1_555
H1 C6 1_555 1_555
C7 C6 1_555 1_555
H2 C7 1_555 1_555
C8 C7 1_555 1_555
H3 C8 1_555 1_555
C9 C4 1_555 1_555
H4 C9 1_555 1_555
C10 N1 1_555 1_555
C11 C10 1_555 1_555
C12 C11 1_555 1_555
H5 C12 1_555 1_555
C13 C12 1_555 1_555
H6 C13 1_555 1_555
C14 C13 1_555 1_555
C15 C14 1_555 1_555
H7 C15 1_555 1_555
C16 C11 1_555 1_555
H8 C16 1_555 1_555
C17 C14 1_555 1_555
H9 C17 1_555 1_555
H10 C17 1_555 1_555
H11 C17 1_555 1_555
C18 C19 1_555 1_555
C19 H12 1_555 1_555
C20 C19 1_555 1_555
H13 C20 1_555 1_555
C21 C20 1_555 1_555
C22 C21 1_555 1_555
H14 C22 1_555 1_555
C23 C18 1_555 1_555
H15 C23 1_555 1_555
C24 O2 1_555 1_555
H16 C24 1_555 1_555
H17 C24 1_555 1_555
H18 C24 1_555 1_555
C25 C2 1_555 1_555
H19 C25 1_555 1_555
H20 C25 1_555 1_555
H21 C25 1_555 1_555
C26 C2 1_555 1_555
H22 C26 1_555 1_555
H23 C26 1_555 1_555
C27 S1 1_555 1_555
C28 C27 1_555 1_555
H24 C28 1_555 1_555
C29 C28 1_555 1_555
H25 C29 1_555 1_555
C30 C29 1_555 1_555
C31 C30 1_555 1_555
H26 C31 1_555 1_555
C32 C27 1_555 1_555
H27 C32 1_555 1_555
C33 O5 1_555 1_555
H28 C33 1_555 1_555
H29 C33 1_555 1_555
H30 C33 1_555 1_555
C3 C10 1_555 1_555
C8 C9 1_555 1_555
C15 C16 1_555 1_555
C22 C23 1_555 1_555
C31 C32 1_555 1_555

#END
