
#######################################################################
#
#                 Cambridge Crystallographic Data Centre
#                                CCDC 
#
#######################################################################
#
# If this CIF has been generated from an entry in the Cambridge 
# Structural Database, then it will include bibliographic, chemical, 
# crystal, experimental, refinement or atomic coordinate data resulting 
# from the CCDC's data processing and validation procedures.
#
#######################################################################

data_NELDUG
_chemical_formula_moiety         'C31 H25 Cl1 O3 S1 Se1'
_chemical_name_systematic        
3-[(4-chlorophenyl)(phenylselanyl)methylidene]-2-methyl-2-{[(4-methylphenyl)sulfonyl]methyl}-2,3-dihydro-1H-inden-1-one
_symmetry_cell_setting           triclinic
_symmetry_space_group_name_H-M   'P -1'
_symmetry_Int_Tables_number      2
_space_group_name_Hall           '-P 1'
loop_
_symmetry_equiv_pos_site_id
_symmetry_equiv_pos_as_xyz
1 x,y,z
2 -x,-y,-z
_cell_length_a                   9.9091(9)
_cell_length_b                   12.3360(11)
_cell_length_c                   13.1036(12)
_cell_angle_alpha                108.864(2)
_cell_angle_beta                 96.2640(10)
_cell_angle_gamma                113.226(3)
_cell_volume                     1340.34
_exptl_crystal_colour            yellow
_exptl_crystal_description       block
_cell_formula_units_Z            2
loop_
_atom_site_label
_atom_site_type_symbol
_atom_site_fract_x
_atom_site_fract_y
_atom_site_fract_z
Se1 Se 0.71009(5) 0.71242(4) 0.23444(4)
Cl1 Cl 1.5011(13) 1.1482(14) 0.4836(11)
S1 S 0.61700(12) 0.34899(10) 0.26344(9)
O1 O 0.7296(3) 0.2359(3) -0.0010(3)
O2 O 0.7081(4) 0.2819(3) 0.2521(3)
O3 O 0.4625(4) 0.2863(3) 0.2702(3)
C1 C 0.8039(4) 0.3441(4) 0.0709(3)
C2 C 0.7406(4) 0.4442(4) 0.1035(3)
C3 C 0.8806(4) 0.5698(4) 0.1874(3)
C4 C 1.0077(4) 0.5356(4) 0.2045(3)
C5 C 0.9614(4) 0.4059(4) 0.1394(3)
C6 C 1.0520(5) 0.3456(4) 0.1455(4)
H1 H 1.0171 0.2589 0.1007
C7 C 1.1956(5) 0.4176(5) 0.2197(4)
H2 H 1.2597 0.3801 0.2248
C8 C 1.2443(5) 0.5470(5) 0.2874(4)
H3 H 1.3404 0.5943 0.3385
C9 C 1.1535(5) 0.6063(4) 0.2801(4)
H4 H 1.1888 0.6929 0.3252
C10 C 0.5979(4) 0.3881(4) 0.1448(3)
H5 H 0.5217 0.3105 0.0827
H6 H 0.5570 0.4495 0.1615
C11 C 0.7168(5) 0.4945(4) 0.3833(3)
C12 C 0.8716(5) 0.5418(5) 0.4314(4)
H7 H 0.9244 0.4981 0.3994
C13 C 0.9463(6) 0.6545(5) 0.5275(4)
H8 H 1.0499 0.6859 0.5592
C14 C 0.8716(6) 0.7213(5) 0.5774(4)
C15 C 0.7157(6) 0.6719(5) 0.5271(4)
H9 H 0.6631 0.7161 0.5585
C16 C 0.6394(5) 0.5601(4) 0.4329(4)
H10 H 0.5355 0.5280 0.4020
C17 C 0.9514(8) 0.8448(6) 0.6813(5)
H11 H 0.9212 0.9068 0.6720
H12 H 1.0598 0.8779 0.6932
H13 H 0.9241 0.8283 0.7447
C18 C 0.6885(5) 0.4581(4) -0.0046(3)
H14 H 0.6529 0.5222 0.0125
H15 H 0.6074 0.3772 -0.0575
H16 H 0.7728 0.4838 -0.0363
C19 C 0.8915(4) 0.6881(4) 0.2298(3)
C20 C 1.0384(4) 0.8080(4) 0.2856(3)
C21 C 1.1456(5) 0.8405(4) 0.2271(4)
H17 H 1.1209 0.7913 0.1508
C22 C 1.2887(5) 0.9446(5) 0.2797(4)
H18 H 1.3587 0.9647 0.2387
C23 C 1.3277(5) 1.0179(4) 0.3917(5)
C24 C 1.2224(6) 0.9915(4) 0.4510(4)
H19 H 1.2482 1.0434 0.5267
C25 C 1.0752(5) 0.8866(4) 0.3988(4)
H20 H 1.0036 0.8701 0.4393
C26 C 0.7289(4) 0.8206(4) 0.1542(4)
C27 C 0.8038(5) 0.8203(4) 0.0710(4)
H21 H 0.8546 0.7701 0.0549
C28 C 0.8030(6) 0.8948(5) 0.0119(4)
H22 H 0.8534 0.8941 -0.0440
C29 C 0.7306(7) 0.9686(5) 0.0338(6)
H23 H 0.7314 1.0181 -0.0069
C30 C 0.6560(6) 0.9708(5) 0.1157(6)
H24 H 0.6060 1.0217 0.1304
C31 C 0.6545(5) 0.8975(5) 0.1771(5)
H25 H 0.6043 0.8996 0.2331
Br1? Br 1.5357(5) 1.1478(6) 0.4537(5)
loop_
_geom_bond_atom_site_label_1
_geom_bond_atom_site_label_2
_geom_bond_site_symmetry_1
_geom_bond_site_symmetry_2
Se1 C19 1_555 1_555
Cl1 C23 1_555 1_555
S1 O2 1_555 1_555
O1 C1 1_555 1_555
O3 S1 1_555 1_555
C1 C2 1_555 1_555
C2 C3 1_555 1_555
C3 C4 1_555 1_555
C4 C5 1_555 1_555
C5 C1 1_555 1_555
C6 C5 1_555 1_555
H1 C6 1_555 1_555
C7 C6 1_555 1_555
H2 C7 1_555 1_555
C8 C7 1_555 1_555
H3 C8 1_555 1_555
C9 C4 1_555 1_555
H4 C9 1_555 1_555
C10 S1 1_555 1_555
H5 C10 1_555 1_555
H6 C10 1_555 1_555
C11 S1 1_555 1_555
C12 C11 1_555 1_555
H7 C12 1_555 1_555
C13 C12 1_555 1_555
H8 C13 1_555 1_555
C14 C13 1_555 1_555
C15 C14 1_555 1_555
H9 C15 1_555 1_555
C16 C11 1_555 1_555
H10 C16 1_555 1_555
C17 C14 1_555 1_555
H11 C17 1_555 1_555
H12 C17 1_555 1_555
H13 C17 1_555 1_555
C18 C2 1_555 1_555
H14 C18 1_555 1_555
H15 C18 1_555 1_555
H16 C18 1_555 1_555
C19 C3 1_555 1_555
C20 C19 1_555 1_555
C21 C20 1_555 1_555
H17 C21 1_555 1_555
C22 C21 1_555 1_555
H18 C22 1_555 1_555
C23 C22 1_555 1_555
C24 C23 1_555 1_555
H19 C24 1_555 1_555
C25 C20 1_555 1_555
H20 C25 1_555 1_555
C26 Se1 1_555 1_555
C27 C26 1_555 1_555
H21 C27 1_555 1_555
C28 C27 1_555 1_555
H22 C28 1_555 1_555
C29 C28 1_555 1_555
H23 C29 1_555 1_555
C30 C29 1_555 1_555
H24 C30 1_555 1_555
C31 C26 1_555 1_555
H25 C31 1_555 1_555
C2 C10 1_555 1_555
C8 C9 1_555 1_555
C15 C16 1_555 1_555
C24 C25 1_555 1_555
C30 C31 1_555 1_555

#END
