
#######################################################################
#
#                 Cambridge Crystallographic Data Centre
#                                CCDC 
#
#######################################################################
#
# If this CIF has been generated from an entry in the Cambridge 
# Structural Database, then it will include bibliographic, chemical, 
# crystal, experimental, refinement or atomic coordinate data resulting 
# from the CCDC's data processing and validation procedures.
#
#######################################################################

data_NELFEQ
_chemical_formula_moiety         'C25 H34 N1 O6 1+,Cl1 O4 1-,H2 O1'
_chemical_name_systematic        
'4-((E)-2-(2,3,5,6,8,9,11,12,14,15-Decahydro-1,4,7,10,13,16-benzohexaoxacyclooctadecin-18-yl)ethenyl)-1-ethylpyridinium perchlorate monohydrate'
_symmetry_cell_setting           monoclinic
_symmetry_space_group_name_H-M   'P 21/c'
_symmetry_Int_Tables_number      14
_space_group_name_Hall           '-P 2ybc'
loop_
_symmetry_equiv_pos_site_id
_symmetry_equiv_pos_as_xyz
1 x,y,z
2 -x,1/2+y,1/2-z
3 -x,-y,-z
4 x,1/2-y,1/2+z
_cell_length_a                   11.0290(6)
_cell_length_b                   8.5403(5)
_cell_length_c                   28.893(2)
_cell_angle_alpha                90
_cell_angle_beta                 97.570(2)
_cell_angle_gamma                90
_cell_volume                     2697.74
_exptl_crystal_colour            yellow
_exptl_crystal_description       prism
_cell_formula_units_Z            4
_chemical_properties_physical    light-sensitive
_exptl_crystal_recrystallization_method methanol
_exptl_crystal_preparation       photochromic
loop_
_atom_site_label
_atom_site_type_symbol
_atom_site_fract_x
_atom_site_fract_y
_atom_site_fract_z
O1 O 0.35020(18) 0.7365(2) 0.16118(7)
H1 H 0.337(3) 0.676(4) 0.1804(12)
H2 H 0.339(3) 0.692(4) 0.1402(12)
O2 O 0.23743(12) 0.57179(17) 0.06561(5)
O3 O 0.01716(13) 0.59795(17) 0.11124(5)
O4 O 0.08516(13) 0.62846(19) 0.21383(5)
O5 O 0.33699(13) 0.56466(18) 0.24860(5)
O6 O 0.51121(13) 0.41879(17) 0.19734(4)
O7 O 0.45036(12) 0.47182(17) 0.10079(4)
N1 N 0.76277(16) -0.2014(2) -0.12099(6)
C1 C 0.29542(17) 0.4798(2) 0.03678(7)
C2 C 0.41181(17) 0.4232(2) 0.05607(6)
C3 C 0.47698(18) 0.3251(2) 0.03055(7)
C4 C 0.42839(18) 0.2792(2) -0.01502(7)
C5 C 0.31412(18) 0.3367(2) -0.03358(7)
C6 C 0.24898(18) 0.4383(2) -0.00845(7)
C7 C 0.49351(19) 0.1766(2) -0.04378(7)
C8 C 0.60312(19) 0.1103(2) -0.03254(7)
C9 C 0.65677(18) 0.0038(2) -0.06332(7)
C10 C 0.59484(19) -0.0460(2) -0.10621(7)
C11 C 0.64850(19) -0.1472(2) -0.13389(7)
C12 C 0.82576(19) -0.1572(3) -0.08005(7)
C13 C 0.77558(18) -0.0556(2) -0.05097(7)
C14 C 0.8165(2) -0.3113(3) -0.15302(8)
C15 C 0.8500(2) -0.2271(3) -0.19522(8)
C16 C 0.12142(19) 0.6367(3) 0.04598(7)
C17 C 0.0641(2) 0.7158(3) 0.08399(8)
C18 C -0.0572(2) 0.6551(3) 0.14405(8)
C19 C 0.0112(2) 0.7380(3) 0.18541(8)
C20 C 0.1524(2) 0.7047(3) 0.25255(8)
C21 C 0.2429(2) 0.5913(3) 0.27704(7)
C22 C 0.42415(19) 0.4525(3) 0.26802(7)
C23 C 0.53686(19) 0.4672(3) 0.24471(7)
C24 C 0.59509(18) 0.4851(3) 0.16942(7)
C25 C 0.56995(18) 0.4197(3) 0.12078(7)
H3 H 0.5570(19) 0.287(2) 0.0429(7)
H4 H 0.2822(19) 0.308(3) -0.0643(8)
H5 H 0.176(2) 0.481(3) -0.0233(8)
H6 H 0.445(2) 0.155(3) -0.0744(9)
H7 H 0.646(2) 0.123(3) -0.0018(9)
H8 H 0.514(2) -0.012(3) -0.1160(8)
H9 H 0.606(2) -0.192(3) -0.1615(9)
H10 H 0.902(2) -0.199(3) -0.0740(9)
H11 H 0.815(2) -0.033(3) -0.0218(9)
H12 H 0.756(2) -0.387(3) -0.1629(8)
H13 H 0.897(2) -0.359(3) -0.1342(9)
H14 H 0.884(2) -0.306(3) -0.2169(9)
H15 H 0.909(2) -0.149(3) -0.1860(9)
H16 H 0.783(3) -0.182(3) -0.2141(10)
H17 H 0.066(2) 0.553(3) 0.0324(9)
H18 H 0.137(2) 0.707(3) 0.0219(9)
H19 H 0.124(2) 0.787(3) 0.1035(8)
H20 H -0.005(2) 0.785(3) 0.0689(8)
H21 H -0.094(2) 0.564(3) 0.1555(8)
H22 H -0.121(2) 0.725(3) 0.1307(8)
H23 H 0.062(2) 0.816(3) 0.1767(9)
H24 H -0.050(2) 0.786(3) 0.2038(9)
H25 H 0.098(2) 0.739(3) 0.2754(9)
H26 H 0.192(2) 0.799(3) 0.2434(9)
H27 H 0.274(2) 0.636(3) 0.3063(9)
H28 H 0.206(2) 0.490(3) 0.2827(8)
H29 H 0.389(2) 0.347(3) 0.2664(8)
H30 H 0.441(2) 0.471(3) 0.2998(9)
H31 H 0.565(2) 0.576(3) 0.2476(8)
H32 H 0.606(2) 0.402(3) 0.2608(9)
H33 H 0.683(2) 0.463(3) 0.1829(8)
H34 H 0.5910(19) 0.598(3) 0.1677(7)
H35 H 0.628(2) 0.452(3) 0.1031(8)
H36 H 0.5770(19) 0.310(3) 0.1214(7)
Cl1 Cl -0.16536(4) 1.13153(6) 0.097752(17)
O8 O -0.28771(15) 1.0729(2) 0.09431(7)
O9 O -0.08404(17) 1.0366(3) 0.12770(7)
O10 O -0.12638(19) 1.1338(4) 0.05305(7)
O11 O -0.1624(2) 1.2844(2) 0.11836(11)
loop_
_geom_bond_atom_site_label_1
_geom_bond_atom_site_label_2
_geom_bond_site_symmetry_1
_geom_bond_site_symmetry_2
O1 H1 1_555 1_555
O2 C1 1_555 1_555
O3 C17 1_555 1_555
O4 C19 1_555 1_555
O5 C21 1_555 1_555
O6 C23 1_555 1_555
O7 C2 1_555 1_555
N1 C11 1_555 1_555
C1 C2 1_555 1_555
C2 C3 1_555 1_555
C3 C4 1_555 1_555
C4 C5 1_555 1_555
C5 C6 1_555 1_555
C6 C1 1_555 1_555
C7 C4 1_555 1_555
C8 C7 1_555 1_555
C9 C8 1_555 1_555
C10 C9 1_555 1_555
C11 C10 1_555 1_555
C12 N1 1_555 1_555
C13 C9 1_555 1_555
C14 N1 1_555 1_555
C15 C14 1_555 1_555
C16 O2 1_555 1_555
C17 C16 1_555 1_555
C18 O3 1_555 1_555
C19 C18 1_555 1_555
C20 O4 1_555 1_555
C21 C20 1_555 1_555
C22 O5 1_555 1_555
C23 C22 1_555 1_555
C24 O6 1_555 1_555
C25 O7 1_555 1_555
Cl1 O8 1_555 1_555
O9 Cl1 1_555 1_555
O10 Cl1 1_555 1_555
O11 Cl1 1_555 1_555
H2 O1 1_555 1_555
H3 C3 1_555 1_555
H4 C5 1_555 1_555
H5 C6 1_555 1_555
H6 C7 1_555 1_555
H7 C8 1_555 1_555
H8 C10 1_555 1_555
H9 C11 1_555 1_555
H10 C12 1_555 1_555
H11 C13 1_555 1_555
H12 C14 1_555 1_555
H13 C14 1_555 1_555
H14 C15 1_555 1_555
H15 C15 1_555 1_555
H16 C15 1_555 1_555
H17 C16 1_555 1_555
H18 C16 1_555 1_555
H19 C17 1_555 1_555
H20 C17 1_555 1_555
H21 C18 1_555 1_555
H22 C18 1_555 1_555
H23 C19 1_555 1_555
H24 C19 1_555 1_555
H25 C20 1_555 1_555
H26 C20 1_555 1_555
H27 C21 1_555 1_555
H28 C21 1_555 1_555
H29 C22 1_555 1_555
H30 C22 1_555 1_555
H31 C23 1_555 1_555
H32 C23 1_555 1_555
H33 C24 1_555 1_555
H34 C24 1_555 1_555
H35 C25 1_555 1_555
H36 C25 1_555 1_555
C12 C13 1_555 1_555
C24 C25 1_555 1_555

#END
