
#######################################################################
#
#                 Cambridge Crystallographic Data Centre
#                                CCDC 
#
#######################################################################
#
# If this CIF has been generated from an entry in the Cambridge 
# Structural Database, then it will include bibliographic, chemical, 
# crystal, experimental, refinement or atomic coordinate data resulting 
# from the CCDC's data processing and validation procedures.
#
#######################################################################

data_NELFAO
_chemical_formula_moiety         'C19 H18 N2 O3 S1,C1 H4 O1'
_chemical_name_systematic        
'3-benzyl-6-[(2-hydroxyphenyl)methylidene]-3-(methylsulfanyl)piperazine-2,5-dione methanol solvate'
_symmetry_cell_setting           monoclinic
_symmetry_space_group_name_H-M   'P 21'
_symmetry_Int_Tables_number      4
_space_group_name_Hall           'P 2yb'
loop_
_symmetry_equiv_pos_site_id
_symmetry_equiv_pos_as_xyz
1 x,y,z
2 -x,1/2+y,-z
_cell_length_a                   8.3685(9)
_cell_length_b                   6.1721(3)
_cell_length_c                   18.2702(11)
_cell_angle_alpha                90
_cell_angle_beta                 95.7270(10)
_cell_angle_gamma                90
_cell_volume                     938.968
_exptl_crystal_colour            colorless
_exptl_crystal_description       prism
_cell_formula_units_Z            2
loop_
_atom_site_label
_atom_site_type_symbol
_atom_site_fract_x
_atom_site_fract_y
_atom_site_fract_z
S1 S 0.2360(2) 0.2760(5) 0.97811(8)
N1 N 0.2782(6) 0.5185(9) 0.7838(3)
H1 H 0.2662 0.6443 0.7637
N2 N 0.2741(7) 0.1178(9) 0.8446(3)
H2 H 0.2559 -0.0045 0.8647
O1 O 0.3187(6) 0.6786(7) 0.8950(2)
O2 O 0.2029(6) -0.0387(8) 0.7351(2)
O3 O 0.144(13) 0.383(11) 0.524(3)
H3 H 0.1025 0.4076 0.4820
C1 C 0.3080(9) 0.5134(11) 0.8575(3)
C2 C 0.3340(8) 0.2890(12) 0.8942(3)
C3 C 0.2435(8) 0.1265(11) 0.7716(4)
C4 C 0.2646(8) 0.3380(10) 0.7360(3)
C5 C 0.2744(8) 0.3519(10) 0.6636(3)
H4 H 0.2549 0.2234 0.6376
C6 C 0.3112(9) 0.5393(11) 0.6188(3)
C7 C 0.2330(10) 0.5572(13) 0.5489(4)
C8 C 0.2688(9) 0.7270(13) 0.5027(4)
H5 H 0.2140 0.7399 0.4560
C9 C 0.3852(9) 0.8749(12) 0.5264(4)
H6 H 0.4094 0.9885 0.4960
C10 C 0.4652(9) 0.8545(12) 0.5948(4)
H7 H 0.5448 0.9539 0.6106
C11 C 0.4294(9) 0.6884(12) 0.6409(4)
H8 H 0.4854 0.6765 0.6873
C12 C 0.5155(8) 0.2601(13) 0.9167(3)
H9 H 0.5499 0.3702 0.9528
H10 H 0.5324 0.1201 0.9404
C13 C 0.6182(8) 0.2737(13) 0.8555(3)
C14 C 0.6879(10) 0.4663(14) 0.8396(4)
H11 H 0.6690 0.5882 0.8673
C15 C 0.7863(11) 0.4846(16) 0.7828(5)
H12 H 0.8346 0.6161 0.7734
C16 C 0.8117(10) 0.3002(19) 0.7400(5)
H13 H 0.8757 0.3100 0.7013
C17 C 0.7435(11) 0.1106(16) 0.7549(5)
H14 H 0.7592 -0.0102 0.7261
C18 C 0.6488(10) 0.0938(13) 0.8137(5)
H15 H 0.6059 -0.0398 0.8248
C19 C 0.0295(9) 0.3167(14) 0.9436(4)
H16 H -0.0056 0.1992 0.9115
H17 H 0.0191 0.4507 0.9169
H18 H -0.0355 0.3218 0.9840
O5 O 0.0228(10) 0.4265(18) 0.3870(4)
H20 H -0.0545 0.4549 0.3574
C20 C 0.0775(15) 0.223(3) 0.3735(7)
H21 H 0.1672 0.2334 0.3448
H22 H -0.0068 0.1412 0.3469
H23 H 0.1104 0.1524 0.4193
O4? O 0.082(17) 0.45(2) 0.536(4)
H19? H 0.0513 0.4489 0.4920
loop_
_geom_bond_atom_site_label_1
_geom_bond_atom_site_label_2
_geom_bond_site_symmetry_1
_geom_bond_site_symmetry_2
S1 C2 1_555 1_555
N1 H1 1_555 1_555
N2 H2 1_555 1_555
O1 C1 1_555 1_555
O2 C3 1_555 1_555
O3 H3 1_555 1_555
C1 N1 1_555 1_555
C2 N2 1_555 1_555
C3 N2 1_555 1_555
C4 N1 1_555 1_555
C5 C4 1_555 1_555
H4 C5 1_555 1_555
C6 C5 1_555 1_555
C7 O3 1_555 1_555
C8 C7 1_555 1_555
H5 C8 1_555 1_555
C9 C8 1_555 1_555
H6 C9 1_555 1_555
C10 C9 1_555 1_555
H7 C10 1_555 1_555
C11 C6 1_555 1_555
H8 C11 1_555 1_555
C12 C2 1_555 1_555
H9 C12 1_555 1_555
H10 C12 1_555 1_555
C13 C12 1_555 1_555
C14 C13 1_555 1_555
H11 C14 1_555 1_555
C15 C14 1_555 1_555
H12 C15 1_555 1_555
C16 C15 1_555 1_555
H13 C16 1_555 1_555
C17 C16 1_555 1_555
H14 C17 1_555 1_555
C18 C13 1_555 1_555
H15 C18 1_555 1_555
C19 S1 1_555 1_555
H16 C19 1_555 1_555
H17 C19 1_555 1_555
H18 C19 1_555 1_555
O5 H20 1_555 1_555
C20 O5 1_555 1_555
H21 C20 1_555 1_555
H22 C20 1_555 1_555
H23 C20 1_555 1_555
C1 C2 1_555 1_555
C3 C4 1_555 1_555
C6 C7 1_555 1_555
C10 C11 1_555 1_555
C17 C18 1_555 1_555

#END
