
#######################################################################
#
#                 Cambridge Crystallographic Data Centre
#                                CCDC 
#
#######################################################################
#
# If this CIF has been generated from an entry in the Cambridge 
# Structural Database, then it will include bibliographic, chemical, 
# crystal, experimental, refinement or atomic coordinate data resulting 
# from the CCDC's data processing and validation procedures.
#
#######################################################################

data_NELMEW
_chemical_formula_moiety         'C24 H48 Cs2 I2 O12,C8 H10'
_chemical_name_systematic        
'bis(\m~2~-Iodo)-bis(1,4,7,10,13,16-hexaoxa-cyclo-octadecane-cesium(i)) p-xylene solvate'
_symmetry_cell_setting           monoclinic
_symmetry_space_group_name_H-M   'C 2/m'
_symmetry_Int_Tables_number      12
_space_group_name_Hall           '-C 2y'
loop_
_symmetry_equiv_pos_site_id
_symmetry_equiv_pos_as_xyz
1 x,y,z
2 1/2+x,1/2+y,z
3 x,-y,z
4 1/2+x,1/2-y,z
5 -x,-y,-z
6 1/2-x,1/2-y,-z
7 -x,y,-z
8 1/2-x,1/2+y,-z
_cell_length_a                   15.4360(10)
_cell_length_b                   17.4317(11)
_cell_length_c                   8.1756(5)
_cell_angle_alpha                90
_cell_angle_beta                 91.1950(10)
_cell_angle_gamma                90
_cell_volume                     2199.38
_exptl_crystal_colour            colorless
_exptl_crystal_description       plate
_cell_formula_units_Z            2
loop_
_atom_site_label
_atom_site_type_symbol
_atom_site_fract_x
_atom_site_fract_y
_atom_site_fract_z
Cs1 Cs 0.170972(16) 0.0000 0.36783(3)
I1 I 0.0000 0.150813(17) 0.5000
O1 O 0.3636(3) 0.0000 0.5128(6)
O2 O 0.29407(16) 0.14338(15) 0.4161(4)
O3 O 0.20804(17) 0.14078(15) 0.1049(3)
O4 O 0.1305(2) 0.0000 0.0011(4)
C1 C 0.3762(3) 0.0690(3) 0.6022(6)
H1 H 0.4309 0.0667 0.6626
H2 H 0.3302 0.0750 0.6801
C2 C 0.3764(3) 0.1343(3) 0.4910(6)
H3 H 0.3918 0.1805 0.5511
H4 H 0.4194 0.1263 0.4078
C3 C 0.2924(3) 0.2057(2) 0.3048(5)
H5 H 0.3405 0.2014 0.2308
H6 H 0.2986 0.2536 0.3645
C4 C 0.2104(3) 0.2058(2) 0.2110(5)
H7 H 0.1621 0.2037 0.2850
H8 H 0.2054 0.2525 0.1471
C5 C 0.1301(3) 0.1360(2) 0.0124(5)
H9 H 0.1225 0.1821 -0.0530
H10 H 0.0814 0.1318 0.0850
C6 C 0.1333(3) 0.0680(3) -0.0955(5)
H11 H 0.0845 0.0688 -0.1721
H12 H 0.1862 0.0688 -0.1575
Cs1D Cs -0.170972(16) 0.0000 0.63217(3)
I1D I 0.0000 -0.150813(17) 0.5000
O2B O 0.29407(16) -0.14338(15) 0.4161(4)
C2B C 0.3764(3) -0.1343(3) 0.4910(6)
C1B C 0.3762(3) -0.0690(3) 0.6022(6)
H1B H 0.4309 -0.0667 0.6626
H2B H 0.3302 -0.0750 0.6801
H3B H 0.3918 -0.1805 0.5511
H4B H 0.4194 -0.1263 0.4078
C3B C 0.2924(3) -0.2057(2) 0.3048(5)
H5B H 0.3405 -0.2014 0.2308
H6B H 0.2986 -0.2536 0.3645
C4B C 0.2104(3) -0.2058(2) 0.2110(5)
O3B O 0.20804(17) -0.14078(15) 0.1049(3)
C6B C 0.1333(3) -0.0680(3) -0.0955(5)
C5B C 0.1301(3) -0.1360(2) 0.0124(5)
H9B H 0.1225 -0.1821 -0.0530
H10B H 0.0814 -0.1318 0.0850
H11B H 0.0845 -0.0688 -0.1721
H12B H 0.1862 -0.0688 -0.1575
H7B H 0.1621 -0.2037 0.2850
H8B H 0.2054 -0.2525 0.1471
O1D O -0.3636(3) 0.0000 0.4872(6)
C1D C -0.3762(3) -0.0690(3) 0.3978(6)
H1D H -0.4309 -0.0667 0.3374
H2D H -0.3302 -0.0750 0.3199
C2D C -0.3764(3) -0.1343(3) 0.5090(6)
O2D O -0.29407(16) -0.14338(15) 0.5839(4)
O2F O -0.29407(16) 0.14338(15) 0.5839(4)
C2F C -0.3764(3) 0.1343(3) 0.5090(6)
C1F C -0.3762(3) 0.0690(3) 0.3978(6)
H1F H -0.4309 0.0667 0.3374
H2F H -0.3302 0.0750 0.3199
H3F H -0.3918 0.1805 0.4489
H4F H -0.4194 0.1263 0.5922
C3F C -0.2924(3) 0.2057(2) 0.6952(5)
H5F H -0.3405 0.2014 0.7692
H6F H -0.2986 0.2536 0.6355
C4F C -0.2104(3) 0.2058(2) 0.7890(5)
O3F O -0.20804(17) 0.14078(15) 0.8951(3)
O3D O -0.20804(17) -0.14078(15) 0.8951(3)
C4D C -0.2104(3) -0.2058(2) 0.7890(5)
C3D C -0.2924(3) -0.2057(2) 0.6952(5)
H5D H -0.3405 -0.2014 0.7692
H6D H -0.2986 -0.2536 0.6355
H7D H -0.1621 -0.2037 0.7150
H8D H -0.2054 -0.2525 0.8529
C5D C -0.1301(3) -0.1360(2) 0.9876(5)
H9D H -0.1225 -0.1821 1.0530
H10D H -0.0814 -0.1318 0.9150
C6D C -0.1333(3) -0.0680(3) 1.0955(5)
O4D O -0.1305(2) 0.0000 0.9989(4)
C6F C -0.1333(3) 0.0680(3) 1.0955(5)
C5F C -0.1301(3) 0.1360(2) 0.9876(5)
H9F H -0.1225 0.1821 1.0530
H10F H -0.0814 0.1318 0.9150
H11F H -0.0845 0.0688 1.1721
H12F H -0.1862 0.0688 1.1575
H11D H -0.0845 -0.0688 1.1721
H12D H -0.1862 -0.0688 1.1575
H7F H -0.1621 0.2037 0.7150
H8F H -0.2054 0.2525 0.8529
H3D H -0.3918 -0.1805 0.4489
H4D H -0.4194 -0.1263 0.5922
C7 C 0.0000 0.3329(4) 0.0000
H13 H 0.0556 0.3145 -0.0330
C8 C 0.0000 0.4192(3) 0.0000
C9 C 0.0726(2) 0.4604(2) -0.0427(4)
H16 H 0.1225 0.4342 -0.0720
H13F H -0.0556 0.3145 0.0330
C9B C 0.0726(2) 0.5396(2) -0.0427(4)
C8B C 0.0000 0.5808(3) 0.0000
C7B C 0.0000 0.6671(4) 0.0000
H13B H 0.0556 0.6855 -0.0330
H13D H -0.0556 0.6855 0.0330
C9D C -0.0726(2) 0.5396(2) 0.0427(4)
C9F C -0.0726(2) 0.4604(2) 0.0427(4)
H16F H -0.1225 0.4342 0.0720
H16D H -0.1225 0.5658 0.0720
H16B H 0.1225 0.5658 -0.0720
H14? H -0.0440 0.3145 -0.0750
H15? H -0.0116 0.3145 0.1080
loop_
_geom_bond_atom_site_label_1
_geom_bond_atom_site_label_2
_geom_bond_site_symmetry_1
_geom_bond_site_symmetry_2
Cs1 I1 1_555 1_555
I1 Cs1D 1_555 1_555
O1 Cs1 1_555 1_555
O2 Cs1 1_555 1_555
O3 Cs1 1_555 1_555
O4 Cs1 1_555 1_555
C1 O1 1_555 1_555
H1 C1 1_555 1_555
H2 C1 1_555 1_555
C2 O2 1_555 1_555
H3 C2 1_555 1_555
H4 C2 1_555 1_555
C3 O2 1_555 1_555
H5 C3 1_555 1_555
H6 C3 1_555 1_555
C4 O3 1_555 1_555
H7 C4 1_555 1_555
H8 C4 1_555 1_555
C5 O3 1_555 1_555
H9 C5 1_555 1_555
H10 C5 1_555 1_555
C6 O4 1_555 1_555
H11 C6 1_555 1_555
H12 C6 1_555 1_555
C7 H13 1_555 1_555
C8 C7 1_555 1_555
C9 C8 1_555 1_555
H16 C9 1_555 1_555
Cs1D I1D 1_555 1_555
I1D Cs1 1_555 1_555
O2B Cs1 1_555 1_555
C2B O2B 1_555 1_555
C1B O1 1_555 1_555
H1B C1B 1_555 1_555
H2B C1B 1_555 1_555
H3B C2B 1_555 1_555
H4B C2B 1_555 1_555
C3B O2B 1_555 1_555
H5B C3B 1_555 1_555
H6B C3B 1_555 1_555
C4B C3B 1_555 1_555
O3B Cs1 1_555 1_555
C6B O4 1_555 1_555
C5B O3B 1_555 1_555
H9B C5B 1_555 1_555
H10B C5B 1_555 1_555
H11B C6B 1_555 1_555
H12B C6B 1_555 1_555
H7B C4B 1_555 1_555
H8B C4B 1_555 1_555
O1D Cs1D 1_555 1_555
C1D O1D 1_555 1_555
H1D C1D 1_555 1_555
H2D C1D 1_555 1_555
C2D C1D 1_555 1_555
O2D Cs1D 1_555 1_555
O2F Cs1D 1_555 1_555
C2F O2F 1_555 1_555
C1F O1D 1_555 1_555
H1F C1F 1_555 1_555
H2F C1F 1_555 1_555
H3F C2F 1_555 1_555
H4F C2F 1_555 1_555
C3F O2F 1_555 1_555
H5F C3F 1_555 1_555
H6F C3F 1_555 1_555
C4F C3F 1_555 1_555
O3F Cs1D 1_555 1_555
O3D Cs1D 1_555 1_555
C4D O3D 1_555 1_555
C3D O2D 1_555 1_555
H5D C3D 1_555 1_555
H6D C3D 1_555 1_555
H7D C4D 1_555 1_555
H8D C4D 1_555 1_555
C5D O3D 1_555 1_555
H9D C5D 1_555 1_555
H10D C5D 1_555 1_555
C6D C5D 1_555 1_555
O4D Cs1D 1_555 1_555
C6F O4D 1_555 1_555
C5F O3F 1_555 1_555
H9F C5F 1_555 1_555
H10F C5F 1_555 1_555
H11F C6F 1_555 1_555
H12F C6F 1_555 1_555
H11D C6D 1_555 1_555
H12D C6D 1_555 1_555
H7F C4F 1_555 1_555
H8F C4F 1_555 1_555
H3D C2D 1_555 1_555
H4D C2D 1_555 1_555
H13F C7 1_555 1_555
C9B C9 1_555 1_555
C8B C9B 1_555 1_555
C7B C8B 1_555 1_555
H13B C7B 1_555 1_555
H13D C7B 1_555 1_555
C9D C8B 1_555 1_555
C9F C8 1_555 1_555
H16F C9F 1_555 1_555
H16D C9D 1_555 1_555
H16B C9B 1_555 1_555
C1 C2 1_555 1_555
C3 C4 1_555 1_555
C5 C6 1_555 1_555
C2B C1B 1_555 1_555
C4B O3B 1_555 1_555
C6B C5B 1_555 1_555
C2D O2D 1_555 1_555
C2F C1F 1_555 1_555
C4F O3F 1_555 1_555
C4D C3D 1_555 1_555
C6D O4D 1_555 1_555
C6F C5F 1_555 1_555
C9D C9F 1_555 1_555

#END
