
#######################################################################
#
#                 Cambridge Crystallographic Data Centre
#                                CCDC 
#
#######################################################################
#
# If this CIF has been generated from an entry in the Cambridge 
# Structural Database, then it will include bibliographic, chemical, 
# crystal, experimental, refinement or atomic coordinate data resulting 
# from the CCDC's data processing and validation procedures.
#
#######################################################################

data_NELNID
_chemical_formula_moiety         'C9 H12 N5 1+,Br1 1-,0.5(H2 O1),0.5(C1 H4 O1)'
_chemical_name_systematic        
'2-(2-(Pyridin-2-ylmethylene)hydrazino)-4,5-dihydro-1H-imidazolium bromide methanol solvate hemihydrate'
_symmetry_cell_setting           monoclinic
_symmetry_space_group_name_H-M   'P 21'
_symmetry_Int_Tables_number      4
_space_group_name_Hall           'P 2yb'
loop_
_symmetry_equiv_pos_site_id
_symmetry_equiv_pos_as_xyz
1 x,y,z
2 -x,1/2+y,-z
_cell_length_a                   7.0539(6)
_cell_length_b                   27.0595(17)
_cell_length_c                   7.1137(6)
_cell_angle_alpha                90
_cell_angle_beta                 110.806(6)
_cell_angle_gamma                90
_cell_volume                     1269.28
_exptl_crystal_colour            colorless
_exptl_crystal_description       block
_cell_formula_units_Z            4
loop_
_atom_site_label
_atom_site_type_symbol
_atom_site_fract_x
_atom_site_fract_y
_atom_site_fract_z
N1 N 0.1113(4) 0.38962(9) 0.4609(4)
N2 N 0.3634(3) 0.33606(9) 0.9382(3)
N3 N 0.4585(4) 0.35462(9) 1.1300(4)
N4 N 0.5315(4) 0.27319(9) 1.2450(4)
N5 N 0.6256(4) 0.33284(10) 1.4667(4)
C1 C 0.1886(4) 0.35228(10) 0.5913(4)
C2 C 0.1723(4) 0.30316(11) 0.5338(4)
C3 C 0.0725(5) 0.29172(12) 0.3331(5)
C4 C -0.0074(5) 0.32957(13) 0.1981(4)
C5 C 0.0153(4) 0.37727(12) 0.2688(4)
C6 C 0.2919(4) 0.36842(11) 0.8009(4)
C7 C 0.5353(4) 0.32123(11) 1.2758(4)
C8 C 0.6344(5) 0.24660(11) 1.4341(5)
C9 C 0.6882(5) 0.28880(12) 1.5915(4)
H1 H 0.22840 0.27780 0.63000
H2 H 0.05920 0.25830 0.28900
H3 H 0.460(6) 0.3851(16) 1.164(6)
H4 H -0.07650 0.32280 0.05940
H5 H 0.506(5) 0.2601(15) 1.121(6)
H6 H -0.04080 0.40310 0.17500
H7 H 0.642(5) 0.3655(15) 1.527(6)
H8 H 0.30520 0.40260 0.83330
H9 H 0.75790 0.22960 1.43180
H10 H 0.54320 0.22210 1.46120
H11 H 0.61230 0.28540 1.68420
H12 H 0.83530 0.28940 1.67080
N6 N 0.5907(4) -0.03722(9) 0.8405(4)
N7 N 0.1086(4) 0.01563(9) 0.5891(4)
N8 N -0.0851(4) -0.00286(9) 0.4916(4)
N9 N -0.4246(4) 0.02007(10) 0.3251(4)
N10 N -0.1968(4) 0.07913(9) 0.4284(4)
C10 C 0.4572(4) -0.00038(11) 0.7647(4)
C11 C 0.5100(5) 0.04906(11) 0.7825(4)
C12 C 0.7116(5) 0.06146(13) 0.8854(5)
C13 C 0.8501(5) 0.02378(14) 0.9665(5)
C14 C 0.7825(5) -0.02432(12) 0.9402(5)
C15 C 0.2471(4) -0.01649(11) 0.6582(4)
C16 C -0.2303(4) 0.03115(10) 0.4185(4)
C17 C -0.5462(4) 0.06528(12) 0.2670(5)
C18 C -0.3863(5) 0.10655(12) 0.3331(6)
H13 H -0.119(6) -0.0328(15) 0.489(5)
H14 H -0.479(6) -0.0125(15) 0.315(5)
H15 H -0.070(8) 0.0936(19) 0.463(8)
H16 H 0.41110 0.07390 0.72590
H17 H 0.75380 0.09500 0.89990
H18 H 0.98880 0.03110 1.03880
H19 H 0.87840 -0.04980 0.99660
H20 H 0.21530 -0.05070 0.64140
H21 H -0.64410 0.06790 0.33760
H22 H -0.62110 0.06630 0.12010
H23 H -0.38240 0.12580 0.21620
H24 H -0.41330 0.12920 0.42990
O1 O -0.0953(4) 0.17696(11) 0.0425(4)
C19 C 0.0373(7) 0.1816(2) -0.0642(7)
H25 H 0.12260 0.21090 -0.01690
H26 H 0.12320 0.15220 -0.04210
H27 H -0.04160 0.18510 -0.20800
H28 H -0.02830 0.17070 0.16370
O2 O 0.5148(4) 0.21181(11) 0.9227(4)
H29 H 0.43310 0.19130 0.84430
H30 H 0.63430 0.20340 0.93370
Br1 Br 0.19338(4) 0.15944(1) 0.50229(4)
Br2 Br 0.72020(4) 0.42570(1) 0.77072(4)
loop_
_geom_bond_atom_site_label_1
_geom_bond_atom_site_label_2
_geom_bond_site_symmetry_1
_geom_bond_site_symmetry_2
N1 C1 1_555 1_555
N2 N3 1_555 1_555
N3 C7 1_555 1_555
N4 C7 1_555 1_555
N5 C7 1_555 1_555
C1 C2 1_555 1_555
C2 C3 1_555 1_555
C3 C4 1_555 1_555
C4 C5 1_555 1_555
C5 N1 1_555 1_555
C6 N2 1_555 1_555
C8 N4 1_555 1_555
C9 N5 1_555 1_555
N6 C10 1_555 1_555
N7 N8 1_555 1_555
N8 C16 1_555 1_555
N9 C16 1_555 1_555
N10 C16 1_555 1_555
C10 C11 1_555 1_555
C11 C12 1_555 1_555
C12 C13 1_555 1_555
C13 C14 1_555 1_555
C14 N6 1_555 1_555
C15 N7 1_555 1_555
C17 N9 1_555 1_555
C18 N10 1_555 1_555
O1 C19 1_555 1_555
C19 H25 1_555 1_555
O2 H29 1_555 1_555
H1 C2 1_555 1_555
H2 C3 1_555 1_555
H3 N3 1_555 1_555
H4 C4 1_555 1_555
H5 N4 1_555 1_555
H6 C5 1_555 1_555
H7 N5 1_555 1_555
H8 C6 1_555 1_555
H9 C8 1_555 1_555
H10 C8 1_555 1_555
H11 C9 1_555 1_555
H12 C9 1_555 1_555
H13 N8 1_555 1_555
H14 N9 1_555 1_555
H15 N10 1_555 1_555
H16 C11 1_555 1_555
H17 C12 1_555 1_555
H18 C13 1_555 1_555
H19 C14 1_555 1_555
H20 C15 1_555 1_555
H21 C17 1_555 1_555
H22 C17 1_555 1_555
H23 C18 1_555 1_555
H24 C18 1_555 1_555
H26 C19 1_555 1_555
H27 C19 1_555 1_555
H28 O1 1_555 1_555
H30 O2 1_555 1_555
C1 C6 1_555 1_555
C8 C9 1_555 1_555
C10 C15 1_555 1_555
C17 C18 1_555 1_555

#END
