
#######################################################################
#
#                 Cambridge Crystallographic Data Centre
#                                CCDC 
#
#######################################################################
#
# If this CIF has been generated from an entry in the Cambridge 
# Structural Database, then it will include bibliographic, chemical, 
# crystal, experimental, refinement or atomic coordinate data resulting 
# from the CCDC's data processing and validation procedures.
#
#######################################################################

data_NELSEC
_chemical_name_common            R-Thioproline
_chemical_formula_moiety         'C4 H7 N1 O2 S1'
_chemical_name_systematic        (R)-1,3-Thiazolidin-3-ium-4-carboxylate
_symmetry_cell_setting           orthorhombic
_symmetry_space_group_name_H-M   'P 21 21 21'
_symmetry_Int_Tables_number      19
_space_group_name_Hall           'P 2ac 2ab'
loop_
_symmetry_equiv_pos_site_id
_symmetry_equiv_pos_as_xyz
1 x,y,z
2 1/2-x,-y,1/2+z
3 -x,1/2+y,1/2-z
4 1/2+x,1/2-y,-z
_cell_length_a                   5.6733(3)
_cell_length_b                   9.9375(6)
_cell_length_c                   9.9407(6)
_cell_angle_alpha                90
_cell_angle_beta                 90
_cell_angle_gamma                90
_cell_volume                     560.441
_exptl_crystal_colour            colorless
_exptl_crystal_description       block
_cell_formula_units_Z            4
_exptl_crystal_recrystallization_method 'hot water'
loop_
_atom_site_label
_atom_site_type_symbol
_atom_site_fract_x
_atom_site_fract_y
_atom_site_fract_z
S1 S 0.10887(7) 0.17235(4) 0.38298(4)
O1 O -0.27669(19) -0.00443(12) 0.11609(14)
N1 N 0.3165(2) 0.12326(12) 0.15031(11)
H1 H 0.4381 0.0932 0.1251
H2 H 0.2707 0.1723 0.0909
O2 O -0.0738(2) 0.15571(15) 0.00960(14)
C1 C -0.0948(2) 0.06210(14) 0.09099(13)
C2 C 0.1292(2) 0.01851(13) 0.16804(12)
H3 H 0.1858 -0.0671 0.1311
C3 C 0.0883(3) 0.00246(16) 0.31848(14)
H4 H 0.2077 -0.0549 0.3585
H5 H -0.0659 -0.0357 0.3363
C4 C 0.3628(3) 0.19746(15) 0.27834(15)
H6 H 0.3858 0.2925 0.2605
H7 H 0.5030 0.1626 0.3220
loop_
_geom_bond_atom_site_label_1
_geom_bond_atom_site_label_2
_geom_bond_site_symmetry_1
_geom_bond_site_symmetry_2
S1 C3 1_555 1_555
O1 C1 1_555 1_555
N1 H1 1_555 1_555
H2 N1 1_555 1_555
O2 C1 1_555 1_555
C1 C2 1_555 1_555
C2 N1 1_555 1_555
H3 C2 1_555 1_555
C3 C2 1_555 1_555
H4 C3 1_555 1_555
H5 C3 1_555 1_555
C4 S1 1_555 1_555
H6 C4 1_555 1_555
H7 C4 1_555 1_555
N1 C4 1_555 1_555

#END
