
#######################################################################
#
#                 Cambridge Crystallographic Data Centre
#                                CCDC 
#
#######################################################################
#
# If this CIF has been generated from an entry in the Cambridge 
# Structural Database, then it will include bibliographic, chemical, 
# crystal, experimental, refinement or atomic coordinate data resulting 
# from the CCDC's data processing and validation procedures.
#
#######################################################################

data_NELWAE
_chemical_formula_moiety         'C34 H25 N4 O4 3+,3(H1 O4 S1 1-),3(H2 O1)'
_chemical_name_systematic        
"1,1'''-bis(4-carboxyphenyl)-4,4':2',2'':4'',4'''-quaterpyridine-1,1',1'''-triium tris(hydrogen sulfate) trihydrate"
_symmetry_cell_setting           triclinic
_symmetry_space_group_name_H-M   'P -1'
_symmetry_Int_Tables_number      2
_space_group_name_Hall           '-P 1'
loop_
_symmetry_equiv_pos_site_id
_symmetry_equiv_pos_as_xyz
1 x,y,z
2 -x,-y,-z
_cell_length_a                   10.3525(16)
_cell_length_b                   10.7378(17)
_cell_length_c                   18.030(3)
_cell_angle_alpha                99.452(3)
_cell_angle_beta                 90.168(3)
_cell_angle_gamma                113.477(2)
_cell_volume                     1808.22
_exptl_crystal_colour            yellow
_exptl_crystal_description       block
_cell_formula_units_Z            2
loop_
_atom_site_label
_atom_site_type_symbol
_atom_site_fract_x
_atom_site_fract_y
_atom_site_fract_z
O1 O 0.92561(15) 1.10520(15) 0.51528(9)
O2 O 1.02739(15) 1.33560(15) 0.52903(8)
H1 H 1.0970 1.3251 0.5464
O3 O -0.27050(17) -0.15988(15) -0.01421(9)
O4 O -0.08780(16) -0.02493(15) -0.07120(9)
H2 H -0.0807 -0.0998 -0.0872
N1 N 0.40743(17) 1.24393(17) 0.41733(9)
N2 N -0.21473(18) 1.25687(17) 0.27887(9)
H3 H -0.291(3) 1.261(3) 0.2614(15)
N3 N -0.43852(17) 1.01726(17) 0.21951(9)
N4 N -0.31326(18) 0.42691(17) 0.07066(9)
C1 C 0.9193(2) 1.2138(2) 0.51124(11)
C2 C 0.7875(2) 1.2239(2) 0.48406(11)
C3 C 0.7749(2) 1.3495(2) 0.49454(11)
H4 H 0.8533 1.4315 0.5162
C4 C 0.6497(2) 1.3566(2) 0.47385(11)
H5 H 0.6398 1.4420 0.4830
C5 C 0.5384(2) 1.2358(2) 0.43925(11)
C6 C 0.5503(2) 1.1100(2) 0.42482(11)
H6 H 0.4744 1.0294 0.3994
C7 C 0.6755(2) 1.1043(2) 0.44831(11)
H7 H 0.6848 1.0187 0.4400
C8 C 0.4131(2) 1.3570(2) 0.39071(11)
H8 H 0.5020 1.4301 0.3881
C9 C 0.2920(2) 1.3665(2) 0.36762(11)
H9 H 0.2968 1.4472 0.3505
C10 C 0.1616(2) 1.2577(2) 0.36923(11)
C11 C 0.1581(2) 1.1442(2) 0.39861(11)
H10 H 0.0704 1.0699 0.4018
C12 C 0.2822(2) 1.1404(2) 0.42297(11)
H11 H 0.2797 1.0640 0.4440
C13 C 0.0303(2) 1.2604(2) 0.33791(10)
C14 C -0.0754(2) 1.1377(2) 0.30162(11)
H12 H -0.0635 1.0537 0.2981
C15 C -0.1984(2) 1.1370(2) 0.27048(10)
C16 C -0.1143(2) 1.3771(2) 0.31237(11)
H13 H -0.1298 1.4593 0.3161
C17 C 0.0115(2) 1.3830(2) 0.34159(11)
H14 H 0.0842 1.4690 0.3639
C18 C -0.3124(2) 1.0111(2) 0.22774(10)
C19 C -0.2847(2) 0.8979(2) 0.19778(11)
H15 H -0.1924 0.9006 0.2041
C20 C -0.3929(2) 0.7803(2) 0.15834(11)
C21 C -0.5260(2) 0.7837(2) 0.15071(11)
H16 H -0.6039 0.7052 0.1251
C22 C -0.5425(2) 0.9037(2) 0.18122(11)
H17 H -0.6328 0.9052 0.1745
C23 C -0.3659(2) 0.6569(2) 0.12607(10)
C24 C -0.2285(2) 0.6669(2) 0.11696(12)
H18 H -0.1511 0.7542 0.1294
C25 C -0.2046(2) 0.5515(2) 0.09017(12)
H19 H -0.1105 0.5593 0.0853
C26 C -0.4481(2) 0.4142(2) 0.07635(12)
H20 H -0.5241 0.3266 0.0610
C27 C -0.4756(2) 0.5274(2) 0.10426(12)
H21 H -0.5706 0.5172 0.1087
C28 C -0.2838(2) 0.3059(2) 0.04416(11)
C29 C -0.1807(2) 0.3153(2) -0.00609(12)
H22 H -0.1311 0.3990 -0.0239
C30 C -0.1511(2) 0.2009(2) -0.02992(12)
H23 H -0.0795 0.2064 -0.0636
C31 C -0.2260(2) 0.0778(2) -0.00458(11)
C32 C -0.3305(2) 0.0702(2) 0.04465(12)
H24 H -0.3825 -0.0143 0.0612
C33 C -0.3600(2) 0.1844(2) 0.06997(12)
H25 H -0.4308 0.1796 0.1042
C34 C -0.1979(2) -0.0481(2) -0.03005(11)
S1 S 0.67049(5) 0.70509(5) 0.36858(3)
O5 O 0.80404(15) 0.82150(15) 0.34654(8)
H26 H 0.855(3) 0.790(3) 0.3311(18)
O6 O 0.58197(15) 0.77541(15) 0.39706(8)
O7 O 0.60538(15) 0.60138(15) 0.30168(8)
O8 O 0.71806(15) 0.64915(15) 0.42674(8)
S2 S 0.09343(5) 0.79833(5) 0.25983(3)
O9 O -0.02276(15) 0.71200(15) 0.29903(9)
O10 O 0.11896(15) 0.71581(15) 0.19337(8)
O11 O 0.07452(15) 0.91768(15) 0.24379(8)
O12 O 0.22887(16) 0.85683(16) 0.31384(9)
H27 H 0.258(4) 0.786(4) 0.3159(19)
S3 S 0.12929(5) 0.39088(5) 0.14583(3)
O13 O 0.17728(16) 0.43292(16) 0.07565(8)
O14 O 0.01423(16) 0.44736(17) 0.17019(9)
H28 H 0.050(3) 0.526(3) 0.1781(17)
O15 O 0.0526(2) 0.24349(17) 0.14128(10)
O16 O 0.24201(18) 0.4498(2) 0.20590(9)
O17 O 0.58195(17) 0.33388(18) 0.23971(9)
H29 H 0.486(4) 0.278(4) 0.2314(18)
H30 H 0.590(3) 0.410(3) 0.2550(17)
O18 O 0.31987(17) 0.67403(17) 0.32156(9)
H31 H 0.402(3) 0.702(3) 0.3380(16)
H32 H 0.305(3) 0.611(3) 0.2825(17)
O19 O 0.29807(18) 0.1722(2) 0.21228(10)
H33 H 0.260(4) 0.219(4) 0.204(2)
H34 H 0.234(4) 0.087(4) 0.218(2)
loop_
_geom_bond_atom_site_label_1
_geom_bond_atom_site_label_2
_geom_bond_site_symmetry_1
_geom_bond_site_symmetry_2
O1 C1 1_555 1_555
O2 H1 1_555 1_555
O3 C34 1_555 1_555
O4 H2 1_555 1_555
N1 C5 1_555 1_555
N2 H3 1_555 1_555
N3 C18 1_555 1_555
N4 C25 1_555 1_555
C1 O2 1_555 1_555
C2 C1 1_555 1_555
C3 C2 1_555 1_555
H4 C3 1_555 1_555
C4 C3 1_555 1_555
H5 C4 1_555 1_555
C5 C4 1_555 1_555
C6 C5 1_555 1_555
H6 C6 1_555 1_555
C7 C2 1_555 1_555
H7 C7 1_555 1_555
C8 N1 1_555 1_555
H8 C8 1_555 1_555
C9 C8 1_555 1_555
H9 C9 1_555 1_555
C10 C9 1_555 1_555
C11 C10 1_555 1_555
H10 C11 1_555 1_555
C12 N1 1_555 1_555
H11 C12 1_555 1_555
C13 C10 1_555 1_555
C14 C13 1_555 1_555
H12 C14 1_555 1_555
C15 N2 1_555 1_555
C16 N2 1_555 1_555
H13 C16 1_555 1_555
C17 C13 1_555 1_555
H14 C17 1_555 1_555
C18 C15 1_555 1_555
C19 C18 1_555 1_555
H15 C19 1_555 1_555
C20 C19 1_555 1_555
C21 C20 1_555 1_555
H16 C21 1_555 1_555
C22 N3 1_555 1_555
H17 C22 1_555 1_555
C23 C20 1_555 1_555
C24 C23 1_555 1_555
H18 C24 1_555 1_555
C25 C24 1_555 1_555
H19 C25 1_555 1_555
C26 N4 1_555 1_555
H20 C26 1_555 1_555
C27 C23 1_555 1_555
H21 C27 1_555 1_555
C28 N4 1_555 1_555
C29 C28 1_555 1_555
H22 C29 1_555 1_555
C30 C29 1_555 1_555
H23 C30 1_555 1_555
C31 C30 1_555 1_555
C32 C31 1_555 1_555
H24 C32 1_555 1_555
C33 C28 1_555 1_555
H25 C33 1_555 1_555
C34 O4 1_555 1_555
S1 O5 1_555 1_555
O5 H26 1_555 1_555
O6 S1 1_555 1_555
O7 S1 1_555 1_555
O8 S1 1_555 1_555
S2 O9 1_555 1_555
O10 S2 1_555 1_555
O11 S2 1_555 1_555
O12 S2 1_555 1_555
H27 O12 1_555 1_555
S3 O13 1_555 1_555
O14 S3 1_555 1_555
H28 O14 1_555 1_555
O15 S3 1_555 1_555
O16 S3 1_555 1_555
O17 H29 1_555 1_555
H30 O17 1_555 1_555
O18 H31 1_555 1_555
H32 O18 1_555 1_555
O19 H33 1_555 1_555
H34 O19 1_555 1_555
C6 C7 1_555 1_555
C11 C12 1_555 1_555
C14 C15 1_555 1_555
C16 C17 1_555 1_555
C21 C22 1_555 1_555
C26 C27 1_555 1_555
C31 C34 1_555 1_555
C32 C33 1_555 1_555

#END
