
#######################################################################
#
#                 Cambridge Crystallographic Data Centre
#                                CCDC 
#
#######################################################################
#
# If this CIF has been generated from an entry in the Cambridge 
# Structural Database, then it will include bibliographic, chemical, 
# crystal, experimental, refinement or atomic coordinate data resulting 
# from the CCDC's data processing and validation procedures.
#
#######################################################################

data_NELYAE
_chemical_name_common            
'(Tetrabenzocryptand[2.2.2])-sodium picrate dichloromethane solvate'
_chemical_formula_moiety         'C38 H44 N2 Na1 O6 1+,C6 H2 N3 O7 1-,C1 H2 Cl2'
_chemical_name_systematic        
'(1,20-Diaza-9,12,28,31,41,44-hexaoxabicyclo[18.18.8]hexatetracontane)-sodium picrate dichloromethane solvate'
_symmetry_cell_setting           triclinic
_symmetry_space_group_name_H-M   'P -1'
_symmetry_Int_Tables_number      2
_space_group_name_Hall           '-P 1'
loop_
_symmetry_equiv_pos_site_id
_symmetry_equiv_pos_as_xyz
1 x,y,z
2 -x,-y,-z
_cell_length_a                   12.299(10)
_cell_length_b                   14.264(11)
_cell_length_c                   15.317(19)
_cell_angle_alpha                63.29(8)
_cell_angle_beta                 81.12(9)
_cell_angle_gamma                77.38(6)
_cell_volume                     2337.51
_exptl_crystal_colour            colorless
_exptl_crystal_description       block
_cell_formula_units_Z            2
loop_
_atom_site_label
_atom_site_type_symbol
_atom_site_fract_x
_atom_site_fract_y
_atom_site_fract_z
O7 O 0.489(2) 1.011(2) -0.186(2)
C39 C 0.527(3) 0.937(3) -0.214(3)
C40 C 0.641(2) 0.922(2) -0.239(2)
N3 N 0.708(3) 1.001(3) -0.251(3)
O8 O 0.697(3) 1.030(3) -0.189(3)
O9 O 0.782(3) 1.012(3) -0.313(3)
C41 C 0.688(2) 0.846(2) -0.266(2)
C42 C 0.631(2) 0.771(2) -0.262(2)
N4 N 0.686(3) 0.682(3) -0.283(3)
O10 O 0.779(3) 0.678(2) -0.317(2)
O11 O 0.620(3) 0.627(3) -0.281(3)
C43 C 0.516(3) 0.781(2) -0.231(2)
C44 C 0.473(3) 0.862(3) -0.206(3)
N5 N 0.345(3) 0.870(2) -0.175(2)
O12 O 0.314(2) 0.916(2) -0.127(2)
O13 O 0.301(2) 0.818(2) -0.198(2)
H45 H 0.76373 0.84218 -0.29531
H46 H 0.46883 0.72762 -0.22260
Cl3 Cl 0.347(3) 0.862(3) 0.512(3)
Cl4 Cl 0.401(2) 1.022(3) 0.525(4)
C46 C 0.448(3) 0.922(7) 0.502(10)
H49 H 0.50725 0.87480 0.54442
H50 H 0.48451 0.94685 0.43520
C46A C 0.552(3) 1.078(7) 0.498(10)
Cl3A Cl 0.653(3) 1.138(3) 0.488(3)
Cl4A Cl 0.599(2) 0.978(3) 0.475(4)
H49A H 0.49275 1.12520 0.45558
H50A H 0.51549 1.05315 0.56480
Na1 Na 0.7434(9) 0.6398(9) 0.2169(11)
N1 N 0.733(2) 0.704(2) 0.370(2)
C1 C 0.616(3) 0.697(3) 0.427(3)
C2 C 0.547(3) 0.705(3) 0.349(2)
O1 O 0.5701(18) 0.6393(17) 0.3040(16)
C3 C 0.548(3) 0.535(3) 0.367(3)
C4 C 0.573(3) 0.475(3) 0.317(3)
O2 O 0.6895(17) 0.4641(16) 0.2865(16)
C5 C 0.719(3) 0.407(2) 0.235(2)
C6 C 0.682(2) 0.454(2) 0.135(2)
C7 C 0.745(3) 0.822(3) 0.334(2)
C8 C 0.850(2) 0.845(2) 0.264(2)
C9 C 0.921(4) 0.874(3) 0.307(3)
C10 C 1.015(3) 0.904(3) 0.240(3)
C11 C 1.032(3) 0.906(3) 0.153(3)
C12 C 0.958(3) 0.886(3) 0.109(3)
C13 C 0.861(3) 0.856(2) 0.169(2)
O3 O 0.7759(19) 0.8289(18) 0.1508(17)
C14 C 0.740(3) 0.892(3) 0.043(3)
C15 C 0.629(3) 0.879(3) 0.053(3)
O4 O 0.6273(18) 0.7731(17) 0.0662(16)
C16 C 0.532(2) 0.742(2) 0.073(2)
C17 C 0.430(3) 0.785(3) 0.103(3)
C18 C 0.340(3) 0.747(3) 0.108(3)
C19 C 0.340(3) 0.673(3) 0.072(3)
C20 C 0.443(3) 0.633(3) 0.041(3)
C21 C 0.538(2) 0.669(2) 0.036(2)
C22 C 0.646(2) 0.632(2) -0.001(2)
C23 C 0.817(3) 0.645(3) 0.454(3)
C24 C 0.828(3) 0.523(3) 0.489(3)
C25 C 0.783(3) 0.479(3) 0.586(3)
C26 C 0.784(4) 0.371(4) 0.620(3)
C27 C 0.821(3) 0.316(3) 0.571(3)
C28 C 0.858(3) 0.360(3) 0.468(3)
C29 C 0.862(3) 0.474(3) 0.436(3)
O5 O 0.8949(17) 0.5305(16) 0.3353(16)
C30 C 0.998(3) 0.488(3) 0.301(3)
C31 C 1.018(3) 0.570(3) 0.200(3)
O6 O 0.9381(18) 0.5879(17) 0.1435(16)
C32 C 0.951(3) 0.642(2) 0.043(2)
C33 C 1.025(3) 0.722(3) 0.003(3)
C34 C 1.034(3) 0.771(3) -0.095(2)
C35 C 0.985(3) 0.748(3) -0.153(3)
C36 C 0.911(3) 0.670(3) -0.112(3)
C37 C 0.905(2) 0.621(2) -0.010(2)
C38 C 0.834(2) 0.532(2) 0.032(2)
N2 N 0.7251(18) 0.5562(17) 0.0764(17)
H1 H 0.58556 0.75287 0.44738
H2 H 0.61056 0.63021 0.48391
H3 H 0.54664 0.77646 0.29833
H4 H 0.47074 0.70106 0.37700
H5 H 0.47468 0.53647 0.40078
H6 H 0.59923 0.50102 0.42488
H7 H 0.52388 0.51053 0.26126
H8 H 0.54794 0.40530 0.35519
H9 H 0.69525 0.33737 0.27266
H10 H 0.80129 0.38978 0.23120
H11 H 0.60122 0.46672 0.13432
H12 H 0.70837 0.40773 0.10063
H13 H 0.74823 0.83998 0.38947
H14 H 0.67989 0.87047 0.30068
H15 H 0.91906 0.86808 0.37031
H16 H 1.07753 0.93042 0.25435
H17 H 1.10431 0.92199 0.11294
H18 H 0.96605 0.89193 0.03701
H19 H 0.75663 0.96526 0.01525
H20 H 0.78608 0.86117 0.00135
H21 H 0.59039 0.89465 0.10987
H22 H 0.58730 0.93814 -0.00268
H23 H 0.42494 0.84716 0.11781
H24 H 0.26995 0.76707 0.14260
H25 H 0.27115 0.65255 0.06821
H26 H 0.44692 0.57225 0.02515
H27 H 0.63507 0.59653 -0.04012
H28 H 0.68090 0.69224 -0.04563
H29 H 0.78656 0.66371 0.50902
H30 H 0.88622 0.66862 0.43231
H31 H 0.75896 0.52023 0.62508
H32 H 0.75398 0.33506 0.69011
H33 H 0.81680 0.24060 0.60456
H34 H 0.87877 0.31942 0.42783
H35 H 0.99384 0.42086 0.29692
H36 H 1.05869 0.46801 0.34257
H37 H 1.09219 0.54790 0.17334
H38 H 1.02593 0.63289 0.20724
H39 H 1.06907 0.73589 0.04889
H40 H 1.07220 0.83364 -0.12851
H41 H 1.00412 0.78301 -0.22247
H42 H 0.87462 0.65388 -0.15772
H43 H 0.87744 0.46984 0.08244
H44 H 0.82682 0.50941 -0.01734
Cl1? Cl 0.154(3) 0.915(3) 0.594(3)
Cl2? Cl 0.029(2) 1.104(2) 0.471(3)
C45? C 0.024(2) 0.983(6) 0.565(7)
H47? H -0.01446 0.94223 0.54351
H48? H -0.01818 0.98812 0.61872
loop_
_geom_bond_atom_site_label_1
_geom_bond_atom_site_label_2
_geom_bond_site_symmetry_1
_geom_bond_site_symmetry_2
Na1 N1 1_555 1_555
N1 C1 1_555 1_555
C1 C2 1_555 1_555
C2 O1 1_555 1_555
O1 Na1 1_555 1_555
C3 O1 1_555 1_555
C4 C3 1_555 1_555
O2 Na1 1_555 1_555
C5 O2 1_555 1_555
C6 C5 1_555 1_555
C7 N1 1_555 1_555
C8 C7 1_555 1_555
C9 C8 1_555 1_555
C10 C9 1_555 1_555
C11 C10 1_555 1_555
C12 C11 1_555 1_555
C13 C8 1_555 1_555
O3 Na1 1_555 1_555
C14 O3 1_555 1_555
C15 C14 1_555 1_555
O4 Na1 1_555 1_555
C16 O4 1_555 1_555
C17 C16 1_555 1_555
C18 C17 1_555 1_555
C19 C18 1_555 1_555
C20 C19 1_555 1_555
C21 C16 1_555 1_555
C22 C21 1_555 1_555
C23 N1 1_555 1_555
C24 C23 1_555 1_555
C25 C24 1_555 1_555
C26 C25 1_555 1_555
C27 C26 1_555 1_555
C28 C27 1_555 1_555
C29 C24 1_555 1_555
O5 Na1 1_555 1_555
C30 O5 1_555 1_555
C31 C30 1_555 1_555
O6 Na1 1_555 1_555
C32 O6 1_555 1_555
C33 C32 1_555 1_555
C34 C33 1_555 1_555
C35 C34 1_555 1_555
C36 C35 1_555 1_555
C37 C32 1_555 1_555
C38 C37 1_555 1_555
N2 Na1 1_555 1_555
O7 C39 1_555 1_555
C39 C40 1_555 1_555
C40 N3 1_555 1_555
N3 O8 1_555 1_555
O9 N3 1_555 1_555
C41 C40 1_555 1_555
C42 C41 1_555 1_555
N4 C42 1_555 1_555
O10 N4 1_555 1_555
O11 N4 1_555 1_555
C43 C42 1_555 1_555
C44 C39 1_555 1_555
N5 C44 1_555 1_555
O12 N5 1_555 1_555
O13 N5 1_555 1_555
Cl3 C46 1_555 1_555
Cl4 C46 1_555 1_555
C46 H49 1_555 1_555
H1 C1 1_555 1_555
H2 C1 1_555 1_555
H3 C2 1_555 1_555
H4 C2 1_555 1_555
H5 C3 1_555 1_555
H6 C3 1_555 1_555
H7 C4 1_555 1_555
H8 C4 1_555 1_555
H9 C5 1_555 1_555
H10 C5 1_555 1_555
H11 C6 1_555 1_555
H12 C6 1_555 1_555
H13 C7 1_555 1_555
H14 C7 1_555 1_555
H15 C9 1_555 1_555
H16 C10 1_555 1_555
H17 C11 1_555 1_555
H18 C12 1_555 1_555
H19 C14 1_555 1_555
H20 C14 1_555 1_555
H21 C15 1_555 1_555
H22 C15 1_555 1_555
H23 C17 1_555 1_555
H24 C18 1_555 1_555
H25 C19 1_555 1_555
H26 C20 1_555 1_555
H27 C22 1_555 1_555
H28 C22 1_555 1_555
H29 C23 1_555 1_555
H30 C23 1_555 1_555
H31 C25 1_555 1_555
H32 C26 1_555 1_555
H33 C27 1_555 1_555
H34 C28 1_555 1_555
H35 C30 1_555 1_555
H36 C30 1_555 1_555
H37 C31 1_555 1_555
H38 C31 1_555 1_555
H39 C33 1_555 1_555
H40 C34 1_555 1_555
H41 C35 1_555 1_555
H42 C36 1_555 1_555
H43 C38 1_555 1_555
H44 C38 1_555 1_555
H45 C41 1_555 1_555
H46 C43 1_555 1_555
H50 C46 1_555 1_555
C46A Cl4 1_555 1_555
Cl3A C46A 1_555 1_555
Cl4A C46 1_555 1_555
H49A C46A 1_555 1_555
H50A C46A 1_555 1_555
C4 O2 1_555 1_555
C6 N2 1_555 1_555
C12 C13 1_555 1_555
C13 O3 1_555 1_555
C15 O4 1_555 1_555
C20 C21 1_555 1_555
C22 N2 1_555 1_555
C28 C29 1_555 1_555
C29 O5 1_555 1_555
C31 O6 1_555 1_555
C36 C37 1_555 1_555
C38 N2 1_555 1_555
C43 C44 1_555 1_555
C46A Cl4A 1_555 1_555

#END
