
#######################################################################
#
#                 Cambridge Crystallographic Data Centre
#                                CCDC 
#
#######################################################################
#
# If this CIF has been generated from an entry in the Cambridge 
# Structural Database, then it will include bibliographic, chemical, 
# crystal, experimental, refinement or atomic coordinate data resulting 
# from the CCDC's data processing and validation procedures.
#
#######################################################################

data_NEMFIW
_chemical_formula_moiety         'C22 H23 N2 O6 P1,C1 H1 Cl3'
_chemical_name_systematic        
'Dimethyl (1-anilino-2-hydroxy-2-(4-nitrophenyl)-1-phenylethyl)phosphonate chloroform solvate'
_symmetry_cell_setting           triclinic
_symmetry_space_group_name_H-M   'P -1'
_symmetry_Int_Tables_number      2
_space_group_name_Hall           '-P 1'
loop_
_symmetry_equiv_pos_site_id
_symmetry_equiv_pos_as_xyz
1 x,y,z
2 -x,-y,-z
_cell_length_a                   9.2060(10)
_cell_length_b                   9.2276(10)
_cell_length_c                   15.6411(17)
_cell_angle_alpha                87.880(2)
_cell_angle_beta                 76.036(2)
_cell_angle_gamma                87.726(2)
_cell_volume                     1287.9
_exptl_crystal_colour            yellow
_exptl_crystal_description       prismatic
_cell_formula_units_Z            2
loop_
_atom_site_label
_atom_site_type_symbol
_atom_site_fract_x
_atom_site_fract_y
_atom_site_fract_z
Cl1 Cl 0.15909(12) 0.41995(10) 0.53528(8)
Cl2 Cl 0.15934(16) 0.13385(12) 0.46893(8)
Cl3 Cl -0.0369(2) 0.20783(18) 0.63149(13)
C23 C 0.0514(5) 0.2726(4) 0.5279(3)
H22 H -0.0254 0.3049 0.4970
P1 P 0.44146(9) 0.47278(8) 0.17168(5)
O1 O 0.7378(2) 0.5145(2) 0.03982(13)
O2 O 1.1310(4) 1.1260(3) 0.1336(2)
O3 O 1.2917(3) 0.9596(3) 0.0786(2)
O4 O 0.3851(2) 0.5266(2) 0.09626(12)
O5 O 0.3242(2) 0.4815(2) 0.26250(13)
O6 O 0.4885(3) 0.3076(2) 0.17005(14)
N1 N 1.1625(4) 1.0045(3) 0.1065(2)
N2 N 0.7137(3) 0.4817(3) 0.21535(15)
C1 C 0.6027(3) 0.5758(3) 0.18773(17)
C2 C 0.6840(3) 0.6353(3) 0.09287(16)
H1 H 0.6109 0.6910 0.0675
C3 C 0.8118(3) 0.7312(3) 0.09492(16)
C4 C 0.7847(4) 0.8789(3) 0.1102(2)
H2 H 0.6879 0.9177 0.1172
C5 C 0.8980(4) 0.9682(3) 0.1152(2)
H3 H 0.8786 1.0662 0.1263
C6 C 1.0405(4) 0.9096(3) 0.10347(19)
C7 C 1.0724(4) 0.7651(3) 0.08728(19)
H4 H 1.1700 0.7277 0.0790
C8 C 0.9574(3) 0.6768(3) 0.08357(18)
H5 H 0.9777 0.5786 0.0732
C9 C 0.5540(3) 0.7072(3) 0.24533(16)
C10 C 0.4362(4) 0.7970(3) 0.2334(2)
H6 H 0.3763 0.7687 0.1973
C11 C 0.4065(4) 0.9290(3) 0.2748(2)
H7 H 0.3283 0.9894 0.2654
C12 C 0.4921(5) 0.9705(4) 0.3296(2)
H8 H 0.4728 1.0593 0.3571
C13 C 0.6065(4) 0.8800(3) 0.3438(2)
H9 H 0.6631 0.9069 0.3821
C14 C 0.6383(4) 0.7492(3) 0.30159(18)
H10 H 0.7168 0.6893 0.3112
C15 C 0.6973(3) 0.3948(3) 0.29248(17)
C16 C 0.8093(4) 0.2912(3) 0.2948(2)
H11 H 0.8870 0.2776 0.2450
C17 C 0.8067(4) 0.2080(3) 0.3703(2)
H12 H 0.8831 0.1394 0.3711
C18 C 0.6927(4) 0.2256(3) 0.4439(2)
H13 H 0.6916 0.1696 0.4947
C19 C 0.5804(4) 0.3265(3) 0.4421(2)
H14 H 0.5026 0.3381 0.4920
C20 C 0.5805(4) 0.4120(3) 0.36700(18)
H15 H 0.5032 0.4799 0.3666
C21 C 0.1804(4) 0.4189(5) 0.2726(3)
H16 H 0.1500 0.4296 0.2181
H17 H 0.1082 0.4675 0.3182
H18 H 0.1869 0.3177 0.2884
C22 C 0.5387(5) 0.2267(4) 0.0933(2)
H19 H 0.5246 0.2837 0.0431
H20 H 0.4827 0.1399 0.0987
H21 H 0.6431 0.2014 0.0857
H23 H 0.699(3) 0.516(3) -0.0025(16)
H24 H 0.773(3) 0.449(3) 0.1699(14)
loop_
_geom_bond_atom_site_label_1
_geom_bond_atom_site_label_2
_geom_bond_site_symmetry_1
_geom_bond_site_symmetry_2
Cl1 C23 1_555 1_555
Cl2 C23 1_555 1_555
Cl3 C23 1_555 1_555
P1 O4 1_555 1_555
O1 C2 1_555 1_555
O2 N1 1_555 1_555
O3 N1 1_555 1_555
O5 P1 1_555 1_555
O6 P1 1_555 1_555
N1 C6 1_555 1_555
N2 C1 1_555 1_555
C1 P1 1_555 1_555
C2 C1 1_555 1_555
H1 C2 1_555 1_555
C3 C2 1_555 1_555
C4 C3 1_555 1_555
H2 C4 1_555 1_555
C5 C4 1_555 1_555
H3 C5 1_555 1_555
C6 C5 1_555 1_555
C7 C6 1_555 1_555
H4 C7 1_555 1_555
C8 C3 1_555 1_555
H5 C8 1_555 1_555
C9 C1 1_555 1_555
C10 C9 1_555 1_555
H6 C10 1_555 1_555
C11 C10 1_555 1_555
H7 C11 1_555 1_555
C12 C11 1_555 1_555
H8 C12 1_555 1_555
C13 C12 1_555 1_555
H9 C13 1_555 1_555
C14 C9 1_555 1_555
H10 C14 1_555 1_555
C15 N2 1_555 1_555
C16 C15 1_555 1_555
H11 C16 1_555 1_555
C17 C16 1_555 1_555
H12 C17 1_555 1_555
C18 C17 1_555 1_555
H13 C18 1_555 1_555
C19 C18 1_555 1_555
H14 C19 1_555 1_555
C20 C15 1_555 1_555
H15 C20 1_555 1_555
C21 O5 1_555 1_555
H16 C21 1_555 1_555
H17 C21 1_555 1_555
H18 C21 1_555 1_555
C22 O6 1_555 1_555
H19 C22 1_555 1_555
H20 C22 1_555 1_555
H21 C22 1_555 1_555
C23 H22 1_555 1_555
H23 O1 1_555 1_555
H24 N2 1_555 1_555
C7 C8 1_555 1_555
C13 C14 1_555 1_555
C19 C20 1_555 1_555

#END
