
#######################################################################
#
#                 Cambridge Crystallographic Data Centre
#                                CCDC 
#
#######################################################################
#
# If this CIF has been generated from an entry in the Cambridge 
# Structural Database, then it will include bibliographic, chemical, 
# crystal, experimental, refinement or atomic coordinate data resulting 
# from the CCDC's data processing and validation procedures.
#
#######################################################################

data_NEMFOC
_chemical_formula_moiety         'C24 H27 N2 O6 P1'
_chemical_name_systematic        
'Dimethyl (2-hydroxy-1-(4-methylphenyl)-1-((2-methylphenyl)amino)-2-(4-nitrophenyl)ethyl)phosphonate'
_symmetry_cell_setting           tetragonal
_symmetry_space_group_name_H-M   'I 4'
_symmetry_Int_Tables_number      79
_space_group_name_Hall           'I 4'
loop_
_symmetry_equiv_pos_site_id
_symmetry_equiv_pos_as_xyz
1 x,y,z
2 -x,-y,z
3 -y,x,z
4 y,-x,z
5 1/2+x,1/2+y,1/2+z
6 1/2-x,1/2-y,1/2+z
7 1/2-y,1/2+x,1/2+z
8 1/2+y,1/2-x,1/2+z
_cell_length_a                   22.7708(18)
_cell_length_b                   22.7708(18)
_cell_length_c                   9.6564(9)
_cell_angle_alpha                90
_cell_angle_beta                 90
_cell_angle_gamma                90
_cell_volume                     5006.93
_exptl_crystal_colour            'light colorless'
_exptl_crystal_description       prism
_cell_formula_units_Z            8
loop_
_atom_site_label
_atom_site_type_symbol
_atom_site_fract_x
_atom_site_fract_y
_atom_site_fract_z
C1 C 0.64017(19) 0.2015(2) 0.4618(5)
H1 H 0.6215 0.2372 0.4910
H2 H 0.6671 0.2098 0.3880
H3 H 0.6611 0.1846 0.5384
C2 C 0.59478(16) 0.15930(18) 0.4124(4)
C3 C 0.59037(19) 0.10369(19) 0.4708(4)
H4 H 0.6164 0.0932 0.5407
C4 C 0.54874(18) 0.06364(18) 0.4286(4)
H5 H 0.5466 0.0268 0.4698
C5 C 0.51015(19) 0.07898(18) 0.3240(4)
H6 H 0.4820 0.0522 0.2942
C6 C 0.51317(16) 0.13443(16) 0.2630(4)
H7 H 0.4869 0.1441 0.1929
C7 C 0.55454(16) 0.17537(17) 0.3051(4)
N1 N 0.56253(13) 0.23075(14) 0.2451(3)
H8 H 0.5967 0.2463 0.2543
C8 C 0.51907(16) 0.26514(17) 0.1687(4)
C9 C 0.50135(16) 0.23747(17) 0.0302(4)
C10 C 0.53772(16) 0.19578(18) -0.0333(4)
H9 H 0.5722 0.1840 0.0103
C11 C 0.52282(18) 0.17188(18) -0.1606(4)
H10 H 0.5478 0.1446 -0.2014
C12 C 0.47105(17) 0.18789(17) -0.2292(4)
C13 C 0.43625(18) 0.2308(2) -0.1675(4)
H11 H 0.4024 0.2433 -0.2125
C14 C 0.45087(17) 0.25544(19) -0.0404(4)
H12 H 0.4268 0.2841 -0.0019
C15 C 0.4524(2) 0.1578(2) -0.3610(5)
H13 H 0.4857 0.1535 -0.4210
H14 H 0.4229 0.1810 -0.4064
H15 H 0.4366 0.1198 -0.3395
C16 C 0.54869(17) 0.32613(17) 0.1392(4)
H16 H 0.5179 0.3543 0.1140
C17 C 0.59222(16) 0.32240(16) 0.0209(4)
C18 C 0.64826(16) 0.29891(16) 0.0363(4)
H17 H 0.6611 0.2867 0.1231
C19 C 0.68493(16) 0.29363(17) -0.0775(4)
H18 H 0.7222 0.2774 -0.0680
C20 C 0.66550(17) 0.31282(17) -0.2048(4)
C21 C 0.61120(18) 0.3382(2) -0.2233(4)
H19 H 0.5996 0.3518 -0.3098
C22 C 0.57426(18) 0.3430(2) -0.1100(4)
H20 H 0.5373 0.3599 -0.1203
C23 C 0.35825(19) 0.2167(2) 0.3224(5)
H21 H 0.3304 0.2434 0.2822
H22 H 0.3618 0.2246 0.4197
H23 H 0.3450 0.1771 0.3091
C24 C 0.4805(2) 0.3296(3) 0.5170(5)
H24 H 0.5131 0.3518 0.4814
H25 H 0.4886 0.3183 0.6109
H26 H 0.4457 0.3533 0.5143
N2 N 0.70395(17) 0.30719(16) -0.3266(4)
O1 O 0.57477(12) 0.34480(12) 0.2660(3)
H27 H 0.6094 0.3351 0.2672
O2 O 0.47206(13) 0.27755(14) 0.4330(3)
O3 O 0.41454(12) 0.22433(13) 0.2567(3)
O4 O 0.42393(12) 0.33723(14) 0.2403(3)
O5 O 0.74946(15) 0.27975(16) -0.3148(4)
O6 O 0.68822(15) 0.33099(15) -0.4357(3)
P1 P 0.45281(4) 0.28134(4) 0.27677(10)
loop_
_geom_bond_atom_site_label_1
_geom_bond_atom_site_label_2
_geom_bond_site_symmetry_1
_geom_bond_site_symmetry_2
C1 H1 1_555 1_555
H2 C1 1_555 1_555
H3 C1 1_555 1_555
C2 C1 1_555 1_555
C3 C2 1_555 1_555
H4 C3 1_555 1_555
C4 C3 1_555 1_555
H5 C4 1_555 1_555
C5 C4 1_555 1_555
H6 C5 1_555 1_555
C6 C5 1_555 1_555
H7 C6 1_555 1_555
C7 C2 1_555 1_555
N1 C7 1_555 1_555
H8 N1 1_555 1_555
C8 N1 1_555 1_555
C9 C8 1_555 1_555
C10 C9 1_555 1_555
H9 C10 1_555 1_555
C11 C10 1_555 1_555
H10 C11 1_555 1_555
C12 C11 1_555 1_555
C13 C12 1_555 1_555
H11 C13 1_555 1_555
C14 C9 1_555 1_555
H12 C14 1_555 1_555
C15 C12 1_555 1_555
H13 C15 1_555 1_555
H14 C15 1_555 1_555
H15 C15 1_555 1_555
C16 C8 1_555 1_555
H16 C16 1_555 1_555
C17 C16 1_555 1_555
C18 C17 1_555 1_555
H17 C18 1_555 1_555
C19 C18 1_555 1_555
H18 C19 1_555 1_555
C20 C19 1_555 1_555
C21 C20 1_555 1_555
H19 C21 1_555 1_555
C22 C17 1_555 1_555
H20 C22 1_555 1_555
C23 H21 1_555 1_555
H22 C23 1_555 1_555
H23 C23 1_555 1_555
C24 H24 1_555 1_555
H25 C24 1_555 1_555
H26 C24 1_555 1_555
N2 C20 1_555 1_555
O1 C16 1_555 1_555
H27 O1 1_555 1_555
O2 C24 1_555 1_555
O3 C23 1_555 1_555
O4 P1 1_555 1_555
O5 N2 1_555 1_555
O6 N2 1_555 1_555
P1 C8 1_555 1_555
C6 C7 1_555 1_555
C13 C14 1_555 1_555
C21 C22 1_555 1_555
O2 P1 1_555 1_555
O3 P1 1_555 1_555

#END
