
#######################################################################
#
#                 Cambridge Crystallographic Data Centre
#                                CCDC 
#
#######################################################################
#
# If this CIF has been generated from an entry in the Cambridge 
# Structural Database, then it will include bibliographic, chemical, 
# crystal, experimental, refinement or atomic coordinate data resulting 
# from the CCDC's data processing and validation procedures.
#
#######################################################################

data_NEMJAT
_chemical_formula_moiety         'C60 H32 S1,C2 H3 N1'
_chemical_name_systematic        
'(-)-(M,M)-2,5-bis(15-ethynylhexahelicen-2-yl)thiophene acetonitrile solvate'
_symmetry_cell_setting           hexagonal
_symmetry_space_group_name_H-M   'P 65 2 2'
_symmetry_Int_Tables_number      179
_space_group_name_Hall           "P 65 2' (0,0,1)"
loop_
_symmetry_equiv_pos_site_id
_symmetry_equiv_pos_as_xyz
1 x,y,z
2 x-y,x,5/6+z
3 -y,x-y,2/3+z
4 -x,-y,1/2+z
5 -x+y,-x,1/3+z
6 y,-x+y,1/6+z
7 -y,-x,1/6-z
8 x-y,-y,-z
9 x,x-y,5/6-z
10 y,x,2/3-z
11 -x+y,y,1/2-z
12 -x,-x+y,1/3-z
_cell_length_a                   9.74790(10)
_cell_length_b                   9.74790(10)
_cell_length_c                   74.4921(7)
_cell_angle_alpha                90
_cell_angle_beta                 90
_cell_angle_gamma                120
_cell_volume                     6130.04
_exptl_crystal_colour            yellow
_exptl_crystal_description       plate
_cell_formula_units_Z            6
_exptl_crystal_recrystallization_method 'Vapour deposition'
_exptl_crystal_preparation       ', Luminescent'
loop_
_atom_site_label
_atom_site_type_symbol
_atom_site_fract_x
_atom_site_fract_y
_atom_site_fract_z
S1 S 0.51572(4) 0.48428(4) 0.5833
C1 C 0.7124(2) 0.7792(2) 0.56723(3)
C2 C 0.7358(2) 0.9180(2) 0.55937(2)
H1 H 0.6496 0.9333 0.5580
C3 C 0.7425(2) 0.9122(2) 0.51825(2)
H2 H 0.8459 0.9936 0.5201
C4 C 0.8522(3) 0.7594(2) 0.50496(3)
C5 C 0.8860(2) 1.0372(2) 0.55331(3)
C6 C 0.7173(3) 0.7713(3) 0.51073(3)
C7 C 0.5583(2) 0.6688(2) 0.57520(3)
C8 C 0.9124(2) 1.1847(2) 0.54527(3)
C9 C 0.3563(3) 0.9859(3) 0.52509(3)
H3 H 0.2696 1.0046 0.5251
C10 C 0.6161(2) 0.9354(2) 0.52316(3)
C11 C 0.5623(3) 0.6464(2) 0.50812(3)
H4 H 0.5447 0.5496 0.5038
C12 C 0.9902(3) 0.8683(3) 0.56307(3)
H5 H 1.0745 0.8494 0.5639
C13 C 1.0176(2) 1.0159(2) 0.55655(2)
C14 C 0.8417(3) 0.7520(3) 0.56808(3)
H6 H 0.8256 0.6526 0.5721
C15 C 0.4600(3) 0.8122(3) 0.51911(3)
C16 C 0.9630(3) 0.7551(3) 0.49977(3)
H7 H 1.0532 0.7515 0.4955
C17 C 0.4341(3) 0.6928(3) 0.57878(3)
H8 H 0.4335 0.7846 0.5755
C18 C 0.8159(3) 1.3655(3) 0.53750(3)
C19 C 0.5390(3) 1.2698(3) 0.53182(3)
H9 H 0.4540 1.2879 0.5316
C20 C 1.0680(2) 1.3153(3) 0.54610(3)
C21 C 1.1968(2) 1.2919(3) 0.55020(3)
H10 H 1.2992 1.3782 0.5501
C22 C 0.7884(2) 1.2078(2) 0.53780(3)
C23 C 1.1743(3) 1.1466(3) 0.55433(3)
H11 H 1.2629 1.1318 0.5557
C24 C 0.6866(3) 1.3923(3) 0.53455(3)
H12 H 0.7041 1.4952 0.5345
C25 C 0.3310(3) 0.8403(3) 0.52102(3)
H13 H 0.2258 0.7554 0.5194
C26 C 0.6396(2) 1.0837(2) 0.53052(3)
C27 C 1.0941(3) 1.4712(3) 0.54325(3)
H14 H 1.1968 1.5571 0.5434
C28 C 0.4370(3) 0.6673(3) 0.51208(3)
H15 H 0.3345 0.5845 0.5101
C29 C 0.5114(3) 1.1128(3) 0.52936(3)
C30 C 0.9704(3) 1.4955(3) 0.54027(3)
H16 H 0.9873 1.5981 0.5400
C1F C 0.2208(2) 0.2876(2) 0.59944(3)
C2F C 0.0820(2) 0.2642(2) 0.60730(2)
H1F H 0.0667 0.3504 0.6087
C3F C 0.0878(2) 0.2575(2) 0.64842(2)
H2F H 0.0064 0.1541 0.6466
C4F C 0.2406(2) 0.1478(3) 0.66171(3)
C5F C -0.0372(2) 0.1140(2) 0.61336(3)
C6F C 0.2287(3) 0.2827(3) 0.65594(3)
C7F C 0.3312(2) 0.4417(2) 0.59147(3)
C8F C -0.1847(2) 0.0876(2) 0.62140(3)
C9F C 0.0141(3) 0.6437(3) 0.64158(3)
H3F H -0.0046 0.7304 0.6416
C10F C 0.0646(2) 0.3839(2) 0.64351(3)
C11F C 0.3536(2) 0.4377(3) 0.65855(3)
H4F H 0.4504 0.4553 0.6629
C12F C 0.1317(3) 0.0098(3) 0.60360(3)
H5F H 0.1506 -0.0745 0.6028
C13F C -0.0159(2) -0.0176(2) 0.61012(2)
C14F C 0.2480(3) 0.1583(3) 0.59859(3)
H6F H 0.3474 0.1744 0.5946
C15F C 0.1878(3) 0.5400(3) 0.64756(3)
C16F C 0.2449(3) 0.0370(3) 0.66690(3)
H7F H 0.2485 -0.0532 0.6712
C17F C 0.3072(3) 0.5659(3) 0.58789(3)
H8F H 0.2154 0.5665 0.5912
C18F C -0.3655(3) 0.1841(3) 0.62917(3)
C19F C -0.2698(3) 0.4610(3) 0.63485(3)
H9F H -0.2879 0.5460 0.6351
C20F C -0.3153(3) -0.0680(2) 0.62057(3)
C21F C -0.2919(3) -0.1968(2) 0.61647(3)
H10F H -0.3782 -0.2992 0.6166
C22F C -0.2078(2) 0.2116(2) 0.62887(3)
C23F C -0.1466(3) -0.1743(3) 0.61234(3)
H11F H -0.1318 -0.2629 0.6110
C24F C -0.3923(3) 0.3134(3) 0.63212(3)
H12F H -0.4952 0.2959 0.6322
C25F C 0.1597(3) 0.6690(3) 0.64565(3)
H13F H 0.2446 0.7742 0.6473
C26F C -0.0837(2) 0.3604(2) 0.63615(3)
C27F C -0.4712(3) -0.0941(3) 0.62342(3)
H14F H -0.5571 -0.1968 0.6233
C28F C 0.3327(3) 0.5630(3) 0.65459(3)
H15F H 0.4155 0.6655 0.6566
C29F C -0.1128(3) 0.4886(3) 0.63731(3)
C30F C -0.4955(3) 0.0296(3) 0.62640(3)
H16F H -0.5981 0.0127 0.6267
C31? C 0.8228(9) 0.3812(8) 0.58799(9)
N1? N 0.9153(7) 0.5007(7) 0.59155(6)
C32? C 0.6956(8) 0.2145(9) 0.58332(10)
H17? H 0.6368 0.2170 0.5728
H18? H 0.6229 0.1681 0.5935
H19? H 0.7448 0.1503 0.5807
loop_
_geom_bond_atom_site_label_1
_geom_bond_atom_site_label_2
_geom_bond_site_symmetry_1
_geom_bond_site_symmetry_2
S1 C7 1_555 1_555
C1 C2 1_555 1_555
C2 H1 1_555 1_555
C3 H2 1_555 1_555
C4 C6 1_555 1_555
C5 C2 1_555 1_555
C6 C3 1_555 1_555
C7 C1 1_555 1_555
C8 C5 1_555 1_555
C9 H3 1_555 1_555
C10 C3 1_555 1_555
C11 C6 1_555 1_555
H4 C11 1_555 1_555
C12 H5 1_555 1_555
C13 C5 1_555 1_555
C14 C1 1_555 1_555
H6 C14 1_555 1_555
C15 C10 1_555 1_555
C16 C4 1_555 1_555
H7 C16 1_555 1_555
C17 C7 1_555 1_555
H8 C17 1_555 1_555
C18 C22 1_555 1_555
C19 H9 1_555 1_555
C20 C8 1_555 1_555
C21 C20 1_555 1_555
H10 C21 1_555 1_555
C22 C8 1_555 1_555
C23 C13 1_555 1_555
H11 C23 1_555 1_555
C24 C18 1_555 1_555
H12 C24 1_555 1_555
C25 C9 1_555 1_555
H13 C25 1_555 1_555
C26 C10 1_555 1_555
C27 C20 1_555 1_555
H14 C27 1_555 1_555
C28 C11 1_555 1_555
H15 C28 1_555 1_555
C29 C9 1_555 1_555
C30 C18 1_555 1_555
H16 C30 1_555 1_555
C1F C2F 1_555 1_555
C2F H1F 1_555 1_555
C3F H2F 1_555 1_555
C4F C6F 1_555 1_555
C5F C2F 1_555 1_555
C6F C3F 1_555 1_555
C7F S1 1_555 1_555
C8F C5F 1_555 1_555
C9F H3F 1_555 1_555
C10F C3F 1_555 1_555
C11F C6F 1_555 1_555
H4F C11F 1_555 1_555
C12F H5F 1_555 1_555
C13F C5F 1_555 1_555
C14F C1F 1_555 1_555
H6F C14F 1_555 1_555
C15F C10F 1_555 1_555
C16F C4F 1_555 1_555
H7F C16F 1_555 1_555
C17F C17 1_555 1_555
H8F C17F 1_555 1_555
C18F C22F 1_555 1_555
C19F H9F 1_555 1_555
C20F C8F 1_555 1_555
C21F C20F 1_555 1_555
H10F C21F 1_555 1_555
C22F C8F 1_555 1_555
C23F C13F 1_555 1_555
H11F C23F 1_555 1_555
C24F C18F 1_555 1_555
H12F C24F 1_555 1_555
C25F C9F 1_555 1_555
H13F C25F 1_555 1_555
C26F C10F 1_555 1_555
C27F C20F 1_555 1_555
H14F C27F 1_555 1_555
C28F C11F 1_555 1_555
H15F C28F 1_555 1_555
C29F C9F 1_555 1_555
C30F C18F 1_555 1_555
H16F C30F 1_555 1_555
C12 C13 1_555 1_555
C12 C14 1_555 1_555
C15 C25 1_555 1_555
C15 C28 1_555 1_555
C19 C24 1_555 1_555
C19 C29 1_555 1_555
C21 C23 1_555 1_555
C22 C26 1_555 1_555
C26 C29 1_555 1_555
C27 C30 1_555 1_555
C1F C7F 1_555 1_555
C7F C17F 1_555 1_555
C12F C13F 1_555 1_555
C12F C14F 1_555 1_555
C15F C25F 1_555 1_555
C15F C28F 1_555 1_555
C19F C24F 1_555 1_555
C19F C29F 1_555 1_555
C21F C23F 1_555 1_555
C22F C26F 1_555 1_555
C26F C29F 1_555 1_555
C27F C30F 1_555 1_555

#END
