
#######################################################################
#
#                 Cambridge Crystallographic Data Centre
#                                CCDC 
#
#######################################################################
#
# If this CIF has been generated from an entry in the Cambridge 
# Structural Database, then it will include bibliographic, chemical, 
# crystal, experimental, refinement or atomic coordinate data resulting 
# from the CCDC's data processing and validation procedures.
#
#######################################################################

data_NEMJEX
_chemical_formula_moiety         'C60 H32 S1,0.5(C1 H2 Cl2)'
_chemical_name_systematic        
'(+)-(P,P)-2,5-bis(15-ethynylhexahelicen-2-yl)thiophene dichloromethane solvate'
_symmetry_cell_setting           orthorhombic
_symmetry_space_group_name_H-M   'C 2 2 21'
_symmetry_Int_Tables_number      20
_space_group_name_Hall           'C 2n 2'
loop_
_symmetry_equiv_pos_site_id
_symmetry_equiv_pos_as_xyz
1 x,y,z
2 -x,-y,1/2+z
3 -x,y,1/2-z
4 x,-y,-z
5 1/2+x,1/2+y,z
6 1/2-x,1/2-y,1/2+z
7 1/2-x,1/2+y,1/2-z
8 1/2+x,1/2-y,-z
_cell_length_a                   9.54550(10)
_cell_length_b                   17.32290(10)
_cell_length_c                   49.1948(3)
_cell_angle_alpha                90
_cell_angle_beta                 90
_cell_angle_gamma                90
_cell_volume                     8134.64
_exptl_crystal_colour            yellow
_exptl_crystal_description       plate
_cell_formula_units_Z            8
_exptl_crystal_preparation       ', Luminescent'
loop_
_atom_site_label
_atom_site_type_symbol
_atom_site_fract_x
_atom_site_fract_y
_atom_site_fract_z
Cl1 Cl 0.35793(13) 0.50042(7) 0.23809(3)
C1 C 0.5000 0.5554(3) 0.2500
H1 H 0.5325 0.5885 0.2354
H1B H 0.4675 0.5885 0.2646
Cl1B Cl 0.64207(13) 0.50042(7) 0.26191(3)
S1 S 1.0000 0.80300(6) 0.2500
C2 C 0.7216(3) 0.63491(19) 0.34378(6)
C3 C 0.5915(4) 0.43374(19) 0.33099(7)
H3 H 0.6259 0.3836 0.3317
C4 C 0.4786(3) 0.79116(19) 0.29263(6)
C5 C 0.2065(3) 0.6063(2) 0.31223(7)
H4 H 0.1103 0.6144 0.3117
C6 C 0.6346(3) 0.57378(19) 0.33270(6)
C7 C 0.6697(3) 0.70868(19) 0.35069(6)
H5 H 0.5758 0.7197 0.3475
C8 C 0.2986(3) 0.6697(2) 0.30859(6)
C9 C 0.8862(3) 0.73385(19) 0.26266(6)
C10 C 0.8637(3) 0.6185(2) 0.35063(6)
C11 C 0.4961(3) 0.58602(18) 0.32126(6)
C12 C 0.7534(3) 0.7645(2) 0.36198(6)
C13 C 0.7522(3) 0.7562(2) 0.27546(6)
C14 C 0.5339(3) 0.71634(18) 0.29761(6)
C15 C 0.6705(3) 0.7002(2) 0.28805(6)
H6 H 0.7067 0.6507 0.2902
C16 C 0.5674(4) 0.8487(2) 0.28224(7)
H7 H 0.5344 0.8991 0.2808
C17 C 0.4455(3) 0.65748(19) 0.30994(6)
C18 C 0.4023(3) 0.5218(2) 0.32128(6)
C19 C 0.2454(3) 0.7446(2) 0.30252(7)
H8 H 0.1491 0.7528 0.3028
C20 C 0.6840(3) 0.4974(2) 0.33490(6)
C21 C 0.9355(3) 0.6616(2) 0.25715(7)
H9 H 0.8891 0.6167 0.2623
C22 C 0.7015(3) 0.83232(19) 0.27413(7)
H10 H 0.7591 0.8716 0.2677
C23 C 0.6925(3) 0.8371(2) 0.37011(7)
C24 C 0.3313(3) 0.8039(2) 0.29633(6)
H11 H 0.2948 0.8534 0.2945
C25 C 0.8284(4) 0.4830(2) 0.34198(7)
H12 H 0.8623 0.4327 0.3422
C26 C 0.2567(3) 0.5342(2) 0.31649(7)
H13 H 0.1956 0.4923 0.3163
C27 C 0.9491(3) 0.6781(2) 0.36122(7)
H14 H 1.0432 0.6681 0.3645
C28 C 0.9147(3) 0.5421(2) 0.34828(7)
H15 H 1.0094 0.5325 0.3511
C29 C 0.8976(4) 0.7496(2) 0.36669(7)
H16 H 0.9559 0.7881 0.3734
C30 C 0.4533(4) 0.4462(2) 0.32619(7)
H17 H 0.3914 0.4047 0.3261
C31 C 0.6390(4) 0.8946(2) 0.37742(8)
H18 H 0.5968 0.9401 0.3832
C2B C 1.2784(3) 0.63491(19) 0.15622(6)
C3B C 1.4085(4) 0.43374(19) 0.16901(7)
H3B H 1.3741 0.3836 0.1683
C4B C 1.5214(3) 0.79116(19) 0.20737(6)
C5B C 1.7935(3) 0.6063(2) 0.18777(7)
H4B H 1.8897 0.6144 0.1883
C6B C 1.3654(3) 0.57378(19) 0.16730(6)
C7B C 1.3303(3) 0.70868(19) 0.14931(6)
H5B H 1.4242 0.7197 0.1525
C8B C 1.7014(3) 0.6697(2) 0.19141(6)
C9B C 1.1138(3) 0.73385(19) 0.23734(6)
C10B C 1.1363(3) 0.6185(2) 0.14937(6)
C11B C 1.5039(3) 0.58602(18) 0.17874(6)
C12B C 1.2466(3) 0.7645(2) 0.13802(6)
C13B C 1.2478(3) 0.7562(2) 0.22454(6)
C14B C 1.4661(3) 0.71634(18) 0.20239(6)
C15B C 1.3295(3) 0.7002(2) 0.21195(6)
H6B H 1.2933 0.6507 0.2098
C16B C 1.4326(4) 0.8487(2) 0.21776(7)
H7B H 1.4656 0.8991 0.2192
C17B C 1.5545(3) 0.65748(19) 0.19006(6)
C18B C 1.5977(3) 0.5218(2) 0.17872(6)
C19B C 1.7546(3) 0.7446(2) 0.19748(7)
H8B H 1.8509 0.7528 0.1972
C20B C 1.3160(3) 0.4974(2) 0.16510(6)
C21B C 1.0645(3) 0.6616(2) 0.24285(7)
H9B H 1.1109 0.6167 0.2377
C22B C 1.2985(3) 0.83232(19) 0.22587(7)
H10B H 1.2409 0.8716 0.2323
C23B C 1.3075(3) 0.8371(2) 0.12989(7)
C24B C 1.6687(3) 0.8039(2) 0.20367(6)
H11B H 1.7052 0.8534 0.2055
C25B C 1.1716(4) 0.4830(2) 0.15802(7)
H12B H 1.1377 0.4327 0.1578
C26B C 1.7433(3) 0.5342(2) 0.18351(7)
H13B H 1.8044 0.4923 0.1837
C27B C 1.0509(3) 0.6781(2) 0.13878(7)
H14B H 0.9568 0.6681 0.1355
C28B C 1.0853(3) 0.5421(2) 0.15172(7)
H15B H 0.9906 0.5325 0.1489
C29B C 1.1024(4) 0.7496(2) 0.13331(7)
H16B H 1.0441 0.7881 0.1266
C30B C 1.5467(4) 0.4462(2) 0.17381(7)
H17B H 1.6086 0.4047 0.1739
C31B C 1.3610(4) 0.8946(2) 0.12258(8)
H18B H 1.4032 0.9401 0.1168
S2 S 0.50800(12) 0.5000 0.5000
C32 C 0.6341(3) 0.5933(2) 0.41371(6)
C33 C 0.4169(3) 0.6436(2) 0.39451(7)
C34 C 0.7373(4) 0.7376(2) 0.44663(6)
C35 C 0.5482(3) 0.6551(2) 0.40621(6)
H19 H 0.5795 0.7053 0.4091
C36 C 0.3390(3) 0.7103(2) 0.38573(7)
C37 C 0.5884(4) 0.5176(2) 0.40739(7)
C38 C 0.9373(4) 0.8256(2) 0.44219(7)
H20 H 0.9724 0.8756 0.4416
C39 C 0.4248(4) 0.6428(2) 0.48020(6)
C40 C 1.0247(4) 0.7653(2) 0.43921(7)
H21 H 1.1209 0.7735 0.4393
C41 C 0.8171(4) 0.4662(2) 0.41690(7)
H22 H 0.8786 0.4245 0.4172
C42 C 0.8239(3) 0.6761(2) 0.43620(7)
C43 C 0.8676(4) 0.5413(2) 0.42356(7)
C44 C 0.7739(3) 0.6037(2) 0.42535(6)
C45 C 0.3678(4) 0.5683(2) 0.39034(7)
H23 H 0.2784 0.5602 0.3834
C46 C 0.6013(4) 0.7261(2) 0.45938(7)
C47 C 0.3347(4) 0.7067(2) 0.48305(7)
H24 H 0.2447 0.6998 0.4899
C48 C 0.4515(3) 0.5069(2) 0.39648(7)
H25 H 0.4186 0.4571 0.3935
C49 C 0.5557(3) 0.6537(2) 0.46854(6)
H26 H 0.6153 0.6116 0.4668
C50 C 0.5650(4) 0.8660(2) 0.45905(7)
H27 H 0.5054 0.9082 0.4607
C51 C 0.5137(4) 0.7908(2) 0.46435(7)
C52 C 0.9716(3) 0.6888(2) 0.43587(7)
C53 C 1.0142(4) 0.5547(2) 0.42778(7)
H28 H 1.0759 0.5131 0.4277
C54 C 1.0638(4) 0.6258(2) 0.43182(7)
H29 H 1.1601 0.6342 0.4320
C55 C 0.3834(4) 0.5668(2) 0.49012(7)
C56 C 0.2814(4) 0.7658(2) 0.37794(8)
H30 H 0.2356 0.8098 0.3718
C57 C 0.3791(4) 0.7789(2) 0.47576(7)
H31 H 0.3200 0.8209 0.4783
C58 C 0.7911(4) 0.8133(2) 0.44632(7)
C59 C 0.6814(4) 0.4543(2) 0.41014(7)
H32 H 0.6489 0.4043 0.4073
C60 C 0.7010(4) 0.8770(2) 0.45151(7)
H33 H 0.7355 0.9270 0.4497
C61 C 0.2511(4) 0.5374(2) 0.49434(7)
H34 H 0.1697 0.5643 0.4901
C32C C 0.6341(3) 0.4067(2) 0.58629(6)
C33C C 0.4169(3) 0.3564(2) 0.60549(7)
C34C C 0.7373(4) 0.2624(2) 0.55337(6)
C35C C 0.5482(3) 0.3449(2) 0.59379(6)
H19C H 0.5795 0.2947 0.5909
C36C C 0.3390(3) 0.2897(2) 0.61427(7)
C37C C 0.5884(4) 0.4824(2) 0.59261(7)
C38C C 0.9373(4) 0.1744(2) 0.55781(7)
H20C H 0.9724 0.1244 0.5584
C39C C 0.4248(4) 0.3572(2) 0.51980(6)
C40C C 1.0247(4) 0.2347(2) 0.56079(7)
H21C H 1.1209 0.2265 0.5607
C41C C 0.8171(4) 0.5338(2) 0.58310(7)
H22C H 0.8786 0.5755 0.5828
C42C C 0.8239(3) 0.3239(2) 0.56380(7)
C43C C 0.8676(4) 0.4587(2) 0.57644(7)
C44C C 0.7739(3) 0.3963(2) 0.57465(6)
C45C C 0.3678(4) 0.4317(2) 0.60966(7)
H23C H 0.2784 0.4398 0.6166
C46C C 0.6013(4) 0.2739(2) 0.54062(7)
C47C C 0.3347(4) 0.2933(2) 0.51695(7)
H24C H 0.2447 0.3002 0.5101
C48C C 0.4515(3) 0.4931(2) 0.60352(7)
H25C H 0.4186 0.5429 0.6065
C49C C 0.5557(3) 0.3463(2) 0.53146(6)
H26C H 0.6153 0.3884 0.5332
C50C C 0.5650(4) 0.1340(2) 0.54095(7)
H27C H 0.5054 0.0918 0.5393
C51C C 0.5137(4) 0.2092(2) 0.53565(7)
C52C C 0.9716(3) 0.3112(2) 0.56413(7)
C53C C 1.0142(4) 0.4453(2) 0.57222(7)
H28C H 1.0759 0.4869 0.5723
C54C C 1.0638(4) 0.3742(2) 0.56818(7)
H29C H 1.1601 0.3658 0.5680
C55C C 0.3834(4) 0.4332(2) 0.50988(7)
C56C C 0.2814(4) 0.2342(2) 0.62206(8)
H30C H 0.2356 0.1902 0.6282
C57C C 0.3791(4) 0.2211(2) 0.52424(7)
H31C H 0.3200 0.1791 0.5217
C58C C 0.7911(4) 0.1867(2) 0.55368(7)
C59C C 0.6814(4) 0.5457(2) 0.58986(7)
H32C H 0.6489 0.5957 0.5927
C60C C 0.7010(4) 0.1230(2) 0.54849(7)
H33C H 0.7355 0.0730 0.5503
C61C C 0.2511(4) 0.4626(2) 0.50566(7)
H34C H 0.1697 0.4357 0.5099
H2? H 0.5325 0.5885 0.2354
loop_
_geom_bond_atom_site_label_1
_geom_bond_atom_site_label_2
_geom_bond_site_symmetry_1
_geom_bond_site_symmetry_2
Cl1 C1 1_555 1_555
C1 H1 1_555 1_555
S1 C9 1_555 1_555
C2 C6 1_555 1_555
C3 H3 1_555 1_555
C4 C14 1_555 1_555
C5 H4 1_555 1_555
C6 C11 1_555 1_555
C7 C2 1_555 1_555
H5 C7 1_555 1_555
C8 C5 1_555 1_555
C9 C13 1_555 1_555
C10 C2 1_555 1_555
C11 C17 1_555 1_555
C12 C7 1_555 1_555
C13 C15 1_555 1_555
C14 C15 1_555 1_555
C15 H6 1_555 1_555
C16 C4 1_555 1_555
H7 C16 1_555 1_555
C17 C8 1_555 1_555
C18 C11 1_555 1_555
C19 C8 1_555 1_555
H8 C19 1_555 1_555
C20 C3 1_555 1_555
C21 C9 1_555 1_555
H9 C21 1_555 1_555
C22 C13 1_555 1_555
H10 C22 1_555 1_555
C23 C12 1_555 1_555
C24 C4 1_555 1_555
H11 C24 1_555 1_555
C25 C20 1_555 1_555
H12 C25 1_555 1_555
C26 C5 1_555 1_555
H13 C26 1_555 1_555
C27 C10 1_555 1_555
H14 C27 1_555 1_555
C28 C10 1_555 1_555
H15 C28 1_555 1_555
C29 C12 1_555 1_555
H16 C29 1_555 1_555
C30 C3 1_555 1_555
H17 C30 1_555 1_555
C31 C23 1_555 1_555
H18 C31 1_555 1_555
S2 C55 1_555 1_555
C32 C35 1_555 1_555
C33 C35 1_555 1_555
C34 C42 1_555 1_555
C35 H19 1_555 1_555
C36 C33 1_555 1_555
C37 C32 1_555 1_555
C38 H20 1_555 1_555
C39 C47 1_555 1_555
C40 C38 1_555 1_555
H21 C40 1_555 1_555
C41 H22 1_555 1_555
C42 C44 1_555 1_555
C43 C41 1_555 1_555
C44 C32 1_555 1_555
C45 C33 1_555 1_555
H23 C45 1_555 1_555
C46 C34 1_555 1_555
C47 H24 1_555 1_555
C48 C37 1_555 1_555
H25 C48 1_555 1_555
C49 C39 1_555 1_555
H26 C49 1_555 1_555
C50 H27 1_555 1_555
C51 C46 1_555 1_555
C52 C40 1_555 1_555
C53 C43 1_555 1_555
H28 C53 1_555 1_555
C54 C52 1_555 1_555
H29 C54 1_555 1_555
C55 C39 1_555 1_555
C56 C36 1_555 1_555
H30 C56 1_555 1_555
C57 C47 1_555 1_555
H31 C57 1_555 1_555
C58 C34 1_555 1_555
C59 C37 1_555 1_555
H32 C59 1_555 1_555
C60 C50 1_555 1_555
H33 C60 1_555 1_555
C61 C55 1_555 1_555
H34 C61 1_555 1_555
H1B C1 1_555 1_555
Cl1B C1 1_555 1_555
C2B C6B 1_555 1_555
C3B H3B 1_555 1_555
C4B C14B 1_555 1_555
C5B H4B 1_555 1_555
C6B C11B 1_555 1_555
C7B C2B 1_555 1_555
H5B C7B 1_555 1_555
C8B C5B 1_555 1_555
C9B S1 1_555 1_555
C10B C2B 1_555 1_555
C11B C17B 1_555 1_555
C12B C7B 1_555 1_555
C13B C9B 1_555 1_555
C14B C15B 1_555 1_555
C15B C13B 1_555 1_555
H6B C15B 1_555 1_555
C16B C4B 1_555 1_555
H7B C16B 1_555 1_555
C17B C8B 1_555 1_555
C18B C11B 1_555 1_555
C19B C8B 1_555 1_555
H8B C19B 1_555 1_555
C20B C3B 1_555 1_555
C21B C21 1_555 1_555
H9B C21B 1_555 1_555
C22B C13B 1_555 1_555
H10B C22B 1_555 1_555
C23B C12B 1_555 1_555
C24B C4B 1_555 1_555
H11B C24B 1_555 1_555
C25B C20B 1_555 1_555
H12B C25B 1_555 1_555
C26B C5B 1_555 1_555
H13B C26B 1_555 1_555
C27B C10B 1_555 1_555
H14B C27B 1_555 1_555
C28B C10B 1_555 1_555
H15B C28B 1_555 1_555
C29B C12B 1_555 1_555
H16B C29B 1_555 1_555
C30B C3B 1_555 1_555
H17B C30B 1_555 1_555
C31B C23B 1_555 1_555
H18B C31B 1_555 1_555
C32C C35C 1_555 1_555
C33C C35C 1_555 1_555
C34C C42C 1_555 1_555
C35C H19C 1_555 1_555
C36C C33C 1_555 1_555
C37C C32C 1_555 1_555
C38C H20C 1_555 1_555
C39C C47C 1_555 1_555
C40C C38C 1_555 1_555
H21C C40C 1_555 1_555
C41C H22C 1_555 1_555
C42C C44C 1_555 1_555
C43C C41C 1_555 1_555
C44C C32C 1_555 1_555
C45C C33C 1_555 1_555
H23C C45C 1_555 1_555
C46C C34C 1_555 1_555
C47C H24C 1_555 1_555
C48C C37C 1_555 1_555
H25C C48C 1_555 1_555
C49C C39C 1_555 1_555
H26C C49C 1_555 1_555
C50C H27C 1_555 1_555
C51C C46C 1_555 1_555
C52C C40C 1_555 1_555
C53C C43C 1_555 1_555
H28C C53C 1_555 1_555
C54C C52C 1_555 1_555
H29C C54C 1_555 1_555
C55C S2 1_555 1_555
C56C C36C 1_555 1_555
H30C C56C 1_555 1_555
C57C C47C 1_555 1_555
H31C C57C 1_555 1_555
C58C C34C 1_555 1_555
C59C C37C 1_555 1_555
H32C C59C 1_555 1_555
C60C C50C 1_555 1_555
H33C C60C 1_555 1_555
C61C C61 1_555 1_555
H34C C61C 1_555 1_555
C6 C20 1_555 1_555
C14 C17 1_555 1_555
C16 C22 1_555 1_555
C18 C26 1_555 1_555
C18 C30 1_555 1_555
C19 C24 1_555 1_555
C25 C28 1_555 1_555
C27 C29 1_555 1_555
C38 C58 1_555 1_555
C41 C59 1_555 1_555
C42 C52 1_555 1_555
C43 C44 1_555 1_555
C45 C48 1_555 1_555
C46 C49 1_555 1_555
C50 C51 1_555 1_555
C51 C57 1_555 1_555
C53 C54 1_555 1_555
C58 C60 1_555 1_555
C6B C20B 1_555 1_555
C9B C21B 1_555 1_555
C14B C17B 1_555 1_555
C16B C22B 1_555 1_555
C18B C26B 1_555 1_555
C18B C30B 1_555 1_555
C19B C24B 1_555 1_555
C25B C28B 1_555 1_555
C27B C29B 1_555 1_555
C38C C58C 1_555 1_555
C39C C55C 1_555 1_555
C41C C59C 1_555 1_555
C42C C52C 1_555 1_555
C43C C44C 1_555 1_555
C45C C48C 1_555 1_555
C46C C49C 1_555 1_555
C50C C51C 1_555 1_555
C51C C57C 1_555 1_555
C53C C54C 1_555 1_555
C55C C61C 1_555 1_555
C58C C60C 1_555 1_555

#END
