
#######################################################################
#
#                 Cambridge Crystallographic Data Centre
#                                CCDC 
#
#######################################################################
#
# If this CIF has been generated from an entry in the Cambridge 
# Structural Database, then it will include bibliographic, chemical, 
# crystal, experimental, refinement or atomic coordinate data resulting 
# from the CCDC's data processing and validation procedures.
#
#######################################################################

data_NEMKAU
_chemical_formula_moiety         'C78 H70 Si2'
_chemical_name_systematic        
(M,P)-(buta-1,3-diyne-1,4-diylbis[(hexahelicene-15,2-diyl)ethyne-2,1-diyl])bis[triisopropylsilane]
_symmetry_cell_setting           triclinic
_symmetry_space_group_name_H-M   'P -1'
_symmetry_Int_Tables_number      2
_space_group_name_Hall           '-P 1'
loop_
_symmetry_equiv_pos_site_id
_symmetry_equiv_pos_as_xyz
1 x,y,z
2 -x,-y,-z
_cell_length_a                   8.1070(2)
_cell_length_b                   13.1715(2)
_cell_length_c                   14.9257(3)
_cell_angle_alpha                79.0750(10)
_cell_angle_beta                 82.998(2)
_cell_angle_gamma                75.1090(10)
_cell_volume                     1507.84
_exptl_crystal_colour            'light yellow'
_exptl_crystal_description       plate
_chemical_melting_point          '281-283 deg.C'
_cell_formula_units_Z            1
_exptl_crystal_recrystallization_method 'Vapour deposition'
loop_
_atom_site_label
_atom_site_type_symbol
_atom_site_fract_x
_atom_site_fract_y
_atom_site_fract_z
Si1 Si 0.69830(5) -0.03389(3) 0.78270(2)
C1 C 0.49906(16) 0.49480(10) 0.77439(8)
C2 C 0.74770(17) 0.49368(10) 0.59408(8)
C3 C 0.86740(16) 0.43439(10) 0.66124(8)
C4 C 0.78486(18) 0.47151(10) 0.50381(9)
C5 C 0.55763(16) 0.38778(10) 0.76069(8)
H1 H 0.5983 0.3736 0.7022
C6 C 0.99685(17) 0.48189(10) 0.96032(8)
C7 C 0.50325(17) 0.58499(10) 0.70100(8)
C8 C 0.55626(17) 0.30354(10) 0.83155(9)
C9 C 0.59871(17) 0.57722(10) 0.61290(8)
C10 C 0.87766(16) 0.47061(10) 0.74296(8)
H2 H 0.8084 0.5360 0.7537
C11 C 0.99841(18) 0.31001(11) 0.55391(9)
H3 H 1.0685 0.2450 0.5426
C12 C 0.98513(17) 0.33906(10) 0.64288(8)
C13 C 0.98872(17) 0.41091(10) 0.80765(8)
C14 C 0.39428(18) 0.68415(11) 0.71469(9)
C15 C 0.61254(18) 0.19581(10) 0.81436(9)
C16 C 0.99322(17) 0.44977(10) 0.89032(9)
C17 C 1.09409(18) 0.27755(11) 0.71055(9)
H4 H 1.1659 0.2128 0.6999
C18 C 0.53802(18) 0.65607(10) 0.53750(9)
C19 C 0.90895(18) 0.37710(11) 0.48633(9)
H5 H 0.9287 0.3614 0.4272
C20 C 0.35787(18) 0.76875(10) 0.63929(10)
H6 H 0.2921 0.8353 0.6492
C21 C 0.41898(19) 0.75242(11) 0.55306(10)
H7 H 0.3826 0.8049 0.5036
C22 C 1.09585(18) 0.31153(11) 0.79182(9)
H8 H 1.1668 0.2696 0.8361
C23 C 0.42152(17) 0.51338(10) 0.86244(9)
C24 C 0.65658(19) 0.10487(11) 0.80098(9)
C25 C 0.70186(19) 0.54484(11) 0.43048(9)
H9 H 0.7223 0.5290 0.3714
C26 C 0.31433(18) 0.69977(10) 0.80365(10)
H10 H 0.2484 0.7668 0.8122
C27 C 0.49407(18) 0.32390(10) 0.92086(9)
H11 H 0.4998 0.2679 0.9697
C28 C 0.59330(19) 0.63755(11) 0.44661(9)
H12 H 0.5543 0.6899 0.3975
C29 C 0.49470(19) -0.04529(11) 0.74032(11)
H13 H 0.5105 -0.1189 0.7310
C30 C 0.42552(18) 0.42646(11) 0.93479(9)
H14 H 0.3806 0.4393 0.9931
C31 C 0.33269(18) 0.61899(11) 0.87564(9)
H15 H 0.2875 0.6322 0.9338
C32 C 0.88922(19) -0.06389(11) 0.69691(9)
H16 H 0.9898 -0.0919 0.7325
C33 C 0.7438(2) -0.12270(12) 0.89621(10)
H17 H 0.6386 -0.1091 0.9366
C34 C 0.4547(2) 0.02797(12) 0.64838(12)
H18 H 0.4502 0.1000 0.6542
H19 H 0.3463 0.0240 0.6314
H20 H 0.5427 0.0056 0.6021
C35 C 0.3418(2) -0.02109(13) 0.81177(13)
H21 H 0.3612 -0.0732 0.8663
H22 H 0.2390 -0.0236 0.7873
H23 H 0.3300 0.0485 0.8262
C36 C 0.9220(2) 0.03418(13) 0.63093(10)
H24 H 0.8290 0.0627 0.5922
H25 H 1.0269 0.0143 0.5940
H26 H 0.9308 0.0871 0.6652
C37 C 0.8823(2) -0.15168(13) 0.64363(12)
H27 H 0.8698 -0.2144 0.6860
H28 H 0.9862 -0.1680 0.6051
H29 H 0.7865 -0.1274 0.6065
C38 C 0.7872(2) -0.24111(12) 0.88725(12)
H30 H 0.6977 -0.2553 0.8585
H31 H 0.7977 -0.2838 0.9469
H32 H 0.8934 -0.2582 0.8507
C39 C 0.8847(3) -0.09750(16) 0.94242(11)
H33 H 0.9896 -0.1087 0.9040
H34 H 0.9015 -0.1435 1.0004
H35 H 0.8511 -0.0246 0.9517
Si1A Si 1.30170(5) 1.03389(3) 1.21730(2)
C1A C 1.50094(16) 0.50520(10) 1.22561(8)
C2A C 1.25230(17) 0.50632(10) 1.40592(8)
C3A C 1.13260(16) 0.56561(10) 1.33876(8)
C4A C 1.21514(18) 0.52849(10) 1.49619(9)
C5A C 1.44237(16) 0.61222(10) 1.23931(8)
H1A H 1.4017 0.6264 1.2978
C6A C 1.00315(17) 0.51811(10) 1.03968(8)
C7A C 1.49675(17) 0.41501(10) 1.29900(8)
C8A C 1.44374(17) 0.69646(10) 1.16845(9)
C9A C 1.40129(17) 0.42278(10) 1.38710(8)
C10A C 1.12234(16) 0.52939(10) 1.25704(8)
H2A H 1.1916 0.4640 1.2463
C11A C 1.00159(18) 0.68999(11) 1.44609(9)
H3A H 0.9315 0.7550 1.4574
C12A C 1.01487(17) 0.66094(10) 1.35712(8)
C13A C 1.01128(17) 0.58909(10) 1.19235(8)
C14A C 1.60572(18) 0.31585(11) 1.28531(9)
C15A C 1.38746(18) 0.80419(10) 1.18564(9)
C16A C 1.00678(17) 0.55023(10) 1.10968(9)
C17A C 0.90591(18) 0.72245(11) 1.28945(9)
H4A H 0.8341 0.7872 1.3001
C18A C 1.46198(18) 0.34393(10) 1.46250(9)
C19A C 1.09105(18) 0.62290(11) 1.51367(9)
H5A H 1.0713 0.6386 1.5728
C20A C 1.64213(18) 0.23125(10) 1.36071(10)
H6A H 1.7079 0.1647 1.3508
C21A C 1.58102(19) 0.24758(11) 1.44694(10)
H7A H 1.6174 0.1951 1.4964
C22A C 0.90415(18) 0.68847(11) 1.20818(9)
H8A H 0.8332 0.7304 1.1639
C23A C 1.57848(17) 0.48662(10) 1.13756(9)
C24A C 1.34342(19) 0.89513(11) 1.19902(9)
C25A C 1.29814(19) 0.45516(11) 1.56952(9)
H9A H 1.2777 0.4710 1.6286
C26A C 1.68567(18) 0.30023(10) 1.19635(10)
H10A H 1.7516 0.2332 1.1878
C27A C 1.50593(18) 0.67610(10) 1.07914(9)
H11A H 1.5002 0.7321 1.0303
C28A C 1.40670(19) 0.36245(11) 1.55339(9)
H12A H 1.4457 0.3101 1.6025
C29A C 1.50530(19) 1.04529(11) 1.25968(11)
H13A H 1.4895 1.1189 1.2690
C30A C 1.57448(18) 0.57354(11) 1.06521(9)
H14A H 1.6194 0.5607 1.0069
C31A C 1.66731(18) 0.38101(11) 1.12436(9)
H15A H 1.7125 0.3678 1.0662
C32A C 1.11078(19) 1.06389(11) 1.30309(9)
H16A H 1.0102 1.0919 1.2675
C33A C 1.2562(2) 1.12270(12) 1.10379(10)
H17A H 1.3614 1.1091 1.0634
C34A C 1.5453(2) 0.97203(12) 1.35162(12)
H18A H 1.5498 0.9000 1.3458
H19A H 1.6537 0.9760 1.3686
H20A H 1.4573 0.9944 1.3979
C35A C 1.6582(2) 1.02109(13) 1.18823(13)
H21A H 1.6388 1.0732 1.1337
H22A H 1.7610 1.0236 1.2127
H23A H 1.6700 0.9515 1.1738
C36A C 1.0780(2) 0.96582(13) 1.36907(10)
H24A H 1.1710 0.9373 1.4078
H25A H 0.9731 0.9857 1.4060
H26A H 1.0692 0.9129 1.3348
C37A C 1.1177(2) 1.15168(13) 1.35637(12)
H27A H 1.1302 1.2144 1.3140
H28A H 1.0138 1.1680 1.3949
H29A H 1.2135 1.1274 1.3935
C38A C 1.2128(2) 1.24111(12) 1.11275(12)
H30A H 1.3023 1.2553 1.1415
H31A H 1.2023 1.2838 1.0531
H32A H 1.1066 1.2582 1.1493
C39A C 1.1153(3) 1.09750(16) 1.05758(11)
H33A H 1.0104 1.1087 1.0960
H34A H 1.0985 1.1435 0.9996
H35A H 1.1489 1.0246 1.0483
loop_
_geom_bond_atom_site_label_1
_geom_bond_atom_site_label_2
_geom_bond_site_symmetry_1
_geom_bond_site_symmetry_2
Si1 C24 1_555 1_555
C1 C5 1_555 1_555
C2 C3 1_555 1_555
C3 C10 1_555 1_555
C4 C2 1_555 1_555
C5 H1 1_555 1_555
C6 C16 1_555 1_555
C7 C1 1_555 1_555
C8 C5 1_555 1_555
C9 C2 1_555 1_555
C10 H2 1_555 1_555
C11 H3 1_555 1_555
C12 C3 1_555 1_555
C13 C10 1_555 1_555
C14 C7 1_555 1_555
C15 C8 1_555 1_555
C16 C13 1_555 1_555
C17 C12 1_555 1_555
H4 C17 1_555 1_555
C18 C9 1_555 1_555
C19 C4 1_555 1_555
H5 C19 1_555 1_555
C20 C14 1_555 1_555
H6 C20 1_555 1_555
C21 C18 1_555 1_555
H7 C21 1_555 1_555
C22 C13 1_555 1_555
H8 C22 1_555 1_555
C23 C1 1_555 1_555
C24 C15 1_555 1_555
C25 C4 1_555 1_555
H9 C25 1_555 1_555
C26 C14 1_555 1_555
H10 C26 1_555 1_555
C27 C8 1_555 1_555
H11 C27 1_555 1_555
C28 C18 1_555 1_555
H12 C28 1_555 1_555
C29 Si1 1_555 1_555
H13 C29 1_555 1_555
C30 C23 1_555 1_555
H14 C30 1_555 1_555
C31 C23 1_555 1_555
H15 C31 1_555 1_555
C32 Si1 1_555 1_555
H16 C32 1_555 1_555
C33 Si1 1_555 1_555
H17 C33 1_555 1_555
C34 C29 1_555 1_555
H18 C34 1_555 1_555
H19 C34 1_555 1_555
H20 C34 1_555 1_555
C35 C29 1_555 1_555
H21 C35 1_555 1_555
H22 C35 1_555 1_555
H23 C35 1_555 1_555
C36 C32 1_555 1_555
H24 C36 1_555 1_555
H25 C36 1_555 1_555
H26 C36 1_555 1_555
C37 C32 1_555 1_555
H27 C37 1_555 1_555
H28 C37 1_555 1_555
H29 C37 1_555 1_555
C38 C33 1_555 1_555
H30 C38 1_555 1_555
H31 C38 1_555 1_555
H32 C38 1_555 1_555
C39 C33 1_555 1_555
H33 C39 1_555 1_555
H34 C39 1_555 1_555
H35 C39 1_555 1_555
Si1A C24A 1_555 1_555
C1A C5A 1_555 1_555
C2A C3A 1_555 1_555
C3A C10A 1_555 1_555
C4A C2A 1_555 1_555
C5A H1A 1_555 1_555
C6A C6 1_555 1_555
C7A C1A 1_555 1_555
C8A C5A 1_555 1_555
C9A C2A 1_555 1_555
C10A H2A 1_555 1_555
C11A H3A 1_555 1_555
C12A C3A 1_555 1_555
C13A C10A 1_555 1_555
C14A C7A 1_555 1_555
C15A C8A 1_555 1_555
C16A C6A 1_555 1_555
C17A C12A 1_555 1_555
H4A C17A 1_555 1_555
C18A C9A 1_555 1_555
C19A C4A 1_555 1_555
H5A C19A 1_555 1_555
C20A C14A 1_555 1_555
H6A C20A 1_555 1_555
C21A C18A 1_555 1_555
H7A C21A 1_555 1_555
C22A C13A 1_555 1_555
H8A C22A 1_555 1_555
C23A C1A 1_555 1_555
C24A C15A 1_555 1_555
C25A C4A 1_555 1_555
H9A C25A 1_555 1_555
C26A C14A 1_555 1_555
H10A C26A 1_555 1_555
C27A C8A 1_555 1_555
H11A C27A 1_555 1_555
C28A C18A 1_555 1_555
H12A C28A 1_555 1_555
C29A Si1A 1_555 1_555
H13A C29A 1_555 1_555
C30A C23A 1_555 1_555
H14A C30A 1_555 1_555
C31A C23A 1_555 1_555
H15A C31A 1_555 1_555
C32A Si1A 1_555 1_555
H16A C32A 1_555 1_555
C33A Si1A 1_555 1_555
H17A C33A 1_555 1_555
C34A C29A 1_555 1_555
H18A C34A 1_555 1_555
H19A C34A 1_555 1_555
H20A C34A 1_555 1_555
C35A C29A 1_555 1_555
H21A C35A 1_555 1_555
H22A C35A 1_555 1_555
H23A C35A 1_555 1_555
C36A C32A 1_555 1_555
H24A C36A 1_555 1_555
H25A C36A 1_555 1_555
H26A C36A 1_555 1_555
C37A C32A 1_555 1_555
H27A C37A 1_555 1_555
H28A C37A 1_555 1_555
H29A C37A 1_555 1_555
C38A C33A 1_555 1_555
H30A C38A 1_555 1_555
H31A C38A 1_555 1_555
H32A C38A 1_555 1_555
C39A C33A 1_555 1_555
H33A C39A 1_555 1_555
H34A C39A 1_555 1_555
H35A C39A 1_555 1_555
C7 C9 1_555 1_555
C11 C12 1_555 1_555
C11 C19 1_555 1_555
C17 C22 1_555 1_555
C20 C21 1_555 1_555
C25 C28 1_555 1_555
C26 C31 1_555 1_555
C27 C30 1_555 1_555
C7A C9A 1_555 1_555
C11A C12A 1_555 1_555
C11A C19A 1_555 1_555
C13A C16A 1_555 1_555
C17A C22A 1_555 1_555
C20A C21A 1_555 1_555
C25A C28A 1_555 1_555
C26A C31A 1_555 1_555
C27A C30A 1_555 1_555

#END
