
#######################################################################
#
#                 Cambridge Crystallographic Data Centre
#                                CCDC 
#
#######################################################################
#
# If this CIF has been generated from an entry in the Cambridge 
# Structural Database, then it will include bibliographic, chemical, 
# crystal, experimental, refinement or atomic coordinate data resulting 
# from the CCDC's data processing and validation procedures.
#
#######################################################################

data_NEMTUU
_chemical_formula_moiety         
'C42 H30 N2 O10,0.5(C1 H1 Cl3),3(C1 H4 O1),2(H2 O1)'
_chemical_name_systematic        
'25,27-Dihydroxy-26,28-bis(4-nitrobenzoato)calix(4)arene chloroform methanol solvate dihydrate'
_symmetry_cell_setting           triclinic
_symmetry_space_group_name_H-M   'P -1'
_symmetry_Int_Tables_number      2
_space_group_name_Hall           '-P 1'
loop_
_symmetry_equiv_pos_site_id
_symmetry_equiv_pos_as_xyz
1 x,y,z
2 -x,-y,-z
_cell_length_a                   11.9566(14)
_cell_length_b                   12.4399(15)
_cell_length_c                   18.322(2)
_cell_angle_alpha                71.006(2)
_cell_angle_beta                 86.012(3)
_cell_angle_gamma                80.513(2)
_cell_volume                     2541.2
_cell_formula_units_Z            2
loop_
_atom_site_label
_atom_site_type_symbol
_atom_site_fract_x
_atom_site_fract_y
_atom_site_fract_z
O1 O 0.7026(5) 0.8961(4) 0.2192(3)
H1 H 0.6672 0.9615 0.2039
O2 O 0.4428(4) 0.9253(4) 0.2541(3)
H2 H 0.4752 0.8632 0.2744
O3 O 0.5939(5) 0.7108(4) 0.3368(2)
O4 O 0.5963(8) 0.5336(5) 0.4177(3)
O5 O 0.7091(18) 0.7079(18) 0.7196(9)
O6 O 0.763(3) 0.8639(19) 0.6337(16)
O7 O 0.5627(4) 1.1189(3) 0.1876(2)
O8 O 0.5794(8) 1.3065(5) 0.1459(3)
O9 O 0.6040(9) 1.0979(9) 0.5605(4)
O10 O 0.6664(10) 1.2532(8) 0.5257(4)
N1 N 0.7360(13) 0.781(2) 0.6513(12)
N2 N 0.6316(9) 1.1764(9) 0.5117(5)
C1 C 0.7476(7) 1.0897(7) 0.0850(4)
H3 H 0.7514 1.1077 0.1324
H4 H 0.7916 1.1394 0.0457
C2 C 0.8013(6) 0.9643(7) 0.0983(4)
C3 C 0.8758(7) 0.9353(9) 0.0448(5)
H5 H 0.8913 0.9930 -0.0001
C4 C 0.9274(8) 0.8271(10) 0.0545(5)
H6 H 0.9813 0.8121 0.0185
C5 C 0.8994(7) 0.7357(9) 0.1199(5)
H7 H 0.9315 0.6599 0.1261
C6 C 0.8237(7) 0.7623(7) 0.1734(5)
C7 C 0.7851(8) 0.6658(7) 0.2432(5)
H8 H 0.8394 0.5961 0.2505
H9 H 0.7845 0.6880 0.2893
C8 C 0.6708(8) 0.6415(6) 0.2332(4)
C9 C 0.6509(9) 0.6005(7) 0.1729(5)
H10 H 0.7123 0.5823 0.1428
C10 C 0.5503(11) 0.5865(7) 0.1571(5)
H11 H 0.5412 0.5563 0.1180
C11 C 0.4545(9) 0.6184(7) 0.2010(5)
H12 H 0.3830 0.6080 0.1900
C12 C 0.4646(7) 0.6644(6) 0.2596(4)
C13 C 0.3661(8) 0.7066(7) 0.3002(4)
H13 H 0.3920 0.7219 0.3443
H14 H 0.3186 0.6468 0.3195
C14 C 0.2952(7) 0.8148(7) 0.2501(4)
C15 C 0.1899(9) 0.8129(10) 0.2220(5)
H15 H 0.1605 0.7441 0.2360
C16 C 0.1302(8) 0.9098(12) 0.1749(5)
H16 H 0.0600 0.9071 0.1572
C17 C 0.1718(8) 1.0101(11) 0.1534(5)
H17 H 0.1283 1.0755 0.1216
C18 C 0.2824(6) 1.0205(7) 0.1779(4)
C19 C 0.3284(7) 1.1324(6) 0.1530(4)
H18 H 0.3563 1.1445 0.1977
H19 H 0.2677 1.1948 0.1313
C20 C 0.4235(7) 1.1348(5) 0.0936(4)
C21 C 0.4015(7) 1.1444(6) 0.0177(4)
H20 H 0.3268 1.1524 0.0030
C22 C 0.4873(8) 1.1422(6) -0.0357(4)
H21 H 0.4698 1.1529 -0.0865
C23 C 0.6005(8) 1.1242(6) -0.0149(4)
H22 H 0.6584 1.1185 -0.0507
C24 C 0.6261(7) 1.1149(5) 0.0603(4)
C25 C 0.5385(8) 1.1245(5) 0.1103(4)
C26 C 0.3380(6) 0.9201(6) 0.2266(4)
C27 C 0.5764(8) 0.6702(6) 0.2745(4)
C28 C 0.7742(6) 0.8772(6) 0.1626(4)
C29 C 0.6104(7) 0.6285(6) 0.4065(4)
C30 C 0.6409(7) 0.6744(7) 0.4673(4)
C31 C 0.6859(8) 0.7751(8) 0.4482(6)
H23 H 0.6928 0.8210 0.3971
C32 C 0.7217(10) 0.8056(11) 0.5106(9)
H24 H 0.7588 0.8690 0.5011
C33 C 0.7002(13) 0.7393(19) 0.5851(10)
C34 C 0.6541(13) 0.6412(15) 0.6028(8)
H25 H 0.6431 0.5972 0.6538
C35 C 0.6251(9) 0.6101(9) 0.5444(5)
H26 H 0.5931 0.5432 0.5556
C36 C 0.5765(8) 1.2192(6) 0.1976(4)
C37 C 0.5917(7) 1.2044(6) 0.2808(4)
C38 C 0.6240(9) 1.2928(6) 0.2988(4)
H27 H 0.6348 1.3601 0.2596
C39 C 0.6407(9) 1.2833(7) 0.3744(5)
H28 H 0.6641 1.3428 0.3869
C40 C 0.6222(7) 1.1852(7) 0.4297(4)
C41 C 0.5865(8) 1.0977(7) 0.4134(5)
H29 H 0.5715 1.0324 0.4531
C42 C 0.5724(7) 1.1065(6) 0.3358(4)
H30 H 0.5505 1.0466 0.3229
C43 C 1.0158(19) 0.283(3) 0.2193(17)
H31 H 1.0766 0.2205 0.2437
Cl1 Cl 0.9328(16) 0.3394(13) 0.2851(12)
Cl2 Cl 0.9123(13) 0.2381(14) 0.1826(10)
Cl3 Cl 1.0623(15) 0.3966(17) 0.1578(18)
O11 O 0.2975(14) 0.5555(14) 0.0147(7)
C44 C 0.3594(6) 0.4481(5) 0.0498(4)
O12 O 0.8480(9) 0.4607(10) 0.0316(6)
C45 C 0.8298(10) 0.5747(9) -0.0187(7)
O13 O 0.2072(5) 0.6329(4) 0.0775(3)
C46 C 0.1813(13) 0.5339(10) 0.1343(8)
O14 O 0.9311(17) 0.0713(19) 0.4022(10)
O15 O 0.8732(15) 0.4543(19) 0.4546(14)
O16 O 0.0504(16) 0.822(3) 0.4422(15)
O17 O 0.8955(9) 0.938(2) 0.3083(7)
loop_
_geom_bond_atom_site_label_1
_geom_bond_atom_site_label_2
_geom_bond_site_symmetry_1
_geom_bond_site_symmetry_2
O1 H1 1_555 1_555
O2 H2 1_555 1_555
O3 C27 1_555 1_555
O4 C29 1_555 1_555
O5 N1 1_555 1_555
O6 N1 1_555 1_555
O7 C25 1_555 1_555
O8 C36 1_555 1_555
O9 N2 1_555 1_555
O10 N2 1_555 1_555
N1 C33 1_555 1_555
N2 C40 1_555 1_555
C1 H3 1_555 1_555
H4 C1 1_555 1_555
C2 C1 1_555 1_555
C3 C2 1_555 1_555
H5 C3 1_555 1_555
C4 C3 1_555 1_555
H6 C4 1_555 1_555
C5 C4 1_555 1_555
H7 C5 1_555 1_555
C6 C5 1_555 1_555
C7 C6 1_555 1_555
H8 C7 1_555 1_555
H9 C7 1_555 1_555
C8 C7 1_555 1_555
C9 C8 1_555 1_555
H10 C9 1_555 1_555
C10 C9 1_555 1_555
H11 C10 1_555 1_555
C11 C10 1_555 1_555
H12 C11 1_555 1_555
C12 C11 1_555 1_555
C13 C12 1_555 1_555
H13 C13 1_555 1_555
H14 C13 1_555 1_555
C14 C13 1_555 1_555
C15 C14 1_555 1_555
H15 C15 1_555 1_555
C16 C15 1_555 1_555
H16 C16 1_555 1_555
C17 C16 1_555 1_555
H17 C17 1_555 1_555
C18 C17 1_555 1_555
C19 C18 1_555 1_555
H18 C19 1_555 1_555
H19 C19 1_555 1_555
C20 C19 1_555 1_555
C21 C20 1_555 1_555
H20 C21 1_555 1_555
C22 C21 1_555 1_555
H21 C22 1_555 1_555
C23 C22 1_555 1_555
H22 C23 1_555 1_555
C24 C1 1_555 1_555
C25 C20 1_555 1_555
C26 O2 1_555 1_555
C27 C8 1_555 1_555
C28 O1 1_555 1_555
C29 O3 1_555 1_555
C30 C29 1_555 1_555
C31 C30 1_555 1_555
H23 C31 1_555 1_555
C32 C31 1_555 1_555
H24 C32 1_555 1_555
C33 C32 1_555 1_555
C34 C33 1_555 1_555
H25 C34 1_555 1_555
C35 C30 1_555 1_555
H26 C35 1_555 1_555
C36 O7 1_555 1_555
C37 C36 1_555 1_555
C38 C37 1_555 1_555
H27 C38 1_555 1_555
C39 C38 1_555 1_555
H28 C39 1_555 1_555
C40 C39 1_555 1_555
C41 C40 1_555 1_555
H29 C41 1_555 1_555
C42 C37 1_555 1_555
H30 C42 1_555 1_555
C43 H31 1_555 1_555
Cl1 C43 1_555 1_555
Cl2 C43 1_555 1_555
Cl3 C43 1_555 1_555
O11 C44 1_555 1_555
O12 C45 1_555 1_555
O13 C46 1_555 1_555
C2 C28 1_555 1_555
C6 C28 1_555 1_555
C12 C27 1_555 1_555
C14 C26 1_555 1_555
C18 C26 1_555 1_555
C23 C24 1_555 1_555
C24 C25 1_555 1_555
C34 C35 1_555 1_555
C41 C42 1_555 1_555

#END
