
#######################################################################
#
#                 Cambridge Crystallographic Data Centre
#                                CCDC 
#
#######################################################################
#
# If this CIF has been generated from an entry in the Cambridge 
# Structural Database, then it will include bibliographic, chemical, 
# crystal, experimental, refinement or atomic coordinate data resulting 
# from the CCDC's data processing and validation procedures.
#
#######################################################################

data_NEMWIN
_chemical_formula_moiety         
'C6 H13 N2 1+,C24 H8 B1 F18 S1 1-,0.5(C6 H12 N2)'
_chemical_name_systematic        
'4-Aza-1-azoniabicyclo[2.2.2]octane hydrido(thiophen-2-ylethynyl)bis(2,4,6-tris(trifluoromethyl)phenyl)borate 1,4-diazabicyclo[2.2.2]octane unknown solvate'
_symmetry_cell_setting           triclinic
_symmetry_space_group_name_H-M   'P -1'
_symmetry_Int_Tables_number      2
_space_group_name_Hall           '-P 1'
loop_
_symmetry_equiv_pos_site_id
_symmetry_equiv_pos_as_xyz
1 x,y,z
2 -x,-y,-z
_cell_length_a                   10.9870(16)
_cell_length_b                   12.4914(19)
_cell_length_c                   27.153(4)
_cell_angle_alpha                81.099(3)
_cell_angle_beta                 89.390(3)
_cell_angle_gamma                84.218(3)
_cell_volume                     3662.9
_exptl_crystal_colour            colorless
_exptl_crystal_description       block
_cell_formula_units_Z            4
loop_
_atom_site_label
_atom_site_type_symbol
_atom_site_fract_x
_atom_site_fract_y
_atom_site_fract_z
S1 S 0.73862(9) 0.71714(8) 0.70417(4)
F1 F 1.2160(3) 0.6530(2) 1.04689(8)
F2 F 1.3630(3) 0.7102(2) 1.00220(11)
F3 F 1.3021(2) 0.55686(18) 0.99629(8)
F4 F 0.8383(2) 0.61503(18) 0.96299(9)
F5 F 0.7773(2) 0.7180(2) 0.89603(9)
F6 F 0.7739(2) 0.7818(2) 0.96433(10)
F7 F 1.15519(19) 1.00781(16) 0.83680(8)
F8 F 1.30718(17) 0.88540(18) 0.84223(8)
F9 F 1.15366(17) 0.87192(17) 0.79694(7)
F10 F 0.9377(3) 0.9519(2) 0.96534(10)
F11 F 0.8737(2) 1.12050(19) 0.95494(9)
F12 F 0.9814(2) 1.0567(2) 0.89864(11)
F13 F 0.70943(18) 0.94575(17) 0.76040(7)
F14 F 0.6382(2) 0.80401(19) 0.80281(8)
F15 F 0.5208(2) 0.9483(3) 0.77868(9)
F16 F 0.3668(3) 1.0172(3) 0.94382(14)
F17 F 0.3798(3) 1.1669(3) 0.89981(15)
F18 F 0.4602(3) 1.1322(4) 0.97123(16)
C1 C 0.7883(4) 0.6468(3) 0.65803(14)
H1 H 0.7374 0.6332 0.6321
C2 C 0.9089(4) 0.6121(3) 0.66249(14)
H2 H 0.9499 0.5716 0.6393
C3 C 0.9720(3) 0.6401(2) 0.70436(11)
H3 H 1.0560 0.6216 0.7127
C4 C 0.8811(3) 0.7026(3) 0.73155(12)
C5 C 0.8971(3) 0.7549(3) 0.77325(13)
C6 C 0.8937(3) 0.8114(3) 0.80604(11)
B1 B 0.9047(3) 0.8916(3) 0.84547(13)
C7 C 1.0015(3) 0.8220(2) 0.88815(11)
C8 C 1.1280(3) 0.8331(2) 0.88497(11)
C9 C 1.2124(3) 0.7813(3) 0.92075(12)
H4 H 1.2964 0.7925 0.9171
C10 C 1.1738(3) 0.7129(3) 0.96189(12)
C11 C 1.0527(3) 0.6932(3) 0.96541(11)
H5 H 1.0254 0.6448 0.9928
C12 C 0.9706(3) 0.7448(2) 0.92858(11)
C13 C 1.1836(3) 0.9008(3) 0.84057(12)
C14 C 1.2637(3) 0.6584(3) 1.00111(13)
C15 C 0.8407(3) 0.7170(3) 0.93810(13)
C16 C 0.7758(3) 0.9511(2) 0.86644(11)
C17 C 0.7763(3) 1.0114(3) 0.90672(12)
C18 C 0.6716(3) 1.0552(3) 0.92811(13)
H6 H 0.6781 1.0904 0.9564
C19 C 0.5572(3) 1.0481(3) 0.90841(14)
C20 C 0.5514(3) 1.0002(3) 0.86555(13)
H7 H 0.4744 0.9984 0.8503
C21 C 0.6567(3) 0.9554(3) 0.84504(12)
C22 C 0.8924(3) 1.0340(3) 0.93102(15)
C23 C 0.4421(3) 1.0921(3) 0.93079(15)
C24 C 0.6330(3) 0.9120(3) 0.79752(13)
H52 H 0.949(3) 0.964(3) 0.8279(12)
S2 S 0.86357(13) 0.69752(11) 0.15424(5)
F19 F 0.8183(11) 0.1227(5) 0.4883(3)
F20 F 0.9776(9) 0.2023(12) 0.4928(6)
F21 F 0.8191(15) 0.2405(9) 0.5316(3)
F25 F 0.8827(2) 0.63792(18) 0.35177(8)
F26 F 0.9652(2) 0.58498(18) 0.42336(9)
F27 F 0.7857(2) 0.67073(18) 0.41767(9)
F28 F 0.6321(2) 0.20482(17) 0.33889(9)
F29 F 0.6724(2) 0.33990(18) 0.28468(7)
F30 F 0.50851(19) 0.34981(19) 0.32890(10)
F31 F 0.64042(19) 0.7731(2) 0.23085(7)
F32 F 0.81089(17) 0.77541(16) 0.26969(8)
F33 F 0.6893(2) 0.92050(18) 0.25338(9)
F34 F 0.4020(4) 0.9534(2) 0.44030(15)
F35 F 0.5737(3) 1.0132(3) 0.41954(13)
F36 F 0.4407(3) 0.5101(2) 0.37871(10)
F37 F 0.3779(2) 0.6006(2) 0.43625(11)
F38 F 0.5538(3) 0.5148(2) 0.44088(11)
F39 F 0.4230(3) 1.0493(2) 0.36976(14)
C25 C 0.9442(4) 0.6536(4) 0.10893(15)
C26 C 0.9832(4) 0.5463(4) 0.11676(16)
C27 C 0.94087(19) 0.48113(18) 0.16571(7)
H8 H 0.9551 0.4056 0.1782
C29 C 0.8670(3) 0.5762(3) 0.18916(12)
C30 C 0.8041(3) 0.5624(3) 0.23502(12)
C31 C 0.7442(3) 0.5665(3) 0.27322(12)
B2 B 0.6587(3) 0.5610(3) 0.32014(14)
C32 C 0.7243(3) 0.4667(3) 0.36475(11)
C33 C 0.6998(3) 0.3561(3) 0.36991(12)
C34 C 0.7418(3) 0.2775(3) 0.40922(13)
H10 H 0.7219 0.2047 0.4110
C35 C 0.8135(3) 0.3058(3) 0.44622(12)
C36 C 0.8476(3) 0.4094(3) 0.44165(12)
H11 H 0.8994 0.4284 0.4660
C37 C 0.8063(3) 0.4866(3) 0.40123(12)
C38 C 0.6288(3) 0.3137(3) 0.33095(14)
C39 C 0.8550(4) 0.2218(4) 0.49013(15)
C40 C 0.8594(3) 0.5945(3) 0.39831(13)
C41 C 0.6058(3) 0.6776(3) 0.33974(12)
C42 C 0.5264(3) 0.6766(3) 0.38139(12)
C43 C 0.4868(3) 0.7696(3) 0.40247(14)
H12 H 0.4377 0.7633 0.4316
C44 C 0.5187(3) 0.8696(3) 0.38125(15)
C45 C 0.5840(3) 0.8782(3) 0.33787(14)
H13 H 0.6009 0.9479 0.3214
C46 C 0.6258(3) 0.7854(3) 0.31763(12)
C47 C 0.4754(3) 0.5756(3) 0.40896(14)
C48 C 0.4799(4) 0.9693(4) 0.40335(18)
C49 C 0.6914(3) 0.8118(3) 0.26825(13)
H53 H 0.578(4) 0.531(4) 0.3091(17)
N1 N 0.9372(3) 1.0631(3) 0.37266(12)
N2 N 1.0507(3) 0.9189(2) 0.32913(10)
H14 H 1.0882 0.8707 0.3140
C50 C 0.9067(4) 0.9551(4) 0.39576(15)
H16 H 0.8168 0.9535 0.3959
H17 H 0.9360 0.9401 0.4307
C51 C 0.9662(4) 0.8674(3) 0.36703(13)
H18 H 1.0123 0.8088 0.3903
H19 H 0.9024 0.8350 0.3504
C52 C 1.0698(4) 1.0666(3) 0.37717(15)
H20 H 1.0924 1.0592 0.4128
H21 H 1.0925 1.1377 0.3602
C53 C 1.1404(3) 0.9748(3) 0.35392(14)
H22 H 1.1998 1.0052 0.3293
H23 H 1.1860 0.9225 0.3801
C54 C 0.9032(4) 1.0814(3) 0.32002(14)
H24 H 0.9171 1.1567 0.3052
H25 H 0.8150 1.0734 0.3168
C55 C 0.9780(3) 1.0004(3) 0.29142(12)
H26 H 0.9228 0.9633 0.2726
H27 H 1.0334 1.0391 0.2675
N3 N 0.4331(2) 0.5236(2) 0.16432(10)
H15 H 0.3828 0.5636 0.1824
N4 N 0.5858(3) 0.4153(2) 0.11610(11)
C56 C 0.5180(3) 0.4489(3) 0.20038(13)
H28 H 0.4709 0.3992 0.2233
H29 H 0.5631 0.4919 0.2205
C57 C 0.6076(3) 0.3836(3) 0.17010(14)
H30 H 0.6924 0.3957 0.1781
H31 H 0.5987 0.3050 0.1795
C58 C 0.5050(3) 0.5998(3) 0.13077(14)
H32 H 0.5485 0.6443 0.1506
H33 H 0.4496 0.6495 0.1070
C59 C 0.5977(4) 0.5316(3) 0.10225(16)
H34 H 0.5837 0.5530 0.0659
H35 H 0.6817 0.5464 0.1098
C60 C 0.3665(3) 0.4576(3) 0.13428(13)
H36 H 0.3090 0.5060 0.1109
H37 H 0.3190 0.4068 0.1565
C61 C 0.4611(3) 0.3933(3) 0.10508(14)
H38 H 0.4534 0.3144 0.1141
H39 H 0.4447 0.4140 0.0689
N5 N 0.1626(3) 0.7673(2) 0.27453(11)
N6 N 0.2830(2) 0.6493(2) 0.21762(10)
C62 C 0.1364(6) 0.6555(4) 0.2864(2)
H40 H 0.0485 0.6506 0.2805
H41 H 0.1544 0.6285 0.3220
C63 C 0.2139(8) 0.5846(4) 0.2540(3)
H42 H 0.2707 0.5313 0.2756
H43 H 0.1596 0.5435 0.2368
C64 C 0.2940(4) 0.7723(5) 0.2795(2)
H44 H 0.3206 0.7414 0.3139
H45 H 0.3124 0.8492 0.2729
C65 C 0.3640(5) 0.7080(6) 0.2424(3)
H46 H 0.4043 0.7589 0.2173
H47 H 0.4285 0.6560 0.2605
C66 C 0.1303(5) 0.8059(4) 0.22195(17)
H48 H 0.1529 0.8810 0.2123
H49 H 0.0408 0.8073 0.2174
C67 C 0.1973(7) 0.7309(6) 0.1881(2)
H50 H 0.1370 0.6942 0.1717
H51 H 0.2424 0.7749 0.1619
S3? S 0.94087(19) 0.48113(18) 0.16571(7)
F22? F 0.7603(10) 0.1724(12) 0.5096(5)
F23? F 0.9314(18) 0.1518(12) 0.4817(3)
F24? F 0.8902(16) 0.2681(8) 0.5275(4)
C28? C 0.86357(13) 0.69752(11) 0.15424(5)
H9? H 0.8277 0.7677 0.1588
loop_
_geom_bond_atom_site_label_1
_geom_bond_atom_site_label_2
_geom_bond_site_symmetry_1
_geom_bond_site_symmetry_2
S1 C1 1_555 1_555
S2 C25 1_555 1_555
F1 C14 1_555 1_555
F2 C14 1_555 1_555
F3 C14 1_555 1_555
F4 C15 1_555 1_555
F5 C15 1_555 1_555
F6 C15 1_555 1_555
F7 C13 1_555 1_555
F8 C13 1_555 1_555
F9 C13 1_555 1_555
F10 C22 1_555 1_555
F11 C22 1_555 1_555
F12 C22 1_555 1_555
F13 C24 1_555 1_555
F14 C24 1_555 1_555
F15 C24 1_555 1_555
F16 C23 1_555 1_555
F17 C23 1_555 1_555
F18 C23 1_555 1_555
F19 C39 1_555 1_555
F20 C39 1_555 1_555
F21 C39 1_555 1_555
F25 C40 1_555 1_555
F26 C40 1_555 1_555
F27 C40 1_555 1_555
F28 C38 1_555 1_555
F29 C38 1_555 1_555
F30 C38 1_555 1_555
F31 C49 1_555 1_555
F32 C49 1_555 1_555
F33 C49 1_555 1_555
F34 C48 1_555 1_555
F35 C48 1_555 1_555
F36 C47 1_555 1_555
F37 C47 1_555 1_555
F38 C47 1_555 1_555
F39 C48 1_555 1_555
C1 H1 1_555 1_555
C2 C1 1_555 1_555
H2 C2 1_555 1_555
C3 C2 1_555 1_555
H3 C3 1_555 1_555
C4 S1 1_555 1_555
C5 C4 1_555 1_555
C6 C5 1_555 1_555
B1 C6 1_555 1_555
C7 B1 1_555 1_555
C8 C7 1_555 1_555
C9 C8 1_555 1_555
H4 C9 1_555 1_555
C10 C9 1_555 1_555
C11 C10 1_555 1_555
H5 C11 1_555 1_555
C12 C7 1_555 1_555
C13 C8 1_555 1_555
C14 C10 1_555 1_555
C15 C12 1_555 1_555
C16 B1 1_555 1_555
C17 C16 1_555 1_555
C18 C17 1_555 1_555
H6 C18 1_555 1_555
C19 C18 1_555 1_555
C20 C19 1_555 1_555
H7 C20 1_555 1_555
C21 C16 1_555 1_555
C22 C17 1_555 1_555
C23 C19 1_555 1_555
C24 C21 1_555 1_555
C25 C26 1_555 1_555
C26 C27 1_555 1_555
C27 H8 1_555 1_555
C29 S2 1_555 1_555
C30 C29 1_555 1_555
C31 C30 1_555 1_555
B2 C31 1_555 1_555
C32 B2 1_555 1_555
C33 C32 1_555 1_555
C34 C33 1_555 1_555
H10 C34 1_555 1_555
C35 C34 1_555 1_555
C36 C35 1_555 1_555
H11 C36 1_555 1_555
C37 C32 1_555 1_555
C38 C33 1_555 1_555
C39 C35 1_555 1_555
C40 C37 1_555 1_555
C41 B2 1_555 1_555
C42 C41 1_555 1_555
C43 C42 1_555 1_555
H12 C43 1_555 1_555
C44 C43 1_555 1_555
C45 C44 1_555 1_555
H13 C45 1_555 1_555
C46 C41 1_555 1_555
C47 C42 1_555 1_555
C48 C44 1_555 1_555
C49 C46 1_555 1_555
N1 C50 1_555 1_555
N2 H14 1_555 1_555
N3 H15 1_555 1_555
N4 C57 1_555 1_555
N5 C62 1_555 1_555
N6 C63 1_555 1_555
C50 H16 1_555 1_555
H17 C50 1_555 1_555
C51 N2 1_555 1_555
H18 C51 1_555 1_555
H19 C51 1_555 1_555
C52 N1 1_555 1_555
H20 C52 1_555 1_555
H21 C52 1_555 1_555
C53 N2 1_555 1_555
H22 C53 1_555 1_555
H23 C53 1_555 1_555
C54 N1 1_555 1_555
H24 C54 1_555 1_555
H25 C54 1_555 1_555
C55 N2 1_555 1_555
H26 C55 1_555 1_555
H27 C55 1_555 1_555
C56 N3 1_555 1_555
H28 C56 1_555 1_555
H29 C56 1_555 1_555
C57 C56 1_555 1_555
H30 C57 1_555 1_555
H31 C57 1_555 1_555
C58 N3 1_555 1_555
H32 C58 1_555 1_555
H33 C58 1_555 1_555
C59 N4 1_555 1_555
H34 C59 1_555 1_555
H35 C59 1_555 1_555
C60 N3 1_555 1_555
H36 C60 1_555 1_555
H37 C60 1_555 1_555
C61 N4 1_555 1_555
H38 C61 1_555 1_555
H39 C61 1_555 1_555
C62 H40 1_555 1_555
H41 C62 1_555 1_555
C63 C62 1_555 1_555
H42 C63 1_555 1_555
H43 C63 1_555 1_555
C64 N5 1_555 1_555
H44 C64 1_555 1_555
H45 C64 1_555 1_555
C65 N6 1_555 1_555
H46 C65 1_555 1_555
H47 C65 1_555 1_555
C66 N5 1_555 1_555
H48 C66 1_555 1_555
H49 C66 1_555 1_555
C67 N6 1_555 1_555
H50 C67 1_555 1_555
H51 C67 1_555 1_555
H52 B1 1_555 1_555
H53 B2 1_555 1_555
C3 C4 1_555 1_555
C11 C12 1_555 1_555
C20 C21 1_555 1_555
C27 C29 1_555 1_555
C36 C37 1_555 1_555
C45 C46 1_555 1_555
C50 C51 1_555 1_555
C52 C53 1_555 1_555
C54 C55 1_555 1_555
C58 C59 1_555 1_555
C60 C61 1_555 1_555
C64 C65 1_555 1_555
C66 C67 1_555 1_555

#END
