
#######################################################################
#
#                 Cambridge Crystallographic Data Centre
#                                CCDC 
#
#######################################################################
#
# If this CIF has been generated from an entry in the Cambridge 
# Structural Database, then it will include bibliographic, chemical, 
# crystal, experimental, refinement or atomic coordinate data resulting 
# from the CCDC's data processing and validation procedures.
#
#######################################################################

data_NEMWUZ
_chemical_formula_moiety         'C24 H42 N2 O4 S1 Si2'
_chemical_name_systematic        
(2R,3S,4R)-3,4-bis((t-Butyl(dimethyl)silyl)oxy)-1-((4-methylphenyl)sulfonyl)pyrrolidine-2-carbonitrile
_symmetry_cell_setting           monoclinic
_symmetry_space_group_name_H-M   'P 21'
_symmetry_Int_Tables_number      4
_space_group_name_Hall           'P 2yb'
loop_
_symmetry_equiv_pos_site_id
_symmetry_equiv_pos_as_xyz
1 x,y,z
2 -x,1/2+y,-z
_cell_length_a                   12.022(2)
_cell_length_b                   7.1900(14)
_cell_length_c                   16.405(3)
_cell_angle_alpha                90
_cell_angle_beta                 97.32(3)
_cell_angle_gamma                90
_cell_volume                     1406.46
_exptl_crystal_colour            colorless
_exptl_crystal_description       parallelepiped
_cell_formula_units_Z            2
_exptl_crystal_recrystallization_method ether/hexane
loop_
_atom_site_label
_atom_site_type_symbol
_atom_site_fract_x
_atom_site_fract_y
_atom_site_fract_z
Si1 Si 0.70340(3) 0.27341(6) 0.16579(3)
Si2 Si 1.14102(4) 0.51206(7) 0.20339(3)
S1 S 0.83605(3) 0.45855(6) 0.49774(2)
O1 O 0.91873(10) 0.5681(2) 0.54626(8)
O2 O 0.79558(11) 0.2890(2) 0.53019(8)
O3 O 0.79949(9) 0.36394(17) 0.23617(7)
O4 O 1.01596(9) 0.48347(18) 0.23419(7)
N1 N 0.88624(11) 0.3986(2) 0.41469(9)
N2 N 0.83198(13) 0.8071(2) 0.30043(10)
C1 C 0.44609(14) 0.9656(4) 0.38139(13)
H1 H 0.3857 0.8916 0.3515
H2 H 0.4722 1.0583 0.3443
H3 H 0.4180 1.0290 0.4276
C2 C 0.54163(14) 0.8402(3) 0.41325(11)
C3 C 0.63882(14) 0.9105(3) 0.45877(12)
H4 H 0.6435 1.0393 0.4715
C4 C 0.53606(14) 0.6494(3) 0.39676(12)
H5 H 0.4701 0.5992 0.3667
C5 C 0.72872(13) 0.7949(3) 0.48561(11)
H6 H 0.7946 0.8442 0.5161
C6 C 0.62478(14) 0.5316(3) 0.42339(12)
H7 H 0.6199 0.4022 0.4118
C7 C 0.72095(13) 0.6063(3) 0.46730(10)
C8 C 0.94902(12) 0.5251(3) 0.36821(10)
H8 H 1.0157 0.5749 0.4042
C9 C 0.88126(13) 0.6805(2) 0.32835(10)
C10 C 0.85132(12) 0.2256(2) 0.36922(10)
H9 H 0.7695 0.2054 0.3665
H10 H 0.8913 0.1160 0.3950
C11 C 0.88482(11) 0.2630(2) 0.28409(9)
H11 H 0.9039 0.1457 0.2562
C12 C 0.98719(12) 0.3907(2) 0.30301(10)
H12 H 1.0527 0.3160 0.3285
C13 C 0.59742(15) 0.1419(3) 0.21666(13)
H13 H 0.6334 0.0343 0.2458
H14 H 0.5372 0.0991 0.1750
H15 H 0.5660 0.2231 0.2559
C14 C 0.77250(17) 0.1137(3) 0.09854(13)
H16 H 0.8048 0.0079 0.1310
H17 H 0.8321 0.1805 0.0752
H18 H 0.7170 0.0686 0.0540
C15 C 0.63882(14) 0.4814(2) 0.10873(11)
C16 C 0.58548(17) 0.6103(3) 0.16742(14)
H19 H 0.5521 0.7180 0.1369
H20 H 0.6432 0.6527 0.2111
H21 H 0.5271 0.5426 0.1918
C17 C 0.73026(19) 0.5884(3) 0.07099(14)
H22 H 0.6970 0.6972 0.0412
H23 H 0.7639 0.5071 0.0329
H24 H 0.7883 0.6291 0.1148
C18 C 0.54797(17) 0.4173(3) 0.03967(13)
H25 H 0.5144 0.5262 0.0102
H26 H 0.4898 0.3480 0.0635
H27 H 0.5819 0.3370 0.0014
C19 C 1.25343(13) 0.4413(3) 0.28673(12)
H28 H 1.2457 0.3087 0.2987
H29 H 1.2466 0.5141 0.3364
H30 H 1.3270 0.4639 0.2689
C20 C 1.14840(19) 0.3673(3) 0.11046(13)
H31 H 1.1433 0.2356 0.1248
H32 H 1.2197 0.3903 0.0892
H33 H 1.0861 0.3998 0.0684
C21 C 1.15030(13) 0.7661(3) 0.17692(10)
C22 C 1.13475(16) 0.8863(3) 0.25179(12)
H34 H 1.1400 1.0180 0.2374
H35 H 1.1934 0.8563 0.2970
H36 H 1.0610 0.8614 0.2688
C23 C 1.26640(15) 0.8065(3) 0.15052(13)
H37 H 1.2716 0.9386 0.1369
H38 H 1.2765 0.7311 0.1023
H39 H 1.3249 0.7754 0.1957
C24 C 1.05851(16) 0.8121(3) 0.10608(13)
H40 H 1.0629 0.9441 0.0919
H41 H 0.9848 0.7855 0.1229
H42 H 1.0692 0.7361 0.0581
loop_
_geom_bond_atom_site_label_1
_geom_bond_atom_site_label_2
_geom_bond_site_symmetry_1
_geom_bond_site_symmetry_2
Si1 O3 1_555 1_555
Si2 O4 1_555 1_555
S1 O1 1_555 1_555
O2 S1 1_555 1_555
O3 C11 1_555 1_555
O4 C12 1_555 1_555
N1 S1 1_555 1_555
N2 C9 1_555 1_555
C1 H1 1_555 1_555
H2 C1 1_555 1_555
H3 C1 1_555 1_555
C2 C1 1_555 1_555
C3 C2 1_555 1_555
H4 C3 1_555 1_555
C4 C2 1_555 1_555
H5 C4 1_555 1_555
C5 C3 1_555 1_555
H6 C5 1_555 1_555
C6 C4 1_555 1_555
H7 C6 1_555 1_555
C7 S1 1_555 1_555
C8 N1 1_555 1_555
H8 C8 1_555 1_555
C9 C8 1_555 1_555
C10 N1 1_555 1_555
H9 C10 1_555 1_555
H10 C10 1_555 1_555
C11 C10 1_555 1_555
H11 C11 1_555 1_555
C12 C8 1_555 1_555
H12 C12 1_555 1_555
C13 Si1 1_555 1_555
H13 C13 1_555 1_555
H14 C13 1_555 1_555
H15 C13 1_555 1_555
C14 Si1 1_555 1_555
H16 C14 1_555 1_555
H17 C14 1_555 1_555
H18 C14 1_555 1_555
C15 Si1 1_555 1_555
C16 C15 1_555 1_555
H19 C16 1_555 1_555
H20 C16 1_555 1_555
H21 C16 1_555 1_555
C17 C15 1_555 1_555
H22 C17 1_555 1_555
H23 C17 1_555 1_555
H24 C17 1_555 1_555
C18 C15 1_555 1_555
H25 C18 1_555 1_555
H26 C18 1_555 1_555
H27 C18 1_555 1_555
C19 Si2 1_555 1_555
H28 C19 1_555 1_555
H29 C19 1_555 1_555
H30 C19 1_555 1_555
C20 Si2 1_555 1_555
H31 C20 1_555 1_555
H32 C20 1_555 1_555
H33 C20 1_555 1_555
C21 Si2 1_555 1_555
C22 C21 1_555 1_555
H34 C22 1_555 1_555
H35 C22 1_555 1_555
H36 C22 1_555 1_555
C23 C21 1_555 1_555
H37 C23 1_555 1_555
H38 C23 1_555 1_555
H39 C23 1_555 1_555
C24 C21 1_555 1_555
H40 C24 1_555 1_555
H41 C24 1_555 1_555
H42 C24 1_555 1_555
C5 C7 1_555 1_555
C6 C7 1_555 1_555
C11 C12 1_555 1_555

#END
