
#######################################################################
#
#                 Cambridge Crystallographic Data Centre
#                                CCDC 
#
#######################################################################
#
# If this CIF has been generated from an entry in the Cambridge 
# Structural Database, then it will include bibliographic, chemical, 
# crystal, experimental, refinement or atomic coordinate data resulting 
# from the CCDC's data processing and validation procedures.
#
#######################################################################

data_NEMXIO
_chemical_formula_moiety         'C15 H18 O5'
_chemical_name_systematic        
'Methyl 7-methyl-4-methylene-3,6-dioxodecahydropentaleno[1,6a-c]pyran-9-carboxylate'
_symmetry_cell_setting           monoclinic
_symmetry_space_group_name_H-M   'C 2/c'
_symmetry_Int_Tables_number      15
_space_group_name_Hall           '-C 2yn'
loop_
_symmetry_equiv_pos_site_id
_symmetry_equiv_pos_as_xyz
1 x,y,z
2 -x,y,1/2-z
3 1/2+x,1/2+y,z
4 1/2-x,1/2+y,1/2-z
5 -x,-y,-z
6 x,-y,1/2+z
7 1/2-x,1/2-y,-z
8 1/2+x,1/2-y,1/2+z
_cell_length_a                   20.958(4)
_cell_length_b                   9.4342(19)
_cell_length_c                   14.441(3)
_cell_angle_alpha                90
_cell_angle_beta                 104.82(3)
_cell_angle_gamma                90
_cell_volume                     2760.32
_cell_formula_units_Z            8
loop_
_atom_site_label
_atom_site_type_symbol
_atom_site_fract_x
_atom_site_fract_y
_atom_site_fract_z
C1 C 0.08943(7) -0.04126(16) 0.08918(10)
H1 H 0.0643 -0.0061 0.0266
C2 C 0.06124(7) 0.02032(16) 0.16844(11)
H2 H 0.0134 0.0158 0.1512
H3 H 0.0783 -0.0292 0.2285
C3 C 0.08536(8) 0.17354(16) 0.17483(10)
H4 H 0.0585 0.2264 0.1202
C4 C 0.15707(7) 0.16475(15) 0.16436(10)
H5 H 0.1872 0.1615 0.2286
C5 C 0.16129(7) 0.02090(15) 0.11374(10)
C6 C 0.20106(8) -0.09281(16) 0.18024(11)
H6 H 0.2459 -0.0969 0.1736
H7 H 0.2025 -0.0720 0.2465
C7 C 0.16588(8) -0.23164(17) 0.14989(11)
C8 C 0.09786(8) -0.20222(16) 0.08514(11)
H8 H 0.0999 -0.2251 0.0197
C9 C 0.18329(8) 0.04169(17) 0.02232(10)
C10 C 0.15453(9) 0.16501(18) -0.03772(11)
C11 C 0.17694(9) 0.28674(17) 0.11036(11)
H9 H 0.1668 0.3754 0.1375
H10 H 0.2242 0.2834 0.1172
C12 C 0.22251(10) -0.0435(2) -0.01022(13)
H11 H 0.2313 -0.0253 -0.0690
H12 H 0.2413 -0.1218 0.0256
C13 C 0.04368(10) -0.2940(2) 0.10644(17)
H13 H 0.0385 -0.2714 0.1689
H14 H 0.0554 -0.3921 0.1044
H15 H 0.0029 -0.2764 0.0594
C14 C 0.08350(8) 0.24982(18) 0.26590(11)
C15 C 0.09299(13) 0.4756(2) 0.34068(15)
H16 H 0.0514 0.4718 0.3570
H17 H 0.1025 0.5719 0.3274
H18 H 0.1271 0.4405 0.3933
O1 O 0.18876(7) -0.34801(13) 0.17303(11)
O2 O 0.14259(6) 0.28151(12) 0.00927(7)
O3 O 0.14119(8) 0.16759(15) -0.12450(8)
O4 O 0.07842(8) 0.19559(15) 0.33819(9)
O5 O 0.08980(8) 0.38862(13) 0.25642(9)
loop_
_geom_bond_atom_site_label_1
_geom_bond_atom_site_label_2
_geom_bond_site_symmetry_1
_geom_bond_site_symmetry_2
C1 H1 1_555 1_555
C2 C1 1_555 1_555
H2 C2 1_555 1_555
H3 C2 1_555 1_555
C3 C2 1_555 1_555
H4 C3 1_555 1_555
C4 C3 1_555 1_555
H5 C4 1_555 1_555
C5 C1 1_555 1_555
C6 C5 1_555 1_555
H6 C6 1_555 1_555
H7 C6 1_555 1_555
C7 C6 1_555 1_555
C8 C1 1_555 1_555
H8 C8 1_555 1_555
C9 C5 1_555 1_555
C10 C9 1_555 1_555
C11 C4 1_555 1_555
H9 C11 1_555 1_555
H10 C11 1_555 1_555
C12 C9 1_555 1_555
H11 C12 1_555 1_555
H12 C12 1_555 1_555
C13 C8 1_555 1_555
H13 C13 1_555 1_555
H14 C13 1_555 1_555
H15 C13 1_555 1_555
C14 C3 1_555 1_555
C15 H16 1_555 1_555
H17 C15 1_555 1_555
H18 C15 1_555 1_555
O1 C7 1_555 1_555
O2 C10 1_555 1_555
O3 C10 1_555 1_555
O4 C14 1_555 1_555
O5 C14 1_555 1_555
C4 C5 1_555 1_555
C7 C8 1_555 1_555
C11 O2 1_555 1_555
C15 O5 1_555 1_555

#END
