
#######################################################################
#
#                 Cambridge Crystallographic Data Centre
#                                CCDC 
#
#######################################################################
#
# If this CIF has been generated from an entry in the Cambridge 
# Structural Database, then it will include bibliographic, chemical, 
# crystal, experimental, refinement or atomic coordinate data resulting 
# from the CCDC's data processing and validation procedures.
#
#######################################################################

data_NENCUH
_chemical_formula_moiety         'C61 H69 B1 N3 O1 1-,C6 H16 N1 1+'
_chemical_name_systematic        
"triethylammonium 2,5,8,11,17,20-hexa-t-butyl-13c-methoxy-13,14,15-(but[2]en[1]yl[1,4]diylidene)-13b,13d,18d-triaza-13\L^5^-borafluoreno[1',9',8':4,5,6,7]indeno[7',1':8,9,10]heptaleno[3,2,1-jk]fluorene unknown solvate"
_symmetry_cell_setting           monoclinic
_symmetry_space_group_name_H-M   'P 21/c'
_symmetry_Int_Tables_number      14
_space_group_name_Hall           '-P 2ybc'
loop_
_symmetry_equiv_pos_site_id
_symmetry_equiv_pos_as_xyz
1 x,y,z
2 -x,1/2+y,1/2-z
3 -x,-y,-z
4 x,1/2-y,1/2+z
_cell_length_a                   13.1761(13)
_cell_length_b                   30.538(3)
_cell_length_c                   16.3056(18)
_cell_angle_alpha                90
_cell_angle_beta                 97.850(7)
_cell_angle_gamma                90
_cell_volume                     6499.43
_exptl_crystal_colour            yellow
_exptl_crystal_description       platelet
_cell_formula_units_Z            4
_exptl_crystal_recrystallization_method CHCl3/MeOH/NEt3
loop_
_atom_site_label
_atom_site_type_symbol
_atom_site_fract_x
_atom_site_fract_y
_atom_site_fract_z
O1 O 0.1488(3) 0.22202(13) 0.1926(2)
N1 N 0.2118(3) 0.22632(12) 0.3429(3)
N2 N 0.0215(3) 0.23689(13) 0.2809(2)
N3 N 0.1053(3) 0.15834(16) 0.2800(3)
C1 C 0.2373(4) 0.27077(15) 0.3594(3)
C2 C 0.1968(4) 0.30972(16) 0.3229(3)
C3 C 0.2518(4) 0.34728(17) 0.3494(4)
H1 H 0.2308 0.3736 0.3209
C4 C 0.3324(4) 0.35074(17) 0.4115(4)
C5 C 0.3617(4) 0.31280(17) 0.4547(4)
H2 H 0.4129 0.3134 0.5017
C6 C 0.3139(4) 0.27327(16) 0.4273(3)
C7 C 0.3343(4) 0.22998(16) 0.4573(3)
C8 C 0.3999(4) 0.21403(18) 0.5265(3)
H3 H 0.4357 0.2340 0.5647
C9 C 0.4120(5) 0.17040(19) 0.5388(4)
C10 C 0.3634(4) 0.14273(18) 0.4759(3)
H4 H 0.3735 0.1121 0.4826
C11 C 0.3023(4) 0.15708(16) 0.4052(3)
C12 C 0.2772(4) 0.20193(16) 0.4012(3)
C13 C 0.3795(5) 0.3953(2) 0.4400(5)
C14 C 0.4932(9) 0.3901(3) 0.4617(14)
H5 H 0.5087 0.3780 0.5177
H6 H 0.5263 0.4188 0.4595
H7 H 0.5189 0.3702 0.4221
C15 C 0.3693(8) 0.4287(2) 0.3703(6)
H8 H 0.4065 0.4554 0.3894
H9 H 0.2968 0.4357 0.3539
H10 H 0.3980 0.4166 0.3228
C16 C 0.3272(13) 0.4128(3) 0.5043(7)
H11 H 0.3539 0.4421 0.5195
H12 H 0.3381 0.3936 0.5528
H13 H 0.2537 0.4148 0.4844
C17 C 0.4746(6) 0.1523(2) 0.6177(5)
C18 C 0.5796(6) 0.1778(3) 0.6346(5)
H14 H 0.5661 0.2093 0.6377
H15 H 0.6199 0.1721 0.5895
H16 H 0.6178 0.1679 0.6871
C19 C 0.4212(8) 0.1636(4) 0.6906(5)
H17 H 0.3577 0.1466 0.6879
H18 H 0.4050 0.1949 0.6894
H19 H 0.4660 0.1566 0.7419
C20 C 0.5067(11) 0.1068(3) 0.6082(7)
H20 H 0.5316 0.1034 0.5546
H21 H 0.4483 0.0873 0.6108
H22 H 0.5617 0.0995 0.6528
C21 C -0.0796(3) 0.22207(15) 0.2802(3)
C22 C -0.1248(4) 0.18119(16) 0.2597(3)
C23 C -0.2271(4) 0.17655(17) 0.2725(3)
H23 H -0.2558 0.1480 0.2671
C24 C -0.2905(4) 0.21036(18) 0.2927(3)
C25 C -0.2498(4) 0.25211(17) 0.2949(3)
H24 H -0.2917 0.2767 0.3021
C26 C -0.1451(4) 0.25794(16) 0.2864(3)
C27 C -0.0861(4) 0.29658(16) 0.2774(3)
C28 C -0.1166(4) 0.33940(17) 0.2607(3)
H25 H -0.1857 0.3478 0.2623
C29 C -0.0461(4) 0.36974(16) 0.2416(4)
C30 C 0.0571(4) 0.35621(17) 0.2514(4)
H26 H 0.1066 0.3770 0.2392
C31 C 0.0922(4) 0.31489(17) 0.2775(3)
C32 C 0.0164(4) 0.28270(16) 0.2780(3)
C33 C -0.4004(4) 0.20050(18) 0.3077(4)
C34 C -0.4540(5) 0.2410(2) 0.3359(5)
H27 H -0.4515 0.2646 0.2955
H28 H -0.4194 0.2505 0.3900
H29 H -0.5256 0.2340 0.3404
C35 C -0.4617(5) 0.1826(2) 0.2285(4)
H30 H -0.4288 0.1560 0.2114
H31 H -0.4642 0.2047 0.1846
H32 H -0.5316 0.1757 0.2387
C36 C -0.3977(5) 0.1656(2) 0.3768(4)
H33 H -0.3588 0.1769 0.4280
H34 H -0.3647 0.1389 0.3598
H35 H -0.4678 0.1588 0.3865
C37 C -0.0731(5) 0.4173(2) 0.2156(5)
C38 C -0.0246(8) 0.4485(2) 0.2812(6)
H36 H 0.0501 0.4454 0.2874
H37 H -0.0489 0.4419 0.3340
H38 H -0.0433 0.4787 0.2649
C39 C -0.1868(6) 0.4242(3) 0.2036(8)
H39 H -0.2141 0.4170 0.2548
H40 H -0.2187 0.4053 0.1587
H41 H -0.2019 0.4549 0.1892
C40 C -0.0343(7) 0.4260(3) 0.1321(6)
H42 H -0.0616 0.4036 0.0920
H43 H 0.0408 0.4249 0.1397
H44 H -0.0572 0.4550 0.1115
C41 C 0.1897(4) 0.12861(18) 0.2801(3)
C42 C 0.2789(4) 0.12679(15) 0.3358(3)
C43 C 0.3495(4) 0.09452(16) 0.3210(3)
H45 H 0.4143 0.0948 0.3548
C44 C 0.3326(4) 0.06216(15) 0.2610(3)
C45 C 0.2391(4) 0.06223(17) 0.2109(3)
H46 H 0.2230 0.0398 0.1708
C46 C 0.1682(4) 0.09561(18) 0.2197(4)
C47 C 0.0620(4) 0.1018(2) 0.1851(4)
C48 C -0.0023(4) 0.07671(18) 0.1272(4)
H47 H 0.0241 0.0522 0.1011
C49 C -0.1033(4) 0.08810(18) 0.1089(4)
C50 C -0.1395(4) 0.12330(18) 0.1527(4)
H48 H -0.2096 0.1313 0.1404
C51 C -0.0771(4) 0.14693(17) 0.2133(4)
C52 C 0.0269(4) 0.13786(19) 0.2256(4)
C53 C 0.4166(4) 0.02839(16) 0.2534(4)
C54 C 0.3840(5) -0.00634(19) 0.1881(4)
H49 H 0.3217 -0.0209 0.2008
H50 H 0.4389 -0.0280 0.1880
H51 H 0.3704 0.0075 0.1335
C55 C 0.4444(5) 0.00494(19) 0.3368(4)
H52 H 0.5021 -0.0150 0.3335
H53 H 0.3852 -0.0118 0.3498
H54 H 0.4638 0.0267 0.3804
C56 C 0.5140(5) 0.0511(2) 0.2314(5)
H55 H 0.5669 0.0291 0.2266
H56 H 0.5390 0.0721 0.2749
H57 H 0.4977 0.0666 0.1785
C57 C -0.1802(4) 0.06401(18) 0.0437(4)
C58 C -0.1296(5) 0.0255(2) 0.0065(4)
H58 H -0.1779 0.0124 -0.0377
H59 H -0.1094 0.0036 0.0495
H60 H -0.0687 0.0357 -0.0164
C59 C -0.2705(5) 0.0478(2) 0.0815(5)
H61 H -0.2468 0.0291 0.1292
H62 H -0.3156 0.0309 0.0404
H63 H -0.3083 0.0729 0.0998
C60 C -0.2149(5) 0.0966(2) -0.0273(4)
H64 H -0.2635 0.0820 -0.0695
H65 H -0.1552 0.1064 -0.0520
H66 H -0.2481 0.1219 -0.0052
C61 C 0.2491(4) 0.2141(2) 0.1729(4)
H67 H 0.2657 0.1830 0.1806
H68 H 0.2987 0.2316 0.2094
H69 H 0.2520 0.2223 0.1152
B1 B 0.1226(4) 0.21014(19) 0.2742(4)
N4 N 0.0127(4) 0.2597(3) 0.5550(3)
H70 H 0.0590 0.2673 0.6069
C62 C 0.0726(6) 0.2318(4) 0.5048(5)
H71 H 0.1319 0.2486 0.4902
H72 H 0.0292 0.2235 0.4527
C63 C 0.1120(8) 0.1893(3) 0.5532(5)
H73 H 0.0533 0.1723 0.5664
H74 H 0.1553 0.1975 0.6046
H75 H 0.1519 0.1717 0.5189
C64 C -0.0815(5) 0.2418(4) 0.5803(4)
H76 H -0.1120 0.2641 0.6135
H77 H -0.0634 0.2162 0.6165
C65 C -0.1616(7) 0.2278(6) 0.5097(6)
H78 H -0.1327 0.2054 0.4765
H79 H -0.1829 0.2532 0.4748
H80 H -0.2210 0.2157 0.5320
C66 C -0.0149(7) 0.3039(4) 0.5072(5)
H81 H -0.0489 0.2972 0.4506
H82 H -0.0640 0.3206 0.5359
C67 C 0.0721(7) 0.3299(3) 0.5019(5)
H83 H 0.1211 0.3135 0.4737
H84 H 0.1042 0.3378 0.5578
H85 H 0.0516 0.3566 0.4706
loop_
_geom_bond_atom_site_label_1
_geom_bond_atom_site_label_2
_geom_bond_site_symmetry_1
_geom_bond_site_symmetry_2
O1 C61 1_555 1_555
N1 C1 1_555 1_555
N2 C21 1_555 1_555
N3 C41 1_555 1_555
C1 C2 1_555 1_555
C2 C3 1_555 1_555
C3 H1 1_555 1_555
C4 C3 1_555 1_555
C5 C4 1_555 1_555
H2 C5 1_555 1_555
C6 C1 1_555 1_555
C7 C6 1_555 1_555
C8 C7 1_555 1_555
H3 C8 1_555 1_555
C9 C8 1_555 1_555
C10 C9 1_555 1_555
H4 C10 1_555 1_555
C11 C10 1_555 1_555
C12 N1 1_555 1_555
C13 C4 1_555 1_555
C14 C13 1_555 1_555
H5 C14 1_555 1_555
H6 C14 1_555 1_555
H7 C14 1_555 1_555
C15 C13 1_555 1_555
H8 C15 1_555 1_555
H9 C15 1_555 1_555
H10 C15 1_555 1_555
C16 C13 1_555 1_555
H11 C16 1_555 1_555
H12 C16 1_555 1_555
H13 C16 1_555 1_555
C17 C9 1_555 1_555
C18 C17 1_555 1_555
H14 C18 1_555 1_555
H15 C18 1_555 1_555
H16 C18 1_555 1_555
C19 C17 1_555 1_555
H17 C19 1_555 1_555
H18 C19 1_555 1_555
H19 C19 1_555 1_555
C20 C17 1_555 1_555
H20 C20 1_555 1_555
H21 C20 1_555 1_555
H22 C20 1_555 1_555
C21 C22 1_555 1_555
C22 C23 1_555 1_555
C23 H23 1_555 1_555
C24 C23 1_555 1_555
C25 C24 1_555 1_555
H24 C25 1_555 1_555
C26 C21 1_555 1_555
C27 C26 1_555 1_555
C28 C27 1_555 1_555
H25 C28 1_555 1_555
C29 C28 1_555 1_555
C30 C29 1_555 1_555
H26 C30 1_555 1_555
C31 C2 1_555 1_555
C32 N2 1_555 1_555
C33 C24 1_555 1_555
C34 C33 1_555 1_555
H27 C34 1_555 1_555
H28 C34 1_555 1_555
H29 C34 1_555 1_555
C35 C33 1_555 1_555
H30 C35 1_555 1_555
H31 C35 1_555 1_555
H32 C35 1_555 1_555
C36 C33 1_555 1_555
H33 C36 1_555 1_555
H34 C36 1_555 1_555
H35 C36 1_555 1_555
C37 C29 1_555 1_555
C38 C37 1_555 1_555
H36 C38 1_555 1_555
H37 C38 1_555 1_555
H38 C38 1_555 1_555
C39 C37 1_555 1_555
H39 C39 1_555 1_555
H40 C39 1_555 1_555
H41 C39 1_555 1_555
C40 C37 1_555 1_555
H42 C40 1_555 1_555
H43 C40 1_555 1_555
H44 C40 1_555 1_555
C41 C42 1_555 1_555
C42 C11 1_555 1_555
C43 C42 1_555 1_555
H45 C43 1_555 1_555
C44 C43 1_555 1_555
C45 C44 1_555 1_555
H46 C45 1_555 1_555
C46 C41 1_555 1_555
C47 C46 1_555 1_555
C48 C47 1_555 1_555
H47 C48 1_555 1_555
C49 C48 1_555 1_555
C50 C49 1_555 1_555
H48 C50 1_555 1_555
C51 C22 1_555 1_555
C52 N3 1_555 1_555
C53 C44 1_555 1_555
C54 C53 1_555 1_555
H49 C54 1_555 1_555
H50 C54 1_555 1_555
H51 C54 1_555 1_555
C55 C53 1_555 1_555
H52 C55 1_555 1_555
H53 C55 1_555 1_555
H54 C55 1_555 1_555
C56 C53 1_555 1_555
H55 C56 1_555 1_555
H56 C56 1_555 1_555
H57 C56 1_555 1_555
C57 C49 1_555 1_555
C58 C57 1_555 1_555
H58 C58 1_555 1_555
H59 C58 1_555 1_555
H60 C58 1_555 1_555
C59 C57 1_555 1_555
H61 C59 1_555 1_555
H62 C59 1_555 1_555
H63 C59 1_555 1_555
C60 C57 1_555 1_555
H64 C60 1_555 1_555
H65 C60 1_555 1_555
H66 C60 1_555 1_555
C61 H67 1_555 1_555
H68 C61 1_555 1_555
H69 C61 1_555 1_555
B1 O1 1_555 1_555
N4 H70 1_555 1_555
C62 N4 1_555 1_555
H71 C62 1_555 1_555
H72 C62 1_555 1_555
C63 C62 1_555 1_555
H73 C63 1_555 1_555
H74 C63 1_555 1_555
H75 C63 1_555 1_555
C64 N4 1_555 1_555
H76 C64 1_555 1_555
H77 C64 1_555 1_555
C65 C64 1_555 1_555
H78 C65 1_555 1_555
H79 C65 1_555 1_555
H80 C65 1_555 1_555
C66 N4 1_555 1_555
H81 C66 1_555 1_555
H82 C66 1_555 1_555
C67 C66 1_555 1_555
H83 C67 1_555 1_555
H84 C67 1_555 1_555
H85 C67 1_555 1_555
N1 B1 1_555 1_555
N2 B1 1_555 1_555
N3 B1 1_555 1_555
C5 C6 1_555 1_555
C7 C12 1_555 1_555
C11 C12 1_555 1_555
C25 C26 1_555 1_555
C27 C32 1_555 1_555
C30 C31 1_555 1_555
C31 C32 1_555 1_555
C45 C46 1_555 1_555
C47 C52 1_555 1_555
C50 C51 1_555 1_555
C51 C52 1_555 1_555

#END
