
#######################################################################
#
#                 Cambridge Crystallographic Data Centre
#                                CCDC 
#
#######################################################################
#
# If this CIF has been generated from an entry in the Cambridge 
# Structural Database, then it will include bibliographic, chemical, 
# crystal, experimental, refinement or atomic coordinate data resulting 
# from the CCDC's data processing and validation procedures.
#
#######################################################################

data_NENDAM
_chemical_formula_moiety         'C8 H5 N1 O6,C6 H6 N2 O3'
_chemical_name_systematic        
'3-Nitrophthalic acid 3-methyl-4-nitropyridine N-oxide'
_symmetry_cell_setting           triclinic
_symmetry_space_group_name_H-M   'P -1'
_symmetry_Int_Tables_number      2
_space_group_name_Hall           '-P 1'
loop_
_symmetry_equiv_pos_site_id
_symmetry_equiv_pos_as_xyz
1 x,y,z
2 -x,-y,-z
_cell_length_a                   7.6076(15)
_cell_length_b                   7.8180(16)
_cell_length_c                   14.546(3)
_cell_angle_alpha                93.90(3)
_cell_angle_beta                 97.21(3)
_cell_angle_gamma                114.43(3)
_cell_volume                     774.536
_exptl_crystal_colour            yellow
_cell_formula_units_Z            2
loop_
_atom_site_label
_atom_site_type_symbol
_atom_site_fract_x
_atom_site_fract_y
_atom_site_fract_z
C1 C 0.5196(4) 0.2250(4) 0.1841(2)
H1 H 0.4037 0.2041 0.2061
C2 C 0.5229(5) 0.2206(4) 0.0898(2)
H2 H 0.4095 0.1963 0.0481
C3 C 0.6949(5) 0.2524(4) 0.0569(2)
H3 H 0.6977 0.2465 -0.0070
C4 C 0.8620(4) 0.2932(4) 0.1199(2)
C5 C 0.8648(4) 0.2974(3) 0.21584(17)
C6 C 1.0477(4) 0.3407(3) 0.28369(18)
C7 C 0.6876(4) 0.2603(3) 0.24687(17)
C8 C 0.6800(4) 0.2520(3) 0.34867(18)
N1 N 1.0461(5) 0.3410(5) 0.0838(2)
O1 O 1.0363(6) 0.2671(8) 0.0074(2)
O2 O 1.1982(4) 0.4522(4) 0.1309(2)
O3 O 1.1261(3) 0.2357(3) 0.28956(15)
O4 O 1.1062(3) 0.5055(2) 0.33497(13)
H10 H 1.2152 0.5350 0.3654
O5 O 0.7708(3) 0.1857(3) 0.39692(14)
O6 O 0.5645(3) 0.3215(2) 0.37785(13)
H11 H 0.5707 0.3216 0.4345
C9 C 0.7149(5) 0.7824(5) 0.1648(2)
H4 H 0.8356 0.8140 0.1415
H5 H 0.6690 0.8778 0.1539
H6 H 0.6189 0.6618 0.1332
C10 C 0.7484(4) 0.7725(3) 0.26806(18)
C11 C 0.9252(4) 0.8072(3) 0.32410(19)
C12 C 0.9378(4) 0.7982(3) 0.41911(19)
H7 H 1.0573 0.8235 0.4557
C13 C 0.7733(4) 0.7519(3) 0.45904(19)
H8 H 0.7800 0.7453 0.5229
C14 C 0.5901(4) 0.7293(3) 0.31337(18)
H9 H 0.4698 0.7084 0.2789
N2 N 1.1061(4) 0.8527(3) 0.2852(2)
N3 N 0.6021(3) 0.7160(3) 0.40517(14)
O7 O 1.0932(4) 0.8079(4) 0.20257(18)
O8 O 1.2604(3) 0.9276(3) 0.33971(18)
O9 O 0.4416(3) 0.6633(3) 0.44347(13)
loop_
_geom_bond_atom_site_label_1
_geom_bond_atom_site_label_2
_geom_bond_site_symmetry_1
_geom_bond_site_symmetry_2
C1 H1 1_555 1_555
C2 C1 1_555 1_555
H2 C2 1_555 1_555
C3 C2 1_555 1_555
H3 C3 1_555 1_555
C4 C3 1_555 1_555
C5 C4 1_555 1_555
C6 C5 1_555 1_555
C7 C1 1_555 1_555
C8 C7 1_555 1_555
C9 H4 1_555 1_555
H5 C9 1_555 1_555
H6 C9 1_555 1_555
C10 C9 1_555 1_555
C11 C10 1_555 1_555
C12 C11 1_555 1_555
H7 C12 1_555 1_555
C13 C12 1_555 1_555
H8 C13 1_555 1_555
C14 C10 1_555 1_555
H9 C14 1_555 1_555
N1 C4 1_555 1_555
N2 C11 1_555 1_555
N3 C13 1_555 1_555
O1 N1 1_555 1_555
O2 N1 1_555 1_555
O3 C6 1_555 1_555
O4 C6 1_555 1_555
H10 O4 1_555 1_555
O5 C8 1_555 1_555
O6 C8 1_555 1_555
H11 O6 1_555 1_555
O7 N2 1_555 1_555
O8 N2 1_555 1_555
O9 N3 1_555 1_555
C5 C7 1_555 1_555
C14 N3 1_555 1_555

#END
