
#######################################################################
#
#                 Cambridge Crystallographic Data Centre
#                                CCDC 
#
#######################################################################
#
# If this CIF has been generated from an entry in the Cambridge 
# Structural Database, then it will include bibliographic, chemical, 
# crystal, experimental, refinement or atomic coordinate data resulting 
# from the CCDC's data processing and validation procedures.
#
#######################################################################

data_NENDOZ01
_chemical_formula_moiety         'C48 H36 N4 O4'
_chemical_name_systematic        
25,26,27,28-tetrakis(Pyrid-2-yloxy)calix(4)arene
_symmetry_cell_setting           monoclinic
_symmetry_space_group_name_H-M   'C 2/c'
_symmetry_Int_Tables_number      15
_space_group_name_Hall           '-C 2yn'
loop_
_symmetry_equiv_pos_site_id
_symmetry_equiv_pos_as_xyz
1 x,y,z
2 1/2+x,1/2+y,z
3 -x,y,1/2-z
4 1/2-x,1/2+y,1/2-z
5 -x,-y,-z
6 1/2-x,1/2-y,-z
7 x,-y,1/2+z
8 1/2+x,1/2-y,1/2+z
_cell_length_a                   18.885(3)
_cell_length_b                   9.8490(17)
_cell_length_c                   20.599(4)
_cell_angle_alpha                90
_cell_angle_beta                 103.424(4)
_cell_angle_gamma                90
_cell_volume                     3726.7
_exptl_crystal_colour            colorless
_cell_formula_units_Z            4
_exptl_crystal_recrystallization_method toluene/dichloromethane
loop_
_atom_site_label
_atom_site_type_symbol
_atom_site_fract_x
_atom_site_fract_y
_atom_site_fract_z
O1 O -0.06832(6) 0.16655(11) 0.29988(5)
C1 C -0.09808(13) -0.1174(2) 0.39559(13)
H1 H -0.1071 -0.1354 0.4378
N1 N -0.09135(10) 0.01317(15) 0.37807(9)
O2 O 0.09096(6) 0.14038(10) 0.36220(5)
N2 N 0.18752(7) 0.13322(13) 0.45525(6)
C2 C -0.09248(11) -0.2247(2) 0.35520(14)
H2 H -0.0968 -0.3143 0.3695
C3 C -0.08040(13) -0.1987(2) 0.29324(13)
H3 H -0.0763 -0.2706 0.2643
C4 C -0.07437(11) -0.06620(19) 0.27379(10)
H4 H -0.0673 -0.0454 0.2312
C5 C -0.07914(9) 0.03463(16) 0.31879(9)
C6 C -0.10812(9) 0.26604(16) 0.32454(8)
C7 C -0.17308(9) 0.30704(16) 0.28189(8)
C8 C -0.19075(9) 0.26285(17) 0.20956(8)
H5 H -0.2425 0.2782 0.1897
H6 H -0.1808 0.1656 0.2068
C9 C -0.21582(10) 0.40004(18) 0.30679(10)
H7 H -0.2608 0.4278 0.2799
C10 C -0.19286(11) 0.45171(18) 0.37044(10)
H8 H -0.2231 0.5114 0.3873
C11 C -0.12541(10) 0.41613(17) 0.40971(9)
H9 H -0.1094 0.4554 0.4522
C12 C -0.08087(9) 0.32291(16) 0.38719(8)
C13 C -0.00422(10) 0.29124(17) 0.42637(8)
H10 H 0.0031 0.1927 0.4283
H11 H 0.0022 0.3247 0.4722
C14 C 0.05203(9) 0.35714(16) 0.39412(7)
C15 C 0.05744(10) 0.49846(17) 0.39282(8)
H12 H 0.0279 0.5516 0.4138
C16 C 0.10554(11) 0.56124(17) 0.36123(8)
H13 H 0.1094 0.6564 0.3618
C17 C 0.14798(10) 0.48507(17) 0.32881(8)
H14 H 0.1795 0.5291 0.3064
C18 C -0.14472(9) 0.34329(15) 0.17123(8)
C19 C 0.09726(8) 0.28274(15) 0.36254(7)
C20 C 0.13198(8) 0.07116(15) 0.41609(7)
C21 C 0.11093(9) -0.06187(16) 0.42412(8)
H15 H 0.0704 -0.1010 0.3949
C22 C 0.15214(10) -0.13378(17) 0.47686(9)
H16 H 0.1401 -0.2242 0.4843
C23 C 0.21127(10) -0.07242(17) 0.51876(9)
H17 H 0.2401 -0.1202 0.5549
C24 C 0.22688(9) 0.05997(17) 0.50640(8)
H18 H 0.2670 0.1016 0.5350
O1B O 0.06832(6) 0.16655(11) 0.20012(5)
C1B C 0.09808(13) -0.1174(2) 0.10441(13)
H1B H 0.1071 -0.1354 0.0622
N1B N 0.09135(10) 0.01317(15) 0.12193(9)
O2B O -0.09096(6) 0.14038(10) 0.13780(5)
N2B N -0.18752(7) 0.13322(13) 0.04475(6)
C2B C 0.09248(11) -0.2247(2) 0.14480(14)
H2B H 0.0968 -0.3143 0.1305
C3B C 0.08040(13) -0.1987(2) 0.20676(13)
H3B H 0.0763 -0.2706 0.2357
C4B C 0.07437(11) -0.06620(19) 0.22621(10)
H4B H 0.0673 -0.0454 0.2688
C5B C 0.07914(9) 0.03463(16) 0.18121(9)
C6B C 0.10812(9) 0.26604(16) 0.17546(8)
C7B C 0.17308(9) 0.30704(16) 0.21811(8)
C8B C 0.19075(9) 0.26285(17) 0.29044(8)
H5B H 0.2425 0.2782 0.3103
H6B H 0.1808 0.1656 0.2932
C9B C 0.21582(10) 0.40004(18) 0.19321(10)
H7B H 0.2608 0.4278 0.2201
C10B C 0.19286(11) 0.45171(18) 0.12956(10)
H8B H 0.2231 0.5114 0.1127
C11B C 0.12541(10) 0.41613(17) 0.09029(9)
H9B H 0.1094 0.4554 0.0478
C12B C 0.08087(9) 0.32291(16) 0.11281(8)
C13B C 0.00422(10) 0.29124(17) 0.07363(8)
H10B H -0.0031 0.1927 0.0717
H11B H -0.0022 0.3247 0.0278
C14B C -0.05203(9) 0.35714(16) 0.10588(7)
C15B C -0.05744(10) 0.49846(17) 0.10718(8)
H12B H -0.0279 0.5516 0.0862
C16B C -0.10554(11) 0.56124(17) 0.13877(8)
H13B H -0.1094 0.6564 0.1382
C17B C -0.14798(10) 0.48507(17) 0.17119(8)
H14B H -0.1795 0.5291 0.1936
C18B C 0.14472(9) 0.34329(15) 0.32877(8)
C19B C -0.09726(8) 0.28274(15) 0.13746(7)
C20B C -0.13198(8) 0.07116(15) 0.08391(7)
C21B C -0.11093(9) -0.06187(16) 0.07588(8)
H15B H -0.0704 -0.1010 0.1051
C22B C -0.15214(10) -0.13378(17) 0.02314(9)
H16B H -0.1401 -0.2242 0.0157
C23B C -0.21127(10) -0.07242(17) -0.01876(9)
H17B H -0.2401 -0.1202 -0.0549
C24B C -0.22688(9) 0.05997(17) -0.00640(8)
H18B H -0.2670 0.1016 -0.0350
loop_
_geom_bond_atom_site_label_1
_geom_bond_atom_site_label_2
_geom_bond_site_symmetry_1
_geom_bond_site_symmetry_2
O1 C5 1_555 1_555
C1 H1 1_555 1_555
N1 C1 1_555 1_555
O2 C19 1_555 1_555
N2 C20 1_555 1_555
C2 C1 1_555 1_555
H2 C2 1_555 1_555
C3 C2 1_555 1_555
H3 C3 1_555 1_555
C4 C3 1_555 1_555
H4 C4 1_555 1_555
C5 N1 1_555 1_555
C6 O1 1_555 1_555
C7 C6 1_555 1_555
C8 C7 1_555 1_555
H5 C8 1_555 1_555
H6 C8 1_555 1_555
C9 C7 1_555 1_555
H7 C9 1_555 1_555
C10 C9 1_555 1_555
H8 C10 1_555 1_555
C11 C10 1_555 1_555
H9 C11 1_555 1_555
C12 C6 1_555 1_555
C13 C12 1_555 1_555
H10 C13 1_555 1_555
H11 C13 1_555 1_555
C14 C13 1_555 1_555
C15 C14 1_555 1_555
H12 C15 1_555 1_555
C16 C15 1_555 1_555
H13 C16 1_555 1_555
C17 C16 1_555 1_555
H14 C17 1_555 1_555
C18 C8 1_555 1_555
C19 C14 1_555 1_555
C20 O2 1_555 1_555
C21 C20 1_555 1_555
H15 C21 1_555 1_555
C22 C21 1_555 1_555
H16 C22 1_555 1_555
C23 C22 1_555 1_555
H17 C23 1_555 1_555
C24 N2 1_555 1_555
H18 C24 1_555 1_555
O1B C5B 1_555 1_555
C1B H1B 1_555 1_555
N1B C1B 1_555 1_555
O2B C19B 1_555 1_555
N2B C20B 1_555 1_555
C2B C1B 1_555 1_555
H2B C2B 1_555 1_555
C3B C2B 1_555 1_555
H3B C3B 1_555 1_555
C4B C3B 1_555 1_555
H4B C4B 1_555 1_555
C5B N1B 1_555 1_555
C6B O1B 1_555 1_555
C7B C6B 1_555 1_555
C8B C7B 1_555 1_555
H5B C8B 1_555 1_555
H6B C8B 1_555 1_555
C9B C7B 1_555 1_555
H7B C9B 1_555 1_555
C10B C9B 1_555 1_555
H8B C10B 1_555 1_555
C11B C10B 1_555 1_555
H9B C11B 1_555 1_555
C12B C6B 1_555 1_555
C13B C12B 1_555 1_555
H10B C13B 1_555 1_555
H11B C13B 1_555 1_555
C14B C13B 1_555 1_555
C15B C14B 1_555 1_555
H12B C15B 1_555 1_555
C16B C15B 1_555 1_555
H13B C16B 1_555 1_555
C17B C18 1_555 1_555
H14B C17B 1_555 1_555
C18B C17 1_555 1_555
C19B C18 1_555 1_555
C20B O2B 1_555 1_555
C21B C20B 1_555 1_555
H15B C21B 1_555 1_555
C22B C21B 1_555 1_555
H16B C22B 1_555 1_555
C23B C22B 1_555 1_555
H17B C23B 1_555 1_555
C24B N2B 1_555 1_555
H18B C24B 1_555 1_555
C4 C5 1_555 1_555
C11 C12 1_555 1_555
C19 C18B 1_555 1_555
C23 C24 1_555 1_555
C4B C5B 1_555 1_555
C8B C18B 1_555 1_555
C11B C12B 1_555 1_555
C14B C19B 1_555 1_555
C16B C17B 1_555 1_555
C23B C24B 1_555 1_555

#END
