
#######################################################################
#
#                 Cambridge Crystallographic Data Centre
#                                CCDC 
#
#######################################################################
#
# If this CIF has been generated from an entry in the Cambridge 
# Structural Database, then it will include bibliographic, chemical, 
# crystal, experimental, refinement or atomic coordinate data resulting 
# from the CCDC's data processing and validation procedures.
#
#######################################################################

data_NENDUF
_chemical_formula_moiety         'C68 H52 N4 O4'
_chemical_name_systematic        
25,26,27,28-tetrakis(4-Methyl-2-quinolyloxy)calix(4)arene
_symmetry_cell_setting           monoclinic
_symmetry_space_group_name_H-M   'C 2/c'
_symmetry_Int_Tables_number      15
_space_group_name_Hall           '-C 2yn'
loop_
_symmetry_equiv_pos_site_id
_symmetry_equiv_pos_as_xyz
1 x,y,z
2 1/2+x,1/2+y,z
3 x,-y,1/2+z
4 1/2+x,1/2-y,1/2+z
5 -x,-y,-z
6 1/2-x,1/2-y,-z
7 -x,y,1/2-z
8 1/2-x,1/2+y,1/2-z
_cell_length_a                   25.700(2)
_cell_length_b                   12.9650(10)
_cell_length_c                   17.1598(13)
_cell_angle_alpha                90
_cell_angle_beta                 107.843(2)
_cell_angle_gamma                90
_cell_volume                     5442.63
_cell_formula_units_Z            4
loop_
_atom_site_label
_atom_site_type_symbol
_atom_site_fract_x
_atom_site_fract_y
_atom_site_fract_z
N1 N 0.35986(5) 0.89768(10) 0.00236(8)
N2 N 0.36767(6) 0.61336(10) 0.35629(8)
O1 O 0.43627(5) 0.67092(9) 0.30636(7)
O2 O 0.43212(5) 0.86676(9) 0.11887(7)
C1 C 0.42290(7) 0.77438(13) 0.31504(10)
C2 C 0.45333(8) 0.82717(15) 0.38420(11)
C3 C 0.44307(10) 0.93205(17) 0.38775(14)
H1 H 0.4631 0.9701 0.4329
C4 C 0.40390(10) 0.98048(17) 0.32587(16)
H2 H 0.3973 1.0506 0.3297
C5 C 0.37437(9) 0.92577(16) 0.25833(14)
H3 H 0.3477 0.9593 0.2170
C6 C 0.38359(7) 0.82127(14) 0.25057(11)
C7 C 0.35273(7) 0.76110(15) 0.17511(12)
H4 H 0.3302 0.7101 0.1907
H5 H 0.3284 0.8081 0.1368
C8 C 0.38760(7) 0.70693(14) 0.13179(10)
C9 C 0.38406(9) 0.60105(16) 0.11795(13)
H6 H 0.3585 0.5630 0.1342
C10 C 0.41736(10) 0.55124(17) 0.08084(13)
H7 H 0.4139 0.4805 0.0717
C11 C 0.45569(10) 0.60619(17) 0.05738(12)
H8 H 0.4784 0.5718 0.0330
C12 C 0.46129(8) 0.71253(15) 0.06927(10)
C13 C 0.42568(7) 0.76018(13) 0.10428(9)
C14 C 0.49557(9) 0.77279(17) 0.45391(11)
H9 H 0.5137 0.8241 0.4942
H10 H 0.4765 0.7260 0.4800
C15 C 0.40749(7) 0.59323(13) 0.32742(10)
C16 C 0.42584(8) 0.49404(14) 0.31459(11)
H11 H 0.4543 0.4866 0.2922
C17 C 0.40181(8) 0.40985(14) 0.33499(11)
C18 C 0.35828(8) 0.42572(13) 0.36897(10)
C19 C 0.33190(10) 0.34500(17) 0.39660(13)
H12 H 0.3430 0.2773 0.3932
C20 C 0.29059(11) 0.3644(2) 0.42815(14)
H13 H 0.2740 0.3100 0.4467
C21 C 0.27284(10) 0.4645(2) 0.43312(14)
H14 H 0.2437 0.4767 0.4533
C22 C 0.29830(8) 0.54571(17) 0.40816(13)
H15 H 0.2863 0.6127 0.4119
C23 C 0.34197(7) 0.52856(14) 0.37732(10)
C24 C 0.42035(12) 0.30206(16) 0.32192(16)
H16 H 0.4499 0.3063 0.2988
H17 H 0.3904 0.2650 0.2853
H18 H 0.4325 0.2666 0.3735
C25 C 0.39736(7) 0.93331(13) 0.06600(10)
C26 C 0.40651(8) 1.03820(14) 0.08735(11)
H19 H 0.4342 1.0572 0.1343
C27 C 0.37467(9) 1.11117(14) 0.03883(13)
C28 C 0.33291(8) 1.07734(15) -0.03253(13)
C29 C 0.29751(12) 1.14451(19) -0.09035(18)
H20 H 0.3013 1.2154 -0.0826
C30 C 0.25818(12) 1.1071(2) -0.15697(18)
H21 H 0.2355 1.1526 -0.1941
C31 C 0.25183(9) 1.0034(2) -0.16961(14)
H22 H 0.2245 0.9787 -0.2148
C32 C 0.28515(7) 0.93594(16) -0.11663(11)
H23 H 0.2803 0.8655 -0.1262
C33 C 0.32663(7) 0.97072(14) -0.04782(10)
C34 C 0.38278(12) 1.22443(17) 0.06014(17)
H24 H 0.4124 1.2324 0.1100
H25 H 0.3499 1.2522 0.0673
H26 H 0.3912 1.2606 0.0167
C12F C 0.53871(8) 0.71253(15) 0.43073(10)
C11F C 0.54431(10) 0.60619(17) 0.44262(12)
C10F C 0.58264(10) 0.55124(17) 0.41916(13)
C9F C 0.61594(9) 0.60105(16) 0.38205(13)
C8F C 0.61240(7) 0.70693(14) 0.36821(10)
C7F C 0.64727(7) 0.76110(15) 0.32489(12)
C6F C 0.61641(7) 0.82127(14) 0.24943(11)
C1F C 0.57710(7) 0.77438(13) 0.18496(10)
O1F O 0.56373(5) 0.67092(9) 0.19364(7)
C15F C 0.59251(7) 0.59323(13) 0.17258(10)
N2F N 0.63233(6) 0.61336(10) 0.14371(8)
C23F C 0.65803(7) 0.52856(14) 0.12268(10)
C18F C 0.64172(8) 0.42572(13) 0.13103(10)
C17F C 0.59819(8) 0.40985(14) 0.16501(11)
C16F C 0.57416(8) 0.49404(14) 0.18541(11)
H11F H 0.5457 0.4866 0.2078
C24F C 0.57965(12) 0.30206(16) 0.17808(16)
H16F H 0.5501 0.3063 0.2012
H17F H 0.6096 0.2650 0.2147
H18F H 0.5675 0.2666 0.1265
C19F C 0.66810(10) 0.34500(17) 0.10340(13)
H12F H 0.6570 0.2773 0.1068
C20F C 0.70941(11) 0.3644(2) 0.07185(14)
H13F H 0.7260 0.3100 0.0533
C21F C 0.72716(10) 0.4645(2) 0.06688(14)
H14F H 0.7563 0.4767 0.0467
C22F C 0.70170(8) 0.54571(17) 0.09184(13)
H15F H 0.7137 0.6127 0.0881
C2F C 0.54667(8) 0.82717(15) 0.11580(11)
C3F C 0.55693(10) 0.93205(17) 0.11225(14)
H1F H 0.5369 0.9701 0.0671
C4F C 0.59610(10) 0.98048(17) 0.17413(16)
H2F H 0.6027 1.0506 0.1703
C5F C 0.62563(9) 0.92577(16) 0.24167(14)
H3F H 0.6523 0.9593 0.2830
C14F C 0.50443(9) 0.77279(17) 0.04609(11)
H9F H 0.4863 0.8241 0.0058
H10F H 0.5235 0.7260 0.0200
H4F H 0.6698 0.7101 0.3093
H5F H 0.6716 0.8081 0.3632
C13F C 0.57432(7) 0.76018(13) 0.39572(9)
O2F O 0.56788(5) 0.86676(9) 0.38113(7)
C25F C 0.60264(7) 0.93331(13) 0.43400(10)
N1F N 0.64014(5) 0.89768(10) 0.49764(8)
C33F C 0.67337(7) 0.97072(14) 0.54782(10)
C28F C 0.66709(8) 1.07734(15) 0.53253(13)
C27F C 0.62533(9) 1.11117(14) 0.46117(13)
C26F C 0.59349(8) 1.03820(14) 0.41265(11)
H19F H 0.5658 1.0572 0.3657
C34F C 0.61722(12) 1.22443(17) 0.43986(17)
H24F H 0.5876 1.2324 0.3900
H25F H 0.6501 1.2522 0.4327
H26F H 0.6088 1.2606 0.4833
C29F C 0.70249(12) 1.14451(19) 0.59035(18)
H20F H 0.6987 1.2154 0.5826
C30F C 0.74182(12) 1.1071(2) 0.65697(18)
H21F H 0.7645 1.1526 0.6941
C31F C 0.74817(9) 1.0034(2) 0.66961(14)
H22F H 0.7755 0.9787 0.7148
C32F C 0.71485(7) 0.93594(16) 0.61663(11)
H23F H 0.7197 0.8655 0.6262
H6F H 0.6415 0.5630 0.3658
H7F H 0.5861 0.4805 0.4283
H8F H 0.5216 0.5718 0.4670
loop_
_geom_bond_atom_site_label_1
_geom_bond_atom_site_label_2
_geom_bond_site_symmetry_1
_geom_bond_site_symmetry_2
N1 C25 1_555 1_555
N2 C15 1_555 1_555
O1 C1 1_555 1_555
O2 C13 1_555 1_555
C1 C2 1_555 1_555
C2 C3 1_555 1_555
C3 H1 1_555 1_555
C4 C3 1_555 1_555
H2 C4 1_555 1_555
C5 C4 1_555 1_555
H3 C5 1_555 1_555
C6 C1 1_555 1_555
C7 C6 1_555 1_555
H4 C7 1_555 1_555
H5 C7 1_555 1_555
C8 C7 1_555 1_555
C9 C8 1_555 1_555
H6 C9 1_555 1_555
C10 C9 1_555 1_555
H7 C10 1_555 1_555
C11 C10 1_555 1_555
H8 C11 1_555 1_555
C12 C11 1_555 1_555
C13 C8 1_555 1_555
C14 C2 1_555 1_555
H9 C14 1_555 1_555
H10 C14 1_555 1_555
C15 O1 1_555 1_555
C16 C15 1_555 1_555
H11 C16 1_555 1_555
C17 C16 1_555 1_555
C18 C17 1_555 1_555
C19 C18 1_555 1_555
H12 C19 1_555 1_555
C20 C19 1_555 1_555
H13 C20 1_555 1_555
C21 C20 1_555 1_555
H14 C21 1_555 1_555
C22 C21 1_555 1_555
H15 C22 1_555 1_555
C23 N2 1_555 1_555
C24 C17 1_555 1_555
H16 C24 1_555 1_555
H17 C24 1_555 1_555
H18 C24 1_555 1_555
C25 O2 1_555 1_555
C26 C25 1_555 1_555
H19 C26 1_555 1_555
C27 C26 1_555 1_555
C28 C27 1_555 1_555
C29 C28 1_555 1_555
H20 C29 1_555 1_555
C30 C29 1_555 1_555
H21 C30 1_555 1_555
C31 C30 1_555 1_555
H22 C31 1_555 1_555
C32 C31 1_555 1_555
H23 C32 1_555 1_555
C33 N1 1_555 1_555
C34 C27 1_555 1_555
H24 C34 1_555 1_555
H25 C34 1_555 1_555
H26 C34 1_555 1_555
C12F C14 1_555 1_555
C11F C12F 1_555 1_555
C10F C11F 1_555 1_555
C9F C10F 1_555 1_555
C8F C9F 1_555 1_555
C7F C8F 1_555 1_555
C6F C7F 1_555 1_555
C1F C6F 1_555 1_555
O1F C1F 1_555 1_555
C15F O1F 1_555 1_555
N2F C15F 1_555 1_555
C23F N2F 1_555 1_555
C18F C23F 1_555 1_555
C17F C18F 1_555 1_555
C16F C15F 1_555 1_555
H11F C16F 1_555 1_555
C24F C17F 1_555 1_555
H16F C24F 1_555 1_555
H17F C24F 1_555 1_555
H18F C24F 1_555 1_555
C19F C18F 1_555 1_555
H12F C19F 1_555 1_555
C20F C19F 1_555 1_555
H13F C20F 1_555 1_555
C21F C20F 1_555 1_555
H14F C21F 1_555 1_555
C22F C23F 1_555 1_555
H15F C22F 1_555 1_555
C2F C1F 1_555 1_555
C3F C2F 1_555 1_555
H1F C3F 1_555 1_555
C4F C3F 1_555 1_555
H2F C4F 1_555 1_555
C5F C6F 1_555 1_555
H3F C5F 1_555 1_555
C14F C12 1_555 1_555
H9F C14F 1_555 1_555
H10F C14F 1_555 1_555
H4F C7F 1_555 1_555
H5F C7F 1_555 1_555
C13F C12F 1_555 1_555
O2F C13F 1_555 1_555
C25F O2F 1_555 1_555
N1F C25F 1_555 1_555
C33F N1F 1_555 1_555
C28F C33F 1_555 1_555
C27F C28F 1_555 1_555
C26F C25F 1_555 1_555
H19F C26F 1_555 1_555
C34F C27F 1_555 1_555
H24F C34F 1_555 1_555
H25F C34F 1_555 1_555
H26F C34F 1_555 1_555
C29F C28F 1_555 1_555
H20F C29F 1_555 1_555
C30F C29F 1_555 1_555
H21F C30F 1_555 1_555
C31F C30F 1_555 1_555
H22F C31F 1_555 1_555
C32F C33F 1_555 1_555
H23F C32F 1_555 1_555
H6F C9F 1_555 1_555
H7F C10F 1_555 1_555
H8F C11F 1_555 1_555
C5 C6 1_555 1_555
C12 C13 1_555 1_555
C18 C23 1_555 1_555
C22 C23 1_555 1_555
C28 C33 1_555 1_555
C32 C33 1_555 1_555
C8F C13F 1_555 1_555
C17F C16F 1_555 1_555
C21F C22F 1_555 1_555
C2F C14F 1_555 1_555
C4F C5F 1_555 1_555
C27F C26F 1_555 1_555
C31F C32F 1_555 1_555

#END
