
#######################################################################
#
#                 Cambridge Crystallographic Data Centre
#                                CCDC 
#
#######################################################################
#
# If this CIF has been generated from an entry in the Cambridge 
# Structural Database, then it will include bibliographic, chemical, 
# crystal, experimental, refinement or atomic coordinate data resulting 
# from the CCDC's data processing and validation procedures.
#
#######################################################################

data_NENFAO
_chemical_formula_moiety         'C22 H17 N3 O1 S1'
_chemical_name_systematic        
3-(Benzoylmethylthio)-1,5-diphenyl-1H-1,2,4-triazole
_symmetry_cell_setting           triclinic
_symmetry_space_group_name_H-M   'P -1'
_symmetry_Int_Tables_number      2
_space_group_name_Hall           '-P 1'
loop_
_symmetry_equiv_pos_site_id
_symmetry_equiv_pos_as_xyz
1 x,y,z
2 -x,-y,-z
_cell_length_a                   8.906(3)
_cell_length_b                   9.853(3)
_cell_length_c                   11.226(4)
_cell_angle_alpha                100.562(5)
_cell_angle_beta                 101.285(5)
_cell_angle_gamma                105.096(6)
_cell_volume                     903.708
_exptl_crystal_colour            colorless
_exptl_crystal_description       prism
_chemical_melting_point          '164-166 deg.C'
_cell_formula_units_Z            2
_exptl_crystal_recrystallization_method ethanol
loop_
_atom_site_label
_atom_site_type_symbol
_atom_site_fract_x
_atom_site_fract_y
_atom_site_fract_z
S1 S 0.30608(7) 0.93630(7) -0.14877(5)
O1 O 0.3946(2) 0.75529(19) -0.32357(16)
N1 N 0.2272(2) 0.9123(2) 0.07191(17)
N2 N 0.1876(2) 1.0043(2) 0.16013(16)
N3 N 0.2296(2) 1.1226(2) 0.01629(17)
C1 C 0.2501(3) 0.9897(2) -0.0114(2)
C2 C 0.1897(2) 1.1291(2) 0.1254(2)
C3 C 0.3245(3) 0.7631(2) -0.1305(2)
H1 H 0.4058 0.7763 -0.0518
H2 H 0.2202 0.7000 -0.1260
C4 C 0.3744(3) 0.6936(3) -0.2407(2)
C5 C 0.3999(3) 0.5498(2) -0.24447(19)
C6 C 0.3739(3) 0.4750(2) -0.1526(2)
H3 H 0.3333 0.5139 -0.0864
C7 C 0.4066(3) 0.3448(3) -0.1572(2)
H4 H 0.3884 0.2944 -0.0943
C8 C 0.4656(3) 0.2878(3) -0.2528(2)
H5 H 0.4902 0.1994 -0.2547
C9 C 0.4892(3) 0.3596(3) -0.3462(2)
H6 H 0.5277 0.3192 -0.4132
C10 C 0.4569(3) 0.4894(3) -0.3419(2)
H7 H 0.4735 0.5383 -0.4059
C11 C 0.1545(3) 1.2562(2) 0.1903(2)
C12 C 0.1328(3) 1.3583(3) 0.1227(2)
H8 H 0.1384 1.3424 0.0378
C13 C 0.1033(3) 1.4821(3) 0.1786(3)
H9 H 0.0892 1.5512 0.1320
C14 C 0.0940(3) 1.5066(3) 0.3016(3)
H10 H 0.0734 1.5920 0.3394
C15 C 0.1148(3) 1.4066(3) 0.3690(3)
H11 H 0.1078 1.4229 0.4535
C16 C 0.1459(3) 1.2823(3) 0.3143(2)
H12 H 0.1614 1.2144 0.3620
C17 C 0.1610(3) 0.9591(2) 0.2713(2)
C18 C 0.2904(3) 0.9923(3) 0.3732(2)
H13 H 0.3948 1.0456 0.3706
C19 C 0.2663(3) 0.9470(3) 0.4794(2)
H14 H 0.3548 0.9688 0.5502
C20 C 0.1150(3) 0.8707(3) 0.4831(2)
H15 H 0.0992 0.8405 0.5566
C21 C -0.0136(3) 0.8378(3) 0.3806(2)
H16 H -0.1180 0.7850 0.3837
C22 C 0.0085(3) 0.8814(2) 0.2727(2)
H17 H -0.0796 0.8583 0.2013
loop_
_geom_bond_atom_site_label_1
_geom_bond_atom_site_label_2
_geom_bond_site_symmetry_1
_geom_bond_site_symmetry_2
S1 C1 1_555 1_555
O1 C4 1_555 1_555
N1 N2 1_555 1_555
N2 C2 1_555 1_555
N3 C1 1_555 1_555
C1 N1 1_555 1_555
C2 N3 1_555 1_555
C3 S1 1_555 1_555
H1 C3 1_555 1_555
H2 C3 1_555 1_555
C4 C3 1_555 1_555
C5 C4 1_555 1_555
C6 C5 1_555 1_555
H3 C6 1_555 1_555
C7 C6 1_555 1_555
H4 C7 1_555 1_555
C8 C7 1_555 1_555
H5 C8 1_555 1_555
C9 C8 1_555 1_555
H6 C9 1_555 1_555
C10 C5 1_555 1_555
H7 C10 1_555 1_555
C11 C2 1_555 1_555
C12 C11 1_555 1_555
H8 C12 1_555 1_555
C13 C12 1_555 1_555
H9 C13 1_555 1_555
C14 C13 1_555 1_555
H10 C14 1_555 1_555
C15 C14 1_555 1_555
H11 C15 1_555 1_555
C16 C11 1_555 1_555
H12 C16 1_555 1_555
C17 N2 1_555 1_555
C18 C17 1_555 1_555
H13 C18 1_555 1_555
C19 C18 1_555 1_555
H14 C19 1_555 1_555
C20 C19 1_555 1_555
H15 C20 1_555 1_555
C21 C20 1_555 1_555
H16 C21 1_555 1_555
C22 C17 1_555 1_555
H17 C22 1_555 1_555
C9 C10 1_555 1_555
C15 C16 1_555 1_555
C21 C22 1_555 1_555

#END
