
#######################################################################
#
#                 Cambridge Crystallographic Data Centre
#                                CCDC 
#
#######################################################################
#
# If this CIF has been generated from an entry in the Cambridge 
# Structural Database, then it will include bibliographic, chemical, 
# crystal, experimental, refinement or atomic coordinate data resulting 
# from the CCDC's data processing and validation procedures.
#
#######################################################################

data_NENFES
_chemical_formula_moiety         'C2 H8 N1 1+,C7 H3 N2 O6 1-'
_chemical_name_systematic        'Dimethylammonium 3,5-dinitrobenzoate'
_symmetry_cell_setting           orthorhombic
_symmetry_space_group_name_H-M   'P 21 21 21'
_symmetry_Int_Tables_number      19
_space_group_name_Hall           'P 2ac 2ab'
loop_
_symmetry_equiv_pos_site_id
_symmetry_equiv_pos_as_xyz
1 x,y,z
2 1/2-x,-y,1/2+z
3 -x,1/2+y,1/2-z
4 1/2+x,1/2-y,-z
_cell_length_a                   5.8835(19)
_cell_length_b                   9.517(3)
_cell_length_c                   20.399(6)
_cell_angle_alpha                90
_cell_angle_beta                 90
_cell_angle_gamma                90
_cell_volume                     1142.21
_exptl_crystal_colour            colorless
_cell_formula_units_Z            4
loop_
_atom_site_label
_atom_site_type_symbol
_atom_site_fract_x
_atom_site_fract_y
_atom_site_fract_z
O1 O 0.7335(3) 0.1130(2) 0.19227(9)
O2 O 1.0265(3) 0.1837(2) 0.13163(9)
O3 O 0.1444(4) -0.1654(2) 0.08158(12)
O4 O 0.1111(4) -0.1584(2) -0.02365(11)
O5 O 0.9963(4) 0.1423(2) -0.10497(10)
O6 O 0.7473(4) 0.0105(3) -0.15053(10)
N1 N 0.2083(4) -0.1285(2) 0.02749(14)
N2 N 0.8251(4) 0.0719(3) -0.10327(11)
C1 C 0.8326(4) 0.1316(3) 0.13908(13)
C2 C 0.7154(5) 0.0819(3) 0.07697(12)
C3 C 0.5154(5) 0.0055(3) 0.07998(13)
H3 H 0.4481 -0.0132 0.1203
C4 C 0.4163(5) -0.0426(3) 0.02296(13)
C5 C 0.5091(5) -0.0199(3) -0.03797(12)
H4 H 0.4402 -0.0531 -0.0760
C6 C 0.7096(5) 0.0547(3) -0.03970(12)
C7 C 0.8129(4) 0.1078(3) 0.01592(12)
H5 H 0.9458 0.1602 0.0126
N3 N 0.2894(4) 0.1342(2) 0.23807(10)
H1 H 0.4343 0.1347 0.2239
H2 H 0.2007 0.1632 0.2048
C8 C 0.2256(6) -0.0108(3) 0.25582(15)
H6 H 0.3238 -0.0440 0.2901
H7 H 0.2405 -0.0705 0.2181
H8 H 0.0710 -0.0123 0.2708
C9 C 0.2674(7) 0.2338(4) 0.29274(14)
H9 H 0.1156 0.2297 0.3099
H10 H 0.2985 0.3272 0.2774
H11 H 0.3736 0.2095 0.3266
loop_
_geom_bond_atom_site_label_1
_geom_bond_atom_site_label_2
_geom_bond_site_symmetry_1
_geom_bond_site_symmetry_2
O1 C1 1_555 1_555
O2 C1 1_555 1_555
O3 N1 1_555 1_555
O4 N1 1_555 1_555
O5 N2 1_555 1_555
O6 N2 1_555 1_555
N1 C4 1_555 1_555
N2 C6 1_555 1_555
N3 H1 1_555 1_555
H2 N3 1_555 1_555
C1 C2 1_555 1_555
C2 C3 1_555 1_555
C3 H3 1_555 1_555
C4 C3 1_555 1_555
C5 C4 1_555 1_555
H4 C5 1_555 1_555
C6 C5 1_555 1_555
C7 C2 1_555 1_555
H5 C7 1_555 1_555
C8 N3 1_555 1_555
H6 C8 1_555 1_555
H7 C8 1_555 1_555
H8 C8 1_555 1_555
C9 N3 1_555 1_555
H9 C9 1_555 1_555
H10 C9 1_555 1_555
H11 C9 1_555 1_555
C6 C7 1_555 1_555

#END
