
#######################################################################
#
#                 Cambridge Crystallographic Data Centre
#                                CCDC 
#
#######################################################################
#
# If this CIF has been generated from an entry in the Cambridge 
# Structural Database, then it will include bibliographic, chemical, 
# crystal, experimental, refinement or atomic coordinate data resulting 
# from the CCDC's data processing and validation procedures.
#
#######################################################################

data_NENJOI
_chemical_formula_moiety         'C32 H36 F3 N5 O3 S1,C1 H2 Cl2'
_chemical_name_systematic        
"3'-[6-Amino-5-cyano-3-methyl-4-isopropyl-2,4-dihydropyrano[2,3-c]pyrazol-4-yl]-N-(cyclohexylmethyl)-N-methyl-5'-(trifluoromethyl)(1,1'-biphenyl)-4-sulfonamide dichloromethane solvate"
_symmetry_cell_setting           triclinic
_symmetry_space_group_name_H-M   'P -1'
_symmetry_Int_Tables_number      2
_space_group_name_Hall           '-P 1'
loop_
_symmetry_equiv_pos_site_id
_symmetry_equiv_pos_as_xyz
1 x,y,z
2 -x,-y,-z
_cell_length_a                   9.7725(3)
_cell_length_b                   11.1037(4)
_cell_length_c                   16.9521(8)
_cell_angle_alpha                93.995(4)
_cell_angle_beta                 106.743(3)
_cell_angle_gamma                94.322(3)
_cell_volume                     1748.43
_exptl_crystal_colour            colorless
_exptl_crystal_description       needle
_cell_formula_units_Z            2
loop_
_atom_site_label
_atom_site_type_symbol
_atom_site_fract_x
_atom_site_fract_y
_atom_site_fract_z
S1 S -0.10693(11) 0.23731(8) 0.60632(7)
F1 F 0.6913(3) 0.4866(2) 0.37102(18)
F2 F 0.5220(3) 0.5915(2) 0.38337(19)
F3 F 0.5322(3) 0.5272(2) 0.26305(17)
O1 O -0.1613(4) 0.1135(2) 0.6029(2)
O2 O -0.2038(3) 0.3274(3) 0.58416(19)
N1 N 0.0415(3) 0.0645(3) 0.1731(2)
N2 N 0.6829(3) 0.0424(3) 0.1271(2)
N3 N 0.7708(3) 0.0817(3) 0.20502(19)
H1 H 0.866(2) 0.091(4) 0.213(2)
N4 N -0.0059(4) 0.2767(3) 0.7009(2)
C1 C -0.1199(5) 0.4537(4) 0.7998(3)
H2 H -0.1611 0.3678 0.7900
H3 H -0.1740 0.4971 0.7535
C2 C -0.1367(6) 0.5101(5) 0.8811(4)
H4 H -0.2399 0.5073 0.8772
H5 H -0.0897 0.4625 0.9268
C3 C -0.0701(7) 0.6404(5) 0.8998(4)
H6 H -0.0759 0.6729 0.9545
H7 H -0.1249 0.6901 0.8577
C4 C 0.0860(6) 0.6501(5) 0.9001(4)
H8 H 0.1430 0.6098 0.9472
H9 H 0.1239 0.7368 0.9081
C5 C 0.1048(6) 0.5918(4) 0.8193(3)
H10 H 0.0589 0.6387 0.7729
H11 H 0.2083 0.5941 0.8241
C6 C 0.0369(5) 0.4600(4) 0.8014(3)
H12 H 0.0890 0.4134 0.8472
C7 C 0.0562(5) 0.4045(4) 0.7209(3)
H13 H 0.0096 0.4522 0.6752
H14 H 0.1599 0.4090 0.7258
C8 C 0.0875(6) 0.1882(5) 0.7418(3)
H15 H 0.0357 0.1069 0.7280
H16 H 0.1159 0.2086 0.8019
H17 H 0.1734 0.1900 0.7229
C9 C 0.0068(4) 0.2434(3) 0.5427(3)
C10 C 0.0168(4) 0.3447(3) 0.5007(3)
H18 H -0.0413 0.4087 0.5039
C11 C 0.1121(4) 0.3526(3) 0.4536(2)
H19 H 0.1195 0.4226 0.4253
C12 C 0.1970(4) 0.2588(3) 0.4476(2)
C13 C 0.1831(4) 0.1562(3) 0.4884(2)
H20 H 0.2380 0.0906 0.4832
C14 C 0.0903(4) 0.1486(3) 0.5364(2)
H21 H 0.0834 0.0789 0.5651
C15 C 0.2958(4) 0.2665(3) 0.3956(2)
C16 C 0.3159(3) 0.1633(3) 0.3503(2)
H22 H 0.2671 0.0877 0.3542
C17 C 0.4056(3) 0.1675(3) 0.2994(2)
C18 C 0.4772(4) 0.2786(3) 0.2957(2)
H23 H 0.5371 0.2844 0.2606
C19 C 0.4622(4) 0.3817(3) 0.3429(2)
C20 C 0.3714(4) 0.3771(3) 0.3922(2)
H24 H 0.3606 0.4483 0.4234
C21 C 0.5495(4) 0.4961(4) 0.3400(3)
C22 C 0.4193(3) 0.0538(3) 0.2459(2)
C23 C 0.4016(4) -0.0661(3) 0.2871(2)
H25 H 0.3035 -0.0728 0.2946
C24 C 0.5095(4) -0.0679(4) 0.3718(3)
H26 H 0.6053 -0.0749 0.3655
H27 H 0.4821 -0.1373 0.3986
H28 H 0.5108 0.0074 0.4059
C25 C 0.4108(5) -0.1778(4) 0.2317(3)
H29 H 0.3408 -0.1776 0.1771
H30 H 0.3898 -0.2513 0.2567
H31 H 0.5077 -0.1763 0.2258
C26 C 0.2968(4) 0.0464(4) 0.1635(2)
C27 C 0.1556(4) 0.0568(4) 0.1684(2)
C28 C 0.5563(4) 0.0347(4) 0.1402(2)
C29 C 0.5555(3) 0.0636(3) 0.2204(2)
C30 C 0.6991(3) 0.0955(3) 0.2621(2)
C31 C 0.7793(4) 0.1458(4) 0.3480(2)
H32 H 0.8777 0.1229 0.3618
H33 H 0.7315 0.1133 0.3866
H34 H 0.7815 0.2345 0.3523
O3 O 0.4342(10) 0.0126(17) 0.0713(8)
N5 N 0.2008(10) 0.0197(19) 0.0124(8)
H35 H 0.108(3) 0.031(7) 0.000(4)
H36 H 0.219(6) -0.009(7) -0.034(3)
C32 C 0.3063(18) 0.030(3) 0.0857(7)
Cl1 Cl 0.6139(12) 0.6670(11) 0.0935(3)
Cl2 Cl 0.5499(6) 0.6765(6) -0.0802(3)
C34 C 0.4859(13) 0.6911(15) 0.0043(6)
H39 H 0.4556 0.7736 0.0100
H40 H 0.4007 0.6319 -0.0044
O4? O 0.4413(17) -0.020(2) 0.0752(13)
N6? N 0.2054(18) -0.030(2) 0.0194(13)
H37? H 0.232(10) -0.104(5) 0.008(8)
H38? H 0.113(5) -0.045(9) 0.021(7)
C33? C 0.316(3) 0.002(4) 0.0908(10)
Cl3? Cl 0.5364(16) 0.6349(4) 0.0863(5)
Cl4? Cl 0.589(2) 0.6953(14) -0.0636(10)
C35? C 0.527(2) 0.7408(16) 0.0157(10)
H41? H 0.4261 0.7581 -0.0066
H42? H 0.5839 0.8172 0.0446
loop_
_geom_bond_atom_site_label_1
_geom_bond_atom_site_label_2
_geom_bond_site_symmetry_1
_geom_bond_site_symmetry_2
S1 O1 1_555 1_555
F1 C21 1_555 1_555
F2 C21 1_555 1_555
F3 C21 1_555 1_555
O2 S1 1_555 1_555
N1 C27 1_555 1_555
N2 N3 1_555 1_555
N3 H1 1_555 1_555
N4 S1 1_555 1_555
C1 H2 1_555 1_555
H3 C1 1_555 1_555
C2 C1 1_555 1_555
H4 C2 1_555 1_555
H5 C2 1_555 1_555
C3 C2 1_555 1_555
H6 C3 1_555 1_555
H7 C3 1_555 1_555
C4 C3 1_555 1_555
H8 C4 1_555 1_555
H9 C4 1_555 1_555
C5 C4 1_555 1_555
H10 C5 1_555 1_555
H11 C5 1_555 1_555
C6 C1 1_555 1_555
H12 C6 1_555 1_555
C7 N4 1_555 1_555
H13 C7 1_555 1_555
H14 C7 1_555 1_555
C8 N4 1_555 1_555
H15 C8 1_555 1_555
H16 C8 1_555 1_555
H17 C8 1_555 1_555
C9 S1 1_555 1_555
C10 C9 1_555 1_555
H18 C10 1_555 1_555
C11 C10 1_555 1_555
H19 C11 1_555 1_555
C12 C11 1_555 1_555
C13 C12 1_555 1_555
H20 C13 1_555 1_555
C14 C9 1_555 1_555
H21 C14 1_555 1_555
C15 C12 1_555 1_555
C16 C15 1_555 1_555
H22 C16 1_555 1_555
C17 C16 1_555 1_555
C18 C17 1_555 1_555
H23 C18 1_555 1_555
C19 C18 1_555 1_555
C20 C15 1_555 1_555
H24 C20 1_555 1_555
C21 C19 1_555 1_555
C22 C17 1_555 1_555
C23 C22 1_555 1_555
H25 C23 1_555 1_555
C24 C23 1_555 1_555
H26 C24 1_555 1_555
H27 C24 1_555 1_555
H28 C24 1_555 1_555
C25 C23 1_555 1_555
H29 C25 1_555 1_555
H30 C25 1_555 1_555
H31 C25 1_555 1_555
C26 C22 1_555 1_555
C27 C26 1_555 1_555
C28 N2 1_555 1_555
C29 C22 1_555 1_555
C30 N3 1_555 1_555
C31 C30 1_555 1_555
H32 C31 1_555 1_555
H33 C31 1_555 1_555
H34 C31 1_555 1_555
O3 C28 1_555 1_555
N5 H35 1_555 1_555
H36 N5 1_555 1_555
C32 C26 1_555 1_555
Cl1 C34 1_555 1_555
Cl2 C34 1_555 1_555
C34 H39 1_555 1_555
H40 C34 1_555 1_555
C5 C6 1_555 1_555
C6 C7 1_555 1_555
C13 C14 1_555 1_555
C19 C20 1_555 1_555
C28 C29 1_555 1_555
C29 C30 1_555 1_555
O3 C32 1_555 1_555
N5 C32 1_555 1_555

#END
