
#######################################################################
#
#                 Cambridge Crystallographic Data Centre
#                                CCDC 
#
#######################################################################
#
# If this CIF has been generated from an entry in the Cambridge 
# Structural Database, then it will include bibliographic, chemical, 
# crystal, experimental, refinement or atomic coordinate data resulting 
# from the CCDC's data processing and validation procedures.
#
#######################################################################

data_NENKUN
_chemical_formula_moiety         'C19 H18 N2 O3,H2 O1'
_chemical_name_systematic        
'N-(4-Ethoxyphenyl)-2-(quinolin-8-yloxy)acetamide monohydrate'
_symmetry_cell_setting           monoclinic
_symmetry_space_group_name_H-M   'P 21/c'
_symmetry_Int_Tables_number      14
_space_group_name_Hall           '-P 2ybc'
loop_
_symmetry_equiv_pos_site_id
_symmetry_equiv_pos_as_xyz
1 x,y,z
2 -x,1/2+y,1/2-z
3 -x,-y,-z
4 x,1/2-y,1/2+z
_cell_length_a                   14.603(2)
_cell_length_b                   5.0837(7)
_cell_length_c                   24.349(3)
_cell_angle_alpha                90
_cell_angle_beta                 107.143(3)
_cell_angle_gamma                90
_cell_volume                     1727.3
_exptl_crystal_colour            colorless
_exptl_crystal_description       plate
_cell_formula_units_Z            4
_exptl_crystal_recrystallization_method 'petroleum ether/ethyl acetate'
loop_
_atom_site_label
_atom_site_type_symbol
_atom_site_fract_x
_atom_site_fract_y
_atom_site_fract_z
N1 N 0.27640(13) 0.0936(4) 0.09924(8)
H1 H 0.2841 -0.0120 0.1278
O1 O 0.15088(11) -0.2661(3) 0.11634(6)
N2 N 0.21287(14) -0.5713(4) 0.20933(8)
O2 O 0.16904(14) 0.2158(4) 0.01511(8)
C1 C 0.12136(17) -0.6071(5) 0.17484(10)
C2 C 0.08679(17) -0.4453(5) 0.12540(10)
O3 O 0.59795(13) 0.7148(4) 0.11463(7)
C3 C 0.35443(18) 0.2621(5) 0.10093(10)
C4 C 0.19227(18) 0.0794(5) 0.05842(11)
C5 C -0.00523(18) -0.4745(5) 0.09079(10)
H2 H -0.0281 -0.3670 0.0588
C6 C 0.51489(19) 0.5742(5) 0.10818(11)
C7 C 0.35394(19) 0.4441(5) 0.05868(10)
H3 H 0.2995 0.4632 0.0274
C8 C 0.11957(17) -0.1170(5) 0.06499(10)
H4 H 0.0612 -0.0248 0.0644
H5 H 0.1046 -0.2360 0.0324
C9 C 0.0968(2) -0.9566(6) 0.23595(13)
H6 H 0.0587 -1.0861 0.2452
C10 C 0.0600(2) -0.7996(5) 0.18676(11)
C11 C 0.43642(19) 0.2433(5) 0.14741(11)
H7 H 0.4380 0.1234 0.1765
C12 C -0.0344(2) -0.8254(5) 0.14972(12)
H8 H -0.0753 -0.9516 0.1571
C13 C 0.51498(19) 0.3972(5) 0.15135(11)
H9 H 0.5687 0.3827 0.1832
C14 C 0.43368(19) 0.5982(5) 0.06259(11)
H10 H 0.4322 0.7199 0.0338
C15 C -0.0649(2) -0.6648(6) 0.10334(12)
H11 H -0.1273 -0.6821 0.0793
C16 C 0.2432(2) -0.7233(5) 0.25449(12)
H12 H 0.3057 -0.7003 0.2779
C17 C 0.6006(2) 0.8963(6) 0.07066(11)
H13 H 0.5523 1.0315 0.0671
H14 H 0.5881 0.8063 0.0341
C18 C 0.1872(2) -0.9188(6) 0.26966(13)
H15 H 0.2122 -1.0204 0.3024
C19 C 0.6990(2) 1.0168(8) 0.08745(13)
H16 H 0.7032 1.1423 0.0588
H17 H 0.7460 0.8813 0.0903
H18 H 0.7107 1.1035 0.1239
O4 O 0.35771(19) -0.2333(5) 0.20483(9)
H19 H 0.400(2) -0.342(7) 0.201(2)
H20 H 0.3090(17) -0.327(6) 0.2054(15)
loop_
_geom_bond_atom_site_label_1
_geom_bond_atom_site_label_2
_geom_bond_site_symmetry_1
_geom_bond_site_symmetry_2
N1 H1 1_555 1_555
O1 C2 1_555 1_555
N2 C1 1_555 1_555
O2 C4 1_555 1_555
C1 C2 1_555 1_555
C2 C5 1_555 1_555
O3 C6 1_555 1_555
C3 N1 1_555 1_555
C4 N1 1_555 1_555
O4 H19 1_555 1_555
C5 H2 1_555 1_555
C6 C13 1_555 1_555
C7 C3 1_555 1_555
H3 C7 1_555 1_555
C8 O1 1_555 1_555
H4 C8 1_555 1_555
H5 C8 1_555 1_555
C9 H6 1_555 1_555
C10 C1 1_555 1_555
C11 C3 1_555 1_555
H7 C11 1_555 1_555
C12 C10 1_555 1_555
H8 C12 1_555 1_555
C13 C11 1_555 1_555
H9 C13 1_555 1_555
C14 C6 1_555 1_555
H10 C14 1_555 1_555
C15 C5 1_555 1_555
H11 C15 1_555 1_555
C16 N2 1_555 1_555
H12 C16 1_555 1_555
C17 O3 1_555 1_555
H13 C17 1_555 1_555
H14 C17 1_555 1_555
C18 C9 1_555 1_555
H15 C18 1_555 1_555
C19 C17 1_555 1_555
H16 C19 1_555 1_555
H17 C19 1_555 1_555
H18 C19 1_555 1_555
H20 O4 1_555 1_555
C4 C8 1_555 1_555
C7 C14 1_555 1_555
C9 C10 1_555 1_555
C12 C15 1_555 1_555
C16 C18 1_555 1_555

#END
