
#######################################################################
#
#                 Cambridge Crystallographic Data Centre
#                                CCDC 
#
#######################################################################
#
# If this CIF has been generated from an entry in the Cambridge 
# Structural Database, then it will include bibliographic, chemical, 
# crystal, experimental, refinement or atomic coordinate data resulting 
# from the CCDC's data processing and validation procedures.
#
#######################################################################

data_NENKUP
_chemical_formula_moiety         'C19 H23 Br1 O2 Si1'
_chemical_name_systematic        
4-bromo-2-((t-butyl(dimethyl)silyl)ethynyl)-2-methoxynaphthalen-1(2H)-one
_symmetry_cell_setting           monoclinic
_symmetry_space_group_name_H-M   'P 21'
_symmetry_Int_Tables_number      4
_space_group_name_Hall           'P 2yb'
loop_
_symmetry_equiv_pos_site_id
_symmetry_equiv_pos_as_xyz
1 x,y,z
2 -x,1/2+y,-z
_cell_length_a                   10.47410(10)
_cell_length_b                   8.35910(10)
_cell_length_c                   11.3038(8)
_cell_angle_alpha                90
_cell_angle_beta                 103.798(7)
_cell_angle_gamma                90
_cell_volume                     961.133
_exptl_crystal_colour            colorless
_exptl_crystal_description       plate
_cell_formula_units_Z            2
loop_
_atom_site_label
_atom_site_type_symbol
_atom_site_fract_x
_atom_site_fract_y
_atom_site_fract_z
C1 C 1.0953(3) 0.8826(4) 0.3647(3)
C2 C 1.1667(4) 1.0107(5) 0.4258(4)
H1 H 1.2117 1.0006 0.5090
C3 C 1.1715(4) 1.1557(5) 0.3631(4)
H2 H 1.2174 1.2447 0.4053
C4 C 1.1124(3) 1.1694(5) 0.2451(4)
H3 H 1.1192 1.2674 0.2044
C5 C 1.0415(3) 1.0444(4) 0.1803(4)
H4 H 1.0000 1.0567 0.0964
C6 C 1.0317(3) 0.9007(4) 0.2397(3)
C7 C 0.9574(3) 0.7697(4) 0.1693(3)
C8 C 0.9209(3) 0.6244(4) 0.2408(3)
C9 C 1.0102(3) 0.6074(4) 0.3659(3)
H5 H 1.0124 0.5080 0.4071
C10 C 1.0859(3) 0.7253(5) 0.4207(3)
O1 O 0.9241(3) 0.7695(3) 0.0584(2)
Br1 Br 1.18560(3) 0.69303(6) 0.58325(3)
O2 O 0.9346(2) 0.4795(3) 0.1787(3)
C11 C 0.8260(4) 0.4282(5) 0.0850(4)
H6 H 0.7522 0.4008 0.1207
H7 H 0.8513 0.3340 0.0443
H8 H 0.7996 0.5145 0.0255
C12 C 0.7847(3) 0.6517(4) 0.2547(3)
C13 C 0.6761(3) 0.6750(5) 0.2661(3)
Si1 Si 0.50245(7) 0.69689(14) 0.27645(7)
C14 C 0.4516(4) 0.9095(5) 0.2437(4)
H9 H 0.4484 0.9338 0.1583
H10 H 0.5152 0.9803 0.2966
H11 H 0.3644 0.9261 0.2592
C15 C 0.4912(4) 0.6461(6) 0.4341(3)
H12 H 0.5385 0.7265 0.4910
H13 H 0.5303 0.5406 0.4565
H14 H 0.3986 0.6443 0.4379
C16 C 0.4024(3) 0.5550(4) 0.1638(3)
C17 C 0.2554(3) 0.5773(5) 0.1604(4)
H15 H 0.2027 0.5065 0.0985
H16 H 0.2301 0.6887 0.1402
H17 H 0.2399 0.5509 0.2403
C18 C 0.4418(4) 0.3796(5) 0.1968(4)
H18 H 0.4256 0.3542 0.2766
H19 H 0.5354 0.3650 0.1998
H20 H 0.3895 0.3083 0.1351
C19 C 0.4231(4) 0.5884(6) 0.0343(3)
H21 H 0.3705 0.5129 -0.0239
H22 H 0.5163 0.5752 0.0351
H23 H 0.3956 0.6980 0.0100
loop_
_geom_bond_atom_site_label_1
_geom_bond_atom_site_label_2
_geom_bond_site_symmetry_1
_geom_bond_site_symmetry_2
C1 C2 1_555 1_555
C2 H1 1_555 1_555
C3 C2 1_555 1_555
H2 C3 1_555 1_555
C4 C3 1_555 1_555
H3 C4 1_555 1_555
C5 C4 1_555 1_555
H4 C5 1_555 1_555
C6 C1 1_555 1_555
C7 C6 1_555 1_555
C8 C7 1_555 1_555
C9 C8 1_555 1_555
H5 C9 1_555 1_555
C10 C1 1_555 1_555
O1 C7 1_555 1_555
Br1 C10 1_555 1_555
O2 C8 1_555 1_555
C11 O2 1_555 1_555
H6 C11 1_555 1_555
H7 C11 1_555 1_555
H8 C11 1_555 1_555
C12 C8 1_555 1_555
C13 C12 1_555 1_555
Si1 C13 1_555 1_555
C14 Si1 1_555 1_555
H9 C14 1_555 1_555
H10 C14 1_555 1_555
H11 C14 1_555 1_555
C15 Si1 1_555 1_555
H12 C15 1_555 1_555
H13 C15 1_555 1_555
H14 C15 1_555 1_555
C16 Si1 1_555 1_555
C17 C16 1_555 1_555
H15 C17 1_555 1_555
H16 C17 1_555 1_555
H17 C17 1_555 1_555
C18 C16 1_555 1_555
H18 C18 1_555 1_555
H19 C18 1_555 1_555
H20 C18 1_555 1_555
C19 C16 1_555 1_555
H21 C19 1_555 1_555
H22 C19 1_555 1_555
H23 C19 1_555 1_555
C5 C6 1_555 1_555
C9 C10 1_555 1_555

#END
