
#######################################################################
#
#                 Cambridge Crystallographic Data Centre
#                                CCDC 
#
#######################################################################
#
# If this CIF has been generated from an entry in the Cambridge 
# Structural Database, then it will include bibliographic, chemical, 
# crystal, experimental, refinement or atomic coordinate data resulting 
# from the CCDC's data processing and validation procedures.
#
#######################################################################

data_NENLAU
_chemical_formula_moiety         'C9 H10 N2 O3 S1'
_chemical_name_systematic        '(E)-O-Ethyl N-(4-nitrophenyl)thiocarbamate'
_symmetry_cell_setting           triclinic
_symmetry_space_group_name_H-M   'P -1'
_symmetry_Int_Tables_number      2
_space_group_name_Hall           '-P 1'
loop_
_symmetry_equiv_pos_site_id
_symmetry_equiv_pos_as_xyz
1 x,y,z
2 -x,-y,-z
_cell_length_a                   6.9247(12)
_cell_length_b                   7.6430(14)
_cell_length_c                   10.4772(19)
_cell_angle_alpha                105.782(8)
_cell_angle_beta                 90.136(8)
_cell_angle_gamma                107.769(7)
_cell_volume                     505.942
_exptl_crystal_colour            colorless
_exptl_crystal_description       block
_chemical_melting_point          '451-452 K'
_cell_formula_units_Z            2
_exptl_crystal_recrystallization_method chloroform/hexane
loop_
_atom_site_label
_atom_site_type_symbol
_atom_site_fract_x
_atom_site_fract_y
_atom_site_fract_z
S1 S 0.92292(7) 1.05291(7) 1.20033(5)
O1 O 0.5460(2) -0.1845(2) 0.77860(15)
O2 O 0.5533(3) -0.0994(2) 0.59690(15)
O3 O 0.8260(2) 0.7001(2) 1.22545(14)
N1 N 0.5736(3) -0.0618(2) 0.71902(17)
N2 N 0.8098(3) 0.7171(2) 1.01606(17)
H1 H 0.8223 0.7910 0.9631
C1 C 0.6366(3) 0.1400(3) 0.7975(2)
C2 C 0.6548(3) 0.2803(3) 0.7333(2)
H2 H 0.6288 0.2472 0.6393
C3 C 0.7117(3) 0.4698(3) 0.8100(2)
H3 H 0.7247 0.5679 0.7680
C4 C 0.7506(3) 0.5191(3) 0.9491(2)
C5 C 0.7321(3) 0.3748(3) 1.0111(2)
H4 H 0.7589 0.4065 1.1050
C6 C 0.6744(3) 0.1847(3) 0.9340(2)
H5 H 0.6608 0.0855 0.9750
C7 C 0.8507(3) 0.8134(3) 1.1473(2)
C8 C 0.8656(3) 0.7841(3) 1.3696(2)
H6 H 0.7767 0.8634 1.4025
H7 H 1.0094 0.8661 1.3937
C9 C 0.8209(4) 0.6200(4) 1.4291(2)
H8 H 0.8488 0.6697 1.5261
H9 H 0.9073 0.5408 1.3937
H10 H 0.6773 0.5420 1.4062
loop_
_geom_bond_atom_site_label_1
_geom_bond_atom_site_label_2
_geom_bond_site_symmetry_1
_geom_bond_site_symmetry_2
S1 C7 1_555 1_555
O1 N1 1_555 1_555
O2 N1 1_555 1_555
O3 C7 1_555 1_555
N1 C1 1_555 1_555
N2 H1 1_555 1_555
C1 C2 1_555 1_555
C2 H2 1_555 1_555
C3 C2 1_555 1_555
H3 C3 1_555 1_555
C4 N2 1_555 1_555
C5 C4 1_555 1_555
H4 C5 1_555 1_555
C6 C1 1_555 1_555
H5 C6 1_555 1_555
C7 N2 1_555 1_555
C8 O3 1_555 1_555
H6 C8 1_555 1_555
H7 C8 1_555 1_555
C9 C8 1_555 1_555
H8 C9 1_555 1_555
H9 C9 1_555 1_555
H10 C9 1_555 1_555
C3 C4 1_555 1_555
C5 C6 1_555 1_555

#END
