
#######################################################################
#
#                 Cambridge Crystallographic Data Centre
#                                CCDC 
#
#######################################################################
#
# If this CIF has been generated from an entry in the Cambridge 
# Structural Database, then it will include bibliographic, chemical, 
# crystal, experimental, refinement or atomic coordinate data resulting 
# from the CCDC's data processing and validation procedures.
#
#######################################################################

data_NENLUQ
_chemical_formula_moiety         'C19 H24 O2 Si1'
_chemical_name_systematic        
1-((t-butyl(dimethyl)silyl)ethynyl)-1-methoxynaphthalen-2(1H)-one
_symmetry_cell_setting           monoclinic
_symmetry_space_group_name_H-M   'P 21/n'
_symmetry_Int_Tables_number      14
_space_group_name_Hall           '-P 2yn'
loop_
_symmetry_equiv_pos_site_id
_symmetry_equiv_pos_as_xyz
1 x,y,z
2 1/2-x,1/2+y,1/2-z
3 -x,-y,-z
4 1/2+x,1/2-y,1/2+z
_cell_length_a                   13.245(3)
_cell_length_b                   7.0900(10)
_cell_length_c                   38.697(6)
_cell_angle_alpha                90
_cell_angle_beta                 99.621(4)
_cell_angle_gamma                90
_cell_volume                     3582.81
_exptl_crystal_colour            colorless
_exptl_crystal_description       plate
_cell_formula_units_Z            8
loop_
_atom_site_label
_atom_site_type_symbol
_atom_site_fract_x
_atom_site_fract_y
_atom_site_fract_z
C1 C 0.56874(13) 1.0085(3) 0.07997(4)
C2 C 0.60442(14) 1.1755(3) 0.09638(5)
H1 H 0.6760 1.1980 0.1018
C3 C 0.53668(16) 1.3096(3) 0.10491(5)
H2 H 0.5619 1.4234 0.1161
C4 C 0.43169(15) 1.2778(3) 0.09702(5)
H3 H 0.3851 1.3706 0.1025
C5 C 0.39542(14) 1.1107(3) 0.08121(5)
H4 H 0.3237 1.0887 0.0761
C6 C 0.46328(13) 0.9734(3) 0.07267(4)
C7 C 0.42497(13) 0.7974(3) 0.05625(5)
H5 H 0.3534 0.7739 0.0533
C8 C 0.48479(14) 0.6664(3) 0.04500(5)
H6 H 0.4547 0.5536 0.0347
C9 C 0.59464(14) 0.6930(3) 0.04812(4)
C10 C 0.64478(13) 0.8642(3) 0.07010(4)
O1 O 0.64950(10) 0.5891(2) 0.03441(3)
O2 O 0.71825(9) 0.95102(19) 0.05206(3)
C11 C 0.67420(15) 1.0392(3) 0.01999(5)
H7 H 0.7285 1.0959 0.0090
H8 H 0.6263 1.1375 0.0247
H9 H 0.6375 0.9448 0.0041
C12 C 0.70406(13) 0.7835(3) 0.10241(4)
C13 C 0.75261(14) 0.7201(3) 0.12859(5)
Si1 Si 0.82598(4) 0.63809(7) 0.170640(11)
C14 C 0.94954(15) 0.5340(3) 0.16324(5)
H10 H 0.9882 0.4900 0.1856
H11 H 0.9895 0.6297 0.1532
H12 H 0.9360 0.4273 0.1470
C15 C 0.74623(16) 0.4577(3) 0.18867(5)
H13 H 0.7831 0.4110 0.2111
H14 H 0.7323 0.3526 0.1721
H15 H 0.6814 0.5149 0.1922
C16 C 0.84807(14) 0.8516(3) 0.20025(4)
C17 C 0.91051(15) 0.7935(3) 0.23554(5)
H16 H 0.9763 0.7408 0.2318
H17 H 0.8726 0.6984 0.2466
H18 H 0.9227 0.9043 0.2508
C18 C 0.74572(15) 0.9337(3) 0.20643(5)
H19 H 0.7078 0.8378 0.2173
H20 H 0.7055 0.9726 0.1840
H21 H 0.7583 1.0432 0.2220
C19 C 0.90679(16) 1.0032(3) 0.18331(5)
H22 H 0.9724 0.9515 0.1792
H23 H 0.9192 1.1123 0.1990
H24 H 0.8662 1.0424 0.1609
C20 C 1.05968(13) 0.4625(3) 0.07934(4)
C21 C 1.09141(14) 0.2941(3) 0.09570(5)
H25 H 1.1622 0.2724 0.1037
C22 C 1.02027(15) 0.1566(3) 0.10054(5)
H26 H 1.0426 0.0415 0.1119
C23 C 0.91679(15) 0.1872(3) 0.08886(5)
H27 H 0.8682 0.0924 0.0918
C24 C 0.88463(14) 0.3561(3) 0.07292(5)
H28 H 0.8137 0.3776 0.0652
C25 C 0.95564(13) 0.4962(3) 0.06811(4)
C26 C 0.92178(13) 0.6737(3) 0.05096(4)
H29 H 0.8503 0.6973 0.0455
C27 C 0.98619(14) 0.8055(3) 0.04253(5)
H30 H 0.9591 0.9178 0.0312
C28 C 1.09669(14) 0.7799(3) 0.05032(4)
C29 C 1.13955(13) 0.6122(3) 0.07447(4)
O3 O 1.15681(10) 0.8846(2) 0.03923(4)
O4 O 1.22546(9) 0.53016(19) 0.06230(3)
C30 C 1.20041(16) 0.4443(3) 0.02854(5)
H31 H 1.2625 0.3910 0.0217
H32 H 1.1714 0.5393 0.0113
H33 H 1.1502 0.3436 0.0294
C31 C 1.17944(13) 0.6944(3) 0.10901(5)
C32 C 1.21135(14) 0.7587(3) 0.13732(5)
Si2 Si 1.27020(4) 0.84417(9) 0.180864(14)
C33 C 1.20038(19) 0.7433(7) 0.21407(6)
H34 H 1.2312 0.7885 0.2374
H35 H 1.2044 0.6054 0.2134
H36 H 1.1285 0.7826 0.2090
C34 C 1.2657(4) 1.1068(5) 0.17961(9)
H37 H 1.2966 1.1571 0.2025
H38 H 1.1943 1.1486 0.1740
H39 H 1.3038 1.1529 0.1617
C35 C 1.40663(16) 0.7591(4) 0.18872(5)
C36 C 1.4646(2) 0.8099(5) 0.15908(7)
H40 H 1.4263 0.7645 0.1368
H41 H 1.5324 0.7506 0.1634
H42 H 1.4724 0.9471 0.1581
C37 C 1.4046(2) 0.5375(4) 0.18879(7)
H43 H 1.3678 0.4930 0.2072
H44 H 1.4749 0.4892 0.1932
H45 H 1.3698 0.4920 0.1660
C38 C 1.4607(2) 0.8236(4) 0.22464(7)
H46 H 1.4194 0.7885 0.2424
H47 H 1.4694 0.9608 0.2246
H48 H 1.5279 0.7629 0.2300
loop_
_geom_bond_atom_site_label_1
_geom_bond_atom_site_label_2
_geom_bond_site_symmetry_1
_geom_bond_site_symmetry_2
C1 C2 1_555 1_555
C2 H1 1_555 1_555
C3 C2 1_555 1_555
H2 C3 1_555 1_555
C4 C3 1_555 1_555
H3 C4 1_555 1_555
C5 C4 1_555 1_555
H4 C5 1_555 1_555
C6 C1 1_555 1_555
C7 C6 1_555 1_555
H5 C7 1_555 1_555
C8 C7 1_555 1_555
H6 C8 1_555 1_555
C9 C8 1_555 1_555
C10 C1 1_555 1_555
O1 C9 1_555 1_555
O2 C10 1_555 1_555
C11 O2 1_555 1_555
H7 C11 1_555 1_555
H8 C11 1_555 1_555
H9 C11 1_555 1_555
C12 C10 1_555 1_555
C13 C12 1_555 1_555
Si1 C13 1_555 1_555
C14 Si1 1_555 1_555
H10 C14 1_555 1_555
H11 C14 1_555 1_555
H12 C14 1_555 1_555
C15 Si1 1_555 1_555
H13 C15 1_555 1_555
H14 C15 1_555 1_555
H15 C15 1_555 1_555
C16 Si1 1_555 1_555
C17 C16 1_555 1_555
H16 C17 1_555 1_555
H17 C17 1_555 1_555
H18 C17 1_555 1_555
C18 C16 1_555 1_555
H19 C18 1_555 1_555
H20 C18 1_555 1_555
H21 C18 1_555 1_555
C19 C16 1_555 1_555
H22 C19 1_555 1_555
H23 C19 1_555 1_555
H24 C19 1_555 1_555
C20 C21 1_555 1_555
C21 H25 1_555 1_555
C22 C21 1_555 1_555
H26 C22 1_555 1_555
C23 C22 1_555 1_555
H27 C23 1_555 1_555
C24 C23 1_555 1_555
H28 C24 1_555 1_555
C25 C20 1_555 1_555
C26 C25 1_555 1_555
H29 C26 1_555 1_555
C27 C26 1_555 1_555
H30 C27 1_555 1_555
C28 C27 1_555 1_555
C29 C20 1_555 1_555
O3 C28 1_555 1_555
O4 C29 1_555 1_555
C30 O4 1_555 1_555
H31 C30 1_555 1_555
H32 C30 1_555 1_555
H33 C30 1_555 1_555
C31 C29 1_555 1_555
C32 C31 1_555 1_555
Si2 C32 1_555 1_555
C33 Si2 1_555 1_555
H34 C33 1_555 1_555
H35 C33 1_555 1_555
H36 C33 1_555 1_555
C34 Si2 1_555 1_555
H37 C34 1_555 1_555
H38 C34 1_555 1_555
H39 C34 1_555 1_555
C35 Si2 1_555 1_555
C36 C35 1_555 1_555
H40 C36 1_555 1_555
H41 C36 1_555 1_555
H42 C36 1_555 1_555
C37 C35 1_555 1_555
H43 C37 1_555 1_555
H44 C37 1_555 1_555
H45 C37 1_555 1_555
C38 C35 1_555 1_555
H46 C38 1_555 1_555
H47 C38 1_555 1_555
H48 C38 1_555 1_555
C5 C6 1_555 1_555
C9 C10 1_555 1_555
C24 C25 1_555 1_555
C28 C29 1_555 1_555

#END
