
#######################################################################
#
#                 Cambridge Crystallographic Data Centre
#                                CCDC 
#
#######################################################################
#
# If this CIF has been generated from an entry in the Cambridge 
# Structural Database, then it will include bibliographic, chemical, 
# crystal, experimental, refinement or atomic coordinate data resulting 
# from the CCDC's data processing and validation procedures.
#
#######################################################################

data_NENTOS
_chemical_formula_moiety         'C17 H18 O3'
_chemical_name_systematic        
'(R)-methyl 2-(3,3-dimethylbut-1-yn-1-yl)-1-oxoindane-2-carboxylate'
_symmetry_cell_setting           orthorhombic
_symmetry_space_group_name_H-M   'P 21 21 21'
_symmetry_Int_Tables_number      19
_space_group_name_Hall           'P 2ac 2ab'
loop_
_symmetry_equiv_pos_site_id
_symmetry_equiv_pos_as_xyz
1 x,y,z
2 1/2-x,-y,1/2+z
3 1/2+x,1/2-y,-z
4 -x,1/2+y,1/2-z
_cell_length_a                   7.0007(9)
_cell_length_b                   9.6816(13)
_cell_length_c                   22.027(4)
_cell_angle_alpha                90
_cell_angle_beta                 90
_cell_angle_gamma                90
_cell_volume                     1492.95
_exptl_crystal_colour            colorless
_exptl_crystal_description       prism
_cell_formula_units_Z            4
loop_
_atom_site_label
_atom_site_type_symbol
_atom_site_fract_x
_atom_site_fract_y
_atom_site_fract_z
C1 C 0.5571(5) 0.7252(4) 0.91928(14)
H1 H 0.4225 0.7243 0.9136
C2 C 0.6596(4) 0.8489(4) 0.91696(13)
C3 C 0.8577(4) 0.8529(4) 0.92404(13)
C4 C 0.9545(5) 0.7310(4) 0.93588(14)
H2 H 1.0889 0.7315 0.9419
C5 C 0.8529(5) 0.6080(4) 0.93889(15)
H3 H 0.9191 0.5244 0.9472
C6 C 0.6559(5) 0.6046(4) 0.92997(15)
H4 H 0.5896 0.5190 0.9313
C7 C 0.5850(4) 0.9885(4) 0.90981(13)
C8 C 0.7561(5) 1.0921(3) 0.91568(13)
C9 C 0.9356(5) 0.9976(4) 0.91821(15)
H5 H 1.0126 1.0072 0.8807
H6 H 1.0165 1.0213 0.9536
O1 O 0.4194(3) 1.0237(3) 0.90131(11)
C10 C 0.7287(5) 1.1700(4) 0.97565(13)
O2 O 0.6908(4) 1.2909(3) 0.98027(11)
O3 O 0.7460(3) 1.0848(2) 1.02301(9)
C11 C 0.7286(5) 1.1476(4) 1.08260(14)
H7 H 0.8285 1.2176 1.0877
H8 H 0.7428 1.0764 1.1139
H9 H 0.6029 1.1913 1.0864
C12 C 0.7535(5) 1.1896(3) 0.86441(14)
C13 C 0.7487(5) 1.2623(4) 0.82082(14)
C14 C 0.7373(6) 1.3545(4) 0.76693(15)
C15 C 0.7777(7) 1.2719(4) 0.70998(15)
H10 H 0.7557 1.3300 0.6742
H11 H 0.6926 1.1916 0.7085
H12 H 0.9108 1.2407 0.7104
C16 C 0.5329(9) 1.4108(8) 0.7630(3)
H13 H 0.5193 1.4667 0.7262
H14 H 0.5064 1.4682 0.7987
H15 H 0.4425 1.3336 0.7617
C17 C 0.8788(12) 1.4718(6) 0.7729(2)
H16 H 1.0089 1.4344 0.7736
H17 H 0.8541 1.5224 0.8106
H18 H 0.8650 1.5345 0.7382
loop_
_geom_bond_atom_site_label_1
_geom_bond_atom_site_label_2
_geom_bond_site_symmetry_1
_geom_bond_site_symmetry_2
C1 H1 1_555 1_555
C2 C1 1_555 1_555
C3 C2 1_555 1_555
C4 C3 1_555 1_555
H2 C4 1_555 1_555
C5 C4 1_555 1_555
H3 C5 1_555 1_555
C6 C1 1_555 1_555
H4 C6 1_555 1_555
C7 C2 1_555 1_555
C8 C7 1_555 1_555
C9 C3 1_555 1_555
H5 C9 1_555 1_555
H6 C9 1_555 1_555
O1 C7 1_555 1_555
C10 C8 1_555 1_555
O2 C10 1_555 1_555
O3 C10 1_555 1_555
C11 O3 1_555 1_555
H7 C11 1_555 1_555
H8 C11 1_555 1_555
H9 C11 1_555 1_555
C12 C8 1_555 1_555
C13 C12 1_555 1_555
C14 C13 1_555 1_555
C15 C14 1_555 1_555
H10 C15 1_555 1_555
H11 C15 1_555 1_555
H12 C15 1_555 1_555
C16 C14 1_555 1_555
H13 C16 1_555 1_555
H14 C16 1_555 1_555
H15 C16 1_555 1_555
C17 C14 1_555 1_555
H16 C17 1_555 1_555
H17 C17 1_555 1_555
H18 C17 1_555 1_555
C5 C6 1_555 1_555
C8 C9 1_555 1_555

#END
