
#######################################################################
#
#                 Cambridge Crystallographic Data Centre
#                                CCDC 
#
#######################################################################
#
# If this CIF has been generated from an entry in the Cambridge 
# Structural Database, then it will include bibliographic, chemical, 
# crystal, experimental, refinement or atomic coordinate data resulting 
# from the CCDC's data processing and validation procedures.
#
#######################################################################

data_NENTUY
_chemical_formula_moiety         'C17 H18 O3'
_chemical_name_systematic        
'(S)-methyl 2-(3,3-dimethylbut-1-yn-1-yl)-1-oxoindane-2-carboxylate'
_symmetry_cell_setting           orthorhombic
_symmetry_space_group_name_H-M   'P 21 21 21'
_symmetry_Int_Tables_number      19
_space_group_name_Hall           'P 2ac 2ab'
loop_
_symmetry_equiv_pos_site_id
_symmetry_equiv_pos_as_xyz
1 x,y,z
2 1/2-x,-y,1/2+z
3 1/2+x,1/2-y,-z
4 -x,1/2+y,1/2-z
_cell_length_a                   6.99210(10)
_cell_length_b                   9.67970(10)
_cell_length_c                   21.9990(15)
_cell_angle_alpha                90
_cell_angle_beta                 90
_cell_angle_gamma                90
_cell_volume                     1488.92
_exptl_crystal_colour            colorless
_exptl_crystal_description       prism
_cell_formula_units_Z            4
loop_
_atom_site_label
_atom_site_type_symbol
_atom_site_fract_x
_atom_site_fract_y
_atom_site_fract_z
C1 C 0.5584(4) 1.2752(3) 0.91942(11)
H1 H 0.4238 1.2762 0.9137
C2 C 0.6604(4) 1.1509(3) 0.91705(11)
C3 C 0.8579(4) 1.1466(3) 0.92421(10)
C4 C 0.9546(4) 1.2687(3) 0.93580(11)
H2 H 1.0892 1.2682 0.9417
C5 C 0.8530(4) 1.3922(3) 0.93878(12)
H3 H 0.9193 1.4759 0.9469
C6 C 0.6561(4) 1.3951(3) 0.93013(12)
H4 H 0.5893 1.4804 0.9317
C7 C 0.5840(4) 1.0115(3) 0.90961(10)
C8 C 0.7563(4) 0.9076(2) 0.91577(11)
C9 C 0.9358(4) 1.0031(2) 0.91807(11)
H5 H 1.0177 0.9794 0.9533
H6 H 1.0121 0.9940 0.8804
O1 O 0.4195(3) 0.9773(2) 0.90153(9)
C10 C 0.7292(4) 0.8309(2) 0.97583(11)
O2 O 0.6910(3) 0.70923(19) 0.98026(9)
O3 O 0.7461(3) 0.91530(16) 1.02296(7)
C11 C 0.7284(4) 0.8527(3) 1.08277(11)
H7 H 0.7424 0.9241 1.1141
H8 H 0.8283 0.7827 1.0880
H9 H 0.6024 0.8091 1.0866
C12 C 0.7540(4) 0.8117(3) 0.86426(11)
C13 C 0.7488(4) 0.7391(3) 0.82084(11)
C14 C 0.7364(5) 0.6461(3) 0.76690(12)
C15 C 0.7764(6) 0.7290(3) 0.70988(13)
H10 H 0.6916 0.8096 0.7086
H11 H 0.7535 0.6711 0.6741
H12 H 0.9099 0.7599 0.7101
C16 C 0.8775(10) 0.5303(5) 0.77284(19)
H13 H 0.8731 0.4727 0.7362
H14 H 0.8452 0.4741 0.8084
H15 H 1.0064 0.5684 0.7777
C17 C 0.5338(8) 0.5892(7) 0.7634(2)
H16 H 0.4430 0.6658 0.7593
H17 H 0.5053 0.5371 0.8005
H18 H 0.5226 0.5281 0.7280
loop_
_geom_bond_atom_site_label_1
_geom_bond_atom_site_label_2
_geom_bond_site_symmetry_1
_geom_bond_site_symmetry_2
C1 H1 1_555 1_555
C2 C1 1_555 1_555
C3 C2 1_555 1_555
C4 C3 1_555 1_555
H2 C4 1_555 1_555
C5 C4 1_555 1_555
H3 C5 1_555 1_555
C6 C1 1_555 1_555
H4 C6 1_555 1_555
C7 C2 1_555 1_555
C8 C7 1_555 1_555
C9 C3 1_555 1_555
H5 C9 1_555 1_555
H6 C9 1_555 1_555
O1 C7 1_555 1_555
C10 C8 1_555 1_555
O2 C10 1_555 1_555
O3 C10 1_555 1_555
C11 O3 1_555 1_555
H7 C11 1_555 1_555
H8 C11 1_555 1_555
H9 C11 1_555 1_555
C12 C8 1_555 1_555
C13 C12 1_555 1_555
C14 C13 1_555 1_555
C15 C14 1_555 1_555
H10 C15 1_555 1_555
H11 C15 1_555 1_555
H12 C15 1_555 1_555
C16 C14 1_555 1_555
H13 C16 1_555 1_555
H14 C16 1_555 1_555
H15 C16 1_555 1_555
C17 C14 1_555 1_555
H16 C17 1_555 1_555
H17 C17 1_555 1_555
H18 C17 1_555 1_555
C5 C6 1_555 1_555
C8 C9 1_555 1_555

#END
