
#######################################################################
#
#                 Cambridge Crystallographic Data Centre
#                                CCDC 
#
#######################################################################
#
# If this CIF has been generated from an entry in the Cambridge 
# Structural Database, then it will include bibliographic, chemical, 
# crystal, experimental, refinement or atomic coordinate data resulting 
# from the CCDC's data processing and validation procedures.
#
#######################################################################

data_NEPROS
_chemical_formula_moiety         'C8 H14 B10 I2'
_chemical_name_systematic        
4,5-bis(iodo)-1-phenyl-1,2-dicarba-closo-dodecaborane
_symmetry_cell_setting           monoclinic
_symmetry_space_group_name_H-M   'P 21/n'
_symmetry_Int_Tables_number      14
_space_group_name_Hall           '-P 2yn'
loop_
_symmetry_equiv_pos_site_id
_symmetry_equiv_pos_as_xyz
1 x,y,z
2 1/2-x,1/2+y,1/2-z
3 -x,-y,-z
4 1/2+x,1/2-y,1/2+z
_cell_length_a                   15.3275(4)
_cell_length_b                   14.3207(4)
_cell_length_c                   16.4007(5)
_cell_angle_alpha                90
_cell_angle_beta                 114.0190(10)
_cell_angle_gamma                90
_cell_volume                     3288.24
_exptl_crystal_colour            colorless
_exptl_crystal_description       block
_cell_formula_units_Z            8
loop_
_atom_site_label
_atom_site_type_symbol
_atom_site_fract_x
_atom_site_fract_y
_atom_site_fract_z
I1 I 0.64242(2) 0.47899(2) 0.63874(2)
I2 I 0.64958(2) 0.75828(2) 0.63455(2)
C1 C 0.8205(3) 0.6123(2) 0.6360(2)
H1 H 0.8434 0.6138 0.7088
C2 C 0.9010(3) 0.6081(2) 0.5914(2)
C3 C 1.0060(3) 0.6058(3) 0.6519(2)
C4 C 1.0532(3) 0.5225(3) 0.6821(3)
H2 H 1.0196 0.4666 0.6663
C5 C 1.1498(3) 0.5213(4) 0.7355(3)
H3 H 1.1805 0.4646 0.7560
C6 C 1.2006(3) 0.6025(4) 0.7584(3)
H4 H 1.2656 0.6013 0.7947
C7 C 1.1551(3) 0.6861(4) 0.7276(3)
H5 H 1.1896 0.7415 0.7429
C8 C 1.0583(3) 0.6885(3) 0.6739(3)
H6 H 1.0282 0.7452 0.6526
B1 B 0.8341(3) 0.5097(3) 0.5895(3)
H7 H 0.8642 0.4456 0.6275
B2 B 0.7194(3) 0.5520(3) 0.5737(3)
B3 B 0.7225(3) 0.6758(3) 0.5716(3)
B4 B 0.8395(3) 0.7108(3) 0.5862(3)
H8 H 0.8730 0.7750 0.6221
B5 B 0.8566(3) 0.5428(3) 0.4957(3)
H9 H 0.9005 0.4995 0.4717
B6 B 0.7393(3) 0.5090(4) 0.4815(3)
H10 H 0.7067 0.4437 0.4475
B7 B 0.6705(3) 0.6122(3) 0.4707(3)
H11 H 0.5931 0.6135 0.4295
B8 B 0.7447(3) 0.7111(4) 0.4779(3)
H12 H 0.7157 0.7764 0.4416
B9 B 0.8590(3) 0.6687(3) 0.4939(3)
H13 H 0.9049 0.7069 0.4684
B10 B 0.7552(4) 0.6079(4) 0.4226(3)
H14 H 0.7330 0.6066 0.3498
I3 I 1.04659(2) 0.25112(2) 0.73373(2)
I4 I 1.03597(2) -0.02697(2) 0.70821(2)
C9 C 0.8518(2) 0.1181(2) 0.6524(2)
H15 H 0.8642 0.1109 0.7231
C10 C 0.7409(2) 0.1250(2) 0.5737(2)
C11 C 0.6571(2) 0.1211(2) 0.5997(2)
C12 C 0.6150(3) 0.2016(3) 0.6121(3)
H16 H 0.6406 0.2594 0.6080
C13 C 0.5346(3) 0.1968(4) 0.6307(4)
H17 H 0.5070 0.2517 0.6393
C14 C 0.4955(3) 0.1134(3) 0.6367(3)
H18 H 0.4412 0.1109 0.6486
C15 C 0.5370(3) 0.0339(4) 0.6249(4)
H19 H 0.5110 -0.0236 0.6295
C16 C 0.6169(3) 0.0368(3) 0.6063(3)
H20 H 0.6440 -0.0186 0.5981
B11 B 0.8125(3) 0.2240(3) 0.6029(3)
H21 H 0.7986 0.2851 0.6365
B12 B 0.9299(3) 0.1842(3) 0.6280(3)
B13 B 0.9254(3) 0.0601(3) 0.6155(3)
B14 B 0.8060(3) 0.0232(3) 0.5837(3)
H22 H 0.7881 -0.0443 0.6051
B15 B 0.7403(3) 0.1969(3) 0.4901(3)
H23 H 0.6794 0.2411 0.4496
B16 B 0.8603(3) 0.2339(3) 0.5222(3)
H24 H 0.8779 0.3021 0.5020
B17 B 0.9315(3) 0.1318(3) 0.5297(3)
H25 H 0.9950 0.1339 0.5145
B18 B 0.8541(3) 0.0323(3) 0.5033(3)
H26 H 0.8675 -0.0301 0.4710
B19 B 0.7362(3) 0.0734(3) 0.4779(3)
H27 H 0.6726 0.0380 0.4293
B20 B 0.8137(3) 0.1402(4) 0.4454(3)
H28 H 0.8011 0.1478 0.3747
loop_
_geom_bond_atom_site_label_1
_geom_bond_atom_site_label_2
_geom_bond_site_symmetry_1
_geom_bond_site_symmetry_2
I1 B2 1_555 1_555
I2 B3 1_555 1_555
C1 H1 1_555 1_555
C2 C1 1_555 1_555
C3 C2 1_555 1_555
C4 C3 1_555 1_555
H2 C4 1_555 1_555
C5 C4 1_555 1_555
H3 C5 1_555 1_555
C6 C5 1_555 1_555
H4 C6 1_555 1_555
C7 C6 1_555 1_555
H5 C7 1_555 1_555
C8 C3 1_555 1_555
H6 C8 1_555 1_555
B1 C1 1_555 1_555
H7 B1 1_555 1_555
B2 C1 1_555 1_555
B3 C1 1_555 1_555
B4 C1 1_555 1_555
H8 B4 1_555 1_555
B5 C2 1_555 1_555
H9 B5 1_555 1_555
B6 B1 1_555 1_555
H10 B6 1_555 1_555
B7 B2 1_555 1_555
H11 B7 1_555 1_555
B8 B3 1_555 1_555
H12 B8 1_555 1_555
B9 C2 1_555 1_555
H13 B9 1_555 1_555
B10 B5 1_555 1_555
H14 B10 1_555 1_555
I3 B12 1_555 1_555
I4 B13 1_555 1_555
C9 H15 1_555 1_555
C10 C9 1_555 1_555
C11 C10 1_555 1_555
C12 C11 1_555 1_555
H16 C12 1_555 1_555
C13 C12 1_555 1_555
H17 C13 1_555 1_555
C14 C13 1_555 1_555
H18 C14 1_555 1_555
C15 C14 1_555 1_555
H19 C15 1_555 1_555
C16 C11 1_555 1_555
H20 C16 1_555 1_555
B11 C9 1_555 1_555
H21 B11 1_555 1_555
B12 C9 1_555 1_555
B13 C9 1_555 1_555
B14 C9 1_555 1_555
H22 B14 1_555 1_555
B15 C10 1_555 1_555
H23 B15 1_555 1_555
B16 B11 1_555 1_555
H24 B16 1_555 1_555
B17 B12 1_555 1_555
H25 B17 1_555 1_555
B18 B13 1_555 1_555
H26 B18 1_555 1_555
B19 C10 1_555 1_555
H27 B19 1_555 1_555
B20 B15 1_555 1_555
H28 B20 1_555 1_555
C2 B1 1_555 1_555
C2 B4 1_555 1_555
C7 C8 1_555 1_555
B1 B2 1_555 1_555
B1 B5 1_555 1_555
B2 B3 1_555 1_555
B2 B6 1_555 1_555
B3 B4 1_555 1_555
B3 B7 1_555 1_555
B4 B8 1_555 1_555
B4 B9 1_555 1_555
B5 B6 1_555 1_555
B5 B9 1_555 1_555
B6 B7 1_555 1_555
B6 B10 1_555 1_555
B7 B8 1_555 1_555
B7 B10 1_555 1_555
B8 B9 1_555 1_555
B8 B10 1_555 1_555
B9 B10 1_555 1_555
C10 B11 1_555 1_555
C10 B14 1_555 1_555
C15 C16 1_555 1_555
B11 B12 1_555 1_555
B11 B15 1_555 1_555
B12 B13 1_555 1_555
B12 B16 1_555 1_555
B13 B14 1_555 1_555
B13 B17 1_555 1_555
B14 B18 1_555 1_555
B14 B19 1_555 1_555
B15 B16 1_555 1_555
B15 B19 1_555 1_555
B16 B17 1_555 1_555
B16 B20 1_555 1_555
B17 B18 1_555 1_555
B17 B20 1_555 1_555
B18 B19 1_555 1_555
B18 B20 1_555 1_555
B19 B20 1_555 1_555

#END
