
#######################################################################
#
#                 Cambridge Crystallographic Data Centre
#                                CCDC 
#
#######################################################################
#
# If this CIF has been generated from an entry in the Cambridge 
# Structural Database, then it will include bibliographic, chemical, 
# crystal, experimental, refinement or atomic coordinate data resulting 
# from the CCDC's data processing and validation procedures.
#
#######################################################################

data_NEPRIM
_chemical_formula_moiety         'C8 H14 B10 Cl1 I1'
_chemical_name_systematic        
3-iodo-1-(4-chlorophenyl)-1,2-dicarba-closo-dodecaborane
_symmetry_cell_setting           monoclinic
_symmetry_space_group_name_H-M   'C c'
_symmetry_Int_Tables_number      9
_space_group_name_Hall           'C -2yc'
loop_
_symmetry_equiv_pos_site_id
_symmetry_equiv_pos_as_xyz
1 x,y,z
2 x,-y,1/2+z
3 1/2+x,1/2+y,z
4 1/2+x,1/2-y,1/2+z
_cell_length_a                   10.6199(5)
_cell_length_b                   47.742(2)
_cell_length_c                   13.4396(7)
_cell_angle_alpha                90
_cell_angle_beta                 112.5222(13)
_cell_angle_gamma                90
_cell_volume                     6294.38
_exptl_crystal_colour            colorless
_exptl_crystal_description       block
_cell_formula_units_Z            16
loop_
_atom_site_label
_atom_site_type_symbol
_atom_site_fract_x
_atom_site_fract_y
_atom_site_fract_z
I1 I 0.49360(8) 0.41816(2) 0.40406(6)
Cl1 Cl 0.0670(3) 0.23796(7) 0.1390(3)
C1 C 0.2547(8) 0.37018(18) 0.3745(7)
H1 H 0.2344 0.3724 0.2882
C2 C 0.2425(8) 0.33876(17) 0.4248(6)
C3 C 0.2013(8) 0.31380(17) 0.3507(7)
C4 C 0.2208(11) 0.2872(2) 0.3956(8)
H2 H 0.2612 0.2850 0.4699
C5 C 0.1804(13) 0.2640(2) 0.3299(10)
H3 H 0.1938 0.2461 0.3597
C6 C 0.1202(10) 0.2674(2) 0.2201(9)
C7 C 0.0992(11) 0.2934(2) 0.1753(8)
H4 H 0.0574 0.2955 0.1009
C8 C 0.1404(10) 0.3166(2) 0.2409(7)
H5 H 0.1268 0.3344 0.2103
B1 B 0.4021(9) 0.3536(2) 0.4521(8)
H6 H 0.4777 0.3452 0.4224
B2 B 0.3776(10) 0.3897(2) 0.4628(8)
B3 B 0.2054(11) 0.3965(2) 0.4344(9)
H7 H 0.1557 0.4159 0.3941
B4 B 0.1177(10) 0.3643(2) 0.4100(8)
H8 H 0.0108 0.3627 0.3536
B5 B 0.3607(11) 0.3366(2) 0.5526(8)
H9 H 0.4107 0.3170 0.5901
B6 B 0.4471(10) 0.3692(2) 0.5785(9)
H10 H 0.5547 0.3709 0.6333
B7 B 0.3282(11) 0.3954(2) 0.5714(9)
H11 H 0.3579 0.4143 0.6221
B8 B 0.1634(11) 0.3793(2) 0.5370(9)
H12 H 0.0858 0.3876 0.5647
B9 B 0.1869(12) 0.3431(2) 0.5262(8)
H13 H 0.1241 0.3275 0.5462
B10 B 0.3143(12) 0.3629(3) 0.6262(9)
H14 H 0.3346 0.3606 0.7125
I2 I 0.66592(13) 0.32331(2) 0.85936(8)
Cl2 Cl 0.5567(3) 0.51921(7) 0.6444(3)
C9 C 0.7707(11) 0.3897(2) 0.8924(9)
H15 H 0.7653 0.3880 0.8093
C10 C 0.7280(8) 0.41939(18) 0.9353(7)
C11 C 0.6811(8) 0.44357(18) 0.8597(7)
C12 C 0.6531(10) 0.4414(2) 0.7503(7)
H16 H 0.6605 0.4242 0.7209
C13 C 0.6140(10) 0.4648(2) 0.6845(8)
H17 H 0.5965 0.4632 0.6114
C14 C 0.6014(9) 0.4899(2) 0.7258(9)
C15 C 0.6257(10) 0.4927(2) 0.8341(9)
H18 H 0.6146 0.5099 0.8621
C16 C 0.6666(9) 0.46954(18) 0.8996(7)
H19 H 0.6849 0.4714 0.9728
B11 B 0.6244(12) 0.3905(2) 0.9139(9)
H20 H 0.5229 0.3893 0.8487
B12 B 0.7310(12) 0.3613(2) 0.9495(9)
B13 B 0.8973(14) 0.3730(3) 0.9928(14)
H21 H 0.9768 0.3602 0.9813
B14 B 0.8961(11) 0.4103(3) 0.9809(12)
H22 H 0.9728 0.4218 0.9609
B15 B 0.6505(14) 0.4121(2) 1.0228(10)
H23 H 0.5690 0.4249 1.0312
B16 B 0.6540(13) 0.3753(2) 1.0353(10)
H24 H 0.5742 0.3640 1.0523
B17 B 0.8259(13) 0.3639(3) 1.0889(10)
H25 H 0.8577 0.3455 1.1417
B18 B 0.9309(14) 0.3941(3) 1.1058(13)
H26 H 1.0333 0.3949 1.1701
B19 B 0.8271(14) 0.4237(3) 1.0669(9)
H27 H 0.8611 0.4442 1.1053
B20 B 0.7806(19) 0.3959(3) 1.1334(11)
H28 H 0.7840 0.3984 1.2158
I3 I 1.10857(19) 0.30418(2) 0.85566(12)
Cl3 Cl 1.3642(4) 0.12177(8) 1.1538(3)
C17 C 1.0645(14) 0.2350(3) 0.8197(10)
H29 H 1.0226 0.2352 0.8830
C18 C 1.1691(9) 0.20952(18) 0.8088(7)
C19 C 1.2150(8) 0.18715(19) 0.8962(7)
C20 C 1.2361(11) 0.1937(2) 1.0011(8)
H30 H 1.2183 0.2117 1.0184
C21 C 1.2835(12) 0.1736(2) 1.0811(9)
H31 H 1.3010 0.1782 1.1525
C22 C 1.3041(10) 0.1471(2) 1.0535(10)
C23 C 1.2824(12) 0.1401(2) 0.9491(10)
H32 H 1.2977 0.1220 0.9317
C24 C 1.2378(11) 0.1604(2) 0.8707(9)
H33 H 1.2231 0.1559 0.7998
B21 B 1.2298(13) 0.2409(2) 0.8414(9)
H34 H 1.3016 0.2455 0.9239
B22 B 1.1138(16) 0.2655(2) 0.7769(11)
B23 B 0.9711(14) 0.2469(3) 0.6929(14)
H35 H 0.8673 0.2553 0.6708
B24 B 1.0079(13) 0.2108(3) 0.7151(12)
H36 H 0.9284 0.1952 0.7077
B25 B 1.2897(16) 0.2215(3) 0.7627(12)
H37 H 1.3932 0.2128 0.7879
B26 B 1.2528(15) 0.2574(3) 0.7373(14)
H38 H 1.3328 0.2728 0.7447
B27 B 1.0823(17) 0.2607(3) 0.6380(12)
H39 H 1.0483 0.2778 0.5788
B28 B 1.025(2) 0.2266(3) 0.6018(13)
H40 H 0.9568 0.2214 0.5188
B29 B 1.1457(18) 0.2033(3) 0.6794(11)
H41 H 1.1545 0.1825 0.6476
B30 B 1.203(2) 0.2342(4) 0.6364(14)
H42 H 1.2516 0.2345 0.5776
I4 I 0.88188(7) 0.44967(2) 0.42958(5)
Cl4 Cl 1.3324(3) 0.36447(7) 1.1225(2)
C25 C 1.1355(8) 0.45038(17) 0.6689(6)
H43 H 1.1525 0.4292 0.6447
C26 C 1.1599(8) 0.45681(17) 0.7952(6)
C27 C 1.2052(8) 0.43359(16) 0.8770(7)
C28 C 1.2435(10) 0.4395(2) 0.9843(7)
H44 H 1.2428 0.4580 1.0059
C29 C 1.2833(10) 0.4186(2) 1.0612(7)
H45 H 1.3090 0.4228 1.1338
C30 C 1.2841(9) 0.3915(2) 1.0282(8)
C31 C 1.2491(12) 0.3845(2) 0.9222(8)
H46 H 1.2532 0.3660 0.9017
C32 C 1.2074(12) 0.40580(18) 0.8459(8)
H47 H 1.1807 0.4015 0.7732
B31 B 0.9942(10) 0.4553(2) 0.7005(8)
H48 H 0.9192 0.4392 0.6985
B32 B 1.0058(10) 0.4690(2) 0.5823(8)
B33 B 1.1780(11) 0.4772(2) 0.6078(9)
H49 H 1.2199 0.4752 0.5449
B34 B 1.2777(10) 0.4689(2) 0.7442(8)
H50 H 1.3836 0.4614 0.7706
B35 B 1.0484(12) 0.4818(2) 0.8015(9)
H51 H 1.0082 0.4831 0.8656
B36 B 0.9489(11) 0.4904(2) 0.6640(9)
H52 H 0.8425 0.4975 0.6379
B37 B 1.0596(12) 0.5041(2) 0.6059(9)
H53 H 1.0251 0.5201 0.5423
B38 B 1.2304(11) 0.5036(2) 0.7071(9)
H54 H 1.3071 0.5193 0.7091
B39 B 1.2191(12) 0.4901(2) 0.8262(9)
H55 H 1.2886 0.4969 0.9068
B40 B 1.0873(15) 0.5119(2) 0.7416(10)
H56 H 1.0712 0.5332 0.7660
loop_
_geom_bond_atom_site_label_1
_geom_bond_atom_site_label_2
_geom_bond_site_symmetry_1
_geom_bond_site_symmetry_2
I1 B2 1_555 1_555
Cl1 C6 1_555 1_555
C1 H1 1_555 1_555
C2 C1 1_555 1_555
C3 C2 1_555 1_555
C4 C3 1_555 1_555
H2 C4 1_555 1_555
C5 C4 1_555 1_555
H3 C5 1_555 1_555
C6 C5 1_555 1_555
C7 C6 1_555 1_555
H4 C7 1_555 1_555
C8 C3 1_555 1_555
H5 C8 1_555 1_555
B1 C1 1_555 1_555
H6 B1 1_555 1_555
B2 C1 1_555 1_555
B3 C1 1_555 1_555
H7 B3 1_555 1_555
B4 C1 1_555 1_555
H8 B4 1_555 1_555
B5 C2 1_555 1_555
H9 B5 1_555 1_555
B6 B1 1_555 1_555
H10 B6 1_555 1_555
B7 B2 1_555 1_555
H11 B7 1_555 1_555
B8 B3 1_555 1_555
H12 B8 1_555 1_555
B9 C2 1_555 1_555
H13 B9 1_555 1_555
B10 B5 1_555 1_555
H14 B10 1_555 1_555
I2 B12 1_555 1_555
Cl2 C14 1_555 1_555
C9 H15 1_555 1_555
C10 C9 1_555 1_555
C11 C10 1_555 1_555
C12 C11 1_555 1_555
H16 C12 1_555 1_555
C13 C12 1_555 1_555
H17 C13 1_555 1_555
C14 C13 1_555 1_555
C15 C14 1_555 1_555
H18 C15 1_555 1_555
C16 C11 1_555 1_555
H19 C16 1_555 1_555
B11 C9 1_555 1_555
H20 B11 1_555 1_555
B12 C9 1_555 1_555
B13 C9 1_555 1_555
H21 B13 1_555 1_555
B14 C9 1_555 1_555
H22 B14 1_555 1_555
B15 C10 1_555 1_555
H23 B15 1_555 1_555
B16 B11 1_555 1_555
H24 B16 1_555 1_555
B17 B12 1_555 1_555
H25 B17 1_555 1_555
B18 B13 1_555 1_555
H26 B18 1_555 1_555
B19 C10 1_555 1_555
H27 B19 1_555 1_555
B20 B15 1_555 1_555
H28 B20 1_555 1_555
I3 B22 1_555 1_555
Cl3 C22 1_555 1_555
C17 H29 1_555 1_555
C18 C17 1_555 1_555
C19 C18 1_555 1_555
C20 C19 1_555 1_555
H30 C20 1_555 1_555
C21 C20 1_555 1_555
H31 C21 1_555 1_555
C22 C21 1_555 1_555
C23 C22 1_555 1_555
H32 C23 1_555 1_555
C24 C19 1_555 1_555
H33 C24 1_555 1_555
B21 C17 1_555 1_555
H34 B21 1_555 1_555
B22 C17 1_555 1_555
B23 C17 1_555 1_555
H35 B23 1_555 1_555
B24 C17 1_555 1_555
H36 B24 1_555 1_555
B25 C18 1_555 1_555
H37 B25 1_555 1_555
B26 B21 1_555 1_555
H38 B26 1_555 1_555
B27 B22 1_555 1_555
H39 B27 1_555 1_555
B28 B23 1_555 1_555
H40 B28 1_555 1_555
B29 C18 1_555 1_555
H41 B29 1_555 1_555
B30 B25 1_555 1_555
H42 B30 1_555 1_555
I4 B32 1_555 1_555
Cl4 C30 1_555 1_555
C25 H43 1_555 1_555
C26 C25 1_555 1_555
C27 C26 1_555 1_555
C28 C27 1_555 1_555
H44 C28 1_555 1_555
C29 C28 1_555 1_555
H45 C29 1_555 1_555
C30 C29 1_555 1_555
C31 C30 1_555 1_555
H46 C31 1_555 1_555
C32 C27 1_555 1_555
H47 C32 1_555 1_555
B31 C25 1_555 1_555
H48 B31 1_555 1_555
B32 C25 1_555 1_555
B33 C25 1_555 1_555
H49 B33 1_555 1_555
B34 C25 1_555 1_555
H50 B34 1_555 1_555
B35 C26 1_555 1_555
H51 B35 1_555 1_555
B36 B31 1_555 1_555
H52 B36 1_555 1_555
B37 B32 1_555 1_555
H53 B37 1_555 1_555
B38 B33 1_555 1_555
H54 B38 1_555 1_555
B39 C26 1_555 1_555
H55 B39 1_555 1_555
B40 B35 1_555 1_555
H56 B40 1_555 1_555
C2 B1 1_555 1_555
C2 B4 1_555 1_555
C7 C8 1_555 1_555
B1 B2 1_555 1_555
B1 B5 1_555 1_555
B2 B3 1_555 1_555
B2 B6 1_555 1_555
B3 B4 1_555 1_555
B3 B7 1_555 1_555
B4 B8 1_555 1_555
B4 B9 1_555 1_555
B5 B6 1_555 1_555
B5 B9 1_555 1_555
B6 B7 1_555 1_555
B6 B10 1_555 1_555
B7 B8 1_555 1_555
B7 B10 1_555 1_555
B8 B9 1_555 1_555
B8 B10 1_555 1_555
B9 B10 1_555 1_555
C10 B11 1_555 1_555
C10 B14 1_555 1_555
C15 C16 1_555 1_555
B11 B12 1_555 1_555
B11 B15 1_555 1_555
B12 B13 1_555 1_555
B12 B16 1_555 1_555
B13 B14 1_555 1_555
B13 B17 1_555 1_555
B14 B18 1_555 1_555
B14 B19 1_555 1_555
B15 B16 1_555 1_555
B15 B19 1_555 1_555
B16 B17 1_555 1_555
B16 B20 1_555 1_555
B17 B18 1_555 1_555
B17 B20 1_555 1_555
B18 B19 1_555 1_555
B18 B20 1_555 1_555
B19 B20 1_555 1_555
C18 B21 1_555 1_555
C18 B24 1_555 1_555
C23 C24 1_555 1_555
B21 B22 1_555 1_555
B21 B25 1_555 1_555
B22 B23 1_555 1_555
B22 B26 1_555 1_555
B23 B24 1_555 1_555
B23 B27 1_555 1_555
B24 B28 1_555 1_555
B24 B29 1_555 1_555
B25 B26 1_555 1_555
B25 B29 1_555 1_555
B26 B27 1_555 1_555
B26 B30 1_555 1_555
B27 B28 1_555 1_555
B27 B30 1_555 1_555
B28 B29 1_555 1_555
B28 B30 1_555 1_555
B29 B30 1_555 1_555
C26 B31 1_555 1_555
C26 B34 1_555 1_555
C31 C32 1_555 1_555
B31 B32 1_555 1_555
B31 B35 1_555 1_555
B32 B33 1_555 1_555
B32 B36 1_555 1_555
B33 B34 1_555 1_555
B33 B37 1_555 1_555
B34 B38 1_555 1_555
B34 B39 1_555 1_555
B35 B36 1_555 1_555
B35 B39 1_555 1_555
B36 B37 1_555 1_555
B36 B40 1_555 1_555
B37 B38 1_555 1_555
B37 B40 1_555 1_555
B38 B39 1_555 1_555
B38 B40 1_555 1_555
B39 B40 1_555 1_555

#END
