
#######################################################################
#
#                 Cambridge Crystallographic Data Centre
#                                CCDC 
#
#######################################################################
#
# If this CIF has been generated from an entry in the Cambridge 
# Structural Database, then it will include bibliographic, chemical, 
# crystal, experimental, refinement or atomic coordinate data resulting 
# from the CCDC's data processing and validation procedures.
#
#######################################################################

data_NEPSOR
_chemical_formula_moiety         'C24 H24 Cl2 N2 O2 S1'
_chemical_name_systematic        
syn-N-((cis-1-Benzenesulfonyl-2-chloro-3-(4-chlorophenyl)aziridin-2-yl)phenylmethyl)isopropylamine
_symmetry_cell_setting           monoclinic
_symmetry_space_group_name_H-M   'P 21/n'
_symmetry_Int_Tables_number      14
_space_group_name_Hall           '-P 2yn'
loop_
_symmetry_equiv_pos_site_id
_symmetry_equiv_pos_as_xyz
1 x,y,z
2 1/2-x,1/2+y,1/2-z
3 -x,-y,-z
4 1/2+x,1/2-y,1/2+z
_cell_length_a                   13.9628(5)
_cell_length_b                   11.9516(4)
_cell_length_c                   15.2533(5)
_cell_angle_alpha                90
_cell_angle_beta                 116.0520(10)
_cell_angle_gamma                90
_cell_volume                     2286.81
_exptl_crystal_colour            colorless
_exptl_crystal_description       'complex prism'
_cell_formula_units_Z            4
loop_
_atom_site_label
_atom_site_type_symbol
_atom_site_fract_x
_atom_site_fract_y
_atom_site_fract_z
N1 N 0.33597(7) 0.92613(7) 0.12948(6)
C1 C 0.37885(8) 1.03923(8) 0.16159(7)
C2 C 0.41801(8) 0.96959(8) 0.10236(7)
H1 H 0.3902 0.9931 0.0326
S1 S 0.21239(2) 0.89874(2) 0.044208(19)
O1 O 0.14390(7) 0.92010(7) 0.08986(7)
O2 O 0.19145(7) 0.95247(7) -0.04672(6)
C3 C 0.22270(8) 0.75403(8) 0.02989(7)
C4 C 0.21156(10) 0.68117(9) 0.09553(9)
H2 H 0.1997 0.7087 0.1483
C5 C 0.21814(12) 0.56722(10) 0.08236(10)
H3 H 0.2115 0.5160 0.1270
C6 C 0.23429(11) 0.52726(10) 0.00462(10)
H4 H 0.2379 0.4489 -0.0041
C7 C 0.24521(12) 0.60119(11) -0.06037(10)
H5 H 0.2564 0.5735 -0.1135
C8 C 0.23984(11) 0.71563(10) -0.04782(8)
H6 H 0.2478 0.7669 -0.0918
Cl1 Cl 0.45837(2) 1.04669(2) 0.288433(17)
C9 C 0.31262(8) 1.14359(8) 0.11624(7)
H7 H 0.2716 1.1301 0.0445
N2 N 0.23592(7) 1.16107(8) 0.15604(7)
H8 H 0.2040(12) 1.0968(13) 0.1554(10)
C10 C 0.15232(9) 1.24498(9) 0.10369(9)
H9 H 0.1864 1.3206 0.1180
C11 C 0.09583(11) 1.23084(13) -0.00671(10)
H10 H 0.1478 1.2378 -0.0335
H11 H 0.0411 1.2888 -0.0350
H12 H 0.0623 1.1569 -0.0226
C12 C 0.07238(11) 1.24032(15) 0.14626(11)
H13 H 0.1093 1.2530 0.2169
H14 H 0.0381 1.1666 0.1334
H15 H 0.0181 1.2983 0.1160
C13 C 0.38350(8) 1.24520(8) 0.13006(7)
C14 C 0.40975(9) 1.31905(9) 0.20816(8)
H16 H 0.3843 1.3059 0.2557
C15 C 0.47328(11) 1.41197(10) 0.21639(10)
H17 H 0.4910 1.4622 0.2695
C16 C 0.51080(11) 1.43149(11) 0.14739(11)
H18 H 0.5538 1.4953 0.1532
C17 C 0.48597(11) 1.35852(11) 0.07010(10)
H19 H 0.5122 1.3717 0.0231
C18 C 0.42242(9) 1.26576(9) 0.06160(8)
H20 H 0.4053 1.2157 0.0084
C19 C 0.52082(8) 0.90707(8) 0.14034(7)
C20 C 0.52630(9) 0.79607(9) 0.17021(8)
H21 H 0.4656 0.7615 0.1714
C21 C 0.62015(9) 0.73578(9) 0.19826(8)
H22 H 0.6243 0.6605 0.2196
C22 C 0.70773(9) 0.78624(9) 0.19488(8)
Cl2 Cl 0.82061(2) 0.70594(3) 0.22035(2)
C23 C 0.70536(8) 0.89742(9) 0.16802(7)
H23 H 0.7667 0.9319 0.1681
C24 C 0.61108(8) 0.95748(8) 0.14090(7)
H24 H 0.6083 1.0338 0.1226
loop_
_geom_bond_atom_site_label_1
_geom_bond_atom_site_label_2
_geom_bond_site_symmetry_1
_geom_bond_site_symmetry_2
N1 C1 1_555 1_555
C1 C2 1_555 1_555
C2 N1 1_555 1_555
H1 C2 1_555 1_555
S1 N1 1_555 1_555
O1 S1 1_555 1_555
O2 S1 1_555 1_555
C3 S1 1_555 1_555
C4 C3 1_555 1_555
H2 C4 1_555 1_555
C5 C4 1_555 1_555
H3 C5 1_555 1_555
C6 C5 1_555 1_555
H4 C6 1_555 1_555
C7 C6 1_555 1_555
H5 C7 1_555 1_555
C8 C3 1_555 1_555
H6 C8 1_555 1_555
Cl1 C1 1_555 1_555
C9 C1 1_555 1_555
H7 C9 1_555 1_555
N2 C9 1_555 1_555
H8 N2 1_555 1_555
C10 N2 1_555 1_555
H9 C10 1_555 1_555
C11 C10 1_555 1_555
H10 C11 1_555 1_555
H11 C11 1_555 1_555
H12 C11 1_555 1_555
C12 C10 1_555 1_555
H13 C12 1_555 1_555
H14 C12 1_555 1_555
H15 C12 1_555 1_555
C13 C9 1_555 1_555
C14 C13 1_555 1_555
H16 C14 1_555 1_555
C15 C14 1_555 1_555
H17 C15 1_555 1_555
C16 C15 1_555 1_555
H18 C16 1_555 1_555
C17 C16 1_555 1_555
H19 C17 1_555 1_555
C18 C13 1_555 1_555
H20 C18 1_555 1_555
C19 C2 1_555 1_555
C20 C19 1_555 1_555
H21 C20 1_555 1_555
C21 C20 1_555 1_555
H22 C21 1_555 1_555
C22 C21 1_555 1_555
Cl2 C22 1_555 1_555
C23 C22 1_555 1_555
H23 C23 1_555 1_555
C24 C19 1_555 1_555
H24 C24 1_555 1_555
C7 C8 1_555 1_555
C17 C18 1_555 1_555
C23 C24 1_555 1_555

#END
