
#######################################################################
#
#                 Cambridge Crystallographic Data Centre
#                                CCDC 
#
#######################################################################
#
# If this CIF has been generated from an entry in the Cambridge 
# Structural Database, then it will include bibliographic, chemical, 
# crystal, experimental, refinement or atomic coordinate data resulting 
# from the CCDC's data processing and validation procedures.
#
#######################################################################

data_NEPYIS
_chemical_formula_moiety         'C10 H12 O3'
_chemical_name_systematic        4-Methoxy-3-(methoxymethyl)benzaldehyde
_symmetry_cell_setting           monoclinic
_symmetry_space_group_name_H-M   'P 21/c'
_symmetry_Int_Tables_number      14
_space_group_name_Hall           '-P 2ybc'
loop_
_symmetry_equiv_pos_site_id
_symmetry_equiv_pos_as_xyz
1 x,y,z
2 -x,1/2+y,1/2-z
3 -x,-y,-z
4 x,1/2-y,1/2+z
_cell_length_a                   7.8100(16)
_cell_length_b                   8.3970(17)
_cell_length_c                   14.510(3)
_cell_angle_alpha                90
_cell_angle_beta                 98.01(3)
_cell_angle_gamma                90
_cell_volume                     942.29
_exptl_crystal_colour            colorless
_exptl_crystal_description       block
_chemical_melting_point          '341 K'
_cell_formula_units_Z            4
_exptl_crystal_recrystallization_method acetone
loop_
_atom_site_label
_atom_site_type_symbol
_atom_site_fract_x
_atom_site_fract_y
_atom_site_fract_z
O1 O 0.3742(3) -0.2060(2) 0.10208(17)
C1 C 0.4323(4) 0.0653(3) 0.1125(2)
O2 O 0.2282(3) 0.2507(3) 0.03860(18)
C2 C 0.5453(4) 0.1885(4) 0.1380(2)
H1 H 0.5092 0.2927 0.1250
O3 O 0.8048(3) 0.4313(3) 0.1968(2)
C3 C 0.7125(5) 0.1612(4) 0.1829(2)
C4 C 0.7648(4) 0.0059(4) 0.2027(3)
H2 H 0.8752 -0.0133 0.2339
C5 C 0.6561(5) -0.1209(4) 0.1772(3)
H3 H 0.6928 -0.2248 0.1904
C6 C 0.4919(4) -0.0912(3) 0.1318(2)
C7 C 0.4335(5) -0.3667(4) 0.1007(3)
H4 H 0.3380 -0.4353 0.0791
H5 H 0.4826 -0.3978 0.1624
H6 H 0.5196 -0.3749 0.0598
C8 C 0.2523(4) 0.0900(3) 0.0654(2)
H7 H 0.2307 0.0221 0.0110
H8 H 0.1709 0.0614 0.1075
C9 C 0.0623(5) 0.2781(4) -0.0121(3)
H9 H 0.0509 0.3887 -0.0286
H10 H -0.0248 0.2497 0.0256
H11 H 0.0485 0.2145 -0.0676
C10 C 0.8314(5) 0.2919(5) 0.2107(3)
H12 H 0.9390 0.2644 0.2425
loop_
_geom_bond_atom_site_label_1
_geom_bond_atom_site_label_2
_geom_bond_site_symmetry_1
_geom_bond_site_symmetry_2
O1 C6 1_555 1_555
C1 C2 1_555 1_555
O2 C8 1_555 1_555
C2 H1 1_555 1_555
O3 C10 1_555 1_555
C3 C2 1_555 1_555
C4 C3 1_555 1_555
H2 C4 1_555 1_555
C5 C4 1_555 1_555
H3 C5 1_555 1_555
C6 C1 1_555 1_555
C7 O1 1_555 1_555
H4 C7 1_555 1_555
H5 C7 1_555 1_555
H6 C7 1_555 1_555
C8 C1 1_555 1_555
H7 C8 1_555 1_555
H8 C8 1_555 1_555
C9 O2 1_555 1_555
H9 C9 1_555 1_555
H10 C9 1_555 1_555
H11 C9 1_555 1_555
C10 C3 1_555 1_555
H12 C10 1_555 1_555
C5 C6 1_555 1_555

#END
