
#######################################################################
#
#                 Cambridge Crystallographic Data Centre
#                                CCDC 
#
#######################################################################
#
# If this CIF has been generated from an entry in the Cambridge 
# Structural Database, then it will include bibliographic, chemical, 
# crystal, experimental, refinement or atomic coordinate data resulting 
# from the CCDC's data processing and validation procedures.
#
#######################################################################

data_NEQBAP
_chemical_formula_moiety         'C22 H16 N2 O3 S1'
_chemical_name_systematic        
N-[4-(phenylsulfonyl)naphthalen-1-yl]pyridine-2-carboxamide
_symmetry_cell_setting           monoclinic
_symmetry_space_group_name_H-M   'P 21/c'
_symmetry_Int_Tables_number      14
_space_group_name_Hall           '-P 2ybc'
loop_
_symmetry_equiv_pos_site_id
_symmetry_equiv_pos_as_xyz
1 x,y,z
2 -x,1/2+y,1/2-z
3 -x,-y,-z
4 x,1/2-y,1/2+z
_cell_length_a                   9.0352(3)
_cell_length_b                   10.3936(3)
_cell_length_c                   19.7212(6)
_cell_angle_alpha                90
_cell_angle_beta                 100.661(3)
_cell_angle_gamma                90
_cell_volume                     1820.02
_exptl_crystal_colour            colorless
_exptl_crystal_description       prism
_cell_formula_units_Z            4
loop_
_atom_site_label
_atom_site_type_symbol
_atom_site_fract_x
_atom_site_fract_y
_atom_site_fract_z
C1 C 0.0536(2) 1.02923(19) 0.35428(9)
C2 C 0.1182(3) 1.1415(2) 0.33729(11)
H1 H 0.1801 1.1415 0.3045
C3 C 0.0899(3) 1.2548(2) 0.36968(12)
H2 H 0.1329 1.3315 0.3586
C4 C -0.0016(3) 1.2540(2) 0.41829(12)
H3 H -0.0205 1.3303 0.4399
C5 C -0.0655(3) 1.1406(2) 0.43510(12)
H4 H -0.1269 1.1405 0.4681
C6 C -0.0383(2) 1.0274(2) 0.40299(11)
H5 H -0.0814 0.9508 0.4140
C7 C 0.1860(2) 0.78595(18) 0.37705(10)
C8 C 0.1117(2) 0.6840(2) 0.39860(10)
H6 H 0.0145 0.6650 0.3760
C9 C 0.1791(2) 0.60762(19) 0.45414(11)
H7 H 0.1283 0.5363 0.4667
C10 C 0.3200(2) 0.63723(18) 0.49022(10)
C11 C 0.4048(2) 0.74057(18) 0.46713(10)
C12 C 0.3371(2) 0.81577(18) 0.40912(10)
C13 C 0.4237(2) 0.9150(2) 0.38632(11)
H8 H 0.3820 0.9638 0.3480
C14 C 0.5667(2) 0.9402(2) 0.41938(12)
H9 H 0.6208 1.0066 0.4038
C15 C 0.6330(2) 0.8674(2) 0.47639(12)
H10 H 0.7309 0.8852 0.4986
C16 C 0.5540(2) 0.7700(2) 0.49952(11)
H11 H 0.5993 0.7218 0.5375
C17 C 0.3217(2) 0.48289(19) 0.58703(11)
C18 C 0.4284(2) 0.43747(19) 0.65017(10)
C19 C 0.3852(3) 0.3406(2) 0.68995(12)
H12 H 0.2895 0.3045 0.6792
C20 C 0.4883(3) 0.2984(2) 0.74654(13)
H13 H 0.4632 0.2329 0.7745
C21 C 0.6281(3) 0.3546(2) 0.76068(12)
H14 H 0.6993 0.3275 0.7982
C22 C 0.6614(3) 0.4519(3) 0.71851(12)
H15 H 0.7560 0.4900 0.7286
N1 N 0.38555(18) 0.57093(17) 0.54972(9)
H16 H 0.4790 0.5877 0.5650
N2 N 0.5639(2) 0.49373(18) 0.66375(10)
O1 O 0.16679(18) 0.91153(16) 0.25881(8)
O2 O -0.06471(16) 0.82513(15) 0.29168(7)
O3 O 0.19366(17) 0.44324(18) 0.57202(9)
S1 S 0.08117(5) 0.88369(5) 0.31131(2)
loop_
_geom_bond_atom_site_label_1
_geom_bond_atom_site_label_2
_geom_bond_site_symmetry_1
_geom_bond_site_symmetry_2
C1 C2 1_555 1_555
C2 H1 1_555 1_555
C3 C2 1_555 1_555
H2 C3 1_555 1_555
C4 C3 1_555 1_555
H3 C4 1_555 1_555
C5 C4 1_555 1_555
H4 C5 1_555 1_555
C6 C1 1_555 1_555
H5 C6 1_555 1_555
C7 C8 1_555 1_555
C8 H6 1_555 1_555
C9 C8 1_555 1_555
H7 C9 1_555 1_555
C10 C9 1_555 1_555
C11 C10 1_555 1_555
C12 C7 1_555 1_555
C13 C12 1_555 1_555
H8 C13 1_555 1_555
C14 C13 1_555 1_555
H9 C14 1_555 1_555
C15 C14 1_555 1_555
H10 C15 1_555 1_555
C16 C11 1_555 1_555
H11 C16 1_555 1_555
C17 C18 1_555 1_555
C18 C19 1_555 1_555
C19 H12 1_555 1_555
C20 C19 1_555 1_555
H13 C20 1_555 1_555
C21 C20 1_555 1_555
H14 C21 1_555 1_555
C22 C21 1_555 1_555
H15 C22 1_555 1_555
N1 C10 1_555 1_555
H16 N1 1_555 1_555
N2 C18 1_555 1_555
O1 S1 1_555 1_555
O2 S1 1_555 1_555
O3 C17 1_555 1_555
S1 C1 1_555 1_555
C5 C6 1_555 1_555
C7 S1 1_555 1_555
C11 C12 1_555 1_555
C15 C16 1_555 1_555
C17 N1 1_555 1_555
C22 N2 1_555 1_555

#END
