
#######################################################################
#
#                 Cambridge Crystallographic Data Centre
#                                CCDC 
#
#######################################################################
#
# If this CIF has been generated from an entry in the Cambridge 
# Structural Database, then it will include bibliographic, chemical, 
# crystal, experimental, refinement or atomic coordinate data resulting 
# from the CCDC's data processing and validation procedures.
#
#######################################################################

data_NEQDUL
_chemical_formula_moiety         'C32 H33 Br1 N2 O8 S1'
_chemical_name_systematic        
'1,1-diethyl 3-methyl 2-(4-bromophenyl)-1-{[(2-{[(4-methylphenyl)sulfonyl]amino}phenyl)methylidene]amino}but-3-ene-1,1,3-tricarboxylate unknown solvate'
_symmetry_cell_setting           monoclinic
_symmetry_space_group_name_H-M   'C 2'
_symmetry_Int_Tables_number      5
_space_group_name_Hall           'C 2y'
loop_
_symmetry_equiv_pos_site_id
_symmetry_equiv_pos_as_xyz
1 x,y,z
2 -x,y,-z
3 1/2+x,1/2+y,z
4 1/2-x,1/2+y,-z
_cell_length_a                   18.2219(7)
_cell_length_b                   8.5559(3)
_cell_length_c                   21.5811(8)
_cell_angle_alpha                90
_cell_angle_beta                 90.875(2)
_cell_angle_gamma                90
_cell_volume                     3364.2
_exptl_crystal_colour            colorless
_exptl_crystal_description       bar
_cell_formula_units_Z            4
loop_
_atom_site_label
_atom_site_type_symbol
_atom_site_fract_x
_atom_site_fract_y
_atom_site_fract_z
Br1 Br 0.37178(3) 0.37254(14) 0.07281(3)
S1 S 0.57388(5) 0.98161(8) 0.36603(4)
O1 O 0.75072(15) 0.3656(3) 0.27465(13)
C1 C 0.7701(2) 0.6667(4) 0.24312(17)
N1 N 0.64290(14) 0.6133(3) 0.26553(12)
C2 C 0.6007(2) 0.5669(4) 0.13541(15)
C3 C 0.67534(18) 0.6303(4) 0.15376(15)
H1 H 0.7104 0.5828 0.1254
O2 O 0.50507(15) 1.0302(3) 0.39000(14)
C4 C 0.72373(19) 0.4056(4) 0.21987(18)
C5 C 0.5091(2) 0.4016(4) 0.3544(2)
H2 H 0.5175 0.3049 0.3361
O3 O 0.60832(16) 1.0739(3) 0.31955(12)
O4 O 0.82557(14) 0.6264(3) 0.20824(12)
C6 C 0.70002(17) 0.5797(3) 0.22070(15)
C7 C 0.54596(18) 0.5329(3) 0.33248(15)
C8 C 0.6354(2) 0.9595(3) 0.42809(16)
C9 C 0.60133(17) 0.5071(3) 0.28559(15)
H3 H 0.6064 0.4069 0.2695
N2 N 0.56478(17) 0.8103(3) 0.33444(13)
H4 H 0.5830 0.7989 0.2982
O5 O 0.77362(16) 0.7520(4) 0.28610(14)
C10 C 0.6806(2) 0.8583(6) 0.0754(2)
C11 C 0.53031(18) 0.6787(4) 0.35993(15)
C12 C 0.6777(2) 0.8049(4) 0.14175(17)
C13 C 0.4655(3) 0.4529(8) 0.0979(2)
C14 C 0.7057(2) 0.9056(5) 0.41686(19)
H5 H 0.7188 0.8759 0.3771
C15 C 0.5365(2) 0.6426(5) 0.1515(2)
H6 H 0.5388 0.7335 0.1751
O6 O 0.7026(2) 0.7466(4) 0.03855(14)
C16 C 0.7556(2) 0.8964(6) 0.4647(2)
H7 H 0.8022 0.8581 0.4567
C17 C 0.4826(3) 0.6880(4) 0.4088(2)
H8 H 0.4735 0.7832 0.4280
C18 C 0.6692(3) 0.9933(7) 0.53501(19)
H9 H 0.6564 1.0221 0.5750
O7 O 0.6678(3) 0.9868(5) 0.05916(18)
C19 C 0.7772(4) 0.2043(8) 0.2824(5)
H10 H 0.7603 0.1641 0.3217
H11 H 0.7559 0.1399 0.2498
C20 C 0.5260(3) 0.3768(7) 0.0818(2)
H12 H 0.5222 0.2859 0.0583
C21 C 0.4604(3) 0.4123(5) 0.4024(3)
H13 H 0.4360 0.3240 0.4166
C22 C 0.4689(2) 0.5843(8) 0.1328(2)
H14 H 0.4260 0.6350 0.1441
C23 C 0.5945(2) 0.4318(5) 0.09994(17)
H15 H 0.6365 0.3782 0.0883
C24 C 0.7394(3) 0.9416(5) 0.5243(2)
O8 O 0.7213(2) 0.3217(4) 0.17616(16)
C25 C 0.6175(2) 1.0035(5) 0.48817(17)
H16 H 0.5706 1.0397 0.4965
C26 C 0.8974(2) 0.6827(6) 0.2271(2)
H17 H 0.9026 0.6791 0.2719
H18 H 0.9039 0.7900 0.2137
C27 C 0.6731(3) 0.9170(5) 0.1825(2)
C28 C 0.9537(3) 0.5793(10) 0.1978(3)
H19 H 1.0020 0.6145 0.2095
H20 H 0.9480 0.5837 0.1535
H21 H 0.9470 0.4736 0.2116
C29 C 0.7962(4) 0.9394(10) 0.5744(2)
H22 H 0.7746 0.9702 0.6128
H23 H 0.8349 1.0108 0.5644
H24 H 0.8160 0.8358 0.5785
C30 C 0.4486(3) 0.5535(5) 0.4287(2)
H25 H 0.4163 0.5600 0.4615
C31 C 0.7078(4) 0.7933(10) -0.0272(2)
H26 H 0.7238 0.7056 -0.0513
H27 H 0.7425 0.8771 -0.0309
H28 H 0.6606 0.8273 -0.0422
C32 C 0.8510(4) 0.1916(8) 0.2808(5)
H29 H 0.8649 0.0846 0.2875
H30 H 0.8726 0.2557 0.3127
H31 H 0.8680 0.2254 0.2411
H32 H 0.678(3) 0.895(6) 0.2246(7)
H33 H 0.6613(18) 1.0207(17) 0.1751(14)
loop_
_geom_bond_atom_site_label_1
_geom_bond_atom_site_label_2
_geom_bond_site_symmetry_1
_geom_bond_site_symmetry_2
Br1 C13 1_555 1_555
S1 O2 1_555 1_555
O1 C4 1_555 1_555
C1 O4 1_555 1_555
N1 C6 1_555 1_555
C2 C3 1_555 1_555
C3 H1 1_555 1_555
C4 C6 1_555 1_555
C5 H2 1_555 1_555
O3 S1 1_555 1_555
O4 C26 1_555 1_555
C6 C1 1_555 1_555
C7 C5 1_555 1_555
C8 S1 1_555 1_555
C9 N1 1_555 1_555
H3 C9 1_555 1_555
N2 S1 1_555 1_555
H4 N2 1_555 1_555
O5 C1 1_555 1_555
C10 C12 1_555 1_555
C11 C7 1_555 1_555
C12 C3 1_555 1_555
C13 C20 1_555 1_555
C14 C8 1_555 1_555
H5 C14 1_555 1_555
C15 C2 1_555 1_555
H6 C15 1_555 1_555
O6 C10 1_555 1_555
C16 C14 1_555 1_555
H7 C16 1_555 1_555
C17 C11 1_555 1_555
H8 C17 1_555 1_555
C18 H9 1_555 1_555
O7 C10 1_555 1_555
C19 O1 1_555 1_555
H10 C19 1_555 1_555
H11 C19 1_555 1_555
C20 H12 1_555 1_555
C21 C5 1_555 1_555
H13 C21 1_555 1_555
C22 C13 1_555 1_555
H14 C22 1_555 1_555
C23 C2 1_555 1_555
H15 C23 1_555 1_555
C24 C16 1_555 1_555
O8 C4 1_555 1_555
C25 C8 1_555 1_555
H16 C25 1_555 1_555
C26 H17 1_555 1_555
H18 C26 1_555 1_555
C27 C12 1_555 1_555
C28 C26 1_555 1_555
H19 C28 1_555 1_555
H20 C28 1_555 1_555
H21 C28 1_555 1_555
C29 C24 1_555 1_555
H22 C29 1_555 1_555
H23 C29 1_555 1_555
H24 C29 1_555 1_555
C30 C17 1_555 1_555
H25 C30 1_555 1_555
C31 O6 1_555 1_555
H26 C31 1_555 1_555
H27 C31 1_555 1_555
H28 C31 1_555 1_555
C32 C19 1_555 1_555
H29 C32 1_555 1_555
H30 C32 1_555 1_555
H31 C32 1_555 1_555
H32 C27 1_555 1_555
H33 C27 1_555 1_555
C3 C6 1_555 1_555
C7 C9 1_555 1_555
N2 C11 1_555 1_555
C15 C22 1_555 1_555
C18 C24 1_555 1_555
C18 C25 1_555 1_555
C20 C23 1_555 1_555
C21 C30 1_555 1_555

#END
