
#######################################################################
#
#                 Cambridge Crystallographic Data Centre
#                                CCDC 
#
#######################################################################
#
# If this CIF has been generated from an entry in the Cambridge 
# Structural Database, then it will include bibliographic, chemical, 
# crystal, experimental, refinement or atomic coordinate data resulting 
# from the CCDC's data processing and validation procedures.
#
#######################################################################

data_NEQKOL
_chemical_formula_moiety         'C21 H21 Cl2 N2 O2 1+,N1 O3 1-'
_chemical_name_systematic        
'1-((Z)-1-(2,4-Dichlorophenyl)-1-[2-(4-methylphenoxy)ethoxy]prop-1-en-2-yl)-1H-imidazol-3-ium nitrate'
_symmetry_cell_setting           triclinic
_symmetry_space_group_name_H-M   'P -1'
_symmetry_Int_Tables_number      2
_space_group_name_Hall           '-P 1'
loop_
_symmetry_equiv_pos_site_id
_symmetry_equiv_pos_as_xyz
1 x,y,z
2 -x,-y,-z
_cell_length_a                   9.5300(19)
_cell_length_b                   9.924(2)
_cell_length_c                   12.449(3)
_cell_angle_alpha                69.05(3)
_cell_angle_beta                 80.59(3)
_cell_angle_gamma                88.75(3)
_cell_volume                     1083.89
_exptl_crystal_colour            colorless
_exptl_crystal_description       plate
_cell_formula_units_Z            2
loop_
_atom_site_label
_atom_site_type_symbol
_atom_site_fract_x
_atom_site_fract_y
_atom_site_fract_z
Cl1 Cl 0.27013(8) 0.96396(8) 0.60041(6)
N1 N 0.1889(2) 1.1363(2) 0.18787(18)
O1 O -0.0643(2) 0.8053(2) 0.31896(19)
C1 C -0.1250(3) 0.5853(3) 0.2860(3)
H1 H -0.0639 0.5293 0.3338
Cl2 Cl 0.67621(8) 0.57854(8) 0.62094(7)
O2 O 0.11483(19) 0.95339(19) 0.40364(16)
N2 N 0.0151(3) 1.1943(3) 0.0941(2)
H2 H -0.0525 1.1890 0.0576
C2 C -0.2091(4) 0.5242(4) 0.2333(3)
H3 H -0.2039 0.4258 0.2471
C3 C -0.3003(3) 0.6038(4) 0.1610(3)
C4 C -0.3025(3) 0.7508(4) 0.1395(3)
H4 H -0.3605 0.8075 0.0889
C5 C -0.2213(3) 0.8148(3) 0.1909(2)
H5 H -0.2250 0.9136 0.1752
C6 C -0.1338(3) 0.7322(3) 0.2662(2)
C7 C -0.3924(4) 0.5339(5) 0.1058(3)
H6 H -0.3769 0.4322 0.1308
H7 H -0.3679 0.5761 0.0224
H8 H -0.4907 0.5490 0.1291
C8 C 0.0226(3) 0.7263(3) 0.4017(3)
H9 H 0.1129 0.7076 0.3618
H10 H -0.0244 0.6345 0.4519
C9 C 0.0465(3) 0.8152(3) 0.4726(2)
H11 H -0.0444 0.8294 0.5142
H12 H 0.1047 0.7625 0.5300
C10 C 0.2547(3) 0.9564(3) 0.3550(2)
C11 C 0.2977(3) 1.0517(3) 0.2472(2)
C12 C 0.4455(3) 1.0837(3) 0.1785(3)
H13 H 0.5109 1.0240 0.2241
H14 H 0.4715 1.1835 0.1593
H15 H 0.4487 1.0641 0.1080
C13 C 0.1000(3) 1.0907(3) 0.1358(3)
H16 H 0.0983 0.9999 0.1300
C14 C 0.0496(4) 1.3107(4) 0.1171(3)
H17 H 0.0060 1.3989 0.0956
C15 C 0.1586(4) 1.2761(3) 0.1766(3)
H18 H 0.2046 1.3352 0.2047
C16 C 0.3537(3) 0.8592(3) 0.4249(2)
C17 C 0.3715(3) 0.8572(3) 0.5351(2)
C18 C 0.4695(3) 0.7714(3) 0.5946(2)
H19 H 0.4807 0.7714 0.6675
C19 C 0.5516(3) 0.6850(3) 0.5453(2)
C20 C 0.5350(3) 0.6810(3) 0.4384(2)
H20 H 0.5890 0.6210 0.4066
C21 C 0.4362(3) 0.7683(3) 0.3798(2)
H21 H 0.4244 0.7662 0.3077
O3 O 0.2956(5) 1.7477(5) 0.1574(4)
O4 O 0.1936(4) 1.6269(3) 0.0810(4)
O5 O 0.1832(4) 1.8521(3) 0.0225(3)
N3 N 0.2273(3) 1.7407(3) 0.0876(3)
loop_
_geom_bond_atom_site_label_1
_geom_bond_atom_site_label_2
_geom_bond_site_symmetry_1
_geom_bond_site_symmetry_2
Cl1 C17 1_555 1_555
N1 C11 1_555 1_555
O1 C6 1_555 1_555
C1 H1 1_555 1_555
Cl2 C19 1_555 1_555
O2 C9 1_555 1_555
N2 H2 1_555 1_555
C2 C1 1_555 1_555
H3 C2 1_555 1_555
C3 C2 1_555 1_555
C4 C3 1_555 1_555
H4 C4 1_555 1_555
C5 C4 1_555 1_555
H5 C5 1_555 1_555
C6 C1 1_555 1_555
C7 C3 1_555 1_555
H6 C7 1_555 1_555
H7 C7 1_555 1_555
H8 C7 1_555 1_555
C8 O1 1_555 1_555
H9 C8 1_555 1_555
H10 C8 1_555 1_555
C9 C8 1_555 1_555
H11 C9 1_555 1_555
H12 C9 1_555 1_555
C10 O2 1_555 1_555
C11 C10 1_555 1_555
C12 C11 1_555 1_555
H13 C12 1_555 1_555
H14 C12 1_555 1_555
H15 C12 1_555 1_555
C13 N1 1_555 1_555
H16 C13 1_555 1_555
C14 N2 1_555 1_555
H17 C14 1_555 1_555
C15 N1 1_555 1_555
H18 C15 1_555 1_555
C16 C10 1_555 1_555
C17 C16 1_555 1_555
C18 C17 1_555 1_555
H19 C18 1_555 1_555
C19 C18 1_555 1_555
C20 C19 1_555 1_555
H20 C20 1_555 1_555
C21 C16 1_555 1_555
H21 C21 1_555 1_555
O3 N3 1_555 1_555
O4 N3 1_555 1_555
O5 N3 1_555 1_555
N2 C13 1_555 1_555
C5 C6 1_555 1_555
C14 C15 1_555 1_555
C20 C21 1_555 1_555

#END
