
#######################################################################
#
#                 Cambridge Crystallographic Data Centre
#                                CCDC 
#
#######################################################################
#
# If this CIF has been generated from an entry in the Cambridge 
# Structural Database, then it will include bibliographic, chemical, 
# crystal, experimental, refinement or atomic coordinate data resulting 
# from the CCDC's data processing and validation procedures.
#
#######################################################################

data_NEQKUQ
_chemical_formula_moiety         'C21 H18 N4 O8 S1'
_chemical_name_systematic        
(E)-1-(2,4-Dinitrophenyl)-2-(4-methoxy-3-(4-methylbenzenesulfonyloxy)benzylidene)hydrazine
_symmetry_cell_setting           triclinic
_symmetry_space_group_name_H-M   'P -1'
_symmetry_Int_Tables_number      2
_space_group_name_Hall           '-P 1'
loop_
_symmetry_equiv_pos_site_id
_symmetry_equiv_pos_as_xyz
1 x,y,z
2 -x,-y,-z
_cell_length_a                   7.365(2)
_cell_length_b                   12.978(4)
_cell_length_c                   13.547(4)
_cell_angle_alpha                62.937(4)
_cell_angle_beta                 88.904(5)
_cell_angle_gamma                74.845(5)
_cell_volume                     1105.45
_exptl_crystal_colour            red
_exptl_crystal_description       block
_cell_formula_units_Z            2
_exptl_crystal_recrystallization_method dimethylformamide
loop_
_atom_site_label
_atom_site_type_symbol
_atom_site_fract_x
_atom_site_fract_y
_atom_site_fract_z
S1 S 0.32196(10) 0.69704(7) 0.23299(6)
O1 O 0.3420(2) 0.70261(15) 0.11219(15)
O2 O 0.3439(3) 0.80576(17) 0.22652(17)
O3 O 0.1504(3) 0.66588(18) 0.26001(18)
O4 O 0.2445(3) 0.93559(17) -0.04086(16)
O5 O 1.5851(3) 0.40835(19) 0.10937(19)
O6 O 1.7530(3) 0.2221(2) 0.19030(19)
O7 O 1.5159(4) -0.0951(2) 0.4343(2)
O8 O 1.2291(4) -0.0581(2) 0.4756(2)
N1 N 1.0329(3) 0.5365(2) 0.10224(19)
N2 N 1.2165(3) 0.46602(19) 0.12128(19)
H1 H 1.3038 0.4965 0.0870
N3 N 1.6019(3) 0.3005(2) 0.1711(2)
N4 N 1.3595(5) -0.0262(3) 0.4229(2)
C1 C 0.5141(4) 0.5761(2) 0.3192(2)
C2 C 0.6868(4) 0.5954(3) 0.3317(2)
H2 H 0.6998 0.6731 0.2967
C3 C 0.8384(4) 0.4991(3) 0.3958(2)
H3 H 0.9545 0.5126 0.4024
C4 C 0.8233(5) 0.3831(3) 0.4508(3)
C5 C 0.6504(5) 0.3657(3) 0.4374(3)
H4 H 0.6373 0.2880 0.4738
C6 C 0.4962(4) 0.4604(3) 0.3716(3)
H5 H 0.3816 0.4463 0.3625
C7 C 0.9907(5) 0.2780(3) 0.5247(3)
H6 H 0.9938 0.2701 0.5987
H7 H 1.1060 0.2925 0.4948
H8 H 0.9781 0.2051 0.5273
C8 C 0.4823(4) 0.7526(2) 0.0511(2)
C9 C 0.4301(4) 0.8749(2) -0.0283(2)
C10 C 0.5699(4) 0.9215(2) -0.0867(2)
H9 H 0.5400 1.0024 -0.1395
C11 C 0.7553(4) 0.8483(2) -0.0671(2)
H10 H 0.8485 0.8816 -0.1053
C12 C 0.8029(4) 0.7259(2) 0.0091(2)
C13 C 0.6615(4) 0.6792(2) 0.0672(2)
H11 H 0.6893 0.5974 0.1173
C14 C 0.1784(5) 1.0540(3) -0.1338(3)
H12 H 0.2427 1.1062 -0.1266
H13 H 0.0446 1.0853 -0.1353
H14 H 0.2038 1.0498 -0.2019
C15 C 0.9963(4) 0.6476(3) 0.0297(2)
H15 H 1.0911 0.6781 -0.0094
C16 C 1.2568(4) 0.3473(2) 0.1953(2)
C17 C 1.4398(4) 0.2647(2) 0.2218(2)
C18 C 1.4713(4) 0.1431(2) 0.2956(2)
H16 H 1.5921 0.0900 0.3114
C19 C 1.3243(4) 0.1021(2) 0.3447(2)
C20 C 1.1423(4) 0.1804(3) 0.3228(2)
H17 H 1.0436 0.1515 0.3581
C21 C 1.1106(4) 0.2990(3) 0.2495(2)
H18 H 0.9884 0.3502 0.2344
loop_
_geom_bond_atom_site_label_1
_geom_bond_atom_site_label_2
_geom_bond_site_symmetry_1
_geom_bond_site_symmetry_2
S1 O1 1_555 1_555
O1 C8 1_555 1_555
O2 S1 1_555 1_555
O3 S1 1_555 1_555
O4 C9 1_555 1_555
O5 N3 1_555 1_555
O6 N3 1_555 1_555
O7 N4 1_555 1_555
O8 N4 1_555 1_555
N1 N2 1_555 1_555
N2 H1 1_555 1_555
N3 C17 1_555 1_555
N4 C19 1_555 1_555
C1 S1 1_555 1_555
C2 C1 1_555 1_555
H2 C2 1_555 1_555
C3 C2 1_555 1_555
H3 C3 1_555 1_555
C4 C3 1_555 1_555
C5 C4 1_555 1_555
H4 C5 1_555 1_555
C6 C1 1_555 1_555
H5 C6 1_555 1_555
C7 C4 1_555 1_555
H6 C7 1_555 1_555
H7 C7 1_555 1_555
H8 C7 1_555 1_555
C8 C9 1_555 1_555
C9 C10 1_555 1_555
C10 H9 1_555 1_555
C11 C10 1_555 1_555
H10 C11 1_555 1_555
C12 C11 1_555 1_555
C13 C8 1_555 1_555
H11 C13 1_555 1_555
C14 O4 1_555 1_555
H12 C14 1_555 1_555
H13 C14 1_555 1_555
H14 C14 1_555 1_555
C15 N1 1_555 1_555
H15 C15 1_555 1_555
C16 N2 1_555 1_555
C17 C16 1_555 1_555
C18 C17 1_555 1_555
H16 C18 1_555 1_555
C19 C18 1_555 1_555
C20 C19 1_555 1_555
H17 C20 1_555 1_555
C21 C16 1_555 1_555
H18 C21 1_555 1_555
C5 C6 1_555 1_555
C12 C13 1_555 1_555
C12 C15 1_555 1_555
C20 C21 1_555 1_555

#END
