
#######################################################################
#
#                 Cambridge Crystallographic Data Centre
#                                CCDC 
#
#######################################################################
#
# If this CIF has been generated from an entry in the Cambridge 
# Structural Database, then it will include bibliographic, chemical, 
# crystal, experimental, refinement or atomic coordinate data resulting 
# from the CCDC's data processing and validation procedures.
#
#######################################################################

data_NEQLAX
_chemical_formula_moiety         'C20 H15 Cl1 N4 O5,C3 H7 N1 O1'
_chemical_name_systematic        
'(Z)-1-(2-(2-Chlorobenzyloxy)benzylidene)-2-(2,4-dinitrophenyl)hydrazine N,N-dimethylformamide solvate'
_symmetry_cell_setting           monoclinic
_symmetry_space_group_name_H-M   'P 21/c'
_symmetry_Int_Tables_number      14
_space_group_name_Hall           '-P 2ybc'
loop_
_symmetry_equiv_pos_site_id
_symmetry_equiv_pos_as_xyz
1 x,y,z
2 -x,1/2+y,1/2-z
3 -x,-y,-z
4 x,1/2-y,1/2+z
_cell_length_a                   7.844(4)
_cell_length_b                   12.887(7)
_cell_length_c                   23.631(13)
_cell_angle_alpha                90
_cell_angle_beta                 92.455(9)
_cell_angle_gamma                90
_cell_volume                     2386.56
_exptl_crystal_colour            red
_exptl_crystal_description       block
_cell_formula_units_Z            4
loop_
_atom_site_label
_atom_site_type_symbol
_atom_site_fract_x
_atom_site_fract_y
_atom_site_fract_z
Cl1 Cl 1.20196(13) -0.35560(7) 0.33661(4)
O1 O 0.8961(2) -0.13171(12) 0.43096(7)
O2 O 0.5698(4) 0.29631(18) 0.36599(9)
O3 O 0.3960(4) 0.4237(2) 0.35873(10)
O4 O 0.1497(3) 0.57353(18) 0.51536(13)
O5 O 0.1587(4) 0.4964(2) 0.59628(14)
N1 N 0.6492(3) 0.10849(14) 0.49716(8)
N2 N 0.5927(3) 0.18467(14) 0.46000(8)
H1 H 0.6141 0.1810 0.4247
N3 N 0.4679(4) 0.3548(2) 0.38628(11)
N4 N 0.1968(4) 0.5035(2) 0.54691(16)
C1 C 1.0750(4) -0.2573(2) 0.30729(12)
C2 C 1.0641(4) -0.2467(3) 0.24946(13)
H2 H 1.1212 -0.2926 0.2265
C3 C 0.9678(5) -0.1675(3) 0.22587(13)
H3 H 0.9596 -0.1595 0.1867
C4 C 0.8841(5) -0.1005(3) 0.25992(13)
H4 H 0.8191 -0.0469 0.2439
C5 C 0.8957(4) -0.1122(2) 0.31790(12)
H5 H 0.8382 -0.0662 0.3406
C6 C 0.9912(3) -0.19110(19) 0.34279(10)
C7 C 1.0047(3) -0.20535(19) 0.40580(10)
H6 H 0.9705 -0.2752 0.4156
H7 H 1.1218 -0.1950 0.4196
C8 C 0.8877(3) -0.13228(17) 0.48866(9)
C9 C 0.9643(3) -0.20735(18) 0.52326(11)
H8 H 1.0260 -0.2609 0.5075
C10 C 0.9486(4) -0.2023(2) 0.58066(11)
H9 H 1.0011 -0.2522 0.6039
C11 C 0.8561(4) -0.1240(2) 0.60441(11)
H10 H 0.8451 -0.1215 0.6434
C12 C 0.7799(4) -0.04956(19) 0.57014(11)
H11 H 0.7166 0.0028 0.5863
C13 C 0.7957(3) -0.05100(16) 0.51166(9)
C14 C 0.7243(3) 0.03121(17) 0.47552(10)
H12 H 0.7336 0.0273 0.4365
C15 C 0.5036(3) 0.26469(17) 0.47992(10)
C16 C 0.4349(3) 0.34684(18) 0.44572(11)
C17 C 0.3341(4) 0.42325(19) 0.46797(14)
H13 H 0.2869 0.4748 0.4446
C18 C 0.3043(4) 0.42275(19) 0.52395(14)
C19 C 0.3738(3) 0.3470(2) 0.55966(12)
H14 H 0.3545 0.3486 0.5982
C20 C 0.4703(3) 0.27038(19) 0.53792(11)
H15 H 0.5161 0.2199 0.5622
O6 O 0.3821(4) 0.57745(18) 0.15607(10)
N5 N 0.5728(4) 0.5350(3) 0.22622(11)
C21 C 0.4732(5) 0.5972(3) 0.19700(15)
H16 H 0.4718 0.6657 0.2092
C22 C 0.5816(6) 0.4283(3) 0.20945(19)
H17 H 0.5138 0.4182 0.1751
H18 H 0.5388 0.3852 0.2388
H19 H 0.6980 0.4102 0.2032
C23 C 0.6779(6) 0.5677(4) 0.27434(17)
H20 H 0.6606 0.6404 0.2809
H21 H 0.7957 0.5554 0.2671
H22 H 0.6476 0.5291 0.3072
loop_
_geom_bond_atom_site_label_1
_geom_bond_atom_site_label_2
_geom_bond_site_symmetry_1
_geom_bond_site_symmetry_2
Cl1 C1 1_555 1_555
O1 C7 1_555 1_555
O2 N3 1_555 1_555
O3 N3 1_555 1_555
O4 N4 1_555 1_555
O5 N4 1_555 1_555
N1 N2 1_555 1_555
N2 H1 1_555 1_555
N3 C16 1_555 1_555
N4 C18 1_555 1_555
C1 C2 1_555 1_555
C2 H2 1_555 1_555
C3 C2 1_555 1_555
H3 C3 1_555 1_555
C4 C3 1_555 1_555
H4 C4 1_555 1_555
C5 C4 1_555 1_555
H5 C5 1_555 1_555
C6 C1 1_555 1_555
C7 C6 1_555 1_555
H6 C7 1_555 1_555
H7 C7 1_555 1_555
C8 O1 1_555 1_555
C9 C8 1_555 1_555
H8 C9 1_555 1_555
C10 C9 1_555 1_555
H9 C10 1_555 1_555
C11 C10 1_555 1_555
H10 C11 1_555 1_555
C12 C11 1_555 1_555
H11 C12 1_555 1_555
C13 C8 1_555 1_555
C14 N1 1_555 1_555
H12 C14 1_555 1_555
C15 N2 1_555 1_555
C16 C15 1_555 1_555
C17 C16 1_555 1_555
H13 C17 1_555 1_555
C18 C17 1_555 1_555
C19 C18 1_555 1_555
H14 C19 1_555 1_555
C20 C15 1_555 1_555
H15 C20 1_555 1_555
O6 C21 1_555 1_555
N5 C21 1_555 1_555
C21 H16 1_555 1_555
C22 N5 1_555 1_555
H17 C22 1_555 1_555
H18 C22 1_555 1_555
H19 C22 1_555 1_555
C23 N5 1_555 1_555
H20 C23 1_555 1_555
H21 C23 1_555 1_555
H22 C23 1_555 1_555
C5 C6 1_555 1_555
C12 C13 1_555 1_555
C13 C14 1_555 1_555
C19 C20 1_555 1_555

#END
