
#######################################################################
#
#                 Cambridge Crystallographic Data Centre
#                                CCDC 
#
#######################################################################
#
# If this CIF has been generated from an entry in the Cambridge 
# Structural Database, then it will include bibliographic, chemical, 
# crystal, experimental, refinement or atomic coordinate data resulting 
# from the CCDC's data processing and validation procedures.
#
#######################################################################

data_NEQNOM
_chemical_formula_moiety         'C22 H16 N2 O3'
_chemical_name_systematic        
6-methoxy-2-[(E)-2-(1-naphthyl)-1-ethenyl]-8-nitroquinoline
_symmetry_cell_setting           monoclinic
_symmetry_space_group_name_H-M   'P 21/c'
_symmetry_Int_Tables_number      14
_space_group_name_Hall           '-P 2ybc'
loop_
_symmetry_equiv_pos_site_id
_symmetry_equiv_pos_as_xyz
1 x,y,z
2 -x,1/2+y,1/2-z
3 -x,-y,-z
4 x,1/2-y,1/2+z
_cell_length_a                   15.012(3)
_cell_length_b                   15.012(3)
_cell_length_c                   9.141(3)
_cell_angle_alpha                90
_cell_angle_beta                 90
_cell_angle_gamma                90
_cell_volume                     2060.02
_exptl_crystal_colour            yellow
_exptl_crystal_description       block
_chemical_melting_point          173.5-175deg.C
_cell_formula_units_Z            4
loop_
_atom_site_label
_atom_site_type_symbol
_atom_site_fract_x
_atom_site_fract_y
_atom_site_fract_z
O1 O -0.67842(8) -0.1771(1) 0.0851(1)
O2 O -0.3932(1) 0.0637(1) 0.3883(2)
O3 O -0.4036(1) -0.0759(1) 0.5032(2)
N1 N -0.31655(8) -0.0578(1) 0.1676(1)
N2 N -0.4147(1) -0.0253(2) 0.3899(2)
C1 C -0.2704(1) -0.0715(1) 0.0600(2)
C2 C -0.3116(1) -0.1147(1) -0.0802(2)
C3 C -0.3999(1) -0.1454(1) -0.1095(2)
C4 C -0.5432(1) -0.1646(1) -0.0189(2)
C5 C -0.5894(1) -0.1510(1) 0.0926(2)
C6 C -0.7265(1) -0.2235(2) -0.0503(2)
C7 C -0.5458(1) -0.1055(1) 0.2291(2)
C8 C -0.4581(1) -0.0753(1) 0.2478(2)
C9 C -0.4058(1) -0.0874(1) 0.1376(2)
C10 C -0.4513(1) -0.1338(1) 0.0016(2)
C11 C -0.1736(1) -0.0439(1) 0.0919(2)
C12 C -0.1294(1) 0.0014(1) 0.2170(2)
C13 C -0.0300(1) 0.0177(1) 0.2602(2)
C14 C 0.0285(1) -0.0452(1) 0.2043(2)
C15 C 0.1235(1) -0.0385(1) 0.2529(2)
C16 C 0.1603(1) 0.0315(2) 0.3592(2)
C17 C 0.1417(1) 0.1729(2) 0.5293(2)
C18 C 0.0875(2) 0.2358(2) 0.5881(2)
C19 C -0.0070(1) 0.2312(1) 0.5382(2)
C20 C -0.0462(1) 0.1626(1) 0.4316(2)
C21 C 0.0079(1) 0.0931(1) 0.3689(2)
C22 C 0.1044(1) 0.0993(1) 0.4189(2)
H1 H -0.2769 -0.1223 -0.1549
H2 H -0.4270 -0.1745 -0.2040
H3 H -0.5732 -0.1951 -0.1109
H4 H -0.7873 -0.2382 -0.0425
H5 H -0.7275 -0.1778 -0.1317
H6 H -0.6968 -0.2854 -0.0670
H7 H -0.5778 -0.0961 0.3070
H8 H -0.1400 -0.0594 0.0179
H9 H -0.1649 0.0252 0.2843
H10 H 0.0036 -0.0947 0.1304
H11 H 0.1620 -0.0827 0.2117
H12 H 0.2247 0.0347 0.3937
H13 H 0.2061 0.1780 0.5625
H14 H 0.1138 0.2836 0.6638
H15 H -0.0445 0.2766 0.5795
H16 H -0.1108 0.1612 0.3986
loop_
_geom_bond_atom_site_label_1
_geom_bond_atom_site_label_2
_geom_bond_site_symmetry_1
_geom_bond_site_symmetry_2
O1 C5 1_555 1_555
O2 N2 1_555 1_555
O3 N2 1_555 1_555
N1 C1 1_555 1_555
N2 C8 1_555 1_555
C1 C2 1_555 1_555
C2 C3 1_555 1_555
C3 C10 1_555 1_555
C4 C5 1_555 1_555
C5 C7 1_555 1_555
C6 O1 1_555 1_555
C7 C8 1_555 1_555
C8 C9 1_555 1_555
C9 N1 1_555 1_555
C10 C4 1_555 1_555
C11 C1 1_555 1_555
C12 C11 1_555 1_555
C13 C12 1_555 1_555
C14 C13 1_555 1_555
C15 C14 1_555 1_555
C16 C15 1_555 1_555
C17 C18 1_555 1_555
C18 C19 1_555 1_555
C19 C20 1_555 1_555
C20 C21 1_555 1_555
C21 C13 1_555 1_555
C22 C16 1_555 1_555
H1 C2 1_555 1_555
H2 C3 1_555 1_555
H3 C4 1_555 1_555
H4 C6 1_555 1_555
H5 C6 1_555 1_555
H6 C6 1_555 1_555
H7 C7 1_555 1_555
H8 C11 1_555 1_555
H9 C12 1_555 1_555
H10 C14 1_555 1_555
H11 C15 1_555 1_555
H12 C16 1_555 1_555
H13 C17 1_555 1_555
H14 C18 1_555 1_555
H15 C19 1_555 1_555
H16 C20 1_555 1_555
C9 C10 1_555 1_555
C17 C22 1_555 1_555
C21 C22 1_555 1_555

#END
