
#######################################################################
#
#                 Cambridge Crystallographic Data Centre
#                                CCDC 
#
#######################################################################
#
# If this CIF has been generated from an entry in the Cambridge 
# Structural Database, then it will include bibliographic, chemical, 
# crystal, experimental, refinement or atomic coordinate data resulting 
# from the CCDC's data processing and validation procedures.
#
#######################################################################

data_NEQPOP
_chemical_formula_moiety         'C11 H10 N2 O5'
_chemical_name_systematic        
3-Carboxylatomethyl-3-carboxymethyl-2-oxo-2,3-dihydroimidazo(1,2-a)pyridin-1-ium
_symmetry_cell_setting           monoclinic
_symmetry_space_group_name_H-M   'C 2/c'
_symmetry_Int_Tables_number      15
_space_group_name_Hall           '-C 2yn'
loop_
_symmetry_equiv_pos_site_id
_symmetry_equiv_pos_as_xyz
1 x,y,z
2 1/2+x,1/2+y,z
3 -x,y,1/2-z
4 1/2-x,1/2+y,1/2-z
5 -x,-y,-z
6 1/2-x,1/2-y,-z
7 x,-y,1/2+z
8 1/2+x,1/2-y,1/2+z
_cell_length_a                   13.735(3)
_cell_length_b                   9.862(2)
_cell_length_c                   18.218(4)
_cell_angle_alpha                90
_cell_angle_beta                 110.35(3)
_cell_angle_gamma                90
_cell_volume                     2313.69
_exptl_crystal_colour            colorless
_exptl_crystal_description       block
_cell_formula_units_Z            8
_exptl_crystal_recrystallization_method DMF/water
loop_
_atom_site_label
_atom_site_type_symbol
_atom_site_fract_x
_atom_site_fract_y
_atom_site_fract_z
O1 O 0.33812(11) 1.14104(12) -0.01863(6)
O2 O 0.24877(10) 0.95654(12) -0.01067(6)
O3 O 0.36006(13) 0.97806(13) 0.36872(7)
H1 H 0.337(2) 0.918(3) 0.4121(19)
O4 O 0.27432(12) 0.82402(13) 0.28046(7)
O5 O 0.42479(9) 0.80753(13) 0.14866(9)
N1 N 0.24973(10) 0.75758(12) 0.10898(7)
H2 H 0.2508 0.6735 0.0967
N2 N 0.18664(9) 0.95662(11) 0.12851(7)
C1 C 0.32810(12) 1.08897(14) 0.10465(8)
H3 H 0.2930 1.1722 0.1091
H4 H 0.4022 1.1058 0.1273
C2 C 0.30152(11) 1.05737(14) 0.01788(8)
C3 C 0.34568(12) 1.02036(14) 0.24022(8)
H5 H 0.4205 1.0255 0.2547
H6 H 0.3211 1.1108 0.2454
C4 C 0.32177(12) 0.92958(14) 0.29840(8)
C5 C 0.16245(11) 0.82828(13) 0.10250(8)
C6 C 0.05945(13) 0.78663(16) 0.07473(10)
H7 H 0.0411 0.6996 0.0552
C7 C -0.01440(13) 0.87900(18) 0.07716(13)
H8 H -0.0840 0.8537 0.0590
C8 C 0.01276(14) 1.01011(18) 0.10627(13)
H9 H -0.0380 1.0709 0.1084
C9 C 0.11464(13) 1.04777(15) 0.13154(10)
H10 H 0.1343 1.1348 0.1506
C10 C 0.29988(11) 0.97945(13) 0.15372(7)
C11 C 0.33633(12) 0.83859(14) 0.13792(8)
loop_
_geom_bond_atom_site_label_1
_geom_bond_atom_site_label_2
_geom_bond_site_symmetry_1
_geom_bond_site_symmetry_2
O1 C2 1_555 1_555
O2 C2 1_555 1_555
O3 H1 1_555 1_555
O4 C4 1_555 1_555
O5 C11 1_555 1_555
N1 H2 1_555 1_555
N2 C5 1_555 1_555
C1 H3 1_555 1_555
H4 C1 1_555 1_555
C2 C1 1_555 1_555
C3 H5 1_555 1_555
H6 C3 1_555 1_555
C4 O3 1_555 1_555
C5 N1 1_555 1_555
C6 C5 1_555 1_555
H7 C6 1_555 1_555
C7 C6 1_555 1_555
H8 C7 1_555 1_555
C8 C7 1_555 1_555
H9 C8 1_555 1_555
C9 N2 1_555 1_555
H10 C9 1_555 1_555
C10 N2 1_555 1_555
C11 N1 1_555 1_555
C1 C10 1_555 1_555
C3 C4 1_555 1_555
C3 C10 1_555 1_555
C8 C9 1_555 1_555
C10 C11 1_555 1_555

#END
