
#######################################################################
#
#                 Cambridge Crystallographic Data Centre
#                                CCDC 
#
#######################################################################
#
# If this CIF has been generated from an entry in the Cambridge 
# Structural Database, then it will include bibliographic, chemical, 
# crystal, experimental, refinement or atomic coordinate data resulting 
# from the CCDC's data processing and validation procedures.
#
#######################################################################

data_NEQPAB
_chemical_formula_moiety         'C18 H17 N3 O2 S1'
_chemical_name_systematic        
N-(5-(4-Methoxyphenyl)-1,3,4-thiadiazol-2-yl)-3,5-dimethylbenzamide
_chemical_properties_biological  
'potential pharmaceutical, fungicidal or herbicidal activity'
_symmetry_cell_setting           triclinic
_symmetry_space_group_name_H-M   'P -1'
_symmetry_Int_Tables_number      2
_space_group_name_Hall           '-P 1'
loop_
_symmetry_equiv_pos_site_id
_symmetry_equiv_pos_as_xyz
1 x,y,z
2 -x,-y,-z
_cell_length_a                   7.7105(14)
_cell_length_b                   8.3328(18)
_cell_length_c                   14.454(2)
_cell_angle_alpha                74.44(3)
_cell_angle_beta                 83.07(3)
_cell_angle_gamma                69.18(3)
_cell_volume                     835.886
_exptl_crystal_colour            colorless
_exptl_crystal_description       block
_chemical_melting_point          '520-524 K'
_cell_formula_units_Z            2
_exptl_crystal_recrystallization_method acetone
loop_
_atom_site_label
_atom_site_type_symbol
_atom_site_fract_x
_atom_site_fract_y
_atom_site_fract_z
S1 S 0.27895(9) 0.50241(8) 0.45162(5)
O1 O -0.1231(3) 0.9452(2) 0.79130(14)
O2 O 0.4152(3) 0.4748(2) 0.28050(14)
N1 N 0.2642(3) 0.2783(3) 0.60946(17)
N2 N 0.3535(3) 0.1794(3) 0.54356(17)
N3 N 0.4531(3) 0.2098(3) 0.38198(16)
H1 H 0.4956 0.0968 0.3900
C1 C -0.1213(5) 1.1203(4) 0.7598(3)
H2 H -0.1820 1.1845 0.8075
H3 H -0.1854 1.1770 0.7005
H4 H 0.0047 1.1184 0.75010
C2 C -0.0422(4) 0.8341(3) 0.73251(19)
C3 C -0.0482(4) 0.6638(3) 0.76570(2)
H5 H -0.1088 0.6337 0.8239
C4 C 0.0339(4) 0.5398(3) 0.7139(2)
H6 H 0.0293 0.4260 0.7375
C5 C 0.1245(4) 0.5816(3) 0.62590(18)
C6 C 0.1260(4) 0.7537(3) 0.59260(2)
H7 H 0.1834 0.7850 0.5335
C7 C 0.0446(4) 0.8791(3) 0.64470(2)
H8 H 0.0479 0.9934 0.6211
C8 C 0.2187(3) 0.4472(3) 0.57228(19)
C9 C 0.3696(3) 0.2787(3) 0.45877(19)
C10 C 0.4713(4) 0.3146(3) 0.2931(2)
C11 C 0.5593(3) 0.2270(3) 0.21463(19)
C12 C 0.5564(4) 0.0629(3) 0.21108(19)
H9 H 0.5008 0.0004 0.2614
C13 C 0.6352(4) -0.0085(4) 0.1336(2)
C14 C 0.7207(4) 0.0858(4) 0.0605(2)
H10 H 0.7763 0.0376 0.0087
C15 C 0.7259(4) 0.2499(4) 0.0620(2)
C16 C 0.6433(4) 0.3192(4) 0.1390(2)
H11 H 0.6437 0.4299 0.1407
C17 C 0.8203(5) 0.3509(4) -0.0182(2)
H12 H 0.8098 0.4607 -0.0045
H13 H 0.7620 0.3746 -0.0777
H14 H 0.9491 0.2816 -0.0230
C18 C 0.6253(5) -0.1833(4) 0.1278(3)
H15 H 0.5629 -0.2302 0.1844
H16 H 0.7487 -0.2650 0.1231
H17 H 0.5580 -0.1658 0.0721
loop_
_geom_bond_atom_site_label_1
_geom_bond_atom_site_label_2
_geom_bond_site_symmetry_1
_geom_bond_site_symmetry_2
S1 C8 1_555 1_555
O1 C1 1_555 1_555
O2 C10 1_555 1_555
N1 N2 1_555 1_555
N2 C9 1_555 1_555
N3 H1 1_555 1_555
C1 H2 1_555 1_555
H3 C1 1_555 1_555
H4 C1 1_555 1_555
C2 O1 1_555 1_555
C3 C2 1_555 1_555
H5 C3 1_555 1_555
C4 C3 1_555 1_555
H6 C4 1_555 1_555
C5 C4 1_555 1_555
C6 C5 1_555 1_555
H7 C6 1_555 1_555
C7 C2 1_555 1_555
H8 C7 1_555 1_555
C8 N1 1_555 1_555
C9 S1 1_555 1_555
C10 N3 1_555 1_555
C11 C10 1_555 1_555
C12 C11 1_555 1_555
H9 C12 1_555 1_555
C13 C12 1_555 1_555
C14 C13 1_555 1_555
H10 C14 1_555 1_555
C15 C14 1_555 1_555
C16 C11 1_555 1_555
H11 C16 1_555 1_555
C17 C15 1_555 1_555
H12 C17 1_555 1_555
H13 C17 1_555 1_555
H14 C17 1_555 1_555
C18 C13 1_555 1_555
H15 C18 1_555 1_555
H16 C18 1_555 1_555
H17 C18 1_555 1_555
N3 C9 1_555 1_555
C5 C8 1_555 1_555
C6 C7 1_555 1_555
C15 C16 1_555 1_555

#END
