
#######################################################################
#
#                 Cambridge Crystallographic Data Centre
#                                CCDC 
#
#######################################################################
#
# If this CIF has been generated from an entry in the Cambridge 
# Structural Database, then it will include bibliographic, chemical, 
# crystal, experimental, refinement or atomic coordinate data resulting 
# from the CCDC's data processing and validation procedures.
#
#######################################################################

data_NEQPOR
_chemical_formula_moiety         'C35 H29 Cl2 F1 N2'
_chemical_name_systematic        
3,3'-[1-([1,1'-biphenyl]-4-yl)-2-fluoroprop-1-ene-1,3-diyl]bis(5-chloro-1,2-dimethyl-1H-indole)
_symmetry_cell_setting           monoclinic
_symmetry_space_group_name_H-M   'C 2/c'
_symmetry_Int_Tables_number      15
_space_group_name_Hall           '-C 2yn'
loop_
_symmetry_equiv_pos_site_id
_symmetry_equiv_pos_as_xyz
1 x,y,z
2 -x,y,1/2-z
3 1/2+x,1/2+y,z
4 1/2-x,1/2+y,1/2-z
5 -x,-y,-z
6 x,-y,1/2+z
7 1/2-x,1/2-y,-z
8 1/2+x,1/2-y,1/2+z
_cell_length_a                   32.3536(11)
_cell_length_b                   13.4892(4)
_cell_length_c                   19.0932(6)
_cell_angle_alpha                90
_cell_angle_beta                 124.5740(10)
_cell_angle_gamma                90
_cell_volume                     6861.12
_exptl_crystal_colour            colorless
_exptl_crystal_description       BLOCK
_cell_formula_units_Z            8
loop_
_atom_site_label
_atom_site_type_symbol
_atom_site_fract_x
_atom_site_fract_y
_atom_site_fract_z
C1 C 0.66609(8) -0.05140(15) 0.63971(12)
C2 C 0.61757(8) -0.06995(17) 0.61675(15)
H1 H 0.6068 -0.1365 0.6130
C3 C 0.58468(8) 0.00716(18) 0.59930(16)
H2 H 0.5517 -0.0079 0.5832
C4 C 0.59863(8) 0.10601(16) 0.60466(12)
C5 C 0.64772(8) 0.12383(16) 0.62894(14)
H3 H 0.6589 0.1903 0.6343
C6 C 0.68024(8) 0.04721(16) 0.64522(14)
H4 H 0.7131 0.0621 0.6606
C7 C 0.56337(8) 0.18906(17) 0.58585(13)
C8 C 0.51729(10) 0.1729(2) 0.5737(2)
H5 H 0.5081 0.1078 0.5788
C9 C 0.48448(11) 0.2515(2) 0.5541(2)
H6 H 0.4528 0.2387 0.5445
C10 C 0.49681(11) 0.3461(2) 0.5484(2)
H7 H 0.4740 0.3990 0.5346
C11 C 0.54295(12) 0.3639(2) 0.5630(2)
H8 H 0.5526 0.4298 0.5612
C12 C 0.57528(10) 0.2862(2) 0.58023(19)
H9 H 0.6066 0.2997 0.5885
C13 C 0.70137(8) -0.13304(15) 0.65408(13)
C14 C 0.71402(7) -0.20098(15) 0.71353(13)
C15 C 0.70326(8) -0.20535(17) 0.78013(14)
H10 H 0.6808 -0.2622 0.7682
H11 H 0.6855 -0.1441 0.7774
C16 C 0.76253(8) -0.29248(16) 0.92451(14)
C17 C 0.75044(8) -0.21612(16) 0.86826(13)
C18 C 0.79230(8) -0.14940(16) 0.90828(13)
C19 C 0.80232(8) -0.05915(16) 0.88354(14)
H12 H 0.7784 -0.0297 0.8301
C20 C 0.84817(9) -0.01513(17) 0.93978(15)
C21 C 0.88422(9) -0.05483(18) 1.01954(16)
H13 H 0.9151 -0.0212 1.0563
C22 C 0.87485(9) -0.14323(18) 1.04489(14)
H14 H 0.8989 -0.1712 1.0990
C23 C 0.82909(8) -0.18993(16) 0.98880(13)
C24 C 0.73259(10) -0.38173(17) 0.91576(16)
H15 H 0.7519 -0.4222 0.9674
H16 H 0.7011 -0.3607 0.9076
H17 H 0.7251 -0.4209 0.8666
C25 C 0.83723(10) -0.3422(2) 1.07061(16)
H18 H 0.8160 -0.3990 1.0621
H19 H 0.8679 -0.3657 1.0771
H20 H 0.8461 -0.3061 1.1220
C26 C 0.76950(8) -0.14131(15) 0.62555(14)
C27 C 0.72035(8) -0.13273(15) 0.59978(13)
C28 C 0.69070(9) -0.11717(15) 0.50914(14)
C29 C 0.63952(9) -0.10274(17) 0.44766(14)
H21 H 0.6159 -0.1022 0.4622
C30 C 0.62475(11) -0.0892(2) 0.36428(16)
C31 C 0.65808(13) -0.0902(2) 0.34021(16)
H22 H 0.6460 -0.0805 0.2823
C32 C 0.70821(12) -0.10512(18) 0.39964(17)
H23 H 0.7313 -0.1062 0.3839
C33 C 0.72443(10) -0.11868(16) 0.48416(15)
C34 C 0.81637(9) -0.15059(18) 0.71369(15)
H24 H 0.8455 -0.1554 0.7107
H25 H 0.8198 -0.0922 0.7472
H26 H 0.8143 -0.2103 0.7408
C35 C 0.81719(11) -0.1364(2) 0.55611(19)
H27 H 0.8465 -0.1488 0.6141
H28 H 0.8144 -0.1892 0.5184
H29 H 0.8212 -0.0724 0.5362
N1 N 0.81015(7) -0.27650(14) 0.99748(11)
N2 N 0.77197(8) -0.13448(14) 0.55560(13)
F1 F 0.74358(5) -0.27889(9) 0.72128(8)
Cl1 Cl 0.86193(3) 0.09639(5) 0.91055(5)
Cl2 Cl 0.56132(3) -0.06736(8) 0.28670(5)
loop_
_geom_bond_atom_site_label_1
_geom_bond_atom_site_label_2
_geom_bond_site_symmetry_1
_geom_bond_site_symmetry_2
C1 C2 1_555 1_555
C2 H1 1_555 1_555
C3 C2 1_555 1_555
H2 C3 1_555 1_555
C4 C3 1_555 1_555
C5 C4 1_555 1_555
H3 C5 1_555 1_555
C6 C1 1_555 1_555
H4 C6 1_555 1_555
C7 C4 1_555 1_555
C8 C7 1_555 1_555
H5 C8 1_555 1_555
C9 C8 1_555 1_555
H6 C9 1_555 1_555
C10 C9 1_555 1_555
H7 C10 1_555 1_555
C11 C10 1_555 1_555
H8 C11 1_555 1_555
C12 C7 1_555 1_555
H9 C12 1_555 1_555
C13 C1 1_555 1_555
C14 C13 1_555 1_555
C15 C14 1_555 1_555
H10 C15 1_555 1_555
H11 C15 1_555 1_555
C16 C17 1_555 1_555
C17 C15 1_555 1_555
C18 C17 1_555 1_555
C19 C18 1_555 1_555
H12 C19 1_555 1_555
C20 C19 1_555 1_555
C21 C20 1_555 1_555
H13 C21 1_555 1_555
C22 C21 1_555 1_555
H14 C22 1_555 1_555
C23 C18 1_555 1_555
C24 C16 1_555 1_555
H15 C24 1_555 1_555
H16 C24 1_555 1_555
H17 C24 1_555 1_555
C25 H18 1_555 1_555
H19 C25 1_555 1_555
H20 C25 1_555 1_555
C26 C27 1_555 1_555
C27 C13 1_555 1_555
C28 C27 1_555 1_555
C29 C28 1_555 1_555
H21 C29 1_555 1_555
C30 C29 1_555 1_555
C31 C30 1_555 1_555
H22 C31 1_555 1_555
C32 C31 1_555 1_555
H23 C32 1_555 1_555
C33 C28 1_555 1_555
C34 C26 1_555 1_555
H24 C34 1_555 1_555
H25 C34 1_555 1_555
H26 C34 1_555 1_555
C35 H27 1_555 1_555
H28 C35 1_555 1_555
H29 C35 1_555 1_555
N1 C16 1_555 1_555
N2 C26 1_555 1_555
F1 C14 1_555 1_555
Cl1 C20 1_555 1_555
Cl2 C30 1_555 1_555
C5 C6 1_555 1_555
C11 C12 1_555 1_555
C22 C23 1_555 1_555
C23 N1 1_555 1_555
C25 N1 1_555 1_555
C32 C33 1_555 1_555
C33 N2 1_555 1_555
C35 N2 1_555 1_555

#END
