
#######################################################################
#
#                 Cambridge Crystallographic Data Centre
#                                CCDC 
#
#######################################################################
#
# If this CIF has been generated from an entry in the Cambridge 
# Structural Database, then it will include bibliographic, chemical, 
# crystal, experimental, refinement or atomic coordinate data resulting 
# from the CCDC's data processing and validation procedures.
#
#######################################################################

data_NEQQOQ
_chemical_formula_moiety         'C24 H18 N4 O4,2(H2 O1)'
_chemical_name_systematic        
'bis(2-Hydroxy-1-naphthaldehyde) oxaloyldihydrazone dihydrate'
_symmetry_cell_setting           monoclinic
_symmetry_space_group_name_H-M   'P 21/c'
_symmetry_Int_Tables_number      14
_space_group_name_Hall           '-P 2ybc'
loop_
_symmetry_equiv_pos_site_id
_symmetry_equiv_pos_as_xyz
1 x,y,z
2 -x,1/2+y,1/2-z
3 -x,-y,-z
4 x,1/2-y,1/2+z
_cell_length_a                   13.678(4)
_cell_length_b                   5.9250(18)
_cell_length_c                   14.883(5)
_cell_angle_alpha                90
_cell_angle_beta                 114.983(5)
_cell_angle_gamma                90
_cell_volume                     1093.29
_exptl_crystal_colour            yellow
_exptl_crystal_description       needle
_cell_formula_units_Z            2
loop_
_atom_site_label
_atom_site_type_symbol
_atom_site_fract_x
_atom_site_fract_y
_atom_site_fract_z
N1 N 0.12945(16) 0.4243(3) 0.04378(15)
N2 N 0.07885(16) 0.2389(3) 0.06101(15)
H1 H 0.0823 0.2123 0.1191
O1 O 0.17894(17) 0.6733(4) -0.07084(13)
H2 H 0.1481 0.5705 -0.0563
O2 O 0.01142(15) 0.1287(3) -0.10093(14)
C1 C 0.2356(2) 0.7980(4) 0.01065(19)
C2 C 0.2877(2) 0.9913(5) -0.0042(2)
H5 H 0.2825 1.0247 -0.0671
C3 C 0.3451(2) 1.1276(5) 0.0731(2)
H6 H 0.3791 1.2536 0.0621
C4 C 0.3551(2) 1.0850(4) 0.1701(2)
C5 C 0.4141(2) 1.2294(5) 0.2501(2)
H7 H 0.4462 1.3579 0.2387
C6 C 0.4251(2) 1.1857(5) 0.3428(2)
H8 H 0.4646 1.2828 0.3946
C7 C 0.3767(2) 0.9928(6) 0.3605(2)
H9 H 0.3848 0.9614 0.4245
C8 C 0.3175(2) 0.8499(5) 0.28468(19)
H10 H 0.2855 0.7238 0.2981
C9 C 0.30387(19) 0.8895(4) 0.18657(18)
C10 C 0.24212(19) 0.7450(4) 0.10432(18)
C11 C 0.18548(19) 0.5491(4) 0.11817(19)
H11 H 0.1900 0.5147 0.1808
C12 C 0.02400(19) 0.1008(4) -0.0154(2)
N1B N -0.12945(16) -0.4243(3) -0.04378(15)
N2B N -0.07885(16) -0.2389(3) -0.06101(15)
H1B H -0.0823 -0.2123 -0.1191
O1B O -0.17894(17) -0.6733(4) 0.07084(13)
H2B H -0.1481 -0.5705 0.0563
O2B O -0.01142(15) -0.1287(3) 0.10093(14)
C1B C -0.2356(2) -0.7980(4) -0.01065(19)
C2B C -0.2877(2) -0.9913(5) 0.0042(2)
H5B H -0.2825 -1.0247 0.0671
C3B C -0.3451(2) -1.1276(5) -0.0731(2)
H6B H -0.3791 -1.2536 -0.0621
C4B C -0.3551(2) -1.0850(4) -0.1701(2)
C5B C -0.4141(2) -1.2294(5) -0.2501(2)
H7B H -0.4462 -1.3579 -0.2387
C6B C -0.4251(2) -1.1857(5) -0.3428(2)
H8B H -0.4646 -1.2828 -0.3946
C7B C -0.3767(2) -0.9928(6) -0.3605(2)
H9B H -0.3848 -0.9614 -0.4245
C8B C -0.3175(2) -0.8499(5) -0.28468(19)
H10B H -0.2855 -0.7238 -0.2981
C9B C -0.30387(19) -0.8895(4) -0.18657(18)
C10B C -0.24212(19) -0.7450(4) -0.10432(18)
C11B C -0.18548(19) -0.5491(4) -0.11817(19)
H11B H -0.1900 -0.5147 -0.1808
C12B C -0.02400(19) -0.1008(4) 0.0154(2)
O3 O 0.1155(2) 0.2429(5) 0.27006(17)
H3 H 0.0685 0.3549 0.2426
H4 H 0.0975 0.1741 0.3114
loop_
_geom_bond_atom_site_label_1
_geom_bond_atom_site_label_2
_geom_bond_site_symmetry_1
_geom_bond_site_symmetry_2
N1 N2 1_555 1_555
N2 H1 1_555 1_555
O1 H2 1_555 1_555
O2 C12 1_555 1_555
O3 H3 1_555 1_555
H4 O3 1_555 1_555
C1 O1 1_555 1_555
C2 C1 1_555 1_555
H5 C2 1_555 1_555
C3 C2 1_555 1_555
H6 C3 1_555 1_555
C4 C3 1_555 1_555
C5 C4 1_555 1_555
H7 C5 1_555 1_555
C6 C5 1_555 1_555
H8 C6 1_555 1_555
C7 C6 1_555 1_555
H9 C7 1_555 1_555
C8 C7 1_555 1_555
H10 C8 1_555 1_555
C9 C4 1_555 1_555
C10 C1 1_555 1_555
C11 N1 1_555 1_555
H11 C11 1_555 1_555
C12 N2 1_555 1_555
N1B N2B 1_555 1_555
N2B H1B 1_555 1_555
O1B H2B 1_555 1_555
O2B C12B 1_555 1_555
C1B O1B 1_555 1_555
C2B C1B 1_555 1_555
H5B C2B 1_555 1_555
C3B C2B 1_555 1_555
H6B C3B 1_555 1_555
C4B C3B 1_555 1_555
C5B C4B 1_555 1_555
H7B C5B 1_555 1_555
C6B C5B 1_555 1_555
H8B C6B 1_555 1_555
C7B C6B 1_555 1_555
H9B C7B 1_555 1_555
C8B C7B 1_555 1_555
H10B C8B 1_555 1_555
C9B C4B 1_555 1_555
C10B C1B 1_555 1_555
C11B N1B 1_555 1_555
H11B C11B 1_555 1_555
C12B C12 1_555 1_555
C8 C9 1_555 1_555
C9 C10 1_555 1_555
C10 C11 1_555 1_555
N2B C12B 1_555 1_555
C8B C9B 1_555 1_555
C9B C10B 1_555 1_555
C10B C11B 1_555 1_555

#END
