
#######################################################################
#
#                 Cambridge Crystallographic Data Centre
#                                CCDC 
#
#######################################################################
#
# If this CIF has been generated from an entry in the Cambridge 
# Structural Database, then it will include bibliographic, chemical, 
# crystal, experimental, refinement or atomic coordinate data resulting 
# from the CCDC's data processing and validation procedures.
#
#######################################################################

data_NEQRIL
_chemical_formula_moiety         '2(C10 H8 O2),C2 H3 N3'
_chemical_name_systematic        'bis(Naphthalene-2,7-diol) 1,2,4-triazole'
_symmetry_cell_setting           monoclinic
_symmetry_space_group_name_H-M   'P 21/c'
_symmetry_Int_Tables_number      14
_space_group_name_Hall           '-P 2ybc'
loop_
_symmetry_equiv_pos_site_id
_symmetry_equiv_pos_as_xyz
1 x,y,z
2 -x,1/2+y,1/2-z
3 -x,-y,-z
4 x,1/2-y,1/2+z
_cell_length_a                   20.754(4)
_cell_length_b                   5.8900(10)
_cell_length_c                   16.273(4)
_cell_angle_alpha                90
_cell_angle_beta                 101.682(6)
_cell_angle_gamma                90
_cell_volume                     1948.02
_exptl_crystal_colour            colorless
_exptl_crystal_description       Bar
_cell_formula_units_Z            4
loop_
_atom_site_label
_atom_site_type_symbol
_atom_site_fract_x
_atom_site_fract_y
_atom_site_fract_z
O1 O 0.6149(2) 1.0277(7) 0.4834(2)
O2 O 0.94770(10) 0.6577(6) 0.6623(2)
C1 C 0.7231(2) 0.8969(8) 0.5460(3)
C2 C 0.6817(3) 1.0523(9) 0.5017(3)
C3 C 0.7061(3) 1.2504(9) 0.4705(3)
C4 C 0.7724(4) 1.2826(9) 0.4835(3)
C5 C 0.8172(3) 1.1228(8) 0.5272(3)
C6 C 0.7915(2) 0.9271(7) 0.5598(2)
C7 C 0.8361(2) 0.7693(7) 0.6052(3)
C8 C 0.9019(2) 0.8030(8) 0.6173(3)
C9 C 0.9264(3) 0.9980(10) 0.5832(3)
C10 C 0.8860(3) 1.1550(10) 0.5402(3)
H1 H 0.6037 0.9247 0.5144
H2 H 0.9293 0.5744 0.6936
H6 H 0.7059 0.7691 0.5673
H7 H 0.6774 1.3577 0.4413
H8 H 0.7886 1.4137 0.4630
H9 H 0.8201 0.6400 0.6271
H10 H 0.9716 1.0179 0.5908
H11 H 0.9032 1.2828 0.5192
O3 O 0.41340(10) 0.4996(6) 0.7602(2)
O4 O 0.07250(10) 0.8055(5) 0.7295(2)
C11 C 0.3009(2) 0.6012(7) 0.7533(3)
C12 C 0.3471(2) 0.4537(8) 0.7372(3)
C13 C 0.3282(3) 0.2482(8) 0.6962(3)
C14 C 0.2639(3) 0.1959(8) 0.6712(3)
C15 C 0.2147(2) 0.3437(8) 0.6865(3)
C16 C 0.2338(2) 0.5526(7) 0.7290(2)
C17 C 0.1839(2) 0.7024(7) 0.7426(3)
C18 C 0.1195(2) 0.6510(8) 0.7145(3)
C19 C 0.0997(2) 0.4481(8) 0.6715(3)
C20 C 0.1474(2) 0.2983(8) 0.6587(3)
H3 H 0.4313 0.4824 0.7180
H4 H 0.0343 0.7501 0.7127
H12 H 0.3141 0.7368 0.7809
H13 H 0.3601 0.1470 0.6862
H14 H 0.2521 0.0596 0.6434
H15 H 0.1953 0.8379 0.7711
H16 H 0.0554 0.4159 0.6522
H17 H 0.1347 0.1627 0.6307
N1 N 0.5625(2) 0.6792(7) 0.5624(3)
N2 N 0.5033(2) 0.5226(9) 0.6438(3)
N3 N 0.5549(2) 0.3862(7) 0.6456(3)
C21 C 0.5081(2) 0.6925(9) 0.5917(3)
C22 C 0.5883(2) 0.4860(10) 0.5965(3)
H5 H 0.5638 0.2628 0.6725
H18 H 0.4768 0.8067 0.5778
H19 H 0.6273 0.4263 0.5860
loop_
_geom_bond_atom_site_label_1
_geom_bond_atom_site_label_2
_geom_bond_site_symmetry_1
_geom_bond_site_symmetry_2
O1 C2 1_555 1_555
O2 C8 1_555 1_555
O3 C12 1_555 1_555
O4 C18 1_555 1_555
N1 C21 1_555 1_555
N2 N3 1_555 1_555
N3 C22 1_555 1_555
C1 C2 1_555 1_555
C2 C3 1_555 1_555
C3 C4 1_555 1_555
C4 C5 1_555 1_555
C5 C6 1_555 1_555
C6 C1 1_555 1_555
C7 C6 1_555 1_555
C8 C7 1_555 1_555
C9 C8 1_555 1_555
C10 C5 1_555 1_555
C11 C12 1_555 1_555
C12 C13 1_555 1_555
C13 C14 1_555 1_555
C14 C15 1_555 1_555
C15 C16 1_555 1_555
C16 C11 1_555 1_555
C17 C16 1_555 1_555
C18 C17 1_555 1_555
C19 C18 1_555 1_555
C20 C15 1_555 1_555
C21 N2 1_555 1_555
C22 N1 1_555 1_555
H1 O1 1_555 1_555
H2 O2 1_555 1_555
H3 O3 1_555 1_555
H4 O4 1_555 1_555
H5 N3 1_555 1_555
H6 C1 1_555 1_555
H7 C3 1_555 1_555
H8 C4 1_555 1_555
H9 C7 1_555 1_555
H10 C9 1_555 1_555
H11 C10 1_555 1_555
H12 C11 1_555 1_555
H13 C13 1_555 1_555
H14 C14 1_555 1_555
H15 C17 1_555 1_555
H16 C19 1_555 1_555
H17 C20 1_555 1_555
H18 C21 1_555 1_555
H19 C22 1_555 1_555
C9 C10 1_555 1_555
C19 C20 1_555 1_555

#END
