
#######################################################################
#
#                 Cambridge Crystallographic Data Centre
#                                CCDC 
#
#######################################################################
#
# If this CIF has been generated from an entry in the Cambridge 
# Structural Database, then it will include bibliographic, chemical, 
# crystal, experimental, refinement or atomic coordinate data resulting 
# from the CCDC's data processing and validation procedures.
#
#######################################################################

data_NEQTOV
_chemical_formula_moiety         'C27 H23 N3 O3'
_chemical_name_systematic        
5,5''-dimethoxy-1'-methyl-1H,1''H-3,3':3',3''-terindol-2'(1'H)-one
_symmetry_cell_setting           orthorhombic
_symmetry_space_group_name_H-M   'P b c a'
_symmetry_Int_Tables_number      61
_space_group_name_Hall           '-P 2ac 2ab'
loop_
_symmetry_equiv_pos_site_id
_symmetry_equiv_pos_as_xyz
1 x,y,z
2 1/2-x,-y,1/2+z
3 1/2+x,1/2-y,-z
4 -x,1/2+y,1/2-z
5 -x,-y,-z
6 1/2+x,y,1/2-z
7 1/2-x,1/2+y,z
8 x,1/2-y,1/2+z
_cell_length_a                   21.278(3)
_cell_length_b                   9.2188(11)
_cell_length_c                   23.036(3)
_cell_angle_alpha                90
_cell_angle_beta                 90
_cell_angle_gamma                90
_cell_volume                     4518.69
_exptl_crystal_colour            white
_exptl_crystal_description       block
_cell_formula_units_Z            8
loop_
_atom_site_label
_atom_site_type_symbol
_atom_site_fract_x
_atom_site_fract_y
_atom_site_fract_z
N1 N -0.0288(2) 0.5558(5) 0.2446(2)
H1 H -0.0523 0.5996 0.2198
O1 O 0.13666(15) 0.2059(4) 0.30027(16)
C1 C 0.0354(2) 0.5696(6) 0.2490(2)
H2 H 0.0604 0.6292 0.2260
C2 C 0.0563(2) 0.4817(5) 0.2924(2)
C3 C -0.0057(2) 0.3172(6) 0.3647(2)
H3 H 0.0282 0.2845 0.3866
C4 C -0.0664(2) 0.2727(6) 0.3771(2)
C5 C -0.1177(2) 0.3218(6) 0.3454(3)
H4 H -0.1578 0.2906 0.3553
C6 C -0.1100(2) 0.4152(6) 0.2998(3)
H5 H -0.1443 0.4475 0.2783
C7 C -0.0495(2) 0.4602(6) 0.2865(2)
C8 C 0.0033(2) 0.4131(5) 0.3182(2)
O2 O -0.08152(18) 0.1773(5) 0.42073(18)
C9 C -0.0330(4) 0.1079(8) 0.4498(3)
H6 H -0.0061 0.0606 0.4221
H7 H -0.0501 0.0371 0.4759
H8 H -0.0091 0.1779 0.4713
N2 N 0.1583(2) 0.3148(5) 0.38669(19)
C10 C 0.1399(2) 0.3153(6) 0.3307(2)
C11 C 0.1243(2) 0.4710(5) 0.3121(2)
C12 C 0.1350(2) 0.5507(6) 0.3691(2)
C13 C 0.1263(3) 0.6964(7) 0.3830(3)
H9 H 0.1129 0.7632 0.3554
C14 C 0.1387(3) 0.7378(8) 0.4400(3)
H10 H 0.1337 0.8345 0.4505
C15 C 0.1582(3) 0.6381(9) 0.4817(3)
H11 H 0.1657 0.6688 0.5195
C16 C 0.1666(3) 0.4960(9) 0.4675(3)
H12 H 0.1796 0.4289 0.4952
C17 C 0.1551(2) 0.4543(6) 0.4110(2)
C18 C 0.1760(3) 0.1850(7) 0.4181(3)
H13 H 0.1713 0.1021 0.3933
H14 H 0.1493 0.1742 0.4515
H15 H 0.2189 0.1927 0.4305
N3 N 0.2505(2) 0.6286(5) 0.22179(19)
H16 H 0.2823 0.6847 0.2168
C19 C 0.2182(2) 0.6138(6) 0.2723(2)
H17 H 0.2273 0.6625 0.3067
C20 C 0.1702(2) 0.5162(6) 0.2649(2)
C21 C 0.1734(2) 0.4695(5) 0.2057(2)
C22 C 0.1371(2) 0.3738(5) 0.1706(2)
H18 H 0.1032 0.3233 0.1862
C23 C 0.1531(3) 0.3579(6) 0.1139(2)
C24 C 0.2050(3) 0.4309(6) 0.0895(2)
H19 H 0.2151 0.4167 0.0507
C25 C 0.2404(2) 0.5222(7) 0.1227(2)
H20 H 0.2746 0.5709 0.1067
C26 C 0.2248(2) 0.5412(6) 0.1800(2)
O3 O 0.1212(2) 0.2740(5) 0.07393(17)
C27 C 0.0670(3) 0.2006(7) 0.0924(3)
H21 H 0.0776 0.1356 0.1235
H22 H 0.0497 0.1463 0.0606
H23 H 0.0365 0.2696 0.1058
loop_
_geom_bond_atom_site_label_1
_geom_bond_atom_site_label_2
_geom_bond_site_symmetry_1
_geom_bond_site_symmetry_2
N1 H1 1_555 1_555
O1 C10 1_555 1_555
C1 N1 1_555 1_555
H2 C1 1_555 1_555
C2 C1 1_555 1_555
C3 H3 1_555 1_555
C4 C3 1_555 1_555
C5 C4 1_555 1_555
H4 C5 1_555 1_555
C6 C5 1_555 1_555
H5 C6 1_555 1_555
C7 N1 1_555 1_555
C8 C2 1_555 1_555
O2 C4 1_555 1_555
C9 O2 1_555 1_555
H6 C9 1_555 1_555
H7 C9 1_555 1_555
H8 C9 1_555 1_555
N2 C10 1_555 1_555
C10 C11 1_555 1_555
C11 C2 1_555 1_555
C12 C11 1_555 1_555
C13 C12 1_555 1_555
H9 C13 1_555 1_555
C14 C13 1_555 1_555
H10 C14 1_555 1_555
C15 C14 1_555 1_555
H11 C15 1_555 1_555
C16 C15 1_555 1_555
H12 C16 1_555 1_555
C17 N2 1_555 1_555
C18 N2 1_555 1_555
H13 C18 1_555 1_555
H14 C18 1_555 1_555
H15 C18 1_555 1_555
N3 H16 1_555 1_555
C19 N3 1_555 1_555
H17 C19 1_555 1_555
C20 C11 1_555 1_555
C21 C20 1_555 1_555
C22 C21 1_555 1_555
H18 C22 1_555 1_555
C23 C22 1_555 1_555
C24 C23 1_555 1_555
H19 C24 1_555 1_555
C25 C24 1_555 1_555
H20 C25 1_555 1_555
C26 N3 1_555 1_555
O3 C23 1_555 1_555
C27 O3 1_555 1_555
H21 C27 1_555 1_555
H22 C27 1_555 1_555
H23 C27 1_555 1_555
C3 C8 1_555 1_555
C6 C7 1_555 1_555
C7 C8 1_555 1_555
C12 C17 1_555 1_555
C16 C17 1_555 1_555
C19 C20 1_555 1_555
C21 C26 1_555 1_555
C25 C26 1_555 1_555

#END
