
#######################################################################
#
#                 Cambridge Crystallographic Data Centre
#                                CCDC 
#
#######################################################################
#
# If this CIF has been generated from an entry in the Cambridge 
# Structural Database, then it will include bibliographic, chemical, 
# crystal, experimental, refinement or atomic coordinate data resulting 
# from the CCDC's data processing and validation procedures.
#
#######################################################################

data_NERBIW
_chemical_formula_moiety         'C22 H14 O6,2(C3 H7 N1 O1)'
_chemical_name_systematic        
'4,6-Dibenzoylisophthalic acid N,N-dimethylformamide solvate'
_symmetry_cell_setting           triclinic
_symmetry_space_group_name_H-M   'P -1'
_symmetry_Int_Tables_number      2
_space_group_name_Hall           '-P 1'
loop_
_symmetry_equiv_pos_site_id
_symmetry_equiv_pos_as_xyz
1 x,y,z
2 -x,-y,-z
_cell_length_a                   9.998(2)
_cell_length_b                   10.940(2)
_cell_length_c                   12.577(3)
_cell_angle_alpha                98.06(3)
_cell_angle_beta                 97.67(3)
_cell_angle_gamma                90.72(3)
_cell_volume                     1349.19
_exptl_crystal_colour            colorless
_exptl_crystal_description       block
_cell_formula_units_Z            2
_exptl_crystal_recrystallization_method DMF
loop_
_atom_site_label
_atom_site_type_symbol
_atom_site_fract_x
_atom_site_fract_y
_atom_site_fract_z
O1 O -0.0028(3) 0.6326(3) 0.0940(2)
O2 O -0.0869(3) 0.6403(3) 0.4872(2)
H1 H -0.0619 0.7069 0.5233
O3 O -0.0231(3) 0.7296(3) 0.3533(2)
O4 O -0.2207(3) 0.1419(3) 0.0462(3)
O5 O -0.4138(3) 0.3066(3) 0.3935(3)
H2 H -0.4683 0.2564 0.4072
O6 O -0.4067(3) 0.1642(3) 0.2499(2)
C1 C 0.3394(5) 0.5076(5) 0.3540(4)
H3 H 0.3632 0.4621 0.4104
C2 C 0.2065(4) 0.5087(4) 0.3073(4)
H4 H 0.1413 0.4626 0.3319
C3 C 0.1687(4) 0.5775(4) 0.2245(3)
C4 C 0.2674(4) 0.6446(4) 0.1898(3)
H5 H 0.2447 0.6927 0.1351
C5 C 0.4002(5) 0.6409(5) 0.2360(4)
H6 H 0.4662 0.6855 0.2109
C6 C 0.4360(5) 0.5738(5) 0.3167(4)
H7 H 0.5259 0.5726 0.3470
C7 C 0.0277(4) 0.5796(4) 0.1721(3)
C8 C -0.0716(4) 0.6433(4) 0.3855(3)
C9 C -0.1214(4) 0.5275(3) 0.3122(3)
C10 C -0.0800(4) 0.5037(3) 0.2094(3)
C11 C -0.1370(4) 0.4034(3) 0.1377(3)
H8 H -0.1092 0.3871 0.0696
C12 C -0.2342(4) 0.3268(3) 0.1647(3)
C13 C -0.2718(4) 0.3486(3) 0.2686(3)
C14 C -0.2149(4) 0.4493(4) 0.3404(3)
H9 H -0.2406 0.4642 0.4094
C15 C -0.3715(4) 0.2662(4) 0.3040(4)
C16 C -0.2932(4) 0.2240(4) 0.0773(3)
C17 C -0.4334(4) 0.2318(3) 0.0230(3)
C18 C -0.4880(4) 0.1347(4) -0.0539(3)
H10 H -0.4371 0.0654 -0.0694
C19 C -0.6162(5) 0.1394(4) -0.1075(4)
H11 H -0.6520 0.0736 -0.1588
C20 C -0.6913(5) 0.2413(5) -0.0851(4)
H12 H -0.7782 0.2446 -0.1216
C21 C -0.6390(5) 0.3387(4) -0.0089(4)
H13 H -0.6907 0.4074 0.0064
C22 C -0.5102(4) 0.3342(4) 0.0447(3)
H14 H -0.4746 0.4004 0.0957
O7 O -0.5870(5) 0.1744(5) 0.4634(4)
N1 N -0.6951(4) 0.0120(4) 0.4678(4)
C23 C -0.7437(7) -0.1077(6) 0.4190(6)
H15 H -0.7108 -0.1277 0.3506
H16 H -0.8406 -0.1098 0.4078
H17 H -0.7125 -0.1669 0.4656
C24 C -0.7392(7) 0.0539(7) 0.5713(6)
H18 H -0.7957 -0.0091 0.5900
H19 H -0.7892 0.1277 0.5666
H20 H -0.6619 0.0709 0.6258
C25 C -0.6127(6) 0.0664(6) 0.4023(7)
H21 H -0.5852 0.0352 0.3362
O8 O -0.0181(4) 0.8357(4) 0.6261(3)
N2 N -0.0786(4) 0.9113(4) 0.7870(3)
C26 C -0.0797(6) 0.8284(6) 0.6983(5)
H22 H -0.1346 0.7580 0.6931
C27 C 0.0006(7) 1.0214(6) 0.8093(5)
H23 H 0.0443 1.0318 0.7475
H24 H 0.0676 1.0174 0.8709
H25 H -0.0560 1.0900 0.8247
C28 C -0.1515(7) 0.8783(7) 0.8704(5)
H26 H -0.2012 0.8018 0.8447
H27 H -0.2130 0.9420 0.8889
H28 H -0.0890 0.8688 0.9334
loop_
_geom_bond_atom_site_label_1
_geom_bond_atom_site_label_2
_geom_bond_site_symmetry_1
_geom_bond_site_symmetry_2
O1 C7 1_555 1_555
O2 H1 1_555 1_555
O3 C8 1_555 1_555
O4 C16 1_555 1_555
O5 H2 1_555 1_555
O6 C15 1_555 1_555
C1 H3 1_555 1_555
C2 C1 1_555 1_555
H4 C2 1_555 1_555
C3 C2 1_555 1_555
C4 C3 1_555 1_555
H5 C4 1_555 1_555
C5 C4 1_555 1_555
H6 C5 1_555 1_555
C6 C1 1_555 1_555
H7 C6 1_555 1_555
C7 C3 1_555 1_555
C8 O2 1_555 1_555
C9 C8 1_555 1_555
C10 C7 1_555 1_555
C11 C10 1_555 1_555
H8 C11 1_555 1_555
C12 C11 1_555 1_555
C13 C12 1_555 1_555
C14 C9 1_555 1_555
H9 C14 1_555 1_555
C15 O5 1_555 1_555
C16 C12 1_555 1_555
C17 C16 1_555 1_555
C18 C17 1_555 1_555
H10 C18 1_555 1_555
C19 C18 1_555 1_555
H11 C19 1_555 1_555
C20 C19 1_555 1_555
H12 C20 1_555 1_555
C21 C20 1_555 1_555
H13 C21 1_555 1_555
C22 C17 1_555 1_555
H14 C22 1_555 1_555
O7 C25 1_555 1_555
N1 C23 1_555 1_555
C23 H15 1_555 1_555
H16 C23 1_555 1_555
H17 C23 1_555 1_555
C24 N1 1_555 1_555
H18 C24 1_555 1_555
H19 C24 1_555 1_555
H20 C24 1_555 1_555
C25 N1 1_555 1_555
H21 C25 1_555 1_555
O8 C26 1_555 1_555
N2 C26 1_555 1_555
C26 H22 1_555 1_555
C27 N2 1_555 1_555
H23 C27 1_555 1_555
H24 C27 1_555 1_555
H25 C27 1_555 1_555
C28 N2 1_555 1_555
H26 C28 1_555 1_555
H27 C28 1_555 1_555
H28 C28 1_555 1_555
C5 C6 1_555 1_555
C9 C10 1_555 1_555
C13 C14 1_555 1_555
C13 C15 1_555 1_555
C21 C22 1_555 1_555

#END
