
#######################################################################
#
#                 Cambridge Crystallographic Data Centre
#                                CCDC 
#
#######################################################################
#
# If this CIF has been generated from an entry in the Cambridge 
# Structural Database, then it will include bibliographic, chemical, 
# crystal, experimental, refinement or atomic coordinate data resulting 
# from the CCDC's data processing and validation procedures.
#
#######################################################################

data_NERGUP
_chemical_formula_moiety         'C48 H24 F14 N4 S4'
_chemical_name_systematic        
2,9-bis(heptafluoropropyl)-4,7,11,14-tetrakis(3-methylthiophen-2-yl)benzo[1,2,3-gh:4,5,6-g'h']diperimidine
_symmetry_cell_setting           monoclinic
_symmetry_space_group_name_H-M   'P 21/n'
_symmetry_Int_Tables_number      14
_space_group_name_Hall           '-P 2yn'
loop_
_symmetry_equiv_pos_site_id
_symmetry_equiv_pos_as_xyz
1 x,y,z
2 1/2-x,1/2+y,1/2-z
3 -x,-y,-z
4 1/2+x,1/2-y,1/2+z
_cell_length_a                   16.6520(8)
_cell_length_b                   19.7591(6)
_cell_length_c                   20.6578(11)
_cell_angle_alpha                90
_cell_angle_beta                 112.774(6)
_cell_angle_gamma                90
_cell_volume                     6267.1
_exptl_crystal_colour            black
_exptl_crystal_description       needle
_cell_formula_units_Z            6
loop_
_atom_site_label
_atom_site_type_symbol
_atom_site_fract_x
_atom_site_fract_y
_atom_site_fract_z
S1 S 1.15717(10) 0.68313(7) 0.65843(8)
S2 S 1.09859(10) 0.28782(7) 0.72921(8)
S3 S 0.50232(10) 0.67447(7) 0.32437(8)
S4 S 0.49381(10) 0.28076(8) 0.35606(8)
F1 F 1.3013(2) 0.53709(16) 0.74847(17)
F2 F 1.2997(2) 0.42696(16) 0.75293(19)
F3 F 0.3568(2) 0.52798(17) 0.26363(18)
F4 F 0.3571(2) 0.41849(17) 0.26323(18)
F5 F 0.3024(2) 0.47342(17) 0.13618(18)
F6 F 0.4221(2) 0.41408(16) 0.16472(19)
F7 F 0.4085(3) 0.5232(2) 0.0822(2)
F8 F 0.4033(3) 0.58924(18) 0.1633(2)
F9 F 0.5158(2) 0.5275(2) 0.1816(2)
N1 N 1.1295(3) 0.5421(2) 0.6711(2)
N2 N 1.1312(3) 0.4209(2) 0.6749(2)
N3 N 0.5300(3) 0.5342(2) 0.3232(2)
N4 N 0.5279(3) 0.4133(2) 0.3317(2)
C1 C 1.0486(4) 0.5419(3) 0.6219(3)
C2 C 1.0045(4) 0.6055(3) 0.5955(3)
C3 C 0.9235(4) 0.6024(3) 0.5437(3)
H1 H 0.8965 0.6439 0.5235
C4 C 0.8757(4) 0.5412(3) 0.5173(3)
C5 C 0.9180(4) 0.4788(3) 0.5453(3)
C6 C 1.0046(4) 0.4803(2) 0.5955(3)
C7 C 1.0494(4) 0.4196(3) 0.6257(3)
C8 C 1.0053(4) 0.3552(3) 0.6042(3)
C9 C 0.9229(4) 0.3560(3) 0.5550(3)
H2 H 0.8948 0.3137 0.5402
C10 C 0.8746(4) 0.4157(3) 0.5235(3)
C11 C 0.7887(4) 0.5405(3) 0.4679(3)
C12 C 0.7409(4) 0.6002(3) 0.4372(3)
H3 H 0.7689 0.6427 0.4518
C13 C 0.6578(4) 0.6002(3) 0.3881(3)
C14 C 0.6132(4) 0.5360(3) 0.3692(3)
C15 C 0.6579(4) 0.4752(3) 0.3993(3)
C16 C 0.7461(4) 0.4771(3) 0.4478(3)
C17 C 0.7874(4) 0.4153(3) 0.4764(3)
C18 C 0.7380(4) 0.3547(3) 0.4574(3)
H4 H 0.7660 0.3138 0.4786
C19 C 0.6531(4) 0.3506(3) 0.4109(3)
C20 C 0.6112(4) 0.4136(3) 0.3786(3)
C21 C 1.1652(4) 0.4818(3) 0.6945(3)
C22 C 0.4938(4) 0.4734(3) 0.3075(3)
C23 C 1.2531(4) 0.4834(3) 0.7534(3)
C24 C 1.2502(4) 0.4863(2) 0.8258(3)
F10 F 1.2051(4) 0.5477(3) 0.8276(3)
F11 F 1.1875(4) 0.4391(3) 0.8281(3)
C25 C 1.3252(6) 0.4824(5) 0.8958(5)
F12 F 1.3798(4) 0.5317(3) 0.8975(3)
F13 F 1.3016(4) 0.4873(3) 0.9480(3)
F14 F 1.3630(3) 0.4247(3) 0.8977(3)
C26 C 0.4012(4) 0.4736(3) 0.2539(3)
C27 C 0.3883(4) 0.4730(3) 0.1769(3)
C28 C 0.4302(5) 0.5295(3) 0.1522(4)
C29 C 1.0459(4) 0.6707(3) 0.6250(3)
C30 C 1.0026(4) 0.7298(3) 0.6289(3)
C31 C 1.0616(4) 0.7843(3) 0.6573(3)
H5 H 1.0439 0.8284 0.6644
C32 C 1.1463(4) 0.7665(3) 0.6732(3)
H6 H 1.1937 0.7973 0.6905
C33 C 0.9064(4) 0.7376(3) 0.6105(3)
H7 H 0.8774 0.7497 0.5608
H8 H 0.8965 0.7733 0.6395
H9 H 0.8825 0.6948 0.6192
C34 C 1.0454(4) 0.2913(3) 0.6386(3)
C35 C 1.0360(4) 0.2278(3) 0.6085(3)
C36 C 1.0739(4) 0.1774(3) 0.6611(3)
H10 H 1.0747 0.1306 0.6506
C37 C 1.1087(4) 0.2023(3) 0.7273(3)
H11 H 1.1356 0.1751 0.7679
C38 C 0.9951(4) 0.2111(3) 0.5326(3)
H12 H 0.9370 0.1920 0.5219
H13 H 1.0312 0.1779 0.5210
H14 H 0.9900 0.2522 0.5048
C39 C 0.6143(4) 0.6638(3) 0.3544(3)
C40 C 0.6535(4) 0.7229(3) 0.3467(3)
C41 C 0.5931(4) 0.7751(3) 0.3173(3)
H15 H 0.6091 0.8189 0.3073
C42 C 0.5101(4) 0.7572(3) 0.3046(3)
H16 H 0.4619 0.7871 0.2869
C43 C 0.7493(4) 0.7333(3) 0.3633(3)
H17 H 0.7787 0.7470 0.4125
H18 H 0.7566 0.7687 0.3329
H19 H 0.7748 0.6910 0.3554
C44 C 0.6069(4) 0.2846(3) 0.3947(3)
C45 C 0.6427(4) 0.2203(3) 0.4102(3)
C46 C 0.5767(4) 0.1704(3) 0.3916(3)
H20 H 0.5893 0.1234 0.3982
C47 C 0.4944(4) 0.1947(3) 0.3637(3)
H21 H 0.4435 0.1674 0.3502
C48 C 0.7360(4) 0.2000(3) 0.4440(3)
H22 H 0.7707 0.2275 0.4250
H23 H 0.7419 0.1521 0.4344
H24 H 0.7566 0.2071 0.4948
S5 S 0.75726(10) 0.71550(8) 0.70699(8)
S6 S 0.85052(10) 0.32497(7) 0.67720(8)
F20 F 0.9660(2) 0.58182(16) 0.74355(18)
F21 F 0.9747(2) 0.47263(17) 0.7527(2)
F22 F 0.8584(3) 0.5805(2) 0.8191(2)
F23 F 0.8799(3) 0.4715(2) 0.8323(2)
F24 F 1.0298(3) 0.6012(2) 0.8846(2)
F25 F 0.9768(4) 0.5444(3) 0.9437(2)
F26 F 1.0543(4) 0.4969(3) 0.8958(3)
N5 N 0.7961(3) 0.5789(2) 0.6657(3)
N6 N 0.8057(3) 0.4582(2) 0.6734(2)
C50 C 0.7147(4) 0.5743(3) 0.6179(3)
C51 C 0.6650(4) 0.6353(3) 0.5899(3)
C52 C 0.5815(4) 0.6293(3) 0.5422(3)
H25 H 0.5499 0.6696 0.5234
C53 C 0.5386(4) 0.5654(3) 0.5188(3)
C54 C 0.5871(4) 0.5054(3) 0.5463(3)
C55 C 0.6745(4) 0.5106(3) 0.5947(3)
C56 C 0.7249(4) 0.4521(3) 0.6247(3)
C57 C 0.6881(4) 0.3848(3) 0.6031(3)
C58 C 0.6035(4) 0.3826(3) 0.5568(3)
H26 H 0.5784 0.3392 0.5426
C59 C 0.4509(4) 0.5599(3) 0.4723(3)
C60 C 0.8351(4) 0.5206(3) 0.6909(3)
C61 C 0.9226(4) 0.5264(3) 0.7509(3)
C62 C 0.9147(5) 0.5310(3) 0.8224(3)
C63 C 0.9959(5) 0.5423(3) 0.8867(4)
C64 C 0.7005(4) 0.7029(3) 0.6173(3)
C65 C 0.6852(4) 0.7636(3) 0.5821(3)
C66 C 0.7207(4) 0.8190(3) 0.6277(3)
H27 H 0.7176 0.8644 0.6118
C67 C 0.7603(4) 0.8008(3) 0.6973(3)
H28 H 0.7859 0.8318 0.7349
C68 C 0.6411(5) 0.7731(3) 0.5048(3)
H29 H 0.6429 0.7306 0.4809
H30 H 0.6710 0.8086 0.4895
H31 H 0.5803 0.7863 0.4930
C69 C 0.7394(4) 0.3231(3) 0.6281(3)
C70 C 0.7107(4) 0.2562(3) 0.6118(3)
C71 C 0.7814(4) 0.2103(3) 0.6389(3)
H32 H 0.7743 0.1627 0.6327
C72 C 0.8593(4) 0.2391(3) 0.6742(3)
H33 H 0.9124 0.2148 0.6948
C73 C 0.6207(4) 0.2281(3) 0.5739(3)
H34 H 0.5809 0.2481 0.5933
H35 H 0.6219 0.1788 0.5799
H36 H 0.6006 0.2390 0.5238
S5B S 0.24274(10) 0.28450(8) 0.29301(8)
S6B S 0.14948(10) 0.67503(7) 0.32280(8)
F20B F 0.0340(2) 0.41818(16) 0.25645(18)
F21B F 0.0253(2) 0.52737(17) 0.2473(2)
F22B F 0.1416(3) 0.4195(2) 0.1809(2)
F23B F 0.1201(3) 0.5285(2) 0.1677(2)
F24B F -0.0298(3) 0.3988(2) 0.1154(2)
F25B F 0.0232(4) 0.4556(3) 0.0563(2)
F26B F -0.0543(4) 0.5031(3) 0.1042(3)
N5B N 0.2039(3) 0.4211(2) 0.3343(3)
N6B N 0.1943(3) 0.5418(2) 0.3266(2)
C50B C 0.2853(4) 0.4257(3) 0.3821(3)
C51B C 0.3350(4) 0.3647(3) 0.4101(3)
C52B C 0.4185(4) 0.3707(3) 0.4578(3)
H25B H 0.4501 0.3304 0.4766
C53B C 0.4614(4) 0.4346(3) 0.4812(3)
C54B C 0.4129(4) 0.4946(3) 0.4537(3)
C55B C 0.3255(4) 0.4894(3) 0.4053(3)
C56B C 0.2751(4) 0.5479(3) 0.3753(3)
C57B C 0.3119(4) 0.6152(3) 0.3969(3)
C58B C 0.3965(4) 0.6174(3) 0.4432(3)
H26B H 0.4216 0.6608 0.4574
C59B C 0.5491(4) 0.4401(3) 0.5277(3)
C60B C 0.1649(4) 0.4794(3) 0.3091(3)
C61B C 0.0774(4) 0.4736(3) 0.2491(3)
C62B C 0.0853(5) 0.4690(3) 0.1776(3)
C63B C 0.0041(5) 0.4577(3) 0.1133(4)
C64B C 0.2995(4) 0.2971(3) 0.3827(3)
C65B C 0.3148(4) 0.2364(3) 0.4179(3)
C66B C 0.2793(4) 0.1810(3) 0.3723(3)
H27B H 0.2824 0.1356 0.3882
C67B C 0.2397(4) 0.1992(3) 0.3027(3)
H28B H 0.2141 0.1682 0.2651
C68B C 0.3589(5) 0.2269(3) 0.4952(3)
H29B H 0.3571 0.2694 0.5191
H30B H 0.3290 0.1914 0.5105
H31B H 0.4197 0.2137 0.5070
C69B C 0.2606(4) 0.6769(3) 0.3719(3)
C70B C 0.2893(4) 0.7438(3) 0.3882(3)
C71B C 0.2186(4) 0.7897(3) 0.3611(3)
H32B H 0.2257 0.8373 0.3673
C72B C 0.1407(4) 0.7609(3) 0.3258(3)
H33B H 0.0876 0.7852 0.3052
C73B C 0.3793(4) 0.7719(3) 0.4261(3)
H34B H 0.4191 0.7519 0.4067
H35B H 0.3781 0.8212 0.4201
H36B H 0.3994 0.7610 0.4762
F15? F 1.3434(7) 0.4775(9) 0.8656(8)
F16? F 1.2264(11) 0.4172(5) 0.8296(10)
C49? C 1.2190(11) 0.5427(7) 0.8590(8)
F17? F 1.2389(12) 0.5205(9) 0.9223(8)
F18? F 1.2593(11) 0.5927(8) 0.8491(10)
F19? F 1.1407(10) 0.5345(8) 0.8165(7)
loop_
_geom_bond_atom_site_label_1
_geom_bond_atom_site_label_2
_geom_bond_site_symmetry_1
_geom_bond_site_symmetry_2
S1 C29 1_555 1_555
S2 C34 1_555 1_555
S3 C39 1_555 1_555
S4 C44 1_555 1_555
F1 C23 1_555 1_555
F2 C23 1_555 1_555
F3 C26 1_555 1_555
F4 C26 1_555 1_555
F5 C27 1_555 1_555
F6 C27 1_555 1_555
F7 C28 1_555 1_555
F8 C28 1_555 1_555
F9 C28 1_555 1_555
N1 C1 1_555 1_555
N2 C7 1_555 1_555
N3 C14 1_555 1_555
N4 C20 1_555 1_555
C1 C2 1_555 1_555
C2 C3 1_555 1_555
C3 H1 1_555 1_555
C4 C3 1_555 1_555
C5 C4 1_555 1_555
C6 C1 1_555 1_555
C7 C6 1_555 1_555
C8 C7 1_555 1_555
C9 C8 1_555 1_555
H2 C9 1_555 1_555
C10 C5 1_555 1_555
C11 C4 1_555 1_555
C12 C11 1_555 1_555
H3 C12 1_555 1_555
C13 C12 1_555 1_555
C14 C13 1_555 1_555
C15 C14 1_555 1_555
C16 C11 1_555 1_555
C17 C10 1_555 1_555
C18 C17 1_555 1_555
H4 C18 1_555 1_555
C19 C18 1_555 1_555
C20 C15 1_555 1_555
C21 N1 1_555 1_555
C22 N3 1_555 1_555
C23 C21 1_555 1_555
C24 C23 1_555 1_555
F10 C24 1_555 1_555
F11 C24 1_555 1_555
C25 C24 1_555 1_555
F12 C25 1_555 1_555
F13 C25 1_555 1_555
F14 C25 1_555 1_555
C26 C22 1_555 1_555
C27 C26 1_555 1_555
C28 C27 1_555 1_555
C29 C2 1_555 1_555
C30 C29 1_555 1_555
C31 C30 1_555 1_555
H5 C31 1_555 1_555
C32 S1 1_555 1_555
H6 C32 1_555 1_555
C33 C30 1_555 1_555
H7 C33 1_555 1_555
H8 C33 1_555 1_555
H9 C33 1_555 1_555
C34 C8 1_555 1_555
C35 C34 1_555 1_555
C36 C35 1_555 1_555
H10 C36 1_555 1_555
C37 S2 1_555 1_555
H11 C37 1_555 1_555
C38 C35 1_555 1_555
H12 C38 1_555 1_555
H13 C38 1_555 1_555
H14 C38 1_555 1_555
C39 C13 1_555 1_555
C40 C39 1_555 1_555
C41 C40 1_555 1_555
H15 C41 1_555 1_555
C42 S3 1_555 1_555
H16 C42 1_555 1_555
C43 C40 1_555 1_555
H17 C43 1_555 1_555
H18 C43 1_555 1_555
H19 C43 1_555 1_555
C44 C19 1_555 1_555
C45 C44 1_555 1_555
C46 C45 1_555 1_555
H20 C46 1_555 1_555
C47 S4 1_555 1_555
H21 C47 1_555 1_555
C48 C45 1_555 1_555
H22 C48 1_555 1_555
H23 C48 1_555 1_555
H24 C48 1_555 1_555
S5 C64 1_555 1_555
S6 C69 1_555 1_555
F20 C61 1_555 1_555
F21 C61 1_555 1_555
F22 C62 1_555 1_555
F23 C62 1_555 1_555
F24 C63 1_555 1_555
F25 C63 1_555 1_555
F26 C63 1_555 1_555
N5 C50 1_555 1_555
N6 C56 1_555 1_555
C50 C51 1_555 1_555
C51 C52 1_555 1_555
C52 H25 1_555 1_555
C53 C52 1_555 1_555
C54 C53 1_555 1_555
C55 C50 1_555 1_555
C56 C55 1_555 1_555
C57 C56 1_555 1_555
C58 C57 1_555 1_555
H26 C58 1_555 1_555
C59 C53 1_555 1_555
C60 N5 1_555 1_555
C61 C60 1_555 1_555
C62 C61 1_555 1_555
C63 C62 1_555 1_555
C64 C51 1_555 1_555
C65 C64 1_555 1_555
C66 C65 1_555 1_555
H27 C66 1_555 1_555
C67 S5 1_555 1_555
H28 C67 1_555 1_555
C68 C65 1_555 1_555
H29 C68 1_555 1_555
H30 C68 1_555 1_555
H31 C68 1_555 1_555
C69 C57 1_555 1_555
C70 C69 1_555 1_555
C71 C70 1_555 1_555
H32 C71 1_555 1_555
C72 S6 1_555 1_555
H33 C72 1_555 1_555
C73 C70 1_555 1_555
H34 C73 1_555 1_555
H35 C73 1_555 1_555
H36 C73 1_555 1_555
S5B C64B 1_555 1_555
S6B C69B 1_555 1_555
F20B C61B 1_555 1_555
F21B C61B 1_555 1_555
F22B C62B 1_555 1_555
F23B C62B 1_555 1_555
F24B C63B 1_555 1_555
F25B C63B 1_555 1_555
F26B C63B 1_555 1_555
N5B C50B 1_555 1_555
N6B C56B 1_555 1_555
C50B C51B 1_555 1_555
C51B C52B 1_555 1_555
C52B H25B 1_555 1_555
C53B C52B 1_555 1_555
C54B C59 1_555 1_555
C55B C50B 1_555 1_555
C56B C55B 1_555 1_555
C57B C56B 1_555 1_555
C58B C59 1_555 1_555
H26B C58B 1_555 1_555
C59B C54 1_555 1_555
C60B N5B 1_555 1_555
C61B C60B 1_555 1_555
C62B C61B 1_555 1_555
C63B C62B 1_555 1_555
C64B C51B 1_555 1_555
C65B C64B 1_555 1_555
C66B C65B 1_555 1_555
H27B C66B 1_555 1_555
C67B S5B 1_555 1_555
H28B C67B 1_555 1_555
C68B C65B 1_555 1_555
H29B C68B 1_555 1_555
H30B C68B 1_555 1_555
H31B C68B 1_555 1_555
C69B C57B 1_555 1_555
C70B C69B 1_555 1_555
C71B C70B 1_555 1_555
H32B C71B 1_555 1_555
C72B S6B 1_555 1_555
H33B C72B 1_555 1_555
C73B C70B 1_555 1_555
H34B C73B 1_555 1_555
H35B C73B 1_555 1_555
H36B C73B 1_555 1_555
N2 C21 1_555 1_555
N4 C22 1_555 1_555
C5 C6 1_555 1_555
C9 C10 1_555 1_555
C15 C16 1_555 1_555
C16 C17 1_555 1_555
C19 C20 1_555 1_555
C31 C32 1_555 1_555
C36 C37 1_555 1_555
C41 C42 1_555 1_555
C46 C47 1_555 1_555
N6 C60 1_555 1_555
C54 C55 1_555 1_555
C58 C59B 1_555 1_555
C66 C67 1_555 1_555
C71 C72 1_555 1_555
N6B C60B 1_555 1_555
C53B C54B 1_555 1_555
C53B C59B 1_555 1_555
C54B C55B 1_555 1_555
C57B C58B 1_555 1_555
C66B C67B 1_555 1_555
C71B C72B 1_555 1_555

#END
