
#######################################################################
#
#                 Cambridge Crystallographic Data Centre
#                                CCDC 
#
#######################################################################
#
# If this CIF has been generated from an entry in the Cambridge 
# Structural Database, then it will include bibliographic, chemical, 
# crystal, experimental, refinement or atomic coordinate data resulting 
# from the CCDC's data processing and validation procedures.
#
#######################################################################

data_NERHAU
_chemical_name_common            
'2-(4-(2,3,5,6,8,9,11,12,14,15-Decahydro-1,7,10,16,4,13-benzotetraoxadithiacyclooctadecin-18-yl)buta-1,3-dien-1-yl)-3-ethyl-1,3-benzothiazol-3-ium perchlorate acetonitrile solvate'
_chemical_formula_moiety         'C29 H36 N1 O4 S3 1+,Cl1 O4 1-,C2 H3 N1'
_chemical_name_systematic        
'3-Ethyl-2-((1E,3E)-4-(2,3,5,6,8,9,11,12,14,15-decahydro-1,7,10,16,4,13-benzotetraoxadithiacyclo-octadecin-18-yl)-1,3-butadienyl)-1,3-benzothiazolium perchlorate acetonitrile solvate'
_symmetry_cell_setting           monoclinic
_symmetry_space_group_name_H-M   'C 2/c'
_symmetry_Int_Tables_number      15
_space_group_name_Hall           '-C 2yn'
loop_
_symmetry_equiv_pos_site_id
_symmetry_equiv_pos_as_xyz
1 x,y,z
2 1/2+x,1/2+y,z
3 -x,y,1/2-z
4 1/2-x,1/2+y,1/2-z
5 -x,-y,-z
6 1/2-x,1/2-y,-z
7 x,-y,1/2+z
8 1/2+x,1/2-y,1/2+z
_cell_length_a                   45.6357(16)
_cell_length_b                   8.3550(3)
_cell_length_c                   18.1476(6)
_cell_angle_alpha                90
_cell_angle_beta                 103.630(3)
_cell_angle_gamma                90
_cell_volume                     6724.56
_cell_formula_units_Z            8
_exptl_crystal_recrystallization_method benzene/acetonitrile
loop_
_atom_site_label
_atom_site_type_symbol
_atom_site_fract_x
_atom_site_fract_y
_atom_site_fract_z
S1 S 0.439553(19) -0.04268(11) 0.21782(5)
S2 S 0.441273(19) -0.44052(10) -0.16695(5)
S3 S 0.170673(18) 0.14093(9) 0.03599(5)
O1 O 0.38814(5) -0.0324(3) 0.06556(12)
O2 O 0.48855(5) -0.2155(3) 0.07858(13)
O3 O 0.49991(5) -0.2671(3) -0.06295(12)
O4 O 0.39408(5) -0.2119(3) -0.04273(12)
N1 N 0.19736(6) 0.3103(3) 0.14844(15)
C1 C 0.38672(7) 0.0810(4) 0.12330(18)
H1 H 0.3759 0.0351 0.1597
H2 H 0.3760 0.1788 0.1008
C2 C 0.41913(7) 0.1200(4) 0.16294(18)
H3 H 0.4191 0.2125 0.1970
H4 H 0.4300 0.1528 0.1242
C3 C 0.45153(8) -0.1665(4) 0.1482(2)
H5 H 0.4541 -0.2781 0.1670
H6 H 0.4356 -0.1661 0.1005
C4 C 0.48076(8) -0.1085(4) 0.13229(19)
H7 H 0.4783 0.0015 0.1115
H8 H 0.4969 -0.1075 0.1796
C5 C 0.51712(8) -0.1804(4) 0.0644(2)
H9 H 0.5331 -0.1941 0.1114
H10 H 0.5176 -0.0679 0.0474
C6 C 0.52283(7) -0.2910(4) 0.00412(19)
H11 H 0.5428 -0.2684 -0.0058
H12 H 0.5226 -0.4035 0.0211
C7 C 0.50330(8) -0.3685(4) -0.12254(18)
H13 H 0.5061 -0.4805 -0.1045
H14 H 0.5213 -0.3364 -0.1408
C8 C 0.47525(8) -0.3550(5) -0.18623(19)
H15 H 0.4792 -0.4081 -0.2317
H16 H 0.4715 -0.2403 -0.1986
C9 C 0.43231(8) -0.2975(4) -0.09988(19)
H17 H 0.4444 -0.3203 -0.0481
H18 H 0.4369 -0.1873 -0.1138
C10 C 0.39928(7) -0.3132(4) -0.10245(18)
H19 H 0.3870 -0.2779 -0.1522
H20 H 0.3941 -0.4257 -0.0939
C11 C 0.36515(7) -0.1894(4) -0.03771(18)
C12 C 0.36157(7) -0.0871(4) 0.02137(17)
C13 C 0.33342(7) -0.0515(4) 0.03097(17)
H21 H 0.3313 0.0172 0.0711
C14 C 0.30745(7) -0.1164(4) -0.01858(17)
C15 C 0.31140(7) -0.2177(4) -0.07577(17)
H22 H 0.2942 -0.2627 -0.1092
C16 C 0.33995(7) -0.2554(4) -0.08574(18)
H23 H 0.3421 -0.3259 -0.1252
C17 C 0.27713(7) -0.0775(4) -0.01200(17)
H24 H 0.2610 -0.1277 -0.0471
C18 C 0.26954(7) 0.0225(4) 0.03873(18)
H25 H 0.2853 0.0705 0.0757
C19 C 0.23922(7) 0.0607(4) 0.04021(18)
H26 H 0.2232 0.0129 0.0039
C20 C 0.23273(7) 0.1630(4) 0.09183(18)
H27 H 0.2492 0.2076 0.1280
C21 C 0.20307(7) 0.2096(4) 0.09629(18)
C22 C 0.16684(7) 0.3330(4) 0.14482(18)
C23 C 0.15442(7) 0.4287(4) 0.19247(18)
H28 H 0.1667 0.4880 0.2329
C24 C 0.12305(8) 0.4330(4) 0.17781(19)
H29 H 0.1138 0.4966 0.2093
C25 C 0.10497(8) 0.3477(4) 0.11888(19)
H30 H 0.0837 0.3539 0.1111
C26 C 0.11725(7) 0.2537(4) 0.07112(19)
H31 H 0.1049 0.1959 0.0304
C27 C 0.14855(7) 0.2475(4) 0.08542(17)
C28 C 0.22068(7) 0.3904(4) 0.20722(18)
H32 H 0.2135 0.4984 0.2170
H33 H 0.2393 0.4031 0.1885
C29 C 0.22791(8) 0.2961(4) 0.28052(19)
H34 H 0.2433 0.3528 0.3182
H35 H 0.2355 0.1899 0.2713
H36 H 0.2096 0.2845 0.2995
Cl1 Cl 0.186865(19) 0.86179(10) 0.29671(4)
O5 O 0.17691(8) 0.9832(3) 0.24060(15)
O6 O 0.20669(6) 0.7530(4) 0.27129(16)
O7 O 0.20237(8) 0.9360(4) 0.36552(15)
O8 O 0.16146(8) 0.7757(4) 0.3073(2)
C30 C 0.38992(11) -0.4540(5) 0.1224(2)
C31 C 0.37647(11) -0.3684(5) 0.1757(3)
H37 H 0.3873 -0.2674 0.1898
H38 H 0.3778 -0.4340 0.2212
H39 H 0.3553 -0.3460 0.1522
N2 N 0.40055(13) -0.5197(5) 0.0807(2)
loop_
_geom_bond_atom_site_label_1
_geom_bond_atom_site_label_2
_geom_bond_site_symmetry_1
_geom_bond_site_symmetry_2
S1 C2 1_555 1_555
S2 C8 1_555 1_555
S3 C21 1_555 1_555
O1 C1 1_555 1_555
O2 C4 1_555 1_555
O3 C6 1_555 1_555
O4 C10 1_555 1_555
N1 C21 1_555 1_555
C1 H1 1_555 1_555
H2 C1 1_555 1_555
C2 C1 1_555 1_555
H3 C2 1_555 1_555
H4 C2 1_555 1_555
C3 S1 1_555 1_555
H5 C3 1_555 1_555
H6 C3 1_555 1_555
C4 C3 1_555 1_555
H7 C4 1_555 1_555
H8 C4 1_555 1_555
C5 O2 1_555 1_555
H9 C5 1_555 1_555
H10 C5 1_555 1_555
C6 C5 1_555 1_555
H11 C6 1_555 1_555
H12 C6 1_555 1_555
C7 O3 1_555 1_555
H13 C7 1_555 1_555
H14 C7 1_555 1_555
C8 C7 1_555 1_555
H15 C8 1_555 1_555
H16 C8 1_555 1_555
C9 S2 1_555 1_555
H17 C9 1_555 1_555
H18 C9 1_555 1_555
C10 C9 1_555 1_555
H19 C10 1_555 1_555
H20 C10 1_555 1_555
C11 O4 1_555 1_555
C12 O1 1_555 1_555
C13 C12 1_555 1_555
H21 C13 1_555 1_555
C14 C13 1_555 1_555
C15 C14 1_555 1_555
H22 C15 1_555 1_555
C16 C11 1_555 1_555
H23 C16 1_555 1_555
C17 C14 1_555 1_555
H24 C17 1_555 1_555
C18 C17 1_555 1_555
H25 C18 1_555 1_555
C19 C18 1_555 1_555
H26 C19 1_555 1_555
C20 C19 1_555 1_555
H27 C20 1_555 1_555
C21 C20 1_555 1_555
C22 N1 1_555 1_555
C23 C22 1_555 1_555
H28 C23 1_555 1_555
C24 C23 1_555 1_555
H29 C24 1_555 1_555
C25 C24 1_555 1_555
H30 C25 1_555 1_555
C26 C25 1_555 1_555
H31 C26 1_555 1_555
C27 S3 1_555 1_555
C28 N1 1_555 1_555
H32 C28 1_555 1_555
H33 C28 1_555 1_555
C29 C28 1_555 1_555
H34 C29 1_555 1_555
H35 C29 1_555 1_555
H36 C29 1_555 1_555
Cl1 O5 1_555 1_555
O6 Cl1 1_555 1_555
O7 Cl1 1_555 1_555
O8 Cl1 1_555 1_555
C30 C31 1_555 1_555
C31 H37 1_555 1_555
H38 C31 1_555 1_555
H39 C31 1_555 1_555
N2 C30 1_555 1_555
C11 C12 1_555 1_555
C15 C16 1_555 1_555
C22 C27 1_555 1_555
C26 C27 1_555 1_555

#END
