
#######################################################################
#
#                 Cambridge Crystallographic Data Centre
#                                CCDC 
#
#######################################################################
#
# If this CIF has been generated from an entry in the Cambridge 
# Structural Database, then it will include bibliographic, chemical, 
# crystal, experimental, refinement or atomic coordinate data resulting 
# from the CCDC's data processing and validation procedures.
#
#######################################################################

data_NERHIE
_chemical_formula_moiety         'C44 H8 Br8 F14 N4 S4,0.75(C1 H1 Cl3)'
_chemical_name_systematic        
"4,7,11,14-tetrakis(2,5-dibromothiophen-3-yl)-2,9-bis(heptafluoropropyl)benzo[1,2,3-gh:4,5,6-g'h']diperimidine chloroform solvate"
_symmetry_cell_setting           triclinic
_symmetry_space_group_name_H-M   'P -1'
_symmetry_Int_Tables_number      2
_space_group_name_Hall           '-P 1'
loop_
_symmetry_equiv_pos_site_id
_symmetry_equiv_pos_as_xyz
1 x,y,z
2 -x,-y,-z
_cell_length_a                   15.2196(7)
_cell_length_b                   15.3694(5)
_cell_length_c                   24.0731(6)
_cell_angle_alpha                101.545(2)
_cell_angle_beta                 102.351(3)
_cell_angle_gamma                105.027(3)
_cell_volume                     5113.97
_exptl_crystal_colour            orange
_exptl_crystal_description       plate
_cell_formula_units_Z            4
loop_
_atom_site_label
_atom_site_type_symbol
_atom_site_fract_x
_atom_site_fract_y
_atom_site_fract_z
Br1 Br 0.22346(11) 0.72760(10) 1.02686(6)
Br2 Br 0.40672(10) 0.82023(10) 1.28734(6)
Br3 Br 0.48869(12) 0.13688(10) 0.92547(7)
Br4 Br 0.2812(2) -0.00467(13) 1.09203(10)
Br5 Br 0.19127(10) 0.75471(10) 0.87291(6)
Br6 Br 0.47584(11) 0.98007(10) 0.77358(7)
Br7 Br 0.28162(11) 0.10529(9) 0.76723(6)
Br8 Br 0.40231(13) 0.18520(15) 0.55509(7)
S1 S 0.2960(2) 0.8079(2) 1.16087(13)
S2 S 0.3939(3) 0.0259(3) 0.99997(18)
S3 S 0.3131(2) 0.9036(2) 0.82752(14)
S4 S 0.3327(3) 0.0988(2) 0.65073(15)
C1 C 0.3952(7) 0.4088(7) 1.2003(4)
C2 C 0.2980(7) 0.3708(7) 1.2115(4)
C3 C 0.2337(8) 0.2788(8) 1.1739(5)
F1 F 0.4432(5) 0.4926(5) 1.2412(3)
F2 F 0.4457(5) 0.3506(5) 1.2114(3)
F3 F 0.2546(5) 0.4372(5) 1.2090(3)
F4 F 0.3170(5) 0.3656(5) 1.2690(3)
F5 F 0.1563(5) 0.2534(5) 1.1910(3)
F6 F 0.2738(6) 0.2125(5) 1.1732(3)
F7 F 0.2068(5) 0.2827(5) 1.1175(3)
C4 C 0.2921(9) 0.5284(7) 0.6338(5)
C5 C 0.3719(9) 0.5820(8) 0.6115(5)
C6 C 0.4389(11) 0.5346(10) 0.5984(6)
F8 F 0.2319(6) 0.5787(5) 0.6279(3)
F9 F 0.2494(6) 0.4433(4) 0.5939(3)
F10 F 0.4238(7) 0.6621(5) 0.6543(3)
F11 F 0.3344(7) 0.5995(6) 0.5561(4)
F12 F 0.4785(5) 0.5205(6) 0.6480(3)
F13 F 0.3973(7) 0.4568(8) 0.5545(5)
F14 F 0.4981(7) 0.5925(8) 0.5745(4)
N1 N 0.3823(6) 0.5038(6) 1.1336(4)
N2 N 0.3940(7) 0.3498(6) 1.0995(4)
N3 N 0.3268(7) 0.5927(6) 0.7378(4)
N4 N 0.3217(7) 0.4345(7) 0.7013(4)
C7 C 0.3797(8) 0.5181(7) 1.0790(4)
C8 C 0.3717(8) 0.6045(8) 1.0682(5)
C9 C 0.3770(8) 0.6189(8) 1.0155(4)
H1 H 0.3785 0.6787 1.0099
C10 C 0.3804(7) 0.5494(7) 0.9676(4)
C11 C 0.3821(8) 0.4631(7) 0.9764(4)
C12 C 0.3837(8) 0.4473(7) 1.0329(5)
C13 C 0.3886(8) 0.3623(8) 1.0441(5)
C14 C 0.3817(8) 0.2843(8) 0.9962(5)
C15 C 0.3796(9) 0.3012(8) 0.9429(5)
H2 H 0.3771 0.2510 0.9117
C16 C 0.3808(8) 0.3877(7) 0.9296(4)
C17 C 0.3749(8) 0.5640(8) 0.9100(4)
C18 C 0.3708(8) 0.6494(8) 0.8973(4)
H3 H 0.3775 0.7008 0.9291
C19 C 0.3579(8) 0.6617(7) 0.8422(5)
C20 C 0.3459(7) 0.5832(7) 0.7934(4)
C21 C 0.3551(7) 0.5001(7) 0.8054(4)
C22 C 0.3685(8) 0.4885(8) 0.8634(4)
C23 C 0.3752(8) 0.4016(7) 0.8727(4)
C24 C 0.3769(8) 0.3313(8) 0.8239(5)
H4 H 0.3915 0.2775 0.8313
C25 C 0.3581(8) 0.3392(8) 0.7664(4)
C26 C 0.3436(8) 0.4245(7) 0.7565(5)
C27 C 0.3914(8) 0.4230(8) 1.1391(4)
C28 C 0.3158(8) 0.5166(8) 0.6967(4)
C29 C 0.3561(9) 0.6777(8) 1.1139(5)
C30 C 0.3001(9) 0.7310(7) 1.1006(5)
C31 C 0.3726(8) 0.7690(9) 1.2057(5)
C32 C 0.3974(9) 0.7009(8) 1.1757(5)
H5 H 0.4384 0.6710 1.1939
C33 C 0.3797(9) 0.1925(8) 1.0062(5)
C34 C 0.4177(10) 0.1298(9) 0.9793(6)
C35 C 0.3335(12) 0.0663(10) 1.0472(6)
C36 C 0.3318(10) 0.1534(9) 1.0447(5)
H6 H 0.3005 0.1864 1.0672
C37 C 0.3567(8) 0.7547(8) 0.8318(5)
C38 C 0.2951(9) 0.7990(8) 0.8445(5)
C39 C 0.4072(9) 0.8894(9) 0.8034(5)
C40 C 0.4225(9) 0.8073(8) 0.8060(5)
H7 H 0.4701 0.7869 0.7927
C41 C 0.3545(9) 0.2616(8) 0.7175(5)
C42 C 0.3293(9) 0.1681(8) 0.7149(5)
C43 C 0.3735(9) 0.1968(10) 0.6277(5)
C44 C 0.3828(9) 0.2757(9) 0.6668(5)
H8 H 0.4063 0.3359 0.6612
Br9 Br 0.75030(16) 1.23704(13) 0.50570(7)
Br10 Br 0.86019(11) 1.33259(10) 0.77013(7)
Br11 Br 1.00115(10) 0.63702(8) 0.51779(5)
Br12 Br 0.66434(13) 0.46953(11) 0.59998(9)
Br13 Br 0.75526(10) 1.18897(9) 0.34378(6)
Br14 Br 1.07891(10) 1.40745(9) 0.26995(6)
Br15 Br 0.95600(10) 0.58915(8) 0.35191(5)
Br16 Br 0.85959(10) 0.53950(10) 0.09002(5)
S5 S 0.7880(3) 1.3193(2) 0.63826(17)
S6 S 0.8519(2) 0.5174(2) 0.56277(13)
S7 S 0.8921(2) 1.3293(2) 0.30118(13)
S8 S 0.9010(2) 0.51725(19) 0.21779(13)
C45 C 0.7504(9) 0.8979(7) 0.6936(5)
C46 C 0.6425(9) 0.8452(8) 0.6761(5)
C47 C 0.5790(10) 0.8777(9) 0.6365(6)
F15 F 0.7696(7) 0.9811(5) 0.7319(3)
F16 F 0.7935(6) 0.8470(5) 0.7231(3)
F17 F 0.6160(7) 0.8474(7) 0.7267(4)
F18 F 0.6276(6) 0.7515(5) 0.6503(4)
F19 F 0.5919(7) 0.8602(7) 0.5838(4)
F20 F 0.5928(8) 0.9682(6) 0.6571(4)
F21 F 0.4885(7) 0.8307(7) 0.6306(5)
C48 C 1.0044(10) 0.9576(9) 0.1761(5)
C49 C 0.9210(11) 0.9250(12) 0.1203(6)
C50 C 0.9385(14) 0.9449(15) 0.0669(8)
F22 F 1.0535(8) 1.0450(6) 0.1774(4)
F23 F 1.0621(8) 0.9058(7) 0.1657(4)
F24 F 0.8526(10) 0.9606(12) 0.1330(5)
F25 F 0.8882(10) 0.8285(9) 0.1113(4)
F26 F 0.9526(14) 1.0310(12) 0.0672(6)
F27 F 0.8704(10) 0.8948(12) 0.0212(5)
F28 F 1.0151(10) 0.9260(12) 0.0551(5)
N5 N 0.8027(7) 0.9933(6) 0.6306(4)
N6 N 0.8041(7) 0.8347(7) 0.6128(4)
N7 N 0.9714(8) 1.0323(6) 0.2638(4)
N8 N 0.9590(8) 0.8693(7) 0.2418(4)
C51 C 0.8297(8) 0.9995(8) 0.5822(5)
C52 C 0.8473(9) 1.0895(8) 0.5668(5)
C53 C 0.8764(9) 1.0941(8) 0.5180(5)
H9 H 0.8924 1.1533 0.5098
C54 C 0.8850(8) 1.0165(7) 0.4775(5)
C55 C 0.8669(8) 0.9293(7) 0.4924(4)
C56 C 0.8448(8) 0.9241(7) 0.5450(5)
C57 C 0.8303(8) 0.8413(7) 0.5627(4)
C58 C 0.8423(9) 0.7606(7) 0.5267(5)
C59 C 0.8609(8) 0.7656(8) 0.4746(4)
H10 H 0.8664 0.7117 0.4501
C60 C 0.8725(8) 0.8487(8) 0.4551(5)
C61 C 0.9098(9) 1.0213(8) 0.4243(5)
C62 C 0.9217(9) 1.1038(7) 0.4031(5)
H11 H 0.9169 1.1584 0.4272
C63 C 0.9388(9) 1.1074(7) 0.3520(5)
C64 C 0.9518(9) 1.0284(8) 0.3148(5)
C65 C 0.9342(9) 0.9434(7) 0.3328(4)
C66 C 0.9123(9) 0.9393(7) 0.3853(5)
C67 C 0.8904(8) 0.8522(7) 0.4000(5)
C68 C 0.8836(8) 0.7698(7) 0.3558(5)
H12 H 0.8620 0.7105 0.3632
C69 C 0.9063(9) 0.7720(8) 0.3049(5)
C70 C 0.9347(9) 0.8624(8) 0.2913(5)
C71 C 0.7925(9) 0.9104(9) 0.6426(5)
C72 C 0.9764(11) 0.9530(8) 0.2312(5)
C73 C 0.8332(9) 1.1704(8) 0.6037(5)
C74 C 0.7960(10) 1.2345(9) 0.5831(5)
C75 C 0.8369(10) 1.2730(8) 0.6902(6)
C76 C 0.8574(8) 1.1953(8) 0.6671(5)
H13 H 0.8850 1.1609 0.6903
C77 C 0.8312(8) 0.6720(8) 0.5451(5)
C78 C 0.8890(10) 0.6171(8) 0.5413(5)
C79 C 0.7543(10) 0.5475(9) 0.5780(6)
C80 C 0.7546(10) 0.6325(8) 0.5667(5)
H14 H 0.7082 0.6615 0.5728
C81 C 0.9409(9) 1.1930(7) 0.3288(5)
C82 C 0.8688(10) 1.2321(8) 0.3269(5)
C83 C 1.0000(9) 1.3201(8) 0.2947(4)
C84 C 1.0170(9) 1.2422(8) 0.3107(5)
H15 H 1.0722 1.2247 0.3096
C85 C 0.8989(8) 0.6861(8) 0.2620(5)
C86 C 0.9151(8) 0.6060(7) 0.2772(5)
C87 C 0.8748(8) 0.5842(8) 0.1707(5)
C88 C 0.8757(8) 0.6686(8) 0.1990(5)
H16 H 0.8622 0.7132 0.1792
Cl1 Cl 0.1262(4) 0.5119(4) 1.0647(3)
Cl2 Cl 0.0218(4) 0.3854(4) 1.1173(2)
Cl3 Cl 0.0539(5) 0.3165(5) 1.0073(3)
C89 C 0.0360(12) 0.4096(8) 1.0519(6)
H17 H -0.0241 0.4178 1.0307
Cl4? Cl 0.4254(11) 0.9646(10) 0.5794(6)
Cl5? Cl 0.4099(6) 0.9499(6) 0.4573(4)
C90? C 0.478(2) 0.943(3) 0.5231(5)
H18? H 0.4934 0.8824 0.5188
loop_
_geom_bond_atom_site_label_1
_geom_bond_atom_site_label_2
_geom_bond_site_symmetry_1
_geom_bond_site_symmetry_2
Br1 C30 1_555 1_555
Br2 C31 1_555 1_555
Br3 C34 1_555 1_555
Br4 C35 1_555 1_555
Br5 C38 1_555 1_555
Br6 C39 1_555 1_555
Br7 C42 1_555 1_555
Br8 C43 1_555 1_555
S1 C30 1_555 1_555
S2 C34 1_555 1_555
S3 C38 1_555 1_555
S4 C42 1_555 1_555
C1 C2 1_555 1_555
C2 C3 1_555 1_555
C3 F5 1_555 1_555
F1 C1 1_555 1_555
F2 C1 1_555 1_555
F3 C2 1_555 1_555
F4 C2 1_555 1_555
F6 C3 1_555 1_555
F7 C3 1_555 1_555
C4 C5 1_555 1_555
C5 C6 1_555 1_555
C6 F12 1_555 1_555
F8 C4 1_555 1_555
F9 C4 1_555 1_555
F10 C5 1_555 1_555
F11 C5 1_555 1_555
F13 C6 1_555 1_555
F14 C6 1_555 1_555
N1 C7 1_555 1_555
N2 C13 1_555 1_555
N3 C20 1_555 1_555
N4 C26 1_555 1_555
C7 C8 1_555 1_555
C8 C9 1_555 1_555
C9 H1 1_555 1_555
C10 C9 1_555 1_555
C11 C10 1_555 1_555
C12 C7 1_555 1_555
C13 C12 1_555 1_555
C14 C13 1_555 1_555
C15 C14 1_555 1_555
H2 C15 1_555 1_555
C16 C11 1_555 1_555
C17 C10 1_555 1_555
C18 C17 1_555 1_555
H3 C18 1_555 1_555
C19 C18 1_555 1_555
C20 C19 1_555 1_555
C21 C20 1_555 1_555
C22 C17 1_555 1_555
C23 C16 1_555 1_555
C24 C23 1_555 1_555
H4 C24 1_555 1_555
C25 C24 1_555 1_555
C26 C21 1_555 1_555
C27 C1 1_555 1_555
C28 C4 1_555 1_555
C29 C8 1_555 1_555
C30 C29 1_555 1_555
C31 S1 1_555 1_555
C32 C29 1_555 1_555
H5 C32 1_555 1_555
C33 C14 1_555 1_555
C34 C33 1_555 1_555
C35 S2 1_555 1_555
C36 C33 1_555 1_555
H6 C36 1_555 1_555
C37 C19 1_555 1_555
C38 C37 1_555 1_555
C39 S3 1_555 1_555
C40 C37 1_555 1_555
H7 C40 1_555 1_555
C41 C25 1_555 1_555
C42 C41 1_555 1_555
C43 S4 1_555 1_555
C44 C41 1_555 1_555
H8 C44 1_555 1_555
Br9 C74 1_555 1_555
Br10 C75 1_555 1_555
Br11 C78 1_555 1_555
Br12 C79 1_555 1_555
Br13 C82 1_555 1_555
Br14 C83 1_555 1_555
Br15 C86 1_555 1_555
Br16 C87 1_555 1_555
S5 C74 1_555 1_555
S6 C78 1_555 1_555
S7 C82 1_555 1_555
S8 C86 1_555 1_555
C45 C46 1_555 1_555
C46 C47 1_555 1_555
C47 F19 1_555 1_555
F15 C45 1_555 1_555
F16 C45 1_555 1_555
F17 C46 1_555 1_555
F18 C46 1_555 1_555
F20 C47 1_555 1_555
F21 C47 1_555 1_555
C48 C49 1_555 1_555
C49 C50 1_555 1_555
C50 F26 1_555 1_555
F22 C48 1_555 1_555
F23 C48 1_555 1_555
F24 C49 1_555 1_555
F25 C49 1_555 1_555
F27 C50 1_555 1_555
F28 C50 1_555 1_555
N5 C51 1_555 1_555
N6 C57 1_555 1_555
N7 C64 1_555 1_555
N8 C70 1_555 1_555
C51 C52 1_555 1_555
C52 C53 1_555 1_555
C53 H9 1_555 1_555
C54 C53 1_555 1_555
C55 C54 1_555 1_555
C56 C51 1_555 1_555
C57 C56 1_555 1_555
C58 C57 1_555 1_555
C59 C58 1_555 1_555
H10 C59 1_555 1_555
C60 C55 1_555 1_555
C61 C54 1_555 1_555
C62 C61 1_555 1_555
H11 C62 1_555 1_555
C63 C62 1_555 1_555
C64 C63 1_555 1_555
C65 C64 1_555 1_555
C66 C61 1_555 1_555
C67 C60 1_555 1_555
C68 C67 1_555 1_555
H12 C68 1_555 1_555
C69 C68 1_555 1_555
C70 C65 1_555 1_555
C71 C45 1_555 1_555
C72 C48 1_555 1_555
C73 C52 1_555 1_555
C74 C73 1_555 1_555
C75 S5 1_555 1_555
C76 C73 1_555 1_555
H13 C76 1_555 1_555
C77 C58 1_555 1_555
C78 C77 1_555 1_555
C79 S6 1_555 1_555
C80 C77 1_555 1_555
H14 C80 1_555 1_555
C81 C63 1_555 1_555
C82 C81 1_555 1_555
C83 S7 1_555 1_555
C84 C81 1_555 1_555
H15 C84 1_555 1_555
C85 C69 1_555 1_555
C86 C85 1_555 1_555
C87 S8 1_555 1_555
C88 C85 1_555 1_555
H16 C88 1_555 1_555
Cl1 C89 1_555 1_555
Cl2 C89 1_555 1_555
Cl3 C89 1_555 1_555
C89 H17 1_555 1_555
N1 C27 1_555 1_555
N2 C27 1_555 1_555
N3 C28 1_555 1_555
N4 C28 1_555 1_555
C11 C12 1_555 1_555
C15 C16 1_555 1_555
C21 C22 1_555 1_555
C22 C23 1_555 1_555
C25 C26 1_555 1_555
C31 C32 1_555 1_555
C35 C36 1_555 1_555
C39 C40 1_555 1_555
C43 C44 1_555 1_555
N5 C71 1_555 1_555
N6 C71 1_555 1_555
N7 C72 1_555 1_555
N8 C72 1_555 1_555
C55 C56 1_555 1_555
C59 C60 1_555 1_555
C65 C66 1_555 1_555
C66 C67 1_555 1_555
C69 C70 1_555 1_555
C75 C76 1_555 1_555
C79 C80 1_555 1_555
C83 C84 1_555 1_555
C87 C88 1_555 1_555

#END
