
#######################################################################
#
#                 Cambridge Crystallographic Data Centre
#                                CCDC 
#
#######################################################################
#
# If this CIF has been generated from an entry in the Cambridge 
# Structural Database, then it will include bibliographic, chemical, 
# crystal, experimental, refinement or atomic coordinate data resulting 
# from the CCDC's data processing and validation procedures.
#
#######################################################################

data_NERHAW
_chemical_formula_moiety         'C68 H64 F14 N4 S4'
_chemical_name_systematic        
2,9-bis(heptafluoropropyl)-4,7,11,14-tetrakis(3-hexylthiophen-2-yl)benzo[1,2,3-gh:4,5,6-g'h']diperimidine
_symmetry_cell_setting           triclinic
_symmetry_space_group_name_H-M   'P -1'
_symmetry_Int_Tables_number      2
_space_group_name_Hall           '-P 1'
loop_
_symmetry_equiv_pos_site_id
_symmetry_equiv_pos_as_xyz
1 x,y,z
2 -x,-y,-z
_cell_length_a                   15.3304(3)
_cell_length_b                   17.3728(4)
_cell_length_c                   21.0398(4)
_cell_angle_alpha                107.5526(18)
_cell_angle_beta                 100.5745(16)
_cell_angle_gamma                111.0829(18)
_cell_volume                     4708.86
_exptl_crystal_colour            black
_exptl_crystal_description       plate
_cell_formula_units_Z            3
loop_
_atom_site_label
_atom_site_type_symbol
_atom_site_fract_x
_atom_site_fract_y
_atom_site_fract_z
S1 S 0.50336(6) 0.41287(5) 0.73350(4)
S2 S 0.72139(5) 0.35746(4) 0.40303(4)
S3 S -0.15263(5) 0.16623(5) 0.37841(4)
S4 S 0.17230(5) 0.09284(5) 0.08875(4)
F1 F 0.75527(12) 0.47227(11) 0.69295(9)
F2 F 0.81561(12) 0.45025(13) 0.60787(10)
F3 F 0.70990(14) 0.29259(13) 0.67566(12)
F4 F 0.79477(16) 0.29130(14) 0.60254(11)
F5 F 0.86678(15) 0.42713(15) 0.78015(10)
F6 F 0.95241(12) 0.44575(13) 0.71225(10)
F7 F 0.90151(17) 0.32211(14) 0.72723(13)
F8 F -0.26818(12) -0.12383(12) 0.19360(10)
F9 F -0.21864(11) -0.12944(11) 0.10220(9)
F10 F -0.28204(14) 0.02883(14) 0.20315(9)
F11 F -0.21708(13) 0.03609(13) 0.12067(10)
F12 F -0.43374(14) -0.13345(17) 0.11028(15)
F13 F -0.37248(17) -0.12155(18) 0.02841(11)
F14 F -0.41427(14) -0.02143(15) 0.08030(11)
N1 N 0.57431(15) 0.35042(14) 0.61091(12)
N2 N 0.63745(15) 0.32937(14) 0.51438(12)
N3 N -0.10326(15) 0.02656(15) 0.28061(12)
N4 N -0.04155(15) -0.00236(15) 0.18339(12)
C1 C 0.48101(19) 0.30639(17) 0.56560(14)
C2 C 0.39936(19) 0.28926(17) 0.59315(14)
C3 C 0.30547(19) 0.24891(17) 0.54605(14)
H1 H 0.251(2) 0.240(2) 0.5671(16)
C4 C 0.28354(18) 0.21796(16) 0.47128(13)
C5 C 0.36351(18) 0.22812(16) 0.44385(14)
C6 C 0.46204(18) 0.27415(16) 0.49211(14)
C7 C 0.54468(18) 0.28602(16) 0.46803(14)
C8 C 0.52883(18) 0.24972(17) 0.39309(14)
C9 C 0.43364(19) 0.20765(17) 0.34831(15)
H2 H 0.425(2) 0.189(2) 0.3031(17)
C10 C 0.34840(18) 0.19385(16) 0.37062(14)
C11 C 0.18534(18) 0.17463(16) 0.42332(14)
C12 C 0.10081(19) 0.16988(17) 0.44498(14)
H3 H 0.110(2) 0.201(2) 0.4902(17)
C13 C 0.00615(19) 0.12606(17) 0.39920(14)
C14 C -0.01001(18) 0.07908(17) 0.32587(14)
C15 C 0.07225(18) 0.08774(17) 0.30173(14)
C16 C 0.17048(18) 0.13687(16) 0.34965(14)
C17 C 0.25020(18) 0.14579(17) 0.32239(14)
C18 C 0.22722(19) 0.10486(18) 0.24790(14)
H4 H 0.276(2) 0.109(2) 0.2293(16)
C19 C 0.13329(19) 0.05589(17) 0.20056(14)
C20 C 0.05180(18) 0.04599(17) 0.22824(14)
C21 C 0.64491(19) 0.35952(17) 0.58202(14)
C22 C -0.11111(19) -0.01072(18) 0.21361(14)
C23 C 0.74978(19) 0.40818(18) 0.63475(15)
C24 C 0.7824(2) 0.3443(2) 0.65768(17)
C25 C 0.8776(2) 0.3865(2) 0.72092(17)
C26 C -0.2169(2) -0.07210(19) 0.16391(15)
C27 C -0.2714(2) -0.0196(2) 0.14521(16)
C28 C -0.3756(2) -0.0767(2) 0.08913(19)
C29 C 0.41689(19) 0.30873(18) 0.66861(15)
C30 C 0.3729(2) 0.2509(2) 0.69813(16)
C31 C 0.4080(2) 0.2933(2) 0.77321(16)
H5 H 0.3855 0.2636 0.8024
C32 C 0.4762(2) 0.3798(2) 0.79875(16)
H6 H 0.5057 0.4180 0.8476
C33 C 0.3058(2) 0.1512(2) 0.65948(17)
H7 H 0.2768 0.1372 0.6089
H8 H 0.2509 0.1347 0.6789
C34 C 0.3617(3) 0.0952(2) 0.66628(18)
H9 H 0.3954 0.1134 0.7170
H10 H 0.3134 0.0310 0.6469
C35 C 0.4381(3) 0.1049(2) 0.6286(2)
H11 H 0.4881 0.1687 0.6493
H12 H 0.4049 0.0891 0.5783
C36 C 0.4907(3) 0.0460(2) 0.6330(2)
H13 H 0.4415 -0.0179 0.6078
H14 H 0.5174 0.0571 0.6831
C37 C 0.5754(3) 0.0615(3) 0.6021(3)
H15 H 0.5501 0.0545 0.5529
H16 H 0.6274 0.1241 0.6295
C38 C 0.6215(4) -0.0030(3) 0.6027(3)
H17 H 0.5711 -0.0651 0.5740
H18 H 0.6471 0.0037 0.6513
H19 H 0.6758 0.0108 0.5832
C39 C 0.61219(18) 0.25807(17) 0.36575(14)
C40 C 0.61481(19) 0.19672(18) 0.30743(14)
C41 C 0.7050(2) 0.2329(2) 0.29326(16)
H20 H 0.7196 0.2001 0.2551
C42 C 0.7679(2) 0.3186(2) 0.33957(16)
H21 H 0.8303 0.3528 0.3369
C43 C 0.5380(2) 0.10118(18) 0.26283(15)
H22 H 0.4863 0.0849 0.2850
H23 H 0.5694 0.0601 0.2611
C44 C 0.4898(2) 0.0882(2) 0.18775(16)
H24 H 0.4588 0.1297 0.1900
H25 H 0.5421 0.1054 0.1662
C45 C 0.4120(2) -0.0067(2) 0.14027(17)
H26 H 0.3577 -0.0234 0.1601
H27 H 0.4418 -0.0490 0.1388
C46 C 0.3698(2) -0.0158(2) 0.06524(17)
H28 H 0.3375 0.0246 0.0671
H29 H 0.4254 0.0052 0.0473
C47 C 0.2956(2) -0.1102(2) 0.01313(18)
H30 H 0.2429 -0.1335 0.0330
H31 H 0.2643 -0.1069 -0.0309
C48 C 0.3388(3) -0.1761(2) -0.0050(2)
H32 H 0.2863 -0.2353 -0.0384
H33 H 0.3690 -0.1809 0.0381
H34 H 0.3893 -0.1551 -0.0264
C49 C -0.07840(19) 0.13033(17) 0.42227(14)
C50 C -0.1078(2) 0.1142(2) 0.47617(16)
C51 C -0.1897(2) 0.1338(2) 0.48214(18)
H35 H -0.2202 0.1266 0.5168
C52 C -0.2194(2) 0.1633(2) 0.43415(18)
H36 H -0.2717 0.1806 0.4318
C53 C -0.0644(3) 0.0782(3) 0.52224(19)
H37 H -0.0092 0.0690 0.5087
H38 H -0.1152 0.0192 0.5159
C54 C -0.0252(4) 0.1454(3) 0.6018(2)
H39 H 0.0322 0.2012 0.6094
H40 H -0.0777 0.1618 0.6131
C55 C 0.0046(4) 0.1058(3) 0.6495(2)
H41 H 0.0631 0.0972 0.6426
H42 H -0.0498 0.0460 0.6373
C56 C 0.0294(4) 0.1643(3) 0.7261(2)
H43 H -0.0293 0.1734 0.7320
H44 H 0.0417 0.1312 0.7549
C57 C 0.1145(4) 0.2525(3) 0.7541(3)
H45 H 0.0965 0.2908 0.7330
H46 H 0.1693 0.2448 0.7388
C58 C 0.1516(4) 0.3013(3) 0.8334(2)
H47 H 0.2048 0.3615 0.8473
H48 H 0.1768 0.2674 0.8549
H49 H 0.0972 0.3066 0.8495
C59 C 0.11492(18) 0.01833(19) 0.12406(14)
C60 C 0.05985(19) -0.0674(2) 0.07345(15)
C61 C 0.0659(2) -0.0709(2) 0.00568(16)
H50 H 0.0332 -0.1249 -0.0359
C62 C 0.1224(2) 0.0095(3) 0.00618(17)
H51 H 0.1331 0.0185 -0.0346
C63 C 0.0032(2) -0.1496(2) 0.08461(18)
H52 H -0.0646 -0.1816 0.0501
H53 H -0.0024 -0.1307 0.1324
C64 C 0.0499(2) -0.2152(2) 0.07706(18)
H54 H 0.0011 -0.2732 0.0740
H55 H 0.0653 -0.2267 0.0324
C65 C 0.1436(2) -0.1808(2) 0.13763(18)
H56 H 0.1275 -0.1718 0.1820
H57 H 0.1912 -0.1215 0.1420
C66 C 0.1930(3) -0.2438(3) 0.1292(2)
H58 H 0.1448 -0.3033 0.1240
H59 H 0.2098 -0.2521 0.0851
C67 C 0.2859(3) -0.2112(3) 0.1898(2)
H60 H 0.2686 -0.2077 0.2333
H61 H 0.3325 -0.1498 0.1975
C68 C 0.3373(3) -0.2728(4) 0.1765(3)
H62 H 0.3568 -0.2748 0.1344
H63 H 0.2917 -0.3336 0.1692
H64 H 0.3963 -0.2492 0.2174
S5 S 0.03865(5) 0.39757(6) 0.45750(4)
S6 S 0.47162(6) 0.29765(5) 0.21911(4)
F15 F -0.03570(11) 0.20566(10) 0.26129(9)
F16 F 0.03283(11) 0.20431(10) 0.17919(8)
F17 F -0.01213(13) 0.37371(12) 0.28606(9)
F18 F 0.07099(11) 0.38453(11) 0.21283(10)
F19 F -0.17112(12) 0.22861(13) 0.17315(10)
F20 F -0.08652(14) 0.25542(15) 0.10494(9)
F21 F -0.11977(14) 0.35711(13) 0.16634(11)
N5 N 0.13500(15) 0.33205(14) 0.36310(12)
N6 N 0.21104(15) 0.31533(14) 0.27276(11)
C69 C 0.22395(18) 0.37999(16) 0.41366(14)
C70 C 0.23090(18) 0.41439(16) 0.48712(14)
C71 C 0.67664(19) 0.53618(17) 0.46382(15)
H65 H 0.673(2) 0.515(2) 0.4206(17)
C72 C 0.58704(18) 0.51820(16) 0.48003(13)
C73 C 0.40647(18) 0.44968(16) 0.44794(13)
C74 C 0.31192(18) 0.39896(16) 0.39524(14)
C75 C 0.30096(18) 0.36430(16) 0.32251(14)
C76 C 0.38885(19) 0.38183(16) 0.30157(13)
C77 C 0.47929(19) 0.43311(17) 0.35381(14)
H66 H 0.534(2) 0.447(2) 0.3379(16)
C78 C 0.49258(18) 0.46741(16) 0.42731(13)
C79 C 0.13530(19) 0.30450(17) 0.29698(14)
C80 C 0.03317(19) 0.25790(17) 0.24078(14)
C81 C -0.00078(19) 0.32698(18) 0.22741(15)
C82 C -0.0971(2) 0.2903(2) 0.16636(16)
C83 C 0.14260(19) 0.40009(17) 0.50919(15)
C84 C 0.1303(2) 0.39405(19) 0.57133(16)
C85 C 0.0360(2) 0.3865(2) 0.57457(18)
H67 H 0.0139 0.3800 0.6128
C86 C -0.0191(2) 0.3893(2) 0.51841(18)
H68 H -0.0829 0.3870 0.5134
C87 C 0.2007(2) 0.3943(2) 0.63170(17)
H69 H 0.2600 0.3943 0.6193
H70 H 0.1683 0.3386 0.6390
C88 C 0.2331(3) 0.4763(2) 0.70072(17)
H71 H 0.2653 0.5318 0.6931
H72 H 0.1735 0.4762 0.7126
C89 C 0.3035(3) 0.4786(2) 0.76248(19)
H73 H 0.3679 0.4909 0.7545
H74 H 0.2773 0.4183 0.7639
C90 C 0.3210(3) 0.5483(3) 0.83399(19)
H75 H 0.3444 0.6084 0.8321
H76 H 0.2572 0.5343 0.8433
C91 C 0.3954(3) 0.5520(3) 0.8945(2)
H77 H 0.4585 0.5641 0.8845
H78 H 0.3709 0.4924 0.8972
C92 C 0.4152(4) 0.6231(4) 0.9655(2)
H79 H 0.4408 0.6826 0.9638
H80 H 0.4641 0.6219 1.0020
H81 H 0.3536 0.6106 0.9767
C93 C 0.38594(19) 0.34155(18) 0.22819(14)
C94 C 0.3325(2) 0.33099(19) 0.16373(15)
C95 C 0.3614(2) 0.2862(2) 0.10855(16)
H82 H 0.3322 0.2734 0.0604
C96 C 0.4332(2) 0.2637(2) 0.13006(17)
H83 H 0.4592 0.2328 0.0994
C97 C 0.2563(2) 0.3637(2) 0.15163(16)
H84 H 0.2668 0.4120 0.1961
H85 H 0.1899 0.3137 0.1381
C98 C 0.2600(2) 0.4002(2) 0.09333(18)
H86 H 0.3266 0.4500 0.1071
H87 H 0.2501 0.3518 0.0491
C99 C 0.1836(3) 0.4340(2) 0.07924(19)
H88 H 0.1921 0.4814 0.1236
H89 H 0.1167 0.3838 0.0637
C100 C 0.1915(3) 0.4723(3) 0.0227(2)
H90 H 0.2559 0.5263 0.0405
H91 H 0.1905 0.4270 -0.0198
C101 C 0.1099(3) 0.4977(3) 0.0022(2)
H92 H 0.1103 0.5423 0.0448
H93 H 0.0455 0.4436 -0.0162
C102 C 0.1185(4) 0.5369(4) -0.0531(3)
H94 H 0.1214 0.4944 -0.0947
H95 H 0.1789 0.5939 -0.0337
H96 H 0.0608 0.5478 -0.0667
S5A S 0.96135(5) 0.60243(6) 0.54250(4)
S6A S 0.52838(6) 0.70235(5) 0.78089(4)
F15A F 1.03570(11) 0.79434(10) 0.73871(9)
F16A F 0.96717(11) 0.79569(10) 0.82081(8)
F17A F 1.01213(13) 0.62629(12) 0.71394(9)
F18A F 0.92901(11) 0.61547(11) 0.78717(10)
F19A F 1.17112(12) 0.77139(13) 0.82685(10)
F20A F 1.08652(14) 0.74458(15) 0.89506(9)
F21A F 1.11977(14) 0.64289(13) 0.83366(11)
N5A N 0.86500(15) 0.66795(14) 0.63690(12)
N6A N 0.78896(15) 0.68467(14) 0.72724(11)
C69A C 0.77605(18) 0.62001(16) 0.58634(14)
C70A C 0.76910(18) 0.58561(16) 0.51288(14)
C71A C 0.32336(19) 0.46382(17) 0.53618(15)
H65A H 0.327(2) 0.485(2) 0.5794(17)
C72A C 0.41296(18) 0.48180(16) 0.51997(13)
C73A C 0.59353(18) 0.55032(16) 0.55206(13)
C74A C 0.68808(18) 0.60104(16) 0.60476(14)
C75A C 0.69904(18) 0.63570(16) 0.67749(14)
C76A C 0.61115(19) 0.61817(16) 0.69843(13)
C77A C 0.52071(19) 0.56689(17) 0.64619(14)
H66A H 0.466(2) 0.553(2) 0.6621(16)
C78A C 0.50742(18) 0.53259(16) 0.57269(13)
C79A C 0.86470(19) 0.69550(17) 0.70302(14)
C80A C 0.96683(19) 0.74210(17) 0.75922(14)
C81A C 1.00078(19) 0.67302(18) 0.77259(15)
C82A C 1.0971(2) 0.7097(2) 0.83364(16)
C83A C 0.85740(19) 0.59991(17) 0.49081(15)
C84A C 0.8697(2) 0.60595(19) 0.42867(16)
C85A C 0.9640(2) 0.6135(2) 0.42543(18)
H67A H 0.9861 0.6200 0.3872
C86A C 1.0191(2) 0.6107(2) 0.48159(18)
H68A H 1.0829 0.6130 0.4866
C87A C 0.7993(2) 0.6057(2) 0.36830(17)
H69A H 0.7400 0.6057 0.3807
H70A H 0.8317 0.6614 0.3610
C88A C 0.7669(3) 0.5237(2) 0.29928(17)
H71A H 0.7347 0.4682 0.3069
H72A H 0.8265 0.5238 0.2874
C89A C 0.6965(3) 0.5214(2) 0.23752(19)
H73A H 0.6321 0.5091 0.2455
H74A H 0.7227 0.5817 0.2361
C90A C 0.6790(3) 0.4517(3) 0.16601(19)
H75A H 0.6556 0.3916 0.1679
H76A H 0.7428 0.4657 0.1567
C91A C 0.6046(3) 0.4480(3) 0.1055(2)
H77A H 0.5415 0.4359 0.1155
H78A H 0.6291 0.5076 0.1028
C92A C 0.5848(4) 0.3769(4) 0.0345(2)
H79A H 0.5592 0.3174 0.0362
H80A H 0.5359 0.3781 -0.0020
H81A H 0.6464 0.3894 0.0233
C93A C 0.61406(19) 0.65845(18) 0.77181(14)
C94A C 0.6675(2) 0.66901(19) 0.83627(15)
C95A C 0.6386(2) 0.7138(2) 0.89145(16)
H82A H 0.6678 0.7266 0.9396
C96A C 0.5668(2) 0.7363(2) 0.86994(17)
H83A H 0.5408 0.7672 0.9006
C97A C 0.7437(2) 0.6363(2) 0.84837(16)
H84A H 0.7332 0.5880 0.8039
H85A H 0.8101 0.6863 0.8619
C98A C 0.7400(2) 0.5998(2) 0.90667(18)
H86A H 0.6734 0.5500 0.8929
H87A H 0.7499 0.6482 0.9509
C99A C 0.8164(3) 0.5660(2) 0.92076(19)
H88A H 0.8079 0.5186 0.8764
H89A H 0.8833 0.6162 0.9363
C100A C 0.8085(3) 0.5277(3) 0.9773(2)
H90A H 0.7441 0.4737 0.9595
H91A H 0.8095 0.5730 1.0198
C101A C 0.8901(3) 0.5023(3) 0.9978(2)
H92A H 0.8897 0.4577 0.9552
H93A H 0.9545 0.5564 1.0162
C102A C 0.8815(4) 0.4631(4) 1.0531(3)
H94A H 0.8786 0.5056 1.0947
H95A H 0.8211 0.4061 1.0337
H96A H 0.9392 0.4522 1.0667
loop_
_geom_bond_atom_site_label_1
_geom_bond_atom_site_label_2
_geom_bond_site_symmetry_1
_geom_bond_site_symmetry_2
S1 C29 1_555 1_555
S2 C39 1_555 1_555
S3 C49 1_555 1_555
S4 C59 1_555 1_555
F1 C23 1_555 1_555
F2 C23 1_555 1_555
F3 C24 1_555 1_555
F4 C24 1_555 1_555
F5 C25 1_555 1_555
F6 C25 1_555 1_555
F7 C25 1_555 1_555
F8 C26 1_555 1_555
F9 C26 1_555 1_555
F10 C27 1_555 1_555
F11 C27 1_555 1_555
F12 C28 1_555 1_555
F13 C28 1_555 1_555
F14 C28 1_555 1_555
N1 C1 1_555 1_555
N2 C7 1_555 1_555
N3 C14 1_555 1_555
N4 C20 1_555 1_555
C1 C2 1_555 1_555
C2 C3 1_555 1_555
C3 H1 1_555 1_555
C4 C3 1_555 1_555
C5 C4 1_555 1_555
C6 C1 1_555 1_555
C7 C6 1_555 1_555
C8 C7 1_555 1_555
C9 C8 1_555 1_555
H2 C9 1_555 1_555
C10 C5 1_555 1_555
C11 C4 1_555 1_555
C12 C11 1_555 1_555
H3 C12 1_555 1_555
C13 C12 1_555 1_555
C14 C13 1_555 1_555
C15 C14 1_555 1_555
C16 C11 1_555 1_555
C17 C10 1_555 1_555
C18 C17 1_555 1_555
H4 C18 1_555 1_555
C19 C18 1_555 1_555
C20 C15 1_555 1_555
C21 N1 1_555 1_555
C22 N3 1_555 1_555
C23 C21 1_555 1_555
C24 C23 1_555 1_555
C25 C24 1_555 1_555
C26 C22 1_555 1_555
C27 C26 1_555 1_555
C28 C27 1_555 1_555
C29 C2 1_555 1_555
C30 C29 1_555 1_555
C31 C30 1_555 1_555
H5 C31 1_555 1_555
C32 S1 1_555 1_555
H6 C32 1_555 1_555
C33 C30 1_555 1_555
H7 C33 1_555 1_555
H8 C33 1_555 1_555
C34 C33 1_555 1_555
H9 C34 1_555 1_555
H10 C34 1_555 1_555
C35 C34 1_555 1_555
H11 C35 1_555 1_555
H12 C35 1_555 1_555
C36 C35 1_555 1_555
H13 C36 1_555 1_555
H14 C36 1_555 1_555
C37 C36 1_555 1_555
H15 C37 1_555 1_555
H16 C37 1_555 1_555
C38 C37 1_555 1_555
H17 C38 1_555 1_555
H18 C38 1_555 1_555
H19 C38 1_555 1_555
C39 C8 1_555 1_555
C40 C39 1_555 1_555
C41 C40 1_555 1_555
H20 C41 1_555 1_555
C42 S2 1_555 1_555
H21 C42 1_555 1_555
C43 C40 1_555 1_555
H22 C43 1_555 1_555
H23 C43 1_555 1_555
C44 C43 1_555 1_555
H24 C44 1_555 1_555
H25 C44 1_555 1_555
C45 C44 1_555 1_555
H26 C45 1_555 1_555
H27 C45 1_555 1_555
C46 C45 1_555 1_555
H28 C46 1_555 1_555
H29 C46 1_555 1_555
C47 C46 1_555 1_555
H30 C47 1_555 1_555
H31 C47 1_555 1_555
C48 C47 1_555 1_555
H32 C48 1_555 1_555
H33 C48 1_555 1_555
H34 C48 1_555 1_555
C49 C13 1_555 1_555
C50 C49 1_555 1_555
C51 C50 1_555 1_555
H35 C51 1_555 1_555
C52 S3 1_555 1_555
H36 C52 1_555 1_555
C53 C50 1_555 1_555
H37 C53 1_555 1_555
H38 C53 1_555 1_555
C54 C53 1_555 1_555
H39 C54 1_555 1_555
H40 C54 1_555 1_555
C55 C54 1_555 1_555
H41 C55 1_555 1_555
H42 C55 1_555 1_555
C56 C55 1_555 1_555
H43 C56 1_555 1_555
H44 C56 1_555 1_555
C57 C56 1_555 1_555
H45 C57 1_555 1_555
H46 C57 1_555 1_555
C58 C57 1_555 1_555
H47 C58 1_555 1_555
H48 C58 1_555 1_555
H49 C58 1_555 1_555
C59 C19 1_555 1_555
C60 C59 1_555 1_555
C61 C60 1_555 1_555
H50 C61 1_555 1_555
C62 S4 1_555 1_555
H51 C62 1_555 1_555
C63 C60 1_555 1_555
H52 C63 1_555 1_555
H53 C63 1_555 1_555
C64 C63 1_555 1_555
H54 C64 1_555 1_555
H55 C64 1_555 1_555
C65 C64 1_555 1_555
H56 C65 1_555 1_555
H57 C65 1_555 1_555
C66 C65 1_555 1_555
H58 C66 1_555 1_555
H59 C66 1_555 1_555
C67 C66 1_555 1_555
H60 C67 1_555 1_555
H61 C67 1_555 1_555
C68 C67 1_555 1_555
H62 C68 1_555 1_555
H63 C68 1_555 1_555
H64 C68 1_555 1_555
S5 C83 1_555 1_555
S6 C93 1_555 1_555
F15 C80 1_555 1_555
F16 C80 1_555 1_555
F17 C81 1_555 1_555
F18 C81 1_555 1_555
F19 C82 1_555 1_555
F20 C82 1_555 1_555
F21 C82 1_555 1_555
N5 C69 1_555 1_555
N6 C75 1_555 1_555
C69 C70 1_555 1_555
C70 C83 1_555 1_555
C71 H65 1_555 1_555
C72 C71 1_555 1_555
C73 C74 1_555 1_555
C74 C69 1_555 1_555
C75 C74 1_555 1_555
C76 C75 1_555 1_555
C77 C76 1_555 1_555
H66 C77 1_555 1_555
C78 C72 1_555 1_555
C79 N5 1_555 1_555
C80 C79 1_555 1_555
C81 C80 1_555 1_555
C82 C81 1_555 1_555
C83 C84 1_555 1_555
C84 C85 1_555 1_555
C85 H67 1_555 1_555
C86 S5 1_555 1_555
H68 C86 1_555 1_555
C87 C84 1_555 1_555
H69 C87 1_555 1_555
H70 C87 1_555 1_555
C88 C87 1_555 1_555
H71 C88 1_555 1_555
H72 C88 1_555 1_555
C89 C88 1_555 1_555
H73 C89 1_555 1_555
H74 C89 1_555 1_555
C90 C89 1_555 1_555
H75 C90 1_555 1_555
H76 C90 1_555 1_555
C91 C90 1_555 1_555
H77 C91 1_555 1_555
H78 C91 1_555 1_555
C92 C91 1_555 1_555
H79 C92 1_555 1_555
H80 C92 1_555 1_555
H81 C92 1_555 1_555
C93 C76 1_555 1_555
C94 C93 1_555 1_555
C95 C94 1_555 1_555
H82 C95 1_555 1_555
C96 S6 1_555 1_555
H83 C96 1_555 1_555
C97 C94 1_555 1_555
H84 C97 1_555 1_555
H85 C97 1_555 1_555
C98 C97 1_555 1_555
H86 C98 1_555 1_555
H87 C98 1_555 1_555
C99 C98 1_555 1_555
H88 C99 1_555 1_555
H89 C99 1_555 1_555
C100 C99 1_555 1_555
H90 C100 1_555 1_555
H91 C100 1_555 1_555
C101 C100 1_555 1_555
H92 C101 1_555 1_555
H93 C101 1_555 1_555
C102 C101 1_555 1_555
H94 C102 1_555 1_555
H95 C102 1_555 1_555
H96 C102 1_555 1_555
S5A C83A 1_555 1_555
S6A C93A 1_555 1_555
F15A C80A 1_555 1_555
F16A C80A 1_555 1_555
F17A C81A 1_555 1_555
F18A C81A 1_555 1_555
F19A C82A 1_555 1_555
F20A C82A 1_555 1_555
F21A C82A 1_555 1_555
N5A C69A 1_555 1_555
N6A C75A 1_555 1_555
C69A C70A 1_555 1_555
C70A C71 1_555 1_555
C71A C70 1_555 1_555
H65A C71A 1_555 1_555
C72A C73 1_555 1_555
C73A C72 1_555 1_555
C74A C69A 1_555 1_555
C75A C74A 1_555 1_555
C76A C75A 1_555 1_555
C77A C76A 1_555 1_555
H66A C77A 1_555 1_555
C78A C72A 1_555 1_555
C79A N5A 1_555 1_555
C80A C79A 1_555 1_555
C81A C80A 1_555 1_555
C82A C81A 1_555 1_555
C83A C70A 1_555 1_555
C84A C83A 1_555 1_555
C85A C84A 1_555 1_555
H67A C85A 1_555 1_555
C86A S5A 1_555 1_555
H68A C86A 1_555 1_555
C87A C84A 1_555 1_555
H69A C87A 1_555 1_555
H70A C87A 1_555 1_555
C88A C87A 1_555 1_555
H71A C88A 1_555 1_555
H72A C88A 1_555 1_555
C89A C88A 1_555 1_555
H73A C89A 1_555 1_555
H74A C89A 1_555 1_555
C90A C89A 1_555 1_555
H75A C90A 1_555 1_555
H76A C90A 1_555 1_555
C91A C90A 1_555 1_555
H77A C91A 1_555 1_555
H78A C91A 1_555 1_555
C92A C91A 1_555 1_555
H79A C92A 1_555 1_555
H80A C92A 1_555 1_555
H81A C92A 1_555 1_555
C93A C76A 1_555 1_555
C94A C93A 1_555 1_555
C95A C94A 1_555 1_555
H82A C95A 1_555 1_555
C96A S6A 1_555 1_555
H83A C96A 1_555 1_555
C97A C94A 1_555 1_555
H84A C97A 1_555 1_555
H85A C97A 1_555 1_555
C98A C97A 1_555 1_555
H86A C98A 1_555 1_555
H87A C98A 1_555 1_555
C99A C98A 1_555 1_555
H88A C99A 1_555 1_555
H89A C99A 1_555 1_555
C100A C99A 1_555 1_555
H90A C100A 1_555 1_555
H91A C100A 1_555 1_555
C101A C100A 1_555 1_555
H92A C101A 1_555 1_555
H93A C101A 1_555 1_555
C102A C101A 1_555 1_555
H94A C102A 1_555 1_555
H95A C102A 1_555 1_555
H96A C102A 1_555 1_555
N2 C21 1_555 1_555
N4 C22 1_555 1_555
C5 C6 1_555 1_555
C9 C10 1_555 1_555
C15 C16 1_555 1_555
C16 C17 1_555 1_555
C19 C20 1_555 1_555
C31 C32 1_555 1_555
C41 C42 1_555 1_555
C51 C52 1_555 1_555
C61 C62 1_555 1_555
N6 C79 1_555 1_555
C73 C78 1_555 1_555
C77 C78 1_555 1_555
C85 C86 1_555 1_555
C95 C96 1_555 1_555
N6A C79A 1_555 1_555
C71A C72A 1_555 1_555
C73A C74A 1_555 1_555
C73A C78A 1_555 1_555
C77A C78A 1_555 1_555
C85A C86A 1_555 1_555
C95A C96A 1_555 1_555

#END
