
#######################################################################
#
#                 Cambridge Crystallographic Data Centre
#                                CCDC 
#
#######################################################################
#
# If this CIF has been generated from an entry in the Cambridge 
# Structural Database, then it will include bibliographic, chemical, 
# crystal, experimental, refinement or atomic coordinate data resulting 
# from the CCDC's data processing and validation procedures.
#
#######################################################################

data_NERJIG
_chemical_formula_moiety         'C25 H27 N1 O7'
_chemical_name_systematic        
'diethyl 4-(2-benzyloxy-2-oxoethylidene)-5-(2-hydroxyphenyl)pyrrolidine-2,2-dicarboxylate'
_symmetry_cell_setting           monoclinic
_symmetry_space_group_name_H-M   'P 21/c'
_symmetry_Int_Tables_number      14
_space_group_name_Hall           '-P 2ybc'
loop_
_symmetry_equiv_pos_site_id
_symmetry_equiv_pos_as_xyz
1 x,y,z
2 -x,1/2+y,1/2-z
3 -x,-y,-z
4 x,1/2-y,1/2+z
_cell_length_a                   11.495(2)
_cell_length_b                   17.271(4)
_cell_length_c                   12.383(3)
_cell_angle_alpha                90
_cell_angle_beta                 101.31(3)
_cell_angle_gamma                90
_cell_volume                     2410.66
_exptl_crystal_colour            colorless
_exptl_crystal_description       block
_cell_formula_units_Z            4
loop_
_atom_site_label
_atom_site_type_symbol
_atom_site_fract_x
_atom_site_fract_y
_atom_site_fract_z
N1 N 0.4871(8) 0.2208(5) 0.0884(7)
H1 H 0.4711 0.2159 0.0179
O1 O 0.4779(8) 0.0839(6) 0.1985(8)
C1 C 0.4065(11) 0.2134(8) 0.1607(10)
O2 O 0.3334(8) 0.1258(5) 0.2788(7)
C2 C 0.4404(10) 0.2767(8) 0.2496(9)
H2 H 0.3943 0.3235 0.2303
H3 H 0.4294 0.2588 0.3211
O3 O 0.2163(7) 0.2765(6) 0.1148(7)
C3 C 0.5679(11) 0.2896(7) 0.2481(9)
O4 O 0.2500(7) 0.1746(6) 0.0233(8)
C4 C 0.6054(10) 0.2388(8) 0.1585(9)
H4 H 0.6391 0.1906 0.1929
O5 O 0.5145(7) 0.3913(5) 0.4093(6)
C5 C 0.4098(10) 0.1306(9) 0.2127(11)
O6 O 0.7032(7) 0.4262(5) 0.4508(6)
C6 C 0.3361(12) 0.0524(8) 0.3370(13)
H5 H 0.4177 0.0361 0.3616
H6 H 0.2956 0.0132 0.2873
O7 O 0.5422(10) 0.3409(6) -0.0259(7)
H7 H 0.5237 0.3725 -0.0791
C7 C 0.2775(17) 0.0599(10) 0.4336(13)
H8 H 0.2814 0.0112 0.4716
H9 H 0.1960 0.0744 0.4090
H10 H 0.3173 0.0988 0.4826
C8 C 0.2789(13) 0.2267(8) 0.0988(11)
C9 C 0.1206(13) 0.1718(9) -0.0378(12)
H11 H 0.0984 0.1204 -0.0659
H12 H 0.0667 0.1885 0.0089
C10 C 0.1233(13) 0.2232(9) -0.1208(12)
H13 H 0.0455 0.2276 -0.1658
H14 H 0.1778 0.2052 -0.1650
H15 H 0.1485 0.2729 -0.0902
C11 C 0.6478(9) 0.3398(7) 0.3048(9)
H16 H 0.7240 0.3431 0.2902
C12 C 0.6114(11) 0.3898(7) 0.3916(11)
C13 C 0.6790(10) 0.4735(7) 0.5396(9)
H17 H 0.6165 0.4500 0.5710
H18 H 0.6522 0.5243 0.5118
C14 C 0.7886(12) 0.4814(7) 0.6263(11)
C15 C 0.7775(12) 0.5233(8) 0.7198(11)
H19 H 0.7038 0.5423 0.7275
C16 C 0.8777(14) 0.5366(9) 0.8022(13)
H20 H 0.8716 0.5639 0.8657
C17 C 0.9794(15) 0.5102(9) 0.7882(13)
H21 H 1.0459 0.5209 0.8422
C18 C 0.9957(14) 0.4658(9) 0.6955(12)
H22 H 1.0689 0.4447 0.6905
C19 C 0.8946(14) 0.4556(9) 0.6120(13)
H23 H 0.9013 0.4309 0.5467
C20 C 0.6903(10) 0.2722(8) 0.0965(11)
C21 C 0.8126(11) 0.2578(9) 0.1278(12)
H24 H 0.8388 0.2250 0.1872
C22 C 0.8938(18) 0.2894(11) 0.0755(15)
H25 H 0.9735 0.2763 0.0973
C23 C 0.861(2) 0.3388(14) -0.0068(17)
H26 H 0.9183 0.3636 -0.0376
C24 C 0.7449(19) 0.3534(11) -0.0465(13)
H27 H 0.7227 0.3828 -0.1102
C25 C 0.6565(16) 0.3242(10) 0.0083(12)
loop_
_geom_bond_atom_site_label_1
_geom_bond_atom_site_label_2
_geom_bond_site_symmetry_1
_geom_bond_site_symmetry_2
N1 H1 1_555 1_555
O1 C5 1_555 1_555
C1 N1 1_555 1_555
O2 C5 1_555 1_555
C2 C1 1_555 1_555
H2 C2 1_555 1_555
H3 C2 1_555 1_555
O3 C8 1_555 1_555
C3 C2 1_555 1_555
O4 C8 1_555 1_555
C4 N1 1_555 1_555
H4 C4 1_555 1_555
O5 C12 1_555 1_555
C5 C1 1_555 1_555
O6 C12 1_555 1_555
C6 O2 1_555 1_555
H5 C6 1_555 1_555
H6 C6 1_555 1_555
O7 H7 1_555 1_555
C7 C6 1_555 1_555
H8 C7 1_555 1_555
H9 C7 1_555 1_555
H10 C7 1_555 1_555
C8 C1 1_555 1_555
C9 O4 1_555 1_555
H11 C9 1_555 1_555
H12 C9 1_555 1_555
C10 C9 1_555 1_555
H13 C10 1_555 1_555
H14 C10 1_555 1_555
H15 C10 1_555 1_555
C11 C3 1_555 1_555
H16 C11 1_555 1_555
C12 C11 1_555 1_555
C13 O6 1_555 1_555
H17 C13 1_555 1_555
H18 C13 1_555 1_555
C14 C13 1_555 1_555
C15 C14 1_555 1_555
H19 C15 1_555 1_555
C16 C15 1_555 1_555
H20 C16 1_555 1_555
C17 C16 1_555 1_555
H21 C17 1_555 1_555
C18 C17 1_555 1_555
H22 C18 1_555 1_555
C19 C14 1_555 1_555
H23 C19 1_555 1_555
C20 C4 1_555 1_555
C21 C20 1_555 1_555
H24 C21 1_555 1_555
C22 C21 1_555 1_555
H25 C22 1_555 1_555
C23 C22 1_555 1_555
H26 C23 1_555 1_555
C24 C23 1_555 1_555
H27 C24 1_555 1_555
C25 O7 1_555 1_555
C3 C4 1_555 1_555
C18 C19 1_555 1_555
C20 C25 1_555 1_555
C24 C25 1_555 1_555

#END
