
#######################################################################
#
#                 Cambridge Crystallographic Data Centre
#                                CCDC 
#
#######################################################################
#
# If this CIF has been generated from an entry in the Cambridge 
# Structural Database, then it will include bibliographic, chemical, 
# crystal, experimental, refinement or atomic coordinate data resulting 
# from the CCDC's data processing and validation procedures.
#
#######################################################################

data_NERJEC
_chemical_formula_moiety         'C23 H24 O5 S1'
_chemical_name_systematic        
2-(3-hydroxy-2-((4-methylphenyl)sulfonyl)-3-phenylpropyl)-6-methoxyphenol
_symmetry_cell_setting           monoclinic
_symmetry_space_group_name_H-M   'P 21/c'
_symmetry_Int_Tables_number      14
_space_group_name_Hall           '-P 2ybc'
loop_
_symmetry_equiv_pos_site_id
_symmetry_equiv_pos_as_xyz
1 x,y,z
2 -x,1/2+y,1/2-z
3 -x,-y,-z
4 x,1/2-y,1/2+z
_cell_length_a                   17.0858(17)
_cell_length_b                   7.1245(8)
_cell_length_c                   16.5916(17)
_cell_angle_alpha                90
_cell_angle_beta                 96.180(2)
_cell_angle_gamma                90
_cell_volume                     2007.92
_exptl_crystal_colour            colorless
_chemical_melting_point          '220-223 deg.C'
_cell_formula_units_Z            4
_exptl_crystal_recrystallization_method 'dichloromethane/ethyl acetate'
loop_
_atom_site_label
_atom_site_type_symbol
_atom_site_fract_x
_atom_site_fract_y
_atom_site_fract_z
S1 S 0.32620(2) 0.52415(5) 0.39758(2)
O1 O 0.00916(6) -0.02430(14) 0.39886(6)
O2 O 0.34234(5) 0.44436(15) 0.32112(5)
O3 O 0.34318(5) 0.72149(14) 0.41163(6)
O4 O 0.19411(6) 0.80132(14) 0.45192(6)
H1 H 0.2395(12) 0.828(3) 0.4417(11)
C1 C -0.06497(8) -0.1023(2) 0.41404(9)
H2 H -0.0893 -0.0221 0.4523
H3 H -0.0568 -0.2283 0.4371
H4 H -0.0996 -0.1100 0.3631
C2 C 0.00839(7) 0.1576(2) 0.37261(7)
C3 C 0.08274(7) 0.22838(19) 0.36004(7)
C4 C 0.09131(7) 0.41349(19) 0.33580(7)
C5 C 0.17260(7) 0.4905(2) 0.32732(7)
H5 H 0.1684 0.6222 0.3083
H6 H 0.1976 0.4162 0.2866
C6 C 0.22378(7) 0.48158(19) 0.40960(7)
H7 H 0.2204 0.3498 0.4296
C7 C 0.37813(7) 0.39186(19) 0.47549(7)
C8 C 0.41781(7) 0.4800(2) 0.54230(7)
H8 H 0.4195 0.6131 0.5456
C9 C 0.45501(7) 0.3709(2) 0.60421(7)
H9 H 0.4829 0.4304 0.6499
C10 C 0.45225(7) 0.1763(2) 0.60067(8)
C11 C 0.48952(9) 0.0600(3) 0.67029(9)
H10 H 0.5379 0.1213 0.6942
H11 H 0.5022 -0.0649 0.6505
H12 H 0.4528 0.0477 0.7114
C12 C 0.19274(7) 0.60912(19) 0.47426(7)
H13 H 0.1360 0.5758 0.4751
C13 C 0.23177(7) 0.5735(2) 0.55981(7)
C14 C 0.26338(8) 0.7187(2) 0.60858(9)
H14 H 0.2627 0.8434 0.5882
C15 C 0.29642(9) 0.6812(3) 0.68802(9)
H15 H 0.3176 0.7810 0.7215
C16 C 0.29832(9) 0.5013(3) 0.71780(9)
H16 H 0.3207 0.4771 0.7717
C17 C 0.26768(8) 0.3555(3) 0.66946(8)
H17 H 0.2697 0.2307 0.6897
C18 C 0.23384(8) 0.3917(2) 0.59112(8)
H18 H 0.2118 0.2913 0.5585
C19 C -0.05760(7) 0.2697(2) 0.35722(8)
H19 H -0.1081 0.2218 0.3649
C20 C -0.04966(8) 0.4526(2) 0.33045(8)
H20 H -0.0951 0.5287 0.3184
C21 C 0.02414(8) 0.5250(2) 0.32120(7)
H21 H 0.0290 0.6518 0.3047
O5 O 0.14799(5) 0.11707(14) 0.37179(6)
H22 H 0.1354 0.0115 0.3889
C22 C 0.37622(8) 0.1973(2) 0.46928(8)
H23 H 0.3499 0.1382 0.4227
C23 C 0.41328(8) 0.0910(2) 0.53208(9)
H24 H 0.4121 -0.0420 0.5284
loop_
_geom_bond_atom_site_label_1
_geom_bond_atom_site_label_2
_geom_bond_site_symmetry_1
_geom_bond_site_symmetry_2
S1 O2 1_555 1_555
O1 C1 1_555 1_555
O3 S1 1_555 1_555
O4 H1 1_555 1_555
C1 H2 1_555 1_555
H3 C1 1_555 1_555
H4 C1 1_555 1_555
C2 O1 1_555 1_555
C3 C2 1_555 1_555
C4 C3 1_555 1_555
C5 C4 1_555 1_555
H5 C5 1_555 1_555
H6 C5 1_555 1_555
C6 S1 1_555 1_555
H7 C6 1_555 1_555
C7 S1 1_555 1_555
C8 C7 1_555 1_555
H8 C8 1_555 1_555
C9 C8 1_555 1_555
H9 C9 1_555 1_555
C10 C9 1_555 1_555
C11 C10 1_555 1_555
H10 C11 1_555 1_555
H11 C11 1_555 1_555
H12 C11 1_555 1_555
C12 O4 1_555 1_555
H13 C12 1_555 1_555
C13 C12 1_555 1_555
C14 C13 1_555 1_555
H14 C14 1_555 1_555
C15 C14 1_555 1_555
H15 C15 1_555 1_555
C16 C15 1_555 1_555
H16 C16 1_555 1_555
C17 C16 1_555 1_555
H17 C17 1_555 1_555
C18 C13 1_555 1_555
H18 C18 1_555 1_555
C19 C2 1_555 1_555
H19 C19 1_555 1_555
C20 C19 1_555 1_555
H20 C20 1_555 1_555
C21 C4 1_555 1_555
H21 C21 1_555 1_555
O5 C3 1_555 1_555
H22 O5 1_555 1_555
C22 C7 1_555 1_555
H23 C22 1_555 1_555
C23 C10 1_555 1_555
H24 C23 1_555 1_555
C5 C6 1_555 1_555
C6 C12 1_555 1_555
C17 C18 1_555 1_555
C20 C21 1_555 1_555
C22 C23 1_555 1_555

#END
