
#######################################################################
#
#                 Cambridge Crystallographic Data Centre
#                                CCDC 
#
#######################################################################
#
# If this CIF has been generated from an entry in the Cambridge 
# Structural Database, then it will include bibliographic, chemical, 
# crystal, experimental, refinement or atomic coordinate data resulting 
# from the CCDC's data processing and validation procedures.
#
#######################################################################

data_NERKAZ01
_chemical_formula_moiety         'C14 H13 N3 O2'
_chemical_name_systematic        
'1-(pyrimidin-2-yl)-2,3-dihydro-1H-indol-7-yl acetate'
_symmetry_cell_setting           orthorhombic
_symmetry_space_group_name_H-M   'P b c a'
_symmetry_Int_Tables_number      61
_space_group_name_Hall           '-P 2ac 2ab'
loop_
_symmetry_equiv_pos_site_id
_symmetry_equiv_pos_as_xyz
1 x,y,z
2 1/2-x,-y,1/2+z
3 -x,1/2+y,1/2-z
4 1/2+x,1/2-y,-z
5 -x,-y,-z
6 1/2+x,y,1/2-z
7 x,1/2-y,1/2+z
8 1/2-x,1/2+y,z
_cell_length_a                   10.9309(17)
_cell_length_b                   14.5035(19)
_cell_length_c                   15.547(2)
_cell_angle_alpha                90
_cell_angle_beta                 90
_cell_angle_gamma                90
_cell_volume                     2464.76
_exptl_crystal_colour            colorless
_exptl_crystal_description       Prism
_cell_formula_units_Z            8
loop_
_atom_site_label
_atom_site_type_symbol
_atom_site_fract_x
_atom_site_fract_y
_atom_site_fract_z
O1 O 0.77727(6) 0.23019(5) 0.31843(4)
O2 O 0.74234(8) 0.15485(6) 0.19356(5)
N1 N 0.59825(8) 0.21182(6) 0.46095(5)
N2 N 0.63817(9) 0.08365(7) 0.54360(5)
N3 N 0.66050(8) 0.07843(6) 0.39014(5)
C1 C 0.52036(10) 0.25334(8) 0.52894(7)
H1 H 0.5689 0.2946 0.5665
H2 H 0.4817 0.2050 0.5648
C2 C 0.42339(10) 0.30805(8) 0.47847(7)
H3 H 0.3469 0.2721 0.4721
H4 H 0.4046 0.3673 0.5072
C3 C 0.48397(9) 0.32356(7) 0.39251(7)
C4 C 0.45360(10) 0.38294(7) 0.32636(7)
H5 H 0.3843 0.4221 0.3310
C5 C 0.52644(10) 0.38439(7) 0.25277(7)
H6 H 0.5038 0.4222 0.2055
C6 C 0.63148(10) 0.33125(7) 0.24787(6)
H7 H 0.6818 0.3344 0.1982
C7 C 0.66344(9) 0.27328(7) 0.31548(6)
C8 C 0.58560(9) 0.26551(7) 0.38570(6)
C9 C 0.80730(10) 0.16993(7) 0.25407(6)
C10 C 0.92917(10) 0.12813(8) 0.27168(7)
H8 H 0.9210 0.0810 0.3165
H9 H 0.9859 0.1761 0.2911
H10 H 0.9608 0.0997 0.2190
C11 C 0.63357(9) 0.12092(7) 0.46454(6)
C12 C 0.67616(11) -0.00344(8) 0.54726(7)
H11 H 0.6797 -0.0328 0.6018
C13 C 0.71069(11) -0.05334(8) 0.47541(8)
H12 H 0.7400 -0.1148 0.4794
C14 C 0.69991(10) -0.00828(7) 0.39753(7)
H13 H 0.7216 -0.0407 0.3467
loop_
_geom_bond_atom_site_label_1
_geom_bond_atom_site_label_2
_geom_bond_site_symmetry_1
_geom_bond_site_symmetry_2
O1 C7 1_555 1_555
O2 C9 1_555 1_555
N1 C1 1_555 1_555
N2 C11 1_555 1_555
N3 C11 1_555 1_555
C1 H1 1_555 1_555
H2 C1 1_555 1_555
C2 C1 1_555 1_555
H3 C2 1_555 1_555
H4 C2 1_555 1_555
C3 C2 1_555 1_555
C4 C3 1_555 1_555
H5 C4 1_555 1_555
C5 C4 1_555 1_555
H6 C5 1_555 1_555
C6 C5 1_555 1_555
H7 C6 1_555 1_555
C7 C6 1_555 1_555
C8 N1 1_555 1_555
C9 O1 1_555 1_555
C10 C9 1_555 1_555
H8 C10 1_555 1_555
H9 C10 1_555 1_555
H10 C10 1_555 1_555
C11 N1 1_555 1_555
C12 N2 1_555 1_555
H11 C12 1_555 1_555
C13 C12 1_555 1_555
H12 C13 1_555 1_555
C14 N3 1_555 1_555
H13 C14 1_555 1_555
C3 C8 1_555 1_555
C7 C8 1_555 1_555
C13 C14 1_555 1_555

#END
