
#######################################################################
#
#                 Cambridge Crystallographic Data Centre
#                                CCDC 
#
#######################################################################
#
# If this CIF has been generated from an entry in the Cambridge 
# Structural Database, then it will include bibliographic, chemical, 
# crystal, experimental, refinement or atomic coordinate data resulting 
# from the CCDC's data processing and validation procedures.
#
#######################################################################

data_NERLII
_chemical_formula_moiety         'C25 H21 N1 O2'
_chemical_name_systematic        
3a',5'-dimethyl-1'-phenyl-3',3a'-dihydro-4H-spiro[cyclohexa-2,5-diene-1,2'-cyclopenta[c]quinoline]-4,4'(5'H)-dione
_symmetry_cell_setting           monoclinic
_symmetry_space_group_name_H-M   'P 21/c'
_symmetry_Int_Tables_number      14
_space_group_name_Hall           '-P 2ybc'
loop_
_symmetry_equiv_pos_site_id
_symmetry_equiv_pos_as_xyz
1 x,y,z
2 -x,1/2+y,1/2-z
3 -x,-y,-z
4 x,1/2-y,1/2+z
_cell_length_a                   23.2457(10)
_cell_length_b                   9.0807(4)
_cell_length_c                   18.6858(9)
_cell_angle_alpha                90
_cell_angle_beta                 96.790(4)
_cell_angle_gamma                90
_cell_volume                     3916.67
_cell_formula_units_Z            8
loop_
_atom_site_label
_atom_site_type_symbol
_atom_site_fract_x
_atom_site_fract_y
_atom_site_fract_z
O1 O 0.18148(8) -0.1386(2) 0.52405(10)
O2 O 0.51526(10) -0.3638(3) 0.60955(14)
N1 N 0.16553(9) -0.1504(2) 0.40210(12)
C1 C 0.18324(11) -0.1963(3) 0.33535(14)
C2 C 0.14445(12) -0.1927(3) 0.27306(15)
H1 H 0.1068 -0.1591 0.2748
C3 C 0.16165(14) -0.2391(3) 0.20839(17)
H2 H 0.1355 -0.2349 0.1667
C4 C 0.22501(12) -0.4395(3) 0.46610(15)
H3 H 0.1975 -0.4539 0.4241
H4 H 0.2063 -0.4547 0.5086
H5 H 0.2563 -0.5084 0.4656
C5 C 0.21664(13) -0.2912(3) 0.20465(15)
H6 H 0.2275 -0.3248 0.1612
C6 C 0.25557(12) -0.2929(3) 0.26628(14)
H7 H 0.2930 -0.3268 0.2637
C7 C 0.24018(11) -0.2451(3) 0.33244(14)
C8 C 0.27863(11) -0.2512(3) 0.40033(13)
C9 C 0.24903(11) -0.2812(3) 0.46615(13)
C10 C 0.29611(11) -0.2476(3) 0.52817(14)
H8 H 0.2941 -0.3167 0.5674
H9 H 0.2915 -0.1486 0.5462
C11 C 0.35502(11) -0.2628(3) 0.49676(14)
C12 C 0.33623(11) -0.2352(3) 0.41575(14)
C13 C 0.19665(12) -0.1821(3) 0.46720(15)
C14 C 0.11072(12) -0.0709(4) 0.40300(17)
H10 H 0.1088 0.0085 0.3688
H11 H 0.1085 -0.0320 0.4504
H12 H 0.0789 -0.1371 0.3904
C15 C 0.39682(13) -0.1502(3) 0.52980(15)
H13 H 0.3865 -0.0515 0.5247
C16 C 0.44802(13) -0.1829(4) 0.56611(17)
H14 H 0.4717 -0.1068 0.5856
C17 C 0.46788(14) -0.3339(4) 0.57619(17)
C18 C 0.42914(14) -0.4470(4) 0.54493(16)
H15 H 0.4401 -0.5452 0.5505
C19 C 0.37842(13) -0.4147(3) 0.50857(15)
H16 H 0.3557 -0.4924 0.4890
C20 C 0.37889(11) -0.1941(3) 0.36661(14)
C21 C 0.43198(12) -0.2661(4) 0.36790(17)
H17 H 0.4407 -0.3444 0.3994
C22 C 0.47185(14) -0.2223(4) 0.32281(19)
H18 H 0.5070 -0.2714 0.3240
C23 C 0.45964(14) -0.1067(4) 0.27648(19)
H19 H 0.4864 -0.0781 0.2459
C24 C 0.40777(14) -0.0324(4) 0.27492(18)
H20 H 0.3996 0.0469 0.2439
C25 C 0.36808(12) -0.0767(3) 0.31976(16)
H21 H 0.3331 -0.0264 0.3185
O3 O 0.31698(9) -0.5993(3) 0.11656(11)
O4 O -0.02106(9) -0.7701(3) 0.00576(13)
N2 N 0.32697(9) -0.6393(2) 0.23729(12)
C26 C 0.38222(12) -0.5607(4) 0.24481(18)
H22 H 0.3819 -0.4858 0.2810
H23 H 0.3880 -0.5161 0.1996
H24 H 0.4131 -0.6287 0.2588
C27 C 0.30667(11) -0.7014(3) 0.29955(15)
C28 C 0.34282(12) -0.7105(3) 0.36436(16)
H25 H 0.3802 -0.6728 0.3675
C29 C 0.32355(14) -0.7748(3) 0.42377(17)
H26 H 0.3483 -0.7819 0.4665
C30 C 0.26820(14) -0.8288(3) 0.42071(16)
H27 H 0.2556 -0.8724 0.4611
C31 C 0.23110(12) -0.8180(3) 0.35714(14)
H28 H 0.1935 -0.8539 0.3553
C32 C 0.24949(11) -0.7540(3) 0.29608(14)
C33 C 0.21368(11) -0.7457(3) 0.22645(13)
C34 C 0.15633(11) -0.7330(3) 0.20790(13)
C35 C 0.14069(11) -0.7302(3) 0.12607(14)
C36 C 0.20096(11) -0.7055(3) 0.09936(14)
H29 H 0.2043 -0.7633 0.0564
H30 H 0.2063 -0.6024 0.0882
C37 C 0.24613(11) -0.7547(3) 0.16115(14)
C38 C 0.29876(12) -0.6555(3) 0.16923(16)
C39 C 0.26927(12) -0.9107(3) 0.15163(15)
H31 H 0.2948 -0.9378 0.1937
H32 H 0.2900 -0.9133 0.1102
H33 H 0.2374 -0.9787 0.1450
C40 C 0.11495(12) -0.8731(3) 0.09803(14)
H34 H 0.1361 -0.9588 0.1092
C41 C 0.06382(12) -0.8855(3) 0.05820(15)
H35 H 0.0514 -0.9776 0.0410
C42 C 0.02692(13) -0.7578(4) 0.04101(15)
C43 C 0.04924(12) -0.6165(3) 0.06713(14)
H36 H 0.0267 -0.5327 0.0571
C44 C 0.10105(11) -0.6035(3) 0.10503(13)
H37 H 0.1135 -0.5095 0.1194
C45 C 0.11025(11) -0.7155(3) 0.25620(14)
C46 C 0.11251(14) -0.6014(4) 0.30503(17)
H38 H 0.1441 -0.5377 0.3093
C47 C 0.06849(18) -0.5801(5) 0.34789(19)
H39 H 0.0703 -0.5021 0.3803
C48 C 0.02213(17) -0.6750(5) 0.3421(2)
H40 H -0.0071 -0.6621 0.3715
C49 C 0.01865(13) -0.7879(5) 0.29386(19)
H41 H -0.0131 -0.8509 0.2900
C50 C 0.06239(12) -0.8093(4) 0.25045(15)
H42 H 0.0598 -0.8863 0.2174
loop_
_geom_bond_atom_site_label_1
_geom_bond_atom_site_label_2
_geom_bond_site_symmetry_1
_geom_bond_site_symmetry_2
O1 C13 1_555 1_555
O2 C17 1_555 1_555
N1 C1 1_555 1_555
C1 C2 1_555 1_555
C2 H1 1_555 1_555
C3 C2 1_555 1_555
H2 C3 1_555 1_555
C4 H3 1_555 1_555
H4 C4 1_555 1_555
H5 C4 1_555 1_555
C5 C3 1_555 1_555
H6 C5 1_555 1_555
C6 C5 1_555 1_555
H7 C6 1_555 1_555
C7 C1 1_555 1_555
C8 C7 1_555 1_555
C9 C4 1_555 1_555
C10 C9 1_555 1_555
H8 C10 1_555 1_555
H9 C10 1_555 1_555
C11 C10 1_555 1_555
C12 C8 1_555 1_555
C13 N1 1_555 1_555
C14 N1 1_555 1_555
H10 C14 1_555 1_555
H11 C14 1_555 1_555
H12 C14 1_555 1_555
C15 C11 1_555 1_555
H13 C15 1_555 1_555
C16 C15 1_555 1_555
H14 C16 1_555 1_555
C17 C16 1_555 1_555
C18 C17 1_555 1_555
H15 C18 1_555 1_555
C19 C11 1_555 1_555
H16 C19 1_555 1_555
C20 C12 1_555 1_555
C21 C20 1_555 1_555
H17 C21 1_555 1_555
C22 C21 1_555 1_555
H18 C22 1_555 1_555
C23 C22 1_555 1_555
H19 C23 1_555 1_555
C24 C23 1_555 1_555
H20 C24 1_555 1_555
C25 C20 1_555 1_555
H21 C25 1_555 1_555
O3 C38 1_555 1_555
O4 C42 1_555 1_555
N2 C26 1_555 1_555
C26 H22 1_555 1_555
H23 C26 1_555 1_555
H24 C26 1_555 1_555
C27 N2 1_555 1_555
C28 C27 1_555 1_555
H25 C28 1_555 1_555
C29 C28 1_555 1_555
H26 C29 1_555 1_555
C30 C29 1_555 1_555
H27 C30 1_555 1_555
C31 C30 1_555 1_555
H28 C31 1_555 1_555
C32 C27 1_555 1_555
C33 C32 1_555 1_555
C34 C33 1_555 1_555
C35 C34 1_555 1_555
C36 C35 1_555 1_555
H29 C36 1_555 1_555
H30 C36 1_555 1_555
C37 C33 1_555 1_555
C38 N2 1_555 1_555
C39 C37 1_555 1_555
H31 C39 1_555 1_555
H32 C39 1_555 1_555
H33 C39 1_555 1_555
C40 C35 1_555 1_555
H34 C40 1_555 1_555
C41 C40 1_555 1_555
H35 C41 1_555 1_555
C42 C41 1_555 1_555
C43 C42 1_555 1_555
H36 C43 1_555 1_555
C44 C35 1_555 1_555
H37 C44 1_555 1_555
C45 C34 1_555 1_555
C46 C45 1_555 1_555
H38 C46 1_555 1_555
C47 C46 1_555 1_555
H39 C47 1_555 1_555
C48 C47 1_555 1_555
H40 C48 1_555 1_555
C49 C48 1_555 1_555
H41 C49 1_555 1_555
C50 C45 1_555 1_555
H42 C50 1_555 1_555
C6 C7 1_555 1_555
C8 C9 1_555 1_555
C9 C13 1_555 1_555
C11 C12 1_555 1_555
C18 C19 1_555 1_555
C24 C25 1_555 1_555
C31 C32 1_555 1_555
C36 C37 1_555 1_555
C37 C38 1_555 1_555
C43 C44 1_555 1_555
C49 C50 1_555 1_555

#END
