
#######################################################################
#
#                 Cambridge Crystallographic Data Centre
#                                CCDC 
#
#######################################################################
#
# If this CIF has been generated from an entry in the Cambridge 
# Structural Database, then it will include bibliographic, chemical, 
# crystal, experimental, refinement or atomic coordinate data resulting 
# from the CCDC's data processing and validation procedures.
#
#######################################################################

data_NERRAG
_chemical_formula_moiety         'C22 H17 Br1 O4 S1'
_chemical_name_systematic        
2-(2-bromophenyl)-3-[(4-methylphenyl)sulfonyl]-2H-1-benzopyran-2-ol
_symmetry_cell_setting           triclinic
_symmetry_space_group_name_H-M   'P -1'
_symmetry_Int_Tables_number      2
_space_group_name_Hall           '-P 1'
loop_
_symmetry_equiv_pos_site_id
_symmetry_equiv_pos_as_xyz
1 x,y,z
2 -x,-y,-z
_cell_length_a                   12.1792(12)
_cell_length_b                   12.9193(13)
_cell_length_c                   20.730(2)
_cell_angle_alpha                78.567(2)
_cell_angle_beta                 85.489(2)
_cell_angle_gamma                69.326(2)
_cell_volume                     2991.06
_exptl_crystal_colour            colorless
_cell_formula_units_Z            6
loop_
_atom_site_label
_atom_site_type_symbol
_atom_site_fract_x
_atom_site_fract_y
_atom_site_fract_z
Br1 Br 0.18788(4) 0.56574(4) 0.24819(2)
C1 C 0.2492(3) 0.5449(3) 0.1623(2)
C2 C 0.2152(4) 0.4716(4) 0.1346(2)
H1 H 0.1644 0.4356 0.1582
C3 C 0.2553(4) 0.4517(4) 0.0734(2)
H2 H 0.2319 0.4020 0.0541
C4 C 0.3287(4) 0.5029(4) 0.0396(2)
H3 H 0.3567 0.4884 -0.0029
C5 C 0.3625(4) 0.5762(4) 0.0673(2)
H4 H 0.4137 0.6115 0.0435
C6 C 0.3226(3) 0.5985(3) 0.12944(18)
C7 C 0.3608(3) 0.6798(3) 0.15850(18)
C8 C 0.4409(3) 0.6255(3) 0.21683(18)
C9 C 0.4294(4) 0.6744(3) 0.2691(2)
H5 H 0.4873 0.6435 0.3024
C10 C 0.3302(4) 0.7736(3) 0.2756(2)
C11 C 0.3148(5) 0.8297(4) 0.3287(3)
H6 H 0.3749 0.8068 0.3605
C12 C 0.2122(6) 0.9185(5) 0.3351(3)
H7 H 0.2011 0.9558 0.3715
C13 C 0.1259(6) 0.9526(5) 0.2881(3)
H8 H 0.0552 1.0131 0.2927
C14 C 0.1408(4) 0.9003(4) 0.2347(2)
H9 H 0.0814 0.9245 0.2024
C15 C 0.2435(4) 0.8120(3) 0.2288(2)
C16 C 0.4015(5) 0.1009(4) 0.2631(3)
H10 H 0.3183 0.1256 0.2521
H11 H 0.4126 0.0644 0.3095
H12 H 0.4479 0.0473 0.2353
C17 C 0.4411(4) 0.2011(4) 0.2515(2)
C18 C 0.4739(4) 0.2422(4) 0.1891(2)
H13 H 0.4712 0.2064 0.1537
C19 C 0.5105(4) 0.3342(3) 0.1769(2)
H14 H 0.5331 0.3608 0.1337
C20 C 0.5139(3) 0.3868(3) 0.2279(2)
C21 C 0.4828(4) 0.3463(4) 0.2909(2)
H15 H 0.4862 0.3818 0.3263
C22 C 0.4471(4) 0.2547(4) 0.3020(2)
H16 H 0.4260 0.2274 0.3454
O1 O 0.6383(3) 0.4880(2) 0.26724(15)
O2 O 0.6127(2) 0.5090(2) 0.14744(14)
O3 O 0.4145(2) 0.7349(2) 0.10839(13)
H17 H 0.4509 0.7678 0.1248
O4 O 0.2518(2) 0.7613(2) 0.17585(13)
S1 S 0.56421(9) 0.50181(8) 0.21360(5)
Br2 Br 1.00023(4) 0.75793(4) 0.08451(2)
C23 C 0.8729(3) 0.8306(3) 0.02555(19)
C24 C 0.7764(3) 0.7961(3) 0.02671(18)
C25 C 0.6896(4) 0.8558(3) -0.0190(2)
H18 H 0.6234 0.8332 -0.0194
C26 C 0.6964(4) 0.9479(4) -0.0645(2)
H19 H 0.6356 0.9877 -0.0956
C27 C 0.7917(5) 0.9808(4) -0.0641(2)
H20 H 0.7964 1.0445 -0.0947
C28 C 0.8801(4) 0.9229(3) -0.0200(2)
H21 H 0.9463 0.9456 -0.0205
C29 C 0.7651(3) 0.6949(3) 0.07574(18)
C30 C 0.7611(3) 0.7034(3) 0.14810(18)
C31 C 0.8179(3) 0.6143(3) 0.19285(19)
H22 H 0.8099 0.6199 0.2381
C32 C 0.8907(3) 0.5104(3) 0.17408(18)
C33 C 0.9428(4) 0.4110(3) 0.2190(2)
H23 H 0.9298 0.4103 0.2648
C34 C 1.0125(4) 0.3145(3) 0.1974(2)
H24 H 1.0483 0.2481 0.2286
C35 C 1.0309(4) 0.3129(3) 0.1308(2)
H25 H 1.0790 0.2457 0.1164
C36 C 0.9792(3) 0.4095(3) 0.0853(2)
H26 H 0.9910 0.4088 0.0395
C37 C 0.9102(3) 0.5069(3) 0.10691(19)
C38 C 0.7035(4) 0.9387(3) 0.1495(2)
C39 C 0.6498(4) 1.0171(3) 0.0958(2)
H27 H 0.5903 1.0071 0.0732
C40 C 0.6828(4) 1.1109(4) 0.0747(2)
H28 H 0.6460 1.1648 0.0375
C41 C 0.7676(4) 1.1267(4) 0.1069(3)
C42 C 0.8201(4) 1.0477(4) 0.1610(3)
H29 H 0.8783 1.0588 0.1840
C43 C 0.7896(4) 0.9525(4) 0.1826(3)
H30 H 0.8274 0.8981 0.2194
C44 C 0.8038(6) 1.2300(5) 0.0840(4)
H31 H 0.7997 1.2505 0.0359
H32 H 0.8843 1.2129 0.0980
H33 H 0.7507 1.2930 0.1035
O5 O 0.6660(3) 0.7971(3) 0.24755(14)
O6 O 0.5477(2) 0.8479(2) 0.14693(15)
O7 O 0.8669(2) 0.6024(2) 0.06089(12)
O8 O 0.6646(2) 0.6784(2) 0.05938(13)
H34 H 0.6506 0.6291 0.0885
S2 S 0.65902(9) 0.82165(8) 0.17734(5)
Br3 Br 0.97319(6) 0.72613(6) 0.41726(3)
C45 C 0.9307(4) 0.7067(4) 0.5077(2)
C46 C 0.9897(5) 0.6032(5) 0.5471(3)
H35 H 1.0514 0.5478 0.5289
C47 C 0.9586(6) 0.5816(5) 0.6119(3)
H36 H 0.9958 0.5096 0.6379
C48 C 0.8751(6) 0.6623(5) 0.6393(3)
H37 H 0.8538 0.6472 0.6843
C49 C 0.8218(5) 0.7654(5) 0.6017(2)
H38 H 0.7658 0.8222 0.6218
C50 C 0.8459(4) 0.7901(4) 0.5357(2)
C51 C 0.7817(4) 0.9071(4) 0.4968(2)
C52 C 0.8522(4) 1.0321(3) 0.4165(2)
C53 C 0.9200(4) 1.0991(4) 0.4078(2)
H39 H 0.9784 1.0875 0.4389
C54 C 0.9020(4) 1.1834(4) 0.3533(2)
H40 H 0.9475 1.2312 0.3471
C55 C 0.8184(5) 1.1992(4) 0.3075(3)
H41 H 0.8066 1.2578 0.2702
C56 C 0.7528(4) 1.1312(4) 0.3156(2)
H42 H 0.6972 1.1411 0.2832
C57 C 0.7668(4) 1.0466(4) 0.3717(2)
C58 C 0.6951(4) 0.9771(4) 0.3861(2)
H43 H 0.6430 0.9792 0.3537
C59 C 0.7009(4) 0.9102(4) 0.4439(2)
C60 C 0.6481(4) 0.7011(4) 0.4683(2)
C61 C 0.6651(5) 0.6567(5) 0.4106(3)
H44 H 0.6603 0.7044 0.3689
C62 C 0.6889(6) 0.5437(5) 0.4148(3)
H45 H 0.6998 0.5142 0.3754
C63 C 0.6974(5) 0.4720(5) 0.4740(4)
C64 C 0.6863(5) 0.5158(5) 0.5311(3)
H46 H 0.6953 0.4672 0.5727
C65 C 0.6625(5) 0.6278(4) 0.5278(2)
H47 H 0.6557 0.6562 0.5674
C66 C 0.7172(8) 0.3488(6) 0.4776(4)
H48 H 0.7078 0.3355 0.4338
H49 H 0.6599 0.3274 0.5081
H50 H 0.7967 0.3037 0.4934
O9 O 0.5528(3) 0.8643(3) 0.53094(18)
O10 O 0.5084(3) 0.8925(3) 0.4131(2)
O11 O 0.8743(3) 0.9463(3) 0.46965(15)
O12 O 0.7204(3) 0.9785(3) 0.54019(18)
H51 H 0.6495 1.0083 0.5292
S3 S 0.59227(11) 0.84667(10) 0.46530(7)
H52? H 0.7583 0.8429 0.4282
loop_
_geom_bond_atom_site_label_1
_geom_bond_atom_site_label_2
_geom_bond_site_symmetry_1
_geom_bond_site_symmetry_2
Br1 C1 1_555 1_555
C1 C2 1_555 1_555
C2 H1 1_555 1_555
C3 C2 1_555 1_555
H2 C3 1_555 1_555
C4 C3 1_555 1_555
H3 C4 1_555 1_555
C5 C4 1_555 1_555
H4 C5 1_555 1_555
C6 C1 1_555 1_555
C7 C6 1_555 1_555
C8 C7 1_555 1_555
C9 C8 1_555 1_555
H5 C9 1_555 1_555
C10 C9 1_555 1_555
C11 C10 1_555 1_555
H6 C11 1_555 1_555
C12 C11 1_555 1_555
H7 C12 1_555 1_555
C13 C12 1_555 1_555
H8 C13 1_555 1_555
C14 C13 1_555 1_555
H9 C14 1_555 1_555
C15 C10 1_555 1_555
C16 H10 1_555 1_555
H11 C16 1_555 1_555
H12 C16 1_555 1_555
C17 C16 1_555 1_555
C18 C17 1_555 1_555
H13 C18 1_555 1_555
C19 C18 1_555 1_555
H14 C19 1_555 1_555
C20 C19 1_555 1_555
C21 C20 1_555 1_555
H15 C21 1_555 1_555
C22 C17 1_555 1_555
H16 C22 1_555 1_555
O1 S1 1_555 1_555
O2 S1 1_555 1_555
O3 C7 1_555 1_555
H17 O3 1_555 1_555
O4 C7 1_555 1_555
S1 C8 1_555 1_555
Br2 C23 1_555 1_555
C23 C24 1_555 1_555
C24 C25 1_555 1_555
C25 H18 1_555 1_555
C26 C25 1_555 1_555
H19 C26 1_555 1_555
C27 C26 1_555 1_555
H20 C27 1_555 1_555
C28 C23 1_555 1_555
H21 C28 1_555 1_555
C29 C24 1_555 1_555
C30 C29 1_555 1_555
C31 C30 1_555 1_555
H22 C31 1_555 1_555
C32 C31 1_555 1_555
C33 C32 1_555 1_555
H23 C33 1_555 1_555
C34 C33 1_555 1_555
H24 C34 1_555 1_555
C35 C34 1_555 1_555
H25 C35 1_555 1_555
C36 C35 1_555 1_555
H26 C36 1_555 1_555
C37 C32 1_555 1_555
C38 C39 1_555 1_555
C39 H27 1_555 1_555
C40 C39 1_555 1_555
H28 C40 1_555 1_555
C41 C40 1_555 1_555
C42 C41 1_555 1_555
H29 C42 1_555 1_555
C43 C38 1_555 1_555
H30 C43 1_555 1_555
C44 C41 1_555 1_555
H31 C44 1_555 1_555
H32 C44 1_555 1_555
H33 C44 1_555 1_555
O5 S2 1_555 1_555
O6 S2 1_555 1_555
O7 C29 1_555 1_555
O8 C29 1_555 1_555
H34 O8 1_555 1_555
S2 C30 1_555 1_555
Br3 C45 1_555 1_555
C45 C46 1_555 1_555
C46 H35 1_555 1_555
C47 C46 1_555 1_555
H36 C47 1_555 1_555
C48 C47 1_555 1_555
H37 C48 1_555 1_555
C49 C48 1_555 1_555
H38 C49 1_555 1_555
C50 C45 1_555 1_555
C51 C50 1_555 1_555
C52 C53 1_555 1_555
C53 H39 1_555 1_555
C54 C53 1_555 1_555
H40 C54 1_555 1_555
C55 C54 1_555 1_555
H41 C55 1_555 1_555
C56 C55 1_555 1_555
H42 C56 1_555 1_555
C57 C52 1_555 1_555
C58 C57 1_555 1_555
H43 C58 1_555 1_555
C59 C51 1_555 1_555
C60 C61 1_555 1_555
C61 H44 1_555 1_555
C62 C61 1_555 1_555
H45 C62 1_555 1_555
C63 C62 1_555 1_555
C64 C63 1_555 1_555
H46 C64 1_555 1_555
C65 C60 1_555 1_555
H47 C65 1_555 1_555
C66 C63 1_555 1_555
H48 C66 1_555 1_555
H49 C66 1_555 1_555
H50 C66 1_555 1_555
O9 S3 1_555 1_555
O10 S3 1_555 1_555
O11 C51 1_555 1_555
O12 C51 1_555 1_555
H51 O12 1_555 1_555
S3 C59 1_555 1_555
C5 C6 1_555 1_555
C14 C15 1_555 1_555
C15 O4 1_555 1_555
C20 S1 1_555 1_555
C21 C22 1_555 1_555
C27 C28 1_555 1_555
C36 C37 1_555 1_555
C37 O7 1_555 1_555
C38 S2 1_555 1_555
C42 C43 1_555 1_555
C49 C50 1_555 1_555
C52 O11 1_555 1_555
C56 C57 1_555 1_555
C58 C59 1_555 1_555
C60 S3 1_555 1_555
C64 C65 1_555 1_555

#END
