
#######################################################################
#
#                 Cambridge Crystallographic Data Centre
#                                CCDC 
#
#######################################################################
#
# If this CIF has been generated from an entry in the Cambridge 
# Structural Database, then it will include bibliographic, chemical, 
# crystal, experimental, refinement or atomic coordinate data resulting 
# from the CCDC's data processing and validation procedures.
#
#######################################################################

data_NERTOU
_chemical_formula_moiety         'C17 H21 Cl2 N1 O2'
_chemical_name_systematic        
'2,2-Dichloro-1-(4-ethoxyphenyl)cyclopropyl piperidin-1-yl ketone'
_symmetry_cell_setting           monoclinic
_symmetry_space_group_name_H-M   'P 21/n'
_symmetry_Int_Tables_number      14
_space_group_name_Hall           '-P 2yn'
loop_
_symmetry_equiv_pos_site_id
_symmetry_equiv_pos_as_xyz
1 x,y,z
2 1/2-x,1/2+y,1/2-z
3 -x,-y,-z
4 1/2+x,1/2-y,1/2+z
_cell_length_a                   6.0819(19)
_cell_length_b                   15.592(6)
_cell_length_c                   18.000(7)
_cell_angle_alpha                90
_cell_angle_beta                 91.087(14)
_cell_angle_gamma                90
_cell_volume                     1706.61
_exptl_crystal_colour            colorless
_exptl_crystal_description       chunk
_chemical_melting_point          '394-396 K'
_cell_formula_units_Z            4
_exptl_crystal_recrystallization_method ethanol
loop_
_atom_site_label
_atom_site_type_symbol
_atom_site_fract_x
_atom_site_fract_y
_atom_site_fract_z
Cl1 Cl 0.68479(6) 0.76493(3) 0.10189(2)
Cl2 Cl 0.48196(8) 0.59715(3) 0.10808(3)
O1 O 0.81357(14) 0.76154(6) 0.27116(6)
O2 O 0.40086(18) 0.42260(6) 0.42018(6)
N1 N 0.52296(17) 0.84585(6) 0.29783(6)
C1 C 0.4654(2) 0.70992(9) 0.23036(8)
C2 C 0.4944(2) 0.69980(10) 0.14759(8)
C3 C 0.2884(2) 0.73858(10) 0.17517(8)
C4 C 0.6151(2) 0.77522(9) 0.26856(8)
C5 C 0.6647(2) 0.90897(10) 0.33574(9)
C6 C 0.6574(2) 0.89809(10) 0.41899(9)
C7 C 0.4232(2) 0.90356(12) 0.44573(10)
C8 C 0.2739(2) 0.84177(12) 0.40296(9)
C9 C 0.2920(2) 0.85334(10) 0.31959(9)
C10 C 0.4342(2) 0.63152(9) 0.27749(8)
C11 C 0.6072(2) 0.57389(9) 0.28734(8)
C12 C 0.5890(2) 0.50429(10) 0.33352(8)
C13 C 0.3989(2) 0.49165(9) 0.37316(8)
C14 C 0.2238(2) 0.54794(10) 0.36374(9)
C15 C 0.2427(2) 0.61681(9) 0.31551(9)
C16 C 0.2333(2) 0.41633(10) 0.47418(9)
C17 C 0.2832(3) 0.33829(11) 0.52048(10)
H1 H 0.1510 0.7072 0.1711
H2 H 0.2604 0.7993 0.1679
H3 H 0.8145 0.9014 0.3193
H4 H 0.6143 0.9662 0.3229
H5 H 0.7168 0.8423 0.4322
H6 H 0.7452 0.9425 0.4429
H7 H 0.4191 0.8906 0.4984
H8 H 0.3691 0.9613 0.4372
H9 H 0.3200 0.7839 0.4154
H10 H 0.1225 0.8500 0.4174
H11 H 0.2369 0.9097 0.3061
H12 H 0.2057 0.8098 0.2939
H13 H 0.7370 0.5832 0.2620
H14 H 0.7045 0.4655 0.3385
H15 H 0.0950 0.5392 0.3897
H16 H 0.1242 0.6538 0.3084
H17 H 0.2348 0.4671 0.5054
H18 H 0.0902 0.4107 0.4499
H19 H 0.1667 0.3284 0.5547
H20 H 0.2967 0.2896 0.4883
H21 H 0.4189 0.3468 0.5476
loop_
_geom_bond_atom_site_label_1
_geom_bond_atom_site_label_2
_geom_bond_site_symmetry_1
_geom_bond_site_symmetry_2
Cl1 C2 1_555 1_555
Cl2 C2 1_555 1_555
O1 C4 1_555 1_555
O2 C13 1_555 1_555
N1 C4 1_555 1_555
C1 C2 1_555 1_555
C2 C3 1_555 1_555
C3 C1 1_555 1_555
C4 C1 1_555 1_555
C5 N1 1_555 1_555
C6 C5 1_555 1_555
C7 C6 1_555 1_555
C8 C7 1_555 1_555
C9 N1 1_555 1_555
C10 C1 1_555 1_555
C11 C10 1_555 1_555
C12 C11 1_555 1_555
C13 C12 1_555 1_555
C14 C13 1_555 1_555
C15 C10 1_555 1_555
C16 O2 1_555 1_555
C17 C16 1_555 1_555
H1 C3 1_555 1_555
H2 C3 1_555 1_555
H3 C5 1_555 1_555
H4 C5 1_555 1_555
H5 C6 1_555 1_555
H6 C6 1_555 1_555
H7 C7 1_555 1_555
H8 C7 1_555 1_555
H9 C8 1_555 1_555
H10 C8 1_555 1_555
H11 C9 1_555 1_555
H12 C9 1_555 1_555
H13 C11 1_555 1_555
H14 C12 1_555 1_555
H15 C14 1_555 1_555
H16 C15 1_555 1_555
H17 C16 1_555 1_555
H18 C16 1_555 1_555
H19 C17 1_555 1_555
H20 C17 1_555 1_555
H21 C17 1_555 1_555
C8 C9 1_555 1_555
C14 C15 1_555 1_555

#END
