
#######################################################################
#
#                 Cambridge Crystallographic Data Centre
#                                CCDC 
#
#######################################################################
#
# If this CIF has been generated from an entry in the Cambridge 
# Structural Database, then it will include bibliographic, chemical, 
# crystal, experimental, refinement or atomic coordinate data resulting 
# from the CCDC's data processing and validation procedures.
#
#######################################################################

data_NERWOZ
_chemical_formula_moiety         'C21 H17 N3 O1'
_chemical_name_systematic        
2-[methyl(pyridin-2-yl)amino]-3-phenylisoquinolin-1(2H)-one
_symmetry_cell_setting           monoclinic
_symmetry_space_group_name_H-M   'P 21/n'
_symmetry_Int_Tables_number      14
_space_group_name_Hall           '-P 2yn'
loop_
_symmetry_equiv_pos_site_id
_symmetry_equiv_pos_as_xyz
1 x,y,z
2 1/2-x,1/2+y,1/2-z
3 -x,-y,-z
4 1/2+x,1/2-y,1/2+z
_cell_length_a                   5.9781(15)
_cell_length_b                   12.919(2)
_cell_length_c                   22.346(4)
_cell_angle_alpha                90
_cell_angle_beta                 92.713(5)
_cell_angle_gamma                90
_cell_volume                     1723.87
_exptl_crystal_colour            colorless
_exptl_crystal_description       Prism
_chemical_melting_point          '127.6-128.4 deg.C'
_cell_formula_units_Z            4
loop_
_atom_site_label
_atom_site_type_symbol
_atom_site_fract_x
_atom_site_fract_y
_atom_site_fract_z
N1 N 0.9189(4) 0.26975(17) 0.18551(10)
O1 O 0.7033(4) 0.12965(17) 0.20169(9)
N2 N 1.0051(4) 0.21867(18) 0.13611(11)
C1 C 0.8945(5) 0.1174(2) 0.05547(11)
H1 H 1.0220 0.0775 0.0634
C2 C 0.9622(5) 0.4040(2) 0.25694(12)
H2 H 1.0311 0.4648 0.2703
C3 C 0.7699(5) 0.2141(2) 0.21922(13)
C4 C 0.7005(5) 0.2641(2) 0.27396(13)
C5 C 1.1736(5) 0.4179(2) 0.16496(13)
C6 C 0.7320(6) 0.4014(3) 0.34662(14)
H3 H 0.7959 0.4632 0.3603
C7 C 1.0182(5) 0.3638(2) 0.20428(13)
C8 C 0.8477(5) 0.1962(2) 0.08940(12)
C9 C 1.3692(5) 0.4597(3) 0.19103(15)
H4 H 1.4060 0.4470 0.2313
C10 C 0.8017(5) 0.3569(2) 0.29288(12)
N3 N 0.6594(6) 0.2597(3) 0.07970(14)
C11 C 0.5384(6) 0.2175(3) 0.30781(15)
H5 H 0.4741 0.1551 0.2953
C12 C 0.7514(8) 0.0960(3) 0.00848(16)
H6 H 0.7830 0.0398 -0.0157
C13 C 1.1214(6) 0.4387(3) 0.10462(14)
H7 H 0.9916 0.4116 0.0862
C14 C 0.4739(8) 0.2630(3) 0.35922(18)
H8 H 0.3638 0.2327 0.3815
C15 C 1.1760(6) 0.1420(3) 0.15340(16)
H9 H 1.2278 0.1089 0.1182
H10 H 1.1131 0.0910 0.1790
H11 H 1.2994 0.1757 0.1744
C16 C 0.5748(8) 0.3556(3) 0.37817(16)
H12 H 0.5318 0.3862 0.4135
C17 C 1.5089(6) 0.5196(3) 0.1583(2)
H13 H 1.6402 0.5462 0.1763
C18 C 0.5165(7) 0.2347(3) 0.03040(17)
H14 H 0.3888 0.2739 0.0216
C19 C 1.2613(6) 0.4990(3) 0.07259(16)
H15 H 1.2246 0.5123 0.0324
C20 C 1.4535(7) 0.5402(3) 0.0982(2)
H16 H 1.5459 0.5814 0.0758
C21 C 0.5676(8) 0.1509(4) -0.00501(16)
H17 H 0.4745 0.1332 -0.0379
loop_
_geom_bond_atom_site_label_1
_geom_bond_atom_site_label_2
_geom_bond_site_symmetry_1
_geom_bond_site_symmetry_2
N1 N2 1_555 1_555
O1 C3 1_555 1_555
N2 C8 1_555 1_555
C1 H1 1_555 1_555
C2 H2 1_555 1_555
C3 N1 1_555 1_555
C4 C3 1_555 1_555
C5 C7 1_555 1_555
C6 H3 1_555 1_555
C7 N1 1_555 1_555
C8 C1 1_555 1_555
C9 C5 1_555 1_555
H4 C9 1_555 1_555
C10 C2 1_555 1_555
N3 C8 1_555 1_555
C11 C4 1_555 1_555
H5 C11 1_555 1_555
C12 C1 1_555 1_555
H6 C12 1_555 1_555
C13 C5 1_555 1_555
H7 C13 1_555 1_555
C14 C11 1_555 1_555
H8 C14 1_555 1_555
C15 N2 1_555 1_555
H9 C15 1_555 1_555
H10 C15 1_555 1_555
H11 C15 1_555 1_555
C16 C6 1_555 1_555
H12 C16 1_555 1_555
C17 C9 1_555 1_555
H13 C17 1_555 1_555
C18 N3 1_555 1_555
H14 C18 1_555 1_555
C19 C13 1_555 1_555
H15 C19 1_555 1_555
C20 C17 1_555 1_555
H16 C20 1_555 1_555
C21 C12 1_555 1_555
H17 C21 1_555 1_555
C2 C7 1_555 1_555
C4 C10 1_555 1_555
C6 C10 1_555 1_555
C14 C16 1_555 1_555
C18 C21 1_555 1_555
C19 C20 1_555 1_555

#END
