
#######################################################################
#
#                 Cambridge Crystallographic Data Centre
#                                CCDC 
#
#######################################################################
#
# If this CIF has been generated from an entry in the Cambridge 
# Structural Database, then it will include bibliographic, chemical, 
# crystal, experimental, refinement or atomic coordinate data resulting 
# from the CCDC's data processing and validation procedures.
#
#######################################################################

data_NERYIV
_chemical_name_common            FRP-7
_chemical_formula_moiety         'C252 H324 N12'
_chemical_name_systematic        
"2,2':7',2'':7'',2''':12''',12':7''',12:7,12''-hexakis(cyclohexane-1,2-diylbis(iminomethyl))tetrakis(5,5,10,10,15,15-hexabutyl-10,15-dihydro-5H-diindeno[1,2-a:1',2'-c]fluorene) unknown solvate"
_symmetry_cell_setting           trigonal
_symmetry_space_group_name_H-M   'P -3'
_symmetry_Int_Tables_number      147
_space_group_name_Hall           '-P 3'
loop_
_symmetry_equiv_pos_site_id
_symmetry_equiv_pos_as_xyz
1 x,y,z
2 -y,x-y,z
3 -x+y,-x,z
4 -x,-y,-z
5 y,-x+y,-z
6 x-y,x,-z
_cell_length_a                   27.8827(6)
_cell_length_b                   27.8827(6)
_cell_length_c                   25.2681(5)
_cell_angle_alpha                90
_cell_angle_beta                 90
_cell_angle_gamma                120
_cell_volume                     17012.7
_exptl_crystal_colour            'light colorless'
_exptl_crystal_description       block
_cell_formula_units_Z            2
loop_
_atom_site_label
_atom_site_type_symbol
_atom_site_fract_x
_atom_site_fract_y
_atom_site_fract_z
N1 N 0.78115(8) 0.10435(8) 0.95363(8)
N2 N 0.98104(8) 0.65138(7) 0.93447(8)
C1 C 0.94467(10) 0.54232(9) 0.89048(9)
H1 H 0.9399 0.5428 0.9269
C2 C 0.80925(9) 0.19973(9) 0.94084(8)
C3 C 0.82094(10) 0.24878(9) 0.96446(9)
H2 H 0.8120 0.2488 0.9999
C4 C 0.78357(9) 0.14731(9) 0.97108(9)
H3 H 0.7687 0.1464 1.0043
C5 C 0.82202(11) 0.19976(10) 0.88716(9)
H4 H 0.8146 0.1670 0.8705
C6 C 0.96454(11) 0.59117(9) 0.86087(9)
C7 C 0.95318(12) 0.38732(10) 0.66837(10)
C8 C 0.93228(10) 0.49350(9) 0.86540(9)
C9 C 0.84566(12) 0.24885(10) 0.85944(10)
C10 C 0.84578(11) 0.29835(10) 0.93673(9)
H5 H 0.8542 0.3312 0.9539
C11 C 0.90800(11) 0.43675(9) 0.89156(9)
N3 N 0.96457(11) 0.38625(11) 0.41981(9)
C12 C 0.85800(11) 0.29899(9) 0.88355(9)
N4 N 1.01795(11) 0.37948(10) 0.51534(9)
C13 C 0.94058(11) 0.49111(9) 0.81171(9)
C14 C 0.97797(11) 0.64406(9) 0.88575(11)
H6 H 0.9845 0.6736 0.8640
C15 C 0.88295(11) 0.34328(9) 0.84219(9)
C16 C 0.97319(12) 0.38820(11) 0.61837(10)
H7 H 0.9936 0.4217 0.6006
C17 C 0.75452(10) 0.05446(9) 0.98662(10)
H8 H 0.7359 0.0605 1.0166
C18 C 0.95745(15) 0.53901(11) 0.78147(11)
H9 H 0.9608 0.5380 0.7449
C19 C 0.92419(11) 0.43271(9) 0.79780(9)
C20 C 0.90236(10) 0.40004(9) 0.84406(9)
C21 C 0.90985(13) 0.35090(10) 0.74963(10)
C22 C 0.92927(11) 0.40874(9) 0.75139(9)
C23 C 0.95584(12) 0.43585(10) 0.69827(9)
C24 C 0.99347(9) 0.70597(9) 0.95347(10)
H10 H 0.9986 0.7299 0.9230
C25 C 0.86220(15) 0.25589(10) 0.80185(10)
C26 C 0.92326(15) 0.33760(11) 0.69679(10)
C27 C 0.85225(13) 0.42333(10) 0.91660(11)
H11 H 0.8388 0.3899 0.9376
H12 H 0.8586 0.4532 0.9405
C28 C 0.94898(13) 0.43683(10) 0.93256(9)
H13 H 0.9575 0.4662 0.9578
H14 H 0.9305 0.4021 0.9517
C29 C 0.98423(15) 0.33760(13) 0.54135(11)
H15 H 0.9718 0.3031 0.5260
C30 C 0.88668(13) 0.31820(10) 0.79453(10)
C31 C 1.00324(14) 0.44442(13) 0.91118(11)
H16 H 0.9952 0.4138 0.8877
H17 H 1.0210 0.4781 0.8903
C32 C 0.96905(15) 0.58769(10) 0.80626(11)
H18 H 0.9803 0.6193 0.7858
C33 C 0.96288(15) 0.33908(13) 0.59448(11)
C34 C 0.89540(14) 0.41213(15) 0.42691(12)
C35 C 1.02366(12) 0.40238(13) 0.42085(11)
H19 H 1.0462 0.4420 0.4288
C36 C 0.79697(14) 0.34842(14) 0.42478(11)
C37 C 1.01627(14) 0.48387(12) 0.70354(11)
H20 H 1.0331 0.4925 0.6687
H21 H 1.0158 0.5164 0.7164
C38 C 0.70060(14) 0.30914(15) 0.42621(12)
C39 C 0.95773(12) 0.75707(12) 1.00726(13)
H22 H 0.9614 0.7808 0.9776
H23 H 0.9272 0.7527 1.0291
C40 C 0.85122(14) 0.35787(14) 0.42484(12)
H24 H 0.8577 0.3283 0.4235
C41 C 1.04311(19) 0.44763(14) 0.95269(14)
H25 H 1.0525 0.4795 0.9749
H26 H 1.0243 0.4150 0.9749
C42 C 0.91960(15) 0.45401(11) 0.66693(11)
H27 H 0.9200 0.4846 0.6855
H28 H 0.9364 0.4676 0.6325
C43 C 0.95269(14) 0.42348(14) 0.42786(12)
H29 H 0.9811 0.4594 0.4346
C44 C 1.03335(13) 0.36877(13) 0.46305(11)
H30 H 1.0100 0.3293 0.4549
C45 C 0.72493(14) 0.36745(14) 0.42658(12)
C46 C 0.78593(13) 0.39303(14) 0.42663(13)
C47 C 1.04638(11) 0.73228(12) 0.98685(14)
H31 H 1.0771 0.7360 0.9657
H32 H 1.0418 0.7086 1.0168
C48 C 0.8090(2) 0.22228(12) 0.76878(11)
H33 H 0.7908 0.1840 0.7804
H34 H 0.8195 0.2231 0.7320
C49 C 1.05920(13) 0.78953(13) 1.00669(16)
H35 H 1.0926 0.8058 1.0280
H36 H 1.0653 0.8137 0.9768
C50 C 0.74277(16) 0.28390(14) 0.52597(13)
H37 H 0.7061 0.2796 0.5287
H38 H 0.7693 0.3233 0.5260
C51 C 0.74694(14) 0.26013(13) 0.47409(15)
H39 H 0.7167 0.2222 0.4717
H40 H 0.7813 0.2592 0.4735
C52 C 0.88390(16) 0.45639(16) 0.42928(16)
H41 H 0.9131 0.4926 0.4316
C53 C 0.9330(2) 0.29055(13) 0.62159(13)
H42 H 0.9256 0.2575 0.6055
C54 C 0.74524(14) 0.29263(14) 0.42445(13)
C55 C 0.83039(15) 0.44671(15) 0.42814(16)
H43 H 0.8240 0.4764 0.4284
C56 C 1.03936(15) 0.39048(16) 0.36632(12)
H44 H 1.0151 0.3518 0.3574
H45 H 1.0344 0.4128 0.3399
C57 C 0.86073(17) 0.40967(16) 0.65891(14)
H46 H 0.8430 0.3990 0.6933
H47 H 0.8605 0.3775 0.6440
C58 C 0.9033(2) 0.23634(16) 0.79316(16)
H48 H 0.9098 0.2364 0.7555
H49 H 0.8869 0.1984 0.8055
C59 C 1.01104(14) 0.78396(15) 1.03966(16)
H50 H 1.0189 0.8203 1.0515
H51 H 1.0064 0.7616 1.0707
C60 C 0.76605(19) 0.24378(16) 0.77232(14)
H52 H 0.7623 0.2502 0.8094
H53 H 0.7828 0.2796 0.7549
C61 C 0.80779(15) 0.41518(16) 0.87807(15)
H54 H 0.7976 0.3822 0.8574
H55 H 0.8227 0.4464 0.8539
C62 C 1.09890(16) 0.40323(19) 0.36561(15)
H56 H 1.1073 0.3939 0.3312
H57 H 1.1234 0.4426 0.3714
C63 C 1.09331(14) 0.38291(19) 0.46341(15)
H58 H 1.0986 0.3606 0.4897
H59 H 1.1170 0.4216 0.4725
C64 C 1.05166(16) 0.47207(18) 0.73980(17)
H60 H 1.0503 0.4382 0.7285
H61 H 1.0366 0.4662 0.7753
C65 C 0.9134(2) 0.28913(13) 0.67282(13)
H62 H 0.8937 0.2556 0.6906
C66 C 0.75574(17) 0.40952(18) 0.9040(2)
H63 H 0.7267 0.3973 0.8776
H64 H 0.7433 0.3812 0.9312
C67 C 0.8257(2) 0.4246(2) 0.62322(17)
H65 H 0.8249 0.4564 0.6379
H66 H 0.7880 0.3939 0.6222
C68 C 0.74293(19) 0.2638(2) 0.37159(19)
H67 H 0.7080 0.2292 0.3696
H68 H 0.7724 0.2549 0.3712
C69 C 1.0944(2) 0.4518(2) 0.9338(2)
H69 H 1.0860 0.4200 0.9126
H70 H 1.1166 0.4534 0.9635
H71 H 1.1143 0.4848 0.9129
C70 C 1.1122(2) 0.5190(3) 0.7408(2)
H72 H 1.1289 0.5209 0.7066
H73 H 1.1132 0.5538 0.7466
C71 C 0.9594(3) 0.2715(3) 0.8212(3)
H74 H 0.9722 0.3100 0.8125
H75 H 0.9523 0.2676 0.8590
C72 C 1.10888(17) 0.3713(2) 0.40745(17)
H76 H 1.1476 0.3815 0.4071
H77 H 1.0870 0.3320 0.3998
C73 C 0.7489(3) 0.3012(3) 0.3189(2)
H78 H 0.7230 0.3146 0.3226
H79 H 0.7859 0.3333 0.3191
C74 C 0.8495(2) 0.4385(2) 0.56574(19)
H80 H 0.8863 0.4699 0.5666
H81 H 0.8263 0.4467 0.5441
H82 H 0.8506 0.4072 0.5513
C75 C 0.75294(19) 0.2579(2) 0.5746(2)
H83 H 0.7464 0.2741 0.6058
H84 H 0.7258 0.2187 0.5747
C76 C 0.7637(3) 0.4600(2) 0.9276(3)
H85 H 0.7917 0.4719 0.9544
H86 H 0.7296 0.4536 0.9431
H87 H 0.7752 0.4881 0.9008
C77 C 0.8072(3) 0.2638(3) 0.5791(3)
H88 H 0.8138 0.2467 0.5492
H89 H 0.8092 0.2463 0.6111
H90 H 0.8347 0.3024 0.5801
C78 C 0.7068(3) 0.2086(2) 0.7496(2)
H91 H 0.7094 0.1978 0.7137
H92 H 0.6869 0.1751 0.7704
C79 C 1.1458(3) 0.5119(4) 0.7825(4)
H93 H 1.1301 0.5108 0.8166
H94 H 1.1831 0.5425 0.7812
H95 H 1.1459 0.4780 0.7765
C80 C 1.0060(4) 0.2614(5) 0.8111(4)
H96 H 0.9987 0.2280 0.8297
H97 H 1.0069 0.2546 0.7736
C81 C 0.6743(4) 0.2384(3) 0.7491(3)
H98 H 0.6701 0.2479 0.7847
H99 H 0.6384 0.2147 0.7340
H100 H 0.6935 0.2715 0.7283
C82 C 0.7404(4) 0.2764(4) 0.2705(3)
H101 H 0.7029 0.2454 0.2684
H102 H 0.7656 0.2623 0.2658
C83 C 0.7495(5) 0.3168(5) 0.2276(4)
H103 H 0.7242 0.3304 0.2320
H104 H 0.7433 0.2988 0.1939
H105 H 0.7869 0.3471 0.2294
C84 C 1.0580(4) 0.3041(6) 0.8262(7)
H106 H 1.0653 0.3378 0.8091
H107 H 1.0857 0.2950 0.8161
H108 H 1.0589 0.3088 0.8639
N1A N 0.89565(8) 0.67680(11) 0.95363(8)
N2A N 0.34862(7) 0.32966(11) 0.93447(8)
C1A C 0.45768(9) 0.40235(13) 0.89048(9)
H1A H 0.4572 0.3971 0.9269
C2A C 0.80027(9) 0.60952(13) 0.94084(8)
C3A C 0.75122(9) 0.57216(13) 0.96446(9)
H2A H 0.7512 0.5632 0.9999
C4A C 0.85269(9) 0.63626(13) 0.97108(9)
H3A H 0.8536 0.6223 1.0043
C5A C 0.80024(10) 0.62226(15) 0.88716(9)
H4A H 0.8330 0.6476 0.8705
C6A C 0.40883(9) 0.37337(14) 0.86087(9)
C7A C 0.61268(10) 0.56586(16) 0.66837(10)
C8A C 0.50650(9) 0.43878(13) 0.86540(9)
C9A C 0.75115(10) 0.59681(16) 0.85944(10)
C10A C 0.70165(10) 0.54743(15) 0.93673(9)
H5A H 0.6688 0.5230 0.9539
C11A C 0.56325(9) 0.47125(14) 0.89156(9)
N3A N 0.61375(11) 0.57832(16) 0.41981(9)
C12A C 0.70101(9) 0.55901(14) 0.88355(9)
N4A N 0.62052(10) 0.63847(15) 0.51534(9)
C13A C 0.50889(9) 0.44947(14) 0.81171(9)
C14A C 0.35594(9) 0.33391(14) 0.88575(11)
H6A H 0.3264 0.3109 0.8640
C15A C 0.65672(9) 0.53967(14) 0.84219(9)
C16A C 0.61180(11) 0.58499(16) 0.61837(10)
H7A H 0.5783 0.5719 0.6006
C17A C 0.94554(9) 0.70006(13) 0.98662(10)
H8A H 0.9395 0.6754 1.0166
C18A C 0.46099(11) 0.41844(19) 0.78147(11)
H9A H 0.4620 0.4228 0.7449
C19A C 0.56729(9) 0.49148(14) 0.79780(9)
C20A C 0.59996(9) 0.50232(13) 0.84406(9)
C21A C 0.64910(10) 0.55895(16) 0.74963(10)
C22A C 0.59126(9) 0.52053(14) 0.75139(9)
C23A C 0.56415(10) 0.51999(16) 0.69827(9)
C24A C 0.29403(9) 0.28750(13) 0.95347(10)
H10A H 0.2701 0.2687 0.9230
C25A C 0.74411(10) 0.60631(18) 0.80185(10)
C26A C 0.66240(11) 0.58566(19) 0.69679(10)
C27A C 0.57667(10) 0.42892(16) 0.91660(11)
H11A H 0.6101 0.4489 0.9376
H12A H 0.5468 0.4054 0.9405
C28A C 0.56317(10) 0.51215(16) 0.93256(9)
H13A H 0.5338 0.4913 0.9578
H14A H 0.5979 0.5284 0.9517
C29A C 0.66240(13) 0.64663(20) 0.54135(11)
H15A H 0.6969 0.6687 0.5260
C30A C 0.68180(10) 0.56848(16) 0.79453(10)
C31A C 0.55558(13) 0.55882(19) 0.91118(11)
H16A H 0.5862 0.5814 0.8877
H17A H 0.5219 0.5429 0.8903
C32A C 0.41231(10) 0.38136(18) 0.80626(11)
H18A H 0.3807 0.3610 0.7858
C33A C 0.66092(13) 0.62380(20) 0.59448(11)
C34A C 0.58787(15) 0.48327(21) 0.42691(12)
C35A C 0.59762(13) 0.62128(18) 0.42085(11)
H19A H 0.5580 0.6042 0.4288
C36A C 0.65158(14) 0.44855(20) 0.42478(11)
C37A C 0.51613(12) 0.53240(18) 0.70354(11)
H20A H 0.5075 0.5406 0.6687
H21A H 0.4836 0.4994 0.7164
C38A C 0.69086(15) 0.39146(21) 0.42621(12)
C39A C 0.24293(12) 0.20066(17) 1.00726(13)
H22A H 0.2192 0.1806 0.9776
H23A H 0.2473 0.1745 1.0291
C40A C 0.64213(14) 0.49335(20) 0.42484(12)
H24A H 0.6717 0.5294 0.4235
C41A C 0.55237(14) 0.59548(24) 0.95269(14)
H25A H 0.5205 0.5730 0.9749
H26A H 0.5850 0.6093 0.9749
C42A C 0.54599(11) 0.46559(19) 0.66693(11)
H27A H 0.5154 0.4354 0.6855
H28A H 0.5324 0.4688 0.6325
C43A C 0.57652(14) 0.52921(20) 0.42786(12)
H29A H 0.5406 0.5217 0.4346
C44A C 0.63123(13) 0.66458(18) 0.46305(11)
H30A H 0.6707 0.6807 0.4549
C45A C 0.63255(14) 0.35748(20) 0.42658(12)
C46A C 0.60697(14) 0.39290(19) 0.42663(13)
C47A C 0.26772(12) 0.31410(16) 0.98685(14)
H31A H 0.2640 0.3411 0.9657
H32A H 0.2914 0.3332 1.0168
C48A C 0.77772(12) 0.58672(23) 0.76878(11)
H33A H 0.8160 0.6068 0.7804
H34A H 0.7769 0.5964 0.7320
C49A C 0.21047(13) 0.26967(18) 1.00669(16)
H35A H 0.1942 0.2868 1.0280
H36A H 0.1863 0.2516 0.9768
C50A C 0.71610(14) 0.45887(21) 0.52597(13)
H37A H 0.7204 0.4265 0.5287
H38A H 0.6767 0.4460 0.5260
C51A C 0.73987(13) 0.48681(19) 0.47409(15)
H39A H 0.7778 0.4945 0.4717
H40A H 0.7408 0.5221 0.4735
C52A C 0.54361(16) 0.42751(23) 0.42928(16)
H41A H 0.5074 0.4205 0.4316
C53A C 0.70945(13) 0.64245(24) 0.62159(13)
H42A H 0.7425 0.6681 0.6055
C54A C 0.70737(14) 0.45261(20) 0.42445(13)
C55A C 0.55329(15) 0.38368(21) 0.42814(16)
H43A H 0.5236 0.3476 0.4284
C56A C 0.60952(16) 0.64888(22) 0.36632(12)
H44A H 0.6482 0.6633 0.3574
H45A H 0.5872 0.6216 0.3399
C57A C 0.59033(16) 0.45106(23) 0.65891(14)
H46A H 0.6010 0.4440 0.6933
H47A H 0.6225 0.4830 0.6440
C58A C 0.76366(16) 0.66696(26) 0.79316(16)
H48A H 0.7636 0.6734 0.7555
H49A H 0.8016 0.6885 0.8055
C59A C 0.21604(15) 0.22708(21) 1.03966(16)
H50A H 0.1797 0.1986 1.0515
H51A H 0.2384 0.2448 1.0707
C60A C 0.75622(16) 0.52227(25) 0.77232(14)
H52A H 0.7498 0.5121 0.8094
H53A H 0.7204 0.5032 0.7549
C61A C 0.58482(16) 0.39261(22) 0.87807(15)
H54A H 0.6178 0.4154 0.8574
H55A H 0.5536 0.3763 0.8539
C62A C 0.59677(19) 0.69567(25) 0.36561(15)
H56A H 0.6061 0.7134 0.3312
H57A H 0.5574 0.6808 0.3714
C63A C 0.61709(19) 0.71040(24) 0.46341(15)
H58A H 0.6394 0.7380 0.4897
H59A H 0.5784 0.6954 0.4725
C64A C 0.52793(18) 0.57959(24) 0.73980(17)
H60A H 0.5618 0.6121 0.7285
H61A H 0.5338 0.5704 0.7753
C65A C 0.71087(13) 0.62427(24) 0.67282(13)
H62A H 0.7444 0.6381 0.6906
C66A C 0.59048(18) 0.34622(25) 0.9040(2)
H63A H 0.6027 0.3294 0.8776
H64A H 0.6188 0.3621 0.9312
C67A C 0.5754(2) 0.4011(3) 0.62322(17)
H65A H 0.5436 0.3685 0.6379
H66A H 0.6061 0.3941 0.6222
C68A C 0.7362(2) 0.47913(28) 0.37159(19)
H67A H 0.7708 0.4788 0.3696
H68A H 0.7451 0.5175 0.3712
C69A C 0.5482(2) 0.6426(3) 0.9338(2)
H69A H 0.5800 0.6660 0.9126
H70A H 0.5466 0.6632 0.9635
H71A H 0.5152 0.6295 0.9129
C70A C 0.4810(3) 0.5932(4) 0.7408(2)
H72A H 0.4791 0.6080 0.7066
H73A H 0.4462 0.5594 0.7466
C71A C 0.7285(3) 0.6879(4) 0.8212(3)
H74A H 0.6900 0.6622 0.8125
H75A H 0.7324 0.6847 0.8590
C72A C 0.6287(2) 0.73758(26) 0.40745(17)
H76A H 0.6185 0.7661 0.4071
H77A H 0.6680 0.7550 0.3998
C73A C 0.6988(3) 0.4477(4) 0.3189(2)
H78A H 0.6854 0.4084 0.3226
H79A H 0.6667 0.4526 0.3191
C74A C 0.5615(2) 0.4110(3) 0.56574(19)
H80A H 0.5301 0.4164 0.5666
H81A H 0.5533 0.3796 0.5441
H82A H 0.5928 0.4434 0.5513
C75A C 0.7421(2) 0.49504(28) 0.5746(2)
H83A H 0.7259 0.4723 0.6058
H84A H 0.7813 0.5071 0.5747
C76A C 0.5400(2) 0.3037(4) 0.9276(3)
H85A H 0.5281 0.3198 0.9544
H86A H 0.5464 0.2760 0.9431
H87A H 0.5119 0.2871 0.9008
C77A C 0.7362(3) 0.5434(4) 0.5791(3)
H88A H 0.7533 0.5671 0.5492
H89A H 0.7537 0.5629 0.6111
H90A H 0.6976 0.5323 0.5801
C78A C 0.7914(2) 0.4982(4) 0.7496(2)
H91A H 0.8022 0.5116 0.7137
H92A H 0.8249 0.5118 0.7704
C79A C 0.4881(4) 0.6339(5) 0.7825(4)
H93A H 0.4892 0.6193 0.8166
H94A H 0.4575 0.6406 0.7812
H95A H 0.5220 0.6679 0.7765
C80A C 0.7386(5) 0.7446(6) 0.8111(4)
H96A H 0.7720 0.7707 0.8297
H97A H 0.7454 0.7523 0.7736
C81A C 0.7616(3) 0.4359(5) 0.7491(3)
H98A H 0.7521 0.4222 0.7847
H99A H 0.7853 0.4237 0.7340
H100A H 0.7285 0.4220 0.7283
C82A C 0.7236(4) 0.4640(6) 0.2705(3)
H101A H 0.7546 0.4575 0.2684
H102A H 0.7377 0.5033 0.2658
C83A C 0.6832(5) 0.4327(7) 0.2276(4)
H103A H 0.6696 0.3938 0.2320
H104A H 0.7012 0.4445 0.1939
H105A H 0.6529 0.4398 0.2294
C84A C 0.6959(6) 0.7539(7) 0.8262(7)
H106A H 0.6622 0.7275 0.8091
H107A H 0.7050 0.7907 0.8161
H108A H 0.6912 0.7501 0.8639
N1B N 0.32320(11) 0.21885(8) 0.95363(8)
N2B N 0.67034(11) 0.01896(8) 0.93447(8)
C1B C 0.59765(13) 0.05533(10) 0.89048(9)
H1B H 0.6029 0.0601 0.9269
C2B C 0.39048(13) 0.19075(9) 0.94084(8)
C3B C 0.42784(13) 0.17906(10) 0.96446(9)
H2B H 0.4368 0.1880 0.9999
C4B C 0.36374(13) 0.21643(9) 0.97108(9)
H3B H 0.3777 0.2313 1.0043
C5B C 0.37774(15) 0.17798(11) 0.88716(9)
H4B H 0.3524 0.1854 0.8705
C6B C 0.62663(14) 0.03546(11) 0.86087(9)
C7B C 0.43414(16) 0.04682(12) 0.66837(10)
C8B C 0.56122(13) 0.06772(10) 0.86540(9)
C9B C 0.40319(16) 0.15434(12) 0.85944(10)
C10B C 0.45257(15) 0.15422(11) 0.93673(9)
H5B H 0.4770 0.1458 0.9539
C11B C 0.52875(14) 0.09200(11) 0.89156(9)
N3B N 0.42168(16) 0.03543(11) 0.41981(9)
C12B C 0.44099(14) 0.14200(11) 0.88355(9)
N4B N 0.36153(15) -0.01795(11) 0.51534(9)
C13B C 0.55053(14) 0.05942(11) 0.81171(9)
C14B C 0.66609(14) 0.02203(11) 0.88575(11)
H6B H 0.6891 0.0155 0.8640
C15B C 0.46033(14) 0.11705(11) 0.84219(9)
C16B C 0.41501(16) 0.02681(12) 0.61837(10)
H7B H 0.4281 0.0064 0.6006
C17B C 0.29994(13) 0.24548(10) 0.98662(10)
H8B H 0.3246 0.2641 1.0166
C18B C 0.58156(19) 0.04255(15) 0.78147(11)
H9B H 0.5772 0.0392 0.7449
C19B C 0.50852(14) 0.07581(11) 0.79780(9)
C20B C 0.49768(13) 0.09764(10) 0.84406(9)
C21B C 0.44105(16) 0.09015(13) 0.74963(10)
C22B C 0.47947(14) 0.07073(11) 0.75139(9)
C23B C 0.48001(16) 0.04416(12) 0.69827(9)
C24B C 0.71250(13) 0.00653(9) 0.95347(10)
H10B H 0.7313 0.0014 0.9230
C25B C 0.39369(18) 0.13780(15) 0.80185(10)
C26B C 0.41434(19) 0.07674(15) 0.69679(10)
C27B C 0.57108(16) 0.14775(13) 0.91660(11)
H11B H 0.5511 0.1612 0.9376
H12B H 0.5946 0.1414 0.9405
C28B C 0.48785(16) 0.05102(13) 0.93256(9)
H13B H 0.5087 0.0425 0.9578
H14B H 0.4716 0.0695 0.9517
C29B C 0.35337(20) 0.01577(15) 0.54135(11)
H15B H 0.3313 0.0282 0.5260
C30B C 0.43152(16) 0.11332(13) 0.79453(10)
C31B C 0.44118(19) -0.00324(14) 0.91118(11)
H16B H 0.4186 0.0048 0.8877
H17B H 0.4571 -0.0210 0.8903
C32B C 0.61864(18) 0.03095(15) 0.80626(11)
H18B H 0.6390 0.0197 0.7858
C33B C 0.37620(20) 0.03712(15) 0.59448(11)
C34B C 0.51673(21) 0.10460(14) 0.42691(12)
C35B C 0.37872(18) -0.02366(12) 0.42085(11)
H19B H 0.3958 -0.0462 0.4288
C36B C 0.55145(20) 0.20303(14) 0.42478(11)
C37B C 0.46760(18) -0.01627(14) 0.70354(11)
H20B H 0.4594 -0.0331 0.6687
H21B H 0.5006 -0.0158 0.7164
C38B C 0.60854(21) 0.29940(14) 0.42621(12)
C39B C 0.79934(17) 0.04227(12) 1.00726(13)
H22B H 0.8194 0.0386 0.9776
H23B H 0.8255 0.0728 1.0291
C40B C 0.50665(20) 0.14878(14) 0.42484(12)
H24B H 0.4706 0.1423 0.4235
C41B C 0.40452(24) -0.04311(19) 0.95269(14)
H25B H 0.4270 -0.0525 0.9749
H26B H 0.3907 -0.0243 0.9749
C42B C 0.53441(19) 0.08040(15) 0.66693(11)
H27B H 0.5646 0.0800 0.6855
H28B H 0.5312 0.0636 0.6325
C43B C 0.47079(20) 0.04731(14) 0.42786(12)
H29B H 0.4783 0.0189 0.4346
C44B C 0.33542(18) -0.03335(13) 0.46305(11)
H30B H 0.3193 -0.0100 0.4549
C45B C 0.64252(20) 0.27507(14) 0.42658(12)
C46B C 0.60710(19) 0.21407(13) 0.42663(13)
C47B C 0.68590(16) -0.04638(11) 0.98685(14)
H31B H 0.6589 -0.0771 0.9657
H32B H 0.6668 -0.0418 1.0168
C48B C 0.41328(23) 0.1910(2) 0.76878(11)
H33B H 0.3932 0.2092 0.7804
H34B H 0.4036 0.1805 0.7320
C49B C 0.73033(18) -0.05920(13) 1.00669(16)
H35B H 0.7132 -0.0926 1.0280
H36B H 0.7484 -0.0653 0.9768
C50B C 0.54113(21) 0.25723(16) 0.52597(13)
H37B H 0.5735 0.2939 0.5287
H38B H 0.5540 0.2307 0.5260
C51B C 0.51319(19) 0.25306(14) 0.47409(15)
H39B H 0.5055 0.2833 0.4717
H40B H 0.4779 0.2187 0.4735
C52B C 0.57249(23) 0.11610(16) 0.42928(16)
H41B H 0.5795 0.0869 0.4316
C53B C 0.35755(24) 0.0670(2) 0.62159(13)
H42B H 0.3319 0.0744 0.6055
C54B C 0.54739(20) 0.25476(14) 0.42445(13)
C55B C 0.61632(21) 0.16961(15) 0.42814(16)
H43B H 0.6524 0.1760 0.4284
C56B C 0.35112(22) -0.03936(15) 0.36632(12)
H44B H 0.3367 -0.0151 0.3574
H45B H 0.3784 -0.0344 0.3399
C57B C 0.54894(23) 0.13927(17) 0.65891(14)
H46B H 0.5560 0.1570 0.6933
H47B H 0.5170 0.1395 0.6440
C58B C 0.33304(26) 0.0967(2) 0.79316(16)
H48B H 0.3266 0.0902 0.7555
H49B H 0.3115 0.1131 0.8055
C59B C 0.77292(21) -0.01104(14) 1.03966(16)
H50B H 0.8014 -0.0189 1.0515
H51B H 0.7552 -0.0064 1.0707
C60B C 0.47773(25) 0.23395(19) 0.77232(14)
H52B H 0.4879 0.2377 0.8094
H53B H 0.4968 0.2172 0.7549
C61B C 0.60739(22) 0.19221(15) 0.87807(15)
H54B H 0.5846 0.2024 0.8574
H55B H 0.6237 0.1773 0.8539
C62B C 0.30433(25) -0.09890(16) 0.36561(15)
H56B H 0.2866 -0.1073 0.3312
H57B H 0.3192 -0.1234 0.3714
C63B C 0.28960(24) -0.09331(14) 0.46341(15)
H58B H 0.2620 -0.0986 0.4897
H59B H 0.3046 -0.1170 0.4725
C64B C 0.42041(24) -0.05166(16) 0.73980(17)
H60B H 0.3879 -0.0503 0.7285
H61B H 0.4296 -0.0366 0.7753
C65B C 0.37573(24) 0.0866(2) 0.67282(13)
H62B H 0.3619 0.1063 0.6906
C66B C 0.65378(25) 0.24426(17) 0.9040(2)
H63B H 0.6706 0.2733 0.8776
H64B H 0.6379 0.2567 0.9312
C67B C 0.5989(3) 0.1743(2) 0.62322(17)
H65B H 0.6315 0.1751 0.6379
H66B H 0.6059 0.2120 0.6222
C68B C 0.52087(28) 0.25707(19) 0.37159(19)
H67B H 0.5212 0.2920 0.3696
H68B H 0.4825 0.2276 0.3712
C69B C 0.3574(3) -0.0944(2) 0.9338(2)
H69B H 0.3340 -0.0860 0.9126
H70B H 0.3368 -0.1166 0.9635
H71B H 0.3705 -0.1143 0.9129
C70B C 0.4068(4) -0.1122(2) 0.7408(2)
H72B H 0.3920 -0.1289 0.7066
H73B H 0.4406 -0.1132 0.7466
C71B C 0.3121(4) 0.0406(3) 0.8212(3)
H74B H 0.3378 0.0278 0.8125
H75B H 0.3153 0.0477 0.8590
C72B C 0.26242(26) -0.10888(17) 0.40745(17)
H76B H 0.2339 -0.1476 0.4071
H77B H 0.2450 -0.0870 0.3998
C73B C 0.5523(4) 0.2511(3) 0.3189(2)
H78B H 0.5916 0.2770 0.3226
H79B H 0.5474 0.2141 0.3191
C74B C 0.5890(3) 0.1505(2) 0.56574(19)
H80B H 0.5836 0.1137 0.5666
H81B H 0.6204 0.1737 0.5441
H82B H 0.5566 0.1494 0.5513
C75B C 0.50496(28) 0.24706(19) 0.5746(2)
H83B H 0.5277 0.2536 0.6058
H84B H 0.4929 0.2742 0.5747
C76B C 0.6963(4) 0.2363(3) 0.9276(3)
H85B H 0.6802 0.2083 0.9544
H86B H 0.7240 0.2704 0.9431
H87B H 0.7129 0.2248 0.9008
C77B C 0.4566(4) 0.1928(3) 0.5791(3)
H88B H 0.4329 0.1862 0.5492
H89B H 0.4371 0.1908 0.6111
H90B H 0.4677 0.1653 0.5801
C78B C 0.5018(4) 0.2932(3) 0.7496(2)
H91B H 0.4884 0.2906 0.7137
H92B H 0.4882 0.3131 0.7704
C79B C 0.3661(5) -0.1458(3) 0.7825(4)
H93B H 0.3807 -0.1301 0.8166
H94B H 0.3594 -0.1831 0.7812
H95B H 0.3321 -0.1459 0.7765
C80B C 0.2554(6) -0.0060(4) 0.8111(4)
H96B H 0.2293 0.0013 0.8297
H97B H 0.2477 -0.0069 0.7736
C81B C 0.5641(5) 0.3257(4) 0.7491(3)
H98B H 0.5778 0.3299 0.7847
H99B H 0.5763 0.3616 0.7340
H100B H 0.5780 0.3065 0.7283
C82B C 0.5360(6) 0.2596(4) 0.2705(3)
H101B H 0.5425 0.2971 0.2684
H102B H 0.4967 0.2344 0.2658
C83B C 0.5673(7) 0.2505(5) 0.2276(4)
H103B H 0.6062 0.2758 0.2320
H104B H 0.5555 0.2567 0.1939
H105B H 0.5602 0.2131 0.2294
C84B C 0.2461(7) -0.0580(4) 0.8262(7)
H106B H 0.2725 -0.0653 0.8091
H107B H 0.2093 -0.0857 0.8161
H108B H 0.2499 -0.0589 0.8639
loop_
_geom_bond_atom_site_label_1
_geom_bond_atom_site_label_2
_geom_bond_site_symmetry_1
_geom_bond_site_symmetry_2
N1 C4 1_555 1_555
N2 C14 1_555 1_555
C1 H1 1_555 1_555
C2 C3 1_555 1_555
C3 H2 1_555 1_555
C4 C2 1_555 1_555
H3 C4 1_555 1_555
C5 C2 1_555 1_555
H4 C5 1_555 1_555
C6 C1 1_555 1_555
C7 C16 1_555 1_555
C8 C1 1_555 1_555
C9 C5 1_555 1_555
C10 C3 1_555 1_555
H5 C10 1_555 1_555
C11 C8 1_555 1_555
N3 C35 1_555 1_555
C12 C9 1_555 1_555
N4 C29 1_555 1_555
C13 C8 1_555 1_555
C14 C6 1_555 1_555
H6 C14 1_555 1_555
C15 C12 1_555 1_555
C16 H7 1_555 1_555
C17 N1 1_555 1_555
H8 C17 1_555 1_555
C18 C13 1_555 1_555
H9 C18 1_555 1_555
C19 C13 1_555 1_555
C20 C11 1_555 1_555
C21 C22 1_555 1_555
C22 C19 1_555 1_555
C23 C7 1_555 1_555
C24 N2 1_555 1_555
H10 C24 1_555 1_555
C25 C9 1_555 1_555
C26 C7 1_555 1_555
C27 C11 1_555 1_555
H11 C27 1_555 1_555
H12 C27 1_555 1_555
C28 C11 1_555 1_555
H13 C28 1_555 1_555
H14 C28 1_555 1_555
C29 H15 1_555 1_555
C30 C15 1_555 1_555
C31 C28 1_555 1_555
H16 C31 1_555 1_555
H17 C31 1_555 1_555
C32 C6 1_555 1_555
H18 C32 1_555 1_555
C33 C16 1_555 1_555
C34 C40 1_555 1_555
C35 H19 1_555 1_555
C36 C40 1_555 1_555
C37 C23 1_555 1_555
H20 C37 1_555 1_555
H21 C37 1_555 1_555
C38 C45 1_555 1_555
C39 H22 1_555 1_555
H23 C39 1_555 1_555
C40 H24 1_555 1_555
C41 C31 1_555 1_555
H25 C41 1_555 1_555
H26 C41 1_555 1_555
C42 C23 1_555 1_555
H27 C42 1_555 1_555
H28 C42 1_555 1_555
C43 N3 1_555 1_555
H29 C43 1_555 1_555
C44 N4 1_555 1_555
H30 C44 1_555 1_555
C45 C46 1_555 1_555
C46 C36 1_555 1_555
C47 C24 1_555 1_555
H31 C47 1_555 1_555
H32 C47 1_555 1_555
C48 C25 1_555 1_555
H33 C48 1_555 1_555
H34 C48 1_555 1_555
C49 C47 1_555 1_555
H35 C49 1_555 1_555
H36 C49 1_555 1_555
C50 H37 1_555 1_555
H38 C50 1_555 1_555
C51 C50 1_555 1_555
H39 C51 1_555 1_555
H40 C51 1_555 1_555
C52 C34 1_555 1_555
H41 C52 1_555 1_555
C53 C33 1_555 1_555
H42 C53 1_555 1_555
C54 C36 1_555 1_555
C55 C46 1_555 1_555
H43 C55 1_555 1_555
C56 C35 1_555 1_555
H44 C56 1_555 1_555
H45 C56 1_555 1_555
C57 C42 1_555 1_555
H46 C57 1_555 1_555
H47 C57 1_555 1_555
C58 C25 1_555 1_555
H48 C58 1_555 1_555
H49 C58 1_555 1_555
C59 C39 1_555 1_555
H50 C59 1_555 1_555
H51 C59 1_555 1_555
C60 C48 1_555 1_555
H52 C60 1_555 1_555
H53 C60 1_555 1_555
C61 C27 1_555 1_555
H54 C61 1_555 1_555
H55 C61 1_555 1_555
C62 C56 1_555 1_555
H56 C62 1_555 1_555
H57 C62 1_555 1_555
C63 C44 1_555 1_555
H58 C63 1_555 1_555
H59 C63 1_555 1_555
C64 C37 1_555 1_555
H60 C64 1_555 1_555
H61 C64 1_555 1_555
C65 C26 1_555 1_555
H62 C65 1_555 1_555
C66 C61 1_555 1_555
H63 C66 1_555 1_555
H64 C66 1_555 1_555
C67 C57 1_555 1_555
H65 C67 1_555 1_555
H66 C67 1_555 1_555
C68 C54 1_555 1_555
H67 C68 1_555 1_555
H68 C68 1_555 1_555
C69 C41 1_555 1_555
H69 C69 1_555 1_555
H70 C69 1_555 1_555
H71 C69 1_555 1_555
C70 C64 1_555 1_555
H72 C70 1_555 1_555
H73 C70 1_555 1_555
C71 C58 1_555 1_555
H74 C71 1_555 1_555
H75 C71 1_555 1_555
C72 C62 1_555 1_555
H76 C72 1_555 1_555
H77 C72 1_555 1_555
C73 C68 1_555 1_555
H78 C73 1_555 1_555
H79 C73 1_555 1_555
C74 C67 1_555 1_555
H80 C74 1_555 1_555
H81 C74 1_555 1_555
H82 C74 1_555 1_555
C75 C50 1_555 1_555
H83 C75 1_555 1_555
H84 C75 1_555 1_555
C76 C66 1_555 1_555
H85 C76 1_555 1_555
H86 C76 1_555 1_555
H87 C76 1_555 1_555
C77 C75 1_555 1_555
H88 C77 1_555 1_555
H89 C77 1_555 1_555
H90 C77 1_555 1_555
C78 C60 1_555 1_555
H91 C78 1_555 1_555
H92 C78 1_555 1_555
C79 C70 1_555 1_555
H93 C79 1_555 1_555
H94 C79 1_555 1_555
H95 C79 1_555 1_555
C80 C71 1_555 1_555
H96 C80 1_555 1_555
H97 C80 1_555 1_555
C81 C78 1_555 1_555
H98 C81 1_555 1_555
H99 C81 1_555 1_555
H100 C81 1_555 1_555
C82 C73 1_555 1_555
H101 C82 1_555 1_555
H102 C82 1_555 1_555
C83 C82 1_555 1_555
H103 C83 1_555 1_555
H104 C83 1_555 1_555
H105 C83 1_555 1_555
C84 C80 1_555 1_555
H106 C84 1_555 1_555
H107 C84 1_555 1_555
H108 C84 1_555 1_555
N1A C4A 1_555 1_555
N2A C14A 1_555 1_555
C1A H1A 1_555 1_555
C2A C3A 1_555 1_555
C3A H2A 1_555 1_555
C4A C2A 1_555 1_555
H3A C4A 1_555 1_555
C5A C2A 1_555 1_555
H4A C5A 1_555 1_555
C6A C1A 1_555 1_555
C7A C16A 1_555 1_555
C8A C1A 1_555 1_555
C9A C5A 1_555 1_555
C10A C3A 1_555 1_555
H5A C10A 1_555 1_555
C11A C8A 1_555 1_555
N3A C35A 1_555 1_555
C12A C9A 1_555 1_555
N4A C29A 1_555 1_555
C13A C8A 1_555 1_555
C14A C6A 1_555 1_555
H6A C14A 1_555 1_555
C15A C12A 1_555 1_555
C16A H7A 1_555 1_555
C17A C24 1_555 1_555
H8A C17A 1_555 1_555
C18A C13A 1_555 1_555
H9A C18A 1_555 1_555
C19A C13A 1_555 1_555
C20A C11A 1_555 1_555
C21A C22A 1_555 1_555
C22A C19A 1_555 1_555
C23A C7A 1_555 1_555
C24A N2A 1_555 1_555
H10A C24A 1_555 1_555
C25A C9A 1_555 1_555
C26A C7A 1_555 1_555
C27A C11A 1_555 1_555
H11A C27A 1_555 1_555
H12A C27A 1_555 1_555
C28A C11A 1_555 1_555
H13A C28A 1_555 1_555
H14A C28A 1_555 1_555
C29A H15A 1_555 1_555
C30A C15A 1_555 1_555
C31A C28A 1_555 1_555
H16A C31A 1_555 1_555
H17A C31A 1_555 1_555
C32A C6A 1_555 1_555
H18A C32A 1_555 1_555
C33A C16A 1_555 1_555
C34A C40A 1_555 1_555
C35A H19A 1_555 1_555
C36A C40A 1_555 1_555
C37A C23A 1_555 1_555
H20A C37A 1_555 1_555
H21A C37A 1_555 1_555
C38A C45 1_555 1_555
C39A H22A 1_555 1_555
H23A C39A 1_555 1_555
C40A H24A 1_555 1_555
C41A C31A 1_555 1_555
H25A C41A 1_555 1_555
H26A C41A 1_555 1_555
C42A C23A 1_555 1_555
H27A C42A 1_555 1_555
H28A C42A 1_555 1_555
C43A N3A 1_555 1_555
H29A C43A 1_555 1_555
C44A N4A 1_555 1_555
H30A C44A 1_555 1_555
C45A C38A 1_555 1_555
C46A C36A 1_555 1_555
C47A C24A 1_555 1_555
H31A C47A 1_555 1_555
H32A C47A 1_555 1_555
C48A C25A 1_555 1_555
H33A C48A 1_555 1_555
H34A C48A 1_555 1_555
C49A C47A 1_555 1_555
H35A C49A 1_555 1_555
H36A C49A 1_555 1_555
C50A H37A 1_555 1_555
H38A C50A 1_555 1_555
C51A C50A 1_555 1_555
H39A C51A 1_555 1_555
H40A C51A 1_555 1_555
C52A C34A 1_555 1_555
H41A C52A 1_555 1_555
C53A C33A 1_555 1_555
H42A C53A 1_555 1_555
C54A C36A 1_555 1_555
C55A C46A 1_555 1_555
H43A C55A 1_555 1_555
C56A C35A 1_555 1_555
H44A C56A 1_555 1_555
H45A C56A 1_555 1_555
C57A C42A 1_555 1_555
H46A C57A 1_555 1_555
H47A C57A 1_555 1_555
C58A C25A 1_555 1_555
H48A C58A 1_555 1_555
H49A C58A 1_555 1_555
C59A C39A 1_555 1_555
H50A C59A 1_555 1_555
H51A C59A 1_555 1_555
C60A C48A 1_555 1_555
H52A C60A 1_555 1_555
H53A C60A 1_555 1_555
C61A C27A 1_555 1_555
H54A C61A 1_555 1_555
H55A C61A 1_555 1_555
C62A C56A 1_555 1_555
H56A C62A 1_555 1_555
H57A C62A 1_555 1_555
C63A C44A 1_555 1_555
H58A C63A 1_555 1_555
H59A C63A 1_555 1_555
C64A C37A 1_555 1_555
H60A C64A 1_555 1_555
H61A C64A 1_555 1_555
C65A C26A 1_555 1_555
H62A C65A 1_555 1_555
C66A C61A 1_555 1_555
H63A C66A 1_555 1_555
H64A C66A 1_555 1_555
C67A C57A 1_555 1_555
H65A C67A 1_555 1_555
H66A C67A 1_555 1_555
C68A C54A 1_555 1_555
H67A C68A 1_555 1_555
H68A C68A 1_555 1_555
C69A C41A 1_555 1_555
H69A C69A 1_555 1_555
H70A C69A 1_555 1_555
H71A C69A 1_555 1_555
C70A C64A 1_555 1_555
H72A C70A 1_555 1_555
H73A C70A 1_555 1_555
C71A C58A 1_555 1_555
H74A C71A 1_555 1_555
H75A C71A 1_555 1_555
C72A C62A 1_555 1_555
H76A C72A 1_555 1_555
H77A C72A 1_555 1_555
C73A C68A 1_555 1_555
H78A C73A 1_555 1_555
H79A C73A 1_555 1_555
C74A C67A 1_555 1_555
H80A C74A 1_555 1_555
H81A C74A 1_555 1_555
H82A C74A 1_555 1_555
C75A C50A 1_555 1_555
H83A C75A 1_555 1_555
H84A C75A 1_555 1_555
C76A C66A 1_555 1_555
H85A C76A 1_555 1_555
H86A C76A 1_555 1_555
H87A C76A 1_555 1_555
C77A C75A 1_555 1_555
H88A C77A 1_555 1_555
H89A C77A 1_555 1_555
H90A C77A 1_555 1_555
C78A C60A 1_555 1_555
H91A C78A 1_555 1_555
H92A C78A 1_555 1_555
C79A C70A 1_555 1_555
H93A C79A 1_555 1_555
H94A C79A 1_555 1_555
H95A C79A 1_555 1_555
C80A C71A 1_555 1_555
H96A C80A 1_555 1_555
H97A C80A 1_555 1_555
C81A C78A 1_555 1_555
H98A C81A 1_555 1_555
H99A C81A 1_555 1_555
H100A C81A 1_555 1_555
C82A C73A 1_555 1_555
H101A C82A 1_555 1_555
H102A C82A 1_555 1_555
C83A C82A 1_555 1_555
H103A C83A 1_555 1_555
H104A C83A 1_555 1_555
H105A C83A 1_555 1_555
C84A C80A 1_555 1_555
H106A C84A 1_555 1_555
H107A C84A 1_555 1_555
H108A C84A 1_555 1_555
N1B C4B 1_555 1_555
N2B C14B 1_555 1_555
C1B H1B 1_555 1_555
C2B C3B 1_555 1_555
C3B H2B 1_555 1_555
C4B C2B 1_555 1_555
H3B C4B 1_555 1_555
C5B C2B 1_555 1_555
H4B C5B 1_555 1_555
C6B C1B 1_555 1_555
C7B C16B 1_555 1_555
C8B C1B 1_555 1_555
C9B C5B 1_555 1_555
C10B C3B 1_555 1_555
H5B C10B 1_555 1_555
C11B C8B 1_555 1_555
N3B C35B 1_555 1_555
C12B C9B 1_555 1_555
N4B C29B 1_555 1_555
C13B C8B 1_555 1_555
C14B C6B 1_555 1_555
H6B C14B 1_555 1_555
C15B C12B 1_555 1_555
C16B H7B 1_555 1_555
C17B C24A 1_555 1_555
H8B C17B 1_555 1_555
C18B C13B 1_555 1_555
H9B C18B 1_555 1_555
C19B C13B 1_555 1_555
C20B C11B 1_555 1_555
C21B C22B 1_555 1_555
C22B C19B 1_555 1_555
C23B C7B 1_555 1_555
C24B C17 1_555 1_555
H10B C24B 1_555 1_555
C25B C9B 1_555 1_555
C26B C7B 1_555 1_555
C27B C11B 1_555 1_555
H11B C27B 1_555 1_555
H12B C27B 1_555 1_555
C28B C11B 1_555 1_555
H13B C28B 1_555 1_555
H14B C28B 1_555 1_555
C29B H15B 1_555 1_555
C30B C15B 1_555 1_555
C31B C28B 1_555 1_555
H16B C31B 1_555 1_555
H17B C31B 1_555 1_555
C32B C6B 1_555 1_555
H18B C32B 1_555 1_555
C33B C16B 1_555 1_555
C34B C40B 1_555 1_555
C35B H19B 1_555 1_555
C36B C40B 1_555 1_555
C37B C23B 1_555 1_555
H20B C37B 1_555 1_555
H21B C37B 1_555 1_555
C38B C45A 1_555 1_555
C39B C17 1_555 1_555
H22B C39B 1_555 1_555
H23B C39B 1_555 1_555
C40B H24B 1_555 1_555
C41B C31B 1_555 1_555
H25B C41B 1_555 1_555
H26B C41B 1_555 1_555
C42B C23B 1_555 1_555
H27B C42B 1_555 1_555
H28B C42B 1_555 1_555
C43B N3B 1_555 1_555
H29B C43B 1_555 1_555
C44B N4B 1_555 1_555
H30B C44B 1_555 1_555
C45B C38 1_555 1_555
C46B C36B 1_555 1_555
C47B C24B 1_555 1_555
H31B C47B 1_555 1_555
H32B C47B 1_555 1_555
C48B C25B 1_555 1_555
H33B C48B 1_555 1_555
H34B C48B 1_555 1_555
C49B C47B 1_555 1_555
H35B C49B 1_555 1_555
H36B C49B 1_555 1_555
C50B H37B 1_555 1_555
H38B C50B 1_555 1_555
C51B C50B 1_555 1_555
H39B C51B 1_555 1_555
H40B C51B 1_555 1_555
C52B C34B 1_555 1_555
H41B C52B 1_555 1_555
C53B C33B 1_555 1_555
H42B C53B 1_555 1_555
C54B C36B 1_555 1_555
C55B C46B 1_555 1_555
H43B C55B 1_555 1_555
C56B C35B 1_555 1_555
H44B C56B 1_555 1_555
H45B C56B 1_555 1_555
C57B C42B 1_555 1_555
H46B C57B 1_555 1_555
H47B C57B 1_555 1_555
C58B C25B 1_555 1_555
H48B C58B 1_555 1_555
H49B C58B 1_555 1_555
C59B C39B 1_555 1_555
H50B C59B 1_555 1_555
H51B C59B 1_555 1_555
C60B C48B 1_555 1_555
H52B C60B 1_555 1_555
H53B C60B 1_555 1_555
C61B C27B 1_555 1_555
H54B C61B 1_555 1_555
H55B C61B 1_555 1_555
C62B C56B 1_555 1_555
H56B C62B 1_555 1_555
H57B C62B 1_555 1_555
C63B C44B 1_555 1_555
H58B C63B 1_555 1_555
H59B C63B 1_555 1_555
C64B C37B 1_555 1_555
H60B C64B 1_555 1_555
H61B C64B 1_555 1_555
C65B C26B 1_555 1_555
H62B C65B 1_555 1_555
C66B C61B 1_555 1_555
H63B C66B 1_555 1_555
H64B C66B 1_555 1_555
C67B C57B 1_555 1_555
H65B C67B 1_555 1_555
H66B C67B 1_555 1_555
C68B C54B 1_555 1_555
H67B C68B 1_555 1_555
H68B C68B 1_555 1_555
C69B C41B 1_555 1_555
H69B C69B 1_555 1_555
H70B C69B 1_555 1_555
H71B C69B 1_555 1_555
C70B C64B 1_555 1_555
H72B C70B 1_555 1_555
H73B C70B 1_555 1_555
C71B C58B 1_555 1_555
H74B C71B 1_555 1_555
H75B C71B 1_555 1_555
C72B C62B 1_555 1_555
H76B C72B 1_555 1_555
H77B C72B 1_555 1_555
C73B C68B 1_555 1_555
H78B C73B 1_555 1_555
H79B C73B 1_555 1_555
C74B C67B 1_555 1_555
H80B C74B 1_555 1_555
H81B C74B 1_555 1_555
H82B C74B 1_555 1_555
C75B C50B 1_555 1_555
H83B C75B 1_555 1_555
H84B C75B 1_555 1_555
C76B C66B 1_555 1_555
H85B C76B 1_555 1_555
H86B C76B 1_555 1_555
H87B C76B 1_555 1_555
C77B C75B 1_555 1_555
H88B C77B 1_555 1_555
H89B C77B 1_555 1_555
H90B C77B 1_555 1_555
C78B C60B 1_555 1_555
H91B C78B 1_555 1_555
H92B C78B 1_555 1_555
C79B C70B 1_555 1_555
H93B C79B 1_555 1_555
H94B C79B 1_555 1_555
H95B C79B 1_555 1_555
C80B C71B 1_555 1_555
H96B C80B 1_555 1_555
H97B C80B 1_555 1_555
C81B C78B 1_555 1_555
H98B C81B 1_555 1_555
H99B C81B 1_555 1_555
H100B C81B 1_555 1_555
C82B C73B 1_555 1_555
H101B C82B 1_555 1_555
H102B C82B 1_555 1_555
C83B C82B 1_555 1_555
H103B C83B 1_555 1_555
H104B C83B 1_555 1_555
H105B C83B 1_555 1_555
C84B C80B 1_555 1_555
H106B C84B 1_555 1_555
H107B C84B 1_555 1_555
H108B C84B 1_555 1_555
C10 C12 1_555 1_555
C15 C20 1_555 1_555
C18 C32 1_555 1_555
C19 C20 1_555 1_555
C21 C26 1_555 1_555
C21 C30 1_555 1_555
C22 C23 1_555 1_555
C25 C30 1_555 1_555
C29 C33 1_555 1_555
C34 C43 1_555 1_555
C35 C44 1_555 1_555
C38 C54 1_555 1_555
C39 C17A 1_555 1_555
C49 C59 1_555 1_555
C51 C54 1_555 1_555
C52 C55 1_555 1_555
C53 C65 1_555 1_555
C63 C72 1_555 1_555
N1A C17A 1_555 1_555
C10A C12A 1_555 1_555
C15A C20A 1_555 1_555
C18A C32A 1_555 1_555
C19A C20A 1_555 1_555
C21A C26A 1_555 1_555
C21A C30A 1_555 1_555
C22A C23A 1_555 1_555
C25A C30A 1_555 1_555
C29A C33A 1_555 1_555
C34A C43A 1_555 1_555
C35A C44A 1_555 1_555
C38A C54A 1_555 1_555
C39A C17B 1_555 1_555
C45A C46A 1_555 1_555
C49A C59A 1_555 1_555
C51A C54A 1_555 1_555
C52A C55A 1_555 1_555
C53A C65A 1_555 1_555
C63A C72A 1_555 1_555
N1B C17B 1_555 1_555
N2B C24B 1_555 1_555
C10B C12B 1_555 1_555
C15B C20B 1_555 1_555
C18B C32B 1_555 1_555
C19B C20B 1_555 1_555
C21B C26B 1_555 1_555
C21B C30B 1_555 1_555
C22B C23B 1_555 1_555
C25B C30B 1_555 1_555
C29B C33B 1_555 1_555
C34B C43B 1_555 1_555
C35B C44B 1_555 1_555
C38B C45B 1_555 1_555
C38B C54B 1_555 1_555
C45B C46B 1_555 1_555
C49B C59B 1_555 1_555
C51B C54B 1_555 1_555
C52B C55B 1_555 1_555
C53B C65B 1_555 1_555
C63B C72B 1_555 1_555

#END
