
#######################################################################
#
#                 Cambridge Crystallographic Data Centre
#                                CCDC 
#
#######################################################################
#
# If this CIF has been generated from an entry in the Cambridge 
# Structural Database, then it will include bibliographic, chemical, 
# crystal, experimental, refinement or atomic coordinate data resulting 
# from the CCDC's data processing and validation procedures.
#
#######################################################################

data_NERYOB
_chemical_name_common            FRP-6
_chemical_formula_moiety         'C300 H336 N12'
_chemical_name_systematic        
"2,2':7',2'':7'',2''':12''',12':7''',12:7,12''-hexakis(1,2-diphenylethane-1,2-diylbis(iminomethyl))tetrakis(5,5,10,10,15,15-hexabutyl-10,15-dihydro-5H-diindeno[1,2-a:1',2'-c]fluorene) unknown solvate"
_symmetry_cell_setting           rhombohedral
_symmetry_space_group_name_H-M   'R -3'
_symmetry_Int_Tables_number      148
_space_group_name_Hall           '-R 3'
loop_
_symmetry_equiv_pos_site_id
_symmetry_equiv_pos_as_xyz
1 x,y,z
2 -y,x-y,z
3 -x+y,-x,z
4 2/3+x,1/3+y,1/3+z
5 2/3-y,1/3+x-y,1/3+z
6 2/3-x+y,1/3-x,1/3+z
7 1/3+x,2/3+y,2/3+z
8 1/3-y,2/3+x-y,2/3+z
9 1/3-x+y,2/3-x,2/3+z
10 -x,-y,-z
11 y,-x+y,-z
12 x-y,x,-z
13 1/3-x,2/3-y,2/3-z
14 1/3+y,2/3-x+y,2/3-z
15 1/3+x-y,2/3+x,2/3-z
16 2/3-x,1/3-y,1/3-z
17 2/3+y,1/3-x+y,1/3-z
18 2/3+x-y,1/3+x,1/3-z
_cell_length_a                   24.6800(9)
_cell_length_b                   24.6800(9)
_cell_length_c                   101.978(5)
_cell_angle_alpha                90
_cell_angle_beta                 90
_cell_angle_gamma                120
_cell_volume                     53793.2
_exptl_crystal_colour            'light colorless'
_exptl_crystal_description       block
_cell_formula_units_Z            6
loop_
_atom_site_label
_atom_site_type_symbol
_atom_site_fract_x
_atom_site_fract_y
_atom_site_fract_z
N1 N 0.98136(12) 0.33998(13) 0.15491(3)
N2 N 1.03744(13) 0.31710(15) 0.13329(3)
C1 C 0.91479(15) 0.38367(16) 0.15233(4)
C2 C 0.79922(15) 0.38068(15) 0.15205(4)
C3 C 0.85850(16) 0.32692(16) 0.15220(4)
H1 H 0.8590 0.2895 0.1522
C4 C 0.91204(16) 0.43872(16) 0.15223(4)
H2 H 0.9490 0.4771 0.1522
C5 C 0.80275(15) 0.32579(15) 0.15206(4)
C6 C 0.85567(15) 0.43744(16) 0.15213(4)
H3 H 0.8551 0.4748 0.1521
C7 C 0.97588(15) 0.38752(16) 0.15311(3)
C8 C 1.05172(15) 0.30555(16) 0.14665(3)
H4 H 1.0208 0.2626 0.1491
C9 C 0.73284(15) 0.36343(15) 0.15183(4)
C10 C 1.04558(14) 0.35040(16) 0.15594(3)
H5 H 1.0750 0.3933 0.1532
C11 C 1.05832(17) 0.34338(17) 0.17015(4)
C12 C 0.73820(15) 0.26838(15) 0.15222(4)
C13 C 1.11536(17) 0.31151(19) 0.14663(3)
C14 C 0.70285(15) 0.39910(15) 0.15198(4)
C15 C 1.1232(2) 0.2619(2) 0.14844(4)
H6 H 1.0885 0.2230 0.1502
N3 N 0.9763(2) 0.71018(18) 0.02416(3)
N4 N 1.0429(2) 0.64831(18) 0.02927(3)
C16 C 1.0158(2) 0.29223(19) 0.17743(4)
H7 H 0.9807 0.2601 0.1734
C17 C 1.0001(2) 0.3320(2) 0.10715(4)
H8 H 1.0259 0.3687 0.1117
C18 C 1.1686(2) 0.3689(3) 0.14438(6)
H9 H 1.1652 0.4045 0.1434
C19 C 1.1110(2) 0.3898(2) 0.17646(5)
H10 H 1.1399 0.4243 0.1717
C20 C 1.1828(3) 0.2675(3) 0.14777(5)
H11 H 1.1873 0.2327 0.1490
C21 C 0.9876(3) 0.4635(2) 0.05939(4)
C22 C 0.9811(2) 0.3348(2) 0.09443(4)
C23 C 0.73073(19) 0.22876(19) 0.13982(6)
H12 H 0.7625 0.2166 0.1400
H13 H 0.6903 0.1908 0.1402
C24 C 1.0270(3) 0.5802(2) 0.04741(4)
C25 C 1.2339(2) 0.3249(3) 0.14528(5)
H14 H 1.2735 0.3294 0.1448
C26 C 0.73045(19) 0.23138(19) 0.16516(5)
H15 H 0.6879 0.1965 0.1656
H16 H 0.7582 0.2142 0.1648
C27 C 1.0289(2) 0.7210(2) 0.01552(4)
H17 H 1.0131 0.6902 0.0084
C28 C 0.9428(3) 0.2806(2) 0.08760(4)
C29 C 0.8671(2) 0.6706(3) 0.04063(4)
H18 H 0.9051 0.6975 0.0446
C30 C 0.9994(2) 0.2707(2) 0.12670(4)
C31 C 0.9988(2) 0.3936(2) 0.08686(4)
C32 C 0.8661(2) 0.6509(2) 0.02807(4)
C33 C 0.9885(2) 0.5254(2) 0.04078(4)
H19 H 0.9753 0.5270 0.0323
C34 C 0.9235(3) 0.6697(2) 0.02039(4)
C35 C 1.0524(2) 0.6425(2) 0.04147(4)
C36 C 1.2266(2) 0.3737(3) 0.14360(7)
H20 H 1.2614 0.4124 0.1418
C37 C 0.9285(3) 0.4046(2) 0.04074(4)
C38 C 1.0586(2) 0.7865(2) 0.00966(4)
C39 C 0.7539(2) 0.6105(2) 0.04231(4)
C40 C 0.9692(2) 0.4674(2) 0.04673(4)
C41 C 0.9806(3) 0.2748(2) 0.11296(4)
C42 C 1.0471(3) 0.5763(2) 0.06016(4)
H21 H 1.0740 0.6130 0.0646
C43 C 0.9761(2) 0.4318(2) 0.09450(4)
H22 H 0.9955 0.4409 0.1031
H23 H 0.9909 0.4714 0.0900
C44 C 1.0643(3) 0.7951(3) -0.00362(4)
H24 H 1.0503 0.7607 -0.0091
C45 C 0.9594(3) 0.3959(2) 0.06280(4)
C46 C 0.8114(2) 0.6508(2) 0.04743(4)
C47 C 0.9301(3) 0.2991(2) 0.07440(4)
C48 C 0.8058(2) 0.6688(3) 0.06142(4)
C49 C 1.0254(3) 0.2885(3) 0.19083(5)
H25 H 0.9966 0.2545 0.1958
C50 C 0.8075(3) 0.6097(3) 0.02272(5)
H26 H 0.8057 0.5953 0.0142
C51 C 0.9248(2) 0.3606(2) 0.05181(4)
C52 C 1.0759(3) 0.7114(2) 0.02384(4)
H27 H 1.0917 0.7420 0.0310
C53 C 1.1325(3) 0.7179(3) 0.01547(5)
C54 C 1.0280(3) 0.5199(2) 0.06609(4)
H28 H 1.0415 0.5185 0.0745
C55 C 0.7044(2) 0.5987(2) 0.05205(4)
C56 C 0.7525(3) 0.5894(3) 0.02943(4)
H29 H 0.7145 0.5618 0.0255
C57 C 0.9624(2) 0.3652(2) 0.07398(4)
C58 C 0.9439(3) 0.2225(2) 0.10611(5)
H30 H 0.9314 0.1841 0.1101
C59 C 1.0907(3) 0.8545(4) -0.00897(6)
H31 H 1.0932 0.8591 -0.0180
C60 C 1.0790(4) 0.3368(3) 0.19669(6)
H32 H 1.0857 0.3349 0.2056
C61 C 1.1215(3) 0.3863(3) 0.18959(6)
H33 H 1.1575 0.4177 0.1936
C62 C 1.0712(3) 0.4299(2) 0.08477(4)
H34 H 1.0823 0.4684 0.0801
H35 H 1.0910 0.4413 0.0933
C63 C 0.9606(4) 0.3970(3) 0.02843(5)
H36 H 0.9335 0.3556 0.0249
H37 H 0.9633 0.4270 0.0219
C64 C 0.9238(3) 0.2227(2) 0.09345(5)
H38 H 0.8985 0.1856 0.0890
C65 C 0.8983(3) 0.2643(2) 0.06343(4)
C66 C 1.0788(3) 0.8387(3) 0.01725(5)
H39 H 1.0744 0.8342 0.0263
C67 C 1.1124(3) 0.9047(3) -0.00146(7)
H40 H 1.1323 0.9444 -0.0052
C68 C 0.7440(3) 0.2697(3) 0.17760(6)
H41 H 0.7157 0.2863 0.1780
H42 H 0.7863 0.3049 0.1771
C69 C 0.8428(3) 0.6478(4) 0.07033(5)
H43 H 0.8857 0.6675 0.0672
H44 H 0.8436 0.6629 0.0792
C70 C 1.1238(4) 0.6711(4) 0.00674(5)
H45 H 1.0830 0.6386 0.0054
C71 C 1.1902(4) 0.7658(4) 0.01735(6)
H46 H 1.1975 0.7982 0.0230
C72 C 0.9064(3) 0.4020(3) 0.09630(5)
H47 H 0.8912 0.3611 0.1002
H48 H 0.8873 0.3956 0.0877
C73 C 0.8649(3) 0.3977(3) 0.03714(6)
H49 H 0.8718 0.4298 0.0308
H50 H 0.8397 0.3575 0.0329
C74 C 0.7357(3) 0.2607(3) 0.12719(6)
H51 H 0.7736 0.3013 0.1275
H52 H 0.7007 0.2682 0.1266
C75 C 1.1053(3) 0.8975(3) 0.01194(6)
H53 H 1.1183 0.9322 0.0173
C76 C 0.8327(3) 0.7411(4) 0.06196(6)
H54 H 0.8283 0.7520 0.0709
H55 H 0.8771 0.7614 0.0601
C77 C 0.8168(4) 0.5780(5) 0.07087(6)
H56 H 0.8098 0.5623 0.0619
H57 H 0.7763 0.5592 0.0752
C78 C 1.2426(4) 0.7659(5) 0.01009(9)
H58 H 1.2839 0.7975 0.0112
C79 C 1.0211(4) 0.4047(4) 0.02992(6)
H59 H 1.0191 0.3720 0.0355
H60 H 1.0488 0.4448 0.0340
C80 C 1.0982(4) 0.3967(3) 0.07748(8)
H61 H 1.0819 0.3886 0.0686
H62 H 1.0851 0.3567 0.0817
C81 C 0.8568(4) 0.5555(6) 0.07790(7)
H63 H 0.8671 0.5750 0.0865
H64 H 0.8309 0.5108 0.0793
C82 C 0.8843(4) 0.4380(4) 0.10462(6)
H65 H 0.9044 0.4809 0.1015
H66 H 0.8396 0.4199 0.1034
C83 C 1.2270(7) 0.7181(7) 0.00193(8)
H67 H 1.2593 0.7191 -0.0029
C84 C 0.8287(4) 0.4021(4) 0.04820(9)
H68 H 0.8558 0.4388 0.0534
H69 H 0.8147 0.3657 0.0538
C85 C 1.0469(5) 0.4013(5) 0.01619(8)
H70 H 1.0852 0.3998 0.0173
H71 H 1.0167 0.3629 0.0119
C86 C 1.1698(5) 0.6690(6) 0.00000(7)
H72 H 1.1623 0.6360 -0.0055
C87 C 1.1690(4) 0.4340(5) 0.07698(11)
H73 H 1.1858 0.4422 0.0858
H74 H 1.1825 0.4739 0.0727
C88 C 0.9117(5) 0.5658(6) 0.07217(11)
H75 H 0.9025 0.5440 0.0640
H76 H 0.9323 0.5509 0.0779
H77 H 0.9384 0.6099 0.0707
C89 C 0.8049(5) 0.7671(5) 0.05320(9)
H78 H 0.8049 0.7500 0.0446
H79 H 0.8354 0.8114 0.0527
C90 C 1.0600(6) 0.4562(6) 0.00753(7)
H80 H 1.0219 0.4567 0.0060
H81 H 1.0768 0.4524 -0.0007
H82 H 1.0898 0.4944 0.0118
C91 C 0.8965(3) 0.4383(4) 0.11765(6)
H83 H 0.8766 0.3960 0.1208
H84 H 0.8807 0.4612 0.1223
H85 H 0.9409 0.4577 0.1190
C92 C 0.7370(4) 0.2270(4) 0.11414(9)
H86 H 0.7009 0.1852 0.1139
H87 H 0.7346 0.2500 0.1067
C93 C 0.7969(6) 0.2229(7) 0.11321(13)
H88 H 0.8327 0.2638 0.1144
H89 H 0.7989 0.2069 0.1048
H90 H 0.7965 0.1955 0.1199
C94 C 1.1956(6) 0.3948(7) 0.06886(14)
H91 H 1.1853 0.3570 0.0735
H92 H 1.2402 0.4199 0.0680
H93 H 1.1768 0.3844 0.0603
C95 C 0.7375(5) 0.2340(4) 0.19027(9)
H94 H 0.7701 0.2230 0.1908
H95 H 0.6973 0.1958 0.1905
C96 C 0.7438(8) 0.2799(7) 0.20275(10)
H96 H 0.7842 0.3171 0.2025
H97 H 0.7390 0.2582 0.2108
H98 H 0.7118 0.2911 0.2021
C97 C 0.7396(8) 0.8091(7) 0.04382(13)
H99 H 0.7709 0.8515 0.0457
H100 H 0.6989 0.8052 0.0442
H101 H 0.7465 0.7982 0.0352
C98 C 0.7709(4) 0.4066(5) 0.04364(12)
H102 H 0.7420 0.3673 0.0394
H103 H 0.7502 0.4101 0.0514
C99 C 0.7435(7) 0.7640(7) 0.05418(12)
H104 H 0.7382 0.7760 0.0629
H105 H 0.7102 0.7214 0.0526
C100 C 0.7811(6) 0.4601(6) 0.03418(13)
H106 H 0.8067 0.4997 0.0384
H107 H 0.7414 0.4559 0.0319
H108 H 0.8015 0.4579 0.0264
N1A N 0.66002(13) 0.64138(18) 0.15491(3)
N2A N 0.68290(15) 0.72034(20) 0.13329(3)
C1A C 0.61633(16) 0.53112(22) 0.15233(4)
C2A C 0.61932(15) 0.41854(21) 0.15205(4)
C3A C 0.67308(16) 0.53158(23) 0.15220(4)
H1A H 0.7105 0.5695 0.1522
C4A C 0.56128(16) 0.47332(23) 0.15223(4)
H2A H 0.5229 0.4719 0.1522
C5A C 0.67421(15) 0.47696(21) 0.15206(4)
C6A C 0.56256(16) 0.41823(22) 0.15213(4)
H3A H 0.5252 0.3803 0.1521
C7A C 0.61248(16) 0.58836(22) 0.15311(3)
C8A C 0.69445(16) 0.74617(22) 0.14665(3)
H4A H 0.7374 0.7582 0.1491
C9A C 0.63657(15) 0.36941(21) 0.15183(4)
C10A C 0.64960(16) 0.69518(21) 0.15594(3)
H5A H 0.6067 0.6817 0.1532
C11A C 0.65662(17) 0.71494(24) 0.17015(4)
C12A C 0.73162(15) 0.46982(21) 0.15222(4)
C13A C 0.68849(19) 0.80385(25) 0.14663(3)
C14A C 0.60090(15) 0.30375(21) 0.15198(4)
C15A C 0.7381(2) 0.8613(3) 0.14844(4)
H6A H 0.7770 0.8655 0.1502
N3A N 0.28982(18) 0.26612(27) 0.02416(3)
N4A N 0.35169(18) 0.39459(27) 0.02927(3)
C16A C 0.70777(19) 0.72357(28) 0.17743(4)
H7A H 0.7399 0.7206 0.1734
C17A C 0.6680(2) 0.6681(3) 0.10715(4)
H8A H 0.6313 0.6572 0.1117
C18A C 0.6311(3) 0.7997(4) 0.14438(6)
H9A H 0.5955 0.7607 0.1434
C19A C 0.6102(2) 0.7212(3) 0.17646(5)
H10A H 0.5757 0.7156 0.1717
C20A C 0.7325(3) 0.9153(4) 0.14777(5)
H11A H 0.7673 0.9546 0.1490
C21A C 0.5365(2) 0.5241(4) 0.05939(4)
C22A C 0.6652(2) 0.6463(3) 0.09443(4)
C23A C 0.77124(19) 0.50197(27) 0.13982(6)
H12A H 0.7834 0.5459 0.1400
H13A H 0.8092 0.4995 0.1402
C24A C 0.4198(2) 0.4468(4) 0.04741(4)
C25A C 0.6751(3) 0.9090(4) 0.14528(5)
H14A H 0.6706 0.9441 0.1448
C26A C 0.76862(19) 0.49907(27) 0.16516(5)
H15A H 0.8035 0.4914 0.1656
H16A H 0.7858 0.5440 0.1648
C27A C 0.2790(2) 0.3079(3) 0.01552(4)
H17A H 0.3098 0.3229 0.0084
C28A C 0.7194(2) 0.6622(4) 0.08760(4)
C29A C 0.3294(3) 0.1965(4) 0.04063(4)
H18A H 0.3025 0.2076 0.0446
C30A C 0.7293(2) 0.7287(3) 0.12670(4)
C31A C 0.6064(2) 0.6052(3) 0.08686(4)
C32A C 0.3491(2) 0.2152(3) 0.02807(4)
C33A C 0.4746(2) 0.4631(3) 0.04078(4)
H19A H 0.4730 0.4483 0.0323
C34A C 0.3303(2) 0.2538(4) 0.02039(4)
C35A C 0.3575(2) 0.4099(3) 0.04147(4)
C36A C 0.6263(3) 0.8529(4) 0.14360(7)
H20A H 0.5876 0.8490 0.1418
C37A C 0.5954(2) 0.5239(4) 0.04074(4)
C38A C 0.2135(2) 0.2721(3) 0.00966(4)
C39A C 0.3895(2) 0.1434(3) 0.04231(4)
C40A C 0.5326(2) 0.5018(3) 0.04673(4)
C41A C 0.7252(2) 0.7058(4) 0.11296(4)
C42A C 0.4237(2) 0.4708(4) 0.06016(4)
H21A H 0.3870 0.4610 0.0646
C43A C 0.5682(2) 0.5443(3) 0.09450(4)
H22A H 0.5591 0.5546 0.1031
H23A H 0.5286 0.5195 0.0900
C44A C 0.2049(3) 0.2692(4) -0.00362(4)
H24A H 0.2393 0.2896 -0.0091
C45A C 0.6041(2) 0.5635(4) 0.06280(4)
C46A C 0.3492(2) 0.1606(3) 0.04743(4)
C47A C 0.7009(2) 0.6310(4) 0.07440(4)
C48A C 0.3312(3) 0.1370(4) 0.06142(4)
C49A C 0.7115(3) 0.7369(4) 0.19083(5)
H25A H 0.7455 0.7421 0.1958
C50A C 0.3903(3) 0.1978(4) 0.02272(5)
H26A H 0.4047 0.2104 0.0142
C51A C 0.6394(2) 0.5642(3) 0.05181(4)
C52A C 0.2886(2) 0.3645(4) 0.02384(4)
H27A H 0.2580 0.3497 0.0310
C53A C 0.2821(3) 0.4146(4) 0.01547(5)
C54A C 0.4801(2) 0.5081(4) 0.06609(4)
H28A H 0.4815 0.5230 0.0745
C55A C 0.4013(2) 0.1057(3) 0.05205(4)
C56A C 0.4106(3) 0.1631(4) 0.02943(4)
H29A H 0.4382 0.1527 0.0255
C57A C 0.6348(2) 0.5972(3) 0.07398(4)
C58A C 0.7775(2) 0.7214(4) 0.10611(5)
H30A H 0.8159 0.7473 0.1101
C59A C 0.1455(4) 0.2362(5) -0.00897(6)
H31A H 0.1409 0.2341 -0.0180
C60A C 0.6632(3) 0.7422(5) 0.19669(6)
H32A H 0.6651 0.7508 0.2056
C61A C 0.6137(3) 0.7352(4) 0.18959(6)
H33A H 0.5823 0.7398 0.1936
C62A C 0.5701(2) 0.6413(4) 0.08477(4)
H34A H 0.5316 0.6139 0.0801
H35A H 0.5587 0.6497 0.0933
C63A C 0.6030(3) 0.5636(5) 0.02843(5)
H36A H 0.6444 0.5779 0.0249
H37A H 0.5730 0.5363 0.0219
C64A C 0.7773(2) 0.7011(4) 0.09345(5)
H38A H 0.8144 0.7129 0.0890
C65A C 0.7357(2) 0.6340(4) 0.06343(4)
C66A C 0.1613(3) 0.2401(4) 0.01725(5)
H39A H 0.1658 0.2402 0.0263
C67A C 0.0953(3) 0.2077(4) -0.00146(7)
H40A H 0.0556 0.1879 -0.0052
C68A C 0.7303(3) 0.4743(4) 0.17760(6)
H41A H 0.7137 0.4294 0.1780
H42A H 0.6951 0.4814 0.1771
C69A C 0.3522(4) 0.1950(5) 0.07033(5)
H43A H 0.3325 0.2182 0.0672
H44A H 0.3371 0.1807 0.0792
C70A C 0.3289(4) 0.4527(6) 0.00674(5)
H45A H 0.3614 0.4444 0.0054
C71A C 0.2342(4) 0.4244(6) 0.01735(6)
H46A H 0.2018 0.3993 0.0230
C72A C 0.5980(3) 0.5044(4) 0.09630(5)
H47A H 0.6389 0.5301 0.1002
H48A H 0.6044 0.4917 0.0877
C73A C 0.6023(3) 0.4672(4) 0.03714(6)
H49A H 0.5702 0.4420 0.0308
H50A H 0.6425 0.4822 0.0329
C74A C 0.7393(3) 0.4750(4) 0.12719(6)
H51A H 0.6987 0.4723 0.1275
H52A H 0.7318 0.4325 0.1266
C75A C 0.1025(3) 0.2078(4) 0.01194(6)
H53A H 0.0678 0.1861 0.0173
C76A C 0.2589(4) 0.0916(5) 0.06196(6)
H54A H 0.2480 0.0763 0.0709
H55A H 0.2386 0.1157 0.0601
C77A C 0.4220(5) 0.2388(6) 0.07087(6)
H56A H 0.4377 0.2475 0.0619
H57A H 0.4408 0.2171 0.0752
C78A C 0.2341(5) 0.4767(6) 0.01009(9)
H58A H 0.2025 0.4864 0.0112
C79A C 0.5953(4) 0.6164(6) 0.02992(6)
H59A H 0.6280 0.6471 0.0355
H60A H 0.5552 0.6040 0.0340
C80A C 0.6033(3) 0.7015(5) 0.07748(8)
H61A H 0.6114 0.6933 0.0686
H62A H 0.6433 0.7284 0.0817
C81A C 0.4445(6) 0.3013(7) 0.07790(7)
H63A H 0.4250 0.2921 0.0865
H64A H 0.4892 0.3201 0.0793
C82A C 0.5620(4) 0.4463(6) 0.10462(6)
H65A H 0.5191 0.4235 0.1015
H66A H 0.5801 0.4197 0.1034
C83A C 0.2819(7) 0.5089(10) 0.00193(8)
H67A H 0.2809 0.5402 -0.0029
C84A C 0.5979(4) 0.4266(6) 0.04820(9)
H68A H 0.5612 0.4170 0.0534
H69A H 0.6343 0.4490 0.0538
C85A C 0.5987(5) 0.6456(7) 0.01619(8)
H70A H 0.6002 0.6854 0.0173
H71A H 0.6371 0.6538 0.0119
C86A C 0.3310(6) 0.5008(8) 0.00000(7)
H72A H 0.3640 0.5263 -0.0055
C87A C 0.5660(5) 0.7350(6) 0.07698(11)
H73A H 0.5578 0.7436 0.0858
H74A H 0.5261 0.7086 0.0727
C88A C 0.4342(6) 0.3459(8) 0.07217(11)
H75A H 0.4560 0.3585 0.0640
H76A H 0.4491 0.3814 0.0779
H77A H 0.3901 0.3285 0.0707
C89A C 0.2329(5) 0.0378(7) 0.05320(9)
H78A H 0.2500 0.0549 0.0446
H79A H 0.1886 0.0240 0.0527
C90A C 0.5438(6) 0.6038(8) 0.00753(7)
H80A H 0.5433 0.5652 0.0060
H81A H 0.5476 0.6244 -0.0007
H82A H 0.5056 0.5954 0.0118
C91A C 0.5617(4) 0.4582(5) 0.11765(6)
H83A H 0.6040 0.4806 0.1208
H84A H 0.5388 0.4195 0.1223
H85A H 0.5423 0.4832 0.1190
C92A C 0.7730(4) 0.5100(6) 0.11414(9)
H86A H 0.8148 0.5157 0.1139
H87A H 0.7500 0.4846 0.1067
C93A C 0.7771(7) 0.5740(9) 0.11321(13)
H88A H 0.7362 0.5689 0.1144
H89A H 0.7931 0.5920 0.1048
H90A H 0.8045 0.6010 0.1199
C94A C 0.6052(7) 0.8008(9) 0.06886(14)
H91A H 0.6430 0.8283 0.0735
H92A H 0.5801 0.8203 0.0680
H93A H 0.6156 0.7924 0.0603
C95A C 0.7660(4) 0.5035(6) 0.19027(9)
H94A H 0.7770 0.5471 0.1908
H95A H 0.8042 0.5015 0.1905
C96A C 0.7201(7) 0.4639(11) 0.20275(10)
H96A H 0.6829 0.4671 0.2025
H97A H 0.7418 0.4808 0.2108
H98A H 0.7089 0.4207 0.2021
C97A C 0.1909(7) -0.0695(11) 0.04382(13)
H99A H 0.1485 -0.0806 0.0457
H100A H 0.1948 -0.1063 0.0442
H101A H 0.2018 -0.0517 0.0352
C98A C 0.5934(5) 0.3643(6) 0.04364(12)
H102A H 0.6327 0.3747 0.0394
H103A H 0.5899 0.3401 0.0514
C99A C 0.2360(7) -0.0205(10) 0.05418(12)
H104A H 0.2240 -0.0378 0.0629
H105A H 0.2786 -0.0112 0.0526
C100A C 0.5399(6) 0.3210(8) 0.03418(13)
H106A H 0.5003 0.3070 0.0384
H107A H 0.5441 0.2855 0.0319
H108A H 0.5421 0.3436 0.0264
N1B N 0.35862(18) 0.01864(12) 0.15491(3)
N2B N 0.27966(20) -0.03744(13) 0.13329(3)
C1B C 0.46888(22) 0.08521(15) 0.15233(4)
C2B C 0.58146(21) 0.20078(15) 0.15205(4)
C3B C 0.46842(23) 0.14150(16) 0.15220(4)
H1B H 0.4305 0.1410 0.1522
C4B C 0.52668(23) 0.08796(16) 0.15223(4)
H2B H 0.5281 0.0510 0.1522
C5B C 0.52304(21) 0.19725(15) 0.15206(4)
C6B C 0.58177(22) 0.14433(15) 0.15213(4)
H3B H 0.6197 0.1449 0.1521
C7B C 0.41164(22) 0.02412(15) 0.15311(3)
C8B C 0.25383(22) -0.05172(15) 0.14665(3)
H4B H 0.2418 -0.0208 0.1491
C9B C 0.63059(21) 0.26716(15) 0.15183(4)
C10B C 0.30482(21) -0.04558(14) 0.15594(3)
H5B H 0.3183 -0.0750 0.1532
C11B C 0.28506(24) -0.05832(17) 0.17015(4)
C12B C 0.53018(21) 0.26180(15) 0.15222(4)
C13B C 0.19615(25) -0.11536(17) 0.14663(3)
C14B C 0.69625(21) 0.29715(15) 0.15198(4)
C15B C 0.1387(3) -0.1232(2) 0.14844(4)
H6B H 0.1345 -0.0885 0.1502
N3B N 0.73388(27) 0.0237(2) 0.02416(3)
N4B N 0.60541(27) -0.0429(2) 0.02927(3)
C16B C 0.27643(28) -0.0158(2) 0.17743(4)
H7B H 0.2794 0.0193 0.1734
C17B C 0.3319(3) -0.0001(2) 0.10715(4)
H8B H 0.3428 -0.0259 0.1117
C18B C 0.2003(4) -0.1686(2) 0.14438(6)
H9B H 0.2393 -0.1652 0.1434
C19B C 0.2788(3) -0.1110(2) 0.17646(5)
H10B H 0.2844 -0.1399 0.1717
C20B C 0.0847(4) -0.1828(3) 0.14777(5)
H11B H 0.0454 -0.1873 0.1490
C21B C 0.4759(4) 0.0124(3) 0.05939(4)
C22B C 0.3537(3) 0.0189(2) 0.09443(4)
C23B C 0.49803(27) 0.26927(19) 0.13982(6)
H12B H 0.4541 0.2375 0.1400
H13B H 0.5005 0.3097 0.1402
C24B C 0.5532(4) -0.0270(3) 0.04741(4)
C25B C 0.0910(4) -0.2339(2) 0.14528(5)
H14B H 0.0559 -0.2735 0.1448
C26B C 0.50093(27) 0.26955(19) 0.16516(5)
H15B H 0.5086 0.3121 0.1656
H16B H 0.4560 0.2418 0.1648
C27B C 0.6921(3) -0.0289(2) 0.01552(4)
H17B H 0.6771 -0.0131 0.0084
C28B C 0.3378(4) 0.0572(3) 0.08760(4)
C29B C 0.8035(4) 0.1329(2) 0.04063(4)
H18B H 0.7924 0.0949 0.0446
C30B C 0.2713(3) 0.0006(2) 0.12670(4)
C31B C 0.3948(3) 0.0012(2) 0.08686(4)
C32B C 0.7848(3) 0.1339(2) 0.02807(4)
C33B C 0.5369(3) 0.0115(2) 0.04078(4)
H19B H 0.5517 0.0247 0.0323
C34B C 0.7462(4) 0.0765(3) 0.02039(4)
C35B C 0.5901(3) -0.0524(2) 0.04147(4)
C36B C 0.1471(4) -0.2266(2) 0.14360(7)
H20B H 0.1510 -0.2614 0.1418
C37B C 0.4761(4) 0.0715(3) 0.04074(4)
C38B C 0.7279(3) -0.0586(2) 0.00966(4)
C39B C 0.8566(3) 0.2461(2) 0.04231(4)
C40B C 0.4982(3) 0.0308(2) 0.04673(4)
C41B C 0.2942(4) 0.0194(3) 0.11296(4)
C42B C 0.5292(4) -0.0471(3) 0.06016(4)
H21B H 0.5390 -0.0740 0.0646
C43B C 0.4557(3) 0.0239(2) 0.09450(4)
H22B H 0.4454 0.0045 0.1031
H23B H 0.4805 0.0091 0.0900
C44B C 0.7308(4) -0.0643(3) -0.00362(4)
H24B H 0.7104 -0.0503 -0.0091
C45B C 0.4365(4) 0.0406(3) 0.06280(4)
C46B C 0.8394(3) 0.1886(2) 0.04743(4)
C47B C 0.3690(4) 0.0699(3) 0.07440(4)
C48B C 0.8630(4) 0.1942(2) 0.06142(4)
C49B C 0.2631(4) -0.0254(3) 0.19083(5)
H25B H 0.2579 0.0034 0.1958
C50B C 0.8022(4) 0.1925(3) 0.02272(5)
H26B H 0.7896 0.1943 0.0142
C51B C 0.4358(3) 0.0752(2) 0.05181(4)
C52B C 0.6355(4) -0.0759(3) 0.02384(4)
H27B H 0.6503 -0.0917 0.0310
C53B C 0.5854(4) -0.1325(3) 0.01547(5)
C54B C 0.4919(4) -0.0280(3) 0.06609(4)
H28B H 0.4770 -0.0415 0.0745
C55B C 0.8943(3) 0.2956(2) 0.05205(4)
C56B C 0.8369(4) 0.2475(3) 0.02943(4)
H29B H 0.8473 0.2855 0.0255
C57B C 0.4028(3) 0.0376(2) 0.07398(4)
C58B C 0.2786(4) 0.0561(3) 0.10611(5)
H30B H 0.2527 0.0686 0.1101
C59B C 0.7638(5) -0.0907(3) -0.00897(6)
H31B H 0.7659 -0.0932 -0.0180
C60B C 0.2578(5) -0.0790(4) 0.19669(6)
H32B H 0.2492 -0.0857 0.2056
C61B C 0.2648(4) -0.1215(3) 0.18959(6)
H33B H 0.2602 -0.1575 0.1936
C62B C 0.3587(4) -0.0712(3) 0.08477(4)
H34B H 0.3861 -0.0823 0.0801
H35B H 0.3503 -0.0910 0.0933
C63B C 0.4364(5) 0.0394(4) 0.02843(5)
H36B H 0.4221 0.0665 0.0249
H37B H 0.4637 0.0367 0.0219
C64B C 0.2989(4) 0.0762(3) 0.09345(5)
H38B H 0.2871 0.1015 0.0890
C65B C 0.3660(4) 0.1017(3) 0.06343(4)
C66B C 0.7599(4) -0.0788(3) 0.01725(5)
H39B H 0.7598 -0.0744 0.0263
C67B C 0.7923(4) -0.1124(3) -0.00146(7)
H40B H 0.8121 -0.1323 -0.0052
C68B C 0.5257(4) 0.2560(3) 0.17760(6)
H41B H 0.5706 0.2843 0.1780
H42B H 0.5186 0.2137 0.1771
C69B C 0.8050(5) 0.1572(3) 0.07033(5)
H43B H 0.7818 0.1143 0.0672
H44B H 0.8193 0.1564 0.0792
C70B C 0.5473(6) -0.1238(4) 0.00674(5)
H45B H 0.5556 -0.0830 0.0054
C71B C 0.5756(6) -0.1902(4) 0.01735(6)
H46B H 0.6007 -0.1975 0.0230
C72B C 0.4956(4) 0.0936(3) 0.09630(5)
H47B H 0.4699 0.1088 0.1002
H48B H 0.5083 0.1127 0.0877
C73B C 0.5328(4) 0.1351(3) 0.03714(6)
H49B H 0.5580 0.1282 0.0308
H50B H 0.5178 0.1603 0.0329
C74B C 0.5250(4) 0.2643(3) 0.12719(6)
H51B H 0.5277 0.2264 0.1275
H52B H 0.5675 0.2993 0.1266
C75B C 0.7922(4) -0.1053(3) 0.01194(6)
H53B H 0.8139 -0.1183 0.0173
C76B C 0.9084(5) 0.1673(3) 0.06196(6)
H54B H 0.9237 0.1717 0.0709
H55B H 0.8843 0.1229 0.0601
C77B C 0.7612(6) 0.1832(4) 0.07087(6)
H56B H 0.7525 0.1902 0.0619
H57B H 0.7829 0.2237 0.0752
C78B C 0.5233(6) -0.2426(4) 0.01009(9)
H58B H 0.5136 -0.2839 0.0112
C79B C 0.3836(6) -0.0211(4) 0.02992(6)
H59B H 0.3529 -0.0191 0.0355
H60B H 0.3960 -0.0488 0.0340
C80B C 0.2985(5) -0.0982(4) 0.07748(8)
H61B H 0.3067 -0.0819 0.0686
H62B H 0.2716 -0.0851 0.0817
C81B C 0.6987(7) 0.1432(4) 0.07790(7)
H63B H 0.7079 0.1329 0.0865
H64B H 0.6799 0.1691 0.0793
C82B C 0.5537(6) 0.1157(4) 0.10462(6)
H65B H 0.5765 0.0956 0.1015
H66B H 0.5803 0.1604 0.1034
C83B C 0.4911(10) -0.2270(7) 0.00193(8)
H67B H 0.4598 -0.2593 -0.0029
C84B C 0.5734(6) 0.1713(4) 0.04820(9)
H68B H 0.5830 0.1442 0.0534
H69B H 0.5510 0.1853 0.0538
C85B C 0.3544(7) -0.0469(5) 0.01619(8)
H70B H 0.3146 -0.0852 0.0173
H71B H 0.3462 -0.0167 0.0119
C86B C 0.4992(8) -0.1698(5) 0.00000(7)
H72B H 0.4737 -0.1623 -0.0055
C87B C 0.2650(6) -0.1690(4) 0.07698(11)
H73B H 0.2564 -0.1858 0.0858
H74B H 0.2914 -0.1825 0.0727
C88B C 0.6541(8) 0.0883(5) 0.07217(11)
H75B H 0.6415 0.0975 0.0640
H76B H 0.6186 0.0677 0.0779
H77B H 0.6715 0.0616 0.0707
C89B C 0.9622(7) 0.1951(5) 0.05320(9)
H78B H 0.9451 0.1951 0.0446
H79B H 0.9760 0.1646 0.0527
C90B C 0.3962(8) -0.0600(6) 0.00753(7)
H80B H 0.4348 -0.0219 0.0060
H81B H 0.3756 -0.0768 -0.0007
H82B H 0.4046 -0.0898 0.0118
C91B C 0.5418(5) 0.1035(3) 0.11765(6)
H83B H 0.5194 0.1234 0.1208
H84B H 0.5805 0.1193 0.1223
H85B H 0.5168 0.0591 0.1190
C92B C 0.4900(6) 0.2630(4) 0.11414(9)
H86B H 0.4843 0.2991 0.1139
H87B H 0.5154 0.2654 0.1067
C93B C 0.4260(9) 0.2031(6) 0.11321(13)
H88B H 0.4311 0.1673 0.1144
H89B H 0.4080 0.2011 0.1048
H90B H 0.3990 0.2035 0.1199
C94B C 0.1992(9) -0.1956(6) 0.06886(14)
H91B H 0.1717 -0.1853 0.0735
H92B H 0.1797 -0.2402 0.0680
H93B H 0.2076 -0.1768 0.0603
C95B C 0.4965(6) 0.2625(5) 0.19027(9)
H94B H 0.4529 0.2299 0.1908
H95B H 0.4985 0.3027 0.1905
C96B C 0.5361(11) 0.2562(8) 0.20275(10)
H96B H 0.5329 0.2158 0.2025
H97B H 0.5192 0.2610 0.2108
H98B H 0.5793 0.2882 0.2021
C97B C 1.0695(11) 0.2604(8) 0.04382(13)
H99B H 1.0806 0.2291 0.0457
H100B H 1.1063 0.3011 0.0442
H101B H 1.0517 0.2535 0.0352
C98B C 0.6357(6) 0.2291(4) 0.04364(12)
H102B H 0.6253 0.2580 0.0394
H103B H 0.6599 0.2498 0.0514
C99B C 1.0205(10) 0.2565(7) 0.05418(12)
H104B H 1.0378 0.2618 0.0629
H105B H 1.0112 0.2898 0.0526
C100B C 0.6790(8) 0.2189(6) 0.03418(13)
H106B H 0.6930 0.1933 0.0384
H107B H 0.7145 0.2586 0.0319
H108B H 0.6564 0.1985 0.0264
loop_
_geom_bond_atom_site_label_1
_geom_bond_atom_site_label_2
_geom_bond_site_symmetry_1
_geom_bond_site_symmetry_2
N1 C7 1_555 1_555
N2 C8 1_555 1_555
C1 C3 1_555 1_555
C2 C5 1_555 1_555
C3 H1 1_555 1_555
C4 C1 1_555 1_555
H2 C4 1_555 1_555
C5 C3 1_555 1_555
C6 C2 1_555 1_555
H3 C6 1_555 1_555
C7 C1 1_555 1_555
C8 H4 1_555 1_555
C9 C2 1_555 1_555
C10 N1 1_555 1_555
H5 C10 1_555 1_555
C11 C10 1_555 1_555
C12 C5 1_555 1_555
C13 C8 1_555 1_555
C14 C9 1_555 1_555
C15 C13 1_555 1_555
H6 C15 1_555 1_555
N3 C27 1_555 1_555
N4 C35 1_555 1_555
C16 C11 1_555 1_555
H7 C16 1_555 1_555
C17 H8 1_555 1_555
C18 C13 1_555 1_555
H9 C18 1_555 1_555
C19 C11 1_555 1_555
H10 C19 1_555 1_555
C20 C15 1_555 1_555
H11 C20 1_555 1_555
C21 C40 1_555 1_555
C22 C17 1_555 1_555
C23 C12 1_555 1_555
H12 C23 1_555 1_555
H13 C23 1_555 1_555
C24 C33 1_555 1_555
C25 C20 1_555 1_555
H14 C25 1_555 1_555
C26 C12 1_555 1_555
H15 C26 1_555 1_555
H16 C26 1_555 1_555
C27 H17 1_555 1_555
C28 C22 1_555 1_555
C29 H18 1_555 1_555
C30 N2 1_555 1_555
C31 C22 1_555 1_555
C32 C29 1_555 1_555
C33 H19 1_555 1_555
C34 N3 1_555 1_555
C35 C24 1_555 1_555
C36 C18 1_555 1_555
H20 C36 1_555 1_555
C37 C40 1_555 1_555
C38 C27 1_555 1_555
C39 C46 1_555 1_555
C40 C33 1_555 1_555
C41 C17 1_555 1_555
C42 C24 1_555 1_555
H21 C42 1_555 1_555
C43 C31 1_555 1_555
H22 C43 1_555 1_555
H23 C43 1_555 1_555
C44 C38 1_555 1_555
H24 C44 1_555 1_555
C45 C21 1_555 1_555
C46 C29 1_555 1_555
C47 C28 1_555 1_555
C48 C46 1_555 1_555
C49 C16 1_555 1_555
H25 C49 1_555 1_555
C50 C32 1_555 1_555
H26 C50 1_555 1_555
C51 C37 1_555 1_555
C52 N4 1_555 1_555
H27 C52 1_555 1_555
C53 C52 1_555 1_555
C54 C21 1_555 1_555
H28 C54 1_555 1_555
C55 C39 1_555 1_555
C56 C39 1_555 1_555
H29 C56 1_555 1_555
C57 C31 1_555 1_555
C58 C41 1_555 1_555
H30 C58 1_555 1_555
C59 C44 1_555 1_555
H31 C59 1_555 1_555
C60 C49 1_555 1_555
H32 C60 1_555 1_555
C61 C19 1_555 1_555
H33 C61 1_555 1_555
C62 C31 1_555 1_555
H34 C62 1_555 1_555
H35 C62 1_555 1_555
C63 C37 1_555 1_555
H36 C63 1_555 1_555
H37 C63 1_555 1_555
C64 C28 1_555 1_555
H38 C64 1_555 1_555
C65 C47 1_555 1_555
C66 C38 1_555 1_555
H39 C66 1_555 1_555
C67 C59 1_555 1_555
H40 C67 1_555 1_555
C68 C26 1_555 1_555
H41 C68 1_555 1_555
H42 C68 1_555 1_555
C69 C48 1_555 1_555
H43 C69 1_555 1_555
H44 C69 1_555 1_555
C70 C53 1_555 1_555
H45 C70 1_555 1_555
C71 C53 1_555 1_555
H46 C71 1_555 1_555
C72 C43 1_555 1_555
H47 C72 1_555 1_555
H48 C72 1_555 1_555
C73 C37 1_555 1_555
H49 C73 1_555 1_555
H50 C73 1_555 1_555
C74 C23 1_555 1_555
H51 C74 1_555 1_555
H52 C74 1_555 1_555
C75 C66 1_555 1_555
H53 C75 1_555 1_555
C76 C48 1_555 1_555
H54 C76 1_555 1_555
H55 C76 1_555 1_555
C77 C69 1_555 1_555
H56 C77 1_555 1_555
H57 C77 1_555 1_555
C78 C71 1_555 1_555
H58 C78 1_555 1_555
C79 C63 1_555 1_555
H59 C79 1_555 1_555
H60 C79 1_555 1_555
C80 C62 1_555 1_555
H61 C80 1_555 1_555
H62 C80 1_555 1_555
C81 C77 1_555 1_555
H63 C81 1_555 1_555
H64 C81 1_555 1_555
C82 C72 1_555 1_555
H65 C82 1_555 1_555
H66 C82 1_555 1_555
C83 C78 1_555 1_555
H67 C83 1_555 1_555
C84 C73 1_555 1_555
H68 C84 1_555 1_555
H69 C84 1_555 1_555
C85 C79 1_555 1_555
H70 C85 1_555 1_555
H71 C85 1_555 1_555
C86 C70 1_555 1_555
H72 C86 1_555 1_555
C87 C80 1_555 1_555
H73 C87 1_555 1_555
H74 C87 1_555 1_555
C88 C81 1_555 1_555
H75 C88 1_555 1_555
H76 C88 1_555 1_555
H77 C88 1_555 1_555
C89 C76 1_555 1_555
H78 C89 1_555 1_555
H79 C89 1_555 1_555
C90 C85 1_555 1_555
H80 C90 1_555 1_555
H81 C90 1_555 1_555
H82 C90 1_555 1_555
C91 C82 1_555 1_555
H83 C91 1_555 1_555
H84 C91 1_555 1_555
H85 C91 1_555 1_555
C92 C74 1_555 1_555
H86 C92 1_555 1_555
H87 C92 1_555 1_555
C93 C92 1_555 1_555
H88 C93 1_555 1_555
H89 C93 1_555 1_555
H90 C93 1_555 1_555
C94 C87 1_555 1_555
H91 C94 1_555 1_555
H92 C94 1_555 1_555
H93 C94 1_555 1_555
C95 C68 1_555 1_555
H94 C95 1_555 1_555
H95 C95 1_555 1_555
C96 C95 1_555 1_555
H96 C96 1_555 1_555
H97 C96 1_555 1_555
H98 C96 1_555 1_555
C97 H99 1_555 1_555
H100 C97 1_555 1_555
H101 C97 1_555 1_555
C98 C84 1_555 1_555
H102 C98 1_555 1_555
H103 C98 1_555 1_555
C99 C89 1_555 1_555
H104 C99 1_555 1_555
H105 C99 1_555 1_555
C100 C98 1_555 1_555
H106 C100 1_555 1_555
H107 C100 1_555 1_555
H108 C100 1_555 1_555
N1A C7A 1_555 1_555
N2A C8A 1_555 1_555
C1A C3A 1_555 1_555
C2A C5A 1_555 1_555
C3A H1A 1_555 1_555
C4A C1A 1_555 1_555
H2A C4A 1_555 1_555
C5A C3A 1_555 1_555
C6A C2A 1_555 1_555
H3A C6A 1_555 1_555
C7A C1A 1_555 1_555
C8A H4A 1_555 1_555
C9A C14 1_555 1_555
C10A N1A 1_555 1_555
H5A C10A 1_555 1_555
C11A C10A 1_555 1_555
C12A C14 1_555 1_555
C13A C8A 1_555 1_555
C14A C9A 1_555 1_555
C15A C13A 1_555 1_555
H6A C15A 1_555 1_555
N3A C27A 1_555 1_555
N4A C35A 1_555 1_555
C16A C11A 1_555 1_555
H7A C16A 1_555 1_555
C17A H8A 1_555 1_555
C18A C13A 1_555 1_555
H9A C18A 1_555 1_555
C19A C11A 1_555 1_555
H10A C19A 1_555 1_555
C20A C15A 1_555 1_555
H11A C20A 1_555 1_555
C21A C40A 1_555 1_555
C22A C17A 1_555 1_555
C23A C12A 1_555 1_555
H12A C23A 1_555 1_555
H13A C23A 1_555 1_555
C24A C33A 1_555 1_555
C25A C20A 1_555 1_555
H14A C25A 1_555 1_555
C26A C12A 1_555 1_555
H15A C26A 1_555 1_555
H16A C26A 1_555 1_555
C27A H17A 1_555 1_555
C28A C22A 1_555 1_555
C29A H18A 1_555 1_555
C30A N2A 1_555 1_555
C31A C22A 1_555 1_555
C32A C29A 1_555 1_555
C33A H19A 1_555 1_555
C34A N3A 1_555 1_555
C35A C24A 1_555 1_555
C36A C18A 1_555 1_555
H20A C36A 1_555 1_555
C37A C40A 1_555 1_555
C38A C27A 1_555 1_555
C39A C46A 1_555 1_555
C40A C33A 1_555 1_555
C41A C17A 1_555 1_555
C42A C24A 1_555 1_555
H21A C42A 1_555 1_555
C43A C31A 1_555 1_555
H22A C43A 1_555 1_555
H23A C43A 1_555 1_555
C44A C38A 1_555 1_555
H24A C44A 1_555 1_555
C45A C21A 1_555 1_555
C46A C29A 1_555 1_555
C47A C28A 1_555 1_555
C48A C46A 1_555 1_555
C49A C16A 1_555 1_555
H25A C49A 1_555 1_555
C50A C32A 1_555 1_555
H26A C50A 1_555 1_555
C51A C55 1_555 1_555
C52A N4A 1_555 1_555
H27A C52A 1_555 1_555
C53A C52A 1_555 1_555
C54A C21A 1_555 1_555
H28A C54A 1_555 1_555
C55A C39A 1_555 1_555
C56A C39A 1_555 1_555
H29A C56A 1_555 1_555
C57A C31A 1_555 1_555
C58A C41A 1_555 1_555
H30A C58A 1_555 1_555
C59A C44A 1_555 1_555
H31A C59A 1_555 1_555
C60A C49A 1_555 1_555
H32A C60A 1_555 1_555
C61A C19A 1_555 1_555
H33A C61A 1_555 1_555
C62A C31A 1_555 1_555
H34A C62A 1_555 1_555
H35A C62A 1_555 1_555
C63A C37A 1_555 1_555
H36A C63A 1_555 1_555
H37A C63A 1_555 1_555
C64A C28A 1_555 1_555
H38A C64A 1_555 1_555
C65A C48 1_555 1_555
C66A C38A 1_555 1_555
H39A C66A 1_555 1_555
C67A C59A 1_555 1_555
H40A C67A 1_555 1_555
C68A C26A 1_555 1_555
H41A C68A 1_555 1_555
H42A C68A 1_555 1_555
C69A C48A 1_555 1_555
H43A C69A 1_555 1_555
H44A C69A 1_555 1_555
C70A C53A 1_555 1_555
H45A C70A 1_555 1_555
C71A C53A 1_555 1_555
H46A C71A 1_555 1_555
C72A C43A 1_555 1_555
H47A C72A 1_555 1_555
H48A C72A 1_555 1_555
C73A C37A 1_555 1_555
H49A C73A 1_555 1_555
H50A C73A 1_555 1_555
C74A C23A 1_555 1_555
H51A C74A 1_555 1_555
H52A C74A 1_555 1_555
C75A C66A 1_555 1_555
H53A C75A 1_555 1_555
C76A C48A 1_555 1_555
H54A C76A 1_555 1_555
H55A C76A 1_555 1_555
C77A C69A 1_555 1_555
H56A C77A 1_555 1_555
H57A C77A 1_555 1_555
C78A C71A 1_555 1_555
H58A C78A 1_555 1_555
C79A C63A 1_555 1_555
H59A C79A 1_555 1_555
H60A C79A 1_555 1_555
C80A C62A 1_555 1_555
H61A C80A 1_555 1_555
H62A C80A 1_555 1_555
C81A C77A 1_555 1_555
H63A C81A 1_555 1_555
H64A C81A 1_555 1_555
C82A C72A 1_555 1_555
H65A C82A 1_555 1_555
H66A C82A 1_555 1_555
C83A C78A 1_555 1_555
H67A C83A 1_555 1_555
C84A C73A 1_555 1_555
H68A C84A 1_555 1_555
H69A C84A 1_555 1_555
C85A C79A 1_555 1_555
H70A C85A 1_555 1_555
H71A C85A 1_555 1_555
C86A C70A 1_555 1_555
H72A C86A 1_555 1_555
C87A C80A 1_555 1_555
H73A C87A 1_555 1_555
H74A C87A 1_555 1_555
C88A C81A 1_555 1_555
H75A C88A 1_555 1_555
H76A C88A 1_555 1_555
H77A C88A 1_555 1_555
C89A C76A 1_555 1_555
H78A C89A 1_555 1_555
H79A C89A 1_555 1_555
C90A C85A 1_555 1_555
H80A C90A 1_555 1_555
H81A C90A 1_555 1_555
H82A C90A 1_555 1_555
C91A C82A 1_555 1_555
H83A C91A 1_555 1_555
H84A C91A 1_555 1_555
H85A C91A 1_555 1_555
C92A C74A 1_555 1_555
H86A C92A 1_555 1_555
H87A C92A 1_555 1_555
C93A C92A 1_555 1_555
H88A C93A 1_555 1_555
H89A C93A 1_555 1_555
H90A C93A 1_555 1_555
C94A C87A 1_555 1_555
H91A C94A 1_555 1_555
H92A C94A 1_555 1_555
H93A C94A 1_555 1_555
C95A C68A 1_555 1_555
H94A C95A 1_555 1_555
H95A C95A 1_555 1_555
C96A C95A 1_555 1_555
H96A C96A 1_555 1_555
H97A C96A 1_555 1_555
H98A C96A 1_555 1_555
C97A H99A 1_555 1_555
H100A C97A 1_555 1_555
H101A C97A 1_555 1_555
C98A C84A 1_555 1_555
H102A C98A 1_555 1_555
H103A C98A 1_555 1_555
C99A C89A 1_555 1_555
H104A C99A 1_555 1_555
H105A C99A 1_555 1_555
C100A C98A 1_555 1_555
H106A C100A 1_555 1_555
H107A C100A 1_555 1_555
H108A C100A 1_555 1_555
N1B C7B 1_555 1_555
N2B C8B 1_555 1_555
C1B C3B 1_555 1_555
C2B C5B 1_555 1_555
C3B H1B 1_555 1_555
C4B C1B 1_555 1_555
H2B C4B 1_555 1_555
C5B C3B 1_555 1_555
C6B C2B 1_555 1_555
H3B C6B 1_555 1_555
C7B C1B 1_555 1_555
C8B H4B 1_555 1_555
C9B C14A 1_555 1_555
C10B N1B 1_555 1_555
H5B C10B 1_555 1_555
C11B C10B 1_555 1_555
C12B C14A 1_555 1_555
C13B C8B 1_555 1_555
C14B C9 1_555 1_555
C15B C13B 1_555 1_555
H6B C15B 1_555 1_555
N3B C27B 1_555 1_555
N4B C35B 1_555 1_555
C16B C11B 1_555 1_555
H7B C16B 1_555 1_555
C17B H8B 1_555 1_555
C18B C13B 1_555 1_555
H9B C18B 1_555 1_555
C19B C11B 1_555 1_555
H10B C19B 1_555 1_555
C20B C15B 1_555 1_555
H11B C20B 1_555 1_555
C21B C40B 1_555 1_555
C22B C17B 1_555 1_555
C23B C12B 1_555 1_555
H12B C23B 1_555 1_555
H13B C23B 1_555 1_555
C24B C33B 1_555 1_555
C25B C20B 1_555 1_555
H14B C25B 1_555 1_555
C26B C12B 1_555 1_555
H15B C26B 1_555 1_555
H16B C26B 1_555 1_555
C27B H17B 1_555 1_555
C28B C22B 1_555 1_555
C29B H18B 1_555 1_555
C30B N2B 1_555 1_555
C31B C22B 1_555 1_555
C32B C29B 1_555 1_555
C33B H19B 1_555 1_555
C34B N3B 1_555 1_555
C35B C24B 1_555 1_555
C36B C18B 1_555 1_555
H20B C36B 1_555 1_555
C37B C40B 1_555 1_555
C38B C27B 1_555 1_555
C39B C46B 1_555 1_555
C40B C33B 1_555 1_555
C41B C17B 1_555 1_555
C42B C24B 1_555 1_555
H21B C42B 1_555 1_555
C43B C31B 1_555 1_555
H22B C43B 1_555 1_555
H23B C43B 1_555 1_555
C44B C38B 1_555 1_555
H24B C44B 1_555 1_555
C45B C21B 1_555 1_555
C46B C29B 1_555 1_555
C47B C28B 1_555 1_555
C48B C65 1_555 1_555
C49B C16B 1_555 1_555
H25B C49B 1_555 1_555
C50B C32B 1_555 1_555
H26B C50B 1_555 1_555
C51B C55A 1_555 1_555
C52B N4B 1_555 1_555
H27B C52B 1_555 1_555
C53B C52B 1_555 1_555
C54B C21B 1_555 1_555
H28B C54B 1_555 1_555
C55B C51 1_555 1_555
C56B C39B 1_555 1_555
H29B C56B 1_555 1_555
C57B C31B 1_555 1_555
C58B C41B 1_555 1_555
H30B C58B 1_555 1_555
C59B C44B 1_555 1_555
H31B C59B 1_555 1_555
C60B C49B 1_555 1_555
H32B C60B 1_555 1_555
C61B C19B 1_555 1_555
H33B C61B 1_555 1_555
C62B C31B 1_555 1_555
H34B C62B 1_555 1_555
H35B C62B 1_555 1_555
C63B C37B 1_555 1_555
H36B C63B 1_555 1_555
H37B C63B 1_555 1_555
C64B C28B 1_555 1_555
H38B C64B 1_555 1_555
C65B C48A 1_555 1_555
C66B C38B 1_555 1_555
H39B C66B 1_555 1_555
C67B C59B 1_555 1_555
H40B C67B 1_555 1_555
C68B C26B 1_555 1_555
H41B C68B 1_555 1_555
H42B C68B 1_555 1_555
C69B C48B 1_555 1_555
H43B C69B 1_555 1_555
H44B C69B 1_555 1_555
C70B C53B 1_555 1_555
H45B C70B 1_555 1_555
C71B C53B 1_555 1_555
H46B C71B 1_555 1_555
C72B C43B 1_555 1_555
H47B C72B 1_555 1_555
H48B C72B 1_555 1_555
C73B C37B 1_555 1_555
H49B C73B 1_555 1_555
H50B C73B 1_555 1_555
C74B C23B 1_555 1_555
H51B C74B 1_555 1_555
H52B C74B 1_555 1_555
C75B C66B 1_555 1_555
H53B C75B 1_555 1_555
C76B C48B 1_555 1_555
H54B C76B 1_555 1_555
H55B C76B 1_555 1_555
C77B C69B 1_555 1_555
H56B C77B 1_555 1_555
H57B C77B 1_555 1_555
C78B C71B 1_555 1_555
H58B C78B 1_555 1_555
C79B C63B 1_555 1_555
H59B C79B 1_555 1_555
H60B C79B 1_555 1_555
C80B C62B 1_555 1_555
H61B C80B 1_555 1_555
H62B C80B 1_555 1_555
C81B C77B 1_555 1_555
H63B C81B 1_555 1_555
H64B C81B 1_555 1_555
C82B C72B 1_555 1_555
H65B C82B 1_555 1_555
H66B C82B 1_555 1_555
C83B C78B 1_555 1_555
H67B C83B 1_555 1_555
C84B C73B 1_555 1_555
H68B C84B 1_555 1_555
H69B C84B 1_555 1_555
C85B C79B 1_555 1_555
H70B C85B 1_555 1_555
H71B C85B 1_555 1_555
C86B C70B 1_555 1_555
H72B C86B 1_555 1_555
C87B C80B 1_555 1_555
H73B C87B 1_555 1_555
H74B C87B 1_555 1_555
C88B C81B 1_555 1_555
H75B C88B 1_555 1_555
H76B C88B 1_555 1_555
H77B C88B 1_555 1_555
C89B C76B 1_555 1_555
H78B C89B 1_555 1_555
H79B C89B 1_555 1_555
C90B C85B 1_555 1_555
H80B C90B 1_555 1_555
H81B C90B 1_555 1_555
H82B C90B 1_555 1_555
C91B C82B 1_555 1_555
H83B C91B 1_555 1_555
H84B C91B 1_555 1_555
H85B C91B 1_555 1_555
C92B C74B 1_555 1_555
H86B C92B 1_555 1_555
H87B C92B 1_555 1_555
C93B C92B 1_555 1_555
H88B C93B 1_555 1_555
H89B C93B 1_555 1_555
H90B C93B 1_555 1_555
C94B C87B 1_555 1_555
H91B C94B 1_555 1_555
H92B C94B 1_555 1_555
H93B C94B 1_555 1_555
C95B C68B 1_555 1_555
H94B C95B 1_555 1_555
H95B C95B 1_555 1_555
C96B C95B 1_555 1_555
H96B C96B 1_555 1_555
H97B C96B 1_555 1_555
H98B C96B 1_555 1_555
C97B H99B 1_555 1_555
H100B C97B 1_555 1_555
H101B C97B 1_555 1_555
C98B C84B 1_555 1_555
H102B C98B 1_555 1_555
H103B C98B 1_555 1_555
C99B C89B 1_555 1_555
H104B C99B 1_555 1_555
H105B C99B 1_555 1_555
C100B C98B 1_555 1_555
H106B C100B 1_555 1_555
H107B C100B 1_555 1_555
H108B C100B 1_555 1_555
C4 C6 1_555 1_555
C8 C10 1_555 1_555
C12 C14B 1_555 1_555
C25 C36 1_555 1_555
C27 C52 1_555 1_555
C30 C41 1_555 1_555
C32 C34 1_555 1_555
C42 C54 1_555 1_555
C45 C51 1_555 1_555
C45 C57 1_555 1_555
C47 C57 1_555 1_555
C50 C56 1_555 1_555
C55 C65A 1_555 1_555
C58 C64 1_555 1_555
C60 C61 1_555 1_555
C65 C55B 1_555 1_555
C67 C75 1_555 1_555
C83 C86 1_555 1_555
C97 C99 1_555 1_555
C2A C9A 1_555 1_555
C4A C6A 1_555 1_555
C5A C12A 1_555 1_555
C8A C10A 1_555 1_555
C25A C36A 1_555 1_555
C27A C52A 1_555 1_555
C30A C41A 1_555 1_555
C32A C34A 1_555 1_555
C37A C51A 1_555 1_555
C42A C54A 1_555 1_555
C45A C51A 1_555 1_555
C45A C57A 1_555 1_555
C47A C57A 1_555 1_555
C47A C65A 1_555 1_555
C50A C56A 1_555 1_555
C55A C65B 1_555 1_555
C58A C64A 1_555 1_555
C60A C61A 1_555 1_555
C67A C75A 1_555 1_555
C83A C86A 1_555 1_555
C97A C99A 1_555 1_555
C2B C9B 1_555 1_555
C4B C6B 1_555 1_555
C5B C12B 1_555 1_555
C8B C10B 1_555 1_555
C9B C14B 1_555 1_555
C25B C36B 1_555 1_555
C27B C52B 1_555 1_555
C30B C41B 1_555 1_555
C32B C34B 1_555 1_555
C37B C51B 1_555 1_555
C39B C55B 1_555 1_555
C42B C54B 1_555 1_555
C45B C51B 1_555 1_555
C45B C57B 1_555 1_555
C46B C48B 1_555 1_555
C47B C57B 1_555 1_555
C47B C65B 1_555 1_555
C50B C56B 1_555 1_555
C58B C64B 1_555 1_555
C60B C61B 1_555 1_555
C67B C75B 1_555 1_555
C83B C86B 1_555 1_555
C97B C99B 1_555 1_555

#END
