
#######################################################################
#
#                 Cambridge Crystallographic Data Centre
#                                CCDC 
#
#######################################################################
#
# If this CIF has been generated from an entry in the Cambridge 
# Structural Database, then it will include bibliographic, chemical, 
# crystal, experimental, refinement or atomic coordinate data resulting 
# from the CCDC's data processing and validation procedures.
#
#######################################################################

data_NERZAO
_chemical_formula_moiety         'C27 H26 B1 N3 O2'
_chemical_name_systematic        
2^4^-[4-(4,4,5,5-tetramethyl-1,3,2-dioxaborolan-2-yl)phenyl]-1^2^,2^2^:2^6^,3^2^-terpyridine
_symmetry_cell_setting           monoclinic
_symmetry_space_group_name_H-M   'P c'
_symmetry_Int_Tables_number      7
_space_group_name_Hall           'P -2yc'
loop_
_symmetry_equiv_pos_site_id
_symmetry_equiv_pos_as_xyz
1 x,y,z
2 x,-y,1/2+z
_cell_length_a                   18.7210(10)
_cell_length_b                   6.5310(10)
_cell_length_c                   23.8400(10)
_cell_angle_alpha                90
_cell_angle_beta                 128.652(16)
_cell_angle_gamma                90
_cell_volume                     2276.36
_exptl_crystal_colour            colorless
_exptl_crystal_description       block
_cell_formula_units_Z            4
_exptl_crystal_recrystallization_method 'Vapour deposition'
loop_
_atom_site_label
_atom_site_type_symbol
_atom_site_fract_x
_atom_site_fract_y
_atom_site_fract_z
O1 O 0.2075(2) 0.5305(5) -0.03060(19)
O2 O 0.2587(2) 0.2013(6) -0.00191(19)
C1 C 0.7632(4) 1.2088(9) 0.4718(3)
H1 H 0.8179 1.1360 0.4982
N1 N 0.7720(3) 0.8429(7) 0.4127(2)
C2 C 0.9345(4) 0.6200(10) 0.4990(3)
H2 H 0.9324 0.7475 0.5153
C3 C 0.7566(4) 1.3903(9) 0.4983(3)
H3 H 0.8066 1.4425 0.5422
C4 C 0.6735(4) 1.4918(9) 0.4577(3)
H4 H 0.6660 1.6139 0.4735
C5 C 0.6028(4) 1.4073(9) 0.3936(3)
H5 H 0.5470 1.4755 0.3666
N2 N 0.6082(3) 1.2327(7) 0.3668(2)
C6 C 0.6887(4) 1.1368(8) 0.4063(3)
C7 C 0.6929(3) 0.9467(8) 0.3749(3)
C8 C 0.6156(3) 0.8764(8) 0.3090(3)
H6 H 0.5616 0.9513 0.2839
C9 C 0.6190(3) 0.6954(8) 0.2807(3)
C10 C 0.7001(3) 0.5860(8) 0.3201(3)
H7 H 0.7047 0.4621 0.3034
C11 C 0.7753(3) 0.6676(9) 0.3862(3)
C12 C 0.8619(3) 0.5501(9) 0.4314(3)
N3 N 0.8640(3) 0.3718(7) 0.4063(2)
C13 C 0.9376(4) 0.2507(10) 0.4482(3)
H8 H 0.9390 0.1247 0.4307
C14 C 1.0110(4) 0.3095(10) 0.5163(3)
H9 H 1.0607 0.2222 0.5450
C15 C 1.0108(4) 0.4944(10) 0.5419(3)
H10 H 1.0610 0.5368 0.5874
C16 C 0.5361(3) 0.6154(8) 0.2116(3)
C17 C 0.4767(3) 0.7524(9) 0.1555(3)
H11 H 0.4919 0.8903 0.1603
C18 C 0.3963(4) 0.6828(9) 0.0938(3)
H12 H 0.3572 0.7757 0.0574
C19 C 0.3712(3) 0.4787(8) 0.0838(3)
C20 C 0.4321(3) 0.3438(8) 0.1393(3)
H13 H 0.4173 0.2056 0.1339
C21 C 0.5133(3) 0.4095(8) 0.2015(3)
H14 H 0.5532 0.3155 0.2372
C22 C 0.1372(4) 0.4077(8) -0.0933(3)
C23 C 0.0443(4) 0.4829(10) -0.1215(3)
H15 H 0.0348 0.6184 -0.1407
H16 H 0.0405 0.4858 -0.0832
H17 H -0.0017 0.3927 -0.1587
C24 C 0.1535(4) 0.4377(10) -0.1475(3)
H18 H 0.1383 0.5757 -0.1652
H19 H 0.1158 0.3442 -0.1868
H20 H 0.2167 0.4121 -0.1250
C25 C 0.1599(4) 0.1887(9) -0.0621(3)
C26 C 0.1163(4) 0.1303(12) -0.0291(3)
H21 H 0.1242 0.2391 0.0014
H22 H 0.1445 0.0079 -0.0012
H23 H 0.0522 0.1064 -0.0663
C27 C 0.1481(4) 0.0236(9) -0.1125(3)
H24 H 0.1629 -0.1076 -0.0895
H25 H 0.1881 0.0515 -0.1238
H26 H 0.0858 0.0228 -0.1558
B1 B 0.2783(4) 0.4031(10) 0.0164(3)
O3 O 1.1847(2) -0.3092(6) 0.20641(19)
O4 O 1.2515(2) 0.0065(6) 0.2413(2)
C28 C 0.6876(4) 0.7846(8) 0.1781(3)
H27 H 0.6311 0.7226 0.1447
N4 N 0.6822(3) 0.4052(7) 0.1175(2)
C29 C 0.5158(4) 0.1901(9) 0.0351(3)
H28 H 0.5185 0.3154 0.0549
C30 C 0.6934(4) 0.9654(9) 0.2103(3)
H29 H 0.6410 1.0284 0.1984
C31 C 0.7785(4) 1.0518(8) 0.2605(3)
H30 H 0.7851 1.1722 0.2841
C32 C 0.8532(4) 0.9536(9) 0.2744(3)
H31 H 0.9104 1.0135 0.3073
N5 N 0.8486(3) 0.7770(7) 0.2435(2)
C33 C 0.7656(4) 0.6959(8) 0.1953(3)
C34 C 0.7639(3) 0.4997(9) 0.1631(3)
C35 C 0.8424(4) 0.4189(8) 0.1778(3)
H32 H 0.8976 0.4883 0.2087
C36 C 0.8400(3) 0.2374(8) 0.1473(3)
C37 C 0.7561(4) 0.1405(8) 0.1005(3)
H33 H 0.7509 0.0197 0.0775
C38 C 0.6798(3) 0.2278(9) 0.0885(3)
C39 C 0.5909(4) 0.1182(9) 0.0426(3)
N6 N 0.5895(3) -0.0562(9) 0.0131(3)
C40 C 0.5120(4) -0.1656(10) -0.0238(3)
H34 H 0.5105 -0.2882 -0.0444
C41 C 0.4348(4) -0.1079(11) -0.0332(3)
H35 H 0.3823 -0.1885 -0.0596
C42 C 0.4370(4) 0.0749(10) -0.0020(3)
H36 H 0.3866 0.1179 -0.0061
C43 C 0.9247(3) 0.1497(8) 0.1630(3)
C44 C 0.9320(3) -0.0558(9) 0.1555(3)
H37 H 0.8833 -0.1420 0.1399
C45 C 1.0105(3) -0.1370(9) 0.1705(3)
H38 H 1.0128 -0.2765 0.1640
C46 C 1.0856(3) -0.0167(9) 0.1949(3)
C47 C 1.0767(4) 0.1930(8) 0.2025(3)
H39 H 1.1256 0.2799 0.2192
C48 C 0.9976(3) 0.2740(9) 0.1861(3)
H40 H 0.9935 0.4141 0.1908
C49 C 1.2814(4) -0.3410(9) 0.2402(3)
C50 C 1.2862(4) -0.5055(10) 0.1966(4)
H41 H 1.2651 -0.6337 0.2010
H42 H 1.3483 -0.5198 0.2145
H43 H 1.2482 -0.4657 0.1470
C51 C 1.3258(4) -0.4241(11) 0.3146(3)
H44 H 1.3026 -0.5588 0.3108
H45 H 1.3122 -0.3356 0.3389
H46 H 1.3909 -0.4307 0.3412
C52 C 1.3127(4) -0.1227(9) 0.2384(3)
C53 C 1.2950(4) -0.0753(10) 0.1690(4)
H47 H 1.3160 0.0606 0.1711
H48 H 1.2305 -0.0845 0.1301
H49 H 1.3271 -0.1719 0.1617
C54 C 1.4103(4) -0.0755(11) 0.3025(4)
H50 H 1.4255 0.0610 0.2982
H51 H 1.4506 -0.1712 0.3043
H52 H 1.4169 -0.0863 0.3457
B2 B 1.1749(4) -0.1062(10) 0.2146(3)
loop_
_geom_bond_atom_site_label_1
_geom_bond_atom_site_label_2
_geom_bond_site_symmetry_1
_geom_bond_site_symmetry_2
O1 C22 1_555 1_555
O2 C25 1_555 1_555
C1 H1 1_555 1_555
N1 C7 1_555 1_555
C2 H2 1_555 1_555
C3 C1 1_555 1_555
H3 C3 1_555 1_555
C4 C3 1_555 1_555
H4 C4 1_555 1_555
C5 C4 1_555 1_555
H5 C5 1_555 1_555
N2 C5 1_555 1_555
C6 C1 1_555 1_555
C7 C6 1_555 1_555
C8 C7 1_555 1_555
H6 C8 1_555 1_555
C9 C8 1_555 1_555
C10 C9 1_555 1_555
H7 C10 1_555 1_555
C11 N1 1_555 1_555
C12 C2 1_555 1_555
N3 C12 1_555 1_555
C13 N3 1_555 1_555
H8 C13 1_555 1_555
C14 C13 1_555 1_555
H9 C14 1_555 1_555
C15 C2 1_555 1_555
H10 C15 1_555 1_555
C16 C9 1_555 1_555
C17 C16 1_555 1_555
H11 C17 1_555 1_555
C18 C17 1_555 1_555
H12 C18 1_555 1_555
C19 C18 1_555 1_555
C20 C19 1_555 1_555
H13 C20 1_555 1_555
C21 C16 1_555 1_555
H14 C21 1_555 1_555
C22 C23 1_555 1_555
C23 H15 1_555 1_555
H16 C23 1_555 1_555
H17 C23 1_555 1_555
C24 C22 1_555 1_555
H18 C24 1_555 1_555
H19 C24 1_555 1_555
H20 C24 1_555 1_555
C25 C22 1_555 1_555
C26 C25 1_555 1_555
H21 C26 1_555 1_555
H22 C26 1_555 1_555
H23 C26 1_555 1_555
C27 C25 1_555 1_555
H24 C27 1_555 1_555
H25 C27 1_555 1_555
H26 C27 1_555 1_555
B1 O1 1_555 1_555
O3 C49 1_555 1_555
O4 C52 1_555 1_555
C28 H27 1_555 1_555
N4 C34 1_555 1_555
C29 H28 1_555 1_555
C30 C28 1_555 1_555
H29 C30 1_555 1_555
C31 C30 1_555 1_555
H30 C31 1_555 1_555
C32 C31 1_555 1_555
H31 C32 1_555 1_555
N5 C32 1_555 1_555
C33 C28 1_555 1_555
C34 C33 1_555 1_555
C35 C34 1_555 1_555
H32 C35 1_555 1_555
C36 C35 1_555 1_555
C37 C36 1_555 1_555
H33 C37 1_555 1_555
C38 N4 1_555 1_555
C39 C29 1_555 1_555
N6 C39 1_555 1_555
C40 N6 1_555 1_555
H34 C40 1_555 1_555
C41 C40 1_555 1_555
H35 C41 1_555 1_555
C42 C29 1_555 1_555
H36 C42 1_555 1_555
C43 C36 1_555 1_555
C44 C43 1_555 1_555
H37 C44 1_555 1_555
C45 C44 1_555 1_555
H38 C45 1_555 1_555
C46 C45 1_555 1_555
C47 C46 1_555 1_555
H39 C47 1_555 1_555
C48 C43 1_555 1_555
H40 C48 1_555 1_555
C49 C50 1_555 1_555
C50 H41 1_555 1_555
H42 C50 1_555 1_555
H43 C50 1_555 1_555
C51 C49 1_555 1_555
H44 C51 1_555 1_555
H45 C51 1_555 1_555
H46 C51 1_555 1_555
C52 C49 1_555 1_555
C53 C52 1_555 1_555
H47 C53 1_555 1_555
H48 C53 1_555 1_555
H49 C53 1_555 1_555
C54 C52 1_555 1_555
H50 C54 1_555 1_555
H51 C54 1_555 1_555
H52 C54 1_555 1_555
B2 O3 1_555 1_555
O2 B1 1_555 1_555
N2 C6 1_555 1_555
C10 C11 1_555 1_555
C11 C12 1_555 1_555
C14 C15 1_555 1_555
C19 B1 1_555 1_555
C20 C21 1_555 1_555
O4 B2 1_555 1_555
N5 C33 1_555 1_555
C37 C38 1_555 1_555
C38 C39 1_555 1_555
C41 C42 1_555 1_555
C46 B2 1_555 1_555
C47 C48 1_555 1_555

#END
