
#######################################################################
#
#                 Cambridge Crystallographic Data Centre
#                                CCDC 
#
#######################################################################
#
# If this CIF has been generated from an entry in the Cambridge 
# Structural Database, then it will include bibliographic, chemical, 
# crystal, experimental, refinement or atomic coordinate data resulting 
# from the CCDC's data processing and validation procedures.
#
#######################################################################

data_NESCEW
_chemical_formula_moiety         'C17 H23 F3 N1 O4 P1,0.5(H2 O1)'
_chemical_name_systematic        
'diethyl {1-(acetylamino)-2-methyl-2-[4-(trifluoromethyl)phenyl]cyclopropyl}phosphonate hemihydrate'
_symmetry_cell_setting           monoclinic
_symmetry_space_group_name_H-M   'P 21/n'
_symmetry_Int_Tables_number      14
_space_group_name_Hall           '-P 2yn'
loop_
_symmetry_equiv_pos_site_id
_symmetry_equiv_pos_as_xyz
1 x,y,z
2 1/2-x,1/2+y,1/2-z
3 -x,-y,-z
4 1/2+x,1/2-y,1/2+z
_cell_length_a                   18.3954(6)
_cell_length_b                   10.8878(4)
_cell_length_c                   19.5641(7)
_cell_angle_alpha                90
_cell_angle_beta                 94.550(3)
_cell_angle_gamma                90
_cell_volume                     3906.06
_exptl_crystal_colour            colorless
_exptl_crystal_description       block
_cell_formula_units_Z            8
loop_
_atom_site_label
_atom_site_type_symbol
_atom_site_fract_x
_atom_site_fract_y
_atom_site_fract_z
P1 P 0.30512(3) 0.38633(5) 0.76427(3)
O1 O 0.37828(8) 0.40055(15) 0.72769(8)
O2 O 0.30831(9) 0.50079(15) 0.81290(8)
O3 O 0.29678(8) 0.26627(14) 0.79755(8)
O4 O 0.28977(10) 0.42452(15) 0.56896(9)
F1 F 0.02652(10) 0.16453(17) 0.98302(8)
F2 F 0.08462(11) 0.3154(2) 1.02899(8)
N1 N 0.24553(10) 0.52647(17) 0.65821(9)
H1 H 0.237410 0.598089 0.674518
F3 F -0.02156(11) 0.3408(2) 0.97799(11)
C1 C 0.23275(11) 0.4215(2) 0.70043(11)
C2 C 0.26933(12) 0.5201(2) 0.59491(11)
C3 C 0.13638(12) 0.4472(2) 0.83741(12)
H2 H 0.158528 0.522715 0.831189
C4 C 0.15287(12) 0.3985(2) 0.71445(12)
C5 C 0.13195(11) 0.3617(2) 0.78406(11)
C6 C 0.09971(12) 0.2481(2) 0.79445(12)
H3 H 0.097459 0.189591 0.759709
C7 C 0.19030(12) 0.3125(2) 0.66910(12)
H4 H 0.175993 0.315016 0.620320
H5 H 0.202880 0.231435 0.686951
C8 C 0.07460(12) 0.3085(2) 0.90835(12)
C9 C 0.10830(12) 0.4213(2) 0.89952(12)
H6 H 0.111934 0.478599 0.934878
C10 C 0.07085(12) 0.2215(2) 0.85638(12)
H7 H 0.049137 0.145713 0.862909
C11 C 0.26613(13) 0.6396(2) 0.55601(12)
H8 H 0.307339 0.645307 0.528978
H9 H 0.267063 0.706858 0.587800
H10 H 0.221959 0.642823 0.526439
C12 C 0.09694(12) 0.4859(2) 0.67964(12)
H11 H 0.097943 0.562398 0.704135
H12 H 0.049209 0.450251 0.679546
H13 H 0.108390 0.500304 0.633285
C13 C 0.32107(13) 0.4914(2) 0.88736(12)
H14 H 0.317985 0.406031 0.901020
H15 H 0.283680 0.536829 0.908871
C14 C 0.40297(13) 0.2971(2) 0.68821(13)
H16 H 0.362363 0.262395 0.659933
H17 H 0.423299 0.233563 0.718824
C15 C 0.04127(13) 0.2830(3) 0.97433(13)
C16 C 0.39433(14) 0.5412(3) 0.91112(15)
H18 H 0.399352 0.622670 0.893340
H19 H 0.431531 0.489281 0.894990
H20 H 0.399240 0.543666 0.960322
C17 C 0.46023(15) 0.3438(3) 0.64377(15)
H21 H 0.438326 0.400020 0.610367
H22 H 0.481076 0.276014 0.620808
H23 H 0.497767 0.385322 0.671808
P2 P 0.21690(3) 0.08713(5) 0.22758(3)
O5 O 0.22446(9) 0.20302(15) 0.18997(8)
O6 O 0.14243(9) 0.07401(15) 0.26190(8)
O7 O 0.21859(9) -0.03376(14) 0.18381(8)
O8 O 0.22199(10) 0.08679(16) 0.41887(9)
F4 F 0.53899(9) 0.17606(18) 0.01837(9)
F5 F 0.46470(11) 0.32317(17) 0.00230(9)
N2 N 0.27123(10) -0.03680(17) 0.34105(9)
H24 H 0.281868 -0.110996 0.330532
F6 F 0.43490(14) 0.1439(3) -0.03461(9)
C18 C 0.23984(12) -0.0160(2) 0.40039(12)
C19 C 0.38791(12) 0.1168(2) 0.21141(12)
C20 C 0.28740(12) 0.0608(2) 0.29504(11)
C21 C 0.36768(12) 0.0817(2) 0.28163(12)
C22 C 0.43717(12) 0.1747(2) 0.08418(13)
C23 C 0.38569(12) 0.0302(2) 0.15871(12)
H25 H 0.367859 -0.048143 0.166374
C24 C 0.32956(13) 0.1715(2) 0.32388(12)
H26 H 0.317424 0.251019 0.303749
H27 H 0.343050 0.172992 0.372819
C25 C 0.41488(12) 0.2336(2) 0.19893(13)
H28 H 0.416279 0.292722 0.233342
C26 C 0.43966(13) 0.2628(2) 0.13575(13)
H29 H 0.457836 0.340810 0.127947
C27 C 0.40952(12) 0.0586(2) 0.09526(12)
H30 H 0.406987 0.000400 0.060383
C28 C 0.23053(13) -0.1281(2) 0.44383(12)
H31 H 0.266126 -0.126979 0.482458
H32 H 0.237054 -0.200566 0.417035
H33 H 0.182474 -0.128268 0.459706
C29 C 0.20397(13) -0.0347(2) 0.10925(11)
H34 H 0.225449 -0.107630 0.090751
H35 H 0.226760 0.036432 0.090068
C30 C 0.42379(13) -0.0023(2) 0.31859(13)
H36 H 0.426153 -0.078127 0.293785
H37 H 0.409984 -0.018797 0.364000
H38 H 0.470697 0.036787 0.321353
C31 C 0.46684(14) 0.2042(3) 0.01720(14)
C32 C 0.11501(14) 0.1808(2) 0.29664(14)
H39 H 0.097491 0.242031 0.263273
H40 H 0.153679 0.217123 0.326659
C33 C 0.12386(14) -0.0329(3) 0.08831(13)
H41 H 0.116275 -0.041352 0.039426
H42 H 0.103427 0.043535 0.102061
H43 H 0.100548 -0.099614 0.110032
C34 C 0.05366(15) 0.1392(3) 0.33780(16)
H44 H 0.017778 0.096575 0.308378
H45 H 0.031627 0.209315 0.357534
H46 H 0.072492 0.085059 0.373695
O9 O 0.30484(13) 0.17223(18) 0.53933(12)
H47 H 0.301031 0.248747 0.546892
H48 H 0.278270 0.153168 0.503357
loop_
_geom_bond_atom_site_label_1
_geom_bond_atom_site_label_2
_geom_bond_site_symmetry_1
_geom_bond_site_symmetry_2
P1 O1 1_555 1_555
O1 C14 1_555 1_555
O2 P1 1_555 1_555
O3 P1 1_555 1_555
O4 C2 1_555 1_555
F1 C15 1_555 1_555
F2 C15 1_555 1_555
N1 H1 1_555 1_555
F3 C15 1_555 1_555
C1 P1 1_555 1_555
C2 N1 1_555 1_555
C3 H2 1_555 1_555
C4 C1 1_555 1_555
C5 C3 1_555 1_555
C6 C5 1_555 1_555
H3 C6 1_555 1_555
C7 C1 1_555 1_555
H4 C7 1_555 1_555
H5 C7 1_555 1_555
C8 C9 1_555 1_555
C9 C3 1_555 1_555
H6 C9 1_555 1_555
C10 C6 1_555 1_555
H7 C10 1_555 1_555
C11 C2 1_555 1_555
H8 C11 1_555 1_555
H9 C11 1_555 1_555
H10 C11 1_555 1_555
C12 C4 1_555 1_555
H11 C12 1_555 1_555
H12 C12 1_555 1_555
H13 C12 1_555 1_555
C13 O2 1_555 1_555
H14 C13 1_555 1_555
H15 C13 1_555 1_555
C14 H16 1_555 1_555
H17 C14 1_555 1_555
C15 C8 1_555 1_555
C16 C13 1_555 1_555
H18 C16 1_555 1_555
H19 C16 1_555 1_555
H20 C16 1_555 1_555
C17 C14 1_555 1_555
H21 C17 1_555 1_555
H22 C17 1_555 1_555
H23 C17 1_555 1_555
P2 O5 1_555 1_555
O6 P2 1_555 1_555
O7 P2 1_555 1_555
O8 C18 1_555 1_555
F4 C31 1_555 1_555
F5 C31 1_555 1_555
N2 H24 1_555 1_555
F6 C31 1_555 1_555
C18 N2 1_555 1_555
C19 C21 1_555 1_555
C20 P2 1_555 1_555
C21 C20 1_555 1_555
C22 C26 1_555 1_555
C23 C19 1_555 1_555
H25 C23 1_555 1_555
C24 C20 1_555 1_555
H26 C24 1_555 1_555
H27 C24 1_555 1_555
C25 C19 1_555 1_555
H28 C25 1_555 1_555
C26 C25 1_555 1_555
H29 C26 1_555 1_555
C27 C22 1_555 1_555
H30 C27 1_555 1_555
C28 C18 1_555 1_555
H31 C28 1_555 1_555
H32 C28 1_555 1_555
H33 C28 1_555 1_555
C29 O7 1_555 1_555
H34 C29 1_555 1_555
H35 C29 1_555 1_555
C30 C21 1_555 1_555
H36 C30 1_555 1_555
H37 C30 1_555 1_555
H38 C30 1_555 1_555
C31 C22 1_555 1_555
C32 O6 1_555 1_555
H39 C32 1_555 1_555
H40 C32 1_555 1_555
C33 C29 1_555 1_555
H41 C33 1_555 1_555
H42 C33 1_555 1_555
H43 C33 1_555 1_555
C34 C32 1_555 1_555
H44 C34 1_555 1_555
H45 C34 1_555 1_555
H46 C34 1_555 1_555
O9 H47 1_555 1_555
H48 O9 1_555 1_555
N1 C1 1_555 1_555
C4 C5 1_555 1_555
C4 C7 1_555 1_555
C8 C10 1_555 1_555
N2 C20 1_555 1_555
C21 C24 1_555 1_555
C23 C27 1_555 1_555

#END
