
#######################################################################
#
#                 Cambridge Crystallographic Data Centre
#                                CCDC 
#
#######################################################################
#
# If this CIF has been generated from an entry in the Cambridge 
# Structural Database, then it will include bibliographic, chemical, 
# crystal, experimental, refinement or atomic coordinate data resulting 
# from the CCDC's data processing and validation procedures.
#
#######################################################################

data_NESCOG
_chemical_formula_moiety         'C21 H15 Cl1 N2 O6'
_chemical_name_systematic        
'4-methyl 2-phenyl 4-(5-chloro-1,3-dioxo-1,3-dihydro-2H-isoindol-2-yl)-3,4-dihydro-2H-pyrrole-2,4-dicarboxylate'
_symmetry_cell_setting           orthorhombic
_symmetry_space_group_name_H-M   'P 21 21 21'
_symmetry_Int_Tables_number      19
_space_group_name_Hall           'P 2ac 2ab'
loop_
_symmetry_equiv_pos_site_id
_symmetry_equiv_pos_as_xyz
1 x,y,z
2 1/2-x,-y,1/2+z
3 1/2+x,1/2-y,-z
4 -x,1/2+y,1/2-z
_cell_length_a                   7.2342(2)
_cell_length_b                   7.6993(2)
_cell_length_c                   34.2572(7)
_cell_angle_alpha                90
_cell_angle_beta                 90
_cell_angle_gamma                90
_cell_volume                     1908.07
_exptl_crystal_colour            colorless
_exptl_crystal_description       Block
_cell_formula_units_Z            4
loop_
_atom_site_label
_atom_site_type_symbol
_atom_site_fract_x
_atom_site_fract_y
_atom_site_fract_z
Cl1 Cl 0.35290(14) 0.72651(17) 0.18761(3)
O1 O 0.9808(3) 0.6733(3) 0.42015(5)
O2 O 0.6437(3) 0.7154(3) 0.34394(6)
O3 O 1.0020(4) 1.0906(3) 0.46626(6)
O4 O 1.0078(4) 0.5120(3) 0.36614(6)
O5 O 1.2684(3) 0.9452(3) 0.46043(6)
N1 N 0.9286(3) 0.8092(3) 0.32225(6)
O6 O 1.1607(3) 0.9158(4) 0.28224(6)
N2 N 1.2766(4) 0.9830(4) 0.38175(7)
C1 C 1.0118(4) 0.8258(4) 0.36114(7)
C2 C 0.8604(4) 0.8336(4) 0.25687(8)
C3 C 1.0082(5) 1.0725(4) 0.50745(8)
C4 C 0.7043(4) 0.7706(4) 0.27503(7)
C5 C 0.9946(4) 0.6500(4) 0.38196(7)
C6 C 0.7439(4) 0.7581(4) 0.31761(8)
C7 C 0.5501(5) 0.7654(5) 0.21494(9)
C8 C 1.0074(5) 0.8608(4) 0.28665(8)
C9 C 1.0315(5) 1.2203(5) 0.52905(9)
H1 H 1.0466 1.3275 0.5169
C10 C 0.7046(5) 0.8295(5) 0.19617(8)
H2 H 0.7016 0.8500 0.1694
C11 C 1.2202(4) 0.8631(4) 0.35959(8)
H3 H 1.2998 0.8014 0.3434
C12 C 1.1435(5) 1.0200(4) 0.44601(8)
C13 C 0.9886(6) 0.9017(5) 0.56484(9)
H4 H 0.9746 0.7944 0.5769
C14 C 0.5444(4) 0.7344(5) 0.25482(8)
H5 H 0.4392 0.6917 0.2671
C15 C 0.8644(5) 0.8631(5) 0.21724(8)
H6 H 0.9705 0.9042 0.2050
C16 C 1.0125(5) 1.0477(5) 0.58698(9)
H7 H 1.0157 1.0391 0.6141
C17 C 0.9437(5) 0.9835(4) 0.38423(8)
H8 H 0.8559 0.9491 0.4042
H9 H 0.8857 1.0678 0.3671
C18 C 0.9851(5) 0.9129(5) 0.52447(9)
H10 H 0.9676 0.8142 0.5093
C19 C 1.1208(5) 1.0582(4) 0.40266(8)
H11 H 1.1219 1.1844 0.3988
C20 C 0.9850(6) 0.5190(4) 0.44430(9)
H12 H 0.9119 0.4295 0.4323
H13 H 0.9355 0.5455 0.4696
H14 H 1.1102 0.4795 0.4470
C21 C 1.0320(6) 1.2067(5) 0.56946(9)
H15 H 1.0456 1.3058 0.5847
loop_
_geom_bond_atom_site_label_1
_geom_bond_atom_site_label_2
_geom_bond_site_symmetry_1
_geom_bond_site_symmetry_2
Cl1 C7 1_555 1_555
O1 C5 1_555 1_555
O2 C6 1_555 1_555
O3 C3 1_555 1_555
O4 C5 1_555 1_555
O5 C12 1_555 1_555
N1 C1 1_555 1_555
O6 C8 1_555 1_555
N2 C11 1_555 1_555
C1 C5 1_555 1_555
C2 C4 1_555 1_555
C3 C9 1_555 1_555
C4 C6 1_555 1_555
C6 N1 1_555 1_555
C7 C10 1_555 1_555
C8 N1 1_555 1_555
C9 H1 1_555 1_555
C10 H2 1_555 1_555
C11 C1 1_555 1_555
H3 C11 1_555 1_555
C12 O3 1_555 1_555
C13 H4 1_555 1_555
C14 C4 1_555 1_555
H5 C14 1_555 1_555
C15 C2 1_555 1_555
H6 C15 1_555 1_555
C16 C13 1_555 1_555
H7 C16 1_555 1_555
C17 C1 1_555 1_555
H8 C17 1_555 1_555
H9 C17 1_555 1_555
C18 C3 1_555 1_555
H10 C18 1_555 1_555
C19 N2 1_555 1_555
H11 C19 1_555 1_555
C20 O1 1_555 1_555
H12 C20 1_555 1_555
H13 C20 1_555 1_555
H14 C20 1_555 1_555
C21 C9 1_555 1_555
H15 C21 1_555 1_555
C2 C8 1_555 1_555
C7 C14 1_555 1_555
C10 C15 1_555 1_555
C12 C19 1_555 1_555
C13 C18 1_555 1_555
C16 C21 1_555 1_555
C17 C19 1_555 1_555

#END
