
#######################################################################
#
#                 Cambridge Crystallographic Data Centre
#                                CCDC 
#
#######################################################################
#
# If this CIF has been generated from an entry in the Cambridge 
# Structural Database, then it will include bibliographic, chemical, 
# crystal, experimental, refinement or atomic coordinate data resulting 
# from the CCDC's data processing and validation procedures.
#
#######################################################################

data_NESCIZ
_chemical_formula_moiety         'C14 H16 N4 S1'
_chemical_name_systematic        
N-(2,6-Dimethylphenyl)-2-(pyridin-2-yl)hydrazinecarbothioamide
_symmetry_cell_setting           orthorhombic
_symmetry_space_group_name_H-M   'P b c a'
_symmetry_Int_Tables_number      61
_space_group_name_Hall           '-P 2ac 2ab'
loop_
_symmetry_equiv_pos_site_id
_symmetry_equiv_pos_as_xyz
1 x,y,z
2 1/2-x,-y,1/2+z
3 -x,1/2+y,1/2-z
4 1/2+x,1/2-y,-z
5 -x,-y,-z
6 1/2+x,y,1/2-z
7 x,1/2-y,1/2+z
8 1/2-x,1/2+y,z
_cell_length_a                   8.7107(8)
_cell_length_b                   16.0126(15)
_cell_length_c                   20.772(2)
_cell_angle_alpha                90
_cell_angle_beta                 90
_cell_angle_gamma                90
_cell_volume                     2897.3
_exptl_crystal_colour            yellow
_exptl_crystal_description       block
_cell_formula_units_Z            8
loop_
_atom_site_label
_atom_site_type_symbol
_atom_site_fract_x
_atom_site_fract_y
_atom_site_fract_z
S1 S 0.38155(5) 0.01996(3) 0.33885(2)
N1 N -0.21526(15) 0.19917(9) 0.28389(6)
N2 N -0.04132(15) 0.09454(8) 0.30574(6)
H1 H -0.0848 0.0722 0.2706
N3 N 0.11777(15) 0.08184(9) 0.30208(6)
H2 H 0.1708 0.1131 0.2742
N4 N 0.10591(14) 0.00204(9) 0.39304(6)
H3 H 0.0140 0.0127 0.3925
C1 C -0.2601(2) 0.27912(12) 0.28882(8)
H4 H -0.3527 0.2953 0.2681
C2 C -0.1795(2) 0.33888(12) 0.32211(9)
H5 H -0.2143 0.3951 0.3234
C3 C -0.0466(2) 0.31546(12) 0.35376(9)
H6 H 0.0102 0.3551 0.3781
C4 C 0.00201(19) 0.23418(11) 0.34950(8)
H7 H 0.0926 0.2163 0.3709
C5 C -0.08432(18) 0.17845(10) 0.31308(7)
C6 C 0.19091(19) 0.03497(10) 0.34585(7)
C7 C 0.16760(17) -0.04657(10) 0.44464(7)
C8 C 0.16126(19) -0.13326(11) 0.44089(9)
C9 C 0.2212(2) -0.17841(13) 0.49280(11)
H8 H 0.2180 -0.2377 0.4922
C10 C 0.2853(2) -0.13758(16) 0.54505(10)
H9 H 0.3263 -0.1691 0.5798
C11 C 0.2899(2) -0.05267(15) 0.54711(9)
H10 H 0.3341 -0.0257 0.5834
C12 C 0.23126(19) -0.00510(12) 0.49730(8)
C13 C 0.0939(3) -0.17598(13) 0.38355(11)
H11 H -0.0153 -0.1619 0.3802
H12 H 0.1053 -0.2366 0.3883
H13 H 0.1474 -0.1575 0.3446
C14 C 0.2402(2) 0.08871(12) 0.49872(9)
H14 H 0.2743 0.1071 0.5414
H15 H 0.1386 0.1122 0.4896
H16 H 0.3134 0.1079 0.4661
loop_
_geom_bond_atom_site_label_1
_geom_bond_atom_site_label_2
_geom_bond_site_symmetry_1
_geom_bond_site_symmetry_2
S1 C6 1_555 1_555
N1 C1 1_555 1_555
N2 H1 1_555 1_555
N3 N2 1_555 1_555
H2 N3 1_555 1_555
N4 H3 1_555 1_555
C1 H4 1_555 1_555
C2 C1 1_555 1_555
H5 C2 1_555 1_555
C3 C2 1_555 1_555
H6 C3 1_555 1_555
C4 C3 1_555 1_555
H7 C4 1_555 1_555
C5 N1 1_555 1_555
C6 N3 1_555 1_555
C7 N4 1_555 1_555
C8 C7 1_555 1_555
C9 C8 1_555 1_555
H8 C9 1_555 1_555
C10 C9 1_555 1_555
H9 C10 1_555 1_555
C11 C10 1_555 1_555
H10 C11 1_555 1_555
C12 C7 1_555 1_555
C13 C8 1_555 1_555
H11 C13 1_555 1_555
H12 C13 1_555 1_555
H13 C13 1_555 1_555
C14 C12 1_555 1_555
H14 C14 1_555 1_555
H15 C14 1_555 1_555
H16 C14 1_555 1_555
N2 C5 1_555 1_555
N4 C6 1_555 1_555
C4 C5 1_555 1_555
C11 C12 1_555 1_555

#END
