
#######################################################################
#
#                 Cambridge Crystallographic Data Centre
#                                CCDC 
#
#######################################################################
#
# If this CIF has been generated from an entry in the Cambridge 
# Structural Database, then it will include bibliographic, chemical, 
# crystal, experimental, refinement or atomic coordinate data resulting 
# from the CCDC's data processing and validation procedures.
#
#######################################################################

data_NESDUN
_chemical_formula_moiety         'C16 H14 B1 N1 O1'
_chemical_name_systematic        
([1,2]azaborinino[1,2-a][1,2]azaborinin-1-yl)(4-methylphenyl)methanone
_symmetry_cell_setting           monoclinic
_symmetry_space_group_name_H-M   'P 21/n'
_symmetry_Int_Tables_number      14
_space_group_name_Hall           '-P 2yn'
loop_
_symmetry_equiv_pos_site_id
_symmetry_equiv_pos_as_xyz
1 x,y,z
2 1/2-x,1/2+y,1/2-z
3 -x,-y,-z
4 1/2+x,1/2-y,1/2+z
_cell_length_a                   7.764(3)
_cell_length_b                   21.061(8)
_cell_length_c                   8.476(3)
_cell_angle_alpha                90
_cell_angle_beta                 111.392(11)
_cell_angle_gamma                90
_cell_volume                     1290.49
_exptl_crystal_colour            colorless
_exptl_crystal_description       block
_cell_formula_units_Z            4
loop_
_atom_site_label
_atom_site_type_symbol
_atom_site_fract_x
_atom_site_fract_y
_atom_site_fract_z
B1 B 0.71444(16) 0.55492(6) 0.41955(15)
N1 N 0.75667(12) 0.49653(4) 0.51929(11)
O1 O 0.30502(11) 0.61378(4) 0.08458(11)
C1 C 0.82921(15) 0.61253(5) 0.50421(14)
H1 H 0.8111 0.6513 0.4478
C2 C 0.95865(16) 0.60687(6) 0.66317(15)
H2 H 1.0309 0.6418 0.7140
C3 C 0.98526(16) 0.54827(6) 0.75298(14)
H3 H 1.0724 0.5460 0.8626
C4 C 0.88704(15) 0.49616(6) 0.68252(14)
H4 H 0.9073 0.4588 0.7453
C5 C 0.66566(16) 0.44052(5) 0.45684(15)
H5 H 0.6992 0.4040 0.5227
C6 C 0.52919(16) 0.43713(5) 0.30289(14)
H6 H 0.4731 0.3983 0.2635
C7 C 0.47023(15) 0.49199(5) 0.20058(13)
H7 H 0.3709 0.4888 0.0981
C8 C 0.55545(14) 0.54952(5) 0.24841(13)
C9 C 0.47245(14) 0.60441(5) 0.13590(13)
C10 C 0.59388(14) 0.64769(5) 0.08422(12)
C11 C 0.77145(14) 0.62915(5) 0.09898(13)
H8 H 0.8170 0.5900 0.1470
C12 C 0.88094(15) 0.66826(5) 0.04313(14)
H9 H 0.9985 0.6549 0.0525
C13 C 0.81640(17) 0.72728(5) -0.02687(15)
C14 C 0.63836(18) 0.74561(6) -0.04276(17)
H10 H 0.5932 0.7848 -0.0902
C15 C 0.52781(16) 0.70631(6) 0.01105(15)
H11 H 0.4088 0.7191 -0.0017
C16 C 0.9379(2) 0.77055(6) -0.0823(2)
H12 H 1.0056 0.7982 0.0095
H13 H 0.8626 0.7955 -0.1772
H14 H 1.0232 0.7456 -0.1147
loop_
_geom_bond_atom_site_label_1
_geom_bond_atom_site_label_2
_geom_bond_site_symmetry_1
_geom_bond_site_symmetry_2
B1 N1 1_555 1_555
N1 C4 1_555 1_555
O1 C9 1_555 1_555
C1 B1 1_555 1_555
H1 C1 1_555 1_555
C2 C1 1_555 1_555
H2 C2 1_555 1_555
C3 C2 1_555 1_555
H3 C3 1_555 1_555
C4 C3 1_555 1_555
H4 C4 1_555 1_555
C5 N1 1_555 1_555
H5 C5 1_555 1_555
C6 C5 1_555 1_555
H6 C6 1_555 1_555
C7 C6 1_555 1_555
H7 C7 1_555 1_555
C8 B1 1_555 1_555
C9 C8 1_555 1_555
C10 C9 1_555 1_555
C11 C10 1_555 1_555
H8 C11 1_555 1_555
C12 C11 1_555 1_555
H9 C12 1_555 1_555
C13 C12 1_555 1_555
C14 C13 1_555 1_555
H10 C14 1_555 1_555
C15 C10 1_555 1_555
H11 C15 1_555 1_555
C16 C13 1_555 1_555
H12 C16 1_555 1_555
H13 C16 1_555 1_555
H14 C16 1_555 1_555
C7 C8 1_555 1_555
C14 C15 1_555 1_555

#END
