
#######################################################################
#
#                 Cambridge Crystallographic Data Centre
#                                CCDC 
#
#######################################################################
#
# If this CIF has been generated from an entry in the Cambridge 
# Structural Database, then it will include bibliographic, chemical, 
# crystal, experimental, refinement or atomic coordinate data resulting 
# from the CCDC's data processing and validation procedures.
#
#######################################################################

data_NESDAT
_chemical_formula_moiety         'C22 H20 N4 O2 S1'
_chemical_name_systematic        
N-(3-azido-1,1-diphenylbut-1-en-2-yl)benzenesulfonamide
_symmetry_cell_setting           monoclinic
_symmetry_space_group_name_H-M   'P 21'
_symmetry_Int_Tables_number      4
_space_group_name_Hall           'P 2yb'
loop_
_symmetry_equiv_pos_site_id
_symmetry_equiv_pos_as_xyz
1 x,y,z
2 -x,1/2+y,-z
_cell_length_a                   5.774
_cell_length_b                   14.657
_cell_length_c                   12.222
_cell_angle_alpha                90
_cell_angle_beta                 101.02
_cell_angle_gamma                90
_cell_volume                     1015.27
_exptl_crystal_colour            colorless
_exptl_crystal_description       block
_cell_formula_units_Z            2
loop_
_atom_site_label
_atom_site_type_symbol
_atom_site_fract_x
_atom_site_fract_y
_atom_site_fract_z
S1 S 0.17346(17) 0.00089(6) 0.63786(7)
O1 O 0.4020(5) -0.0381(2) 0.6445(3)
C1 C 0.1432(6) -0.1836(2) 0.8282(3)
N1 N -0.0224(5) -0.08129(18) 0.6223(2)
C2 C 0.1362(6) -0.2211(2) 0.7135(3)
C3 C -0.0499(7) -0.1392(3) 0.8571(3)
H1 H -0.1867 -0.1311 0.8038
N2 N -0.2585(5) -0.2058(2) 0.4647(3)
N3 N -0.3337(6) -0.2321(3) 0.3701(3)
C4 C 0.2429(6) -0.3134(2) 0.7084(3)
O2 O 0.0875(6) 0.0661(2) 0.5527(3)
C5 C 0.0026(6) -0.2145(3) 0.5045(3)
H2 H 0.0452 -0.2793 0.5086
C6 C 0.0444(6) -0.1755(2) 0.6200(3)
C7 C -0.0412(8) 0.1015(3) 0.7762(4)
H3 H -0.1691 0.1036 0.7171
C8 C 0.3434(7) -0.1953(2) 0.9103(3)
H4 H 0.4726 -0.2263 0.8933
C9 C 0.1605(6) 0.0529(2) 0.7668(3)
C10 C 0.3538(8) -0.1620(3) 1.0163(3)
H5 H 0.4897 -0.1699 1.0701
C11 C 0.3516(7) 0.0487(3) 0.8526(3)
H6 H 0.4860 0.0161 0.8452
C12 C -0.0398(8) -0.1071(3) 0.9635(3)
H7 H -0.1706 -0.0786 0.9823
C13 C 0.4268(7) -0.3263(3) 0.6523(4)
H8 H 0.4867 -0.2771 0.6184
C14 C -0.0492(10) 0.1463(3) 0.8734(5)
H9 H -0.1837 0.1788 0.8806
C15 C 0.1339(7) -0.1671(3) 0.4246(3)
H10 H 0.0986 -0.1966 0.3532
H11 H 0.3005 -0.1702 0.4532
H12 H 0.0856 -0.1044 0.4166
C16 C 0.1619(8) -0.3882(2) 0.7603(3)
H13 H 0.0405 -0.3808 0.7998
C17 C 0.1628(8) -0.1170(3) 1.0423(3)
H14 H 0.1706 -0.0933 1.1135
C18 C 0.1396(12) 0.1436(4) 0.9605(4)
H15 H 0.1335 0.1749 1.0260
C19 C 0.4414(9) -0.4857(3) 0.6970(4)
H16 H 0.5077 -0.5432 0.6932
C20 C 0.2610(9) -0.4739(3) 0.7537(4)
H17 H 0.2043 -0.5235 0.7880
C21 C 0.3387(10) 0.0945(3) 0.9509(4)
H18 H 0.4653 0.0920 1.0106
C22 C 0.5229(8) -0.4137(3) 0.6468(4)
H19 H 0.6447 -0.4222 0.6078
N4 N -0.4246(8) -0.2528(4) 0.2846(4)
loop_
_geom_bond_atom_site_label_1
_geom_bond_atom_site_label_2
_geom_bond_site_symmetry_1
_geom_bond_site_symmetry_2
S1 O1 1_555 1_555
C1 C2 1_555 1_555
N1 S1 1_555 1_555
C2 C4 1_555 1_555
C3 C1 1_555 1_555
H1 C3 1_555 1_555
N2 N3 1_555 1_555
N3 N4 1_555 1_555
C4 C13 1_555 1_555
O2 S1 1_555 1_555
C5 N2 1_555 1_555
H2 C5 1_555 1_555
C6 N1 1_555 1_555
C7 H3 1_555 1_555
C8 C1 1_555 1_555
H4 C8 1_555 1_555
C9 S1 1_555 1_555
C10 C8 1_555 1_555
H5 C10 1_555 1_555
C11 C9 1_555 1_555
H6 C11 1_555 1_555
C12 C3 1_555 1_555
H7 C12 1_555 1_555
C13 H8 1_555 1_555
C14 C7 1_555 1_555
H9 C14 1_555 1_555
C15 C5 1_555 1_555
H10 C15 1_555 1_555
H11 C15 1_555 1_555
H12 C15 1_555 1_555
C16 C4 1_555 1_555
H13 C16 1_555 1_555
C17 C10 1_555 1_555
H14 C17 1_555 1_555
C18 C14 1_555 1_555
H15 C18 1_555 1_555
C19 H16 1_555 1_555
C20 C16 1_555 1_555
H17 C20 1_555 1_555
C21 C11 1_555 1_555
H18 C21 1_555 1_555
C22 C13 1_555 1_555
H19 C22 1_555 1_555
C2 C6 1_555 1_555
C5 C6 1_555 1_555
C7 C9 1_555 1_555
C12 C17 1_555 1_555
C18 C21 1_555 1_555
C19 C20 1_555 1_555
C19 C22 1_555 1_555

#END
