
#######################################################################
#
#                 Cambridge Crystallographic Data Centre
#                                CCDC 
#
#######################################################################
#
# If this CIF has been generated from an entry in the Cambridge 
# Structural Database, then it will include bibliographic, chemical, 
# crystal, experimental, refinement or atomic coordinate data resulting 
# from the CCDC's data processing and validation procedures.
#
#######################################################################

data_NESFEZ
_chemical_formula_moiety         'C17 H23 B1 N2 O1'
_chemical_name_systematic        
N,N,1-trimethyl-2-(2,4,6-trimethylphenyl)-1,2-dihydro-1,2-azaborinine-5-carboxamide
_symmetry_cell_setting           monoclinic
_symmetry_space_group_name_H-M   'P 21/c'
_symmetry_Int_Tables_number      14
_space_group_name_Hall           '-P 2ybc'
loop_
_symmetry_equiv_pos_site_id
_symmetry_equiv_pos_as_xyz
1 x,y,z
2 -x,1/2+y,1/2-z
3 -x,-y,-z
4 x,1/2-y,1/2+z
_cell_length_a                   7.6038(5)
_cell_length_b                   16.0985(10)
_cell_length_c                   13.4899(9)
_cell_angle_alpha                90
_cell_angle_beta                 93.173(2)
_cell_angle_gamma                90
_cell_volume                     1648.76
_exptl_crystal_colour            colorless
_exptl_crystal_description       BLOCK
_cell_formula_units_Z            4
loop_
_atom_site_label
_atom_site_type_symbol
_atom_site_fract_x
_atom_site_fract_y
_atom_site_fract_z
O1 O 0.7463(3) 0.54252(13) 0.49542(17)
C1 C 0.9122(4) 0.2963(2) 0.3452(3)
H1 H 1.0105 0.2671 0.3221
N1 N 0.6074(3) 0.30107(14) 0.40102(17)
B1 B 0.7477(5) 0.2497(2) 0.3682(2)
N2 N 0.8522(4) 0.56622(16) 0.3456(2)
C2 C 0.9203(4) 0.3800(2) 0.3576(3)
H2 H 1.0246 0.4088 0.3425
C3 C 0.6271(4) 0.38440(17) 0.41354(19)
H3 H 0.5323 0.4153 0.4380
C4 C 0.7770(4) 0.42522(17) 0.3925(2)
C5 C 0.7876(4) 0.51576(18) 0.4152(2)
C6 C 0.8530(5) 0.5459(2) 0.2403(3)
H4 H 0.7851 0.5876 0.2017
H5 H 0.7998 0.4910 0.2288
H6 H 0.9746 0.5453 0.2197
C7 C 0.8925(5) 0.6519(2) 0.3714(3)
H7 H 0.9831 0.6729 0.3289
H8 H 0.9358 0.6550 0.4411
H9 H 0.7858 0.6857 0.3615
C8 C 0.7227(4) 0.15210(18) 0.3603(2)
C9 C 0.6619(4) 0.11471(19) 0.2717(2)
C10 C 0.6448(5) 0.0291(2) 0.2660(3)
H10 H 0.6042 0.0046 0.2049
C11 C 0.6849(5) -0.0214(2) 0.3463(3)
C12 C 0.7460(6) 0.0161(2) 0.4337(3)
H11 H 0.7749 -0.0177 0.4899
C13 C 0.7665(5) 0.1010(2) 0.4420(2)
C14 C 0.6118(6) 0.1665(2) 0.1811(3)
H12 H 0.5756 0.1298 0.1256
H13 H 0.7132 0.1998 0.1632
H14 H 0.5140 0.2034 0.1955
C15 C 0.6659(7) -0.1147(2) 0.3374(4)
H15 H 0.5446 -0.1285 0.3150
H16 H 0.6936 -0.1404 0.4023
H17 H 0.7470 -0.1357 0.2893
C16 C 0.8372(8) 0.1384(3) 0.5393(3)
H18 H 0.9063 0.1881 0.5259
H19 H 0.9122 0.0977 0.5754
H20 H 0.7386 0.1535 0.5795
C17 C 0.4351(5) 0.2665(2) 0.4242(3)
H21 H 0.3547 0.3119 0.4388
H22 H 0.4498 0.2299 0.4821
H23 H 0.3862 0.2347 0.3672
loop_
_geom_bond_atom_site_label_1
_geom_bond_atom_site_label_2
_geom_bond_site_symmetry_1
_geom_bond_site_symmetry_2
O1 C5 1_555 1_555
C1 H1 1_555 1_555
N1 B1 1_555 1_555
B1 C1 1_555 1_555
N2 C5 1_555 1_555
C2 C1 1_555 1_555
H2 C2 1_555 1_555
C3 N1 1_555 1_555
H3 C3 1_555 1_555
C4 C2 1_555 1_555
C5 C4 1_555 1_555
C6 N2 1_555 1_555
H4 C6 1_555 1_555
H5 C6 1_555 1_555
H6 C6 1_555 1_555
C7 N2 1_555 1_555
H7 C7 1_555 1_555
H8 C7 1_555 1_555
H9 C7 1_555 1_555
C8 B1 1_555 1_555
C9 C8 1_555 1_555
C10 C9 1_555 1_555
H10 C10 1_555 1_555
C11 C10 1_555 1_555
C12 C11 1_555 1_555
H11 C12 1_555 1_555
C13 C8 1_555 1_555
C14 C9 1_555 1_555
H12 C14 1_555 1_555
H13 C14 1_555 1_555
H14 C14 1_555 1_555
C15 C11 1_555 1_555
H15 C15 1_555 1_555
H16 C15 1_555 1_555
H17 C15 1_555 1_555
C16 C13 1_555 1_555
H18 C16 1_555 1_555
H19 C16 1_555 1_555
H20 C16 1_555 1_555
C17 N1 1_555 1_555
H21 C17 1_555 1_555
H22 C17 1_555 1_555
H23 C17 1_555 1_555
C3 C4 1_555 1_555
C12 C13 1_555 1_555

#END
