
#######################################################################
#
#                 Cambridge Crystallographic Data Centre
#                                CCDC 
#
#######################################################################
#
# If this CIF has been generated from an entry in the Cambridge 
# Structural Database, then it will include bibliographic, chemical, 
# crystal, experimental, refinement or atomic coordinate data resulting 
# from the CCDC's data processing and validation procedures.
#
#######################################################################

data_NESGOI
_chemical_formula_moiety         'C27 H40 O6'
_chemical_name_systematic        'Maleopimaric acid trimethyl ester'
_symmetry_cell_setting           monoclinic
_symmetry_space_group_name_H-M   'P 21'
_symmetry_Int_Tables_number      4
_space_group_name_Hall           'P 2yb'
loop_
_symmetry_equiv_pos_site_id
_symmetry_equiv_pos_as_xyz
1 x,y,z
2 -x,1/2+y,-z
_cell_length_a                   8.9848(15)
_cell_length_b                   23.456(4)
_cell_length_c                   12.364(2)
_cell_angle_alpha                90
_cell_angle_beta                 108.804(3)
_cell_angle_gamma                90
_cell_volume                     2466.61
_exptl_crystal_colour            colorless
_exptl_crystal_description       block
_chemical_melting_point          '375-377 K'
_cell_formula_units_Z            4
_exptl_crystal_recrystallization_method ethanol
loop_
_atom_site_label
_atom_site_type_symbol
_atom_site_fract_x
_atom_site_fract_y
_atom_site_fract_z
O1 O 0.2386(2) 0.15996(8) 0.57030(17)
O2 O 0.4564(2) 0.19978(8) 0.69011(17)
O3 O -0.0806(2) 0.15003(9) 0.65911(19)
O4 O 0.1616(2) 0.15020(9) 0.78748(16)
O5 O 0.5653(2) 0.43451(9) 0.52519(17)
O6 O 0.5084(2) 0.51223(9) 0.4168(2)
C1 C 0.2207(3) 0.25040(11) 0.6600(2)
H1 H 0.2982 0.2713 0.7243
C2 C 0.0728(3) 0.23726(11) 0.6960(2)
H2 H 0.0928 0.2546 0.7733
C3 C -0.0708(3) 0.26870(11) 0.6145(2)
H3 H -0.1678 0.2597 0.6342
C4 C -0.0346(3) 0.33305(11) 0.6281(2)
H4 H -0.0169 0.3446 0.7083
H5 H -0.1254 0.3549 0.5786
C5 C 0.1138(3) 0.34682(11) 0.5946(2)
H6 H 0.1975 0.3573 0.6674
C6 C 0.1714(3) 0.29075(10) 0.5527(2)
C7 C -0.0898(3) 0.25040(11) 0.4937(2)
C8 C 0.0363(3) 0.26224(11) 0.4639(2)
H7 H 0.0410 0.2532 0.3901
C9 C 0.3130(3) 0.30108(11) 0.5120(2)
H8 H 0.4078 0.3068 0.5794
H9 H 0.3306 0.2667 0.4711
C10 C 0.2921(3) 0.35260(11) 0.4332(2)
H10 H 0.2040 0.3457 0.3619
H11 H 0.3889 0.3587 0.4129
C11 C 0.2579(3) 0.40550(11) 0.4937(2)
H12 H 0.3374 0.4042 0.5718
C12 C 0.0963(3) 0.39947(11) 0.5140(2)
C13 C 0.2897(3) 0.46294(11) 0.4422(2)
C14 C 0.2474(3) 0.51355(11) 0.5071(2)
H13 H 0.3266 0.5161 0.5841
H14 H 0.2524 0.5493 0.4659
C15 C 0.0851(3) 0.50816(12) 0.5191(2)
H15 H 0.0045 0.5095 0.4425
H16 H 0.0665 0.5407 0.5641
C16 C 0.0695(3) 0.45243(12) 0.5783(2)
H17 H -0.0370 0.4504 0.5855
H18 H 0.1466 0.4523 0.6563
C17 C 0.3004(3) 0.19803(11) 0.6345(2)
C18 C 0.5476(4) 0.15331(15) 0.6674(3)
H19 H 0.5199 0.1478 0.5847
H20 H 0.5249 0.1183 0.7026
H21 H 0.6598 0.1623 0.6996
C19 C 0.0399(3) 0.17470(12) 0.7074(2)
C20 C 0.1389(5) 0.09133(14) 0.8119(3)
H22 H 0.1365 0.0677 0.7460
H23 H 0.0391 0.0873 0.8275
H24 H 0.2255 0.0790 0.8789
C21 C -0.2381(3) 0.22056(13) 0.4223(2)
H25 H -0.2756 0.1963 0.4749
C22 C -0.2088(4) 0.18136(15) 0.3330(3)
H26 H -0.1242 0.1546 0.3704
H27 H -0.1784 0.2042 0.2771
H28 H -0.3051 0.1601 0.2940
C23 C -0.3668(4) 0.26340(19) 0.3670(4)
H29 H -0.3351 0.2869 0.3126
H30 H -0.3841 0.2879 0.4261
H31 H -0.4642 0.2431 0.3268
C24 C -0.0441(3) 0.39261(12) 0.4031(2)
H32 H -0.0575 0.4277 0.3580
H33 H -0.1399 0.3851 0.4224
H34 H -0.0242 0.3607 0.3586
C25 C 0.4683(3) 0.46645(11) 0.4664(2)
C26 C 0.6763(4) 0.51972(14) 0.4401(3)
H35 H 0.7174 0.4880 0.4066
H36 H 0.7293 0.5205 0.5229
H37 H 0.6955 0.5557 0.4066
C27 C 0.2068(3) 0.46948(13) 0.3125(2)
H38 H 0.2286 0.4359 0.2728
H39 H 0.2459 0.5037 0.2851
H40 H 0.0931 0.4729 0.2972
O7 O 0.8790(2) 0.55025(9) 0.93004(17)
O8 O 1.0045(2) 0.51658(8) 0.81400(18)
O9 O 0.4793(2) 0.55359(9) 0.81206(18)
O10 O 0.6372(2) 0.55072(8) 0.70350(16)
O11 O 1.2849(2) 0.27422(8) 0.96366(17)
O12 O 1.3183(2) 0.19470(8) 1.06778(17)
C28 C 0.8053(3) 0.45849(11) 0.8394(2)
H41 H 0.8310 0.4398 0.7749
C29 C 0.6238(3) 0.46717(12) 0.8026(2)
H42 H 0.5802 0.4467 0.7281
C30 C 0.5562(3) 0.43618(12) 0.8861(2)
H43 H 0.4415 0.4444 0.8675
C31 C 0.5842(3) 0.37198(11) 0.8706(2)
H44 H 0.5291 0.3606 0.7906
H45 H 0.5412 0.3491 0.9210
C32 C 0.7628(3) 0.36035(11) 0.9007(2)
H46 H 0.7804 0.3513 0.8267
C33 C 0.8553(3) 0.41708(11) 0.9446(2)
C34 C 0.6449(3) 0.45180(12) 1.0085(2)
C35 C 0.7984(3) 0.44219(11) 1.0361(2)
H47 H 0.8687 0.4508 1.1100
C36 C 1.0337(3) 0.40819(11) 0.9835(2)
H48 H 1.0676 0.4044 0.9152
H49 H 1.0857 0.4424 1.0261
C37 C 1.0879(3) 0.35578(11) 1.0590(2)
H50 H 1.0660 0.3611 1.1318
H51 H 1.2027 0.3507 1.0767
C38 C 1.0018(3) 0.30295(11) 0.9976(2)
H52 H 1.0102 0.3052 0.9190
C39 C 0.8234(3) 0.30730(11) 0.9795(2)
C40 C 1.0829(3) 0.24561(11) 1.0470(2)
C41 C 0.9838(3) 0.19471(11) 0.9836(2)
H53 H 0.9929 0.1922 0.9060
H54 H 1.0274 0.1591 1.0246
C42 C 0.8109(3) 0.19892(11) 0.9732(2)
H55 H 0.7998 0.1973 1.0502
H56 H 0.7532 0.1662 0.9285
C43 C 0.7400(3) 0.25438(11) 0.9147(2)
H57 H 0.6274 0.2558 0.9084
H58 H 0.7468 0.2549 0.8363
C44 C 0.8966(3) 0.51369(11) 0.8679(2)
C45 C 1.0938(4) 0.56897(14) 0.8317(3)
H59 H 1.1377 0.5768 0.9138
H60 H 1.0248 0.6005 0.7940
H61 H 1.1796 0.5652 0.7993
C46 C 0.5727(3) 0.52839(12) 0.7782(2)
C47 C 0.6014(4) 0.60966(13) 0.6735(3)
H62 H 0.6264 0.6327 0.7433
H63 H 0.4894 0.6135 0.6303
H64 H 0.6642 0.6229 0.6267
C48 C 0.5676(4) 0.46984(15) 1.0961(3)
H65 H 0.6534 0.4850 1.1634
C49 C 0.4480(5) 0.51755(19) 1.0559(3)
H66 H 0.4038 0.5269 1.1166
H67 H 0.3635 0.5052 0.9876
H68 H 0.4996 0.5513 1.0376
C50 C 0.5004(6) 0.4198(2) 1.1378(5)
H69 H 0.5854 0.3939 1.1787
H70 H 0.4270 0.3999 1.0726
H71 H 0.4444 0.4327 1.1895
C51 C 0.7839(3) 0.31216(12) 1.0913(2)
H72 H 0.8411 0.3444 1.1361
H73 H 0.8148 0.2770 1.1356
H74 H 0.6706 0.3182 1.0736
C52 C 1.2383(3) 0.24157(11) 1.0212(2)
C53 C 1.4600(3) 0.18372(14) 1.0395(3)
H75 H 1.5363 0.2142 1.0707
H76 H 1.4345 0.1824 0.9563
H77 H 1.5050 0.1471 1.0724
C54 C 1.1203(3) 0.23944(13) 1.1774(2)
H78 H 1.1871 0.2712 1.2162
H79 H 1.1755 0.2034 1.2028
H80 H 1.0222 0.2398 1.1958
loop_
_geom_bond_atom_site_label_1
_geom_bond_atom_site_label_2
_geom_bond_site_symmetry_1
_geom_bond_site_symmetry_2
O1 C17 1_555 1_555
O2 C17 1_555 1_555
O3 C19 1_555 1_555
O4 C19 1_555 1_555
O5 C25 1_555 1_555
O6 C25 1_555 1_555
O7 C44 1_555 1_555
O8 C44 1_555 1_555
O9 C46 1_555 1_555
O10 C46 1_555 1_555
O11 C52 1_555 1_555
O12 C52 1_555 1_555
C1 H1 1_555 1_555
C2 C1 1_555 1_555
H2 C2 1_555 1_555
C3 C2 1_555 1_555
H3 C3 1_555 1_555
C4 C3 1_555 1_555
H4 C4 1_555 1_555
H5 C4 1_555 1_555
C5 C4 1_555 1_555
H6 C5 1_555 1_555
C6 C1 1_555 1_555
C7 C3 1_555 1_555
C8 C6 1_555 1_555
H7 C8 1_555 1_555
C9 C6 1_555 1_555
H8 C9 1_555 1_555
H9 C9 1_555 1_555
C10 C9 1_555 1_555
H10 C10 1_555 1_555
H11 C10 1_555 1_555
C11 C10 1_555 1_555
H12 C11 1_555 1_555
C12 C5 1_555 1_555
C13 C11 1_555 1_555
C14 C13 1_555 1_555
H13 C14 1_555 1_555
H14 C14 1_555 1_555
C15 C14 1_555 1_555
H15 C15 1_555 1_555
H16 C15 1_555 1_555
C16 C12 1_555 1_555
H17 C16 1_555 1_555
H18 C16 1_555 1_555
C17 C1 1_555 1_555
C18 O2 1_555 1_555
H19 C18 1_555 1_555
H20 C18 1_555 1_555
H21 C18 1_555 1_555
C19 C2 1_555 1_555
C20 O4 1_555 1_555
H22 C20 1_555 1_555
H23 C20 1_555 1_555
H24 C20 1_555 1_555
C21 C7 1_555 1_555
H25 C21 1_555 1_555
C22 C21 1_555 1_555
H26 C22 1_555 1_555
H27 C22 1_555 1_555
H28 C22 1_555 1_555
C23 C21 1_555 1_555
H29 C23 1_555 1_555
H30 C23 1_555 1_555
H31 C23 1_555 1_555
C24 C12 1_555 1_555
H32 C24 1_555 1_555
H33 C24 1_555 1_555
H34 C24 1_555 1_555
C25 C13 1_555 1_555
C26 O6 1_555 1_555
H35 C26 1_555 1_555
H36 C26 1_555 1_555
H37 C26 1_555 1_555
C27 C13 1_555 1_555
H38 C27 1_555 1_555
H39 C27 1_555 1_555
H40 C27 1_555 1_555
C28 H41 1_555 1_555
C29 C28 1_555 1_555
H42 C29 1_555 1_555
C30 C29 1_555 1_555
H43 C30 1_555 1_555
C31 C30 1_555 1_555
H44 C31 1_555 1_555
H45 C31 1_555 1_555
C32 C31 1_555 1_555
H46 C32 1_555 1_555
C33 C28 1_555 1_555
C34 C30 1_555 1_555
C35 C33 1_555 1_555
H47 C35 1_555 1_555
C36 C33 1_555 1_555
H48 C36 1_555 1_555
H49 C36 1_555 1_555
C37 C36 1_555 1_555
H50 C37 1_555 1_555
H51 C37 1_555 1_555
C38 C37 1_555 1_555
H52 C38 1_555 1_555
C39 C32 1_555 1_555
C40 C38 1_555 1_555
C41 C40 1_555 1_555
H53 C41 1_555 1_555
H54 C41 1_555 1_555
C42 C41 1_555 1_555
H55 C42 1_555 1_555
H56 C42 1_555 1_555
C43 C39 1_555 1_555
H57 C43 1_555 1_555
H58 C43 1_555 1_555
C44 C28 1_555 1_555
C45 O8 1_555 1_555
H59 C45 1_555 1_555
H60 C45 1_555 1_555
H61 C45 1_555 1_555
C46 C29 1_555 1_555
C47 O10 1_555 1_555
H62 C47 1_555 1_555
H63 C47 1_555 1_555
H64 C47 1_555 1_555
C48 C34 1_555 1_555
H65 C48 1_555 1_555
C49 C48 1_555 1_555
H66 C49 1_555 1_555
H67 C49 1_555 1_555
H68 C49 1_555 1_555
C50 C48 1_555 1_555
H69 C50 1_555 1_555
H70 C50 1_555 1_555
H71 C50 1_555 1_555
C51 C39 1_555 1_555
H72 C51 1_555 1_555
H73 C51 1_555 1_555
H74 C51 1_555 1_555
C52 C40 1_555 1_555
C53 O12 1_555 1_555
H75 C53 1_555 1_555
H76 C53 1_555 1_555
H77 C53 1_555 1_555
C54 C40 1_555 1_555
H78 C54 1_555 1_555
H79 C54 1_555 1_555
H80 C54 1_555 1_555
C5 C6 1_555 1_555
C7 C8 1_555 1_555
C11 C12 1_555 1_555
C15 C16 1_555 1_555
C32 C33 1_555 1_555
C34 C35 1_555 1_555
C38 C39 1_555 1_555
C42 C43 1_555 1_555

#END
