
#######################################################################
#
#                 Cambridge Crystallographic Data Centre
#                                CCDC 
#
#######################################################################
#
# If this CIF has been generated from an entry in the Cambridge 
# Structural Database, then it will include bibliographic, chemical, 
# crystal, experimental, refinement or atomic coordinate data resulting 
# from the CCDC's data processing and validation procedures.
#
#######################################################################

data_NESMOQ
_chemical_formula_moiety         'C32 H24 P1 1+,B1 F4 1-'
_chemical_name_systematic        
'1,1,2,3-tetraphenyl-1H-phosphindol-1-ium tetrafluoroborate unknown solvate'
_symmetry_cell_setting           monoclinic
_symmetry_space_group_name_H-M   'P 21/c'
_symmetry_Int_Tables_number      14
_space_group_name_Hall           '-P 2ybc'
loop_
_symmetry_equiv_pos_site_id
_symmetry_equiv_pos_as_xyz
1 x,y,z
2 -x,1/2+y,1/2-z
3 -x,-y,-z
4 x,1/2-y,1/2+z
_cell_length_a                   9.3715(12)
_cell_length_b                   13.2950(14)
_cell_length_c                   23.044(3)
_cell_angle_alpha                90
_cell_angle_beta                 101.668(2)
_cell_angle_gamma                90
_cell_volume                     2811.82
_exptl_crystal_colour            colorless
_exptl_crystal_description       Prism
_cell_formula_units_Z            4
loop_
_atom_site_label
_atom_site_type_symbol
_atom_site_fract_x
_atom_site_fract_y
_atom_site_fract_z
P1 P 0.10429(4) 0.73685(3) 0.34958(2)
C1 C -0.03880(15) 0.82704(10) 0.33805(6)
C2 C -0.03622(18) 0.92698(12) 0.32297(8)
H1 H 0.0505 0.9577 0.3163
C3 C -0.16472(19) 0.98156(13) 0.31779(9)
H2 H -0.1658 1.0510 0.3079
C4 C -0.29083(19) 0.93603(12) 0.32682(8)
H3 H -0.3779 0.9744 0.3227
C5 C -0.29222(16) 0.83469(12) 0.34197(7)
H4 H -0.3794 0.8039 0.3482
C6 C -0.16482(15) 0.77934(10) 0.34783(6)
C7 C -0.14498(14) 0.67130(10) 0.36216(6)
C8 C -0.26681(14) 0.61081(10) 0.37591(6)
C9 C -0.32600(15) 0.63753(12) 0.42443(6)
H5 H -0.2917 0.6957 0.4469
C10 C -0.43511(16) 0.57916(13) 0.44003(7)
H6 H -0.4733 0.5960 0.4739
C11 C -0.48782(16) 0.49686(13) 0.40626(8)
H7 H -0.5629 0.4572 0.4169
C12 C -0.43257(17) 0.47150(12) 0.35715(8)
H8 H -0.4711 0.4153 0.3337
C13 C -0.32055(15) 0.52781(11) 0.34177(7)
H9 H -0.2813 0.5097 0.3083
C14 C -0.01026(14) 0.63415(10) 0.36221(6)
C15 C 0.04397(14) 0.53066(10) 0.37515(6)
C16 C 0.12669(14) 0.48387(10) 0.33911(6)
H10 H 0.1478 0.5186 0.3058
C17 C 0.17855(15) 0.38671(11) 0.35157(7)
H11 H 0.2338 0.3551 0.3264
C18 C 0.15035(16) 0.33601(11) 0.40015(7)
H12 H 0.1873 0.2700 0.4089
C19 C 0.06808(17) 0.38167(11) 0.43612(7)
H13 H 0.0482 0.3467 0.4695
C20 C 0.01447(15) 0.47787(11) 0.42382(6)
H14 H -0.0428 0.5083 0.4486
C21 C 0.19400(14) 0.72951(10) 0.28850(6)
C22 C 0.12306(16) 0.76320(12) 0.23305(7)
H15 H 0.0262 0.7880 0.2274
C23 C 0.19419(18) 0.76041(13) 0.18630(7)
H16 H 0.1465 0.7843 0.1485
C24 C 0.33374(16) 0.72334(11) 0.19398(6)
H17 H 0.3819 0.7217 0.1615
C25 C 0.40412(15) 0.68853(11) 0.24878(6)
H18 H 0.5002 0.6624 0.2538
C26 C 0.33520(14) 0.69170(11) 0.29614(6)
H19 H 0.3838 0.6682 0.3339
C27 C 0.23794(15) 0.76401(11) 0.41492(6)
C28 C 0.33695(17) 0.84134(12) 0.41246(7)
H20 H 0.3363 0.8758 0.3763
C29 C 0.4361(2) 0.86745(15) 0.46323(9)
H21 H 0.5045 0.9197 0.4619
C30 C 0.4361(2) 0.81773(16) 0.51597(9)
H22 H 0.5041 0.8363 0.5507
C31 C 0.3383(2) 0.74175(15) 0.51830(8)
H23 H 0.3392 0.7079 0.5547
C32 C 0.23836(19) 0.71407(13) 0.46805(7)
H24 H 0.1707 0.6615 0.4698
B1 B 0.28184(19) 0.10550(14) 0.32632(9)
F1 F 0.1640(2) 0.12283(17) 0.28525(10)
F2 F 0.36974(17) 0.19134(13) 0.33795(9)
F3 F 0.2390(3) 0.08714(16) 0.38065(9)
F4 F 0.3612(3) 0.02710(15) 0.31365(10)
F5? F 0.2578(5) 0.1740(3) 0.2761(2)
F6? F 0.4138(6) 0.1058(7) 0.3552(2)
F7? F 0.1627(7) 0.1053(5) 0.3494(4)
F8? F 0.2720(7) 0.0091(3) 0.2947(2)
loop_
_geom_bond_atom_site_label_1
_geom_bond_atom_site_label_2
_geom_bond_site_symmetry_1
_geom_bond_site_symmetry_2
P1 C1 1_555 1_555
C1 C2 1_555 1_555
C2 H1 1_555 1_555
C3 C2 1_555 1_555
H2 C3 1_555 1_555
C4 C3 1_555 1_555
H3 C4 1_555 1_555
C5 C4 1_555 1_555
H4 C5 1_555 1_555
C6 C1 1_555 1_555
C7 C6 1_555 1_555
C8 C7 1_555 1_555
C9 C8 1_555 1_555
H5 C9 1_555 1_555
C10 C9 1_555 1_555
H6 C10 1_555 1_555
C11 C10 1_555 1_555
H7 C11 1_555 1_555
C12 C11 1_555 1_555
H8 C12 1_555 1_555
C13 C8 1_555 1_555
H9 C13 1_555 1_555
C14 P1 1_555 1_555
C15 C14 1_555 1_555
C16 C15 1_555 1_555
H10 C16 1_555 1_555
C17 C16 1_555 1_555
H11 C17 1_555 1_555
C18 C17 1_555 1_555
H12 C18 1_555 1_555
C19 C18 1_555 1_555
H13 C19 1_555 1_555
C20 C15 1_555 1_555
H14 C20 1_555 1_555
C21 P1 1_555 1_555
C22 C21 1_555 1_555
H15 C22 1_555 1_555
C23 C22 1_555 1_555
H16 C23 1_555 1_555
C24 C23 1_555 1_555
H17 C24 1_555 1_555
C25 C24 1_555 1_555
H18 C25 1_555 1_555
C26 C21 1_555 1_555
H19 C26 1_555 1_555
C27 P1 1_555 1_555
C28 C27 1_555 1_555
H20 C28 1_555 1_555
C29 C28 1_555 1_555
H21 C29 1_555 1_555
C30 C29 1_555 1_555
H22 C30 1_555 1_555
C31 C30 1_555 1_555
H23 C31 1_555 1_555
C32 C27 1_555 1_555
H24 C32 1_555 1_555
B1 F1 1_555 1_555
F2 B1 1_555 1_555
F3 B1 1_555 1_555
F4 B1 1_555 1_555
C5 C6 1_555 1_555
C7 C14 1_555 1_555
C12 C13 1_555 1_555
C19 C20 1_555 1_555
C25 C26 1_555 1_555
C31 C32 1_555 1_555

#END
