
#######################################################################
#
#                 Cambridge Crystallographic Data Centre
#                                CCDC 
#
#######################################################################
#
# If this CIF has been generated from an entry in the Cambridge 
# Structural Database, then it will include bibliographic, chemical, 
# crystal, experimental, refinement or atomic coordinate data resulting 
# from the CCDC's data processing and validation procedures.
#
#######################################################################

data_NESNAD
_chemical_formula_moiety         'C27 H22 P1 1+,B1 F4 1-'
_chemical_name_systematic        
'2-methyl-1,1,3-triphenyl-1H-phosphindol-1-ium tetrafluoroborate'
_symmetry_cell_setting           monoclinic
_symmetry_space_group_name_H-M   'P 21/c'
_symmetry_Int_Tables_number      14
_space_group_name_Hall           '-P 2ybc'
loop_
_symmetry_equiv_pos_site_id
_symmetry_equiv_pos_as_xyz
1 x,y,z
2 -x,1/2+y,1/2-z
3 -x,-y,-z
4 x,1/2-y,1/2+z
_cell_length_a                   11.2649(5)
_cell_length_b                   8.3294(4)
_cell_length_c                   24.1044(9)
_cell_angle_alpha                90
_cell_angle_beta                 90.093(4)
_cell_angle_gamma                90
_cell_volume                     2261.71
_exptl_crystal_colour            colorless
_exptl_crystal_description       block
_cell_formula_units_Z            4
loop_
_atom_site_label
_atom_site_type_symbol
_atom_site_fract_x
_atom_site_fract_y
_atom_site_fract_z
P1 P 0.25895(4) 0.52095(5) 0.11751(2)
C1 C 0.49418(15) 0.3932(2) 0.13496(7)
H1 H 0.5523 0.4653 0.1179
H2 H 0.4652 0.3167 0.1072
H3 H 0.5318 0.3345 0.1655
C2 C 0.39203(14) 0.4895(2) 0.15686(7)
C3 C 0.37638(14) 0.55146(19) 0.20822(6)
C4 C 0.46394(15) 0.5365(2) 0.25395(7)
C5 C 0.58195(15) 0.5800(2) 0.24602(7)
H4 H 0.6070 0.6202 0.2111
C6 C 0.66308(17) 0.5648(2) 0.28908(8)
H5 H 0.7434 0.5957 0.2837
C7 C 0.62730(18) 0.5046(2) 0.33996(8)
H6 H 0.6831 0.4936 0.3693
C8 C 0.51037(18) 0.4605(2) 0.34793(7)
H7 H 0.4861 0.4186 0.3828
C9 C 0.42793(16) 0.4770(2) 0.30538(7)
H8 H 0.3474 0.4479 0.3113
C10 C 0.26164(14) 0.6354(2) 0.21710(6)
C11 C 0.22777(15) 0.7238(2) 0.26315(7)
H9 H 0.2789 0.7317 0.2944
C12 C 0.11811(16) 0.8008(2) 0.26317(7)
H10 H 0.0958 0.8638 0.2943
C13 C 0.04105(16) 0.7875(2) 0.21863(7)
H11 H -0.0347 0.8373 0.2201
C14 C 0.07408(15) 0.7013(2) 0.17165(7)
H12 H 0.0223 0.6931 0.1406
C15 C 0.18408(15) 0.6281(2) 0.17132(7)
C16 C 0.18570(14) 0.3369(2) 0.09979(6)
C17 C 0.10834(15) 0.2663(2) 0.13765(7)
H13 H 0.0938 0.3161 0.1724
C18 C 0.05260(16) 0.1229(2) 0.12427(8)
H14 H -0.0014 0.0753 0.1497
C19 C 0.07541(17) 0.0492(2) 0.07409(8)
H15 H 0.0377 -0.0496 0.0653
C20 C 0.15293(17) 0.1185(2) 0.03665(8)
H16 H 0.1682 0.0671 0.0022
C21 C 0.20862(16) 0.2629(2) 0.04913(7)
H17 H 0.2617 0.3106 0.0234
C22 C 0.28149(15) 0.6328(2) 0.05499(6)
C23 C 0.18719(17) 0.6510(2) 0.01780(7)
H18 H 0.1120 0.6045 0.0256
C24 C 0.20453(19) 0.7374(2) -0.03050(8)
H19 H 0.1412 0.7492 -0.0562
C25 C 0.3136(2) 0.8066(2) -0.04155(8)
H20 H 0.3244 0.8671 -0.0746
C26 C 0.40667(18) 0.7883(2) -0.00478(8)
H21 H 0.4814 0.8361 -0.0126
C27 C 0.39166(16) 0.7005(2) 0.04350(7)
H22 H 0.4560 0.6865 0.0685
B1 B 0.78893(19) 0.7132(3) 0.10535(9)
F1 F 0.78154(13) 0.6203(2) 0.15171(6)
F2 F 0.81607(12) 0.86925(18) 0.12059(7)
F3 F 0.87960(10) 0.65781(16) 0.07164(4)
F4 F 0.68182(10) 0.71182(18) 0.07719(5)
loop_
_geom_bond_atom_site_label_1
_geom_bond_atom_site_label_2
_geom_bond_site_symmetry_1
_geom_bond_site_symmetry_2
P1 C2 1_555 1_555
C1 H1 1_555 1_555
H2 C1 1_555 1_555
H3 C1 1_555 1_555
C2 C1 1_555 1_555
C3 C2 1_555 1_555
C4 C3 1_555 1_555
C5 C4 1_555 1_555
H4 C5 1_555 1_555
C6 C5 1_555 1_555
H5 C6 1_555 1_555
C7 C6 1_555 1_555
H6 C7 1_555 1_555
C8 C7 1_555 1_555
H7 C8 1_555 1_555
C9 C4 1_555 1_555
H8 C9 1_555 1_555
C10 C3 1_555 1_555
C11 C10 1_555 1_555
H9 C11 1_555 1_555
C12 C11 1_555 1_555
H10 C12 1_555 1_555
C13 C12 1_555 1_555
H11 C13 1_555 1_555
C14 C13 1_555 1_555
H12 C14 1_555 1_555
C15 P1 1_555 1_555
C16 P1 1_555 1_555
C17 C16 1_555 1_555
H13 C17 1_555 1_555
C18 C17 1_555 1_555
H14 C18 1_555 1_555
C19 C18 1_555 1_555
H15 C19 1_555 1_555
C20 C19 1_555 1_555
H16 C20 1_555 1_555
C21 C16 1_555 1_555
H17 C21 1_555 1_555
C22 P1 1_555 1_555
C23 C22 1_555 1_555
H18 C23 1_555 1_555
C24 C23 1_555 1_555
H19 C24 1_555 1_555
C25 C24 1_555 1_555
H20 C25 1_555 1_555
C26 C25 1_555 1_555
H21 C26 1_555 1_555
C27 C22 1_555 1_555
H22 C27 1_555 1_555
B1 F1 1_555 1_555
F2 B1 1_555 1_555
F3 B1 1_555 1_555
F4 B1 1_555 1_555
C8 C9 1_555 1_555
C10 C15 1_555 1_555
C14 C15 1_555 1_555
C20 C21 1_555 1_555
C26 C27 1_555 1_555

#END
