
#######################################################################
#
#                 Cambridge Crystallographic Data Centre
#                                CCDC 
#
#######################################################################
#
# If this CIF has been generated from an entry in the Cambridge 
# Structural Database, then it will include bibliographic, chemical, 
# crystal, experimental, refinement or atomic coordinate data resulting 
# from the CCDC's data processing and validation procedures.
#
#######################################################################

data_NESPUX
_chemical_formula_moiety         'C20 H21 Br1 Cl1 N1 O4'
_chemical_name_systematic        
'rac-Diethyl 2-((2-chlorophenyl)-2-(4-bromophenylamino)methyl)malonate'
_symmetry_cell_setting           triclinic
_symmetry_space_group_name_H-M   'P -1'
_symmetry_Int_Tables_number      2
_space_group_name_Hall           '-P 1'
loop_
_symmetry_equiv_pos_site_id
_symmetry_equiv_pos_as_xyz
1 x,y,z
2 -x,-y,-z
_cell_length_a                   8.5766(10)
_cell_length_b                   9.2673(11)
_cell_length_c                   13.4764(15)
_cell_angle_alpha                102.807(2)
_cell_angle_beta                 94.840(2)
_cell_angle_gamma                99.210(2)
_cell_volume                     1022.99
_exptl_crystal_colour            colorless
_chemical_melting_point          106-107deg.C
_cell_formula_units_Z            2
_exptl_crystal_recrystallization_method hexane
loop_
_atom_site_label
_atom_site_type_symbol
_atom_site_fract_x
_atom_site_fract_y
_atom_site_fract_z
Br1 Br 0.63930(4) 0.74633(4) -0.07750(3)
Cl1 Cl 0.21471(11) 1.20170(10) 0.40804(6)
O1 O -0.2064(3) 0.6706(3) 0.2034(2)
O2 O -0.2992(3) 0.7670(3) 0.34783(17)
O3 O -0.0067(3) 0.5984(3) 0.39302(19)
O4 O 0.1551(3) 0.8102(3) 0.48156(17)
N1 N 0.1196(4) 0.7517(3) 0.2013(2)
C1 C 0.0965(4) 0.8816(3) 0.2766(2)
C2 C -0.0245(4) 0.8312(3) 0.3461(2)
C3 C 0.0401(4) 0.7301(4) 0.4080(2)
C4 C -0.1854(4) 0.7474(4) 0.2891(3)
C5 C -0.4563(5) 0.6760(5) 0.3087(4)
H1 H -0.5369 0.7351 0.3292
H2 H -0.4672 0.6488 0.2343
C6 C -0.4813(7) 0.5467(7) 0.3444(4)
H3 H -0.4312 0.4720 0.3046
H4 H -0.5936 0.5092 0.3384
H5 H -0.4367 0.5690 0.4150
C7 C 0.2260(5) 0.7254(4) 0.5464(3)
H6 H 0.2851 0.6567 0.5072
H7 H 0.1440 0.6674 0.5745
C8 C 0.3344(6) 0.8373(6) 0.6303(4)
H8 H 0.4131 0.8958 0.6014
H9 H 0.3861 0.7857 0.6740
H10 H 0.2739 0.9027 0.6696
C9 C 0.2389(4) 0.7571(3) 0.1377(2)
C10 C 0.2408(4) 0.6294(3) 0.0601(2)
H11 H 0.1612 0.5450 0.0509
C11 C 0.3585(4) 0.6272(4) -0.0027(2)
H12 H 0.3581 0.5417 -0.0543
C12 C 0.4773(4) 0.7511(4) 0.0103(2)
C13 C 0.4793(4) 0.8775(3) 0.0867(2)
H13 H 0.5607 0.9605 0.0960
C14 C 0.3603(4) 0.8814(3) 0.1498(2)
H14 H 0.3612 0.9678 0.2007
C15 C 0.0500(3) 1.0106(3) 0.2348(2)
C16 C -0.0443(4) 0.9850(4) 0.1420(2)
H15 H -0.0776 0.8869 0.1028
C17 C -0.0899(4) 1.1033(4) 0.1064(3)
H16 H -0.1531 1.0837 0.0437
C18 C -0.0430(5) 1.2480(5) 0.1626(3)
H17 H -0.0764 1.3265 0.1390
C19 C 0.0536(4) 1.2775(4) 0.2537(3)
H18 H 0.0889 1.3761 0.2915
C20 C 0.0981(4) 1.1588(3) 0.2891(2)
H19 H 0.198(3) 0.921(3) 0.3237(19)
H20 H -0.039(3) 0.918(2) 0.3902(16)
H21 H 0.030(4) 0.686(4) 0.181(2)
loop_
_geom_bond_atom_site_label_1
_geom_bond_atom_site_label_2
_geom_bond_site_symmetry_1
_geom_bond_site_symmetry_2
Br1 C12 1_555 1_555
Cl1 C20 1_555 1_555
O1 C4 1_555 1_555
O2 C4 1_555 1_555
O3 C3 1_555 1_555
O4 C3 1_555 1_555
N1 C1 1_555 1_555
C1 C2 1_555 1_555
C2 C3 1_555 1_555
C4 C2 1_555 1_555
C5 O2 1_555 1_555
H1 C5 1_555 1_555
H2 C5 1_555 1_555
C6 C5 1_555 1_555
H3 C6 1_555 1_555
H4 C6 1_555 1_555
H5 C6 1_555 1_555
C7 O4 1_555 1_555
H6 C7 1_555 1_555
H7 C7 1_555 1_555
C8 C7 1_555 1_555
H8 C8 1_555 1_555
H9 C8 1_555 1_555
H10 C8 1_555 1_555
C9 N1 1_555 1_555
C10 C9 1_555 1_555
H11 C10 1_555 1_555
C11 C10 1_555 1_555
H12 C11 1_555 1_555
C12 C11 1_555 1_555
C13 C12 1_555 1_555
H13 C13 1_555 1_555
C14 C9 1_555 1_555
H14 C14 1_555 1_555
C15 C1 1_555 1_555
C16 C15 1_555 1_555
H15 C16 1_555 1_555
C17 C16 1_555 1_555
H16 C17 1_555 1_555
C18 C17 1_555 1_555
H17 C18 1_555 1_555
C19 C18 1_555 1_555
H18 C19 1_555 1_555
C20 C15 1_555 1_555
H19 C1 1_555 1_555
H20 C2 1_555 1_555
H21 N1 1_555 1_555
C13 C14 1_555 1_555
C19 C20 1_555 1_555

#END
