
#######################################################################
#
#                 Cambridge Crystallographic Data Centre
#                                CCDC 
#
#######################################################################
#
# If this CIF has been generated from an entry in the Cambridge 
# Structural Database, then it will include bibliographic, chemical, 
# crystal, experimental, refinement or atomic coordinate data resulting 
# from the CCDC's data processing and validation procedures.
#
#######################################################################

data_NESRUB
_chemical_formula_moiety         'C15 H20 O3,0.5(C1 H1 Cl3)'
_chemical_name_systematic        
'2-(3,8-dimethyl-2-oxo-1,2,4,5,6,7,8,8a-octahydroazulen-5-yl)prop-2-enoic acid chloroform solvate'
_symmetry_cell_setting           orthorhombic
_symmetry_space_group_name_H-M   'P 21 21 2'
_symmetry_Int_Tables_number      18
_space_group_name_Hall           'P 2 2ab'
loop_
_symmetry_equiv_pos_site_id
_symmetry_equiv_pos_as_xyz
1 x,y,z
2 -x,-y,z
3 1/2-x,1/2+y,-z
4 1/2+x,1/2-y,-z
_cell_length_a                   9.5860(11)
_cell_length_b                   18.749(2)
_cell_length_c                   8.8167(10)
_cell_angle_alpha                90
_cell_angle_beta                 90
_cell_angle_gamma                90
_cell_volume                     1584.61
_exptl_crystal_colour            colorless
_exptl_crystal_description       prismatic
_cell_formula_units_Z            4
loop_
_atom_site_label
_atom_site_type_symbol
_atom_site_fract_x
_atom_site_fract_y
_atom_site_fract_z
O1 O 0.6348(3) 0.26119(13) 1.1962(4)
O2 O 0.8718(3) 0.57582(14) 0.8121(4)
O3 O 0.7450(3) 0.65002(12) 0.6748(4)
H1 H 0.7828 0.6799 0.7290
C1 C 0.7845(4) 0.2602(2) 0.9743(5)
H2 H 0.7592 0.2134 0.9363
H3 H 0.8728 0.2565 1.0275
C2 C 0.6735(4) 0.28838(17) 1.0776(5)
C3 C 0.6213(4) 0.35448(16) 1.0148(4)
C4 C 0.6877(3) 0.36942(15) 0.8849(4)
C5 C 0.7951(4) 0.31379(17) 0.8439(4)
H4 H 0.8876 0.3360 0.8473
C6 C 0.7745(4) 0.28063(19) 0.6856(5)
H5 H 0.8326 0.2376 0.6833
C7 C 0.8279(4) 0.3281(2) 0.5602(5)
H6 H 0.8244 0.3012 0.4663
H7 H 0.9252 0.3384 0.5807
C8 C 0.7527(5) 0.39932(19) 0.5337(4)
H8 H 0.7910 0.4213 0.4432
H9 H 0.6550 0.3895 0.5143
C9 C 0.7623(4) 0.45271(16) 0.6634(4)
H10 H 0.8575 0.4508 0.7037
C10 C 0.6619(3) 0.43506(17) 0.7936(4)
H11 H 0.6617 0.4753 0.8627
H12 H 0.5688 0.4315 0.7512
C11 C 0.5121(4) 0.39733(17) 1.0931(5)
H13 H 0.5530 0.4402 1.1329
H14 H 0.4731 0.3699 1.1748
H15 H 0.4399 0.4095 1.0223
C12 C 0.6258(5) 0.2558(2) 0.6587(6)
H16 H 0.5650 0.2964 0.6533
H17 H 0.5971 0.2254 0.7406
H18 H 0.6212 0.2298 0.5650
C13 C 0.7343(4) 0.52858(17) 0.6132(4)
C14 C 0.6659(5) 0.5462(2) 0.4888(5)
H19 H 0.6536 0.5940 0.4639
H20 H 0.6300 0.5108 0.4260
C15 C 0.7905(4) 0.58612(18) 0.7113(4)
Cl1? Cl -0.0035(4) 0.58844(15) 0.1829(4)
Cl2? Cl 0.1710(3) 0.46839(19) 0.1684(4)
Cl3? Cl -0.1206(4) 0.4508(2) 0.1208(4)
C16? C 0.0000 0.5000 0.0993(8)
H21? H 0.0000 0.5000 -0.015(10)
loop_
_geom_bond_atom_site_label_1
_geom_bond_atom_site_label_2
_geom_bond_site_symmetry_1
_geom_bond_site_symmetry_2
O1 C2 1_555 1_555
O2 C15 1_555 1_555
O3 H1 1_555 1_555
C1 H2 1_555 1_555
H3 C1 1_555 1_555
C2 C1 1_555 1_555
C3 C2 1_555 1_555
C4 C3 1_555 1_555
C5 C1 1_555 1_555
H4 C5 1_555 1_555
C6 C5 1_555 1_555
H5 C6 1_555 1_555
C7 C6 1_555 1_555
H6 C7 1_555 1_555
H7 C7 1_555 1_555
C8 C7 1_555 1_555
H8 C8 1_555 1_555
H9 C8 1_555 1_555
C9 C8 1_555 1_555
H10 C9 1_555 1_555
C10 C4 1_555 1_555
H11 C10 1_555 1_555
H12 C10 1_555 1_555
C11 C3 1_555 1_555
H13 C11 1_555 1_555
H14 C11 1_555 1_555
H15 C11 1_555 1_555
C12 C6 1_555 1_555
H16 C12 1_555 1_555
H17 C12 1_555 1_555
H18 C12 1_555 1_555
C13 C9 1_555 1_555
C14 C13 1_555 1_555
H19 C14 1_555 1_555
H20 C14 1_555 1_555
C15 O3 1_555 1_555
C4 C5 1_555 1_555
C9 C10 1_555 1_555
C13 C15 1_555 1_555

#END
