
#######################################################################
#
#                 Cambridge Crystallographic Data Centre
#                                CCDC 
#
#######################################################################
#
# If this CIF has been generated from an entry in the Cambridge 
# Structural Database, then it will include bibliographic, chemical, 
# crystal, experimental, refinement or atomic coordinate data resulting 
# from the CCDC's data processing and validation procedures.
#
#######################################################################

data_NESTIQ
_chemical_formula_moiety         
'C36 H32 N4 3+,3(F6 P1 1-),3(C2 H3 N1),0.5(H2 O1)'
_chemical_name_systematic        
'(5,12,19,26-Tetraazoniaheptacyclo[24.2.2.2^2,5^.2^7,10^.2^12,15^.2^16,19^.2^21,24^]tetraconta-1(28),2,4,7,9,12,14,16,18,21,23,26,29,31,33,35,37,39-octadecaene mono radical) tris(hexafluorophosphate) acetonitrile solvate hemihydrate'
_symmetry_cell_setting           triclinic
_symmetry_space_group_name_H-M   'P -1'
_symmetry_Int_Tables_number      2
_space_group_name_Hall           '-P 1'
loop_
_symmetry_equiv_pos_site_id
_symmetry_equiv_pos_as_xyz
1 x,y,z
2 -x,-y,-z
_cell_length_a                   16.2132(6)
_cell_length_b                   16.7552(7)
_cell_length_c                   18.2284(8)
_cell_angle_alpha                84.018(3)
_cell_angle_beta                 84.371(3)
_cell_angle_gamma                74.868(3)
_cell_volume                     4741.14
_exptl_crystal_colour            red
_exptl_crystal_description       block
_cell_formula_units_Z            4
loop_
_atom_site_label
_atom_site_type_symbol
_atom_site_fract_x
_atom_site_fract_y
_atom_site_fract_z
P1 P 0.65346(11) 0.43740(16) 0.04598(16)
F1 F 0.7342(2) 0.4631(3) -0.0008(3)
F2 F 0.5725(3) 0.4142(3) 0.0922(4)
F3 F 0.6976(3) 0.3416(4) 0.0384(5)
F4 F 0.6984(3) 0.4329(3) 0.1203(3)
F5 F 0.6098(2) 0.5338(3) 0.0540(2)
F6 F 0.6081(3) 0.4464(5) -0.0305(4)
P2 P 0.22771(12) 0.56203(13) 0.26792(11)
F7 F 0.2673(3) 0.5797(4) 0.1860(3)
F8 F 0.1806(5) 0.5548(5) 0.3480(4)
F9 F 0.1666(12) 0.5191(10) 0.2287(7)
F10 F 0.1622(8) 0.6545(7) 0.2574(7)
F11 F 0.2858(7) 0.5966(9) 0.3051(6)
F12 F 0.280(2) 0.4782(14) 0.2846(13)
P3 P 0.42201(16) 0.10488(16) 0.23475(14)
F13 F 0.4488(7) 0.0964(4) 0.1486(3)
F14 F 0.4058(5) 0.1140(6) 0.3198(4)
F15 F 0.4478(6) 0.0133(5) 0.2535(4)
F16 F 0.5234(4) 0.1076(7) 0.2472(5)
F17 F 0.4088(7) 0.2056(6) 0.2121(7)
F18 F 0.3343(8) 0.1111(8) 0.2172(12)
P4 P 0.35743(13) 0.75291(13) 0.47710(11)
F19 F 0.3890(3) 0.7872(3) 0.3973(3)
F20 F 0.3243(4) 0.7195(4) 0.5565(3)
F21 F 0.4507(4) 0.6903(3) 0.4817(3)
F22 F 0.3893(3) 0.8192(3) 0.5147(3)
F23 F 0.2670(3) 0.8172(4) 0.4694(3)
F24 F 0.3265(4) 0.6860(3) 0.4400(3)
P5 P 0.78694(11) 0.05694(13) 0.99576(12)
F25 F 0.7634(3) 0.1549(3) 0.9940(3)
F26 F 0.8128(3) -0.0413(3) 0.9980(4)
F27 F 0.6951(11) 0.0563(14) 0.9893(12)
F28 F 0.8093(15) 0.0697(13) 0.9152(10)
F29 F 0.8841(10) 0.0604(14) 1.0095(15)
F30 F 0.7785(8) 0.0450(8) 1.0850(6)
P6 P 0.98107(12) 0.84048(12) 0.58527(11)
F31 F 0.9570(4) 0.9380(3) 0.5650(3)
F32 F 1.0027(5) 0.7440(3) 0.6033(4)
F33 F 0.9405(5) 0.8306(5) 0.5137(4)
F34 F 1.0692(5) 0.8368(8) 0.5392(6)
F35 F 1.0227(8) 0.8547(6) 0.6577(5)
F36 F 0.8877(6) 0.8527(6) 0.6309(6)
O1 O 0.1280(4) 0.7617(5) 0.3866(4)
N1 N 0.7326(3) 0.4295(4) 0.4285(4)
N2 N 0.4204(3) 0.6533(3) 0.1959(3)
N3 N 0.6645(3) 0.8959(3) 0.0808(3)
N4 N 0.9404(3) 0.7140(3) 0.3599(3)
C1 C 0.9862(4) 0.6584(5) 0.4207(4)
H1 H 0.9815 0.6891 0.4652
H2 H 1.0476 0.6374 0.4050
C2 C 0.9448(4) 0.5881(5) 0.4374(4)
C3 C 0.8757(4) 0.5949(5) 0.4890(4)
H3 H 0.8580 0.6424 0.5165
C4 C 0.8319(4) 0.5336(5) 0.5015(4)
H4 H 0.7834 0.5400 0.5362
C5 C 0.8589(4) 0.4632(5) 0.4634(4)
C6 C 0.9307(4) 0.4535(4) 0.4112(4)
H5 H 0.9495 0.4051 0.3849
C7 C 0.9732(4) 0.5166(4) 0.3993(4)
H6 H 1.0220 0.5110 0.3650
C8 C 0.8085(4) 0.3987(5) 0.4729(5)
H7 H 0.8444 0.3456 0.4557
H8 H 0.7899 0.3892 0.5257
C9 C 0.7391(4) 0.4175(5) 0.3569(5)
H9 H 0.7900 0.3818 0.3368
C10 C 0.6750(4) 0.4547(5) 0.3106(5)
H10 H 0.6816 0.4450 0.2597
C11 C 0.6003(4) 0.5067(4) 0.3403(4)
C12 C 0.5932(4) 0.5163(4) 0.4166(4)
H11 H 0.5424 0.5499 0.4391
C13 C 0.6606(4) 0.4765(5) 0.4581(4)
H12 H 0.6555 0.4829 0.5096
C14 C 0.5339(3) 0.5561(4) 0.2912(4)
C15 C 0.4810(4) 0.6300(4) 0.3110(4)
H13 H 0.4837 0.6480 0.3582
C16 C 0.4246(3) 0.6780(4) 0.2632(3)
H14 H 0.3882 0.7290 0.2776
C17 C 0.4676(4) 0.5795(4) 0.1769(4)
H15 H 0.4617 0.5611 0.1306
C18 C 0.5243(4) 0.5302(4) 0.2235(4)
H16 H 0.5576 0.4777 0.2094
C19 C 0.3697(4) 0.7131(4) 0.1406(4)
H17 H 0.3160 0.7455 0.1651
H18 H 0.3547 0.6829 0.1021
C20 C 0.4234(4) 0.7700(4) 0.1063(3)
C21 C 0.4147(4) 0.8460(4) 0.1330(4)
H19 H 0.3712 0.8641 0.1709
C22 C 0.4678(4) 0.8967(4) 0.1057(4)
H20 H 0.4606 0.9490 0.1247
C23 C 0.5306(4) 0.8710(4) 0.0515(4)
C24 C 0.5394(4) 0.7958(4) 0.0207(4)
H21 H 0.5815 0.7790 -0.0186
C25 C 0.4849(4) 0.7463(4) 0.0490(4)
H22 H 0.4900 0.6952 0.0286
C26 C 0.5976(5) 0.9210(5) 0.0268(4)
H23 H 0.6231 0.9085 -0.0236
H24 H 0.5704 0.9812 0.0265
C27 C 0.6533(4) 0.9304(4) 0.1454(4)
H25 H 0.6071 0.9778 0.1525
C28 C 0.7060(4) 0.8996(4) 0.2015(4)
H26 H 0.6957 0.9248 0.2469
C29 C 0.7772(3) 0.8288(4) 0.1909(3)
C30 C 0.7881(4) 0.7973(4) 0.1199(3)
H27 H 0.8357 0.7524 0.1086
C31 C 0.7317(4) 0.8305(4) 0.0687(4)
H28 H 0.7395 0.8071 0.0225
C32 C 0.8322(3) 0.7916(3) 0.2490(3)
C33 C 0.8162(4) 0.8142(4) 0.3226(3)
H29 H 0.7679 0.8581 0.3345
C34 C 0.8677(4) 0.7750(4) 0.3767(4)
H30 H 0.8535 0.7897 0.4261
C35 C 0.9595(4) 0.6925(4) 0.2891(4)
H31 H 1.0105 0.6512 0.2778
C36 C 0.9081(3) 0.7282(4) 0.2345(3)
H32 H 0.9227 0.7108 0.1859
N5 N 0.8197(3) 0.5514(3) 0.1486(3)
N6 N 0.5724(3) 0.8220(3) 0.4024(3)
N7 N 0.8693(4) 1.0256(4) 0.3557(3)
N8 N 1.0751(3) 0.7896(4) 0.0665(4)
C37 C 1.1047(5) 0.7293(6) 0.0102(5)
H33 H 1.1665 0.7023 0.0131
H34 H 1.0956 0.7574 -0.0400
C38 C 1.0524(5) 0.6651(6) 0.0263(4)
C39 C 1.0752(4) 0.5991(5) 0.0798(4)
H35 H 1.1280 0.5889 0.1019
C40 C 1.0198(4) 0.5479(5) 0.1005(4)
H36 H 1.0333 0.5046 0.1389
C41 C 0.9449(4) 0.5602(5) 0.0651(4)
C42 C 0.9263(4) 0.6224(5) 0.0088(4)
H37 H 0.8764 0.6291 -0.0169
C43 C 0.9788(5) 0.6747(6) -0.0106(4)
H38 H 0.9649 0.7175 -0.0493
C44 C 0.8835(5) 0.5066(6) 0.0926(5)
H39 H 0.8540 0.4965 0.0508
H40 H 0.9156 0.4524 0.1150
C45 C 0.8404(4) 0.5485(4) 0.2179(4)
H41 H 0.8922 0.5108 0.2322
C46 C 0.7916(3) 0.5965(4) 0.2687(3)
H42 H 0.8086 0.5905 0.3178
C47 C 0.7147(3) 0.6559(3) 0.2502(3)
C48 C 0.6933(3) 0.6556(4) 0.1762(3)
H43 H 0.6415 0.6920 0.1605
C49 C 0.7444(4) 0.6050(4) 0.1275(4)
H44 H 0.7282 0.6066 0.0785
C50 C 0.6643(3) 0.7101(3) 0.3007(3)
C51 C 0.6803(3) 0.7013(4) 0.3779(3)
H45 H 0.7240 0.6557 0.3957
C52 C 0.6356(4) 0.7555(4) 0.4254(3)
H46 H 0.6481 0.7474 0.4759
C53 C 0.5534(3) 0.8327(4) 0.3317(4)
H47 H 0.5097 0.8795 0.3161
C54 C 0.5949(3) 0.7787(3) 0.2817(3)
H48 H 0.5773 0.7868 0.2327
C55 C 0.5396(4) 0.8902(5) 0.4526(4)
H49 H 0.4839 0.9255 0.4373
H50 H 0.5310 0.8665 0.5040
C56 C 0.6034(4) 0.9406(4) 0.4486(4)
C57 C 0.6709(4) 0.9197(5) 0.4943(4)
H51 H 0.6716 0.8774 0.5334
C58 C 0.7362(5) 0.9581(5) 0.4845(4)
H52 H 0.7825 0.9411 0.5156
C59 C 0.7354(5) 1.0207(5) 0.4304(4)
C60 C 0.6668(5) 1.0460(4) 0.3840(4)
H53 H 0.6647 1.0904 0.3468
C61 C 0.6024(5) 1.0040(5) 0.3944(4)
H54 H 0.5564 1.0198 0.3631
C62 C 0.8096(6) 1.0629(6) 0.4173(5)
H55 H 0.7870 1.1231 0.4047
H56 H 0.8404 1.0553 0.4628
C63 C 0.9336(5) 0.9600(5) 0.3700(4)
H57 H 0.9459 0.9421 0.4198
C64 C 0.9827(4) 0.9172(5) 0.3136(4)
H58 H 1.0295 0.8711 0.3243
C65 C 0.9633(4) 0.9423(4) 0.2405(4)
C66 C 0.8992(5) 1.0141(5) 0.2275(4)
H59 H 0.8861 1.0351 0.1784
C67 C 0.8553(6) 1.0541(5) 0.2861(5)
H60 H 0.8130 1.1044 0.2769
C68 C 1.0068(4) 0.8916(4) 0.1788(4)
C69 C 1.0819(4) 0.8298(5) 0.1872(4)
H61 H 1.1106 0.8221 0.2314
C70 C 1.1137(4) 0.7805(5) 0.1311(5)
H62 H 1.1649 0.7379 0.1372
C71 C 1.0031(5) 0.8521(5) 0.0581(4)
H63 H 0.9768 0.8613 0.0126
C72 C 0.9690(4) 0.9003(5) 0.1122(4)
H64 H 0.9173 0.9420 0.1052
N9 N 0.6916(7) 0.2076(9) 0.2362(6)
C73 C 0.6573(9) 0.2096(10) 0.1846(7)
C74 C 0.6043(7) 0.2107(8) 0.1258(6)
H65 H 0.6367 0.1735 0.0891
H66 H 0.5867 0.2673 0.1023
H67 H 0.5535 0.1923 0.1458
N10 N 0.2444(4) 0.8501(4) 0.2690(4)
C75 C 0.2463(5) 0.9009(5) 0.3026(4)
C76 C 0.2521(8) 0.9667(6) 0.3479(6)
H68 H 0.2813 0.9417 0.3924
H69 H 0.1943 0.9995 0.3622
H70 H 0.2845 1.0028 0.3193
N11 N 0.0395(10) 0.6424(9) 0.7744(8)
C77 C 0.0931(11) 0.6802(7) 0.7758(7)
C78 C 0.1385(12) 0.7222(17) 0.7835(10)
H71 H 0.1876 0.7111 0.7467
H72 H 0.1589 0.7101 0.8333
H73 H 0.1071 0.7807 0.7769
N12 N 0.4320(7) 0.4305(8) 0.4058(7)
C79 C 0.4549(9) 0.3686(10) 0.3781(8)
C80 C 0.4807(19) 0.293(2) 0.342(2)
H74 H 0.5434 0.2742 0.3382
H75 H 0.4596 0.3027 0.2927
H76 H 0.4569 0.2507 0.3713
N13 N 0.7378(6) 0.6937(8) 0.9268(6)
C81 C 0.6974(8) 0.6610(9) 0.9036(6)
C82 C 0.6388(9) 0.6153(9) 0.8752(7)
H77 H 0.5921 0.6118 0.9128
H78 H 0.6716 0.5593 0.8644
H79 H 0.6148 0.6455 0.8299
N14 N 0.2704(9) 0.2811(8) 0.4047(7)
C83 C 0.2326(9) 0.2909(8) 0.3500(7)
C84 C 0.1908(7) 0.3013(6) 0.2874(5)
H80 H 0.2159 0.2544 0.2575
H81 H 0.1301 0.3041 0.3005
H82 H 0.1963 0.3529 0.2591
N15 N 0.9881(6) 0.8625(7) 0.8696(5)
C85 C 0.9241(7) 0.8783(7) 0.8491(5)
C86 C 0.8406(7) 0.8919(10) 0.8232(8)
H83 H 0.8396 0.8466 0.7936
H84 H 0.8268 0.9447 0.7927
H85 H 0.7982 0.8937 0.8656
N16? N 0.352(2) 0.331(3) 0.4190(19)
C87? C 0.409(3) 0.323(3) 0.375(2)
C88? C 0.492(3) 0.308(4) 0.336(3)
H86? H 0.4993 0.2620 0.3054
H87? H 0.5362 0.2948 0.3714
H88? H 0.4967 0.3582 0.3043
F37? F 0.2505(12) 0.6529(12) 0.2797(10)
F38? F 0.3262(14) 0.5414(18) 0.2926(16)
F39? F 0.2554(16) 0.4708(11) 0.2660(10)
F40? F 0.390(2) 0.0037(11) 0.2383(16)
F41? F 0.5067(10) 0.0498(15) 0.2287(11)
F42? F 0.429(2) 0.1785(18) 0.240(2)
F43? F 0.3106(13) 0.1329(18) 0.258(3)
F44? F 0.7851(9) 0.0627(13) 0.9060(9)
F45? F 0.8848(10) 0.0497(15) 0.9839(9)
F46? F 0.7851(10) 0.0556(18) 1.0744(15)
F47? F 0.6845(10) 0.0618(12) 1.0029(8)
F48? F 0.887(2) 0.836(3) 0.548(2)
F49? F 1.015(3) 0.8271(19) 0.4892(15)
F50? F 1.0686(18) 0.835(3) 0.594(2)
F51? F 0.941(2) 0.842(2) 0.6568(11)
F52? F 0.1438(6) 0.5875(19) 0.2455(10)
loop_
_geom_bond_atom_site_label_1
_geom_bond_atom_site_label_2
_geom_bond_site_symmetry_1
_geom_bond_site_symmetry_2
P1 F1 1_555 1_555
F2 P1 1_555 1_555
F3 P1 1_555 1_555
F4 P1 1_555 1_555
F5 P1 1_555 1_555
F6 P1 1_555 1_555
P2 F7 1_555 1_555
F8 P2 1_555 1_555
F9 P2 1_555 1_555
F10 P2 1_555 1_555
F11 P2 1_555 1_555
F12 P2 1_555 1_555
P3 F13 1_555 1_555
F14 P3 1_555 1_555
F15 P3 1_555 1_555
F16 P3 1_555 1_555
F17 P3 1_555 1_555
F18 P3 1_555 1_555
P4 F19 1_555 1_555
F20 P4 1_555 1_555
F21 P4 1_555 1_555
F22 P4 1_555 1_555
F23 P4 1_555 1_555
F24 P4 1_555 1_555
P5 F25 1_555 1_555
F26 P5 1_555 1_555
F27 P5 1_555 1_555
F28 P5 1_555 1_555
F29 P5 1_555 1_555
F30 P5 1_555 1_555
P6 F31 1_555 1_555
F32 P6 1_555 1_555
F33 P6 1_555 1_555
F34 P6 1_555 1_555
F35 P6 1_555 1_555
F36 P6 1_555 1_555
N1 C8 1_555 1_555
N2 C16 1_555 1_555
N3 C26 1_555 1_555
N4 C1 1_555 1_555
C1 H1 1_555 1_555
H2 C1 1_555 1_555
C2 C1 1_555 1_555
C3 C2 1_555 1_555
H3 C3 1_555 1_555
C4 C3 1_555 1_555
H4 C4 1_555 1_555
C5 C4 1_555 1_555
C6 C5 1_555 1_555
H5 C6 1_555 1_555
C7 C2 1_555 1_555
H6 C7 1_555 1_555
C8 C5 1_555 1_555
H7 C8 1_555 1_555
H8 C8 1_555 1_555
C9 N1 1_555 1_555
H9 C9 1_555 1_555
C10 C9 1_555 1_555
H10 C10 1_555 1_555
C11 C10 1_555 1_555
C12 C11 1_555 1_555
H11 C12 1_555 1_555
C13 N1 1_555 1_555
H12 C13 1_555 1_555
C14 C11 1_555 1_555
C15 C14 1_555 1_555
H13 C15 1_555 1_555
C16 C15 1_555 1_555
H14 C16 1_555 1_555
C17 N2 1_555 1_555
H15 C17 1_555 1_555
C18 C14 1_555 1_555
H16 C18 1_555 1_555
C19 N2 1_555 1_555
H17 C19 1_555 1_555
H18 C19 1_555 1_555
C20 C19 1_555 1_555
C21 C20 1_555 1_555
H19 C21 1_555 1_555
C22 C21 1_555 1_555
H20 C22 1_555 1_555
C23 C22 1_555 1_555
C24 C23 1_555 1_555
H21 C24 1_555 1_555
C25 C20 1_555 1_555
H22 C25 1_555 1_555
C26 C23 1_555 1_555
H23 C26 1_555 1_555
H24 C26 1_555 1_555
C27 N3 1_555 1_555
H25 C27 1_555 1_555
C28 C27 1_555 1_555
H26 C28 1_555 1_555
C29 C28 1_555 1_555
C30 C29 1_555 1_555
H27 C30 1_555 1_555
C31 N3 1_555 1_555
H28 C31 1_555 1_555
C32 C29 1_555 1_555
C33 C32 1_555 1_555
H29 C33 1_555 1_555
C34 N4 1_555 1_555
H30 C34 1_555 1_555
C35 N4 1_555 1_555
H31 C35 1_555 1_555
C36 C32 1_555 1_555
H32 C36 1_555 1_555
N5 C44 1_555 1_555
N6 C52 1_555 1_555
N7 C62 1_555 1_555
N8 C37 1_555 1_555
C37 H33 1_555 1_555
H34 C37 1_555 1_555
C38 C37 1_555 1_555
C39 C38 1_555 1_555
H35 C39 1_555 1_555
C40 C39 1_555 1_555
H36 C40 1_555 1_555
C41 C40 1_555 1_555
C42 C41 1_555 1_555
H37 C42 1_555 1_555
C43 C38 1_555 1_555
H38 C43 1_555 1_555
C44 C41 1_555 1_555
H39 C44 1_555 1_555
H40 C44 1_555 1_555
C45 N5 1_555 1_555
H41 C45 1_555 1_555
C46 C45 1_555 1_555
H42 C46 1_555 1_555
C47 C46 1_555 1_555
C48 C47 1_555 1_555
H43 C48 1_555 1_555
C49 N5 1_555 1_555
H44 C49 1_555 1_555
C50 C47 1_555 1_555
C51 C50 1_555 1_555
H45 C51 1_555 1_555
C52 C51 1_555 1_555
H46 C52 1_555 1_555
C53 N6 1_555 1_555
H47 C53 1_555 1_555
C54 C50 1_555 1_555
H48 C54 1_555 1_555
C55 N6 1_555 1_555
H49 C55 1_555 1_555
H50 C55 1_555 1_555
C56 C55 1_555 1_555
C57 C56 1_555 1_555
H51 C57 1_555 1_555
C58 C57 1_555 1_555
H52 C58 1_555 1_555
C59 C58 1_555 1_555
C60 C59 1_555 1_555
H53 C60 1_555 1_555
C61 C56 1_555 1_555
H54 C61 1_555 1_555
C62 C59 1_555 1_555
H55 C62 1_555 1_555
H56 C62 1_555 1_555
C63 N7 1_555 1_555
H57 C63 1_555 1_555
C64 C63 1_555 1_555
H58 C64 1_555 1_555
C65 C64 1_555 1_555
C66 C65 1_555 1_555
H59 C66 1_555 1_555
C67 N7 1_555 1_555
H60 C67 1_555 1_555
C68 C65 1_555 1_555
C69 C68 1_555 1_555
H61 C69 1_555 1_555
C70 N8 1_555 1_555
H62 C70 1_555 1_555
C71 N8 1_555 1_555
H63 C71 1_555 1_555
C72 C68 1_555 1_555
H64 C72 1_555 1_555
N9 C73 1_555 1_555
C73 C74 1_555 1_555
C74 H65 1_555 1_555
H66 C74 1_555 1_555
H67 C74 1_555 1_555
N10 C75 1_555 1_555
C75 C76 1_555 1_555
C76 H68 1_555 1_555
H69 C76 1_555 1_555
H70 C76 1_555 1_555
N11 C77 1_555 1_555
C77 C78 1_555 1_555
C78 H71 1_555 1_555
H72 C78 1_555 1_555
H73 C78 1_555 1_555
N12 C79 1_555 1_555
C79 C80 1_555 1_555
C80 H74 1_555 1_555
H75 C80 1_555 1_555
H76 C80 1_555 1_555
N13 C81 1_555 1_555
C81 C82 1_555 1_555
C82 H77 1_555 1_555
H78 C82 1_555 1_555
H79 C82 1_555 1_555
N14 C83 1_555 1_555
C83 C84 1_555 1_555
C84 H80 1_555 1_555
H81 C84 1_555 1_555
H82 C84 1_555 1_555
N15 C85 1_555 1_555
C85 C86 1_555 1_555
C86 H83 1_555 1_555
H84 C86 1_555 1_555
H85 C86 1_555 1_555
C6 C7 1_555 1_555
C12 C13 1_555 1_555
C17 C18 1_555 1_555
C24 C25 1_555 1_555
C30 C31 1_555 1_555
C33 C34 1_555 1_555
C35 C36 1_555 1_555
C42 C43 1_555 1_555
C48 C49 1_555 1_555
C53 C54 1_555 1_555
C60 C61 1_555 1_555
C66 C67 1_555 1_555
C69 C70 1_555 1_555
C71 C72 1_555 1_555

#END
