
#######################################################################
#
#                 Cambridge Crystallographic Data Centre
#                                CCDC 
#
#######################################################################
#
# If this CIF has been generated from an entry in the Cambridge 
# Structural Database, then it will include bibliographic, chemical, 
# crystal, experimental, refinement or atomic coordinate data resulting 
# from the CCDC's data processing and validation procedures.
#
#######################################################################

data_NESTUD
_chemical_formula_moiety         'C28 H27 Br1 N2 O2'
_chemical_name_systematic        
7-bromo-1-[2-methyl-6-({[4-(morpholin-4-yl)phenyl]amino}methyl)phenyl]naphthalen-2-ol
_symmetry_cell_setting           monoclinic
_symmetry_space_group_name_H-M   'P 21'
_symmetry_Int_Tables_number      4
_space_group_name_Hall           'P 2yb'
loop_
_symmetry_equiv_pos_site_id
_symmetry_equiv_pos_as_xyz
1 x,y,z
2 -x,1/2+y,-z
_cell_length_a                   12.401(4)
_cell_length_b                   7.895(2)
_cell_length_c                   12.594(4)
_cell_angle_alpha                90
_cell_angle_beta                 108.220(4)
_cell_angle_gamma                90
_cell_volume                     1171.21
_exptl_crystal_colour            colorless
_exptl_crystal_description       plate
_cell_formula_units_Z            2
loop_
_atom_site_label
_atom_site_type_symbol
_atom_site_fract_x
_atom_site_fract_y
_atom_site_fract_z
Br1 Br 0.48629(5) 0.37567(8) 0.57247(3)
O1 O 0.1853(3) 0.4959(5) -0.0549(3)
H1 H 0.153013 0.429814 -0.107471
O2 O 1.1033(3) 0.2648(5) 0.7759(3)
N1 N 0.5935(3) 0.2580(5) 0.1486(3)
H2 H 0.607876 0.217437 0.089321
N2 N 0.9485(3) 0.2075(5) 0.5576(3)
C1 C 0.2704(3) 0.4688(5) 0.1396(3)
C2 C 0.1841(4) 0.4263(5) 0.0449(3)
C3 C 0.0946(4) 0.3167(6) 0.0487(4)
H3 H 0.033345 0.295874 -0.017448
C4 C 0.0959(4) 0.2417(6) 0.1457(5)
H4 H 0.036393 0.166453 0.146516
C5 C 0.1846(4) 0.2740(5) 0.2456(4)
C6 C 0.1926(4) 0.1912(6) 0.3473(5)
H5 H 0.134900 0.113283 0.349356
C7 C 0.2805(5) 0.2195(6) 0.4423(5)
H6 H 0.285112 0.160280 0.509290
C8 C 0.3640(4) 0.3375(6) 0.4396(4)
C9 C 0.3604(4) 0.4235(5) 0.3439(4)
H7 H 0.417535 0.504219 0.344877
C10 C 0.2711(3) 0.3917(6) 0.2434(3)
C11 C 0.3649(3) 0.5844(5) 0.1366(3)
C12 C 0.3485(4) 0.7607(6) 0.1287(3)
C13 C 0.4410(4) 0.8633(6) 0.1312(3)
H8 H 0.431531 0.982778 0.126723
C14 C 0.5453(4) 0.7953(6) 0.1401(4)
H9 H 0.607385 0.867722 0.143372
C15 C 0.5602(4) 0.6215(6) 0.1441(4)
H10 H 0.632232 0.574872 0.149165
C16 C 0.4699(4) 0.5149(5) 0.1409(3)
C17 C 0.2352(5) 0.8391(6) 0.1194(5)
H11 H 0.178538 0.800411 0.050404
H12 H 0.241423 0.962782 0.118015
H13 H 0.211784 0.805134 0.183808
C18 C 0.4810(3) 0.3220(5) 0.1372(4)
H14 H 0.455701 0.272767 0.197743
H15 H 0.428438 0.280878 0.065336
C19 C 0.6795(3) 0.2592(5) 0.2510(4)
C20 C 0.6577(4) 0.2579(7) 0.3527(4)
H16 H 0.581450 0.266129 0.353420
C21 C 0.7445(4) 0.2449(7) 0.4531(4)
H17 H 0.726249 0.242200 0.520975
C22 C 0.8577(4) 0.2357(5) 0.4572(4)
C23 C 0.8796(4) 0.2430(6) 0.3552(4)
H18 H 0.956048 0.239970 0.354833
C24 C 0.7933(4) 0.2546(6) 0.2548(4)
H19 H 0.811618 0.259476 0.187004
C25 C 0.9151(4) 0.1833(6) 0.6573(4)
H20 H 0.857579 0.092062 0.644161
H21 H 0.880599 0.288789 0.674393
C26 C 1.0171(5) 0.1368(7) 0.7552(4)
H22 H 0.993328 0.122058 0.822765
H23 H 1.048544 0.027668 0.739725
C27 C 1.1389(4) 0.2842(7) 0.6789(4)
H24 H 1.172173 0.176480 0.663630
H25 H 1.198169 0.372776 0.692975
C28 C 1.0403(4) 0.3326(6) 0.5786(4)
H26 H 1.011292 0.445081 0.591373
H27 H 1.066386 0.340898 0.512106
loop_
_geom_bond_atom_site_label_1
_geom_bond_atom_site_label_2
_geom_bond_site_symmetry_1
_geom_bond_site_symmetry_2
Br1 C8 1_555 1_555
O1 H1 1_555 1_555
O2 C26 1_555 1_555
N1 H2 1_555 1_555
N2 C22 1_555 1_555
C1 C2 1_555 1_555
C2 O1 1_555 1_555
C3 C2 1_555 1_555
H3 C3 1_555 1_555
C4 C3 1_555 1_555
H4 C4 1_555 1_555
C5 C4 1_555 1_555
C6 C5 1_555 1_555
H5 C6 1_555 1_555
C7 C6 1_555 1_555
H6 C7 1_555 1_555
C8 C7 1_555 1_555
C9 C8 1_555 1_555
H7 C9 1_555 1_555
C10 C1 1_555 1_555
C11 C1 1_555 1_555
C12 C11 1_555 1_555
C13 C12 1_555 1_555
H8 C13 1_555 1_555
C14 C13 1_555 1_555
H9 C14 1_555 1_555
C15 C14 1_555 1_555
H10 C15 1_555 1_555
C16 C11 1_555 1_555
C17 C12 1_555 1_555
H11 C17 1_555 1_555
H12 C17 1_555 1_555
H13 C17 1_555 1_555
C18 N1 1_555 1_555
H14 C18 1_555 1_555
H15 C18 1_555 1_555
C19 N1 1_555 1_555
C20 C19 1_555 1_555
H16 C20 1_555 1_555
C21 C20 1_555 1_555
H17 C21 1_555 1_555
C22 C21 1_555 1_555
C23 C22 1_555 1_555
H18 C23 1_555 1_555
C24 C19 1_555 1_555
H19 C24 1_555 1_555
C25 N2 1_555 1_555
H20 C25 1_555 1_555
H21 C25 1_555 1_555
C26 C25 1_555 1_555
H22 C26 1_555 1_555
H23 C26 1_555 1_555
C27 O2 1_555 1_555
H24 C27 1_555 1_555
H25 C27 1_555 1_555
C28 N2 1_555 1_555
H26 C28 1_555 1_555
H27 C28 1_555 1_555
C5 C10 1_555 1_555
C9 C10 1_555 1_555
C15 C16 1_555 1_555
C16 C18 1_555 1_555
C23 C24 1_555 1_555
C27 C28 1_555 1_555

#END
