
#######################################################################
#
#                 Cambridge Crystallographic Data Centre
#                                CCDC 
#
#######################################################################
#
# If this CIF has been generated from an entry in the Cambridge 
# Structural Database, then it will include bibliographic, chemical, 
# crystal, experimental, refinement or atomic coordinate data resulting 
# from the CCDC's data processing and validation procedures.
#
#######################################################################

data_NESVEN
_chemical_compound_source        'Knoxia corymbosa(Rubaceae)'
_chemical_name_common            'Corymbosin K!1$'
_chemical_formula_moiety         'C16 H18 O9'
_chemical_name_systematic        
7-O-\b-D-Allopyranosyl-5-hydroxy-2-methylchromone
_symmetry_cell_setting           monoclinic
_symmetry_space_group_name_H-M   'P 21'
_symmetry_Int_Tables_number      4
_space_group_name_Hall           'P 2yb'
loop_
_symmetry_equiv_pos_site_id
_symmetry_equiv_pos_as_xyz
1 x,y,z
2 -x,1/2+y,-z
_cell_length_a                   9.3978(17)
_cell_length_b                   7.4895(14)
_cell_length_c                   11.596(2)
_cell_angle_alpha                90
_cell_angle_beta                 104.095(4)
_cell_angle_gamma                90
_cell_volume                     791.61
_exptl_crystal_colour            colorless
_exptl_crystal_description       needles
_chemical_melting_point          196-198deg.C
_cell_formula_units_Z            2
_exptl_crystal_recrystallization_method methanol
loop_
_atom_site_label
_atom_site_type_symbol
_atom_site_fract_x
_atom_site_fract_y
_atom_site_fract_z
O1 O 0.57657(17) 0.2236(3) 0.31890(15)
O2 O 0.4210(2) 0.6188(3) 0.4234(2)
O3 O 0.6789(2) 0.6689(3) 0.3464(2)
O4 O 0.9237(2) 0.4631(3) 0.4321(2)
O5 O 0.7959(2) -0.0021(3) 0.4337(2)
O6 O 0.33834(19) 0.3014(2) 0.30181(17)
O7 O 0.2979(2) 0.1938(4) -0.10773(19)
O8 O -0.12824(19) 0.2689(3) 0.04482(17)
O9 O 0.0333(2) 0.2002(4) -0.24873(17)
C1 C 0.7259(3) 0.2754(4) 0.3290(3)
C2 C 0.7824(3) 0.3969(4) 0.4359(3)
C3 C 0.6774(3) 0.5480(4) 0.4414(3)
C4 C 0.5226(3) 0.4753(5) 0.4281(3)
C5 C 0.4804(3) 0.3703(4) 0.3137(3)
C6 C 0.2559(3) 0.2742(4) 0.1877(3)
C7 C 0.3202(3) 0.2423(5) 0.0941(3)
C8 C 0.2324(3) 0.2253(5) -0.0190(3)
C9 C 0.0780(3) 0.2347(5) -0.0404(3)
C10 C 0.0209(3) 0.2594(5) 0.0582(3)
C11 C 0.1066(3) 0.2798(5) 0.1730(3)
C12 C -0.0167(3) 0.2237(5) -0.1596(3)
C13 C -0.1707(3) 0.2410(5) -0.1648(3)
C14 C -0.2191(3) 0.2593(5) -0.0675(3)
C15 C 0.8091(4) 0.1024(5) 0.3331(3)
C16 C -0.3762(4) 0.2659(8) -0.0616(4)
H1 H 0.731(3) 0.341(3) 0.257(2)
H2 H 0.794(2) 0.324(3) 0.510(2)
H3 H 0.703(3) 0.610(4) 0.518(2)
H4 H 0.521(3) 0.388(4) 0.499(3)
H5 H 0.488(2) 0.447(3) 0.2450(19)
H6 H 0.431(3) 0.239(4) 0.1072(19)
H7 H 0.057(2) 0.295(3) 0.2374(19)
H8 H -0.238(2) 0.228(3) -0.241(2)
H9 H 0.9164(17) 0.130(3) 0.339(2)
H10 H 0.773(3) 0.034(4) 0.261(2)
H11 H -0.392(3) 0.380(5) -0.027(3)
H12 H -0.435(3) 0.285(5) -0.136(3)
H13 H -0.396(4) 0.161(6) -0.013(3)
H14 H 0.366(4) 0.595(6) 0.474(3)
H15 H 0.717(4) 0.770(3) 0.379(3)
H16 H 0.915(3) 0.554(3) 0.384(2)
H17 H 0.887(2) -0.035(5) 0.466(3)
H18 H 0.233(4) 0.193(8) -0.178(3)
loop_
_geom_bond_atom_site_label_1
_geom_bond_atom_site_label_2
_geom_bond_site_symmetry_1
_geom_bond_site_symmetry_2
O1 C1 1_555 1_555
O2 C4 1_555 1_555
O3 C3 1_555 1_555
O4 C2 1_555 1_555
O5 C15 1_555 1_555
O6 C5 1_555 1_555
O7 C8 1_555 1_555
O8 C10 1_555 1_555
O9 C12 1_555 1_555
C1 C2 1_555 1_555
C2 C3 1_555 1_555
C3 C4 1_555 1_555
C4 C5 1_555 1_555
C5 O1 1_555 1_555
C6 O6 1_555 1_555
C7 C6 1_555 1_555
C8 C7 1_555 1_555
C9 C8 1_555 1_555
C10 C9 1_555 1_555
C11 C6 1_555 1_555
C12 C9 1_555 1_555
C13 C12 1_555 1_555
C14 O8 1_555 1_555
C15 C1 1_555 1_555
C16 C14 1_555 1_555
H1 C1 1_555 1_555
H2 C2 1_555 1_555
H3 C3 1_555 1_555
H4 C4 1_555 1_555
H5 C5 1_555 1_555
H6 C7 1_555 1_555
H7 C11 1_555 1_555
H8 C13 1_555 1_555
H9 C15 1_555 1_555
H10 C15 1_555 1_555
H11 C16 1_555 1_555
H12 C16 1_555 1_555
H13 C16 1_555 1_555
H14 O2 1_555 1_555
H15 O3 1_555 1_555
H16 O4 1_555 1_555
H17 O5 1_555 1_555
H18 O7 1_555 1_555
C10 C11 1_555 1_555
C13 C14 1_555 1_555

#END
