
#######################################################################
#
#                 Cambridge Crystallographic Data Centre
#                                CCDC 
#
#######################################################################
#
# If this CIF has been generated from an entry in the Cambridge 
# Structural Database, then it will include bibliographic, chemical, 
# crystal, experimental, refinement or atomic coordinate data resulting 
# from the CCDC's data processing and validation procedures.
#
#######################################################################

data_NESYOC
_chemical_compound_source        'Cladosporium sp. SCSIO41007'
_chemical_formula_moiety         'C28 H44 O5'
_chemical_name_systematic        
20,22,23,25-tetrahydroxyergosta-4,6-dien-3-one
_symmetry_cell_setting           monoclinic
_symmetry_space_group_name_H-M   'C 2'
_symmetry_Int_Tables_number      5
_space_group_name_Hall           'C 2y'
loop_
_symmetry_equiv_pos_site_id
_symmetry_equiv_pos_as_xyz
1 x,y,z
2 -x,y,-z
3 1/2+x,1/2+y,z
4 1/2-x,1/2+y,-z
_cell_length_a                   34.3335(3)
_cell_length_b                   5.99038(6)
_cell_length_c                   12.41062(11)
_cell_angle_alpha                90
_cell_angle_beta                 96.0408(8)
_cell_angle_gamma                90
_cell_volume                     2538.33
_exptl_crystal_colour            colorless
_exptl_crystal_description       needle
_cell_formula_units_Z            4
loop_
_atom_site_label
_atom_site_type_symbol
_atom_site_fract_x
_atom_site_fract_y
_atom_site_fract_z
O1 O 0.51021(4) 0.0897(3) 0.15562(12)
O2 O 0.81988(3) 0.8878(2) 0.19865(10)
H1 H 0.8411 0.9209 0.1783
O3 O 0.88613(4) 0.7026(2) 0.23037(11)
H2 H 0.9080 0.6634 0.2560
O4 O 0.83733(3) 0.2323(2) 0.34984(9)
H3 H 0.8281 0.1244 0.3154
O5 O 0.95512(4) 0.5274(2) 0.29320(11)
H4 H 0.9745 0.5436 0.2605
C1 C 0.59920(4) 0.3298(3) 0.07011(12)
H5 H 0.6063 0.4030 0.0052
H6 H 0.6132 0.1892 0.0775
C2 C 0.55525(5) 0.2824(4) 0.05670(14)
H7 H 0.5414 0.4180 0.0335
H8 H 0.5496 0.1713 0.0004
C3 C 0.54045(5) 0.2005(3) 0.15918(14)
C4 C 0.56272(5) 0.2581(3) 0.26200(14)
H9 H 0.5537 0.2083 0.3259
C5 C 0.59592(4) 0.3809(3) 0.26834(12)
C6 C 0.61659(5) 0.4362(3) 0.37373(13)
H10 H 0.6054 0.3936 0.4357
C7 C 0.65075(5) 0.5452(3) 0.38567(12)
H11 H 0.6617 0.5803 0.4553
C8 C 0.67210(4) 0.6133(3) 0.29165(12)
H12 H 0.6667 0.7714 0.2762
C9 C 0.65739(4) 0.4760(3) 0.19046(11)
H13 H 0.6650 0.3210 0.2067
C10 C 0.61209(4) 0.4766(3) 0.16833(12)
C11 C 0.67873(4) 0.5458(3) 0.09318(11)
H14 H 0.6721 0.6994 0.0743
H15 H 0.6699 0.4529 0.0314
C12 C 0.72355(4) 0.5242(3) 0.11737(12)
H16 H 0.7304 0.3679 0.1275
H17 H 0.7359 0.5784 0.0556
C13 C 0.73945(4) 0.6552(3) 0.21843(12)
C14 C 0.71645(4) 0.5821(3) 0.31378(11)
H18 H 0.7210 0.4216 0.3238
C15 C 0.73839(4) 0.6978(3) 0.41174(12)
H19 H 0.7346 0.6195 0.4783
H20 H 0.7297 0.8511 0.4175
C16 C 0.78184(4) 0.6878(3) 0.38814(12)
H21 H 0.7968 0.5910 0.4398
H22 H 0.7935 0.8355 0.3928
C17 C 0.78142(4) 0.5934(3) 0.27134(11)
H23 H 0.7813 0.4307 0.2794
C18 C 0.73525(5) 0.9071(3) 0.19530(13)
H24 H 0.7080 0.9451 0.1827
H25 H 0.7480 0.9437 0.1323
H26 H 0.7472 0.9896 0.2564
C19 C 0.59596(5) 0.7158(3) 0.15077(15)
H27 H 0.5680 0.7103 0.1349
H28 H 0.6072 0.7836 0.0912
H29 H 0.6026 0.8023 0.2152
C20 C 0.81796(4) 0.6468(3) 0.21392(12)
C21 C 0.81631(5) 0.5360(3) 0.10273(12)
H30 H 0.7976 0.6124 0.0529
H31 H 0.8086 0.3827 0.1084
H32 H 0.8417 0.5432 0.0769
C22 C 0.85719(5) 0.5858(3) 0.28362(12)
H33 H 0.8567 0.6470 0.3567
C23 C 0.86670(4) 0.3360(3) 0.29230(12)
H34 H 0.8650 0.2730 0.2191
C24 C 0.90726(4) 0.2745(3) 0.35301(13)
H35 H 0.9055 0.1153 0.3702
C25 C 0.91347(5) 0.3928(4) 0.46297(13)
H36 H 0.9208 0.5454 0.4525
H37 H 0.9339 0.3190 0.5083
H38 H 0.8896 0.3883 0.4970
C26 C 0.94350(5) 0.2957(3) 0.28943(14)
C27 C 0.93534(5) 0.2217(4) 0.17097(14)
H39 H 0.9172 0.3235 0.1328
H40 H 0.9243 0.0743 0.1681
H41 H 0.9594 0.2209 0.1379
C28 C 0.97721(6) 0.1545(5) 0.34317(19)
H42 H 0.9996 0.1693 0.3033
H43 H 0.9693 0.0008 0.3437
H44 H 0.9839 0.2047 0.4162
loop_
_geom_bond_atom_site_label_1
_geom_bond_atom_site_label_2
_geom_bond_site_symmetry_1
_geom_bond_site_symmetry_2
O1 C3 1_555 1_555
O2 H1 1_555 1_555
O3 H2 1_555 1_555
O4 H3 1_555 1_555
O5 H4 1_555 1_555
C1 H5 1_555 1_555
H6 C1 1_555 1_555
C2 C1 1_555 1_555
H7 C2 1_555 1_555
H8 C2 1_555 1_555
C3 C2 1_555 1_555
C4 C3 1_555 1_555
H9 C4 1_555 1_555
C5 C4 1_555 1_555
C6 C5 1_555 1_555
H10 C6 1_555 1_555
C7 C6 1_555 1_555
H11 C7 1_555 1_555
C8 C7 1_555 1_555
H12 C8 1_555 1_555
C9 C8 1_555 1_555
H13 C9 1_555 1_555
C10 C1 1_555 1_555
C11 C9 1_555 1_555
H14 C11 1_555 1_555
H15 C11 1_555 1_555
C12 C11 1_555 1_555
H16 C12 1_555 1_555
H17 C12 1_555 1_555
C13 C12 1_555 1_555
C14 C8 1_555 1_555
H18 C14 1_555 1_555
C15 C14 1_555 1_555
H19 C15 1_555 1_555
H20 C15 1_555 1_555
C16 C15 1_555 1_555
H21 C16 1_555 1_555
H22 C16 1_555 1_555
C17 C13 1_555 1_555
H23 C17 1_555 1_555
C18 C13 1_555 1_555
H24 C18 1_555 1_555
H25 C18 1_555 1_555
H26 C18 1_555 1_555
C19 C10 1_555 1_555
H27 C19 1_555 1_555
H28 C19 1_555 1_555
H29 C19 1_555 1_555
C20 O2 1_555 1_555
C21 C20 1_555 1_555
H30 C21 1_555 1_555
H31 C21 1_555 1_555
H32 C21 1_555 1_555
C22 O3 1_555 1_555
H33 C22 1_555 1_555
C23 O4 1_555 1_555
H34 C23 1_555 1_555
C24 C23 1_555 1_555
H35 C24 1_555 1_555
C25 C24 1_555 1_555
H36 C25 1_555 1_555
H37 C25 1_555 1_555
H38 C25 1_555 1_555
C26 O5 1_555 1_555
C27 C26 1_555 1_555
H39 C27 1_555 1_555
H40 C27 1_555 1_555
H41 C27 1_555 1_555
C28 C26 1_555 1_555
H42 C28 1_555 1_555
H43 C28 1_555 1_555
H44 C28 1_555 1_555
C5 C10 1_555 1_555
C9 C10 1_555 1_555
C13 C14 1_555 1_555
C16 C17 1_555 1_555
C17 C20 1_555 1_555
C20 C22 1_555 1_555
C22 C23 1_555 1_555
C24 C26 1_555 1_555

#END
