
#######################################################################
#
#                 Cambridge Crystallographic Data Centre
#                                CCDC 
#
#######################################################################
#
# If this CIF has been generated from an entry in the Cambridge 
# Structural Database, then it will include bibliographic, chemical, 
# crystal, experimental, refinement or atomic coordinate data resulting 
# from the CCDC's data processing and validation procedures.
#
#######################################################################

data_NETCEX
_chemical_formula_moiety         'C21 H21 N3 S1'
_chemical_name_systematic        
2-(1,2,3,4-tetrahydroquinolin-8-yl)-7-(thiophen-2-yl)-1,2,3,4-tetrahydro-1,8-naphthyridine
_symmetry_cell_setting           monoclinic
_symmetry_space_group_name_H-M   'P 21/c'
_symmetry_Int_Tables_number      14
_space_group_name_Hall           '-P 2ybc'
loop_
_symmetry_equiv_pos_site_id
_symmetry_equiv_pos_as_xyz
1 x,y,z
2 -x,1/2+y,1/2-z
3 -x,-y,-z
4 x,1/2-y,1/2+z
_cell_length_a                   10.8631(5)
_cell_length_b                   18.9129(9)
_cell_length_c                   9.0956(5)
_cell_angle_alpha                90
_cell_angle_beta                 111.169(2)
_cell_angle_gamma                90
_cell_volume                     1742.61
_exptl_crystal_colour            yellow
_exptl_crystal_description       block
_chemical_melting_point          '176-178 deg.C'
_cell_formula_units_Z            4
loop_
_atom_site_label
_atom_site_type_symbol
_atom_site_fract_x
_atom_site_fract_y
_atom_site_fract_z
S1 S 0.04675(7) 0.13565(4) 0.76682(9)
C1 C 0.8716(4) -0.0950(2) 1.6208(4)
H1 H 0.8190 -0.1342 1.6341
H2 H 0.9378 -0.1142 1.5834
C2 C 0.9358(4) -0.0623(2) 1.7693(4)
H3 H 1.0058 -0.0324 1.7616
H4 H 0.9769 -0.0989 1.8461
C3 C 0.8502(3) -0.01882(18) 1.8298(3)
H5 H 0.9051 0.0135 1.9094
H6 H 0.8055 -0.0496 1.8798
C4 C 0.7488(2) 0.02298(13) 1.7025(3)
C5 C 0.6811(3) 0.07819(14) 1.7399(3)
H7 H 0.7009 0.0899 1.8453
C6 C 0.5856(3) 0.11604(15) 1.6257(3)
H8 H 0.5403 0.1523 1.6533
C7 C 0.5581(2) 0.09928(13) 1.4694(3)
H9 H 0.4929 0.1244 1.3918
C8 C 0.6246(2) 0.04626(12) 1.4251(3)
C9 C 0.7197(2) 0.00654(13) 1.5428(3)
C10 C 0.5988(2) 0.03066(14) 1.2532(3)
H10 H 0.5985 -0.0208 1.2410
C11 C 0.7081(3) 0.06039(15) 1.2018(3)
H11 H 0.7934 0.0505 1.2826
H12 H 0.7050 0.0372 1.1055
C12 C 0.6932(3) 0.13979(15) 1.1743(3)
H13 H 0.7044 0.1636 1.2728
H14 H 0.7610 0.1568 1.1370
C13 C 0.5595(2) 0.15680(14) 1.0550(3)
C14 C 0.4523(2) 0.11376(13) 1.0507(3)
C15 C 0.5321(3) 0.21109(14) 0.9483(3)
H15 H 0.6005 0.2400 0.9453
C16 C 0.4051(3) 0.22389(14) 0.8449(3)
H16 H 0.3875 0.2607 0.7723
C17 C 0.3047(2) 0.18050(12) 0.8522(3)
C18 C 0.1669(2) 0.19085(12) 0.7497(3)
C19 C 0.1122(3) 0.24049(14) 0.6327(3)
H17 H 0.1606 0.2750 0.6047
C20 C -0.0267(3) 0.23255(16) 0.5605(4)
H18 H -0.0793 0.2615 0.4795
C21 C -0.0743(3) 0.17915(17) 0.6207(4)
H19 H -0.1633 0.1671 0.5867
N1 N 0.7874(2) -0.04771(12) 1.5031(3)
H20 H 0.7791 -0.0533 1.4062
N2 N 0.4719(2) 0.05693(12) 1.1482(3)
H21 H 0.4029 0.0345 1.1476
N3 N 0.32789(19) 0.12562(11) 0.9536(2)
loop_
_geom_bond_atom_site_label_1
_geom_bond_atom_site_label_2
_geom_bond_site_symmetry_1
_geom_bond_site_symmetry_2
S1 C18 1_555 1_555
C1 H1 1_555 1_555
H2 C1 1_555 1_555
C2 C1 1_555 1_555
H3 C2 1_555 1_555
H4 C2 1_555 1_555
C3 C2 1_555 1_555
H5 C3 1_555 1_555
H6 C3 1_555 1_555
C4 C3 1_555 1_555
C5 C4 1_555 1_555
H7 C5 1_555 1_555
C6 C5 1_555 1_555
H8 C6 1_555 1_555
C7 C6 1_555 1_555
H9 C7 1_555 1_555
C8 C7 1_555 1_555
C9 C4 1_555 1_555
C10 C8 1_555 1_555
H10 C10 1_555 1_555
C11 C10 1_555 1_555
H11 C11 1_555 1_555
H12 C11 1_555 1_555
C12 C11 1_555 1_555
H13 C12 1_555 1_555
H14 C12 1_555 1_555
C13 C12 1_555 1_555
C14 C13 1_555 1_555
C15 C13 1_555 1_555
H15 C15 1_555 1_555
C16 C15 1_555 1_555
H16 C16 1_555 1_555
C17 C16 1_555 1_555
C18 C17 1_555 1_555
C19 C18 1_555 1_555
H17 C19 1_555 1_555
C20 C19 1_555 1_555
H18 C20 1_555 1_555
C21 S1 1_555 1_555
H19 C21 1_555 1_555
N1 C1 1_555 1_555
H20 N1 1_555 1_555
N2 C10 1_555 1_555
H21 N2 1_555 1_555
N3 C14 1_555 1_555
C8 C9 1_555 1_555
C9 N1 1_555 1_555
C14 N2 1_555 1_555
C17 N3 1_555 1_555
C20 C21 1_555 1_555

#END
