
#######################################################################
#
#                 Cambridge Crystallographic Data Centre
#                                CCDC 
#
#######################################################################
#
# If this CIF has been generated from an entry in the Cambridge 
# Structural Database, then it will include bibliographic, chemical, 
# crystal, experimental, refinement or atomic coordinate data resulting 
# from the CCDC's data processing and validation procedures.
#
#######################################################################

data_NETFOK
_chemical_formula_moiety         'C50 H33 Br1 N4 O1'
_chemical_name_systematic        
9,9'-{[2-(4-bromophenoxy)pyrimidine-4,6-diyl]bis[(ethene-2,1-diyl)-4,1-phenylene]}bis(9H-carbazole)
_symmetry_cell_setting           triclinic
_symmetry_space_group_name_H-M   'P -1'
_symmetry_Int_Tables_number      2
_space_group_name_Hall           '-P 1'
loop_
_symmetry_equiv_pos_site_id
_symmetry_equiv_pos_as_xyz
1 x,y,z
2 -x,-y,-z
_cell_length_a                   11.0721(5)
_cell_length_b                   13.2330(6)
_cell_length_c                   15.0958(7)
_cell_angle_alpha                113.641(2)
_cell_angle_beta                 106.436(2)
_cell_angle_gamma                91.470(2)
_cell_volume                     1918.86
_exptl_crystal_colour            green
_exptl_crystal_description       columnar
_cell_formula_units_Z            2
loop_
_atom_site_label
_atom_site_type_symbol
_atom_site_fract_x
_atom_site_fract_y
_atom_site_fract_z
Br1 Br 0.75831(6) 0.80543(4) 0.99203(3)
N1 N 1.2810(3) 0.6337(2) 0.0393(2)
N2 N 0.2699(2) 0.0519(2) 0.5054(2)
N3 N 0.7991(2) 0.5433(2) 0.5295(2)
O1 O 0.9269(2) 0.7153(2) 0.62419(19)
N4 N 0.9382(3) 0.6185(2) 0.4680(2)
C1 C 1.4330(4) 0.4367(4) -0.1792(3)
H1 H 1.4701 0.3957 -0.2278
C2 C 1.4257(4) 0.5465(4) -0.1583(3)
H2 H 1.4572 0.5800 -0.1926
C3 C 1.3705(3) 0.6078(3) -0.0850(2)
C4 C 1.3245(3) 0.5546(3) -0.0339(2)
C5 C 1.2332(3) 0.6155(3) 0.1112(2)
C6 C 1.1447(3) 0.5226(3) 0.0799(3)
H3 H 1.1201 0.4688 0.0126
C7 C 1.0924(3) 0.5094(3) 0.1486(3)
H4 H 1.0338 0.4461 0.1273
C8 C 1.1265(3) 0.5897(3) 0.2493(2)
C9 C 1.0635(3) 0.5860(3) 0.3215(3)
H5 H 1.1014 0.6366 0.3893
C10 C 0.9584(3) 0.5186(3) 0.3014(3)
H6 H 0.9196 0.4649 0.2349
C11 C 0.9015(3) 0.5258(3) 0.3796(3)
C12 C 0.8120(3) 0.4392(3) 0.3635(3)
H7 H 0.7859 0.3753 0.3021
C13 C 0.7632(3) 0.4503(3) 0.4408(2)
C14 C 0.6710(3) 0.3616(3) 0.4312(2)
H8 H 0.6525 0.2934 0.3741
C15 C 0.6131(3) 0.3738(3) 0.4994(2)
H9 H 0.6307 0.4439 0.5541
C16 C 0.5244(3) 0.2893(2) 0.4986(2)
C17 C 0.4500(3) 0.3216(3) 0.5624(2)
H10 H 0.4577 0.3969 0.6052
C18 C 0.3648(3) 0.2448(2) 0.5638(2)
H11 H 0.3143 0.2686 0.6058
C19 C 0.3547(3) 0.1323(2) 0.5026(2)
C20 C 0.1666(3) -0.0193(3) 0.4224(3)
C21 C 0.1223(4) -0.0249(3) 0.3255(3)
H12 H 0.1630 0.0212 0.3062
C22 C 0.0150(4) -0.1015(4) 0.2583(3)
H13 H -0.0170 -0.1076 0.1920
C23 C -0.0463(4) -0.1697(3) 0.2876(4)
H14 H -0.1178 -0.2213 0.2402
C24 C 1.3456(4) 0.9135(4) -0.0084(4)
H15 H 1.3621 0.9746 -0.0214
C25 C 1.2881(4) 0.9248(4) 0.0652(4)
H16 H 1.2657 0.9935 0.0999
C26 C 1.2632(4) 0.8371(3) 0.0882(3)
H17 H 1.2252 0.8455 0.1379
C27 C 1.2971(3) 0.7358(3) 0.0341(3)
C28 C 1.3524(3) 0.7221(3) -0.0424(3)
C29 C 1.3778(4) 0.8139(4) -0.0615(3)
H18 H 1.4166 0.8070 -0.1103
C30 C 1.2730(3) 0.6924(3) 0.2123(3)
H19 H 1.3358 0.7532 0.2346
C31 C 1.2201(3) 0.6795(3) 0.2802(2)
H20 H 1.2477 0.7320 0.3480
C32 C 0.5122(3) 0.1758(3) 0.4365(3)
H21 H 0.5611 0.1520 0.3931
C33 C 0.4287(3) 0.0984(3) 0.4385(3)
H22 H 0.4219 0.0229 0.3967
C34 C -0.0037(3) -0.1629(3) 0.3846(4)
H23 H -0.0470 -0.2076 0.4038
C35 C 0.1062(3) -0.0871(2) 0.4545(3)
C36 C 0.1777(3) -0.0581(2) 0.5595(3)
C37 C 0.1674(4) -0.0976(3) 0.6301(3)
H24 H 0.1024 -0.1549 0.6123
C38 C 0.2540(4) -0.0509(4) 0.7259(4)
H25 H 0.2476 -0.0771 0.7733
C39 C 0.3521(4) 0.0354(3) 0.7542(3)
H26 H 0.4098 0.0656 0.8201
C40 C 0.3647(3) 0.0766(3) 0.6861(3)
H27 H 0.4297 0.1343 0.7049
C41 C 0.2771(3) 0.0290(2) 0.5887(2)
C42 C 0.8831(3) 0.6196(3) 0.5355(3)
C43 C 0.8838(3) 0.7329(3) 0.7062(3)
C44 C 0.7572(4) 0.7217(3) 0.6973(3)
H28 H 0.6954 0.6990 0.6338
C45 C 0.7215(4) 0.7443(3) 0.7831(3)
H29 H 0.6354 0.7354 0.7768
C46 C 0.8104(4) 0.7792(3) 0.8761(3)
C47 C 0.9361(4) 0.7941(4) 0.8859(3)
H30 H 0.9972 0.8198 0.9501
C48 C 0.9734(4) 0.7712(3) 0.8007(3)
H31 H 1.0595 0.7818 0.8076
C49 C 1.3310(3) 0.4437(3) -0.0556(3)
H32 H 1.2997 0.4091 -0.0220
C50 C 1.3858(4) 0.3860(3) -0.1290(3)
H33 H 1.3912 0.3110 -0.1451
loop_
_geom_bond_atom_site_label_1
_geom_bond_atom_site_label_2
_geom_bond_site_symmetry_1
_geom_bond_site_symmetry_2
Br1 C46 1_555 1_555
N1 C4 1_555 1_555
N2 C19 1_555 1_555
N3 C13 1_555 1_555
O1 C42 1_555 1_555
N4 C11 1_555 1_555
C1 H1 1_555 1_555
C2 C1 1_555 1_555
H2 C2 1_555 1_555
C3 C2 1_555 1_555
C4 C3 1_555 1_555
C5 N1 1_555 1_555
C6 C5 1_555 1_555
H3 C6 1_555 1_555
C7 C6 1_555 1_555
H4 C7 1_555 1_555
C8 C7 1_555 1_555
C9 C8 1_555 1_555
H5 C9 1_555 1_555
C10 C9 1_555 1_555
H6 C10 1_555 1_555
C11 C10 1_555 1_555
C12 C11 1_555 1_555
H7 C12 1_555 1_555
C13 C12 1_555 1_555
C14 C13 1_555 1_555
H8 C14 1_555 1_555
C15 C14 1_555 1_555
H9 C15 1_555 1_555
C16 C15 1_555 1_555
C17 C16 1_555 1_555
H10 C17 1_555 1_555
C18 C17 1_555 1_555
H11 C18 1_555 1_555
C19 C18 1_555 1_555
C20 N2 1_555 1_555
C21 C20 1_555 1_555
H12 C21 1_555 1_555
C22 C21 1_555 1_555
H13 C22 1_555 1_555
C23 C22 1_555 1_555
H14 C23 1_555 1_555
C24 H15 1_555 1_555
C25 C24 1_555 1_555
H16 C25 1_555 1_555
C26 C25 1_555 1_555
H17 C26 1_555 1_555
C27 N1 1_555 1_555
C28 C3 1_555 1_555
C29 C24 1_555 1_555
H18 C29 1_555 1_555
C30 C5 1_555 1_555
H19 C30 1_555 1_555
C31 C8 1_555 1_555
H20 C31 1_555 1_555
C32 C16 1_555 1_555
H21 C32 1_555 1_555
C33 C19 1_555 1_555
H22 C33 1_555 1_555
C34 C23 1_555 1_555
H23 C34 1_555 1_555
C35 C20 1_555 1_555
C36 C35 1_555 1_555
C37 C36 1_555 1_555
H24 C37 1_555 1_555
C38 C37 1_555 1_555
H25 C38 1_555 1_555
C39 C38 1_555 1_555
H26 C39 1_555 1_555
C40 C39 1_555 1_555
H27 C40 1_555 1_555
C41 N2 1_555 1_555
C42 N3 1_555 1_555
C43 O1 1_555 1_555
C44 C43 1_555 1_555
H28 C44 1_555 1_555
C45 C44 1_555 1_555
H29 C45 1_555 1_555
C46 C45 1_555 1_555
C47 C46 1_555 1_555
H30 C47 1_555 1_555
C48 C43 1_555 1_555
H31 C48 1_555 1_555
C49 C4 1_555 1_555
H32 C49 1_555 1_555
C50 C1 1_555 1_555
H33 C50 1_555 1_555
N4 C42 1_555 1_555
C26 C27 1_555 1_555
C27 C28 1_555 1_555
C28 C29 1_555 1_555
C30 C31 1_555 1_555
C32 C33 1_555 1_555
C34 C35 1_555 1_555
C36 C41 1_555 1_555
C40 C41 1_555 1_555
C47 C48 1_555 1_555
C49 C50 1_555 1_555

#END
