
#######################################################################
#
#                 Cambridge Crystallographic Data Centre
#                                CCDC 
#
#######################################################################
#
# If this CIF has been generated from an entry in the Cambridge 
# Structural Database, then it will include bibliographic, chemical, 
# crystal, experimental, refinement or atomic coordinate data resulting 
# from the CCDC's data processing and validation procedures.
#
#######################################################################

data_NETGOL
_chemical_formula_moiety         'C42 H69 O8 Rb1,C4 H8 O1'
_chemical_name_systematic        
"(2,2'-(ethane-1,1-diyl)bis(4,6-di-t-butylphenolato))-(18-crown-6)-rubidium tetrahydrofuran solvate"
_symmetry_cell_setting           tetragonal
_symmetry_space_group_name_H-M   'P -4 21 c'
_symmetry_Int_Tables_number      114
_space_group_name_Hall           'P -4 2n'
loop_
_symmetry_equiv_pos_site_id
_symmetry_equiv_pos_as_xyz
1 x,y,z
2 -x,-y,z
3 y,-x,-z
4 -y,x,-z
5 1/2-x,1/2+y,1/2-z
6 1/2+x,1/2-y,1/2-z
7 1/2-y,1/2-x,1/2+z
8 1/2+y,1/2+x,1/2+z
_cell_length_a                   24.6439(4)
_cell_length_b                   24.6439(4)
_cell_length_c                   17.9545(5)
_cell_angle_alpha                90
_cell_angle_beta                 90
_cell_angle_gamma                90
_cell_volume                     10904.2
_exptl_crystal_description       block
_cell_formula_units_Z            8
_chemical_properties_physical    
', Air-sensitive,Moisture-sensitive,Oxygen-sensitive'
_exptl_crystal_recrystallization_method tetrahydrofuran/toluene
loop_
_atom_site_label
_atom_site_type_symbol
_atom_site_fract_x
_atom_site_fract_y
_atom_site_fract_z
Rb1 Rb 0.66861(3) 0.66711(3) 1.07812(4)
O1 O 0.7631(2) 0.6828(2) 1.1837(3)
O2 O 0.6190(2) 0.5574(2) 1.0960(3)
O3 O 0.6906(3) 0.7689(3) 1.1673(5)
O4 O 0.7153(2) 0.5794(2) 1.1752(3)
C1 C 0.6462(3) 0.5176(3) 1.1395(5)
H1 H 0.6390 0.4818 1.1197
H2 H 0.6330 0.5189 1.1904
C2 C 0.7051(3) 0.5285(3) 1.1381(5)
H3 H 0.7244 0.4995 1.1632
H4 H 0.7177 0.5302 1.0870
O5 O 0.7052(2) 0.6365(2) 0.9322(3)
O6 O 0.6371(2) 0.7064(2) 0.9118(3)
H5 H 0.6709 0.6828 0.9223
C3 C 0.6616(5) 0.8089(5) 1.1393(8)
H6 H 0.6701 0.8130 1.0868
H7 H 0.6710 0.8424 1.1643
C4 C 0.6033(4) 0.7990(4) 1.1476(6)
H8 H 0.5942 0.7968 1.2000
H9 H 0.5832 0.8290 1.1261
C5 C 0.7706(4) 0.7334(4) 1.2196(6)
H10 H 0.8089 0.7395 1.2287
H11 H 0.7518 0.7336 1.2671
C6 C 0.7486(4) 0.7765(4) 1.1705(7)
H12 H 0.7572 0.8121 1.1907
H13 H 0.7643 0.7737 1.1211
C7 C 0.7711(3) 0.5870(3) 1.1921(5)
H14 H 0.7924 0.5871 1.1467
H15 H 0.7840 0.5578 1.2237
C8 C 0.6187(3) 0.7141(4) 0.8428(5)
C9 C 0.8218(3) 0.6258(3) 0.9220(5)
C10 C 0.8814(3) 0.6164(4) 0.8998(5)
H16 H 0.8874 0.5784 0.8914
H17 H 0.9047 0.6288 0.9392
H18 H 0.8893 0.6363 0.8551
C11 C 0.8155(4) 0.6862(3) 0.9416(5)
H19 H 0.8287 0.7080 0.9011
H20 H 0.8361 0.6941 0.9857
H21 H 0.7780 0.6943 0.9503
C12 C 0.8111(4) 0.5924(4) 0.9913(5)
H22 H 0.7740 0.5969 1.0063
H23 H 0.8346 0.6044 1.0307
H24 H 0.8180 0.5548 0.9809
C13 C 0.7665(3) 0.5771(3) 0.7314(5)
C14 C 0.7121(3) 0.5857(3) 0.7427(4)
H25 H 0.6882 0.5782 0.7039
C15 C 0.7826(4) 0.6097(3) 0.8601(4)
C16 C 0.6913(3) 0.6049(3) 0.8088(5)
C17 C 0.7261(3) 0.6179(3) 0.8686(4)
C18 C 0.8019(4) 0.5886(3) 0.7918(4)
H26 H 0.8389 0.5821 0.7863
C19 C 0.7770(4) 0.6398(4) 1.2311(5)
H27 H 0.7536 0.6403 1.2746
H28 H 0.8142 0.6441 1.2478
O7 O 0.5884(2) 0.7500(2) 1.1116(3)
C20 C 0.5613(3) 0.5516(4) 1.1008(5)
H29 H 0.5499 0.5524 1.1525
H30 H 0.5502 0.5172 1.0794
C21 C 0.5206(3) 0.6928(3) 1.0657(5)
H31 H 0.4818 0.6868 1.0617
H32 H 0.5351 0.6991 1.0162
C22 C 0.5319(3) 0.7399(3) 1.1145(5)
H33 H 0.5119 0.7714 1.0973
H34 H 0.5208 0.7320 1.1652
C23 C 0.5357(3) 0.5970(4) 1.0594(5)
H35 H 0.5507 0.5991 1.0095
H36 H 0.4969 0.5912 1.0555
O8 O 0.5464(2) 0.6463(2) 1.0990(3)
C24 C 0.6296(3) 0.6128(3) 0.8182(5)
H37 H 0.6223 0.6104 0.8717
C25 C 0.6113(3) 0.6684(4) 0.7939(5)
C26 C 0.5884(3) 0.6780(4) 0.7249(4)
H38 H 0.5846 0.6488 0.6925
C27 C 0.6037(3) 0.7662(3) 0.8185(5)
C28 C 0.5707(3) 0.7285(4) 0.7010(5)
C29 C 0.5792(3) 0.7713(4) 0.7493(5)
H39 H 0.5677 0.8056 0.7345
C30 C 0.6131(4) 0.8166(3) 0.8696(6)
C31 C 0.5968(4) 0.8686(3) 0.8316(6)
H40 H 0.5584 0.8684 0.8226
H41 H 0.6158 0.8717 0.7850
H42 H 0.6060 0.8989 0.8628
C32 C 0.6744(4) 0.8200(4) 0.8897(6)
H43 H 0.6800 0.8483 0.9257
H44 H 0.6950 0.8280 0.8456
H45 H 0.6862 0.7860 0.9101
C33 C 0.5799(4) 0.8112(4) 0.9414(5)
H46 H 0.5862 0.8422 0.9725
H47 H 0.5907 0.7789 0.9674
H48 H 0.5420 0.8090 0.9293
C34 C 0.7907(4) 0.5549(3) 0.6586(5)
C35 C 0.7506(5) 0.5573(6) 0.5953(6)
H49 H 0.7195 0.5355 0.6071
H50 H 0.7674 0.5437 0.5507
H51 H 0.7395 0.5942 0.5876
C36 C 0.8073(5) 0.4959(4) 0.6697(6)
H52 H 0.8317 0.4933 0.7113
H53 H 0.8251 0.4829 0.6256
H54 H 0.7756 0.4743 0.6792
C37 C 0.8401(4) 0.5893(5) 0.6341(5)
H55 H 0.8283 0.6251 0.6208
H56 H 0.8572 0.5725 0.5920
H57 H 0.8656 0.5916 0.6745
C38 C 0.5984(3) 0.5660(3) 0.7817(5)
H58 H 0.5605 0.5692 0.7936
H59 H 0.6119 0.5320 0.8000
H60 H 0.6030 0.5676 0.7287
C39 C 0.5426(4) 0.7362(5) 0.6247(5)
C40 C 0.5263(6) 0.7963(6) 0.6117(8)
H61 H 0.5582 0.8172 0.6006
H62 H 0.5093 0.8104 0.6558
H63 H 0.5014 0.7985 0.5707
C41 C 0.5804(7) 0.7206(7) 0.5643(7)
H64 H 0.5639 0.7279 0.5169
H65 H 0.5885 0.6826 0.5680
H66 H 0.6133 0.7411 0.5688
C42 C 0.4919(6) 0.7011(7) 0.6252(9)
H67 H 0.4724 0.7061 0.5794
H68 H 0.4692 0.7113 0.6663
H69 H 0.5021 0.6636 0.6301
O9 O 0.5734(16) 0.610(2) 0.341(3)
C46 C 0.5892(16) 0.6392(15) 0.2884(14)
H79 H 0.5583 0.6595 0.2699
H80 H 0.6014 0.6157 0.2484
C47 C 0.6417(13) 0.6695(17) 0.3815(19)
H81 H 0.6319 0.7016 0.4099
H82 H 0.6794 0.6612 0.3915
C48 C 0.6346(13) 0.6794(11) 0.306(2)
H83 H 0.6672 0.6715 0.2776
H84 H 0.6235 0.7166 0.2965
C49 C 0.609(2) 0.6257(12) 0.4032(13)
H85 H 0.5870 0.6359 0.4458
H86 H 0.6315 0.5952 0.4174
C43? C 0.571(2) 0.772(2) 0.574(3)
H70? H 0.5992 0.7909 0.6003
H71? H 0.5460 0.7979 0.5534
H72? H 0.5868 0.7512 0.5343
C44? C 0.4830(18) 0.756(2) 0.629(3)
H73? H 0.4645 0.7475 0.5838
H74? H 0.4825 0.7947 0.6370
H75? H 0.4651 0.7385 0.6703
C45? C 0.536(2) 0.680(2) 0.577(3)
H76? H 0.5318 0.6889 0.5250
H77? H 0.5044 0.6609 0.5938
H78? H 0.5675 0.6580 0.5835
loop_
_geom_bond_atom_site_label_1
_geom_bond_atom_site_label_2
_geom_bond_site_symmetry_1
_geom_bond_site_symmetry_2
Rb1 O1 1_555 1_555
O1 C5 1_555 1_555
O2 Rb1 1_555 1_555
O3 Rb1 1_555 1_555
O4 Rb1 1_555 1_555
C1 O2 1_555 1_555
H1 C1 1_555 1_555
H2 C1 1_555 1_555
C2 O4 1_555 1_555
H3 C2 1_555 1_555
H4 C2 1_555 1_555
O5 Rb1 1_555 1_555
O6 Rb1 1_555 1_555
H5 O6 1_555 1_555
C3 O3 1_555 1_555
H6 C3 1_555 1_555
H7 C3 1_555 1_555
C4 C3 1_555 1_555
H8 C4 1_555 1_555
H9 C4 1_555 1_555
C5 H10 1_555 1_555
H11 C5 1_555 1_555
C6 O3 1_555 1_555
H12 C6 1_555 1_555
H13 C6 1_555 1_555
C7 O4 1_555 1_555
H14 C7 1_555 1_555
H15 C7 1_555 1_555
C8 O6 1_555 1_555
C9 C10 1_555 1_555
C10 H16 1_555 1_555
H17 C10 1_555 1_555
H18 C10 1_555 1_555
C11 C9 1_555 1_555
H19 C11 1_555 1_555
H20 C11 1_555 1_555
H21 C11 1_555 1_555
C12 C9 1_555 1_555
H22 C12 1_555 1_555
H23 C12 1_555 1_555
H24 C12 1_555 1_555
C13 C14 1_555 1_555
C14 H25 1_555 1_555
C15 C9 1_555 1_555
C16 C14 1_555 1_555
C17 O5 1_555 1_555
C18 C13 1_555 1_555
H26 C18 1_555 1_555
C19 O1 1_555 1_555
H27 C19 1_555 1_555
H28 C19 1_555 1_555
O7 Rb1 1_555 1_555
C20 O2 1_555 1_555
H29 C20 1_555 1_555
H30 C20 1_555 1_555
C21 H31 1_555 1_555
H32 C21 1_555 1_555
C22 O7 1_555 1_555
H33 C22 1_555 1_555
H34 C22 1_555 1_555
C23 C20 1_555 1_555
H35 C23 1_555 1_555
H36 C23 1_555 1_555
O8 Rb1 1_555 1_555
C24 C16 1_555 1_555
H37 C24 1_555 1_555
C25 C8 1_555 1_555
C26 C25 1_555 1_555
H38 C26 1_555 1_555
C27 C8 1_555 1_555
C28 C26 1_555 1_555
C29 C27 1_555 1_555
H39 C29 1_555 1_555
C30 C27 1_555 1_555
C31 C30 1_555 1_555
H40 C31 1_555 1_555
H41 C31 1_555 1_555
H42 C31 1_555 1_555
C32 C30 1_555 1_555
H43 C32 1_555 1_555
H44 C32 1_555 1_555
H45 C32 1_555 1_555
C33 C30 1_555 1_555
H46 C33 1_555 1_555
H47 C33 1_555 1_555
H48 C33 1_555 1_555
C34 C13 1_555 1_555
C35 C34 1_555 1_555
H49 C35 1_555 1_555
H50 C35 1_555 1_555
H51 C35 1_555 1_555
C36 C34 1_555 1_555
H52 C36 1_555 1_555
H53 C36 1_555 1_555
H54 C36 1_555 1_555
C37 C34 1_555 1_555
H55 C37 1_555 1_555
H56 C37 1_555 1_555
H57 C37 1_555 1_555
C38 C24 1_555 1_555
H58 C38 1_555 1_555
H59 C38 1_555 1_555
H60 C38 1_555 1_555
C39 C28 1_555 1_555
C40 C39 1_555 1_555
H61 C40 1_555 1_555
H62 C40 1_555 1_555
H63 C40 1_555 1_555
C41 C39 1_555 1_555
H64 C41 1_555 1_555
H65 C41 1_555 1_555
H66 C41 1_555 1_555
C42 C39 1_555 1_555
H67 C42 1_555 1_555
H68 C42 1_555 1_555
H69 C42 1_555 1_555
O9 C46 1_555 1_555
C46 H79 1_555 1_555
H80 C46 1_555 1_555
C47 H81 1_555 1_555
H82 C47 1_555 1_555
C48 C46 1_555 1_555
H83 C48 1_555 1_555
H84 C48 1_555 1_555
C49 O9 1_555 1_555
H85 C49 1_555 1_555
H86 C49 1_555 1_555
C1 C2 1_555 1_555
C4 O7 1_555 1_555
C5 C6 1_555 1_555
C7 C19 1_555 1_555
C15 C17 1_555 1_555
C15 C18 1_555 1_555
C16 C17 1_555 1_555
C21 C22 1_555 1_555
C21 O8 1_555 1_555
C23 O8 1_555 1_555
C24 C25 1_555 1_555
C28 C29 1_555 1_555
C47 C48 1_555 1_555
C47 C49 1_555 1_555

#END
