
#######################################################################
#
#                 Cambridge Crystallographic Data Centre
#                                CCDC 
#
#######################################################################
#
# If this CIF has been generated from an entry in the Cambridge 
# Structural Database, then it will include bibliographic, chemical, 
# crystal, experimental, refinement or atomic coordinate data resulting 
# from the CCDC's data processing and validation procedures.
#
#######################################################################

data_NETGEB
_chemical_formula_moiety         'C42 H69 Na1 O8'
_chemical_name_systematic        
(2,2'-(ethane-1,1-diyl)bis(4,6-di-t-butylphenolato))-(18-crown-6)-sodium
_symmetry_cell_setting           monoclinic
_symmetry_space_group_name_H-M   'P 21/c'
_symmetry_Int_Tables_number      14
_space_group_name_Hall           '-P 2ybc'
loop_
_symmetry_equiv_pos_site_id
_symmetry_equiv_pos_as_xyz
1 x,y,z
2 -x,1/2+y,1/2-z
3 -x,-y,-z
4 x,1/2-y,1/2+z
_cell_length_a                   11.8920(4)
_cell_length_b                   20.4860(6)
_cell_length_c                   18.4617(7)
_cell_angle_alpha                90
_cell_angle_beta                 107.825(4)
_cell_angle_gamma                90
_cell_volume                     4281.73
_exptl_crystal_colour            colorless
_exptl_crystal_description       block
_cell_formula_units_Z            4
_chemical_properties_physical    
', Air-sensitive,Moisture-sensitive,Oxygen-sensitive'
_exptl_crystal_recrystallization_method toluene
_exptl_crystal_preparation       toluene
loop_
_atom_site_label
_atom_site_type_symbol
_atom_site_fract_x
_atom_site_fract_y
_atom_site_fract_z
Na1 Na 0.76622(9) 0.30530(5) 1.01229(5)
O1 O 0.69412(13) 0.31289(8) 0.88388(9)
O2 O 0.88935(14) 0.34246(8) 0.86465(10)
H1 H 0.8224 0.3409 0.8683
O3 O 0.86001(18) 0.19456(9) 0.98590(11)
O4 O 0.98186(17) 0.31009(10) 1.03960(11)
O5 O 0.59980(17) 0.29665(10) 1.06271(12)
O6 O 0.78338(18) 0.20837(10) 1.10969(12)
O7 O 0.8636(2) 0.40620(10) 1.08387(11)
C1 C 0.89876(19) 0.39466(11) 0.82192(13)
C2 C 0.81819(19) 0.44640(11) 0.80865(12)
C3 C 0.61053(19) 0.33579(11) 0.82366(13)
O8 O 0.6279(2) 0.41440(11) 1.00666(13)
C4 C 0.61880(18) 0.40115(11) 0.80016(13)
C5 C 0.82833(19) 0.49709(11) 0.76061(13)
H2 H 0.7728 0.5305 0.7504
C6 C 0.91893(19) 0.49932(11) 0.72737(13)
C7 C 0.9338(2) 0.55429(11) 0.67456(13)
C8 C 0.71934(19) 0.44449(11) 0.84547(13)
H3 H 0.7525 0.4236 0.8952
C9 C 0.99588(19) 0.39681(11) 0.79287(13)
C10 C 0.5151(2) 0.29699(11) 0.78022(13)
C11 C 0.53900(19) 0.42472(12) 0.73410(13)
H4 H 0.5483 0.4672 0.7190
C12 C 1.00152(19) 0.44895(11) 0.74627(13)
H5 H 1.0645 0.4504 0.7263
C13 C 0.43543(19) 0.32458(12) 0.71495(13)
H6 H 0.3720 0.2993 0.6871
C14 C 1.0907(2) 0.34323(12) 0.81225(15)
C15 C 0.4997(2) 0.22608(11) 0.80298(15)
C16 C 1.0507(2) 0.59052(12) 0.71050(15)
H7 H 1.0509 0.6089 0.7584
H8 H 1.0590 0.6248 0.6770
H9 H 1.1154 0.5605 0.7185
C17 C 1.1476(2) 0.33951(14) 0.89876(16)
H10 H 1.1897 0.3793 0.9166
H11 H 1.2015 0.3033 0.9110
H12 H 1.0873 0.3336 0.9228
C18 C 0.4457(2) 0.38782(13) 0.68937(13)
C19 C 0.9357(2) 0.52534(12) 0.59847(14)
H13 H 0.9973 0.4933 0.6073
H14 H 0.9499 0.5595 0.5667
H15 H 0.8609 0.5051 0.5737
C20 C 0.8324(2) 0.60376(12) 0.65859(15)
H16 H 0.7588 0.5818 0.6356
H17 H 0.8437 0.6368 0.6246
H18 H 0.8313 0.6236 0.7055
C21 C 1.1901(2) 0.35722(15) 0.77759(19)
H19 H 1.1580 0.3588 0.7232
H20 H 1.2483 0.3232 0.7918
H21 H 1.2261 0.3984 0.7961
C22 C 0.6764(2) 0.51239(11) 0.86063(15)
H22 H 0.7421 0.5374 0.8912
H23 H 0.6187 0.5078 0.8871
H24 H 0.6414 0.5344 0.8131
C23 C 0.3607(2) 0.41731(14) 0.61696(15)
C24 C 0.3910(2) 0.19246(13) 0.74810(17)
H25 H 0.3209 0.2159 0.7477
H26 H 0.3859 0.1484 0.7646
H27 H 0.3985 0.1921 0.6978
C25 C 1.0358(3) 0.27743(13) 0.78093(17)
H28 H 0.9757 0.2663 0.8036
H29 H 1.0959 0.2444 0.7928
H30 H 1.0014 0.2804 0.7267
C26 C 0.5850(3) 0.24040(19) 1.1036(2)
C27 C 0.2940(3) 0.47468(16) 0.63744(18)
H31 H 0.2484 0.4595 0.6689
H32 H 0.2423 0.4935 0.5917
H33 H 0.3495 0.5070 0.6645
C28 C 0.7940(4) 0.46493(14) 1.08314(19)
H34 H 0.7933 0.4922 1.0400
H35 H 0.8279 0.4899 1.1294
C29 C 0.2704(3) 0.36751(17) 0.57183(17)
H36 H 0.3110 0.3309 0.5589
H37 H 0.2210 0.3875 0.5261
H38 H 0.2226 0.3529 0.6021
C30 C 0.6090(2) 0.18528(13) 0.80445(19)
H39 H 0.6178 0.1845 0.7545
H40 H 0.5993 0.1415 0.8202
H41 H 0.6780 0.2044 0.8396
C31 C 0.9714(3) 0.21036(15) 0.97752(18)
H42 H 0.9595 0.2336 0.9299
H43 H 1.0138 0.1704 0.9752
C32 C 0.4825(3) 0.22439(14) 0.88214(16)
H44 H 0.5491 0.2445 0.9185
H45 H 0.4759 0.1799 0.8967
H46 H 0.4118 0.2477 0.8807
C33 C 0.4305(3) 0.44233(18) 0.56443(16)
H47 H 0.4859 0.4750 0.5906
H48 H 0.3767 0.4609 0.5193
H49 H 0.4722 0.4066 0.5507
C34 C 1.0437(3) 0.25122(16) 1.04105(19)
C35 C 0.8645(3) 0.14161(15) 1.0352(2)
H50 H 0.9395 0.1415 1.0754
H51 H 0.8573 0.1009 1.0074
C36 C 0.7647(3) 0.14818(15) 1.0687(2)
H52 H 0.6894 0.1487 1.0288
H53 H 0.7650 0.1120 1.1027
C37 C 0.4997(3) 0.33723(19) 1.0436(2)
H54 H 0.4917 0.3575 1.0893
H55 H 0.4295 0.3113 1.0208
C38 C 1.0436(3) 0.35824(17) 1.09100(19)
H56 H 1.1206 0.3655 1.0845
H57 H 1.0552 0.3440 1.1429
C39 C 0.7064(3) 0.21853(19) 1.15325(19)
H58 H 0.7394 0.2515 1.1916
H59 H 0.6988 0.1784 1.1791
C40 C 0.9739(3) 0.41971(17) 1.0761(2)
H60 H 1.0134 0.4531 1.1121
H61 H 0.9654 0.4353 1.0251
C41 C 0.6728(4) 0.44472(18) 1.0777(2)
H62 H 0.6733 0.4146 1.1183
H63 H 0.6251 0.4823 1.0811
C42 C 0.5103(3) 0.38854(18) 0.9893(2)
H64 H 0.4871 0.3704 0.9384
H65 H 0.4563 0.4238 0.9900
H66 H 1.053(2) 0.2289(14) 1.0940(18)
H67 H 0.547(3) 0.2515(16) 1.1367(19)
H68 H 1.127(3) 0.2679(16) 1.0384(18)
H69 H 0.535(3) 0.2067(18) 1.060(2)
loop_
_geom_bond_atom_site_label_1
_geom_bond_atom_site_label_2
_geom_bond_site_symmetry_1
_geom_bond_site_symmetry_2
Na1 O1 1_555 1_555
O1 C3 1_555 1_555
O2 H1 1_555 1_555
O3 Na1 1_555 1_555
O4 Na1 1_555 1_555
O5 Na1 1_555 1_555
O6 Na1 1_555 1_555
O7 Na1 1_555 1_555
C1 O2 1_555 1_555
C2 C1 1_555 1_555
C3 C4 1_555 1_555
O8 Na1 1_555 1_555
C4 C8 1_555 1_555
C5 C2 1_555 1_555
H2 C5 1_555 1_555
C6 C5 1_555 1_555
C7 C6 1_555 1_555
C8 C2 1_555 1_555
H3 C8 1_555 1_555
C9 C1 1_555 1_555
C10 C3 1_555 1_555
C11 C4 1_555 1_555
H4 C11 1_555 1_555
C12 C6 1_555 1_555
H5 C12 1_555 1_555
C13 C10 1_555 1_555
H6 C13 1_555 1_555
C14 C9 1_555 1_555
C15 C10 1_555 1_555
C16 C7 1_555 1_555
H7 C16 1_555 1_555
H8 C16 1_555 1_555
H9 C16 1_555 1_555
C17 C14 1_555 1_555
H10 C17 1_555 1_555
H11 C17 1_555 1_555
H12 C17 1_555 1_555
C18 C11 1_555 1_555
C19 C7 1_555 1_555
H13 C19 1_555 1_555
H14 C19 1_555 1_555
H15 C19 1_555 1_555
C20 C7 1_555 1_555
H16 C20 1_555 1_555
H17 C20 1_555 1_555
H18 C20 1_555 1_555
C21 C14 1_555 1_555
H19 C21 1_555 1_555
H20 C21 1_555 1_555
H21 C21 1_555 1_555
C22 C8 1_555 1_555
H22 C22 1_555 1_555
H23 C22 1_555 1_555
H24 C22 1_555 1_555
C23 C18 1_555 1_555
C24 C15 1_555 1_555
H25 C24 1_555 1_555
H26 C24 1_555 1_555
H27 C24 1_555 1_555
C25 C14 1_555 1_555
H28 C25 1_555 1_555
H29 C25 1_555 1_555
H30 C25 1_555 1_555
C26 O5 1_555 1_555
C27 C23 1_555 1_555
H31 C27 1_555 1_555
H32 C27 1_555 1_555
H33 C27 1_555 1_555
C28 O7 1_555 1_555
H34 C28 1_555 1_555
H35 C28 1_555 1_555
C29 C23 1_555 1_555
H36 C29 1_555 1_555
H37 C29 1_555 1_555
H38 C29 1_555 1_555
C30 C15 1_555 1_555
H39 C30 1_555 1_555
H40 C30 1_555 1_555
H41 C30 1_555 1_555
C31 O3 1_555 1_555
H42 C31 1_555 1_555
H43 C31 1_555 1_555
C32 C15 1_555 1_555
H44 C32 1_555 1_555
H45 C32 1_555 1_555
H46 C32 1_555 1_555
C33 C23 1_555 1_555
H47 C33 1_555 1_555
H48 C33 1_555 1_555
H49 C33 1_555 1_555
C34 O4 1_555 1_555
C35 O3 1_555 1_555
H50 C35 1_555 1_555
H51 C35 1_555 1_555
C36 O6 1_555 1_555
H52 C36 1_555 1_555
H53 C36 1_555 1_555
C37 O5 1_555 1_555
H54 C37 1_555 1_555
H55 C37 1_555 1_555
C38 O4 1_555 1_555
H56 C38 1_555 1_555
H57 C38 1_555 1_555
C39 O6 1_555 1_555
H58 C39 1_555 1_555
H59 C39 1_555 1_555
C40 O7 1_555 1_555
H60 C40 1_555 1_555
H61 C40 1_555 1_555
C41 O8 1_555 1_555
H62 C41 1_555 1_555
H63 C41 1_555 1_555
C42 O8 1_555 1_555
H64 C42 1_555 1_555
H65 C42 1_555 1_555
H66 C34 1_555 1_555
H67 C26 1_555 1_555
H68 C34 1_555 1_555
H69 C26 1_555 1_555
C9 C12 1_555 1_555
C13 C18 1_555 1_555
C26 C39 1_555 1_555
C28 C41 1_555 1_555
C31 C34 1_555 1_555
C35 C36 1_555 1_555
C37 C42 1_555 1_555
C38 C40 1_555 1_555

#END
