
#######################################################################
#
#                 Cambridge Crystallographic Data Centre
#                                CCDC 
#
#######################################################################
#
# If this CIF has been generated from an entry in the Cambridge 
# Structural Database, then it will include bibliographic, chemical, 
# crystal, experimental, refinement or atomic coordinate data resulting 
# from the CCDC's data processing and validation procedures.
#
#######################################################################

data_NETKUS
_chemical_formula_moiety         'C22 H28 O7,C1 H3 N1 O2'
_chemical_name_systematic        '(Dibenzo-21-crown-7) nitromethane clathrate'
_symmetry_cell_setting           orthorhombic
_symmetry_space_group_name_H-M   'C m c 21'
_symmetry_Int_Tables_number      36
_space_group_name_Hall           'C 2n -2'
loop_
_symmetry_equiv_pos_site_id
_symmetry_equiv_pos_as_xyz
1 x,y,z
2 -x,-y,1/2+z
3 -x,y,z
4 x,-y,1/2+z
5 1/2+x,1/2+y,z
6 1/2-x,1/2-y,1/2+z
7 1/2-x,1/2+y,z
8 1/2+x,1/2-y,1/2+z
_cell_length_a                   20.732(7)
_cell_length_b                   13.782(3)
_cell_length_c                   8.507(2)
_cell_angle_alpha                90
_cell_angle_beta                 90
_cell_angle_gamma                90
_cell_volume                     2430.69
_cell_formula_units_Z            4
loop_
_atom_site_label
_atom_site_type_symbol
_atom_site_fract_x
_atom_site_fract_y
_atom_site_fract_z
O1 O 0.5000 0.8004(5) 0.831
O2 O 0.6287(2) 0.7372(3) 0.7324(6)
O3 O 0.6570(2) 0.6347(3) 0.4889(6)
O4 O 0.5696(2) 0.5320(5) 0.2900(6)
C1 C 0.5555(3) 0.8591(6) 0.826(1)
C2 C 0.6126(3) 0.7997(6) 0.8609(9)
C3 C 0.6851(3) 0.6892(4) 0.7288(8)
C4 C 0.7013(3) 0.6335(4) 0.6090(8)
C5 C 0.6747(3) 0.5842(6) 0.3542(8)
C6 C 0.6193(4) 0.5910(6) 0.236(1)
C7 C 0.5272(5) 0.470(1) 0.192(2)
C9 C 0.7275(3) 0.6930(5) 0.8649(9)
C10 C 0.7866(4) 0.6412(5) 0.861(1)
C11 C 0.8014(3) 0.5879(5) 0.732(1)
C12 C 0.7596(3) 0.5827(5) 0.604(1)
H1 H 0.764 0.540 0.522
H2 H 0.845 0.555 0.729
H3 H 0.817 0.653 0.948
H4 H 0.715 0.726 0.960
H5 H 0.648 0.843 0.878
H6 H 0.604 0.762 0.948
H7 H 0.551 0.910 0.905
H8 H 0.558 0.890 0.726
H9 H 0.687 0.520 0.368
H10 H 0.712 0.618 0.299
H11 H 0.603 0.655 0.232
H12 H 0.631 0.568 0.136
H14 H 0.552 0.412 0.158
C7B C 0.4728(5) 0.470(1) 0.192(2)
O4B O 0.4304(2) 0.5320(5) 0.2900(6)
C6B C 0.3807(4) 0.5910(6) 0.236(1)
C5B C 0.3253(3) 0.5842(6) 0.3542(8)
O3B O 0.3430(2) 0.6347(3) 0.4889(6)
C4B C 0.2987(3) 0.6335(4) 0.6090(8)
C3B C 0.3149(3) 0.6892(4) 0.7288(8)
O2B O 0.3713(2) 0.7372(3) 0.7324(6)
C2B C 0.3874(3) 0.7997(6) 0.8609(9)
C1B C 0.4445(3) 0.8591(6) 0.826(1)
H7B H 0.449 0.910 0.905
H8B H 0.442 0.890 0.726
H5B H 0.352 0.843 0.878
H6B H 0.396 0.762 0.948
C9B C 0.2725(3) 0.6930(5) 0.8649(9)
C10B C 0.2134(4) 0.6412(5) 0.861(1)
C11B C 0.1986(3) 0.5879(5) 0.732(1)
C12B C 0.2404(3) 0.5827(5) 0.604(1)
H1B H 0.236 0.540 0.522
H2B H 0.155 0.555 0.729
H3B H 0.183 0.653 0.948
H4B H 0.285 0.726 0.960
H9B H 0.313 0.520 0.368
H10B H 0.288 0.618 0.299
H11B H 0.397 0.655 0.232
H12B H 0.369 0.568 0.136
H14B H 0.448 0.412 0.158
O5 O 0.5000 0.814(2) 0.217(4)
O6 O 0.5000 0.899(2) 0.420(4)
N1 N 0.5000 0.8211(8) 0.362(1)
C13 C 0.5000 0.7379(7) 0.460(1)
O7? O 0.455(1) 0.861(2) 0.320(4)
O8? O 0.534(1) 0.817(2) 0.224(3)
O9? O 0.457(1) 0.895(2) 0.411(2)
C8? C 0.4723(6) 0.537(1) 0.145(2)
H13? H 0.508 0.443 0.256
H15? H 0.449 0.540 0.051
H16? H 0.508 0.571 0.149
loop_
_geom_bond_atom_site_label_1
_geom_bond_atom_site_label_2
_geom_bond_site_symmetry_1
_geom_bond_site_symmetry_2
O1 C1 1_555 1_555
O2 C2 1_555 1_555
O3 C4 1_555 1_555
O4 C6 1_555 1_555
O5 N1 1_555 1_555
O6 N1 1_555 1_555
N1 C13 1_555 1_555
C1 C2 1_555 1_555
C2 H5 1_555 1_555
C3 O2 1_555 1_555
C4 C3 1_555 1_555
C5 O3 1_555 1_555
C6 C5 1_555 1_555
C7 O4 1_555 1_555
C9 C3 1_555 1_555
C10 C9 1_555 1_555
C11 C10 1_555 1_555
C12 C4 1_555 1_555
H1 C12 1_555 1_555
H2 C11 1_555 1_555
H3 C10 1_555 1_555
H4 C9 1_555 1_555
H6 C2 1_555 1_555
H7 C1 1_555 1_555
H8 C1 1_555 1_555
H9 C5 1_555 1_555
H10 C5 1_555 1_555
H11 C6 1_555 1_555
H12 C6 1_555 1_555
H14 C7 1_555 1_555
C7B C7 1_555 1_555
O4B C7B 1_555 1_555
C6B O4B 1_555 1_555
C5B C6B 1_555 1_555
O3B C5B 1_555 1_555
C4B O3B 1_555 1_555
C3B C4B 1_555 1_555
O2B C3B 1_555 1_555
C2B O2B 1_555 1_555
C1B O1 1_555 1_555
H7B C1B 1_555 1_555
H8B C1B 1_555 1_555
H5B C2B 1_555 1_555
H6B C2B 1_555 1_555
C9B C3B 1_555 1_555
C10B C9B 1_555 1_555
C11B C10B 1_555 1_555
C12B C4B 1_555 1_555
H1B C12B 1_555 1_555
H2B C11B 1_555 1_555
H3B C10B 1_555 1_555
H4B C9B 1_555 1_555
H9B C5B 1_555 1_555
H10B C5B 1_555 1_555
H11B C6B 1_555 1_555
H12B C6B 1_555 1_555
H14B C7B 1_555 1_555
C11 C12 1_555 1_555
C2B C1B 1_555 1_555
C11B C12B 1_555 1_555

#END
