
#######################################################################
#
#                 Cambridge Crystallographic Data Centre
#                                CCDC 
#
#######################################################################
#
# If this CIF has been generated from an entry in the Cambridge 
# Structural Database, then it will include bibliographic, chemical, 
# crystal, experimental, refinement or atomic coordinate data resulting 
# from the CCDC's data processing and validation procedures.
#
#######################################################################

data_NETPIN
_chemical_formula_moiety         'C8 H16 N1 O2 1+,C12 H4 N4 1-'
_chemical_name_systematic        
'N,N-dimethyl-D-proline methyl ester tetracyanoquinodimethanide'
_symmetry_cell_setting           monoclinic
_symmetry_space_group_name_H-M   'P 21'
_symmetry_Int_Tables_number      4
_space_group_name_Hall           'P 2yb'
loop_
_symmetry_equiv_pos_site_id
_symmetry_equiv_pos_as_xyz
1 x,y,z
2 -x,1/2+y,-z
_cell_length_a                   10.3031(13)
_cell_length_b                   6.8566(8)
_cell_length_c                   15.5118(19)
_cell_angle_alpha                90
_cell_angle_beta                 101.946(4)
_cell_angle_gamma                90
_cell_volume                     1072.09
_exptl_crystal_colour            'dark purple'
_exptl_crystal_description       block
_cell_formula_units_Z            2
loop_
_atom_site_label
_atom_site_type_symbol
_atom_site_fract_x
_atom_site_fract_y
_atom_site_fract_z
C1 C 0.1023(4) 0.0626(8) 0.4707(3)
H1 H 0.1931 0.0600 0.4996
C2 C 0.1737(5) 0.0769(8) 0.6608(3)
C3 C 0.0376(4) 0.0738(8) 0.6155(3)
C4 C -0.0649(4) 0.0646(8) 0.3350(3)
C5 C -0.0586(4) 0.0781(8) 0.6676(3)
C6 C 0.0054(4) 0.0697(8) 0.5215(3)
C7 C -0.1298(4) 0.0764(9) 0.4763(3)
H2 H -0.1981 0.0807 0.5091
C8 C -0.0982(4) 0.0635(8) 0.2420(3)
C9 C -0.1620(4) 0.0768(8) 0.3871(3)
H3 H -0.2528 0.0855 0.3586
C12 C -0.2307(5) 0.0870(7) 0.1950(3)
C13 C -0.0003(5) 0.0311(7) 0.1906(3)
C14 C 0.0712(4) 0.0592(8) 0.3807(3)
H5 H 0.1398 0.0531 0.3483
N2 N 0.0826(4) 0.0037(6) 0.1502(3)
N3 N 0.2817(4) 0.0794(8) 0.6974(3)
N4 N -0.1394(4) 0.0781(8) 0.7091(3)
N5 N -0.3376(4) 0.1149(7) 0.1567(3)
O1 O -0.3207(3) 0.4593(5) -0.0167(2)
O2 O -0.1249(3) 0.3136(5) 0.0322(2)
N1 N -0.3988(4) 0.1626(6) -0.1474(2)
C10 C -0.2447(4) 0.3295(7) -0.0212(3)
C11 C -0.2648(4) 0.1652(7) -0.0859(3)
H4 H -0.1968 0.1799 -0.1231
C15 C -0.3951(5) -0.0327(8) -0.1926(3)
H6 H -0.3411 -0.0249 -0.2384
H7 H -0.4857 -0.0764 -0.2203
C16 C -0.4155(5) 0.3242(7) -0.2138(3)
H8 H -0.5046 0.3181 -0.2510
H9 H -0.3492 0.3103 -0.2505
H10 H -0.4033 0.4500 -0.1831
C17 C -0.3321(5) -0.1703(8) -0.1190(4)
H11 H -0.2746 -0.2664 -0.1406
H12 H -0.4012 -0.2416 -0.0959
C18 C -0.5122(5) 0.1633(8) -0.1000(3)
H13 H -0.5208 0.2933 -0.0756
H14 H -0.4952 0.0675 -0.0521
H15 H -0.5945 0.1294 -0.1415
C19 C -0.0895(5) 0.4722(8) 0.0953(3)
H16 H -0.0808 0.5937 0.0637
H17 H -0.0050 0.4422 0.1353
H18 H -0.1590 0.4874 0.1295
C20 C -0.2495(5) -0.0407(7) -0.0467(3)
H19 H -0.2842 -0.0471 0.0082
H20 H -0.1553 -0.0814 -0.0336
loop_
_geom_bond_atom_site_label_1
_geom_bond_atom_site_label_2
_geom_bond_site_symmetry_1
_geom_bond_site_symmetry_2
C1 H1 1_555 1_555
C2 C3 1_555 1_555
C3 C5 1_555 1_555
C4 C8 1_555 1_555
C5 N4 1_555 1_555
C6 C1 1_555 1_555
O1 C10 1_555 1_555
O2 C10 1_555 1_555
C7 C6 1_555 1_555
H2 C7 1_555 1_555
C8 C12 1_555 1_555
C9 C4 1_555 1_555
H3 C9 1_555 1_555
N1 C11 1_555 1_555
C10 C11 1_555 1_555
C11 H4 1_555 1_555
C12 N5 1_555 1_555
C13 C8 1_555 1_555
C14 C1 1_555 1_555
H5 C14 1_555 1_555
C15 N1 1_555 1_555
H6 C15 1_555 1_555
H7 C15 1_555 1_555
C16 N1 1_555 1_555
H8 C16 1_555 1_555
H9 C16 1_555 1_555
H10 C16 1_555 1_555
N2 C13 1_555 1_555
N3 C2 1_555 1_555
C17 C15 1_555 1_555
H11 C17 1_555 1_555
H12 C17 1_555 1_555
C18 N1 1_555 1_555
H13 C18 1_555 1_555
H14 C18 1_555 1_555
H15 C18 1_555 1_555
C19 O2 1_555 1_555
H16 C19 1_555 1_555
H17 C19 1_555 1_555
H18 C19 1_555 1_555
C20 C11 1_555 1_555
H19 C20 1_555 1_555
H20 C20 1_555 1_555
C3 C6 1_555 1_555
C4 C14 1_555 1_555
C7 C9 1_555 1_555
C17 C20 1_555 1_555

#END
