
#######################################################################
#
#                 Cambridge Crystallographic Data Centre
#                                CCDC 
#
#######################################################################
#
# If this CIF has been generated from an entry in the Cambridge 
# Structural Database, then it will include bibliographic, chemical, 
# crystal, experimental, refinement or atomic coordinate data resulting 
# from the CCDC's data processing and validation procedures.
#
#######################################################################

data_NETQIM
_chemical_formula_moiety         
'16(C19 H31 N5 O5 Si1),2(Sr1 2+),4(C6 H2 N3 O7 1-),3.5(C2 H3 N1),23.25(H2 O1)'
_chemical_name_systematic        
"Di-strontium(ii) hexadecakis((5'-t-butyldimethylsilyl-2',3'-isopropylidene)guanosine) tetrapicrate acetonitrile solvate hydrate"
_symmetry_cell_setting           tetragonal
_symmetry_space_group_name_H-M   'I 4'
_symmetry_Int_Tables_number      79
_space_group_name_Hall           'I 4'
loop_
_symmetry_equiv_pos_site_id
_symmetry_equiv_pos_as_xyz
1 x,y,z
2 -x,-y,z
3 -y,x,z
4 y,-x,z
5 1/2+x,1/2+y,1/2+z
6 1/2-x,1/2-y,1/2+z
7 1/2-y,1/2+x,1/2+z
8 1/2+y,1/2-x,1/2+z
_cell_length_a                   30.5043(17)
_cell_length_b                   30.5043(17)
_cell_length_c                   25.802(2)
_cell_angle_alpha                90
_cell_angle_beta                 90
_cell_angle_gamma                90
_cell_volume                     24009.1
_exptl_crystal_colour            yellow
_exptl_crystal_description       needle
_chemical_melting_point          255deg.C
_cell_formula_units_Z            2
loop_
_atom_site_label
_atom_site_type_symbol
_atom_site_fract_x
_atom_site_fract_y
_atom_site_fract_z
Sr1 Sr 0.5000 0.5000 0.25733(5)
Sr2 Sr 0.5000 0.5000 -0.00069(5)
C1 C 0.6626(2) 0.4877(2) 0.3208(3)
N1 N 0.61693(18) 0.48587(18) 0.3180(3)
H1 H 0.6025 0.5109 0.3172
O1 O 0.55172(14) 0.44931(15) 0.31204(19)
C2 C 0.6646(2) 0.4147(2) 0.3202(3)
N2 N 0.68086(19) 0.5269(2) 0.3209(3)
H2 H 0.7096 0.5294 0.3211
H3 H 0.6643 0.5505 0.3207
O2 O 0.73694(19) 0.34457(17) 0.3743(3)
C3 C 0.6195(2) 0.4097(2) 0.3182(3)
N3 N 0.68811(19) 0.45238(19) 0.3211(3)
O3 O 0.79624(19) 0.3663(2) 0.2791(3)
C4 C 0.5929(2) 0.4477(2) 0.3166(3)
N4 N 0.60836(19) 0.36651(19) 0.3166(3)
O4 O 0.8279(2) 0.3871(2) 0.3508(3)
C5 C 0.6463(2) 0.3455(2) 0.3169(3)
H4 H 0.6491 0.3145 0.3153
N5 N 0.68087(19) 0.3736(2) 0.3199(3)
O5 O 0.7109(3) 0.3803(3) 0.4730(3)
C6 C 0.7270(2) 0.3569(3) 0.3227(4)
H5 H 0.7298 0.3306 0.2999
C7 C 0.7618(3) 0.3904(2) 0.3070(3)
H6 H 0.7497 0.4158 0.2870
C8 C 0.7830(3) 0.4034(3) 0.3579(4)
H7 H 0.7824 0.4359 0.3634
C9 C 0.8371(3) 0.3823(3) 0.3009(5)
C10 C 0.8500(3) 0.4238(4) 0.2750(6)
H8 H 0.8561 0.4181 0.2383
H9 H 0.8763 0.4356 0.2917
H10 H 0.8261 0.4451 0.2780
C11 C 0.8705(3) 0.3448(4) 0.2959(6)
H11 H 0.8778 0.3403 0.2593
H12 H 0.8580 0.3178 0.3102
H13 H 0.8972 0.3524 0.3151
C12 C 0.7602(3) 0.3790(3) 0.4009(4)
H14 H 0.7831 0.3651 0.4233
C13 C 0.7321(4) 0.4063(4) 0.4341(4)
H15 H 0.7501 0.4292 0.4511
H16 H 0.7097 0.4211 0.4126
Si1 Si 0.7102(4) 0.3937(2) 0.5332(4)
C14 C 0.6627(12) 0.4293(11) 0.5503(17)
H17 H 0.6566 0.4495 0.5217
H18 H 0.6696 0.4462 0.5816
H19 H 0.6368 0.4110 0.5567
C15 C 0.7640(10) 0.4161(11) 0.5452(17)
H20 H 0.7771 0.4013 0.5751
H21 H 0.7616 0.4475 0.5523
H22 H 0.7826 0.4115 0.5146
C16 C 0.7043(8) 0.3399(8) 0.5636(10)
C17 C 0.6609(9) 0.3167(9) 0.5504(11)
H23 H 0.6662 0.2943 0.5240
H24 H 0.6398 0.3382 0.5372
H25 H 0.6491 0.3028 0.5817
C18 C 0.7043(14) 0.3478(13) 0.6226(10)
H26 H 0.7219 0.3251 0.6396
H27 H 0.6742 0.3467 0.6356
H28 H 0.7169 0.3767 0.6299
C19 C 0.7447(9) 0.3108(9) 0.5494(13)
H29 H 0.7491 0.2886 0.5763
H30 H 0.7709 0.3293 0.5468
H31 H 0.7395 0.2964 0.5160
O6 O 0.57053(16) 0.47963(15) 0.2045(2)
N6 N 0.61197(18) 0.54121(17) 0.1949(2)
H62 H 0.5881 0.5574 0.1963
C32 C 0.6509(2) 0.5627(2) 0.1899(3)
C33 C 0.6853(2) 0.4984(2) 0.1886(3)
N7 N 0.6493(2) 0.6064(2) 0.1861(3)
H63 H 0.6735 0.6215 0.1812
H64 H 0.6239 0.6201 0.1883
O7 O 0.77534(17) 0.49357(17) 0.2399(2)
C34 C 0.6474(2) 0.4742(2) 0.1929(3)
N8 N 0.68953(17) 0.54288(19) 0.1864(2)
O8 O 0.8056(2) 0.4951(3) 0.1082(3)
N9 N 0.65729(17) 0.43039(19) 0.1949(3)
C35 C 0.6067(2) 0.4966(2) 0.1979(2)
O9 O 0.8548(3) 0.5185(4) 0.1657(5)
C36 C 0.6992(3) 0.4285(2) 0.1917(3)
H65 H 0.7151 0.4017 0.1925
N10 N 0.71910(19) 0.4687(2) 0.1872(2)
O10 O 0.77506(19) 0.5583(2) 0.3185(3)
C37 C 0.7649(2) 0.4775(3) 0.1884(3)
H66 H 0.7812 0.4495 0.1822
C38 C 0.7805(3) 0.5125(3) 0.1484(4)
H67 H 0.7555 0.5305 0.1351
C39 C 0.8131(4) 0.5405(4) 0.1818(5)
H68 H 0.8125 0.5724 0.1728
C40 C 0.8507(4) 0.5052(4) 0.1151(7)
C41 C 0.8676(4) 0.5326(5) 0.0778(6)
H69 H 0.8991 0.5366 0.0839
H70 H 0.8528 0.5611 0.0795
H71 H 0.8631 0.5196 0.0435
C42 C 0.8709(11) 0.4594(10) 0.1044(13)
H72 H 0.8604 0.4385 0.1304
H73 H 0.9029 0.4614 0.1061
H74 H 0.8621 0.4494 0.0698
C43 C 0.8039(3) 0.5321(3) 0.2375(4)
H75 H 0.8321 0.5248 0.2552
C44 C 0.7820(3) 0.5689(3) 0.2669(5)
H76 H 0.8006 0.5955 0.2649
H77 H 0.7535 0.5758 0.2504
Si4 Si 0.80936(9) 0.57369(9) 0.36634(12)
C45 C 0.8542(4) 0.5336(5) 0.3739(6)
H78 H 0.8419 0.5048 0.3824
H79 H 0.8738 0.5431 0.4018
H80 H 0.8708 0.5316 0.3414
C46 C 0.8333(5) 0.6282(4) 0.3529(5)
H81 H 0.8097 0.6498 0.3495
H82 H 0.8501 0.6270 0.3207
H83 H 0.8526 0.6366 0.3816
C47 C 0.7747(4) 0.5754(3) 0.4271(4)
C48 C 0.8014(4) 0.5945(5) 0.4711(4)
H84 H 0.7835 0.5955 0.5026
H85 H 0.8108 0.6242 0.4620
H86 H 0.8273 0.5761 0.4772
C49 C 0.7352(4) 0.6044(3) 0.4154(5)
H87 H 0.7165 0.6062 0.4461
H88 H 0.7185 0.5917 0.3866
H89 H 0.7453 0.6338 0.4058
C50 C 0.7599(4) 0.5295(4) 0.4417(5)
H90 H 0.7421 0.5308 0.4732
H91 H 0.7856 0.5110 0.4479
H92 H 0.7424 0.5171 0.4134
C51 C 0.6255(2) 0.6032(2) 0.0635(3)
N11 N 0.58822(16) 0.57879(17) 0.0600(2)
H93 H 0.5909 0.5501 0.0588
O11 O 0.51471(14) 0.57080(14) 0.05204(18)
C52 C 0.5858(2) 0.6632(2) 0.0619(3)
N12 N 0.6635(2) 0.58131(19) 0.0659(3)
H94 H 0.6884 0.5958 0.0679
H95 H 0.6636 0.5525 0.0655
O12 O 0.62743(16) 0.74144(15) 0.0065(2)
C53 C 0.5462(2) 0.6421(2) 0.0603(3)
N13 N 0.62668(17) 0.64610(17) 0.0642(2)
O13 O 0.63795(18) 0.7768(2) 0.1319(3)
C54 C 0.5456(2) 0.5966(2) 0.0583(3)
N14 N 0.51233(18) 0.67191(18) 0.0570(2)
O14 O 0.6907(2) 0.7981(2) 0.0771(3)
C55 C 0.5308(2) 0.7101(3) 0.0582(3)
H96 H 0.5152 0.7370 0.0580
N15 N 0.57580(18) 0.70711(18) 0.0599(2)
O15 O 0.68463(16) 0.69786(17) -0.0646(2)
C56 C 0.6075(2) 0.7436(2) 0.0560(3)
H97 H 0.5913 0.7719 0.0590
C57 C 0.6433(2) 0.7423(2) 0.0968(3)
H98 H 0.6450 0.7132 0.1145
C58 C 0.6850(3) 0.7531(3) 0.0675(4)
H99 H 0.7106 0.7352 0.0793
C59 C 0.6741(3) 0.8077(3) 0.1281(5)
C60 C 0.7063(4) 0.7995(4) 0.1681(5)
H100 H 0.7178 0.7697 0.1643
H101 H 0.6925 0.8025 0.2022
H102 H 0.7303 0.8206 0.1649
C61 C 0.6563(8) 0.8521(4) 0.1319(8)
H103 H 0.6802 0.8734 0.1295
H104 H 0.6413 0.8556 0.1652
H105 H 0.6355 0.8570 0.1036
C62 C 0.6739(2) 0.7452(2) 0.0110(3)
H106 H 0.6837 0.7712 -0.0096
C63 C 0.6963(3) 0.7036(3) -0.0112(3)
H107 H 0.7285 0.7064 -0.0081
H108 H 0.6870 0.6776 0.0089
Si5 Si 0.71953(7) 0.71259(7) -0.11113(10)
C64 C 0.7685(3) 0.6782(3) -0.1059(4)
H109 H 0.7831 0.6839 -0.0728
H110 H 0.7885 0.6849 -0.1345
H111 H 0.7600 0.6472 -0.1077
C65 C 0.7358(3) 0.7711(3) -0.1028(4)
H112 H 0.7513 0.7746 -0.0698
H113 H 0.7096 0.7896 -0.1029
H114 H 0.7552 0.7798 -0.1313
C66 C 0.6893(3) 0.7026(3) -0.1745(4)
C67 C 0.7200(5) 0.7134(5) -0.2189(5)
H115 H 0.7048 0.7088 -0.2519
H116 H 0.7458 0.6944 -0.2172
H117 H 0.7291 0.7442 -0.2163
C68 C 0.6501(4) 0.7340(3) -0.1762(5)
H118 H 0.6339 0.7298 -0.2086
H119 H 0.6606 0.7643 -0.1742
H120 H 0.6306 0.7281 -0.1468
C69 C 0.6736(4) 0.6578(3) -0.1806(4)
H121 H 0.6584 0.6550 -0.2139
H122 H 0.6532 0.6508 -0.1524
H123 H 0.6985 0.6376 -0.1796
O16 O 0.47428(14) 0.56804(15) -0.05670(18)
N16 N 0.53385(18) 0.61235(17) -0.0640(2)
H124 H 0.5507 0.5889 -0.0640
C70 C 0.5544(2) 0.6529(2) -0.0663(3)
O17 O 0.4515(4) 0.7775(2) -0.1217(4)
N17 N 0.59823(19) 0.65385(19) -0.0647(3)
H125 H 0.6122 0.6791 -0.0656
H126 H 0.6131 0.6292 -0.0627
C71 C 0.4889(2) 0.6839(2) -0.0652(3)
O18 O 0.5032(2) 0.82490(18) -0.0418(3)
C72 C 0.4651(2) 0.6458(2) -0.0617(3)
N18 N 0.53330(19) 0.68979(19) -0.0691(2)
N19 N 0.4213(2) 0.6533(2) -0.0596(3)
C73 C 0.4906(2) 0.6061(2) -0.0619(3)
O19 O 0.5448(3) 0.8335(3) -0.1145(4)
N20 N 0.45791(19) 0.71688(19) -0.0646(3)
C74 C 0.4192(2) 0.6955(3) -0.0620(4)
H127 H 0.3919 0.7106 -0.0619
C75 C 0.4623(3) 0.7650(3) -0.0717(4)
H128 H 0.4415 0.7798 -0.0473
C76 C 0.5075(3) 0.7826(3) -0.0617(4)
H129 H 0.5252 0.7630 -0.0387
C77 C 0.5272(5) 0.7888(3) -0.1114(6)
H130 H 0.5507 0.7666 -0.1177
C78 C 0.5416(4) 0.8484(3) -0.0646(6)
C79 C 0.5825(4) 0.8423(5) -0.0332(9)
H131 H 0.5778 0.8538 0.0019
H132 H 0.6068 0.8582 -0.0496
H133 H 0.5896 0.8110 -0.0313
C80 C 0.5266(4) 0.8972(3) -0.0667(6)
H134 H 0.4991 0.8994 -0.0862
H135 H 0.5492 0.9149 -0.0839
H136 H 0.5221 0.9082 -0.0314
C81 C 0.4926(9) 0.7855(5) -0.1503(8)
H137 H 0.4903 0.8140 -0.1694
C82 C 0.5215(10) 0.7470(10) -0.1893(12)
H138 H 0.5468 0.7602 -0.2077
H139 H 0.5309 0.7207 -0.1697
O20 O 0.4874(4) 0.7392(4) -0.2207(5)
Si6 Si 0.48984(17) 0.7002(2) -0.2627(2)
C83 C 0.4528(11) 0.7046(12) -0.3224(13)
H140 H 0.4536 0.7347 -0.3357
H141 H 0.4227 0.6971 -0.3127
H142 H 0.4632 0.6844 -0.3492
C84 C 0.5460(10) 0.7079(12) -0.2947(15)
H143 H 0.5477 0.7373 -0.3100
H144 H 0.5499 0.6858 -0.3218
H145 H 0.5691 0.7046 -0.2685
C85 C 0.4892(9) 0.6461(9) -0.2405(11)
C86 C 0.4515(8) 0.6307(9) -0.2093(11)
H146 H 0.4436 0.6532 -0.1839
H147 H 0.4594 0.6036 -0.1913
H148 H 0.4264 0.6252 -0.2322
C87 C 0.4917(14) 0.6113(11) -0.2862(15)
H149 H 0.5178 0.6170 -0.3074
H150 H 0.4655 0.6137 -0.3079
H151 H 0.4935 0.5817 -0.2717
C88 C 0.5403(10) 0.6424(14) -0.2209(19)
H152 H 0.5597 0.6548 -0.2473
H153 H 0.5478 0.6115 -0.2152
H154 H 0.5438 0.6586 -0.1884
O21 O 0.72095(16) 0.64314(18) 0.1224(3)
C89 C 0.7598(2) 0.6521(3) 0.1358(4)
O22 O 0.7506(2) 0.6761(2) 0.2688(4)
N21 N 0.7401(3) 0.6792(3) 0.2216(4)
C90 C 0.7732(3) 0.6695(3) 0.1859(4)
O23 O 0.7025(2) 0.6921(2) 0.2096(3)
C91 C 0.8150(3) 0.6784(3) 0.1986(5)
H155 H 0.8216 0.6919 0.2309
O24 O 0.9236(3) 0.6664(5) 0.1504(4)
C92 C 0.8482(3) 0.6680(4) 0.1649(4)
N22 N 0.8938(3) 0.6778(5) 0.1808(6)
O25 O 0.9016(3) 0.6902(5) 0.2259(6)
C93 C 0.8400(3) 0.6534(4) 0.1167(5)
H156 H 0.8631 0.6497 0.0923
N23 N 0.7884(3) 0.6247(4) 0.0529(4)
C94 C 0.7972(3) 0.6440(3) 0.1039(4)
O26 O 0.7619(3) 0.5962(4) 0.0483(4)
O27 O 0.8115(4) 0.6363(5) 0.0163(4)
N24 N 0.5000 0.5000 0.8424(15)
C95 C 0.5000 0.5000 0.7827(15)
C96 C 0.5000 0.5000 0.7230(17)
O39 O 0.5000 0.5000 0.502(6)
O40 O 0.5736(17) 0.3861(17) 0.4420(19)
O41 O 0.592(3) 0.443(3) 0.453(3)
O48 O 0.9455(18) 0.4990(16) 0.5487(17)
O49 O 0.8922(16) 0.5404(17) 0.547(2)
O50 O 0.512(4) 0.421(4) 0.469(5)
Si2? Si 0.6820(4) 0.3904(3) 0.5145(4)
C20? C 0.6862(11) 0.4460(8) 0.5364(12)
H32? H 0.6949 0.4464 0.5730
H33? H 0.6577 0.4605 0.5326
H34? H 0.7082 0.4615 0.5157
C21? C 0.6346(12) 0.3877(13) 0.4721(14)
H35? H 0.6125 0.4089 0.4837
H36? H 0.6221 0.3581 0.4732
H37? H 0.6435 0.3946 0.4365
C22? C 0.6833(8) 0.3493(8) 0.5631(10)
C23? C 0.6787(15) 0.3033(9) 0.5364(15)
H38? H 0.7048 0.2856 0.5437
H39? H 0.6756 0.3072 0.4989
H40? H 0.6527 0.2883 0.5500
C24? C 0.6478(11) 0.3515(13) 0.6065(12)
H41? H 0.6519 0.3271 0.6307
H42? H 0.6186 0.3495 0.5909
H43? H 0.6504 0.3793 0.6253
C25? C 0.7271(12) 0.3502(18) 0.5940(19)
H44? H 0.7518 0.3477 0.5699
H45? H 0.7278 0.3256 0.6185
H46? H 0.7294 0.3779 0.6131
Si3? Si 0.7218(7) 0.3664(10) 0.5304(7)
C26? C 0.7463(18) 0.4123(16) 0.562(3)
H47? H 0.7259 0.4371 0.5621
H48? H 0.7734 0.4205 0.5444
H49? H 0.7531 0.4044 0.5984
C27? C 0.7544(12) 0.3154(12) 0.5277(18)
H50? H 0.7366 0.2919 0.5126
H51? H 0.7633 0.3071 0.5629
H52? H 0.7805 0.3202 0.5063
C28? C 0.6696(11) 0.3512(12) 0.5705(16)
C29? C 0.647(2) 0.3105(18) 0.548(3)
H53? H 0.6271 0.3191 0.5207
H54? H 0.6309 0.2956 0.5760
H55? H 0.6695 0.2906 0.5343
C30? C 0.6852(18) 0.3419(19) 0.6258(15)
H56? H 0.6821 0.3106 0.6333
H57? H 0.6675 0.3589 0.6503
H58? H 0.7161 0.3504 0.6292
C31? C 0.6402(14) 0.3921(15) 0.570(2)
H59? H 0.6172 0.3891 0.5958
H60? H 0.6267 0.3950 0.5352
H61? H 0.6579 0.4181 0.5770
O28? O 0.554(2) 0.425(2) 0.521(2)
O29? O 0.9641(16) 0.4831(15) 0.6571(18)
O30? O 0.9550(19) 0.443(2) 0.701(2)
O31? O 0.919(2) 0.494(2) 0.630(3)
O32? O 0.8902(18) 0.3978(17) 0.732(2)
O33? O 0.9088(13) 0.5255(14) 0.7972(15)
O34? O 0.4534(13) 0.5332(12) 0.5931(14)
O35? O 0.4740(17) 0.493(4) 0.600(2)
O36? O 0.884(2) 0.5436(19) 0.693(2)
O37? O 0.853(3) 0.526(3) 0.706(3)
O38? O 0.839(4) 0.550(4) 0.650(5)
H157? H 0.5273 0.5130 0.7103
H158? H 0.4750 0.5172 0.7103
H159? H 0.4976 0.4698 0.7103
N25? N 0.9044(6) 0.3798(6) 0.4301(7)
C97? C 0.8826(11) 0.4058(11) 0.4610(13)
C98? C 0.8559(15) 0.4238(14) 0.4845(17)
H160? H 0.8472 0.4505 0.4661
H161? H 0.8675 0.4315 0.5187
H162? H 0.8304 0.4046 0.4885
N26? N 0.850(2) 0.526(2) 0.586(3)
C99? C 0.894(4) 0.520(4) 0.558(4)
C100? C 0.909(2) 0.526(2) 0.515(2)
H163? H 0.9400 0.5193 0.5150
H164? H 0.9042 0.5569 0.5061
H165? H 0.8933 0.5074 0.4903
O42? O 0.520(2) 0.369(2) 0.449(2)
O43? O 0.9231(19) 0.4062(17) 0.7430(19)
O44? O 0.9004(17) 0.4856(18) 0.7919(19)
O45? O 0.5469(10) 0.4669(10) 0.8158(12)
O46? O 0.509(6) 0.486(4) 0.4182(16)
O47? O 0.981(3) 0.505(3) 0.542(3)
O51? O 0.497(2) 0.455(2) 0.446(2)
loop_
_geom_bond_atom_site_label_1
_geom_bond_atom_site_label_2
_geom_bond_site_symmetry_1
_geom_bond_site_symmetry_2
C1 N1 1_555 1_555
N1 H1 1_555 1_555
O1 C4 1_555 1_555
C2 C3 1_555 1_555
N2 C1 1_555 1_555
H2 N2 1_555 1_555
H3 N2 1_555 1_555
O2 C6 1_555 1_555
C3 C4 1_555 1_555
N3 C1 1_555 1_555
O3 C7 1_555 1_555
C4 N1 1_555 1_555
N4 C3 1_555 1_555
O4 C8 1_555 1_555
C5 N4 1_555 1_555
H4 C5 1_555 1_555
N5 C2 1_555 1_555
O5 C13 1_555 1_555
C6 N5 1_555 1_555
H5 C6 1_555 1_555
C7 C6 1_555 1_555
H6 C7 1_555 1_555
C8 C7 1_555 1_555
H7 C8 1_555 1_555
C9 O3 1_555 1_555
C10 C9 1_555 1_555
H8 C10 1_555 1_555
H9 C10 1_555 1_555
H10 C10 1_555 1_555
C11 C9 1_555 1_555
H11 C11 1_555 1_555
H12 C11 1_555 1_555
H13 C11 1_555 1_555
C12 O2 1_555 1_555
H14 C12 1_555 1_555
C13 C12 1_555 1_555
H15 C13 1_555 1_555
H16 C13 1_555 1_555
Si1 O5 1_555 1_555
C14 Si1 1_555 1_555
H17 C14 1_555 1_555
H18 C14 1_555 1_555
H19 C14 1_555 1_555
C15 Si1 1_555 1_555
H20 C15 1_555 1_555
H21 C15 1_555 1_555
H22 C15 1_555 1_555
C16 Si1 1_555 1_555
C17 C16 1_555 1_555
H23 C17 1_555 1_555
H24 C17 1_555 1_555
H25 C17 1_555 1_555
C18 C16 1_555 1_555
H26 C18 1_555 1_555
H27 C18 1_555 1_555
H28 C18 1_555 1_555
C19 C16 1_555 1_555
H29 C19 1_555 1_555
H30 C19 1_555 1_555
H31 C19 1_555 1_555
O6 C35 1_555 1_555
N6 H62 1_555 1_555
C32 N6 1_555 1_555
C33 C34 1_555 1_555
N7 C32 1_555 1_555
H63 N7 1_555 1_555
H64 N7 1_555 1_555
O7 C37 1_555 1_555
C34 N9 1_555 1_555
N8 C32 1_555 1_555
O8 C38 1_555 1_555
N9 C36 1_555 1_555
C35 N6 1_555 1_555
O9 C39 1_555 1_555
C36 H65 1_555 1_555
N10 C33 1_555 1_555
O10 C44 1_555 1_555
C37 N10 1_555 1_555
H66 C37 1_555 1_555
C38 C37 1_555 1_555
H67 C38 1_555 1_555
C39 C38 1_555 1_555
H68 C39 1_555 1_555
C40 O8 1_555 1_555
C41 C40 1_555 1_555
H69 C41 1_555 1_555
H70 C41 1_555 1_555
H71 C41 1_555 1_555
C42 C40 1_555 1_555
H72 C42 1_555 1_555
H73 C42 1_555 1_555
H74 C42 1_555 1_555
C43 O7 1_555 1_555
H75 C43 1_555 1_555
C44 C43 1_555 1_555
H76 C44 1_555 1_555
H77 C44 1_555 1_555
Si4 O10 1_555 1_555
C45 Si4 1_555 1_555
H78 C45 1_555 1_555
H79 C45 1_555 1_555
H80 C45 1_555 1_555
C46 Si4 1_555 1_555
H81 C46 1_555 1_555
H82 C46 1_555 1_555
H83 C46 1_555 1_555
C47 Si4 1_555 1_555
C48 C47 1_555 1_555
H84 C48 1_555 1_555
H85 C48 1_555 1_555
H86 C48 1_555 1_555
C49 C47 1_555 1_555
H87 C49 1_555 1_555
H88 C49 1_555 1_555
H89 C49 1_555 1_555
C50 C47 1_555 1_555
H90 C50 1_555 1_555
H91 C50 1_555 1_555
H92 C50 1_555 1_555
C51 N11 1_555 1_555
N11 H93 1_555 1_555
O11 C54 1_555 1_555
C52 C53 1_555 1_555
N12 C51 1_555 1_555
H94 N12 1_555 1_555
H95 N12 1_555 1_555
O12 C56 1_555 1_555
C53 C54 1_555 1_555
N13 C51 1_555 1_555
O13 C57 1_555 1_555
C54 N11 1_555 1_555
N14 C53 1_555 1_555
O14 C58 1_555 1_555
C55 N14 1_555 1_555
H96 C55 1_555 1_555
N15 C52 1_555 1_555
O15 C63 1_555 1_555
C56 N15 1_555 1_555
H97 C56 1_555 1_555
C57 C56 1_555 1_555
H98 C57 1_555 1_555
C58 C57 1_555 1_555
H99 C58 1_555 1_555
C59 O13 1_555 1_555
C60 C59 1_555 1_555
H100 C60 1_555 1_555
H101 C60 1_555 1_555
H102 C60 1_555 1_555
C61 C59 1_555 1_555
H103 C61 1_555 1_555
H104 C61 1_555 1_555
H105 C61 1_555 1_555
C62 O12 1_555 1_555
H106 C62 1_555 1_555
C63 C62 1_555 1_555
H107 C63 1_555 1_555
H108 C63 1_555 1_555
Si5 O15 1_555 1_555
C64 Si5 1_555 1_555
H109 C64 1_555 1_555
H110 C64 1_555 1_555
H111 C64 1_555 1_555
C65 Si5 1_555 1_555
H112 C65 1_555 1_555
H113 C65 1_555 1_555
H114 C65 1_555 1_555
C66 Si5 1_555 1_555
C67 C66 1_555 1_555
H115 C67 1_555 1_555
H116 C67 1_555 1_555
H117 C67 1_555 1_555
C68 C66 1_555 1_555
H118 C68 1_555 1_555
H119 C68 1_555 1_555
H120 C68 1_555 1_555
C69 C66 1_555 1_555
H121 C69 1_555 1_555
H122 C69 1_555 1_555
H123 C69 1_555 1_555
O16 C73 1_555 1_555
N16 H124 1_555 1_555
C70 N16 1_555 1_555
O17 C75 1_555 1_555
N17 C70 1_555 1_555
H125 N17 1_555 1_555
H126 N17 1_555 1_555
C71 C72 1_555 1_555
O18 C76 1_555 1_555
C72 N19 1_555 1_555
N18 C70 1_555 1_555
N19 C74 1_555 1_555
C73 N16 1_555 1_555
O19 C77 1_555 1_555
N20 C71 1_555 1_555
C74 N20 1_555 1_555
H127 C74 1_555 1_555
C75 N20 1_555 1_555
H128 C75 1_555 1_555
C76 C75 1_555 1_555
H129 C76 1_555 1_555
C77 C76 1_555 1_555
H130 C77 1_555 1_555
C78 O18 1_555 1_555
C79 C78 1_555 1_555
H131 C79 1_555 1_555
H132 C79 1_555 1_555
H133 C79 1_555 1_555
C80 C78 1_555 1_555
H134 C80 1_555 1_555
H135 C80 1_555 1_555
H136 C80 1_555 1_555
C81 O17 1_555 1_555
H137 C81 1_555 1_555
C82 C81 1_555 1_555
H138 C82 1_555 1_555
H139 C82 1_555 1_555
O20 C82 1_555 1_555
Si6 O20 1_555 1_555
C83 Si6 1_555 1_555
H140 C83 1_555 1_555
H141 C83 1_555 1_555
H142 C83 1_555 1_555
C84 Si6 1_555 1_555
H143 C84 1_555 1_555
H144 C84 1_555 1_555
H145 C84 1_555 1_555
C85 Si6 1_555 1_555
C86 C85 1_555 1_555
H146 C86 1_555 1_555
H147 C86 1_555 1_555
H148 C86 1_555 1_555
C87 C85 1_555 1_555
H149 C87 1_555 1_555
H150 C87 1_555 1_555
H151 C87 1_555 1_555
C88 C85 1_555 1_555
H152 C88 1_555 1_555
H153 C88 1_555 1_555
H154 C88 1_555 1_555
O21 C89 1_555 1_555
C89 C90 1_555 1_555
O22 N21 1_555 1_555
N21 C90 1_555 1_555
C90 C91 1_555 1_555
O23 N21 1_555 1_555
C91 H155 1_555 1_555
O24 N22 1_555 1_555
C92 C91 1_555 1_555
N22 C92 1_555 1_555
O25 N22 1_555 1_555
C93 C92 1_555 1_555
H156 C93 1_555 1_555
N23 C94 1_555 1_555
C94 C89 1_555 1_555
O26 N23 1_555 1_555
O27 N23 1_555 1_555
N24 C95 1_555 1_555
C95 C96 1_555 1_555
C2 N3 1_555 1_555
O4 C9 1_555 1_555
C5 N5 1_555 1_555
C8 C12 1_555 1_555
C33 N8 1_555 1_555
C34 C35 1_555 1_555
O9 C40 1_555 1_555
C36 N10 1_555 1_555
C39 C43 1_555 1_555
C52 N13 1_555 1_555
O14 C59 1_555 1_555
C55 N15 1_555 1_555
C58 C62 1_555 1_555
C71 N18 1_555 1_555
C72 C73 1_555 1_555
O19 C78 1_555 1_555
C77 C81 1_555 1_555
C93 C94 1_555 1_555

#END
