
#######################################################################
#
#                 Cambridge Crystallographic Data Centre
#                                CCDC 
#
#######################################################################
#
# If this CIF has been generated from an entry in the Cambridge 
# Structural Database, then it will include bibliographic, chemical, 
# crystal, experimental, refinement or atomic coordinate data resulting 
# from the CCDC's data processing and validation procedures.
#
#######################################################################

data_NETRUB
_chemical_formula_moiety         'C33 H25 N5 O4'
_chemical_name_systematic        
"N,N'-bis(2-((2-hydroxybenzylidene)amino)phenyl)pyridine-2,6-dicarboxamide unknown solvate"
_symmetry_cell_setting           triclinic
_symmetry_space_group_name_H-M   'P -1'
_symmetry_Int_Tables_number      2
_space_group_name_Hall           '-P 1'
loop_
_symmetry_equiv_pos_site_id
_symmetry_equiv_pos_as_xyz
1 x,y,z
2 -x,-y,-z
_cell_length_a                   12.726(3)
_cell_length_b                   14.507(3)
_cell_length_c                   14.920(3)
_cell_angle_alpha                84.941(8)
_cell_angle_beta                 85.505(7)
_cell_angle_gamma                84.917(8)
_cell_volume                     2726.03
_cell_formula_units_Z            4
loop_
_atom_site_label
_atom_site_type_symbol
_atom_site_fract_x
_atom_site_fract_y
_atom_site_fract_z
C1 C 0.2696(2) 0.3358(2) 0.61855(17)
C2 C 0.3578(2) 0.3846(2) 0.5924(2)
H1 H 0.4250 0.3586 0.6051
C3 C 0.3449(3) 0.4713(2) 0.5478(2)
H2 H 0.4041 0.5039 0.5312
C4 C 0.2467(3) 0.5111(2) 0.5271(2)
H3 H 0.2392 0.5697 0.4965
C5 C 0.1608(2) 0.46261(19) 0.55248(18)
H4 H 0.0942 0.4894 0.5388
C6 C 0.16879(18) 0.37427(17) 0.59821(15)
N1 N 0.08354(14) 0.23900(14) 0.65319(12)
C7 C -0.00580(17) 0.18643(18) 0.66938(14)
C8 C -0.11037(18) 0.22409(19) 0.66479(15)
H5 H -0.1244 0.2875 0.6509
C9 C -0.19269(19) 0.1680(2) 0.68062(17)
H6 H -0.2619 0.1935 0.6759
C10 C -0.1730(2) 0.0746(2) 0.70341(18)
H7 H -0.2291 0.0374 0.7150
C11 C -0.07050(19) 0.03552(19) 0.70923(16)
H8 H -0.0575 -0.0277 0.7249
C12 C 0.01326(16) 0.09164(18) 0.69141(14)
C13 C 0.15911(18) -0.01505(17) 0.75196(16)
C14 C 0.27672(17) -0.03866(15) 0.73886(15)
C15 C 0.3230(2) -0.11171(17) 0.79228(16)
H9 H 0.2816 -0.1471 0.8338
C16 C 0.4309(2) -0.13130(17) 0.78321(17)
H10 H 0.4634 -0.1807 0.8178
C17 C 0.48994(18) -0.07685(17) 0.72243(16)
H11 H 0.5632 -0.0877 0.7160
C18 C 0.43847(17) -0.00551(15) 0.67089(15)
C19 C 0.50343(18) 0.05440(16) 0.60427(16)
C20 C 0.48324(17) 0.18368(15) 0.48516(15)
C21 C 0.58735(18) 0.20773(17) 0.47567(18)
H12 H 0.6372 0.1777 0.5129
C22 C 0.6160(2) 0.27639(19) 0.4107(2)
H13 H 0.6855 0.2924 0.4048
C23 C 0.5445(2) 0.32125(19) 0.3552(2)
H14 H 0.5649 0.3682 0.3125
C24 C 0.44188(18) 0.29674(17) 0.36253(16)
H15 H 0.3938 0.3259 0.3232
C25 C 0.40927(16) 0.22902(15) 0.42791(15)
C26 C 0.22700(17) 0.25872(16) 0.41822(13)
H16 H 0.2405 0.3201 0.4016
C27 C 0.11943(16) 0.23452(15) 0.42181(13)
C28 C 0.03848(17) 0.30367(16) 0.40311(14)
H17 H 0.0553 0.3644 0.3880
C29 C -0.06461(18) 0.28388(18) 0.40651(15)
H18 H -0.1172 0.3308 0.3935
C30 C -0.09075(18) 0.19438(19) 0.42921(16)
H19 H -0.1611 0.1811 0.4314
C31 C -0.01415(18) 0.12466(17) 0.44864(16)
H20 H -0.0326 0.0643 0.4636
C32 C 0.09095(17) 0.14408(16) 0.44596(14)
N2 N 0.12018(14) 0.05299(14) 0.69351(12)
H42 H 0.1647 0.0757 0.6529
N3 N 0.33322(14) 0.01397(12) 0.67773(11)
N4 N 0.44736(13) 0.11667(13) 0.55146(12)
H43 H 0.3798 0.1154 0.5593
N5 N 0.30524(13) 0.19990(12) 0.43679(11)
C66 C 0.07745(18) 0.32292(18) 0.61826(14)
H46 H 0.0114 0.3516 0.6054
O1 O 0.28388(13) 0.24978(14) 0.66046(13)
H47 H 0.2264 0.2285 0.6724
O2 O 0.10654(13) -0.05441(13) 0.81261(12)
O3 O 0.59936(13) 0.04375(14) 0.60085(13)
O4 O 0.16415(13) 0.07346(11) 0.46831(13)
H48 H 0.2230 0.0930 0.4642
C33 C 0.07492(17) 0.35211(16) 0.95357(14)
C34 C -0.03299(18) 0.37609(18) 0.96522(16)
H21 H -0.0580 0.4298 0.9925
C35 C -0.1028(2) 0.3198(2) 0.93608(17)
H22 H -0.1751 0.3362 0.9436
C36 C -0.0678(2) 0.2399(2) 0.89623(17)
H23 H -0.1158 0.2023 0.8774
C37 C 0.03915(19) 0.21613(19) 0.88446(15)
H24 H 0.0627 0.1620 0.8575
C38 C 0.11325(16) 0.27142(16) 0.91206(13)
C39 C 0.22405(17) 0.24292(16) 0.90093(14)
H25 H 0.2443 0.1867 0.8766
C40 C 0.40472(17) 0.25844(15) 0.90677(15)
C41 C 0.44101(18) 0.20475(17) 0.83610(16)
H26 H 0.3931 0.1877 0.7978
C42 C 0.5466(2) 0.17652(19) 0.82203(19)
H27 H 0.5697 0.1405 0.7747
C43 C 0.6182(2) 0.2018(2) 0.8783(2)
H28 H 0.6895 0.1826 0.8686
C44 C 0.58486(18) 0.25509(18) 0.94857(17)
H29 H 0.6335 0.2713 0.9866
C45 C 0.47760(17) 0.28491(16) 0.96280(15)
C46 C 0.49624(19) 0.39883(18) 1.07299(16)
C47 C 0.43493(18) 0.45792(16) 1.14021(15)
C48 C 0.4885(2) 0.52047(18) 1.18048(18)
H30 H 0.5604 0.5251 1.1662
C49 C 0.4343(2) 0.57516(19) 1.2414(2)
H31 H 0.4684 0.6184 1.2684
C50 C 0.3287(2) 0.56530(18) 1.26216(18)
H32 H 0.2907 0.6009 1.3045
C51 C 0.27920(19) 0.50187(15) 1.21953(15)
C52 C 0.16401(19) 0.49110(16) 1.24269(16)
C53 C 0.01351(17) 0.41285(17) 1.19885(14)
C54 C -0.0694(2) 0.47848(18) 1.21788(15)
H33 H -0.0554 0.5380 1.2293
C55 C -0.1728(2) 0.4557(2) 1.21984(17)
H34 H -0.2283 0.4997 1.2329
C56 C -0.1934(2) 0.3673(2) 1.20234(17)
H35 H -0.2630 0.3523 1.2024
C57 C -0.11217(19) 0.3016(2) 1.18502(16)
H36 H -0.1271 0.2419 1.1750
C58 C -0.00750(17) 0.32311(17) 1.18215(14)
C59 C 0.07096(17) 0.18823(17) 1.12102(14)
H37 H 0.0040 0.1776 1.1054
C60 C 0.15967(18) 0.12412(16) 1.09585(14)
C61 C 0.1426(2) 0.04991(18) 1.04649(18)
H38 H 0.0738 0.0382 1.0371
C62 C 0.2259(2) -0.0060(2) 1.0116(2)
H39 H 0.2137 -0.0551 0.9788
C63 C 0.3276(3) 0.0113(2) 1.0257(2)
H40 H 0.3840 -0.0255 1.0008
C64 C 0.3470(2) 0.08183(19) 1.07574(19)
H41 H 0.4162 0.0918 1.0858
C65 C 0.2631(2) 0.13859(17) 1.11157(16)
N6 N 0.29706(13) 0.29113(12) 0.92287(11)
N7 N 0.44106(14) 0.34146(13) 1.03351(12)
H44 H 0.3760 0.3385 1.0532
N8 N 0.33102(14) 0.44853(12) 1.15834(12)
N9 N 0.11990(14) 0.43486(13) 1.19240(12)
H45 H 0.1611 0.4093 1.1515
N10 N 0.08123(14) 0.25902(13) 1.16402(12)
O5 O 0.14244(12) 0.40739(11) 0.98494(11)
H49 H 0.2036 0.3862 0.9741
O6 O 0.59024(14) 0.40818(16) 1.05548(15)
O7 O 0.11644(14) 0.53067(12) 1.30478(12)
O8 O 0.28313(13) 0.20886(13) 1.16045(12)
H50 H 0.2893 0.2562 1.1268
loop_
_geom_bond_atom_site_label_1
_geom_bond_atom_site_label_2
_geom_bond_site_symmetry_1
_geom_bond_site_symmetry_2
C1 C2 1_555 1_555
C2 H1 1_555 1_555
C3 C2 1_555 1_555
H2 C3 1_555 1_555
C4 C3 1_555 1_555
H3 C4 1_555 1_555
C5 C4 1_555 1_555
H4 C5 1_555 1_555
C6 C1 1_555 1_555
N1 C7 1_555 1_555
C7 C8 1_555 1_555
C8 H5 1_555 1_555
C9 C8 1_555 1_555
H6 C9 1_555 1_555
C10 C9 1_555 1_555
H7 C10 1_555 1_555
C11 C10 1_555 1_555
H8 C11 1_555 1_555
C12 C7 1_555 1_555
C13 C14 1_555 1_555
C14 C15 1_555 1_555
C15 H9 1_555 1_555
C16 C15 1_555 1_555
H10 C16 1_555 1_555
C17 C16 1_555 1_555
H11 C17 1_555 1_555
C18 C17 1_555 1_555
C19 C18 1_555 1_555
C20 C21 1_555 1_555
C21 H12 1_555 1_555
C22 C21 1_555 1_555
H13 C22 1_555 1_555
C23 C22 1_555 1_555
H14 C23 1_555 1_555
C24 C23 1_555 1_555
H15 C24 1_555 1_555
C25 C20 1_555 1_555
C26 H16 1_555 1_555
C27 C26 1_555 1_555
C28 C27 1_555 1_555
H17 C28 1_555 1_555
C29 C28 1_555 1_555
H18 C29 1_555 1_555
C30 C29 1_555 1_555
H19 C30 1_555 1_555
C31 C30 1_555 1_555
H20 C31 1_555 1_555
C32 C27 1_555 1_555
C33 C34 1_555 1_555
C34 H21 1_555 1_555
C35 C34 1_555 1_555
H22 C35 1_555 1_555
C36 C35 1_555 1_555
H23 C36 1_555 1_555
C37 C36 1_555 1_555
H24 C37 1_555 1_555
C38 C33 1_555 1_555
C39 C38 1_555 1_555
H25 C39 1_555 1_555
C40 C41 1_555 1_555
C41 H26 1_555 1_555
C42 C41 1_555 1_555
H27 C42 1_555 1_555
C43 C42 1_555 1_555
H28 C43 1_555 1_555
C44 C43 1_555 1_555
H29 C44 1_555 1_555
C45 C40 1_555 1_555
C46 C47 1_555 1_555
C47 C48 1_555 1_555
C48 H30 1_555 1_555
C49 C48 1_555 1_555
H31 C49 1_555 1_555
C50 C49 1_555 1_555
H32 C50 1_555 1_555
C51 C50 1_555 1_555
C52 C51 1_555 1_555
C53 C54 1_555 1_555
C54 H33 1_555 1_555
C55 C54 1_555 1_555
H34 C55 1_555 1_555
C56 C55 1_555 1_555
H35 C56 1_555 1_555
C57 C56 1_555 1_555
H36 C57 1_555 1_555
C58 C53 1_555 1_555
C59 H37 1_555 1_555
C60 C59 1_555 1_555
C61 C60 1_555 1_555
H38 C61 1_555 1_555
C62 C61 1_555 1_555
H39 C62 1_555 1_555
C63 C62 1_555 1_555
H40 C63 1_555 1_555
C64 C63 1_555 1_555
H41 C64 1_555 1_555
C65 C60 1_555 1_555
N2 C12 1_555 1_555
H42 N2 1_555 1_555
N3 C14 1_555 1_555
N4 C19 1_555 1_555
H43 N4 1_555 1_555
N5 C25 1_555 1_555
N6 C39 1_555 1_555
N7 C45 1_555 1_555
H44 N7 1_555 1_555
N8 C47 1_555 1_555
N9 C52 1_555 1_555
H45 N9 1_555 1_555
N10 C58 1_555 1_555
C66 C6 1_555 1_555
H46 C66 1_555 1_555
O1 C1 1_555 1_555
H47 O1 1_555 1_555
O2 C13 1_555 1_555
O3 C19 1_555 1_555
O4 C32 1_555 1_555
H48 O4 1_555 1_555
O5 C33 1_555 1_555
H49 O5 1_555 1_555
O6 C46 1_555 1_555
O7 C52 1_555 1_555
O8 C65 1_555 1_555
H50 O8 1_555 1_555
C5 C6 1_555 1_555
N1 C66 1_555 1_555
C11 C12 1_555 1_555
C13 N2 1_555 1_555
C18 N3 1_555 1_555
C20 N4 1_555 1_555
C24 C25 1_555 1_555
C26 N5 1_555 1_555
C31 C32 1_555 1_555
C37 C38 1_555 1_555
C40 N6 1_555 1_555
C44 C45 1_555 1_555
C46 N7 1_555 1_555
C51 N8 1_555 1_555
C53 N9 1_555 1_555
C57 C58 1_555 1_555
C59 N10 1_555 1_555
C64 C65 1_555 1_555

#END
