
#######################################################################
#
#                 Cambridge Crystallographic Data Centre
#                                CCDC 
#
#######################################################################
#
# If this CIF has been generated from an entry in the Cambridge 
# Structural Database, then it will include bibliographic, chemical, 
# crystal, experimental, refinement or atomic coordinate data resulting 
# from the CCDC's data processing and validation procedures.
#
#######################################################################

data_NETZUK
_chemical_formula_moiety         'C22 H16 F1 N1'
_chemical_name_systematic        2-(4-fluorophenyl)-8-methyl-4-phenylquinoline
_symmetry_cell_setting           orthorhombic
_symmetry_space_group_name_H-M   'P b c a'
_symmetry_Int_Tables_number      61
_space_group_name_Hall           '-P 2ac 2ab'
loop_
_symmetry_equiv_pos_site_id
_symmetry_equiv_pos_as_xyz
1 x,y,z
2 1/2-x,-y,1/2+z
3 -x,1/2+y,1/2-z
4 1/2+x,1/2-y,-z
5 -x,-y,-z
6 1/2+x,y,1/2-z
7 x,1/2-y,1/2+z
8 1/2-x,1/2+y,z
_cell_length_a                   19.293(4)
_cell_length_b                   7.2555(14)
_cell_length_c                   23.177(5)
_cell_angle_alpha                90
_cell_angle_beta                 90
_cell_angle_gamma                90
_cell_volume                     3244.32
_exptl_crystal_description       block
_cell_formula_units_Z            8
loop_
_atom_site_label
_atom_site_type_symbol
_atom_site_fract_x
_atom_site_fract_y
_atom_site_fract_z
N1 N 0.15183(8) 0.8163(2) 0.13700(6)
C1 C 0.27535(10) 0.8153(3) 0.13154(8)
C2 C 0.08730(10) 0.7289(3) 0.22353(8)
C3 C 0.09068(10) 0.7854(3) 0.16476(8)
C4 C 0.21048(10) 0.7908(3) 0.16498(8)
C5 C 0.21120(10) 0.7424(3) 0.22416(8)
H1 H 0.2535 0.7286 0.2429
C6 C 0.15121(10) 0.7156(3) 0.25424(8)
C7 C 0.02866(10) 0.8048(3) 0.13176(8)
C8 C 0.15429(10) 0.6714(3) 0.31701(8)
C9 C 0.02192(10) 0.6809(3) 0.24670(9)
H2 H 0.0187 0.6388 0.2845
C10 C 0.34008(11) 0.8174(3) 0.15639(9)
H3 H 0.3439 0.8016 0.1961
C11 C -0.03284(11) 0.7610(3) 0.15701(9)
H4 H -0.0736 0.7746 0.1360
F1 F 0.45147(8) 0.8917(2) 0.03486(6)
C12 C -0.03654(11) 0.6960(3) 0.21374(9)
H5 H -0.0792 0.6628 0.2292
C13 C 0.39937(12) 0.8422(3) 0.12423(11)
H6 H 0.4427 0.8429 0.1418
C14 C 0.11318(11) 0.7632(3) 0.35653(8)
H7 H 0.0826 0.8534 0.3437
C15 C 0.20026(11) 0.5405(3) 0.33784(9)
H8 H 0.2293 0.4792 0.3122
C16 C 0.03285(11) 0.8669(3) 0.06981(9)
H9 H 0.0602 0.7808 0.0481
H10 H 0.0540 0.9866 0.0681
H11 H -0.0130 0.8730 0.0538
C17 C 0.39326(12) 0.8656(3) 0.06676(11)
C18 C 0.33111(14) 0.8633(4) 0.04001(10)
H12 H 0.3282 0.8785 0.0002
C19 C 0.11680(12) 0.7232(3) 0.41480(8)
H13 H 0.0890 0.7866 0.4409
C20 C 0.27215(12) 0.8380(4) 0.07234(9)
H14 H 0.2293 0.8362 0.0541
C21 C 0.20371(12) 0.4995(4) 0.39609(10)
H15 H 0.2347 0.4108 0.4093
C22 C 0.16150(13) 0.5897(4) 0.43406(10)
H16 H 0.1631 0.5605 0.4731
loop_
_geom_bond_atom_site_label_1
_geom_bond_atom_site_label_2
_geom_bond_site_symmetry_1
_geom_bond_site_symmetry_2
N1 C3 1_555 1_555
C1 C4 1_555 1_555
C2 C3 1_555 1_555
C3 C7 1_555 1_555
C4 N1 1_555 1_555
C5 C4 1_555 1_555
H1 C5 1_555 1_555
C6 C2 1_555 1_555
C7 C11 1_555 1_555
C8 C6 1_555 1_555
C9 C2 1_555 1_555
H2 C9 1_555 1_555
C10 C1 1_555 1_555
H3 C10 1_555 1_555
C11 H4 1_555 1_555
F1 C17 1_555 1_555
C12 C9 1_555 1_555
H5 C12 1_555 1_555
C13 C10 1_555 1_555
H6 C13 1_555 1_555
C14 C8 1_555 1_555
H7 C14 1_555 1_555
C15 C8 1_555 1_555
H8 C15 1_555 1_555
C16 C7 1_555 1_555
H9 C16 1_555 1_555
H10 C16 1_555 1_555
H11 C16 1_555 1_555
C17 C13 1_555 1_555
C18 C17 1_555 1_555
H12 C18 1_555 1_555
C19 C14 1_555 1_555
H13 C19 1_555 1_555
C20 C1 1_555 1_555
H14 C20 1_555 1_555
C21 C15 1_555 1_555
H15 C21 1_555 1_555
C22 C19 1_555 1_555
H16 C22 1_555 1_555
C5 C6 1_555 1_555
C11 C12 1_555 1_555
C18 C20 1_555 1_555
C21 C22 1_555 1_555

#END
