
#######################################################################
#
#                 Cambridge Crystallographic Data Centre
#                                CCDC 
#
#######################################################################
#
# If this CIF has been generated from an entry in the Cambridge 
# Structural Database, then it will include bibliographic, chemical, 
# crystal, experimental, refinement or atomic coordinate data resulting 
# from the CCDC's data processing and validation procedures.
#
#######################################################################

data_NEVHAA
_chemical_formula_moiety         'C19 H14 N2 O2'
_chemical_name_systematic        
2-(5-methylfuran-2-yl)-3-phenylquinazolin-4(3H)-one
_symmetry_cell_setting           monoclinic
_symmetry_space_group_name_H-M   'P 21/c'
_symmetry_Int_Tables_number      14
_space_group_name_Hall           '-P 2ybc'
loop_
_symmetry_equiv_pos_site_id
_symmetry_equiv_pos_as_xyz
1 x,y,z
2 -x,1/2+y,1/2-z
3 -x,-y,-z
4 x,1/2-y,1/2+z
_cell_length_a                   10.351(2)
_cell_length_b                   11.378(2)
_cell_length_c                   12.992(3)
_cell_angle_alpha                90
_cell_angle_beta                 106.17(3)
_cell_angle_gamma                90
_cell_volume                     1469.58
_exptl_crystal_colour            colorless
_exptl_crystal_description       block
_cell_formula_units_Z            4
loop_
_atom_site_label
_atom_site_type_symbol
_atom_site_fract_x
_atom_site_fract_y
_atom_site_fract_z
O1 O 0.53917(10) 0.50463(9) 0.69231(8)
O2 O 0.06093(11) 0.53948(11) 0.31804(9)
N1 N 0.23791(12) 0.49858(10) 0.46335(9)
N2 N 0.41069(12) 0.63713(11) 0.53487(9)
C1 C 0.22565(15) 0.68849(13) 0.37859(11)
C2 C 0.16406(17) 0.77085(14) 0.29966(13)
H1 H 0.0793 0.7538 0.2505
C3 C 0.22664(17) 0.87609(14) 0.29374(13)
H2 H 0.1853 0.9320 0.2404
C4 C 0.35202(17) 0.90090(14) 0.36674(13)
H3 H 0.3957 0.9731 0.3614
C5 C 0.41231(16) 0.82186(13) 0.44586(12)
H4 H 0.4964 0.8402 0.4953
C6 C 0.34902(15) 0.71388(13) 0.45332(11)
C7 C 0.35562(14) 0.53523(13) 0.53847(11)
C8 C 0.16500(15) 0.57349(13) 0.38130(12)
C9 C 0.18982(15) 0.37834(13) 0.45587(12)
C10 C 0.09476(16) 0.34490(15) 0.50639(13)
H5 H 0.0609 0.4000 0.5474
C11 C 0.04923(17) 0.22935(16) 0.49634(15)
H6 H -0.0147 0.2046 0.5320
C12 C 0.09681(17) 0.15036(15) 0.43460(15)
H7 H 0.0649 0.0717 0.4274
C13 C 0.19054(17) 0.18567(15) 0.38342(14)
H8 H 0.2223 0.1313 0.3405
C14 C 0.23874(16) 0.30044(14) 0.39430(12)
H9 H 0.3042 0.3248 0.3600
C15 C 0.42141(14) 0.45777(13) 0.62766(11)
C16 C 0.39936(16) 0.35126(13) 0.66750(12)
H10 H 0.3258 0.3001 0.6382
C17 C 0.50708(17) 0.33104(14) 0.76110(12)
H11 H 0.5189 0.2642 0.8066
C18 C 0.58946(15) 0.42531(14) 0.77286(11)
C19 C 0.71602(17) 0.46038(17) 0.85308(13)
H12 H 0.7848 0.4780 0.8166
H13 H 0.7472 0.3960 0.9040
H14 H 0.6997 0.5303 0.8916
loop_
_geom_bond_atom_site_label_1
_geom_bond_atom_site_label_2
_geom_bond_site_symmetry_1
_geom_bond_site_symmetry_2
O1 C15 1_555 1_555
O2 C8 1_555 1_555
N1 C7 1_555 1_555
N2 C6 1_555 1_555
C1 C2 1_555 1_555
C2 H1 1_555 1_555
C3 C2 1_555 1_555
H2 C3 1_555 1_555
C4 C3 1_555 1_555
H3 C4 1_555 1_555
C5 C4 1_555 1_555
H4 C5 1_555 1_555
C6 C1 1_555 1_555
C7 N2 1_555 1_555
C8 N1 1_555 1_555
C9 N1 1_555 1_555
C10 C9 1_555 1_555
H5 C10 1_555 1_555
C11 C10 1_555 1_555
H6 C11 1_555 1_555
C12 C11 1_555 1_555
H7 C12 1_555 1_555
C13 C12 1_555 1_555
H8 C13 1_555 1_555
C14 C9 1_555 1_555
H9 C14 1_555 1_555
C15 C7 1_555 1_555
C16 C15 1_555 1_555
H10 C16 1_555 1_555
C17 C16 1_555 1_555
H11 C17 1_555 1_555
C18 O1 1_555 1_555
C19 C18 1_555 1_555
H12 C19 1_555 1_555
H13 C19 1_555 1_555
H14 C19 1_555 1_555
C1 C8 1_555 1_555
C5 C6 1_555 1_555
C13 C14 1_555 1_555
C17 C18 1_555 1_555

#END
