
#######################################################################
#
#                 Cambridge Crystallographic Data Centre
#                                CCDC 
#
#######################################################################
#
# If this CIF has been generated from an entry in the Cambridge 
# Structural Database, then it will include bibliographic, chemical, 
# crystal, experimental, refinement or atomic coordinate data resulting 
# from the CCDC's data processing and validation procedures.
#
#######################################################################

data_NEVKAC
_chemical_formula_moiety         'C16 H22 N2 O1'
_chemical_name_systematic        
4-Isopropyl-3-phenyl-5-(pyrrolidin-1-yl)-4,5-dihydro-1,2-oxazole
_symmetry_cell_setting           monoclinic
_symmetry_space_group_name_H-M   'P 21/c'
_symmetry_Int_Tables_number      14
_space_group_name_Hall           '-P 2ybc'
loop_
_symmetry_equiv_pos_site_id
_symmetry_equiv_pos_as_xyz
1 x,y,z
2 -x,1/2+y,1/2-z
3 -x,-y,-z
4 x,1/2-y,1/2+z
_cell_length_a                   14.759(3)
_cell_length_b                   10.647(2)
_cell_length_c                   18.645(4)
_cell_angle_alpha                90
_cell_angle_beta                 91.516(4)
_cell_angle_gamma                90
_cell_volume                     2928.83
_exptl_crystal_colour            colorless
_exptl_crystal_description       Block
_cell_formula_units_Z            8
loop_
_atom_site_label
_atom_site_type_symbol
_atom_site_fract_x
_atom_site_fract_y
_atom_site_fract_z
O1 O 0.24953(6) -0.00486(8) 0.37799(5)
N1 N 0.17694(7) 0.03416(10) 0.42102(5)
N2 N 0.30349(7) 0.16119(10) 0.30143(5)
C1 C 0.19790(8) 0.13971(11) 0.45029(6)
C2 C 0.28974(8) 0.18900(11) 0.43185(6)
H1 H 0.2841 0.2774 0.4141
C3 C 0.31249(8) 0.10212(11) 0.36958(6)
H2 H 0.3762 0.0714 0.3765
C4 C 0.13457(8) 0.20264(12) 0.49861(6)
C5 C 0.07112(9) 0.13312(13) 0.53602(7)
H3 H 0.0697 0.0442 0.5318
C6 C 0.00997(9) 0.19415(14) 0.57941(8)
H4 H -0.0336 0.1468 0.6045
C7 C 0.01216(9) 0.32360(14) 0.58630(7)
H5 H -0.0297 0.3648 0.6162
C8 C 0.07546(9) 0.39323(13) 0.54960(7)
H6 H 0.0770 0.4820 0.5544
C9 C 0.13652(8) 0.33320(12) 0.50586(6)
H7 H 0.1798 0.3810 0.4808
C10 C 0.35695(9) 0.18427(13) 0.49643(7)
H8 H 0.3332 0.2419 0.5339
C11 C 0.36548(11) 0.05463(15) 0.53013(8)
H9 H 0.3870 -0.0051 0.4944
H10 H 0.3062 0.0276 0.5469
H11 H 0.4088 0.0579 0.5708
C12 C 0.44867(10) 0.23540(15) 0.47487(8)
H12 H 0.4887 0.2422 0.5175
H13 H 0.4406 0.3185 0.4531
H14 H 0.4757 0.1784 0.4402
C13 C 0.21432(9) 0.21301(12) 0.28126(7)
H15 H 0.1990 0.2856 0.3119
H16 H 0.1663 0.1486 0.2847
C14 C 0.22681(11) 0.25332(13) 0.20376(8)
H17 H 0.2493 0.3408 0.2014
H18 H 0.1690 0.2472 0.1758
C15 C 0.29671(11) 0.16154(17) 0.17523(8)
H19 H 0.3483 0.2074 0.1547
H20 H 0.2691 0.1071 0.1376
C16 C 0.32826(9) 0.08316(13) 0.24013(7)
H21 H 0.2967 0.0011 0.2410
H22 H 0.3945 0.0686 0.2398
O2 O 0.26895(6) 0.49457(8) 0.38219(5)
N3 N 0.19511(7) 0.52685(10) 0.33596(6)
N4 N 0.32050(7) 0.65981(10) 0.46230(5)
C17 C 0.21007(8) 0.63481(11) 0.30811(6)
C18 C 0.29840(8) 0.69418(11) 0.33208(6)
H23 H 0.2864 0.7795 0.3521
C19 C 0.32768(8) 0.60621(11) 0.39274(6)
H24 H 0.3921 0.5809 0.3857
C20 C 0.14384(8) 0.69038(12) 0.25689(6)
C21 C 0.09078(9) 0.61409(13) 0.21165(7)
H25 H 0.0988 0.5256 0.2125
C22 C 0.02645(9) 0.66754(14) 0.16554(7)
H26 H -0.0095 0.6153 0.1348
C23 C 0.01415(9) 0.79665(14) 0.16393(7)
H27 H -0.0304 0.8326 0.1325
C24 C 0.06715(9) 0.87326(13) 0.20843(7)
H28 H 0.0590 0.9618 0.2073
C25 C 0.13194(8) 0.82063(12) 0.25457(7)
H29 H 0.1684 0.8733 0.2847
C26 C 0.36575(9) 0.70530(12) 0.27039(7)
H30 H 0.3371 0.7610 0.2330
C27 C 0.38491(10) 0.57966(14) 0.23465(8)
H31 H 0.4275 0.5922 0.1959
H32 H 0.3282 0.5444 0.2149
H33 H 0.4114 0.5216 0.2702
C28 C 0.45289(9) 0.76915(14) 0.29646(8)
H34 H 0.4834 0.7164 0.3327
H35 H 0.4385 0.8508 0.3175
H36 H 0.4929 0.7813 0.2559
C29 C 0.23069(10) 0.70513(13) 0.48293(7)
H37 H 0.1832 0.6419 0.4718
H38 H 0.2149 0.7846 0.4580
C30 C 0.24191(13) 0.72546(17) 0.56431(9)
H39 H 0.2467 0.8161 0.5755
H40 H 0.1895 0.6902 0.5896
C31 C 0.32873(13) 0.65747(16) 0.58688(8)
H41 H 0.3778 0.7180 0.5987
H42 H 0.3189 0.6031 0.6290
C32 C 0.35163(10) 0.57958(13) 0.52156(7)
H43 H 0.4176 0.5636 0.5196
H44 H 0.3190 0.4984 0.5212
loop_
_geom_bond_atom_site_label_1
_geom_bond_atom_site_label_2
_geom_bond_site_symmetry_1
_geom_bond_site_symmetry_2
O1 N1 1_555 1_555
N1 C1 1_555 1_555
N2 C3 1_555 1_555
C1 C2 1_555 1_555
C2 H1 1_555 1_555
C3 O1 1_555 1_555
H2 C3 1_555 1_555
C4 C1 1_555 1_555
C5 C4 1_555 1_555
H3 C5 1_555 1_555
C6 C5 1_555 1_555
H4 C6 1_555 1_555
C7 C6 1_555 1_555
H5 C7 1_555 1_555
C8 C7 1_555 1_555
H6 C8 1_555 1_555
C9 C4 1_555 1_555
H7 C9 1_555 1_555
C10 C2 1_555 1_555
H8 C10 1_555 1_555
C11 C10 1_555 1_555
H9 C11 1_555 1_555
H10 C11 1_555 1_555
H11 C11 1_555 1_555
C12 C10 1_555 1_555
H12 C12 1_555 1_555
H13 C12 1_555 1_555
H14 C12 1_555 1_555
C13 N2 1_555 1_555
H15 C13 1_555 1_555
H16 C13 1_555 1_555
C14 C13 1_555 1_555
H17 C14 1_555 1_555
H18 C14 1_555 1_555
C15 C14 1_555 1_555
H19 C15 1_555 1_555
H20 C15 1_555 1_555
C16 N2 1_555 1_555
H21 C16 1_555 1_555
H22 C16 1_555 1_555
O2 N3 1_555 1_555
N3 C17 1_555 1_555
N4 C19 1_555 1_555
C17 C18 1_555 1_555
C18 H23 1_555 1_555
C19 O2 1_555 1_555
H24 C19 1_555 1_555
C20 C17 1_555 1_555
C21 C20 1_555 1_555
H25 C21 1_555 1_555
C22 C21 1_555 1_555
H26 C22 1_555 1_555
C23 C22 1_555 1_555
H27 C23 1_555 1_555
C24 C23 1_555 1_555
H28 C24 1_555 1_555
C25 C20 1_555 1_555
H29 C25 1_555 1_555
C26 C18 1_555 1_555
H30 C26 1_555 1_555
C27 C26 1_555 1_555
H31 C27 1_555 1_555
H32 C27 1_555 1_555
H33 C27 1_555 1_555
C28 C26 1_555 1_555
H34 C28 1_555 1_555
H35 C28 1_555 1_555
H36 C28 1_555 1_555
C29 N4 1_555 1_555
H37 C29 1_555 1_555
H38 C29 1_555 1_555
C30 C29 1_555 1_555
H39 C30 1_555 1_555
H40 C30 1_555 1_555
C31 C30 1_555 1_555
H41 C31 1_555 1_555
H42 C31 1_555 1_555
C32 N4 1_555 1_555
H43 C32 1_555 1_555
H44 C32 1_555 1_555
C2 C3 1_555 1_555
C8 C9 1_555 1_555
C15 C16 1_555 1_555
C18 C19 1_555 1_555
C24 C25 1_555 1_555
C31 C32 1_555 1_555

#END
