
#######################################################################
#
#                 Cambridge Crystallographic Data Centre
#                                CCDC 
#
#######################################################################
#
# If this CIF has been generated from an entry in the Cambridge 
# Structural Database, then it will include bibliographic, chemical, 
# crystal, experimental, refinement or atomic coordinate data resulting 
# from the CCDC's data processing and validation procedures.
#
#######################################################################

data_NEVLOS
_chemical_formula_moiety         'C21 H27 N1 O4'
_chemical_name_systematic        
'methyl 3,11a-dimethyl-6,12-dioxo-11-(prop-2-en-1-yl)-1,3,4,7,8,11,11a,11b-octahydro-2H-2,11-methanocyclohepta[a]indolizine-6a(6H)-carboxylate'
_symmetry_cell_setting           orthorhombic
_symmetry_space_group_name_H-M   'P 21 21 21'
_symmetry_Int_Tables_number      19
_space_group_name_Hall           'P 2ac 2ab'
loop_
_symmetry_equiv_pos_site_id
_symmetry_equiv_pos_as_xyz
1 x,y,z
2 1/2-x,-y,1/2+z
3 1/2+x,1/2-y,-z
4 -x,1/2+y,1/2-z
_cell_length_a                   7.5605(4)
_cell_length_b                   12.0577(7)
_cell_length_c                   20.2160(11)
_cell_angle_alpha                90
_cell_angle_beta                 90
_cell_angle_gamma                90
_cell_volume                     1842.94
_exptl_crystal_colour            colorless
_exptl_crystal_description       block
_cell_formula_units_Z            4
loop_
_atom_site_label
_atom_site_type_symbol
_atom_site_fract_x
_atom_site_fract_y
_atom_site_fract_z
C1 C 0.6922(7) 0.6818(4) 0.1339(2)
H1 H 0.7451 0.7499 0.1501
H2 H 0.5655 0.6930 0.1305
C2 C 0.7689(6) 0.6529(4) 0.0654(2)
H3 H 0.6776 0.6144 0.0397
C3 C 0.9279(6) 0.5729(4) 0.0752(2)
H4 H 1.0090 0.5812 0.0377
C4 C 1.0252(6) 0.6051(4) 0.1386(3)
C5 C 0.9133(6) 0.5606(4) 0.1952(2)
H5 H 0.9501 0.5945 0.2371
C6 C 0.6090(6) 0.5158(4) 0.1979(2)
C7 C 0.7058(6) 0.4159(4) 0.2279(2)
C8 C 0.9051(5) 0.4305(3) 0.2024(2)
C9 C 0.9439(6) 0.3757(3) 0.1317(2)
C10 C 0.8905(7) 0.2557(4) 0.1194(3)
H6 H 0.9401 0.2268 0.0810
C11 C 1.0403(6) 0.3888(4) 0.2531(2)
H7 H 1.1552 0.4175 0.2424
H8 H 1.0435 0.3093 0.2524
H9 H 1.0069 0.4137 0.2965
C12 C 0.7931(9) 0.1856(4) 0.1498(3)
H10 H 0.7870 0.1150 0.1315
C13 C 0.6883(9) 0.2042(5) 0.2112(3)
H11 H 0.6020 0.1453 0.2164
H12 H 0.7662 0.2030 0.2494
C14 C 0.5963(7) 0.3132(5) 0.2075(4)
H13 H 0.4922 0.3098 0.2355
H14 H 0.5559 0.3239 0.1624
C15 C 0.6995(6) 0.4267(4) 0.3033(3)
C16 C 1.1516(6) 0.3701(4) 0.1197(2)
H15 H 1.2061 0.4332 0.1413
H16 H 1.1970 0.3036 0.1406
C17 C 1.2067(7) 0.3696(4) 0.0486(3)
H17 H 1.1540 0.3193 0.0198
C18 C 1.3275(7) 0.4382(5) 0.0253(3)
H18 H 1.3815 0.4891 0.0534
H19 H 1.3587 0.4357 -0.0192
C19 C 0.8648(6) 0.4518(4) 0.0782(2)
C20 C 0.6998(11) 0.5477(6) 0.3948(3)
H20 H 0.5904 0.5183 0.4113
H21 H 0.7067 0.6254 0.4048
H22 H 0.7971 0.5097 0.4153
C21 C 0.8216(8) 0.7583(5) 0.0281(3)
H23 H 0.9187 0.7934 0.0505
H24 H 0.7228 0.8083 0.0267
H25 H 0.8565 0.7395 -0.0161
N1 N 0.7296(5) 0.5909(3) 0.17996(19)
O1 O 0.7593(4) 0.4164(3) 0.03808(16)
O2 O 0.4494(4) 0.5221(3) 0.19045(18)
O3 O 0.7079(5) 0.5319(3) 0.32337(17)
O4 O 0.6809(7) 0.3496(3) 0.3399(2)
H26 H 1.021(6) 0.6689(12) 0.139(2)
H27 H 1.114(4) 0.576(4) 0.145(3)
loop_
_geom_bond_atom_site_label_1
_geom_bond_atom_site_label_2
_geom_bond_site_symmetry_1
_geom_bond_site_symmetry_2
C1 H1 1_555 1_555
H2 C1 1_555 1_555
C2 C1 1_555 1_555
H3 C2 1_555 1_555
C3 C2 1_555 1_555
H4 C3 1_555 1_555
C4 C3 1_555 1_555
C5 C4 1_555 1_555
H5 C5 1_555 1_555
C6 C7 1_555 1_555
C7 C8 1_555 1_555
C8 C5 1_555 1_555
C9 C8 1_555 1_555
C10 C9 1_555 1_555
H6 C10 1_555 1_555
C11 C8 1_555 1_555
H7 C11 1_555 1_555
H8 C11 1_555 1_555
H9 C11 1_555 1_555
C12 C10 1_555 1_555
H10 C12 1_555 1_555
C13 C12 1_555 1_555
H11 C13 1_555 1_555
H12 C13 1_555 1_555
C14 C7 1_555 1_555
H13 C14 1_555 1_555
H14 C14 1_555 1_555
C15 C7 1_555 1_555
C16 C9 1_555 1_555
H15 C16 1_555 1_555
H16 C16 1_555 1_555
C17 C16 1_555 1_555
H17 C17 1_555 1_555
C18 C17 1_555 1_555
H18 C18 1_555 1_555
H19 C18 1_555 1_555
C19 C3 1_555 1_555
C20 H20 1_555 1_555
H21 C20 1_555 1_555
H22 C20 1_555 1_555
C21 C2 1_555 1_555
H23 C21 1_555 1_555
H24 C21 1_555 1_555
H25 C21 1_555 1_555
N1 C1 1_555 1_555
O1 C19 1_555 1_555
O2 C6 1_555 1_555
O3 C15 1_555 1_555
O4 C15 1_555 1_555
H26 C4 1_555 1_555
H27 C4 1_555 1_555
C5 N1 1_555 1_555
C6 N1 1_555 1_555
C9 C19 1_555 1_555
C13 C14 1_555 1_555
C20 O3 1_555 1_555

#END
