
#######################################################################
#
#                 Cambridge Crystallographic Data Centre
#                                CCDC 
#
#######################################################################
#
# If this CIF has been generated from an entry in the Cambridge 
# Structural Database, then it will include bibliographic, chemical, 
# crystal, experimental, refinement or atomic coordinate data resulting 
# from the CCDC's data processing and validation procedures.
#
#######################################################################

data_NEVNUZ
_chemical_formula_moiety         'C28 H22 N2 O10 Te1,C7 H8'
_chemical_name_systematic        
"1,1'-(bis((4-nitrobenzoyl)oxy)-\l^4^-tellanediyl)bis(4-methoxybenzene) toluene solvate"
_symmetry_cell_setting           triclinic
_symmetry_space_group_name_H-M   'P -1'
_symmetry_Int_Tables_number      2
_space_group_name_Hall           '-P 1'
loop_
_symmetry_equiv_pos_site_id
_symmetry_equiv_pos_as_xyz
1 x,y,z
2 -x,-y,-z
_cell_length_a                   9.8985(10)
_cell_length_b                   12.9241(14)
_cell_length_c                   12.9369(13)
_cell_angle_alpha                85.372(2)
_cell_angle_beta                 88.715(2)
_cell_angle_gamma                84.774(2)
_cell_volume                     1642.56
_exptl_crystal_colour            yellow
_cell_formula_units_Z            2
loop_
_atom_site_label
_atom_site_type_symbol
_atom_site_fract_x
_atom_site_fract_y
_atom_site_fract_z
C1 C 0.8012(5) 0.2869(4) 0.0072(4)
C2 C 0.7739(5) 0.3709(4) 0.0686(4)
H1 H 0.7950 0.3632 0.1387
C3 C 0.7156(6) 0.4656(5) 0.0252(4)
H2 H 0.6990 0.5216 0.0659
C4 C 0.6818(5) 0.4770(4) -0.0790(4)
C5 C 0.7096(5) 0.3927(4) -0.1398(4)
H3 H 0.6889 0.4004 -0.2100
C6 C 0.7667(5) 0.2993(4) -0.0972(4)
H4 H 0.7827 0.2434 -0.1382
C7 C 0.5971(7) 0.6551(5) -0.0701(5)
H5 H 0.6770 0.6657 -0.0330
H6 H 0.5241 0.6436 -0.0216
H7 H 0.5724 0.7156 -0.1160
C8 C 0.9816(5) 0.1928(4) 0.1974(4)
C9 C 1.0758(5) 0.2647(4) 0.1794(4)
H8 H 1.0930 0.2913 0.1119
C10 C 1.1455(5) 0.2980(4) 0.2612(4)
H9 H 1.2082 0.3472 0.2489
C11 C 1.1197(5) 0.2564(4) 0.3618(4)
C12 C 1.0243(5) 0.1837(4) 0.3795(4)
H10 H 1.0067 0.1571 0.4469
C13 C 0.9552(5) 0.1506(4) 0.2975(4)
H11 H 0.8926 0.1013 0.3092
C14 C 1.2834(6) 0.3549(5) 0.4309(4)
H12 H 1.2439 0.4193 0.3976
H13 H 1.3550 0.3259 0.3877
H14 H 1.3196 0.3676 0.4965
C15 C 1.0685(5) 0.1339(4) -0.1042(4)
C16 C 1.1949(5) 0.1470(4) -0.1677(4)
C17 C 1.1900(6) 0.1449(4) -0.2747(4)
H15 H 1.1105 0.1300 -0.3050
C18 C 1.3015(5) 0.1646(4) -0.3365(4)
H16 H 1.2983 0.1627 -0.4081
C19 C 1.4191(5) 0.1876(4) -0.2890(4)
C20 C 1.4288(5) 0.1890(4) -0.1820(4)
H17 H 1.5089 0.2032 -0.1520
C21 C 1.3163(5) 0.1687(4) -0.1222(4)
H18 H 1.3204 0.1692 -0.0505
C22 C 0.6047(5) 0.1106(4) 0.1339(4)
C23 C 0.4949(5) 0.0814(4) 0.2103(4)
C24 C 0.5055(5) 0.0942(4) 0.3154(4)
H19 H 0.5783 0.1259 0.3389
C25 C 0.4080(5) 0.0599(4) 0.3849(4)
H20 H 0.4144 0.0676 0.4554
C26 C 0.3009(5) 0.0137(4) 0.3468(4)
C27 C 0.2853(5) 0.0026(4) 0.2429(4)
H21 H 0.2106 -0.0271 0.2198
C28 C 0.3835(5) 0.0368(4) 0.1736(4)
H22 H 0.3754 0.0301 0.1030
N1 N 1.5350(4) 0.2145(3) -0.3542(3)
N2 N 0.2032(4) -0.0291(4) 0.4222(3)
O1 O 0.6238(4) 0.5657(3) -0.1293(3)
O2 O 1.1814(4) 0.2830(3) 0.4472(3)
O3 O 1.0682(3) 0.1685(3) -0.0125(3)
O4 O 0.9732(4) 0.0942(3) -0.1398(3)
O5 O 1.6314(4) 0.2489(3) -0.3137(3)
O6 O 1.5330(4) 0.1997(3) -0.4470(3)
O7 O 0.7111(3) 0.1402(3) 0.1782(3)
O8 O 0.5968(3) 0.1035(3) 0.0408(3)
O9 O 0.2130(4) -0.0128(3) 0.5136(3)
O10 O 0.1146(4) -0.0791(3) 0.3895(3)
Te1 Te 0.88044(3) 0.14134(3) 0.07254(2)
C29 C 0.8635(7) 0.5291(5) 0.3322(5)
C30 C 0.8783(7) 0.4477(5) 0.4098(5)
H23 H 0.9630 0.4298 0.4391
C31 C 0.7717(7) 0.3937(5) 0.4438(6)
H24 H 0.7841 0.3394 0.4955
C32 C 0.6480(8) 0.4192(8) 0.4023(8)
H25 H 0.5748 0.3831 0.4260
C33 C 0.6301(9) 0.4993(7) 0.3243(7)
H26 H 0.5452 0.5166 0.2952
C34 C 0.7384(8) 0.5528(6) 0.2905(5)
H27 H 0.7261 0.6063 0.2381
C35 C 0.9836(9) 0.5876(7) 0.2966(9)
H28 H 0.9701 0.6167 0.2266
H29 H 1.0646 0.5406 0.2997
H30 H 0.9924 0.6426 0.3409
loop_
_geom_bond_atom_site_label_1
_geom_bond_atom_site_label_2
_geom_bond_site_symmetry_1
_geom_bond_site_symmetry_2
C1 C2 1_555 1_555
C2 H1 1_555 1_555
C3 C2 1_555 1_555
H2 C3 1_555 1_555
C4 C3 1_555 1_555
C5 C4 1_555 1_555
H3 C5 1_555 1_555
C6 C1 1_555 1_555
H4 C6 1_555 1_555
C7 H5 1_555 1_555
H6 C7 1_555 1_555
H7 C7 1_555 1_555
C8 C9 1_555 1_555
C9 H8 1_555 1_555
C10 C9 1_555 1_555
H9 C10 1_555 1_555
C11 C10 1_555 1_555
C12 C11 1_555 1_555
H10 C12 1_555 1_555
C13 C8 1_555 1_555
H11 C13 1_555 1_555
C14 H12 1_555 1_555
H13 C14 1_555 1_555
H14 C14 1_555 1_555
C15 C16 1_555 1_555
C16 C17 1_555 1_555
C17 H15 1_555 1_555
C18 C17 1_555 1_555
H16 C18 1_555 1_555
C19 C18 1_555 1_555
C20 C19 1_555 1_555
H17 C20 1_555 1_555
C21 C16 1_555 1_555
H18 C21 1_555 1_555
C22 C23 1_555 1_555
C23 C24 1_555 1_555
C24 H19 1_555 1_555
C25 C24 1_555 1_555
H20 C25 1_555 1_555
C26 C25 1_555 1_555
C27 C26 1_555 1_555
H21 C27 1_555 1_555
C28 C23 1_555 1_555
H22 C28 1_555 1_555
N1 C19 1_555 1_555
N2 C26 1_555 1_555
O1 C4 1_555 1_555
O2 C11 1_555 1_555
O3 C15 1_555 1_555
O4 C15 1_555 1_555
O5 N1 1_555 1_555
O6 N1 1_555 1_555
O7 C22 1_555 1_555
O8 C22 1_555 1_555
O9 N2 1_555 1_555
O10 N2 1_555 1_555
Te1 C1 1_555 1_555
C29 C30 1_555 1_555
C30 H23 1_555 1_555
C31 C30 1_555 1_555
H24 C31 1_555 1_555
C32 C31 1_555 1_555
H25 C32 1_555 1_555
C33 C32 1_555 1_555
H26 C33 1_555 1_555
C34 C29 1_555 1_555
H27 C34 1_555 1_555
C35 C29 1_555 1_555
H28 C35 1_555 1_555
H29 C35 1_555 1_555
H30 C35 1_555 1_555
C5 C6 1_555 1_555
C7 O1 1_555 1_555
C8 Te1 1_555 1_555
C12 C13 1_555 1_555
C14 O2 1_555 1_555
C20 C21 1_555 1_555
C27 C28 1_555 1_555
O3 Te1 1_555 1_555
O7 Te1 1_555 1_555
C33 C34 1_555 1_555

#END
