
#######################################################################
#
#                 Cambridge Crystallographic Data Centre
#                                CCDC 
#
#######################################################################
#
# If this CIF has been generated from an entry in the Cambridge 
# Structural Database, then it will include bibliographic, chemical, 
# crystal, experimental, refinement or atomic coordinate data resulting 
# from the CCDC's data processing and validation procedures.
#
#######################################################################

data_NEVNOT
_chemical_formula_moiety         'C28 H20 N4 O14 Te1'
_chemical_name_systematic        
1,1'-((bis(4-methoxyphenyl)-\l^4^-tellanediyl)bis(oxycarbonyl))bis(3,5-dinitrobenzene)
_symmetry_cell_setting           triclinic
_symmetry_space_group_name_H-M   'P 1'
_symmetry_Int_Tables_number      1
_space_group_name_Hall           'P 1'
loop_
_symmetry_equiv_pos_site_id
_symmetry_equiv_pos_as_xyz
1 x,y,z
_cell_length_a                   13.686(5)
_cell_length_b                   13.692(5)
_cell_length_c                   13.795(5)
_cell_angle_alpha                60.264(5)
_cell_angle_beta                 60.300(5)
_cell_angle_gamma                89.991(5)
_cell_volume                     1843.5
_cell_formula_units_Z            2
loop_
_atom_site_label
_atom_site_type_symbol
_atom_site_fract_x
_atom_site_fract_y
_atom_site_fract_z
C1 C 0.5560(7) 0.6002(7) 0.1354(9)
C2 C 0.3071(7) 0.2637(7) 0.1369(9)
C3 C 0.4374(8) 0.2797(7) 0.3375(8)
C4 C 0.5114(9) 0.2225(11) 0.2968(10)
H1 H 0.5434 0.2372 0.2118
C5 C 0.5394(11) 0.1416(11) 0.3831(14)
H2 H 0.5878 0.0999 0.3567
C6 C 0.4976(11) 0.1228(10) 0.5036(13)
C7 C 0.4329(17) 0.1883(13) 0.5357(15)
H3 H 0.4096 0.1809 0.6155
C8 C 0.3998(17) 0.2643(12) 0.4582(15)
H4 H 0.3521 0.3059 0.4859
C9 C 0.524(4) 0.012(2) 0.663(5)
H5 H 0.5616 -0.0478 0.6765
H6 H 0.4414 -0.0219 0.7370
H7 H 0.5622 0.0751 0.6575
C10 C 0.2274(7) 0.3838(7) 0.3378(8)
C11 C 0.1430(12) 0.2768(9) 0.4586(13)
H8 H 0.1606 0.2061 0.4839
C12 C 0.0365(12) 0.2786(13) 0.5368(18)
H9 H -0.0170 0.2083 0.6215
C13 C -0.0005(8) 0.3738(13) 0.5035(13)
C14 C 0.0779(12) 0.4771(14) 0.3809(13)
H10 H 0.0540 0.5436 0.3512
C15 C 0.1933(8) 0.4829(8) 0.3003(11)
H11 H 0.2486 0.5552 0.2194
C16 C -0.145(6) 0.470(4) 0.565(10)
H12 H -0.2274 0.4493 0.6326
H13 H -0.1297 0.5182 0.4762
H14 H -0.0971 0.5146 0.5717
C17 C 0.5972(6) 0.6886(7) 0.1525(8)
C18 C 0.5347(7) 0.6803(7) 0.2745(9)
H15 H 0.4645 0.6176 0.3495
C19 C 0.5751(7) 0.7612(7) 0.2837(8)
C20 C 0.6764(7) 0.8565(8) 0.1745(9)
H16 H 0.7035 0.9130 0.1819
C21 C 0.7377(8) 0.8668(8) 0.0522(10)
C22 C 0.6961(8) 0.7841(8) 0.0423(10)
H17 H 0.7359 0.7930 -0.0407
C23 C 0.2524(7) 0.1590(7) 0.1527(8)
C24 C 0.1910(6) 0.0449(7) 0.2767(8)
H18 H 0.1861 0.0314 0.3523
C25 C 0.1387(8) -0.0457(7) 0.2829(8)
C26 C 0.1456(7) -0.0335(8) 0.1763(9)
H19 H 0.1084 -0.0962 0.1838
C27 C 0.2148(8) 0.0835(9) 0.0489(10)
C28 C 0.2607(7) 0.1751(8) 0.0394(10)
H20 H 0.2985 0.2502 -0.0420
N1 N 0.5103(8) 0.7514(10) 0.4141(10)
N2 N 0.8469(8) 0.9697(8) -0.0683(9)
N3 N 0.0783(7) -0.1641(7) 0.4102(9)
N4 N 0.2241(10) 0.0971(9) -0.0662(10)
O1 O 0.4486(5) 0.5257(5) 0.2319(6)
O2 O 0.6222(6) 0.5956(7) 0.0389(8)
O3 O 0.3171(6) 0.2421(5) 0.2330(6)
O4 O 0.3391(8) 0.3657(6) 0.0371(8)
O5 O 0.5303(14) 0.0440(10) 0.5792(14)
O6 O -0.1176(11) 0.3728(16) 0.5838(14)
O7 O 0.4151(8) 0.6791(9) 0.5052(9)
O8 O 0.5576(8) 0.8238(10) 0.4191(10)
O9 O 0.8689(9) 1.0482(8) -0.0574(11)
O10 O 0.9029(7) 0.9711(8) -0.1680(9)
O11 O 0.0860(9) -0.1815(7) 0.4993(9)
O12 O 0.0183(9) -0.2439(7) 0.4236(9)
O13 O 0.1902(10) 0.0118(9) -0.0609(10)
O14 O 0.2683(8) 0.1985(9) -0.1702(9)
Te1 Te 0.39907(3) 0.39926(3) 0.20147(3)
C29 C 0.4023(7) 0.6920(8) 0.8644(9)
C30 C 0.7360(7) 0.4458(7) 0.8642(8)
C31 C 0.7215(8) 0.7729(7) 0.6626(9)
C32 C 0.7826(9) 0.8073(9) 0.7011(10)
H21 H 0.7713 0.7527 0.7839
C33 C 0.8626(11) 0.9246(11) 0.6170(13)
H22 H 0.9029 0.9468 0.6445
C34 C 0.8793(10) 1.0031(10) 0.4968(14)
C35 C 0.8157(12) 0.9672(12) 0.4567(16)
H23 H 0.8285 1.0213 0.3730
C36 C 0.7363(13) 0.8546(13) 0.5393(15)
H24 H 0.6933 0.8331 0.5138
C37 C 1.001(3) 1.190(4) 0.405(5)
H25 H 1.0557 1.2516 0.3101
H26 H 1.0429 1.1633 0.4467
H27 H 0.9437 1.2208 0.4478
C38 C 0.6157(7) 0.5655(8) 0.6614(9)
C39 C 0.7192(10) 0.6022(18) 0.5430(14)
H28 H 0.7884 0.6434 0.5220
C40 C 0.7265(12) 0.5818(18) 0.4540(16)
H29 H 0.7952 0.6204 0.3663
C41 C 0.6248(11) 0.4983(12) 0.4987(12)
C42 C 0.5227(12) 0.4625(10) 0.6177(14)
H30 H 0.4537 0.4159 0.6437
C43 C 0.5160(9) 0.4913(8) 0.7009(11)
H31 H 0.4446 0.4612 0.7843
C44 C 0.6989(19) 0.467(2) 0.338(3)
H32 H 0.6795 0.4379 0.2969
H33 H 0.7406 0.4207 0.3723
H34 H 0.7484 0.5488 0.2713
C45 C 0.3104(7) 0.7471(7) 0.8484(8)
C46 C 0.3167(7) 0.8062(7) 0.7278(8)
H35 H 0.3769 0.8080 0.6538
C47 C 0.2378(6) 0.8604(7) 0.7168(8)
C48 C 0.1463(9) 0.8549(8) 0.8216(9)
H36 H 0.0921 0.8930 0.8126
C49 C 0.1335(8) 0.7885(9) 0.9491(10)
C50 C 0.2138(7) 0.7402(8) 0.9599(9)
H37 H 0.2064 0.7012 1.0420
C51 C 0.8399(6) 0.4032(6) 0.8478(8)
C52 C 0.9546(7) 0.4669(7) 0.7258(8)
H38 H 0.9681 0.5385 0.6512
C53 C 1.0455(7) 0.4233(7) 0.7178(9)
C54 C 1.0319(7) 0.3218(7) 0.8270(9)
H39 H 1.0955 0.2942 0.8202
C55 C 0.9174(9) 0.2608(8) 0.9501(11)
C56 C 0.8253(7) 0.3012(7) 0.9600(9)
H40 H 0.7512 0.2605 1.0428
N5 N 0.2475(8) 0.9246(8) 0.5872(9)
N6 N 0.0319(8) 0.7756(10) 1.0666(10)
N7 N 1.1682(7) 0.4890(8) 0.5857(9)
N8 N 0.9009(9) 0.1552(8) 1.0674(10)
O15 O 0.4758(5) 0.6818(5) 0.7665(6)
O16 O 0.4027(7) 0.6598(8) 0.9629(8)
O17 O 0.7577(5) 0.5507(5) 0.7671(6)
O18 O 0.6340(6) 0.3759(6) 0.9609(8)
O19 O 0.9540(10) 1.1151(8) 0.4174(13)
O20 O 0.6137(14) 0.4590(16) 0.4250(13)
O21 O 0.3229(8) 0.9186(8) 0.4961(8)
O22 O 0.1831(10) 0.9811(9) 0.5760(10)
O23 O -0.0508(7) 0.8094(10) 1.0582(10)
O24 O 0.0301(8) 0.7325(9) 1.1688(8)
O25 O 1.1822(6) 0.5877(8) 0.4988(9)
O26 O 1.2409(7) 0.4441(8) 0.5768(10)
O27 O 0.8049(9) 0.1014(8) 1.1653(9)
O28 O 0.9874(9) 0.1284(9) 1.0605(11)
Te2 Te 0.60055(3) 0.60067(3) 0.79842(3)
loop_
_geom_bond_atom_site_label_1
_geom_bond_atom_site_label_2
_geom_bond_site_symmetry_1
_geom_bond_site_symmetry_2
C1 C17 1_555 1_555
C2 C23 1_555 1_555
C3 C4 1_555 1_555
C4 H1 1_555 1_555
C5 C4 1_555 1_555
H2 C5 1_555 1_555
C6 C5 1_555 1_555
C7 C6 1_555 1_555
H3 C7 1_555 1_555
C8 C3 1_555 1_555
H4 C8 1_555 1_555
C9 H5 1_555 1_555
H6 C9 1_555 1_555
H7 C9 1_555 1_555
C10 C11 1_555 1_555
C11 H8 1_555 1_555
C12 C11 1_555 1_555
H9 C12 1_555 1_555
C13 C12 1_555 1_555
C14 C13 1_555 1_555
H10 C14 1_555 1_555
C15 C10 1_555 1_555
H11 C15 1_555 1_555
C16 H12 1_555 1_555
H13 C16 1_555 1_555
H14 C16 1_555 1_555
C17 C18 1_555 1_555
C18 H15 1_555 1_555
C19 C18 1_555 1_555
C20 C19 1_555 1_555
H16 C20 1_555 1_555
C21 C20 1_555 1_555
C22 C17 1_555 1_555
H17 C22 1_555 1_555
C23 C24 1_555 1_555
C24 H18 1_555 1_555
C25 C24 1_555 1_555
C26 C25 1_555 1_555
H19 C26 1_555 1_555
C27 C26 1_555 1_555
C28 C23 1_555 1_555
H20 C28 1_555 1_555
N1 C19 1_555 1_555
N2 C21 1_555 1_555
N3 C25 1_555 1_555
N4 C27 1_555 1_555
O1 C1 1_555 1_555
O2 C1 1_555 1_555
O3 C2 1_555 1_555
O4 C2 1_555 1_555
O5 C6 1_555 1_555
O6 C13 1_555 1_555
O7 N1 1_555 1_555
O8 N1 1_555 1_555
O9 N2 1_555 1_555
O10 N2 1_555 1_555
O11 N3 1_555 1_555
O12 N3 1_555 1_555
O13 N4 1_555 1_555
O14 N4 1_555 1_555
Te1 C3 1_555 1_555
C29 C45 1_555 1_555
C30 C51 1_555 1_555
C31 C32 1_555 1_555
C32 H21 1_555 1_555
C33 C32 1_555 1_555
H22 C33 1_555 1_555
C34 C33 1_555 1_555
C35 C34 1_555 1_555
H23 C35 1_555 1_555
C36 C31 1_555 1_555
H24 C36 1_555 1_555
C37 H25 1_555 1_555
H26 C37 1_555 1_555
H27 C37 1_555 1_555
C38 C39 1_555 1_555
C39 H28 1_555 1_555
C40 C39 1_555 1_555
H29 C40 1_555 1_555
C41 C40 1_555 1_555
C42 C41 1_555 1_555
H30 C42 1_555 1_555
C43 C38 1_555 1_555
H31 C43 1_555 1_555
C44 H32 1_555 1_555
H33 C44 1_555 1_555
H34 C44 1_555 1_555
C45 C46 1_555 1_555
C46 H35 1_555 1_555
C47 C46 1_555 1_555
C48 C47 1_555 1_555
H36 C48 1_555 1_555
C49 C48 1_555 1_555
C50 C45 1_555 1_555
H37 C50 1_555 1_555
C51 C52 1_555 1_555
C52 H38 1_555 1_555
C53 C52 1_555 1_555
C54 C53 1_555 1_555
H39 C54 1_555 1_555
C55 C54 1_555 1_555
C56 C51 1_555 1_555
H40 C56 1_555 1_555
N5 C47 1_555 1_555
N6 C49 1_555 1_555
N7 C53 1_555 1_555
N8 C55 1_555 1_555
O15 C29 1_555 1_555
O16 C29 1_555 1_555
O17 C30 1_555 1_555
O18 C30 1_555 1_555
O19 C34 1_555 1_555
O20 C41 1_555 1_555
O21 N5 1_555 1_555
O22 N5 1_555 1_555
O23 N6 1_555 1_555
O24 N6 1_555 1_555
O25 N7 1_555 1_555
O26 N7 1_555 1_555
O27 N8 1_555 1_555
O28 N8 1_555 1_555
Te2 C31 1_555 1_555
C7 C8 1_555 1_555
C9 O5 1_555 1_555
C10 Te1 1_555 1_555
C14 C15 1_555 1_555
C16 O6 1_555 1_555
C21 C22 1_555 1_555
C27 C28 1_555 1_555
O1 Te1 1_555 1_555
O3 Te1 1_555 1_555
C35 C36 1_555 1_555
C37 O19 1_555 1_555
C38 Te2 1_555 1_555
C42 C43 1_555 1_555
C44 O20 1_555 1_555
C49 C50 1_555 1_555
C55 C56 1_555 1_555
O15 Te2 1_555 1_555
O17 Te2 1_555 1_555

#END
