
#######################################################################
#
#                 Cambridge Crystallographic Data Centre
#                                CCDC 
#
#######################################################################
#
# If this CIF has been generated from an entry in the Cambridge 
# Structural Database, then it will include bibliographic, chemical, 
# crystal, experimental, refinement or atomic coordinate data resulting 
# from the CCDC's data processing and validation procedures.
#
#######################################################################

data_NEVPIP
_chemical_formula_moiety         'C38 H44 N8 O6 Te1,C1 H2 Cl2'
_chemical_name_systematic        
"1,1',1'',1'''-((bis(4-methoxyphenyl)-\l^4^-tellanediyl)bis(oxy(2-oxoethane-2,1,1-triyl)))tetrakis(3,5-dimethyl-1H-pyrazole) dichloromethane solvate"
_symmetry_cell_setting           monoclinic
_symmetry_space_group_name_H-M   'P 21/n'
_symmetry_Int_Tables_number      14
_space_group_name_Hall           '-P 2yn'
loop_
_symmetry_equiv_pos_site_id
_symmetry_equiv_pos_as_xyz
1 x,y,z
2 1/2-x,1/2+y,1/2-z
3 -x,-y,-z
4 1/2+x,1/2-y,1/2+z
_cell_length_a                   10.6475(10)
_cell_length_b                   16.1172(14)
_cell_length_c                   23.994(2)
_cell_angle_alpha                90
_cell_angle_beta                 94.155(2)
_cell_angle_gamma                90
_cell_volume                     4106.74
_exptl_crystal_colour            colorless
_exptl_crystal_description       block
_cell_formula_units_Z            4
loop_
_atom_site_label
_atom_site_type_symbol
_atom_site_fract_x
_atom_site_fract_y
_atom_site_fract_z
C1 C 0.8118(5) 0.1468(3) 0.8943(2)
H1 H 0.7986 0.1588 0.8552
H2 H 0.8993 0.1350 0.9034
H3 H 0.7872 0.1938 0.9156
C2 C 0.6030(5) -0.0926(3) 0.9933(2)
H4 H 0.5442 -0.1298 0.9740
H5 H 0.5632 -0.0655 1.0229
H6 H 0.6746 -0.1235 1.0086
C3 C 0.5422(5) -0.3854(3) 0.9009(2)
H7 H 0.4563 -0.3806 0.9103
H8 H 0.5930 -0.4059 0.9327
H9 H 0.5467 -0.4232 0.8702
C4 C 0.7992(4) -0.1377(3) 0.8362(2)
H10 H 0.7659 -0.0825 0.8335
H11 H 0.8204 -0.1560 0.8000
H12 H 0.8734 -0.1382 0.8615
C5 C 0.3404(5) -0.0361(3) 0.4908(2)
H13 H 0.3991 -0.0527 0.5210
H14 H 0.3815 -0.0367 0.4565
H15 H 0.2706 -0.0739 0.4880
C6 C 0.1092(4) 0.2434(3) 0.48466(19)
H16 H 0.1224 0.2838 0.5139
H17 H 0.0228 0.2258 0.4822
H18 H 0.1286 0.2675 0.4497
C7 C 0.3967(5) 0.5138(3) 0.6028(2)
H19 H 0.3253 0.5207 0.6246
H20 H 0.3876 0.5492 0.5706
H21 H 0.4722 0.5282 0.6250
C8 C 0.5237(5) 0.2369(3) 0.5184(2)
H22 H 0.4762 0.1869 0.5222
H23 H 0.6074 0.2295 0.5353
H24 H 0.5277 0.2495 0.4794
C9 C -0.0015(5) 0.3579(3) 0.8691(2)
H25 H -0.0280 0.3931 0.8983
H26 H -0.0683 0.3203 0.8576
H27 H 0.0188 0.3914 0.8379
C10 C -0.0995(5) -0.2494(3) 0.7074(2)
H28 H -0.1591 -0.2872 0.6895
H29 H -0.1417 -0.2135 0.7320
H30 H -0.0352 -0.2801 0.7286
C11 C 0.4871(4) -0.0579(2) 0.81008(17)
C12 C 0.5256(4) -0.0901(3) 0.86894(16)
H31 H 0.4488 -0.0953 0.8888
C13 C 0.7344(4) 0.0731(3) 0.9081(2)
C14 C 0.7274(5) 0.0361(3) 0.9609(2)
H32 H 0.7699 0.0524 0.9943
C15 C 0.6453(4) -0.0289(3) 0.95314(18)
C16 C 0.5897(4) -0.3021(3) 0.88482(18)
C17 C 0.7086(4) -0.2783(3) 0.86790(19)
H33 H 0.7778 -0.3127 0.8645
C18 C 0.7028(4) -0.1947(3) 0.85749(18)
C19 C 0.3533(4) 0.1833(3) 0.64180(17)
C20 C 0.2865(4) 0.2243(3) 0.58909(17)
H34 H 0.2028 0.2420 0.5988
C21 C 0.2937(4) 0.0498(3) 0.5015(2)
C22 C 0.2076(4) 0.0981(3) 0.46838(19)
H35 H 0.1685 0.0838 0.4338
C23 C 0.1925(4) 0.1704(3) 0.49722(18)
C24 C 0.4042(4) 0.4258(3) 0.58454(17)
C25 C 0.4943(5) 0.3886(3) 0.55181(19)
H36 H 0.5624 0.4146 0.5369
C26 C 0.4613(4) 0.3064(3) 0.54639(18)
C27 C 0.2748(4) 0.1473(3) 0.78552(17)
C28 C 0.1678(4) 0.1900(3) 0.76405(18)
H37 H 0.1365 0.1813 0.7273
C29 C 0.1077(4) 0.2461(3) 0.79818(19)
H38 H 0.0360 0.2744 0.7844
C30 C 0.1566(5) 0.2588(3) 0.85270(18)
C31 C 0.2654(5) 0.2175(3) 0.87315(18)
H39 H 0.2984 0.2271 0.9095
C32 C 0.3248(4) 0.1618(3) 0.83922(19)
H40 H 0.3978 0.1346 0.8527
C33 C 0.2261(4) -0.0227(3) 0.71301(17)
C34 C 0.1736(4) -0.0693(3) 0.75439(19)
H41 H 0.1997 -0.0604 0.7918
C35 C 0.0818(4) -0.1292(3) 0.73999(19)
H42 H 0.0463 -0.1594 0.7679
C36 C 0.0437(4) -0.1438(3) 0.68472(19)
C37 C 0.0977(4) -0.0978(3) 0.64270(18)
H43 H 0.0722 -0.1075 0.6054
C38 C 0.1882(4) -0.0383(3) 0.65634(17)
H44 H 0.2241 -0.0087 0.6283
N1 N 0.6052(4) -0.0283(2) 0.89816(15)
N2 N 0.6606(3) 0.0339(2) 0.86918(15)
N3 N 0.5854(3) -0.1710(2) 0.86942(15)
N4 N 0.5139(3) -0.2364(2) 0.88608(15)
N5 N 0.2688(3) 0.1641(2) 0.54485(15)
N6 N 0.3320(4) 0.0901(2) 0.54814(16)
N7 N 0.3539(3) 0.2979(2) 0.57299(14)
N8 N 0.3176(4) 0.3711(2) 0.59724(14)
O1 O 0.4031(3) 0.00057(18) 0.81125(12)
O2 O 0.5270(3) -0.0869(2) 0.76818(13)
O3 O 0.2802(3) 0.12995(19) 0.66420(12)
O4 O 0.4585(3) 0.2024(2) 0.65959(14)
O5 O 0.1070(4) 0.3119(2) 0.88923(14)
O6 O -0.0431(3) -0.2005(2) 0.66588(14)
Te1 Te 0.36610(2) 0.064418(16) 0.733752(11)
C39 C 0.7555(5) 0.5519(3) 0.7684(2)
H45 H 0.8006 0.6015 0.7811
H46 H 0.7960 0.5299 0.7366
Cl1 Cl 0.76193(19) 0.47760(14) 0.82245(7)
Cl2 Cl 0.59960(15) 0.57708(12) 0.74816(6)
loop_
_geom_bond_atom_site_label_1
_geom_bond_atom_site_label_2
_geom_bond_site_symmetry_1
_geom_bond_site_symmetry_2
C1 H1 1_555 1_555
H2 C1 1_555 1_555
H3 C1 1_555 1_555
C2 H4 1_555 1_555
H5 C2 1_555 1_555
H6 C2 1_555 1_555
C3 H7 1_555 1_555
H8 C3 1_555 1_555
H9 C3 1_555 1_555
C4 H10 1_555 1_555
H11 C4 1_555 1_555
H12 C4 1_555 1_555
C5 H13 1_555 1_555
H14 C5 1_555 1_555
H15 C5 1_555 1_555
C6 H16 1_555 1_555
H17 C6 1_555 1_555
H18 C6 1_555 1_555
C7 H19 1_555 1_555
H20 C7 1_555 1_555
H21 C7 1_555 1_555
C8 H22 1_555 1_555
H23 C8 1_555 1_555
H24 C8 1_555 1_555
C9 H25 1_555 1_555
H26 C9 1_555 1_555
H27 C9 1_555 1_555
C10 H28 1_555 1_555
H29 C10 1_555 1_555
H30 C10 1_555 1_555
C11 C12 1_555 1_555
C12 H31 1_555 1_555
C13 C1 1_555 1_555
C14 C13 1_555 1_555
H32 C14 1_555 1_555
C15 C2 1_555 1_555
C16 C3 1_555 1_555
C17 C16 1_555 1_555
H33 C17 1_555 1_555
C18 C4 1_555 1_555
C19 C20 1_555 1_555
C20 H34 1_555 1_555
C21 C5 1_555 1_555
C22 C21 1_555 1_555
H35 C22 1_555 1_555
C23 C6 1_555 1_555
C24 C7 1_555 1_555
C25 C24 1_555 1_555
H36 C25 1_555 1_555
C26 C8 1_555 1_555
C27 C28 1_555 1_555
C28 H37 1_555 1_555
C29 C28 1_555 1_555
H38 C29 1_555 1_555
C30 C29 1_555 1_555
C31 C30 1_555 1_555
H39 C31 1_555 1_555
C32 C27 1_555 1_555
H40 C32 1_555 1_555
C33 C34 1_555 1_555
C34 H41 1_555 1_555
C35 C34 1_555 1_555
H42 C35 1_555 1_555
C36 C35 1_555 1_555
C37 C36 1_555 1_555
H43 C37 1_555 1_555
C38 C33 1_555 1_555
H44 C38 1_555 1_555
N1 C12 1_555 1_555
N2 C13 1_555 1_555
N3 C12 1_555 1_555
N4 C16 1_555 1_555
N5 C20 1_555 1_555
N6 C21 1_555 1_555
N7 C20 1_555 1_555
N8 C24 1_555 1_555
O1 C11 1_555 1_555
O2 C11 1_555 1_555
O3 C19 1_555 1_555
O4 C19 1_555 1_555
O5 C9 1_555 1_555
O6 C10 1_555 1_555
Te1 C27 1_555 1_555
C39 H45 1_555 1_555
H46 C39 1_555 1_555
Cl1 C39 1_555 1_555
Cl2 C39 1_555 1_555
C14 C15 1_555 1_555
C15 N1 1_555 1_555
C17 C18 1_555 1_555
C18 N3 1_555 1_555
C22 C23 1_555 1_555
C23 N5 1_555 1_555
C25 C26 1_555 1_555
C26 N7 1_555 1_555
C30 O5 1_555 1_555
C31 C32 1_555 1_555
C33 Te1 1_555 1_555
C36 O6 1_555 1_555
C37 C38 1_555 1_555
N1 N2 1_555 1_555
N3 N4 1_555 1_555
N5 N6 1_555 1_555
N7 N8 1_555 1_555
O1 Te1 1_555 1_555
O3 Te1 1_555 1_555

#END
