
#######################################################################
#
#                 Cambridge Crystallographic Data Centre
#                                CCDC 
#
#######################################################################
#
# If this CIF has been generated from an entry in the Cambridge 
# Structural Database, then it will include bibliographic, chemical, 
# crystal, experimental, refinement or atomic coordinate data resulting 
# from the CCDC's data processing and validation procedures.
#
#######################################################################

data_NEVPEL
_chemical_formula_moiety         'C28 H26 N2 O6 Te1'
_chemical_name_systematic        
2,2'-((bis(4-methoxyphenyl)-\l^4^-tellanediyl)bis(oxycarbonyl))dianiline
_symmetry_cell_setting           triclinic
_symmetry_space_group_name_H-M   'P -1'
_symmetry_Int_Tables_number      2
_space_group_name_Hall           '-P 1'
loop_
_symmetry_equiv_pos_site_id
_symmetry_equiv_pos_as_xyz
1 x,y,z
2 -x,-y,-z
_cell_length_a                   11.766(5)
_cell_length_b                   11.791(5)
_cell_length_c                   20.248(5)
_cell_angle_alpha                103.764(5)
_cell_angle_beta                 103.547(5)
_cell_angle_gamma                94.373(5)
_cell_volume                     2626.45
_cell_formula_units_Z            4
loop_
_atom_site_label
_atom_site_type_symbol
_atom_site_fract_x
_atom_site_fract_y
_atom_site_fract_z
Te1 Te 0.17608(3) 0.32383(3) 0.749989(19)
O1 O 0.2690(3) 0.4489(3) 0.7116(2)
O2 O 0.0516(3) 0.2319(3) 0.7884(2)
C1 C 0.4354(5) 0.4846(5) 0.6706(3)
O3 O -0.2822(4) 0.3396(5) 0.5248(2)
O4 O 0.1600(5) 0.7824(4) 0.9751(2)
O5 O 0.2040(4) 0.1798(4) 0.8570(3)
O6 O 0.3197(4) 0.2965(4) 0.6429(2)
C2 C 0.0154(5) 0.0642(5) 0.8295(3)
C3 C 0.1970(6) 0.5777(5) 0.9486(3)
H1 H 0.2165 0.5778 0.9958
C4 C 0.1347(6) 0.6784(5) 0.8586(3)
H2 H 0.1135 0.7459 0.8457
C5 C -0.0782(5) 0.3020(6) 0.5517(3)
H3 H -0.0784 0.2814 0.5044
C6 C 0.4745(6) 0.5878(6) 0.7245(4)
H4 H 0.4360 0.6042 0.7602
C7 C 0.0406(5) 0.0060(5) 0.8834(3)
C8 C 0.1689(5) 0.4763(4) 0.8272(3)
C9 C 0.1649(5) 0.6776(5) 0.9291(3)
C10 C -0.0875(6) 0.0251(5) 0.7755(3)
H5 H -0.1037 0.0630 0.7397
C11 C -0.1775(5) 0.3652(6) 0.6414(3)
H6 H -0.2451 0.3868 0.6544
N1 N 0.4597(6) 0.3624(5) 0.5617(3)
H7 H 0.4958 0.3514 0.5288
H8 H 0.4022 0.3111 0.5598
C12 C 0.2000(6) 0.4778(5) 0.8976(3)
H9 H 0.2232 0.4109 0.9107
N2 N 0.1381(5) 0.0395(6) 0.9381(3)
H10 H 0.1482 0.0039 0.9710
H11 H 0.1900 0.0965 0.9399
C13 C 0.0232(5) 0.3306(5) 0.6726(3)
C14 C 0.3365(5) 0.4012(5) 0.6727(3)
C15 C -0.0427(6) -0.0868(6) 0.8814(4)
H12 H -0.0297 -0.1231 0.9180
C16 C 0.4932(5) 0.4601(5) 0.6161(3)
C17 C 0.5867(6) 0.5427(6) 0.6184(4)
H13 H 0.6235 0.5299 0.5819
C18 C 0.0984(5) 0.1630(5) 0.8272(3)
C19 C -0.1780(5) 0.3341(5) 0.5705(3)
C20 C 0.1689(7) 0.7828(6) 1.0470(3)
H14 H 0.1650 0.8609 1.0735
H15 H 0.2426 0.7586 1.0665
H16 H 0.1049 0.7293 1.0490
C21 C -0.1420(6) -0.1256(6) 0.8275(5)
H17 H -0.1937 -0.1900 0.8266
C22 C 0.0232(5) 0.2998(5) 0.6027(3)
H18 H 0.0907 0.2776 0.5897
C23 C 0.6256(6) 0.6423(6) 0.6735(4)
H19 H 0.6908 0.6934 0.6750
C24 C -0.0775(5) 0.3638(6) 0.6920(3)
H20 H -0.0771 0.3851 0.7393
C25 C -0.2839(7) 0.3298(7) 0.4530(4)
H21 H -0.3622 0.3342 0.4270
H22 H -0.2605 0.2557 0.4332
H23 H -0.2300 0.3930 0.4504
C26 C 0.1366(6) 0.5768(5) 0.8081(3)
H24 H 0.1161 0.5760 0.7607
C27 C 0.5693(6) 0.6672(6) 0.7264(5)
H25 H 0.5943 0.7359 0.7628
C28 C -0.1664(6) -0.0695(6) 0.7740(4)
H26 H -0.2349 -0.0950 0.7375
Te2 Te 0.39850(3) 0.10151(3) 0.74998(2)
O7 O 0.6675(5) -0.0818(5) 0.5219(3)
O8 O 0.5823(5) -0.1673(5) 0.9776(3)
O9 O 0.2748(4) -0.0575(4) 0.7005(2)
C29 C 0.6406(6) 0.5305(5) 0.8953(4)
H27 H 0.5676 0.5469 0.9024
O10 O 0.5571(4) 0.2240(4) 0.7992(2)
C30 C 0.4597(5) 0.0063(5) 0.8237(3)
C31 C 0.6524(5) 0.4180(5) 0.8560(3)
C32 C -0.0307(5) -0.1415(6) 0.6048(4)
H28 H -0.0468 -0.0689 0.5973
C33 C 0.0799(5) -0.1513(5) 0.6443(3)
C34 C 0.5789(5) -0.0054(5) 0.8465(3)
H29 H 0.6338 0.0272 0.8274
C35 C 0.4945(5) 0.0405(5) 0.6761(3)
O11 O 0.4487(4) 0.3557(5) 0.8360(3)
C36 C 0.5060(6) -0.0785(5) 0.6539(3)
H30 H 0.4743 -0.1328 0.6737
C37 C 0.1699(5) -0.0428(5) 0.6710(3)
C38 C 0.6159(6) -0.0648(6) 0.8970(3)
H31 H 0.6953 -0.0729 0.9114
O12 O 0.1439(5) 0.0519(4) 0.6640(3)
C39 C 0.5642(6) -0.1160(6) 0.6027(3)
H32 H 0.5711 -0.1955 0.5878
C40 C 0.7402(7) 0.6175(6) 0.9237(4)
H33 H 0.7335 0.6918 0.9500
C41 C 0.7623(6) 0.3956(6) 0.8447(3)
C42 C 0.4160(6) -0.1024(6) 0.9047(4)
H34 H 0.3613 -0.1333 0.9247
C43 C 0.0170(6) -0.3597(6) 0.6256(4)
H35 H 0.0321 -0.4334 0.6317
C44 C 0.5337(6) -0.1131(6) 0.9269(3)
C45 C 0.1055(6) -0.2620(6) 0.6553(3)
C46 C 0.5448(5) 0.3315(5) 0.8300(3)
C47 C -0.1191(6) -0.2405(7) 0.5759(4)
H36 H -0.1936 -0.2343 0.5497
N3 N 0.2131(7) -0.2852(7) 0.6920(4)
H37 H 0.2216 -0.3557 0.6952
H38 H 0.2710 -0.2291 0.7115
N4 N 0.7846(6) 0.2875(6) 0.8076(4)
H39 H 0.8550 0.2783 0.8042
H40 H 0.7279 0.2300 0.7881
C48 C 0.8602(6) 0.4822(7) 0.8741(4)
H41 H 0.9338 0.4665 0.8680
C49 C 0.6130(6) -0.0347(6) 0.5731(4)
C50 C 0.6030(6) 0.0837(6) 0.5960(4)
H42 H 0.6359 0.1383 0.5770
C51 C 0.5447(6) 0.1200(6) 0.6466(4)
H43 H 0.5385 0.1997 0.6616
C52 C 0.3797(6) -0.0458(6) 0.8530(4)
H44 H 0.2996 -0.0421 0.8369
C53 C 0.5023(8) -0.2240(9) 1.0077(5)
H45 H 0.5464 -0.2581 1.0425
H46 H 0.4483 -0.2849 0.9713
H47 H 0.4590 -0.1670 1.0294
C54 C -0.0916(7) -0.3465(7) 0.5877(4)
H48 H -0.1493 -0.4122 0.5690
C55 C 0.8468(7) 0.5925(7) 0.9126(4)
H49 H 0.9120 0.6508 0.9313
C56 C 0.7238(8) -0.0016(8) 0.4928(5)
H50 H 0.7584 -0.0447 0.4578
H51 H 0.7844 0.0523 0.5295
H52 H 0.6666 0.0418 0.4715
loop_
_geom_bond_atom_site_label_1
_geom_bond_atom_site_label_2
_geom_bond_site_symmetry_1
_geom_bond_site_symmetry_2
Te1 O1 1_555 1_555
O1 C14 1_555 1_555
O2 Te1 1_555 1_555
C1 C6 1_555 1_555
O3 C19 1_555 1_555
O4 C9 1_555 1_555
O5 C18 1_555 1_555
O6 C14 1_555 1_555
C2 C7 1_555 1_555
C3 H1 1_555 1_555
C4 H2 1_555 1_555
C5 H3 1_555 1_555
C6 H4 1_555 1_555
C7 N2 1_555 1_555
C8 Te1 1_555 1_555
C9 C3 1_555 1_555
C10 C2 1_555 1_555
H5 C10 1_555 1_555
C11 H6 1_555 1_555
N1 H7 1_555 1_555
H8 N1 1_555 1_555
C12 C3 1_555 1_555
H9 C12 1_555 1_555
N2 H10 1_555 1_555
H11 N2 1_555 1_555
C13 Te1 1_555 1_555
C14 C1 1_555 1_555
C15 C7 1_555 1_555
H12 C15 1_555 1_555
C16 C1 1_555 1_555
C17 C16 1_555 1_555
H13 C17 1_555 1_555
C18 O2 1_555 1_555
C19 C5 1_555 1_555
C20 O4 1_555 1_555
H14 C20 1_555 1_555
H15 C20 1_555 1_555
H16 C20 1_555 1_555
C21 C15 1_555 1_555
H17 C21 1_555 1_555
C22 C5 1_555 1_555
H18 C22 1_555 1_555
C23 C17 1_555 1_555
H19 C23 1_555 1_555
C24 C11 1_555 1_555
H20 C24 1_555 1_555
C25 O3 1_555 1_555
H21 C25 1_555 1_555
H22 C25 1_555 1_555
H23 C25 1_555 1_555
C26 C4 1_555 1_555
H24 C26 1_555 1_555
C27 C6 1_555 1_555
H25 C27 1_555 1_555
C28 C10 1_555 1_555
H26 C28 1_555 1_555
Te2 O9 1_555 1_555
O7 C49 1_555 1_555
O8 C44 1_555 1_555
O9 C37 1_555 1_555
C29 H27 1_555 1_555
O10 Te2 1_555 1_555
C30 Te2 1_555 1_555
C31 C29 1_555 1_555
C32 H28 1_555 1_555
C33 C32 1_555 1_555
C34 C30 1_555 1_555
H29 C34 1_555 1_555
C35 Te2 1_555 1_555
O11 C46 1_555 1_555
C36 C35 1_555 1_555
H30 C36 1_555 1_555
C37 C33 1_555 1_555
C38 C34 1_555 1_555
H31 C38 1_555 1_555
O12 C37 1_555 1_555
C39 C36 1_555 1_555
H32 C39 1_555 1_555
C40 C29 1_555 1_555
H33 C40 1_555 1_555
C41 C31 1_555 1_555
C42 H34 1_555 1_555
C43 H35 1_555 1_555
C44 C38 1_555 1_555
C45 C33 1_555 1_555
C46 O10 1_555 1_555
C47 C32 1_555 1_555
H36 C47 1_555 1_555
N3 C45 1_555 1_555
H37 N3 1_555 1_555
H38 N3 1_555 1_555
N4 C41 1_555 1_555
H39 N4 1_555 1_555
H40 N4 1_555 1_555
C48 C41 1_555 1_555
H41 C48 1_555 1_555
C49 C39 1_555 1_555
C50 C49 1_555 1_555
H42 C50 1_555 1_555
C51 C35 1_555 1_555
H43 C51 1_555 1_555
C52 C30 1_555 1_555
H44 C52 1_555 1_555
C53 O8 1_555 1_555
H45 C53 1_555 1_555
H46 C53 1_555 1_555
H47 C53 1_555 1_555
C54 C43 1_555 1_555
H48 C54 1_555 1_555
C55 C40 1_555 1_555
H49 C55 1_555 1_555
C56 O7 1_555 1_555
H50 C56 1_555 1_555
H51 C56 1_555 1_555
H52 C56 1_555 1_555
C2 C18 1_555 1_555
C4 C9 1_555 1_555
C8 C12 1_555 1_555
C8 C26 1_555 1_555
C11 C19 1_555 1_555
N1 C16 1_555 1_555
C13 C22 1_555 1_555
C13 C24 1_555 1_555
C21 C28 1_555 1_555
C23 C27 1_555 1_555
C31 C46 1_555 1_555
C42 C44 1_555 1_555
C42 C52 1_555 1_555
C43 C45 1_555 1_555
C47 C54 1_555 1_555
C48 C55 1_555 1_555
C50 C51 1_555 1_555

#END
