
#######################################################################
#
#                 Cambridge Crystallographic Data Centre
#                                CCDC 
#
#######################################################################
#
# If this CIF has been generated from an entry in the Cambridge 
# Structural Database, then it will include bibliographic, chemical, 
# crystal, experimental, refinement or atomic coordinate data resulting 
# from the CCDC's data processing and validation procedures.
#
#######################################################################

data_NEVROY
_chemical_formula_moiety         'C21 H25 N1 O1 S1'
_chemical_name_systematic        
8,10b-dimethyl-5-sulfanylidene-4a,5,7,8,9,10,10a,10b,11,12,12a,12b-dodecahydro-4H-9,10c-methanocyclopenta[1,8]azuleno[4,5-a]indolizin-13-one
_symmetry_cell_setting           orthorhombic
_symmetry_space_group_name_H-M   'P 21 21 21'
_symmetry_Int_Tables_number      19
_space_group_name_Hall           'P 2ac 2ab'
loop_
_symmetry_equiv_pos_site_id
_symmetry_equiv_pos_as_xyz
1 x,y,z
2 1/2-x,-y,1/2+z
3 -x,1/2+y,1/2-z
4 1/2+x,1/2-y,-z
_cell_length_a                   8.5062(4)
_cell_length_b                   11.2516(5)
_cell_length_c                   17.7235(8)
_cell_angle_alpha                90
_cell_angle_beta                 90
_cell_angle_gamma                90
_cell_volume                     1696.29
_exptl_crystal_colour            colorless
_exptl_crystal_description       block
_cell_formula_units_Z            4
loop_
_atom_site_label
_atom_site_type_symbol
_atom_site_fract_x
_atom_site_fract_y
_atom_site_fract_z
S1 S 0.57827(6) 0.60664(5) 0.41550(3)
O1 O 0.17437(18) 0.50399(12) 0.26904(8)
C1 C 0.2184(2) 0.62631(19) 0.46627(11)
H1 H 0.1698 0.6715 0.5082
H2 H 0.2979 0.5717 0.4879
N1 N 0.29340(19) 0.70787(14) 0.41369(9)
C2 C 0.0279(2) 0.75889(18) 0.37603(11)
H3 H -0.0344 0.8042 0.3386
H4 H -0.0199 0.7697 0.4265
C3 C 0.0337(2) 0.62724(18) 0.35496(11)
H5 H -0.0744 0.6003 0.3409
C4 C 0.0910(2) 0.55412(18) 0.42404(11)
H6 H 0.1399 0.4790 0.4052
C5 C 0.2772(2) 0.81070(16) 0.29789(11)
C6 C 0.1981(2) 0.80015(17) 0.37606(10)
H7 H 0.2075 0.8771 0.4039
C7 C 0.1448(2) 0.60524(18) 0.28808(10)
C8 C 0.4386(2) 0.69884(17) 0.38564(11)
C9 C 0.4525(2) 0.78953(17) 0.32271(11)
H8 H 0.4860 0.8650 0.3478
C10 C 0.2069(2) 0.71236(16) 0.24296(11)
C11 C 0.0618(2) 0.75524(19) 0.19589(11)
H9 H -0.0332 0.7608 0.2280
H10 H 0.0823 0.8338 0.1728
C12 C 0.0417(3) 0.6598(2) 0.13537(12)
H11 H -0.0208 0.6899 0.0923
H12 H -0.0100 0.5881 0.1562
C13 C 0.2122(3) 0.6328(2) 0.11135(12)
H13 H 0.2250 0.5472 0.0974
C14 C 0.3194(2) 0.66640(18) 0.17971(11)
H14 H 0.3792 0.5953 0.1976
C15 C 0.4310(3) 0.75923(18) 0.14830(11)
C16 C 0.3847(3) 0.7846(2) 0.07100(12)
H15 H 0.4312 0.8441 0.0402
C17 C 0.2682(3) 0.7131(2) 0.04902(13)
H16 H 0.2254 0.7130 -0.0005
C18 C 0.5517(3) 0.8040(2) 0.18685(12)
H17 H 0.6174 0.8627 0.1647
C19 C 0.5831(3) 0.7607(2) 0.26579(12)
H18 H 0.6825 0.7966 0.2838
H19 H 0.5982 0.6735 0.2643
C20 C 0.2541(3) 0.93713(18) 0.26810(12)
H20 H 0.3048 0.9447 0.2187
H21 H 0.3012 0.9939 0.3034
H22 H 0.1415 0.9537 0.2631
C21 C -0.0422(3) 0.5215(2) 0.47771(12)
H23 H -0.1175 0.4700 0.4516
H24 H -0.0956 0.5941 0.4945
H25 H 0.0007 0.4796 0.5216
loop_
_geom_bond_atom_site_label_1
_geom_bond_atom_site_label_2
_geom_bond_site_symmetry_1
_geom_bond_site_symmetry_2
S1 C8 1_555 1_555
O1 C7 1_555 1_555
C1 H1 1_555 1_555
H2 C1 1_555 1_555
N1 C1 1_555 1_555
C2 H3 1_555 1_555
H4 C2 1_555 1_555
C3 C2 1_555 1_555
H5 C3 1_555 1_555
C4 C1 1_555 1_555
H6 C4 1_555 1_555
C5 C6 1_555 1_555
C6 N1 1_555 1_555
H7 C6 1_555 1_555
C7 C3 1_555 1_555
C8 N1 1_555 1_555
C9 C5 1_555 1_555
H8 C9 1_555 1_555
C10 C5 1_555 1_555
C11 C10 1_555 1_555
H9 C11 1_555 1_555
H10 C11 1_555 1_555
C12 C11 1_555 1_555
H11 C12 1_555 1_555
H12 C12 1_555 1_555
C13 C12 1_555 1_555
H13 C13 1_555 1_555
C14 C10 1_555 1_555
H14 C14 1_555 1_555
C15 C14 1_555 1_555
C16 C15 1_555 1_555
H15 C16 1_555 1_555
C17 C13 1_555 1_555
H16 C17 1_555 1_555
C18 C15 1_555 1_555
H17 C18 1_555 1_555
C19 C9 1_555 1_555
H18 C19 1_555 1_555
H19 C19 1_555 1_555
C20 C5 1_555 1_555
H20 C20 1_555 1_555
H21 C20 1_555 1_555
H22 C20 1_555 1_555
C21 C4 1_555 1_555
H23 C21 1_555 1_555
H24 C21 1_555 1_555
H25 C21 1_555 1_555
C2 C6 1_555 1_555
C3 C4 1_555 1_555
C7 C10 1_555 1_555
C8 C9 1_555 1_555
C13 C14 1_555 1_555
C16 C17 1_555 1_555
C18 C19 1_555 1_555

#END
