
#######################################################################
#
#                 Cambridge Crystallographic Data Centre
#                                CCDC 
#
#######################################################################
#
# If this CIF has been generated from an entry in the Cambridge 
# Structural Database, then it will include bibliographic, chemical, 
# crystal, experimental, refinement or atomic coordinate data resulting 
# from the CCDC's data processing and validation procedures.
#
#######################################################################

data_NEVVUG
_chemical_formula_moiety         'C58 H42 N2 O8 S2,5(C1 H2 Cl2),2.5(H2 O1)'
_chemical_name_systematic        
"N,N'-bis(2-hydroxy-1-((triphenylmethylthio)methyl)-2-oxoethyl)-1,8:4,5-naphthalenetetracarboximide dichloromethane solvate hydrate"
_symmetry_cell_setting           trigonal
_symmetry_space_group_name_H-M   'P 31'
_symmetry_Int_Tables_number      144
_space_group_name_Hall           'P 31'
loop_
_symmetry_equiv_pos_site_id
_symmetry_equiv_pos_as_xyz
1 x,y,z
2 -y,x-y,1/3+z
3 -x+y,-x,2/3+z
_cell_length_a                   26.6288(5)
_cell_length_b                   26.6288(5)
_cell_length_c                   9.00550(10)
_cell_angle_alpha                90
_cell_angle_beta                 90
_cell_angle_gamma                120
_cell_volume                     5530.21
_exptl_crystal_colour            yellow
_exptl_crystal_description       block
_cell_formula_units_Z            3
loop_
_atom_site_label
_atom_site_type_symbol
_atom_site_fract_x
_atom_site_fract_y
_atom_site_fract_z
O1 O 0.6773(16) -0.1920(14) 1.121(4)
C1 C 0.695(2) -0.1448(18) 1.184(5)
N1 N 0.6937(15) -0.1437(15) 1.339(4)
N2 N 0.8185(15) 0.1221(15) 0.956(4)
C2 C 0.7175(19) -0.0903(19) 1.104(5)
O2 O 0.7949(19) 0.0741(14) 0.735(4)
O3 O 0.8466(17) 0.1700(14) 1.175(3)
C3 C 0.718(2) -0.0891(19) 0.951(5)
H1 H 0.7020 -0.1245 0.8973
O4 O 0.7113(17) -0.0956(15) 1.559(4)
C4 C 0.742(2) -0.036(2) 0.874(5)
H2 H 0.7418 -0.0358 0.7685
C5 C 0.7661(19) 0.0156(18) 0.952(4)
C6 C 0.793(2) 0.0708(18) 0.870(5)
C7 C 0.8202(19) 0.1232(17) 1.111(5)
C8 C 0.790(2) 0.0674(18) 1.191(4)
C9 C 0.790(2) 0.0668(19) 1.343(5)
H3 H 0.8077 0.1023 1.3969
C10 C 0.764(2) 0.0135(19) 1.421(5)
H4 H 0.7631 0.0130 1.5262
C11 C 0.7413(19) -0.0378(18) 1.343(5)
C12 C 0.7146(19) -0.0936(18) 1.425(5)
C13 C 0.7408(18) -0.0378(18) 1.186(4)
C14 C 0.7657(18) 0.0157(17) 1.109(4)
S1 S 0.5709(4) -0.1961(4) 1.4797(11)
O5 O 0.7543(15) -0.2009(15) 1.357(5)
H5 H 0.7676 -0.2222 1.3300
C15 C 0.7011(19) -0.2304(19) 1.369(5)
O6 O 0.6709(15) -0.2855(15) 1.352(4)
C16 C 0.6692(18) -0.1992(18) 1.418(4)
H6 H 0.6777 -0.1900 1.5254
C17 C 0.6030(18) -0.2362(18) 1.402(5)
H7 H 0.5887 -0.2734 1.4555
H8 H 0.5923 -0.2448 1.2960
C18 C 0.4982(18) -0.2294(18) 1.390(5)
C19 C 0.4546(19) -0.2880(18) 1.459(5)
C20 C 0.4707(19) -0.3174(19) 1.560(5)
H9 H 0.5103 -0.3015 1.5865
C21 C 0.429(2) -0.3692(19) 1.623(5)
H10 H 0.4409 -0.3882 1.6927
C22 C 0.371(2) -0.394(2) 1.583(5)
H11 H 0.3427 -0.4293 1.6264
C23 C 0.355(2) -0.366(2) 1.482(5)
H12 H 0.3156 -0.3828 1.4537
C24 C 0.396(2) -0.314(2) 1.421(5)
H13 H 0.3838 -0.2948 1.3517
C25 C 0.4785(19) -0.1857(18) 1.430(5)
C26 C 0.473(2) -0.176(2) 1.578(5)
H14 H 0.4814 -0.1955 1.6529
C27 C 0.454(2) -0.138(2) 1.618(6)
H15 H 0.4508 -0.1310 1.7207
C28 C 0.440(3) -0.110(2) 1.514(7)
H16 H 0.4276 -0.0830 1.5430
C29 C 0.443(3) -0.121(2) 1.363(7)
H17 H 0.4330 -0.1020 1.2895
C30 C 0.462(2) -0.159(2) 1.322(6)
H18 H 0.4629 -0.1666 1.2198
C31 C 0.508(2) -0.2329(19) 1.223(5)
C32 C 0.546(2) -0.183(2) 1.144(5)
H19 H 0.5646 -0.1465 1.1950
C33 C 0.557(2) -0.184(2) 0.997(6)
H20 H 0.5820 -0.1487 0.9464
C34 C 0.531(2) -0.237(2) 0.919(5)
H21 H 0.5391 -0.2377 0.8162
C35 C 0.494(2) -0.287(2) 0.996(6)
H22 H 0.4767 -0.3235 0.9452
C36 C 0.482(2) -0.2857(19) 1.146(5)
H23 H 0.4569 -0.3206 1.1968
S2 S 0.7443(4) 0.1726(4) 0.8209(11)
O7 O 0.9352(14) 0.2666(14) 0.935(4)
H24 H 0.9696 0.2799 0.9632
C37 C 0.9108(18) 0.2126(19) 0.927(5)
O8 O 0.9361(16) 0.1826(16) 0.946(5)
C38 C 0.8480(18) 0.1782(18) 0.879(5)
H25 H 0.8476 0.1699 0.7710
C39 C 0.8173(19) 0.2131(19) 0.899(5)
H26 H 0.8394 0.2509 0.8472
H27 H 0.8151 0.2207 1.0054
C40 C 0.7096(18) 0.2103(18) 0.911(5)
C41 C 0.7314(18) 0.2713(18) 0.850(5)
C42 C 0.7722(19) 0.2948(19) 0.736(5)
H28 H 0.7889 0.2734 0.6965
C43 C 0.789(2) 0.350(2) 0.679(5)
H29 H 0.8162 0.3655 0.5999
C44 C 0.765(2) 0.382(2) 0.736(6)
H30 H 0.7772 0.4201 0.6984
C45 C 0.724(2) 0.359(2) 0.850(6)
H31 H 0.7080 0.3804 0.8897
C46 C 0.708(2) 0.304(2) 0.906(5)
H32 H 0.6796 0.2887 0.9836
C47 C 0.6447(19) 0.1742(18) 0.869(5)
C48 C 0.630(2) 0.158(2) 0.721(5)
H33 H 0.6589 0.1656 0.6501
C49 C 0.571(2) 0.129(3) 0.678(6)
H34 H 0.5613 0.1180 0.5771
C50 C 0.529(2) 0.117(2) 0.780(6)
H35 H 0.4893 0.0970 0.7511
C51 C 0.544(2) 0.134(2) 0.928(6)
H36 H 0.5144 0.1256 0.9996
C52 C 0.601(2) 0.162(2) 0.971(5)
H37 H 0.6114 0.1731 1.0719
C53 C 0.7187(18) 0.208(2) 1.079(5)
C54 C 0.753(2) 0.258(2) 1.164(5)
H38 H 0.7690 0.2951 1.1186
C55 C 0.765(2) 0.254(2) 1.313(5)
H39 H 0.7895 0.2880 1.3686
C56 C 0.741(2) 0.200(3) 1.379(5)
H40 H 0.7495 0.1968 1.4808
C57 C 0.706(2) 0.150(3) 1.300(6)
H41 H 0.6889 0.1133 1.3474
C58 C 0.696(2) 0.155(2) 1.149(5)
H42 H 0.6733 0.1203 1.0932
C59 C 0.637(3) -0.289(3) 0.894(6)
H43 H 0.6479 -0.3117 0.9593
H44 H 0.6242 -0.2669 0.9583
Cl1 Cl 0.6977(9) -0.2395(8) 0.7847(19)
Cl2 Cl 0.5786(8) -0.3364(8) 0.776(2)
C60 C 0.908(3) 0.262(3) 1.387(6)
H45 H 0.9286 0.2405 1.3685
H46 H 0.8672 0.2375 1.3535
Cl3 Cl 0.9087(10) 0.2759(8) 1.577(2)
Cl4 Cl 0.9403(10) 0.3261(10) 1.2829(19)
C61 C 0.961(5) 0.427(4) 0.620(9)
H47 H 0.9270 0.3928 0.5737
H48 H 0.9948 0.4376 0.5559
Cl5 Cl 0.9734(10) 0.4060(8) 0.794(2)
Cl6 Cl 0.9472(12) 0.4845(9) 0.628(3)
C62 C 0.608(3) -0.036(3) 0.496(11)
H49 H 0.6170 -0.0660 0.5246
H50 H 0.5659 -0.0510 0.5177
Cl7 Cl 0.6192(10) -0.0226(10) 0.305(4)
Cl8 Cl 0.6496(10) 0.0272(10) 0.605(3)
C63 C 0.461(4) -0.535(5) 1.549(17)
H51 H 0.4604 -0.5447 1.4425
H52 H 0.4739 -0.5581 1.6066
Cl9 Cl 0.5117(16) -0.4596(17) 1.575(4)
Cl10 Cl 0.3914(16) -0.5511(17) 1.606(4)
O9 O 0.928(6) 0.137(6) 1.562(15)
O10 O 0.909(13) 0.042(12) 1.08(3)
O11 O 0.856(9) -0.067(9) 1.25(2)
O12 O 1.029(11) 0.167(11) 1.67(3)
C64? C 0.565(7) 0.012(12) 0.92(5)
H53? H 0.5677 0.0187 0.8142
H54? H 0.5769 0.0495 0.9723
Cl11? Cl 0.614(4) -0.013(5) 0.975(13)
Cl12? Cl 0.491(4) -0.039(5) 0.971(13)
loop_
_geom_bond_atom_site_label_1
_geom_bond_atom_site_label_2
_geom_bond_site_symmetry_1
_geom_bond_site_symmetry_2
O1 C1 1_555 1_555
C1 N1 1_555 1_555
N1 C12 1_555 1_555
N2 C6 1_555 1_555
C2 C1 1_555 1_555
O2 C6 1_555 1_555
O3 C7 1_555 1_555
C3 C2 1_555 1_555
H1 C3 1_555 1_555
O4 C12 1_555 1_555
C4 C3 1_555 1_555
H2 C4 1_555 1_555
C5 C4 1_555 1_555
C6 C5 1_555 1_555
C7 N2 1_555 1_555
C8 C7 1_555 1_555
C9 C8 1_555 1_555
H3 C9 1_555 1_555
C10 C9 1_555 1_555
H4 C10 1_555 1_555
C11 C10 1_555 1_555
C12 C11 1_555 1_555
C13 C2 1_555 1_555
C14 C5 1_555 1_555
S1 C17 1_555 1_555
O5 H5 1_555 1_555
C15 O5 1_555 1_555
O6 C15 1_555 1_555
C16 N1 1_555 1_555
H6 C16 1_555 1_555
C17 C16 1_555 1_555
H7 C17 1_555 1_555
H8 C17 1_555 1_555
C18 S1 1_555 1_555
C19 C18 1_555 1_555
C20 C19 1_555 1_555
H9 C20 1_555 1_555
C21 C20 1_555 1_555
H10 C21 1_555 1_555
C22 C21 1_555 1_555
H11 C22 1_555 1_555
C23 C22 1_555 1_555
H12 C23 1_555 1_555
C24 C19 1_555 1_555
H13 C24 1_555 1_555
C25 C18 1_555 1_555
C26 C25 1_555 1_555
H14 C26 1_555 1_555
C27 C26 1_555 1_555
H15 C27 1_555 1_555
C28 C27 1_555 1_555
H16 C28 1_555 1_555
C29 C28 1_555 1_555
H17 C29 1_555 1_555
C30 C25 1_555 1_555
H18 C30 1_555 1_555
C31 C18 1_555 1_555
C32 C31 1_555 1_555
H19 C32 1_555 1_555
C33 C32 1_555 1_555
H20 C33 1_555 1_555
C34 C33 1_555 1_555
H21 C34 1_555 1_555
C35 C34 1_555 1_555
H22 C35 1_555 1_555
C36 C31 1_555 1_555
H23 C36 1_555 1_555
S2 C39 1_555 1_555
O7 H24 1_555 1_555
C37 O7 1_555 1_555
O8 C37 1_555 1_555
C38 N2 1_555 1_555
H25 C38 1_555 1_555
C39 C38 1_555 1_555
H26 C39 1_555 1_555
H27 C39 1_555 1_555
C40 S2 1_555 1_555
C41 C40 1_555 1_555
C42 C41 1_555 1_555
H28 C42 1_555 1_555
C43 C42 1_555 1_555
H29 C43 1_555 1_555
C44 C43 1_555 1_555
H30 C44 1_555 1_555
C45 C44 1_555 1_555
H31 C45 1_555 1_555
C46 C41 1_555 1_555
H32 C46 1_555 1_555
C47 C40 1_555 1_555
C48 C47 1_555 1_555
H33 C48 1_555 1_555
C49 C48 1_555 1_555
H34 C49 1_555 1_555
C50 C49 1_555 1_555
H35 C50 1_555 1_555
C51 C50 1_555 1_555
H36 C51 1_555 1_555
C52 C47 1_555 1_555
H37 C52 1_555 1_555
C53 C40 1_555 1_555
C54 C53 1_555 1_555
H38 C54 1_555 1_555
C55 C54 1_555 1_555
H39 C55 1_555 1_555
C56 C55 1_555 1_555
H40 C56 1_555 1_555
C57 C56 1_555 1_555
H41 C57 1_555 1_555
C58 C53 1_555 1_555
H42 C58 1_555 1_555
C59 H43 1_555 1_555
H44 C59 1_555 1_555
Cl1 C59 1_555 1_555
Cl2 C59 1_555 1_555
C60 H45 1_555 1_555
H46 C60 1_555 1_555
Cl3 C60 1_555 1_555
Cl4 C60 1_555 1_555
C61 H47 1_555 1_555
H48 C61 1_555 1_555
Cl5 C61 1_555 1_555
Cl6 C61 1_555 1_555
C62 H49 1_555 1_555
H50 C62 1_555 1_555
Cl7 C62 1_555 1_555
Cl8 C62 1_555 1_555
C63 H51 1_555 1_555
H52 C63 1_555 1_555
Cl9 C63 1_555 1_555
Cl10 C63 1_555 1_555
C8 C14 1_555 1_555
C11 C13 1_555 1_555
C13 C14 1_555 1_555
C15 C16 1_555 1_555
C23 C24 1_555 1_555
C29 C30 1_555 1_555
C35 C36 1_555 1_555
C37 C38 1_555 1_555
C45 C46 1_555 1_555
C51 C52 1_555 1_555
C57 C58 1_555 1_555

#END
