
#######################################################################
#
#                 Cambridge Crystallographic Data Centre
#                                CCDC 
#
#######################################################################
#
# If this CIF has been generated from an entry in the Cambridge 
# Structural Database, then it will include bibliographic, chemical, 
# crystal, experimental, refinement or atomic coordinate data resulting 
# from the CCDC's data processing and validation procedures.
#
#######################################################################

data_NEVWER
_chemical_formula_moiety         
'C42 H42 N28 O14,C3 H6 O1,2.5(H2 O4 S1),20(H2 O1)'
_chemical_name_systematic        
'hemikis(bis(cucurbit(7)uril acetone clathrate) pentakis(sulfuric acid)) icosahydrate'
_symmetry_cell_setting           monoclinic
_symmetry_space_group_name_H-M   'P 21/n'
_symmetry_Int_Tables_number      14
_space_group_name_Hall           '-P 2yn'
loop_
_symmetry_equiv_pos_site_id
_symmetry_equiv_pos_as_xyz
1 x,y,z
2 1/2-x,1/2+y,1/2-z
3 -x,-y,-z
4 1/2+x,1/2-y,1/2+z
_cell_length_a                   12.815(3)
_cell_length_b                   19.973(4)
_cell_length_c                   31.372(6)
_cell_angle_alpha                90
_cell_angle_beta                 92.46(3)
_cell_angle_gamma                90
_cell_volume                     8022.39
_exptl_crystal_colour            colorless
_exptl_crystal_description       needle
_cell_formula_units_Z            4
loop_
_atom_site_label
_atom_site_type_symbol
_atom_site_fract_x
_atom_site_fract_y
_atom_site_fract_z
O1 O 0.3803(2) 1.06475(14) 0.72807(10)
O2 O 0.37488(19) 1.04483(13) 0.61210(9)
O3 O 0.55258(19) 0.94715(13) 0.54561(9)
O4 O 0.7772(2) 0.84607(14) 0.58350(9)
O5 O 0.84443(19) 0.82277(12) 0.69517(10)
O6 O 0.7733(2) 0.89046(13) 0.79828(9)
O7 O 0.5550(2) 0.99891(13) 0.81315(11)
O8 O 0.07751(19) 0.83533(12) 0.74014(9)
O9 O 0.0813(2) 0.81389(13) 0.63438(9)
O10 O 0.2700(2) 0.70769(13) 0.57884(10)
O11 O 0.5060(2) 0.60284(15) 0.61280(10)
O12 O 0.6125(2) 0.57101(12) 0.71238(9)
O13 O 0.50024(19) 0.64460(12) 0.79961(8)
O14 O 0.26560(19) 0.75783(12) 0.81358(8)
N1 N 0.2111(2) 1.03344(15) 0.70916(11)
N2 N 0.2084(2) 1.01870(15) 0.63246(10)
N3 N 0.2638(2) 0.97697(15) 0.57167(10)
N4 N 0.3845(2) 0.90627(16) 0.53522(10)
N5 N 0.5188(2) 0.83906(15) 0.52390(10)
N6 N 0.6681(2) 0.77195(16) 0.54729(11)
N7 N 0.7814(2) 0.73212(16) 0.59604(11)
N8 N 0.8466(2) 0.71537(16) 0.66846(11)
N9 N 0.8476(2) 0.73030(16) 0.73892(11)
N10 N 0.7754(2) 0.77541(15) 0.80289(11)
N11 N 0.6715(3) 0.83159(15) 0.84420(11)
N12 N 0.5217(3) 0.90411(14) 0.85183(10)
N13 N 0.3882(3) 0.96527(15) 0.82890(11)
N14 N 0.2701(3) 1.01761(15) 0.77569(11)
N15 N 0.2704(2) 0.87035(15) 0.83209(10)
N16 N 0.1533(3) 0.92167(15) 0.77925(10)
N17 N 0.0827(2) 0.94418(15) 0.71497(11)
N18 N 0.0808(2) 0.92939(16) 0.63851(11)
N19 N 0.1528(2) 0.88037(15) 0.58307(10)
N20 N 0.2705(3) 0.81019(16) 0.54523(11)
N21 N 0.4075(3) 0.74370(16) 0.53985(11)
N22 N 0.5567(3) 0.67626(16) 0.56110(11)
N23 N 0.6777(3) 0.63241(15) 0.60531(11)
N24 N 0.7529(2) 0.60999(15) 0.67560(11)
N25 N 0.7495(2) 0.62717(15) 0.74576(11)
N26 N 0.6738(2) 0.67297(14) 0.80885(11)
N27 N 0.5549(2) 0.73563(14) 0.83964(10)
N28 N 0.4064(3) 0.80671(15) 0.84977(10)
C1 C 0.2963(3) 1.04086(17) 0.73686(13)
C2 C 0.2032(3) 1.06493(18) 0.66752(12)
H1 H 0.1376 1.0891 0.6648
H2 H 0.2592 1.0973 0.6656
C3 C 0.2919(3) 1.01620(17) 0.60625(12)
C4 C 0.3296(3) 0.96984(19) 0.53516(13)
H3 H 0.2865 0.9736 0.5091
H4 H 0.3801 1.0060 0.5355
C5 C 0.4913(3) 0.90258(19) 0.53641(11)
C6 C 0.6232(3) 0.8193(2) 0.51644(13)
H5 H 0.6668 0.8590 0.5165
H6 H 0.6247 0.7995 0.4882
C7 C 0.7450(3) 0.78895(18) 0.57649(13)
C8 C 0.8718(3) 0.7323(2) 0.62584(14)
H7 H 0.9229 0.7007 0.6161
H8 H 0.9034 0.7765 0.6259
C9 C 0.8453(2) 0.76292(17) 0.70047(13)
C10 C 0.8688(3) 0.76441(18) 0.77851(14)
H9 H 0.9006 0.8074 0.7727
H10 H 0.9188 0.7384 0.7957
C11 C 0.7430(3) 0.83761(18) 0.81346(13)
C12 C 0.6273(3) 0.88922(19) 0.86571(14)
H11 H 0.6295 0.8808 0.8962
H12 H 0.6704 0.9281 0.8608
C13 C 0.4949(3) 0.95885(17) 0.82994(14)
C14 C 0.3350(3) 1.02618(18) 0.81435(14)
H13 H 0.2918 1.0422 0.8368
H14 H 0.3870 1.0603 0.8094
C15 C 0.1635(3) 0.99339(17) 0.77627(12)
H15 H 0.1236 1.0165 0.7978
C16 C 0.1197(3) 1.00869(18) 0.73000(13)
H16 H 0.0635 1.0420 0.7298
C17 C 0.1168(3) 0.98438(18) 0.61384(12)
H17 H 0.0602 1.0159 0.6065
C18 C 0.1590(3) 0.95152(18) 0.57402(13)
H18 H 0.1164 0.9633 0.5484
C19 C 0.3355(3) 0.8463(2) 0.51692(12)
H19 H 0.2982 0.8562 0.4897
C20 C 0.4281(3) 0.79855(19) 0.51070(12)
H20 H 0.4313 0.7833 0.4811
C21 C 0.6530(3) 0.69994(19) 0.54412(13)
H21 H 0.6629 0.6833 0.5152
C22 C 0.7365(3) 0.67298(19) 0.57644(13)
H22 H 0.7893 0.6464 0.5624
C23 C 0.8479(3) 0.64726(18) 0.68507(14)
H23 H 0.9101 0.6226 0.6770
C24 C 0.8460(3) 0.65821(17) 0.73452(13)
H24 H 0.9064 0.6374 0.7495
C25 C 0.7354(3) 0.72427(18) 0.83080(13)
H25 H 0.7907 0.7050 0.8495
C26 C 0.6551(3) 0.76286(18) 0.85603(13)
H26 H 0.6655 0.7560 0.8868
C27 C 0.4330(3) 0.87015(18) 0.86940(13)
H27 H 0.4403 0.8665 0.9005
C28 C 0.3394(3) 0.91573(18) 0.85513(12)
H28 H 0.3061 0.9361 0.8795
C29 C 0.1634(3) 0.88690(19) 0.81944(12)
H29 H 0.1228 0.8459 0.8175
H30 H 0.1343 0.9146 0.8414
C30 C 0.1027(3) 0.89433(17) 0.74428(12)
C31 C 0.0200(3) 0.9351(2) 0.67624(13)
H31 H -0.0275 0.9727 0.6727
H32 H -0.0218 0.8949 0.6789
C32 C 0.1023(3) 0.86942(19) 0.62029(13)
C33 C 0.1630(3) 0.82901(19) 0.55164(13)
H33 H 0.1316 0.8445 0.5247
H34 H 0.1247 0.7897 0.5603
C34 C 0.3114(3) 0.75033(18) 0.55684(12)
C35 C 0.4579(3) 0.6798(2) 0.53678(15)
H35 H 0.4699 0.6705 0.5070
H36 H 0.4116 0.6454 0.5469
C36 C 0.5733(3) 0.63367(19) 0.59493(13)
C37 C 0.7255(4) 0.58404(18) 0.63445(14)
H37 H 0.6775 0.5470 0.6376
H38 H 0.7879 0.5665 0.6220
C38 C 0.6959(3) 0.60008(17) 0.71125(13)
C39 C 0.7178(3) 0.61546(18) 0.78876(14)
H39 H 0.6667 0.5796 0.7882
H40 H 0.7781 0.6005 0.8060
C40 C 0.5695(3) 0.68082(17) 0.81430(12)
C41 C 0.4589(3) 0.74518(17) 0.86189(12)
H41 H 0.4124 0.7078 0.8557
H42 H 0.4749 0.7457 0.8924
C42 C 0.3095(3) 0.80703(17) 0.83016(11)
S1 S 0.85506(8) 0.08841(5) 0.58390(3)
O15 O 0.9425(3) 0.1334(2) 0.58645(14)
O16 O 0.7583(3) 0.13018(14) 0.58741(10)
O17 O 0.8627(3) 0.04159(18) 0.61921(10)
O18 O 0.8488(3) 0.05320(14) 0.54304(10)
S2 S 0.0123(2) 0.54824(16) 0.56297(10)
O19 O -0.0078(9) 0.5847(8) 0.5967(5)
O20 O 0.1227(9) 0.5623(10) 0.5535(4)
O21 O 0.0174(9) 0.4773(4) 0.5608(3)
O22 O -0.0451(10) 0.5773(7) 0.5279(6)
S3 S -0.0526(4) 0.6952(2) 0.49863(12)
O23 O 0.0346(11) 0.7171(10) 0.4678(2)
O24 O -0.1018(17) 0.6344(11) 0.4893(5)
O25 O -0.1298(15) 0.7453(9) 0.4979(9)
O26 O -0.0025(14) 0.6837(9) 0.5394(5)
S4 S 0.4281(2) 0.65718(14) 0.41090(8)
O27 O 0.4396(11) 0.6916(5) 0.3726(4)
O28 O 0.3432(16) 0.6763(11) 0.4334(8)
O29 O 0.4465(10) 0.5805(3) 0.4034(2)
O30 O 0.5214(9) 0.6580(10) 0.4363(3)
O32 O 0.2383(10) 0.6996(7) 0.4655(3)
O33 O 0.2289(2) 0.05127(14) 0.28105(10)
O34 O 0.0837(2) 0.07646(14) 0.46184(10)
O35 O 0.4244(2) 0.91821(16) 0.43463(11)
O36 O 0.5758(3) 0.81902(16) 0.31626(12)
O38 O 0.4472(2) 0.54482(17) 0.32514(16)
O39 O 0.2813(3) 0.0507(2) 0.36380(11)
O40 O 0.5990(4) 0.7834(2) 0.20230(18)
O42 O 0.4803(3) 1.0275(2) 0.33876(16)
O44 O 0.9271(3) 0.8544(2) 0.19825(17)
O46 O 0.7695(4) 0.8204(2) 0.24309(16)
O48 O 0.8866(3) 0.8873(3) 0.45585(15)
O49 O 0.5372(4) 0.8174(2) 0.39988(14)
O50 O 0.3929(5) -0.0106(4) 0.2681(2)
O52 O 0.6841(4) 0.4678(3) 0.40453(17)
O53 O 0.7468(4) 0.8122(3) 0.41653(17)
O54 O 0.1306(5) 0.6675(3) 0.6353(2)
O55 O 0.7511(9) 0.6869(4) 0.4297(2)
O56 O 0.6553(14) 0.5851(7) 0.4403(4)
O60 O 0.8073(12) 0.4422(5) 0.5238(5)
O61 O 0.6572(11) 0.5257(10) 0.5348(7)
O62 O 0.546(2) 0.8614(10) 0.7499(7)
C43 C 0.4988(16) 0.8285(11) 0.7213(5)
C44 C 0.5415(17) 0.8013(12) 0.6799(9)
C45 C 0.3797(14) 0.8442(14) 0.7074(11)
O31? O 0.3886(7) 0.7148(4) 0.4075(3)
O37? O 0.6015(12) 0.7993(8) 0.2761(7)
O41? O 0.6561(12) 0.7872(6) 0.2285(6)
O43? O 0.4500(6) 0.9602(6) 0.3317(3)
O45? O 0.8560(11) 0.8537(8) 0.1609(4)
O47? O 0.8476(15) 0.8269(14) 0.2402(6)
O51? O 0.4056(11) 0.0273(12) 0.2639(4)
O57? O 0.5534(10) 0.5606(6) 0.4351(5)
O58? O 0.549(3) 0.5218(13) 0.4696(7)
O59? O 0.7469(11) 0.4980(5) 0.5243(4)
O63? O 0.435(3) 0.8910(11) 0.7462(5)
C46? C 0.4478(16) 0.8509(8) 0.7166(4)
C47? C 0.5439(11) 0.8068(10) 0.7094(10)
C48? C 0.376(3) 0.8453(13) 0.6744(8)
loop_
_geom_bond_atom_site_label_1
_geom_bond_atom_site_label_2
_geom_bond_site_symmetry_1
_geom_bond_site_symmetry_2
O1 C1 1_555 1_555
O2 C3 1_555 1_555
O3 C5 1_555 1_555
O4 C7 1_555 1_555
O5 C9 1_555 1_555
O6 C11 1_555 1_555
O7 C13 1_555 1_555
O8 C30 1_555 1_555
O9 C32 1_555 1_555
O10 C34 1_555 1_555
O11 C36 1_555 1_555
O12 C38 1_555 1_555
O13 C40 1_555 1_555
O14 C42 1_555 1_555
N1 C1 1_555 1_555
N2 C2 1_555 1_555
N3 C3 1_555 1_555
N4 C4 1_555 1_555
N5 C5 1_555 1_555
N6 C6 1_555 1_555
N7 C7 1_555 1_555
N8 C8 1_555 1_555
N9 C9 1_555 1_555
N10 C10 1_555 1_555
N11 C11 1_555 1_555
N12 C12 1_555 1_555
N13 C13 1_555 1_555
N14 C1 1_555 1_555
N15 C28 1_555 1_555
N16 C15 1_555 1_555
N17 C16 1_555 1_555
N18 C17 1_555 1_555
N19 C18 1_555 1_555
N20 C19 1_555 1_555
N21 C20 1_555 1_555
N22 C21 1_555 1_555
N23 C22 1_555 1_555
N24 C23 1_555 1_555
N25 C24 1_555 1_555
N26 C25 1_555 1_555
N27 C26 1_555 1_555
N28 C27 1_555 1_555
C2 N1 1_555 1_555
H1 C2 1_555 1_555
H2 C2 1_555 1_555
C3 N2 1_555 1_555
C4 N3 1_555 1_555
H3 C4 1_555 1_555
H4 C4 1_555 1_555
C5 N4 1_555 1_555
C6 N5 1_555 1_555
H5 C6 1_555 1_555
H6 C6 1_555 1_555
C7 N6 1_555 1_555
C8 N7 1_555 1_555
H7 C8 1_555 1_555
H8 C8 1_555 1_555
C9 N8 1_555 1_555
C10 N9 1_555 1_555
H9 C10 1_555 1_555
H10 C10 1_555 1_555
C11 N10 1_555 1_555
C12 N11 1_555 1_555
H11 C12 1_555 1_555
H12 C12 1_555 1_555
C13 N12 1_555 1_555
C14 N13 1_555 1_555
H13 C14 1_555 1_555
H14 C14 1_555 1_555
C15 N14 1_555 1_555
H15 C15 1_555 1_555
C16 N1 1_555 1_555
H16 C16 1_555 1_555
C17 N2 1_555 1_555
H17 C17 1_555 1_555
C18 N3 1_555 1_555
H18 C18 1_555 1_555
C19 N4 1_555 1_555
H19 C19 1_555 1_555
C20 N5 1_555 1_555
H20 C20 1_555 1_555
C21 N6 1_555 1_555
H21 C21 1_555 1_555
C22 N7 1_555 1_555
H22 C22 1_555 1_555
C23 N8 1_555 1_555
H23 C23 1_555 1_555
C24 N9 1_555 1_555
H24 C24 1_555 1_555
C25 N10 1_555 1_555
H25 C25 1_555 1_555
C26 N11 1_555 1_555
H26 C26 1_555 1_555
C27 N12 1_555 1_555
H27 C27 1_555 1_555
C28 N13 1_555 1_555
H28 C28 1_555 1_555
C29 N15 1_555 1_555
H29 C29 1_555 1_555
H30 C29 1_555 1_555
C30 N16 1_555 1_555
C31 N17 1_555 1_555
H31 C31 1_555 1_555
H32 C31 1_555 1_555
C32 N18 1_555 1_555
C33 N19 1_555 1_555
H33 C33 1_555 1_555
H34 C33 1_555 1_555
C34 N20 1_555 1_555
C35 N21 1_555 1_555
H35 C35 1_555 1_555
H36 C35 1_555 1_555
C36 N22 1_555 1_555
C37 N23 1_555 1_555
H37 C37 1_555 1_555
H38 C37 1_555 1_555
C38 N24 1_555 1_555
C39 N25 1_555 1_555
H39 C39 1_555 1_555
H40 C39 1_555 1_555
C40 N26 1_555 1_555
C41 N27 1_555 1_555
H41 C41 1_555 1_555
H42 C41 1_555 1_555
C42 N15 1_555 1_555
S1 O15 1_555 1_555
O16 S1 1_555 1_555
O17 S1 1_555 1_555
O18 S1 1_555 1_555
S2 O19 1_555 1_555
O20 S2 1_555 1_555
O21 S2 1_555 1_555
O22 S2 1_555 1_555
S3 O23 1_555 1_555
O24 S3 1_555 1_555
O25 S3 1_555 1_555
O26 S3 1_555 1_555
S4 O27 1_555 1_555
O28 S4 1_555 1_555
O29 S4 1_555 1_555
O30 S4 1_555 1_555
O62 C43 1_555 1_555
C43 C44 1_555 1_555
C45 C43 1_555 1_555
N14 C14 1_555 1_555
N16 C29 1_555 1_555
N17 C30 1_555 1_555
N18 C31 1_555 1_555
N19 C32 1_555 1_555
N20 C33 1_555 1_555
N21 C34 1_555 1_555
N22 C35 1_555 1_555
N23 C36 1_555 1_555
N24 C37 1_555 1_555
N25 C38 1_555 1_555
N26 C39 1_555 1_555
N27 C40 1_555 1_555
N28 C41 1_555 1_555
N28 C42 1_555 1_555
C15 C16 1_555 1_555
C17 C18 1_555 1_555
C19 C20 1_555 1_555
C21 C22 1_555 1_555
C23 C24 1_555 1_555
C25 C26 1_555 1_555
C27 C28 1_555 1_555

#END
