
#######################################################################
#
#                 Cambridge Crystallographic Data Centre
#                                CCDC 
#
#######################################################################
#
# If this CIF has been generated from an entry in the Cambridge 
# Structural Database, then it will include bibliographic, chemical, 
# crystal, experimental, refinement or atomic coordinate data resulting 
# from the CCDC's data processing and validation procedures.
#
#######################################################################

data_NEVXOB
_chemical_formula_moiety         'C13 H10 Cl1 N5 O3 S2'
_chemical_name_systematic        
N-(4-Chlorophenyl)-N'-((benzo(2,1,3)thiadiazol-4-yl)sulfonyl)-N''-hydroxyguanidine
_symmetry_cell_setting           triclinic
_symmetry_space_group_name_H-M   'P -1'
_symmetry_Int_Tables_number      2
_space_group_name_Hall           '-P 1'
loop_
_symmetry_equiv_pos_site_id
_symmetry_equiv_pos_as_xyz
1 x,y,z
2 -x,-y,-z
_cell_length_a                   7.4095(9)
_cell_length_b                   15.215(2)
_cell_length_c                   7.1510(9)
_cell_angle_alpha                96.232(10)
_cell_angle_beta                 107.053(9)
_cell_angle_gamma                84.265(10)
_cell_volume                     764.204
_chemical_melting_point          217-218deg.C
_cell_formula_units_Z            2
_exptl_crystal_recrystallization_method methanol
loop_
_atom_site_label
_atom_site_type_symbol
_atom_site_fract_x
_atom_site_fract_y
_atom_site_fract_z
Cl1 Cl -0.1496(1) -0.5751(1) 0.1524(2)
S1 S 0.2079(1) -0.8922(1) -0.6430(1)
S2 S 0.3616(1) -0.5913(1) -0.4393(1)
O1 O 0.3761(2) -0.9057(1) -0.4795(3)
O2 O 0.1663(3) -0.9662(1) -0.7886(4)
O3 O -0.3704(3) -0.9757(2) -0.7879(3)
N1 N 0.2989(3) -0.6916(2) -0.4752(3)
N2 N 0.3856(4) -0.5768(2) -0.6504(4)
N3 N 0.0408(3) -0.8550(1) -0.5535(4)
N4 N -0.1781(3) -0.9594(2) -0.7272(4)
N5 N -0.2530(3) -0.8519(2) -0.5097(4)
C1 C 0.2958(3) -0.7194(2) -0.6599(4)
C2 C 0.2516(3) -0.8038(2) -0.7604(4)
C3 C 0.2547(4) -0.8182(2) -0.9514(4)
C4 C 0.2995(5) -0.7514(2) -1.0501(5)
C5 C 0.3442(5) -0.6711(2) -0.9596(5)
C6 C 0.3439(4) -0.6531(2) -0.7612(4)
C7 C -0.1271(3) -0.8888(2) -0.6009(4)
C8 C -0.2178(3) -0.7853(2) -0.3507(4)
C9 C -0.2466(4) -0.8034(2) -0.1758(5)
C10 C -0.2240(4) -0.7385(2) -0.0215(5)
C11 C -0.1734(4) -0.6570(2) -0.0423(5)
C12 C -0.1431(5) -0.6378(2) -0.2148(5)
C13 C -0.1658(4) -0.7029(2) -0.3691(5)
H1 H -0.3767(63) -1.0194(31) -0.7081(65)
H2 H -0.1279(48) -0.9734(22) -0.8140(50)
H3 H -0.3449(45) -0.8793(20) -0.5315(44)
H4 H 0.2260(54) -0.8753(27) -1.0142(58)
H5 H 0.2940(55) -0.7628(26) -1.1765(61)
H6 H 0.3715(51) -0.6239(25) -1.0229(55)
H7 H -0.2854(48) -0.8580(24) -0.1691(50)
H8 H -0.2464(44) -0.7484(20) 0.0897(50)
H9 H -0.1103(54) -0.5785(28) -0.2199(58)
H10 H -0.1433(48) -0.6910(22) -0.4784(52)
loop_
_geom_bond_atom_site_label_1
_geom_bond_atom_site_label_2
_geom_bond_site_symmetry_1
_geom_bond_site_symmetry_2
Cl1 C11 1_555 1_555
S1 O1 1_555 1_555
S2 N1 1_555 1_555
O2 S1 1_555 1_555
O3 N4 1_555 1_555
N1 C1 1_555 1_555
N2 S2 1_555 1_555
N3 S1 1_555 1_555
N4 C7 1_555 1_555
N5 C7 1_555 1_555
C1 C2 1_555 1_555
C2 S1 1_555 1_555
C3 C2 1_555 1_555
C4 C3 1_555 1_555
C5 C4 1_555 1_555
C6 N2 1_555 1_555
C7 N3 1_555 1_555
C8 N5 1_555 1_555
C9 C8 1_555 1_555
C10 C9 1_555 1_555
C11 C10 1_555 1_555
C12 C11 1_555 1_555
C13 C8 1_555 1_555
H1 O3 1_555 1_555
H2 N4 1_555 1_555
H3 N5 1_555 1_555
H4 C3 1_555 1_555
H5 C4 1_555 1_555
H6 C5 1_555 1_555
H7 C9 1_555 1_555
H8 C10 1_555 1_555
H9 C12 1_555 1_555
H10 C13 1_555 1_555
C1 C6 1_555 1_555
C5 C6 1_555 1_555
C12 C13 1_555 1_555

#END
