
#######################################################################
#
#                 Cambridge Crystallographic Data Centre
#                                CCDC 
#
#######################################################################
#
# If this CIF has been generated from an entry in the Cambridge 
# Structural Database, then it will include bibliographic, chemical, 
# crystal, experimental, refinement or atomic coordinate data resulting 
# from the CCDC's data processing and validation procedures.
#
#######################################################################

data_NEVXIV
_chemical_formula_moiety         'C18 H18 Cl2 N6 O1,0.5(H2 O1)'
_chemical_name_systematic        
'1-(2-Amino-6-(2,6-dichlorophenyl)pyrido(2,3-d)pyrimidin-7-yl)-3-t-butylurea hemihydrate'
_symmetry_cell_setting           triclinic
_symmetry_space_group_name_H-M   'P -1'
_symmetry_Int_Tables_number      2
_space_group_name_Hall           '-P 1'
loop_
_symmetry_equiv_pos_site_id
_symmetry_equiv_pos_as_xyz
1 x,y,z
2 -x,-y,-z
_cell_length_a                   11.102(9)
_cell_length_b                   12.010(2)
_cell_length_c                   16.289(3)
_cell_angle_alpha                78.24(2)
_cell_angle_beta                 79.50(2)
_cell_angle_gamma                79.31(3)
_cell_volume                     2065.72
_exptl_crystal_colour            colorless
_exptl_crystal_description       rods
_chemical_melting_point          335deg.C
_cell_formula_units_Z            4
_exptl_crystal_recrystallization_method 'aqueous ethanol'
loop_
_atom_site_label
_atom_site_type_symbol
_atom_site_fract_x
_atom_site_fract_y
_atom_site_fract_z
Cl1 Cl 0.8778(1) 0.37719(8) 0.68601(6)
Cl3 Cl 0.67956(8) 0.51810(7) 0.98194(5)
O1 O 0.5037(2) 0.7829(2) 0.7448(2)
N1 N 1.2299(2) 0.6693(2) 0.8214(1)
N3 N 1.0564(2) 0.7976(2) 0.7672(1)
N5 N 0.8750(2) 0.7321(2) 0.7643(1)
N7 N 1.2384(2) 0.8604(2) 0.7686(2)
N9 N 0.6874(2) 0.6733(2) 0.7646(1)
N11 N 0.6758(2) 0.8701(2) 0.7070(1)
C1 C 1.1641(2) 0.5853(2) 0.8382(2)
C3 C 1.1710(2) 0.7748(2) 0.7858(2)
C5 C 0.9912(2) 0.7090(2) 0.7842(1)
C7 C 0.8077(2) 0.6479(2) 0.7816(1)
C9 C 0.8529(2) 0.5316(2) 0.8176(2)
C11 C 0.9699(2) 0.5098(2) 0.8366(2)
C13 C 1.0427(2) 0.5981(2) 0.8212(2)
C15 C 0.7760(2) 0.4380(2) 0.8379(2)
C17 C 0.7850(3) 0.3584(2) 0.7846(2)
C19 C 0.7202(3) 0.2665(2) 0.8071(3)
C21 C 0.6473(3) 0.2514(2) 0.8836(3)
C23 C 0.6350(3) 0.3259(2) 0.9392(2)
C25 C 0.6988(2) 0.4190(2) 0.9149(2)
C27 C 0.6153(2) 0.7801(2) 0.7390(2)
C29 C 0.6149(2) 0.9894(2) 0.6822(2)
C31 C 0.5372(3) 0.9969(3) 0.6132(2)
C33 C 0.5374(3) 1.0342(3) 0.7577(2)
C35 C 0.7211(3) 1.0590(2) 0.6476(2)
H1 H 1.201 0.511 0.863
H3 H 1.003 0.434 0.861
H5 H 0.727 0.213 0.769
H7 H 0.604 0.187 0.899
H9 H 0.584 0.314 0.992
H13 H 1.309 0.836 0.774
H16 H 1.196 0.935 0.743
H18 H 0.641 0.633 0.783
H20 H 0.766 0.862 0.717
H22 H 0.590 0.972 0.565
H23 H 0.499 1.074 0.598
H25 H 0.476 0.948 0.632
H27 H 0.500 1.112 0.742
H29 H 0.589 1.031 0.800
H31 H 0.474 0.988 0.782
H33 H 0.765 1.034 0.597
H35 H 0.776 1.046 0.688
H37 H 0.689 1.139 0.635
Cl2 Cl 0.08490(8) 0.59182(8) 0.58798(7)
Cl4 Cl 0.55564(6) 0.38636(7) 0.61869(5)
O2 O 0.3398(2) 0.3316(1) 0.8927(1)
N2 N 0.0946(2) 0.1163(2) 0.5120(1)
N4 N 0.1386(2) 0.0786(2) 0.6560(1)
N6 N 0.2285(2) 0.2055(2) 0.7048(1)
N8 N 0.0432(2) -0.0427(2) 0.6072(1)
N10 N 0.3103(2) 0.3330(2) 0.7598(1)
N12 N 0.2472(2) 0.1882(2) 0.8706(1)
C2 C 0.1451(2) 0.2103(2) 0.4970(2)
C4 C 0.0934(2) 0.0533(2) 0.5929(2)
C6 C 0.1867(2) 0.1778(2) 0.6394(1)
C8 C 0.2724(2) 0.3040(2) 0.6923(1)
C10 C 0.2814(2) 0.3821(2) 0.6130(1)
C12 C 0.2411(2) 0.3514(2) 0.5475(1)
C14 C 0.1926(2) 0.2481(2) 0.5588(1)
C16 C 0.3220(2) 0.4955(2) 0.6039(1)
C18 C 0.2390(3) 0.5976(2) 0.5923(2)
C20 C 0.2725(4) 0.7045(2) 0.5844(2)
C22 C 0.3910(4) 0.7108(2) 0.5909(2)
C24 C 0.4776(3) 0.6148(2) 0.6025(2)
C26 C 0.4438(2) 0.5073(2) 0.6076(2)
C28 C 0.3002(2) 0.2832(2) 0.8462(2)
C30 C 0.2164(3) 0.1306(2) 0.9587(2)
C32 C 0.1680(4) 0.0232(3) 0.9531(3)
C34 C 0.3318(4) 0.0974(4) 1.0017(3)
C36 C 0.1202(5) 0.2064(4) 1.0068(3)
H2 H 0.150 0.255 0.441
H4 H 0.246 0.401 0.494
H6 H 0.214 0.773 0.575
H8 H 0.414 0.784 0.587
H10 H 0.560 0.621 0.607
H14 H 0.039 -0.077 0.654
H15 H 0.010 -0.061 0.569
H17 H 0.341 0.392 0.756
H19 H 0.219 0.161 0.829
H21 H 0.105 0.043 0.918
H24 H 0.234 -0.030 0.929
H26 H 0.135 -0.012 1.008
H28 H 0.352 0.163 1.016
H30 H 0.399 0.065 0.964
H32 H 0.316 0.041 1.051
H34 H 0.089 0.165 1.059
H36 H 0.156 0.269 1.016
H38 H 0.055 0.239 0.974
O3 O 0.4826(2) 0.5289(2) 0.8009(1)
H11 H 0.470 0.481 0.835
H12 H 0.423 0.578 0.808
loop_
_geom_bond_atom_site_label_1
_geom_bond_atom_site_label_2
_geom_bond_site_symmetry_1
_geom_bond_site_symmetry_2
Cl1 C17 1_555 1_555
Cl2 C18 1_555 1_555
Cl3 C25 1_555 1_555
Cl4 C26 1_555 1_555
O1 C27 1_555 1_555
O2 C28 1_555 1_555
O3 H11 1_555 1_555
N1 C1 1_555 1_555
N2 C2 1_555 1_555
N3 C3 1_555 1_555
N4 C4 1_555 1_555
N5 C5 1_555 1_555
N6 C6 1_555 1_555
N7 C3 1_555 1_555
N8 C4 1_555 1_555
N9 C7 1_555 1_555
N10 C8 1_555 1_555
N11 C27 1_555 1_555
N12 C28 1_555 1_555
C1 C13 1_555 1_555
C2 C14 1_555 1_555
C3 N1 1_555 1_555
C4 N2 1_555 1_555
C5 N3 1_555 1_555
C6 N4 1_555 1_555
C7 N5 1_555 1_555
C8 N6 1_555 1_555
C9 C7 1_555 1_555
C10 C8 1_555 1_555
C11 C9 1_555 1_555
C12 C10 1_555 1_555
C13 C5 1_555 1_555
C14 C6 1_555 1_555
C15 C9 1_555 1_555
C16 C10 1_555 1_555
C17 C15 1_555 1_555
C18 C16 1_555 1_555
C19 C17 1_555 1_555
C20 C18 1_555 1_555
C21 C19 1_555 1_555
C22 C20 1_555 1_555
C23 C21 1_555 1_555
C24 C22 1_555 1_555
C25 C15 1_555 1_555
C26 C16 1_555 1_555
C27 N9 1_555 1_555
C28 N10 1_555 1_555
C29 N11 1_555 1_555
C30 N12 1_555 1_555
C31 C29 1_555 1_555
C32 C30 1_555 1_555
C33 C29 1_555 1_555
C34 C30 1_555 1_555
C35 C29 1_555 1_555
C36 C30 1_555 1_555
H1 C1 1_555 1_555
H2 C2 1_555 1_555
H3 C11 1_555 1_555
H4 C12 1_555 1_555
H5 C19 1_555 1_555
H6 C20 1_555 1_555
H7 C21 1_555 1_555
H8 C22 1_555 1_555
H9 C23 1_555 1_555
H10 C24 1_555 1_555
H12 O3 1_555 1_555
H13 N7 1_555 1_555
H14 N8 1_555 1_555
H15 N8 1_555 1_555
H16 N7 1_555 1_555
H17 N10 1_555 1_555
H18 N9 1_555 1_555
H19 N12 1_555 1_555
H20 N11 1_555 1_555
H21 C32 1_555 1_555
H22 C31 1_555 1_555
H23 C31 1_555 1_555
H24 C32 1_555 1_555
H25 C31 1_555 1_555
H26 C32 1_555 1_555
H27 C33 1_555 1_555
H28 C34 1_555 1_555
H29 C33 1_555 1_555
H30 C34 1_555 1_555
H31 C33 1_555 1_555
H32 C34 1_555 1_555
H33 C35 1_555 1_555
H34 C36 1_555 1_555
H35 C35 1_555 1_555
H36 C36 1_555 1_555
H37 C35 1_555 1_555
H38 C36 1_555 1_555
C11 C13 1_555 1_555
C12 C14 1_555 1_555
C23 C25 1_555 1_555
C24 C26 1_555 1_555

#END
