
#######################################################################
#
#                 Cambridge Crystallographic Data Centre
#                                CCDC 
#
#######################################################################
#
# If this CIF has been generated from an entry in the Cambridge 
# Structural Database, then it will include bibliographic, chemical, 
# crystal, experimental, refinement or atomic coordinate data resulting 
# from the CCDC's data processing and validation procedures.
#
#######################################################################

data_NEWBOJ
_chemical_formula_moiety         'C19 H25 N1 O2'
_chemical_name_systematic        
3,11a-dimethyl-9-(prop-2-en-1-yl)-1,2,3,4,6a,7,8,9,11a,11b-decahydro-6H-2,11-methanocyclohepta[a]indolizine-6,12-dione
_symmetry_cell_setting           orthorhombic
_symmetry_space_group_name_H-M   'P 21 21 21'
_symmetry_Int_Tables_number      19
_space_group_name_Hall           'P 2ac 2ab'
loop_
_symmetry_equiv_pos_site_id
_symmetry_equiv_pos_as_xyz
1 x,y,z
2 1/2-x,-y,1/2+z
3 1/2+x,1/2-y,-z
4 -x,1/2+y,1/2-z
_cell_length_a                   6.1984(2)
_cell_length_b                   10.3957(3)
_cell_length_c                   25.0353(7)
_cell_angle_alpha                90
_cell_angle_beta                 90
_cell_angle_gamma                90
_cell_volume                     1613.19
_exptl_crystal_colour            colorless
_exptl_crystal_description       block
_cell_formula_units_Z            4
loop_
_atom_site_label
_atom_site_type_symbol
_atom_site_fract_x
_atom_site_fract_y
_atom_site_fract_z
C1 C 0.2775(3) 0.2940(2) 0.42233(8)
C2 C 0.3419(3) 0.1066(2) 0.48233(8)
H1 H 0.2571 0.0820 0.5132
H2 H 0.4654 0.1556 0.4946
C3 C 0.4189(3) -0.0141(2) 0.45279(9)
H3 H 0.5490 0.0087 0.4327
C4 C 0.2451(3) -0.0621(2) 0.41187(8)
H4 H 0.2443 -0.1564 0.4125
C5 C 0.0212(3) -0.0152(2) 0.42709(9)
H5 H -0.0117 -0.0394 0.4636
H6 H -0.0862 -0.0533 0.4038
C6 C 0.0199(3) 0.1303(2) 0.42136(8)
H7 H -0.1102 0.1656 0.4381
C7 C 0.0394(3) 0.18077(19) 0.36367(8)
C8 C 0.1270(3) 0.31859(19) 0.37517(8)
H8 H 0.0063 0.3710 0.3880
C9 C 0.2409(4) 0.3940(2) 0.33101(9)
H9 H 0.2304 0.4850 0.3391
H10 H 0.3927 0.3713 0.3312
C10 C 0.1520(4) 0.3712(2) 0.27509(9)
H11 H 0.1852 0.4451 0.2529
H12 H -0.0038 0.3634 0.2770
C11 C 0.2451(4) 0.2499(2) 0.24895(8)
H13 H 0.3898 0.2746 0.2370
C12 C 0.2795(3) 0.1337(2) 0.28380(8)
H14 H 0.3691 0.0719 0.2687
C13 C 0.2058(3) 0.10216(18) 0.33242(8)
C14 C 0.3035(3) -0.0187(2) 0.35568(8)
C15 C 0.1219(5) 0.2147(2) 0.19742(9)
H15 H -0.0211 0.1846 0.2070
H16 H 0.1048 0.2917 0.1759
C16 C 0.2313(5) 0.1128(3) 0.16407(10)
H17 H 0.2221 0.0285 0.1763
C17 C 0.3340(5) 0.1307(3) 0.12126(11)
H18 H 0.3478 0.2133 0.1074
H19 H 0.3961 0.0613 0.1035
C18 C -0.1828(3) 0.1756(2) 0.33689(9)
H20 H -0.1708 0.2047 0.3006
H21 H -0.2813 0.2301 0.3560
H22 H -0.2354 0.0888 0.3373
C19 C 0.4801(5) -0.1175(3) 0.49322(11)
H23 H 0.5865 -0.0840 0.5174
H24 H 0.5382 -0.1907 0.4748
H25 H 0.3544 -0.1429 0.5130
N1 N 0.2116(3) 0.18535(16) 0.44666(6)
O1 O 0.4339(3) 0.35884(16) 0.43516(7)
O2 O 0.4367(3) -0.08079(17) 0.33122(7)
loop_
_geom_bond_atom_site_label_1
_geom_bond_atom_site_label_2
_geom_bond_site_symmetry_1
_geom_bond_site_symmetry_2
C1 C8 1_555 1_555
C2 H1 1_555 1_555
H2 C2 1_555 1_555
C3 C2 1_555 1_555
H3 C3 1_555 1_555
C4 C3 1_555 1_555
H4 C4 1_555 1_555
C5 C4 1_555 1_555
H5 C5 1_555 1_555
H6 C5 1_555 1_555
C6 C5 1_555 1_555
H7 C6 1_555 1_555
C7 C6 1_555 1_555
C8 C7 1_555 1_555
H8 C8 1_555 1_555
C9 C8 1_555 1_555
H9 C9 1_555 1_555
H10 C9 1_555 1_555
C10 C9 1_555 1_555
H11 C10 1_555 1_555
H12 C10 1_555 1_555
C11 C10 1_555 1_555
H13 C11 1_555 1_555
C12 C11 1_555 1_555
H14 C12 1_555 1_555
C13 C7 1_555 1_555
C14 C4 1_555 1_555
C15 C11 1_555 1_555
H15 C15 1_555 1_555
H16 C15 1_555 1_555
C16 C15 1_555 1_555
H17 C16 1_555 1_555
C17 C16 1_555 1_555
H18 C17 1_555 1_555
H19 C17 1_555 1_555
C18 C7 1_555 1_555
H20 C18 1_555 1_555
H21 C18 1_555 1_555
H22 C18 1_555 1_555
C19 C3 1_555 1_555
H23 C19 1_555 1_555
H24 C19 1_555 1_555
H25 C19 1_555 1_555
N1 C1 1_555 1_555
O1 C1 1_555 1_555
O2 C14 1_555 1_555
C2 N1 1_555 1_555
C6 N1 1_555 1_555
C12 C13 1_555 1_555
C13 C14 1_555 1_555

#END
