
#######################################################################
#
#                 Cambridge Crystallographic Data Centre
#                                CCDC 
#
#######################################################################
#
# If this CIF has been generated from an entry in the Cambridge 
# Structural Database, then it will include bibliographic, chemical, 
# crystal, experimental, refinement or atomic coordinate data resulting 
# from the CCDC's data processing and validation procedures.
#
#######################################################################

data_NEWCOK
_chemical_formula_moiety         'C21 H27 N1 O2 S1'
_chemical_name_systematic        
2-hydroxy-8,10b-dimethyl-5-sulfanylidene-2,3,4,4a,5,7,8,9,10,10a,10b,11,12,12a-tetradecahydro-1H-9,10c-methanocyclopenta[1,8]azuleno[4,5-a]indolizin-13-one
_symmetry_cell_setting           orthorhombic
_symmetry_space_group_name_H-M   'P 21 21 21'
_symmetry_Int_Tables_number      19
_space_group_name_Hall           'P 2ac 2ab'
loop_
_symmetry_equiv_pos_site_id
_symmetry_equiv_pos_as_xyz
1 x,y,z
2 1/2-x,-y,1/2+z
3 -x,1/2+y,1/2-z
4 1/2+x,1/2-y,-z
_cell_length_a                   8.4821(5)
_cell_length_b                   13.5757(8)
_cell_length_c                   15.2746(8)
_cell_angle_alpha                90
_cell_angle_beta                 90
_cell_angle_gamma                90
_cell_volume                     1758.88
_exptl_crystal_colour            colorless
_exptl_crystal_description       block
_cell_formula_units_Z            4
loop_
_atom_site_label
_atom_site_type_symbol
_atom_site_fract_x
_atom_site_fract_y
_atom_site_fract_z
C1 C 0.6539(3) 0.33159(16) 0.43308(14)
H1 H 0.6074 0.2653 0.4406
H2 H 0.7374 0.3274 0.3880
S1 S 1.00693(6) 0.41276(4) 0.45411(3)
N1 N 0.7215(2) 0.36540(13) 0.51608(11)
O1 O 0.63026(18) 0.59718(11) 0.45676(10)
O2 O 0.9853(2) 0.82063(12) 0.68808(10)
H3 H 1.055(3) 0.850(2) 0.6543(14)
C2 C 0.5254(2) 0.40514(16) 0.40375(13)
H4 H 0.5750 0.4552 0.3645
C3 C 0.6182(2) 0.36992(15) 0.59442(13)
H5 H 0.6270 0.3080 0.6296
C4 C 0.4500(2) 0.38393(15) 0.56116(14)
H6 H 0.3812 0.4095 0.6083
H7 H 0.4062 0.3207 0.5398
C5 C 0.4622(2) 0.45847(16) 0.48626(13)
H8 H 0.3554 0.4862 0.4736
C6 C 0.6879(2) 0.45853(15) 0.64547(13)
C7 C 0.6092(2) 0.55553(15) 0.60977(13)
C8 C 0.4429(2) 0.58168(16) 0.65355(15)
H9 H 0.3598 0.5860 0.6082
H10 H 0.4126 0.5302 0.6963
C9 C 0.5744(2) 0.54223(16) 0.51157(14)
C10 C 0.4629(3) 0.68165(17) 0.69979(16)
H11 H 0.3627 0.7191 0.7003
H12 H 0.5002 0.6730 0.7607
C11 C 0.5862(3) 0.73277(17) 0.64401(16)
H13 H 0.5368 0.7572 0.5887
C12 C 0.6981(3) 0.65000(16) 0.62356(14)
C13 C 0.8474(3) 0.67820(16) 0.62084(14)
C14 C 0.8545(3) 0.78884(17) 0.63604(15)
H14 H 0.8579 0.8232 0.5782
C15 C 0.6972(3) 0.81170(18) 0.68115(19)
H15 H 0.6600 0.8787 0.6662
H16 H 0.7066 0.8059 0.7455
C16 C 0.9901(3) 0.61881(16) 0.59897(15)
H17 H 1.0854 0.6564 0.6159
H18 H 0.9939 0.6084 0.5348
C17 C 0.9934(2) 0.51859(16) 0.64469(14)
H19 H 1.0971 0.4880 0.6327
H20 H 0.9876 0.5304 0.7086
C18 C 0.8665(2) 0.44377(15) 0.62118(13)
H21 H 0.8974 0.3839 0.6553
C19 C 0.8622(2) 0.40738(15) 0.52747(13)
C20 C 0.6670(3) 0.44865(18) 0.74449(13)
H22 H 0.5555 0.4373 0.7580
H23 H 0.7023 0.5093 0.7732
H24 H 0.7298 0.3930 0.7658
C21 C 0.3950(3) 0.35301(19) 0.35298(16)
H25 H 0.3211 0.4020 0.3297
H26 H 0.3387 0.3079 0.3921
H27 H 0.4414 0.3157 0.3045
loop_
_geom_bond_atom_site_label_1
_geom_bond_atom_site_label_2
_geom_bond_site_symmetry_1
_geom_bond_site_symmetry_2
C1 H1 1_555 1_555
H2 C1 1_555 1_555
S1 C19 1_555 1_555
N1 C1 1_555 1_555
O1 C9 1_555 1_555
O2 H3 1_555 1_555
C2 C1 1_555 1_555
H4 C2 1_555 1_555
C3 N1 1_555 1_555
H5 C3 1_555 1_555
C4 C3 1_555 1_555
H6 C4 1_555 1_555
H7 C4 1_555 1_555
C5 C2 1_555 1_555
H8 C5 1_555 1_555
C6 C3 1_555 1_555
C7 C6 1_555 1_555
C8 C7 1_555 1_555
H9 C8 1_555 1_555
H10 C8 1_555 1_555
C9 C5 1_555 1_555
C10 C8 1_555 1_555
H11 C10 1_555 1_555
H12 C10 1_555 1_555
C11 C10 1_555 1_555
H13 C11 1_555 1_555
C12 C7 1_555 1_555
C13 C12 1_555 1_555
C14 O2 1_555 1_555
H14 C14 1_555 1_555
C15 C11 1_555 1_555
H15 C15 1_555 1_555
H16 C15 1_555 1_555
C16 C13 1_555 1_555
H17 C16 1_555 1_555
H18 C16 1_555 1_555
C17 C16 1_555 1_555
H19 C17 1_555 1_555
H20 C17 1_555 1_555
C18 C6 1_555 1_555
H21 C18 1_555 1_555
C19 N1 1_555 1_555
C20 C6 1_555 1_555
H22 C20 1_555 1_555
H23 C20 1_555 1_555
H24 C20 1_555 1_555
C21 C2 1_555 1_555
H25 C21 1_555 1_555
H26 C21 1_555 1_555
H27 C21 1_555 1_555
C4 C5 1_555 1_555
C7 C9 1_555 1_555
C11 C12 1_555 1_555
C13 C14 1_555 1_555
C14 C15 1_555 1_555
C17 C18 1_555 1_555
C18 C19 1_555 1_555

#END
