
#######################################################################
#
#                 Cambridge Crystallographic Data Centre
#                                CCDC 
#
#######################################################################
#
# If this CIF has been generated from an entry in the Cambridge 
# Structural Database, then it will include bibliographic, chemical, 
# crystal, experimental, refinement or atomic coordinate data resulting 
# from the CCDC's data processing and validation procedures.
#
#######################################################################

data_NEWDIF
_chemical_formula_moiety         'C21 H25 N1 O2 S1'
_chemical_name_systematic        
8,10b-dimethyl-5-sulfanylidene-1,3,4,4a,5,7,8,9,10,10a,10b,11,12,12a-tetradecahydro-2H-9,10c-methanocyclopenta[1,8]azuleno[4,5-a]indolizine-2,13-dione
_symmetry_cell_setting           orthorhombic
_symmetry_space_group_name_H-M   'P 21 21 21'
_symmetry_Int_Tables_number      19
_space_group_name_Hall           'P 2ac 2ab'
loop_
_symmetry_equiv_pos_site_id
_symmetry_equiv_pos_as_xyz
1 x,y,z
2 1/2-x,-y,1/2+z
3 1/2+x,1/2-y,-z
4 -x,1/2+y,1/2-z
_cell_length_a                   8.8207(5)
_cell_length_b                   11.7166(7)
_cell_length_c                   17.1567(10)
_cell_angle_alpha                90
_cell_angle_beta                 90
_cell_angle_gamma                90
_cell_volume                     1773.12
_exptl_crystal_colour            colorless
_exptl_crystal_description       block
_cell_formula_units_Z            4
loop_
_atom_site_label
_atom_site_type_symbol
_atom_site_fract_x
_atom_site_fract_y
_atom_site_fract_z
C1 C 0.4884(2) 0.03431(18) 0.16455(11)
C2 C 0.4280(2) 0.12692(17) 0.21750(11)
H1 H 0.4443 0.0960 0.2699
C3 C 0.2512(2) 0.12143(17) 0.20717(10)
C4 C 0.2348(2) -0.00925(17) 0.19583(10)
H2 H 0.2326 -0.0476 0.2466
C5 C 0.1018(2) -0.04877(18) 0.14614(11)
H3 H 0.0089 -0.0109 0.1620
H4 H 0.0878 -0.1306 0.1506
C6 C 0.1445(2) -0.01566(17) 0.06218(10)
H5 H 0.0537 -0.0190 0.0294
C7 C 0.2635(3) -0.10124(17) 0.03047(12)
H6 H 0.3223 -0.0633 -0.0105
C8 C 0.3719(3) -0.13270(17) 0.09749(13)
H7 H 0.3374 -0.2021 0.1228
H8 H 0.4729 -0.1460 0.0771
C9 C 0.2090(2) 0.10602(16) 0.06015(10)
C10 C 0.18260(18) 0.18142(16) 0.13241(10)
C11 C 0.0039(2) 0.20232(18) 0.13714(12)
H9 H -0.0453 0.1750 0.0902
H10 H -0.0388 0.1624 0.1816
C12 C -0.0183(2) 0.33096(19) 0.14579(12)
H11 H -0.1175 0.3545 0.1275
H12 H -0.0055 0.3550 0.1995
C13 C 0.1067(2) 0.37795(18) 0.09420(12)
H13 H 0.0801 0.3655 0.0394
C14 C 0.2368(2) 0.30127(16) 0.11593(10)
C15 C 0.3698(2) 0.35540(16) 0.12229(11)
C16 C 0.3414(3) 0.47894(17) 0.11063(11)
C17 C 0.1719(3) 0.49790(18) 0.10398(15)
H14 H 0.1481 0.5452 0.0592
H15 H 0.1323 0.5341 0.1506
C18 C 0.5210(2) 0.30740(18) 0.14256(13)
H16 H 0.5936 0.3692 0.1477
H17 H 0.5551 0.2579 0.1008
C19 C 0.5157(2) 0.23974(18) 0.21855(12)
H18 H 0.4714 0.2882 0.2584
H19 H 0.6191 0.2236 0.2343
C20 C 0.1768(3) 0.1644(2) 0.28243(11)
H20 H 0.0701 0.1486 0.2809
H21 H 0.1924 0.2452 0.2871
H22 H 0.2213 0.1263 0.3264
C21 C 0.1905(3) -0.20773(18) -0.00406(14)
H23 H 0.2680 -0.2615 -0.0181
H24 H 0.1335 -0.1872 -0.0496
H25 H 0.1241 -0.2415 0.0337
N1 N 0.37517(18) -0.03923(14) 0.15363(9)
O1 O 0.27368(17) 0.14200(12) 0.00317(7)
O2 O 0.4379(2) 0.55434(13) 0.10939(9)
S1 S 0.66324(6) 0.02191(5) 0.12946(4)
loop_
_geom_bond_atom_site_label_1
_geom_bond_atom_site_label_2
_geom_bond_site_symmetry_1
_geom_bond_site_symmetry_2
C1 C2 1_555 1_555
C2 H1 1_555 1_555
C3 C2 1_555 1_555
C4 C3 1_555 1_555
H2 C4 1_555 1_555
C5 C4 1_555 1_555
H3 C5 1_555 1_555
H4 C5 1_555 1_555
C6 C5 1_555 1_555
H5 C6 1_555 1_555
C7 C6 1_555 1_555
H6 C7 1_555 1_555
C8 C7 1_555 1_555
H7 C8 1_555 1_555
H8 C8 1_555 1_555
C9 C6 1_555 1_555
C10 C3 1_555 1_555
C11 C10 1_555 1_555
H9 C11 1_555 1_555
H10 C11 1_555 1_555
C12 C11 1_555 1_555
H11 C12 1_555 1_555
H12 C12 1_555 1_555
C13 C12 1_555 1_555
H13 C13 1_555 1_555
C14 C10 1_555 1_555
C15 C14 1_555 1_555
C16 C15 1_555 1_555
C17 C13 1_555 1_555
H14 C17 1_555 1_555
H15 C17 1_555 1_555
C18 C15 1_555 1_555
H16 C18 1_555 1_555
H17 C18 1_555 1_555
C19 C2 1_555 1_555
H18 C19 1_555 1_555
H19 C19 1_555 1_555
C20 C3 1_555 1_555
H20 C20 1_555 1_555
H21 C20 1_555 1_555
H22 C20 1_555 1_555
C21 C7 1_555 1_555
H23 C21 1_555 1_555
H24 C21 1_555 1_555
H25 C21 1_555 1_555
N1 C1 1_555 1_555
O1 C9 1_555 1_555
O2 C16 1_555 1_555
S1 C1 1_555 1_555
C4 N1 1_555 1_555
C8 N1 1_555 1_555
C9 C10 1_555 1_555
C13 C14 1_555 1_555
C16 C17 1_555 1_555
C18 C19 1_555 1_555

#END
