
#######################################################################
#
#                 Cambridge Crystallographic Data Centre
#                                CCDC 
#
#######################################################################
#
# If this CIF has been generated from an entry in the Cambridge 
# Structural Database, then it will include bibliographic, chemical, 
# crystal, experimental, refinement or atomic coordinate data resulting 
# from the CCDC's data processing and validation procedures.
#
#######################################################################

data_NEWFOM
_chemical_formula_moiety         'C41 H71 Li2 N1 O6'
_chemical_name_systematic        
(\m~2~-2,2'-((Isopropylimino)bis(methylene))bis(4,6-di-t-butylphenolato))-(1,2-dimethoxyethane-O)-(1,2-dimethoxyethane-O,O')-di-lithium(i)
_symmetry_cell_setting           monoclinic
_symmetry_space_group_name_H-M   'P 21/c'
_symmetry_Int_Tables_number      14
_space_group_name_Hall           '-P 2ybc'
loop_
_symmetry_equiv_pos_site_id
_symmetry_equiv_pos_as_xyz
1 x,y,z
2 -x,1/2+y,1/2-z
3 -x,-y,-z
4 x,1/2-y,1/2+z
_cell_length_a                   16.3749(17)
_cell_length_b                   15.7855(16)
_cell_length_c                   17.5488(18)
_cell_angle_alpha                90
_cell_angle_beta                 105.8690(10)
_cell_angle_gamma                90
_cell_volume                     4363.24
_exptl_crystal_colour            colorless
_exptl_crystal_description       prism
_cell_formula_units_Z            4
loop_
_atom_site_label
_atom_site_type_symbol
_atom_site_fract_x
_atom_site_fract_y
_atom_site_fract_z
C1 C 0.29638(13) 0.68693(15) 0.47306(14)
C2 C 0.37568(14) 0.67767(16) 0.45472(14)
C3 C 0.38630(15) 0.61180(17) 0.39420(16)
C4 C 0.32398(17) 0.62641(19) 0.31205(16)
H1 H 0.3330 0.5831 0.2752
H2 H 0.3337 0.6827 0.2926
H3 H 0.2656 0.6228 0.3161
C5 C 0.3706(2) 0.52309(19) 0.4236(2)
H4 H 0.3766 0.4806 0.3848
H5 H 0.3132 0.5204 0.4302
H6 H 0.4122 0.5118 0.4745
C6 C 0.47618(17) 0.6117(2) 0.3827(2)
H7 H 0.4793 0.5692 0.3428
H8 H 0.5176 0.5980 0.4330
H9 H 0.4888 0.6678 0.3648
C7 C 0.44251(14) 0.72847(18) 0.49590(15)
H10 H 0.4951 0.7229 0.4834
C8 C 0.43820(15) 0.78689(19) 0.55409(15)
C9 C 0.51637(17) 0.8379(2) 0.59819(17)
C10 C 0.5595(2) 0.8777(3) 0.5449(2)
H11 H 0.5682 0.8357 0.5067
H12 H 0.6146 0.8998 0.5756
H13 H 0.5247 0.9244 0.5164
C11 C 0.5880(4) 0.7647(5) 0.6382(4)
H14 H 0.6002 0.7303 0.5961
H15 H 0.5659 0.7283 0.6731
H16 H 0.6403 0.7923 0.6689
C12 C 0.5077(4) 0.8806(5) 0.6652(4)
H17 H 0.4770 0.8446 0.6936
H18 H 0.4759 0.9332 0.6491
H19 H 0.5640 0.8939 0.7001
C13 C 0.36070(14) 0.79341(18) 0.57180(14)
H20 H 0.3552 0.8320 0.6116
C14 C 0.29124(13) 0.74497(16) 0.53284(13)
C15 C 0.21111(13) 0.74716(16) 0.55999(13)
H21 H 0.1966 0.6884 0.5712
H22 H 0.2230 0.7792 0.6103
C16 C 0.13871(14) 0.87968(15) 0.50934(14)
H23 H 0.1979 0.8969 0.5108
C17 C 0.1213(2) 0.91531(18) 0.58403(18)
H24 H 0.1590 0.8881 0.6307
H25 H 0.0620 0.9042 0.5828
H26 H 0.1315 0.9765 0.5866
C18 C 0.08048(15) 0.92124(17) 0.43679(16)
H27 H 0.0920 0.8980 0.3890
H28 H 0.0906 0.9825 0.4390
H29 H 0.0212 0.9101 0.4355
C19 C 0.05655(12) 0.74746(15) 0.51411(12)
H30 H 0.0424 0.7774 0.5584
H31 H 0.0688 0.6878 0.5306
C20 C -0.02117(13) 0.74886(14) 0.44346(12)
C21 C -0.09532(13) 0.78842(14) 0.44894(13)
H32 H -0.0942 0.8209 0.4948
C22 C -0.17105(13) 0.78172(15) 0.38922(13)
C23 C -0.25503(13) 0.82280(16) 0.39276(14)
C24 C -0.24477(16) 0.87479(19) 0.46799(16)
H33 H -0.2235 0.8383 0.5144
H34 H -0.2998 0.8986 0.4687
H35 H -0.2043 0.9209 0.4693
C25 C -0.28816(17) 0.88159(19) 0.32156(17)
H36 H -0.3416 0.9075 0.3244
H37 H -0.2978 0.8488 0.2725
H38 H -0.2462 0.9261 0.3222
C26 C -0.32122(15) 0.75358(19) 0.39130(18)
H39 H -0.3006 0.7160 0.4370
H40 H -0.3306 0.7206 0.3423
H41 H -0.3747 0.7798 0.3936
C27 C -0.16896(13) 0.73163(15) 0.32445(13)
H42 H -0.2200 0.7257 0.2831
C28 C -0.09727(13) 0.68968(14) 0.31617(12)
C29 C -0.10216(14) 0.63030(15) 0.24585(13)
C30 C -0.19133(15) 0.62634(19) 0.18872(15)
H43 H -0.1913 0.5875 0.1451
H44 H -0.2083 0.6830 0.1674
H45 H -0.2315 0.6059 0.2170
C31 C -0.07837(16) 0.54036(16) 0.27588(15)
H46 H -0.0818 0.5026 0.2308
H47 H -0.1177 0.5207 0.3053
H48 H -0.0203 0.5400 0.3108
C32 C -0.04114(17) 0.66013(19) 0.19863(15)
H49 H -0.0449 0.6216 0.1540
H50 H 0.0171 0.6603 0.2332
H51 H -0.0567 0.7175 0.1786
C33 C -0.01977(13) 0.69955(13) 0.37683(12)
C34 C 0.1404(3) 0.4376(3) 0.3006(2)
H52 H 0.1320 0.4856 0.2638
H53 H 0.1020 0.3914 0.2765
H54 H 0.1993 0.4180 0.3123
C35 C 0.1308(3) 0.39780(19) 0.4281(2)
H55 H 0.1907 0.3795 0.4474
H56 H 0.0959 0.3484 0.4041
C36 C 0.1010(3) 0.4320(2) 0.4947(2)
H57 H 0.0388 0.4411 0.4766
H58 H 0.1126 0.3902 0.5383
C37 C 0.2248(2) 0.4984(2) 0.5759(2)
H59 H 0.2503 0.5539 0.5928
H60 H 0.2602 0.4675 0.5484
H61 H 0.2209 0.4661 0.6224
C38 C 0.1567(2) 0.8082(2) 0.24640(16)
H62 H 0.1190 0.7588 0.2347
H63 H 0.1995 0.8038 0.2170
H64 H 0.1234 0.8600 0.2306
C39 C 0.25526(18) 0.87968(18) 0.35205(17)
H65 H 0.2674 0.8868 0.4101
H66 H 0.2270 0.9321 0.3270
C40 C 0.33783(17) 0.87108(19) 0.33185(17)
H67 H 0.3793 0.9118 0.3638
H68 H 0.3605 0.8132 0.3454
C41 C 0.4043(2) 0.8754(3) 0.2291(2)
H69 H 0.3933 0.8875 0.1725
H70 H 0.4244 0.8170 0.2397
H71 H 0.4477 0.9144 0.2595
N1 N 0.13557(10) 0.78578(12) 0.50271(10)
O1 O 0.22806(9) 0.64390(10) 0.43588(10)
O2 O 0.05183(9) 0.66241(9) 0.37349(9)
O3 O 0.12272(12) 0.46340(12) 0.37172(11)
O4 O 0.14164(13) 0.50993(12) 0.52349(11)
O5 O 0.19748(11) 0.81094(11) 0.32860(10)
O6 O 0.32853(14) 0.88607(18) 0.25196(13)
Li1 Li 0.1330(2) 0.5804(3) 0.4224(3)
Li2 Li 0.1494(2) 0.7339(2) 0.3975(2)
C42? C 0.5600(7) 0.8019(8) 0.6725(7)
H72? H 0.5186 0.7798 0.6987
H73? H 0.5950 0.8454 0.7060
H74? H 0.5964 0.7555 0.6641
C43? C 0.4851(6) 0.9286(7) 0.6316(6)
H75? H 0.4535 0.9157 0.6702
H76? H 0.4485 0.9601 0.5871
H77? H 0.5350 0.9629 0.6569
loop_
_geom_bond_atom_site_label_1
_geom_bond_atom_site_label_2
_geom_bond_site_symmetry_1
_geom_bond_site_symmetry_2
C1 C2 1_555 1_555
C2 C3 1_555 1_555
C3 C4 1_555 1_555
C4 H1 1_555 1_555
H2 C4 1_555 1_555
H3 C4 1_555 1_555
C5 C3 1_555 1_555
H4 C5 1_555 1_555
H5 C5 1_555 1_555
H6 C5 1_555 1_555
C6 C3 1_555 1_555
H7 C6 1_555 1_555
H8 C6 1_555 1_555
H9 C6 1_555 1_555
C7 C2 1_555 1_555
H10 C7 1_555 1_555
C8 C7 1_555 1_555
C9 C8 1_555 1_555
C10 C9 1_555 1_555
H11 C10 1_555 1_555
H12 C10 1_555 1_555
H13 C10 1_555 1_555
C11 C9 1_555 1_555
H14 C11 1_555 1_555
H15 C11 1_555 1_555
H16 C11 1_555 1_555
C12 C9 1_555 1_555
H17 C12 1_555 1_555
H18 C12 1_555 1_555
H19 C12 1_555 1_555
C13 C8 1_555 1_555
H20 C13 1_555 1_555
C14 C1 1_555 1_555
C15 C14 1_555 1_555
H21 C15 1_555 1_555
H22 C15 1_555 1_555
C16 H23 1_555 1_555
C17 C16 1_555 1_555
H24 C17 1_555 1_555
H25 C17 1_555 1_555
H26 C17 1_555 1_555
C18 C16 1_555 1_555
H27 C18 1_555 1_555
H28 C18 1_555 1_555
H29 C18 1_555 1_555
C19 H30 1_555 1_555
H31 C19 1_555 1_555
C20 C19 1_555 1_555
C21 C20 1_555 1_555
H32 C21 1_555 1_555
C22 C21 1_555 1_555
C23 C22 1_555 1_555
C24 C23 1_555 1_555
H33 C24 1_555 1_555
H34 C24 1_555 1_555
H35 C24 1_555 1_555
C25 C23 1_555 1_555
H36 C25 1_555 1_555
H37 C25 1_555 1_555
H38 C25 1_555 1_555
C26 C23 1_555 1_555
H39 C26 1_555 1_555
H40 C26 1_555 1_555
H41 C26 1_555 1_555
C27 C22 1_555 1_555
H42 C27 1_555 1_555
C28 C27 1_555 1_555
C29 C28 1_555 1_555
C30 C29 1_555 1_555
H43 C30 1_555 1_555
H44 C30 1_555 1_555
H45 C30 1_555 1_555
C31 C29 1_555 1_555
H46 C31 1_555 1_555
H47 C31 1_555 1_555
H48 C31 1_555 1_555
C32 C29 1_555 1_555
H49 C32 1_555 1_555
H50 C32 1_555 1_555
H51 C32 1_555 1_555
C33 C20 1_555 1_555
C34 H52 1_555 1_555
H53 C34 1_555 1_555
H54 C34 1_555 1_555
C35 H55 1_555 1_555
H56 C35 1_555 1_555
C36 C35 1_555 1_555
H57 C36 1_555 1_555
H58 C36 1_555 1_555
C37 H59 1_555 1_555
H60 C37 1_555 1_555
H61 C37 1_555 1_555
C38 H62 1_555 1_555
H63 C38 1_555 1_555
H64 C38 1_555 1_555
C39 H65 1_555 1_555
H66 C39 1_555 1_555
C40 C39 1_555 1_555
H67 C40 1_555 1_555
H68 C40 1_555 1_555
C41 H69 1_555 1_555
H70 C41 1_555 1_555
H71 C41 1_555 1_555
N1 C15 1_555 1_555
O1 C1 1_555 1_555
O2 C33 1_555 1_555
O3 C34 1_555 1_555
O4 C36 1_555 1_555
O5 C38 1_555 1_555
O6 C40 1_555 1_555
Li1 O1 1_555 1_555
Li2 N1 1_555 1_555
C13 C14 1_555 1_555
C16 N1 1_555 1_555
C19 N1 1_555 1_555
C28 C33 1_555 1_555
C35 O3 1_555 1_555
C37 O4 1_555 1_555
C39 O5 1_555 1_555
C41 O6 1_555 1_555
O1 Li2 1_555 1_555
O2 Li1 1_555 1_555
O2 Li2 1_555 1_555
O3 Li1 1_555 1_555
O4 Li1 1_555 1_555
O5 Li2 1_555 1_555

#END
