
#######################################################################
#
#                 Cambridge Crystallographic Data Centre
#                                CCDC 
#
#######################################################################
#
# If this CIF has been generated from an entry in the Cambridge 
# Structural Database, then it will include bibliographic, chemical, 
# crystal, experimental, refinement or atomic coordinate data resulting 
# from the CCDC's data processing and validation procedures.
#
#######################################################################

data_NEWGAZ
_chemical_compound_source        
'Penicillium sp. MA-37, from the rhizospheric soil of the mangrove plant Bruguiera gymnorrhiza'
_chemical_name_common            'Penimeroid A methanol solvate'
_chemical_formula_moiety         'C26 H30 O9,0.5(C1 H4 O1)'
_chemical_name_systematic        
'Methyl 12a-hydroxy-1,4a,10,10,11b-pentamethyl-6-methylene-4,8-dioxo-1,2a,4a,5,5a,6,8,10,11a,11b,12a,12c-dodecahydro-2,3,9,12-tetraoxabenzo[5,6]cyclohepta[1,2,3-bc]cyclopenta[fg]acenaphthylene-12b(4H)-carboxylate methanol solvate'
_symmetry_cell_setting           monoclinic
_symmetry_space_group_name_H-M   'P 21'
_symmetry_Int_Tables_number      4
_space_group_name_Hall           'P 2yb'
loop_
_symmetry_equiv_pos_site_id
_symmetry_equiv_pos_as_xyz
1 x,y,z
2 -x,1/2+y,-z
_cell_length_a                   12.0600(14)
_cell_length_b                   11.4833(13)
_cell_length_c                   18.6453(18)
_cell_angle_alpha                90
_cell_angle_beta                 95.5010(10)
_cell_angle_gamma                90
_cell_volume                     2570.27
_exptl_crystal_colour            colorless
_exptl_crystal_description       block
_chemical_melting_point          '203-205 deg.C'
_cell_formula_units_Z            4
loop_
_atom_site_label
_atom_site_type_symbol
_atom_site_fract_x
_atom_site_fract_y
_atom_site_fract_z
O1 O 0.0286(2) 0.7569(3) 0.12711(15)
O2 O -0.1182(2) 0.6962(3) 0.05423(18)
O3 O -0.1590(3) 0.6096(4) -0.05080(17)
O4 O 0.2676(2) 0.6585(3) 0.18164(12)
O5 O 0.1709(2) 0.6100(3) 0.27484(13)
H1 H 0.2034 0.5475 0.2811
O6 O 0.4955(2) 0.7712(3) -0.06866(16)
O7 O 0.4031(3) 0.8559(3) -0.16121(19)
O8 O 0.0591(3) 0.3359(3) 0.15647(16)
O9 O 0.1942(3) 0.3960(3) 0.23770(16)
C1 C -0.0565(3) 0.6744(4) 0.1216(2)
H2 H -0.1043 0.6858 0.1606
C2 C -0.1144(3) 0.6036(5) 0.0093(2)
C3 C -0.0560(3) 0.5020(4) 0.0465(2)
C4 C -0.0147(3) 0.5480(4) 0.12225(19)
H3 H -0.0559 0.5055 0.1567
C5 C 0.1115(3) 0.5344(4) 0.14805(19)
C6 C 0.1590(3) 0.6365(4) 0.20178(19)
C7 C 0.0872(4) 0.7458(4) 0.1977(2)
H4 H 0.0321 0.7385 0.2328
C8 C 0.0378(3) 0.4645(4) 0.0003(2)
H5 H 0.0652 0.3880 0.0152
H6 H 0.0091 0.4605 -0.0500
C9 C 0.1321(3) 0.5525(4) 0.00982(18)
H7 H 0.0975 0.6298 0.0080
C10 C 0.1943(3) 0.5396(4) 0.08593(18)
C11 C 0.2590(3) 0.6526(4) 0.10470(18)
H8 H 0.2138 0.7185 0.0855
C12 C 0.3720(3) 0.6631(4) 0.0792(2)
H9 H 0.4327 0.6741 0.1132
C13 C 0.3902(3) 0.6574(4) 0.0101(2)
C14 C 0.3030(3) 0.6380(4) -0.05057(18)
C15 C 0.2110(3) 0.5499(4) -0.04925(18)
C16 C 0.3149(3) 0.6972(4) -0.1105(2)
H10 H 0.2636 0.6854 -0.1504
C17 C 0.4052(3) 0.7798(4) -0.1163(2)
C18 C 0.5043(3) 0.6758(4) -0.0159(2)
C19 C -0.1421(4) 0.4033(5) 0.0475(2)
H11 H -0.2020 0.4278 0.0744
H12 H -0.1071 0.3356 0.0698
H13 H -0.1708 0.3849 -0.0009
C20 C 0.1516(5) 0.8575(5) 0.2130(3)
H14 H 0.1947 0.8744 0.1735
H15 H 0.2005 0.8487 0.2564
H16 H 0.1006 0.9202 0.2187
C21 C 0.1273(4) 0.4162(4) 0.1869(2)
C22 C 0.0646(6) 0.2215(5) 0.1897(3)
H17 H 0.1379 0.1898 0.1879
H18 H 0.0110 0.1710 0.1641
H19 H 0.0485 0.2279 0.2389
C23 C 0.2742(3) 0.4342(4) 0.0888(2)
H20 H 0.2317 0.3636 0.0831
H21 H 0.3185 0.4332 0.1344
H22 H 0.3220 0.4405 0.0507
C24 C 0.2001(4) 0.4733(4) -0.1018(2)
H23 H 0.2482 0.4750 -0.1379
H24 H 0.1442 0.4174 -0.1030
C25 C 0.5452(4) 0.5670(5) -0.0526(3)
H25 H 0.4945 0.5484 -0.0938
H26 H 0.5489 0.5030 -0.0193
H27 H 0.6179 0.5814 -0.0676
C26 C 0.5918(3) 0.7194(5) 0.0420(3)
H28 H 0.6587 0.7386 0.0206
H29 H 0.6075 0.6598 0.0776
H30 H 0.5644 0.7875 0.0644
O10 O 0.5254(2) 0.1827(3) 0.63024(17)
O11 O 0.6384(3) 0.2441(3) 0.5498(2)
O12 O 0.6331(3) 0.3322(4) 0.4448(2)
O13 O 0.3164(2) 0.2843(3) 0.70178(14)
O14 O 0.4572(3) 0.3300(4) 0.78700(15)
H31 H 0.4232 0.3890 0.7965
O15 O -0.0130(2) 0.1614(3) 0.46505(17)
O16 O 0.0343(3) 0.0900(4) 0.3633(2)
O17 O 0.5162(3) 0.6031(3) 0.66630(18)
O18 O 0.4122(3) 0.5430(4) 0.75121(18)
C27 C 0.6079(3) 0.2644(4) 0.6196(3)
H32 H 0.6725 0.2511 0.6547
C28 C 0.6171(3) 0.3361(5) 0.5075(3)
C29 C 0.5752(3) 0.4392(4) 0.5478(2)
C30 C 0.5687(3) 0.3915(4) 0.6250(2)
H33 H 0.6256 0.4325 0.6566
C31 C 0.4561(3) 0.4060(4) 0.6589(2)
C32 C 0.4333(4) 0.3029(5) 0.7144(2)
C33 C 0.4994(4) 0.1935(5) 0.7040(3)
H34 H 0.5700 0.2001 0.7344
C34 C 0.4635(3) 0.4746(4) 0.5085(2)
H35 H 0.4428 0.5514 0.5242
H36 H 0.4698 0.4778 0.4570
C35 C 0.3751(3) 0.3874(4) 0.52402(19)
H37 H 0.4084 0.3101 0.5202
C36 C 0.3470(3) 0.4005(4) 0.60254(19)
C37 C 0.2924(3) 0.2892(4) 0.6258(2)
H38 H 0.3300 0.2234 0.6050
C38 C 0.1698(3) 0.2759(5) 0.6057(2)
H39 H 0.1241 0.2658 0.6426
C39 C 0.1226(3) 0.2776(4) 0.5389(2)
C40 C 0.1821(3) 0.3004(3) 0.47388(19)
C41 C 0.2711(3) 0.3896(4) 0.47104(18)
C42 C 0.1438(3) 0.2437(4) 0.4138(2)
H40 H 0.1776 0.2581 0.3719
C43 C 0.0522(4) 0.1608(4) 0.4107(3)
C44 C -0.0005(3) 0.2558(5) 0.5198(2)
C45 C 0.6616(4) 0.5368(5) 0.5439(3)
H41 H 0.7319 0.5118 0.5672
H42 H 0.6371 0.6051 0.5675
H43 H 0.6697 0.5546 0.4943
C46 C 0.4446(6) 0.0812(6) 0.7236(4)
H44 H 0.3862 0.0619 0.6869
H45 H 0.4139 0.0904 0.7689
H46 H 0.4990 0.0199 0.7275
C47 C 0.4584(4) 0.5229(4) 0.6986(2)
C48 C 0.5234(6) 0.7183(5) 0.6985(4)
H47 H 0.4502 0.7517 0.6969
H48 H 0.5700 0.7669 0.6723
H49 H 0.5546 0.7124 0.7477
C49 C 0.2699(4) 0.5061(4) 0.6100(2)
H50 H 0.3082 0.5762 0.5989
H51 H 0.2496 0.5102 0.6585
H52 H 0.2040 0.4977 0.5773
C50 C 0.2560(3) 0.4683(4) 0.4200(2)
H53 H 0.1921 0.4664 0.3879
H54 H 0.3092 0.5259 0.4160
C51 C -0.0591(4) 0.3646(5) 0.4889(3)
H55 H -0.0232 0.3913 0.4481
H56 H -0.0555 0.4245 0.5250
H57 H -0.1357 0.3468 0.4740
C52 C -0.0606(4) 0.2083(7) 0.5811(3)
H58 H -0.1349 0.1862 0.5633
H59 H -0.0635 0.2670 0.6175
H60 H -0.0214 0.1413 0.6013
O19 O 0.1885(4) 0.9055(9) 0.7663(3)
H61 H 0.2533 0.8890 0.7798
C53 C 0.1683(9) 0.8805(14) 0.6987(5)
H62 H 0.0900 0.8670 0.6877
H63 H 0.2089 0.8118 0.6880
H64 H 0.1911 0.9443 0.6702
loop_
_geom_bond_atom_site_label_1
_geom_bond_atom_site_label_2
_geom_bond_site_symmetry_1
_geom_bond_site_symmetry_2
O1 C1 1_555 1_555
O2 C1 1_555 1_555
O3 C2 1_555 1_555
O4 C6 1_555 1_555
O5 H1 1_555 1_555
O6 C17 1_555 1_555
O7 C17 1_555 1_555
O8 C21 1_555 1_555
O9 C21 1_555 1_555
C1 H2 1_555 1_555
C2 O2 1_555 1_555
C3 C2 1_555 1_555
C4 C1 1_555 1_555
H3 C4 1_555 1_555
C5 C4 1_555 1_555
C6 O5 1_555 1_555
C7 O1 1_555 1_555
H4 C7 1_555 1_555
C8 C3 1_555 1_555
H5 C8 1_555 1_555
H6 C8 1_555 1_555
C9 C8 1_555 1_555
H7 C9 1_555 1_555
C10 C5 1_555 1_555
C11 O4 1_555 1_555
H8 C11 1_555 1_555
C12 C11 1_555 1_555
H9 C12 1_555 1_555
C13 C12 1_555 1_555
C14 C13 1_555 1_555
C15 C9 1_555 1_555
C16 C14 1_555 1_555
H10 C16 1_555 1_555
C17 C16 1_555 1_555
C18 O6 1_555 1_555
C19 C3 1_555 1_555
H11 C19 1_555 1_555
H12 C19 1_555 1_555
H13 C19 1_555 1_555
C20 C7 1_555 1_555
H14 C20 1_555 1_555
H15 C20 1_555 1_555
H16 C20 1_555 1_555
C21 C5 1_555 1_555
C22 O8 1_555 1_555
H17 C22 1_555 1_555
H18 C22 1_555 1_555
H19 C22 1_555 1_555
C23 C10 1_555 1_555
H20 C23 1_555 1_555
H21 C23 1_555 1_555
H22 C23 1_555 1_555
C24 C15 1_555 1_555
H23 C24 1_555 1_555
H24 C24 1_555 1_555
C25 C18 1_555 1_555
H25 C25 1_555 1_555
H26 C25 1_555 1_555
H27 C25 1_555 1_555
C26 C18 1_555 1_555
H28 C26 1_555 1_555
H29 C26 1_555 1_555
H30 C26 1_555 1_555
O10 C27 1_555 1_555
O11 C27 1_555 1_555
O12 C28 1_555 1_555
O13 C32 1_555 1_555
O14 H31 1_555 1_555
O15 C43 1_555 1_555
O16 C43 1_555 1_555
O17 C47 1_555 1_555
O18 C47 1_555 1_555
C27 H32 1_555 1_555
C28 O11 1_555 1_555
C29 C28 1_555 1_555
C30 C27 1_555 1_555
H33 C30 1_555 1_555
C31 C30 1_555 1_555
C32 O14 1_555 1_555
C33 O10 1_555 1_555
H34 C33 1_555 1_555
C34 C29 1_555 1_555
H35 C34 1_555 1_555
H36 C34 1_555 1_555
C35 C34 1_555 1_555
H37 C35 1_555 1_555
C36 C31 1_555 1_555
C37 O13 1_555 1_555
H38 C37 1_555 1_555
C38 C37 1_555 1_555
H39 C38 1_555 1_555
C39 C38 1_555 1_555
C40 C39 1_555 1_555
C41 C35 1_555 1_555
C42 C40 1_555 1_555
H40 C42 1_555 1_555
C43 C42 1_555 1_555
C44 O15 1_555 1_555
C45 C29 1_555 1_555
H41 C45 1_555 1_555
H42 C45 1_555 1_555
H43 C45 1_555 1_555
C46 C33 1_555 1_555
H44 C46 1_555 1_555
H45 C46 1_555 1_555
H46 C46 1_555 1_555
C47 C31 1_555 1_555
C48 O17 1_555 1_555
H47 C48 1_555 1_555
H48 C48 1_555 1_555
H49 C48 1_555 1_555
C49 C36 1_555 1_555
H50 C49 1_555 1_555
H51 C49 1_555 1_555
H52 C49 1_555 1_555
C50 C41 1_555 1_555
H53 C50 1_555 1_555
H54 C50 1_555 1_555
C51 C44 1_555 1_555
H55 C51 1_555 1_555
H56 C51 1_555 1_555
H57 C51 1_555 1_555
C52 C44 1_555 1_555
H58 C52 1_555 1_555
H59 C52 1_555 1_555
H60 C52 1_555 1_555
O19 H61 1_555 1_555
C53 O19 1_555 1_555
H62 C53 1_555 1_555
H63 C53 1_555 1_555
H64 C53 1_555 1_555
C3 C4 1_555 1_555
C5 C6 1_555 1_555
C6 C7 1_555 1_555
C9 C10 1_555 1_555
C10 C11 1_555 1_555
C13 C18 1_555 1_555
C14 C15 1_555 1_555
C29 C30 1_555 1_555
C31 C32 1_555 1_555
C32 C33 1_555 1_555
C35 C36 1_555 1_555
C36 C37 1_555 1_555
C39 C44 1_555 1_555
C40 C41 1_555 1_555

#END
