
#######################################################################
#
#                 Cambridge Crystallographic Data Centre
#                                CCDC 
#
#######################################################################
#
# If this CIF has been generated from an entry in the Cambridge 
# Structural Database, then it will include bibliographic, chemical, 
# crystal, experimental, refinement or atomic coordinate data resulting 
# from the CCDC's data processing and validation procedures.
#
#######################################################################

data_NEWGUT
_chemical_formula_moiety         'C6 H5 F3 I1 N3 S1'
_chemical_name_systematic        
6-Iodo-3-(trifluoromethyl)-6,7-dihydro-5H-[1,2,4]triazolo[3,4-b][1,3]thiazine
_symmetry_cell_setting           orthorhombic
_symmetry_space_group_name_H-M   'A b a 2'
_symmetry_Int_Tables_number      41
_space_group_name_Hall           'A 2 -2ab'
loop_
_symmetry_equiv_pos_site_id
_symmetry_equiv_pos_as_xyz
1 x,y,z
2 -x,-y,z
3 1/2+x,1/2-y,z
4 1/2-x,1/2+y,z
5 x,1/2+y,1/2+z
6 -x,1/2-y,1/2+z
7 1/2+x,-y,1/2+z
8 1/2-x,y,1/2+z
_cell_length_a                   27.530(3)
_cell_length_b                   9.7655(10)
_cell_length_c                   7.6095(4)
_cell_angle_alpha                90
_cell_angle_beta                 90
_cell_angle_gamma                90
_cell_volume                     2045.77
_exptl_crystal_colour            colorless
_exptl_crystal_description       prism
_chemical_melting_point          '176 deg.C'
_cell_formula_units_Z            8
loop_
_atom_site_label
_atom_site_type_symbol
_atom_site_fract_x
_atom_site_fract_y
_atom_site_fract_z
I1 I 0.368559(10) 0.15195(2) 0.34912(18)
S1 S 0.27295(4) 0.55246(13) 0.3551(6)
N1 N 0.37120(11) 0.5985(3) 0.342(2)
N2 N 0.37566(18) 0.8225(4) 0.342(3)
C1 C 0.32541(16) 0.6501(4) 0.355(2)
C2 C 0.40022(17) 0.7126(5) 0.3639(19)
N3 N 0.32601(15) 0.7853(3) 0.3539(15)
C3 C 0.4547(2) 0.7115(7) 0.3726(19)
F1 F 0.4707(4) 0.6287(9) 0.4840(14)
F2 F 0.4722(3) 0.6537(9) 0.2093(12)
F3 F 0.47275(15) 0.8310(4) 0.3231(19)
C4 C 0.3494(7) 0.3608(14) 0.3863(18)
H1 H 0.3426 0.3732 0.5117
C5 C 0.3038(7) 0.385(2) 0.291(4)
H2 H 0.2817 0.3099 0.3140
H3 H 0.3104 0.3864 0.1659
C6 C 0.38648(16) 0.4523(4) 0.3420(19)
H4 H 0.3987 0.4289 0.2262
H5 H 0.4130 0.4412 0.4247
C7? C 0.3385(10) 0.373(2) 0.295(4)
H6? H 0.3299 0.3812 0.1735
C8? C 0.2954(8) 0.398(2) 0.417(4)
H7? H 0.2693 0.3448 0.3686
H8? H 0.3021 0.3666 0.5346
loop_
_geom_bond_atom_site_label_1
_geom_bond_atom_site_label_2
_geom_bond_site_symmetry_1
_geom_bond_site_symmetry_2
I1 C4 1_555 1_555
S1 C1 1_555 1_555
N1 C1 1_555 1_555
N2 C2 1_555 1_555
C1 N3 1_555 1_555
C2 N1 1_555 1_555
N3 N2 1_555 1_555
C3 C2 1_555 1_555
F1 C3 1_555 1_555
F2 C3 1_555 1_555
F3 C3 1_555 1_555
C4 H1 1_555 1_555
C5 S1 1_555 1_555
H2 C5 1_555 1_555
H3 C5 1_555 1_555
C6 N1 1_555 1_555
H4 C6 1_555 1_555
H5 C6 1_555 1_555
C4 C5 1_555 1_555
C4 C6 1_555 1_555

#END
