
#######################################################################
#
#                 Cambridge Crystallographic Data Centre
#                                CCDC 
#
#######################################################################
#
# If this CIF has been generated from an entry in the Cambridge 
# Structural Database, then it will include bibliographic, chemical, 
# crystal, experimental, refinement or atomic coordinate data resulting 
# from the CCDC's data processing and validation procedures.
#
#######################################################################

data_NEWHAB
_chemical_formula_moiety         'C14 H19 N1 O12'
_chemical_name_systematic        
'2,3,4,5-tetra-O-acetyl-\b-D-glucopyranosyl nitrate'
_symmetry_cell_setting           orthorhombic
_symmetry_space_group_name_H-M   'P 21 21 21'
_symmetry_Int_Tables_number      19
_space_group_name_Hall           'P 2ac 2ab'
loop_
_symmetry_equiv_pos_site_id
_symmetry_equiv_pos_as_xyz
1 x,y,z
2 1/2-x,-y,1/2+z
3 -x,1/2+y,1/2-z
4 1/2+x,1/2-y,-z
_cell_length_a                   5.5311(7)
_cell_length_b                   13.8941(17)
_cell_length_c                   23.168(3)
_cell_angle_alpha                90
_cell_angle_beta                 90
_cell_angle_gamma                90
_cell_volume                     1780.45
_exptl_crystal_colour            colorless
_exptl_crystal_description       rod
_cell_formula_units_Z            4
loop_
_atom_site_label
_atom_site_type_symbol
_atom_site_fract_x
_atom_site_fract_y
_atom_site_fract_z
O1 O 0.7567(3) 0.46581(13) 0.42688(8)
O2 O 0.7638(3) 0.62796(13) 0.43634(9)
O3 O 0.6410(5) 0.59925(15) 0.52813(9)
O4 O 0.9349(4) 0.69887(16) 0.50978(10)
O5 O 0.3772(3) 0.64208(12) 0.35399(8)
O6 O 0.6617(4) 0.73935(14) 0.31573(9)
O7 O 0.3930(3) 0.48080(14) 0.27524(8)
O8 O -0.0147(3) 0.47329(16) 0.27878(9)
O9 O 0.3729(3) 0.30678(13) 0.34071(8)
O10 O 0.6630(3) 0.21420(13) 0.30084(9)
O11 O 0.6460(3) 0.21233(13) 0.43437(8)
O12 O 0.9908(4) 0.12988(15) 0.44690(9)
N1 N 0.7789(5) 0.64233(17) 0.49770(12)
C1 C 0.6144(5) 0.54915(18) 0.42070(12)
H1 H 0.4674 0.5460 0.4457
C2 C 0.5459(5) 0.56404(18) 0.35778(12)
H2 H 0.6922 0.5767 0.3336
C3 C 0.4123(5) 0.4749(2) 0.33706(11)
H3 H 0.2470 0.4732 0.3545
C4 C 0.5454(5) 0.38244(19) 0.35144(13)
H4 H 0.6902 0.3747 0.3260
C5 C 0.6196(5) 0.38030(19) 0.41486(12)
H5 H 0.4724 0.3783 0.4399
C6 C 0.7895(5) 0.29932(19) 0.43109(14)
H6 H 0.9179 0.2923 0.4016
H7 H 0.8667 0.3127 0.4688
C7 C 0.7733(5) 0.1306(2) 0.44352(12)
C8 C 0.6105(5) 0.04629(19) 0.45058(13)
H8 H 0.4693 0.0538 0.4254
H9 H 0.5573 0.0421 0.4909
H10 H 0.6975 -0.0126 0.4401
C9 C 0.4566(5) 0.7268(2) 0.33147(13)
C10 C 0.2573(5) 0.7982(2) 0.33012(14)
H11 H 0.2428 0.8289 0.3680
H12 H 0.1053 0.7656 0.3206
H13 H 0.2921 0.8472 0.3009
C11 C 0.1682(5) 0.4771(2) 0.25117(12)
C12 C 0.1884(5) 0.4777(2) 0.18721(12)
H14 H 0.2699 0.4189 0.1743
H15 H 0.2822 0.5340 0.1750
H16 H 0.0264 0.4808 0.1702
C13 C 0.4556(5) 0.22529(19) 0.31484(13)
C14 C 0.2550(5) 0.15454(19) 0.30951(14)
H17 H 0.1195 0.1842 0.2888
H18 H 0.2018 0.1348 0.3481
H19 H 0.3115 0.0980 0.2881
loop_
_geom_bond_atom_site_label_1
_geom_bond_atom_site_label_2
_geom_bond_site_symmetry_1
_geom_bond_site_symmetry_2
O1 C1 1_555 1_555
O2 N1 1_555 1_555
O3 N1 1_555 1_555
O4 N1 1_555 1_555
O5 C2 1_555 1_555
O6 C9 1_555 1_555
O7 C3 1_555 1_555
O8 C11 1_555 1_555
O9 C4 1_555 1_555
O10 C13 1_555 1_555
O11 C6 1_555 1_555
O12 C7 1_555 1_555
C1 O2 1_555 1_555
H1 C1 1_555 1_555
C2 C1 1_555 1_555
H2 C2 1_555 1_555
C3 C2 1_555 1_555
H3 C3 1_555 1_555
C4 C3 1_555 1_555
H4 C4 1_555 1_555
C5 O1 1_555 1_555
H5 C5 1_555 1_555
C6 C5 1_555 1_555
H6 C6 1_555 1_555
H7 C6 1_555 1_555
C7 O11 1_555 1_555
C8 C7 1_555 1_555
H8 C8 1_555 1_555
H9 C8 1_555 1_555
H10 C8 1_555 1_555
C9 O5 1_555 1_555
C10 C9 1_555 1_555
H11 C10 1_555 1_555
H12 C10 1_555 1_555
H13 C10 1_555 1_555
C11 O7 1_555 1_555
C12 C11 1_555 1_555
H14 C12 1_555 1_555
H15 C12 1_555 1_555
H16 C12 1_555 1_555
C13 O9 1_555 1_555
C14 C13 1_555 1_555
H17 C14 1_555 1_555
H18 C14 1_555 1_555
H19 C14 1_555 1_555
C4 C5 1_555 1_555

#END
