
#######################################################################
#
#                 Cambridge Crystallographic Data Centre
#                                CCDC 
#
#######################################################################
#
# If this CIF has been generated from an entry in the Cambridge 
# Structural Database, then it will include bibliographic, chemical, 
# crystal, experimental, refinement or atomic coordinate data resulting 
# from the CCDC's data processing and validation procedures.
#
#######################################################################

data_NEWJIK
_chemical_formula_moiety         'C21 H19 N3 O1'
_chemical_name_systematic        
1-(2,4-Dimethyl-5-((3-(1H-pyrrol-2-yl)-1H-isoindol-1-ylidene)methyl)-1H-pyrrol-3-yl)ethanone
_symmetry_cell_setting           orthorhombic
_symmetry_space_group_name_H-M   'P b c a'
_symmetry_Int_Tables_number      61
_space_group_name_Hall           '-P 2ac 2ab'
loop_
_symmetry_equiv_pos_site_id
_symmetry_equiv_pos_as_xyz
1 x,y,z
2 1/2-x,-y,1/2+z
3 -x,1/2+y,1/2-z
4 1/2+x,1/2-y,-z
5 -x,-y,-z
6 1/2+x,y,1/2-z
7 x,1/2-y,1/2+z
8 1/2-x,1/2+y,z
_cell_length_a                   12.1366(9)
_cell_length_b                   13.5983(10)
_cell_length_c                   20.3171(15)
_cell_angle_alpha                90
_cell_angle_beta                 90
_cell_angle_gamma                90
_cell_volume                     3353.08
_exptl_crystal_colour            colorless
_exptl_crystal_description       block
_cell_formula_units_Z            8
loop_
_atom_site_label
_atom_site_type_symbol
_atom_site_fract_x
_atom_site_fract_y
_atom_site_fract_z
C1 C 0.64415(13) 1.05043(13) 0.47249(8)
H1 H 0.5916 1.0945 0.4880
C2 C 0.64768(14) 1.01074(13) 0.41072(8)
H2 H 0.5985 1.0233 0.3766
C3 C 0.73808(13) 0.94828(11) 0.40814(7)
H3 H 0.7602 0.9113 0.3720
C4 C 0.78933(11) 0.95089(9) 0.46883(6)
C5 C 0.88564(10) 0.90270(9) 0.49390(6)
C6 C 0.95340(11) 0.82942(9) 0.45952(6)
C7 C 0.94807(14) 0.78350(10) 0.39828(7)
H4 H 0.8912 0.7974 0.3690
C8 C 1.02952(16) 0.71678(11) 0.38222(8)
H5 H 1.0262 0.6846 0.3419
C9 C 1.11572(16) 0.69646(12) 0.42446(8)
H6 H 1.1706 0.6527 0.4117
C10 C 1.12073(14) 0.74086(11) 0.48557(8)
H7 H 1.1782 0.7269 0.5144
C11 C 1.03860(12) 0.80647(9) 0.50306(6)
C12 C 1.01835(11) 0.86418(9) 0.56238(6)
C13 C 1.08095(11) 0.86527(9) 0.61763(6)
H8 H 1.1395 0.8212 0.6188
C14 C 1.06739(10) 0.92645(9) 0.67438(6)
C15 C 1.13544(10) 0.93835(9) 0.72836(6)
C16 C 1.09209(11) 1.01909(9) 0.76565(6)
C17 C 0.99673(11) 1.05143(9) 0.73316(6)
C18 C 1.23685(12) 0.87905(11) 0.74188(7)
H9 H 1.2436 0.8281 0.7094
H10 H 1.2316 0.8500 0.7848
H11 H 1.3004 0.9210 0.7400
C19 C 0.91303(12) 1.12819(11) 0.74876(8)
H12 H 0.8594 1.1310 0.7141
H13 H 0.9487 1.1909 0.7528
H14 H 0.8771 1.1121 0.7895
C20 C 1.14318(11) 1.06067(10) 0.82434(6)
C21 C 1.10142(16) 1.15472(13) 0.85397(9)
H15 H 1.0305 1.1435 0.8735
H16 H 1.0951 1.2038 0.8202
H17 H 1.1520 1.1769 0.8871
N1 N 0.73022(10) 1.01463(9) 0.50715(6)
H18 H 0.7455 1.0296 0.5472
N2 N 0.92374(9) 0.92138(8) 0.55354(5)
N3 N 0.98398(9) 0.99506(8) 0.67930(5)
H19 H 0.9308 1.0010 0.6516
O1 O 1.22294(9) 1.02032(8) 0.85014(5)
loop_
_geom_bond_atom_site_label_1
_geom_bond_atom_site_label_2
_geom_bond_site_symmetry_1
_geom_bond_site_symmetry_2
C1 H1 1_555 1_555
C2 C1 1_555 1_555
H2 C2 1_555 1_555
C3 C2 1_555 1_555
H3 C3 1_555 1_555
C4 C3 1_555 1_555
C5 C4 1_555 1_555
C6 C5 1_555 1_555
C7 C6 1_555 1_555
H4 C7 1_555 1_555
C8 C7 1_555 1_555
H5 C8 1_555 1_555
C9 C8 1_555 1_555
H6 C9 1_555 1_555
C10 C9 1_555 1_555
H7 C10 1_555 1_555
C11 C6 1_555 1_555
C12 C11 1_555 1_555
C13 C12 1_555 1_555
H8 C13 1_555 1_555
C14 C13 1_555 1_555
C15 C14 1_555 1_555
C16 C15 1_555 1_555
C17 C16 1_555 1_555
C18 C15 1_555 1_555
H9 C18 1_555 1_555
H10 C18 1_555 1_555
H11 C18 1_555 1_555
C19 C17 1_555 1_555
H12 C19 1_555 1_555
H13 C19 1_555 1_555
H14 C19 1_555 1_555
C20 C16 1_555 1_555
C21 C20 1_555 1_555
H15 C21 1_555 1_555
H16 C21 1_555 1_555
H17 C21 1_555 1_555
N1 C1 1_555 1_555
H18 N1 1_555 1_555
N2 C5 1_555 1_555
N3 C14 1_555 1_555
H19 N3 1_555 1_555
O1 C20 1_555 1_555
C4 N1 1_555 1_555
C10 C11 1_555 1_555
C12 N2 1_555 1_555
C17 N3 1_555 1_555

#END
