
#######################################################################
#
#                 Cambridge Crystallographic Data Centre
#                                CCDC 
#
#######################################################################
#
# If this CIF has been generated from an entry in the Cambridge 
# Structural Database, then it will include bibliographic, chemical, 
# crystal, experimental, refinement or atomic coordinate data resulting 
# from the CCDC's data processing and validation procedures.
#
#######################################################################

data_NEWJOQ
_chemical_formula_moiety         'C18 H22 N3 O1 1+,Cl1 1-,0.5(C1 H2 Cl2)'
_chemical_name_systematic        
'5-(3,5-Dimethyl-1H-pyrrol-2-yl)-2-((3,5-dimethyl-1H-pyrrol-2-yl)methylene)-3-methoxy-2H-pyrrolium chloride dichloromethane solvate'
_symmetry_cell_setting           triclinic
_symmetry_space_group_name_H-M   'P -1'
_symmetry_Int_Tables_number      2
_space_group_name_Hall           '-P 1'
loop_
_symmetry_equiv_pos_site_id
_symmetry_equiv_pos_as_xyz
1 x,y,z
2 -x,-y,-z
_cell_length_a                   7.872(4)
_cell_length_b                   13.194(8)
_cell_length_c                   20.112(11)
_cell_angle_alpha                73.544(7)
_cell_angle_beta                 80.431(7)
_cell_angle_gamma                75.684(7)
_cell_volume                     1930.69
_cell_formula_units_Z            4
loop_
_atom_site_label
_atom_site_type_symbol
_atom_site_fract_x
_atom_site_fract_y
_atom_site_fract_z
C1 C 0.5550(9) 0.2960(5) 0.7607(3)
H1 H 0.6364 0.3410 0.7577
H2 H 0.5962 0.2253 0.7898
H3 H 0.4412 0.3274 0.7804
C2 C 0.5411(8) 0.2870(6) 0.6889(3)
C3 C 0.6150(8) 0.2085(5) 0.6539(4)
H4 H 0.6916 0.1439 0.6720
C4 C 0.5592(8) 0.2391(5) 0.5877(4)
C5 C 0.4462(7) 0.3407(5) 0.5821(3)
C6 C 0.6116(8) 0.1748(5) 0.5350(4)
H5 H 0.6930 0.1090 0.5532
H6 H 0.6666 0.2159 0.4934
H7 H 0.5089 0.1579 0.5244
C7 C 0.3542(8) 0.4107(5) 0.5251(3)
C8 C 0.3541(8) 0.3978(5) 0.4588(4)
H8 H 0.4167 0.3391 0.4418
C9 C 0.2461(8) 0.4864(5) 0.4236(3)
C10 C 0.1739(8) 0.5596(5) 0.4669(3)
C11 C 0.2831(9) 0.4377(5) 0.3176(3)
H9 H 0.4090 0.4238 0.3164
H10 H 0.2499 0.4674 0.2710
H11 H 0.2433 0.3713 0.3378
C12 C 0.0655(8) 0.6572(5) 0.4464(3)
H12 H 0.0370 0.6710 0.4011
C13 C -0.0137(7) 0.7422(5) 0.4775(3)
C14 C -0.1157(8) 0.8404(5) 0.4453(3)
C15 C -0.1620(8) 0.9021(5) 0.4934(4)
H13 H -0.2299 0.9721 0.4853
C16 C -0.0924(8) 0.8442(5) 0.5551(3)
C17 C -0.0991(8) 0.8736(5) 0.6224(3)
H14 H -0.0848 0.8092 0.6599
H15 H -0.2108 0.9201 0.6310
H16 H -0.0061 0.9105 0.6195
C18 C -0.1595(8) 0.8741(5) 0.3714(3)
H17 H -0.2592 0.9337 0.3661
H18 H -0.1871 0.8145 0.3599
H19 H -0.0602 0.8956 0.3407
N1 N 0.4379(6) 0.3667(4) 0.6445(3)
H20 H 0.3759 0.4253 0.6541
N2 N 0.2436(6) 0.5096(4) 0.5294(2)
H21 H 0.2223 0.5354 0.5655
N3 N -0.0036(6) 0.7458(4) 0.5452(3)
H22 H 0.0503 0.6939 0.5761
O1 O 0.2042(6) 0.5128(3) 0.3587(2)
C19 C -0.0592(8) -0.2912(5) 0.2358(3)
H23 H 0.0275 -0.2928 0.2647
H24 H -0.0943 -0.3595 0.2494
H25 H -0.1600 -0.2347 0.2412
C20 C 0.0174(7) -0.2704(5) 0.1614(3)
C21 C 0.0435(7) -0.3307(5) 0.1133(3)
H26 H 0.0164 -0.3982 0.1215
C22 C 0.1181(7) -0.2728(5) 0.0497(3)
C23 C 0.1385(7) -0.1777(5) 0.0611(3)
C24 C 0.1620(8) -0.3115(5) -0.0156(3)
H27 H 0.1144 -0.2548 -0.0538
H28 H 0.1121 -0.3733 -0.0095
H29 H 0.2877 -0.3311 -0.0252
C25 C 0.2096(7) -0.0905(5) 0.0140(3)
C26 C 0.2710(7) -0.0787(5) -0.0559(3)
H30 H 0.2750 -0.1270 -0.0823
C27 C 0.3244(7) 0.0175(5) -0.0784(3)
C28 C 0.2945(7) 0.0696(5) -0.0226(3)
C29 C 0.4146(8) 0.0091(5) -0.1950(3)
H31 H 0.4889 -0.0612 -0.1808
H32 H 0.4676 0.0493 -0.2375
H33 H 0.3014 0.0016 -0.2023
C30 C 0.3257(7) 0.1684(5) -0.0283(3)
H34 H 0.3756 0.1989 -0.0725
C31 C 0.2996(7) 0.2350(6) 0.0173(3)
C32 C 0.3330(8) 0.3388(6) -0.0003(3)
C33 C 0.2863(8) 0.3767(6) 0.0590(4)
H35 H 0.2946 0.4440 0.0626
C34 C 0.2248(8) 0.2968(6) 0.1123(4)
C35 C 0.1485(9) 0.2979(6) 0.1859(3)
H36 H 0.1795 0.2267 0.2159
H37 H 0.0225 0.3204 0.1877
H38 H 0.1949 0.3475 0.2011
C36 C 0.4023(9) 0.3988(5) -0.0703(3)
H39 H 0.4175 0.4674 -0.0676
H40 H 0.3203 0.4101 -0.1034
H41 H 0.5137 0.3574 -0.0849
N4 N 0.0743(6) -0.1783(4) 0.1293(3)
H42 H 0.0710 -0.1273 0.1486
N5 N 0.2214(5) -0.0007(4) 0.0334(2)
H43 H 0.1883 0.0101 0.0743
N6 N 0.2353(6) 0.2122(4) 0.0861(3)
H44 H 0.2058 0.1524 0.1092
O2 O 0.3937(5) 0.0650(3) -0.1420(2)
C37 C 0.7121(8) 0.2115(5) 0.2678(3)
H45 H 0.7677 0.2576 0.2832
H46 H 0.8032 0.1520 0.2573
Cl1 Cl 0.5615(3) 0.16119(17) 0.33403(13)
Cl2 Cl 0.6132(3) 0.28436(19) 0.19348(12)
Cl3 Cl 0.1923(2) 0.58285(13) 0.67221(8)
Cl4 Cl 0.0815(2) 0.01737(13) 0.19122(8)
loop_
_geom_bond_atom_site_label_1
_geom_bond_atom_site_label_2
_geom_bond_site_symmetry_1
_geom_bond_site_symmetry_2
C1 H1 1_555 1_555
H2 C1 1_555 1_555
H3 C1 1_555 1_555
C2 C1 1_555 1_555
C3 C2 1_555 1_555
H4 C3 1_555 1_555
C4 C3 1_555 1_555
C5 C4 1_555 1_555
C6 C4 1_555 1_555
H5 C6 1_555 1_555
H6 C6 1_555 1_555
H7 C6 1_555 1_555
C7 C5 1_555 1_555
C8 C7 1_555 1_555
H8 C8 1_555 1_555
C9 C8 1_555 1_555
C10 C9 1_555 1_555
C11 H9 1_555 1_555
H10 C11 1_555 1_555
H11 C11 1_555 1_555
C12 C10 1_555 1_555
H12 C12 1_555 1_555
C13 C12 1_555 1_555
C14 C13 1_555 1_555
C15 C14 1_555 1_555
H13 C15 1_555 1_555
C16 C15 1_555 1_555
C17 C16 1_555 1_555
H14 C17 1_555 1_555
H15 C17 1_555 1_555
H16 C17 1_555 1_555
C18 C14 1_555 1_555
H17 C18 1_555 1_555
H18 C18 1_555 1_555
H19 C18 1_555 1_555
N1 C2 1_555 1_555
H20 N1 1_555 1_555
N2 C7 1_555 1_555
H21 N2 1_555 1_555
N3 C13 1_555 1_555
H22 N3 1_555 1_555
O1 C9 1_555 1_555
C19 H23 1_555 1_555
H24 C19 1_555 1_555
H25 C19 1_555 1_555
C20 C19 1_555 1_555
C21 C20 1_555 1_555
H26 C21 1_555 1_555
C22 C21 1_555 1_555
C23 C22 1_555 1_555
C24 C22 1_555 1_555
H27 C24 1_555 1_555
H28 C24 1_555 1_555
H29 C24 1_555 1_555
C25 C23 1_555 1_555
C26 C25 1_555 1_555
H30 C26 1_555 1_555
C27 C26 1_555 1_555
C28 C27 1_555 1_555
C29 H31 1_555 1_555
H32 C29 1_555 1_555
H33 C29 1_555 1_555
C30 C28 1_555 1_555
H34 C30 1_555 1_555
C31 C30 1_555 1_555
C32 C31 1_555 1_555
C33 C32 1_555 1_555
H35 C33 1_555 1_555
C34 C33 1_555 1_555
C35 C34 1_555 1_555
H36 C35 1_555 1_555
H37 C35 1_555 1_555
H38 C35 1_555 1_555
C36 C32 1_555 1_555
H39 C36 1_555 1_555
H40 C36 1_555 1_555
H41 C36 1_555 1_555
N4 C20 1_555 1_555
H42 N4 1_555 1_555
N5 C25 1_555 1_555
H43 N5 1_555 1_555
N6 C31 1_555 1_555
H44 N6 1_555 1_555
O2 C27 1_555 1_555
C37 H45 1_555 1_555
H46 C37 1_555 1_555
Cl1 C37 1_555 1_555
Cl2 C37 1_555 1_555
C5 N1 1_555 1_555
C10 N2 1_555 1_555
C11 O1 1_555 1_555
C16 N3 1_555 1_555
C23 N4 1_555 1_555
C28 N5 1_555 1_555
C29 O2 1_555 1_555
C34 N6 1_555 1_555

#END
