
#######################################################################
#
#                 Cambridge Crystallographic Data Centre
#                                CCDC 
#
#######################################################################
#
# If this CIF has been generated from an entry in the Cambridge 
# Structural Database, then it will include bibliographic, chemical, 
# crystal, experimental, refinement or atomic coordinate data resulting 
# from the CCDC's data processing and validation procedures.
#
#######################################################################

data_NEWKUX
_chemical_formula_moiety         'C35 H38 N4 O2 S1,0.5(C1 H2 Cl2)'
_chemical_name_systematic        
'Ethyl 13,17,18,22-tetraethyl-12,23-dimethyl-4-thia-7,24,25,26-tetraazahexacyclo[19.2.1.1^3,6^.1^11,14^.1^16,19^.0^5,9^]heptacosa-1,3(27),5,8,10,12,14(26),15,17,19,21(24),22-dodecaene-8-carboxylate dichloromethane solvate'
_symmetry_cell_setting           triclinic
_symmetry_space_group_name_H-M   'P -1'
_symmetry_Int_Tables_number      2
_space_group_name_Hall           '-P 1'
loop_
_symmetry_equiv_pos_site_id
_symmetry_equiv_pos_as_xyz
1 x,y,z
2 -x,-y,-z
_cell_length_a                   8.5350(5)
_cell_length_b                   13.3574(9)
_cell_length_c                   14.6853(10)
_cell_angle_alpha                105.3050(18)
_cell_angle_beta                 102.2831(17)
_cell_angle_gamma                93.1022(16)
_cell_volume                     1567.02
_exptl_crystal_colour            black
_exptl_crystal_description       needle
_cell_formula_units_Z            2
loop_
_atom_site_label
_atom_site_type_symbol
_atom_site_fract_x
_atom_site_fract_y
_atom_site_fract_z
S1 S 0.24361(11) 0.62425(7) 0.29868(7)
O1 O 0.1530(3) 1.09176(19) 0.4826(2)
O2 O 0.3803(3) 1.08531(18) 0.42850(18)
N1 N 0.5311(4) 0.7074(3) 0.2483(3)
N2 N 0.4963(4) 0.4437(3) 0.1804(3)
N3 N 0.2122(4) 0.4020(3) 0.2488(3)
N4 N 0.0958(4) 0.8749(3) 0.4236(3)
C2 C 0.4855(5) 0.3362(3) 0.1599(3)
C3 C 0.6183(5) 0.3032(3) 0.1152(3)
C4 C 0.7024(5) 0.3898(3) 0.1093(3)
C5 C 0.6282(4) 0.4808(3) 0.1523(3)
C6 C 0.6907(4) 0.5807(3) 0.1630(3)
C7 C 0.6541(5) 0.6828(3) 0.2070(3)
C8 C 0.7582(5) 0.7764(3) 0.2096(3)
C9 C 0.6941(5) 0.8592(3) 0.2550(3)
C10 C 0.5505(4) 0.8179(3) 0.2794(3)
C11 C 0.4543(4) 0.8806(3) 0.3252(3)
C12 C 0.3120(4) 0.8549(3) 0.3556(3)
C13 C 0.2248(5) 0.9274(3) 0.4066(3)
C14 C 0.2302(4) 0.7553(3) 0.3447(3)
C15 C 0.0979(4) 0.7711(3) 0.3871(3)
C16 C 0.0072(5) 0.6779(3) 0.3843(3)
C17 C 0.0724(4) 0.5921(3) 0.3393(3)
C18 C 0.0157(5) 0.4863(3) 0.3298(3)
C19 C 0.0802(5) 0.3988(3) 0.2910(3)
C20 C 0.0316(5) 0.2919(3) 0.2900(3)
C21 C 0.1330(4) 0.2316(3) 0.2475(3)
C22 C 0.2441(5) 0.3036(3) 0.2227(3)
C23 C 0.3731(4) 0.2723(3) 0.1792(3)
C24 C 0.6529(5) 0.1923(3) 0.0825(3)
C25 C 0.5858(6) 0.1383(4) -0.0250(4)
C26 C 0.8044(5) 0.4102(4) -0.0344(3)
C27 C 0.8464(5) 0.3945(3) 0.0673(3)
C28 C 0.9046(5) 0.7756(3) 0.1679(3)
C29 C 0.8604(5) 0.7674(4) 0.0594(3)
C30 C 0.7510(5) 0.9735(3) 0.2776(3)
C31 C -0.1017(5) 0.2615(3) 0.3327(3)
C32 C 0.1396(5) 0.1164(3) 0.2287(3)
C33 C 0.0655(5) 0.0534(3) 0.1234(3)
C34 C 0.2471(5) 1.0409(3) 0.4433(3)
C35 C 0.4093(5) 1.1996(3) 0.4607(3)
C36 C 0.5531(5) 1.2277(3) 0.4251(3)
H3 H 0.4295 0.4829 0.2074
H4 H 0.0236 0.9042 0.4535
H5 H 0.7800 0.5828 0.1341
H6 H 0.4864 0.9533 0.3396
H7 H -0.0857 0.6752 0.4099
H8 H -0.0777 0.4760 0.3533
H9 H 0.3830 0.1996 0.1616
H10 H 0.6074 0.1518 0.1204
H11 H 0.7713 0.1910 0.0978
H12 H 0.6309 0.1771 -0.0634
H13 H 0.4679 0.1360 -0.0406
H14 H 0.6153 0.0669 -0.0404
H15 H 0.9028 0.4135 -0.0583
H16 H 0.7561 0.4755 -0.0315
H17 H 0.7274 0.3515 -0.0786
H18 H 0.8963 0.3288 0.0639
H19 H 0.9268 0.4528 0.1109
H20 H 0.9627 0.7158 0.1779
H21 H 0.9782 0.8406 0.2030
H22 H 0.7891 0.7025 0.0242
H23 H 0.9589 0.7670 0.0351
H24 H 0.8049 0.8273 0.0493
H25 H 0.8499 0.9816 0.2552
H26 H 0.7730 1.0057 0.3479
H27 H 0.6672 1.0076 0.2445
H28 H -0.2044 0.2773 0.2979
H29 H -0.0802 0.3008 0.4015
H30 H -0.1078 0.1865 0.3266
H31 H 0.0821 0.0909 0.2717
H32 H 0.2538 0.1035 0.2462
H33 H 0.1165 0.0810 0.0799
H34 H -0.0507 0.0588 0.1079
H35 H 0.0830 -0.0201 0.1150
H36 H 0.4319 1.2254 0.5325
H37 H 0.3142 1.2303 0.4327
H38 H 0.5256 1.2067 0.3539
H39 H 0.6430 1.1913 0.4486
H40 H 0.5846 1.3033 0.4495
Cl1 Cl 0.6523(7) 0.5264(4) 0.4836(4)
C1 C 0.4514(11) 0.4835(9) 0.4547(7)
H1 H 0.4300 0.4143 0.4058
H2 H 0.3892 0.5327 0.4260
Cl1A Cl 0.3477(7) 0.4736(4) 0.5164(4)
C1A C 0.5486(11) 0.5165(9) 0.5453(7)
H1A H 0.5700 0.5857 0.5942
H2A H 0.6108 0.4673 0.5740
Cl2? Cl 0.3836(7) 0.4733(5) 0.5665(4)
loop_
_geom_bond_atom_site_label_1
_geom_bond_atom_site_label_2
_geom_bond_site_symmetry_1
_geom_bond_site_symmetry_2
Cl1 C1 1_555 1_555
C1 H1 1_555 1_555
H2 C1 1_555 1_555
S1 C14 1_555 1_555
O1 C34 1_555 1_555
O2 C34 1_555 1_555
N1 C7 1_555 1_555
N2 C2 1_555 1_555
N3 C19 1_555 1_555
N4 C13 1_555 1_555
C2 C3 1_555 1_555
C3 C4 1_555 1_555
C4 C5 1_555 1_555
C5 N2 1_555 1_555
C6 C5 1_555 1_555
C7 C6 1_555 1_555
C8 C7 1_555 1_555
C9 C8 1_555 1_555
C10 N1 1_555 1_555
C11 C10 1_555 1_555
C12 C11 1_555 1_555
C13 C12 1_555 1_555
C14 C12 1_555 1_555
C15 N4 1_555 1_555
C16 C15 1_555 1_555
C17 S1 1_555 1_555
C18 C17 1_555 1_555
C19 C18 1_555 1_555
C20 C19 1_555 1_555
C21 C20 1_555 1_555
C22 N3 1_555 1_555
C23 C2 1_555 1_555
C24 C3 1_555 1_555
C25 C24 1_555 1_555
C26 C27 1_555 1_555
C27 C4 1_555 1_555
C28 C8 1_555 1_555
C29 C28 1_555 1_555
C30 C9 1_555 1_555
C31 C20 1_555 1_555
C32 C21 1_555 1_555
C33 C32 1_555 1_555
C34 C13 1_555 1_555
C35 O2 1_555 1_555
C36 C35 1_555 1_555
H3 N2 1_555 1_555
H4 N4 1_555 1_555
H5 C6 1_555 1_555
H6 C11 1_555 1_555
H7 C16 1_555 1_555
H8 C18 1_555 1_555
H9 C23 1_555 1_555
H10 C24 1_555 1_555
H11 C24 1_555 1_555
H12 C25 1_555 1_555
H13 C25 1_555 1_555
H14 C25 1_555 1_555
H15 C26 1_555 1_555
H16 C26 1_555 1_555
H17 C26 1_555 1_555
H18 C27 1_555 1_555
H19 C27 1_555 1_555
H20 C28 1_555 1_555
H21 C28 1_555 1_555
H22 C29 1_555 1_555
H23 C29 1_555 1_555
H24 C29 1_555 1_555
H25 C30 1_555 1_555
H26 C30 1_555 1_555
H27 C30 1_555 1_555
H28 C31 1_555 1_555
H29 C31 1_555 1_555
H30 C31 1_555 1_555
H31 C32 1_555 1_555
H32 C32 1_555 1_555
H33 C33 1_555 1_555
H34 C33 1_555 1_555
H35 C33 1_555 1_555
H36 C35 1_555 1_555
H37 C35 1_555 1_555
H38 C36 1_555 1_555
H39 C36 1_555 1_555
H40 C36 1_555 1_555
Cl1A C1 1_555 1_555
C1A Cl1 1_555 1_555
H1A C1A 1_555 1_555
H2A C1A 1_555 1_555
C1 C1A 1_555 1_555
C9 C10 1_555 1_555
C14 C15 1_555 1_555
C16 C17 1_555 1_555
C21 C22 1_555 1_555
C22 C23 1_555 1_555
Cl1A C1A 1_555 1_555

#END
