
#######################################################################
#
#                 Cambridge Crystallographic Data Centre
#                                CCDC 
#
#######################################################################
#
# If this CIF has been generated from an entry in the Cambridge 
# Structural Database, then it will include bibliographic, chemical, 
# crystal, experimental, refinement or atomic coordinate data resulting 
# from the CCDC's data processing and validation procedures.
#
#######################################################################

data_NEWMAF
_chemical_formula_moiety         'C24 H20 N2 S1'
_chemical_name_systematic        
(5-Methyl-3-(2-(4-(phenylsulfanyl)phenyl)vinyl)cyclohex-2-en-1-ylidene)malononitrile
_symmetry_cell_setting           monoclinic
_symmetry_space_group_name_H-M   'P 21/n'
_symmetry_Int_Tables_number      14
_space_group_name_Hall           '-P 2yn'
loop_
_symmetry_equiv_pos_site_id
_symmetry_equiv_pos_as_xyz
1 x,y,z
2 1/2-x,1/2+y,1/2-z
3 -x,-y,-z
4 1/2+x,1/2-y,1/2+z
_cell_length_a                   5.7277(3)
_cell_length_b                   43.616(2)
_cell_length_c                   8.0965(5)
_cell_angle_alpha                90
_cell_angle_beta                 91.1839(17)
_cell_angle_gamma                90
_cell_volume                     2022.23
_cell_formula_units_Z            4
loop_
_atom_site_label
_atom_site_type_symbol
_atom_site_fract_x
_atom_site_fract_y
_atom_site_fract_z
S1 S 0.38893(14) 0.25179(2) 0.37641(12)
N1 N 2.0697(7) 0.48141(9) 0.6947(6)
N2 N 1.7897(7) 0.40286(9) 0.9513(6)
C1 C 1.9348(7) 0.46215(9) 0.6932(5)
C2 C 1.7807(7) 0.41820(9) 0.8358(6)
C3 C 1.7687(6) 0.43758(7) 0.6945(5)
C4 C 1.6072(6) 0.43308(7) 0.5689(5)
C5 C 1.4490(6) 0.40785(7) 0.5720(5)
H1 H 1.4593 0.3944 0.6609
C6 C 1.2850(6) 0.40242(7) 0.4532(4)
C7 C 1.1415(6) 0.37538(7) 0.4657(4)
H2 H 1.1762 0.3621 0.5528
C8 C 0.9633(5) 0.36733(7) 0.3648(4)
H3 H 0.9197 0.3812 0.2828
C9 C 0.8322(5) 0.33897(7) 0.3718(4)
C10 C 0.9074(5) 0.31336(7) 0.4603(4)
H4 H 1.0468 0.3145 0.5211
C11 C 0.7823(5) 0.28646(7) 0.4608(4)
H5 H 0.838 0.2698 0.5211
C12 C 0.5739(5) 0.28408(7) 0.3721(4)
C13 C 0.4952(5) 0.30935(7) 0.2821(4)
H6 H 0.3565 0.3081 0.2207
C14 C 0.6219(5) 0.33611(7) 0.2836(4)
H7 H 0.5655 0.3528 0.2238
C15 C 1.5903(7) 0.45442(9) 0.4271(5)
H8 H 1.5418 0.4742 0.4684
H9 H 1.7456 0.4569 0.3835
C16 C 1.4421(12) 0.44653(14) 0.2980(8)
H10 H 1.5543 0.4326 0.2476
C17 C 1.2618(6) 0.42373(7) 0.3079(5)
H11 H 1.2616 0.4116 0.2074
H12 H 1.112 0.434 0.3128
C18 C 1.4280(9) 0.46769(10) 0.1491(6)
H13 H 1.3349 0.4582 0.0633
H14 H 1.5823 0.4714 0.1096
H15 H 1.3578 0.4868 0.1803
C19 C 0.5734(5) 0.21942(7) 0.3813(4)
C20 C 0.4904(6) 0.19340(8) 0.4582(4)
H16 H 0.3507 0.1943 0.5145
C21 C 0.6115(8) 0.16630(8) 0.4524(5)
H17 H 0.5507 0.1488 0.5015
C22 C 0.8222(8) 0.16483(9) 0.3744(5)
H18 H 0.9059 0.1466 0.3727
C23 C 0.9080(6) 0.19054(9) 0.2992(5)
H19 H 1.0508 0.1896 0.2468
C24 C 0.7855(5) 0.21767(8) 0.3002(4)
H20 H 0.8441 0.2348 0.2469
loop_
_geom_bond_atom_site_label_1
_geom_bond_atom_site_label_2
_geom_bond_site_symmetry_1
_geom_bond_site_symmetry_2
S1 C12 1_555 1_555
N1 C1 1_555 1_555
N2 C2 1_555 1_555
C1 C3 1_555 1_555
C2 C3 1_555 1_555
C3 C4 1_555 1_555
C4 C5 1_555 1_555
C5 H1 1_555 1_555
C6 C5 1_555 1_555
C7 C6 1_555 1_555
H2 C7 1_555 1_555
C8 C7 1_555 1_555
H3 C8 1_555 1_555
C9 C8 1_555 1_555
C10 C9 1_555 1_555
H4 C10 1_555 1_555
C11 C10 1_555 1_555
H5 C11 1_555 1_555
C12 C11 1_555 1_555
C13 C12 1_555 1_555
H6 C13 1_555 1_555
C14 C9 1_555 1_555
H7 C14 1_555 1_555
C15 C4 1_555 1_555
H8 C15 1_555 1_555
H9 C15 1_555 1_555
C16 C15 1_555 1_555
H10 C16 1_555 1_555
C17 C6 1_555 1_555
H11 C17 1_555 1_555
H12 C17 1_555 1_555
C18 C16 1_555 1_555
H13 C18 1_555 1_555
H14 C18 1_555 1_555
H15 C18 1_555 1_555
C19 S1 1_555 1_555
C20 C19 1_555 1_555
H16 C20 1_555 1_555
C21 C20 1_555 1_555
H17 C21 1_555 1_555
C22 C21 1_555 1_555
H18 C22 1_555 1_555
C23 C22 1_555 1_555
H19 C23 1_555 1_555
C24 C19 1_555 1_555
H20 C24 1_555 1_555
C13 C14 1_555 1_555
C16 C17 1_555 1_555
C23 C24 1_555 1_555

#END
