
#######################################################################
#
#                 Cambridge Crystallographic Data Centre
#                                CCDC 
#
#######################################################################
#
# If this CIF has been generated from an entry in the Cambridge 
# Structural Database, then it will include bibliographic, chemical, 
# crystal, experimental, refinement or atomic coordinate data resulting 
# from the CCDC's data processing and validation procedures.
#
#######################################################################

data_NEWPUC
_chemical_formula_moiety         'C23 H23 N1 O2 S1'
_chemical_name_systematic        
9,9-Dimethyl-5-((4-methylphenyl)sulfonyl)-8,9-dihydro-5H-cycloocta[b]indole
_symmetry_cell_setting           monoclinic
_symmetry_space_group_name_H-M   'P 21/c'
_symmetry_Int_Tables_number      14
_space_group_name_Hall           '-P 2ybc'
loop_
_symmetry_equiv_pos_site_id
_symmetry_equiv_pos_as_xyz
1 x,y,z
2 -x,1/2+y,1/2-z
3 -x,-y,-z
4 x,1/2-y,1/2+z
_cell_length_a                   9.4240(9)
_cell_length_b                   14.7239(14)
_cell_length_c                   14.2847(14)
_cell_angle_alpha                90
_cell_angle_beta                 101.7000(10)
_cell_angle_gamma                90
_cell_volume                     1940.93
_exptl_crystal_colour            colorless
_exptl_crystal_description       block
_cell_formula_units_Z            4
loop_
_atom_site_label
_atom_site_type_symbol
_atom_site_fract_x
_atom_site_fract_y
_atom_site_fract_z
S1 S 0.43796(3) 0.18414(2) 0.69141(2)
O1 O 0.37731(11) 0.13283(8) 0.60786(7)
O2 O 0.41243(11) 0.27962(7) 0.69342(7)
N1 N 0.61810(11) 0.17013(7) 0.70774(7)
C1 C 0.68002(13) 0.08390(8) 0.69523(8)
C2 C 0.63047(16) 0.01384(9) 0.63121(9)
H1 H 0.5388 0.0169 0.5889
C3 C 0.72100(18) -0.06057(9) 0.63203(10)
H2 H 0.6905 -0.1092 0.5890
C4 C 0.85561(17) -0.06608(9) 0.69426(10)
H3 H 0.9144 -0.1184 0.6934
C5 C 0.90427(15) 0.00416(9) 0.75735(9)
H4 H 0.9960 0.0007 0.7996
C6 C 0.81540(13) 0.08029(8) 0.75746(8)
C7 C 0.83723(13) 0.16432(8) 0.81153(8)
C8 C 0.71612(12) 0.21674(8) 0.78219(8)
C9 C 0.68942(14) 0.30947(8) 0.80970(9)
H5 H 0.6481 0.3515 0.7613
C10 C 0.72087(13) 0.33758(8) 0.90047(9)
H6 H 0.7079 0.4003 0.9121
C11 C 0.77496(13) 0.27817(8) 0.98531(9)
H7 H 0.7438 0.2149 0.9689
H8 H 0.7293 0.2978 1.0386
C12 C 0.94061(13) 0.27959(8) 1.01970(8)
C13 C 1.02121(13) 0.23680(8) 0.94977(9)
H9 H 1.1230 0.2460 0.9662
C14 C 0.97920(13) 0.18851(8) 0.86938(9)
H10 H 1.0580 0.1650 0.8447
C15 C 0.98121(16) 0.22452(10) 1.11298(9)
H11 H 0.9461 0.1620 1.1015
H12 H 0.9365 0.2524 1.1622
H13 H 1.0868 0.2241 1.1345
C16 C 0.99333(15) 0.37805(9) 1.03872(10)
H14 H 1.0982 0.3783 1.0635
H15 H 0.9441 0.4058 1.0858
H16 H 0.9713 0.4127 0.9790
C17 C 0.39049(12) 0.13396(8) 0.79226(8)
C18 C 0.34185(15) 0.04473(9) 0.78813(10)
H17 H 0.3310 0.0110 0.7304
C19 C 0.30933(15) 0.00559(9) 0.86972(10)
H18 H 0.2755 -0.0553 0.8673
C20 C 0.32542(14) 0.05414(9) 0.95524(9)
C21 C 0.37608(13) 0.14329(9) 0.95744(9)
H19 H 0.3890 0.1768 1.0154
C22 C 0.40797(13) 0.18388(8) 0.87654(9)
H20 H 0.4413 0.2449 0.8786
C23 C 0.28536(17) 0.01235(11) 1.04267(11)
H21 H 0.3004 0.0569 1.0947
H22 H 0.3463 -0.0410 1.0623
H23 H 0.1833 -0.0060 1.0278
loop_
_geom_bond_atom_site_label_1
_geom_bond_atom_site_label_2
_geom_bond_site_symmetry_1
_geom_bond_site_symmetry_2
S1 O1 1_555 1_555
O2 S1 1_555 1_555
N1 S1 1_555 1_555
C1 N1 1_555 1_555
C2 C1 1_555 1_555
H1 C2 1_555 1_555
C3 C2 1_555 1_555
H2 C3 1_555 1_555
C4 C3 1_555 1_555
H3 C4 1_555 1_555
C5 C4 1_555 1_555
H4 C5 1_555 1_555
C6 C1 1_555 1_555
C7 C6 1_555 1_555
C8 N1 1_555 1_555
C9 C8 1_555 1_555
H5 C9 1_555 1_555
C10 C9 1_555 1_555
H6 C10 1_555 1_555
C11 C10 1_555 1_555
H7 C11 1_555 1_555
H8 C11 1_555 1_555
C12 C11 1_555 1_555
C13 C12 1_555 1_555
H9 C13 1_555 1_555
C14 C7 1_555 1_555
H10 C14 1_555 1_555
C15 C12 1_555 1_555
H11 C15 1_555 1_555
H12 C15 1_555 1_555
H13 C15 1_555 1_555
C16 C12 1_555 1_555
H14 C16 1_555 1_555
H15 C16 1_555 1_555
H16 C16 1_555 1_555
C17 S1 1_555 1_555
C18 C17 1_555 1_555
H17 C18 1_555 1_555
C19 C18 1_555 1_555
H18 C19 1_555 1_555
C20 C19 1_555 1_555
C21 C20 1_555 1_555
H19 C21 1_555 1_555
C22 C17 1_555 1_555
H20 C22 1_555 1_555
C23 C20 1_555 1_555
H21 C23 1_555 1_555
H22 C23 1_555 1_555
H23 C23 1_555 1_555
C5 C6 1_555 1_555
C7 C8 1_555 1_555
C13 C14 1_555 1_555
C21 C22 1_555 1_555

#END
