
#######################################################################
#
#                 Cambridge Crystallographic Data Centre
#                                CCDC 
#
#######################################################################
#
# If this CIF has been generated from an entry in the Cambridge 
# Structural Database, then it will include bibliographic, chemical, 
# crystal, experimental, refinement or atomic coordinate data resulting 
# from the CCDC's data processing and validation procedures.
#
#######################################################################

data_NEWPOW
_chemical_formula_moiety         'C14 H9 Br2 N3 O1,0.5(C2 H6 O1)'
_chemical_name_systematic        
'2-[(1H-Benzimidazol-2-yl)iminomethyl]-4,6-dibromophenol ethanol solvate'
_symmetry_cell_setting           monoclinic
_symmetry_space_group_name_H-M   'P 21/c'
_symmetry_Int_Tables_number      14
_space_group_name_Hall           '-P 2ybc'
loop_
_symmetry_equiv_pos_site_id
_symmetry_equiv_pos_as_xyz
1 x,y,z
2 -x,1/2+y,1/2-z
3 -x,-y,-z
4 x,1/2-y,1/2+z
_cell_length_a                   14.5300(15)
_cell_length_b                   16.8190(14)
_cell_length_c                   13.8491(17)
_cell_angle_alpha                90
_cell_angle_beta                 111.656(13)
_cell_angle_gamma                90
_cell_volume                     3145.56
_exptl_crystal_colour            orange
_exptl_crystal_description       block
_cell_formula_units_Z            8
loop_
_atom_site_label
_atom_site_type_symbol
_atom_site_fract_x
_atom_site_fract_y
_atom_site_fract_z
Br1 Br 0.18346(5) 0.58511(4) 0.49389(5)
Br2 Br 0.16183(5) 0.34709(4) 0.19662(5)
O1 O 0.3836(3) 0.6096(2) 0.4833(3)
H1 H 0.4378 0.6170 0.4793
N1 N 0.5251(3) 0.5886(2) 0.4114(3)
N2 N 0.6683(3) 0.6647(2) 0.4789(3)
H2 H 0.6473 0.6908 0.5201
N3 N 0.6673(3) 0.5779(2) 0.3570(3)
C1 C 0.2409(3) 0.5300(3) 0.4110(4)
C2 C 0.1890(3) 0.4700(3) 0.3465(4)
H3 H 0.1258 0.4567 0.3430
C3 C 0.2322(4) 0.4295(3) 0.2863(4)
C4 C 0.3270(3) 0.4493(3) 0.2931(4)
H4 H 0.3557 0.4217 0.2533
C5 C 0.3790(3) 0.5090(3) 0.3576(3)
C6 C 0.3357(3) 0.5508(3) 0.4174(4)
C7 C 0.4786(3) 0.5289(3) 0.3606(3)
H5 H 0.5078 0.4973 0.3248
C8 C 0.6193(3) 0.6076(3) 0.4121(4)
C9 C 0.7585(3) 0.6735(3) 0.4691(4)
C10 C 0.8406(4) 0.7209(3) 0.5210(4)
H6 H 0.8415 0.7560 0.5732
C11 C 0.9220(4) 0.7126(4) 0.4902(5)
H7 H 0.9792 0.7420 0.5233
C12 C 0.9177(4) 0.6611(4) 0.4110(5)
H8 H 0.9721 0.6580 0.3912
C13 C 0.8372(4) 0.6143(3) 0.3604(5)
H9 H 0.8368 0.5802 0.3074
C14 C 0.7557(3) 0.6193(3) 0.3904(4)
Br3 Br 0.20356(4) 0.66995(4) 0.13312(5)
Br4 Br 0.02247(4) 0.43016(4) -0.16402(5)
O2 O 0.3869(3) 0.5833(2) 0.1429(3)
H10 H 0.4369 0.5579 0.1491
N4 N 0.4902(3) 0.4627(2) 0.1140(3)
N5 N 0.6607(3) 0.4473(2) 0.2074(3)
H11 H 0.6654 0.4877 0.2470
N6 N 0.5910(3) 0.3573(2) 0.0821(3)
C15 C 0.2131(4) 0.5794(3) 0.0568(4)
C16 C 0.1299(4) 0.5450(3) -0.0139(4)
H12 H 0.0680 0.5671 -0.0260
C17 C 0.1377(3) 0.4775(3) -0.0673(4)
C18 C 0.2293(3) 0.4427(3) -0.0496(4)
H13 H 0.2339 0.3970 -0.0855
C19 C 0.3148(3) 0.4774(3) 0.0231(3)
C20 C 0.3075(3) 0.5466(3) 0.0751(4)
C21 C 0.4092(3) 0.4375(3) 0.0437(4)
H14 H 0.4111 0.3926 0.0053
C22 C 0.5779(3) 0.4202(3) 0.1318(4)
C23 C 0.6906(3) 0.3406(3) 0.1292(3)
C24 C 0.7478(4) 0.2809(3) 0.1087(4)
H15 H 0.7189 0.2432 0.0573
C25 C 0.8469(4) 0.2791(3) 0.1662(4)
H16 H 0.8857 0.2395 0.1535
C26 C 0.8919(4) 0.3357(3) 0.2441(4)
H17 H 0.9598 0.3326 0.2811
C27 C 0.8391(3) 0.3952(3) 0.2674(4)
H18 H 0.8690 0.4325 0.3191
C28 C 0.7368(3) 0.3966(3) 0.2085(3)
O3 O 0.5513(3) 0.7478(2) 0.0641(3)
H19 H 0.5114 0.7166 0.0249
C29 C 0.5640(5) 0.7298(4) 0.1691(5)
H20 H 0.6296 0.7466 0.2143
H21 H 0.5602 0.6726 0.1762
C30 C 0.4904(6) 0.7678(4) 0.2036(5)
H22 H 0.4263 0.7453 0.1665
H23 H 0.4888 0.8239 0.1900
H24 H 0.5081 0.7592 0.2767
loop_
_geom_bond_atom_site_label_1
_geom_bond_atom_site_label_2
_geom_bond_site_symmetry_1
_geom_bond_site_symmetry_2
Br1 C1 1_555 1_555
Br2 C3 1_555 1_555
O1 H1 1_555 1_555
N1 C7 1_555 1_555
N2 H2 1_555 1_555
N3 C8 1_555 1_555
C1 C2 1_555 1_555
C2 H3 1_555 1_555
C3 C2 1_555 1_555
C4 C3 1_555 1_555
H4 C4 1_555 1_555
C5 C4 1_555 1_555
C6 O1 1_555 1_555
C7 C5 1_555 1_555
H5 C7 1_555 1_555
C8 N1 1_555 1_555
C9 N2 1_555 1_555
C10 C9 1_555 1_555
H6 C10 1_555 1_555
C11 C10 1_555 1_555
H7 C11 1_555 1_555
C12 C11 1_555 1_555
H8 C12 1_555 1_555
C13 C12 1_555 1_555
H9 C13 1_555 1_555
C14 N3 1_555 1_555
Br3 C15 1_555 1_555
Br4 C17 1_555 1_555
O2 H10 1_555 1_555
N4 C21 1_555 1_555
N5 H11 1_555 1_555
N6 C22 1_555 1_555
C15 C16 1_555 1_555
C16 H12 1_555 1_555
C17 C16 1_555 1_555
C18 C17 1_555 1_555
H13 C18 1_555 1_555
C19 C18 1_555 1_555
C20 O2 1_555 1_555
C21 C19 1_555 1_555
H14 C21 1_555 1_555
C22 N4 1_555 1_555
C23 N6 1_555 1_555
C24 C23 1_555 1_555
H15 C24 1_555 1_555
C25 C24 1_555 1_555
H16 C25 1_555 1_555
C26 C25 1_555 1_555
H17 C26 1_555 1_555
C27 C26 1_555 1_555
H18 C27 1_555 1_555
C28 N5 1_555 1_555
O3 H19 1_555 1_555
C29 O3 1_555 1_555
H20 C29 1_555 1_555
H21 C29 1_555 1_555
C30 C29 1_555 1_555
H22 C30 1_555 1_555
H23 C30 1_555 1_555
H24 C30 1_555 1_555
N2 C8 1_555 1_555
C1 C6 1_555 1_555
C5 C6 1_555 1_555
C9 C14 1_555 1_555
C13 C14 1_555 1_555
N5 C22 1_555 1_555
C15 C20 1_555 1_555
C19 C20 1_555 1_555
C23 C28 1_555 1_555
C27 C28 1_555 1_555

#END
