
#######################################################################
#
#                 Cambridge Crystallographic Data Centre
#                                CCDC 
#
#######################################################################
#
# If this CIF has been generated from an entry in the Cambridge 
# Structural Database, then it will include bibliographic, chemical, 
# crystal, experimental, refinement or atomic coordinate data resulting 
# from the CCDC's data processing and validation procedures.
#
#######################################################################

data_NEWQAJ
_chemical_formula_moiety         'C17 H14 O5'
_chemical_name_systematic        
(5-Hydroxy-6-methoxy-1-benzofuran-3-yl)(4-methoxyphenyl)methanone
_symmetry_cell_setting           monoclinic
_symmetry_space_group_name_H-M   'P 21/n'
_symmetry_Int_Tables_number      14
_space_group_name_Hall           '-P 2yn'
loop_
_symmetry_equiv_pos_site_id
_symmetry_equiv_pos_as_xyz
1 x,y,z
2 1/2-x,1/2+y,1/2-z
3 -x,-y,-z
4 1/2+x,1/2-y,1/2+z
_cell_length_a                   8.908(6)
_cell_length_b                   10.505(7)
_cell_length_c                   15.452(11)
_cell_angle_alpha                90
_cell_angle_beta                 105.043(9)
_cell_angle_gamma                90
_cell_volume                     1396.42
_exptl_crystal_colour            colorless
_exptl_crystal_description       prism
_cell_formula_units_Z            4
loop_
_atom_site_label
_atom_site_type_symbol
_atom_site_fract_x
_atom_site_fract_y
_atom_site_fract_z
C1 C -0.0240(2) 0.7363(2) -0.23527(14)
H1 H -0.0462 0.7237 -0.2989
H2 H -0.0095 0.6553 -0.2055
H3 H 0.0689 0.7862 -0.2154
C2 C -0.14035(19) 0.82804(16) -0.12655(11)
C3 C -0.27419(18) 0.88697(16) -0.11190(11)
C4 C -0.28412(18) 0.91691(15) -0.02688(11)
H4 H -0.3731 0.9549 -0.0178
C5 C -0.15695(18) 0.88894(15) 0.04602(11)
C6 C -0.02720(18) 0.83370(16) 0.02831(11)
C7 C -0.01308(19) 0.80140(17) -0.05568(11)
H5 H 0.0766 0.7639 -0.0642
C8 C 0.0258(2) 0.85733(18) 0.17407(12)
H6 H 0.0788 0.8558 0.2345
C9 C -0.12171(19) 0.90284(15) 0.14253(11)
C10 C -0.22410(19) 0.96078(16) 0.19144(11)
C11 C -0.19594(18) 0.95184(16) 0.29001(11)
C12 C -0.1208(2) 0.84826(16) 0.34029(12)
H7 H -0.0749 0.7862 0.3127
C13 C -0.1143(2) 0.83717(17) 0.43013(12)
H8 H -0.0646 0.7676 0.4624
C14 C -0.18132(19) 0.92925(17) 0.47267(11)
C15 C -0.2519(2) 1.03514(17) 0.42472(12)
H9 H -0.2940 1.0988 0.4531
C16 C -0.2587(2) 1.04459(16) 0.33485(12)
H10 H -0.3068 1.1151 0.3031
C17 C -0.2630(3) 0.9871(2) 0.60261(13)
H11 H -0.2482 0.9608 0.6637
H12 H -0.3711 0.9806 0.5717
H13 H -0.2295 1.0737 0.6010
O1 O -0.15037(15) 0.80123(13) -0.21448(8)
O2 O -0.39073(14) 0.91091(13) -0.18749(8)
H14 H -0.4697 0.9319 -0.1732
O3 O 0.08657(13) 0.81448(13) 0.10754(8)
O4 O -0.34010(15) 1.01868(14) 0.14743(8)
O5 O -0.17401(16) 0.90698(13) 0.55998(8)
loop_
_geom_bond_atom_site_label_1
_geom_bond_atom_site_label_2
_geom_bond_site_symmetry_1
_geom_bond_site_symmetry_2
C1 H1 1_555 1_555
H2 C1 1_555 1_555
H3 C1 1_555 1_555
C2 C3 1_555 1_555
C3 C4 1_555 1_555
C4 H4 1_555 1_555
C5 C4 1_555 1_555
C6 C5 1_555 1_555
C7 C2 1_555 1_555
H5 C7 1_555 1_555
C8 H6 1_555 1_555
C9 C5 1_555 1_555
C10 C9 1_555 1_555
C11 C10 1_555 1_555
C12 C11 1_555 1_555
H7 C12 1_555 1_555
C13 C12 1_555 1_555
H8 C13 1_555 1_555
C14 C13 1_555 1_555
C15 C14 1_555 1_555
H9 C15 1_555 1_555
C16 C11 1_555 1_555
H10 C16 1_555 1_555
C17 H11 1_555 1_555
H12 C17 1_555 1_555
H13 C17 1_555 1_555
O1 C1 1_555 1_555
O2 C3 1_555 1_555
H14 O2 1_555 1_555
O3 C6 1_555 1_555
O4 C10 1_555 1_555
O5 C14 1_555 1_555
C2 O1 1_555 1_555
C6 C7 1_555 1_555
C8 C9 1_555 1_555
C8 O3 1_555 1_555
C15 C16 1_555 1_555
C17 O5 1_555 1_555

#END
