
#######################################################################
#
#                 Cambridge Crystallographic Data Centre
#                                CCDC 
#
#######################################################################
#
# If this CIF has been generated from an entry in the Cambridge 
# Structural Database, then it will include bibliographic, chemical, 
# crystal, experimental, refinement or atomic coordinate data resulting 
# from the CCDC's data processing and validation procedures.
#
#######################################################################

data_NEWWOD
_chemical_formula_moiety         'C40 H32 N8 O14,C2 H3 N1'
_chemical_name_systematic        
'Dimethyl 25,27-bis(2-anilino-2-oxoethoxy)-5,17-dimethoxy-2,8,14,20-tetraoxa-4,6,16,18,26,28-hexaazapentacyclo[19.3.1.1^3,7^.1^9,13^.1^15,19^]octacosa-1(25),3(28),4,6,9(27),10,12,15(26),16,18,21,23-dodecaene-11,23-dicarboxylate acetonitrile'
_symmetry_cell_setting           triclinic
_symmetry_space_group_name_H-M   'P -1'
_symmetry_Int_Tables_number      2
_space_group_name_Hall           '-P 1'
loop_
_symmetry_equiv_pos_site_id
_symmetry_equiv_pos_as_xyz
1 x,y,z
2 -x,-y,-z
_cell_length_a                   7.8486(16)
_cell_length_b                   12.850(3)
_cell_length_c                   20.867(4)
_cell_angle_alpha                78.493(13)
_cell_angle_beta                 81.704(13)
_cell_angle_gamma                87.285(14)
_cell_volume                     2040.28
_exptl_crystal_colour            colorless
_exptl_crystal_description       block
_cell_formula_units_Z            2
loop_
_atom_site_label
_atom_site_type_symbol
_atom_site_fract_x
_atom_site_fract_y
_atom_site_fract_z
O1 O 0.9609(3) 0.73750(17) 0.31118(10)
O2 O 0.5135(3) 0.6167(2) 0.46154(11)
O3 O 0.4127(3) 0.78663(16) 0.25837(10)
O4 O 0.7300(4) 0.8636(2) -0.02578(12)
O5 O 0.6021(3) 0.71545(17) 0.03111(11)
O6 O 0.5604(3) 1.12771(15) 0.12539(10)
O7 O 0.8813(3) 1.40631(17) 0.13788(11)
O8 O 1.1087(3) 1.07775(16) 0.17651(10)
O9 O 1.1925(4) 0.81515(19) 0.01906(11)
O10 O 1.0969(3) 0.66457(17) 0.08616(11)
O11 O 0.4281(3) 1.00022(16) 0.24575(10)
O12 O 0.6964(3) 1.16806(18) 0.30229(12)
O13 O 0.9858(3) 0.95969(18) 0.29536(10)
O14 O 1.2208(4) 1.0080(2) 0.41798(13)
N1 N 0.7400(4) 0.6692(2) 0.38639(12)
N2 N 0.6914(3) 0.76875(19) 0.28125(12)
N3 N 0.4520(3) 0.7029(2) 0.36031(12)
N4 N 0.4365(3) 1.19804(19) 0.26444(12)
H1 H 0.3524 1.1654 0.2533
N5 N 0.7109(3) 1.27040(19) 0.12969(12)
N6 N 0.8341(3) 1.09617(19) 0.15039(12)
N7 N 0.9984(3) 1.2438(2) 0.15600(13)
N8 N 1.0171(4) 1.1082(2) 0.36480(13)
H2 H 0.9398 1.1054 0.3386
C1 C 0.7881(4) 0.7249(2) 0.32699(14)
C2 C 0.5682(4) 0.6648(2) 0.40069(15)
C3 C 0.5253(4) 0.7517(2) 0.30168(14)
C4 C 0.3290(5) 0.6098(4) 0.48129(19)
H3 H 0.2805 0.5653 0.4556
H4 H 0.2766 0.6811 0.4732
H5 H 0.3052 0.5783 0.5284
C5 C 0.4826(4) 0.8470(2) 0.19722(14)
C6 C 0.5311(4) 0.7994(2) 0.14357(14)
H6 H 0.5222 0.7248 0.1479
C7 C 0.5932(4) 0.8617(2) 0.08333(14)
C8 C 0.6065(4) 0.9713(2) 0.07744(15)
H7 H 0.6514 1.0141 0.0364
C9 C 0.5542(4) 1.0164(2) 0.13142(15)
C10 C 0.4893(4) 0.9560(2) 0.19231(14)
C11 C 0.6497(4) 0.8161(2) 0.02408(16)
C12 C 0.6427(5) 0.6692(3) -0.02728(16)
H8 H 0.5829 0.7096 -0.0627
H9 H 0.6055 0.5953 -0.0171
H10 H 0.7673 0.6714 -0.0415
C13 C 0.7098(4) 1.1650(2) 0.13546(14)
C14 C 0.9735(4) 1.1412(2) 0.15975(14)
C15 C 0.8594(4) 1.3023(2) 0.14145(14)
C16 C 0.7332(5) 1.4763(3) 0.12909(18)
H11 H 0.6889 1.4694 0.0886
H12 H 0.7670 1.5498 0.1258
H13 H 0.6434 1.4571 0.1670
C17 C 1.0854(4) 0.9686(2) 0.18160(15)
C18 C 1.0316(4) 0.9086(2) 0.24397(14)
C19 C 1.0144(4) 0.8004(2) 0.24905(14)
C20 C 1.0485(4) 0.7533(2) 0.19497(15)
H14 H 1.0370 0.6788 0.1998
C21 C 1.1000(4) 0.8154(2) 0.13304(14)
C22 C 1.1180(4) 0.9241(2) 0.12654(15)
H15 H 1.1525 0.9671 0.0844
C23 C 1.1355(4) 0.7681(3) 0.07331(15)
C24 C 1.1326(6) 0.6113(3) 0.03137(18)
H16 H 1.0586 0.6413 -0.0020
H17 H 1.1100 0.5354 0.0466
H18 H 1.2537 0.6207 0.0121
C25 C 0.5562(4) 1.0200(2) 0.28500(15)
H19 H 0.6694 0.9918 0.2676
H20 H 0.5252 0.9820 0.3311
C26 C 0.5701(4) 1.1361(2) 0.28404(14)
C27 C 0.4148(4) 1.3097(2) 0.25957(15)
C28 C 0.4931(5) 1.3638(3) 0.29800(17)
H21 H 0.5686 1.3277 0.3272
C29 C 0.4592(6) 1.4722(3) 0.29323(19)
H22 H 0.5137 1.5103 0.3190
C30 C 0.3480(5) 1.5252(3) 0.25176(18)
H23 H 0.3234 1.5989 0.2497
C31 C 0.2731(5) 1.4697(3) 0.21338(18)
H24 H 0.1982 1.5058 0.1840
C32 C 0.3058(4) 1.3621(2) 0.21715(16)
H25 H 0.2533 1.3245 0.1906
C33 C 1.0678(5) 0.9248(3) 0.35374(15)
H26 H 1.1750 0.8845 0.3426
H27 H 0.9902 0.8771 0.3874
C34 C 1.1098(5) 1.0194(3) 0.38144(16)
C35 C 1.0298(4) 1.2068(3) 0.38487(16)
C36 C 1.0894(5) 1.2134(3) 0.44309(19)
H28 H 1.1248 1.1510 0.4712
C37 C 1.0972(6) 1.3121(4) 0.4601(2)
H29 H 1.1397 1.3171 0.4997
C38 C 1.0443(5) 1.4021(4) 0.4204(2)
H30 H 1.0504 1.4691 0.4326
C39 C 0.9819(5) 1.3960(3) 0.3628(2)
H31 H 0.9434 1.4584 0.3355
C40 C 0.9758(5) 1.2981(3) 0.34495(17)
H32 H 0.9343 1.2936 0.3050
N9 N 0.6430(5) 0.8860(3) 0.42913(17)
C41 C 0.5507(6) 0.8718(3) 0.4765(2)
C42 C 0.4335(8) 0.8536(4) 0.5378(2)
H33 H 0.3172 0.8776 0.5291
H34 H 0.4713 0.8934 0.5685
H35 H 0.4328 0.7777 0.5573
loop_
_geom_bond_atom_site_label_1
_geom_bond_atom_site_label_2
_geom_bond_site_symmetry_1
_geom_bond_site_symmetry_2
O1 C1 1_555 1_555
O2 C2 1_555 1_555
O3 C3 1_555 1_555
O4 C11 1_555 1_555
O5 C11 1_555 1_555
O6 C9 1_555 1_555
O7 C15 1_555 1_555
O8 C14 1_555 1_555
O9 C23 1_555 1_555
O10 C23 1_555 1_555
O11 C10 1_555 1_555
O12 C26 1_555 1_555
O13 C18 1_555 1_555
O14 C34 1_555 1_555
N1 C1 1_555 1_555
N2 C1 1_555 1_555
N3 C2 1_555 1_555
N4 H1 1_555 1_555
N5 C13 1_555 1_555
N6 C13 1_555 1_555
N7 C14 1_555 1_555
N8 H2 1_555 1_555
C2 N1 1_555 1_555
C3 N2 1_555 1_555
C4 O2 1_555 1_555
H3 C4 1_555 1_555
H4 C4 1_555 1_555
H5 C4 1_555 1_555
C5 O3 1_555 1_555
C6 C5 1_555 1_555
H6 C6 1_555 1_555
C7 C6 1_555 1_555
C8 C7 1_555 1_555
H7 C8 1_555 1_555
C9 C8 1_555 1_555
C10 C5 1_555 1_555
C11 C7 1_555 1_555
C12 O5 1_555 1_555
H8 C12 1_555 1_555
H9 C12 1_555 1_555
H10 C12 1_555 1_555
C13 O6 1_555 1_555
C14 N6 1_555 1_555
C15 N5 1_555 1_555
C16 O7 1_555 1_555
H11 C16 1_555 1_555
H12 C16 1_555 1_555
H13 C16 1_555 1_555
C17 O8 1_555 1_555
C18 C17 1_555 1_555
C19 O1 1_555 1_555
C20 C19 1_555 1_555
H14 C20 1_555 1_555
C21 C20 1_555 1_555
C22 C17 1_555 1_555
H15 C22 1_555 1_555
C23 C21 1_555 1_555
C24 O10 1_555 1_555
H16 C24 1_555 1_555
H17 C24 1_555 1_555
H18 C24 1_555 1_555
C25 O11 1_555 1_555
H19 C25 1_555 1_555
H20 C25 1_555 1_555
C26 N4 1_555 1_555
C27 N4 1_555 1_555
C28 C27 1_555 1_555
H21 C28 1_555 1_555
C29 C28 1_555 1_555
H22 C29 1_555 1_555
C30 C29 1_555 1_555
H23 C30 1_555 1_555
C31 C30 1_555 1_555
H24 C31 1_555 1_555
C32 C27 1_555 1_555
H25 C32 1_555 1_555
C33 O13 1_555 1_555
H26 C33 1_555 1_555
H27 C33 1_555 1_555
C34 N8 1_555 1_555
C35 N8 1_555 1_555
C36 C35 1_555 1_555
H28 C36 1_555 1_555
C37 C36 1_555 1_555
H29 C37 1_555 1_555
C38 C37 1_555 1_555
H30 C38 1_555 1_555
C39 C38 1_555 1_555
H31 C39 1_555 1_555
C40 C35 1_555 1_555
H32 C40 1_555 1_555
N9 C41 1_555 1_555
C41 C42 1_555 1_555
C42 H33 1_555 1_555
H34 C42 1_555 1_555
H35 C42 1_555 1_555
N3 C3 1_555 1_555
N7 C15 1_555 1_555
C9 C10 1_555 1_555
C18 C19 1_555 1_555
C21 C22 1_555 1_555
C25 C26 1_555 1_555
C31 C32 1_555 1_555
C33 C34 1_555 1_555
C39 C40 1_555 1_555

#END
