
#######################################################################
#
#                 Cambridge Crystallographic Data Centre
#                                CCDC 
#
#######################################################################
#
# If this CIF has been generated from an entry in the Cambridge 
# Structural Database, then it will include bibliographic, chemical, 
# crystal, experimental, refinement or atomic coordinate data resulting 
# from the CCDC's data processing and validation procedures.
#
#######################################################################

data_NEWXAQ
_chemical_formula_moiety         'C32 H30 N6 O16'
_chemical_name_systematic        
'Dimethyl 25,27-bis(2-ethoxy-2-oxoethoxy)-5,17-dimethoxy-2,8,14,20-tetraoxa-4,6,16,18,26,28-hexaazapentacyclo[19.3.1.1^3,7^.1^9,13^.1^15,19^]octacosa-1(25),3(28),4,6,9(27),10,12,15(26),16,18,21,23-dodecaene-11,23-dicarboxylate'
_symmetry_cell_setting           triclinic
_symmetry_space_group_name_H-M   'P -1'
_symmetry_Int_Tables_number      2
_space_group_name_Hall           '-P 1'
loop_
_symmetry_equiv_pos_site_id
_symmetry_equiv_pos_as_xyz
1 x,y,z
2 -x,-y,-z
_cell_length_a                   9.7029(19)
_cell_length_b                   12.946(3)
_cell_length_c                   13.544(3)
_cell_angle_alpha                86.92(3)
_cell_angle_beta                 85.03(3)
_cell_angle_gamma                86.48(3)
_cell_volume                     1689.71
_exptl_crystal_colour            colorless
_exptl_crystal_description       plate
_cell_formula_units_Z            2
loop_
_atom_site_label
_atom_site_type_symbol
_atom_site_fract_x
_atom_site_fract_y
_atom_site_fract_z
O1 O 0.40354(16) 0.22967(12) 0.75183(11)
O2 O 0.34591(18) 0.48704(13) 0.96734(12)
O3 O 0.66212(17) 0.51616(12) 0.70868(12)
O4 O 0.7449(2) 0.54045(16) 0.33197(14)
O5 O 0.91262(18) 0.41635(14) 0.30263(11)
O6 O 1.04393(15) 0.27030(12) 0.62782(11)
O7 O 1.18300(16) -0.06156(13) 0.68548(12)
O8 O 0.75497(16) 0.01283(12) 0.58102(13)
O9 O 0.45561(18) 0.14991(14) 0.31621(12)
O10 O 0.28365(16) 0.24481(12) 0.39476(11)
O11 O 0.65746(17) 0.11745(13) 0.74886(12)
O12 O 0.8501(2) 0.0185(2) 0.85101(16)
O13 O 0.6892(2) -0.06357(18) 0.95043(16)
O14 O 0.85172(18) 0.37814(13) 0.77181(11)
O15 O 0.9295(3) 0.3170(2) 0.98328(17)
O16 O 0.7343(3) 0.25309(19) 0.94875(14)
N1 N 0.37559(19) 0.35089(15) 0.86429(13)
N2 N 0.5007(2) 0.50446(15) 0.83684(14)
N3 N 0.54273(19) 0.36730(14) 0.72575(13)
N4 N 1.11626(19) 0.10411(14) 0.65587(14)
N5 N 0.96748(19) -0.03001(14) 0.62854(14)
N6 N 0.89328(18) 0.14694(14) 0.59876(13)
C1 C 0.4439(2) 0.32010(16) 0.78113(15)
C2 C 0.5644(2) 0.45885(17) 0.75952(16)
C3 C 0.4089(2) 0.44408(18) 0.88738(16)
C4 C 0.2478(3) 0.4273(2) 1.02839(18)
H1 H 0.1726 0.4109 0.9891
H2 H 0.2097 0.4675 1.0847
H3 H 0.2944 0.3629 1.0529
C5 C 0.7516(2) 0.46516(16) 0.63789(16)
C6 C 0.8509(2) 0.39158(17) 0.67145(16)
C7 C 0.9394(2) 0.34300(16) 0.59978(16)
C8 C 0.9323(2) 0.36874(16) 0.50009(16)
H4 H 0.9946 0.3349 0.4526
C9 C 0.8349(2) 0.44355(16) 0.46854(16)
C10 C 0.7426(2) 0.49226(17) 0.53889(16)
H5 H 0.6747 0.5433 0.5187
C11 C 0.8237(2) 0.47351(18) 0.36207(17)
C12 C 0.9062(3) 0.4386(2) 0.19752(18)
H6 H 0.9754 0.3938 0.1607
H7 H 0.9254 0.5113 0.1815
H8 H 0.8136 0.4258 0.1790
C13 C 1.0163(2) 0.16879(16) 0.62634(15)
C14 C 1.0843(2) 0.00524(17) 0.65514(16)
C15 C 0.8770(2) 0.04605(17) 0.60417(16)
C16 C 1.1586(3) -0.17049(19) 0.6866(2)
H9 H 1.1370 -0.1885 0.6205
H10 H 1.0804 -0.1857 0.7349
H11 H 1.2417 -0.2113 0.7051
C17 C 0.6423(2) 0.08575(16) 0.57792(17)
C18 C 0.5873(2) 0.13035(17) 0.66497(16)
C19 C 0.4663(2) 0.19306(16) 0.66232(15)
C20 C 0.4017(2) 0.21330(16) 0.57561(15)
H12 H 0.3189 0.2564 0.5751
C21 C 0.4605(2) 0.16915(16) 0.48925(15)
C22 C 0.5805(2) 0.10396(16) 0.49095(16)
H13 H 0.6190 0.0725 0.4323
C23 C 0.4012(2) 0.18603(17) 0.39129(16)
C24 C 0.2227(3) 0.2586(2) 0.30051(17)
H14 H 0.2921 0.2833 0.2492
H15 H 0.1437 0.3095 0.3063
H16 H 0.1911 0.1923 0.2823
C25 C 0.8996(3) 0.28088(19) 0.81588(17)
H17 H 1.0016 0.2707 0.8039
H18 H 0.8563 0.2229 0.7879
C26 C 0.8574(3) 0.2862(2) 0.92561(19)
C27 C 0.6850(5) 0.2536(3) 1.0540(2)
H19 H 0.7573 0.2215 1.0950
H20 H 0.6638 0.3257 1.0739
C28 C 0.5643(5) 0.1970(3) 1.0686(3)
H21 H 0.4963 0.2257 1.0236
H22 H 0.5249 0.2018 1.1374
H23 H 0.5881 0.1242 1.0549
C29 C 0.6104(3) 0.0429(2) 0.82236(17)
H24 H 0.5669 -0.0131 0.7913
H25 H 0.5407 0.0756 0.8705
C30 C 0.7331(3) -0.0007(2) 0.87413(18)
C31 C 0.7961(5) -0.1168(3) 1.0088(3)
H26 H 0.7630 -0.1837 1.0372
H27 H 0.8814 -0.1313 0.9649
C32 C 0.8272(4) -0.0529(4) 1.0884(3)
H28 H 0.8652 0.0116 1.0599
H29 H 0.8952 -0.0905 1.1283
H30 H 0.7421 -0.0367 1.1305
loop_
_geom_bond_atom_site_label_1
_geom_bond_atom_site_label_2
_geom_bond_site_symmetry_1
_geom_bond_site_symmetry_2
O1 C1 1_555 1_555
O2 C3 1_555 1_555
O3 C2 1_555 1_555
O4 C11 1_555 1_555
O5 C11 1_555 1_555
O6 C7 1_555 1_555
O7 C14 1_555 1_555
O8 C15 1_555 1_555
O9 C23 1_555 1_555
O10 C23 1_555 1_555
O11 C18 1_555 1_555
O12 C30 1_555 1_555
O13 C30 1_555 1_555
O14 C6 1_555 1_555
O15 C26 1_555 1_555
O16 C26 1_555 1_555
N1 C1 1_555 1_555
N2 C2 1_555 1_555
N3 C1 1_555 1_555
N4 C13 1_555 1_555
N5 C14 1_555 1_555
N6 C13 1_555 1_555
C2 N3 1_555 1_555
C3 N1 1_555 1_555
C4 O2 1_555 1_555
H1 C4 1_555 1_555
H2 C4 1_555 1_555
H3 C4 1_555 1_555
C5 O3 1_555 1_555
C6 C5 1_555 1_555
C7 C6 1_555 1_555
C8 C7 1_555 1_555
H4 C8 1_555 1_555
C9 C8 1_555 1_555
C10 C5 1_555 1_555
H5 C10 1_555 1_555
C11 C9 1_555 1_555
C12 O5 1_555 1_555
H6 C12 1_555 1_555
H7 C12 1_555 1_555
H8 C12 1_555 1_555
C13 O6 1_555 1_555
C14 N4 1_555 1_555
C15 N5 1_555 1_555
C16 O7 1_555 1_555
H9 C16 1_555 1_555
H10 C16 1_555 1_555
H11 C16 1_555 1_555
C17 O8 1_555 1_555
C18 C17 1_555 1_555
C19 O1 1_555 1_555
C20 C19 1_555 1_555
H12 C20 1_555 1_555
C21 C20 1_555 1_555
C22 C17 1_555 1_555
H13 C22 1_555 1_555
C23 C21 1_555 1_555
C24 O10 1_555 1_555
H14 C24 1_555 1_555
H15 C24 1_555 1_555
H16 C24 1_555 1_555
C25 O14 1_555 1_555
H17 C25 1_555 1_555
H18 C25 1_555 1_555
C26 C25 1_555 1_555
C27 O16 1_555 1_555
H19 C27 1_555 1_555
H20 C27 1_555 1_555
C28 C27 1_555 1_555
H21 C28 1_555 1_555
H22 C28 1_555 1_555
H23 C28 1_555 1_555
C29 O11 1_555 1_555
H24 C29 1_555 1_555
H25 C29 1_555 1_555
C30 C29 1_555 1_555
C31 O13 1_555 1_555
H26 C31 1_555 1_555
H27 C31 1_555 1_555
C32 C31 1_555 1_555
H28 C32 1_555 1_555
H29 C32 1_555 1_555
H30 C32 1_555 1_555
N2 C3 1_555 1_555
N6 C15 1_555 1_555
C9 C10 1_555 1_555
C18 C19 1_555 1_555
C21 C22 1_555 1_555

#END
