
#######################################################################
#
#                 Cambridge Crystallographic Data Centre
#                                CCDC 
#
#######################################################################
#
# If this CIF has been generated from an entry in the Cambridge 
# Structural Database, then it will include bibliographic, chemical, 
# crystal, experimental, refinement or atomic coordinate data resulting 
# from the CCDC's data processing and validation procedures.
#
#######################################################################

data_NEWYIX
_chemical_formula_moiety         'C10 H5 N5 O2 S4'
_chemical_name_systematic        
N-Benzenesulfonyl-1,2,5-thiadiazolo(3,4-b)-1,3,2-dithiazolo(3,4-b)-pyrazin-2-yl
_symmetry_cell_setting           triclinic
_symmetry_space_group_name_H-M   'P -1'
_symmetry_Int_Tables_number      2
_space_group_name_Hall           '-P 1'
loop_
_symmetry_equiv_pos_site_id
_symmetry_equiv_pos_as_xyz
1 x,y,z
2 -x,-y,-z
_cell_length_a                   10.2388(8)
_cell_length_b                   11.8299(7)
_cell_length_c                   13.1024(12)
_cell_angle_alpha                115.066(7)
_cell_angle_beta                 94.083(8)
_cell_angle_gamma                108.405(6)
_cell_volume                     1324.66
_exptl_crystal_colour            yellow
_exptl_crystal_description       blocks
_chemical_melting_point          184-186deg.C
_cell_formula_units_Z            4
loop_
_atom_site_label
_atom_site_type_symbol
_atom_site_fract_x
_atom_site_fract_y
_atom_site_fract_z
S1 S 0.59116(7) 0.76945(6) 0.50466(6)
S2 S 0.37238(8) 0.83015(6) 0.41099(6)
S3 S 0.29318(7) 0.62578(6) 0.47989(5)
S4 S 0.06948(8) 0.30395(7) -0.06093(5)
O1 O 0.68039(21) 0.89915(18) 0.52277(19)
O2 O 0.61164(22) 0.72519(19) 0.58790(16)
N1 N 0.42487(22) 0.77367(19) 0.50158(18)
N2 N 0.25370(22) 0.64679(20) 0.18745(18)
N3 N 0.18012(20) 0.43480(18) 0.25558(16)
N4 N 0.08377(24) 0.28557(21) 0.05451(18)
N5 N 0.14423(24) 0.46660(22) -0.00507(18)
C1 C 0.5366(3) 0.5120(3) 0.34541(24)
C2 C 0.5069(3) 0.4111(3) 0.2329(3)
C3 C 0.5210(3) 0.4436(3) 0.1440(3)
C4 C 0.5680(3) 0.5755(4) 0.1659(3)
C5 C 0.5977(3) 0.6781(3) 0.2779(3)
C6 C 0.57938(23) 0.64510(24) 0.36677(21)
C7 C 0.24599(23) 0.56190(22) 0.32808(19)
C8 C 0.28494(24) 0.66827(22) 0.29335(20)
C9 C 0.18417(24) 0.51297(23) 0.10918(20)
C10 C 0.14905(24) 0.40960(22) 0.14275(19)
H1 H 0.527 0.490 0.407
H2 H 0.478 0.319 0.217
H3 H 0.498 0.374 0.066
H4 H 0.580 0.596 0.104
H5 H 0.631 0.770 0.294
S5 S -0.27081(7) -0.01115(6) 0.17656(5)
S6 S 0.01484(6) 0.18193(6) 0.24264(5)
S7 S -0.05391(8) -0.02143(6) 0.31688(5)
S8 S 0.12698(7) 0.51547(7) 0.78095(5)
O3 O -0.30718(22) 0.07921(22) 0.27263(17)
O4 O -0.33915(22) -0.15343(20) 0.13353(18)
N6 N -0.09374(21) 0.01843(19) 0.20822(16)
N7 N 0.07871(20) 0.37586(19) 0.46336(16)
N8 N 0.00084(22) 0.16846(21) 0.53725(16)
N9 N 0.06467(22) 0.35254(21) 0.72728(17)
N10 N 0.13411(22) 0.53050(20) 0.66404(17)
C11 C -0.3210(3) 0.1340(3) 0.07474(25)
C12 C -0.3350(3) 0.1583(3) -0.0186(3)
C13 C -0.3098(3) 0.0809(3) -0.1205(3)
C14 C -0.2688(3) -0.0230(3) -0.13170(23)
C15 C -0.2537(3) -0.0503(3) -0.04028(22)
C16 C -0.2808(3) 0.02836(23) 0.06250(20)
C17 C 0.02958(23) 0.24722(23) 0.39231(18)
C18 C -0.00830(24) 0.14253(23) 0.42968(19)
C19 C 0.04898(24) 0.30357(24) 0.61308(19)
C20 C 0.08773(23) 0.40496(22) 0.57672(19)
H6 H -0.339 0.188 0.146
H7 H -0.363 0.230 -0.012
H8 H -0.320 0.099 -0.184
H9 H -0.251 -0.077 -0.203
H10 H -0.225 -0.122 -0.047
loop_
_geom_bond_atom_site_label_1
_geom_bond_atom_site_label_2
_geom_bond_site_symmetry_1
_geom_bond_site_symmetry_2
S1 O1 1_555 1_555
S2 N1 1_555 1_555
S3 N1 1_555 1_555
S4 N4 1_555 1_555
O2 S1 1_555 1_555
N1 S1 1_555 1_555
N2 C8 1_555 1_555
N3 C7 1_555 1_555
N4 C10 1_555 1_555
N5 S4 1_555 1_555
C1 C2 1_555 1_555
C2 C3 1_555 1_555
C3 C4 1_555 1_555
C4 C5 1_555 1_555
C5 C6 1_555 1_555
C6 S1 1_555 1_555
C7 S3 1_555 1_555
C8 S2 1_555 1_555
C9 N2 1_555 1_555
C10 N3 1_555 1_555
H1 C1 1_555 1_555
H2 C2 1_555 1_555
H3 C3 1_555 1_555
H4 C4 1_555 1_555
H5 C5 1_555 1_555
S5 O3 1_555 1_555
S6 N6 1_555 1_555
S7 N6 1_555 1_555
S8 N9 1_555 1_555
O4 S5 1_555 1_555
N6 S5 1_555 1_555
N7 C17 1_555 1_555
N8 C18 1_555 1_555
N9 C19 1_555 1_555
N10 S8 1_555 1_555
C11 C12 1_555 1_555
C12 C13 1_555 1_555
C13 C14 1_555 1_555
C14 C15 1_555 1_555
C15 C16 1_555 1_555
C16 S5 1_555 1_555
C17 S6 1_555 1_555
C18 S7 1_555 1_555
C19 N8 1_555 1_555
C20 N7 1_555 1_555
H6 C11 1_555 1_555
H7 C12 1_555 1_555
H8 C13 1_555 1_555
H9 C14 1_555 1_555
H10 C15 1_555 1_555
N5 C9 1_555 1_555
C1 C6 1_555 1_555
C7 C8 1_555 1_555
C9 C10 1_555 1_555
N10 C20 1_555 1_555
C11 C16 1_555 1_555
C17 C18 1_555 1_555
C19 C20 1_555 1_555

#END
