
#######################################################################
#
#                 Cambridge Crystallographic Data Centre
#                                CCDC 
#
#######################################################################
#
# If this CIF has been generated from an entry in the Cambridge 
# Structural Database, then it will include bibliographic, chemical, 
# crystal, experimental, refinement or atomic coordinate data resulting 
# from the CCDC's data processing and validation procedures.
#
#######################################################################

data_NEWZOG
_chemical_formula_moiety         'C28 H23 Cl1 N2 O4'
_chemical_name_systematic        
'N-(1-Benzyl-2-oxoindolin-3-ylidene)-4-(4-chlorophenyl)-3-(ethoxycarbonyl)buta-1,3-dien-1-amine oxide'
_symmetry_cell_setting           triclinic
_symmetry_space_group_name_H-M   'P -1'
_symmetry_Int_Tables_number      2
_space_group_name_Hall           '-P 1'
loop_
_symmetry_equiv_pos_site_id
_symmetry_equiv_pos_as_xyz
1 x,y,z
2 -x,-y,-z
_cell_length_a                   10.8851(12)
_cell_length_b                   11.3500(13)
_cell_length_c                   11.8946(14)
_cell_angle_alpha                78.593(2)
_cell_angle_beta                 64.031(2)
_cell_angle_gamma                64.744(2)
_cell_volume                     1194.76
_exptl_crystal_colour            red
_exptl_crystal_description       prismatic
_cell_formula_units_Z            2
loop_
_atom_site_label
_atom_site_type_symbol
_atom_site_fract_x
_atom_site_fract_y
_atom_site_fract_z
Cl1 Cl 0.54026(9) 1.25699(7) 1.03614(7)
N1 N 1.0350(2) 0.57111(17) 0.29325(15)
N2 N 0.79027(18) 0.76538(15) 0.56269(14)
O1 O 0.78360(17) 0.66032(15) 0.34840(13)
O2 O 0.81647(16) 0.79719(16) 0.64495(13)
O3 O 0.37339(18) 0.85336(16) 0.55461(14)
O4 O 0.16629(16) 1.00783(15) 0.67111(15)
C1 C 0.8907(2) 0.64269(18) 0.36753(17)
C2 C 0.9019(2) 0.68916(18) 0.47005(17)
C3 C 1.0542(2) 0.64002(18) 0.45008(18)
C4 C 1.1333(2) 0.5690(2) 0.33939(19)
C5 C 1.2842(3) 0.5104(2) 0.2904(2)
H1 H 1.3359 0.4637 0.2166
C6 C 1.3569(3) 0.5233(3) 0.3542(3)
H2 H 1.4598 0.4839 0.3229
C7 C 1.2820(3) 0.5927(3) 0.4629(3)
H3 H 1.3347 0.6000 0.5034
C8 C 1.1305(2) 0.6513(2) 0.5123(2)
H4 H 1.0798 0.6978 0.5861
C9 C 0.6420(2) 0.81724(18) 0.57207(17)
H5 H 0.6173 0.7908 0.5184
C10 C 0.5404(2) 0.90428(18) 0.65952(17)
H6 H 0.5759 0.9250 0.7081
C11 C 0.3832(2) 0.97245(18) 0.69187(16)
C12 C 0.3013(2) 1.06340(19) 0.78099(17)
H7 H 0.1991 1.0967 0.8056
C13 C 0.3577(2) 1.11471(18) 0.84270(17)
C14 C 0.2996(2) 1.1189(2) 0.97184(18)
H8 H 0.2212 1.0924 1.0186
C15 C 0.3551(3) 1.1612(2) 1.03238(19)
H9 H 0.3172 1.1608 1.1193
C16 C 0.4669(2) 1.2039(2) 0.9628(2)
C17 C 0.5230(2) 1.2062(2) 0.8347(2)
H10 H 0.5970 1.2382 0.7887
C18 C 0.4691(2) 1.1611(2) 0.77499(18)
H11 H 0.5078 1.1616 0.6881
C19 C 0.3107(2) 0.9368(2) 0.63096(17)
C20 C 0.0832(3) 0.9820(3) 0.6190(2)
H12 H 0.1192 0.8891 0.6077
H13 H 0.0944 1.0252 0.5382
C21 C -0.0724(3) 1.0309(4) 0.7055(3)
H14 H -0.0820 0.9900 0.7860
H15 H -0.1293 1.0114 0.6742
H16 H -0.1083 1.1235 0.7131
C22 C 1.0742(3) 0.5000(2) 0.18611(19)
H17 H 0.9894 0.4831 0.1969
H18 H 1.1538 0.4165 0.1843
C23 C 1.1220(2) 0.5680(2) 0.06224(18)
C24 C 1.1770(2) 0.4998(2) -0.04520(19)
H19 H 1.1839 0.4143 -0.0385
C25 C 1.2212(3) 0.5559(3) -0.1609(2)
H20 H 1.2587 0.5084 -0.2321
C26 C 1.2105(3) 0.6806(3) -0.1718(3)
H21 H 1.2408 0.7186 -0.2506
C27 C 1.1555(3) 0.7504(3) -0.0677(3)
H22 H 1.1472 0.8363 -0.0757
C28 C 1.1115(3) 0.6938(2) 0.0507(2)
H23 H 1.0753 0.7414 0.1216
loop_
_geom_bond_atom_site_label_1
_geom_bond_atom_site_label_2
_geom_bond_site_symmetry_1
_geom_bond_site_symmetry_2
Cl1 C16 1_555 1_555
N1 C1 1_555 1_555
N2 O2 1_555 1_555
O1 C1 1_555 1_555
O3 C19 1_555 1_555
O4 C19 1_555 1_555
C1 C2 1_555 1_555
C2 N2 1_555 1_555
C3 C2 1_555 1_555
C4 N1 1_555 1_555
C5 C4 1_555 1_555
H1 C5 1_555 1_555
C6 C5 1_555 1_555
H2 C6 1_555 1_555
C7 C6 1_555 1_555
H3 C7 1_555 1_555
C8 C3 1_555 1_555
H4 C8 1_555 1_555
C9 N2 1_555 1_555
H5 C9 1_555 1_555
C10 C9 1_555 1_555
H6 C10 1_555 1_555
C11 C10 1_555 1_555
C12 C11 1_555 1_555
H7 C12 1_555 1_555
C13 C12 1_555 1_555
C14 C13 1_555 1_555
H8 C14 1_555 1_555
C15 C14 1_555 1_555
H9 C15 1_555 1_555
C16 C15 1_555 1_555
C17 C16 1_555 1_555
H10 C17 1_555 1_555
C18 C13 1_555 1_555
H11 C18 1_555 1_555
C19 C11 1_555 1_555
C20 O4 1_555 1_555
H12 C20 1_555 1_555
H13 C20 1_555 1_555
C21 C20 1_555 1_555
H14 C21 1_555 1_555
H15 C21 1_555 1_555
H16 C21 1_555 1_555
C22 N1 1_555 1_555
H17 C22 1_555 1_555
H18 C22 1_555 1_555
C23 C22 1_555 1_555
C24 C23 1_555 1_555
H19 C24 1_555 1_555
C25 C24 1_555 1_555
H20 C25 1_555 1_555
C26 C25 1_555 1_555
H21 C26 1_555 1_555
C27 C26 1_555 1_555
H22 C27 1_555 1_555
C28 C23 1_555 1_555
H23 C28 1_555 1_555
C3 C4 1_555 1_555
C7 C8 1_555 1_555
C17 C18 1_555 1_555
C27 C28 1_555 1_555

#END
