
#######################################################################
#
#                 Cambridge Crystallographic Data Centre
#                                CCDC 
#
#######################################################################
#
# If this CIF has been generated from an entry in the Cambridge 
# Structural Database, then it will include bibliographic, chemical, 
# crystal, experimental, refinement or atomic coordinate data resulting 
# from the CCDC's data processing and validation procedures.
#
#######################################################################

data_NEXBEA
_chemical_formula_moiety         'C18 H20 O7'
_chemical_name_systematic        
8-[(3,4,5-trimethoxyphenyl)methylidene]-6,10-dioxaspiro[4.5]decane-7,9-dione
_symmetry_cell_setting           triclinic
_symmetry_space_group_name_H-M   'P -1'
_symmetry_Int_Tables_number      2
_space_group_name_Hall           '-P 1'
loop_
_symmetry_equiv_pos_site_id
_symmetry_equiv_pos_as_xyz
1 x,y,z
2 -x,-y,-z
_cell_length_a                   5.4056(11)
_cell_length_b                   11.465(2)
_cell_length_c                   13.502(3)
_cell_angle_alpha                92.06(3)
_cell_angle_beta                 91.35(3)
_cell_angle_gamma                93.50(3)
_cell_volume                     834.41
_cell_formula_units_Z            2
loop_
_atom_site_label
_atom_site_type_symbol
_atom_site_fract_x
_atom_site_fract_y
_atom_site_fract_z
O1 O 0.4139(5) 0.7568(2) 0.66228(16)
O2 O -0.1929(4) 0.97691(18) 0.80426(17)
O3 O 0.0854(4) 0.9231(2) 0.65195(16)
O4 O 0.1262(5) 0.55579(18) 1.24042(17)
O5 O -0.1791(4) 0.6879(2) 1.22300(17)
C1 C -0.0263(6) 0.8249(2) 0.9024(2)
H1 H -0.1296 0.8409 0.9546
C2 C 0.2773(6) 0.7758(3) 0.7441(2)
C3 C 0.1391(5) 0.7368(2) 0.9096(2)
C4 C -0.0366(6) 0.8887(2) 0.8174(2)
O6 O -0.2883(4) 0.7583(2) 1.08112(19)
C5 C 0.2925(6) 0.7134(3) 0.8294(2)
H2 H 0.4051 0.6555 0.8339
C6 C 0.1775(6) 0.6653(2) 0.9939(2)
H3 H 0.3064 0.6164 0.9836
C7 C 0.1132(6) 0.8645(3) 0.7371(2)
O7 O 0.3316(5) 0.4918(2) 1.11346(19)
C8 C 0.1929(6) 0.5615(3) 1.1438(2)
C9 C -0.1377(6) 0.7057(3) 1.1259(2)
C10 C 0.2176(7) 0.7555(3) 1.3057(3)
H4 H 0.3701 0.7404 1.2724
H5 H 0.1591 0.8287 1.2835
C11 C 0.5825(7) 0.6669(3) 0.6665(3)
H6 H 0.6667 0.6612 0.6048
H7 H 0.4934 0.5939 0.6779
H8 H 0.7016 0.6849 0.7195
C12 C -0.3450(6) 1.0077(3) 0.8854(3)
H9 H -0.4460 1.0698 0.8669
H10 H -0.2414 1.0331 0.9418
H11 H -0.4494 0.9408 0.9020
C13 C 0.0213(6) 0.6552(3) 1.2841(2)
C14 C 0.0764(6) 0.6500(2) 1.0840(2)
C15 C -0.0744(7) 0.6194(3) 1.3829(3)
H12 H -0.2253 0.6574 1.3978
H13 H -0.1083 0.5354 1.3834
C16 C 0.2831(8) 1.0047(3) 0.6323(3)
H14 H 0.2491 1.0415 0.5711
H15 H 0.4340 0.9652 0.6272
H16 H 0.3004 1.0631 0.6853
C17 C 0.1246(12) 0.6573(5) 1.4548(3)
H17 H 0.2362 0.5951 1.4635
H18 H 0.0554 0.6767 1.5185
C18 C 0.2589(9) 0.7604(4) 1.4162(3)
H19 H 0.4344 0.7596 1.4327
H20 H 0.1971 0.8313 1.4450
loop_
_geom_bond_atom_site_label_1
_geom_bond_atom_site_label_2
_geom_bond_site_symmetry_1
_geom_bond_site_symmetry_2
O1 C2 1_555 1_555
O2 C4 1_555 1_555
O3 C7 1_555 1_555
O4 C8 1_555 1_555
O5 C9 1_555 1_555
C1 H1 1_555 1_555
C2 C5 1_555 1_555
C3 C1 1_555 1_555
C4 C1 1_555 1_555
O6 C9 1_555 1_555
C5 C3 1_555 1_555
H2 C5 1_555 1_555
C6 C3 1_555 1_555
H3 C6 1_555 1_555
C7 C2 1_555 1_555
O7 C8 1_555 1_555
C8 C14 1_555 1_555
C9 C14 1_555 1_555
C10 H4 1_555 1_555
H5 C10 1_555 1_555
C11 O1 1_555 1_555
H6 C11 1_555 1_555
H7 C11 1_555 1_555
H8 C11 1_555 1_555
C12 O2 1_555 1_555
H9 C12 1_555 1_555
H10 C12 1_555 1_555
H11 C12 1_555 1_555
C13 O4 1_555 1_555
C14 C6 1_555 1_555
C15 C13 1_555 1_555
H12 C15 1_555 1_555
H13 C15 1_555 1_555
C16 O3 1_555 1_555
H14 C16 1_555 1_555
H15 C16 1_555 1_555
H16 C16 1_555 1_555
C17 C15 1_555 1_555
H17 C17 1_555 1_555
H18 C17 1_555 1_555
C18 C10 1_555 1_555
H19 C18 1_555 1_555
H20 C18 1_555 1_555
O5 C13 1_555 1_555
C4 C7 1_555 1_555
C10 C13 1_555 1_555
C17 C18 1_555 1_555

#END
