
#######################################################################
#
#                 Cambridge Crystallographic Data Centre
#                                CCDC 
#
#######################################################################
#
# If this CIF has been generated from an entry in the Cambridge 
# Structural Database, then it will include bibliographic, chemical, 
# crystal, experimental, refinement or atomic coordinate data resulting 
# from the CCDC's data processing and validation procedures.
#
#######################################################################

data_NEXBUQ
_chemical_formula_moiety         'C9 H14 B10 O1'
_chemical_name_systematic        
1,5-(2-formylphenyl)-1,2-dicarba-closo-dodecaborane(9)
_symmetry_cell_setting           monoclinic
_symmetry_space_group_name_H-M   'P 21'
_symmetry_Int_Tables_number      4
_space_group_name_Hall           'P 2yb'
loop_
_symmetry_equiv_pos_site_id
_symmetry_equiv_pos_as_xyz
1 x,y,z
2 -x,1/2+y,-z
_cell_length_a                   10.7015(3)
_cell_length_b                   22.7815(5)
_cell_length_c                   11.3703(3)
_cell_angle_alpha                90
_cell_angle_beta                 102.6920(10)
_cell_angle_gamma                90
_cell_volume                     2704.3
_exptl_crystal_colour            colorless
_exptl_crystal_description       block
_cell_formula_units_Z            8
loop_
_atom_site_label
_atom_site_type_symbol
_atom_site_fract_x
_atom_site_fract_y
_atom_site_fract_z
O1 O -0.5086(5) -0.4864(2) -1.0265(6)
C1 C -0.6160(5) -0.4102(3) -1.1650(6)
C2 C -0.5652(6) -0.4109(3) -1.2936(7)
H1 H -0.483511 -0.438824 -1.301434
C3 C -0.5588(5) -0.4386(3) -1.0377(7)
C4 C -0.5721(6) -0.3981(3) -0.9347(6)
C5 C -0.5303(6) -0.4094(4) -0.8060(7)
H2 H -0.493127 -0.445406 -0.780567
C6 C -0.5447(7) -0.3671(5) -0.7180(8)
H3 H -0.518040 -0.374823 -0.636024
C7 C -0.5999(7) -0.3141(5) -0.7596(7)
H4 H -0.610937 -0.285534 -0.704344
C8 C -0.6419(6) -0.3018(4) -0.8903(7)
H5 H -0.678479 -0.265613 -0.915116
C9 C -0.6277(5) -0.3443(3) -0.9794(6)
B1 B -0.6998(8) -0.4458(4) -1.2941(8)
H6 H -0.715086 -0.493520 -1.302849
B2 B -0.7668(7) -0.4011(4) -1.1931(8)
H7 H -0.830519 -0.420287 -1.139470
B3 B -0.6647(7) -0.3438(3) -1.1298(7)
B4 B -0.5363(7) -0.3512(4) -1.1966(7)
H8 H -0.441279 -0.338192 -1.144192
B5 B -0.6803(8) -0.4013(5) -1.4238(9)
H9 H -0.683125 -0.419834 -1.513667
B6 B -0.8112(8) -0.3942(4) -1.3590(8)
H10 H -0.905280 -0.408365 -1.411457
B7 B -0.7908(7) -0.3301(4) -1.2581(7)
H11 H -0.871878 -0.302457 -1.247467
B8 B -0.6467(8) -0.2991(4) -1.2599(8)
H12 H -0.629242 -0.251580 -1.248995
B9 B -0.5795(8) -0.3433(4) -1.3638(7)
H13 H -0.514846 -0.325190 -1.417665
B10 B -0.7354(8) -0.3300(5) -1.4006(8)
H14 H -0.777608 -0.302137 -1.478104
O2 O -0.2756(4) -0.4897(2) -0.7210(5)
C10 C -0.1547(5) -0.4172(2) -0.8003(5)
C11 C -0.0786(6) -0.4540(3) -0.8852(6)
H15 H -0.086029 -0.502108 -0.891311
C12 C -0.2229(5) -0.4424(3) -0.7047(6)
C13 C -0.2068(5) -0.4009(3) -0.5955(6)
C14 C -0.2623(6) -0.4092(3) -0.4933(6)
H16 H -0.317752 -0.440557 -0.492866
C15 C -0.2347(7) -0.3705(3) -0.3915(7)
H17 H -0.271573 -0.376254 -0.325573
C16 C -0.1534(6) -0.3256(3) -0.3945(6)
H18 H -0.132510 -0.299912 -0.329493
C17 C -0.0994(6) -0.3174(3) -0.4974(6)
H19 H -0.043885 -0.286044 -0.497556
C18 C -0.1270(5) -0.3556(3) -0.6013(6)
B11 B -0.2011(7) -0.4148(3) -0.9643(7)
H20 H -0.288621 -0.434191 -1.019770
B12 B -0.1991(7) -0.3515(3) -0.8675(7)
H21 H -0.288678 -0.328557 -0.864023
B13 B -0.0795(6) -0.3582(3) -0.7287(7)
B14 B -0.0015(6) -0.4251(3) -0.7429(7)
H22 H 0.043284 -0.450878 -0.662981
B15 B -0.0631(7) -0.4154(3) -1.0165(7)
H23 H -0.055934 -0.434613 -1.103516
B16 B -0.1390(7) -0.3483(4) -1.0057(7)
H24 H -0.183209 -0.323701 -1.087547
B17 B -0.0645(7) -0.3125(3) -0.8595(7)
H25 H -0.059922 -0.264439 -0.851013
B18 B 0.0580(6) -0.3583(3) -0.7820(7)
H26 H 0.145423 -0.339771 -0.724586
B19 B 0.0571(7) -0.4218(3) -0.8820(7)
H27 H 0.144846 -0.445697 -0.887815
B20 B 0.0195(7) -0.3522(4) -0.9522(7)
H28 H 0.083075 -0.329110 -1.000852
O3 O -0.5107(6) -0.5175(2) -0.5167(5)
C19 C -0.6162(5) -0.5929(3) -0.6579(6)
C20 C -0.6921(6) -0.5600(3) -0.7842(6)
H29 H -0.696955 -0.511788 -0.789752
C21 C -0.5606(5) -0.5646(3) -0.5293(6)
C22 C -0.5782(5) -0.6066(3) -0.4280(6)
C23 C -0.5358(6) -0.5964(3) -0.2977(6)
H30 H -0.496421 -0.561010 -0.270402
C24 C -0.5537(7) -0.6390(4) -0.2135(6)
H31 H -0.524632 -0.632854 -0.131132
C25 C -0.6157(7) -0.6904(4) -0.2567(7)
H32 H -0.630839 -0.719038 -0.203140
C26 C -0.6577(6) -0.6999(3) -0.3867(6)
H33 H -0.697166 -0.735327 -0.413149
C27 C -0.6416(5) -0.6581(3) -0.4746(6)
B21 B -0.5583(7) -0.5910(4) -0.7914(8)
H34 H -0.472789 -0.566126 -0.800551
B22 B -0.5497(7) -0.6549(3) -0.6941(7)
H35 H -0.458239 -0.672518 -0.642612
B23 B -0.6787(6) -0.6565(3) -0.6268(7)
B24 B -0.7693(6) -0.5948(4) -0.6842(7)
H36 H -0.827007 -0.572210 -0.628967
B25 B -0.6882(8) -0.5979(4) -0.9186(7)
H37 H -0.690959 -0.578485 -1.007734
B26 B -0.5964(8) -0.6601(4) -0.8635(7)
H38 H -0.537388 -0.681333 -0.919194
B27 B -0.6717(7) -0.7008(4) -0.7603(7)
H39 H -0.663568 -0.748860 -0.753391
B28 B -0.8097(7) -0.6640(4) -0.7521(6)
H40 H -0.895163 -0.687941 -0.739769
B29 B -0.8176(7) -0.5997(4) -0.8518(7)
H41 H -0.908235 -0.580735 -0.902117
B30 B -0.7593(7) -0.6657(4) -0.8993(7)
H42 H -0.810116 -0.690852 -0.978001
O4 O -0.2910(4) -0.5054(2) -0.2439(4)
C28 C -0.1508(5) -0.5739(3) -0.3062(6)
C29 C -0.1878(6) -0.5768(3) -0.4609(6)
H43 H -0.270532 -0.552993 -0.514281
C30 C -0.2280(5) -0.5487(3) -0.2191(6)
C31 C -0.2142(5) -0.5873(3) -0.1062(6)
C32 C -0.2692(6) -0.5777(3) -0.0042(6)
H44 H -0.321588 -0.545222 -0.003563
C33 C -0.2460(6) -0.6171(3) 0.0979(6)
H45 H -0.281802 -0.609528 0.163903
C34 C -0.1721(6) -0.6649(3) 0.0967(6)
H46 H -0.155706 -0.690648 0.161827
C35 C -0.1187(6) -0.6754(3) -0.0075(6)
H47 H -0.068498 -0.708701 -0.008177
C36 C -0.1393(5) -0.6373(3) -0.1097(5)
B31 B -0.0653(7) -0.5355(4) -0.3916(7)
H48 H -0.059883 -0.487399 -0.397639
B32 B 0.0010(6) -0.5746(3) -0.2503(7)
H49 H 0.051561 -0.551407 -0.168818
B33 B -0.0911(6) -0.6369(3) -0.2387(6)
B34 B -0.2128(6) -0.6375(3) -0.3743(7)
H50 H -0.307799 -0.655013 -0.371251
B35 B -0.0638(7) -0.5817(4) -0.5224(7)
H51 H -0.055408 -0.563823 -0.610181
B36 B 0.0590(7) -0.5824(4) -0.3882(7)
H52 H 0.153507 -0.564684 -0.392458
B37 B 0.0437(6) -0.6453(3) -0.2922(7)
H53 H 0.125256 -0.668683 -0.235875
B38 B -0.0877(7) -0.6837(4) -0.3699(7)
H54 H -0.094513 -0.731708 -0.363631
B39 B -0.1557(7) -0.6442(4) -0.5125(7)
H55 H -0.208802 -0.665893 -0.594804
B40 B 0.0057(7) -0.6495(4) -0.4622(7)
H56 H 0.062904 -0.675446 -0.512647
loop_
_geom_bond_atom_site_label_1
_geom_bond_atom_site_label_2
_geom_bond_site_symmetry_1
_geom_bond_site_symmetry_2
O1 C3 1_555 1_555
C1 C2 1_555 1_555
C2 H1 1_555 1_555
C3 C1 1_555 1_555
C4 C3 1_555 1_555
C5 C4 1_555 1_555
H2 C5 1_555 1_555
C6 C5 1_555 1_555
H3 C6 1_555 1_555
C7 C6 1_555 1_555
H4 C7 1_555 1_555
C8 C7 1_555 1_555
H5 C8 1_555 1_555
C9 C4 1_555 1_555
B1 C1 1_555 1_555
H6 B1 1_555 1_555
B2 C1 1_555 1_555
H7 B2 1_555 1_555
B3 C1 1_555 1_555
B4 C1 1_555 1_555
H8 B4 1_555 1_555
B5 C2 1_555 1_555
H9 B5 1_555 1_555
B6 B1 1_555 1_555
H10 B6 1_555 1_555
B7 B2 1_555 1_555
H11 B7 1_555 1_555
B8 B3 1_555 1_555
H12 B8 1_555 1_555
B9 C2 1_555 1_555
H13 B9 1_555 1_555
B10 B5 1_555 1_555
H14 B10 1_555 1_555
O2 C12 1_555 1_555
C10 C11 1_555 1_555
C11 H15 1_555 1_555
C12 C10 1_555 1_555
C13 C12 1_555 1_555
C14 C13 1_555 1_555
H16 C14 1_555 1_555
C15 C14 1_555 1_555
H17 C15 1_555 1_555
C16 C15 1_555 1_555
H18 C16 1_555 1_555
C17 C16 1_555 1_555
H19 C17 1_555 1_555
C18 C13 1_555 1_555
B11 C10 1_555 1_555
H20 B11 1_555 1_555
B12 C10 1_555 1_555
H21 B12 1_555 1_555
B13 C10 1_555 1_555
B14 C10 1_555 1_555
H22 B14 1_555 1_555
B15 C11 1_555 1_555
H23 B15 1_555 1_555
B16 B11 1_555 1_555
H24 B16 1_555 1_555
B17 B12 1_555 1_555
H25 B17 1_555 1_555
B18 B13 1_555 1_555
H26 B18 1_555 1_555
B19 C11 1_555 1_555
H27 B19 1_555 1_555
B20 B15 1_555 1_555
H28 B20 1_555 1_555
O3 C21 1_555 1_555
C19 C20 1_555 1_555
C20 H29 1_555 1_555
C21 C19 1_555 1_555
C22 C21 1_555 1_555
C23 C22 1_555 1_555
H30 C23 1_555 1_555
C24 C23 1_555 1_555
H31 C24 1_555 1_555
C25 C24 1_555 1_555
H32 C25 1_555 1_555
C26 C25 1_555 1_555
H33 C26 1_555 1_555
C27 C22 1_555 1_555
B21 C19 1_555 1_555
H34 B21 1_555 1_555
B22 C19 1_555 1_555
H35 B22 1_555 1_555
B23 C19 1_555 1_555
B24 C19 1_555 1_555
H36 B24 1_555 1_555
B25 C20 1_555 1_555
H37 B25 1_555 1_555
B26 B21 1_555 1_555
H38 B26 1_555 1_555
B27 B22 1_555 1_555
H39 B27 1_555 1_555
B28 B23 1_555 1_555
H40 B28 1_555 1_555
B29 C20 1_555 1_555
H41 B29 1_555 1_555
B30 B25 1_555 1_555
H42 B30 1_555 1_555
O4 C30 1_555 1_555
C28 C29 1_555 1_555
C29 H43 1_555 1_555
C30 C28 1_555 1_555
C31 C30 1_555 1_555
C32 C31 1_555 1_555
H44 C32 1_555 1_555
C33 C32 1_555 1_555
H45 C33 1_555 1_555
C34 C33 1_555 1_555
H46 C34 1_555 1_555
C35 C34 1_555 1_555
H47 C35 1_555 1_555
C36 C31 1_555 1_555
B31 C28 1_555 1_555
H48 B31 1_555 1_555
B32 C28 1_555 1_555
H49 B32 1_555 1_555
B33 C28 1_555 1_555
B34 C28 1_555 1_555
H50 B34 1_555 1_555
B35 C29 1_555 1_555
H51 B35 1_555 1_555
B36 B31 1_555 1_555
H52 B36 1_555 1_555
B37 B32 1_555 1_555
H53 B37 1_555 1_555
B38 B33 1_555 1_555
H54 B38 1_555 1_555
B39 C29 1_555 1_555
H55 B39 1_555 1_555
B40 B35 1_555 1_555
H56 B40 1_555 1_555
C2 B1 1_555 1_555
C2 B4 1_555 1_555
C8 C9 1_555 1_555
C9 B3 1_555 1_555
B1 B2 1_555 1_555
B1 B5 1_555 1_555
B2 B3 1_555 1_555
B2 B6 1_555 1_555
B3 B4 1_555 1_555
B3 B7 1_555 1_555
B4 B8 1_555 1_555
B4 B9 1_555 1_555
B5 B6 1_555 1_555
B5 B9 1_555 1_555
B6 B7 1_555 1_555
B6 B10 1_555 1_555
B7 B8 1_555 1_555
B7 B10 1_555 1_555
B8 B9 1_555 1_555
B8 B10 1_555 1_555
B9 B10 1_555 1_555
C11 B11 1_555 1_555
C11 B14 1_555 1_555
C17 C18 1_555 1_555
C18 B13 1_555 1_555
B11 B12 1_555 1_555
B11 B15 1_555 1_555
B12 B13 1_555 1_555
B12 B16 1_555 1_555
B13 B14 1_555 1_555
B13 B17 1_555 1_555
B14 B18 1_555 1_555
B14 B19 1_555 1_555
B15 B16 1_555 1_555
B15 B19 1_555 1_555
B16 B17 1_555 1_555
B16 B20 1_555 1_555
B17 B18 1_555 1_555
B17 B20 1_555 1_555
B18 B19 1_555 1_555
B18 B20 1_555 1_555
B19 B20 1_555 1_555
C20 B21 1_555 1_555
C20 B24 1_555 1_555
C26 C27 1_555 1_555
C27 B23 1_555 1_555
B21 B22 1_555 1_555
B21 B25 1_555 1_555
B22 B23 1_555 1_555
B22 B26 1_555 1_555
B23 B24 1_555 1_555
B23 B27 1_555 1_555
B24 B28 1_555 1_555
B24 B29 1_555 1_555
B25 B26 1_555 1_555
B25 B29 1_555 1_555
B26 B27 1_555 1_555
B26 B30 1_555 1_555
B27 B28 1_555 1_555
B27 B30 1_555 1_555
B28 B29 1_555 1_555
B28 B30 1_555 1_555
B29 B30 1_555 1_555
C29 B31 1_555 1_555
C29 B34 1_555 1_555
C35 C36 1_555 1_555
C36 B33 1_555 1_555
B31 B32 1_555 1_555
B31 B35 1_555 1_555
B32 B33 1_555 1_555
B32 B36 1_555 1_555
B33 B34 1_555 1_555
B33 B37 1_555 1_555
B34 B38 1_555 1_555
B34 B39 1_555 1_555
B35 B36 1_555 1_555
B35 B39 1_555 1_555
B36 B37 1_555 1_555
B36 B40 1_555 1_555
B37 B38 1_555 1_555
B37 B40 1_555 1_555
B38 B39 1_555 1_555
B38 B40 1_555 1_555
B39 B40 1_555 1_555

#END
