
#######################################################################
#
#                 Cambridge Crystallographic Data Centre
#                                CCDC 
#
#######################################################################
#
# If this CIF has been generated from an entry in the Cambridge 
# Structural Database, then it will include bibliographic, chemical, 
# crystal, experimental, refinement or atomic coordinate data resulting 
# from the CCDC's data processing and validation procedures.
#
#######################################################################

data_NEXBAW
_chemical_formula_moiety         'C18 H22 O7'
_chemical_name_systematic        
8-[(3,4,5-trimethoxyphenyl)methyl]-6,10-dioxaspiro[4.5]decane-7,9-dione
_symmetry_cell_setting           triclinic
_symmetry_space_group_name_H-M   'P -1'
_symmetry_Int_Tables_number      2
_space_group_name_Hall           '-P 1'
loop_
_symmetry_equiv_pos_site_id
_symmetry_equiv_pos_as_xyz
1 x,y,z
2 -x,-y,-z
_cell_length_a                   8.8778(18)
_cell_length_b                   9.5285(19)
_cell_length_c                   11.082(2)
_cell_angle_alpha                89.69(3)
_cell_angle_beta                 67.38(3)
_cell_angle_gamma                81.68(3)
_cell_volume                     854.934
_cell_formula_units_Z            2
loop_
_atom_site_label
_atom_site_type_symbol
_atom_site_fract_x
_atom_site_fract_y
_atom_site_fract_z
O1 O 0.42262(15) 0.02420(12) 0.33216(12)
C1 C 0.5807(2) -0.17581(16) 0.38970(14)
H1 H 0.4860 -0.2149 0.4358
C2 C 0.7340(2) -0.24598(16) 0.38018(15)
O2 O 0.89779(17) -0.35921(14) 0.71766(12)
O3 O 0.69089(19) 0.14196(14) 0.20901(14)
C3 C 0.5680(2) -0.04775(16) 0.33091(14)
C4 C 0.7083(2) 0.01308(17) 0.26404(15)
O4 O 0.6842(2) -0.49457(14) 0.78690(13)
C5 C 0.7295(2) -0.36339(15) 0.58970(15)
H2 H 0.6531 -0.2753 0.6277
O5 O 1.01299(17) -0.32577(16) 0.50736(14)
C6 C 0.8914(2) -0.34613(17) 0.59813(17)
C7 C 0.7407(2) -0.38331(17) 0.44900(16)
H3 H 0.8432 -0.4447 0.3986
H4 H 0.6506 -0.4310 0.4506
C8 C 0.8627(2) -0.0623(2) 0.24728(17)
O6 O 0.5805(2) -0.56135(16) 0.65002(16)
C9 C 0.8745(2) -0.1904(2) 0.30689(17)
H5 H 0.9777 -0.2386 0.2972
O7 O 0.9976(2) -0.00126(18) 0.17193(16)
C10 C 0.6579(2) -0.48160(18) 0.67463(18)
C11 C 0.7547(3) -0.38753(19) 0.82676(18)
C12 C 0.2787(2) -0.0396(2) 0.3933(2)
H6 H 0.1853 0.0204 0.3876
H7 H 0.2605 -0.0518 0.4837
H8 H 0.2931 -0.1305 0.3501
C13 C 0.7494(3) 0.2552(2) 0.2535(2)
H9 H 0.7328 0.3393 0.2093
H10 H 0.8650 0.2292 0.2349
H11 H 0.6898 0.2732 0.3462
C14 C 0.8128(4) -0.4469(3) 0.9324(2)
H12 H 0.7599 -0.5279 0.9700
H13 H 0.9316 -0.4758 0.8968
C15 C 0.6325(3) -0.2522(2) 0.8887(2)
H14 H 0.6771 -0.1692 0.8470
H15 H 0.5288 -0.2555 0.8794
C16 C 0.7628(4) -0.3267(4) 1.0327(3)
H16 H 0.7444 -0.3621 1.1187
H17 H 0.8477 -0.2664 1.0110
C17 C 1.1451(3) -0.0930(3) 0.1058(2)
H18 H 1.2298 -0.0386 0.0572
H19 H 1.1292 -0.1571 0.0468
H20 H 1.1776 -0.1461 0.1680
C18 C 0.6070(3) -0.2463(3) 1.0303(2)
H21 H 0.5898 -0.1489 1.0637
H22 H 0.5126 -0.2906 1.0824
loop_
_geom_bond_atom_site_label_1
_geom_bond_atom_site_label_2
_geom_bond_site_symmetry_1
_geom_bond_site_symmetry_2
O1 C3 1_555 1_555
C1 H1 1_555 1_555
C2 C1 1_555 1_555
O2 C6 1_555 1_555
O3 C4 1_555 1_555
C3 C1 1_555 1_555
C4 C3 1_555 1_555
O4 C10 1_555 1_555
C5 H2 1_555 1_555
O5 C6 1_555 1_555
C6 C5 1_555 1_555
C7 C2 1_555 1_555
H3 C7 1_555 1_555
H4 C7 1_555 1_555
C8 C4 1_555 1_555
O6 C10 1_555 1_555
C9 C2 1_555 1_555
H5 C9 1_555 1_555
O7 C8 1_555 1_555
C10 C5 1_555 1_555
C11 O2 1_555 1_555
C12 O1 1_555 1_555
H6 C12 1_555 1_555
H7 C12 1_555 1_555
H8 C12 1_555 1_555
C13 O3 1_555 1_555
H9 C13 1_555 1_555
H10 C13 1_555 1_555
H11 C13 1_555 1_555
C14 C11 1_555 1_555
H12 C14 1_555 1_555
H13 C14 1_555 1_555
C15 C11 1_555 1_555
H14 C15 1_555 1_555
H15 C15 1_555 1_555
C16 C14 1_555 1_555
H16 C16 1_555 1_555
H17 C16 1_555 1_555
C17 O7 1_555 1_555
H18 C17 1_555 1_555
H19 C17 1_555 1_555
H20 C17 1_555 1_555
C18 C15 1_555 1_555
H21 C18 1_555 1_555
H22 C18 1_555 1_555
O4 C11 1_555 1_555
C5 C7 1_555 1_555
C8 C9 1_555 1_555
C16 C18 1_555 1_555

#END
