
#######################################################################
#
#                 Cambridge Crystallographic Data Centre
#                                CCDC 
#
#######################################################################
#
# If this CIF has been generated from an entry in the Cambridge 
# Structural Database, then it will include bibliographic, chemical, 
# crystal, experimental, refinement or atomic coordinate data resulting 
# from the CCDC's data processing and validation procedures.
#
#######################################################################

data_NEXFOO
_chemical_formula_moiety         'C49 H48 N2'
_chemical_name_systematic        
1,3-bis[4-methyl-2,6-bis(1-phenylethyl)phenyl]imidazol-2-ylidene
_symmetry_cell_setting           orthorhombic
_symmetry_space_group_name_H-M   'P 21 21 21'
_symmetry_Int_Tables_number      19
_space_group_name_Hall           'P 2ac 2ab'
loop_
_symmetry_equiv_pos_site_id
_symmetry_equiv_pos_as_xyz
1 x,y,z
2 1/2-x,-y,1/2+z
3 -x,1/2+y,1/2-z
4 1/2+x,1/2-y,-z
_cell_length_a                   11.6720(4)
_cell_length_b                   18.1421(5)
_cell_length_c                   18.3663(5)
_cell_angle_alpha                90
_cell_angle_beta                 90
_cell_angle_gamma                90
_cell_volume                     3889.15
_exptl_crystal_colour            colorless
_exptl_crystal_description       prism
_cell_formula_units_Z            4
loop_
_atom_site_label
_atom_site_type_symbol
_atom_site_fract_x
_atom_site_fract_y
_atom_site_fract_z
N1 N 0.3194(3) 0.30237(15) 0.40398(16)
N2 N 0.3180(3) 0.22037(15) 0.48561(15)
C1 C 0.2439(3) 0.25923(19) 0.44214(19)
C2 C 0.4317(3) 0.2392(2) 0.4750(2)
H1 H 0.496114 0.219279 0.499709
C3 C 0.4330(3) 0.2908(2) 0.4234(2)
H2 H 0.498488 0.314820 0.403857
C4 C 0.2823(3) 0.35136(19) 0.3465(2)
C5 C 0.2975(3) 0.32973(19) 0.27442(19)
C6 C 0.2553(4) 0.3756(2) 0.2204(2)
H3 H 0.264117 0.361372 0.170929
C7 C 0.2004(4) 0.4418(2) 0.2360(2)
C8 C 0.1886(4) 0.46212(19) 0.3082(2)
H4 H 0.152297 0.507547 0.319635
C9 C 0.2285(3) 0.41772(19) 0.3646(2)
C10 C 0.3634(4) 0.2606(2) 0.2529(2)
H5 H 0.380144 0.232691 0.298612
C11 C 0.2925(4) 0.21029(19) 0.2041(2)
C12 C 0.1998(4) 0.1733(2) 0.2348(2)
H6 H 0.183227 0.179333 0.285079
C13 C 0.1317(5) 0.1278(3) 0.1927(3)
H7 H 0.068614 0.102958 0.214328
C14 C 0.1544(5) 0.1181(3) 0.1196(3)
H8 H 0.106828 0.087406 0.090569
C15 C 0.2468(5) 0.1536(3) 0.0894(3)
H9 H 0.263559 0.146811 0.039254
C16 C 0.3157(4) 0.1989(2) 0.1309(2)
H10 H 0.379744 0.222571 0.109053
C17 C 0.4788(4) 0.2834(3) 0.2200(3)
H11 H 0.465518 0.312550 0.175837
H12 H 0.522996 0.239206 0.207606
H13 H 0.521524 0.312978 0.255369
C18 C 0.1562(4) 0.4903(2) 0.1760(2)
H14 H 0.079168 0.507770 0.188450
H15 H 0.153020 0.462138 0.130503
H16 H 0.207445 0.532606 0.169883
C19 C 0.2097(4) 0.4414(2) 0.4437(2)
H17 H 0.252947 0.405934 0.475092
C20 C 0.2583(4) 0.5179(2) 0.4585(2)
C21 C 0.3753(4) 0.5292(2) 0.4537(2)
H18 H 0.423075 0.489425 0.439224
C22 C 0.4248(5) 0.5966(3) 0.4691(3)
H19 H 0.505405 0.602651 0.465342
C23 C 0.3573(6) 0.6544(3) 0.4899(3)
H20 H 0.391194 0.700744 0.500546
C24 C 0.2423(7) 0.6458(3) 0.4955(3)
H21 H 0.196121 0.686250 0.510265
C25 C 0.1905(5) 0.5772(2) 0.4795(3)
H22 H 0.109707 0.571637 0.483006
C26 C 0.0849(4) 0.4338(3) 0.4629(3)
H23 H 0.039429 0.466889 0.432227
H24 H 0.073648 0.446765 0.514228
H25 H 0.060383 0.382776 0.454848
C27 C 0.2771(3) 0.16694(18) 0.53854(18)
C28 C 0.2909(3) 0.18266(18) 0.61255(19)
C29 C 0.2469(3) 0.1333(2) 0.6633(2)
H26 H 0.254943 0.144092 0.713610
C30 C 0.1913(4) 0.06832(19) 0.6427(2)
C31 C 0.1821(3) 0.05397(19) 0.5681(2)
H27 H 0.146487 0.009484 0.552884
C32 C 0.2232(3) 0.10230(19) 0.51533(19)
C33 C 0.3503(3) 0.25201(19) 0.64076(19)
H28 H 0.376248 0.280988 0.597476
C34 C 0.2662(3) 0.29926(19) 0.6824(2)
C35 C 0.2788(4) 0.3171(2) 0.7559(2)
H29 H 0.341806 0.297645 0.782470
C36 C 0.2013(5) 0.3624(2) 0.7906(3)
H30 H 0.210894 0.373337 0.840799
C37 C 0.1102(6) 0.3919(3) 0.7532(3)
H31 H 0.057950 0.423886 0.777161
C38 C 0.0951(5) 0.3747(3) 0.6804(3)
H32 H 0.031429 0.394111 0.654427
C39 C 0.1735(4) 0.3288(2) 0.6451(3)
H33 H 0.163238 0.317647 0.594978
C40 C 0.4574(4) 0.2303(2) 0.6841(2)
H34 H 0.435882 0.196074 0.723063
H35 H 0.491955 0.274570 0.705443
H36 H 0.512661 0.206499 0.651610
C41 C 0.1417(4) 0.0175(2) 0.6984(2)
H37 H 0.060536 0.029161 0.705642
H38 H 0.182917 0.023485 0.744528
H39 H 0.149210 -0.033570 0.681621
C42 C 0.2032(3) 0.08417(19) 0.43513(19)
H40 H 0.256187 0.115897 0.406032
C43 C 0.2332(3) 0.0041(2) 0.41822(19)
C44 C 0.3464(4) -0.0182(2) 0.4222(2)
H41 H 0.403318 0.016392 0.436298
C45 C 0.3783(4) -0.0898(3) 0.4060(3)
H42 H 0.456563 -0.103957 0.408478
C46 C 0.2949(4) -0.1411(2) 0.3861(2)
H43 H 0.315833 -0.190430 0.374968
C47 C 0.1842(4) -0.1199(2) 0.3827(2)
H44 H 0.127365 -0.154846 0.369211
C48 C 0.1516(4) -0.0480(2) 0.3985(2)
H45 H 0.073086 -0.034316 0.395798
C49 C 0.0805(3) 0.1056(2) 0.4140(2)
H46 H 0.068645 0.095888 0.362048
H47 H 0.068472 0.158077 0.423844
H48 H 0.026054 0.076370 0.442596
loop_
_geom_bond_atom_site_label_1
_geom_bond_atom_site_label_2
_geom_bond_site_symmetry_1
_geom_bond_site_symmetry_2
N1 C1 1_555 1_555
N2 C1 1_555 1_555
C2 N2 1_555 1_555
H1 C2 1_555 1_555
C3 N1 1_555 1_555
H2 C3 1_555 1_555
C4 N1 1_555 1_555
C5 C4 1_555 1_555
C6 C5 1_555 1_555
H3 C6 1_555 1_555
C7 C6 1_555 1_555
C8 C7 1_555 1_555
H4 C8 1_555 1_555
C9 C4 1_555 1_555
C10 C5 1_555 1_555
H5 C10 1_555 1_555
C11 C10 1_555 1_555
C12 C11 1_555 1_555
H6 C12 1_555 1_555
C13 C12 1_555 1_555
H7 C13 1_555 1_555
C14 C13 1_555 1_555
H8 C14 1_555 1_555
C15 C14 1_555 1_555
H9 C15 1_555 1_555
C16 C11 1_555 1_555
H10 C16 1_555 1_555
C17 C10 1_555 1_555
H11 C17 1_555 1_555
H12 C17 1_555 1_555
H13 C17 1_555 1_555
C18 C7 1_555 1_555
H14 C18 1_555 1_555
H15 C18 1_555 1_555
H16 C18 1_555 1_555
C19 C9 1_555 1_555
H17 C19 1_555 1_555
C20 C19 1_555 1_555
C21 C20 1_555 1_555
H18 C21 1_555 1_555
C22 C21 1_555 1_555
H19 C22 1_555 1_555
C23 C22 1_555 1_555
H20 C23 1_555 1_555
C24 C23 1_555 1_555
H21 C24 1_555 1_555
C25 C20 1_555 1_555
H22 C25 1_555 1_555
C26 C19 1_555 1_555
H23 C26 1_555 1_555
H24 C26 1_555 1_555
H25 C26 1_555 1_555
C27 N2 1_555 1_555
C28 C27 1_555 1_555
C29 C28 1_555 1_555
H26 C29 1_555 1_555
C30 C29 1_555 1_555
C31 C30 1_555 1_555
H27 C31 1_555 1_555
C32 C27 1_555 1_555
C33 C28 1_555 1_555
H28 C33 1_555 1_555
C34 C33 1_555 1_555
C35 C34 1_555 1_555
H29 C35 1_555 1_555
C36 C35 1_555 1_555
H30 C36 1_555 1_555
C37 C36 1_555 1_555
H31 C37 1_555 1_555
C38 C37 1_555 1_555
H32 C38 1_555 1_555
C39 C34 1_555 1_555
H33 C39 1_555 1_555
C40 C33 1_555 1_555
H34 C40 1_555 1_555
H35 C40 1_555 1_555
H36 C40 1_555 1_555
C41 C30 1_555 1_555
H37 C41 1_555 1_555
H38 C41 1_555 1_555
H39 C41 1_555 1_555
C42 C32 1_555 1_555
H40 C42 1_555 1_555
C43 C42 1_555 1_555
C44 C43 1_555 1_555
H41 C44 1_555 1_555
C45 C44 1_555 1_555
H42 C45 1_555 1_555
C46 C45 1_555 1_555
H43 C46 1_555 1_555
C47 C46 1_555 1_555
H44 C47 1_555 1_555
C48 C43 1_555 1_555
H45 C48 1_555 1_555
C49 C42 1_555 1_555
H46 C49 1_555 1_555
H47 C49 1_555 1_555
H48 C49 1_555 1_555
C2 C3 1_555 1_555
C8 C9 1_555 1_555
C15 C16 1_555 1_555
C24 C25 1_555 1_555
C31 C32 1_555 1_555
C38 C39 1_555 1_555
C47 C48 1_555 1_555

#END
