
#######################################################################
#
#                 Cambridge Crystallographic Data Centre
#                                CCDC 
#
#######################################################################
#
# If this CIF has been generated from an entry in the Cambridge 
# Structural Database, then it will include bibliographic, chemical, 
# crystal, experimental, refinement or atomic coordinate data resulting 
# from the CCDC's data processing and validation procedures.
#
#######################################################################

data_NEXGUU
_chemical_formula_moiety         'C18 H17 N4 1+,3(H2 O1),Cl1 1-'
_chemical_name_systematic        
'Pyridin-2-ium pyridin-2-yl ketone 4-methylphenylhydrazone chloride trihydrate'
_symmetry_cell_setting           triclinic
_symmetry_space_group_name_H-M   'P -1'
_symmetry_Int_Tables_number      2
_space_group_name_Hall           '-P 1'
loop_
_symmetry_equiv_pos_site_id
_symmetry_equiv_pos_as_xyz
1 x,y,z
2 -x,-y,-z
_cell_length_a                   8.1352(2)
_cell_length_b                   10.0278(3)
_cell_length_c                   12.1482(4)
_cell_angle_alpha                106.4290(14)
_cell_angle_beta                 92.8080(18)
_cell_angle_gamma                90.3920(18)
_cell_volume                     949.202
_exptl_crystal_colour            orange
_exptl_crystal_description       block
_cell_formula_units_Z            2
loop_
_atom_site_label
_atom_site_type_symbol
_atom_site_fract_x
_atom_site_fract_y
_atom_site_fract_z
O1 O 0.92951(19) 0.76500(18) 0.91240(14)
H1 H 0.865(3) 0.718(3) 0.941(2)
H2 H 1.0293(16) 0.752(3) 0.933(2)
O2 O 0.20688(17) 0.31337(15) 0.31448(12)
H3 H 0.2995(18) 0.274(2) 0.302(2)
H4 H 0.159(3) 0.296(3) 0.2481(12)
O3 O 0.68935(18) 0.61293(17) 0.98641(15)
H5 H 0.696(3) 0.5314(15) 0.995(3)
H6 H 0.5884(15) 0.631(3) 0.977(3)
Cl1 Cl 0.31214(6) 0.68022(5) 0.95610(4)
N1 N 0.24684(15) 0.55782(13) 0.58714(11)
N2 N 0.18061(17) 0.54190(14) 0.68033(12)
H7 H 0.201(2) 0.597(2) 0.7437(17)
C1 C 0.08978(18) 0.41972(16) 0.67441(14)
C2 C 0.0355(2) 0.40254(18) 0.77643(15)
H8 H 0.0586 0.4710 0.8454
C3 C -0.0525(2) 0.28416(19) 0.77548(16)
H9 H -0.0886 0.2740 0.8442
C4 C -0.08837(19) 0.17994(18) 0.67438(16)
C5 C -0.0337(2) 0.19961(17) 0.57315(15)
H10 H -0.0568 0.1312 0.5042
C6 C 0.05401(19) 0.31819(17) 0.57204(14)
H11 H 0.0884 0.3293 0.5032
C7 C -0.1854(2) 0.0516(2) 0.6738(2)
H12 H -0.2967 0.0760 0.6923
H13 H -0.1364 0.0108 0.7298
H14 H -0.1851 -0.0141 0.5990
C8 C 0.32992(17) 0.67139(16) 0.59262(13)
C9 C 0.39975(17) 0.67791(16) 0.48564(13)
N3 N 0.36215(16) 0.57310(15) 0.38906(12)
H15 H 0.294(2) 0.501(2) 0.3934(16)
C10 C 0.4163(2) 0.5704(2) 0.28601(15)
H16 H 0.3843 0.4973 0.2220
C11 C 0.5179(2) 0.6737(2) 0.27379(16)
H17 H 0.5559 0.6716 0.2024
C12 C 0.5627(2) 0.7813(2) 0.37021(16)
H18 H 0.6332 0.8521 0.3644
C13 C 0.5028(2) 0.78398(18) 0.47514(14)
H19 H 0.5318 0.8576 0.5395
C14 C 0.34468(19) 0.79630(16) 0.69541(13)
N4 N 0.49606(17) 0.83747(16) 0.74194(12)
C15 C 0.5072(3) 0.9512(2) 0.83235(16)
H20 H 0.6111 0.9805 0.8664
C16 C 0.3741(3) 1.0268(2) 0.87764(17)
H21 H 0.3884 1.1064 0.9395
C17 C 0.2204(3) 0.9833(2) 0.83032(18)
H22 H 0.1281 1.0320 0.8600
C18 C 0.2043(2) 0.86558(18) 0.73769(15)
H23 H 0.1009 0.8334 0.7043
loop_
_geom_bond_atom_site_label_1
_geom_bond_atom_site_label_2
_geom_bond_site_symmetry_1
_geom_bond_site_symmetry_2
O1 H1 1_555 1_555
H2 O1 1_555 1_555
O2 H3 1_555 1_555
H4 O2 1_555 1_555
O3 H5 1_555 1_555
H6 O3 1_555 1_555
N1 N2 1_555 1_555
N2 H7 1_555 1_555
C1 N2 1_555 1_555
C2 C1 1_555 1_555
H8 C2 1_555 1_555
C3 C2 1_555 1_555
H9 C3 1_555 1_555
C4 C3 1_555 1_555
C5 C4 1_555 1_555
H10 C5 1_555 1_555
C6 C1 1_555 1_555
H11 C6 1_555 1_555
C7 C4 1_555 1_555
H12 C7 1_555 1_555
H13 C7 1_555 1_555
H14 C7 1_555 1_555
C8 N1 1_555 1_555
C9 C8 1_555 1_555
N3 C9 1_555 1_555
H15 N3 1_555 1_555
C10 N3 1_555 1_555
H16 C10 1_555 1_555
C11 C10 1_555 1_555
H17 C11 1_555 1_555
C12 C11 1_555 1_555
H18 C12 1_555 1_555
C13 C9 1_555 1_555
H19 C13 1_555 1_555
C14 C8 1_555 1_555
N4 C14 1_555 1_555
C15 N4 1_555 1_555
H20 C15 1_555 1_555
C16 C15 1_555 1_555
H21 C16 1_555 1_555
C17 C16 1_555 1_555
H22 C17 1_555 1_555
C18 C14 1_555 1_555
H23 C18 1_555 1_555
C5 C6 1_555 1_555
C12 C13 1_555 1_555
C17 C18 1_555 1_555

#END
