
#######################################################################
#
#                 Cambridge Crystallographic Data Centre
#                                CCDC 
#
#######################################################################
#
# If this CIF has been generated from an entry in the Cambridge 
# Structural Database, then it will include bibliographic, chemical, 
# crystal, experimental, refinement or atomic coordinate data resulting 
# from the CCDC's data processing and validation procedures.
#
#######################################################################

data_NEXKOT
_chemical_formula_moiety         'C98 H108 N6 O8'
_chemical_name_systematic        
"5,5'-(1,3-phenylene)bis[2,8-bis(undecan-6-yl)-1H-2,5,8-triazadibenzo[cd,lm]cyclopenta[ghi]perylene-1,3,7,9(2H,5H,8H)-tetrone] unknown solvate"
_symmetry_cell_setting           orthorhombic
_symmetry_space_group_name_H-M   'P b c a'
_symmetry_Int_Tables_number      61
_space_group_name_Hall           '-P 2ac 2ab'
loop_
_symmetry_equiv_pos_site_id
_symmetry_equiv_pos_as_xyz
1 x,y,z
2 1/2-x,-y,1/2+z
3 -x,1/2+y,1/2-z
4 1/2+x,1/2-y,-z
5 -x,-y,-z
6 1/2+x,y,1/2-z
7 x,1/2-y,1/2+z
8 1/2-x,1/2+y,z
_cell_length_a                   31.2690(3)
_cell_length_b                   45.0568(3)
_cell_length_c                   51.2341(4)
_cell_angle_alpha                90
_cell_angle_beta                 90
_cell_angle_gamma                90
_cell_volume                     72182.8
_exptl_crystal_colour            red
_exptl_crystal_description       block
_cell_formula_units_Z            32
loop_
_atom_site_label
_atom_site_type_symbol
_atom_site_fract_x
_atom_site_fract_y
_atom_site_fract_z
N1 N 0.29210(11) 0.59584(6) 0.42522(6)
N2 N 0.26498(10) 0.66426(6) 0.49659(6)
N3 N 0.15383(13) 0.49565(8) 0.41472(9)
N4 N 0.48879(16) 0.57703(10) 0.43386(13)
N5 N 0.31166(11) 0.79428(7) 0.52944(6)
N6 N 0.20154(16) 0.56431(9) 0.57294(9)
O1 O 0.17092(12) 0.44671(7) 0.41403(8)
O2 O 0.13665(12) 0.54487(7) 0.41571(9)
O3 O 0.5175(2) 0.53215(14) 0.43397(17)
O4 O 0.45820(11) 0.62227(6) 0.43420(7)
O5 O 0.31837(9) 0.77763(5) 0.48761(5)
O6 O 0.31248(13) 0.80955(7) 0.57163(6)
O7 O 0.20115(15) 0.55946(7) 0.52891(8)
O8 O 0.20466(16) 0.56911(9) 0.61722(8)
C1 C 0.1083(2) 0.48838(13) 0.41303(14)
H1 H 0.1116 0.4668 0.4137
C2 C 0.0848(3) 0.4915(3) 0.4368(2)
H2 H 0.0661 0.4744 0.4374
H3 H 0.0664 0.5085 0.4341
C3 C 0.1007(3) 0.4947(2) 0.4630(2)
H4 H 0.1174 0.5128 0.4631
H5 H 0.1209 0.4786 0.4655
C4 C 0.0743(5) 0.4956(4) 0.4864(3)
H6 H 0.0892 0.4856 0.5005
H7 H 0.0479 0.4848 0.4832
C5 C 0.0635(7) 0.5270(4) 0.4948(4)
H8 H 0.0779 0.5408 0.4836
H9 H 0.0727 0.5300 0.5125
H10 H 0.0332 0.5300 0.4937
C6 C 0.0901(3) 0.4901(3) 0.3859(2)
H11 H 0.0612 0.4822 0.3866
H12 H 0.0877 0.5109 0.3814
C7 C 0.1115(3) 0.47547(19) 0.36432(18)
H13 H 0.1212 0.4564 0.3708
H14 H 0.1370 0.4870 0.3605
C8 C 0.0902(5) 0.4699(3) 0.3391(3)
H15 H 0.0752 0.4877 0.3338
H16 H 0.0690 0.4544 0.3415
C9 C 0.1215(6) 0.4602(3) 0.3162(3)
H17 H 0.1397 0.4768 0.3116
H18 H 0.1397 0.4442 0.3223
C10 C 0.0973(8) 0.4502(5) 0.2927(5)
H19 H 0.0846 0.4671 0.2843
H20 H 0.0752 0.4366 0.2978
H21 H 0.1164 0.4405 0.2808
C11 C 0.5303(3) 0.59145(17) 0.4460(2)
H22 H 0.5463 0.5752 0.4542
C12 C 0.5286(3) 0.6167(2) 0.4663(2)
H23 H 0.5159 0.6339 0.4580
H24 H 0.5578 0.6219 0.4709
C13 C 0.5037(3) 0.6105(2) 0.4920(2)
H25 H 0.4743 0.6055 0.4878
H26 H 0.5164 0.5936 0.5008
C14 C 0.5042(4) 0.6369(3) 0.5100(3)
H27 H 0.4915 0.6537 0.5011
H28 H 0.5337 0.6419 0.5139
C15 C 0.4800(4) 0.6318(3) 0.5362(3)
H29 H 0.4493 0.6310 0.5334
H30 H 0.4891 0.6135 0.5445
C16 C 0.4919(5) 0.6585(3) 0.5528(3)
H31 H 0.5101 0.6715 0.5429
H32 H 0.5068 0.6519 0.5681
H33 H 0.4665 0.6689 0.5578
C17 C 0.5496(4) 0.5962(3) 0.4208(3)
H34 H 0.5790 0.6009 0.4251
H35 H 0.5506 0.5763 0.4134
C18 C 0.5412(4) 0.6145(2) 0.3984(3)
H36 H 0.5280 0.6329 0.4041
H37 H 0.5213 0.6044 0.3870
C19 C 0.5832(6) 0.6219(4) 0.3828(4)
H38 H 0.5934 0.6053 0.3725
H39 H 0.6060 0.6294 0.3939
C20 C 0.5617(7) 0.6470(5) 0.3657(4)
H40 H 0.5725 0.6459 0.3482
H41 H 0.5683 0.6661 0.3730
H42 H 0.5313 0.6442 0.3655
C21 C 0.31792(16) 0.82564(9) 0.52012(9)
H43 H 0.3164 0.8377 0.5360
C22 C 0.36211(18) 0.83125(11) 0.50945(11)
H44 H 0.3629 0.8258 0.4911
H45 H 0.3825 0.8189 0.5186
C23 C 0.3748(2) 0.86351(13) 0.51237(14)
H46 H 0.3582 0.8751 0.5001
H47 H 0.3669 0.8700 0.5298
C24 C 0.4216(2) 0.87053(16) 0.50821(16)
H48 H 0.4299 0.8647 0.4907
H49 H 0.4387 0.8592 0.5205
C25 C 0.4307(3) 0.9043(2) 0.5121(2)
H50 H 0.4155 0.9156 0.4989
H51 H 0.4205 0.9106 0.5291
C26 C 0.4775(4) 0.9103(3) 0.5099(3)
H52 H 0.4926 0.8988 0.5228
H53 H 0.4828 0.9311 0.5129
H54 H 0.4873 0.9050 0.4928
C27 C 0.28131(16) 0.83583(11) 0.50389(11)
H55 H 0.2814 0.8246 0.4877
H56 H 0.2859 0.8565 0.4994
C28 C 0.2378(2) 0.83304(14) 0.51608(14)
H57 H 0.2329 0.8122 0.5197
H58 H 0.2386 0.8432 0.5328
C29 C 0.2003(3) 0.8442(2) 0.50168(19)
H59 H 0.1988 0.8341 0.4850
H60 H 0.2045 0.8652 0.4981
C30 C 0.1582(3) 0.8404(3) 0.5157(2)
H61 H 0.1585 0.8214 0.5247
H62 H 0.1556 0.8558 0.5288
C31 C 0.1196(5) 0.8414(4) 0.4985(3)
H63 H 0.1082 0.8612 0.4983
H64 H 0.0983 0.8280 0.5050
H65 H 0.1274 0.8358 0.4811
C32 C 0.1827(3) 0.53544(16) 0.57604(17)
H66 H 0.1716 0.5347 0.5582
C33 C 0.1415(4) 0.5356(3) 0.5877(3)
H67 H 0.1353 0.5555 0.5937
H68 H 0.1421 0.5227 0.6029
C34 C 0.1062(7) 0.5258(4) 0.5704(4)
H69 H 0.1154 0.5078 0.5617
H70 H 0.1025 0.5408 0.5570
C35 C 0.0632(7) 0.5200(5) 0.5824(5)
H71 H 0.0517 0.5392 0.5873
H72 H 0.0451 0.5125 0.5685
C36 C 0.0556(10) 0.5001(6) 0.6053(6)
H73 H 0.0554 0.4798 0.5996
H74 H 0.0285 0.5048 0.6131
H75 H 0.0780 0.5029 0.6179
C37 C 0.2096(4) 0.5104(3) 0.5728(2)
H76 H 0.2229 0.5109 0.5557
H77 H 0.1929 0.4923 0.5741
C38 C 0.2427(5) 0.5111(3) 0.5935(3)
H78 H 0.2305 0.5108 0.6109
H79 H 0.2620 0.5278 0.5916
C39 C 0.2636(8) 0.4819(4) 0.5862(4)
H80 H 0.2420 0.4676 0.5820
H81 H 0.2803 0.4749 0.6007
H82 H 0.2819 0.4848 0.5714
C40 C 0.4846(2) 0.54648(15) 0.43195(19)
C41 C 0.44489(19) 0.53262(11) 0.42733(15)
C42 C 0.40890(17) 0.55086(9) 0.42640(12)
C43 C 0.41126(15) 0.58211(9) 0.42900(9)
C44 C 0.45338(17) 0.59571(10) 0.43290(11)
C45 C 0.37485(15) 0.60032(9) 0.42911(8)
H83 H 0.3771 0.6208 0.4312
C46 C 0.33495(14) 0.58668(8) 0.42596(7)
C47 C 0.33454(15) 0.55647(8) 0.42281(9)
C48 C 0.36984(16) 0.53760(9) 0.42270(10)
C49 C 0.36231(18) 0.50588(9) 0.42043(12)
C50 C 0.3995(2) 0.48917(11) 0.42178(16)
H84 H 0.3978 0.4687 0.4199
C51 C 0.4389(2) 0.50207(13) 0.42589(16)
H85 H 0.4626 0.4898 0.4278
C52 C 0.29419(15) 0.54665(8) 0.42019(8)
C53 C 0.26579(15) 0.57030(8) 0.42207(8)
C54 C 0.22167(15) 0.56390(8) 0.42061(8)
H86 H 0.2011 0.5787 0.4217
C55 C 0.21056(15) 0.53406(9) 0.41745(9)
C56 C 0.24121(15) 0.51021(8) 0.41656(9)
C57 C 0.28446(15) 0.51667(8) 0.41781(9)
C58 C 0.31790(17) 0.49545(9) 0.41767(10)
C59 C 0.30343(18) 0.46592(9) 0.41570(11)
H87 H 0.3235 0.4507 0.4153
C60 C 0.26135(17) 0.45884(9) 0.41434(10)
H88 H 0.2536 0.4390 0.4131
C61 C 0.22906(16) 0.48041(9) 0.41470(10)
C62 C 0.16453(19) 0.52609(10) 0.41594(12)
C63 C 0.27625(13) 0.62427(7) 0.43433(7)
C64 C 0.27822(12) 0.63050(7) 0.46051(7)
H89 H 0.2892 0.6166 0.4721
C65 C 0.26368(12) 0.65771(7) 0.46967(7)
C66 C 0.24723(13) 0.67831(8) 0.45207(7)
H90 H 0.2374 0.6966 0.4580
C67 C 0.24553(15) 0.67164(8) 0.42595(8)
H91 H 0.2346 0.6856 0.4143
C68 C 0.25982(15) 0.64451(8) 0.41652(8)
H92 H 0.2584 0.6400 0.3988
C69 C 0.27656(12) 0.69195(8) 0.50821(7)
C70 C 0.27370(13) 0.68771(8) 0.53476(8)
C71 C 0.26024(13) 0.65982(8) 0.54037(8)
C72 C 0.25364(13) 0.64400(8) 0.51706(7)
C73 C 0.23765(13) 0.61589(9) 0.51952(8)
H93 H 0.2327 0.6044 0.5048
C74 C 0.22874(15) 0.60448(9) 0.54432(9)
C75 C 0.23644(15) 0.62138(9) 0.56771(8)
C76 C 0.22780(16) 0.61077(10) 0.59325(10)
C77 C 0.23607(15) 0.62933(10) 0.61409(9)
H94 H 0.2318 0.6221 0.6309
C78 C 0.25006(15) 0.65742(10) 0.61136(9)
H95 H 0.2540 0.6689 0.6262
C79 C 0.25895(14) 0.66999(9) 0.58673(8)
C80 C 0.2114(2) 0.58025(11) 0.59623(11)
C81 C 0.21047(19) 0.57476(11) 0.54737(11)
C82 C 0.27233(14) 0.70055(9) 0.58113(8)
C83 C 0.27949(14) 0.72376(10) 0.59872(8)
H96 H 0.2765 0.7202 0.6165
C84 C 0.29765(13) 0.75894(9) 0.56463(8)
C85 C 0.29169(12) 0.73690(8) 0.54585(7)
C86 C 0.28951(11) 0.72009(8) 0.49950(7)
H97 H 0.2928 0.7241 0.4818
C87 C 0.30964(13) 0.77189(8) 0.50990(8)
C88 C 0.30763(15) 0.78970(9) 0.55621(8)
C89 C 0.29082(14) 0.75172(9) 0.59033(8)
H98 H 0.2940 0.7666 0.6028
C90 C 0.29726(12) 0.74193(8) 0.51843(7)
C91 C 0.28012(13) 0.70896(9) 0.55419(7)
C92 C 0.25179(14) 0.65015(9) 0.56521(8)
C93 C 0.18361(19) 0.47264(9) 0.41479(11)
N7 N 0.42003(11) 0.66997(7) 0.29199(6)
N8 N 0.39413(15) 0.59556(8) 0.35891(8)
N9 N 0.19870(17) 0.57709(9) 0.34546(10)
N10 N 0.5326(3) 0.4983(2) 0.3508(2)
N11 N 0.38607(13) 0.80474(8) 0.26879(7)
N12 N 0.46525(18) 0.57281(9) 0.20891(9)
O9 O 0.16817(16) 0.53102(9) 0.34169(11)
O10 O 0.22664(12) 0.62198(6) 0.35462(7)
O11 O 0.5183(3) 0.44861(16) 0.3483(2)
O12 O 0.5493(3) 0.54742(19) 0.3557(2)
O13 O 0.37980(11) 0.78470(6) 0.30931(6)
O14 O 0.38780(16) 0.82389(8) 0.22736(7)
O15 O 0.46084(15) 0.56308(7) 0.25275(7)
O16 O 0.46782(18) 0.58274(9) 0.16513(7)
C94 C 0.1576(2) 0.59003(13) 0.33949(13)
H99 H 0.1420 0.5737 0.3312
C95 C 0.1590(3) 0.6139(2) 0.31823(16)
H100 H 0.1704 0.6320 0.3256
H101 H 0.1300 0.6179 0.3124
C96 C 0.1862(3) 0.60499(18) 0.29447(15)
H102 H 0.2157 0.6030 0.3001
H103 H 0.1768 0.5857 0.2884
C97 C 0.1847(4) 0.6259(3) 0.2725(2)
H104 H 0.1957 0.6448 0.2785
H105 H 0.1549 0.6288 0.2678
C98 C 0.2089(3) 0.6171(2) 0.24823(18)
H106 H 0.2387 0.6136 0.2526
H107 H 0.1972 0.5988 0.2412
C99 C 0.2059(5) 0.6413(4) 0.2279(3)
H108 H 0.1764 0.6449 0.2237
H109 H 0.2209 0.6353 0.2125
H110 H 0.2185 0.6592 0.2346
C100 C 0.1316(3) 0.5964(2) 0.36390(18)
H111 H 0.1362 0.5803 0.3762
H112 H 0.1426 0.6143 0.3719
C101 C 0.0846(3) 0.6000(2) 0.36011(19)
H113 H 0.0740 0.5838 0.3494
H114 H 0.0791 0.6184 0.3510
C102 C 0.0609(4) 0.6002(3) 0.3857(3)
H115 H 0.0823 0.6003 0.3994
H116 H 0.0458 0.6189 0.3868
C103 C 0.0310(5) 0.5776(3) 0.3920(3)
H117 H 0.0453 0.5585 0.3918
H118 H 0.0086 0.5771 0.3789
C104 C 0.0104(5) 0.5827(4) 0.4194(3)
H119 H 0.0226 0.6001 0.4273
H120 H 0.0159 0.5658 0.4304
H121 H -0.0199 0.5853 0.4176
C105 C 0.5805(5) 0.4894(3) 0.3444(4)
H122 H 0.5814 0.4679 0.3413
C106 C 0.6012(4) 0.4954(3) 0.3702(3)
H123 H 0.6306 0.4885 0.3699
H124 H 0.6015 0.5166 0.3735
C107 C 0.5774(4) 0.4801(3) 0.3916(3)
H125 H 0.5851 0.4901 0.4077
H126 H 0.5473 0.4841 0.3886
C108 C 0.5809(4) 0.4480(3) 0.3968(3)
H127 H 0.6102 0.4430 0.4011
H128 H 0.5728 0.4369 0.3813
C109 C 0.5510(6) 0.4397(5) 0.4198(4)
H129 H 0.5565 0.4528 0.4343
H130 H 0.5563 0.4196 0.4250
H131 H 0.5217 0.4417 0.4145
C110 C 0.5999(5) 0.5047(3) 0.3209(3)
H132 H 0.5940 0.5258 0.3221
H133 H 0.6307 0.5022 0.3215
C111 C 0.5834(6) 0.4932(4) 0.2952(4)
H134 H 0.6000 0.4763 0.2900
H135 H 0.5858 0.5085 0.2822
H136 H 0.5540 0.4876 0.2971
C112 C 0.3781(2) 0.83507(10) 0.27980(10)
H137 H 0.3787 0.8483 0.2646
C113 C 0.3342(2) 0.83865(12) 0.29100(12)
H138 H 0.3337 0.8318 0.3089
H139 H 0.3139 0.8269 0.2811
C114 C 0.3217(3) 0.87199(15) 0.28984(15)
H140 H 0.3385 0.8829 0.3025
H141 H 0.3284 0.8798 0.2727
C115 C 0.2758(3) 0.87651(18) 0.29527(19)
H142 H 0.2693 0.8692 0.3126
H143 H 0.2590 0.8652 0.2828
C116 C 0.2634(4) 0.9091(2) 0.2935(2)
H144 H 0.2757 0.9195 0.3083
H145 H 0.2758 0.9174 0.2778
C117 C 0.2171(5) 0.9146(3) 0.2932(3)
H146 H 0.2110 0.9312 0.2821
H147 H 0.2074 0.9188 0.3106
H148 H 0.2026 0.8973 0.2867
C118 C 0.4147(2) 0.84569(13) 0.29695(13)
H149 H 0.4172 0.8326 0.3119
H150 H 0.4081 0.8654 0.3034
C119 C 0.4575(3) 0.84657(19) 0.28252(18)
H151 H 0.4653 0.8265 0.2777
H152 H 0.4538 0.8578 0.2665
C120 C 0.4942(5) 0.8602(3) 0.2980(3)
H153 H 0.4972 0.8500 0.3146
H154 H 0.5207 0.8580 0.2884
C121 C 0.4851(8) 0.8930(5) 0.3026(5)
H155 H 0.4684 0.8952 0.3183
H156 H 0.4694 0.9009 0.2881
H157 H 0.5116 0.9035 0.3045
C122 C 0.4720(3) 0.54036(16) 0.20174(17)
H158 H 0.4724 0.5311 0.2190
C123 C 0.4344(3) 0.52435(17) 0.18905(18)
H159 H 0.4091 0.5360 0.1929
H160 H 0.4388 0.5255 0.1703
C124 C 0.4236(5) 0.4927(3) 0.1951(3)
H161 H 0.4445 0.4798 0.1871
H162 H 0.4249 0.4897 0.2139
C125 C 0.3807(5) 0.4849(3) 0.1857(3)
H163 H 0.3630 0.5012 0.1918
H164 H 0.3829 0.4875 0.1670
C126 C 0.3540(7) 0.4599(5) 0.1884(5)
H165 H 0.3334 0.4623 0.2024
H166 H 0.3702 0.4418 0.1912
C127 C 0.3323(10) 0.4605(6) 0.1610(6)
H167 H 0.3159 0.4784 0.1592
H168 H 0.3138 0.4436 0.1592
H169 H 0.3539 0.4599 0.1477
C128 C 0.5180(4) 0.5367(2) 0.1934(2)
H170 H 0.5248 0.5490 0.1784
H171 H 0.5247 0.5162 0.1896
C129 C 0.5413(5) 0.5477(3) 0.2184(3)
H172 H 0.5667 0.5586 0.2133
H173 H 0.5227 0.5613 0.2277
C130 C 0.5538(7) 0.5232(4) 0.2363(4)
H174 H 0.5319 0.5204 0.2491
H175 H 0.5802 0.5282 0.2448
H176 H 0.5575 0.5053 0.2264
C131 C 0.5043(4) 0.4743(3) 0.3528(3)
C132 C 0.4578(3) 0.48053(18) 0.3529(2)
C133 C 0.4471(3) 0.51033(15) 0.35555(19)
C134 C 0.4754(3) 0.53420(18) 0.3565(2)
C135 C 0.5234(4) 0.5279(2) 0.3531(3)
C136 C 0.4259(3) 0.46026(18) 0.3530(2)
H177 H 0.4341 0.4405 0.3546
C137 C 0.4650(3) 0.56459(15) 0.35772(17)
H178 H 0.4853 0.5796 0.3580
C138 C 0.3838(3) 0.46553(12) 0.35117(17)
H179 H 0.3647 0.4502 0.3479
C139 C 0.4199(2) 0.56998(12) 0.35845(13)
C140 C 0.4628(2) 0.59165(12) 0.18769(11)
C141 C 0.45062(17) 0.62263(10) 0.19268(9)
C142 C 0.44277(15) 0.63167(10) 0.21852(8)
C143 C 0.44598(16) 0.61247(9) 0.24026(9)
C144 C 0.4576(2) 0.58130(12) 0.23540(11)
C145 C 0.44871(17) 0.64473(11) 0.17308(9)
H180 H 0.4543 0.6391 0.1559
C146 C 0.43925(16) 0.67353(10) 0.17789(8)
H181 H 0.4380 0.6868 0.1640
C147 C 0.43135(15) 0.68390(10) 0.20277(8)
C148 C 0.43368(15) 0.66181(10) 0.22261(8)
C149 C 0.42610(14) 0.66969(9) 0.24853(8)
C150 C 0.42844(14) 0.65091(9) 0.27030(7)
C151 C 0.43847(15) 0.62155(9) 0.26591(8)
H182 H 0.4402 0.6081 0.2797
C152 C 0.41371(13) 0.69924(9) 0.28274(7)
C153 C 0.41537(13) 0.72090(9) 0.23795(8)
C154 C 0.42146(14) 0.71500(9) 0.21089(7)
C155 C 0.41710(15) 0.73939(10) 0.19472(8)
H183 H 0.4212 0.7371 0.1768
C156 C 0.40664(15) 0.76735(10) 0.20467(8)
H184 H 0.4030 0.7830 0.1931
C157 C 0.40139(15) 0.77263(9) 0.23125(8)
C158 C 0.40472(13) 0.74888(8) 0.24838(8)
C159 C 0.39927(13) 0.75128(8) 0.27626(7)
C160 C 0.40424(13) 0.72761(8) 0.29307(7)
H185 H 0.4014 0.7303 0.3110
C161 C 0.38769(15) 0.78060(9) 0.28617(8)
C162 C 0.39100(18) 0.80204(10) 0.24147(9)
C163 C 0.42213(15) 0.66128(9) 0.31873(8)
C164 C 0.40542(15) 0.63385(9) 0.32597(8)
H186 H 0.3919 0.6218 0.3137
C165 C 0.40926(17) 0.62492(9) 0.35153(9)
C166 C 0.4295(2) 0.64295(10) 0.37024(9)
H187 H 0.4324 0.6368 0.3875
C167 C 0.4446(2) 0.66962(10) 0.36227(9)
H188 H 0.4573 0.6821 0.3745
C168 C 0.44175(16) 0.67882(9) 0.33681(9)
H189 H 0.4532 0.6970 0.3319
C169 C 0.35133(19) 0.58691(9) 0.35767(9)
C170 C 0.3517(2) 0.55564(10) 0.35738(10)
C171 C 0.3927(2) 0.54662(10) 0.35847(12)
C172 C 0.4035(2) 0.51647(13) 0.35609(15)
C173 C 0.3692(2) 0.49508(11) 0.35425(14)
C174 C 0.3252(2) 0.50533(10) 0.35286(12)
C175 C 0.2874(2) 0.48838(11) 0.34934(12)
H190 H 0.2895 0.4678 0.3485
C176 C 0.2478(2) 0.50151(10) 0.34705(12)
H191 H 0.2242 0.4894 0.3440
C177 C 0.2415(2) 0.53195(10) 0.34903(11)
C178 C 0.27784(19) 0.55011(9) 0.35254(10)
C179 C 0.27526(19) 0.58204(9) 0.35383(9)
C180 C 0.31136(17) 0.59983(9) 0.35594(8)
H192 H 0.3086 0.6204 0.3562
C181 C 0.41811(14) 0.69816(9) 0.25589(8)
C182 C 0.31731(19) 0.53678(10) 0.35484(10)
C183 C 0.23289(19) 0.59529(10) 0.35152(10)
C184 C 0.2012(2) 0.54517(12) 0.34514(12)
N13 N 0.30104(11) 0.76522(6) 0.36064(6)
N14 N 0.29723(10) 0.69905(6) 0.28628(6)
N15 N 0.16605(15) 0.86753(9) 0.36342(10)
N16 N 0.49909(14) 0.78034(9) 0.36249(10)
N17 N 0.33408(15) 0.56666(8) 0.25741(8)
N18 N 0.27664(14) 0.80390(9) 0.20614(7)
O17 O 0.14787(12) 0.81901(7) 0.35824(8)
O18 O 0.18489(15) 0.91615(7) 0.36692(10)
O19 O 0.46678(10) 0.73532(7) 0.36382(7)
O20 O 0.53197(14) 0.82551(10) 0.36435(12)
O21 O 0.34208(17) 0.55117(8) 0.21525(8)
O22 O 0.33199(12) 0.58306(6) 0.29957(6)
O23 O 0.29205(13) 0.79863(8) 0.16283(6)
O24 O 0.26370(13) 0.80864(7) 0.24959(6)
C185 C 0.1193(2) 0.87530(14) 0.36358(18)
H193 H 0.1208 0.8970 0.3648
C186 C 0.0998(3) 0.8678(2) 0.3901(2)
H194 H 0.0689 0.8683 0.3893
H195 H 0.1086 0.8481 0.3957
C187 C 0.1161(4) 0.8906(2) 0.4085(3)
H196 H 0.1086 0.9102 0.4019
H197 H 0.1470 0.8894 0.4094
C188 C 0.0971(6) 0.8866(4) 0.4362(4)
H198 H 0.0662 0.8868 0.4349
H199 H 0.1055 0.8672 0.4427
C189 C 0.1107(6) 0.9097(4) 0.4556(4)
H200 H 0.1017 0.9277 0.4467
H201 H 0.0895 0.9068 0.4692
C190 C 0.1467(6) 0.9209(4) 0.4709(4)
H202 H 0.1363 0.9339 0.4843
H203 H 0.1659 0.9316 0.4597
H204 H 0.1616 0.9046 0.4788
C191 C 0.0995(3) 0.8718(2) 0.3384(2)
H205 H 0.0770 0.8866 0.3374
H206 H 0.0856 0.8526 0.3384
C192 C 0.1239(4) 0.8738(2) 0.3142(2)
H207 H 0.1462 0.8589 0.3147
H208 H 0.1378 0.8930 0.3137
C193 C 0.0990(5) 0.8699(4) 0.2891(3)
H209 H 0.0764 0.8847 0.2887
H210 H 0.0854 0.8506 0.2895
C194 C 0.1253(8) 0.8725(5) 0.2636(5)
H211 H 0.1551 0.8749 0.2679
H212 H 0.1157 0.8894 0.2538
H213 H 0.1216 0.8549 0.2534
C195 C 0.5405(2) 0.76615(15) 0.35497(17)
H214 H 0.5610 0.7826 0.3546
C196 C 0.5408(3) 0.7542(2) 0.3273(2)
H215 H 0.5701 0.7489 0.3232
H216 H 0.5244 0.7359 0.3273
C197 C 0.5245(3) 0.7727(2) 0.30575(19)
H217 H 0.5376 0.7921 0.3074
H218 H 0.4940 0.7753 0.3084
C198 C 0.5309(4) 0.7623(3) 0.2775(2)
H219 H 0.5181 0.7428 0.2758
H220 H 0.5614 0.7599 0.2746
C199 C 0.5131(4) 0.7821(3) 0.2556(2)
H221 H 0.4822 0.7830 0.2570
H222 H 0.5243 0.8020 0.2575
C200 C 0.5252(5) 0.7699(4) 0.2292(3)
H223 H 0.5556 0.7670 0.2285
H224 H 0.5169 0.7838 0.2159
H225 H 0.5109 0.7514 0.2264
C201 C 0.5594(3) 0.7446(3) 0.3725(2)
H226 H 0.5463 0.7254 0.3695
H227 H 0.5896 0.7428 0.3686
C202 C 0.5545(3) 0.7522(2) 0.3990(2)
H228 H 0.5247 0.7499 0.4038
H229 H 0.5619 0.7730 0.4013
C203 C 0.5825(4) 0.7332(3) 0.4178(3)
H230 H 0.6083 0.7267 0.4090
H231 H 0.5908 0.7449 0.4329
C204 C 0.5570(4) 0.7073(3) 0.4261(3)
H232 H 0.5504 0.6956 0.4107
H233 H 0.5301 0.7145 0.4331
C205 C 0.5765(7) 0.6871(4) 0.4460(4)
H234 H 0.6062 0.6918 0.4480
H235 H 0.5737 0.6669 0.4402
H236 H 0.5620 0.6895 0.4624
C206 C 0.3360(2) 0.53495(11) 0.26658(13)
H237 H 0.3367 0.5229 0.2506
C207 C 0.3779(3) 0.52807(15) 0.28074(16)
H238 H 0.4012 0.5389 0.2726
H239 H 0.3759 0.5343 0.2988
C208 C 0.3871(4) 0.4948(2) 0.2795(2)
H240 H 0.3768 0.4872 0.2630
H241 H 0.3711 0.4850 0.2933
C209 C 0.4343(5) 0.4864(3) 0.2824(3)
H242 H 0.4454 0.4924 0.2992
H243 H 0.4514 0.4954 0.2687
C210 C 0.4337(6) 0.4515(3) 0.2797(3)
H244 H 0.4225 0.4428 0.2956
H245 H 0.4151 0.4458 0.2654
C211 C 0.4770(9) 0.4404(5) 0.2749(4)
H246 H 0.4902 0.4521 0.2614
H247 H 0.4756 0.4201 0.2694
H248 H 0.4935 0.4419 0.2906
C212 C 0.2957(3) 0.52577(15) 0.28066(16)
H249 H 0.2944 0.5365 0.2971
H250 H 0.2979 0.5048 0.2848
C213 C 0.2542(4) 0.5309(2) 0.2661(2)
H251 H 0.2319 0.5303 0.2792
H252 H 0.2554 0.5512 0.2599
C214 C 0.2389(6) 0.5141(4) 0.2451(3)
H253 H 0.2633 0.5050 0.2366
H254 H 0.2262 0.5278 0.2327
C215 C 0.2063(9) 0.4897(5) 0.2505(5)
H255 H 0.2132 0.4800 0.2667
H256 H 0.2069 0.4755 0.2366
H257 H 0.1782 0.4982 0.2517
C216 C 0.2623(3) 0.83390(14) 0.20196(13)
H258 H 0.2608 0.8307 0.1831
C217 C 0.2964(4) 0.8557(2) 0.1988(3)
H259 H 0.3125 0.8502 0.1834
H260 H 0.3155 0.8536 0.2136
C218 C 0.2852(6) 0.8887(3) 0.1964(3)
H261 H 0.2711 0.8924 0.1799
H262 H 0.2659 0.8944 0.2103
C219 C 0.3262(8) 0.9069(5) 0.1981(5)
H263 H 0.3514 0.8951 0.1943
H264 H 0.3294 0.9165 0.2149
C220 C 0.3162(10) 0.9304(7) 0.1752(6)
H265 H 0.3090 0.9200 0.1594
H266 H 0.3409 0.9426 0.1722
H267 H 0.2926 0.9428 0.1803
C221 C 0.2147(4) 0.8410(3) 0.2033(3)
H268 H 0.2087 0.8573 0.1915
H269 H 0.2078 0.8475 0.2208
C222 C 0.1855(4) 0.8149(3) 0.1961(2)
H270 H 0.2035 0.7976 0.1934
H271 H 0.1676 0.8107 0.2112
C223 C 0.1572(9) 0.8180(5) 0.1731(5)
H272 H 0.1394 0.8352 0.1752
H273 H 0.1396 0.8006 0.1716
H274 H 0.1743 0.8202 0.1577
C224 C 0.28778(14) 0.76205(9) 0.23658(8)
C225 C 0.29951(14) 0.74423(9) 0.21418(8)
C226 C 0.30025(15) 0.75606(10) 0.18890(8)
C227 C 0.31143(15) 0.73657(11) 0.16851(8)
H275 H 0.3135 0.7442 0.1517
C228 C 0.31927(15) 0.70725(11) 0.17213(8)
H276 H 0.3252 0.6954 0.1577
C229 C 0.31871(14) 0.69427(10) 0.19679(8)
C230 C 0.30891(14) 0.71479(9) 0.21734(7)
C231 C 0.30714(14) 0.70423(9) 0.24331(8)
C232 C 0.29628(13) 0.71997(8) 0.26517(7)
C233 C 0.28612(13) 0.75003(8) 0.26176(7)
H277 H 0.2784 0.7618 0.2759
C234 C 0.30817(13) 0.67085(8) 0.27582(7)
C235 C 0.31416(14) 0.67524(9) 0.24939(8)
C236 C 0.32304(14) 0.65398(9) 0.23043(8)
C237 C 0.32562(14) 0.66262(10) 0.20377(8)
C238 C 0.33362(16) 0.63904(11) 0.18680(9)
H278 H 0.3358 0.6430 0.1690
C239 C 0.33834(17) 0.61080(11) 0.19502(9)
H279 H 0.3440 0.5961 0.1827
C240 C 0.33501(17) 0.60264(10) 0.22160(9)
C241 C 0.32767(15) 0.62508(9) 0.23969(8)
C242 C 0.32377(14) 0.61985(9) 0.26722(8)
C243 C 0.31386(13) 0.64176(9) 0.28543(8)
H280 H 0.3111 0.6374 0.3031
C244 C 0.33010(16) 0.58906(10) 0.27641(9)
C245 C 0.28569(12) 0.70486(7) 0.31267(7)
C246 C 0.25932(13) 0.68597(8) 0.32592(7)
H281 H 0.2494 0.6688 0.3180
C247 C 0.29957(12) 0.73119(7) 0.32440(7)
H282 H 0.3174 0.7441 0.3154
C248 C 0.28648(13) 0.73766(7) 0.34934(7)
C249 C 0.26043(14) 0.71882(8) 0.36307(7)
H283 H 0.2517 0.7236 0.3799
C250 C 0.34484(13) 0.77337(8) 0.36343(7)
C251 C 0.34506(14) 0.80378(8) 0.36626(8)
C252 C 0.30421(15) 0.81450(8) 0.36564(8)
C253 C 0.27585(14) 0.79135(8) 0.36190(8)
C254 C 0.23211(15) 0.79816(8) 0.36055(8)
H284 H 0.2116 0.7834 0.3584
C255 C 0.22066(16) 0.82838(9) 0.36256(9)
C256 C 0.25213(17) 0.85186(9) 0.36535(9)
C257 C 0.29562(16) 0.84454(8) 0.36667(8)
C258 C 0.33009(17) 0.86532(9) 0.36849(9)
C259 C 0.31721(18) 0.89511(9) 0.36963(9)
H285 H 0.3376 0.9101 0.3712
C260 C 0.27432(19) 0.90225(9) 0.36842(10)
H286 H 0.2670 0.9223 0.3690
C261 C 0.24145(17) 0.88192(9) 0.36647(10)
C262 C 0.37359(16) 0.85382(9) 0.36904(9)
C263 C 0.41282(18) 0.86978(10) 0.36971(10)
H287 H 0.4118 0.8904 0.3708
C264 C 0.45253(18) 0.85608(10) 0.36885(10)
H288 H 0.4770 0.8678 0.3692
C265 C 0.45664(16) 0.82618(10) 0.36759(9)
C266 C 0.42004(15) 0.80806(9) 0.36716(8)
C267 C 0.42047(14) 0.77629(9) 0.36528(8)
C268 C 0.38430(14) 0.75900(8) 0.36333(7)
H289 H 0.3861 0.7385 0.3620
C269 C 0.46296(16) 0.76219(11) 0.36405(9)
C270 C 0.4983(2) 0.81174(13) 0.36447(13)
C271 C 0.38041(15) 0.82230(9) 0.36789(8)
C272 C 0.24738(15) 0.69267(8) 0.35152(8)
H290 H 0.2305 0.6794 0.3609
C273 C 0.29011(17) 0.78729(11) 0.18433(9)
C274 C 0.27492(16) 0.79264(10) 0.23201(8)
C275 C 0.17600(18) 0.83697(10) 0.36102(11)
C276 C 0.1968(2) 0.89018(10) 0.36671(13)
C277 C 0.3377(2) 0.57220(11) 0.23020(10)
N19 N 0.39428(10) 0.68975(6) 0.50307(6)
N20 N 0.39518(9) 0.76367(6) 0.43425(6)
N21 N 0.42212(12) 0.78783(8) 0.58818(6)
N22 N 0.33105(14) 0.55987(7) 0.52329(7)
N23 N 0.19941(10) 0.78950(7) 0.43286(6)
N24 N 0.54224(13) 0.85798(9) 0.44157(9)
O25 O 0.40891(12) 0.77968(7) 0.63146(6)
O26 O 0.43554(10) 0.79559(6) 0.54497(5)
O27 O 0.31246(16) 0.54321(8) 0.56413(7)
O28 O 0.34607(10) 0.57728(6) 0.48318(6)
O29 O 0.22616(8) 0.74326(5) 0.42453(5)
O30 O 0.17215(10) 0.83630(6) 0.43207(8)
O31 O 0.55455(11) 0.80792(8) 0.44144(8)
O32 O 0.52931(13) 0.90735(8) 0.44196(9)
C278 C 0.43416(15) 0.81950(10) 0.59381(9)
H291 H 0.4389 0.8284 0.5766
C279 C 0.47685(17) 0.82101(12) 0.60700(11)
H292 H 0.4806 0.8410 0.6136
H293 H 0.4761 0.8078 0.6219
C280 C 0.5148(2) 0.81352(14) 0.59136(13)
H294 H 0.5167 0.8271 0.5767
H295 H 0.5115 0.7936 0.5844
C281 C 0.5566(2) 0.81506(14) 0.60708(15)
H296 H 0.5571 0.8337 0.6165
H297 H 0.5563 0.7992 0.6199
C282 C 0.5967(3) 0.8127(2) 0.5915(2)
H298 H 0.5987 0.8294 0.5796
H299 H 0.5961 0.7946 0.5812
C283 C 0.6368(3) 0.8124(2) 0.6098(3)
H300 H 0.6434 0.8323 0.6150
H301 H 0.6607 0.8041 0.6006
H302 H 0.6308 0.8006 0.6249
C284 C 0.39860(19) 0.83830(12) 0.60607(11)
H303 H 0.3713 0.8323 0.5987
H304 H 0.3976 0.8344 0.6247
C285 C 0.4046(2) 0.87051(12) 0.60185(11)
H305 H 0.3999 0.8745 0.5835
H306 H 0.4342 0.8752 0.6056
C286 C 0.3766(3) 0.89161(15) 0.61749(15)
H307 H 0.3469 0.8869 0.6136
H308 H 0.3811 0.8874 0.6359
C287 C 0.3825(3) 0.92364(16) 0.61350(18)
H309 H 0.3739 0.9285 0.5958
H310 H 0.4127 0.9282 0.6151
C288 C 0.3581(5) 0.9432(2) 0.6321(2)
H311 H 0.3316 0.9491 0.6241
H312 H 0.3748 0.9604 0.6361
H313 H 0.3522 0.9324 0.6478
C289 C 0.3235(3) 0.53062(13) 0.51288(13)
H314 H 0.3157 0.5183 0.5279
C290 C 0.3654(3) 0.51749(18) 0.50231(17)
H315 H 0.3697 0.5257 0.4850
H316 H 0.3608 0.4963 0.5001
C291 C 0.4097(4) 0.5215(2) 0.5180(2)
H317 H 0.4067 0.5119 0.5349
H318 H 0.4140 0.5425 0.5212
C292 C 0.4537(6) 0.5082(4) 0.5036(3)
H319 H 0.4489 0.4880 0.4984
H320 H 0.4772 0.5089 0.5156
H321 H 0.4603 0.5199 0.4885
C293 C 0.2866(3) 0.52965(16) 0.49530(17)
H322 H 0.2944 0.5373 0.4782
H323 H 0.2635 0.5417 0.5022
C294 C 0.2716(5) 0.4949(3) 0.4930(2)
H324 H 0.2847 0.4869 0.4774
H325 H 0.2840 0.4845 0.5077
C295 C 0.2315(4) 0.4879(3) 0.4923(3)
H326 H 0.2176 0.4949 0.5078
H327 H 0.2288 0.4667 0.4912
H328 H 0.2185 0.4968 0.4772
C296 C 0.15597(12) 0.77750(9) 0.43492(9)
H329 H 0.1391 0.7939 0.4421
C297 C 0.15162(15) 0.75271(11) 0.45513(10)
H330 H 0.1215 0.7482 0.4571
H331 H 0.1653 0.7351 0.4482
C298 C 0.16962(15) 0.75860(11) 0.48130(10)
H332 H 0.1578 0.7771 0.4877
H333 H 0.2003 0.7612 0.4796
C299 C 0.16129(16) 0.73445(13) 0.50172(11)
H334 H 0.1308 0.7306 0.5023
H335 H 0.1751 0.7163 0.4959
C300 C 0.17613(18) 0.74104(15) 0.52873(12)
H336 H 0.1630 0.7595 0.5344
H337 H 0.2068 0.7442 0.5283
C301 C 0.1665(2) 0.71747(18) 0.54887(14)
H338 H 0.1374 0.7110 0.5470
H339 H 0.1708 0.7255 0.5660
H340 H 0.1854 0.7009 0.5463
C302 C 0.13654(15) 0.77171(11) 0.40853(10)
H341 H 0.1454 0.7522 0.4027
H342 H 0.1479 0.7861 0.3963
C303 C 0.08704(15) 0.77323(12) 0.40760(10)
H343 H 0.0756 0.7573 0.4183
H344 H 0.0779 0.7919 0.4153
C304 C 0.06826(18) 0.77083(14) 0.38099(12)
H345 H 0.0773 0.7522 0.3733
H346 H 0.0798 0.7867 0.3703
C305 C 0.01953(18) 0.77241(16) 0.37994(14)
H347 H 0.0100 0.7914 0.3868
H348 H 0.0075 0.7569 0.3908
C306 C 0.0036(3) 0.7687(2) 0.35178(18)
H349 H 0.0175 0.7830 0.3408
H350 H -0.0268 0.7718 0.3512
H351 H 0.0101 0.7491 0.3458
C307 C 0.5878(2) 0.86424(16) 0.44435(17)
H352 H 0.5851 0.8859 0.4455
C308 C 0.6106(3) 0.8637(3) 0.4190(2)
H353 H 0.6372 0.8741 0.4220
H354 H 0.6184 0.8430 0.4163
C309 C 0.5963(3) 0.8736(2) 0.3948(2)
H355 H 0.5867 0.8936 0.3988
H356 H 0.5703 0.8623 0.3924
C310 C 0.6127(4) 0.8768(4) 0.3669(4)
H357 H 0.6322 0.8933 0.3659
H358 H 0.5890 0.8803 0.3554
H359 H 0.6273 0.8590 0.3618
C311 C 0.6051(3) 0.8597(3) 0.4704(2)
H360 H 0.6191 0.8405 0.4698
H361 H 0.6278 0.8743 0.4722
C312 C 0.5825(3) 0.8603(2) 0.4952(2)
H362 H 0.5651 0.8425 0.4968
H363 H 0.5636 0.8773 0.4957
C313 C 0.6171(9) 0.8620(5) 0.5206(4)
H364 H 0.6391 0.8473 0.5184
H365 H 0.6020 0.8582 0.5366
H366 H 0.6298 0.8813 0.5213
C314 C 0.20363(14) 0.82088(9) 0.43232(9)
C315 C 0.24667(12) 0.83262(8) 0.43204(8)
C316 C 0.28171(12) 0.81321(8) 0.43123(7)
C317 C 0.27720(12) 0.78169(8) 0.42990(7)
C318 C 0.25569(13) 0.86325(8) 0.43305(8)
H367 H 0.2328 0.8764 0.4334
C319 C 0.29665(14) 0.87475(8) 0.43355(8)
H368 H 0.3004 0.8952 0.4342
C320 C 0.33262(13) 0.85622(8) 0.43316(8)
C321 C 0.32281(12) 0.82544(8) 0.43188(7)
C322 C 0.35624(13) 0.80477(8) 0.43220(7)
C323 C 0.35340(12) 0.77408(7) 0.43233(7)
C324 C 0.31202(12) 0.76176(8) 0.43049(7)
H369 H 0.3079 0.7413 0.4297
C325 C 0.37833(14) 0.86501(9) 0.43408(8)
C326 C 0.41004(13) 0.84262(8) 0.43464(8)
C327 C 0.39763(12) 0.81300(8) 0.43371(7)
C328 C 0.42335(12) 0.78817(8) 0.43510(7)
C329 C 0.46797(13) 0.79283(9) 0.43782(8)
H370 H 0.4869 0.7770 0.4395
C330 C 0.48240(13) 0.82228(9) 0.43793(9)
C331 C 0.45439(14) 0.84725(10) 0.43657(9)
C332 C 0.46873(15) 0.87724(10) 0.43753(9)
C333 C 0.43854(15) 0.89898(9) 0.43692(10)
H371 H 0.4479 0.9185 0.4378
C334 C 0.39460(15) 0.89406(9) 0.43507(9)
H372 H 0.3759 0.9101 0.4345
C335 C 0.52851(17) 0.82802(12) 0.44057(11)
C336 C 0.39792(13) 0.70878(8) 0.52534(7)
C337 C 0.38701(14) 0.69165(9) 0.54630(8)
C338 C 0.37649(14) 0.66369(9) 0.53868(8)
C339 C 0.38102(13) 0.66106(9) 0.51175(8)
C340 C 0.37034(12) 0.63368(8) 0.50088(7)
H373 H 0.3719 0.6307 0.4829
C341 C 0.35734(13) 0.61105(9) 0.51722(8)
C342 C 0.35340(13) 0.61408(9) 0.54540(8)
C343 C 0.36463(14) 0.64206(9) 0.55641(8)
C344 C 0.36257(14) 0.64862(10) 0.58349(8)
C345 C 0.34762(14) 0.62519(10) 0.59907(8)
H374 H 0.3454 0.6279 0.6170
C346 C 0.33607(15) 0.59820(10) 0.58851(9)
H375 H 0.3262 0.5834 0.5997
C347 C 0.33848(14) 0.59201(9) 0.56164(8)
C348 C 0.37445(14) 0.67871(10) 0.59216(8)
C349 C 0.38719(14) 0.69994(9) 0.57271(7)
C350 C 0.39873(13) 0.72925(9) 0.57752(7)
C351 C 0.39801(13) 0.73897(10) 0.60350(7)
C352 C 0.38571(14) 0.71935(11) 0.62283(8)
H376 H 0.3851 0.7259 0.6400
C353 C 0.37401(14) 0.68964(10) 0.61751(8)
H377 H 0.3659 0.6773 0.6312
C354 C 0.41053(13) 0.74775(9) 0.55606(7)
C355 C 0.41062(12) 0.73809(9) 0.52982(7)
H378 H 0.4187 0.7506 0.5162
C356 C 0.42316(14) 0.77847(9) 0.56221(8)
C357 C 0.40926(14) 0.77004(10) 0.60911(8)
C358 C 0.40482(11) 0.69787(8) 0.47692(7)
C359 C 0.39334(11) 0.72575(8) 0.46771(7)
H379 H 0.3773 0.7386 0.4780
C360 C 0.40629(11) 0.73405(8) 0.44290(7)
C361 C 0.42964(12) 0.71566(8) 0.42737(7)
H380 H 0.4381 0.7217 0.4108
C362 C 0.44061(13) 0.68781(9) 0.43675(8)
H381 H 0.4563 0.6750 0.4262
C363 C 0.42866(12) 0.67876(8) 0.46141(7)
H382 H 0.4365 0.6601 0.4676
C364 C 0.34499(14) 0.58188(9) 0.50647(9)
C365 C 0.32561(19) 0.56398(11) 0.55111(10)
C366 C 0.51476(17) 0.88274(12) 0.44053(12)
C367 C 0.23304(12) 0.76942(8) 0.42845(7)
loop_
_geom_bond_atom_site_label_1
_geom_bond_atom_site_label_2
_geom_bond_site_symmetry_1
_geom_bond_site_symmetry_2
N1 C46 1_555 1_555
N2 C65 1_555 1_555
N3 C1 1_555 1_555
N4 C11 1_555 1_555
N5 C21 1_555 1_555
N6 C32 1_555 1_555
O1 C93 1_555 1_555
O2 C62 1_555 1_555
O3 C40 1_555 1_555
O4 C44 1_555 1_555
O5 C87 1_555 1_555
O6 C88 1_555 1_555
O7 C81 1_555 1_555
O8 C80 1_555 1_555
C1 H1 1_555 1_555
C2 C1 1_555 1_555
H2 C2 1_555 1_555
H3 C2 1_555 1_555
C3 C2 1_555 1_555
H4 C3 1_555 1_555
H5 C3 1_555 1_555
C4 C3 1_555 1_555
H6 C4 1_555 1_555
H7 C4 1_555 1_555
C5 C4 1_555 1_555
H8 C5 1_555 1_555
H9 C5 1_555 1_555
H10 C5 1_555 1_555
C6 C1 1_555 1_555
H11 C6 1_555 1_555
H12 C6 1_555 1_555
C7 C6 1_555 1_555
H13 C7 1_555 1_555
H14 C7 1_555 1_555
C8 C7 1_555 1_555
H15 C8 1_555 1_555
H16 C8 1_555 1_555
C9 C8 1_555 1_555
H17 C9 1_555 1_555
H18 C9 1_555 1_555
C10 C9 1_555 1_555
H19 C10 1_555 1_555
H20 C10 1_555 1_555
H21 C10 1_555 1_555
C11 H22 1_555 1_555
C12 C11 1_555 1_555
H23 C12 1_555 1_555
H24 C12 1_555 1_555
C13 C12 1_555 1_555
H25 C13 1_555 1_555
H26 C13 1_555 1_555
C14 C13 1_555 1_555
H27 C14 1_555 1_555
H28 C14 1_555 1_555
C15 C14 1_555 1_555
H29 C15 1_555 1_555
H30 C15 1_555 1_555
C16 C15 1_555 1_555
H31 C16 1_555 1_555
H32 C16 1_555 1_555
H33 C16 1_555 1_555
C17 C11 1_555 1_555
H34 C17 1_555 1_555
H35 C17 1_555 1_555
C18 C17 1_555 1_555
H36 C18 1_555 1_555
H37 C18 1_555 1_555
C19 C18 1_555 1_555
H38 C19 1_555 1_555
H39 C19 1_555 1_555
C20 C19 1_555 1_555
H40 C20 1_555 1_555
H41 C20 1_555 1_555
H42 C20 1_555 1_555
C21 H43 1_555 1_555
C22 C21 1_555 1_555
H44 C22 1_555 1_555
H45 C22 1_555 1_555
C23 C22 1_555 1_555
H46 C23 1_555 1_555
H47 C23 1_555 1_555
C24 C23 1_555 1_555
H48 C24 1_555 1_555
H49 C24 1_555 1_555
C25 C24 1_555 1_555
H50 C25 1_555 1_555
H51 C25 1_555 1_555
C26 C25 1_555 1_555
H52 C26 1_555 1_555
H53 C26 1_555 1_555
H54 C26 1_555 1_555
C27 C21 1_555 1_555
H55 C27 1_555 1_555
H56 C27 1_555 1_555
C28 C27 1_555 1_555
H57 C28 1_555 1_555
H58 C28 1_555 1_555
C29 C28 1_555 1_555
H59 C29 1_555 1_555
H60 C29 1_555 1_555
C30 C29 1_555 1_555
H61 C30 1_555 1_555
H62 C30 1_555 1_555
C31 C30 1_555 1_555
H63 C31 1_555 1_555
H64 C31 1_555 1_555
H65 C31 1_555 1_555
C32 H66 1_555 1_555
C33 C32 1_555 1_555
H67 C33 1_555 1_555
H68 C33 1_555 1_555
C34 C33 1_555 1_555
H69 C34 1_555 1_555
H70 C34 1_555 1_555
C35 C34 1_555 1_555
H71 C35 1_555 1_555
H72 C35 1_555 1_555
C36 C35 1_555 1_555
H73 C36 1_555 1_555
H74 C36 1_555 1_555
H75 C36 1_555 1_555
C37 C32 1_555 1_555
H76 C37 1_555 1_555
H77 C37 1_555 1_555
C38 C37 1_555 1_555
H78 C38 1_555 1_555
H79 C38 1_555 1_555
C39 C38 1_555 1_555
H80 C39 1_555 1_555
H81 C39 1_555 1_555
H82 C39 1_555 1_555
C40 N4 1_555 1_555
C41 C40 1_555 1_555
C42 C41 1_555 1_555
C43 C42 1_555 1_555
C44 N4 1_555 1_555
C45 C43 1_555 1_555
H83 C45 1_555 1_555
C46 C45 1_555 1_555
C47 C46 1_555 1_555
C48 C42 1_555 1_555
C49 C48 1_555 1_555
C50 C49 1_555 1_555
H84 C50 1_555 1_555
C51 C41 1_555 1_555
H85 C51 1_555 1_555
C52 C47 1_555 1_555
C53 N1 1_555 1_555
C54 C53 1_555 1_555
H86 C54 1_555 1_555
C55 C54 1_555 1_555
C56 C55 1_555 1_555
C57 C52 1_555 1_555
C58 C49 1_555 1_555
C59 C58 1_555 1_555
H87 C59 1_555 1_555
C60 C59 1_555 1_555
H88 C60 1_555 1_555
C61 C56 1_555 1_555
C62 N3 1_555 1_555
C63 N1 1_555 1_555
C64 C63 1_555 1_555
H89 C64 1_555 1_555
C65 C64 1_555 1_555
C66 C65 1_555 1_555
H90 C66 1_555 1_555
C67 C66 1_555 1_555
H91 C67 1_555 1_555
C68 C63 1_555 1_555
H92 C68 1_555 1_555
C69 N2 1_555 1_555
C70 C69 1_555 1_555
C71 C70 1_555 1_555
C72 N2 1_555 1_555
C73 C72 1_555 1_555
H93 C73 1_555 1_555
C74 C73 1_555 1_555
C75 C74 1_555 1_555
C76 C75 1_555 1_555
C77 C76 1_555 1_555
H94 C77 1_555 1_555
C78 C77 1_555 1_555
H95 C78 1_555 1_555
C79 C78 1_555 1_555
C80 N6 1_555 1_555
C81 N6 1_555 1_555
C82 C79 1_555 1_555
C83 C82 1_555 1_555
H96 C83 1_555 1_555
C84 C85 1_555 1_555
C85 C90 1_555 1_555
C86 C69 1_555 1_555
H97 C86 1_555 1_555
C87 N5 1_555 1_555
C88 N5 1_555 1_555
C89 C83 1_555 1_555
H98 C89 1_555 1_555
C90 C86 1_555 1_555
C91 C70 1_555 1_555
C92 C71 1_555 1_555
C93 N3 1_555 1_555
N7 C150 1_555 1_555
N8 C139 1_555 1_555
N9 C94 1_555 1_555
N10 C105 1_555 1_555
N11 C112 1_555 1_555
N12 C122 1_555 1_555
O9 C184 1_555 1_555
O10 C183 1_555 1_555
O11 C131 1_555 1_555
O12 C135 1_555 1_555
O13 C161 1_555 1_555
O14 C162 1_555 1_555
O15 C144 1_555 1_555
O16 C140 1_555 1_555
C94 H99 1_555 1_555
C95 C94 1_555 1_555
H100 C95 1_555 1_555
H101 C95 1_555 1_555
C96 C95 1_555 1_555
H102 C96 1_555 1_555
H103 C96 1_555 1_555
C97 C96 1_555 1_555
H104 C97 1_555 1_555
H105 C97 1_555 1_555
C98 C97 1_555 1_555
H106 C98 1_555 1_555
H107 C98 1_555 1_555
C99 C98 1_555 1_555
H108 C99 1_555 1_555
H109 C99 1_555 1_555
H110 C99 1_555 1_555
C100 C94 1_555 1_555
H111 C100 1_555 1_555
H112 C100 1_555 1_555
C101 C100 1_555 1_555
H113 C101 1_555 1_555
H114 C101 1_555 1_555
C102 C101 1_555 1_555
H115 C102 1_555 1_555
H116 C102 1_555 1_555
C103 C102 1_555 1_555
H117 C103 1_555 1_555
H118 C103 1_555 1_555
C104 C103 1_555 1_555
H119 C104 1_555 1_555
H120 C104 1_555 1_555
H121 C104 1_555 1_555
C105 H122 1_555 1_555
C106 C105 1_555 1_555
H123 C106 1_555 1_555
H124 C106 1_555 1_555
C107 C106 1_555 1_555
H125 C107 1_555 1_555
H126 C107 1_555 1_555
C108 C107 1_555 1_555
H127 C108 1_555 1_555
H128 C108 1_555 1_555
C109 C108 1_555 1_555
H129 C109 1_555 1_555
H130 C109 1_555 1_555
H131 C109 1_555 1_555
C110 C105 1_555 1_555
H132 C110 1_555 1_555
H133 C110 1_555 1_555
C111 C110 1_555 1_555
H134 C111 1_555 1_555
H135 C111 1_555 1_555
H136 C111 1_555 1_555
C112 H137 1_555 1_555
C113 C112 1_555 1_555
H138 C113 1_555 1_555
H139 C113 1_555 1_555
C114 C113 1_555 1_555
H140 C114 1_555 1_555
H141 C114 1_555 1_555
C115 C114 1_555 1_555
H142 C115 1_555 1_555
H143 C115 1_555 1_555
C116 C115 1_555 1_555
H144 C116 1_555 1_555
H145 C116 1_555 1_555
C117 C116 1_555 1_555
H146 C117 1_555 1_555
H147 C117 1_555 1_555
H148 C117 1_555 1_555
C118 C112 1_555 1_555
H149 C118 1_555 1_555
H150 C118 1_555 1_555
C119 C118 1_555 1_555
H151 C119 1_555 1_555
H152 C119 1_555 1_555
C120 C119 1_555 1_555
H153 C120 1_555 1_555
H154 C120 1_555 1_555
C121 C120 1_555 1_555
H155 C121 1_555 1_555
H156 C121 1_555 1_555
H157 C121 1_555 1_555
C122 H158 1_555 1_555
C123 C122 1_555 1_555
H159 C123 1_555 1_555
H160 C123 1_555 1_555
C124 C123 1_555 1_555
H161 C124 1_555 1_555
H162 C124 1_555 1_555
C125 C124 1_555 1_555
H163 C125 1_555 1_555
H164 C125 1_555 1_555
C126 C125 1_555 1_555
H165 C126 1_555 1_555
H166 C126 1_555 1_555
C127 C126 1_555 1_555
H167 C127 1_555 1_555
H168 C127 1_555 1_555
H169 C127 1_555 1_555
C128 C122 1_555 1_555
H170 C128 1_555 1_555
H171 C128 1_555 1_555
C129 C128 1_555 1_555
H172 C129 1_555 1_555
H173 C129 1_555 1_555
C130 C129 1_555 1_555
H174 C130 1_555 1_555
H175 C130 1_555 1_555
H176 C130 1_555 1_555
C131 N10 1_555 1_555
C132 C131 1_555 1_555
C133 C132 1_555 1_555
C134 C133 1_555 1_555
C135 N10 1_555 1_555
C136 C132 1_555 1_555
H177 C136 1_555 1_555
C137 C134 1_555 1_555
H178 C137 1_555 1_555
C138 C136 1_555 1_555
H179 C138 1_555 1_555
C139 C137 1_555 1_555
C140 N12 1_555 1_555
C141 C140 1_555 1_555
C142 C141 1_555 1_555
C143 C142 1_555 1_555
C144 N12 1_555 1_555
C145 C141 1_555 1_555
H180 C145 1_555 1_555
C146 C145 1_555 1_555
H181 C146 1_555 1_555
C147 C146 1_555 1_555
C148 C142 1_555 1_555
C149 C148 1_555 1_555
C150 C149 1_555 1_555
C151 C143 1_555 1_555
H182 C151 1_555 1_555
C152 N7 1_555 1_555
C153 C154 1_555 1_555
C154 C147 1_555 1_555
C155 C154 1_555 1_555
H183 C155 1_555 1_555
C156 C155 1_555 1_555
H184 C156 1_555 1_555
C157 C156 1_555 1_555
C158 C153 1_555 1_555
C159 C158 1_555 1_555
C160 C152 1_555 1_555
H185 C160 1_555 1_555
C161 N11 1_555 1_555
C162 N11 1_555 1_555
C163 N7 1_555 1_555
C164 C163 1_555 1_555
H186 C164 1_555 1_555
C165 N8 1_555 1_555
C166 C165 1_555 1_555
H187 C166 1_555 1_555
C167 C166 1_555 1_555
H188 C167 1_555 1_555
C168 C163 1_555 1_555
H189 C168 1_555 1_555
C169 N8 1_555 1_555
C170 C169 1_555 1_555
C171 C139 1_555 1_555
C172 C133 1_555 1_555
C173 C138 1_555 1_555
C174 C173 1_555 1_555
C175 C174 1_555 1_555
H190 C175 1_555 1_555
C176 C175 1_555 1_555
H191 C176 1_555 1_555
C177 C176 1_555 1_555
C178 C177 1_555 1_555
C179 C178 1_555 1_555
C180 C169 1_555 1_555
H192 C180 1_555 1_555
C181 C149 1_555 1_555
C182 C170 1_555 1_555
C183 N9 1_555 1_555
C184 N9 1_555 1_555
N13 C248 1_555 1_555
N14 C232 1_555 1_555
N15 C185 1_555 1_555
N16 C195 1_555 1_555
N17 C206 1_555 1_555
N18 C216 1_555 1_555
O17 C275 1_555 1_555
O18 C276 1_555 1_555
O19 C269 1_555 1_555
O20 C270 1_555 1_555
O21 C277 1_555 1_555
O22 C244 1_555 1_555
O23 C273 1_555 1_555
O24 C274 1_555 1_555
C185 H193 1_555 1_555
C186 C185 1_555 1_555
H194 C186 1_555 1_555
H195 C186 1_555 1_555
C187 C186 1_555 1_555
H196 C187 1_555 1_555
H197 C187 1_555 1_555
C188 C187 1_555 1_555
H198 C188 1_555 1_555
H199 C188 1_555 1_555
C189 C188 1_555 1_555
H200 C189 1_555 1_555
H201 C189 1_555 1_555
C190 C189 1_555 1_555
H202 C190 1_555 1_555
H203 C190 1_555 1_555
H204 C190 1_555 1_555
C191 C185 1_555 1_555
H205 C191 1_555 1_555
H206 C191 1_555 1_555
C192 C191 1_555 1_555
H207 C192 1_555 1_555
H208 C192 1_555 1_555
C193 C192 1_555 1_555
H209 C193 1_555 1_555
H210 C193 1_555 1_555
C194 C193 1_555 1_555
H211 C194 1_555 1_555
H212 C194 1_555 1_555
H213 C194 1_555 1_555
C195 H214 1_555 1_555
C196 C195 1_555 1_555
H215 C196 1_555 1_555
H216 C196 1_555 1_555
C197 C196 1_555 1_555
H217 C197 1_555 1_555
H218 C197 1_555 1_555
C198 C197 1_555 1_555
H219 C198 1_555 1_555
H220 C198 1_555 1_555
C199 C198 1_555 1_555
H221 C199 1_555 1_555
H222 C199 1_555 1_555
C200 C199 1_555 1_555
H223 C200 1_555 1_555
H224 C200 1_555 1_555
H225 C200 1_555 1_555
C201 C195 1_555 1_555
H226 C201 1_555 1_555
H227 C201 1_555 1_555
C202 C201 1_555 1_555
H228 C202 1_555 1_555
H229 C202 1_555 1_555
C203 C202 1_555 1_555
H230 C203 1_555 1_555
H231 C203 1_555 1_555
C204 C203 1_555 1_555
H232 C204 1_555 1_555
H233 C204 1_555 1_555
C205 C204 1_555 1_555
H234 C205 1_555 1_555
H235 C205 1_555 1_555
H236 C205 1_555 1_555
C206 H237 1_555 1_555
C207 C206 1_555 1_555
H238 C207 1_555 1_555
H239 C207 1_555 1_555
C208 C207 1_555 1_555
H240 C208 1_555 1_555
H241 C208 1_555 1_555
C209 C208 1_555 1_555
H242 C209 1_555 1_555
H243 C209 1_555 1_555
C210 C209 1_555 1_555
H244 C210 1_555 1_555
H245 C210 1_555 1_555
C211 C210 1_555 1_555
H246 C211 1_555 1_555
H247 C211 1_555 1_555
H248 C211 1_555 1_555
C212 C206 1_555 1_555
H249 C212 1_555 1_555
H250 C212 1_555 1_555
C213 C212 1_555 1_555
H251 C213 1_555 1_555
H252 C213 1_555 1_555
C214 C213 1_555 1_555
H253 C214 1_555 1_555
H254 C214 1_555 1_555
C215 C214 1_555 1_555
H255 C215 1_555 1_555
H256 C215 1_555 1_555
H257 C215 1_555 1_555
C216 H258 1_555 1_555
C217 C216 1_555 1_555
H259 C217 1_555 1_555
H260 C217 1_555 1_555
C218 C217 1_555 1_555
H261 C218 1_555 1_555
H262 C218 1_555 1_555
C219 C218 1_555 1_555
H263 C219 1_555 1_555
H264 C219 1_555 1_555
C220 C219 1_555 1_555
H265 C220 1_555 1_555
H266 C220 1_555 1_555
H267 C220 1_555 1_555
C221 C216 1_555 1_555
H268 C221 1_555 1_555
H269 C221 1_555 1_555
C222 C221 1_555 1_555
H270 C222 1_555 1_555
H271 C222 1_555 1_555
C223 C222 1_555 1_555
H272 C223 1_555 1_555
H273 C223 1_555 1_555
H274 C223 1_555 1_555
C224 C225 1_555 1_555
C225 C226 1_555 1_555
C226 C227 1_555 1_555
C227 H275 1_555 1_555
C228 C227 1_555 1_555
H276 C228 1_555 1_555
C229 C228 1_555 1_555
C230 C225 1_555 1_555
C231 C230 1_555 1_555
C232 C231 1_555 1_555
C233 C224 1_555 1_555
H277 C233 1_555 1_555
C234 N14 1_555 1_555
C235 C231 1_555 1_555
C236 C235 1_555 1_555
C237 C229 1_555 1_555
C238 C237 1_555 1_555
H278 C238 1_555 1_555
C239 C238 1_555 1_555
H279 C239 1_555 1_555
C240 C239 1_555 1_555
C241 C236 1_555 1_555
C242 C241 1_555 1_555
C243 C234 1_555 1_555
H280 C243 1_555 1_555
C244 N17 1_555 1_555
C245 N14 1_555 1_555
C246 C245 1_555 1_555
H281 C246 1_555 1_555
C247 C245 1_555 1_555
H282 C247 1_555 1_555
C248 C247 1_555 1_555
C249 C248 1_555 1_555
H283 C249 1_555 1_555
C250 N13 1_555 1_555
C251 C250 1_555 1_555
C252 C251 1_555 1_555
C253 N13 1_555 1_555
C254 C253 1_555 1_555
H284 C254 1_555 1_555
C255 C254 1_555 1_555
C256 C255 1_555 1_555
C257 C252 1_555 1_555
C258 C257 1_555 1_555
C259 C258 1_555 1_555
H285 C259 1_555 1_555
C260 C259 1_555 1_555
H286 C260 1_555 1_555
C261 C256 1_555 1_555
C262 C258 1_555 1_555
C263 C262 1_555 1_555
H287 C263 1_555 1_555
C264 C263 1_555 1_555
H288 C264 1_555 1_555
C265 C264 1_555 1_555
C266 C265 1_555 1_555
C267 C266 1_555 1_555
C268 C250 1_555 1_555
H289 C268 1_555 1_555
C269 N16 1_555 1_555
C270 N16 1_555 1_555
C271 C251 1_555 1_555
C272 C246 1_555 1_555
H290 C272 1_555 1_555
C273 N18 1_555 1_555
C274 N18 1_555 1_555
C275 N15 1_555 1_555
C276 N15 1_555 1_555
C277 N17 1_555 1_555
N19 C336 1_555 1_555
N20 C323 1_555 1_555
N21 C278 1_555 1_555
N22 C289 1_555 1_555
N23 C296 1_555 1_555
N24 C307 1_555 1_555
O25 C357 1_555 1_555
O26 C356 1_555 1_555
O27 C365 1_555 1_555
O28 C364 1_555 1_555
O29 C367 1_555 1_555
O30 C314 1_555 1_555
O31 C335 1_555 1_555
O32 C366 1_555 1_555
C278 H291 1_555 1_555
C279 C278 1_555 1_555
H292 C279 1_555 1_555
H293 C279 1_555 1_555
C280 C279 1_555 1_555
H294 C280 1_555 1_555
H295 C280 1_555 1_555
C281 C280 1_555 1_555
H296 C281 1_555 1_555
H297 C281 1_555 1_555
C282 C281 1_555 1_555
H298 C282 1_555 1_555
H299 C282 1_555 1_555
C283 C282 1_555 1_555
H300 C283 1_555 1_555
H301 C283 1_555 1_555
H302 C283 1_555 1_555
C284 C278 1_555 1_555
H303 C284 1_555 1_555
H304 C284 1_555 1_555
C285 C284 1_555 1_555
H305 C285 1_555 1_555
H306 C285 1_555 1_555
C286 C285 1_555 1_555
H307 C286 1_555 1_555
H308 C286 1_555 1_555
C287 C286 1_555 1_555
H309 C287 1_555 1_555
H310 C287 1_555 1_555
C288 C287 1_555 1_555
H311 C288 1_555 1_555
H312 C288 1_555 1_555
H313 C288 1_555 1_555
C289 H314 1_555 1_555
C290 C289 1_555 1_555
H315 C290 1_555 1_555
H316 C290 1_555 1_555
C291 C290 1_555 1_555
H317 C291 1_555 1_555
H318 C291 1_555 1_555
C292 C291 1_555 1_555
H319 C292 1_555 1_555
H320 C292 1_555 1_555
H321 C292 1_555 1_555
C293 C289 1_555 1_555
H322 C293 1_555 1_555
H323 C293 1_555 1_555
C294 C293 1_555 1_555
H324 C294 1_555 1_555
H325 C294 1_555 1_555
C295 C294 1_555 1_555
H326 C295 1_555 1_555
H327 C295 1_555 1_555
H328 C295 1_555 1_555
C296 H329 1_555 1_555
C297 C296 1_555 1_555
H330 C297 1_555 1_555
H331 C297 1_555 1_555
C298 C297 1_555 1_555
H332 C298 1_555 1_555
H333 C298 1_555 1_555
C299 C298 1_555 1_555
H334 C299 1_555 1_555
H335 C299 1_555 1_555
C300 C299 1_555 1_555
H336 C300 1_555 1_555
H337 C300 1_555 1_555
C301 C300 1_555 1_555
H338 C301 1_555 1_555
H339 C301 1_555 1_555
H340 C301 1_555 1_555
C302 C296 1_555 1_555
H341 C302 1_555 1_555
H342 C302 1_555 1_555
C303 C302 1_555 1_555
H343 C303 1_555 1_555
H344 C303 1_555 1_555
C304 C303 1_555 1_555
H345 C304 1_555 1_555
H346 C304 1_555 1_555
C305 C304 1_555 1_555
H347 C305 1_555 1_555
H348 C305 1_555 1_555
C306 C305 1_555 1_555
H349 C306 1_555 1_555
H350 C306 1_555 1_555
H351 C306 1_555 1_555
C307 H352 1_555 1_555
C308 C307 1_555 1_555
H353 C308 1_555 1_555
H354 C308 1_555 1_555
C309 C308 1_555 1_555
H355 C309 1_555 1_555
H356 C309 1_555 1_555
C310 C309 1_555 1_555
H357 C310 1_555 1_555
H358 C310 1_555 1_555
H359 C310 1_555 1_555
C311 C307 1_555 1_555
H360 C311 1_555 1_555
H361 C311 1_555 1_555
C312 C311 1_555 1_555
H362 C312 1_555 1_555
H363 C312 1_555 1_555
C313 C312 1_555 1_555
H364 C313 1_555 1_555
H365 C313 1_555 1_555
H366 C313 1_555 1_555
C314 N23 1_555 1_555
C315 C314 1_555 1_555
C316 C315 1_555 1_555
C317 C316 1_555 1_555
C318 C315 1_555 1_555
H367 C318 1_555 1_555
C319 C318 1_555 1_555
H368 C319 1_555 1_555
C320 C319 1_555 1_555
C321 C316 1_555 1_555
C322 C321 1_555 1_555
C323 C322 1_555 1_555
C324 C317 1_555 1_555
H369 C324 1_555 1_555
C325 C320 1_555 1_555
C326 C325 1_555 1_555
C327 C322 1_555 1_555
C328 N20 1_555 1_555
C329 C328 1_555 1_555
H370 C329 1_555 1_555
C330 C329 1_555 1_555
C331 C326 1_555 1_555
C332 C331 1_555 1_555
C333 C332 1_555 1_555
H371 C333 1_555 1_555
C334 C325 1_555 1_555
H372 C334 1_555 1_555
C335 N24 1_555 1_555
C336 C337 1_555 1_555
C337 C338 1_555 1_555
C338 C339 1_555 1_555
C339 N19 1_555 1_555
C340 C339 1_555 1_555
H373 C340 1_555 1_555
C341 C340 1_555 1_555
C342 C341 1_555 1_555
C343 C338 1_555 1_555
C344 C343 1_555 1_555
C345 C344 1_555 1_555
H374 C345 1_555 1_555
C346 C345 1_555 1_555
H375 C346 1_555 1_555
C347 C342 1_555 1_555
C348 C344 1_555 1_555
C349 C337 1_555 1_555
C350 C349 1_555 1_555
C351 C350 1_555 1_555
C352 C351 1_555 1_555
H376 C352 1_555 1_555
C353 C348 1_555 1_555
H377 C353 1_555 1_555
C354 C350 1_555 1_555
C355 C336 1_555 1_555
H378 C355 1_555 1_555
C356 N21 1_555 1_555
C357 N21 1_555 1_555
C358 N19 1_555 1_555
C359 C358 1_555 1_555
H379 C359 1_555 1_555
C360 N20 1_555 1_555
C361 C360 1_555 1_555
H380 C361 1_555 1_555
C362 C361 1_555 1_555
H381 C362 1_555 1_555
C363 C358 1_555 1_555
H382 C363 1_555 1_555
C364 N22 1_555 1_555
C365 N22 1_555 1_555
C366 N24 1_555 1_555
C367 N23 1_555 1_555
C43 C44 1_555 1_555
C47 C48 1_555 1_555
C50 C51 1_555 1_555
C52 C53 1_555 1_555
C55 C62 1_555 1_555
C56 C57 1_555 1_555
C57 C58 1_555 1_555
C60 C61 1_555 1_555
C61 C93 1_555 1_555
C67 C68 1_555 1_555
C71 C72 1_555 1_555
C74 C81 1_555 1_555
C75 C92 1_555 1_555
C76 C80 1_555 1_555
C79 C92 1_555 1_555
C82 C91 1_555 1_555
C84 C88 1_555 1_555
C84 C89 1_555 1_555
C85 C91 1_555 1_555
C87 C90 1_555 1_555
C134 C135 1_555 1_555
C143 C144 1_555 1_555
C147 C148 1_555 1_555
C150 C151 1_555 1_555
C152 C181 1_555 1_555
C153 C181 1_555 1_555
C157 C158 1_555 1_555
C157 C162 1_555 1_555
C159 C160 1_555 1_555
C159 C161 1_555 1_555
C164 C165 1_555 1_555
C167 C168 1_555 1_555
C170 C171 1_555 1_555
C171 C172 1_555 1_555
C172 C173 1_555 1_555
C174 C182 1_555 1_555
C177 C184 1_555 1_555
C178 C182 1_555 1_555
C179 C180 1_555 1_555
C179 C183 1_555 1_555
C224 C274 1_555 1_555
C226 C273 1_555 1_555
C229 C230 1_555 1_555
C232 C233 1_555 1_555
C234 C235 1_555 1_555
C236 C237 1_555 1_555
C240 C241 1_555 1_555
C240 C277 1_555 1_555
C242 C243 1_555 1_555
C242 C244 1_555 1_555
C249 C272 1_555 1_555
C252 C253 1_555 1_555
C255 C275 1_555 1_555
C256 C257 1_555 1_555
C260 C261 1_555 1_555
C261 C276 1_555 1_555
C262 C271 1_555 1_555
C265 C270 1_555 1_555
C266 C271 1_555 1_555
C267 C268 1_555 1_555
C267 C269 1_555 1_555
C317 C367 1_555 1_555
C320 C321 1_555 1_555
C323 C324 1_555 1_555
C326 C327 1_555 1_555
C327 C328 1_555 1_555
C330 C331 1_555 1_555
C330 C335 1_555 1_555
C332 C366 1_555 1_555
C333 C334 1_555 1_555
C341 C364 1_555 1_555
C342 C343 1_555 1_555
C346 C347 1_555 1_555
C347 C365 1_555 1_555
C348 C349 1_555 1_555
C351 C357 1_555 1_555
C352 C353 1_555 1_555
C354 C355 1_555 1_555
C354 C356 1_555 1_555
C359 C360 1_555 1_555
C362 C363 1_555 1_555

#END
