
#######################################################################
#
#                 Cambridge Crystallographic Data Centre
#                                CCDC 
#
#######################################################################
#
# If this CIF has been generated from an entry in the Cambridge 
# Structural Database, then it will include bibliographic, chemical, 
# crystal, experimental, refinement or atomic coordinate data resulting 
# from the CCDC's data processing and validation procedures.
#
#######################################################################

data_NEXQUC
_chemical_formula_moiety         'C36 H48 Cs2 N24 O18 2+,2(Cl1 1-),3(H2 O1)'
_chemical_name_systematic        
'(\m~2~-Cucurbituril)-bis(triaqua-cesium) dichloride trihydrate clathrate'
_symmetry_cell_setting           monoclinic
_symmetry_space_group_name_H-M   'P 21/n'
_symmetry_Int_Tables_number      14
_space_group_name_Hall           '-P 2yn'
loop_
_symmetry_equiv_pos_site_id
_symmetry_equiv_pos_as_xyz
1 x,y,z
2 1/2-x,1/2+y,1/2-z
3 -x,-y,-z
4 1/2+x,1/2-y,1/2+z
_cell_length_a                   14.277(2)
_cell_length_b                   11.8871(13)
_cell_length_c                   15.901(3)
_cell_angle_alpha                90
_cell_angle_beta                 94.085(8)
_cell_angle_gamma                90
_cell_volume                     2691.74
_cell_formula_units_Z            2
loop_
_atom_site_label
_atom_site_type_symbol
_atom_site_fract_x
_atom_site_fract_y
_atom_site_fract_z
Cs1 Cs 1.4482(1) 0.2025(1) 0.4398(1)
O1 O 1.5997(4) 0.1739(4) 0.6115(4)
O2 O 1.3655(4) 0.1902(4) 0.6153(3)
O3 O 1.2414(4) 0.2825(4) 0.4385(3)
O4 O 1.3607(4) 0.3499(4) 0.2750(3)
O5 O 1.3988(4) 0.6732(4) 0.7356(4)
O6 O 1.2741(4) 0.7611(5) 0.5667(4)
O7 O 1.6178(5) 0.0463(5) 0.3863(4)
O8 O 1.2980(5) 0.0238(5) 0.4124(5)
O9 O 1.5060(5) 0.1136(6) 0.2410(5)
N1 N 1.7150(4) 0.2953(5) 0.6640(4)
N2 N 1.5845(4) 0.2810(5) 0.7298(4)
N3 N 1.4157(4) 0.2935(5) 0.7322(4)
C1 C 1.6301(5) 0.2447(6) 0.6624(5)
C2 C 1.4995(5) 0.2306(6) 0.7558(5)
C3 C 1.3553(5) 0.2658(6) 0.6660(5)
C4 C 1.1967(5) 0.3193(6) 0.6082(5)
N4 N 1.2782(4) 0.3329(5) 0.6674(4)
N5 N 1.1930(4) 0.4017(5) 0.5412(4)
N6 N 1.1766(4) 0.4568(5) 0.4081(4)
N7 N 1.2706(4) 0.5085(5) 0.2928(4)
N8 N 1.5992(4) 0.4759(5) 0.7755(4)
N9 N 1.4304(4) 0.4897(5) 0.7774(4)
N10 N 1.2908(4) 0.5282(5) 0.7154(4)
N11 N 1.1968(4) 0.5953(5) 0.5925(4)
N12 N 1.2090(4) 0.6472(5) 0.4594(4)
C5 C 1.2071(5) 0.3708(6) 0.4604(5)
C6 C 1.1875(5) 0.4535(6) 0.3187(5)
C7 C 1.7295(5) 0.3734(6) 0.7337(4)
C8 C 1.6381(5) 0.3633(6) 0.7805(5)
C9 C 1.3808(5) 0.3838(6) 0.7829(5)
C10 C 1.2842(5) 0.4109(6) 0.7378(4)
C11 C 1.1448(5) 0.5097(6) 0.5447(5)
C12 C 1.1440(5) 0.5526(6) 0.4532(5)
C13 C 1.3457(5) 0.4496(6) 0.2641(4)
C14 C 1.5216(5) 0.5114(6) 0.8219(5)
C15 C 1.3763(5) 0.5736(7) 0.7422(4)
C16 C 1.2138(5) 0.5960(6) 0.6828(5)
C17 C 1.2316(5) 0.6760(6) 0.5417(5)
C18 C 1.7861(5) 0.2708(6) 0.6068(5)
N7B N 1.7294(4) 0.4915(5) 0.7072(4)
C6B C 1.8125(5) 0.5465(6) 0.6813(5)
N6B N 1.8234(4) 0.5432(5) 0.5919(4)
C5B C 1.7929(5) 0.6292(6) 0.5396(5)
O3B O 1.7586(4) 0.7175(4) 0.5615(3)
Cs1B Cs 1.5518(1) 0.7975(1) 0.5602(1)
O1B O 1.4003(4) 0.8261(4) 0.3885(4)
C1B C 1.3699(5) 0.7553(6) 0.3376(5)
N1B N 1.2850(4) 0.7047(5) 0.3360(4)
C7B C 1.2705(5) 0.6266(6) 0.2663(4)
C13B C 1.6543(5) 0.5504(6) 0.7359(4)
O4B O 1.6393(4) 0.6501(4) 0.7250(3)
O2B O 1.6345(4) 0.8098(4) 0.3847(3)
C3B C 1.6447(5) 0.7342(6) 0.3340(5)
N3B N 1.5843(4) 0.7065(5) 0.2678(4)
C2B C 1.5005(5) 0.7694(6) 0.2442(5)
N2B N 1.4155(4) 0.7190(5) 0.2702(4)
C8B C 1.3619(5) 0.6367(6) 0.2195(5)
N8B N 1.4008(4) 0.5241(5) 0.2245(4)
C14B C 1.4784(5) 0.4886(6) 0.1781(5)
N9B N 1.5696(4) 0.5103(5) 0.2226(4)
C9B C 1.6192(5) 0.6162(6) 0.2171(5)
C10B C 1.7158(5) 0.5891(6) 0.2622(4)
N4B N 1.7218(4) 0.6671(5) 0.3326(4)
C4B C 1.8033(5) 0.6807(6) 0.3918(5)
N5B N 1.8070(4) 0.5983(5) 0.4588(4)
C11B C 1.8552(5) 0.4903(6) 0.4553(5)
N11B N 1.8032(4) 0.4047(5) 0.4075(4)
C16B C 1.7862(5) 0.4040(6) 0.3172(5)
N10B N 1.7092(4) 0.4718(5) 0.2846(4)
C15B C 1.6237(5) 0.4264(7) 0.2578(4)
O5B O 1.6012(4) 0.3268(4) 0.2644(4)
C17B C 1.7684(5) 0.3240(6) 0.4583(5)
O6B O 1.7259(4) 0.2389(5) 0.4333(4)
N12B N 1.7910(4) 0.3528(5) 0.5406(4)
C12B C 1.8560(5) 0.4474(6) 0.5468(5)
O7B O 1.3822(5) 0.9537(5) 0.6137(4)
O8B O 1.7020(5) 0.9762(5) 0.5876(5)
O9B O 1.4940(5) 0.8864(6) 0.7590(5)
C18B C 1.2139(5) 0.7292(6) 0.3932(5)
Cl1 Cl 0.9918(2) 0.2109(2) 0.4916(2)
O10 O 1.1474(5) 0.0099(6) 0.5212(5)
O11? O 1.4532(19) 0.4963(24) 0.5219(20)
loop_
_geom_bond_atom_site_label_1
_geom_bond_atom_site_label_2
_geom_bond_site_symmetry_1
_geom_bond_site_symmetry_2
Cs1 O1 1_555 1_555
O1 C1 1_555 1_555
O2 Cs1 1_555 1_555
O3 Cs1 1_555 1_555
O4 Cs1 1_555 1_555
O5 C15 1_555 1_555
O6 C17 1_555 1_555
O7 Cs1 1_555 1_555
O8 Cs1 1_555 1_555
O9 Cs1 1_555 1_555
N1 C1 1_555 1_555
N2 C1 1_555 1_555
N3 C2 1_555 1_555
C2 N2 1_555 1_555
C3 O2 1_555 1_555
C4 N4 1_555 1_555
N4 C3 1_555 1_555
N5 C4 1_555 1_555
N6 C5 1_555 1_555
N7 C6 1_555 1_555
N8 C8 1_555 1_555
N9 C9 1_555 1_555
N10 C10 1_555 1_555
N11 C11 1_555 1_555
N12 C12 1_555 1_555
C5 O3 1_555 1_555
C6 N6 1_555 1_555
C7 N1 1_555 1_555
C8 N2 1_555 1_555
C9 N3 1_555 1_555
C10 N4 1_555 1_555
C11 N5 1_555 1_555
C12 N6 1_555 1_555
C13 O4 1_555 1_555
C14 N8 1_555 1_555
C15 N9 1_555 1_555
C16 N10 1_555 1_555
C17 N11 1_555 1_555
C18 N1 1_555 1_555
N7B C7 1_555 1_555
C6B N7B 1_555 1_555
N6B C6B 1_555 1_555
C5B N6B 1_555 1_555
O3B C5B 1_555 1_555
Cs1B O3B 1_555 1_555
O1B Cs1B 1_555 1_555
C1B O1B 1_555 1_555
N1B C1B 1_555 1_555
C7B N7 1_555 1_555
C13B N8 1_555 1_555
O4B Cs1B 1_555 1_555
O2B Cs1B 1_555 1_555
C3B O2B 1_555 1_555
N3B C3B 1_555 1_555
C2B N3B 1_555 1_555
N2B C1B 1_555 1_555
C8B C7B 1_555 1_555
N8B C13 1_555 1_555
C14B N8B 1_555 1_555
N9B C14B 1_555 1_555
C9B N3B 1_555 1_555
C10B C9B 1_555 1_555
N4B C3B 1_555 1_555
C4B N4B 1_555 1_555
N5B C5B 1_555 1_555
C11B N5B 1_555 1_555
N11B C11B 1_555 1_555
C16B N11B 1_555 1_555
N10B C10B 1_555 1_555
C15B N9B 1_555 1_555
O5B C15B 1_555 1_555
C17B N11B 1_555 1_555
O6B C17B 1_555 1_555
N12B C18 1_555 1_555
C12B N6B 1_555 1_555
O7B Cs1B 1_555 1_555
O8B Cs1B 1_555 1_555
O9B Cs1B 1_555 1_555
C18B N12 1_555 1_555
N3 C3 1_555 1_555
N5 C5 1_555 1_555
N7 C13 1_555 1_555
N9 C14 1_555 1_555
N10 C15 1_555 1_555
N11 C16 1_555 1_555
N12 C17 1_555 1_555
C7 C8 1_555 1_555
C9 C10 1_555 1_555
C11 C12 1_555 1_555
N7B C13B 1_555 1_555
N1B C7B 1_555 1_555
N1B C18B 1_555 1_555
C13B O4B 1_555 1_555
C2B N2B 1_555 1_555
N2B C8B 1_555 1_555
C8B N8B 1_555 1_555
N9B C9B 1_555 1_555
C10B N4B 1_555 1_555
C4B N5B 1_555 1_555
C11B C12B 1_555 1_555
C16B N10B 1_555 1_555
N10B C15B 1_555 1_555
C17B N12B 1_555 1_555
N12B C12B 1_555 1_555

#END
