
#######################################################################
#
#                 Cambridge Crystallographic Data Centre
#                                CCDC 
#
#######################################################################
#
# If this CIF has been generated from an entry in the Cambridge 
# Structural Database, then it will include bibliographic, chemical, 
# crystal, experimental, refinement or atomic coordinate data resulting 
# from the CCDC's data processing and validation procedures.
#
#######################################################################

data_NEXRAJ
_chemical_formula_moiety         'C40 H48 Cl1 Cs1 N24 O15,5(H2 O1)'
_chemical_name_systematic        
'Diaqua-chloro-(cucurbituril)-(tetrahydrofuran)-cesium pentahydrate clathrate'
_symmetry_cell_setting           orthorhombic
_symmetry_space_group_name_H-M   'C m c 21'
_symmetry_Int_Tables_number      36
_space_group_name_Hall           'C 2n -2'
loop_
_symmetry_equiv_pos_site_id
_symmetry_equiv_pos_as_xyz
1 x,y,z
2 -x,-y,1/2+z
3 -x,y,z
4 x,-y,1/2+z
5 1/2+x,1/2+y,z
6 1/2-x,1/2-y,1/2+z
7 1/2-x,1/2+y,z
8 1/2+x,1/2-y,1/2+z
_cell_length_a                   19.457(3)
_cell_length_b                   16.137(3)
_cell_length_c                   15.9197(13)
_cell_angle_alpha                90
_cell_angle_beta                 90
_cell_angle_gamma                90
_cell_volume                     4998.43
_cell_formula_units_Z            4
loop_
_atom_site_label
_atom_site_type_symbol
_atom_site_fract_x
_atom_site_fract_y
_atom_site_fract_z
O12 O 0.4225(6) -0.2374(8) -0.2592(11)
O14 O 0.4294(11) -0.3867(30) -0.3693(16)
Cs1 Cs 0.0000 -0.1615(1) -0.4519(1)
O1 O 0.0000 -0.3301(4) -0.5636(5)
O2 O 0.1610(4) -0.2597(4) -0.4975(4)
O3 O 0.1630(3) -0.1100(3) -0.3625(3)
O4 O 0.0000 -0.0400(4) -0.2975(4)
O5 O 0.0000 -0.5950(4) -0.2882(4)
O6 O 0.1730(2) -0.5244(3) -0.2194(3)
O7 O 0.1666(2) -0.3626(3) -0.0761(3)
O8 O 0.0000 -0.2864(3) -0.0017(4)
N1 N 0.0566(3) -0.4481(3) -0.5207(3)
N2 N 0.1688(3) -0.4006(4) -0.4755(3)
N3 N 0.2310(3) -0.3165(4) -0.3959(3)
N4 N 0.2346(3) -0.2029(3) -0.2963(3)
N5 N 0.1683(2) -0.1223(3) -0.2189(3)
N6 N 0.0565(3) -0.0751(3) -0.1750(4)
N7 N 0.0568(3) -0.5499(3) -0.4076(3)
N8 N 0.1698(2) -0.5032(3) -0.3634(3)
N9 N 0.2342(3) -0.4209(4) -0.2846(3)
N10 N 0.2309(3) -0.3067(3) -0.1843(3)
N11 N 0.1708(2) -0.2226(3) -0.1027(3)
N12 N 0.0572(2) -0.1750(3) -0.0610(3)
C1 C 0.0000 -0.4014(5) -0.5372(6)
C2 C 0.1259(4) -0.4259(5) -0.5456(4)
C3 C 0.1833(4) -0.3184(5) -0.4601(5)
C4 C 0.2640(4) -0.2410(5) -0.3704(4)
C5 C 0.1859(4) -0.1420(4) -0.2991(4)
C6 C 0.1251(3) -0.0526(4) -0.2006(4)
C7 C 0.0000 -0.0611(5) -0.2243(5)
C8 C 0.0401(3) -0.5319(4) -0.4946(4)
C9 C 0.2073(3) -0.4561(5) -0.4247(4)
C10 C 0.2527(3) -0.3975(4) -0.3695(4)
C11 C 0.2529(3) -0.2256(4) -0.2108(4)
C12 C 0.2086(3) -0.1659(4) -0.1568(4)
C13 C 0.0400(3) -0.0924(3) -0.0882(4)
C14 C 0.0000 -0.5671(5) -0.3604(5)
C15 C 0.1256(3) -0.5733(4) -0.3825(4)
C16 C 0.1898(3) -0.4864(4) -0.2816(4)
C17 C 0.2638(3) -0.3843(4) -0.2092(4)
C18 C 0.1870(3) -0.3036(4) -0.1172(4)
C19 C 0.1252(3) -0.1973(4) -0.0347(3)
C20 C 0.0000 -0.2208(5) -0.0368(5)
O9 O 0.0000 -0.2816(9) -0.3135(9)
C21 C 0.0373(4) -0.3820(6) -0.2242(7)
C22 C 0.0569(5) -0.3154(9) -0.2809(9)
Cl1 Cl -0.0485(2) -0.1128(2) -0.6487(2)
O10 O -0.1549(5) -0.0699(6) -0.5319(5)
O2B O -0.1610(4) -0.2597(4) -0.4975(4)
C3B C -0.1833(4) -0.3184(5) -0.4601(5)
N2B N -0.1688(3) -0.4006(4) -0.4755(3)
C2B C -0.1259(4) -0.4259(5) -0.5456(4)
N1B N -0.0566(3) -0.4481(3) -0.5207(3)
C8B C -0.0401(3) -0.5319(4) -0.4946(4)
N7B N -0.0568(3) -0.5499(3) -0.4076(3)
O3B O -0.1630(3) -0.1100(3) -0.3625(3)
C5B C -0.1859(4) -0.1420(4) -0.2991(4)
N4B N -0.2346(3) -0.2029(3) -0.2963(3)
C4B C -0.2640(4) -0.2410(5) -0.3704(4)
N3B N -0.2310(3) -0.3165(4) -0.3959(3)
C10B C -0.2527(3) -0.3975(4) -0.3695(4)
N9B N -0.2342(3) -0.4209(4) -0.2846(3)
C16B C -0.1898(3) -0.4864(4) -0.2816(4)
O6B O -0.1730(2) -0.5244(3) -0.2194(3)
N8B N -0.1698(2) -0.5032(3) -0.3634(3)
C9B C -0.2073(3) -0.4561(5) -0.4247(4)
C15B C -0.1256(3) -0.5733(4) -0.3825(4)
C17B C -0.2638(3) -0.3843(4) -0.2092(4)
N10B N -0.2309(3) -0.3067(3) -0.1843(3)
C11B C -0.2529(3) -0.2256(4) -0.2108(4)
C12B C -0.2086(3) -0.1659(4) -0.1568(4)
N5B N -0.1683(2) -0.1223(3) -0.2189(3)
C6B C -0.1251(3) -0.0526(4) -0.2006(4)
N6B N -0.0565(3) -0.0751(3) -0.1750(4)
C21B C -0.0373(4) -0.3820(6) -0.2242(7)
C22B C -0.0569(5) -0.3154(9) -0.2809(9)
Cl1B Cl 0.0485(2) -0.1128(2) -0.6487(2)
O10B O 0.1549(5) -0.0699(6) -0.5319(5)
C13B C -0.0400(3) -0.0924(3) -0.0882(4)
N12B N -0.0572(2) -0.1750(3) -0.0610(3)
C19B C -0.1252(3) -0.1973(4) -0.0347(3)
N11B N -0.1708(2) -0.2226(3) -0.1027(3)
C18B C -0.1870(3) -0.3036(4) -0.1172(4)
O7B O -0.1666(2) -0.3626(3) -0.0761(3)
O11? O 0.0851(5) 0.2107(7) -0.1576(8)
O13? O 0.4226(6) -0.2677(9) -0.3383(10)
O15? O 0.4104(14) -0.4318(21) -0.3901(16)
loop_
_geom_bond_atom_site_label_1
_geom_bond_atom_site_label_2
_geom_bond_site_symmetry_1
_geom_bond_site_symmetry_2
Cs1 O1 1_555 1_555
O1 C1 1_555 1_555
O2 Cs1 1_555 1_555
O3 Cs1 1_555 1_555
O4 Cs1 1_555 1_555
O5 C14 1_555 1_555
O6 C16 1_555 1_555
O7 C18 1_555 1_555
O8 C20 1_555 1_555
N1 C1 1_555 1_555
N2 C2 1_555 1_555
N3 C3 1_555 1_555
N4 C4 1_555 1_555
N5 C5 1_555 1_555
N6 C6 1_555 1_555
N7 C8 1_555 1_555
N8 C9 1_555 1_555
N9 C10 1_555 1_555
N10 C11 1_555 1_555
N11 C12 1_555 1_555
N12 C13 1_555 1_555
C1 N1B 1_555 1_555
C2 N1 1_555 1_555
C3 O2 1_555 1_555
C4 N3 1_555 1_555
C5 O3 1_555 1_555
C6 N5 1_555 1_555
C7 O4 1_555 1_555
C8 N1 1_555 1_555
C9 N2 1_555 1_555
C10 N3 1_555 1_555
C11 N4 1_555 1_555
C12 N5 1_555 1_555
C13 N6 1_555 1_555
C14 N7 1_555 1_555
C15 N7 1_555 1_555
C16 N8 1_555 1_555
C17 N9 1_555 1_555
C18 N10 1_555 1_555
C19 N11 1_555 1_555
C20 N12 1_555 1_555
O9 Cs1 1_555 1_555
C21 C22 1_555 1_555
C22 O9 1_555 1_555
Cl1 Cs1 1_555 1_555
O10 Cs1 1_555 1_555
O2B Cs1 1_555 1_555
C3B O2B 1_555 1_555
N2B C3B 1_555 1_555
C2B N2B 1_555 1_555
N1B C2B 1_555 1_555
C8B C8 1_555 1_555
N7B C14 1_555 1_555
O3B Cs1 1_555 1_555
C5B O3B 1_555 1_555
N4B C5B 1_555 1_555
C4B N4B 1_555 1_555
N3B C3B 1_555 1_555
C10B N3B 1_555 1_555
N9B C10B 1_555 1_555
C16B N9B 1_555 1_555
O6B C16B 1_555 1_555
N8B C16B 1_555 1_555
C9B N2B 1_555 1_555
C15B N7B 1_555 1_555
C17B N9B 1_555 1_555
N10B C17B 1_555 1_555
C11B N4B 1_555 1_555
C12B C11B 1_555 1_555
N5B C5B 1_555 1_555
C6B N5B 1_555 1_555
N6B C7 1_555 1_555
C21B C21 1_555 1_555
C22B O9 1_555 1_555
Cl1B Cs1 1_555 1_555
O10B Cs1 1_555 1_555
C13B C13 1_555 1_555
N12B C20 1_555 1_555
C19B N12B 1_555 1_555
N11B C12B 1_555 1_555
C18B N10B 1_555 1_555
O7B C18B 1_555 1_555
N2 C3 1_555 1_555
N4 C5 1_555 1_555
N6 C7 1_555 1_555
N8 C15 1_555 1_555
N9 C16 1_555 1_555
N10 C17 1_555 1_555
N11 C18 1_555 1_555
N12 C19 1_555 1_555
C9 C10 1_555 1_555
C11 C12 1_555 1_555
Cl1 Cl1B 1_555 1_555
N1B C8B 1_555 1_555
C8B N7B 1_555 1_555
C4B N3B 1_555 1_555
C10B C9B 1_555 1_555
N8B C9B 1_555 1_555
N8B C15B 1_555 1_555
N10B C11B 1_555 1_555
C12B N5B 1_555 1_555
C6B N6B 1_555 1_555
N6B C13B 1_555 1_555
C21B C22B 1_555 1_555
C13B N12B 1_555 1_555
C19B N11B 1_555 1_555
N11B C18B 1_555 1_555

#END
