
#######################################################################
#
#                 Cambridge Crystallographic Data Centre
#                                CCDC 
#
#######################################################################
#
# If this CIF has been generated from an entry in the Cambridge 
# Structural Database, then it will include bibliographic, chemical, 
# crystal, experimental, refinement or atomic coordinate data resulting 
# from the CCDC's data processing and validation procedures.
#
#######################################################################

data_NEXVEU
_chemical_formula_moiety         'C20 H27 N1 O1 Se1'
_chemical_name_systematic        
4-benzylidene-1-butyl-8-methyl-3-selena-1-azaspiro[4.5]decan-2-one
_symmetry_cell_setting           monoclinic
_symmetry_space_group_name_H-M   'P 21/n'
_symmetry_Int_Tables_number      14
_space_group_name_Hall           '-P 2yn'
loop_
_symmetry_equiv_pos_site_id
_symmetry_equiv_pos_as_xyz
1 x,y,z
2 1/2-x,1/2+y,1/2-z
3 -x,-y,-z
4 1/2+x,1/2-y,1/2+z
_cell_length_a                   8.9094(4)
_cell_length_b                   19.9835(10)
_cell_length_c                   10.4677(5)
_cell_angle_alpha                90
_cell_angle_beta                 93.6472(15)
_cell_angle_gamma                90
_cell_volume                     1859.91
_exptl_crystal_colour            colorless
_exptl_crystal_description       prism
_cell_formula_units_Z            4
loop_
_atom_site_label
_atom_site_type_symbol
_atom_site_fract_x
_atom_site_fract_y
_atom_site_fract_z
C1 C 0.19367(17) 0.26701(8) 0.35151(15)
C2 C 0.16951(16) 0.23919(7) 0.57714(14)
C3 C 0.07104(17) 0.18559(7) 0.50984(14)
C4 C -0.04819(17) 0.15499(8) 0.55333(15)
H1 H -0.0724 0.1655 0.6381
C5 C -0.14611(18) 0.10651(8) 0.48267(14)
C6 C -0.0913(2) 0.05793(8) 0.40236(17)
H2 H 0.0140 0.0541 0.3945
C7 C -0.1890(2) 0.01509(9) 0.33369(19)
H3 H -0.1503 -0.0179 0.2792
C8 C -0.3426(2) 0.02026(11) 0.3443(2)
H4 H -0.4095 -0.0085 0.2961
C9 C -0.3986(2) 0.06754(10) 0.42550(19)
H5 H -0.5040 0.0710 0.4333
C10 C -0.30142(19) 0.10982(9) 0.49542(17)
H6 H -0.3405 0.1414 0.5525
C11 C 0.26994(19) 0.35364(8) 0.50022(17)
H7 H 0.3525 0.3597 0.4423
H8 H 0.3148 0.3539 0.5892
C12 C 0.1615(2) 0.41211(9) 0.4828(2)
H9 H 0.0965 0.4134 0.5561
H10 H 0.0960 0.4050 0.4040
C13 C 0.2419(3) 0.47902(9) 0.4736(2)
H11 H 0.1690 0.5155 0.4860
H12 H 0.3215 0.4820 0.5437
C14 C 0.3122(3) 0.48961(13) 0.3473(3)
H13 H 0.3853 0.4540 0.3345
H14 H 0.3632 0.5331 0.3481
H15 H 0.2335 0.4886 0.2774
C15 C 0.09189(18) 0.27507(8) 0.68561(14)
H16 H 0.1427 0.3185 0.7026
H17 H -0.0136 0.2847 0.6557
C16 C 0.09169(18) 0.23612(8) 0.81128(15)
H18 H 0.0547 0.2658 0.8782
H19 H 0.0207 0.1982 0.8000
C17 C 0.24593(18) 0.20920(8) 0.85694(15)
H20 H 0.3145 0.2480 0.8763
C18 C 0.30876(19) 0.16823(8) 0.74940(16)
H21 H 0.4092 0.1508 0.7784
H22 H 0.2420 0.1295 0.7297
C19 C 0.32210(17) 0.20964(8) 0.62850(15)
H23 H 0.3628 0.1811 0.5615
H24 H 0.3941 0.2466 0.6470
C20 C 0.2344(2) 0.16846(10) 0.97885(18)
H25 H 0.1992 0.1973 1.0465
H26 H 0.3335 0.1502 1.0059
H27 H 0.1631 0.1316 0.9626
N1 N 0.19855(15) 0.28834(7) 0.47404(13)
O1 O 0.22532(14) 0.29978(7) 0.25925(12)
Se1 Se 0.12894(2) 0.17497(2) 0.33835(2)
loop_
_geom_bond_atom_site_label_1
_geom_bond_atom_site_label_2
_geom_bond_site_symmetry_1
_geom_bond_site_symmetry_2
C1 N1 1_555 1_555
C2 C3 1_555 1_555
C3 C4 1_555 1_555
C4 H1 1_555 1_555
C5 C4 1_555 1_555
C6 C5 1_555 1_555
H2 C6 1_555 1_555
C7 C6 1_555 1_555
H3 C7 1_555 1_555
C8 C7 1_555 1_555
H4 C8 1_555 1_555
C9 C8 1_555 1_555
H5 C9 1_555 1_555
C10 C5 1_555 1_555
H6 C10 1_555 1_555
C11 H7 1_555 1_555
H8 C11 1_555 1_555
C12 C11 1_555 1_555
H9 C12 1_555 1_555
H10 C12 1_555 1_555
C13 C12 1_555 1_555
H11 C13 1_555 1_555
H12 C13 1_555 1_555
C14 C13 1_555 1_555
H13 C14 1_555 1_555
H14 C14 1_555 1_555
H15 C14 1_555 1_555
C15 C2 1_555 1_555
H16 C15 1_555 1_555
H17 C15 1_555 1_555
C16 C15 1_555 1_555
H18 C16 1_555 1_555
H19 C16 1_555 1_555
C17 C16 1_555 1_555
H20 C17 1_555 1_555
C18 C17 1_555 1_555
H21 C18 1_555 1_555
H22 C18 1_555 1_555
C19 C2 1_555 1_555
H23 C19 1_555 1_555
H24 C19 1_555 1_555
C20 C17 1_555 1_555
H25 C20 1_555 1_555
H26 C20 1_555 1_555
H27 C20 1_555 1_555
N1 C2 1_555 1_555
O1 C1 1_555 1_555
Se1 C1 1_555 1_555
C3 Se1 1_555 1_555
C9 C10 1_555 1_555
C11 N1 1_555 1_555
C18 C19 1_555 1_555

#END
