
#######################################################################
#
#                 Cambridge Crystallographic Data Centre
#                                CCDC 
#
#######################################################################
#
# If this CIF has been generated from an entry in the Cambridge 
# Structural Database, then it will include bibliographic, chemical, 
# crystal, experimental, refinement or atomic coordinate data resulting 
# from the CCDC's data processing and validation procedures.
#
#######################################################################

data_NEXWEU
_chemical_formula_moiety         'C18 H19 N1 O6'
_chemical_name_systematic        
'Methyl 3-hydroxy-4,4a,6,6a-tetrahydro-8H-[1,3]dioxolo[6,7]isochromeno[3,4-c]indole-5(3H)-carboxylate'
_symmetry_cell_setting           monoclinic
_symmetry_space_group_name_H-M   'P 21/c'
_symmetry_Int_Tables_number      14
_space_group_name_Hall           '-P 2ybc'
loop_
_symmetry_equiv_pos_site_id
_symmetry_equiv_pos_as_xyz
1 x,y,z
2 -x,1/2+y,1/2-z
3 -x,-y,-z
4 x,1/2-y,1/2+z
_cell_length_a                   10.504(8)
_cell_length_b                   13.684(11)
_cell_length_c                   11.302(9)
_cell_angle_alpha                90
_cell_angle_beta                 106.231(7)
_cell_angle_gamma                90
_cell_volume                     1559.76
_exptl_crystal_colour            colorless
_exptl_crystal_description       block
_cell_formula_units_Z            4
loop_
_atom_site_label
_atom_site_type_symbol
_atom_site_fract_x
_atom_site_fract_y
_atom_site_fract_z
C1 C 0.1646(2) 0.24379(13) 0.29102(18)
C2 C 0.1593(2) 0.31905(15) 0.19138(19)
H1 H 0.0840 0.3204 0.1244
C3 C 0.2535(2) 0.38252(15) 0.1930(2)
H2 H 0.2429 0.4234 0.1252
C4 C 0.3762(2) 0.39297(15) 0.2968(2)
H3 H 0.4486 0.3581 0.2761
C5 C 0.3568(2) 0.35018(14) 0.41381(19)
H4 H 0.2993 0.3928 0.4443
H5 H 0.4418 0.3472 0.4759
C6 C 0.29678(19) 0.24865(13) 0.39450(18)
H6 H 0.2820 0.2257 0.4717
C7 C 0.3132(2) 0.13131(15) 0.23735(19)
H7 H 0.3380 0.0631 0.2363
H8 H 0.3315 0.1646 0.1681
C8 C 0.1700(2) 0.14177(14) 0.2347(2)
H9 H 0.1111 0.1373 0.1506
C9 C 0.0084(2) 0.07277(15) 0.3142(3)
H10 H -0.0053 0.0256 0.3735
H11 H -0.0483 0.0545 0.2338
C10 C -0.0317(2) 0.17232(14) 0.3472(2)
C11 C -0.1468(2) 0.18039(15) 0.3855(2)
H12 H -0.1985 0.1260 0.3896
C12 C -0.1802(2) 0.27124(15) 0.4167(2)
C13 C -0.2703(2) 0.39779(17) 0.4863(2)
H13 H -0.2531 0.4038 0.5749
H14 H -0.3488 0.4356 0.4470
C14 C -0.1035(2) 0.35190(14) 0.41340(19)
C15 C 0.0069(2) 0.34604(14) 0.37363(19)
H15 H 0.0568 0.4014 0.3693
C16 C 0.04356(19) 0.25373(14) 0.33915(19)
C17 C 0.4920(2) 0.13672(15) 0.4276(2)
C18 C 0.6420(2) 0.13818(19) 0.6256(2)
H16 H 0.6470 0.0685 0.6186
H17 H 0.6437 0.1551 0.7084
H18 H 0.7163 0.1677 0.6055
N1 N 0.38258(16) 0.17768(12) 0.35379(15)
O1 O 0.14198(15) 0.06853(10) 0.31197(14)
O2 O -0.29032(16) 0.29848(11) 0.45082(17)
O3 O -0.15985(15) 0.43320(11) 0.44940(16)
O4 O 0.41357(19) 0.49256(11) 0.32147(15)
H19 H 0.4257 0.5176 0.2596
O5 O 0.55787(14) 0.07431(11) 0.39543(14)
O6 O 0.52100(14) 0.17295(10) 0.54196(13)
loop_
_geom_bond_atom_site_label_1
_geom_bond_atom_site_label_2
_geom_bond_site_symmetry_1
_geom_bond_site_symmetry_2
C1 C2 1_555 1_555
C2 H1 1_555 1_555
C3 C2 1_555 1_555
H2 C3 1_555 1_555
C4 C3 1_555 1_555
H3 C4 1_555 1_555
C5 C4 1_555 1_555
H4 C5 1_555 1_555
H5 C5 1_555 1_555
C6 C1 1_555 1_555
H6 C6 1_555 1_555
C7 H7 1_555 1_555
H8 C7 1_555 1_555
C8 C1 1_555 1_555
H9 C8 1_555 1_555
C9 H10 1_555 1_555
H11 C9 1_555 1_555
C10 C9 1_555 1_555
C11 C10 1_555 1_555
H12 C11 1_555 1_555
C12 C11 1_555 1_555
C13 H13 1_555 1_555
H14 C13 1_555 1_555
C14 C12 1_555 1_555
C15 C14 1_555 1_555
H15 C15 1_555 1_555
C16 C1 1_555 1_555
C17 N1 1_555 1_555
C18 H16 1_555 1_555
H17 C18 1_555 1_555
H18 C18 1_555 1_555
N1 C6 1_555 1_555
O1 C8 1_555 1_555
O2 C12 1_555 1_555
O3 C13 1_555 1_555
O4 C4 1_555 1_555
H19 O4 1_555 1_555
O5 C17 1_555 1_555
O6 C17 1_555 1_555
C5 C6 1_555 1_555
C7 C8 1_555 1_555
C7 N1 1_555 1_555
C9 O1 1_555 1_555
C10 C16 1_555 1_555
C13 O2 1_555 1_555
C14 O3 1_555 1_555
C15 C16 1_555 1_555
C18 O6 1_555 1_555

#END
