
#######################################################################
#
#                 Cambridge Crystallographic Data Centre
#                                CCDC 
#
#######################################################################
#
# If this CIF has been generated from an entry in the Cambridge 
# Structural Database, then it will include bibliographic, chemical, 
# crystal, experimental, refinement or atomic coordinate data resulting 
# from the CCDC's data processing and validation procedures.
#
#######################################################################

data_NEXYUM
_chemical_formula_moiety         'C18 H12 Cl2 N4 O1,C3 H7 N1 O1'
_chemical_name_systematic        
'6-Amino-8-(2,4-dichlorophenyl)-8,8a-dihydro-1H-isochromene-5,7,7(3H)-tricarbonitrile dimethylformamide solvate'
_symmetry_cell_setting           monoclinic
_symmetry_space_group_name_H-M   'P 21/c'
_symmetry_Int_Tables_number      14
_space_group_name_Hall           '-P 2ybc'
loop_
_symmetry_equiv_pos_site_id
_symmetry_equiv_pos_as_xyz
1 x,y,z
2 -x,1/2+y,1/2-z
3 -x,-y,-z
4 x,1/2-y,1/2+z
_cell_length_a                   17.0495(4)
_cell_length_b                   8.9021(2)
_cell_length_c                   16.1718(4)
_cell_angle_alpha                90
_cell_angle_beta                 116.668(2)
_cell_angle_gamma                90
_cell_volume                     2193.39
_exptl_crystal_colour            colorless
_exptl_crystal_description       block
_cell_formula_units_Z            4
loop_
_atom_site_label
_atom_site_type_symbol
_atom_site_fract_x
_atom_site_fract_y
_atom_site_fract_z
N1 N -0.0684(2) 0.8693(4) -0.0176(3)
N2 N 0.1611(2) 0.8395(4) 0.1292(3)
H1 H 0.2169(5) 0.842(4) 0.147(2)
H2 H 0.128(2) 0.908(3) 0.093(2)
N3 N 0.2599(3) 0.4547(5) 0.1199(3)
N4 N 0.3152(3) 0.7246(5) 0.3522(3)
C1 C -0.1284(3) 0.4017(5) 0.1141(3)
H3 H -0.1488 0.4290 0.1592
H4 H -0.1790 0.3709 0.0579
C2 C -0.0878(2) 0.5347(4) 0.0939(2)
H5 H -0.1246 0.6126 0.0601
C3 C -0.0025(2) 0.5503(4) 0.1209(2)
C4 C 0.0368(2) 0.6838(4) 0.1022(2)
C5 C 0.1244(2) 0.7139(4) 0.1427(2)
C6 C 0.1885(2) 0.5992(4) 0.2089(2)
C7 C 0.1428(2) 0.4883(4) 0.2493(2)
H6 H 0.1259 0.5497 0.2890
C8 C 0.0591(2) 0.4277(4) 0.1756(3)
H7 H 0.0737 0.3697 0.1328
C9 C 0.0147(2) 0.3218(5) 0.2146(3)
H8 H 0.0505 0.2324 0.2379
H9 H 0.0105 0.3701 0.2663
C10 C -0.0212(2) 0.7885(4) 0.0368(3)
C11 C 0.2299(2) 0.5185(5) 0.1588(3)
C12 C 0.2595(3) 0.6733(4) 0.2889(3)
C13 C 0.2066(2) 0.3718(4) 0.3129(2)
C14 C 0.2412(2) 0.3836(4) 0.4082(3)
C15 C 0.3008(2) 0.2819(5) 0.4673(3)
H10 H 0.3238 0.2934 0.5310
C16 C 0.3258(2) 0.1636(5) 0.4305(3)
C17 C 0.2915(3) 0.1440(5) 0.3370(4)
H11 H 0.3081 0.0618 0.3129
C18 C 0.2322(3) 0.2471(4) 0.2787(3)
H12 H 0.2088 0.2333 0.2150
Cl1 Cl 0.21392(8) 0.52882(15) 0.46161(7)
Cl2 Cl 0.40177(15) 0.0340(3) 0.50179(16)
O1 O -0.06979(19) 0.2795(4) 0.1486(3)
N5 N 0.4570(3) 0.5790(6) 0.6581(3)
C19 C 0.3843(4) 0.6469(8) 0.6457(5)
H14 H 0.3631 0.7215 0.6006
C20 C 0.5011(6) 0.6178(11) 0.6046(6)
H15 H 0.4704 0.6985 0.5633
H16 H 0.5027 0.5322 0.5693
H17 H 0.5600 0.6490 0.6449
C21 C 0.4921(6) 0.4635(13) 0.7221(6)
H18 H 0.4563 0.4484 0.7533
H19 H 0.5506 0.4895 0.7664
H20 H 0.4935 0.3728 0.6907
O3 O 0.3432(2) 0.6211(6) 0.6872(3)
H13? H 0.2235 0.4631 0.4332
Cl3? Cl 0.2451(8) 0.1882(13) 0.1824(6)
Cl4? Cl 0.4104(7) 0.1071(19) 0.5362(7)
O2? O -0.0693(8) 0.361(4) 0.2061(7)
loop_
_geom_bond_atom_site_label_1
_geom_bond_atom_site_label_2
_geom_bond_site_symmetry_1
_geom_bond_site_symmetry_2
N1 C10 1_555 1_555
N2 H1 1_555 1_555
H2 N2 1_555 1_555
N3 C11 1_555 1_555
N4 C12 1_555 1_555
C1 H3 1_555 1_555
H4 C1 1_555 1_555
C2 C1 1_555 1_555
H5 C2 1_555 1_555
C3 C2 1_555 1_555
C4 C3 1_555 1_555
C5 N2 1_555 1_555
C6 C5 1_555 1_555
C7 C6 1_555 1_555
H6 C7 1_555 1_555
C8 C3 1_555 1_555
H7 C8 1_555 1_555
C9 C8 1_555 1_555
H8 C9 1_555 1_555
H9 C9 1_555 1_555
C10 C4 1_555 1_555
C11 C6 1_555 1_555
C12 C6 1_555 1_555
C13 C7 1_555 1_555
C14 C13 1_555 1_555
C15 C14 1_555 1_555
H10 C15 1_555 1_555
C16 C15 1_555 1_555
C17 C16 1_555 1_555
H11 C17 1_555 1_555
C18 C13 1_555 1_555
H12 C18 1_555 1_555
Cl1 C14 1_555 1_555
Cl2 C16 1_555 1_555
O1 C1 1_555 1_555
N5 C19 1_555 1_555
C19 H14 1_555 1_555
C20 N5 1_555 1_555
H15 C20 1_555 1_555
H16 C20 1_555 1_555
H17 C20 1_555 1_555
C21 N5 1_555 1_555
H18 C21 1_555 1_555
H19 C21 1_555 1_555
H20 C21 1_555 1_555
O3 C19 1_555 1_555
C4 C5 1_555 1_555
C7 C8 1_555 1_555
C9 O1 1_555 1_555
C17 C18 1_555 1_555

#END
