
#######################################################################
#
#                 Cambridge Crystallographic Data Centre
#                                CCDC 
#
#######################################################################
#
# If this CIF has been generated from an entry in the Cambridge 
# Structural Database, then it will include bibliographic, chemical, 
# crystal, experimental, refinement or atomic coordinate data resulting 
# from the CCDC's data processing and validation procedures.
#
#######################################################################

data_NEXZAT
_chemical_formula_moiety         'C33 H31 Cl2 N3 O4 S1'
_chemical_name_systematic        
'Ethyl 4-((2,2-bis(4-chloro-1-methyl-1H-indol-3-yl)ethyl)((4-methylphenyl)sulfonyl)amino)but-2-ynoate'
_symmetry_cell_setting           monoclinic
_symmetry_space_group_name_H-M   'P 21/c'
_symmetry_Int_Tables_number      14
_space_group_name_Hall           '-P 2ybc'
loop_
_symmetry_equiv_pos_site_id
_symmetry_equiv_pos_as_xyz
1 x,y,z
2 -x,1/2+y,1/2-z
3 -x,-y,-z
4 x,1/2-y,1/2+z
_cell_length_a                   15.8358(12)
_cell_length_b                   15.9416(13)
_cell_length_c                   12.6083(10)
_cell_angle_alpha                90
_cell_angle_beta                 96.204(2)
_cell_angle_gamma                90
_cell_volume                     3164.3
_exptl_crystal_colour            colorless
_exptl_crystal_description       prismatic
_chemical_melting_point          '169-170 deg.C'
_cell_formula_units_Z            4
loop_
_atom_site_label
_atom_site_type_symbol
_atom_site_fract_x
_atom_site_fract_y
_atom_site_fract_z
S1 S 0.06588(4) 0.73925(4) 0.89922(6)
Cl1 Cl 0.32799(5) 0.96564(5) 0.66543(6)
Cl2 Cl 0.40812(5) 0.74331(5) 0.73963(7)
N1 N 0.14574(14) 1.03895(14) 0.9497(2)
N2 N 0.46210(13) 0.91527(14) 1.06997(18)
N3 N 0.15329(13) 0.76399(12) 0.84727(16)
O1 O 0.2489(2) 0.43971(19) 0.7047(3)
O2 O 0.32520(19) 0.48379(17) 0.8499(2)
O3 O 0.07415(11) 0.77383(11) 1.00465(15)
O4 O -0.00371(13) 0.76363(13) 0.82488(18)
C1 C 0.23278(15) 0.78090(14) 0.9154(2)
H1 H 0.2703 0.7329 0.9141
H2 H 0.2205 0.7892 0.9884
C2 C 0.27730(14) 0.85915(14) 0.8773(2)
H3 H 0.2866 0.8504 0.8025
C3 C 0.22502(15) 0.93833(14) 0.8835(2)
C4 C 0.17267(17) 0.95721(16) 0.9590(2)
H4 H 0.1572 0.9197 1.0100
C5 C 0.18168(16) 1.07520(16) 0.8679(3)
C6 C 0.23108(15) 1.01337(15) 0.8219(2)
C7 C 0.27107(17) 1.03772(17) 0.7336(2)
C8 C 0.2644(2) 1.1194(2) 0.6957(3)
H5 H 0.2920 1.1349 0.6372
C9 C 0.2168(2) 1.1783(2) 0.7446(4)
H6 H 0.2138 1.2330 0.7192
C10 C 0.1746(2) 1.15729(18) 0.8287(3)
H7 H 0.1417 1.1967 0.8597
C11 C 0.0916(2) 1.0814(2) 1.0195(3)
H8 H 0.1218 1.1279 1.0540
H9 H 0.0760 1.0427 1.0725
H10 H 0.0412 1.1015 0.9780
C12 C 0.36324(15) 0.86973(14) 0.9411(2)
C13 C 0.37854(16) 0.91785(15) 1.0305(2)
H11 H 0.3373 0.9485 1.0607
C14 C 0.50421(16) 0.86531(15) 1.0058(2)
C15 C 0.44397(15) 0.83457(14) 0.9229(2)
C16 C 0.47582(17) 0.78414(17) 0.8458(2)
C17 C 0.5610(2) 0.7666(2) 0.8500(3)
H12 H 0.5810 0.7334 0.7975
C18 C 0.6176(2) 0.7983(2) 0.9322(3)
H13 H 0.6750 0.7858 0.9336
C19 C 0.59103(17) 0.84712(19) 1.0110(3)
H14 H 0.6292 0.8676 1.0661
C20 C 0.49960(19) 0.95847(19) 1.1650(2)
H15 H 0.5101 0.9190 1.2225
H16 H 0.4613 1.0011 1.1845
H17 H 0.5522 0.9839 1.1510
C21 C 0.1632(2) 0.72789(18) 0.7429(2)
H18 H 0.1973 0.7656 0.7047
H19 H 0.1077 0.7235 0.7023
C22 C 0.2035(2) 0.6443(2) 0.7485(2)
C23 C 0.2360(2) 0.5778(2) 0.7578(3)
C24 C 0.2697(2) 0.4934(2) 0.7665(3)
C25 C 0.3593(3) 0.3989(3) 0.8682(5)
H20 H 0.3211 0.3660 0.9068
H21 H 0.3642 0.3716 0.8004
C26 C 0.4409(4) 0.4038(3) 0.9285(5)
H22 H 0.4760 0.4424 0.8948
H23 H 0.4668 0.3493 0.9320
H24 H 0.4345 0.4229 0.9994
C27 C 0.06566(15) 0.62893(15) 0.9064(2)
C28 C 0.11992(17) 0.58914(16) 0.9833(2)
H25 H 0.1517 0.6202 1.0358
C29 C 0.12661(18) 0.50330(18) 0.9816(2)
H26 H 0.1629 0.4766 1.0340
C30 C 0.08070(18) 0.45566(17) 0.9041(2)
C31 C 0.02568(19) 0.49611(19) 0.8299(3)
H27 H -0.0069 0.4648 0.7784
C32 C 0.01764(17) 0.58217(18) 0.8299(2)
H28 H -0.0199 0.6086 0.7786
C33 C 0.0927(2) 0.36186(18) 0.9017(3)
H29 H 0.0422 0.3361 0.8672
H30 H 0.1036 0.3410 0.9733
H31 H 0.1400 0.3488 0.8629
loop_
_geom_bond_atom_site_label_1
_geom_bond_atom_site_label_2
_geom_bond_site_symmetry_1
_geom_bond_site_symmetry_2
S1 N3 1_555 1_555
Cl1 C7 1_555 1_555
Cl2 C16 1_555 1_555
N1 C4 1_555 1_555
N2 C13 1_555 1_555
N3 C1 1_555 1_555
O1 C24 1_555 1_555
O2 C24 1_555 1_555
O3 S1 1_555 1_555
O4 S1 1_555 1_555
C1 H1 1_555 1_555
H2 C1 1_555 1_555
C2 C1 1_555 1_555
H3 C2 1_555 1_555
C3 C2 1_555 1_555
C4 C3 1_555 1_555
H4 C4 1_555 1_555
C5 N1 1_555 1_555
C6 C3 1_555 1_555
C7 C6 1_555 1_555
C8 C7 1_555 1_555
H5 C8 1_555 1_555
C9 C8 1_555 1_555
H6 C9 1_555 1_555
C10 C5 1_555 1_555
H7 C10 1_555 1_555
C11 N1 1_555 1_555
H8 C11 1_555 1_555
H9 C11 1_555 1_555
H10 C11 1_555 1_555
C12 C2 1_555 1_555
C13 C12 1_555 1_555
H11 C13 1_555 1_555
C14 N2 1_555 1_555
C15 C12 1_555 1_555
C16 C15 1_555 1_555
C17 C16 1_555 1_555
H12 C17 1_555 1_555
C18 C17 1_555 1_555
H13 C18 1_555 1_555
C19 C14 1_555 1_555
H14 C19 1_555 1_555
C20 N2 1_555 1_555
H15 C20 1_555 1_555
H16 C20 1_555 1_555
H17 C20 1_555 1_555
C21 N3 1_555 1_555
H18 C21 1_555 1_555
H19 C21 1_555 1_555
C22 C21 1_555 1_555
C23 C22 1_555 1_555
C24 C23 1_555 1_555
C25 O2 1_555 1_555
H20 C25 1_555 1_555
H21 C25 1_555 1_555
C26 C25 1_555 1_555
H22 C26 1_555 1_555
H23 C26 1_555 1_555
H24 C26 1_555 1_555
C27 S1 1_555 1_555
C28 C27 1_555 1_555
H25 C28 1_555 1_555
C29 C28 1_555 1_555
H26 C29 1_555 1_555
C30 C29 1_555 1_555
C31 C30 1_555 1_555
H27 C31 1_555 1_555
C32 C27 1_555 1_555
H28 C32 1_555 1_555
C33 C30 1_555 1_555
H29 C33 1_555 1_555
H30 C33 1_555 1_555
H31 C33 1_555 1_555
C5 C6 1_555 1_555
C9 C10 1_555 1_555
C14 C15 1_555 1_555
C18 C19 1_555 1_555
C31 C32 1_555 1_555

#END
