
#######################################################################
#
#                 Cambridge Crystallographic Data Centre
#                                CCDC 
#
#######################################################################
#
# If this CIF has been generated from an entry in the Cambridge 
# Structural Database, then it will include bibliographic, chemical, 
# crystal, experimental, refinement or atomic coordinate data resulting 
# from the CCDC's data processing and validation procedures.
#
#######################################################################

data_NEYDAZ
_chemical_formula_moiety         'C19 H17 N1 O3'
_chemical_name_systematic        
1'-butyl-3H-spiro[1-benzofuran-2,3'-indole]-2',3(1'H)-dione
_symmetry_cell_setting           monoclinic
_symmetry_space_group_name_H-M   'P 21/c'
_symmetry_Int_Tables_number      14
_space_group_name_Hall           '-P 2ybc'
loop_
_symmetry_equiv_pos_site_id
_symmetry_equiv_pos_as_xyz
1 x,y,z
2 -x,1/2+y,1/2-z
3 -x,-y,-z
4 x,1/2-y,1/2+z
_cell_length_a                   9.5884(14)
_cell_length_b                   15.108(2)
_cell_length_c                   10.7433(17)
_cell_angle_alpha                90
_cell_angle_beta                 96.117(5)
_cell_angle_gamma                90
_cell_volume                     1547.43
_exptl_crystal_colour            colorless
_exptl_crystal_description       Prism
_cell_formula_units_Z            4
loop_
_atom_site_label
_atom_site_type_symbol
_atom_site_fract_x
_atom_site_fract_y
_atom_site_fract_z
O1 O 0.68228(9) 0.19507(5) 0.57948(8)
O2 O 0.91103(9) 0.07935(6) 0.80365(8)
O3 O 0.55100(10) 0.12193(7) 0.79949(9)
N1 N 0.58036(10) -0.00655(7) 0.68972(9)
C1 C 0.78393(12) 0.25639(8) 0.61770(11)
C2 C 0.78783(14) 0.34104(9) 0.56971(12)
H1 H 0.7193 0.3615 0.5072
C3 C 0.89776(15) 0.39408(9) 0.61841(14)
H2 H 0.9042 0.4520 0.5876
C4 C 0.99957(15) 0.36473(9) 0.71170(14)
H3 H 1.0717 0.4032 0.7436
C5 C 0.99501(14) 0.27979(9) 0.75730(12)
H4 H 1.0638 0.2592 0.8195
C6 C 0.88514(12) 0.22502(8) 0.70844(11)
C7 C 0.85303(12) 0.13352(8) 0.73244(10)
C8 C 0.71942(12) 0.11327(8) 0.64298(10)
C9 C 0.73850(12) 0.03769(8) 0.55664(11)
C10 C 0.81963(14) 0.02984(10) 0.45942(12)
H5 H 0.8754 0.0772 0.4370
C11 C 0.81701(16) -0.05015(11) 0.39501(13)
H6 H 0.8715 -0.0571 0.3280
C12 C 0.73525(16) -0.11899(10) 0.42878(13)
H7 H 0.7348 -0.1723 0.3837
C13 C 0.65307(15) -0.11217(9) 0.52763(13)
H8 H 0.5979 -0.1597 0.5505
C14 C 0.65642(12) -0.03233(8) 0.59056(11)
C15 C 0.60405(12) 0.07973(8) 0.72121(11)
C16 C 0.49258(13) -0.06633(10) 0.75418(13)
H9 H 0.4348 -0.1019 0.6922
H10 H 0.4295 -0.0315 0.8010
C17 C 0.57981(13) -0.12773(9) 0.84392(12)
H11 H 0.5169 -0.1689 0.8810
H12 H 0.6422 -0.1627 0.7966
C18 C 0.66715(15) -0.07919(9) 0.94796(12)
H13 H 0.6055 -0.0417 0.9926
H14 H 0.7338 -0.0404 0.9113
C19 C 0.74741(16) -0.14117(10) 1.04064(13)
H15 H 0.6818 -0.1783 1.0796
H16 H 0.8025 -0.1068 1.1044
H17 H 0.8093 -0.1781 0.9972
loop_
_geom_bond_atom_site_label_1
_geom_bond_atom_site_label_2
_geom_bond_site_symmetry_1
_geom_bond_site_symmetry_2
O1 C1 1_555 1_555
O2 C7 1_555 1_555
O3 C15 1_555 1_555
N1 C14 1_555 1_555
C1 C2 1_555 1_555
C2 H1 1_555 1_555
C3 C2 1_555 1_555
H2 C3 1_555 1_555
C4 C3 1_555 1_555
H3 C4 1_555 1_555
C5 C4 1_555 1_555
H4 C5 1_555 1_555
C6 C1 1_555 1_555
C7 C6 1_555 1_555
C8 O1 1_555 1_555
C9 C8 1_555 1_555
C10 C9 1_555 1_555
H5 C10 1_555 1_555
C11 C10 1_555 1_555
H6 C11 1_555 1_555
C12 C11 1_555 1_555
H7 C12 1_555 1_555
C13 C12 1_555 1_555
H8 C13 1_555 1_555
C14 C9 1_555 1_555
C15 N1 1_555 1_555
C16 N1 1_555 1_555
H9 C16 1_555 1_555
H10 C16 1_555 1_555
C17 C16 1_555 1_555
H11 C17 1_555 1_555
H12 C17 1_555 1_555
C18 C17 1_555 1_555
H13 C18 1_555 1_555
H14 C18 1_555 1_555
C19 C18 1_555 1_555
H15 C19 1_555 1_555
H16 C19 1_555 1_555
H17 C19 1_555 1_555
C5 C6 1_555 1_555
C7 C8 1_555 1_555
C8 C15 1_555 1_555
C13 C14 1_555 1_555

#END
