
#######################################################################
#
#                 Cambridge Crystallographic Data Centre
#                                CCDC 
#
#######################################################################
#
# If this CIF has been generated from an entry in the Cambridge 
# Structural Database, then it will include bibliographic, chemical, 
# crystal, experimental, refinement or atomic coordinate data resulting 
# from the CCDC's data processing and validation procedures.
#
#######################################################################

data_NEYGUW
_chemical_formula_moiety         
'4(C63 H48 N18 O12),4(O4 P1 3-),12(C16 H36 N1 1+),2.5(C2 H3 N1),6(H2 O1)'
_chemical_name_systematic        
"dodecakis(tetra-n-butylammonium) tetrakis(N,N',N''-{1,3,5-triazine-2,4,6-triyltris[(4,1-phenylene)carbamoylazanediyl-2,1-phenylene]}tris[N'-(4-nitrophenyl)urea]) tetrakis(phosphate) acetonitrile solvate hexahydrate"
_symmetry_cell_setting           monoclinic
_symmetry_space_group_name_H-M   'C 2/c'
_symmetry_Int_Tables_number      15
_space_group_name_Hall           '-C 2yn'
loop_
_symmetry_equiv_pos_site_id
_symmetry_equiv_pos_as_xyz
1 x,y,z
2 -x,y,1/2-z
3 1/2+x,1/2+y,z
4 1/2-x,1/2+y,1/2-z
5 -x,-y,-z
6 x,-y,1/2+z
7 1/2-x,1/2-y,-z
8 1/2+x,1/2-y,1/2+z
_cell_length_a                   64.9220(17)
_cell_length_b                   38.8988(9)
_cell_length_c                   43.3302(12)
_cell_angle_alpha                90
_cell_angle_beta                 93.821(2)
_cell_angle_gamma                90
_cell_volume                     109182
_exptl_crystal_colour            yellow
_exptl_crystal_description       block
_cell_formula_units_Z            8
loop_
_atom_site_label
_atom_site_type_symbol
_atom_site_fract_x
_atom_site_fract_y
_atom_site_fract_z
P1 P 0.59372(2) 0.48594(2) 0.67082(2)
O1 O 0.57288(3) 0.50499(4) 0.66621(4)
O2 O 0.59211(3) 0.45026(4) 0.65585(4)
O3 O 0.61046(3) 0.50734(4) 0.65596(4)
O4 O 0.59973(3) 0.48284(4) 0.70564(4)
P2 P 0.42824(2) 0.19998(2) 0.51118(2)
O5 O 0.42316(3) 0.20391(4) 0.47614(5)
O6 O 0.45107(3) 0.20725(5) 0.51938(5)
O7 O 0.42264(3) 0.16310(4) 0.52052(5)
O8 O 0.41471(3) 0.22548(5) 0.52842(5)
P3 P 0.65748(2) 0.25692(2) 0.36494(2)
O9 O 0.64652(3) 0.25485(5) 0.39475(4)
O10 O 0.66515(3) 0.29397(5) 0.36017(5)
O11 O 0.64269(3) 0.24715(5) 0.33701(5)
O12 O 0.67625(4) 0.23231(6) 0.36573(6)
P4 P 0.64091(2) 0.05852(2) 0.70670(2)
O13 O 0.63269(3) 0.08783(4) 0.68580(5)
O14 O 0.65316(3) 0.07344(5) 0.73554(5)
O15 O 0.65548(3) 0.03560(5) 0.68892(6)
O16 O 0.62309(3) 0.03646(5) 0.71722(6)
O17 O 0.63837(4) 0.37456(5) 0.43161(5)
N1 N 0.64956(3) 0.31870(5) 0.43241(5)
H1 H 0.654499 0.302343 0.420980
O18 O 0.61356(4) 0.34798(5) 0.28419(5)
N2 N 0.64763(4) 0.34852(6) 0.38701(5)
H2 H 0.651435 0.328839 0.379145
N3 N 0.63730(4) 0.33700(6) 0.32483(6)
H3 H 0.644570 0.320759 0.334584
N4 N 0.65273(4) 0.09840(5) 0.62733(6)
H4 H 0.651663 0.094679 0.647193
O19 O 0.53348(4) 0.46720(7) 0.75284(6)
O20 O 0.61166(5) 0.36408(5) 0.73785(5)
N5 N 0.61155(4) 0.39374(6) 0.69239(5)
H5 H 0.610150 0.414490 0.684422
N6 N 0.63785(4) 0.26063(6) 0.61574(6)
N7 N 0.62325(5) 0.29298(6) 0.29643(6)
H6 H 0.631135 0.280490 0.309372
O21 O 0.65863(5) 0.07194(6) 0.58159(6)
N8 N 0.54425(4) 0.49632(6) 0.71072(6)
H7 H 0.555186 0.500945 0.700505
N9 N 0.59708(5) 0.41752(6) 0.73372(6)
H8 H 0.595676 0.435469 0.721395
N10 N 0.56730(4) 0.46689(6) 0.74236(6)
H9 H 0.576380 0.474443 0.729769
N11 N 0.63735(5) 0.30461(6) 0.57780(6)
C1 C 0.64445(4) 0.34946(7) 0.41810(7)
N12 N 0.65638(5) 0.04048(6) 0.62550(7)
H10 H 0.654446 0.041867 0.645372
N13 N 0.64427(5) 0.24703(6) 0.56377(6)
C2 C 0.61823(5) 0.36730(6) 0.67317(6)
C3 C 0.64753(4) 0.31144(7) 0.46364(6)
O22 O 0.61576(6) -0.06139(6) 0.64445(8)
C4 C 0.65068(5) 0.13249(7) 0.61733(7)
N14 N 0.61336(5) -0.02588(7) 0.68665(8)
H11 H 0.618124 -0.006868 0.695522
C5 C 0.63004(5) 0.31918(7) 0.62948(7)
C6 C 0.64356(6) 0.29071(8) 0.52467(7)
C7 C 0.64017(5) 0.37094(7) 0.33518(7)
C8 C 0.62674(6) 0.30980(7) 0.65966(7)
H12 H 0.628569 0.286503 0.665814
N15 N 0.63851(5) -0.01644(6) 0.65233(8)
H13 H 0.641960 0.000948 0.664599
C9 C 0.64285(5) 0.33521(7) 0.48587(7)
H14 H 0.640989 0.358716 0.480423
C10 C 0.64090(5) 0.32472(7) 0.51599(7)
H15 H 0.637658 0.341236 0.531075
C11 C 0.64519(5) 0.37713(7) 0.36681(7)
C12 C 0.62394(5) 0.32746(7) 0.30056(7)
C13 C 0.60706(6) 0.38937(7) 0.72278(7)
C14 C 0.54751(6) 0.47573(8) 0.73696(8)
C15 C 0.65626(5) 0.06983(7) 0.60925(8)
C16 C 0.62088(6) 0.33358(7) 0.68079(7)
H16 H 0.618622 0.326311 0.701227
C17 C 0.64509(6) 0.20197(7) 0.60209(7)
C18 C 0.64691(5) 0.15670(7) 0.63950(8)
H17 H 0.646262 0.149694 0.660416
C19 C 0.63559(5) 0.29326(8) 0.60645(7)
C20 C 0.64408(5) 0.19069(8) 0.63196(7)
H18 H 0.641372 0.206737 0.647718
C21 C 0.65016(5) 0.27742(7) 0.47235(7)
H19 H 0.653299 0.260726 0.457360
C22 C 0.64227(6) 0.23844(7) 0.59367(7)
C23 C 0.52706(5) 0.53489(8) 0.67566(8)
H20 H 0.540236 0.541489 0.669393
C24 C 0.62162(6) 0.37727(8) 0.64303(8)
H21 H 0.620040 0.400705 0.637167
O23 O 0.47380(5) 0.57826(11) 0.63731(12)
C25 C 0.64173(6) 0.28019(8) 0.55704(8)
N16 N 0.47239(5) 0.55601(13) 0.65702(10)
C26 C 0.52566(5) 0.51035(8) 0.69886(8)
C27 C 0.61114(6) 0.27508(8) 0.27346(8)
C28 C 0.58889(7) 0.42024(9) 0.76287(8)
C29 C 0.62729(6) 0.35318(8) 0.62151(8)
H22 H 0.629306 0.360296 0.600959
C30 C 0.64825(6) 0.26751(8) 0.50259(8)
H23 H 0.650242 0.244067 0.508158
C31 C 0.50969(5) 0.54957(9) 0.66184(9)
H24 H 0.510664 0.565968 0.645752
C32 C 0.57420(6) 0.44579(8) 0.76760(8)
C33 C 0.65288(7) 0.14363(8) 0.58710(9)
H25 H 0.656135 0.127703 0.571532
O24 O 0.45522(5) 0.54681(16) 0.66502(10)
C34 C 0.65029(7) 0.17797(8) 0.58007(8)
H26 H 0.652114 0.185507 0.559576
C35 C 0.59759(7) -0.04279(9) 0.70037(13)
C36 C 0.65942(7) 0.00710(9) 0.61278(10)
C37 C 0.50623(5) 0.50047(11) 0.70842(9)
H27 H 0.505183 0.483728 0.724201
C38 C 0.65027(7) -0.02140(8) 0.62612(10)
C39 C 0.49016(6) 0.53989(11) 0.67194(10)
C40 C 0.63843(7) 0.39867(8) 0.31507(9)
H28 H 0.635053 0.394888 0.293665
C41 C 0.56700(7) 0.45004(10) 0.79693(8)
H29 H 0.557213 0.467581 0.800259
O25 O 0.58309(9) 0.18458(11) 0.20319(10)
C42 C 0.64820(7) 0.41055(8) 0.37680(9)
H30 H 0.652048 0.414907 0.397980
C43 C 0.59304(7) 0.28848(10) 0.25947(9)
H31 H 0.588451 0.310854 0.264524
C44 C 0.62224(7) -0.03649(8) 0.66011(11)
N17 N 0.57613(9) 0.21537(12) 0.20798(10)
C45 C 0.64157(8) 0.43157(9) 0.32591(9)
H32 H 0.640818 0.450241 0.311746
O26 O 0.56030(8) 0.22742(13) 0.19653(10)
C46 C 0.48883(6) 0.51536(12) 0.69460(10)
H33 H 0.475655 0.508631 0.700770
O27 O 0.54258(6) -0.11376(10) 0.73822(15)
C47 C 0.65372(8) -0.05328(10) 0.61344(11)
H34 H 0.647241 -0.072852 0.621632
C48 C 0.64570(8) 0.43782(9) 0.35635(10)
H35 H 0.646873 0.460794 0.363687
C49 C 0.61777(9) 0.24235(10) 0.26652(9)
H36 H 0.630051 0.233551 0.276741
C50 C 0.58161(8) 0.26800(12) 0.23753(10)
H37 H 0.569229 0.276403 0.227267
C51 C 0.67182(8) 0.00306(9) 0.58824(10)
H38 H 0.678196 0.022410 0.579494
C52 C 0.58879(9) 0.23566(11) 0.23136(10)
C53 C 0.57372(10) 0.42963(12) 0.82068(10)
H39 H 0.568236 0.432332 0.840322
N18 N 0.54943(7) -0.08654(12) 0.7489(2)
C54 C 0.66597(10) -0.05753(10) 0.58982(14)
H40 H 0.668464 -0.080009 0.582361
C55 C 0.60664(9) 0.22214(13) 0.24471(10)
H41 H 0.611282 0.199899 0.239354
C56 C 0.56589(8) -0.07097(12) 0.73079(18)
C57 C 0.67481(10) -0.03000(11) 0.57652(13)
H42 H 0.682983 -0.033186 0.559358
C58 C 0.58988(8) -0.07586(12) 0.69454(17)
H43 H 0.595437 -0.089716 0.679060
C59 C 0.57397(7) -0.08849(12) 0.71158(17)
H44 H 0.569305 -0.111397 0.708099
C60 C 0.59615(11) 0.40063(11) 0.78805(10)
H45 H 0.606606 0.383965 0.785539
C61 C 0.58990(9) -0.02580(11) 0.72421(16)
H46 H 0.595155 -0.003837 0.730243
C62 C 0.58843(11) 0.40498(13) 0.81662(11)
H47 H 0.593280 0.390943 0.833514
C63 C 0.57478(12) -0.04032(13) 0.7392(2)
H48 H 0.570003 -0.028695 0.756666
O28 O 0.54326(11) -0.07080(16) 0.7686(2)
O29 O 0.48496(3) 0.10293(5) 0.56105(6)
O30 O 0.65860(4) 0.19761(5) 0.73026(6)
O31 O 0.57540(4) 0.57968(6) 0.57659(6)
N19 N 0.54926(4) 0.42569(5) 0.64066(5)
H49 H 0.558026 0.436170 0.653873
N20 N 0.63474(3) 0.15613(5) 0.71484(5)
H50 H 0.632591 0.133794 0.714864
N21 N 0.47215(4) 0.15763(5) 0.56225(6)
H51 H 0.461545 0.170559 0.556059
O32 O 0.42497(4) 0.09002(5) 0.42960(6)
N22 N 0.54363(4) 0.47930(5) 0.62150(6)
H52 H 0.554604 0.484585 0.633577
N23 N 0.56602(4) 0.26471(5) 0.66220(6)
N24 N 0.59814(4) 0.55977(6) 0.61535(6)
H53 H 0.600088 0.543451 0.629310
N25 N 0.42987(4) 0.11123(6) 0.47888(6)
H54 H 0.428855 0.129824 0.490251
N26 N 0.53396(4) 0.26323(6) 0.63306(6)
N27 N 0.56501(4) 0.54014(6) 0.61130(6)
H55 H 0.569193 0.527326 0.627240
O33 O 0.52399(4) 0.43491(5) 0.60251(7)
N28 N 0.41653(4) 0.14596(6) 0.43999(6)
H56 H 0.418180 0.162492 0.453791
N29 N 0.45502(4) 0.11629(6) 0.53333(6)
H57 H 0.446600 0.133333 0.528025
N30 N 0.55135(4) 0.21111(5) 0.64630(6)
N31 N 0.66666(4) 0.14069(6) 0.73429(6)
H58 H 0.662284 0.119998 0.728876
O34 O 0.72590(4) 0.07696(7) 0.70768(8)
N32 N 0.69479(4) 0.08848(7) 0.72642(7)
H59 H 0.681679 0.082579 0.725099
C64 C 0.61840(4) 0.17674(7) 0.70258(7)
N33 N 0.69797(4) 0.04204(7) 0.69565(8)
H60 H 0.684549 0.040710 0.697207
C65 C 0.54941(5) 0.27993(7) 0.64816(7)
C66 C 0.53550(5) 0.22908(7) 0.63277(7)
C67 C 0.48809(4) 0.17338(7) 0.58081(7)
C68 C 0.47168(4) 0.12351(7) 0.55287(8)
C69 C 0.51902(4) 0.20978(6) 0.61532(7)
C70 C 0.56631(4) 0.23025(7) 0.66108(7)
C71 C 0.53348(5) 0.50630(7) 0.60515(7)
C72 C 0.53789(5) 0.44584(7) 0.62017(8)
C73 C 0.54859(5) 0.31763(7) 0.64742(8)
C74 C 0.61462(5) 0.58211(7) 0.61122(7)
C75 C 0.54821(4) 0.38955(6) 0.64257(7)
C76 C 0.58402(4) 0.21198(7) 0.67541(7)
O35 O 0.37549(6) 0.21835(7) 0.32207(7)
C77 C 0.42398(5) 0.11349(7) 0.44833(8)
C78 C 0.57924(5) 0.56124(7) 0.59944(7)
C79 C 0.43750(5) 0.08122(7) 0.49359(9)
C80 C 0.54406(5) 0.53699(7) 0.60023(8)
C81 C 0.65373(5) 0.16725(7) 0.72681(7)
C82 C 0.61724(5) 0.21198(7) 0.70341(8)
H61 H 0.628306 0.224751 0.713202
C83 C 0.53260(5) 0.37018(7) 0.62745(8)
H62 H 0.521704 0.381235 0.615561
C84 C 0.40661(5) 0.15431(7) 0.41128(8)
C85 C 0.60049(5) 0.22886(7) 0.69045(8)
H63 H 0.600097 0.253222 0.691784
C86 C 0.45021(5) 0.08357(7) 0.52092(8)
C87 C 0.53305(5) 0.33428(7) 0.62986(8)
H64 H 0.522481 0.321114 0.619245
C88 C 0.68639(5) 0.14286(8) 0.74984(8)
C89 C 0.50274(5) 0.15610(7) 0.59911(8)
H65 H 0.502309 0.131714 0.600160
C90 C 0.56343(5) 0.37288(7) 0.66016(9)
H66 H 0.573948 0.386031 0.670912
C91 C 0.50390(5) 0.22687(7) 0.59674(9)
H67 H 0.504083 0.251254 0.595533
C92 C 0.48886(5) 0.20879(7) 0.58030(8)
H68 H 0.478592 0.221006 0.568116
C93 C 0.51805(5) 0.17374(7) 0.61593(9)
H69 H 0.528160 0.161287 0.628217
C94 C 0.63380(5) 0.57306(8) 0.62537(8)
H70 H 0.634998 0.552171 0.636706
C95 C 0.70794(5) 0.06983(9) 0.70934(10)
C96 C 0.56392(5) 0.33717(7) 0.66272(9)
H71 H 0.574731 0.326256 0.674914
C97 C 0.61283(6) 0.61324(8) 0.59423(8)
H72 H 0.600028 0.620033 0.584158
C98 C 0.43188(6) 0.04814(8) 0.48261(9)
H73 H 0.422892 0.046006 0.464491
C99 C 0.70070(5) 0.11651(8) 0.74603(8)
C100 C 0.51248(5) 0.50411(8) 0.59432(9)
H74 H 0.504942 0.483737 0.597980
C101 C 0.40545(6) 0.18956(7) 0.40394(8)
H75 H 0.411216 0.206026 0.418226
N34 N 0.37697(7) 0.18831(9) 0.32744(8)
C102 C 0.38786(7) 0.17626(9) 0.35589(8)
C103 C 0.53341(6) 0.56428(8) 0.58522(9)
H76 H 0.540366 0.585459 0.582616
C104 C 0.39758(6) 0.13078(8) 0.39059(8)
H77 H 0.398067 0.106942 0.395336
C105 C 0.70715(6) 0.01578(9) 0.67954(11)
O36 O 0.37017(7) 0.16552(8) 0.30877(8)
C106 C 0.45659(6) 0.05379(8) 0.53608(10)
H78 H 0.464389 0.055237 0.555385
C107 C 0.69452(6) -0.01257(9) 0.67105(10)
H79 H 0.680613 -0.012744 0.676607
C108 C 0.63011(6) 0.63320(9) 0.59279(10)
H80 H 0.628991 0.654758 0.582505
C109 C 0.69192(6) 0.17003(10) 0.76988(9)
H81 H 0.682408 0.188173 0.772551
C110 C 0.58499(6) 0.17712(8) 0.67515(10)
H82 H 0.573774 0.164427 0.665672
C111 C 0.51322(7) 0.56113(9) 0.57424(11)
H83 H 0.506485 0.579810 0.563651
C112 C 0.38793(7) 0.14182(9) 0.36325(9)
H84 H 0.381299 0.125727 0.349408
C113 C 0.50268(6) 0.53107(9) 0.57847(10)
H85 H 0.488747 0.528786 0.570570
C114 C 0.60178(6) 0.15978(8) 0.68824(11)
H86 H 0.601944 0.135377 0.687392
C115 C 0.39614(7) 0.20020(8) 0.37655(9)
H87 H 0.395362 0.224001 0.371705
C116 C 0.43904(6) 0.01922(9) 0.49742(11)
H88 H 0.435078 -0.002707 0.489399
O37 O 0.66542(6) 0.66977(9) 0.58716(13)
C117 C 0.45166(7) 0.02130(9) 0.52327(11)
H89 H 0.457210 0.001024 0.532802
C118 C 0.64874(6) 0.62319(10) 0.60556(11)
C119 C 0.71978(6) 0.11748(10) 0.76194(10)
H90 H 0.729432 0.099527 0.759342
N35 N 0.66756(7) 0.64480(10) 0.60374(13)
C120 C 0.65097(6) 0.59327(9) 0.62346(11)
H91 H 0.663815 0.587247 0.633831
C121 C 0.70177(7) -0.04004(10) 0.65492(13)
H92 H 0.693053 -0.058805 0.648837
C122 C 0.71109(6) 0.17074(10) 0.78586(10)
H93 H 0.714712 0.189132 0.799585
O38 O 0.71855(6) -0.09305(9) 0.62515(12)
C123 C 0.72491(7) 0.14445(12) 0.78164(10)
H94 H 0.738128 0.144938 0.792446
O39 O 0.68341(6) 0.63690(12) 0.61768(15)
C124 C 0.72206(8) -0.03922(11) 0.64798(14)
N36 N 0.72960(7) -0.06915(11) 0.63104(16)
C125 C 0.72730(7) 0.01495(11) 0.67147(14)
H95 H 0.736183 0.033686 0.676962
O40 O 0.74735(8) -0.06610(12) 0.62196(17)
C126 C 0.73485(9) -0.01250(14) 0.65557(18)
H96 H 0.748762 -0.012716 0.650031
N37 N 0.60120(4) 0.24299(6) 0.38383(6)
H97 H 0.613485 0.251206 0.380525
N38 N 0.54787(3) 0.34042(6) 0.53113(6)
N39 N 0.54521(4) 0.30002(6) 0.49016(6)
O41 O 0.64428(3) 0.44585(7) 0.57582(6)
N40 N 0.61235(4) 0.44658(6) 0.59553(6)
H98 H 0.605048 0.456987 0.609159
N41 N 0.45849(4) 0.27556(6) 0.54877(6)
H99 H 0.452520 0.260393 0.536036
N42 N 0.57527(3) 0.33417(6) 0.49745(6)
O42 O 0.57768(4) 0.20221(6) 0.36753(6)
O43 O 0.67504(4) 0.48427(6) 0.71900(7)
N43 N 0.65080(4) 0.49504(6) 0.67926(7)
H100 H 0.637467 0.495609 0.674108
N44 N 0.43185(4) 0.26281(8) 0.57805(7)
H101 H 0.430118 0.245647 0.564897
N45 N 0.60861(5) 0.20762(7) 0.34469(6)
H102 H 0.620474 0.218637 0.346150
C127 C 0.53773(4) 0.31589(7) 0.51431(7)
N46 N 0.64092(5) 0.48795(7) 0.72796(7)
H103 H 0.628497 0.489883 0.718697
N47 N 0.63858(4) 0.47691(7) 0.61956(7)
H104 H 0.629175 0.481818 0.632596
C128 C 0.56389(4) 0.31001(7) 0.48277(7)
N48 N 0.40573(4) 0.15014(7) 0.57646(7)
H105 H 0.409074 0.157581 0.558278
O44 O 0.40064(5) 0.16795(8) 0.62568(6)
C129 C 0.47773(4) 0.28762(7) 0.54111(7)
C130 C 0.57882(4) 0.37434(7) 0.54009(7)
N49 N 0.40599(4) 0.20716(8) 0.58789(7)
H106 H 0.408474 0.209602 0.568291
C131 C 0.50752(4) 0.32425(7) 0.54644(7)
H107 H 0.514514 0.343131 0.556308
C132 C 0.59065(4) 0.25873(7) 0.40759(7)
C133 C 0.60187(4) 0.42252(7) 0.57587(7)
O45 O 0.45321(4) 0.30838(8) 0.59089(7)
C134 C 0.51695(4) 0.30676(7) 0.52342(7)
C135 C 0.56673(4) 0.34850(7) 0.52185(7)
C136 C 0.57296(4) 0.29235(7) 0.45641(7)
C137 C 0.48819(4) 0.31512(7) 0.55560(7)
H108 H 0.482146 0.327488 0.571595
N50 N 0.64289(5) 0.17930(7) 0.31857(8)
H109 H 0.644031 0.199916 0.326863
C138 C 0.50632(5) 0.27969(8) 0.50865(8)
H110 H 0.512313 0.267525 0.492477
C139 C 0.48694(5) 0.27053(8) 0.51761(8)
H111 H 0.479805 0.252043 0.507340
C140 C 0.59420(5) 0.21616(8) 0.36539(8)
C141 C 0.59273(5) 0.30036(8) 0.44865(8)
H112 H 0.600425 0.317578 0.459887
C142 C 0.60125(4) 0.28353(7) 0.42479(8)
H113 H 0.614906 0.289180 0.419977
C143 C 0.63279(5) 0.45536(8) 0.59550(8)
C144 C 0.59735(4) 0.38680(8) 0.53074(7)
H114 H 0.602288 0.378484 0.511989
C145 C 0.58325(5) 0.41079(8) 0.58463(8)
H115 H 0.578127 0.419301 0.603186
C146 C 0.57166(5) 0.38697(9) 0.56734(8)
H116 H 0.558831 0.379258 0.574109
C147 C 0.60899(5) 0.41096(8) 0.54768(8)
H117 H 0.621497 0.419541 0.540450
C148 C 0.56192(5) 0.26788(8) 0.43883(8)
H118 H 0.548120 0.262723 0.443231
C149 C 0.44777(5) 0.28455(10) 0.57380(9)
C150 C 0.65703(5) 0.48856(8) 0.70933(9)
C151 C 0.57081(5) 0.25087(8) 0.41494(8)
H119 H 0.563201 0.233679 0.403539
C152 C 0.64196(6) 0.48454(8) 0.76075(8)
N51 N 0.64062(7) 0.47081(10) 0.85683(9)
O46 O 0.62348(7) 0.47059(12) 0.86820(8)
C153 C 0.66462(5) 0.50092(9) 0.65576(10)
C154 C 0.40279(6) 0.11416(10) 0.57939(9)
C155 C 0.65803(5) 0.49181(10) 0.62527(9)
C156 C 0.40517(6) 0.09400(9) 0.55397(9)
H120 H 0.408091 0.104683 0.535030
O47 O 0.65612(7) 0.46812(11) 0.87251(8)
C157 C 0.62322(7) 0.16822(9) 0.30843(9)
O48 O 0.66116(6) 0.13167(8) 0.30617(11)
C158 C 0.40445(5) 0.23694(11) 0.60566(9)
C159 C 0.40391(6) 0.17453(10) 0.59893(9)
C160 C 0.60567(7) 0.18242(10) 0.32129(9)
C161 C 0.62264(7) 0.48295(10) 0.77463(9)
H121 H 0.610015 0.484913 0.762355
C162 C 0.41763(6) 0.26502(12) 0.60176(10)
C163 C 0.64078(8) 0.47565(10) 0.82382(10)
N52 N 0.39741(8) 0.00561(10) 0.58232(12)
C164 C 0.65923(8) 0.47884(11) 0.81088(10)
H122 H 0.671732 0.477611 0.823541
C165 C 0.65982(7) 0.48389(10) 0.77921(11)
H123 H 0.672702 0.486906 0.770373
C166 C 0.67130(6) 0.49884(13) 0.60223(12)
H124 H 0.667256 0.492803 0.581456
C167 C 0.68329(6) 0.51811(11) 0.66145(12)
H125 H 0.687303 0.525965 0.681719
C168 C 0.62267(8) 0.47855(11) 0.80590(9)
H126 H 0.609909 0.477488 0.815391
N53 N 0.67746(6) 0.17950(9) 0.32509(12)
H127 H 0.675380 0.198717 0.335142
O49 O 0.39889(10) -0.01097(11) 0.55936(12)
C169 C 0.38974(6) 0.23923(12) 0.62765(10)
H128 H 0.380623 0.220447 0.629963
C170 C 0.66060(8) 0.16062(11) 0.31662(14)
C171 C 0.39812(8) 0.09765(12) 0.60711(11)
H129 H 0.396327 0.110580 0.625336
C172 C 0.61964(9) 0.14572(10) 0.28353(12)
H130 H 0.631262 0.136841 0.273952
C173 C 0.39868(9) 0.04294(12) 0.58174(12)
C174 C 0.39622(9) 0.06241(12) 0.60713(13)
H131 H 0.393049 0.051272 0.625743
O50 O 0.39290(10) -0.00667(11) 0.60886(12)
C175 C 0.40349(7) 0.05928(10) 0.55495(11)
H132 H 0.405648 0.046098 0.536998
C176 C 0.69587(7) 0.52368(15) 0.63781(14)
H133 H 0.708908 0.534381 0.642016
C177 C 0.58587(8) 0.17212(12) 0.31015(12)
H134 H 0.574041 0.180741 0.319366
C178 C 0.60137(9) 0.13616(13) 0.27262(12)
H135 H 0.600079 0.120329 0.255906
C179 C 0.68996(8) 0.51416(16) 0.60864(13)
H136 H 0.698853 0.518156 0.592471
C180 C 0.38804(8) 0.26694(16) 0.64559(14)
H137 H 0.377479 0.267798 0.659727
C181 C 0.41683(8) 0.29192(14) 0.62200(13)
H138 H 0.426870 0.309645 0.621519
C182 C 0.58363(10) 0.14890(14) 0.28519(14)
H139 H 0.570304 0.142031 0.277074
C183 C 0.40136(10) 0.29412(18) 0.64380(14)
H140 H 0.400314 0.313754 0.656648
C184 C 0.69855(9) 0.17142(14) 0.31935(19)
N54 N 0.76052(10) 0.1533(2) 0.3022(3)
O51 O 0.77319(9) 0.1711(2) 0.3140(2)
C185 C 0.71357(9) 0.19083(18) 0.3328(2)
H141 H 0.709809 0.209140 0.345794
C186 C 0.73836(12) 0.1576(2) 0.3082(3)
O52 O 0.76407(11) 0.1296(2) 0.2838(3)
C187 C 0.73454(11) 0.1856(2) 0.3287(3)
H142 H 0.745208 0.199223 0.338585
C188 C 0.70287(10) 0.14530(17) 0.2988(2)
H143 H 0.692092 0.131709 0.289229
C189 C 0.72316(12) 0.1396(2) 0.2926(3)
H144 H 0.726439 0.123125 0.277508
N55 N 0.47674(4) 0.20558(6) 0.46377(6)
H145 H 0.466924 0.197981 0.475055
N56 N 0.58857(4) 0.07924(6) 0.66549(6)
H146 H 0.601196 0.071824 0.670159
N57 N 0.45035(4) 0.23479(6) 0.43840(6)
H147 H 0.443135 0.226625 0.453247
O53 O 0.48240(4) 0.23492(8) 0.41920(6)
O54 O 0.40137(4) 0.32426(5) 0.46106(7)
N58 N 0.66065(3) 0.19851(7) 0.43686(6)
H148 H 0.657277 0.210586 0.420104
N59 N 0.59494(4) 0.14802(7) 0.53241(7)
N60 N 0.57308(4) 0.17223(7) 0.49166(6)
N61 N 0.41584(4) 0.27117(6) 0.45518(7)
H149 H 0.418744 0.251700 0.464855
N62 N 0.55868(4) 0.15067(7) 0.53657(7)
N63 N 0.39851(4) 0.28287(6) 0.49800(7)
H150 H 0.404503 0.264052 0.505441
N64 N 0.58363(4) 0.06441(8) 0.71519(7)
H151 H 0.597189 0.062915 0.716696
C190 C 0.58457(5) 0.09435(8) 0.63648(8)
C191 C 0.49668(4) 0.19602(7) 0.47298(7)
C192 C 0.44006(4) 0.25635(7) 0.41587(7)
C193 C 0.59157(5) 0.16350(8) 0.50508(8)
C194 C 0.47060(5) 0.22593(8) 0.43853(7)
C195 C 0.57768(5) 0.14229(8) 0.54743(8)
C196 C 0.60986(5) 0.17141(8) 0.48790(8)
O55 O 0.55610(4) 0.07939(11) 0.68220(8)
C197 C 0.64426(5) 0.18837(8) 0.45469(7)
C198 C 0.53642(5) 0.17583(8) 0.49648(8)
C199 C 0.42265(5) 0.27493(7) 0.42481(8)
N65 N 0.60589(5) 0.05590(9) 0.77156(7)
H152 H 0.612459 0.052609 0.754678
O56 O 0.61010(5) 0.07378(11) 0.82226(7)
C200 C 0.57437(5) 0.07500(10) 0.68735(9)
N66 N 0.63823(5) 0.06923(10) 0.79320(8)
H153 H 0.642214 0.065684 0.774445
C201 C 0.44599(5) 0.25906(8) 0.38641(8)
H154 H 0.457390 0.245914 0.380430
C202 C 0.55696(5) 0.16568(8) 0.50899(8)
C203 C 0.51937(5) 0.17127(9) 0.51361(8)
H155 H 0.520986 0.161462 0.533706
C204 C 0.50024(5) 0.18084(9) 0.50163(8)
H156 H 0.488774 0.176848 0.513671
O57 O 0.68801(4) 0.17452(11) 0.46439(8)
N67 N 0.70699(5) 0.31068(11) 0.37311(9)
H157 H 0.695185 0.301010 0.366866
C205 C 0.40506(5) 0.29560(8) 0.47070(9)
C206 C 0.58011(5) 0.12562(8) 0.57780(8)
C207 C 0.60774(5) 0.19025(9) 0.46012(10)
H158 H 0.594472 0.197858 0.452436
C208 C 0.38303(6) 0.29749(8) 0.51493(10)
C209 C 0.43571(6) 0.28068(9) 0.36480(9)
H159 H 0.440166 0.282723 0.344434
C210 C 0.51390(5) 0.20080(9) 0.45553(8)
H160 H 0.512271 0.210554 0.435415
C211 C 0.56547(5) 0.10465(9) 0.62403(9)
H161 H 0.553554 0.101137 0.635224
N68 N 0.71382(5) 0.25664(12) 0.39117(9)
H162 H 0.701081 0.252366 0.383956
C212 C 0.53339(5) 0.19115(10) 0.46788(9)
H163 H 0.545003 0.195282 0.456177
C213 C 0.56367(6) 0.12001(10) 0.59541(9)
H164 H 0.550354 0.127085 0.587440
C214 C 0.62477(5) 0.19774(9) 0.44400(9)
H165 H 0.622928 0.209751 0.424921
C215 C 0.41213(6) 0.29589(9) 0.40322(10)
H166 H 0.400236 0.308129 0.408665
C216 C 0.41892(6) 0.29904(10) 0.37373(10)
H167 H 0.411887 0.314125 0.359370
C217 C 0.64647(5) 0.17042(10) 0.48257(9)
H168 H 0.659832 0.163498 0.490472
C218 C 0.62946(5) 0.16255(10) 0.49891(8)
H169 H 0.631395 0.150788 0.518101
C219 C 0.37944(6) 0.28135(11) 0.54257(11)
H170 H 0.387387 0.261789 0.548945
C220 C 0.57288(6) 0.05559(12) 0.74201(10)
C221 C 0.60123(5) 0.09822(13) 0.61807(9)
H171 H 0.614378 0.089523 0.625181
C222 C 0.37075(6) 0.32590(10) 0.50502(12)
H172 H 0.372677 0.336808 0.485808
C223 C 0.59901(5) 0.11437(12) 0.58983(9)
H173 H 0.610824 0.117817 0.578387
C224 C 0.58450(7) 0.05049(13) 0.76995(11)
C225 C 0.65300(7) 0.07762(15) 0.81634(10)
C226 C 0.70874(7) 0.34584(14) 0.36670(14)
N69 N 0.69227(5) 0.20566(13) 0.42019(10)
H174 H 0.685685 0.218410 0.405952
C227 C 0.68064(6) 0.19178(14) 0.44264(11)
C228 C 0.61729(7) 0.06608(13) 0.79807(12)
C229 C 0.67289(7) 0.08402(13) 0.80687(11)
H175 H 0.675397 0.082516 0.785564
C230 C 0.35596(7) 0.33743(12) 0.52378(14)
H176 H 0.348051 0.357177 0.517834
C231 C 0.55177(6) 0.05000(14) 0.74037(12)
H177 H 0.543879 0.053007 0.721298
C232 C 0.36421(8) 0.29359(13) 0.56120(13)
H178 H 0.362027 0.283233 0.580570
C233 C 0.72075(6) 0.29030(18) 0.38728(12)
O58 O 0.73845(5) 0.29887(16) 0.39623(12)
C234 C 0.57512(8) 0.03915(16) 0.79514(13)
H179 H 0.583247 0.034039 0.813607
C235 C 0.35244(8) 0.32133(14) 0.55038(15)
N70 N 0.33605(8) 0.33271(16) 0.56870(15)
O59 O 0.32595(8) 0.35813(14) 0.55932(15)
C236 C 0.55345(8) 0.03481(19) 0.79435(13)
H180 H 0.546948 0.028504 0.812511
O60 O 0.33286(8) 0.31860(18) 0.59140(14)
C237 C 0.69331(7) 0.36083(14) 0.34851(14)
H181 H 0.682143 0.347144 0.340238
N71 N 0.71063(8) 0.45214(13) 0.3450(2)
C238 C 0.72619(8) 0.36630(18) 0.37801(19)
H182 H 0.737573 0.356544 0.389837
C239 C 0.54197(8) 0.03985(18) 0.76697(14)
H183 H 0.527445 0.036497 0.765945
C240 C 0.72457(7) 0.2289(2) 0.40509(15)
C241 C 0.69362(7) 0.39570(13) 0.34188(18)
H184 H 0.682297 0.406055 0.330368
C242 C 0.72544(9) 0.40003(17) 0.3708(2)
H185 H 0.736143 0.414509 0.379359
C243 C 0.68816(8) 0.09212(18) 0.82724(13)
H186 H 0.701317 0.097667 0.820230
O61 O 0.71948(8) 0.1075(3) 0.87136(14)
C244 C 0.64973(10) 0.0787(3) 0.84830(13)
H187 H 0.636509 0.074198 0.855598
N72 N 0.70354(11) 0.1029(3) 0.87963(13)
C245 C 0.70993(9) 0.41469(18) 0.3518(3)
C246 C 0.71342(7) 0.2014(2) 0.41789(16)
C247 C 0.68530(10) 0.0927(3) 0.85900(13)
O62 O 0.69952(10) 0.1016(4) 0.90756(13)
C248 C 0.66645(12) 0.0864(3) 0.86848(16)
H188 H 0.664502 0.087259 0.890004
C249 C 0.74631(9) 0.2248(3) 0.40287(19)
H189 H 0.754144 0.241482 0.392794
O63 O 0.72623(8) 0.46762(15) 0.3545(3)
O64 O 0.69607(9) 0.46426(15) 0.3289(2)
C250 C 0.72364(9) 0.1710(2) 0.4295(2)
H190 H 0.716070 0.152649 0.437663
C251 C 0.75570(9) 0.1952(3) 0.4161(2)
H191 H 0.770301 0.193349 0.416349
C252 C 0.74499(11) 0.1692(3) 0.4285(3)
H192 H 0.752154 0.149537 0.436521
N73 N 0.40368(4) 0.39021(6) 0.29436(6)
C253 C 0.36938(6) 0.41515(8) 0.27107(8)
C254 C 0.38594(6) 0.41558(8) 0.29837(8)
C255 C 0.41425(6) 0.39730(8) 0.26452(8)
C256 C 0.41851(6) 0.39441(8) 0.32308(8)
C257 C 0.39579(6) 0.35364(7) 0.29157(8)
C258 C 0.37985(6) 0.34424(8) 0.31505(8)
C259 C 0.43848(6) 0.37464(9) 0.32253(9)
C260 C 0.37489(7) 0.30536(9) 0.31209(10)
C261 C 0.34828(6) 0.42295(9) 0.28320(9)
C262 C 0.42466(7) 0.43240(9) 0.26402(8)
C263 C 0.43260(7) 0.43874(9) 0.23125(9)
C264 C 0.45073(6) 0.37866(9) 0.35407(9)
C265 C 0.41482(7) 0.44338(12) 0.20636(9)
C266 C 0.47205(7) 0.36126(10) 0.35400(13)
C267 C 0.33185(7) 0.42699(11) 0.25664(10)
C268 C 0.35848(11) 0.29639(14) 0.33476(17)
N74 N 0.64498(5) 0.83289(9) 0.52743(10)
C269 C 0.63364(7) 0.80067(11) 0.53690(14)
C270 C 0.62930(7) 0.86255(11) 0.52747(13)
C271 C 0.66369(6) 0.83940(11) 0.55012(12)
C272 C 0.63782(8) 0.89698(12) 0.51768(16)
C273 C 0.64612(9) 0.76711(13) 0.53390(15)
C274 C 0.65828(8) 0.84550(12) 0.58296(13)
C275 C 0.65410(8) 0.82944(16) 0.49557(13)
C276 C 0.63703(9) 0.82147(19) 0.47000(14)
C277 C 0.63940(10) 0.74112(14) 0.55910(16)
C278 C 0.67846(9) 0.84755(14) 0.60302(15)
C279 C 0.62222(9) 0.92495(13) 0.52694(18)
C280 C 0.67314(12) 0.8530(2) 0.63839(16)
C281 C 0.64852(14) 0.74997(19) 0.59082(17)
C282 C 0.64797(13) 0.8138(3) 0.4383(2)
C283 C 0.62896(11) 0.96129(16) 0.5164(3)
C284 C 0.65401(14) 0.8468(3) 0.4243(2)
N75 N 0.56246(7) 0.60576(8) 0.48897(9)
C285 C 0.55532(8) 0.62671(11) 0.52161(11)
C286 C 0.54042(11) 0.59434(15) 0.47301(15)
C287 C 0.53312(10) 0.66423(13) 0.55354(18)
C288 C 0.57588(10) 0.61636(15) 0.44281(14)
C289 C 0.54095(12) 0.65852(18) 0.52193(18)
C290 C 0.57373(10) 0.57550(15) 0.49961(14)
C291 C 0.57053(15) 0.63293(16) 0.47181(15)
C292 C 0.59558(9) 0.5812(3) 0.50939(15)
C293 C 0.52604(12) 0.5758(2) 0.4898(2)
C294 C 0.60493(11) 0.5475(3) 0.52341(19)
C295 C 0.59170(13) 0.64126(19) 0.42747(18)
C296 C 0.59798(16) 0.6243(2) 0.39587(16)
C297 C 0.50876(13) 0.5624(3) 0.4671(2)
C298 C 0.62756(18) 0.5530(4) 0.5316(3)
C299 C 0.51974(15) 0.6880(3) 0.5582(2)
C300 C 0.4948(3) 0.5431(7) 0.4809(5)
N76 N 0.500000 0.37823(13) 0.750000
C301 C 0.50352(8) 0.40113(11) 0.77819(12)
C302 C 0.51088(9) 0.38187(13) 0.80805(13)
C303 C 0.51195(10) 0.40849(14) 0.83504(14)
C304 C 0.52227(10) 0.3904(2) 0.86604(15)
C305 C 0.48088(9) 0.35539(13) 0.75435(16)
C306 C 0.46145(9) 0.37556(18) 0.76104(18)
C307 C 0.44270(12) 0.3501(2) 0.75517(17)
C308 C 0.43897(19) 0.3424(3) 0.7207(3)
C301A C 0.49648(8) 0.40113(11) 0.72181(12)
C302A C 0.48912(9) 0.38187(13) 0.69195(13)
C303A C 0.48805(10) 0.40849(14) 0.66496(14)
C304A C 0.47773(10) 0.3904(2) 0.63396(15)
C305A C 0.51912(9) 0.35539(13) 0.74565(16)
C306A C 0.53855(9) 0.37556(18) 0.73896(18)
C307A C 0.55730(12) 0.3501(2) 0.74483(17)
C308A C 0.56103(19) 0.3424(3) 0.7793(3)
N77 N 0.55419(10) 0.48866(13) 0.48268(12)
C309 C 0.55689(10) 0.48172(13) 0.50851(13)
C310 C 0.55829(14) 0.4765(3) 0.54081(16)
C311 C 0.5616(2) 0.2432(6) 0.5678(4)
H193 H 0.552691 0.236993 0.549533
H194 H 0.555857 0.263285 0.577860
H195 H 0.562429 0.223855 0.582334
C312 C 0.5824(2) 0.2514(7) 0.5584(3)
N78 N 0.5886(2) 0.2525(3) 0.5319(3)
O65 O 0.58199(19) 0.2871(5) 0.5874(3)
C313 C 0.67220(13) 0.3035(4) 0.2720(2)
N79 N 0.6638(2) 0.3276(2) 0.2531(3)
C314 C 0.6841(4) 0.2838(4) 0.2765(5)
O66 O 0.4631(2) 0.9940(4) 0.6179(2)
O67 O 0.48955(16) 0.0990(3) 0.4650(3)
C315 C 0.47386(16) -0.0537(3) 0.4575(4)
N80 N 0.48783(15) -0.0293(3) 0.4334(4)
C316 C 0.4600(3) -0.0739(3) 0.4825(3)
O68 O 0.45253(8) 0.15103(16) 0.36011(14)
O69 O 0.64851(8) 0.37690(14) 0.83711(14)
O70 O 0.40276(6) 0.27771(9) 0.73827(9)
C317? C 0.4257(3) 0.9040(3) 0.5604(3)
N81? N 0.43132(14) 0.8900(2) 0.5932(3)
C318? C 0.44780(16) 0.8664(2) 0.6093(4)
C319? C 0.4661(2) 0.8443(4) 0.6240(5)
C320? C 0.3721(2) 0.8761(4) 0.6167(2)
C321? C 0.4129(2) 0.8980(6) 0.6092(3)
C322? C 0.39382(17) 0.88192(19) 0.60074(19)
C323? C 0.4377(3) 0.9262(4) 0.6010(2)
C324? C 0.3496(2) 0.8780(2) 0.6112(3)
C325? C 0.36502(17) 0.9363(5) 0.5140(4)
C326? C 0.3792(2) 0.9419(7) 0.4874(4)
N82? N 0.3436(2) 0.9348(3) 0.5015(6)
C327? C 0.3256(2) 0.9172(4) 0.4918(4)
C328? C 0.30319(17) 0.9052(4) 0.4908(4)
C329? C 0.3294(3) 0.9644(3) 0.4970(5)
C330? C 0.35049(15) 0.02617(17) 0.20577(18)
C331? C 0.38520(17) 0.0329(2) 0.1891(2)
N83? N 0.33063(17) 0.0307(2) 0.2118(2)
C332? C 0.3651(2) 0.0504(4) 0.1967(4)
C333? C 0.3340(2) 0.06311(16) 0.23386(18)
C334? C 0.34754(19) 0.0534(2) 0.26362(18)
C335? C 0.4007(3) 0.0554(4) 0.1809(3)
C336? C 0.29640(18) 0.0081(4) 0.2313(3)
C337? C 0.31897(18) 0.0038(2) 0.2226(3)
C338? C 0.3238(2) 0.0465(3) 0.1812(2)
C339? C 0.2778(2) -0.0166(2) 0.2282(3)
C340? C 0.3264(5) 0.0150(4) 0.1545(4)
C341? C 0.35100(8) 0.09242(12) 0.28283(11)
N84? N 0.77477(14) 0.3075(2) 0.32277(19)
C342? C 0.75328(13) 0.3116(3) 0.3173(3)
C343? C 0.77917(17) 0.2848(3) 0.3556(3)
C344? C 0.78794(18) 0.4131(3) 0.3848(3)
C345? C 0.79210(14) 0.3325(3) 0.3327(3)
C346? C 0.79459(15) 0.3886(3) 0.3633(3)
C347? C 0.7841(2) 0.3576(4) 0.3539(2)
C348? C 0.7464(3) 0.3365(3) 0.2887(2)
C349? C 0.40778(14) 0.15702(14) 0.71772(12)
N85? N 0.42843(11) 0.17266(19) 0.71531(14)
C350? C 0.37140(15) 0.15769(17) 0.69625(16)
C351? C 0.39124(12) 0.1789(2) 0.6974(2)
C352? C 0.35144(11) 0.1733(3) 0.6760(2)
C353? C 0.4385(2) 0.1546(3) 0.7449(2)
C354? C 0.42694(12) 0.2056(2) 0.7126(2)
C355? C 0.44131(15) 0.12750(19) 0.6773(2)
C356? C 0.45142(14) 0.1223(3) 0.6478(2)
C357? C 0.45213(12) 0.1007(4) 0.62946(18)
C358? C 0.42075(19) 0.2221(2) 0.7411(4)
C359? C 0.43679(16) 0.1654(4) 0.6799(2)
N86? N 0.45419(9) 0.02529(16) 0.37968(18)
C360? C 0.43141(12) 0.0182(2) 0.3800(2)
C361? C 0.40207(19) -0.0054(4) 0.4034(3)
C362? C 0.4213(2) 0.0006(4) 0.4016(3)
C363? C 0.3933(2) -0.0130(4) 0.4298(4)
C364? C 0.4629(2) 0.0230(2) 0.3461(2)
C365? C 0.45242(17) 0.0920(3) 0.3651(2)
C366? C 0.46047(16) 0.0586(3) 0.3867(3)
C367? C 0.46687(13) -0.0034(3) 0.3942(3)
C368? C 0.78648(17) 0.2899(3) 0.2889(4)
C369? C 0.77602(13) 0.2533(3) 0.2772(3)
C370? C 0.7732(3) 0.2121(3) 0.2316(5)
C371? C 0.7821(2) 0.2469(3) 0.2439(3)
N87? N 0.58186(7) 0.42647(9) 0.41564(8)
C372? C 0.58651(10) 0.37199(14) 0.38390(14)
C373? C 0.58474(11) 0.35825(17) 0.35111(16)
C374? C 0.58001(9) 0.48820(14) 0.39498(13)
C375? C 0.58082(10) 0.40884(16) 0.38367(13)
C376? C 0.56763(13) 0.40267(17) 0.43874(16)
C377? C 0.60333(11) 0.4290(2) 0.42894(19)
C378? C 0.52951(12) 0.37412(16) 0.44441(17)
C379? C 0.57005(10) 0.45976(13) 0.41302(14)
C380? C 0.58568(12) 0.32238(17) 0.34708(17)
C381? C 0.60546(14) 0.44687(16) 0.45764(19)
C382? C 0.54847(16) 0.5264(2) 0.3906(3)
C383? C 0.62839(17) 0.4498(2) 0.4698(2)
C384? C 0.57071(18) 0.52299(18) 0.3994(2)
C385? C 0.53203(19) 0.3933(2) 0.4678(3)
C386? C 0.54701(16) 0.3907(3) 0.4252(2)
C387? C 0.63695(19) 0.4744(4) 0.4500(3)
N88? N 0.67707(10) 0.37487(14) 0.7543(2)
C388? C 0.66734(11) 0.39326(18) 0.7283(2)
C389? C 0.67123(12) 0.40807(18) 0.6698(2)
C390? C 0.69836(11) 0.38668(19) 0.7656(2)
C391? C 0.67868(15) 0.3833(3) 0.6968(3)
C392? C 0.66181(10) 0.38121(19) 0.7854(3)
C393? C 0.69963(14) 0.4249(2) 0.7694(3)
C394? C 0.72284(14) 0.4403(4) 0.7815(3)
C395? C 0.68126(19) 0.4001(2) 0.6378(3)
C396? C 0.67762(15) 0.3361(2) 0.7498(3)
C397? C 0.65961(19) 0.2778(2) 0.7474(5)
C398? C 0.65696(19) 0.3173(3) 0.7442(5)
N89? N 0.49089(12) 0.5886(3) 0.7506(3)
C399? C 0.4794(3) 0.6266(4) 0.7285(7)
loop_
_geom_bond_atom_site_label_1
_geom_bond_atom_site_label_2
_geom_bond_site_symmetry_1
_geom_bond_site_symmetry_2
P1 O1 1_555 1_555
O2 P1 1_555 1_555
O3 P1 1_555 1_555
O4 P1 1_555 1_555
P2 O5 1_555 1_555
O6 P2 1_555 1_555
O7 P2 1_555 1_555
O8 P2 1_555 1_555
P3 O9 1_555 1_555
O10 P3 1_555 1_555
O11 P3 1_555 1_555
O12 P3 1_555 1_555
P4 O13 1_555 1_555
O14 P4 1_555 1_555
O15 P4 1_555 1_555
O16 P4 1_555 1_555
O17 C1 1_555 1_555
N1 H1 1_555 1_555
O18 C12 1_555 1_555
N2 H2 1_555 1_555
N3 H3 1_555 1_555
N4 H4 1_555 1_555
O19 C14 1_555 1_555
O20 C13 1_555 1_555
N5 H5 1_555 1_555
N6 C19 1_555 1_555
N7 H6 1_555 1_555
O21 C15 1_555 1_555
N8 H7 1_555 1_555
N9 H8 1_555 1_555
N10 H9 1_555 1_555
N11 C19 1_555 1_555
C1 N1 1_555 1_555
N12 H10 1_555 1_555
N13 C22 1_555 1_555
C2 N5 1_555 1_555
C3 N1 1_555 1_555
O22 C44 1_555 1_555
C4 N4 1_555 1_555
N14 H11 1_555 1_555
C5 C8 1_555 1_555
C6 C10 1_555 1_555
C7 N3 1_555 1_555
C8 H12 1_555 1_555
N15 H13 1_555 1_555
C9 C3 1_555 1_555
H14 C9 1_555 1_555
C10 C9 1_555 1_555
H15 C10 1_555 1_555
C11 N2 1_555 1_555
C12 N3 1_555 1_555
C13 N5 1_555 1_555
C14 N8 1_555 1_555
C15 N4 1_555 1_555
C16 C2 1_555 1_555
H16 C16 1_555 1_555
C17 C20 1_555 1_555
C18 C4 1_555 1_555
H17 C18 1_555 1_555
C19 C5 1_555 1_555
C20 C18 1_555 1_555
H18 C20 1_555 1_555
C21 C3 1_555 1_555
H19 C21 1_555 1_555
C22 N6 1_555 1_555
C23 H20 1_555 1_555
C24 C2 1_555 1_555
H21 C24 1_555 1_555
O23 N16 1_555 1_555
C25 N11 1_555 1_555
N16 O24 1_555 1_555
C26 N8 1_555 1_555
C27 N7 1_555 1_555
C28 N9 1_555 1_555
C29 C5 1_555 1_555
H22 C29 1_555 1_555
C30 C6 1_555 1_555
H23 C30 1_555 1_555
C31 C23 1_555 1_555
H24 C31 1_555 1_555
C32 N10 1_555 1_555
C33 C4 1_555 1_555
H25 C33 1_555 1_555
C34 C17 1_555 1_555
H26 C34 1_555 1_555
C35 N14 1_555 1_555
C36 N12 1_555 1_555
C37 C26 1_555 1_555
H27 C37 1_555 1_555
C38 N15 1_555 1_555
C39 N16 1_555 1_555
C40 C7 1_555 1_555
H28 C40 1_555 1_555
C41 C32 1_555 1_555
H29 C41 1_555 1_555
O25 N17 1_555 1_555
C42 C11 1_555 1_555
H30 C42 1_555 1_555
C43 C27 1_555 1_555
H31 C43 1_555 1_555
C44 N14 1_555 1_555
N17 O26 1_555 1_555
C45 C40 1_555 1_555
H32 C45 1_555 1_555
C46 C37 1_555 1_555
H33 C46 1_555 1_555
O27 N18 1_555 1_555
C47 C38 1_555 1_555
H34 C47 1_555 1_555
C48 C42 1_555 1_555
H35 C48 1_555 1_555
C49 C27 1_555 1_555
H36 C49 1_555 1_555
C50 C43 1_555 1_555
H37 C50 1_555 1_555
C51 C36 1_555 1_555
H38 C51 1_555 1_555
C52 N17 1_555 1_555
C53 C41 1_555 1_555
H39 C53 1_555 1_555
N18 C56 1_555 1_555
C54 C47 1_555 1_555
H40 C54 1_555 1_555
C55 C49 1_555 1_555
H41 C55 1_555 1_555
C56 C59 1_555 1_555
C57 C51 1_555 1_555
H42 C57 1_555 1_555
C58 C35 1_555 1_555
H43 C58 1_555 1_555
C59 C58 1_555 1_555
H44 C59 1_555 1_555
C60 C28 1_555 1_555
H45 C60 1_555 1_555
C61 C35 1_555 1_555
H46 C61 1_555 1_555
C62 C53 1_555 1_555
H47 C62 1_555 1_555
C63 C56 1_555 1_555
H48 C63 1_555 1_555
O28 N18 1_555 1_555
O29 C68 1_555 1_555
O30 C81 1_555 1_555
O31 C78 1_555 1_555
N19 H49 1_555 1_555
N20 H50 1_555 1_555
N21 H51 1_555 1_555
O32 C77 1_555 1_555
N22 H52 1_555 1_555
N23 C65 1_555 1_555
N24 H53 1_555 1_555
N25 H54 1_555 1_555
N26 C65 1_555 1_555
N27 H55 1_555 1_555
O33 C72 1_555 1_555
N28 H56 1_555 1_555
N29 H57 1_555 1_555
N30 C66 1_555 1_555
N31 H58 1_555 1_555
O34 C95 1_555 1_555
N32 H59 1_555 1_555
C64 N20 1_555 1_555
N33 H60 1_555 1_555
C65 C73 1_555 1_555
C66 N26 1_555 1_555
C67 N21 1_555 1_555
C68 N21 1_555 1_555
C69 C66 1_555 1_555
C70 N23 1_555 1_555
C71 N22 1_555 1_555
C72 N19 1_555 1_555
C73 C87 1_555 1_555
C74 N24 1_555 1_555
C75 N19 1_555 1_555
C76 C70 1_555 1_555
O35 N34 1_555 1_555
C77 N25 1_555 1_555
C78 N24 1_555 1_555
C79 N25 1_555 1_555
C80 N27 1_555 1_555
C81 N20 1_555 1_555
C82 C64 1_555 1_555
H61 C82 1_555 1_555
C83 C75 1_555 1_555
H62 C83 1_555 1_555
C84 N28 1_555 1_555
C85 C76 1_555 1_555
H63 C85 1_555 1_555
C86 N29 1_555 1_555
C87 C83 1_555 1_555
H64 C87 1_555 1_555
C88 N31 1_555 1_555
C89 C67 1_555 1_555
H65 C89 1_555 1_555
C90 C75 1_555 1_555
H66 C90 1_555 1_555
C91 C69 1_555 1_555
H67 C91 1_555 1_555
C92 C67 1_555 1_555
H68 C92 1_555 1_555
C93 C69 1_555 1_555
H69 C93 1_555 1_555
C94 C74 1_555 1_555
H70 C94 1_555 1_555
C95 N32 1_555 1_555
C96 C73 1_555 1_555
H71 C96 1_555 1_555
C97 C74 1_555 1_555
H72 C97 1_555 1_555
C98 C79 1_555 1_555
H73 C98 1_555 1_555
C99 N32 1_555 1_555
C100 C71 1_555 1_555
H74 C100 1_555 1_555
C101 C84 1_555 1_555
H75 C101 1_555 1_555
N34 C102 1_555 1_555
C102 C112 1_555 1_555
C103 C80 1_555 1_555
H76 C103 1_555 1_555
C104 C84 1_555 1_555
H77 C104 1_555 1_555
C105 N33 1_555 1_555
O36 N34 1_555 1_555
C106 C86 1_555 1_555
H78 C106 1_555 1_555
C107 C105 1_555 1_555
H79 C107 1_555 1_555
C108 C97 1_555 1_555
H80 C108 1_555 1_555
C109 C88 1_555 1_555
H81 C109 1_555 1_555
C110 C76 1_555 1_555
H82 C110 1_555 1_555
C111 C103 1_555 1_555
H83 C111 1_555 1_555
C112 C104 1_555 1_555
H84 C112 1_555 1_555
C113 C100 1_555 1_555
H85 C113 1_555 1_555
C114 C64 1_555 1_555
H86 C114 1_555 1_555
C115 C101 1_555 1_555
H87 C115 1_555 1_555
C116 C98 1_555 1_555
H88 C116 1_555 1_555
O37 N35 1_555 1_555
C117 C106 1_555 1_555
H89 C117 1_555 1_555
C118 C108 1_555 1_555
C119 C99 1_555 1_555
H90 C119 1_555 1_555
N35 C118 1_555 1_555
C120 C94 1_555 1_555
H91 C120 1_555 1_555
C121 C107 1_555 1_555
H92 C121 1_555 1_555
C122 C109 1_555 1_555
H93 C122 1_555 1_555
O38 N36 1_555 1_555
C123 C119 1_555 1_555
H94 C123 1_555 1_555
O39 N35 1_555 1_555
C124 C121 1_555 1_555
N36 C124 1_555 1_555
C125 C105 1_555 1_555
H95 C125 1_555 1_555
O40 N36 1_555 1_555
C126 C124 1_555 1_555
H96 C126 1_555 1_555
N37 H97 1_555 1_555
N38 C127 1_555 1_555
N39 C127 1_555 1_555
O41 C143 1_555 1_555
N40 H98 1_555 1_555
N41 H99 1_555 1_555
N42 C128 1_555 1_555
O42 C140 1_555 1_555
O43 C150 1_555 1_555
N43 H100 1_555 1_555
N44 H101 1_555 1_555
N45 H102 1_555 1_555
C127 C134 1_555 1_555
N46 H103 1_555 1_555
N47 H104 1_555 1_555
C128 N39 1_555 1_555
N48 H105 1_555 1_555
O44 C159 1_555 1_555
C129 N41 1_555 1_555
C130 C135 1_555 1_555
N49 H106 1_555 1_555
C131 H107 1_555 1_555
C132 N37 1_555 1_555
C133 N40 1_555 1_555
O45 C149 1_555 1_555
C134 C131 1_555 1_555
C135 N38 1_555 1_555
C136 C128 1_555 1_555
C137 C129 1_555 1_555
H108 C137 1_555 1_555
N50 H109 1_555 1_555
C138 C134 1_555 1_555
H110 C138 1_555 1_555
C139 C129 1_555 1_555
H111 C139 1_555 1_555
C140 N37 1_555 1_555
C141 C136 1_555 1_555
H112 C141 1_555 1_555
C142 C132 1_555 1_555
H113 C142 1_555 1_555
C143 N40 1_555 1_555
C144 C130 1_555 1_555
H114 C144 1_555 1_555
C145 C133 1_555 1_555
H115 C145 1_555 1_555
C146 C130 1_555 1_555
H116 C146 1_555 1_555
C147 C133 1_555 1_555
H117 C147 1_555 1_555
C148 C136 1_555 1_555
H118 C148 1_555 1_555
C149 N41 1_555 1_555
C150 N43 1_555 1_555
C151 C132 1_555 1_555
H119 C151 1_555 1_555
C152 N46 1_555 1_555
N51 O46 1_555 1_555
C153 N43 1_555 1_555
C154 N48 1_555 1_555
C155 N47 1_555 1_555
C156 C154 1_555 1_555
H120 C156 1_555 1_555
O47 N51 1_555 1_555
C157 N50 1_555 1_555
O48 C170 1_555 1_555
C158 N49 1_555 1_555
C159 N48 1_555 1_555
C160 N45 1_555 1_555
C161 C152 1_555 1_555
H121 C161 1_555 1_555
C162 N44 1_555 1_555
C163 N51 1_555 1_555
N52 O49 1_555 1_555
C164 C163 1_555 1_555
H122 C164 1_555 1_555
C165 C152 1_555 1_555
H123 C165 1_555 1_555
C166 C155 1_555 1_555
H124 C166 1_555 1_555
C167 C153 1_555 1_555
H125 C167 1_555 1_555
C168 C161 1_555 1_555
H126 C168 1_555 1_555
N53 H127 1_555 1_555
C169 C158 1_555 1_555
H128 C169 1_555 1_555
C170 N50 1_555 1_555
C171 C154 1_555 1_555
H129 C171 1_555 1_555
C172 C157 1_555 1_555
H130 C172 1_555 1_555
C173 N52 1_555 1_555
C174 C171 1_555 1_555
H131 C174 1_555 1_555
O50 N52 1_555 1_555
C175 C156 1_555 1_555
H132 C175 1_555 1_555
C176 C167 1_555 1_555
H133 C176 1_555 1_555
C177 C160 1_555 1_555
H134 C177 1_555 1_555
C178 C172 1_555 1_555
H135 C178 1_555 1_555
C179 C166 1_555 1_555
H136 C179 1_555 1_555
C180 C169 1_555 1_555
H137 C180 1_555 1_555
C181 C162 1_555 1_555
H138 C181 1_555 1_555
C182 C177 1_555 1_555
H139 C182 1_555 1_555
C183 C180 1_555 1_555
H140 C183 1_555 1_555
C184 N53 1_555 1_555
N54 O51 1_555 1_555
C185 C184 1_555 1_555
H141 C185 1_555 1_555
C186 N54 1_555 1_555
O52 N54 1_555 1_555
C187 C185 1_555 1_555
H142 C187 1_555 1_555
C188 C184 1_555 1_555
H143 C188 1_555 1_555
C189 C186 1_555 1_555
H144 C189 1_555 1_555
N55 H145 1_555 1_555
N56 H146 1_555 1_555
N57 H147 1_555 1_555
O53 C194 1_555 1_555
O54 C205 1_555 1_555
N58 H148 1_555 1_555
N59 C193 1_555 1_555
N60 C193 1_555 1_555
N61 H149 1_555 1_555
N62 C195 1_555 1_555
N63 H150 1_555 1_555
N64 H151 1_555 1_555
C190 N56 1_555 1_555
C191 N55 1_555 1_555
C192 N57 1_555 1_555
C193 C196 1_555 1_555
C194 N55 1_555 1_555
C195 N59 1_555 1_555
C196 C207 1_555 1_555
O55 C200 1_555 1_555
C197 N58 1_555 1_555
C198 C202 1_555 1_555
C199 N61 1_555 1_555
N65 H152 1_555 1_555
O56 C228 1_555 1_555
C200 N56 1_555 1_555
N66 H153 1_555 1_555
C201 C192 1_555 1_555
H154 C201 1_555 1_555
C202 N60 1_555 1_555
C203 C198 1_555 1_555
H155 C203 1_555 1_555
C204 C191 1_555 1_555
H156 C204 1_555 1_555
O57 C227 1_555 1_555
N67 H157 1_555 1_555
C205 N61 1_555 1_555
C206 C195 1_555 1_555
C207 H158 1_555 1_555
C208 N63 1_555 1_555
C209 C201 1_555 1_555
H159 C209 1_555 1_555
C210 C191 1_555 1_555
H160 C210 1_555 1_555
C211 C190 1_555 1_555
H161 C211 1_555 1_555
N68 H162 1_555 1_555
C212 C198 1_555 1_555
H163 C212 1_555 1_555
C213 C206 1_555 1_555
H164 C213 1_555 1_555
C214 C197 1_555 1_555
H165 C214 1_555 1_555
C215 C199 1_555 1_555
H166 C215 1_555 1_555
C216 C209 1_555 1_555
H167 C216 1_555 1_555
C217 C197 1_555 1_555
H168 C217 1_555 1_555
C218 C196 1_555 1_555
H169 C218 1_555 1_555
C219 C208 1_555 1_555
H170 C219 1_555 1_555
C220 N64 1_555 1_555
C221 C190 1_555 1_555
H171 C221 1_555 1_555
C222 C208 1_555 1_555
H172 C222 1_555 1_555
C223 C206 1_555 1_555
H173 C223 1_555 1_555
C224 N65 1_555 1_555
C225 N66 1_555 1_555
C226 N67 1_555 1_555
N69 H174 1_555 1_555
C227 N58 1_555 1_555
C228 N65 1_555 1_555
C229 C225 1_555 1_555
H175 C229 1_555 1_555
C230 C222 1_555 1_555
H176 C230 1_555 1_555
C231 C220 1_555 1_555
H177 C231 1_555 1_555
C232 C219 1_555 1_555
H178 C232 1_555 1_555
C233 N67 1_555 1_555
O58 C233 1_555 1_555
C234 C224 1_555 1_555
H179 C234 1_555 1_555
C235 C230 1_555 1_555
N70 C235 1_555 1_555
O59 N70 1_555 1_555
C236 C234 1_555 1_555
H180 C236 1_555 1_555
O60 N70 1_555 1_555
C237 C226 1_555 1_555
H181 C237 1_555 1_555
N71 C245 1_555 1_555
C238 C226 1_555 1_555
H182 C238 1_555 1_555
C239 C231 1_555 1_555
H183 C239 1_555 1_555
C240 N68 1_555 1_555
C241 C237 1_555 1_555
H184 C241 1_555 1_555
C242 C238 1_555 1_555
H185 C242 1_555 1_555
C243 C229 1_555 1_555
H186 C243 1_555 1_555
O61 N72 1_555 1_555
C244 C225 1_555 1_555
H187 C244 1_555 1_555
N72 C247 1_555 1_555
C245 C241 1_555 1_555
C246 N69 1_555 1_555
C247 C243 1_555 1_555
O62 N72 1_555 1_555
C248 C244 1_555 1_555
H188 C248 1_555 1_555
C249 C240 1_555 1_555
H189 C249 1_555 1_555
O63 N71 1_555 1_555
O64 N71 1_555 1_555
C250 C246 1_555 1_555
H190 C250 1_555 1_555
C251 C249 1_555 1_555
H191 C251 1_555 1_555
C252 C250 1_555 1_555
H192 C252 1_555 1_555
N73 C254 1_555 1_555
C253 C254 1_555 1_555
C255 N73 1_555 1_555
C256 N73 1_555 1_555
C257 N73 1_555 1_555
C258 C257 1_555 1_555
C259 C256 1_555 1_555
C260 C258 1_555 1_555
C261 C253 1_555 1_555
C262 C255 1_555 1_555
C263 C262 1_555 1_555
C264 C259 1_555 1_555
C265 C263 1_555 1_555
C266 C264 1_555 1_555
C267 C261 1_555 1_555
C268 C260 1_555 1_555
N74 C269 1_555 1_555
C269 C273 1_555 1_555
C270 N74 1_555 1_555
C271 N74 1_555 1_555
C272 C270 1_555 1_555
C273 C277 1_555 1_555
C274 C271 1_555 1_555
C275 N74 1_555 1_555
C276 C275 1_555 1_555
C277 C281 1_555 1_555
C278 C274 1_555 1_555
C279 C272 1_555 1_555
C280 C278 1_555 1_555
C282 C276 1_555 1_555
C283 C279 1_555 1_555
C284 C282 1_555 1_555
N75 C285 1_555 1_555
C285 C289 1_555 1_555
C286 N75 1_555 1_555
C287 C289 1_555 1_555
C288 C291 1_555 1_555
C290 N75 1_555 1_555
C291 N75 1_555 1_555
C292 C290 1_555 1_555
C293 C286 1_555 1_555
C294 C292 1_555 1_555
C295 C288 1_555 1_555
C296 C295 1_555 1_555
C297 C293 1_555 1_555
C298 C294 1_555 1_555
C299 C287 1_555 1_555
C300 C297 1_555 1_555
N76 C301 1_555 1_555
C301 C302 1_555 1_555
C302 C303 1_555 1_555
C303 C304 1_555 1_555
C305 N76 1_555 1_555
C306 C305 1_555 1_555
C307 C306 1_555 1_555
C308 C307 1_555 1_555
N77 C309 1_555 1_555
C309 C310 1_555 1_555
C311 H193 1_555 1_555
H194 C311 1_555 1_555
H195 C311 1_555 1_555
C312 C311 1_555 1_555
N78 C312 1_555 1_555
C313 N79 1_555 1_555
C314 C313 1_555 1_555
C315 N80 1_555 1_555
C316 C315 1_555 1_555
C301A N76 1_555 1_555
C302A C301A 1_555 1_555
C303A C302A 1_555 1_555
C304A C303A 1_555 1_555
C305A N76 1_555 1_555
C306A C305A 1_555 1_555
C307A C306A 1_555 1_555
C308A C307A 1_555 1_555
N2 C1 1_555 1_555
N7 C12 1_555 1_555
N9 C13 1_555 1_555
N10 C14 1_555 1_555
N12 C15 1_555 1_555
N13 C25 1_555 1_555
C6 C25 1_555 1_555
C7 C11 1_555 1_555
C8 C16 1_555 1_555
N15 C44 1_555 1_555
C17 C22 1_555 1_555
C21 C30 1_555 1_555
C23 C26 1_555 1_555
C24 C29 1_555 1_555
C28 C32 1_555 1_555
C31 C39 1_555 1_555
C33 C34 1_555 1_555
C36 C38 1_555 1_555
C39 C46 1_555 1_555
C45 C48 1_555 1_555
C50 C52 1_555 1_555
C52 C55 1_555 1_555
C54 C57 1_555 1_555
C60 C62 1_555 1_555
C61 C63 1_555 1_555
N22 C72 1_555 1_555
N27 C78 1_555 1_555
N28 C77 1_555 1_555
N29 C68 1_555 1_555
N30 C70 1_555 1_555
N31 C81 1_555 1_555
N33 C95 1_555 1_555
C71 C80 1_555 1_555
C79 C86 1_555 1_555
C82 C85 1_555 1_555
C88 C99 1_555 1_555
C89 C93 1_555 1_555
C90 C96 1_555 1_555
C91 C92 1_555 1_555
C102 C115 1_555 1_555
C110 C114 1_555 1_555
C111 C113 1_555 1_555
C116 C117 1_555 1_555
C118 C120 1_555 1_555
C122 C123 1_555 1_555
C125 C126 1_555 1_555
N42 C135 1_555 1_555
N44 C149 1_555 1_555
N45 C140 1_555 1_555
N46 C150 1_555 1_555
N47 C143 1_555 1_555
N49 C159 1_555 1_555
C131 C137 1_555 1_555
C138 C139 1_555 1_555
C141 C142 1_555 1_555
C144 C147 1_555 1_555
C145 C146 1_555 1_555
C148 C151 1_555 1_555
C153 C155 1_555 1_555
C157 C160 1_555 1_555
C158 C162 1_555 1_555
C163 C168 1_555 1_555
C164 C165 1_555 1_555
N53 C170 1_555 1_555
C173 C174 1_555 1_555
C173 C175 1_555 1_555
C176 C179 1_555 1_555
C178 C182 1_555 1_555
C181 C183 1_555 1_555
C186 C187 1_555 1_555
C188 C189 1_555 1_555
N57 C194 1_555 1_555
N62 C202 1_555 1_555
N63 C205 1_555 1_555
N64 C200 1_555 1_555
C192 C199 1_555 1_555
N66 C228 1_555 1_555
C203 C204 1_555 1_555
C207 C214 1_555 1_555
C210 C212 1_555 1_555
C211 C213 1_555 1_555
N68 C233 1_555 1_555
C215 C216 1_555 1_555
C217 C218 1_555 1_555
C220 C224 1_555 1_555
C221 C223 1_555 1_555
N69 C227 1_555 1_555
C232 C235 1_555 1_555
C236 C239 1_555 1_555
C240 C246 1_555 1_555
C242 C245 1_555 1_555
C247 C248 1_555 1_555
C251 C252 1_555 1_555

#END
