
#######################################################################
#
#                 Cambridge Crystallographic Data Centre
#                                CCDC 
#
#######################################################################
#
# If this CIF has been generated from an entry in the Cambridge 
# Structural Database, then it will include bibliographic, chemical, 
# crystal, experimental, refinement or atomic coordinate data resulting 
# from the CCDC's data processing and validation procedures.
#
#######################################################################

data_NEYHAD
_chemical_formula_moiety         
'C63 H48 N18 O12,3(C8 H20 N1 1+),O4 P1 3-,0.5(C2 H3 N1),2(H2 O1)'
_chemical_name_systematic        
"N,N',N''-{1,3,5-triazine-2,4,6-triyltris[(4,1-phenylene)carbamoylazanediyl-2,1-phenylene]}tris[N'-(4-nitrophenyl)urea] tris(tetraethylammonium) phosphate acetonitrile solvate dihydrate"
_symmetry_cell_setting           orthorhombic
_symmetry_space_group_name_H-M   'F d d d'
_symmetry_Int_Tables_number      70
_space_group_name_Hall           '-F 2uv 2vw'
loop_
_symmetry_equiv_pos_site_id
_symmetry_equiv_pos_as_xyz
1 x,y,z
2 3/4-x,3/4-y,z
3 3/4-x,y,3/4-z
4 x,3/4-y,3/4-z
5 x,1/2+y,1/2+z
6 3/4-x,1/4-y,1/2+z
7 3/4-x,1/2+y,1/4-z
8 x,1/4-y,1/4-z
9 1/2+x,y,1/2+z
10 1/4-x,3/4-y,1/2+z
11 1/4-x,y,1/4-z
12 1/2+x,3/4-y,1/4-z
13 1/2+x,1/2+y,z
14 1/4-x,1/4-y,z
15 1/4-x,1/2+y,3/4-z
16 1/2+x,1/4-y,3/4-z
17 -x,-y,-z
18 1/4+x,1/4+y,-z
19 1/4+x,-y,1/4+z
20 -x,1/4+y,1/4+z
21 -x,1/2-y,1/2-z
22 1/4+x,3/4+y,1/2-z
23 1/4+x,1/2-y,3/4+z
24 -x,3/4+y,3/4+z
25 1/2-x,-y,1/2-z
26 3/4+x,1/4+y,1/2-z
27 3/4+x,-y,3/4+z
28 1/2-x,1/4+y,3/4+z
29 1/2-x,1/2-y,-z
30 3/4+x,3/4+y,-z
31 3/4+x,1/2-y,1/4+z
32 1/2-x,3/4+y,1/4+z
_cell_length_a                   24.0880(6)
_cell_length_b                   60.3283(14)
_cell_length_c                   67.581(3)
_cell_angle_alpha                90
_cell_angle_beta                 90
_cell_angle_gamma                90
_cell_volume                     98207.9
_exptl_crystal_colour            yellow
_exptl_crystal_description       block
_cell_formula_units_Z            32
loop_
_atom_site_label
_atom_site_type_symbol
_atom_site_fract_x
_atom_site_fract_y
_atom_site_fract_z
P1 P 0.88378(2) 0.71780(2) 0.04003(2)
O1 O 0.90847(6) 0.71811(2) 0.01907(2)
O2 O 0.87972(6) 0.74172(2) 0.04783(2)
O3 O 0.82522(5) 0.70760(2) 0.03936(2)
O4 O 0.92105(6) 0.70401(2) 0.05365(2)
C1 C 0.35959(8) 0.67165(3) 0.15308(3)
C2 C 0.04174(8) 0.72126(3) 0.08017(3)
C3 C 0.23746(9) 0.65208(3) 0.07211(3)
C4 C 0.26284(9) 0.66958(3) 0.10035(3)
C5 C 0.42268(8) 0.65826(3) 0.17941(3)
C6 C 0.20285(9) 0.62792(3) 0.04463(3)
H1 H 0.1737 0.6382 0.0424
C7 C 0.18838(9) 0.68167(3) 0.08294(3)
C8 C 0.28654(9) 0.61757(3) 0.06145(3)
H2 H 0.3149 0.6206 0.0708
C9 C 0.28796(9) 0.59853(3) 0.05071(3)
H3 H 0.3179 0.5885 0.0527
C10 C 0.24713(8) 0.59329(3) 0.03701(3)
C11 C 0.20404(9) 0.60855(3) 0.03380(3)
H4 H 0.1760 0.6056 0.0243
C12 C -0.30936(9) 0.69828(3) 0.04595(4)
H5 H -0.2748 0.6923 0.0418
C13 C 0.29699(9) 0.67059(4) 0.11816(3)
C14 C 0.24285(8) 0.63280(3) 0.05861(3)
C15 C 0.51500(9) 0.63810(4) 0.20289(4)
H6 H 0.5163 0.6351 0.1891
C16 C 0.21275(9) 0.56214(3) 0.01658(3)
C17 C 0.12846(9) 0.71242(4) 0.09551(3)
H7 H 0.1547 0.7149 0.1058
C18 C 0.47527(9) 0.65783(3) 0.23077(3)
C19 C -0.40767(9) 0.69784(4) 0.04540(4)
C20 C 0.13949(8) 0.69626(3) 0.08128(3)
C21 C 0.37274(9) 0.65656(3) 0.13818(3)
H8 H 0.4031 0.6467 0.1398
C22 C -0.35754(9) 0.68903(4) 0.03921(4)
H9 H -0.3567 0.6767 0.0304
C23 C -0.24975(9) 0.74089(4) 0.07882(4)
C24 C 0.47652(9) 0.65318(3) 0.21033(3)
C25 C 0.55149(10) 0.62737(4) 0.21563(4)
H10 H 0.5775 0.6170 0.2106
C26 C -0.12090(10) 0.76776(4) 0.09508(4)
C27 C 0.08076(9) 0.72488(3) 0.09507(3)
H11 H 0.0744 0.7359 0.1049
C28 C -0.03311(9) 0.74671(4) 0.09149(3)
C29 C 0.10108(9) 0.69299(4) 0.06631(3)
H12 H 0.1081 0.6823 0.0563
C30 C 0.20195(10) 0.52658(4) -0.00135(4)
C31 C -0.30985(9) 0.71644(4) 0.05895(3)
C32 C 0.05282(9) 0.70519(4) 0.06590(3)
H13 H 0.0265 0.7026 0.0557
C33 C 0.34130(9) 0.65606(3) 0.12102(3)
H14 H 0.3501 0.6456 0.1110
C34 C 0.36093(15) 0.69683(5) 0.27888(4)
C35 C 0.15560(12) 0.53307(5) -0.01274(4)
H15 H 0.1428 0.5479 -0.0119
C36 C 0.51316(10) 0.64721(4) 0.24325(4)
H16 H 0.5136 0.6505 0.2570
C37 C 0.28443(10) 0.68532(4) 0.13333(4)
H17 H 0.2541 0.6952 0.1318
C38 C 0.41385(12) 0.67217(4) 0.25668(4)
C39 C -0.17813(10) 0.76636(4) 0.09141(4)
C40 C 0.31476(10) 0.68582(4) 0.15030(3)
H18 H 0.3051 0.6960 0.1604
C41 C -0.40981(10) 0.71517(4) 0.05821(4)
H19 H -0.4448 0.7207 0.0624
C42 C 0.19218(13) 0.48996(5) -0.01527(4)
H20 H 0.2054 0.4752 -0.0167
C43 C 0.54987(11) 0.63190(4) 0.23561(4)
H21 H 0.5745 0.6243 0.2443
C44 C 0.34668(10) 0.45437(4) 0.03213(4)
C45 C -0.21330(12) 0.78146(5) 0.10082(5)
H22 H -0.2521 0.7807 0.0984
C46 C 0.37532(10) 0.41672(4) 0.02682(4)
H23 H 0.3752 0.4037 0.0189
C47 C -0.19287(12) 0.79742(5) 0.11347(5)
H24 H -0.2176 0.8074 0.1199
C48 C -0.13715(14) 0.79894(6) 0.11678(5)
H25 H -0.1231 0.8099 0.1255
C49 C -0.36114(9) 0.72492(4) 0.06525(4)
H26 H -0.3627 0.7371 0.0742
C50 C 0.12877(14) 0.51860(5) -0.02480(5)
H27 H 0.0980 0.5235 -0.0324
C51 C 0.34678(10) 0.43549(4) 0.02047(4)
H28 H 0.3275 0.4354 0.0082
C52 C -0.10097(12) 0.78443(5) 0.10742(5)
H29 H -0.0621 0.7859 0.1095
C53 C 0.21932(11) 0.50437(4) -0.00247(4)
C54 C 0.40303(13) 0.41688(4) 0.04403(4)
C55 C 0.14609(14) 0.49670(5) -0.02601(5)
H30 H 0.1266 0.4864 -0.0341
C56 C 0.27789(10) 0.47595(4) 0.01383(4)
C57 C 0.40361(18) 0.43558(5) 0.05621(5)
H31 H 0.4233 0.4355 0.0684
C58 C 0.37513(15) 0.45390(4) 0.05013(5)
H32 H 0.3746 0.4667 0.0583
C59 C 0.3600(3) 0.69644(8) 0.31458(6)
H33 H 0.3727 0.6904 0.3268
C60 C 0.32269(14) 0.71401(5) 0.27951(4)
H34 H 0.3096 0.7200 0.2674
C61 C 0.30281(17) 0.72272(7) 0.29706(5)
H35 H 0.2770 0.7346 0.2970
C62 C 0.3213(2) 0.71379(7) 0.31449(6)
C63 C 0.3795(2) 0.68823(7) 0.29691(5)
H36 H 0.4060 0.6766 0.2970
N1 N -0.19831(7) 0.75031(3) 0.07806(3)
H37 H -0.1760 0.7460 0.0685
N2 N -0.00940(7) 0.73202(3) 0.07831(2)
H38 H -0.0286 0.7291 0.0675
N3 N 0.25287(7) 0.57299(3) 0.02734(2)
H39 H 0.2855 0.5665 0.0282
N4 N 0.23005(8) 0.54145(3) 0.01105(3)
H40 H 0.2622 0.5370 0.0158
N5 N 0.38853(7) 0.67386(3) 0.17092(2)
H41 H 0.3845 0.6865 0.1773
N6 N 0.37916(10) 0.68980(4) 0.26064(3)
H42 H 0.3674 0.6974 0.2504
N7 N 0.43654(8) 0.67311(3) 0.23825(3)
H43 H 0.4262 0.6841 0.2305
N8 N 0.27295(7) 0.65330(3) 0.08722(3)
N9 N -0.08504(7) 0.75266(3) 0.08540(3)
H44 H -0.0974 0.7465 0.0744
N10 N 0.43951(7) 0.66472(3) 0.19773(3)
H45 H 0.4261 0.6773 0.2022
N11 N 0.26548(9) 0.49745(3) 0.00913(3)
H46 H 0.2878 0.5078 0.0136
N12 N 0.19499(7) 0.66587(3) 0.06911(3)
N13 N -0.45921(8) 0.68818(3) 0.03787(3)
N14 N 0.22126(7) 0.68428(3) 0.09869(3)
N15 N -0.25862(7) 0.72558(3) 0.06403(3)
H47 H -0.2295 0.7212 0.0572
N16 N 0.32125(9) 0.47432(3) 0.02673(3)
H48 H 0.3341 0.4866 0.0320
N17 N 0.43280(13) 0.39715(4) 0.05057(4)
N18 N 0.3034(2) 0.72273(7) 0.33365(5)
O5 O 0.43510(6) 0.64070(2) 0.17141(2)
O6 O 0.16716(7) 0.57009(3) 0.01291(3)
O7 O 0.25246(8) 0.45997(3) 0.00764(3)
O8 O -0.00997(7) 0.75321(3) 0.10644(2)
O9 O -0.45659(7) 0.67334(3) 0.02552(3)
O10 O 0.42272(10) 0.65738(3) 0.26852(3)
O11 O -0.28471(7) 0.74537(3) 0.09127(3)
O12 O 0.43681(9) 0.38159(3) 0.03934(3)
O13 O -0.50365(7) 0.69569(4) 0.04403(3)
O14 O 0.4535(2) 0.39703(4) 0.06689(5)
O15 O 0.3108(2) 0.71237(8) 0.34848(5)
O16 O 0.27679(17) 0.74074(6) 0.33345(5)
N19 N 0.13615(8) 0.40749(3) 0.99734(3)
C64 C 0.16340(13) 0.39930(5) 1.01649(4)
H49 H 0.1400 0.4040 1.0278
H50 H 0.1636 0.3829 1.0163
C65 C 0.16778(11) 0.39723(5) 0.97987(4)
H51 H 0.2066 0.4025 0.9804
H52 H 0.1686 0.3810 0.9817
C66 C 0.14014(12) 0.43177(4) 0.99530(5)
H53 H 0.1220 0.4362 0.9828
H54 H 0.1798 0.4359 0.9943
C67 C 0.22052(12) 0.40702(5) 1.02010(5)
H55 H 0.2440 0.4031 1.0088
H56 H 0.2350 0.4000 1.0321
H57 H 0.2205 0.4232 1.0218
C68 C 0.14560(11) 0.40191(5) 0.95980(4)
H58 H 0.1070 0.3969 0.9590
H59 H 0.1679 0.3940 0.9499
H60 H 0.1473 0.4179 0.9572
C69 C 0.07590(11) 0.40025(6) 0.99687(5)
H61 H 0.0588 0.4059 0.9846
H62 H 0.0563 0.4072 1.0081
C70 C 0.06656(15) 0.37528(6) 0.99783(6)
H63 H 0.0850 0.3682 0.9866
H64 H 0.0267 0.3722 0.9973
H65 H 0.0820 0.3695 1.0102
C71 C 0.11404(14) 0.44472(6) 1.01217(5)
H66 H 0.0752 0.4403 1.0137
H67 H 0.1159 0.4606 1.0093
H68 H 0.1342 0.4416 1.0245
N20 N 0.3764(2) 0.01428(8) 0.09550(5)
C72 C 0.4797(4) 0.00807(17) 0.09339(10)
H69 H 0.4801 0.0213 0.0850
H70 H 0.4796 -0.0052 0.0850
H71 H 0.5126 0.0080 0.1019
C73 C 0.3709(4) -0.00073(14) 0.07840(8)
H72 H 0.4039 0.0014 0.0698
H73 H 0.3381 0.0040 0.0707
C74 C 0.3329(3) 0.01088(9) 0.11115(9)
H74 H 0.3410 -0.0029 0.1185
H75 H 0.2962 0.0092 0.1048
C75 C 0.3652(4) -0.0256(2) 0.08260(14)
H76 H 0.4022 -0.0321 0.0844
H77 H 0.3467 -0.0328 0.0714
H78 H 0.3432 -0.0277 0.0946
C76 C 0.4291(3) 0.00820(15) 0.10587(10)
H79 H 0.4349 0.0187 0.1169
H80 H 0.4245 -0.0067 0.1117
C77 C 0.3900(2) 0.03432(11) 0.08696(9)
H81 H 0.4155 0.0320 0.0757
H82 H 0.4087 0.0440 0.0967
C78 C 0.3351(2) 0.04532(17) 0.07970(9)
H83 H 0.3360 0.0612 0.0828
H84 H 0.3035 0.0384 0.0864
H85 H 0.3315 0.0433 0.0654
C79 C 0.3311(3) 0.03068(8) 0.12585(7)
H86 H 0.3607 0.0412 0.1226
H87 H 0.3364 0.0252 0.1394
H88 H 0.2950 0.0381 0.1249
C80 C -0.00430(14) 0.55209(6) 0.03514(6)
C81 C 0.04498(17) 0.55687(8) 0.02380(7)
H89 H 0.0716 0.5447 0.0253
H90 H 0.0617 0.5707 0.0286
H91 H 0.0351 0.5585 0.0098
N21 N -0.04412(13) 0.54863(6) 0.04395(5)
N22 N 0.1250 0.6250 0.1250
C82 C 0.0878(3) 0.63423(13) 0.11195(8)
H92 H 0.0689 0.6204 0.1079
H93 H 0.0623 0.6408 0.1218
C83 C 0.07336(14) 0.64600(6) 0.09729(5)
H94 H 0.0847 0.6614 0.0995
H95 H 0.0330 0.6453 0.0957
H96 H 0.0913 0.6404 0.0853
C82G C 0.0878(3) 0.61577(13) 0.13805(8)
H92G H 0.0689 0.6296 0.1421
H93G H 0.0623 0.6092 0.1282
C83G C 0.07336(14) 0.60400(6) 0.15271(5)
H94G H 0.0847 0.5886 0.1505
H95G H 0.0330 0.6047 0.1543
H96G H 0.0913 0.6096 0.1647
C82J C 0.1622(3) 0.63423(13) 0.13805(8)
H92J H 0.1811 0.6204 0.1421
H93J H 0.1877 0.6408 0.1282
C83J C 0.17664(14) 0.64600(6) 0.15271(5)
H94J H 0.1653 0.6614 0.1505
H95J H 0.2170 0.6453 0.1543
H96J H 0.1587 0.6404 0.1647
C82M C 0.1622(3) 0.61577(13) 0.11195(8)
H92M H 0.1811 0.6296 0.1079
H93M H 0.1877 0.6092 0.1218
C83M C 0.17664(14) 0.60400(6) 0.09729(5)
H94M H 0.1653 0.5886 0.0995
H95M H 0.2170 0.6047 0.0957
H96M H 0.1587 0.6096 0.0853
C84 C 0.40302(15) 0.49018(6) -0.01201(5)
N23 N 0.5000 0.5000 0.0000
C85 C 0.43771(16) 0.50397(10) 0.00216(8)
C86 C 0.4978(2) 0.46897(7) 0.02299(7)
C87 C 0.5039(3) 0.47549(7) 0.00020(7)
C84P C 0.59698(15) 0.50982(6) 0.01201(5)
C85P C 0.56229(16) 0.49603(10) -0.00216(8)
C86P C 0.5022(2) 0.53103(7) -0.02299(7)
C87P C 0.4961(3) 0.52451(7) -0.00020(7)
O17 O 0.5553(3) 0.67589(11) 0.15082(8)
O18 O 0.2344(3) 0.58863(14) 0.96191(19)
O19 O 0.0379(3) 0.57817(16) 0.97123(12)
O20 O 0.5956(4) 0.37858(15) 0.06877(11)
C88? C 0.4908(4) 0.49484(9) 0.02240(12)
loop_
_geom_bond_atom_site_label_1
_geom_bond_atom_site_label_2
_geom_bond_site_symmetry_1
_geom_bond_site_symmetry_2
P1 O1 1_555 1_555
O2 P1 1_555 1_555
O3 P1 1_555 1_555
O4 P1 1_555 1_555
C1 C21 1_555 1_555
C2 C27 1_555 1_555
C3 C14 1_555 1_555
C4 C13 1_555 1_555
C5 N5 1_555 1_555
C6 H1 1_555 1_555
C7 C20 1_555 1_555
C8 H2 1_555 1_555
C9 C8 1_555 1_555
H3 C9 1_555 1_555
C10 C9 1_555 1_555
C11 C6 1_555 1_555
H4 C11 1_555 1_555
C12 H5 1_555 1_555
C13 C33 1_555 1_555
C14 C6 1_555 1_555
C15 H6 1_555 1_555
C16 N3 1_555 1_555
C17 H7 1_555 1_555
C18 C24 1_555 1_555
C19 C22 1_555 1_555
C20 C17 1_555 1_555
C21 H8 1_555 1_555
C22 C12 1_555 1_555
H9 C22 1_555 1_555
C23 N1 1_555 1_555
C24 C15 1_555 1_555
C25 C15 1_555 1_555
H10 C25 1_555 1_555
C26 C39 1_555 1_555
C27 C17 1_555 1_555
H11 C27 1_555 1_555
C28 N2 1_555 1_555
C29 C20 1_555 1_555
H12 C29 1_555 1_555
C30 C35 1_555 1_555
C31 C12 1_555 1_555
C32 C2 1_555 1_555
H13 C32 1_555 1_555
C33 C21 1_555 1_555
H14 C33 1_555 1_555
C34 C60 1_555 1_555
C35 H15 1_555 1_555
C36 C18 1_555 1_555
H16 C36 1_555 1_555
C37 C13 1_555 1_555
H17 C37 1_555 1_555
C38 N6 1_555 1_555
C39 C45 1_555 1_555
C40 C1 1_555 1_555
H18 C40 1_555 1_555
C41 C19 1_555 1_555
H19 C41 1_555 1_555
C42 H20 1_555 1_555
C43 C25 1_555 1_555
H21 C43 1_555 1_555
C44 C51 1_555 1_555
C45 H22 1_555 1_555
C46 H23 1_555 1_555
C47 C45 1_555 1_555
H24 C47 1_555 1_555
C48 C47 1_555 1_555
H25 C48 1_555 1_555
C49 C31 1_555 1_555
H26 C49 1_555 1_555
C50 C35 1_555 1_555
H27 C50 1_555 1_555
C51 C46 1_555 1_555
H28 C51 1_555 1_555
C52 C26 1_555 1_555
H29 C52 1_555 1_555
C53 C30 1_555 1_555
C54 C46 1_555 1_555
C55 C42 1_555 1_555
H30 C55 1_555 1_555
C56 N11 1_555 1_555
C57 C54 1_555 1_555
H31 C57 1_555 1_555
C58 C44 1_555 1_555
H32 C58 1_555 1_555
C59 H33 1_555 1_555
C60 H34 1_555 1_555
C61 C60 1_555 1_555
H35 C61 1_555 1_555
C62 C59 1_555 1_555
C63 C34 1_555 1_555
H36 C63 1_555 1_555
N1 C39 1_555 1_555
H37 N1 1_555 1_555
N2 C2 1_555 1_555
H38 N2 1_555 1_555
N3 C10 1_555 1_555
H39 N3 1_555 1_555
N4 C16 1_555 1_555
H40 N4 1_555 1_555
N5 C1 1_555 1_555
H41 N5 1_555 1_555
N6 C34 1_555 1_555
H42 N6 1_555 1_555
N7 C18 1_555 1_555
H43 N7 1_555 1_555
N8 C3 1_555 1_555
N9 C26 1_555 1_555
H44 N9 1_555 1_555
N10 C5 1_555 1_555
H45 N10 1_555 1_555
N11 C53 1_555 1_555
H46 N11 1_555 1_555
N12 C3 1_555 1_555
N13 C19 1_555 1_555
N14 C4 1_555 1_555
N15 C23 1_555 1_555
H47 N15 1_555 1_555
N16 C44 1_555 1_555
H48 N16 1_555 1_555
N17 C54 1_555 1_555
N18 C62 1_555 1_555
O5 C5 1_555 1_555
O6 C16 1_555 1_555
O7 C56 1_555 1_555
O8 C28 1_555 1_555
O9 N13 1_555 1_555
O10 C38 1_555 1_555
O11 C23 1_555 1_555
O12 N17 1_555 1_555
O13 N13 1_555 1_555
O14 N17 1_555 1_555
O15 N18 1_555 1_555
O16 N18 1_555 1_555
N19 C64 1_555 1_555
C64 H49 1_555 1_555
H50 C64 1_555 1_555
C65 N19 1_555 1_555
H51 C65 1_555 1_555
H52 C65 1_555 1_555
C66 N19 1_555 1_555
H53 C66 1_555 1_555
H54 C66 1_555 1_555
C67 C64 1_555 1_555
H55 C67 1_555 1_555
H56 C67 1_555 1_555
H57 C67 1_555 1_555
C68 C65 1_555 1_555
H58 C68 1_555 1_555
H59 C68 1_555 1_555
H60 C68 1_555 1_555
C69 N19 1_555 1_555
H61 C69 1_555 1_555
H62 C69 1_555 1_555
C70 C69 1_555 1_555
H63 C70 1_555 1_555
H64 C70 1_555 1_555
H65 C70 1_555 1_555
C71 C66 1_555 1_555
H66 C71 1_555 1_555
H67 C71 1_555 1_555
H68 C71 1_555 1_555
N20 C73 1_555 1_555
C72 H69 1_555 1_555
H70 C72 1_555 1_555
H71 C72 1_555 1_555
C73 H72 1_555 1_555
H73 C73 1_555 1_555
C74 N20 1_555 1_555
H74 C74 1_555 1_555
H75 C74 1_555 1_555
C75 C73 1_555 1_555
H76 C75 1_555 1_555
H77 C75 1_555 1_555
H78 C75 1_555 1_555
C76 N20 1_555 1_555
H79 C76 1_555 1_555
H80 C76 1_555 1_555
C77 N20 1_555 1_555
H81 C77 1_555 1_555
H82 C77 1_555 1_555
C78 C77 1_555 1_555
H83 C78 1_555 1_555
H84 C78 1_555 1_555
H85 C78 1_555 1_555
C79 C74 1_555 1_555
H86 C79 1_555 1_555
H87 C79 1_555 1_555
H88 C79 1_555 1_555
C80 C81 1_555 1_555
C81 H89 1_555 1_555
H90 C81 1_555 1_555
H91 C81 1_555 1_555
N21 C80 1_555 1_555
N22 C82 1_555 1_555
C82 H92 1_555 1_555
H93 C82 1_555 1_555
C83 C82 1_555 1_555
H94 C83 1_555 1_555
H95 C83 1_555 1_555
H96 C83 1_555 1_555
C84 C85 1_555 1_555
N23 C85 1_555 1_555
C86 C87 1_555 1_555
C87 N23 1_555 1_555
C82G N22 1_555 1_555
H92G C82G 1_555 1_555
H93G C82G 1_555 1_555
C83G C82G 1_555 1_555
H94G C83G 1_555 1_555
H95G C83G 1_555 1_555
H96G C83G 1_555 1_555
C82J N22 1_555 1_555
H92J C82J 1_555 1_555
H93J C82J 1_555 1_555
C83J C82J 1_555 1_555
H94J C83J 1_555 1_555
H95J C83J 1_555 1_555
H96J C83J 1_555 1_555
C82M N22 1_555 1_555
H92M C82M 1_555 1_555
H93M C82M 1_555 1_555
C83M C82M 1_555 1_555
H94M C83M 1_555 1_555
H95M C83M 1_555 1_555
H96M C83M 1_555 1_555
C84P C85P 1_555 1_555
C85P N23 1_555 1_555
C86P C87P 1_555 1_555
C87P N23 1_555 1_555
C4 N8 1_555 1_555
C7 N12 1_555 1_555
C7 N14 1_555 1_555
C8 C14 1_555 1_555
C10 C11 1_555 1_555
C24 N10 1_555 1_555
C28 N9 1_555 1_555
C29 C32 1_555 1_555
C30 N4 1_555 1_555
C31 N15 1_555 1_555
C36 C43 1_555 1_555
C37 C40 1_555 1_555
C38 N7 1_555 1_555
C41 C49 1_555 1_555
C42 C53 1_555 1_555
C48 C52 1_555 1_555
C50 C55 1_555 1_555
C56 N16 1_555 1_555
C57 C58 1_555 1_555
C59 C63 1_555 1_555
C61 C62 1_555 1_555
C72 C76 1_555 1_555

#END
