
#######################################################################
#
#                 Cambridge Crystallographic Data Centre
#                                CCDC 
#
#######################################################################
#
# If this CIF has been generated from an entry in the Cambridge 
# Structural Database, then it will include bibliographic, chemical, 
# crystal, experimental, refinement or atomic coordinate data resulting 
# from the CCDC's data processing and validation procedures.
#
#######################################################################

data_NEYHEH
_chemical_formula_moiety         
'C63 H48 N18 O12,2(C9 H22 N1 1+),O4 P1 3-,K1 1+'
_chemical_name_systematic        
"potassium N,N,N-triethylpropan-1-aminium phosphate N,N',N''-{1,3,5-triazine-2,4,6-triyltris[(4,1-phenylene)carbamoylazanediyl-2,1-phenylene]}tris[N'-(4-nitrophenyl)urea] unknown solvate"
_symmetry_cell_setting           monoclinic
_symmetry_space_group_name_H-M   'I 2/a'
_symmetry_Int_Tables_number      15
_space_group_name_Hall           '-I 2ya'
loop_
_symmetry_equiv_pos_site_id
_symmetry_equiv_pos_as_xyz
1 x,y,z
2 1/2-x,y,-z
3 1/2+x,1/2+y,1/2+z
4 -x,1/2+y,1/2-z
5 -x,-y,-z
6 1/2+x,-y,z
7 1/2-x,1/2-y,1/2-z
8 x,1/2-y,1/2+z
_cell_length_a                   43.470(3)
_cell_length_b                   39.035(3)
_cell_length_c                   58.398(5)
_cell_angle_alpha                90
_cell_angle_beta                 98.340(3)
_cell_angle_gamma                90
_cell_volume                     98044.8
_exptl_crystal_colour            yellow
_exptl_crystal_description       block
_cell_formula_units_Z            32
loop_
_atom_site_label
_atom_site_type_symbol
_atom_site_fract_x
_atom_site_fract_y
_atom_site_fract_z
O13 O 0.39534(12) -0.13199(16) 0.29209(12)
O14 O 0.38558(15) -0.20529(16) 0.28250(7)
O15 O 0.41726(15) -0.24063(14) 0.26320(10)
K1 K 0.44298(5) -0.16861(7) 0.26852(6)
O16 O 0.50598(16) -0.1442(3) 0.27228(14)
O17 O 0.48298(12) -0.21606(15) 0.25328(10)
O18 O 0.4528(3) -0.0929(2) 0.28861(16)
C64 C 0.07629(6) -0.28100(7) 0.16318(5)
C65 C 0.11331(7) -0.24012(7) 0.16400(5)
C66 C 0.12303(7) -0.29510(7) 0.15364(5)
C67 C 0.14416(6) -0.31959(7) 0.14561(5)
C68 C 0.13521(7) -0.35350(7) 0.14114(5)
H49 H 0.1154 -0.3609 0.1443
C69 C 0.15395(6) -0.37621(7) 0.13244(5)
H50 H 0.1470 -0.3990 0.1293
C70 C 0.18340(6) -0.36648(7) 0.12800(5)
C71 C 0.19312(7) -0.33233(7) 0.13230(5)
H51 H 0.2131 -0.3251 0.1294
C72 C 0.17381(7) -0.31006(7) 0.14058(6)
H52 H 0.1804 -0.2870 0.1431
C73 C 0.22999(7) -0.38645(8) 0.11094(6)
C74 C 0.26836(8) -0.42004(9) 0.09322(8)
C75 C 0.29294(8) -0.39805(10) 0.09954(9)
H53 H 0.2909 -0.3794 0.1096
C76 C 0.32101(10) -0.40359(12) 0.09083(11)
H54 H 0.3383 -0.3889 0.0953
C77 C 0.32346(9) -0.43038(13) 0.07574(10)
H55 H 0.3423 -0.4334 0.0695
C78 C 0.29962(8) -0.45251(11) 0.06962(8)
H56 H 0.3022 -0.4714 0.0598
C79 C 0.27087(7) -0.44746(9) 0.07781(7)
C80 C 0.23830(8) -0.48304(10) 0.04998(8)
C81 C 0.19824(4) -0.51965(5) 0.02764(3)
C82 C 0.20851(6) -0.51685(7) 0.00626(4)
H57 H 0.2256 -0.5024 0.0045
C83 C 0.19378(8) -0.53523(9) -0.01260(3)
H58 H 0.2008 -0.5333 -0.0272
C84 C 0.16879(8) -0.55640(9) -0.01007(5)
C85 C 0.15851(6) -0.55920(7) 0.01131(5)
H59 H 0.1414 -0.5737 0.0130
C86 C 0.17324(5) -0.54082(6) 0.03016(4)
H60 H 0.1662 -0.5427 0.0448
C87 C 0.04418(6) -0.29078(7) 0.16650(5)
C88 C 0.03327(7) -0.32377(7) 0.16069(5)
H61 H 0.0468 -0.3402 0.1555
C89 C 0.00230(7) -0.33277(8) 0.16256(6)
H62 H -0.0047 -0.3555 0.1592
C90 C -0.01806(6) -0.30865(7) 0.16932(5)
C91 C -0.00712(7) -0.27548(8) 0.17502(7)
H63 H -0.0207 -0.2589 0.1800
C92 C 0.02391(7) -0.26668(8) 0.17339(6)
H64 H 0.0310 -0.2440 0.1770
C93 C -0.06540(7) -0.34465(7) 0.16609(5)
C94 C -0.11629(8) -0.36975(7) 0.16860(6)
C95 C -0.10686(9) -0.40386(9) 0.17214(8)
H65 H -0.0853 -0.4087 0.1758
C96 C -0.12757(9) -0.43072(9) 0.17057(9)
H66 H -0.1205 -0.4537 0.1721
C97 C -0.15862(11) -0.42341(10) 0.16683(10)
H67 H -0.1730 -0.4419 0.1656
C98 C -0.16983(9) -0.39079(9) 0.16476(9)
H68 H -0.1915 -0.3866 0.1634
C99 C -0.14830(8) -0.36296(9) 0.16474(7)
C100 C -0.18508(8) -0.31888(9) 0.14830(8)
C101 C -0.21173(4) -0.26596(5) 0.13270(4)
C102 C -0.22836(5) -0.27978(6) 0.11270(4)
H69 H -0.2256 -0.3032 0.1090
C103 C -0.24895(7) -0.25939(9) 0.09820(4)
H70 H -0.2603 -0.2688 0.0845
C104 C -0.25291(7) -0.22518(8) 0.10369(6)
C105 C -0.23629(6) -0.21136(6) 0.12369(6)
H71 H -0.2390 -0.1880 0.1274
C106 C -0.21570(5) -0.23175(5) 0.13819(4)
H72 H -0.2043 -0.2223 0.1519
C107 C 0.12293(7) -0.20414(7) 0.16738(5)
C108 C 0.10300(7) -0.17924(7) 0.17275(5)
H73 H 0.0828 -0.1858 0.1755
C109 C 0.11115(7) -0.14471(7) 0.17435(5)
H74 H 0.0970 -0.1282 0.1786
C110 C 0.14049(6) -0.13471(7) 0.16968(4)
C111 C 0.16059(7) -0.15978(7) 0.16440(5)
H75 H 0.1807 -0.1534 0.1615
C112 C 0.15243(7) -0.19375(8) 0.16321(6)
H76 H 0.1669 -0.2104 0.1595
C113 C 0.13409(7) -0.07227(7) 0.17246(5)
C114 C 0.14041(4) -0.00908(4) 0.17360(3)
C115 C 0.11813(5) -0.00229(6) 0.18783(4)
H77 H 0.1088 -0.0206 0.1950
C116 C 0.10954(6) 0.03133(7) 0.19156(6)
H78 H 0.0943 0.0360 0.2013
C117 C 0.12324(7) 0.05815(5) 0.18107(6)
H79 H 0.1174 0.0811 0.1836
C118 C 0.14552(7) 0.05135(4) 0.16684(6)
H80 H 0.1549 0.0697 0.1597
C119 C 0.15410(5) 0.01774(5) 0.16311(4)
C120 C 0.18369(8) 0.03002(8) 0.13238(7)
C121 C 0.22453(6) 0.03522(5) 0.10572(3)
C122 C 0.21627(7) 0.06743(5) 0.09670(4)
H81 H 0.1998 0.0798 0.1020
C123 C 0.23205(10) 0.08157(7) 0.07990(5)
H82 H 0.2264 0.1036 0.0737
C124 C 0.25608(9) 0.06351(10) 0.07213(5)
C125 C 0.26434(8) 0.03131(10) 0.08115(6)
H83 H 0.2808 0.0190 0.0758
C126 C 0.24857(7) 0.01716(6) 0.09794(5)
H84 H 0.2542 -0.0049 0.1041
N19 N 0.08411(5) -0.24840(6) 0.16817(5)
N20 N 0.13372(5) -0.26231(6) 0.15783(5)
N21 N 0.09425(5) -0.30501(6) 0.15633(4)
N22 N 0.20078(5) -0.39172(5) 0.11873(4)
H85 H 0.1930 -0.4126 0.1176
N23 N 0.23977(6) -0.41584(7) 0.10182(5)
H86 H 0.2273 -0.4337 0.1012
N24 N 0.24559(6) -0.46964(7) 0.07134(5)
H87 H 0.2338 -0.4751 0.0819
N25 N 0.21181(6) -0.50272(7) 0.04812(5)
H88 H 0.2026 -0.5050 0.0605
N26 N 0.15431(11) -0.57763(17) -0.02852(8)
N27 N -0.04935(5) -0.31406(6) 0.17088(4)
H89 H -0.0599 -0.2966 0.1753
N28 N -0.09555(5) -0.34212(6) 0.17036(4)
H90 H -0.1022 -0.3220 0.1744
N29 N -0.15878(6) -0.32905(7) 0.16223(6)
H91 H -0.1476 -0.3132 0.1702
N30 N -0.18881(6) -0.28373(7) 0.14767(6)
H92 H -0.1759 -0.2715 0.1574
N31 N -0.27553(9) -0.20270(12) 0.09014(7)
N32 N 0.15142(5) -0.10090(5) 0.16979(4)
H93 H 0.1710 -0.0978 0.1680
N33 N 0.15108(6) -0.04294(5) 0.17058(4)
H94 H 0.1701 -0.0453 0.1672
N34 N 0.17839(6) 0.01073(6) 0.15008(5)
H95 H 0.1904 -0.0071 0.1539
N35 N 0.20976(7) 0.01918(6) 0.12282(5)
H96 H 0.2181 -0.0003 0.1282
N36 N 0.26975(12) 0.07978(9) 0.05406(8)
O19 O 0.24393(5) -0.35996(5) 0.11281(5)
O20 O 0.25268(7) -0.47738(9) 0.03383(5)
O21 O 0.16446(11) -0.57892(18) -0.04636(7)
O22 O 0.13221(9) -0.59523(12) -0.02648(6)
O23 O -0.05380(5) -0.37021(5) 0.15872(4)
O24 O -0.20423(6) -0.33865(6) 0.13740(5)
O25 O -0.28796(12) -0.21571(12) 0.07187(9)
O26 O -0.27861(8) -0.17386(10) 0.09484(8)
O27 O 0.10704(5) -0.07237(6) 0.17609(5)
O28 O 0.16884(6) 0.05511(6) 0.12411(6)
O29 O 0.25973(13) 0.10704(8) 0.04611(7)
O30 O 0.29207(11) 0.06353(11) 0.05013(11)
C127 C 0.06304(17) -0.6444(2) -0.01766(12)
O31 O 0.05874(11) -0.62376(14) -0.04547(7)
O32 O 0.15420(16) -0.6964(3) -0.08590(18)
K2 K 0.11916(8) -0.65514(7) -0.05611(4)
O33 O 0.1026(3) -0.68199(18) -0.01464(10)
O34 O 0.1551(2) -0.7227(2) -0.03890(17)
O35 O 0.1329(2) -0.63795(15) -0.09839(8)
O36 O 0.07730(17) -0.59810(12) -0.08180(7)
C128 C 0.02244(7) -0.35107(7) 0.07328(5)
C129 C -0.01547(7) -0.31119(7) 0.07095(5)
C130 C 0.01045(7) -0.31773(7) 0.04089(6)
C131 C 0.04209(7) -0.37674(7) 0.08684(5)
C132 C 0.03911(7) -0.38497(7) 0.10872(5)
H97 H 0.0225 -0.3749 0.1153
C133 C 0.05873(7) -0.40719(7) 0.12238(5)
H98 H 0.0559 -0.4121 0.1379
C134 C 0.08354(6) -0.42256(7) 0.11222(5)
C135 C 0.08621(8) -0.41472(8) 0.08964(5)
H99 H 0.1024 -0.4248 0.0826
C136 C 0.06611(7) -0.39274(8) 0.07723(5)
H100 H 0.0684 -0.3881 0.0616
C137 C 0.10842(7) -0.45300(7) 0.14669(5)
C138 C 0.14159(9) -0.48924(7) 0.17521(5)
C139 C 0.11960(12) -0.49609(9) 0.18998(6)
H101 H 0.0984 -0.4899 0.1856
C140 C 0.12924(13) -0.51218(10) 0.21127(6)
H102 H 0.1147 -0.5164 0.2216
C141 C 0.16003(15) -0.52192(11) 0.21730(7)
H103 H 0.1663 -0.5332 0.2316
C142 C 0.18103(12) -0.51554(10) 0.20306(6)
H104 H 0.2020 -0.5224 0.2077
C143 C 0.17330(10) -0.49944(8) 0.18209(5)
C144 C 0.22484(8) -0.48958(8) 0.17361(6)
C145 C 0.27414(4) -0.48538(4) 0.15528(4)
C146 C 0.29504(5) -0.48843(7) 0.17557(4)
H105 H 0.2876 -0.4918 0.1899
C147 C 0.32682(5) -0.48653(8) 0.17487(6)
H106 H 0.3411 -0.4886 0.1887
C148 C 0.33770(4) -0.48157(8) 0.15388(8)
C149 C 0.31680(6) -0.47852(9) 0.13359(6)
H107 H 0.3242 -0.4751 0.1192
C150 C 0.28501(6) -0.48042(7) 0.13428(4)
H108 H 0.2707 -0.4783 0.1204
C151 C -0.04016(7) -0.29339(8) 0.08289(5)
C152 C -0.04498(8) -0.30175(8) 0.10515(6)
H109 H -0.0337 -0.3201 0.1130
C153 C -0.06608(8) -0.28365(8) 0.11601(5)
H110 H -0.0694 -0.2900 0.1312
C154 C -0.08262(7) -0.25589(7) 0.10481(5)
C155 C -0.07784(7) -0.24708(7) 0.08267(5)
H111 H -0.0890 -0.2285 0.0749
C156 C -0.05665(7) -0.26556(7) 0.07194(5)
H112 H -0.0532 -0.2592 0.0568
C157 C -0.12072(7) -0.21071(7) 0.11000(5)
C158 C -0.16228(7) -0.17523(9) 0.12341(6)
C159 C -0.17745(8) -0.16690(10) 0.10102(6)
H113 H -0.1724 -0.1787 0.0878
C160 C -0.19978(10) -0.14123(10) 0.09869(7)
H114 H -0.2090 -0.1343 0.0837
C161 C -0.20867(10) -0.12578(11) 0.11756(8)
H115 H -0.2248 -0.1091 0.1158
C162 C -0.19439(9) -0.13437(10) 0.13889(7)
H116 H -0.2006 -0.1233 0.1520
C163 C -0.17081(8) -0.15886(8) 0.14239(6)
C164 C -0.14986(9) -0.14563(10) 0.18261(6)
C165 C -0.12147(4) -0.14391(5) 0.22299(3)
C166 C -0.11782(6) -0.10857(5) 0.22449(4)
H117 H -0.1248 -0.0946 0.2115
C167 C -0.10389(8) -0.09371(6) 0.24504(5)
H118 H -0.1014 -0.0696 0.2461
C168 C -0.09361(8) -0.11420(9) 0.26408(4)
C169 C -0.09726(7) -0.14954(9) 0.26258(4)
H119 H -0.0902 -0.1635 0.2756
C170 C -0.11119(6) -0.16440(6) 0.24204(4)
H120 H -0.1137 -0.1886 0.2410
C171 C 0.01673(7) -0.30795(7) 0.01798(5)
C172 C -0.00026(7) -0.28234(7) 0.00544(5)
H121 H -0.0173 -0.2724 0.0116
C173 C 0.00645(7) -0.27106(7) -0.01508(5)
H122 H -0.0052 -0.2527 -0.0227
C174 C 0.03066(7) -0.28616(7) -0.02536(5)
C175 C 0.04824(7) -0.31218(7) -0.01238(5)
H123 H 0.0653 -0.3223 -0.0183
C176 C 0.04116(7) -0.32282(7) 0.00827(5)
H124 H 0.0530 -0.3407 0.0163
C177 C 0.06007(8) -0.28281(8) -0.05823(5)
C178 C 0.08110(9) -0.26697(8) -0.09365(6)
C179 C 0.09799(10) -0.29734(10) -0.09568(8)
H125 H 0.0956 -0.3164 -0.0860
C180 C 0.11852(10) -0.29904(11) -0.11223(8)
H126 H 0.1315 -0.3185 -0.1128
C181 C 0.11970(11) -0.27290(12) -0.12737(7)
H127 H 0.1316 -0.2755 -0.1397
C182 C 0.10426(9) -0.24329(11) -0.12527(7)
H128 H 0.1071 -0.2246 -0.1351
C183 C 0.08434(9) -0.23979(10) -0.10901(6)
C184 C 0.07783(10) -0.17701(10) -0.11113(6)
C185 C 0.06157(5) -0.11672(5) -0.10935(4)
C186 C 0.08927(5) -0.10163(6) -0.11332(6)
H129 H 0.1069 -0.1155 -0.1147
C187 C 0.09123(7) -0.06624(6) -0.11529(8)
H130 H 0.1102 -0.0559 -0.1180
C188 C 0.06549(8) -0.04593(5) -0.11328(7)
C189 C 0.03778(7) -0.06102(5) -0.10931(6)
H131 H 0.0202 -0.0471 -0.1079
C190 C 0.03582(5) -0.09642(6) -0.10734(5)
H132 H 0.0169 -0.1067 -0.1046
N37 N 0.00006(5) -0.33612(6) 0.08391(4)
N38 N 0.02806(6) -0.34340(6) 0.05213(4)
N39 N -0.01168(6) -0.30098(6) 0.05066(4)
N40 N 0.10526(5) -0.44535(5) 0.12394(4)
H133 H 0.1180 -0.4556 0.1157
N41 N 0.13333(6) -0.47454(6) 0.15307(4)
H134 H 0.1451 -0.4796 0.1425
N42 N 0.19420(7) -0.49460(6) 0.16668(4)
H135 H 0.1873 -0.4948 0.1518
N43 N 0.24119(6) -0.48717(7) 0.15498(5)
H136 H 0.2299 -0.4867 0.1412
N44 N 0.37139(9) -0.47948(15) 0.15345(6)
N45 N -0.10273(5) -0.23921(6) 0.11765(4)
H137 H -0.1042 -0.2472 0.1315
N46 N -0.13871(5) -0.20156(6) 0.12630(4)
H138 H -0.1357 -0.2125 0.1396
N47 N -0.15616(6) -0.16817(7) 0.16480(5)
H139 H -0.1509 -0.1897 0.1673
N48 N -0.13440(7) -0.16105(7) 0.20235(5)
H140 H -0.1324 -0.1835 0.2021
N49 N -0.07903(10) -0.10084(10) 0.28602(8)
N50 N 0.03586(5) -0.27307(5) -0.04620(4)
H141 H 0.0229 -0.2572 -0.0526
N51 N 0.05971(6) -0.26353(6) -0.07775(4)
H142 H 0.0451 -0.2479 -0.0806
N52 N 0.06623(7) -0.20940(7) -0.10741(5)
H143 H 0.0473 -0.2113 -0.1040
N53 N 0.05678(7) -0.15201(7) -0.10714(5)
H144 H 0.0391 -0.1587 -0.1029
N54 N 0.06592(12) -0.01041(10) -0.11681(12)
O37 O 0.09141(6) -0.44301(6) 0.16044(4)
O38 O 0.23764(7) -0.48643(7) 0.19312(4)
O39 O 0.38789(8) -0.47912(12) 0.17212(6)
O40 O 0.37865(13) -0.4794(3) 0.13423(6)
O41 O -0.12094(5) -0.19673(5) 0.09183(4)
O42 O -0.15913(7) -0.11579(6) 0.18278(5)
O43 O -0.07111(11) -0.11798(10) 0.30268(6)
O44 O -0.07355(14) -0.07015(11) 0.28610(8)
O45 O 0.07934(6) -0.30496(6) -0.05186(4)
O46 O 0.10451(7) -0.17123(8) -0.11528(6)
O47 O 0.08938(11) 0.00263(10) -0.12091(11)
O48 O 0.04463(10) 0.00749(8) -0.11396(8)
K3 K 0.03689(5) 0.07533(6) -0.13670(5)
O49 O -0.02709(14) 0.05223(14) -0.1514(2)
O50 O 0.04410(18) 0.09721(18) -0.18765(16)
C191 C 0.55248(17) 0.86454(11) 0.14614(7)
C192 C 0.54770(14) 0.89800(14) 0.15455(9)
C193 C 0.55115(15) 0.92474(12) 0.13496(9)
C194 C 0.53762(19) 0.95958(17) 0.14401(13)
C195 C 0.58182(15) 0.84406(12) 0.18370(8)
C196 C 0.61596(15) 0.84860(15) 0.17781(10)
C197 C 0.6438(2) 0.85126(16) 0.19983(10)
C198 C 0.56328(13) 0.80158(10) 0.15149(7)
C199 C 0.5637(2) 0.77125(15) 0.16541(10)
C200 C 0.58657(16) 0.74574(13) 0.15826(10)
C201 C 0.6162(2) 0.7540(2) 0.16810(15)
C202 C 0.52527(12) 0.83421(13) 0.17229(9)
C203 C 0.49878(13) 0.82120(19) 0.15586(9)
C204 C 0.47143(18) 0.8148(3) 0.16955(11)
C205 C 0.4649(2) 0.7746(3) 0.17108(18)
N55 N 0.55688(11) 0.83539(11) 0.16372(6)
C206 C 0.21921(11) 0.41582(12) 0.13068(8)
C207 C 0.24932(13) 0.41637(17) 0.14631(13)
C208 C 0.24381(15) 0.42559(14) 0.16995(10)
C209 C 0.23282(19) 0.3987(2) 0.18384(14)
C210 C 0.24431(10) 0.39745(15) 0.09658(11)
C211 C 0.24602(13) 0.43249(14) 0.08570(14)
C212 C 0.27593(17) 0.43531(17) 0.07391(17)
C213 C 0.3002(2) 0.4490(3) 0.0953(2)
C214 C 0.18713(10) 0.39410(14) 0.09401(9)
C215 C 0.18107(13) 0.37347(12) 0.07389(11)
C216 C 0.14829(12) 0.37613(13) 0.06285(10)
C217 C 0.1459(2) 0.35552(15) 0.03844(13)
C218 C 0.22067(11) 0.35295(12) 0.11915(9)
C219 C 0.19532(13) 0.33974(11) 0.13417(11)
C220 C 0.20450(15) 0.30382(10) 0.14420(10)
N56 N 0.21800(9) 0.38965(8) 0.11007(8)
C221 C 0.27119(11) 0.03151(12) 0.18249(9)
C222 C 0.27035(15) 0.06132(14) 0.16626(13)
C223 C 0.23883(14) 0.07844(13) 0.16584(10)
C224 C 0.2373(3) 0.09993(17) 0.18395(16)
C225 C 0.31527(10) 0.05282(12) 0.21341(9)
C226 C 0.29462(14) 0.06111(18) 0.23217(12)
C227 C 0.30365(16) 0.09613(16) 0.24713(12)
C228 C 0.30210(10) -0.00984(10) 0.20926(9)
C229 C 0.33053(14) -0.02251(13) 0.22194(10)
C230 C 0.32263(14) -0.05149(12) 0.23819(9)
C231 C 0.35550(18) -0.06709(15) 0.24723(14)
C232 C 0.32802(12) 0.01865(12) 0.17867(8)
C233 C 0.31996(10) -0.00695(13) 0.16069(8)
C234 C 0.34568(11) -0.00503(14) 0.14493(8)
C235 C 0.3315(2) 0.02263(15) 0.12717(11)
N57 N 0.30473(8) 0.02398(9) 0.19536(7)
C236 C 0.52728(18) 0.43969(14) 0.6093(2)
C237 C 0.6818(3) 0.4074(3) 0.19468(14)
K4 K 0.2500 0.2500 0.2500
O51 O 0.2949(4) 0.2804(3) 0.21572(17)
C238 C 0.2921(3) 0.2229(2) 0.21191(17)
C239 C 0.3259(2) 0.2362(3) 0.2619(2)
O52 O 0.20564(4) -0.09483(4) 0.14322(3)
O53 O 0.25778(4) -0.08416(4) 0.16661(3)
O54 O 0.21353(4) -0.04406(4) 0.16952(3)
O55 O 0.23800(5) -0.04524(5) 0.13337(3)
P1 P 0.22866(2) -0.06733(2) 0.15285(2)
O56 O 0.2573(3) 0.1992(2) 0.19992(16)
N58 N 0.25269(5) -0.15246(6) 0.18005(4)
H145 H 0.2495 -0.1310 0.1756
O57 O 0.24277(6) -0.20777(5) 0.16879(4)
N59 N 0.23076(5) -0.16467(5) 0.14306(4)
H146 H 0.2307 -0.1422 0.1416
N60 N 0.23240(6) -0.04738(6) 0.21671(4)
H147 H 0.2292 -0.0472 0.2015
C240 C 0.22501(7) -0.01743(8) 0.22811(5)
N61 N 0.25420(6) -0.09978(6) 0.21237(4)
H148 H 0.2518 -0.0943 0.1976
C241 C 0.24415(8) -0.07692(8) 0.22734(5)
C242 C 0.26788(7) -0.15794(7) 0.20260(5)
C243 C 0.20689(7) 0.00655(8) 0.21467(5)
H149 H 0.1999 0.0020 0.1988
C244 C 0.21841(7) -0.21927(7) 0.12237(6)
H150 H 0.2265 -0.2324 0.1356
C245 C 0.21896(7) -0.18335(7) 0.12340(5)
C246 C 0.26820(7) -0.13162(8) 0.21901(5)
C247 C 0.24238(7) -0.17715(7) 0.16434(5)
C248 C 0.28458(9) -0.13687(9) 0.24112(6)
H151 H 0.2861 -0.1186 0.2520
C249 C 0.28320(9) -0.18878(8) 0.20928(6)
H152 H 0.2838 -0.2065 0.1982
C250 C 0.29851(11) -0.16753(10) 0.24758(7)
H153 H 0.3089 -0.1707 0.2629
C251 C 0.29735(11) -0.19367(10) 0.23166(7)
H154 H 0.3064 -0.2152 0.2362
O58 O 0.05688(6) -0.10572(5) -0.01743(4)
C252 C 0.10172(3) -0.50761(3) 0.03716(3)
C253 C 0.09908(5) -0.53732(4) 0.04985(3)
C254 C 0.08195(6) -0.56488(4) 0.03975(4)
H155 H 0.0801 -0.5852 0.0484
C255 C 0.06746(6) -0.56273(5) 0.01696(5)
H156 H 0.0558 -0.5816 0.0101
C256 C 0.07011(7) -0.53303(6) 0.00427(4)
H157 H 0.0602 -0.5316 -0.0113
C257 C 0.08723(5) -0.50547(5) 0.01436(3)
H158 H 0.0890 -0.4852 0.0057
N62 N 0.05452(5) -0.15919(5) -0.03333(4)
H159 H 0.0449 -0.1718 -0.0446
C258 C 0.08239(3) -0.21012(3) -0.02154(2)
H160 H 0.0700 -0.2213 -0.0341
C259 C 0.07833(4) -0.17536(3) -0.01779(3)
C260 C 0.09641(5) -0.15898(4) 0.00057(3)
H161 H 0.0936 -0.1352 0.0031
C261 C 0.11856(5) -0.17737(5) 0.01518(3)
H162 H 0.1309 -0.1662 0.0277
C262 C 0.12263(4) -0.21213(5) 0.01143(3)
C263 C 0.10454(4) -0.22851(3) -0.00693(3)
H163 H 0.1073 -0.2523 -0.0095
C264 C 0.04513(7) -0.12572(7) -0.03238(5)
C265 C 0.21027(8) 0.04488(9) 0.24595(6)
C266 C 0.20612(7) -0.23516(7) 0.10221(5)
H164 H 0.2060 -0.2595 0.1017
C267 C 0.22824(8) 0.02106(10) 0.26011(6)
H165 H 0.2353 0.0264 0.2759
C268 C 0.00993(4) -0.08403(3) -0.05477(3)
C269 C -0.01894(4) -0.08073(4) -0.06836(4)
C270 C -0.03117(5) -0.04837(5) -0.07387(5)
H166 H -0.0509 -0.0461 -0.0832
C271 C -0.01454(7) -0.01932(4) -0.06579(5)
H167 H -0.0229 0.0028 -0.0696
C272 C 0.01432(6) -0.02263(3) -0.05220(5)
H168 H 0.0257 -0.0028 -0.0467
C273 C 0.02656(5) -0.05498(4) -0.04669(4)
H169 H 0.0463 -0.0572 -0.0374
C274 C 0.19377(7) -0.21727(7) 0.08240(5)
C275 C 0.20801(7) -0.16533(7) 0.10378(5)
H170 H 0.2093 -0.1410 0.1041
C276 C 0.23549(7) -0.00956(9) 0.25127(5)
H171 H 0.2477 -0.0257 0.2608
C277 C 0.19893(8) 0.03738(9) 0.22450(6)
H172 H 0.1853 0.0529 0.2156
C278 C 0.19539(8) -0.18100(7) 0.08388(6)
H173 H 0.1875 -0.1675 0.0708
O59 O 0.09882(5) -0.43637(5) 0.02412(4)
N63 N 0.14012(5) -0.42644(5) 0.05263(4)
H174 H 0.1525 -0.4362 0.0640
N64 N 0.11463(6) -0.53971(6) 0.07274(4)
H175 H 0.1310 -0.5265 0.0765
O60 O 0.08327(5) -0.57976(6) 0.08613(5)
N65 N 0.11993(5) -0.48033(5) 0.04761(4)
H176 H 0.1335 -0.4851 0.0599
O61 O -0.08454(6) -0.08803(6) -0.08181(5)
O62 O 0.24555(7) -0.08221(6) 0.24829(4)
N66 N -0.03509(6) -0.11032(6) -0.07712(4)
H177 H -0.0241 -0.1290 -0.0785
N67 N 0.02255(6) -0.11759(5) -0.05004(4)
H178 H 0.0150 -0.1343 -0.0593
N68 N 0.16157(6) -0.21469(6) 0.04516(4)
C279 C 0.10649(7) -0.56099(7) 0.08973(6)
C280 C 0.12756(7) -0.37162(7) 0.03115(5)
H179 H 0.1120 -0.3821 0.0203
N69 N 0.17761(6) -0.26882(6) 0.06201(4)
N70 N 0.20281(8) 0.07731(8) 0.25684(5)
O63 O 0.21209(8) 0.08273(8) 0.27672(6)
C281 C 0.14466(7) -0.39123(7) 0.04875(5)
C282 C 0.11804(7) -0.44687(7) 0.04011(5)
C283 C -0.06683(8) -0.11213(8) -0.08371(5)
C284 C 0.16817(8) -0.37489(7) 0.06322(5)
H180 H 0.1808 -0.3880 0.0747
C285 C 0.17755(8) -0.23414(8) 0.06177(6)
N71 N 0.14259(6) -0.26641(6) 0.02685(4)
N72 N -0.07671(6) -0.14318(6) -0.09255(4)
H181 H -0.0631 -0.1600 -0.0911
N73 N 0.12596(6) -0.55944(6) 0.11026(4)
H182 H 0.1398 -0.5428 0.1119
C286 C 0.11197(3) -0.61399(3) 0.12718(2)
H183 H 0.1008 -0.6214 0.1128
C287 C 0.12589(4) -0.58186(4) 0.12890(3)
C288 C 0.14218(5) -0.57099(5) 0.14989(4)
H184 H 0.1517 -0.5490 0.1511
C289 C 0.14454(6) -0.59225(6) 0.16916(3)
H185 H 0.1557 -0.5848 0.1835
C290 C 0.13061(6) -0.62438(5) 0.16744(3)
C291 C 0.11433(5) -0.63526(4) 0.14645(3)
H186 H 0.1048 -0.6572 0.1453
C292 C 0.15580(8) -0.32120(7) 0.04460(5)
C293 C 0.13343(8) -0.33717(7) 0.02977(5)
H187 H 0.1214 -0.3241 0.0180
C294 C 0.15964(7) -0.28309(7) 0.04437(5)
O64 O 0.18828(7) 0.09780(7) 0.24421(6)
C295 C -0.11500(8) -0.18520(7) -0.10653(6)
H188 H -0.1006 -0.2021 -0.1001
C296 C -0.14280(8) -0.19504(8) -0.11818(6)
H189 H -0.1478 -0.2187 -0.1199
C297 C -0.16347(8) -0.17095(8) -0.12733(6)
C298 C -0.15623(8) -0.13635(9) -0.12480(7)
H190 H -0.1708 -0.1197 -0.1314
C299 C -0.12838(8) -0.12613(8) -0.11293(6)
H191 H -0.1236 -0.1025 -0.1109
C300 C -0.10715(7) -0.15091(7) -0.10385(5)
C301 C 0.14408(8) -0.23230(7) 0.02831(6)
C302 C 0.17393(8) -0.34051(8) 0.06165(6)
H192 H 0.1900 -0.3300 0.0720
O65 O 0.14944(8) -0.63695(8) 0.20528(5)
N74 N 0.13428(8) -0.64657(7) 0.18705(5)
O66 O -0.19881(7) -0.21146(7) -0.14353(6)
N75 N -0.19343(8) -0.18141(8) -0.14028(7)
O67 O -0.21225(7) -0.15864(8) -0.14754(7)
O68 O 0.12058(9) -0.67407(7) 0.18554(5)
C303 C 0.05687(11) -0.23377(10) 0.04034(10)
H193 H 0.0387 -0.2290 0.0480
H194 H 0.0501 -0.2442 0.0252
H195 H 0.0678 -0.2123 0.0383
C304 C 0.12226(13) -0.20201(11) 0.10441(8)
H196 H 0.1073 -0.1957 0.1147
H197 H 0.1351 -0.1821 0.1020
H198 H 0.1356 -0.2206 0.1114
C305 C 0.10578(12) -0.31444(11) 0.08839(8)
H199 H 0.0914 -0.3199 0.0994
H200 H 0.1247 -0.3281 0.0921
H201 H 0.0959 -0.3197 0.0726
N76 N 0.08650(13) -0.24988(13) 0.08166(7)
C306 C 0.07823(13) -0.25780(16) 0.05498(10)
H202 H 0.0980 -0.2588 0.0484
H203 H 0.0688 -0.2809 0.0534
C307 C 0.10514(14) -0.21373(15) 0.08160(11)
H204 H 0.1203 -0.2157 0.0705
H205 H 0.0900 -0.1957 0.0757
C308 C 0.11376(16) -0.27777(17) 0.09008(13)
H206 H 0.1309 -0.2738 0.0809
H207 H 0.1220 -0.2728 0.1064
C309 C 0.06781(16) -0.2495(3) 0.10194(9)
H208 H 0.0712 -0.2713 0.1105
H209 H 0.0757 -0.2307 0.1127
C310 C 0.02282(11) -0.24968(10) 0.11353(7)
H210 H 0.0241 -0.2737 0.1183
H211 H 0.0010 -0.2433 0.1089
H212 H 0.0319 -0.2352 0.1265
C311 C 0.0386(3) -0.2453(3) 0.0956(3)
H213 H 0.0311 -0.2619 0.0833
H214 H 0.0347 -0.2219 0.0892
P2 P 0.17773(2) -0.48346(2) 0.10202(2)
O69 O 0.17006(4) -0.50355(5) 0.07914(3)
O70 O 0.16554(5) -0.50443(4) 0.12124(3)
O71 O 0.16220(4) -0.44827(4) 0.09994(3)
O72 O 0.21346(4) -0.47957(5) 0.10841(4)
P3 P -0.00498(2) -0.19912(2) -0.08057(2)
O73 O 0.00771(4) -0.20669(4) -0.05569(3)
O74 O -0.04092(4) -0.20159(4) -0.08473(3)
O75 O 0.00849(5) -0.22514(5) -0.09613(3)
O76 O 0.00457(4) -0.16209(4) -0.08705(3)
P4 P -0.11286(2) -0.25004(2) 0.18151(2)
O77 O -0.08541(4) -0.25016(5) 0.16784(3)
O78 O -0.14279(4) -0.23839(5) 0.16530(4)
O79 O -0.11775(5) -0.28640(5) 0.19082(3)
O80 O -0.10613(5) -0.22498(5) 0.20188(3)
C1 C 0.05489(7) -0.13807(7) 0.08588(5)
C2 C 0.01506(7) -0.15817(7) 0.10233(5)
C3 C 0.01216(7) -0.15911(7) 0.06378(5)
C4 C 0.08696(6) -0.12284(7) 0.08774(4)
C5 C 0.10297(7) -0.11458(7) 0.10919(5)
H1 H 0.0934 -0.1172 0.1227
C6 C 0.13296(7) -0.10249(8) 0.11088(5)
H2 H 0.1441 -0.0977 0.1258
C7 C 0.14727(6) -0.09714(7) 0.09175(4)
C8 C 0.13041(7) -0.10493(8) 0.06962(5)
H3 H 0.1395 -0.1014 0.0560
C9 C 0.10050(7) -0.11771(8) 0.06828(5)
H4 H 0.0891 -0.1230 0.0536
C10 C 0.19717(7) -0.08053(8) 0.07825(5)
C11 C 0.25113(4) -0.06314(5) 0.07596(3)
C12 C 0.24616(5) -0.05533(7) 0.05250(3)
H5 H 0.2257 -0.0555 0.0442
C13 C 0.27117(6) -0.04722(10) 0.04114(4)
H6 H 0.2678 -0.0419 0.0251
C14 C 0.30116(6) -0.04692(10) 0.05324(5)
H7 H 0.3183 -0.0414 0.0455
C15 C 0.30614(4) -0.05473(8) 0.07671(5)
H8 H 0.3266 -0.0545 0.0850
C16 C 0.28112(4) -0.06284(7) 0.08807(3)
C17 C 0.31093(8) -0.08954(10) 0.12223(6)
C18 C 0.33168(4) -0.11308(5) 0.16095(4)
C19 C 0.35709(5) -0.13040(7) 0.15463(4)
H9 H 0.3604 -0.1306 0.1389
C20 C 0.37761(7) -0.14741(10) 0.17130(6)
H10 H 0.3950 -0.1592 0.1670
C21 C 0.37271(7) -0.14709(10) 0.19430(5)
C22 C 0.34730(7) -0.12977(8) 0.20062(4)
H11 H 0.3440 -0.1296 0.2163
C23 C 0.32679(5) -0.11277(6) 0.18395(4)
H12 H 0.3094 -0.1009 0.1883
C24 C 0.00099(7) -0.16579(7) 0.12325(4)
C25 C -0.02864(8) -0.18114(9) 0.12156(5)
H13 H -0.0405 -0.1849 0.1068
C26 C -0.04040(8) -0.19065(9) 0.14112(5)
H14 H -0.0603 -0.2011 0.1395
C27 C -0.02424(6) -0.18561(7) 0.16334(4)
C28 C 0.00516(7) -0.17007(8) 0.16517(5)
H15 H 0.0169 -0.1659 0.1799
C29 C 0.01670(7) -0.16106(7) 0.14553(5)
H16 H 0.0368 -0.1509 0.1472
C30 C -0.02633(7) -0.19457(8) 0.20453(5)
C31 C -0.04193(8) -0.20454(9) 0.24328(5)
C32 C -0.02361(10) -0.17940(10) 0.25581(6)
H17 H -0.0137 -0.1630 0.2473
C33 C -0.01911(11) -0.17699(11) 0.27922(6)
H18 H -0.0060 -0.1600 0.2871
C34 C -0.03462(12) -0.20058(11) 0.29117(6)
H19 H -0.0325 -0.1997 0.3076
C35 C -0.05258(11) -0.22451(11) 0.27951(6)
H20 H -0.0626 -0.2404 0.2882
C36 C -0.05751(9) -0.22769(9) 0.25584(5)
C37 C -0.08136(9) -0.28415(10) 0.25213(6)
C38 C -0.10493(5) -0.34027(5) 0.23889(3)
C39 C -0.08697(6) -0.36163(6) 0.25453(4)
H21 H -0.0703 -0.3524 0.2651
C40 C -0.09337(8) -0.39651(6) 0.25476(5)
H22 H -0.0811 -0.4111 0.2654
C41 C -0.11772(9) -0.41002(5) 0.23935(6)
C42 C -0.13567(7) -0.38866(6) 0.22371(6)
H23 H -0.1523 -0.3979 0.2132
C43 C -0.12928(6) -0.35378(6) 0.22348(4)
H24 H -0.1416 -0.3392 0.2128
C44 C -0.00425(7) -0.16923(7) 0.04050(4)
C45 C 0.00989(7) -0.16390(8) 0.02063(5)
H25 H 0.0293 -0.1523 0.0219
C46 C -0.00395(7) -0.17513(8) -0.00042(5)
H26 H 0.0058 -0.1711 -0.0137
C47 C -0.03228(6) -0.19247(7) -0.00267(5)
C48 C -0.04622(7) -0.19812(8) 0.01699(5)
H27 H -0.0654 -0.2101 0.0159
C49 C -0.03207(6) -0.18623(7) 0.03785(5)
H28 H -0.0420 -0.1899 0.0511
C50 C -0.06970(7) -0.22432(7) -0.03118(5)
C51 C -0.09888(4) -0.25202(4) -0.06553(3)
C52 C -0.12761(4) -0.25258(5) -0.05775(4)
H29 H -0.1303 -0.2411 -0.0438
C53 C -0.15241(4) -0.26999(7) -0.07030(5)
H30 H -0.1720 -0.2704 -0.0650
C54 C -0.14846(6) -0.28685(7) -0.09064(5)
H31 H -0.1654 -0.2988 -0.0992
C55 C -0.11973(7) -0.28630(6) -0.09842(4)
H32 H -0.1170 -0.2978 -0.1123
C56 C -0.09493(5) -0.26888(5) -0.08586(3)
C57 C -0.05662(10) -0.29126(8) -0.10691(5)
C58 C -0.01060(6) -0.29954(5) -0.12997(3)
C59 C -0.02188(8) -0.32877(5) -0.14197(4)
H33 H -0.0417 -0.3377 -0.1401
C60 C -0.00416(11) -0.34498(7) -0.15675(4)
H34 H -0.0119 -0.3649 -0.1649
C61 C 0.02483(10) -0.33197(11) -0.15954(5)
C62 C 0.03610(7) -0.30275(11) -0.14755(6)
H35 H 0.0559 -0.2939 -0.1495
C63 C 0.01839(7) -0.28654(7) -0.13276(4)
H36 H 0.0261 -0.2666 -0.1246
N1 N 0.04360(5) -0.14415(6) 0.10516(4)
N2 N -0.00162(5) -0.16588(6) 0.08171(4)
N3 N 0.04054(5) -0.14461(6) 0.06445(4)
N4 N 0.17791(5) -0.08486(6) 0.09526(4)
H37 H 0.1858 -0.0794 0.1095
N5 N 0.22661(6) -0.07033(7) 0.08788(4)
H38 H 0.2301 -0.0682 0.1030
N6 N 0.28608(6) -0.07125(7) 0.11153(4)
H39 H 0.2722 -0.0643 0.1201
N7 N 0.31019(6) -0.09507(8) 0.14514(5)
H40 H 0.2942 -0.0862 0.1508
N8 N 0.39438(11) -0.16132(15) 0.21296(10)
N9 N -0.03857(5) -0.19686(6) 0.18195(4)
H41 H -0.0571 -0.2062 0.1787
N10 N -0.04689(6) -0.20616(6) 0.21913(4)
H42 H -0.0645 -0.2153 0.2125
N11 N -0.07648(7) -0.25290(7) 0.24335(5)
H43 H -0.0855 -0.2480 0.2292
N12 N -0.09972(7) -0.30453(7) 0.23636(4)
H44 H -0.1090 -0.2946 0.2237
N13 N -0.12592(14) -0.44655(9) 0.23912(8)
N14 N -0.04380(5) -0.20387(5) -0.02525(4)
H45 H -0.0336 -0.1974 -0.0365
N15 N -0.07370(6) -0.23240(6) -0.05398(4)
H46 H -0.0597 -0.2250 -0.0623
N16 N -0.06691(8) -0.26668(6) -0.09435(4)
H47 H -0.0554 -0.2482 -0.0913
N17 N -0.02793(9) -0.28185(7) -0.11428(5)
H48 H -0.0196 -0.2626 -0.1085
N18 N 0.04467(11) -0.34938(10) -0.17398(7)
O1 O 0.18881(6) -0.08523(8) 0.05832(3)
O2 O 0.33180(6) -0.10038(10) 0.11201(5)
O3 O 0.41680(10) -0.17562(14) 0.20668(8)
O4 O 0.38986(9) -0.16135(11) 0.23238(7)
O5 O -0.00037(5) -0.18322(6) 0.21191(4)
O6 O -0.07026(8) -0.29513(7) 0.27130(4)
O7 O -0.10863(15) -0.46474(9) 0.25219(9)
O8 O -0.14725(10) -0.45776(9) 0.22673(7)
O9 O -0.08591(5) -0.23430(6) -0.01734(4)
O10 O -0.06827(8) -0.31888(6) -0.11165(4)
O11 O 0.03223(10) -0.37512(8) -0.18299(8)
O12 O 0.06541(11) -0.33245(14) -0.17954(17)
C312? C 0.71753(13) 0.39955(17) 0.18227(10)
C313? C 0.80704(18) 0.3666(5) 0.21791(15)
N77? N 0.77987(10) 0.37231(9) 0.19947(11)
C314? C 0.80193(18) 0.39799(18) 0.21242(16)
C315? C 0.7689(3) 0.33509(12) 0.1970(2)
C316? C 0.75114(10) 0.39387(13) 0.19463(11)
N78? N 0.37295(17) 0.02063(11) 0.93471(7)
C317? C 0.3546(2) 0.0880(2) 0.95234(14)
C318? C 0.38964(16) -0.01295(15) 0.89477(9)
C319? C 0.37230(18) -0.00607(15) 0.91600(8)
C320? C 0.3616(2) 0.0141(3) 0.95735(9)
C321? C 0.3735(2) 0.0530(2) 0.95999(13)
N79? N 0.50867(9) 0.09781(14) 0.43821(6)
C322? C 0.55176(18) 0.1058(3) 0.40368(10)
C323? C 0.48474(15) 0.12790(11) 0.43412(16)
C324? C 0.52862(18) 0.0672(2) 0.48836(9)
C325? C 0.5183(4) 0.0820(2) 0.46281(7)
C326? C 0.49846(10) 0.08589(17) 0.41338(6)
C327? C 0.47070(19) 0.16126(12) 0.44420(12)
C328? C 0.53344(8) 0.0913(3) 0.42287(7)
C329? C 0.47835(16) 0.0808(2) 0.38904(9)
C330? C 0.3970(3) 0.09636(19) 0.60428(11)
C331? C 0.3671(3) 0.2157(2) 0.50813(16)
C332? C 0.4482(2) 0.0493(3) 0.3493(2)
C333? C 0.4547(2) -0.25155(16) 0.24685(13)
C334? C 0.4275(4) -0.2847(5) 0.25204(18)
C335? C 0.5176(2) -0.1921(4) 0.26515(18)
C336? C 0.04655(19) 0.0944(2) -0.0775(2)
O81? O 0.07163(14) 0.08884(11) -0.09212(12)
O82? O 0.01075(12) 0.07826(10) -0.09112(15)
C337? C 0.10217(14) 0.10258(16) -0.0943(2)
C338? C 0.1112(2) 0.0926(2) -0.1259(3)
C339? C 0.09362(14) 0.10607(17) -0.13119(16)
C340? C 0.0866(2) 0.1201(2) -0.1640(3)
loop_
_geom_bond_atom_site_label_1
_geom_bond_atom_site_label_2
_geom_bond_site_symmetry_1
_geom_bond_site_symmetry_2
C1 C4 1_555 1_555
C2 C24 1_555 1_555
C3 C44 1_555 1_555
C4 C5 1_555 1_555
C5 H1 1_555 1_555
C6 C5 1_555 1_555
H2 C6 1_555 1_555
C7 C6 1_555 1_555
C8 C7 1_555 1_555
H3 C8 1_555 1_555
C9 C4 1_555 1_555
H4 C9 1_555 1_555
C10 N4 1_555 1_555
C11 C12 1_555 1_555
C12 H5 1_555 1_555
C13 C12 1_555 1_555
H6 C13 1_555 1_555
C14 C13 1_555 1_555
H7 C14 1_555 1_555
C15 C14 1_555 1_555
H8 C15 1_555 1_555
C16 C11 1_555 1_555
C17 N6 1_555 1_555
C18 C19 1_555 1_555
C19 H9 1_555 1_555
C20 C19 1_555 1_555
H10 C20 1_555 1_555
C21 C20 1_555 1_555
C22 C21 1_555 1_555
H11 C22 1_555 1_555
C23 C18 1_555 1_555
H12 C23 1_555 1_555
C24 C25 1_555 1_555
C25 H13 1_555 1_555
C26 C25 1_555 1_555
H14 C26 1_555 1_555
C27 C26 1_555 1_555
C28 C27 1_555 1_555
H15 C28 1_555 1_555
C29 C24 1_555 1_555
H16 C29 1_555 1_555
C30 N9 1_555 1_555
C31 C32 1_555 1_555
C32 H17 1_555 1_555
C33 C32 1_555 1_555
H18 C33 1_555 1_555
C34 C33 1_555 1_555
H19 C34 1_555 1_555
C35 C34 1_555 1_555
H20 C35 1_555 1_555
C36 C31 1_555 1_555
C37 N11 1_555 1_555
C38 C39 1_555 1_555
C39 H21 1_555 1_555
C40 C39 1_555 1_555
H22 C40 1_555 1_555
C41 C40 1_555 1_555
C42 C41 1_555 1_555
H23 C42 1_555 1_555
C43 C38 1_555 1_555
H24 C43 1_555 1_555
C44 C45 1_555 1_555
C45 H25 1_555 1_555
C46 C45 1_555 1_555
H26 C46 1_555 1_555
C47 C46 1_555 1_555
C48 C47 1_555 1_555
H27 C48 1_555 1_555
C49 C44 1_555 1_555
H28 C49 1_555 1_555
C50 N14 1_555 1_555
C51 C52 1_555 1_555
C52 H29 1_555 1_555
C53 C52 1_555 1_555
H30 C53 1_555 1_555
C54 C53 1_555 1_555
H31 C54 1_555 1_555
C55 C54 1_555 1_555
H32 C55 1_555 1_555
C56 C51 1_555 1_555
C57 N16 1_555 1_555
C58 C59 1_555 1_555
C59 H33 1_555 1_555
C60 C59 1_555 1_555
H34 C60 1_555 1_555
C61 C60 1_555 1_555
C62 C61 1_555 1_555
H35 C62 1_555 1_555
C63 C58 1_555 1_555
H36 C63 1_555 1_555
N1 C1 1_555 1_555
N2 C2 1_555 1_555
N3 C1 1_555 1_555
N4 C7 1_555 1_555
H37 N4 1_555 1_555
N5 C10 1_555 1_555
H38 N5 1_555 1_555
N6 C16 1_555 1_555
H39 N6 1_555 1_555
N7 C17 1_555 1_555
H40 N7 1_555 1_555
N8 C21 1_555 1_555
N9 C27 1_555 1_555
H41 N9 1_555 1_555
N10 C30 1_555 1_555
H42 N10 1_555 1_555
N11 C36 1_555 1_555
H43 N11 1_555 1_555
N12 C37 1_555 1_555
H44 N12 1_555 1_555
N13 C41 1_555 1_555
N14 C47 1_555 1_555
H45 N14 1_555 1_555
N15 C50 1_555 1_555
H46 N15 1_555 1_555
N16 C56 1_555 1_555
H47 N16 1_555 1_555
N17 C57 1_555 1_555
H48 N17 1_555 1_555
N18 C61 1_555 1_555
O1 C10 1_555 1_555
O2 C17 1_555 1_555
O3 N8 1_555 1_555
O4 N8 1_555 1_555
O5 C30 1_555 1_555
O6 C37 1_555 1_555
O7 N13 1_555 1_555
O8 N13 1_555 1_555
O9 C50 1_555 1_555
O10 C57 1_555 1_555
O11 N18 1_555 1_555
O12 N18 1_555 1_555
C64 C87 1_555 1_555
C65 C107 1_555 1_555
C66 C67 1_555 1_555
C67 C68 1_555 1_555
C68 H49 1_555 1_555
C69 C68 1_555 1_555
H50 C69 1_555 1_555
C70 C69 1_555 1_555
C71 C70 1_555 1_555
H51 C71 1_555 1_555
C72 C67 1_555 1_555
H52 C72 1_555 1_555
C73 N22 1_555 1_555
C74 C75 1_555 1_555
C75 H53 1_555 1_555
C76 C75 1_555 1_555
H54 C76 1_555 1_555
C77 C76 1_555 1_555
H55 C77 1_555 1_555
C78 C77 1_555 1_555
H56 C78 1_555 1_555
C79 C74 1_555 1_555
C80 N24 1_555 1_555
C81 C82 1_555 1_555
C82 H57 1_555 1_555
C83 C82 1_555 1_555
H58 C83 1_555 1_555
C84 C83 1_555 1_555
C85 C84 1_555 1_555
H59 C85 1_555 1_555
C86 C81 1_555 1_555
H60 C86 1_555 1_555
C87 C88 1_555 1_555
C88 H61 1_555 1_555
C89 C88 1_555 1_555
H62 C89 1_555 1_555
C90 C89 1_555 1_555
C91 C90 1_555 1_555
H63 C91 1_555 1_555
C92 C87 1_555 1_555
H64 C92 1_555 1_555
C93 N27 1_555 1_555
C94 C95 1_555 1_555
C95 H65 1_555 1_555
C96 C95 1_555 1_555
H66 C96 1_555 1_555
C97 C96 1_555 1_555
H67 C97 1_555 1_555
C98 C97 1_555 1_555
H68 C98 1_555 1_555
C99 C94 1_555 1_555
C100 N29 1_555 1_555
C101 C102 1_555 1_555
C102 H69 1_555 1_555
C103 C102 1_555 1_555
H70 C103 1_555 1_555
C104 C103 1_555 1_555
C105 C104 1_555 1_555
H71 C105 1_555 1_555
C106 C101 1_555 1_555
H72 C106 1_555 1_555
C107 C108 1_555 1_555
C108 H73 1_555 1_555
C109 C108 1_555 1_555
H74 C109 1_555 1_555
C110 C109 1_555 1_555
C111 C110 1_555 1_555
H75 C111 1_555 1_555
C112 C107 1_555 1_555
H76 C112 1_555 1_555
C113 N32 1_555 1_555
C114 C115 1_555 1_555
C115 H77 1_555 1_555
C116 C115 1_555 1_555
H78 C116 1_555 1_555
C117 C116 1_555 1_555
H79 C117 1_555 1_555
C118 C117 1_555 1_555
H80 C118 1_555 1_555
C119 C114 1_555 1_555
C120 N34 1_555 1_555
C121 C122 1_555 1_555
C122 H81 1_555 1_555
C123 C122 1_555 1_555
H82 C123 1_555 1_555
C124 C123 1_555 1_555
C125 C124 1_555 1_555
H83 C125 1_555 1_555
C126 C121 1_555 1_555
H84 C126 1_555 1_555
N19 C64 1_555 1_555
N20 C65 1_555 1_555
N21 C64 1_555 1_555
N22 C70 1_555 1_555
H85 N22 1_555 1_555
N23 C73 1_555 1_555
H86 N23 1_555 1_555
N24 C79 1_555 1_555
H87 N24 1_555 1_555
N25 C80 1_555 1_555
H88 N25 1_555 1_555
N26 C84 1_555 1_555
N27 C90 1_555 1_555
H89 N27 1_555 1_555
N28 C93 1_555 1_555
H90 N28 1_555 1_555
N29 C99 1_555 1_555
H91 N29 1_555 1_555
N30 C100 1_555 1_555
H92 N30 1_555 1_555
N31 C104 1_555 1_555
N32 C110 1_555 1_555
H93 N32 1_555 1_555
N33 C113 1_555 1_555
H94 N33 1_555 1_555
N34 C119 1_555 1_555
H95 N34 1_555 1_555
N35 C120 1_555 1_555
H96 N35 1_555 1_555
N36 C124 1_555 1_555
O19 C73 1_555 1_555
O20 C80 1_555 1_555
O21 N26 1_555 1_555
O22 N26 1_555 1_555
O23 C93 1_555 1_555
O24 C100 1_555 1_555
O25 N31 1_555 1_555
O26 N31 1_555 1_555
O27 C113 1_555 1_555
O28 C120 1_555 1_555
O29 N36 1_555 1_555
O30 N36 1_555 1_555
C127 O31 1_555 1_555
C128 C131 1_555 1_555
C129 C151 1_555 1_555
C130 C171 1_555 1_555
C131 C132 1_555 1_555
C132 H97 1_555 1_555
C133 C132 1_555 1_555
H98 C133 1_555 1_555
C134 C133 1_555 1_555
C135 C134 1_555 1_555
H99 C135 1_555 1_555
C136 C131 1_555 1_555
H100 C136 1_555 1_555
C137 N40 1_555 1_555
C138 C139 1_555 1_555
C139 H101 1_555 1_555
C140 C139 1_555 1_555
H102 C140 1_555 1_555
C141 C140 1_555 1_555
H103 C141 1_555 1_555
C142 C141 1_555 1_555
H104 C142 1_555 1_555
C143 C138 1_555 1_555
C144 N42 1_555 1_555
C145 C146 1_555 1_555
C146 H105 1_555 1_555
C147 C146 1_555 1_555
H106 C147 1_555 1_555
C148 C147 1_555 1_555
C149 C148 1_555 1_555
H107 C149 1_555 1_555
C150 C145 1_555 1_555
H108 C150 1_555 1_555
C151 C152 1_555 1_555
C152 H109 1_555 1_555
C153 C152 1_555 1_555
H110 C153 1_555 1_555
C154 C153 1_555 1_555
C155 C154 1_555 1_555
H111 C155 1_555 1_555
C156 C151 1_555 1_555
H112 C156 1_555 1_555
C157 N45 1_555 1_555
C158 C159 1_555 1_555
C159 H113 1_555 1_555
C160 C159 1_555 1_555
H114 C160 1_555 1_555
C161 C160 1_555 1_555
H115 C161 1_555 1_555
C162 C161 1_555 1_555
H116 C162 1_555 1_555
C163 C158 1_555 1_555
C164 N47 1_555 1_555
C165 C166 1_555 1_555
C166 H117 1_555 1_555
C167 C166 1_555 1_555
H118 C167 1_555 1_555
C168 C167 1_555 1_555
C169 C168 1_555 1_555
H119 C169 1_555 1_555
C170 C165 1_555 1_555
H120 C170 1_555 1_555
C171 C172 1_555 1_555
C172 H121 1_555 1_555
C173 C172 1_555 1_555
H122 C173 1_555 1_555
C174 C173 1_555 1_555
C175 C174 1_555 1_555
H123 C175 1_555 1_555
C176 C171 1_555 1_555
H124 C176 1_555 1_555
C177 N50 1_555 1_555
C178 C179 1_555 1_555
C179 H125 1_555 1_555
C180 C179 1_555 1_555
H126 C180 1_555 1_555
C181 C180 1_555 1_555
H127 C181 1_555 1_555
C182 C181 1_555 1_555
H128 C182 1_555 1_555
C183 C178 1_555 1_555
C184 N52 1_555 1_555
C185 C186 1_555 1_555
C186 H129 1_555 1_555
C187 C186 1_555 1_555
H130 C187 1_555 1_555
C188 C187 1_555 1_555
C189 C188 1_555 1_555
H131 C189 1_555 1_555
C190 C185 1_555 1_555
H132 C190 1_555 1_555
N37 C128 1_555 1_555
N38 C128 1_555 1_555
N39 C129 1_555 1_555
N40 C134 1_555 1_555
H133 N40 1_555 1_555
N41 C137 1_555 1_555
H134 N41 1_555 1_555
N42 C143 1_555 1_555
H135 N42 1_555 1_555
N43 C144 1_555 1_555
H136 N43 1_555 1_555
N44 C148 1_555 1_555
N45 C154 1_555 1_555
H137 N45 1_555 1_555
N46 C157 1_555 1_555
H138 N46 1_555 1_555
N47 C163 1_555 1_555
H139 N47 1_555 1_555
N48 C164 1_555 1_555
H140 N48 1_555 1_555
N49 C168 1_555 1_555
N50 C174 1_555 1_555
H141 N50 1_555 1_555
N51 C177 1_555 1_555
H142 N51 1_555 1_555
N52 C183 1_555 1_555
H143 N52 1_555 1_555
N53 C184 1_555 1_555
H144 N53 1_555 1_555
N54 C188 1_555 1_555
O37 C137 1_555 1_555
O38 C144 1_555 1_555
O39 N44 1_555 1_555
O40 N44 1_555 1_555
O41 C157 1_555 1_555
O42 C164 1_555 1_555
O43 N49 1_555 1_555
O44 N49 1_555 1_555
O45 C177 1_555 1_555
O46 C184 1_555 1_555
O47 N54 1_555 1_555
O48 N54 1_555 1_555
C191 C192 1_555 1_555
C192 C193 1_555 1_555
C193 C194 1_555 1_555
C195 C196 1_555 1_555
C196 C197 1_555 1_555
C198 C199 1_555 1_555
C199 C200 1_555 1_555
C200 C201 1_555 1_555
C202 C203 1_555 1_555
C203 C204 1_555 1_555
C204 C205 1_555 1_555
N55 C191 1_555 1_555
C206 C207 1_555 1_555
C207 C208 1_555 1_555
C208 C209 1_555 1_555
C210 C211 1_555 1_555
C211 C212 1_555 1_555
C212 C213 1_555 1_555
C214 C215 1_555 1_555
C215 C216 1_555 1_555
C216 C217 1_555 1_555
C218 C219 1_555 1_555
C219 C220 1_555 1_555
N56 C206 1_555 1_555
C221 C222 1_555 1_555
C222 C223 1_555 1_555
C223 C224 1_555 1_555
C225 C226 1_555 1_555
C226 C227 1_555 1_555
C228 C229 1_555 1_555
C229 C230 1_555 1_555
C230 C231 1_555 1_555
C232 C233 1_555 1_555
C233 C234 1_555 1_555
C234 C235 1_555 1_555
N57 C221 1_555 1_555
O52 P1 1_555 1_555
O53 P1 1_555 1_555
O54 P1 1_555 1_555
O55 P1 1_555 1_555
N58 H145 1_555 1_555
O57 C247 1_555 1_555
N59 H146 1_555 1_555
N60 H147 1_555 1_555
C240 N60 1_555 1_555
N61 H148 1_555 1_555
C241 N60 1_555 1_555
C242 N58 1_555 1_555
C243 C240 1_555 1_555
H149 C243 1_555 1_555
C244 H150 1_555 1_555
C245 N59 1_555 1_555
C246 N61 1_555 1_555
C247 N58 1_555 1_555
C248 C246 1_555 1_555
H151 C248 1_555 1_555
C249 C242 1_555 1_555
H152 C249 1_555 1_555
C250 C248 1_555 1_555
H153 C250 1_555 1_555
C251 C249 1_555 1_555
H154 C251 1_555 1_555
O58 C264 1_555 1_555
C252 C253 1_555 1_555
C253 C254 1_555 1_555
C254 H155 1_555 1_555
C255 C254 1_555 1_555
H156 C255 1_555 1_555
C256 C255 1_555 1_555
H157 C256 1_555 1_555
C257 C252 1_555 1_555
H158 C257 1_555 1_555
N62 H159 1_555 1_555
C258 H160 1_555 1_555
C259 N62 1_555 1_555
C260 C259 1_555 1_555
H161 C260 1_555 1_555
C261 C260 1_555 1_555
H162 C261 1_555 1_555
C262 C261 1_555 1_555
C263 C258 1_555 1_555
H163 C263 1_555 1_555
C264 N62 1_555 1_555
C265 C267 1_555 1_555
C266 C244 1_555 1_555
H164 C266 1_555 1_555
C267 H165 1_555 1_555
C268 C269 1_555 1_555
C269 C270 1_555 1_555
C270 H166 1_555 1_555
C271 C270 1_555 1_555
H167 C271 1_555 1_555
C272 C271 1_555 1_555
H168 C272 1_555 1_555
C273 C268 1_555 1_555
H169 C273 1_555 1_555
C274 C266 1_555 1_555
C275 C245 1_555 1_555
H170 C275 1_555 1_555
C276 C240 1_555 1_555
H171 C276 1_555 1_555
C277 C243 1_555 1_555
H172 C277 1_555 1_555
C278 C274 1_555 1_555
H173 C278 1_555 1_555
O59 C282 1_555 1_555
N63 H174 1_555 1_555
N64 C253 1_555 1_555
H175 N64 1_555 1_555
O60 C279 1_555 1_555
N65 C252 1_555 1_555
H176 N65 1_555 1_555
O61 C283 1_555 1_555
O62 C241 1_555 1_555
N66 C269 1_555 1_555
H177 N66 1_555 1_555
N67 C264 1_555 1_555
H178 N67 1_555 1_555
N68 C285 1_555 1_555
C279 N64 1_555 1_555
C280 H179 1_555 1_555
N69 C285 1_555 1_555
N70 C265 1_555 1_555
O63 N70 1_555 1_555
C281 N63 1_555 1_555
C282 N63 1_555 1_555
C283 N66 1_555 1_555
C284 C281 1_555 1_555
H180 C284 1_555 1_555
C285 C274 1_555 1_555
N71 C294 1_555 1_555
N72 C283 1_555 1_555
H181 N72 1_555 1_555
N73 C279 1_555 1_555
H182 N73 1_555 1_555
C286 H183 1_555 1_555
C287 N73 1_555 1_555
C288 C287 1_555 1_555
H184 C288 1_555 1_555
C289 C288 1_555 1_555
H185 C289 1_555 1_555
C290 C289 1_555 1_555
C291 C286 1_555 1_555
H186 C291 1_555 1_555
C292 C293 1_555 1_555
C293 C280 1_555 1_555
H187 C293 1_555 1_555
C294 N69 1_555 1_555
O64 N70 1_555 1_555
C295 H188 1_555 1_555
C296 C295 1_555 1_555
H189 C296 1_555 1_555
C297 C296 1_555 1_555
C298 C297 1_555 1_555
H190 C298 1_555 1_555
C299 C298 1_555 1_555
H191 C299 1_555 1_555
C300 N72 1_555 1_555
C301 C262 1_555 1_555
C302 C284 1_555 1_555
H192 C302 1_555 1_555
O65 N74 1_555 1_555
N74 C290 1_555 1_555
O66 N75 1_555 1_555
N75 C297 1_555 1_555
O67 N75 1_555 1_555
O68 N74 1_555 1_555
C303 H193 1_555 1_555
H194 C303 1_555 1_555
H195 C303 1_555 1_555
C304 H196 1_555 1_555
H197 C304 1_555 1_555
H198 C304 1_555 1_555
C305 H199 1_555 1_555
H200 C305 1_555 1_555
H201 C305 1_555 1_555
N76 C306 1_555 1_555
C306 C303 1_555 1_555
H202 C306 1_555 1_555
H203 C306 1_555 1_555
C307 C304 1_555 1_555
H204 C307 1_555 1_555
H205 C307 1_555 1_555
C308 C305 1_555 1_555
H206 C308 1_555 1_555
H207 C308 1_555 1_555
C309 N76 1_555 1_555
H208 C309 1_555 1_555
H209 C309 1_555 1_555
C310 H210 1_555 1_555
H211 C310 1_555 1_555
H212 C310 1_555 1_555
C311 C309 1_555 1_555
H213 C311 1_555 1_555
H214 C311 1_555 1_555
P2 O69 1_555 1_555
O70 P2 1_555 1_555
O71 P2 1_555 1_555
O72 P2 1_555 1_555
P3 O73 1_555 1_555
O74 P3 1_555 1_555
O75 P3 1_555 1_555
O76 P3 1_555 1_555
P4 O77 1_555 1_555
O78 P4 1_555 1_555
O79 P4 1_555 1_555
O80 P4 1_555 1_555
C2 N1 1_555 1_555
C3 N2 1_555 1_555
C3 N3 1_555 1_555
C8 C9 1_555 1_555
C11 N5 1_555 1_555
C15 C16 1_555 1_555
C18 N7 1_555 1_555
C22 C23 1_555 1_555
C28 C29 1_555 1_555
C31 N10 1_555 1_555
C35 C36 1_555 1_555
C38 N12 1_555 1_555
C42 C43 1_555 1_555
C48 C49 1_555 1_555
C51 N15 1_555 1_555
C55 C56 1_555 1_555
C58 N17 1_555 1_555
C62 C63 1_555 1_555
C65 N19 1_555 1_555
C66 N20 1_555 1_555
C66 N21 1_555 1_555
C71 C72 1_555 1_555
C74 N23 1_555 1_555
C78 C79 1_555 1_555
C81 N25 1_555 1_555
C85 C86 1_555 1_555
C91 C92 1_555 1_555
C94 N28 1_555 1_555
C98 C99 1_555 1_555
C101 N30 1_555 1_555
C105 C106 1_555 1_555
C111 C112 1_555 1_555
C114 N33 1_555 1_555
C118 C119 1_555 1_555
C121 N35 1_555 1_555
C125 C126 1_555 1_555
C129 N37 1_555 1_555
C130 N38 1_555 1_555
C130 N39 1_555 1_555
C135 C136 1_555 1_555
C138 N41 1_555 1_555
C142 C143 1_555 1_555
C145 N43 1_555 1_555
C149 C150 1_555 1_555
C155 C156 1_555 1_555
C158 N46 1_555 1_555
C162 C163 1_555 1_555
C165 N48 1_555 1_555
C169 C170 1_555 1_555
C175 C176 1_555 1_555
C178 N51 1_555 1_555
C182 C183 1_555 1_555
C185 N53 1_555 1_555
C189 C190 1_555 1_555
C195 N55 1_555 1_555
C198 N55 1_555 1_555
C202 N55 1_555 1_555
C210 N56 1_555 1_555
C214 N56 1_555 1_555
C218 N56 1_555 1_555
C225 N57 1_555 1_555
C228 N57 1_555 1_555
C232 N57 1_555 1_555
N59 C247 1_555 1_555
N61 C241 1_555 1_555
C242 C246 1_555 1_555
C244 C245 1_555 1_555
C250 C251 1_555 1_555
C256 C257 1_555 1_555
C258 C259 1_555 1_555
C262 C263 1_555 1_555
C265 C277 1_555 1_555
C267 C276 1_555 1_555
C268 N67 1_555 1_555
C272 C273 1_555 1_555
C275 C278 1_555 1_555
N65 C282 1_555 1_555
N68 C301 1_555 1_555
C280 C281 1_555 1_555
N71 C301 1_555 1_555
C286 C287 1_555 1_555
C290 C291 1_555 1_555
C292 C294 1_555 1_555
C292 C302 1_555 1_555
C295 C300 1_555 1_555
C299 C300 1_555 1_555
N76 C307 1_555 1_555
N76 C308 1_555 1_555
C310 C311 1_555 1_555

#END
