
#######################################################################
#
#                 Cambridge Crystallographic Data Centre
#                                CCDC 
#
#######################################################################
#
# If this CIF has been generated from an entry in the Cambridge 
# Structural Database, then it will include bibliographic, chemical, 
# crystal, experimental, refinement or atomic coordinate data resulting 
# from the CCDC's data processing and validation procedures.
#
#######################################################################

data_NEYJEJ
_chemical_formula_moiety         'C32 H28 O3'
_chemical_name_systematic        
2,6-bis(4-methoxyphenyl)-4H-spiro[cyclohexane-1,9'-fluoren]-4-one
_symmetry_cell_setting           monoclinic
_symmetry_space_group_name_H-M   'P 21/c'
_symmetry_Int_Tables_number      14
_space_group_name_Hall           '-P 2ybc'
loop_
_symmetry_equiv_pos_site_id
_symmetry_equiv_pos_as_xyz
1 x,y,z
2 -x,1/2+y,1/2-z
3 -x,-y,-z
4 x,1/2-y,1/2+z
_cell_length_a                   10.0605(8)
_cell_length_b                   21.1980(14)
_cell_length_c                   11.8027(8)
_cell_angle_alpha                90
_cell_angle_beta                 103.439(3)
_cell_angle_gamma                90
_cell_volume                     2448.15
_cell_formula_units_Z            4
loop_
_atom_site_label
_atom_site_type_symbol
_atom_site_fract_x
_atom_site_fract_y
_atom_site_fract_z
O1 O 0.4695(2) 0.67988(10) 0.62670(19)
O2 O 1.1416(2) 0.73179(10) 0.2885(2)
O3 O 0.0649(3) 0.42092(13) 0.0875(2)
C1 C 0.4938(3) 0.66078(13) 0.5368(3)
C2 C 0.6353(3) 0.66700(15) 0.5148(2)
H1 H 0.6922 0.6327 0.5532
H2 H 0.6759 0.7064 0.5479
C3 C 0.6308(3) 0.66562(12) 0.3851(2)
H3 H 0.5681 0.6996 0.3508
C4 C 0.5663(3) 0.60340(12) 0.3232(2)
C5 C 0.4550(3) 0.57764(13) 0.3847(2)
H4 H 0.5041 0.5503 0.4477
C6 C 0.3902(3) 0.62925(14) 0.4442(2)
H5 H 0.3473 0.6602 0.3867
H6 H 0.3198 0.6109 0.4779
C7 C 0.6716(3) 0.55211(12) 0.3213(3)
C8 C 0.7519(3) 0.51892(14) 0.4130(3)
H7 H 0.7453 0.5269 0.4890
C9 C 0.8417(4) 0.47394(15) 0.3913(4)
H8 H 0.8968 0.4519 0.4528
C10 C 0.8497(5) 0.46168(17) 0.2786(5)
H9 H 0.9111 0.4314 0.2649
C11 C 0.7685(4) 0.49337(16) 0.1852(4)
H10 H 0.7745 0.4847 0.1093
C12 C 0.6780(3) 0.53832(13) 0.2074(3)
C13 C 0.5801(4) 0.57795(14) 0.1287(3)
C14 C 0.5483(5) 0.58214(19) 0.0078(3)
H11 H 0.5908 0.5559 -0.0361
C15 C 0.4538(5) 0.6255(2) -0.0454(3)
H12 H 0.4326 0.6287 -0.1262
C16 C 0.3892(4) 0.66456(19) 0.0183(3)
H13 H 0.3258 0.6940 -0.0196
C17 C 0.4188(4) 0.66000(15) 0.1393(3)
H14 H 0.3750 0.6859 0.1828
C18 C 0.5140(3) 0.61647(13) 0.1932(2)
C19 C 0.7670(3) 0.68235(12) 0.3584(2)
C20 C 0.7710(3) 0.71756(14) 0.2604(3)
H15 H 0.6892 0.7304 0.2114
C21 C 0.8925(4) 0.73420(14) 0.2333(3)
H16 H 0.8920 0.7576 0.1664
C22 C 1.0141(3) 0.71616(13) 0.3052(3)
C23 C 1.0126(3) 0.68037(14) 0.4015(3)
H17 H 1.0945 0.6671 0.4498
C24 C 0.8910(3) 0.66405(13) 0.4272(2)
H18 H 0.8923 0.6398 0.4932
C25 C 0.3508(3) 0.53529(13) 0.3061(2)
C26 C 0.3812(3) 0.47272(13) 0.2908(2)
H19 H 0.4658 0.4569 0.3295
C27 C 0.2890(4) 0.43279(15) 0.2192(3)
H20 H 0.3114 0.3907 0.2110
C28 C 0.1643(4) 0.45587(17) 0.1605(3)
C29 C 0.1317(4) 0.51826(17) 0.1755(3)
H21 H 0.0471 0.5342 0.1371
C30 C 0.2242(3) 0.55644(15) 0.2472(3)
H22 H 0.2007 0.5982 0.2564
C31 C 1.1492(4) 0.77600(17) 0.2011(3)
H23 H 1.1064 0.7589 0.1262
H24 H 1.2433 0.7852 0.2037
H25 H 1.1032 0.8141 0.2140
C32 C 0.0993(5) 0.36271(19) 0.0460(4)
H26 H 0.1732 0.3684 0.0082
H27 H 0.0215 0.3459 -0.0087
H28 H 0.1267 0.3340 0.1100
loop_
_geom_bond_atom_site_label_1
_geom_bond_atom_site_label_2
_geom_bond_site_symmetry_1
_geom_bond_site_symmetry_2
O1 C1 1_555 1_555
O2 C22 1_555 1_555
O3 C28 1_555 1_555
C1 C2 1_555 1_555
C2 H1 1_555 1_555
H2 C2 1_555 1_555
C3 C2 1_555 1_555
H3 C3 1_555 1_555
C4 C3 1_555 1_555
C5 C4 1_555 1_555
H4 C5 1_555 1_555
C6 C1 1_555 1_555
H5 C6 1_555 1_555
H6 C6 1_555 1_555
C7 C4 1_555 1_555
C8 C7 1_555 1_555
H7 C8 1_555 1_555
C9 C8 1_555 1_555
H8 C9 1_555 1_555
C10 C9 1_555 1_555
H9 C10 1_555 1_555
C11 C10 1_555 1_555
H10 C11 1_555 1_555
C12 C7 1_555 1_555
C13 C12 1_555 1_555
C14 C13 1_555 1_555
H11 C14 1_555 1_555
C15 C14 1_555 1_555
H12 C15 1_555 1_555
C16 C15 1_555 1_555
H13 C16 1_555 1_555
C17 C16 1_555 1_555
H14 C17 1_555 1_555
C18 C4 1_555 1_555
C19 C3 1_555 1_555
C20 C19 1_555 1_555
H15 C20 1_555 1_555
C21 C20 1_555 1_555
H16 C21 1_555 1_555
C22 C21 1_555 1_555
C23 C22 1_555 1_555
H17 C23 1_555 1_555
C24 C19 1_555 1_555
H18 C24 1_555 1_555
C25 C5 1_555 1_555
C26 C25 1_555 1_555
H19 C26 1_555 1_555
C27 C26 1_555 1_555
H20 C27 1_555 1_555
C28 C27 1_555 1_555
C29 C28 1_555 1_555
H21 C29 1_555 1_555
C30 C25 1_555 1_555
H22 C30 1_555 1_555
C31 O2 1_555 1_555
H23 C31 1_555 1_555
H24 C31 1_555 1_555
H25 C31 1_555 1_555
C32 O3 1_555 1_555
H26 C32 1_555 1_555
H27 C32 1_555 1_555
H28 C32 1_555 1_555
C5 C6 1_555 1_555
C11 C12 1_555 1_555
C13 C18 1_555 1_555
C17 C18 1_555 1_555
C23 C24 1_555 1_555
C29 C30 1_555 1_555

#END
