
#######################################################################
#
#                 Cambridge Crystallographic Data Centre
#                                CCDC 
#
#######################################################################
#
# If this CIF has been generated from an entry in the Cambridge 
# Structural Database, then it will include bibliographic, chemical, 
# crystal, experimental, refinement or atomic coordinate data resulting 
# from the CCDC's data processing and validation procedures.
#
#######################################################################

data_NEYJIN
_chemical_formula_moiety         '2(C18 H14 N2),C6 H4 Cl2 O2'
_chemical_name_systematic        
'trans-1-(2-pyridyl)-2-(4-(4-phenyl)pyridyl)ethylene bis(4,6-dichlororesorcinol)'
_symmetry_cell_setting           monoclinic
_symmetry_space_group_name_H-M   'P 21/n'
_symmetry_Int_Tables_number      14
_space_group_name_Hall           '-P 2yn'
loop_
_symmetry_equiv_pos_site_id
_symmetry_equiv_pos_as_xyz
1 x,y,z
2 1/2-x,1/2+y,1/2-z
3 -x,-y,-z
4 1/2+x,1/2-y,1/2+z
_cell_length_a                   18.838(4)
_cell_length_b                   7.8317(16)
_cell_length_c                   23.075(5)
_cell_angle_alpha                90
_cell_angle_beta                 93.00(3)
_cell_angle_gamma                90
_cell_volume                     3399.67
_exptl_crystal_colour            colorless
_exptl_crystal_description       needle
_cell_formula_units_Z            4
_exptl_crystal_recrystallization_method 
'Re-crystallisation from solvent: Acetonitrile'
loop_
_atom_site_label
_atom_site_type_symbol
_atom_site_fract_x
_atom_site_fract_y
_atom_site_fract_z
Cl1 Cl 0.68512(4) 0.23694(10) 0.03012(3)
Cl2 Cl 0.51619(5) 0.79179(10) 0.04895(3)
O1 O 0.69889(11) 0.2565(3) 0.15690(8)
O2 O 0.55024(11) 0.7542(2) 0.17288(8)
C1 C 0.65624(14) 0.3812(3) 0.13335(11)
C2 C 0.62365(14) 0.5032(3) 0.16679(10)
H1 H 0.6309 0.4993 0.2078
C3 C 0.58077(14) 0.6307(3) 0.14188(11)
C4 C 0.64447(14) 0.3876(3) 0.07351(11)
C5 C 0.60129(15) 0.5117(3) 0.04778(11)
H2 H 0.5932 0.5136 0.0068
C6 C 0.56978(15) 0.6333(3) 0.08152(11)
H3 H 0.7051(16) 0.271(4) 0.1943(13)
H4 H 0.5612(17) 0.744(4) 0.2139(15)
N1 N 0.56985(12) 0.7285(3) 0.29028(9)
N2 N 0.48602(13) 0.8316(3) 0.78655(10)
C7 C 0.56556(14) 0.6982(3) 0.41216(10)
C8 C 0.56326(14) 0.6828(3) 0.47604(11)
C9 C 0.62568(15) 0.6728(4) 0.32308(11)
H5 H 0.6674 0.6419 0.3041
C10 C 0.62665(15) 0.6574(4) 0.38266(11)
H6 H 0.6684 0.6193 0.4036
C11 C 0.48901(16) 0.8372(4) 0.84436(12)
H7 H 0.4589 0.9160 0.8625
C12 C 0.61221(16) 0.5827(4) 0.50841(11)
H8 H 0.6474 0.5216 0.4889
C13 C 0.50751(14) 0.7578(4) 0.37757(11)
H9 H 0.4650 0.7897 0.3952
C14 C 0.61097(17) 0.5701(4) 0.56773(12)
H10 H 0.6453 0.5012 0.5883
C15 C 0.56036(16) 0.6563(4) 0.59825(11)
C16 C 0.51133(15) 0.7709(4) 0.31831(11)
H11 H 0.4709 0.8115 0.2962
C17 C 0.51164(15) 0.7672(4) 0.50655(11)
H12 H 0.4769 0.8347 0.4859
C18 C 0.52915(16) 0.7204(4) 0.76181(11)
C19 C 0.51014(15) 0.7544(4) 0.56641(11)
H13 H 0.4744 0.8132 0.5861
C20 C 0.53280(16) 0.7364(4) 0.87961(12)
H14 H 0.5330 0.7471 0.9206
C21 C 0.57417(17) 0.6112(4) 0.79375(13)
H15 H 0.6031 0.5318 0.7747
C22 C 0.56287(17) 0.6415(4) 0.66227(12)
H16 H 0.5953 0.5608 0.6794
C23 C 0.52490(16) 0.7286(4) 0.69725(12)
H17 H 0.4910 0.8053 0.6799
C24 C 0.57620(17) 0.6202(4) 0.85437(13)
H18 H 0.6067 0.5478 0.8774
N3 N 0.64746(12) 0.1499(3) 0.75813(9)
N4 N 0.71799(13) 0.2610(3) 0.27514(9)
C25 C 0.72151(14) 0.1905(3) 0.46075(10)
C26 C 0.71003(14) 0.1672(3) 0.58261(11)
C27 C 0.69656(15) 0.1598(3) 0.64452(11)
H19 H 0.6574 0.0912 0.6545
C28 C 0.71184(14) 0.2196(3) 0.74907(11)
C29 C 0.76645(15) 0.3291(3) 0.37075(11)
H20 H 0.7989 0.3961 0.3940
C30 C 0.72213(14) 0.2124(3) 0.39685(11)
C31 C 0.76607(14) 0.2850(3) 0.49925(11)
H21 H 0.8008 0.3582 0.4842
C32 C 0.76062(15) 0.2741(3) 0.55856(11)
H22 H 0.7916 0.3400 0.5835
C33 C 0.66841(15) 0.0661(4) 0.54447(11)
H23 H 0.6354 -0.0118 0.5596
C34 C 0.67422(15) 0.0770(3) 0.48514(11)
H24 H 0.6454 0.0057 0.4603
C35 C 0.67116(17) 0.1869(4) 0.86039(12)
H25 H 0.6555 0.1750 0.8987
C36 C 0.73180(15) 0.2363(4) 0.68857(11)
H26 H 0.7717 0.3050 0.6806
C37 C 0.67537(15) 0.1222(4) 0.35897(11)
H27 H 0.6441 0.0402 0.3741
C38 C 0.76309(16) 0.3469(4) 0.31121(12)
H28 H 0.7948 0.4252 0.2947
C39 C 0.62828(16) 0.1368(4) 0.81302(12)
H29 H 0.5828 0.0907 0.8197
C40 C 0.75784(15) 0.2724(4) 0.79464(12)
H30 H 0.8028 0.3202 0.7872
C41 C 0.73718(17) 0.2544(4) 0.85089(12)
H31 H 0.7681 0.2882 0.8827
C42 C 0.67420(16) 0.1510(4) 0.30010(12)
H32 H 0.6407 0.0899 0.2759
loop_
_geom_bond_atom_site_label_1
_geom_bond_atom_site_label_2
_geom_bond_site_symmetry_1
_geom_bond_site_symmetry_2
Cl1 C4 1_555 1_555
Cl2 C6 1_555 1_555
O1 C1 1_555 1_555
O2 C3 1_555 1_555
C1 C2 1_555 1_555
C2 H1 1_555 1_555
C3 C2 1_555 1_555
C4 C1 1_555 1_555
C5 C4 1_555 1_555
H2 C5 1_555 1_555
C6 C3 1_555 1_555
H3 O1 1_555 1_555
H4 O2 1_555 1_555
N1 C9 1_555 1_555
N2 C11 1_555 1_555
C7 C8 1_555 1_555
C8 C12 1_555 1_555
C9 H5 1_555 1_555
C10 C7 1_555 1_555
H6 C10 1_555 1_555
C11 H7 1_555 1_555
C12 H8 1_555 1_555
C13 C7 1_555 1_555
H9 C13 1_555 1_555
C14 C12 1_555 1_555
H10 C14 1_555 1_555
C15 C14 1_555 1_555
C16 N1 1_555 1_555
H11 C16 1_555 1_555
C17 C8 1_555 1_555
H12 C17 1_555 1_555
C18 N2 1_555 1_555
C19 C15 1_555 1_555
H13 C19 1_555 1_555
C20 C11 1_555 1_555
H14 C20 1_555 1_555
C21 C18 1_555 1_555
H15 C21 1_555 1_555
C22 C15 1_555 1_555
H16 C22 1_555 1_555
C23 C18 1_555 1_555
H17 C23 1_555 1_555
C24 C20 1_555 1_555
H18 C24 1_555 1_555
N3 C28 1_555 1_555
N4 C38 1_555 1_555
C25 C30 1_555 1_555
C26 C27 1_555 1_555
C27 H19 1_555 1_555
C28 C36 1_555 1_555
C29 H20 1_555 1_555
C30 C29 1_555 1_555
C31 C25 1_555 1_555
H21 C31 1_555 1_555
C32 C26 1_555 1_555
H22 C32 1_555 1_555
C33 C26 1_555 1_555
H23 C33 1_555 1_555
C34 C25 1_555 1_555
H24 C34 1_555 1_555
C35 H25 1_555 1_555
C36 C27 1_555 1_555
H26 C36 1_555 1_555
C37 C30 1_555 1_555
H27 C37 1_555 1_555
C38 C29 1_555 1_555
H28 C38 1_555 1_555
C39 N3 1_555 1_555
H29 C39 1_555 1_555
C40 C28 1_555 1_555
H30 C40 1_555 1_555
C41 C35 1_555 1_555
H31 C41 1_555 1_555
C42 N4 1_555 1_555
H32 C42 1_555 1_555
C5 C6 1_555 1_555
C9 C10 1_555 1_555
C13 C16 1_555 1_555
C17 C19 1_555 1_555
C21 C24 1_555 1_555
C22 C23 1_555 1_555
C31 C32 1_555 1_555
C33 C34 1_555 1_555
C35 C39 1_555 1_555
C37 C42 1_555 1_555
C40 C41 1_555 1_555

#END
