
#######################################################################
#
#                 Cambridge Crystallographic Data Centre
#                                CCDC 
#
#######################################################################
#
# If this CIF has been generated from an entry in the Cambridge 
# Structural Database, then it will include bibliographic, chemical, 
# crystal, experimental, refinement or atomic coordinate data resulting 
# from the CCDC's data processing and validation procedures.
#
#######################################################################

data_NEYMEL
_chemical_formula_moiety         'C9 H13 F4 N1 O1'
_chemical_name_systematic        N-Cyclohexyl-2,3,3,3-tetrafluoropropanamide
_symmetry_cell_setting           triclinic
_symmetry_space_group_name_H-M   'P -1'
_symmetry_Int_Tables_number      2
_space_group_name_Hall           '-P 1'
loop_
_symmetry_equiv_pos_site_id
_symmetry_equiv_pos_as_xyz
1 x,y,z
2 -x,-y,-z
_cell_length_a                   9.6217(16)
_cell_length_b                   11.139(2)
_cell_length_c                   11.458(2)
_cell_angle_alpha                64.536(13)
_cell_angle_beta                 76.316(14)
_cell_angle_gamma                82.695(14)
_cell_volume                     1076.8
_cell_formula_units_Z            4
loop_
_atom_site_label
_atom_site_type_symbol
_atom_site_fract_x
_atom_site_fract_y
_atom_site_fract_z
C1 C 1.0201(2) 0.5137(2) -0.3139(2)
F1 F 1.10102(16) 0.41289(14) -0.32807(14)
F2 F 1.08992(17) 0.62447(14) -0.39483(14)
F3 F 0.90108(16) 0.51961(17) -0.35606(14)
C2 C 0.98945(17) 0.49790(17) -0.17287(19)
F4 F 1.11835(11) 0.50480(11) -0.14313(12)
C3 C 0.91481(15) 0.36830(16) -0.07677(17)
O1 O 0.79123(12) 0.35811(13) -0.08379(13)
N1 N 0.98968(15) 0.27773(14) 0.00566(15)
C4 C 0.93062(17) 0.15025(17) 0.10658(18)
C5 C 0.8639(3) 0.1595(2) 0.2363(2)
C6 C 0.8039(3) 0.0247(3) 0.3402(3)
C7 C 0.9196(3) -0.0853(3) 0.3584(3)
C8 C 0.9883(2) -0.0919(2) 0.2287(2)
C9 C 1.0476(2) 0.04164(18) 0.1253(2)
H1 H 0.9327(19) 0.5732(19) -0.1725(18)
H2 H 1.070(2) 0.297(2) 0.005(2)
H3 H 0.857(2) 0.131(2) 0.071(2)
H4 H 0.938(2) 0.181(2) 0.264(2)
H5 H 1.123(2) 0.067(2) 0.157(2)
H6 H 1.065(3) -0.161(3) 0.240(3)
H7 H 0.988(3) -0.072(3) 0.397(3)
H8 H 0.910(3) -0.118(3) 0.197(3)
H9 H 0.787(3) 0.230(3) 0.222(3)
H10 H 1.083(3) 0.039(2) 0.041(3)
H11 H 0.771(4) 0.029(4) 0.424(4)
H12 H 0.875(3) -0.168(3) 0.418(3)
H13 H 0.719(5) 0.003(4) 0.307(4)
C10 C 1.3845(2) 0.2579(2) 0.2979(2)
F5 F 1.46561(16) 0.14851(13) 0.31514(14)
F6 F 1.24826(15) 0.22258(16) 0.33566(13)
F7 F 1.40755(18) 0.30454(15) 0.38034(14)
C11 C 1.41644(16) 0.36043(17) 0.15660(18)
F8 F 1.55874(10) 0.39190(11) 0.12829(11)
C12 C 1.38456(15) 0.31063(15) 0.06208(16)
O2 O 1.25746(11) 0.29702(13) 0.06705(13)
N2 N 1.49535(14) 0.28461(14) -0.01841(15)
C13 C 1.47982(17) 0.23951(18) -0.11696(18)
C14 C 1.6037(2) 0.1448(2) -0.1336(2)
C15 C 1.5893(3) 0.0951(3) -0.2348(3)
C16 C 1.5769(3) 0.2090(3) -0.3658(3)
C17 C 1.4518(3) 0.3040(3) -0.3481(3)
C18 C 1.4674(3) 0.3546(2) -0.2470(2)
H14 H 1.3577(18) 0.4382(17) 0.1551(17)
H15 H 1.555(3) 0.396(2) -0.275(2)
H16 H 1.394(2) 0.187(2) -0.078(2)
H17 H 1.572(2) 0.303(2) -0.017(2)
H18 H 1.496(3) 0.048(3) -0.202(3)
H19 H 1.559(3) 0.169(3) -0.424(3)
H20 H 1.604(3) 0.070(3) -0.044(3)
H21 H 1.689(3) 0.198(3) -0.169(3)
H22 H 1.384(3) 0.419(3) -0.232(3)
H23 H 1.356(3) 0.251(3) -0.316(3)
H24 H 1.674(3) 0.033(3) -0.245(3)
H25 H 1.437(4) 0.384(4) -0.430(4)
H26 H 1.654(4) 0.255(4) -0.403(4)
loop_
_geom_bond_atom_site_label_1
_geom_bond_atom_site_label_2
_geom_bond_site_symmetry_1
_geom_bond_site_symmetry_2
C1 F1 1_555 1_555
F2 C1 1_555 1_555
F3 C1 1_555 1_555
C2 C1 1_555 1_555
F4 C2 1_555 1_555
C3 C2 1_555 1_555
O1 C3 1_555 1_555
N1 C3 1_555 1_555
C4 N1 1_555 1_555
C5 C4 1_555 1_555
C6 C5 1_555 1_555
C7 C6 1_555 1_555
C8 C7 1_555 1_555
C9 C4 1_555 1_555
H1 C2 1_555 1_555
H2 N1 1_555 1_555
H3 C4 1_555 1_555
H4 C5 1_555 1_555
H5 C9 1_555 1_555
H6 C8 1_555 1_555
H7 C7 1_555 1_555
H8 C8 1_555 1_555
H9 C5 1_555 1_555
H10 C9 1_555 1_555
H11 C6 1_555 1_555
H12 C7 1_555 1_555
H13 C6 1_555 1_555
C10 F5 1_555 1_555
F6 C10 1_555 1_555
F7 C10 1_555 1_555
C11 C10 1_555 1_555
F8 C11 1_555 1_555
C12 C11 1_555 1_555
O2 C12 1_555 1_555
N2 C12 1_555 1_555
C13 N2 1_555 1_555
C14 C13 1_555 1_555
C15 C14 1_555 1_555
C16 C15 1_555 1_555
C17 C16 1_555 1_555
C18 C13 1_555 1_555
H14 C11 1_555 1_555
H15 C18 1_555 1_555
H16 C13 1_555 1_555
H17 N2 1_555 1_555
H18 C15 1_555 1_555
H19 C16 1_555 1_555
H20 C14 1_555 1_555
H21 C14 1_555 1_555
H22 C18 1_555 1_555
H23 C17 1_555 1_555
H24 C15 1_555 1_555
H25 C17 1_555 1_555
H26 C16 1_555 1_555
C8 C9 1_555 1_555
C17 C18 1_555 1_555

#END
