
#######################################################################
#
#                 Cambridge Crystallographic Data Centre
#                                CCDC 
#
#######################################################################
#
# If this CIF has been generated from an entry in the Cambridge 
# Structural Database, then it will include bibliographic, chemical, 
# crystal, experimental, refinement or atomic coordinate data resulting 
# from the CCDC's data processing and validation procedures.
#
#######################################################################

data_NEYMIP
_chemical_formula_moiety         'C14 H19 F5 N2 O2'
_chemical_name_systematic        
N-t-Butyl-2-(1-t-butyl-3-fluoro-4-oxo-3-(trifluoromethyl)azetidin-2-ylidene)-2-fluoroacetamide
_symmetry_cell_setting           monoclinic
_symmetry_space_group_name_H-M   'P 21/c'
_symmetry_Int_Tables_number      14
_space_group_name_Hall           '-P 2ybc'
loop_
_symmetry_equiv_pos_site_id
_symmetry_equiv_pos_as_xyz
1 x,y,z
2 -x,1/2+y,1/2-z
3 -x,-y,-z
4 x,1/2-y,1/2+z
_cell_length_a                   11.796(3)
_cell_length_b                   10.7933(18)
_cell_length_c                   13.772(4)
_cell_angle_alpha                90
_cell_angle_beta                 105.91(2)
_cell_angle_gamma                90
_cell_volume                     1686.25
_cell_formula_units_Z            4
loop_
_atom_site_label
_atom_site_type_symbol
_atom_site_fract_x
_atom_site_fract_y
_atom_site_fract_z
C1 C 0.0922(2) 0.1339(3) 0.3232(2)
C2 C 0.2389(3) -0.0069(3) 0.2785(2)
C3 C 0.3684(3) -0.0228(3) 0.2900(2)
C4 C 0.4293(2) -0.0756(3) 0.2334(2)
C5 C 0.5326(3) -0.1491(3) 0.1502(2)
C6 C 0.5606(3) -0.0877(3) 0.2546(2)
C7 C 0.0194(3) 0.1538(5) 0.2158(3)
H1 H 0.0558 0.2162 0.1847
H2 H -0.0584 0.1802 0.2155
H3 H 0.0145 0.0777 0.1789
C8 C 0.0388(4) 0.0380(5) 0.3765(4)
H4 H 0.0874 0.0282 0.4444
H5 H 0.0335 -0.0396 0.3414
H6 H -0.0387 0.0641 0.3775
C9 C 0.1068(3) 0.2558(4) 0.3793(3)
H7 H 0.1529 0.2432 0.4478
H8 H 0.0307 0.2876 0.3790
H9 H 0.1460 0.3140 0.3469
C10 C 0.3092(3) -0.1563(3) 0.0489(2)
C11 C 0.6269(3) -0.1666(5) 0.3416(3)
C12 C 0.2424(3) -0.0346(4) 0.0230(3)
H10 H 0.2937 0.0273 0.0083
H11 H 0.2151 -0.0081 0.0793
H12 H 0.1761 -0.0462 -0.0349
C13 C 0.2341(3) -0.2594(4) 0.0729(3)
H13 H 0.2802 -0.3337 0.0885
H14 H 0.1678 -0.2737 0.0155
H15 H 0.2067 -0.2360 0.1298
C14 C 0.3565(4) -0.1964(5) -0.0395(3)
H16 H 0.4039 -0.1312 -0.0553
H17 H 0.2916 -0.2134 -0.0975
H18 H 0.4035 -0.2698 -0.0212
N1 N 0.2126(2) 0.0935(3) 0.32365(18)
H19 H 0.2704 0.1392 0.3560
N2 N 0.41289(19) -0.1337(2) 0.13758(17)
O1 O 0.1688(2) -0.0814(3) 0.2308(2)
O2 O 0.5919(2) -0.1909(3) 0.09920(17)
F1 F 0.43740(16) 0.0296(2) 0.37634(15)
F2 F 0.62157(17) 0.0247(2) 0.25904(16)
F3 F 0.5726(2) -0.2724(3) 0.33909(18)
F4 F 0.73568(19) -0.1864(3) 0.33509(19)
F5 F 0.6368(2) -0.1139(3) 0.43008(15)
loop_
_geom_bond_atom_site_label_1
_geom_bond_atom_site_label_2
_geom_bond_site_symmetry_1
_geom_bond_site_symmetry_2
C1 C7 1_555 1_555
C2 C3 1_555 1_555
C3 C4 1_555 1_555
C4 C6 1_555 1_555
C5 C6 1_555 1_555
C6 C11 1_555 1_555
C7 H1 1_555 1_555
H2 C7 1_555 1_555
H3 C7 1_555 1_555
C8 C1 1_555 1_555
H4 C8 1_555 1_555
H5 C8 1_555 1_555
H6 C8 1_555 1_555
C9 C1 1_555 1_555
H7 C9 1_555 1_555
H8 C9 1_555 1_555
H9 C9 1_555 1_555
C10 C12 1_555 1_555
C11 F3 1_555 1_555
C12 H10 1_555 1_555
H11 C12 1_555 1_555
H12 C12 1_555 1_555
C13 C10 1_555 1_555
H13 C13 1_555 1_555
H14 C13 1_555 1_555
H15 C13 1_555 1_555
C14 C10 1_555 1_555
H16 C14 1_555 1_555
H17 C14 1_555 1_555
H18 C14 1_555 1_555
N1 C1 1_555 1_555
H19 N1 1_555 1_555
N2 C4 1_555 1_555
O1 C2 1_555 1_555
O2 C5 1_555 1_555
F1 C3 1_555 1_555
F2 C6 1_555 1_555
F4 C11 1_555 1_555
F5 C11 1_555 1_555
C2 N1 1_555 1_555
C5 N2 1_555 1_555
C10 N2 1_555 1_555

#END
