
#######################################################################
#
#                 Cambridge Crystallographic Data Centre
#                                CCDC 
#
#######################################################################
#
# If this CIF has been generated from an entry in the Cambridge 
# Structural Database, then it will include bibliographic, chemical, 
# crystal, experimental, refinement or atomic coordinate data resulting 
# from the CCDC's data processing and validation procedures.
#
#######################################################################

data_NEYMOV
_chemical_formula_moiety         'C14 H19 F5 N2 O2'
_chemical_name_systematic        
N-t-Butyl-2-(1-t-butyl-3-fluoro-4-oxo-3-(trifluoromethyl)azetidin-2-ylidene)-2-fluoroacetamide
_symmetry_cell_setting           orthorhombic
_symmetry_space_group_name_H-M   'P c a 21'
_symmetry_Int_Tables_number      29
_space_group_name_Hall           'P 2c -2ac'
loop_
_symmetry_equiv_pos_site_id
_symmetry_equiv_pos_as_xyz
1 x,y,z
2 -x,-y,1/2+z
3 1/2-x,y,1/2+z
4 1/2+x,-y,z
_cell_length_a                   10.737(3)
_cell_length_b                   18.192(4)
_cell_length_c                   9.0258(16)
_cell_angle_alpha                90
_cell_angle_beta                 90
_cell_angle_gamma                90
_cell_volume                     1762.99
_cell_formula_units_Z            4
loop_
_atom_site_label
_atom_site_type_symbol
_atom_site_fract_x
_atom_site_fract_y
_atom_site_fract_z
C1 C 2.3902(6) 1.5969(3) 0.8865(7)
C2 C 2.2188(5) 1.6912(3) 0.8884(6)
C3 C 2.1699(5) 1.7569(2) 0.8080(6)
C4 C 2.0656(4) 1.7919(2) 0.8331(6)
C5 C 1.9155(6) 1.8557(3) 0.8769(8)
C6 C 1.9588(5) 1.7829(3) 0.9407(7)
C7 C 2.4385(6) 1.6116(3) 1.0403(7)
H1 H 2.3697 1.6200 1.1061
H2 H 2.4911 1.6543 1.0387
H3 H 2.4855 1.5700 1.0741
C8 C 2.3043(7) 1.5297(3) 0.8867(9)
H4 H 2.2369 1.5377 0.9547
H5 H 2.3506 1.4871 0.9166
H6 H 2.2716 1.5222 0.7889
C9 C 2.4958(6) 1.5836(4) 0.7811(8)
H7 H 2.4632 1.5740 0.6839
H8 H 2.5434 1.5420 0.8139
H9 H 2.5484 1.6262 0.7779
C10 C 2.0345(5) 1.9024(3) 0.6430(8)
C11 C 1.8710(6) 1.7219(4) 0.9142(10)
C12 C 2.1575(5) 1.9428(3) 0.6708(10)
H10 H 2.1502 1.9724 0.7584
H11 H 2.1762 1.9737 0.5875
H12 H 2.2232 1.9076 0.6838
C13 C 2.0398(6) 1.8553(3) 0.5065(8)
H13 H 2.1056 1.8199 0.5164
H14 H 2.0552 1.8857 0.4215
H15 H 1.9618 1.8301 0.4944
C14 C 1.9294(5) 1.9577(3) 0.6268(9)
H16 H 1.9269 1.9888 0.7126
H17 H 1.8516 1.9320 0.6174
H18 H 1.9431 1.9871 0.5400
F1 F 2.2499(3) 1.78437(15) 0.7036(3)
F2 F 1.9855(3) 1.7816(3) 1.0926(4)
F3 F 1.8395(4) 1.7196(3) 0.7742(6)
F4 F 1.7647(5) 1.7318(3) 0.9852(7)
F5 F 1.9070(5) 1.6567(3) 0.9442(7)
N1 N 2.3214(4) 1.6624(2) 0.8298(5)
H19 H 2.3508 1.6834 0.7521
N2 N 2.0079(4) 1.8553(2) 0.7741(6)
O1 O 2.1632(3) 1.66816(19) 0.9964(4)
O2 O 1.8329(4) 1.8991(3) 0.9089(6)
loop_
_geom_bond_atom_site_label_1
_geom_bond_atom_site_label_2
_geom_bond_site_symmetry_1
_geom_bond_site_symmetry_2
C1 C7 1_555 1_555
C2 C3 1_555 1_555
C3 C4 1_555 1_555
C4 C6 1_555 1_555
C5 C6 1_555 1_555
C6 C11 1_555 1_555
C7 H1 1_555 1_555
H2 C7 1_555 1_555
H3 C7 1_555 1_555
C8 C1 1_555 1_555
H4 C8 1_555 1_555
H5 C8 1_555 1_555
H6 C8 1_555 1_555
C9 C1 1_555 1_555
H7 C9 1_555 1_555
H8 C9 1_555 1_555
H9 C9 1_555 1_555
C10 C12 1_555 1_555
C11 F3 1_555 1_555
C12 H10 1_555 1_555
H11 C12 1_555 1_555
H12 C12 1_555 1_555
C13 C10 1_555 1_555
H13 C13 1_555 1_555
H14 C13 1_555 1_555
H15 C13 1_555 1_555
C14 C10 1_555 1_555
H16 C14 1_555 1_555
H17 C14 1_555 1_555
H18 C14 1_555 1_555
F1 C3 1_555 1_555
F2 C6 1_555 1_555
F4 C11 1_555 1_555
F5 C11 1_555 1_555
N1 C1 1_555 1_555
H19 N1 1_555 1_555
N2 C4 1_555 1_555
O1 C2 1_555 1_555
O2 C5 1_555 1_555
C2 N1 1_555 1_555
C5 N2 1_555 1_555
C10 N2 1_555 1_555

#END
