
#######################################################################
#
#                 Cambridge Crystallographic Data Centre
#                                CCDC 
#
#######################################################################
#
# If this CIF has been generated from an entry in the Cambridge 
# Structural Database, then it will include bibliographic, chemical, 
# crystal, experimental, refinement or atomic coordinate data resulting 
# from the CCDC's data processing and validation procedures.
#
#######################################################################

data_NEYNAJ
_chemical_formula_moiety         'C6 H5 Br1 I1 N1'
_chemical_name_systematic        2-bromo-4-iodoaniline
_symmetry_cell_setting           orthorhombic
_symmetry_space_group_name_H-M   'P 21 21 21'
_symmetry_Int_Tables_number      19
_space_group_name_Hall           'P 2ac 2ab'
loop_
_symmetry_equiv_pos_site_id
_symmetry_equiv_pos_as_xyz
1 x,y,z
2 1/2-x,-y,1/2+z
3 1/2+x,1/2-y,-z
4 -x,1/2+y,1/2-z
_cell_length_a                   4.2334(10)
_cell_length_b                   10.877(2)
_cell_length_c                   16.626(3)
_cell_angle_alpha                90
_cell_angle_beta                 90
_cell_angle_gamma                90
_cell_volume                     765.572
_exptl_crystal_colour            tan
_exptl_crystal_description       needle
_cell_formula_units_Z            4
_exptl_crystal_recrystallization_method methanol
loop_
_atom_site_label
_atom_site_type_symbol
_atom_site_fract_x
_atom_site_fract_y
_atom_site_fract_z
I1 I 0.50588(5) 0.72478(2) 0.253011(12)
Br1 Br 0.44167(8) 0.57123(3) 0.589026(18)
N1 N 0.8434(9) 0.3475(3) 0.5261(2)
H1 H 0.879(14) 0.369(5) 0.571(3)
H2 H 0.998(13) 0.307(5) 0.517(3)
C1 C 0.7808(8) 0.4354(3) 0.46738(18)
C2 C 0.5974(8) 0.5403(3) 0.48197(18)
C3 C 0.5202(8) 0.6236(3) 0.42177(16)
H3 H 0.3937 0.6936 0.4332
C4 C 0.6325(8) 0.6022(3) 0.34415(19)
C5 C 0.8181(9) 0.5001(3) 0.32696(19)
H4 H 0.8953 0.4866 0.2740
C6 C 0.8891(9) 0.4177(3) 0.38852(19)
H5 H 1.0145 0.3476 0.3767
loop_
_geom_bond_atom_site_label_1
_geom_bond_atom_site_label_2
_geom_bond_site_symmetry_1
_geom_bond_site_symmetry_2
I1 C4 1_555 1_555
Br1 C2 1_555 1_555
N1 H1 1_555 1_555
H2 N1 1_555 1_555
C1 N1 1_555 1_555
C2 C1 1_555 1_555
C3 C2 1_555 1_555
H3 C3 1_555 1_555
C4 C3 1_555 1_555
C5 C4 1_555 1_555
H4 C5 1_555 1_555
C6 C1 1_555 1_555
H5 C6 1_555 1_555
C5 C6 1_555 1_555

#END
