
#######################################################################
#
#                 Cambridge Crystallographic Data Centre
#                                CCDC 
#
#######################################################################
#
# If this CIF has been generated from an entry in the Cambridge 
# Structural Database, then it will include bibliographic, chemical, 
# crystal, experimental, refinement or atomic coordinate data resulting 
# from the CCDC's data processing and validation procedures.
#
#######################################################################

data_NEYSER
_chemical_formula_moiety         'C6 H10 N1 O3 S1 1-,1.5(H2 O1),Na1 1+'
_chemical_name_systematic        
'Sodium N-(ethoxythioxomethyl)-\b-alaninate sesquihydrate'
_symmetry_cell_setting           triclinic
_symmetry_space_group_name_H-M   'P -1'
_symmetry_Int_Tables_number      2
_space_group_name_Hall           '-P 1'
loop_
_symmetry_equiv_pos_site_id
_symmetry_equiv_pos_as_xyz
1 x,y,z
2 -x,-y,-z
_cell_length_a                   10.1420(19)
_cell_length_b                   13.738(3)
_cell_length_c                   15.751(3)
_cell_angle_alpha                72.937(2)
_cell_angle_beta                 78.694(2)
_cell_angle_gamma                89.999(2)
_cell_volume                     2053.41
_exptl_crystal_colour            colorless
_exptl_crystal_description       Tabloid
_cell_formula_units_Z            8
loop_
_atom_site_label
_atom_site_type_symbol
_atom_site_fract_x
_atom_site_fract_y
_atom_site_fract_z
S1 S 0.17772(11) 0.15448(6) 0.29997(6)
O1 O 0.4397(2) 0.51321(14) 0.09771(12)
O2 O 0.62894(19) 0.43504(14) 0.11316(12)
O3 O 0.3033(2) 0.24225(15) 0.39390(13)
N1 N 0.2575(2) 0.34713(18) 0.26907(16)
H1 H 0.222(3) 0.361(2) 0.2230(13)
C1 C 0.5170(3) 0.46345(18) 0.14541(17)
C2 C 0.4760(3) 0.4385(2) 0.24815(18)
H2 H 0.5101 0.3734 0.2759
H3 H 0.5181 0.4899 0.2669
C3 C 0.3254(3) 0.4334(2) 0.2830(2)
H4 H 0.3073 0.4271 0.3472
H5 H 0.2895 0.4963 0.2518
C4 C 0.2483(3) 0.2515(2) 0.32165(19)
C5 C 0.3026(4) 0.1415(2) 0.4578(2)
H6 H 0.3457 0.0949 0.4267
H7 H 0.2108 0.1151 0.4862
C6 C 0.3773(4) 0.1513(3) 0.5274(2)
H8 H 0.4673 0.1791 0.4984
H9 H 0.3806 0.0853 0.5697
H10 H 0.3322 0.1958 0.5591
Na1 Na 0.65923(11) 0.58668(8) -0.01782(7)
S2 S -0.37710(9) 0.16265(6) 0.28815(6)
O4 O 0.1139(2) 0.59049(15) 0.06919(15)
O5 O 0.1326(2) 0.42360(14) 0.10901(14)
O6 O -0.1887(2) 0.21783(15) 0.36555(14)
N2 N -0.2168(2) 0.33114(17) 0.24039(16)
H11 H -0.265(3) 0.354(2) 0.1999(17)
C7 C 0.0681(3) 0.50205(19) 0.10994(18)
C8 C -0.0747(3) 0.4885(3) 0.1624(3)
H12 H -0.1333 0.4837 0.1217
H13 H -0.0951 0.5498 0.1798
C9 C -0.1112(3) 0.3977(2) 0.2471(2)
H14 H -0.0320 0.3596 0.2561
H15 H -0.1409 0.4218 0.2994
C10 C -0.2553(3) 0.2404(2) 0.29800(19)
C11 C -0.2090(4) 0.1170(2) 0.4312(2)
H16 H -0.1606 0.0683 0.4052
H17 H -0.3040 0.0954 0.4481
C12 C -0.1598(6) 0.1214(3) 0.5108(3)
H18 H -0.0676 0.1478 0.4928
H19 H -0.1658 0.0541 0.5528
H20 H -0.2134 0.1652 0.5392
S3 S 0.69873(9) -0.33468(6) 0.28957(6)
O7 O 0.3441(2) 0.09109(15) 0.06747(15)
O8 O 0.3023(2) -0.07574(14) 0.10785(14)
O9 O 0.4583(2) -0.28199(16) 0.36175(15)
N3 N 0.5687(3) -0.16610(18) 0.24136(16)
H21 H 0.6433(18) -0.143(2) 0.2031(16)
C13 C 0.3653(3) 0.0029(2) 0.10860(19)
C14 C 0.4762(4) -0.0095(3) 0.1611(3)
H22 H 0.4868 0.0527 0.1771
H23 H 0.5594 -0.0159 0.1212
C15 C 0.4588(3) -0.0990(2) 0.2474(2)
H24 H 0.4568 -0.0738 0.2991
H25 H 0.3738 -0.1369 0.2566
C16 C 0.5694(3) -0.2577(2) 0.29756(19)
C17 C 0.4350(6) -0.3830(3) 0.4268(3)
H26 H 0.3764 -0.4243 0.4074
H27 H 0.5201 -0.4151 0.4283
C18 C 0.3770(7) -0.3803(4) 0.5132(3)
H28 H 0.4413 -0.3507 0.5372
H29 H 0.3497 -0.4485 0.5517
H30 H 0.2998 -0.3400 0.5106
S4 S -0.13073(10) 0.34666(7) -0.29772(6)
O10 O 0.19727(19) 0.06321(14) -0.11447(13)
O11 O -0.00208(19) -0.01459(14) -0.09656(12)
O12 O 0.0468(2) 0.25414(15) -0.39225(13)
N4 N -0.0810(3) 0.15168(19) -0.26841(16)
H31 H -0.1495(18) 0.143(2) -0.2251(13)
C19 C 0.1033(3) 0.03479(18) -0.14541(17)
C20 C 0.1231(3) 0.0582(2) -0.24741(18)
H32 H 0.1744 0.0055 -0.2657
H33 H 0.1758 0.1225 -0.2762
C21 C -0.0076(3) 0.0648(2) -0.2816(2)
H34 H 0.0124 0.0703 -0.3457
H35 H -0.0637 0.0026 -0.2498
C22 C -0.0524(3) 0.2478(2) -0.32075(19)
C23 C 0.0937(4) 0.3530(2) -0.4569(2)
H36 H 0.1893 0.3529 -0.4811
H37 H 0.0807 0.4051 -0.4262
C24 C 0.0219(4) 0.3773(3) -0.5311(3)
H38 H 0.0317 0.3245 -0.5601
H39 H 0.0583 0.4411 -0.5744
H40 H -0.0719 0.3823 -0.5078
Na2 Na 0.14850(11) -0.08673(8) 0.01779(7)
Na3 Na 0.33493(11) 0.65432(8) 0.00499(8)
Na4 Na 0.16307(11) 0.15501(8) 0.00249(8)
O13 O 0.3903(2) 0.73592(18) 0.11032(17)
H41 H 0.383(4) 0.7966(10) 0.103(3)
H42 H 0.341(3) 0.709(3) 0.1595(14)
O14 O 0.4480(2) 0.26400(15) 0.09087(15)
H43 H 0.416(3) 0.2113(16) 0.087(2)
H44 H 0.451(4) 0.251(3) 0.1447(10)
O15 O 0.3277(2) 0.30198(17) -0.07714(15)
H45 H 0.314(4) 0.323(3) -0.1289(11)
H46 H 0.400(2) 0.280(3) -0.094(3)
O16 O 0.0426(2) 0.23674(18) 0.10834(17)
H47 H 0.066(4) 0.2950(12) 0.105(2)
H48 H 0.056(4) 0.208(3) 0.1593(14)
O17 O -0.0041(2) -0.23600(16) 0.09192(16)
H49 H 0.024(4) -0.2908(15) 0.089(3)
H50 H -0.039(4) -0.251(3) 0.1456(10)
O18 O 0.2192(2) -0.19962(17) -0.07588(16)
H51 H 0.269(3) -0.180(3) -0.1264(14)
H52 H 0.153(3) -0.222(3) -0.089(3)
loop_
_geom_bond_atom_site_label_1
_geom_bond_atom_site_label_2
_geom_bond_site_symmetry_1
_geom_bond_site_symmetry_2
S1 C4 1_555 1_555
O1 C1 1_555 1_555
O2 C1 1_555 1_555
O3 C4 1_555 1_555
N1 H1 1_555 1_555
C1 C2 1_555 1_555
C2 H2 1_555 1_555
H3 C2 1_555 1_555
C3 N1 1_555 1_555
H4 C3 1_555 1_555
H5 C3 1_555 1_555
C4 N1 1_555 1_555
C5 O3 1_555 1_555
H6 C5 1_555 1_555
H7 C5 1_555 1_555
C6 C5 1_555 1_555
H8 C6 1_555 1_555
H9 C6 1_555 1_555
H10 C6 1_555 1_555
S2 C10 1_555 1_555
O4 C7 1_555 1_555
O5 C7 1_555 1_555
O6 C10 1_555 1_555
N2 H11 1_555 1_555
C7 C8 1_555 1_555
C8 H12 1_555 1_555
H13 C8 1_555 1_555
C9 N2 1_555 1_555
H14 C9 1_555 1_555
H15 C9 1_555 1_555
C10 N2 1_555 1_555
C11 O6 1_555 1_555
H16 C11 1_555 1_555
H17 C11 1_555 1_555
C12 C11 1_555 1_555
H18 C12 1_555 1_555
H19 C12 1_555 1_555
H20 C12 1_555 1_555
S3 C16 1_555 1_555
O7 C13 1_555 1_555
O8 C13 1_555 1_555
O9 C16 1_555 1_555
N3 H21 1_555 1_555
C13 C14 1_555 1_555
C14 H22 1_555 1_555
H23 C14 1_555 1_555
C15 N3 1_555 1_555
H24 C15 1_555 1_555
H25 C15 1_555 1_555
C16 N3 1_555 1_555
C17 O9 1_555 1_555
H26 C17 1_555 1_555
H27 C17 1_555 1_555
C18 C17 1_555 1_555
H28 C18 1_555 1_555
H29 C18 1_555 1_555
H30 C18 1_555 1_555
S4 C22 1_555 1_555
O10 C19 1_555 1_555
O11 C19 1_555 1_555
O12 C22 1_555 1_555
N4 H31 1_555 1_555
C19 C20 1_555 1_555
C20 H32 1_555 1_555
H33 C20 1_555 1_555
C21 N4 1_555 1_555
H34 C21 1_555 1_555
H35 C21 1_555 1_555
C22 N4 1_555 1_555
C23 O12 1_555 1_555
H36 C23 1_555 1_555
H37 C23 1_555 1_555
C24 C23 1_555 1_555
H38 C24 1_555 1_555
H39 C24 1_555 1_555
H40 C24 1_555 1_555
O13 H41 1_555 1_555
H42 O13 1_555 1_555
O14 H43 1_555 1_555
H44 O14 1_555 1_555
O15 H45 1_555 1_555
H46 O15 1_555 1_555
O16 H47 1_555 1_555
H48 O16 1_555 1_555
O17 H49 1_555 1_555
H50 O17 1_555 1_555
O18 H51 1_555 1_555
H52 O18 1_555 1_555
C2 C3 1_555 1_555
C8 C9 1_555 1_555
C14 C15 1_555 1_555
C20 C21 1_555 1_555

#END
