
#######################################################################
#
#                 Cambridge Crystallographic Data Centre
#                                CCDC 
#
#######################################################################
#
# If this CIF has been generated from an entry in the Cambridge 
# Structural Database, then it will include bibliographic, chemical, 
# crystal, experimental, refinement or atomic coordinate data resulting 
# from the CCDC's data processing and validation procedures.
#
#######################################################################

data_NEYTER
_chemical_formula_moiety         'C20 H19 N1 O4 S1'
_chemical_name_systematic        
3-((4-Hydroxy-6-methyl-2-phenyl-3,4-dihydro-2H-thiochromen-3-yl)carbonyl)-1,3-oxazolidin-2-one
_symmetry_cell_setting           orthorhombic
_symmetry_space_group_name_H-M   'P 21 21 21'
_symmetry_Int_Tables_number      19
_space_group_name_Hall           'P 2ac 2ab'
loop_
_symmetry_equiv_pos_site_id
_symmetry_equiv_pos_as_xyz
1 x,y,z
2 1/2-x,-y,1/2+z
3 -x,1/2+y,1/2-z
4 1/2+x,1/2-y,-z
_cell_length_a                   8.8496(6)
_cell_length_b                   10.7161(6)
_cell_length_c                   19.1133(12)
_cell_angle_alpha                90
_cell_angle_beta                 90
_cell_angle_gamma                90
_cell_volume                     1812.58
_exptl_crystal_colour            colorless
_exptl_crystal_description       block
_cell_formula_units_Z            4
loop_
_atom_site_label
_atom_site_type_symbol
_atom_site_fract_x
_atom_site_fract_y
_atom_site_fract_z
S1 S 0.75891(4) 0.48277(3) 0.222789(15)
N1 N 0.93137(9) 0.60716(8) -0.02508(4)
O1 O 0.90594(8) 0.81091(7) 0.09200(4)
H1 H 0.9879 0.8196 0.0715
O2 O 1.10905(9) 0.54327(8) 0.04974(4)
O3 O 0.79991(10) 0.68362(10) -0.11367(4)
O4 O 0.67079(9) 0.63710(9) -0.01764(4)
C1 C 0.74704(12) 0.64356(10) 0.24105(5)
C2 C 0.65813(14) 0.67650(14) 0.29862(6)
H2 H 0.6129 0.6136 0.3257
C3 C 0.63585(15) 0.80002(15) 0.31621(6)
H3 H 0.5751 0.8201 0.3549
C4 C 0.70180(13) 0.89476(12) 0.27761(6)
C5 C 0.79126(12) 0.86176(10) 0.22083(5)
H4 H 0.8373 0.9252 0.1944
C6 C 0.81518(11) 0.73758(9) 0.20160(5)
C7 C 0.91635(10) 0.71003(8) 0.13971(5)
H5 H 1.0220 0.7030 0.1562
C8 C 0.87168(10) 0.58810(8) 0.10260(4)
H6 H 0.7660 0.5930 0.0858
C9 C 0.89194(11) 0.47514(9) 0.15062(5)
H7 H 0.9956 0.4773 0.1701
C10 C 0.97899(10) 0.57468(8) 0.04156(4)
C11 C 0.78960(11) 0.64228(10) -0.04798(5)
C12 C 0.95745(15) 0.69349(15) -0.13380(6)
H8 H 0.9923 0.7801 -0.1305
H9 H 0.9724 0.6640 -0.1818
C13 C 1.04087(12) 0.61174(11) -0.08262(5)
H10 H 1.0603 0.5286 -0.1020
H11 H 1.1365 0.6496 -0.0679
C14 C 0.86915(12) 0.35091(9) 0.11482(5)
C15 C 0.75710(16) 0.33172(11) 0.06481(7)
H12 H 0.6901 0.3967 0.0535
C16 C 0.74378(19) 0.21695(12) 0.03157(8)
H13 H 0.6684 0.2050 -0.0024
C17 C 0.84047(18) 0.12051(12) 0.04816(8)
H14 H 0.8313 0.0431 0.0254
C18 C 0.95041(16) 0.13806(11) 0.09808(8)
H15 H 1.0158 0.0722 0.1098
C19 C 0.96514(14) 0.25273(10) 0.13117(6)
H16 H 1.0410 0.2640 0.1650
C20 C 0.67778(17) 1.02963(15) 0.29652(8)
H17 H 0.7351 1.0821 0.2648
H18 H 0.7116 1.0439 0.3441
H19 H 0.5712 1.0498 0.2928
loop_
_geom_bond_atom_site_label_1
_geom_bond_atom_site_label_2
_geom_bond_site_symmetry_1
_geom_bond_site_symmetry_2
S1 C1 1_555 1_555
N1 C10 1_555 1_555
O1 H1 1_555 1_555
O2 C10 1_555 1_555
O3 C11 1_555 1_555
O4 C11 1_555 1_555
C1 C2 1_555 1_555
C2 H2 1_555 1_555
C3 C2 1_555 1_555
H3 C3 1_555 1_555
C4 C3 1_555 1_555
C5 C4 1_555 1_555
H4 C5 1_555 1_555
C6 C1 1_555 1_555
C7 O1 1_555 1_555
H5 C7 1_555 1_555
C8 C7 1_555 1_555
H6 C8 1_555 1_555
C9 S1 1_555 1_555
H7 C9 1_555 1_555
C10 C8 1_555 1_555
C11 N1 1_555 1_555
C12 O3 1_555 1_555
H8 C12 1_555 1_555
H9 C12 1_555 1_555
C13 N1 1_555 1_555
H10 C13 1_555 1_555
H11 C13 1_555 1_555
C14 C9 1_555 1_555
C15 C14 1_555 1_555
H12 C15 1_555 1_555
C16 C15 1_555 1_555
H13 C16 1_555 1_555
C17 C16 1_555 1_555
H14 C17 1_555 1_555
C18 C17 1_555 1_555
H15 C18 1_555 1_555
C19 C14 1_555 1_555
H16 C19 1_555 1_555
C20 C4 1_555 1_555
H17 C20 1_555 1_555
H18 C20 1_555 1_555
H19 C20 1_555 1_555
C5 C6 1_555 1_555
C6 C7 1_555 1_555
C8 C9 1_555 1_555
C12 C13 1_555 1_555
C18 C19 1_555 1_555

#END
