
#######################################################################
#
#                 Cambridge Crystallographic Data Centre
#                                CCDC 
#
#######################################################################
#
# If this CIF has been generated from an entry in the Cambridge 
# Structural Database, then it will include bibliographic, chemical, 
# crystal, experimental, refinement or atomic coordinate data resulting 
# from the CCDC's data processing and validation procedures.
#
#######################################################################

data_NEYTAN
_chemical_formula_moiety         'C18 H18 O6'
_chemical_name_systematic        
'Dimethyl (E)-5-benzoyloxymethylenecyclohex-3-ene-1,1-dicarboxylate'
_symmetry_cell_setting           monoclinic
_symmetry_space_group_name_H-M   'P 21'
_symmetry_Int_Tables_number      4
_space_group_name_Hall           'P 2yb'
loop_
_symmetry_equiv_pos_site_id
_symmetry_equiv_pos_as_xyz
1 x,y,z
2 -x,1/2+y,-z
_cell_length_a                   10.0350(2)
_cell_length_b                   6.3816(1)
_cell_length_c                   13.8107(3)
_cell_angle_alpha                90
_cell_angle_beta                 108.672(1)
_cell_angle_gamma                90
_cell_volume                     837.878
_exptl_crystal_colour            colorless
_exptl_crystal_description       Needle
_cell_formula_units_Z            2
_exptl_crystal_recrystallization_method ether
loop_
_atom_site_label
_atom_site_type_symbol
_atom_site_fract_x
_atom_site_fract_y
_atom_site_fract_z
C1 C 0.1729(2) 0.7479(3) 0.33397(13)
C2 C 0.2506(2) 0.9588(3) 0.3594(2)
H1 H 0.2180(22) 1.0484(36) 0.2961(17)
H2 H 0.2157(22) 1.0318(37) 0.4055(18)
C3 C 0.4065(2) 0.9297(3) 0.39794(15)
H3 H 0.4635(23) 1.0439(37) 0.4426(18)
C4 C 0.4703(2) 0.7623(3) 0.37577(14)
H4 H 0.5774(24) 0.7415(35) 0.4026(16)
C5 C 0.3931(2) 0.5972(3) 0.30876(13)
C6 C 0.2350(2) 0.6161(3) 0.26528(14)
H5 H 0.1927(20) 0.4715(37) 0.2559(15)
H6 H 0.2098(21) 0.6908(32) 0.1988(16)
C7 C 0.0178(2) 0.7839(3) 0.27590(13)
O1 O -0.0302(2) 0.9408(3) 0.23074(13)
O2 O -0.05978(13) 0.6170(3) 0.27978(11)
C8 C -0.2095(2) 0.6337(6) 0.2264(2)
H7 H -0.2563(34) 0.4855(62) 0.2218(25)
H8 H -0.2292(33) 0.6694(57) 0.1524(28)
H9 H -0.2495(35) 0.7476(65) 0.2567(23)
C9 C 0.1831(2) 0.6272(3) 0.43182(13)
O3 O 0.22768(14) 0.4528(2) 0.45150(10)
O4 O 0.13310(14) 0.7440(2) 0.49292(9)
C10 C 0.1235(3) 0.6419(4) 0.5845(2)
H10 H 0.0718(29) 0.7518(47) 0.6143(20)
H11 H 0.2209(29) 0.6218(49) 0.6348(21)
H12 H 0.0693(29) 0.5048(45) 0.5665(21)
C11 C 0.4612(2) 0.4397(3) 0.28256(13)
H13 H 0.5642(24) 0.4156(35) 0.3038(15)
O5 O 0.38273(12) 0.2923(2) 0.21298(9)
C12 C 0.4505(2) 0.1405(3) 0.17813(13)
O6 O 0.57696(13) 0.1226(3) 0.20643(11)
C13 C 0.3497(2) 0.0071(3) 0.10188(14)
C14 C 0.3996(3) -0.1731(3) 0.0680(2)
H14 H 0.5011(26) -0.2082(44) 0.0987(18)
C15 C 0.3073(3) -0.2992(4) -0.0043(2)
H15 H 0.3407(28) -0.4160(52) -0.0314(22)
C16 C 0.1673(3) -0.2481(4) -0.0431(2)
H16 H 0.1013(31) -0.3359(51) -0.0911(22)
C17 C 0.1167(3) -0.0690(5) -0.0096(2)
H17 H 0.0126(30) -0.0380(46) -0.0380(20)
C18 C 0.2075(2) 0.0581(4) 0.0630(2)
H18 H 0.1723(24) 0.1883(42) 0.0826(18)
loop_
_geom_bond_atom_site_label_1
_geom_bond_atom_site_label_2
_geom_bond_site_symmetry_1
_geom_bond_site_symmetry_2
C1 C2 1_555 1_555
C2 H1 1_555 1_555
H2 C2 1_555 1_555
C3 C2 1_555 1_555
H3 C3 1_555 1_555
C4 C3 1_555 1_555
H4 C4 1_555 1_555
C5 C4 1_555 1_555
C6 C1 1_555 1_555
H5 C6 1_555 1_555
H6 C6 1_555 1_555
C7 C1 1_555 1_555
O1 C7 1_555 1_555
O2 C7 1_555 1_555
C8 O2 1_555 1_555
H7 C8 1_555 1_555
H8 C8 1_555 1_555
H9 C8 1_555 1_555
C9 C1 1_555 1_555
O3 C9 1_555 1_555
O4 C9 1_555 1_555
C10 O4 1_555 1_555
H10 C10 1_555 1_555
H11 C10 1_555 1_555
H12 C10 1_555 1_555
C11 C5 1_555 1_555
H13 C11 1_555 1_555
O5 C11 1_555 1_555
C12 O5 1_555 1_555
O6 C12 1_555 1_555
C13 C12 1_555 1_555
C14 C13 1_555 1_555
H14 C14 1_555 1_555
C15 C14 1_555 1_555
H15 C15 1_555 1_555
C16 C15 1_555 1_555
H16 C16 1_555 1_555
C17 C16 1_555 1_555
H17 C17 1_555 1_555
C18 C13 1_555 1_555
H18 C18 1_555 1_555
C5 C6 1_555 1_555
C17 C18 1_555 1_555

#END
