
#######################################################################
#
#                 Cambridge Crystallographic Data Centre
#                                CCDC 
#
#######################################################################
#
# If this CIF has been generated from an entry in the Cambridge 
# Structural Database, then it will include bibliographic, chemical, 
# crystal, experimental, refinement or atomic coordinate data resulting 
# from the CCDC's data processing and validation procedures.
#
#######################################################################

data_NEYWIY
_chemical_formula_moiety         'C33 H48 N2 O2'
_chemical_name_systematic        
1,2-bis(4,6-Di-t-butyl-2-hydroxybenzyl)imidazole
_symmetry_cell_setting           monoclinic
_symmetry_space_group_name_H-M   'P 21/c'
_symmetry_Int_Tables_number      14
_space_group_name_Hall           '-P 2ybc'
loop_
_symmetry_equiv_pos_site_id
_symmetry_equiv_pos_as_xyz
1 x,y,z
2 -x,1/2+y,1/2-z
3 -x,-y,-z
4 x,1/2-y,1/2+z
_cell_length_a                   13.820(12)
_cell_length_b                   11.658(10)
_cell_length_c                   19.88(2)
_cell_angle_alpha                90
_cell_angle_beta                 103.409(10)
_cell_angle_gamma                90
_cell_volume                     3115.62
_exptl_crystal_colour            colorless
_exptl_crystal_description       prism
_cell_formula_units_Z            4
_exptl_crystal_recrystallization_method 'diethyl ether/hexane'
loop_
_atom_site_label
_atom_site_type_symbol
_atom_site_fract_x
_atom_site_fract_y
_atom_site_fract_z
O1 O 0.4994(2) 0.3257(3) 0.4222(2)
O2 O 0.3800(2) -0.1795(3) 0.1772(2)
N1 N 0.5392(3) -0.0250(3) 0.3733(2)
N2 N 0.4942(3) -0.1731(3) 0.3026(2)
C1 C 0.4207(3) 0.2504(4) 0.4101(2)
C2 C 0.3253(4) 0.2907(4) 0.4141(2)
C3 C 0.2507(3) 0.2083(4) 0.4063(2)
C4 C 0.2632(3) 0.0927(4) 0.3933(2)
C5 C 0.3568(3) 0.0573(4) 0.3900(2)
C6 C 0.4370(3) 0.1351(4) 0.3984(2)
C7 C 0.5407(3) 0.0936(4) 0.3980(2)
C8 C 0.5055(3) -0.0586(4) 0.3066(2)
C9 C 0.5478(4) -0.1233(4) 0.4142(3)
C10 C 0.5193(4) -0.2124(4) 0.3702(3)
C11 C 0.4836(3) 0.0171(4) 0.2447(2)
C12 C 0.3246(3) -0.0796(4) 0.1768(2)
C13 C 0.2253(3) -0.0785(4) 0.1441(3)
C14 C 0.1769(4) 0.0282(4) 0.1398(3)
C15 C 0.2219(4) 0.1288(4) 0.1681(2)
C16 C 0.3201(3) 0.1211(4) 0.2037(2)
C17 C 0.3730(3) 0.0190(4) 0.2081(2)
C18 C 0.3072(4) 0.4169(4) 0.4302(2)
C19 C 0.3617(4) 0.4426(4) 0.5052(2)
C20 C 0.3425(4) 0.4985(4) 0.3804(3)
C21 C 0.1975(4) 0.4406(4) 0.4239(3)
C22 C 0.1762(4) 0.0081(4) 0.3844(3)
C23 C 0.1308(5) 0.0162(6) 0.4489(3)
C24 C 0.0957(5) 0.0396(6) 0.3199(4)
C25 C 0.2117(5) -0.1194(6) 0.3788(4)
C26 C 0.1689(4) -0.1863(5) 0.1145(3)
C27 C 0.1783(5) -0.2766(5) 0.1713(4)
C28 C 0.2087(4) -0.2331(5) 0.0548(3)
C29 C 0.0579(4) -0.1633(6) 0.0862(4)
C30 C 0.1664(4) 0.2441(5) 0.1587(3)
C31 C 0.1456(10) 0.2779(12) 0.0823(7)
C32 C 0.0732(13) 0.233(2) 0.1916(10)
C33 C 0.2358(10) 0.3456(12) 0.2013(7)
H1 H 0.1850(3) 0.2335(4) 0.4095(2)
H2 H 0.3674(3) -0.0225(4) 0.3800(2)
H3 H 0.5809(3) 0.0966(4) 0.4450(2)
H4 H 0.5691(3) 0.1438(4) 0.3688(2)
H5 H 0.5691(4) -0.1262(4) 0.4643(3)
H6 H 0.5170(4) -0.2918(4) 0.3842(3)
H7 H 0.5047(3) 0.0945(4) 0.2592(2)
H8 H 0.5205(3) -0.0098(4) 0.2118(2)
H9 H 0.1075(4) 0.0317(4) 0.1155(3)
H10 H 0.3537(3) 0.1887(4) 0.2263(2)
H11 H 0.3364(4) 0.3930(4) 0.5364(2)
H12 H 0.4322(4) 0.4284(4) 0.5104(2)
H13 H 0.3516(4) 0.5221(4) 0.5163(2)
H14 H 0.4129(4) 0.4869(4) 0.3835(3)
H15 H 0.3054(4) 0.4812(4) 0.3338(3)
H16 H 0.3310(4) 0.5777(4) 0.3913(3)
H17 H 0.1866(4) 0.5199(4) 0.4348(3)
H18 H 0.1616(4) 0.4239(4) 0.3770(3)
H19 H 0.1738(4) 0.3907(4) 0.4557(3)
H20 H 0.1513(5) -0.2451(5) 0.2083(4)
H21 H 0.1419(5) -0.3455(5) 0.1534(4)
H22 H 0.2479(5) -0.2954(5) 0.1891(4)
H23 H 0.1735(4) -0.3020(5) 0.0358(3)
H24 H 0.2003(4) -0.1746(5) 0.0192(3)
H25 H 0.2789(4) -0.2502(5) 0.0713(3)
H26 H 0.0319(4) -0.1322(6) 0.1237(4)
H27 H 0.0493(4) -0.1076(6) 0.0490(4)
H28 H 0.0224(4) -0.2331(6) 0.0692(4)
H29 H 0.5441 0.3007 0.3991
H30 H 0.4063 -0.2157 0.2158
C34? C 0.073(3) 0.088(3) 0.367(2)
C35? C 0.164(2) -0.052(3) 0.311(2)
C36? C 0.210(2) -0.091(3) 0.434(2)
C37? C 0.1991(13) 0.313(1) 0.1009(8)
C38? C 0.0483(10) 0.2227(12) 0.1423(7)
C39? C 0.1902(9) 0.3140(10) 0.2256(6)
loop_
_geom_bond_atom_site_label_1
_geom_bond_atom_site_label_2
_geom_bond_site_symmetry_1
_geom_bond_site_symmetry_2
O1 C1 1_555 1_555
O2 C12 1_555 1_555
N1 C7 1_555 1_555
N2 C8 1_555 1_555
C1 C2 1_555 1_555
C2 C3 1_555 1_555
C3 C4 1_555 1_555
C4 C5 1_555 1_555
C5 C6 1_555 1_555
C6 C1 1_555 1_555
C7 C6 1_555 1_555
C8 N1 1_555 1_555
C9 N1 1_555 1_555
C10 N2 1_555 1_555
C11 C8 1_555 1_555
C12 C13 1_555 1_555
C13 C14 1_555 1_555
C14 C15 1_555 1_555
C15 C16 1_555 1_555
C16 C17 1_555 1_555
C17 C11 1_555 1_555
C18 C2 1_555 1_555
C19 C18 1_555 1_555
C20 C18 1_555 1_555
C21 C18 1_555 1_555
C22 C4 1_555 1_555
C23 C22 1_555 1_555
C24 C22 1_555 1_555
C25 C22 1_555 1_555
C26 C13 1_555 1_555
C27 C26 1_555 1_555
C28 C26 1_555 1_555
C29 C26 1_555 1_555
C30 C15 1_555 1_555
C31 C30 1_555 1_555
C32 C30 1_555 1_555
C33 C30 1_555 1_555
H1 C3 1_555 1_555
H2 C5 1_555 1_555
H3 C7 1_555 1_555
H4 C7 1_555 1_555
H5 C9 1_555 1_555
H6 C10 1_555 1_555
H7 C11 1_555 1_555
H8 C11 1_555 1_555
H9 C14 1_555 1_555
H10 C16 1_555 1_555
H11 C19 1_555 1_555
H12 C19 1_555 1_555
H13 C19 1_555 1_555
H14 C20 1_555 1_555
H15 C20 1_555 1_555
H16 C20 1_555 1_555
H17 C21 1_555 1_555
H18 C21 1_555 1_555
H19 C21 1_555 1_555
H20 C27 1_555 1_555
H21 C27 1_555 1_555
H22 C27 1_555 1_555
H23 C28 1_555 1_555
H24 C28 1_555 1_555
H25 C28 1_555 1_555
H26 C29 1_555 1_555
H27 C29 1_555 1_555
H28 C29 1_555 1_555
H29 O1 1_555 1_555
H30 O2 1_555 1_555
C9 C10 1_555 1_555
C12 C17 1_555 1_555

#END
