
#######################################################################
#
#                 Cambridge Crystallographic Data Centre
#                                CCDC 
#
#######################################################################
#
# If this CIF has been generated from an entry in the Cambridge 
# Structural Database, then it will include bibliographic, chemical, 
# crystal, experimental, refinement or atomic coordinate data resulting 
# from the CCDC's data processing and validation procedures.
#
#######################################################################

data_NEYWEU
_chemical_formula_moiety         'C90 H140 N4 Na4 O10,C4 H10 O1'
_chemical_name_systematic        
'bis(\m~4~-1,2-bis(4,6-Di-t-butyl-2-oxybenzyl)imidazolyl)-hexakis(tetrahydrofuran)-tetra-sodium diethyl ether solvate'
_symmetry_cell_setting           monoclinic
_symmetry_space_group_name_H-M   'C 2/c'
_symmetry_Int_Tables_number      15
_space_group_name_Hall           '-C 2yn'
loop_
_symmetry_equiv_pos_site_id
_symmetry_equiv_pos_as_xyz
1 x,y,z
2 1/2+x,1/2+y,z
3 -x,y,1/2-z
4 1/2-x,1/2+y,1/2-z
5 -x,-y,-z
6 1/2-x,1/2-y,-z
7 x,-y,1/2+z
8 1/2+x,1/2-y,1/2+z
_cell_length_a                   28.38(2)
_cell_length_b                   16.138(10)
_cell_length_c                   21.485(13)
_cell_angle_alpha                90
_cell_angle_beta                 95.848(8)
_cell_angle_gamma                90
_cell_volume                     9788.84
_exptl_crystal_colour            colorless
_exptl_crystal_description       prism
_cell_formula_units_Z            4
_exptl_crystal_recrystallization_method 'diethyl ether/tetrahydrofuran'
loop_
_atom_site_label
_atom_site_type_symbol
_atom_site_fract_x
_atom_site_fract_y
_atom_site_fract_z
Na1 Na 0.08033(9) 0.0715(2) 0.36610(12)
Na2 Na 0.13511(9) 0.2429(2) 0.36167(13)
O1 O 0.1421(2) 0.1139(3) 0.3201(2)
O2 O 0.0773(2) 0.1962(3) 0.4155(2)
O3 O 0.0904(2) -0.0408(4) 0.4336(3)
O4 O 0.2078(2) 0.3109(4) 0.3648(3)
O5 O 0.1014(2) 0.3576(3) 0.3039(3)
N1 N 0.0718(2) 0.1212(3) 0.1927(2)
N2 N -0.0011(2) 0.0641(4) 0.3291(3)
C1 C 0.1720(2) 0.1177(4) 0.2780(3)
C2 C 0.2198(2) 0.0859(4) 0.2872(3)
C3 C 0.2498(3) 0.0991(4) 0.2411(4)
C4 C 0.2358(3) 0.1388(5) 0.1844(4)
C5 C 0.1894(2) 0.1668(4) 0.1749(3)
C6 C 0.1578(2) 0.1547(4) 0.2184(3)
C7 C 0.1086(2) 0.1861(4) 0.2045(3)
C8 C -0.0243(2) 0.1347(5) 0.3220(3)
C9 C 0.0787(2) 0.0370(4) 0.1959(3)
C10 C -0.0353(3) 0.0031(5) 0.3176(3)
C11 C -0.0028(2) 0.2198(4) 0.3282(3)
C12 C 0.0422(2) 0.2385(4) 0.4353(3)
C13 C 0.0434(2) 0.2715(4) 0.4964(3)
C14 C 0.0055(2) 0.3191(4) 0.5123(3)
C15 C -0.0346(2) 0.3381(4) 0.4709(3)
C16 C -0.0347(2) 0.3052(4) 0.4119(3)
C17 C 0.0009(2) 0.2552(4) 0.3934(3)
C18 C 0.2359(3) 0.0384(5) 0.3471(3)
C19 C 0.2054(3) -0.0391(5) 0.3511(4)
C20 C 0.2320(3) 0.0912(5) 0.4056(4)
C21 C 0.2884(3) 0.0109(7) 0.3493(5)
C22 C 0.2717(3) 0.1560(6) 0.1361(4)
C23 C 0.2788(7) 0.2476(12) 0.1304(10)
C24 C 0.3203(7) 0.1046(11) 0.1505(9)
C25 C 0.2487(6) 0.1222(10) 0.0681(8)
C26 C 0.0859(2) 0.2547(5) 0.5451(3)
C27 C 0.0895(3) 0.1598(5) 0.5555(4)
C28 C 0.1317(3) 0.2871(5) 0.5222(4)
C29 C 0.0804(3) 0.2950(7) 0.6087(4)
C30 C -0.0759(3) 0.3899(5) 0.4888(4)
C31 C -0.0697(4) 0.4237(11) 0.5517(6)
C32 C -0.0809(4) 0.4662(7) 0.4462(7)
C33 C -0.1225(3) 0.3463(8) 0.4760(6)
C34 C 0.1278(3) -0.0632(7) 0.4791(5)
C35 C 0.1073(4) -0.0871(8) 0.5353(5)
C36 C 0.0552(4) -0.0905(8) 0.5186(6)
C37 C 0.0494(4) -0.0760(9) 0.4521(6)
C38 C 0.2386(4) 0.3111(7) 0.3144(6)
C39 C 0.2806(4) 0.3508(12) 0.3360(7)
C40 C 0.2770(4) 0.3846(7) 0.3992(8)
C41 C 0.2302(3) 0.3540(7) 0.4170(5)
C42 C 0.1205(4) 0.4066(5) 0.2557(5)
C43 C 0.0864(5) 0.4729(7) 0.2379(5)
C44 C 0.0651(4) 0.4895(7) 0.2971(5)
C45 C 0.0703(5) 0.4117(6) 0.3313(6)
H1 H 0.2822(3) 0.0796(4) 0.2487(4)
H2 H 0.1790(2) 0.1960(4) 0.1365(3)
H3 H 0.1077(2) 0.2212(4) 0.1677(3)
H4 H 0.1009(2) 0.2188(4) 0.2399(3)
H5 H 0.1084(2) 0.0079(4) 0.2059(3)
H6 H -0.0289(3) -0.0560(5) 0.3192(3)
H7 H 0.0288(2) 0.2173(4) 0.3150(3)
H8 H -0.0222(2) 0.2569(4) 0.3009(3)
H9 H 0.0069(2) 0.3403(4) 0.5547(3)
H10 H -0.0614(2) 0.3181(4) 0.3814(3)
H11 H 0.2097(3) -0.0752(5) 0.3160(4)
H12 H 0.2149(3) -0.0680(5) 0.3899(4)
H13 H 0.1723(3) -0.0236(5) 0.3498(4)
H14 H 0.1996(3) 0.1100(5) 0.4064(4)
H15 H 0.2411(3) 0.0583(5) 0.4427(4)
H16 H 0.2529(3) 0.1387(5) 0.4049(4)
H17 H 0.3085(3) 0.0595(7) 0.3494(5)
H18 H 0.2969(3) -0.0214(7) 0.3868(5)
H19 H 0.2924(3) -0.0226(7) 0.3127(5)
H20 H 0.0611(3) 0.1400(5) 0.5722(4)
H21 H 0.0928(3) 0.1324(5) 0.5160(4)
H22 H 0.1169(3) 0.1475(5) 0.5848(4)
H23 H 0.1582(3) 0.2726(5) 0.5523(4)
H24 H 0.1360(3) 0.2625(5) 0.4820(4)
H25 H 0.1299(3) 0.3469(5) 0.5179(4)
H26 H 0.1073(3) 0.2802(7) 0.6380(4)
H27 H 0.0789(3) 0.3547(7) 0.6040(4)
H28 H 0.0515(3) 0.2754(7) 0.6244(4)
H29 H -0.0660(4) 0.3789(11) 0.5819(6)
H30 H -0.0416(4) 0.4584(11) 0.5561(6)
H31 H -0.0971(4) 0.4567(11) 0.5592(6)
H32 H -0.0526(4) 0.5000(7) 0.4529(7)
H33 H -0.0853(4) 0.4484(7) 0.4029(7)
H34 H -0.1081(4) 0.4984(7) 0.4558(7)
H35 H -0.1477(3) 0.3826(8) 0.4865(6)
H36 H -0.1275(3) 0.3314(8) 0.4321(6)
H37 H -0.1223(3) 0.2965(8) 0.5014(6)
H38 H 0.1456(3) -0.1089(7) 0.4638(5)
H39 H 0.1488(3) -0.0163(7) 0.4881(5)
H40 H 0.1191(4) -0.1413(8) 0.5490(5)
H41 H 0.1152(4) -0.0471(8) 0.5684(5)
H42 H 0.0427(4) -0.1444(8) 0.5283(6)
H43 H 0.0395(4) -0.0479(8) 0.5407(6)
H44 H 0.0230(4) -0.0386(9) 0.4420(6)
H45 H 0.0432(4) -0.1281(9) 0.4302(6)
H46 H 0.2444(4) 0.2548(7) 0.3013(6)
H47 H 0.2233(4) 0.3421(7) 0.2792(6)
H48 H 0.3058(4) 0.3100(12) 0.3381(7)
H49 H 0.2873(4) 0.3949(12) 0.3076(7)
H50 H 0.3028(4) 0.3647(7) 0.4285(8)
H51 H 0.2775(4) 0.4446(7) 0.3980(8)
H52 H 0.2108(3) 0.4005(7) 0.4275(5)
H53 H 0.2352(3) 0.3171(7) 0.4526(5)
H54 H 0.1509(4) 0.4297(5) 0.2716(5)
H55 H 0.1244(4) 0.3721(5) 0.2196(5)
H56 H 0.1025(5) 0.5220(7) 0.2248(5)
H57 H 0.0628(5) 0.4555(7) 0.2047(5)
H58 H 0.0816(4) 0.5336(7) 0.3209(5)
H59 H 0.0319(4) 0.5041(7) 0.2882(5)
H60 H 0.0396(5) 0.3853(6) 0.3303(6)
H61 H 0.0824(5) 0.4228(6) 0.3744(6)
Na1B Na -0.08033(9) 0.0715(2) 0.13390(12)
Na2B Na -0.13511(9) 0.2429(2) 0.13833(13)
O1B O -0.1421(2) 0.1139(3) 0.1799(2)
O2B O -0.0773(2) 0.1962(3) 0.0845(2)
O3B O -0.0904(2) -0.0408(4) 0.0664(3)
O4B O -0.2078(2) 0.3109(4) 0.1352(3)
O5B O -0.1014(2) 0.3576(3) 0.1961(3)
N1B N -0.0718(2) 0.1212(3) 0.3073(2)
N2B N 0.0011(2) 0.0641(4) 0.1709(3)
C1B C -0.1720(2) 0.1177(4) 0.2220(3)
C2B C -0.2198(2) 0.0859(4) 0.2128(3)
C3B C -0.2498(3) 0.0991(4) 0.2589(4)
C4B C -0.2358(3) 0.1388(5) 0.3156(4)
C5B C -0.1894(2) 0.1668(4) 0.3251(3)
C6B C -0.1578(2) 0.1547(4) 0.2816(3)
C7B C -0.1086(2) 0.1861(4) 0.2955(3)
C8B C 0.0243(2) 0.1347(5) 0.1780(3)
C9B C -0.0787(2) 0.0370(4) 0.3041(3)
C10B C 0.0353(3) 0.0031(5) 0.1824(3)
C11B C 0.0028(2) 0.2198(4) 0.1718(3)
C12B C -0.0422(2) 0.2385(4) 0.0647(3)
C13B C -0.0434(2) 0.2715(4) 0.0036(3)
C14B C -0.0055(2) 0.3191(4) -0.0123(3)
C15B C 0.0346(2) 0.3381(4) 0.0291(3)
C16B C 0.0347(2) 0.3052(4) 0.0881(3)
C17B C -0.0009(2) 0.2552(4) 0.1066(3)
C18B C -0.2359(3) 0.0384(5) 0.1529(3)
C19B C -0.2054(3) -0.0391(5) 0.1489(4)
C20B C -0.2320(3) 0.0912(5) 0.0944(4)
C21B C -0.2884(3) 0.0109(7) 0.1507(5)
C22B C -0.2717(3) 0.1560(6) 0.3639(4)
C23B C -0.2788(7) 0.2476(12) 0.3696(10)
C24B C -0.3203(7) 0.1046(11) 0.3495(9)
C25B C -0.2487(6) 0.1222(10) 0.4319(8)
C26B C -0.0859(2) 0.2547(5) -0.0451(3)
C27B C -0.0895(3) 0.1598(5) -0.0555(4)
C28B C -0.1317(3) 0.2871(5) -0.0222(4)
C29B C -0.0804(3) 0.2950(7) -0.1087(4)
C30B C 0.0759(3) 0.3899(5) 0.0112(4)
C31B C 0.0697(4) 0.4237(11) -0.0517(6)
C32B C 0.0809(4) 0.4662(7) 0.0538(7)
C33B C 0.1225(3) 0.3463(8) 0.0240(6)
C34B C -0.1278(3) -0.0632(7) 0.0209(5)
C35B C -0.1073(4) -0.0871(8) -0.0353(5)
C36B C -0.0552(4) -0.0905(8) -0.0186(6)
C37B C -0.0494(4) -0.0760(9) 0.0479(6)
C38B C -0.2386(4) 0.3111(7) 0.1856(6)
C39B C -0.2806(4) 0.3508(12) 0.1640(7)
C40B C -0.2770(4) 0.3846(7) 0.1008(8)
C41B C -0.2302(3) 0.3540(7) 0.0830(5)
C42B C -0.1205(4) 0.4066(5) 0.2443(5)
C43B C -0.0864(5) 0.4729(7) 0.2621(5)
C44B C -0.0651(4) 0.4895(7) 0.2029(5)
C45B C -0.0703(5) 0.4117(6) 0.1687(6)
H1B H -0.2822(3) 0.0796(4) 0.2513(4)
H2B H -0.1790(2) 0.1960(4) 0.3635(3)
H3B H -0.1077(2) 0.2212(4) 0.3323(3)
H4B H -0.1009(2) 0.2188(4) 0.2601(3)
H5B H -0.1084(2) 0.0079(4) 0.2941(3)
H6B H 0.0289(3) -0.0560(5) 0.1808(3)
H7B H -0.0288(2) 0.2173(4) 0.1850(3)
H8B H 0.0222(2) 0.2569(4) 0.1991(3)
H9B H -0.0069(2) 0.3403(4) -0.0547(3)
H10B H 0.0614(2) 0.3181(4) 0.1186(3)
H11B H -0.2097(3) -0.0752(5) 0.1840(4)
H12B H -0.2149(3) -0.0680(5) 0.1101(4)
H13B H -0.1723(3) -0.0236(5) 0.1502(4)
H14B H -0.1996(3) 0.1100(5) 0.0936(4)
H15B H -0.2411(3) 0.0583(5) 0.0573(4)
H16B H -0.2529(3) 0.1387(5) 0.0951(4)
H17B H -0.3085(3) 0.0595(7) 0.1506(5)
H18B H -0.2969(3) -0.0214(7) 0.1132(5)
H19B H -0.2924(3) -0.0226(7) 0.1873(5)
H20B H -0.0611(3) 0.1400(5) -0.0722(4)
H21B H -0.0928(3) 0.1324(5) -0.0160(4)
H22B H -0.1169(3) 0.1475(5) -0.0848(4)
H23B H -0.1582(3) 0.2726(5) -0.0523(4)
H24B H -0.1360(3) 0.2625(5) 0.0180(4)
H25B H -0.1299(3) 0.3469(5) -0.0179(4)
H26B H -0.1073(3) 0.2802(7) -0.1380(4)
H27B H -0.0789(3) 0.3547(7) -0.1040(4)
H28B H -0.0515(3) 0.2754(7) -0.1244(4)
H29B H 0.0660(4) 0.3789(11) -0.0819(6)
H30B H 0.0416(4) 0.4584(11) -0.0561(6)
H31B H 0.0971(4) 0.4567(11) -0.0592(6)
H32B H 0.0526(4) 0.5000(7) 0.0471(7)
H33B H 0.0853(4) 0.4484(7) 0.0971(7)
H34B H 0.1081(4) 0.4984(7) 0.0442(7)
H35B H 0.1477(3) 0.3826(8) 0.0135(6)
H36B H 0.1275(3) 0.3314(8) 0.0679(6)
H37B H 0.1223(3) 0.2965(8) -0.0014(6)
H38B H -0.1456(3) -0.1089(7) 0.0362(5)
H39B H -0.1488(3) -0.0163(7) 0.0119(5)
H40B H -0.1191(4) -0.1413(8) -0.0490(5)
H41B H -0.1152(4) -0.0471(8) -0.0684(5)
H42B H -0.0427(4) -0.1444(8) -0.0283(6)
H43B H -0.0395(4) -0.0479(8) -0.0407(6)
H44B H -0.0230(4) -0.0386(9) 0.0580(6)
H45B H -0.0432(4) -0.1281(9) 0.0698(6)
H46B H -0.2444(4) 0.2548(7) 0.1987(6)
H47B H -0.2233(4) 0.3421(7) 0.2208(6)
H48B H -0.3058(4) 0.3100(12) 0.1619(7)
H49B H -0.2873(4) 0.3949(12) 0.1924(7)
H50B H -0.3028(4) 0.3647(7) 0.0715(8)
H51B H -0.2775(4) 0.4446(7) 0.1020(8)
H52B H -0.2108(3) 0.4005(7) 0.0725(5)
H53B H -0.2352(3) 0.3171(7) 0.0474(5)
H54B H -0.1509(4) 0.4297(5) 0.2284(5)
H55B H -0.1244(4) 0.3721(5) 0.2804(5)
H56B H -0.1025(5) 0.5220(7) 0.2752(5)
H57B H -0.0628(5) 0.4555(7) 0.2953(5)
H58B H -0.0816(4) 0.5336(7) 0.1791(5)
H59B H -0.0319(4) 0.5041(7) 0.2118(5)
H60B H -0.0396(5) 0.3853(6) 0.1697(6)
H61B H -0.0824(5) 0.4228(6) 0.1256(6)
O6 O 0.5000 0.2884(11) 0.2500
C46 C 0.4180(9) 0.321(2) 0.2057(11)
C47 C 0.4559(7) 0.2498(12) 0.2205(9)
C46B C 0.5820(9) 0.321(2) 0.2943(11)
C47B C 0.5441(7) 0.2498(12) 0.2795(9)
C48? C -0.2522(8) 0.217(1) 0.4150(11)
C49? C -0.3140(9) 0.216(2) 0.3288(12)
C50? C -0.2936(9) 0.077(2) 0.3818(12)
loop_
_geom_bond_atom_site_label_1
_geom_bond_atom_site_label_2
_geom_bond_site_symmetry_1
_geom_bond_site_symmetry_2
Na1 O1 1_555 1_555
Na2 O1 1_555 1_555
O1 C1 1_555 1_555
O2 Na1 1_555 1_555
O3 Na1 1_555 1_555
O4 Na2 1_555 1_555
O5 Na2 1_555 1_555
O6 C47 1_555 1_555
N1 C7 1_555 1_555
N2 Na1 1_555 1_555
C1 C2 1_555 1_555
C2 C3 1_555 1_555
C3 C4 1_555 1_555
C4 C5 1_555 1_555
C5 C6 1_555 1_555
C6 C1 1_555 1_555
C7 C6 1_555 1_555
C8 N2 1_555 1_555
C9 N1 1_555 1_555
C10 N2 1_555 1_555
C11 C8 1_555 1_555
C12 O2 1_555 1_555
C13 C12 1_555 1_555
C14 C13 1_555 1_555
C15 C14 1_555 1_555
C16 C15 1_555 1_555
C17 C11 1_555 1_555
C18 C2 1_555 1_555
C19 C18 1_555 1_555
C20 C18 1_555 1_555
C21 C18 1_555 1_555
C22 C4 1_555 1_555
C23 C22 1_555 1_555
C24 C22 1_555 1_555
C25 C22 1_555 1_555
C26 C13 1_555 1_555
C27 C26 1_555 1_555
C28 C26 1_555 1_555
C29 C26 1_555 1_555
C30 C15 1_555 1_555
C31 C30 1_555 1_555
C32 C30 1_555 1_555
C33 C30 1_555 1_555
C34 O3 1_555 1_555
C35 C34 1_555 1_555
C36 C35 1_555 1_555
C37 O3 1_555 1_555
C38 O4 1_555 1_555
C39 C38 1_555 1_555
C40 C39 1_555 1_555
C41 O4 1_555 1_555
C42 O5 1_555 1_555
C43 C42 1_555 1_555
C44 C43 1_555 1_555
C45 O5 1_555 1_555
C46 C47 1_555 1_555
H1 C3 1_555 1_555
H2 C5 1_555 1_555
H3 C7 1_555 1_555
H4 C7 1_555 1_555
H5 C9 1_555 1_555
H6 C10 1_555 1_555
H7 C11 1_555 1_555
H8 C11 1_555 1_555
H9 C14 1_555 1_555
H10 C16 1_555 1_555
H11 C19 1_555 1_555
H12 C19 1_555 1_555
H13 C19 1_555 1_555
H14 C20 1_555 1_555
H15 C20 1_555 1_555
H16 C20 1_555 1_555
H17 C21 1_555 1_555
H18 C21 1_555 1_555
H19 C21 1_555 1_555
H20 C27 1_555 1_555
H21 C27 1_555 1_555
H22 C27 1_555 1_555
H23 C28 1_555 1_555
H24 C28 1_555 1_555
H25 C28 1_555 1_555
H26 C29 1_555 1_555
H27 C29 1_555 1_555
H28 C29 1_555 1_555
H29 C31 1_555 1_555
H30 C31 1_555 1_555
H31 C31 1_555 1_555
H32 C32 1_555 1_555
H33 C32 1_555 1_555
H34 C32 1_555 1_555
H35 C33 1_555 1_555
H36 C33 1_555 1_555
H37 C33 1_555 1_555
H38 C34 1_555 1_555
H39 C34 1_555 1_555
H40 C35 1_555 1_555
H41 C35 1_555 1_555
H42 C36 1_555 1_555
H43 C36 1_555 1_555
H44 C37 1_555 1_555
H45 C37 1_555 1_555
H46 C38 1_555 1_555
H47 C38 1_555 1_555
H48 C39 1_555 1_555
H49 C39 1_555 1_555
H50 C40 1_555 1_555
H51 C40 1_555 1_555
H52 C41 1_555 1_555
H53 C41 1_555 1_555
H54 C42 1_555 1_555
H55 C42 1_555 1_555
H56 C43 1_555 1_555
H57 C43 1_555 1_555
H58 C44 1_555 1_555
H59 C44 1_555 1_555
H60 C45 1_555 1_555
H61 C45 1_555 1_555
Na1B O1B 1_555 1_555
Na2B O1B 1_555 1_555
O1B C1B 1_555 1_555
O2B Na1B 1_555 1_555
O3B Na1B 1_555 1_555
O4B Na2B 1_555 1_555
O5B Na2B 1_555 1_555
N1B C8 1_555 1_555
N2B Na1B 1_555 1_555
C1B C2B 1_555 1_555
C2B C3B 1_555 1_555
C3B C4B 1_555 1_555
C4B C5B 1_555 1_555
C5B C6B 1_555 1_555
C6B C1B 1_555 1_555
C7B N1B 1_555 1_555
C8B N1 1_555 1_555
C9B C10 1_555 1_555
C10B C9 1_555 1_555
C11B C8B 1_555 1_555
C12B O2B 1_555 1_555
C13B C12B 1_555 1_555
C14B C13B 1_555 1_555
C15B C14B 1_555 1_555
C16B C15B 1_555 1_555
C17B C11B 1_555 1_555
C18B C2B 1_555 1_555
C19B C18B 1_555 1_555
C20B C18B 1_555 1_555
C21B C18B 1_555 1_555
C22B C4B 1_555 1_555
C23B C22B 1_555 1_555
C24B C22B 1_555 1_555
C25B C22B 1_555 1_555
C26B C13B 1_555 1_555
C27B C26B 1_555 1_555
C28B C26B 1_555 1_555
C29B C26B 1_555 1_555
C30B C15B 1_555 1_555
C31B C30B 1_555 1_555
C32B C30B 1_555 1_555
C33B C30B 1_555 1_555
C34B O3B 1_555 1_555
C35B C34B 1_555 1_555
C36B C35B 1_555 1_555
C37B O3B 1_555 1_555
C38B O4B 1_555 1_555
C39B C38B 1_555 1_555
C40B C39B 1_555 1_555
C41B O4B 1_555 1_555
C42B O5B 1_555 1_555
C43B C42B 1_555 1_555
C44B C43B 1_555 1_555
C45B O5B 1_555 1_555
C46B C47B 1_555 1_555
C47B O6 1_555 1_555
H1B C3B 1_555 1_555
H2B C5B 1_555 1_555
H3B C7B 1_555 1_555
H4B C7B 1_555 1_555
H5B C9B 1_555 1_555
H6B C10B 1_555 1_555
H7B C11B 1_555 1_555
H8B C11B 1_555 1_555
H9B C14B 1_555 1_555
H10B C16B 1_555 1_555
H11B C19B 1_555 1_555
H12B C19B 1_555 1_555
H13B C19B 1_555 1_555
H14B C20B 1_555 1_555
H15B C20B 1_555 1_555
H16B C20B 1_555 1_555
H17B C21B 1_555 1_555
H18B C21B 1_555 1_555
H19B C21B 1_555 1_555
H20B C27B 1_555 1_555
H21B C27B 1_555 1_555
H22B C27B 1_555 1_555
H23B C28B 1_555 1_555
H24B C28B 1_555 1_555
H25B C28B 1_555 1_555
H26B C29B 1_555 1_555
H27B C29B 1_555 1_555
H28B C29B 1_555 1_555
H29B C31B 1_555 1_555
H30B C31B 1_555 1_555
H31B C31B 1_555 1_555
H32B C32B 1_555 1_555
H33B C32B 1_555 1_555
H34B C32B 1_555 1_555
H35B C33B 1_555 1_555
H36B C33B 1_555 1_555
H37B C33B 1_555 1_555
H38B C34B 1_555 1_555
H39B C34B 1_555 1_555
H40B C35B 1_555 1_555
H41B C35B 1_555 1_555
H42B C36B 1_555 1_555
H43B C36B 1_555 1_555
H44B C37B 1_555 1_555
H45B C37B 1_555 1_555
H46B C38B 1_555 1_555
H47B C38B 1_555 1_555
H48B C39B 1_555 1_555
H49B C39B 1_555 1_555
H50B C40B 1_555 1_555
H51B C40B 1_555 1_555
H52B C41B 1_555 1_555
H53B C41B 1_555 1_555
H54B C42B 1_555 1_555
H55B C42B 1_555 1_555
H56B C43B 1_555 1_555
H57B C43B 1_555 1_555
H58B C44B 1_555 1_555
H59B C44B 1_555 1_555
H60B C45B 1_555 1_555
H61B C45B 1_555 1_555
Na2 O2 1_555 1_555
C12 C17 1_555 1_555
C16 C17 1_555 1_555
C36 C37 1_555 1_555
C40 C41 1_555 1_555
C44 C45 1_555 1_555
Na2B O2B 1_555 1_555
N1B C9B 1_555 1_555
N2B C8B 1_555 1_555
N2B C10B 1_555 1_555
C6B C7B 1_555 1_555
C12B C17B 1_555 1_555
C16B C17B 1_555 1_555
C36B C37B 1_555 1_555
C40B C41B 1_555 1_555
C44B C45B 1_555 1_555

#END
