
#######################################################################
#
#                 Cambridge Crystallographic Data Centre
#                                CCDC 
#
#######################################################################
#
# If this CIF has been generated from an entry in the Cambridge 
# Structural Database, then it will include bibliographic, chemical, 
# crystal, experimental, refinement or atomic coordinate data resulting 
# from the CCDC's data processing and validation procedures.
#
#######################################################################

data_NEZBEA
_chemical_formula_moiety         'C8 H9 N2 O2 1+,Cl1 1-'
_chemical_name_systematic        '7-Hydroxy-4-methoxy-6-azaindole hydrochloride'
_symmetry_cell_setting           monoclinic
_symmetry_space_group_name_H-M   'P 21/c'
_symmetry_Int_Tables_number      14
_space_group_name_Hall           '-P 2ybc'
loop_
_symmetry_equiv_pos_site_id
_symmetry_equiv_pos_as_xyz
1 x,y,z
2 -x,1/2+y,1/2-z
3 -x,-y,-z
4 x,1/2-y,1/2+z
_cell_length_a                   8.2944(2)
_cell_length_b                   15.3323(4)
_cell_length_c                   7.0559(2)
_cell_angle_alpha                90
_cell_angle_beta                 98.096(2)
_cell_angle_gamma                90
_cell_volume                     888.371
_exptl_crystal_colour            colorless
_exptl_crystal_description       Needle
_cell_formula_units_Z            4
loop_
_atom_site_label
_atom_site_type_symbol
_atom_site_fract_x
_atom_site_fract_y
_atom_site_fract_z
Cl1 Cl 0.31865(7) -0.05446(4) 0.14994(10)
N1 N 0.3115(3) 0.37637(12) 0.2333(3)
H1 H 0.4146 0.3903 0.2813
C1 C 0.1864(3) 0.43254(16) 0.1838(4)
H2 H 0.1943 0.4929 0.1947
C2 C 0.0484(3) 0.38881(16) 0.1164(4)
H3 H -0.0530 0.4132 0.0737
C3 C 0.0001(3) 0.22122(15) 0.0749(3)
C4 C 0.0814(3) 0.14474(16) 0.1066(3)
H4 H 0.0264 0.0926 0.0768
N2 N 0.2443(2) 0.14279(13) 0.1824(3)
H5 H 0.2943 0.0908 0.2009
C5 C 0.3331(3) 0.21392(16) 0.2284(3)
C6 C 0.2526(3) 0.29356(14) 0.1975(3)
C7 C 0.0876(3) 0.29925(15) 0.1232(3)
C8 C 0.5726(3) 0.13166(18) 0.3293(5)
H6 H 0.6839 0.1419 0.3831
H7 H 0.5692 0.1029 0.2080
H8 H 0.5212 0.0956 0.4145
O1 O -0.1576(2) 0.22819(12) -0.0022(3)
H9 H -0.1970 0.1774 -0.0244
O2 O 0.4883(2) 0.21331(11) 0.3030(3)
loop_
_geom_bond_atom_site_label_1
_geom_bond_atom_site_label_2
_geom_bond_site_symmetry_1
_geom_bond_site_symmetry_2
N1 H1 1_555 1_555
C1 N1 1_555 1_555
H2 C1 1_555 1_555
C2 C1 1_555 1_555
H3 C2 1_555 1_555
C3 C4 1_555 1_555
C4 H4 1_555 1_555
N2 C4 1_555 1_555
H5 N2 1_555 1_555
C5 N2 1_555 1_555
C6 N1 1_555 1_555
C7 C2 1_555 1_555
C8 H6 1_555 1_555
H7 C8 1_555 1_555
H8 C8 1_555 1_555
O1 C3 1_555 1_555
H9 O1 1_555 1_555
O2 C5 1_555 1_555
C3 C7 1_555 1_555
C5 C6 1_555 1_555
C6 C7 1_555 1_555
C8 O2 1_555 1_555

#END
