
#######################################################################
#
#                 Cambridge Crystallographic Data Centre
#                                CCDC 
#
#######################################################################
#
# If this CIF has been generated from an entry in the Cambridge 
# Structural Database, then it will include bibliographic, chemical, 
# crystal, experimental, refinement or atomic coordinate data resulting 
# from the CCDC's data processing and validation procedures.
#
#######################################################################

data_NEZBIE
_chemical_formula_moiety         'C15 H11 N3 O5'
_chemical_name_systematic        
'7-Methoxy-1H-pyrrolo(2,3-c)pyridin-4-yl 4-nitrobenzoate'
_symmetry_cell_setting           monoclinic
_symmetry_space_group_name_H-M   'C 2/c'
_symmetry_Int_Tables_number      15
_space_group_name_Hall           '-C 2yn'
loop_
_symmetry_equiv_pos_site_id
_symmetry_equiv_pos_as_xyz
1 x,y,z
2 1/2+x,1/2+y,z
3 -x,y,1/2-z
4 1/2-x,1/2+y,1/2-z
5 -x,-y,-z
6 1/2-x,1/2-y,-z
7 x,-y,1/2+z
8 1/2+x,1/2-y,1/2+z
_cell_length_a                   7.7200(2)
_cell_length_b                   11.6864(2)
_cell_length_c                   30.7877(6)
_cell_angle_alpha                90
_cell_angle_beta                 94.745(1)
_cell_angle_gamma                90
_cell_volume                     2768.12
_exptl_crystal_colour            yellow
_exptl_crystal_description       polyhedron
_cell_formula_units_Z            8
loop_
_atom_site_label
_atom_site_type_symbol
_atom_site_fract_x
_atom_site_fract_y
_atom_site_fract_z
N1 N 0.1389(2) 0.66646(14) 0.20142(6)
H1 H 0.183(3) 0.722(2) 0.2179(7)
C1 C 0.0562(3) 0.68230(19) 0.16099(7)
H2 H 0.032(3) 0.7571(19) 0.1506(6)
C2 C 0.0212(3) 0.58108(18) 0.14103(7)
H3 H -0.033(3) 0.5732(17) 0.1112(7)
C3 C 0.0932(3) 0.37518(17) 0.17118(6)
C4 C 0.1658(3) 0.3205(2) 0.20680(7)
H4 H 0.170(3) 0.241(2) 0.2081(6)
N2 N 0.2366(2) 0.37490(14) 0.24326(5)
C5 C 0.2319(3) 0.48751(18) 0.24348(6)
C6 C 0.1586(3) 0.55079(16) 0.20806(6)
C7 C 0.0855(3) 0.49530(16) 0.17051(6)
C8 C 0.3762(4) 0.4842(2) 0.31505(8)
H5 H 0.471(3) 0.435(2) 0.3062(8)
H6 H 0.296(3) 0.432(2) 0.3273(7)
H7 H 0.419(4) 0.540(2) 0.3349(9)
O1 O 0.01681(18) 0.30940(11) 0.13625(4)
O2 O 0.3006(2) 0.54744(12) 0.27824(4)
O3 O 0.2362(2) 0.35685(14) 0.09617(5)
C9 C 0.1030(3) 0.30703(17) 0.09975(6)
C10 C 0.0102(3) 0.23713(16) 0.06471(6)
C11 C 0.0565(3) 0.2552(2) 0.02250(7)
H8 H 0.143(3) 0.3135(19) 0.0179(7)
C12 C -0.0205(3) 0.19282(19) -0.01172(7)
H9 H 0.006(3) 0.205(2) -0.0426(8)
C13 C -0.1432(3) 0.11303(17) -0.00322(6)
C14 C -0.1919(3) 0.09328(19) 0.03815(7)
H10 H -0.279(3) 0.0353(19) 0.0430(7)
C15 C -0.1146(3) 0.15638(18) 0.07222(7)
H11 H -0.143(3) 0.145(2) 0.0994(8)
N3 N -0.2272(3) 0.04701(16) -0.03992(6)
O4 O -0.3402(3) -0.02098(16) -0.03264(6)
O5 O -0.1821(2) 0.06568(17) -0.07627(6)
loop_
_geom_bond_atom_site_label_1
_geom_bond_atom_site_label_2
_geom_bond_site_symmetry_1
_geom_bond_site_symmetry_2
N1 H1 1_555 1_555
C1 N1 1_555 1_555
H2 C1 1_555 1_555
C2 C1 1_555 1_555
H3 C2 1_555 1_555
C3 C4 1_555 1_555
C4 H4 1_555 1_555
N2 C4 1_555 1_555
C5 N2 1_555 1_555
C6 N1 1_555 1_555
C7 C2 1_555 1_555
C8 H5 1_555 1_555
H6 C8 1_555 1_555
H7 C8 1_555 1_555
O1 C3 1_555 1_555
O2 C5 1_555 1_555
O3 C9 1_555 1_555
C9 O1 1_555 1_555
C10 C9 1_555 1_555
C11 C10 1_555 1_555
H8 C11 1_555 1_555
C12 C11 1_555 1_555
H9 C12 1_555 1_555
C13 C12 1_555 1_555
C14 C13 1_555 1_555
H10 C14 1_555 1_555
C15 C10 1_555 1_555
H11 C15 1_555 1_555
N3 C13 1_555 1_555
O4 N3 1_555 1_555
O5 N3 1_555 1_555
C3 C7 1_555 1_555
C5 C6 1_555 1_555
C6 C7 1_555 1_555
C8 O2 1_555 1_555
C14 C15 1_555 1_555

#END
