
#######################################################################
#
#                 Cambridge Crystallographic Data Centre
#                                CCDC 
#
#######################################################################
#
# If this CIF has been generated from an entry in the Cambridge 
# Structural Database, then it will include bibliographic, chemical, 
# crystal, experimental, refinement or atomic coordinate data resulting 
# from the CCDC's data processing and validation procedures.
#
#######################################################################

data_NEZJOT
_chemical_formula_moiety         'C18 H26 O2'
_chemical_name_systematic        
anti-1,4,4-Trimethyl-2-(2-phenylethyl)-8-oxabicyclo[3.2.1]octan-3-ol
_symmetry_cell_setting           monoclinic
_symmetry_space_group_name_H-M   'P 21/c'
_symmetry_Int_Tables_number      14
_space_group_name_Hall           '-P 2ybc'
loop_
_symmetry_equiv_pos_site_id
_symmetry_equiv_pos_as_xyz
1 x,y,z
2 -x,1/2+y,1/2-z
3 -x,-y,-z
4 x,1/2-y,1/2+z
_cell_length_a                   11.7503(4)
_cell_length_b                   11.8895(4)
_cell_length_c                   12.1401(4)
_cell_angle_alpha                90
_cell_angle_beta                 109.609(2)
_cell_angle_gamma                90
_cell_volume                     1597.67
_exptl_crystal_colour            colorless
_exptl_crystal_description       block
_cell_formula_units_Z            4
loop_
_atom_site_label
_atom_site_type_symbol
_atom_site_fract_x
_atom_site_fract_y
_atom_site_fract_z
C1 C 0.13303(10) -0.22741(10) 0.83886(11)
H1 H 0.0956 -0.1999 0.8917
C2 C 0.16099(12) -0.34073(10) 0.83960(11)
H2 H 0.1420 -0.3902 0.8924
C3 C 0.21627(11) -0.38225(10) 0.76416(12)
H3 H 0.2360 -0.4598 0.7651
C4 C 0.24247(12) -0.30961(11) 0.68727(12)
H4 H 0.2802 -0.3375 0.6348
C5 C 0.21425(11) -0.19638(10) 0.68595(11)
H5 H 0.2329 -0.1475 0.6325
C6 C 0.15900(10) -0.15342(9) 0.76191(10)
C7 C 0.13176(10) -0.02953(9) 0.76356(11)
H6 H 0.0617 -0.0192 0.7905
H7 H 0.1096 0.0008 0.6831
C8 C 0.24014(9) 0.03665(8) 0.84414(9)
H8 H 0.3106 0.0242 0.8182
H9 H 0.2610 0.0070 0.9247
C9 C 0.21648(9) 0.16433(8) 0.84573(8)
H10 H 0.1426 0.1804 0.7770
C10 C 0.18860(9) 0.20332(9) 0.95575(9)
C11 C 0.09412(11) 0.13183(12) 0.98251(11)
H11 H 0.1199 0.0530 0.9905
H12 H 0.0168 0.1388 0.9187
H13 H 0.0846 0.1575 1.0557
C12 C 0.15977(10) 0.33008(10) 0.95275(10)
H14 H 0.1238 0.3570 0.8712
H15 H 0.1030 0.3460 0.9953
C13 C 0.28271(10) 0.38656(9) 1.01348(9)
H16 H 0.3016 0.4418 0.9611
H17 H 0.2838 0.4251 1.0861
C14 C 0.37205(9) 0.28836(9) 1.04056(9)
H18 H 0.4392 0.3028 1.1156
C15 C 0.42433(10) 0.25934(9) 0.94390(10)
C16 C 0.50381(11) 0.35513(10) 0.92623(12)
H19 H 0.5696 0.3695 0.9997
H20 H 0.4549 0.4233 0.9020
H21 H 0.5377 0.3338 0.8656
C17 C 0.50422(10) 0.15523(10) 0.98343(12)
H22 H 0.5329 0.1305 0.9203
H23 H 0.4573 0.0948 1.0026
H24 H 0.5736 0.1738 1.0527
C18 C 0.31991(10) 0.23487(8) 0.82866(9)
H25 H 0.3541 0.1914 0.7765
O1 O 0.29988(6) 0.19442(6) 1.05466(6)
O2 O 0.27151(8) 0.33777(6) 0.77014(7)
H26 H 0.2793 0.3387 0.7038
loop_
_geom_bond_atom_site_label_1
_geom_bond_atom_site_label_2
_geom_bond_site_symmetry_1
_geom_bond_site_symmetry_2
C1 H1 1_555 1_555
C2 C1 1_555 1_555
H2 C2 1_555 1_555
C3 C2 1_555 1_555
H3 C3 1_555 1_555
C4 C3 1_555 1_555
H4 C4 1_555 1_555
C5 C4 1_555 1_555
H5 C5 1_555 1_555
C6 C1 1_555 1_555
C7 C6 1_555 1_555
H6 C7 1_555 1_555
H7 C7 1_555 1_555
C8 C7 1_555 1_555
H8 C8 1_555 1_555
H9 C8 1_555 1_555
C9 C8 1_555 1_555
H10 C9 1_555 1_555
C10 C9 1_555 1_555
C11 C10 1_555 1_555
H11 C11 1_555 1_555
H12 C11 1_555 1_555
H13 C11 1_555 1_555
C12 C10 1_555 1_555
H14 C12 1_555 1_555
H15 C12 1_555 1_555
C13 C12 1_555 1_555
H16 C13 1_555 1_555
H17 C13 1_555 1_555
C14 C13 1_555 1_555
H18 C14 1_555 1_555
C15 C14 1_555 1_555
C16 C15 1_555 1_555
H19 C16 1_555 1_555
H20 C16 1_555 1_555
H21 C16 1_555 1_555
C17 C15 1_555 1_555
H22 C17 1_555 1_555
H23 C17 1_555 1_555
H24 C17 1_555 1_555
C18 C9 1_555 1_555
H25 C18 1_555 1_555
O1 C10 1_555 1_555
O2 C18 1_555 1_555
H26 O2 1_555 1_555
C5 C6 1_555 1_555
C14 O1 1_555 1_555
C15 C18 1_555 1_555

#END
