
#######################################################################
#
#                 Cambridge Crystallographic Data Centre
#                                CCDC 
#
#######################################################################
#
# If this CIF has been generated from an entry in the Cambridge 
# Structural Database, then it will include bibliographic, chemical, 
# crystal, experimental, refinement or atomic coordinate data resulting 
# from the CCDC's data processing and validation procedures.
#
#######################################################################

data_NEZLOT
_chemical_formula_moiety         'C20 H32 O2 S6'
_chemical_name_systematic        
4,5-bis(Hexylthio)-4',5'-bis(hydroxymethyl)tetrathiafulvalene
_symmetry_cell_setting           monoclinic
_symmetry_space_group_name_H-M   'P 21/c'
_symmetry_Int_Tables_number      14
_space_group_name_Hall           '-P 2ybc'
loop_
_symmetry_equiv_pos_site_id
_symmetry_equiv_pos_as_xyz
1 x,y,z
2 -x,1/2+y,1/2-z
3 -x,-y,-z
4 x,1/2-y,1/2+z
_cell_length_a                   25.359(2)
_cell_length_b                   12.554(1)
_cell_length_c                   7.867(1)
_cell_angle_alpha                90
_cell_angle_beta                 97.26(1)
_cell_angle_gamma                90
_cell_volume                     2484.43
_exptl_crystal_colour            yellow
_exptl_crystal_description       plates
_chemical_melting_point          97.5-99deg.C
_cell_formula_units_Z            4
_exptl_crystal_recrystallization_method 'ethyl acetate'
loop_
_atom_site_label
_atom_site_type_symbol
_atom_site_fract_x
_atom_site_fract_y
_atom_site_fract_z
S1 S 0.3705(1) 0.3996(2) 0.9331(3)
S2 S 0.2929(1) 0.2355(2) 1.0035(3)
S3 S 0.4545(1) 0.2198(2) 0.8573(3)
S4 S 0.3773(1) 0.0501(2) 0.9176(3)
S5 S 0.2972(2) 0.5821(2) 0.9760(4)
S6 S 0.2066(1) 0.3933(2) 1.0426(3)
O1 O 0.5587(2) 0.1514(5) 0.7661(7)
O2 O 0.4146(2) -0.1682(5) 0.8910(7)
C1 C 0.3556(3) 0.2630(6) 0.9426(10)
C2 C 0.3067(4) 0.4424(7) 0.9633(11)
C3 C 0.2706(4) 0.3707(7) 0.9920(11)
C4 C 0.3909(3) 0.1896(6) 0.9070(10)
C5 C 0.4703(4) 0.0884(7) 0.8015(10)
C6 C 0.4346(4) 0.0122(8) 0.8291(11)
C7 C 0.3052(4) 0.6256(7) 0.7644(15)
C8 C 0.2489(7) 0.5809(15) 0.6630(21)
C9 C 0.2329(8) 0.6239(20) 0.4813(28)
C10 C 0.1747(8) 0.5944(16) 0.4093(24)
C11 C 0.1567(8) 0.6523(20) 0.2426(32)
C12 C 0.0973(9) 0.6193(21) 0.2023(35)
C18 C 0.1674(4) 0.3283(9) 0.8658(14)
C19 C 0.1551(11) 0.3682(21) 0.6910(30)
C20 C 0.1262(10) 0.4740(22) 0.6884(41)
C21 C 0.0689(11) 0.4726(22) 0.7300(35)
C22 C 0.0397(17) 0.5796(32) 0.6961(89)
C23 C -0.0148(15) 0.5780(35) 0.7569(58)
C34 C 0.5188(4) 0.0757(7) 0.7150(11)
C35 C 0.4386(4) -0.1016(7) 0.7731(12)
H1 H 0.5709(26) 0.1471(48) 0.8745(27)
H2 H 0.4050(33) -0.2356(26) 0.8523(44)
H3 H 0.3356(4) 0.5937(7) 0.7233(15)
H4 H 0.3076(4) 0.7017(7) 0.7578(15)
H7 H 0.2515(7) 0.5024(15) 0.6547(21)
H8 H 0.2206(7) 0.5969(15) 0.7350(21)
H9 H 0.2581(8) 0.5988(20) 0.4035(28)
H10 H 0.2348(8) 0.7027(20) 0.4855(28)
H11 H 0.1741(8) 0.5167(16) 0.3878(24)
H12 H 0.1503(8) 0.6097(16) 0.4948(24)
H13 H 0.1763(8) 0.6282(20) 0.1487(32)
H14 H 0.1612(8) 0.7302(20) 0.2571(32)
H15 H 0.0815(9) 0.6539(21) 0.0962(35)
H16 H 0.0788(9) 0.6431(21) 0.2976(35)
H17 H 0.0938(9) 0.5419(21) 0.1899(35)
H29 H 0.1841(4) 0.2605(9) 0.8546(14)
H30 H 0.1336(4) 0.3134(9) 0.9032(14)
H35 H 0.1335(11) 0.3155(21) 0.6193(30)
H36 H 0.1888(11) 0.3784(21) 0.6417(30)
H37 H 0.1262(10) 0.5046(22) 0.5724(41)
H38 H 0.1468(10) 0.5231(22) 0.7699(41)
H39 H 0.0689(11) 0.4530(22) 0.8519(35)
H40 H 0.0488(11) 0.4170(22) 0.6598(35)
H41 H 0.0614(17) 0.6370(32) 0.7561(89)
H42 H 0.0356(17) 0.5955(32) 0.5719(89)
H43 H -0.0320(15) 0.6473(35) 0.7338(58)
H44 H -0.0108(15) 0.5638(35) 0.8804(58)
H45 H -0.0366(15) 0.5221(35) 0.6962(58)
H68 H 0.5091(4) 0.0794(7) 0.5892(11)
H69 H 0.5335(4) 0.0039(7) 0.7432(11)
H70 H 0.4765(4) -0.1218(7) 0.7770(12)
H71 H 0.4211(4) -0.1110(7) 0.6541(12)
C13? C 0.2831(8) 0.5987(19) 0.5929(27)
C14? C 0.2287(8) 0.6517(18) 0.5582(28)
C15? C 0.2022(9) 0.6134(19) 0.3822(26)
C16? C 0.1486(8) 0.6694(20) 0.3376(32)
C17? C 0.1209(12) 0.6303(24) 0.1588(32)
C24? C 0.1124(9) 0.3641(21) 0.8512(41)
C25? C 0.1024(10) 0.4749(18) 0.7766(30)
C26? C 0.0433(11) 0.5063(26) 0.7762(44)
C27? C 0.0343(16) 0.6185(31) 0.7094(71)
C28? C -0.0230(17) 0.6528(40) 0.7144(63)
C29? C 0.1190(10) 0.2862(28) 0.9318(37)
C30? C 0.0812(10) 0.2402(24) 0.7823(35)
C31? C 0.0348(12) 0.1758(31) 0.8384(42)
C32? C -0.0055(14) 0.1308(30) 0.6936(37)
C33? C -0.0477(19) 0.0643(43) 0.7602(81)
H5? H 0.3428(4) 0.6190(7) 0.7617(15)
H6? H 0.2987(4) 0.7008(7) 0.7696(15)
H18? H 0.2804(8) 0.5204(19) 0.5802(27)
H19? H 0.3053(8) 0.6268(19) 0.5081(27)
H20? H 0.2319(8) 0.7302(18) 0.5613(28)
H21? H 0.2081(8) 0.6289(18) 0.6506(28)
H22? H 0.2254(9) 0.6288(19) 0.2929(26)
H23? H 0.1964(9) 0.5355(19) 0.3845(26)
H24? H 0.1544(8) 0.7471(20) 0.3290(32)
H25? H 0.1260(8) 0.6570(20) 0.4294(32)
H26? H 0.0867(12) 0.6670(24) 0.1315(32)
H27? H 0.1147(12) 0.5536(24) 0.1679(32)
H28? H 0.1431(12) 0.6435(24) 0.0678(32)
H31? H 0.1689(4) 0.2525(9) 0.8809(14)
H32? H 0.1820(4) 0.3453(9) 0.7624(14)
H33? H 0.1569(4) 0.3789(9) 0.7764(14)
H34? H 0.1875(4) 0.2726(9) 0.8208(14)
H46? H 0.1011(9) 0.3621(21) 0.9670(41)
H47? H 0.0900(9) 0.3128(21) 0.7789(41)
H48? H 0.1120(10) 0.4771(18) 0.6584(30)
H49? H 0.1251(10) 0.5269(18) 0.8463(30)
H50? H 0.0206(11) 0.4564(26) 0.7023(44)
H51? H 0.0332(11) 0.5018(26) 0.8935(44)
H52? H 0.0426(16) 0.6224(31) 0.5899(71)
H53? H 0.0582(16) 0.6683(31) 0.7798(71)
H54? H -0.0285(17) 0.7257(40) 0.6713(63)
H55? H -0.0311(17) 0.6493(40) 0.8329(63)
H56? H -0.0466(17) 0.6042(40) 0.6429(63)
H57? H 0.1016(10) 0.3443(28) 0.0988(37)
H58? H 0.1293(10) 0.2299(28) 1.0177(37)
H59? H 0.1011(10) 0.1929(24) 0.7126(35)
H60? H 0.0668(10) 0.2998(24) 0.7078(35)
H61? H 0.0493(12) 0.1157(31) 0.9112(42)
H62? H 0.0155(12) 0.2228(31) 0.9105(42)
H63? H -0.0219(14) 0.1907(30) 0.6240(37)
H64? H 0.0136(14) 0.0857(30) 0.6181(37)
H65? H -0.0720(19) 0.0376(43) 0.6629(81)
H66? H -0.0674(19) 0.1090(43) 0.8327(81)
H67? H -0.0318(19) 0.0041(43) 0.8274(81)
loop_
_geom_bond_atom_site_label_1
_geom_bond_atom_site_label_2
_geom_bond_site_symmetry_1
_geom_bond_site_symmetry_2
S1 C1 1_555 1_555
S2 C1 1_555 1_555
S3 C4 1_555 1_555
S4 C4 1_555 1_555
S5 C2 1_555 1_555
S6 C3 1_555 1_555
O1 C34 1_555 1_555
O2 C35 1_555 1_555
C1 C4 1_555 1_555
C2 S1 1_555 1_555
C3 S2 1_555 1_555
C5 S3 1_555 1_555
C6 S4 1_555 1_555
C7 S5 1_555 1_555
C8 C7 1_555 1_555
C9 C8 1_555 1_555
C10 C9 1_555 1_555
C11 C10 1_555 1_555
C12 C11 1_555 1_555
C18 S6 1_555 1_555
C19 C18 1_555 1_555
C20 C19 1_555 1_555
C21 C20 1_555 1_555
C22 C21 1_555 1_555
C23 C22 1_555 1_555
C34 C5 1_555 1_555
C35 C6 1_555 1_555
H1 O1 1_555 1_555
H2 O2 1_555 1_555
H3 C7 1_555 1_555
H4 C7 1_555 1_555
H7 C8 1_555 1_555
H8 C8 1_555 1_555
H9 C9 1_555 1_555
H10 C9 1_555 1_555
H11 C10 1_555 1_555
H12 C10 1_555 1_555
H13 C11 1_555 1_555
H14 C11 1_555 1_555
H15 C12 1_555 1_555
H16 C12 1_555 1_555
H17 C12 1_555 1_555
H29 C18 1_555 1_555
H30 C18 1_555 1_555
H35 C19 1_555 1_555
H36 C19 1_555 1_555
H37 C20 1_555 1_555
H38 C20 1_555 1_555
H39 C21 1_555 1_555
H40 C21 1_555 1_555
H41 C22 1_555 1_555
H42 C22 1_555 1_555
H43 C23 1_555 1_555
H44 C23 1_555 1_555
H45 C23 1_555 1_555
H68 C34 1_555 1_555
H69 C34 1_555 1_555
H70 C35 1_555 1_555
H71 C35 1_555 1_555
C2 C3 1_555 1_555
C5 C6 1_555 1_555

#END
