
#######################################################################
#
#                 Cambridge Crystallographic Data Centre
#                                CCDC 
#
#######################################################################
#
# If this CIF has been generated from an entry in the Cambridge 
# Structural Database, then it will include bibliographic, chemical, 
# crystal, experimental, refinement or atomic coordinate data resulting 
# from the CCDC's data processing and validation procedures.
#
#######################################################################

data_NEZNOY
_chemical_formula_moiety         'C13 H17 Cl1 O3 S1'
_chemical_name_systematic        
1-[chloro(phenylsulfonyl)methyl]cyclohexan-1-ol
_symmetry_cell_setting           monoclinic
_symmetry_space_group_name_H-M   'P 21/n'
_symmetry_Int_Tables_number      14
_space_group_name_Hall           '-P 2yn'
loop_
_symmetry_equiv_pos_site_id
_symmetry_equiv_pos_as_xyz
1 x,y,z
2 1/2-x,1/2+y,1/2-z
3 -x,-y,-z
4 1/2+x,1/2-y,1/2+z
_cell_length_a                   19.6959(5)
_cell_length_b                   6.9198(2)
_cell_length_c                   21.5771(6)
_cell_angle_alpha                90
_cell_angle_beta                 114.9120(10)
_cell_angle_gamma                90
_cell_volume                     2667.16
_exptl_crystal_colour            colorless
_exptl_crystal_description       block
_cell_formula_units_Z            8
loop_
_atom_site_label
_atom_site_type_symbol
_atom_site_fract_x
_atom_site_fract_y
_atom_site_fract_z
Cl1 Cl 0.53259(2) 0.45599(6) 0.37168(2)
S1 S 0.46138(2) 0.82944(6) 0.35537(2)
O1 O 0.42477(7) 0.95285(19) 0.38616(8)
O2 O 0.42719(7) 0.8036(2) 0.28269(7)
O3 O 0.43184(7) 0.32362(19) 0.43702(7)
H1 H 0.4329(15) 0.231(4) 0.4150(14)
C1 C 0.47437(10) 0.5988(2) 0.39878(9)
H2 H 0.503918 0.624900 0.448611
C2 C 0.40301(10) 0.4846(3) 0.39171(9)
C3 C 0.35418(10) 0.4192(3) 0.31873(9)
H3 H 0.383601 0.332453 0.302866
H4 H 0.339243 0.533379 0.288271
C4 C 0.28384(10) 0.3130(3) 0.31388(10)
H5 H 0.251568 0.283916 0.265360
H6 H 0.298569 0.188816 0.338756
C5 C 0.23946(10) 0.4322(3) 0.34372(10)
H7 H 0.196685 0.355209 0.342829
H8 H 0.219310 0.549219 0.315520
C6 C 0.28937(11) 0.4914(3) 0.41720(10)
H9 H 0.306107 0.374396 0.446130
H10 H 0.260300 0.572385 0.435191
C7 C 0.35773(10) 0.6042(3) 0.42082(10)
H11 H 0.389813 0.638052 0.468955
H12 H 0.341143 0.725816 0.394565
C8 C 0.55305(10) 0.9189(3) 0.38077(9)
C9 C 0.58060(10) 0.9438(3) 0.33191(10)
H13 H 0.551726 0.906469 0.285825
C10 C 0.65117(11) 1.0243(3) 0.35151(10)
H14 H 0.670648 1.044019 0.318517
C11 C 0.69326(10) 1.0759(3) 0.41887(10)
H15 H 0.741641 1.130304 0.432010
C12 C 0.66497(10) 1.0485(3) 0.46761(10)
H16 H 0.694372 1.082914 0.513900
C13 C 0.59440(10) 0.9714(3) 0.44880(9)
H17 H 0.574422 0.954435 0.481562
Cl2 Cl 0.65088(2) 0.44771(6) 0.12914(2)
S2 S 0.59468(3) 0.82332(6) 0.14298(2)
O4 O 0.62658(8) 0.7991(2) 0.21569(7)
O5 O 0.52994(8) 0.94702(19) 0.11145(8)
O6 O 0.48889(8) 0.31974(19) 0.06226(7)
H18 H 0.5117(15) 0.224(4) 0.0822(14)
C14 C 0.56786(9) 0.5912(2) 0.10089(9)
H19 H 0.551679 0.614838 0.050954
C15 C 0.50275(10) 0.4794(3) 0.10835(9)
C16 C 0.43076(10) 0.6004(3) 0.07988(10)
H20 H 0.438599 0.720280 0.107086
H21 H 0.418802 0.637502 0.032094
C17 C 0.36513(10) 0.4873(3) 0.08215(10)
H22 H 0.319952 0.570182 0.065287
H23 H 0.354423 0.373435 0.051728
C18 C 0.38280(11) 0.4207(3) 0.15479(10)
H24 H 0.389158 0.534867 0.184393
H25 H 0.340485 0.343360 0.154704
C19 C 0.45411(11) 0.2993(3) 0.18338(10)
H26 H 0.445915 0.178622 0.156543
H27 H 0.466051 0.263720 0.231297
C20 C 0.52014(10) 0.4104(3) 0.18066(9)
H28 H 0.531868 0.523345 0.211611
H29 H 0.564781 0.325693 0.196910
C21 C 0.66392(10) 0.9117(3) 0.11868(9)
C22 C 0.64283(10) 0.9647(3) 0.05086(9)
H30 H 0.592886 0.946260 0.017729
C23 C 0.69654(10) 1.0451(3) 0.03278(10)
H31 H 0.683651 1.080349 -0.013375
C24 C 0.76885(11) 1.0742(3) 0.08184(10)
H32 H 0.805309 1.129128 0.069088
C25 C 0.78839(11) 1.0237(3) 0.14926(10)
H33 H 0.837912 1.046419 0.182605
C26 C 0.73613(10) 0.9402(3) 0.16848(10)
H34 H 0.749408 0.903398 0.214554
loop_
_geom_bond_atom_site_label_1
_geom_bond_atom_site_label_2
_geom_bond_site_symmetry_1
_geom_bond_site_symmetry_2
Cl1 C1 1_555 1_555
S1 O1 1_555 1_555
O2 S1 1_555 1_555
O3 H1 1_555 1_555
C1 S1 1_555 1_555
H2 C1 1_555 1_555
C2 O3 1_555 1_555
C3 C2 1_555 1_555
H3 C3 1_555 1_555
H4 C3 1_555 1_555
C4 C3 1_555 1_555
H5 C4 1_555 1_555
H6 C4 1_555 1_555
C5 C4 1_555 1_555
H7 C5 1_555 1_555
H8 C5 1_555 1_555
C6 C5 1_555 1_555
H9 C6 1_555 1_555
H10 C6 1_555 1_555
C7 C2 1_555 1_555
H11 C7 1_555 1_555
H12 C7 1_555 1_555
C8 S1 1_555 1_555
C9 C8 1_555 1_555
H13 C9 1_555 1_555
C10 C9 1_555 1_555
H14 C10 1_555 1_555
C11 C10 1_555 1_555
H15 C11 1_555 1_555
C12 C11 1_555 1_555
H16 C12 1_555 1_555
C13 C8 1_555 1_555
H17 C13 1_555 1_555
Cl2 C14 1_555 1_555
S2 O4 1_555 1_555
O5 S2 1_555 1_555
O6 H18 1_555 1_555
C14 S2 1_555 1_555
H19 C14 1_555 1_555
C15 O6 1_555 1_555
C16 C15 1_555 1_555
H20 C16 1_555 1_555
H21 C16 1_555 1_555
C17 C16 1_555 1_555
H22 C17 1_555 1_555
H23 C17 1_555 1_555
C18 C17 1_555 1_555
H24 C18 1_555 1_555
H25 C18 1_555 1_555
C19 C18 1_555 1_555
H26 C19 1_555 1_555
H27 C19 1_555 1_555
C20 C15 1_555 1_555
H28 C20 1_555 1_555
H29 C20 1_555 1_555
C21 S2 1_555 1_555
C22 C21 1_555 1_555
H30 C22 1_555 1_555
C23 C22 1_555 1_555
H31 C23 1_555 1_555
C24 C23 1_555 1_555
H32 C24 1_555 1_555
C25 C24 1_555 1_555
H33 C25 1_555 1_555
C26 C21 1_555 1_555
H34 C26 1_555 1_555
C1 C2 1_555 1_555
C6 C7 1_555 1_555
C12 C13 1_555 1_555
C14 C15 1_555 1_555
C19 C20 1_555 1_555
C25 C26 1_555 1_555

#END
