
#######################################################################
#
#                 Cambridge Crystallographic Data Centre
#                                CCDC 
#
#######################################################################
#
# If this CIF has been generated from an entry in the Cambridge 
# Structural Database, then it will include bibliographic, chemical, 
# crystal, experimental, refinement or atomic coordinate data resulting 
# from the CCDC's data processing and validation procedures.
#
#######################################################################

data_NEZPAM
_chemical_formula_moiety         'C18 H18 N2'
_chemical_name_systematic        
3-(2-phenylethyl)-2,3-dihydro-1H-pyrrolo[1,2-a]benzimidazole
_symmetry_cell_setting           monoclinic
_symmetry_space_group_name_H-M   'P 21'
_symmetry_Int_Tables_number      4
_space_group_name_Hall           'P 2yb'
loop_
_symmetry_equiv_pos_site_id
_symmetry_equiv_pos_as_xyz
1 x,y,z
2 -x,1/2+y,-z
_cell_length_a                   8.57436(15)
_cell_length_b                   6.43605(18)
_cell_length_c                   13.5714(3)
_cell_angle_alpha                90
_cell_angle_beta                 97.6815(17)
_cell_angle_gamma                90
_cell_volume                     742.217
_exptl_crystal_colour            colorless
_exptl_crystal_description       prism
_cell_formula_units_Z            2
loop_
_atom_site_label
_atom_site_type_symbol
_atom_site_fract_x
_atom_site_fract_y
_atom_site_fract_z
N1 N -0.76501(19) -0.8031(3) -0.50220(13)
N2 N -0.6811(2) -0.4808(3) -0.46170(12)
C1 C -0.6878(2) -0.6319(3) -0.52692(14)
C2 C -0.8124(2) -0.7657(4) -0.41067(15)
C3 C -0.7602(2) -0.5629(4) -0.38696(15)
C4 C -0.7915(3) -0.4754(5) -0.29787(17)
H1 H -0.7594 -0.3409 -0.2804
C5 C -0.8712(3) -0.5932(7) -0.23653(18)
H2 H -0.8925 -0.5370 -0.1766
C6 C -0.9204(3) -0.7931(7) -0.2615(2)
H3 H -0.9734 -0.8683 -0.2178
C7 C -0.8931(3) -0.8828(5) -0.3488(2)
H4 H -0.9273 -1.0168 -0.3658
C8 C -0.7685(3) -0.9722(4) -0.5734(2)
H5 H -0.8735 -1.0295 -0.5891
H6 H -0.6959 -1.0821 -0.5493
C9 C -0.7165(4) -0.8615(4) -0.66230(18)
H7 H -0.8073 -0.8241 -0.7095
H8 H -0.6491 -0.9513 -0.6955
C10 C -0.6261(2) -0.6649(4) -0.62326(15)
H9 H -0.5137 -0.6978 -0.6098
C11 C -0.6482(3) -0.4804(4) -0.69315(16)
H10 H -0.5939 -0.3614 -0.6608
H11 H -0.7594 -0.4466 -0.7057
C12 C -0.5879(4) -0.5172(5) -0.7921(2)
H12 H -0.4739 -0.5237 -0.7810
H13 H -0.6264 -0.6503 -0.8185
C13 C -0.6373(2) -0.3521(4) -0.86712(14)
C14 C -0.5485(3) -0.1759(5) -0.87252(16)
H14 H -0.4561 -0.1601 -0.8288
C15 C -0.5927(6) -0.0226(6) -0.9408(2)
H15 H -0.5292 0.0940 -0.9433
C16 C -0.7259(6) -0.0390(9) -1.0038(3)
H16 H -0.7550 0.0653 -1.0501
C17 C -0.8188(4) -0.2094(10) -0.9997(3)
H17 H -0.9127 -0.2195 -1.0425
C18 C -0.7750(3) -0.3697(6) -0.9320(2)
H18 H -0.8381 -0.4870 -0.9307
loop_
_geom_bond_atom_site_label_1
_geom_bond_atom_site_label_2
_geom_bond_site_symmetry_1
_geom_bond_site_symmetry_2
N1 C1 1_555 1_555
N2 C1 1_555 1_555
C1 C10 1_555 1_555
C2 N1 1_555 1_555
C3 N2 1_555 1_555
C4 C3 1_555 1_555
H1 C4 1_555 1_555
C5 C4 1_555 1_555
H2 C5 1_555 1_555
C6 C5 1_555 1_555
H3 C6 1_555 1_555
C7 C2 1_555 1_555
H4 C7 1_555 1_555
C8 N1 1_555 1_555
H5 C8 1_555 1_555
H6 C8 1_555 1_555
C9 C8 1_555 1_555
H7 C9 1_555 1_555
H8 C9 1_555 1_555
C10 C9 1_555 1_555
H9 C10 1_555 1_555
C11 C10 1_555 1_555
H10 C11 1_555 1_555
H11 C11 1_555 1_555
C12 C11 1_555 1_555
H12 C12 1_555 1_555
H13 C12 1_555 1_555
C13 C12 1_555 1_555
C14 C13 1_555 1_555
H14 C14 1_555 1_555
C15 C14 1_555 1_555
H15 C15 1_555 1_555
C16 C15 1_555 1_555
H16 C16 1_555 1_555
C17 C16 1_555 1_555
H17 C17 1_555 1_555
C18 C13 1_555 1_555
H18 C18 1_555 1_555
C2 C3 1_555 1_555
C6 C7 1_555 1_555
C17 C18 1_555 1_555

#END
