
#######################################################################
#
#                 Cambridge Crystallographic Data Centre
#                                CCDC 
#
#######################################################################
#
# If this CIF has been generated from an entry in the Cambridge 
# Structural Database, then it will include bibliographic, chemical, 
# crystal, experimental, refinement or atomic coordinate data resulting 
# from the CCDC's data processing and validation procedures.
#
#######################################################################

data_NEZVAS
_chemical_formula_moiety         'C28 H37 N3 O3 S1'
_chemical_name_systematic        
N-cyclohexyl-3-(cyclohexylamino)-3-{[(4-methylphenyl)sulfonyl]imino}-2-phenylpropanamide
_symmetry_cell_setting           monoclinic
_symmetry_space_group_name_H-M   'P 21/c'
_symmetry_Int_Tables_number      14
_space_group_name_Hall           '-P 2ybc'
loop_
_symmetry_equiv_pos_site_id
_symmetry_equiv_pos_as_xyz
1 x,y,z
2 -x,1/2+y,1/2-z
3 -x,-y,-z
4 x,1/2-y,1/2+z
_cell_length_a                   9.706(2)
_cell_length_b                   25.862(7)
_cell_length_c                   11.622(3)
_cell_angle_alpha                90
_cell_angle_beta                 114.351(3)
_cell_angle_gamma                90
_cell_volume                     2657.78
_exptl_crystal_colour            colorless
_exptl_crystal_description       tablet
_cell_formula_units_Z            4
_exptl_crystal_recrystallization_method 
'Re-crystallisation from solvent: dichloromethane/hexane'
loop_
_atom_site_label
_atom_site_type_symbol
_atom_site_fract_x
_atom_site_fract_y
_atom_site_fract_z
C1 C 0.3674(3) 0.38679(9) 0.5916(2)
N1 N 0.3344(2) 0.41871(8) 0.66441(19)
S1 S 0.41228(8) 0.47334(2) 0.71606(6)
O1 O 0.4375(2) 0.50362(6) 0.62140(17)
O2 O 0.5390(2) 0.46833(7) 0.83587(16)
C2 C 0.2653(3) 0.50400(9) 0.7424(2)
C3 C 0.2724(3) 0.50786(10) 0.8638(2)
H1 H 0.354651 0.493052 0.933117
C4 C 0.1589(3) 0.53338(11) 0.8830(3)
H2 H 0.165317 0.536668 0.966514
C5 C 0.0360(3) 0.55430(12) 0.7838(3)
C6 C 0.0311(3) 0.55017(12) 0.6627(3)
H3 H -0.051947 0.564556 0.593338
C7 C 0.1443(3) 0.52564(11) 0.6417(3)
H4 H 0.139816 0.523502 0.558658
C8 C -0.0904(4) 0.58052(16) 0.8042(4)
H5 H -0.166178 0.554784 0.800517
H6 H -0.137414 0.606533 0.738164
H7 H -0.049937 0.597352 0.887088
N2 N 0.2920(3) 0.34256(9) 0.5602(2)
H8 H 0.321(3) 0.3219(12) 0.514(3)
C9 C 0.1865(3) 0.32340(10) 0.6108(3)
H9 H 0.167512 0.351492 0.661606
C10 C 0.2557(3) 0.27805(14) 0.6957(3)
H10 H 0.350992 0.289063 0.765856
H11 H 0.280594 0.250876 0.647330
C11 C 0.1494(4) 0.25568(15) 0.7499(3)
H12 H 0.197275 0.225136 0.802556
H13 H 0.131448 0.281798 0.804435
C12 C 0.0027(4) 0.24032(14) 0.6472(3)
H14 H -0.066162 0.227931 0.684691
H15 H 0.019645 0.211463 0.598555
C13 C -0.0695(3) 0.28429(14) 0.5603(3)
H16 H -0.098065 0.311392 0.606573
H17 H -0.162994 0.272059 0.489935
C14 C 0.0371(3) 0.30750(13) 0.5066(3)
H18 H 0.055492 0.281716 0.451531
H19 H -0.011571 0.338062 0.454291
C15 C 0.4883(3) 0.39629(9) 0.5416(2)
H20 H 0.478108 0.432905 0.511578
C16 C 0.6465(3) 0.38993(10) 0.6473(2)
C17 C 0.6804(4) 0.34886(12) 0.7303(3)
H21 H 0.604014 0.324569 0.723622
C18 C 0.8259(4) 0.34292(15) 0.8236(3)
H22 H 0.848783 0.314677 0.880745
C19 C 0.9363(4) 0.37779(15) 0.8331(3)
H23 H 1.035516 0.373864 0.897378
C20 C 0.9040(4) 0.41840(14) 0.7500(4)
H24 H 0.981282 0.442159 0.755837
C21 C 0.7591(3) 0.42470(12) 0.6578(3)
H25 H 0.736783 0.453138 0.601257
C22 C 0.4746(3) 0.36122(10) 0.4308(2)
O3 O 0.4540(2) 0.31389(7) 0.43257(17)
N3 N 0.4896(3) 0.38466(9) 0.3348(2)
H26 H 0.505(3) 0.4169(11) 0.339(3)
C23 C 0.4804(3) 0.35625(10) 0.2225(2)
H27 H 0.392133 0.332320 0.199938
C24 C 0.4426(12) 0.3917(3) 0.1117(7)
H28 H 0.520863 0.418936 0.132366
H29 H 0.344190 0.408671 0.092564
C25 C 0.4346(12) 0.3611(4) -0.0041(8)
H30 H 0.345098 0.338103 -0.033327
H31 H 0.422282 0.385442 -0.073389
C26 C 0.5758(10) 0.3288(3) 0.0258(8)
H32 H 0.565314 0.308761 -0.049930
H33 H 0.664378 0.351964 0.048080
C27 C 0.6014(7) 0.2923(3) 0.1338(6)
H34 H 0.695140 0.272238 0.152883
H35 H 0.515959 0.267720 0.109742
C28 C 0.6150(7) 0.3226(3) 0.2508(6)
H36 H 0.624387 0.298093 0.319158
H37 H 0.707421 0.344145 0.280552
H38? H 0.430871 0.321862 0.216831
C29? C 0.3941(19) 0.3883(7) 0.1054(12)
H39? H 0.445322 0.422067 0.113310
H40? H 0.290857 0.394973 0.099129
C30? C 0.3835(17) 0.3613(10) -0.0157(15)
H41? H 0.329092 0.328076 -0.025590
H42? H 0.325076 0.383252 -0.089608
C31? C 0.5386(14) 0.3514(6) -0.0113(11)
H43? H 0.528981 0.331104 -0.086503
H44? H 0.587089 0.384783 -0.013900
C32? C 0.6372(17) 0.3224(7) 0.1063(10)
H45? H 0.740761 0.319563 0.110284
H46? H 0.597019 0.286917 0.102689
C33? C 0.6432(10) 0.3496(5) 0.2255(9)
H47? H 0.690560 0.384038 0.232504
H48? H 0.706705 0.329172 0.300790
loop_
_geom_bond_atom_site_label_1
_geom_bond_atom_site_label_2
_geom_bond_site_symmetry_1
_geom_bond_site_symmetry_2
C1 N1 1_555 1_555
N1 S1 1_555 1_555
S1 O1 1_555 1_555
O2 S1 1_555 1_555
C2 S1 1_555 1_555
C3 C2 1_555 1_555
H1 C3 1_555 1_555
C4 C3 1_555 1_555
H2 C4 1_555 1_555
C5 C4 1_555 1_555
C6 C5 1_555 1_555
H3 C6 1_555 1_555
C7 C2 1_555 1_555
H4 C7 1_555 1_555
C8 C5 1_555 1_555
H5 C8 1_555 1_555
H6 C8 1_555 1_555
H7 C8 1_555 1_555
N2 C1 1_555 1_555
H8 N2 1_555 1_555
C9 N2 1_555 1_555
H9 C9 1_555 1_555
C10 C9 1_555 1_555
H10 C10 1_555 1_555
H11 C10 1_555 1_555
C11 C10 1_555 1_555
H12 C11 1_555 1_555
H13 C11 1_555 1_555
C12 C11 1_555 1_555
H14 C12 1_555 1_555
H15 C12 1_555 1_555
C13 C12 1_555 1_555
H16 C13 1_555 1_555
H17 C13 1_555 1_555
C14 C9 1_555 1_555
H18 C14 1_555 1_555
H19 C14 1_555 1_555
C15 C1 1_555 1_555
H20 C15 1_555 1_555
C16 C15 1_555 1_555
C17 C16 1_555 1_555
H21 C17 1_555 1_555
C18 C17 1_555 1_555
H22 C18 1_555 1_555
C19 C18 1_555 1_555
H23 C19 1_555 1_555
C20 C19 1_555 1_555
H24 C20 1_555 1_555
C21 C16 1_555 1_555
H25 C21 1_555 1_555
C22 C15 1_555 1_555
O3 C22 1_555 1_555
N3 C22 1_555 1_555
H26 N3 1_555 1_555
C23 N3 1_555 1_555
H27 C23 1_555 1_555
C24 C23 1_555 1_555
H28 C24 1_555 1_555
H29 C24 1_555 1_555
C25 C24 1_555 1_555
H30 C25 1_555 1_555
H31 C25 1_555 1_555
C26 C25 1_555 1_555
H32 C26 1_555 1_555
H33 C26 1_555 1_555
C27 C26 1_555 1_555
H34 C27 1_555 1_555
H35 C27 1_555 1_555
C28 C23 1_555 1_555
H36 C28 1_555 1_555
H37 C28 1_555 1_555
C6 C7 1_555 1_555
C13 C14 1_555 1_555
C20 C21 1_555 1_555
C27 C28 1_555 1_555

#END
