
#######################################################################
#
#                 Cambridge Crystallographic Data Centre
#                                CCDC 
#
#######################################################################
#
# If this CIF has been generated from an entry in the Cambridge 
# Structural Database, then it will include bibliographic, chemical, 
# crystal, experimental, refinement or atomic coordinate data resulting 
# from the CCDC's data processing and validation procedures.
#
#######################################################################

data_NIBCIN
_chemical_formula_moiety         'C20 H14 O3'
_chemical_name_systematic        
2-(4-methoxyphenyl)naphtho[2,1-b]furan-1-carbaldehyde
_symmetry_cell_setting           orthorhombic
_symmetry_space_group_name_H-M   'P b c a'
_symmetry_Int_Tables_number      61
_space_group_name_Hall           '-P 2ac 2ab'
loop_
_symmetry_equiv_pos_site_id
_symmetry_equiv_pos_as_xyz
1 x,y,z
2 1/2-x,-y,1/2+z
3 -x,1/2+y,1/2-z
4 1/2+x,1/2-y,-z
5 -x,-y,-z
6 1/2+x,y,1/2-z
7 x,1/2-y,1/2+z
8 1/2-x,1/2+y,z
_cell_length_a                   7.2027(13)
_cell_length_b                   18.296(3)
_cell_length_c                   22.189(4)
_cell_angle_alpha                90
_cell_angle_beta                 90
_cell_angle_gamma                90
_cell_volume                     2924.08
_exptl_crystal_colour            yellow
_exptl_crystal_description       prismatic
_cell_formula_units_Z            8
loop_
_atom_site_label
_atom_site_type_symbol
_atom_site_fract_x
_atom_site_fract_y
_atom_site_fract_z
O1 O 0.04522(17) 1.01228(6) 0.35947(5)
O2 O -0.0738(2) 0.83228(7) 0.21855(6)
O3 O -0.00014(18) 0.78724(6) 0.56870(5)
C1 C 0.0840(3) 1.12015(11) 0.12927(9)
H1 H 0.1146 1.1689 0.1225
C2 C 0.0492(3) 1.07598(13) 0.08157(10)
H2 H 0.0557 1.0946 0.0426
C3 C 0.0040(3) 1.00346(12) 0.09060(9)
H3 H -0.0219 0.9737 0.0577
C4 C -0.0029(3) 0.97510(10) 0.14713(8)
H4 H -0.0309 0.9259 0.1523
C5 C 0.0315(2) 1.01893(9) 0.19793(7)
C6 C 0.0749(3) 1.09389(9) 0.18871(8)
C7 C 0.1046(3) 1.14116(9) 0.23827(9)
H5 H 0.1328 1.1900 0.2309
C8 C 0.0934(3) 1.11780(9) 0.29579(8)
H6 H 0.1108 1.1492 0.3283
C9 C 0.0545(2) 1.04406(8) 0.30370(7)
C10 C 0.0256(2) 0.99397(8) 0.25890(7)
C11 C -0.0048(2) 0.92540(8) 0.29012(7)
C12 C 0.0127(2) 0.94009(8) 0.35027(7)
C13 C 0.0093(2) 0.89663(8) 0.40549(7)
C14 C 0.0919(2) 0.82854(9) 0.40977(7)
H7 H 0.1491 0.8085 0.3760
C15 C 0.0910(3) 0.78990(9) 0.46316(7)
H8 H 0.1449 0.7438 0.4650
C16 C 0.0099(2) 0.81984(9) 0.51373(7)
C17 C -0.0714(3) 0.88836(9) 0.51025(7)
H9 H -0.1265 0.9088 0.5442
C18 C -0.0709(3) 0.92596(8) 0.45716(7)
H10 H -0.1252 0.9720 0.4555
C19 C -0.0595(3) 0.85352(9) 0.26961(8)
H11 H -0.0869 0.8196 0.2995
C20 C 0.0787(3) 0.71698(10) 0.57585(8)
H12 H 0.0181 0.6832 0.5492
H13 H 0.0627 0.7011 0.6168
H14 H 0.2087 0.7189 0.5664
loop_
_geom_bond_atom_site_label_1
_geom_bond_atom_site_label_2
_geom_bond_site_symmetry_1
_geom_bond_site_symmetry_2
O1 C9 1_555 1_555
O2 C19 1_555 1_555
O3 C16 1_555 1_555
C1 H1 1_555 1_555
C2 C1 1_555 1_555
H2 C2 1_555 1_555
C3 C2 1_555 1_555
H3 C3 1_555 1_555
C4 C3 1_555 1_555
H4 C4 1_555 1_555
C5 C4 1_555 1_555
C6 C1 1_555 1_555
C7 C6 1_555 1_555
H5 C7 1_555 1_555
C8 C7 1_555 1_555
H6 C8 1_555 1_555
C9 C8 1_555 1_555
C10 C5 1_555 1_555
C11 C10 1_555 1_555
C12 O1 1_555 1_555
C13 C12 1_555 1_555
C14 C13 1_555 1_555
H7 C14 1_555 1_555
C15 C14 1_555 1_555
H8 C15 1_555 1_555
C16 C15 1_555 1_555
C17 C16 1_555 1_555
H9 C17 1_555 1_555
C18 C13 1_555 1_555
H10 C18 1_555 1_555
C19 C11 1_555 1_555
H11 C19 1_555 1_555
C20 O3 1_555 1_555
H12 C20 1_555 1_555
H13 C20 1_555 1_555
H14 C20 1_555 1_555
C5 C6 1_555 1_555
C9 C10 1_555 1_555
C11 C12 1_555 1_555
C17 C18 1_555 1_555

#END
