
#######################################################################
#
#                 Cambridge Crystallographic Data Centre
#                                CCDC 
#
#######################################################################
#
# If this CIF has been generated from an entry in the Cambridge 
# Structural Database, then it will include bibliographic, chemical, 
# crystal, experimental, refinement or atomic coordinate data resulting 
# from the CCDC's data processing and validation procedures.
#
#######################################################################

data_NIBCUX
_chemical_formula_moiety         'C17 H23 N1 O2'
_chemical_name_systematic        
1-t-Butyl-3-(\a-hydroxybenzyl)-4-ethenylpyrrolidin-2-one
_symmetry_cell_setting           triclinic
_symmetry_space_group_name_H-M   'P -1'
_symmetry_Int_Tables_number      2
_space_group_name_Hall           '-P 1'
loop_
_symmetry_equiv_pos_site_id
_symmetry_equiv_pos_as_xyz
1 x,y,z
2 -x,-y,-z
_cell_length_a                   10.712(2)
_cell_length_b                   12.517(3)
_cell_length_c                   12.698(3)
_cell_angle_alpha                99.61(3)
_cell_angle_beta                 94.62(3)
_cell_angle_gamma                104.17(3)
_cell_volume                     1614.43
_cell_formula_units_Z            4
_exptl_crystal_recrystallization_method 'diethyl ether'
loop_
_atom_site_label
_atom_site_type_symbol
_atom_site_fract_x
_atom_site_fract_y
_atom_site_fract_z
O1 O 0.1237(2) 0.8578(1) 0.5133(1)
O2 O 0.0881(2) 1.0811(2) 0.4195(1)
H1 H 0.0270 1.1048 0.4386
N1 N 0.2278(2) 0.8485(2) 0.3627(2)
C1 C 0.1983(3) 0.9017(2) 0.4538(2)
C2 C 0.2724(2) 1.0242(2) 0.4760(2)
H3 H 0.3420 1.0366 0.5353
C3 C 0.3340(2) 1.0404(2) 0.3736(2)
H4 H 0.2763 1.0687 0.3281
C4 C 0.3300(3) 0.9210(2) 0.3174(2)
H5 H 0.3091 0.9114 0.2401
H6 H 0.4128 0.9045 0.3326
C5 C 0.1838(2) 1.0998(2) 0.5094(2)
H7 H 0.1407 1.0745 0.5694
C6 C 0.2562(2) 1.2220(2) 0.5451(2)
C7 C 0.3339(3) 1.2581(3) 0.6419(2)
H8 H 0.3405 1.2062 0.6853
C8 C 0.4026(3) 1.3686(3) 0.6771(3)
H9 H 0.4546 1.3907 0.7433
C9 C 0.3937(4) 1.4456(3) 0.6141(4)
H10 H 0.4397 1.5204 0.6370
C10 C 0.3171(4) 1.4117(3) 0.5176(4)
H11 H 0.3108 1.4638 0.4744
C11 C 0.2478(3) 1.2999(3) 0.4829(3)
H12 H 0.1954 1.2779 0.4169
C12 C 0.4665(3) 1.1226(2) 0.3915(2)
H13 H 0.4817 1.1840 0.4478
C13 C 0.5606(3) 1.1154(3) 0.3357(2)
H14 H 0.5498 1.0554 0.2786
H15 H 0.6392 1.1702 0.3526
C14 C 0.1772(3) 0.7250(2) 0.3216(2)
C15 C 0.2240(3) 0.6614(2) 0.4028(2)
H16 H 0.3172 0.6834 0.4153
H17 H 0.1945 0.5821 0.3749
H18 H 0.1899 0.6787 0.4694
C16 C 0.0294(3) 0.6951(2) 0.3038(2)
H19 H -0.0028 0.7101 0.3717
H20 H -0.0038 0.6169 0.2722
H21 H 0.0017 0.7395 0.2565
C17 C 0.2268(3) 0.6939(2) 0.2145(2)
H22 H 0.1987 0.7348 0.1639
H23 H 0.1931 0.6147 0.1871
H24 H 0.3199 0.7124 0.2250
O3 O -0.3061(2) 1.1520(1) -0.0126(1)
O4 O -0.4402(2) 0.9231(2) 0.1027(1)
H2 H -0.5179 0.9046 0.0801
N2 N -0.1792(2) 1.1849(2) 0.1494(2)
C18 C -0.2465(2) 1.1198(2) 0.0582(2)
C19 C -0.2351(2) 1.0009(2) 0.0494(2)
H25 H -0.1788 0.9877 -0.0058
C20 C -0.1634(2) 1.0004(2) 0.1587(2)
H26 H -0.2288 0.9706 0.2035
C21 C -0.1043(3) 1.1249(2) 0.2073(2)
H27 H -0.1115 1.1398 0.2837
H28 H -0.0134 1.1473 0.1973
C22 C -0.3674(2) 0.9150(2) 0.0148(2)
H29 H -0.4119 0.9372 -0.0451
C23 C -0.3557(2) 0.7978(2) -0.0235(2)
C24 C -0.3286(3) 0.7658(3) -0.1265(2)
H30 H -0.3201 0.8164 -0.1730
C25 C -0.3136(4) 0.6585(4) -0.1618(3)
H31 H -0.2953 0.6372 -0.2313
C26 C -0.3265(4) 0.5854(4) -0.0925(5)
H32 H -0.3163 0.5138 -0.1153
C27 C -0.3538(4) 0.6147(3) 0.0092(4)
H33 H -0.3624 0.5638 0.0555
C28 C -0.3688(3) 0.7208(3) 0.0429(3)
H34 H -0.3882 0.7407 0.1124
C29 C -0.0619(3) 0.9376(3) 0.1629(3)
H35 H -0.0167 0.9448 0.2305
C30 C -0.0296(3) 0.8765(3) 0.0872(3)
H36 H -0.0711 0.8659 0.0176
H37 H 0.0358 0.8417 0.1005
C31 C -0.1557(3) 1.3092(2) 0.1765(2)
C32 C -0.2838(3) 1.3407(2) 0.1682(3)
H38 H -0.3245 1.3186 0.0950
H39 H -0.2684 1.4204 0.1909
H40 H -0.3397 1.3029 0.2136
C33 C -0.0689(3) 1.3617(2) 0.0994(2)
H41 H 0.0117 1.3411 0.1055
H42 H -0.0520 1.4420 0.1170
H43 H -0.1115 1.3352 0.0269
C34 C -0.0896(3) 1.3516(2) 0.2919(2)
H44 H -0.1423 1.3146 0.3397
H45 H -0.0784 1.4312 0.3110
H46 H -0.0063 1.3357 0.2978
loop_
_geom_bond_atom_site_label_1
_geom_bond_atom_site_label_2
_geom_bond_site_symmetry_1
_geom_bond_site_symmetry_2
O1 C1 1_555 1_555
O2 H1 1_555 1_555
O3 C18 1_555 1_555
O4 H2 1_555 1_555
N1 C1 1_555 1_555
N2 C18 1_555 1_555
C1 C2 1_555 1_555
C2 H3 1_555 1_555
C3 C2 1_555 1_555
H4 C3 1_555 1_555
C4 N1 1_555 1_555
H5 C4 1_555 1_555
H6 C4 1_555 1_555
C5 O2 1_555 1_555
H7 C5 1_555 1_555
C6 C5 1_555 1_555
C7 C6 1_555 1_555
H8 C7 1_555 1_555
C8 C7 1_555 1_555
H9 C8 1_555 1_555
C9 C8 1_555 1_555
H10 C9 1_555 1_555
C10 C9 1_555 1_555
H11 C10 1_555 1_555
C11 C6 1_555 1_555
H12 C11 1_555 1_555
C12 C3 1_555 1_555
H13 C12 1_555 1_555
C13 C12 1_555 1_555
H14 C13 1_555 1_555
H15 C13 1_555 1_555
C14 N1 1_555 1_555
C15 C14 1_555 1_555
H16 C15 1_555 1_555
H17 C15 1_555 1_555
H18 C15 1_555 1_555
C16 C14 1_555 1_555
H19 C16 1_555 1_555
H20 C16 1_555 1_555
H21 C16 1_555 1_555
C17 C14 1_555 1_555
H22 C17 1_555 1_555
H23 C17 1_555 1_555
H24 C17 1_555 1_555
C18 C19 1_555 1_555
C19 H25 1_555 1_555
C20 C19 1_555 1_555
H26 C20 1_555 1_555
C21 N2 1_555 1_555
H27 C21 1_555 1_555
H28 C21 1_555 1_555
C22 O4 1_555 1_555
H29 C22 1_555 1_555
C23 C22 1_555 1_555
C24 C23 1_555 1_555
H30 C24 1_555 1_555
C25 C24 1_555 1_555
H31 C25 1_555 1_555
C26 C25 1_555 1_555
H32 C26 1_555 1_555
C27 C26 1_555 1_555
H33 C27 1_555 1_555
C28 C23 1_555 1_555
H34 C28 1_555 1_555
C29 C20 1_555 1_555
H35 C29 1_555 1_555
C30 C29 1_555 1_555
H36 C30 1_555 1_555
H37 C30 1_555 1_555
C31 N2 1_555 1_555
C32 C31 1_555 1_555
H38 C32 1_555 1_555
H39 C32 1_555 1_555
H40 C32 1_555 1_555
C33 C31 1_555 1_555
H41 C33 1_555 1_555
H42 C33 1_555 1_555
H43 C33 1_555 1_555
C34 C31 1_555 1_555
H44 C34 1_555 1_555
H45 C34 1_555 1_555
H46 C34 1_555 1_555
C2 C5 1_555 1_555
C3 C4 1_555 1_555
C10 C11 1_555 1_555
C19 C22 1_555 1_555
C20 C21 1_555 1_555
C27 C28 1_555 1_555

#END
