
#######################################################################
#
#                 Cambridge Crystallographic Data Centre
#                                CCDC 
#
#######################################################################
#
# If this CIF has been generated from an entry in the Cambridge 
# Structural Database, then it will include bibliographic, chemical, 
# crystal, experimental, refinement or atomic coordinate data resulting 
# from the CCDC's data processing and validation procedures.
#
#######################################################################

data_NIBFOU
_chemical_formula_moiety         'C18 H16 N2 O9'
_chemical_name_systematic        'Oxybis[(3-nitrophenyl)methylene] diacetate'
_symmetry_cell_setting           monoclinic
_symmetry_space_group_name_H-M   'C 2/c'
_symmetry_Int_Tables_number      15
_space_group_name_Hall           '-C 2yn'
loop_
_symmetry_equiv_pos_site_id
_symmetry_equiv_pos_as_xyz
1 x,y,z
2 1/2+x,1/2+y,z
3 -x,y,1/2-z
4 1/2-x,1/2+y,1/2-z
5 -x,-y,-z
6 1/2-x,1/2-y,-z
7 x,-y,1/2+z
8 1/2+x,1/2-y,1/2+z
_cell_length_a                   16.128(3)
_cell_length_b                   13.952(3)
_cell_length_c                   18.196(4)
_cell_angle_alpha                90
_cell_angle_beta                 115.141(4)
_cell_angle_gamma                90
_cell_volume                     3706.54
_cell_formula_units_Z            8
loop_
_atom_site_label
_atom_site_type_symbol
_atom_site_fract_x
_atom_site_fract_y
_atom_site_fract_z
O1 O 0.4648(3) 0.1276(4) 0.1562(3)
O2 O 0.4414(3) 0.1144(4) 0.0339(3)
O3 O 0.0213(4) 0.2611(4) 0.1712(4)
O4 O 0.2062(2) 0.1218(3) 0.2295(2)
O5 O 0.0279(3) -0.0208(3) 0.1684(3)
O6 O 0.0957(3) 0.1227(4) 0.5197(3)
O7 O 0.2254(4) 0.1218(5) 0.6226(3)
N1 N 0.4137(3) 0.1226(4) 0.0854(4)
N2 N 0.1786(4) 0.1212(4) 0.5498(3)
C1 C 0.2841(3) 0.1332(4) 0.1196(3)
H1 H 0.3246 0.1352 0.1743
C2 C 0.3152(3) 0.1248(4) 0.0604(3)
C3 C 0.2574(4) 0.1219(4) -0.0207(3)
H2 H 0.2806 0.1182 -0.0594
C4 C 0.1654(4) 0.1244(4) -0.0435(3)
H3 H 0.1254 0.1203 -0.0982
C5 C 0.1311(4) 0.1331(4) 0.0138(3)
H4 H 0.0682 0.1353 -0.0024
C6 C 0.1898(3) 0.1385(4) 0.0950(3)
O8 O 0.1534(3) 0.2626(3) 0.1662(3)
C7 C 0.1502(7) 0.1619(6) 0.1563(6)
H5 H 0.0867 0.1210 0.1400
C9 C 0.0848(5) 0.3066(5) 0.1791(4)
C10 C 0.0950(5) 0.4107(5) 0.1903(5)
H6 H 0.0921 0.4399 0.1415
H7 H 0.1530 0.4250 0.2344
H8 H 0.0465 0.4354 0.2022
O10 O 0.1649(3) -0.0218(3) 0.2722(2)
C11 C 0.1640(4) 0.0798(5) 0.2751(4)
H9 H 0.1000 0.1110 0.2578
C13 C 0.0929(4) -0.0633(5) 0.2112(3)
C14 C 0.1054(4) -0.1675(5) 0.2184(4)
H10 H 0.0802 -0.1921 0.2538
H11 H 0.1696 -0.1822 0.2403
H12 H 0.0747 -0.1963 0.1658
C15 C 0.2186(3) 0.1106(4) 0.3640(3)
C16 C 0.3119(3) 0.1237(4) 0.3966(3)
H13 H 0.3416 0.1247 0.3626
C17 C 0.3615(3) 0.1352(4) 0.4789(3)
H14 H 0.4245 0.1445 0.5002
C18 C 0.3182(3) 0.1331(4) 0.5301(3)
H15 H 0.3513 0.1376 0.5861
C19 C 0.2251(3) 0.1243(4) 0.4956(3)
C20 C 0.1740(3) 0.1111(4) 0.4142(3)
H16 H 0.1109 0.1027 0.3932
O9? O 0.1635(12) -0.0119(12) 0.1880(11)
C8? C 0.156(2) 0.103(3) 0.1578(14)
O11? O 0.1481(11) 0.2778(12) 0.2690(10)
C12? C 0.1615(14) 0.161(2) 0.2817(11)
loop_
_geom_bond_atom_site_label_1
_geom_bond_atom_site_label_2
_geom_bond_site_symmetry_1
_geom_bond_site_symmetry_2
O1 N1 1_555 1_555
O2 N1 1_555 1_555
O3 C9 1_555 1_555
O4 C7 1_555 1_555
O5 C13 1_555 1_555
O6 N2 1_555 1_555
O7 N2 1_555 1_555
N1 C2 1_555 1_555
N2 C19 1_555 1_555
C1 H1 1_555 1_555
C2 C1 1_555 1_555
C3 C2 1_555 1_555
H2 C3 1_555 1_555
C4 C3 1_555 1_555
H3 C4 1_555 1_555
C5 C4 1_555 1_555
H4 C5 1_555 1_555
C6 C1 1_555 1_555
O8 C7 1_555 1_555
C7 C6 1_555 1_555
H5 C7 1_555 1_555
C9 O8 1_555 1_555
C10 C9 1_555 1_555
H6 C10 1_555 1_555
H7 C10 1_555 1_555
H8 C10 1_555 1_555
O10 C11 1_555 1_555
C11 O4 1_555 1_555
H9 C11 1_555 1_555
C13 O10 1_555 1_555
C14 C13 1_555 1_555
H10 C14 1_555 1_555
H11 C14 1_555 1_555
H12 C14 1_555 1_555
C15 C11 1_555 1_555
C16 C15 1_555 1_555
H13 C16 1_555 1_555
C17 C16 1_555 1_555
H14 C17 1_555 1_555
C18 C17 1_555 1_555
H15 C18 1_555 1_555
C19 C18 1_555 1_555
C20 C15 1_555 1_555
H16 C20 1_555 1_555
C5 C6 1_555 1_555
C19 C20 1_555 1_555

#END
