
#######################################################################
#
#                 Cambridge Crystallographic Data Centre
#                                CCDC 
#
#######################################################################
#
# If this CIF has been generated from an entry in the Cambridge 
# Structural Database, then it will include bibliographic, chemical, 
# crystal, experimental, refinement or atomic coordinate data resulting 
# from the CCDC's data processing and validation procedures.
#
#######################################################################

data_NIBGOX
_chemical_formula_moiety         'C32 H56 B11 N4 Si2 1-,C8 H16 Na1 O2 1+'
_chemical_name_systematic        
"tetrakis(tetrahydrofuran)-di-sodium 1,10-bis(((N,N'-di-t-butylbenzenecarboximidamido)silylene))-6-(hydridoboron)-1,10-dicarba-nido-dodecaborane(9) unknown solvate"
_symmetry_cell_setting           triclinic
_symmetry_space_group_name_H-M   'P -1'
_symmetry_Int_Tables_number      2
_space_group_name_Hall           '-P 1'
loop_
_symmetry_equiv_pos_site_id
_symmetry_equiv_pos_as_xyz
1 x,y,z
2 -x,-y,-z
_cell_length_a                   10.542(5)
_cell_length_b                   15.037(7)
_cell_length_c                   17.602(9)
_cell_angle_alpha                80.603(14)
_cell_angle_beta                 77.248(15)
_cell_angle_gamma                79.736(15)
_cell_volume                     2655.47
_exptl_crystal_colour            colorless
_exptl_crystal_description       block
_cell_formula_units_Z            2
loop_
_atom_site_label
_atom_site_type_symbol
_atom_site_fract_x
_atom_site_fract_y
_atom_site_fract_z
Si1 Si 0.33975(10) 0.61444(6) 0.72096(6)
Si2 Si 0.25788(10) 0.77286(7) 0.84247(6)
N1 N 0.4545(3) 0.51025(19) 0.69088(19)
N2 N 0.2436(3) 0.52187(18) 0.72236(18)
N3 N 0.1140(3) 0.7727(2) 0.92589(17)
N4 N 0.2958(3) 0.8171(2) 0.92685(18)
C1 C 0.3171(4) 0.7172(2) 0.6544(2)
C2 C 0.2414(4) 0.8460(3) 0.7538(2)
C3 C 0.5975(4) 0.4775(3) 0.6765(3)
C4 C 0.6350(6) 0.3894(5) 0.7235(6)
H1 H 0.7287 0.3724 0.7113
H2 H 0.6076 0.3955 0.7784
H3 H 0.5931 0.3433 0.7114
C5 C 0.6681(5) 0.5493(4) 0.6914(4)
H4 H 0.7610 0.5283 0.6822
H5 H 0.6502 0.6042 0.6567
H6 H 0.6383 0.5612 0.7449
C6 C 0.6414(6) 0.4675(7) 0.5876(5)
H7 H 0.7342 0.4463 0.5759
H8 H 0.5946 0.4245 0.5749
H9 H 0.6226 0.5256 0.5572
C7 C 0.3539(4) 0.4637(2) 0.7042(2)
C8 C 0.3582(4) 0.3639(2) 0.7045(2)
C9 C 0.3315(5) 0.3101(3) 0.7756(3)
H10 H 0.3169 0.3357 0.8220
C10 C 0.3261(5) 0.2176(3) 0.7784(4)
H11 H 0.3099 0.1810 0.8264
C11 C 0.3448(6) 0.1816(3) 0.7099(5)
H12 H 0.3392 0.1203 0.7114
C12 C 0.3716(6) 0.2341(4) 0.6392(4)
H13 H 0.3839 0.2083 0.5931
C13 C 0.3806(5) 0.3260(3) 0.6354(3)
H14 H 0.4015 0.3614 0.5871
C14 C 0.1054(4) 0.5135(3) 0.7229(3)
C15 C 0.0316(5) 0.6069(3) 0.7110(4)
H15 H -0.0584 0.6031 0.7111
H16 H 0.0353 0.6397 0.7527
H17 H 0.0702 0.6381 0.6616
C16 C 0.0439(6) 0.4689(5) 0.8035(4)
H18 H -0.0457 0.4633 0.8041
H19 H 0.0924 0.4095 0.8145
H20 H 0.0461 0.5057 0.8428
C17 C 0.0926(6) 0.4582(6) 0.6631(5)
H21 H 0.0014 0.4552 0.6663
H22 H 0.1293 0.4859 0.6117
H23 H 0.1390 0.3978 0.6728
C18 C -0.0182(4) 0.7446(3) 0.9420(2)
C19 C -0.1203(6) 0.7963(7) 0.9983(5)
H24 H -0.2024 0.7738 1.0053
H25 H -0.0934 0.7885 1.0480
H26 H -0.1309 0.8598 0.9780
C20 C -0.0038(9) 0.6442(5) 0.9746(5)
H27 H -0.0881 0.6239 0.9857
H28 H 0.0558 0.6097 0.9367
H29 H 0.0300 0.6355 1.0221
C21 C -0.0602(5) 0.7563(5) 0.8645(3)
H30 H -0.1458 0.7388 0.8723
H31 H -0.0632 0.8190 0.8417
H32 H 0.0016 0.7187 0.8299
C22 C 0.1783(4) 0.8031(2) 0.9708(2)
C23 C 0.1259(4) 0.8199(3) 1.0536(2)
C24 C 0.1253(5) 0.7495(3) 1.1149(2)
H33 H 0.1638 0.6908 1.1053
C25 C 0.0676(5) 0.7667(4) 1.1903(3)
H34 H 0.0695 0.7198 1.2318
C26 C 0.0075(5) 0.8523(4) 1.2042(3)
H35 H -0.0346 0.8627 1.2550
C27 C 0.0083(5) 0.9223(4) 1.1452(3)
H36 H -0.0321 0.9805 1.1554
C28 C 0.0695(5) 0.9068(3) 1.0698(3)
H37 H 0.0727 0.9552 1.0294
C29 C 0.4062(4) 0.8529(3) 0.9472(3)
C30 C 0.4195(6) 0.8234(5) 1.0328(3)
H38 H 0.4914 0.8480 1.0427
H39 H 0.3396 0.8455 1.0668
H40 H 0.4358 0.7580 1.0425
C31 C 0.3842(6) 0.9571(3) 0.9297(3)
H41 H 0.4544 0.9809 0.9425
H42 H 0.3825 0.9747 0.8749
H43 H 0.3020 0.9809 0.9606
C32 C 0.5333(4) 0.8139(3) 0.8945(3)
H44 H 0.6067 0.8354 0.9058
H45 H 0.5447 0.7486 0.9042
H46 H 0.5281 0.8333 0.8404
B1 B 0.4037(5) 0.7608(3) 0.7143(3)
B2 B 0.4549(5) 0.7489(3) 0.6047(3)
B3 B 0.2973(6) 0.7820(3) 0.5767(3)
B4 B 0.1930(5) 0.8091(3) 0.6801(3)
B5 B 0.3776(5) 0.8903(3) 0.7199(3)
B6 B 0.4926(4) 0.8409(3) 0.6434(3)
B7 B 0.4152(5) 0.8595(3) 0.5580(3)
B8 B 0.2442(5) 0.8976(3) 0.5954(3)
B9 B 0.2217(5) 0.9330(3) 0.6914(3)
B10 B 0.3730(5) 0.9405(3) 0.6235(3)
B11 B 0.3910(4) 0.6755(3) 0.7977(2)
H47 H 0.088(3) 0.795(2) 0.6887(17)
H48 H 0.601(4) 0.848(2) 0.6376(19)
H49 H 0.530(4) 0.701(3) 0.577(3)
H50 H 0.156(5) 0.997(3) 0.706(3)
H51 H 0.401(4) 1.014(3) 0.601(2)
H52 H 0.183(3) 0.942(2) 0.5552(18)
H53 H 0.422(4) 0.924(3) 0.755(2)
H54 H 0.271(4) 0.757(3) 0.529(2)
H55 H 0.469(3) 0.888(2) 0.498(2)
H56 H 0.464(4) 0.639(3) 0.830(2)
Na1 Na 0.66990(16) 0.96035(10) 0.53197(9)
C33 C 0.6916(10) 1.0868(6) 0.6564(5)
H57 H 0.7360 1.1362 0.6261
H58 H 0.6004 1.0997 0.6508
C34 C 0.6972(11) 1.0830(10) 0.7366(7)
H59 H 0.6095 1.0925 0.7685
H60 H 0.7460 1.1290 0.7436
C35 C 0.7618(15) 0.9951(9) 0.7573(6)
H61 H 0.8350 0.9985 0.7814
H62 H 0.7017 0.9594 0.7944
C36 C 0.8091(10) 0.9534(5) 0.6850(6)
H63 H 0.7865 0.8924 0.6924
H64 H 0.9038 0.9498 0.6694
C37 C 0.9485(7) 0.8479(4) 0.4490(5)
H65 H 0.9297 0.8878 0.4024
H66 H 1.0093 0.8733 0.4705
C38 C 1.0060(9) 0.7559(5) 0.4292(4)
H67 H 1.1008 0.7469 0.4238
H68 H 0.9850 0.7464 0.3805
C39 C 0.9486(9) 0.6955(5) 0.4928(5)
H69 H 0.9073 0.6529 0.4740
H70 H 1.0150 0.6612 0.5210
C40 C 0.8524(8) 0.7514(4) 0.5432(5)
H71 H 0.8823 0.7520 0.5913
H72 H 0.7700 0.7269 0.5566
O1 O 0.7472(4) 1.0093(3) 0.6279(2)
O2 O 0.8337(3) 0.8399(2) 0.5040(2)
loop_
_geom_bond_atom_site_label_1
_geom_bond_atom_site_label_2
_geom_bond_site_symmetry_1
_geom_bond_site_symmetry_2
Si1 N1 1_555 1_555
Si2 N3 1_555 1_555
N1 C3 1_555 1_555
N2 Si1 1_555 1_555
N3 C18 1_555 1_555
N4 Si2 1_555 1_555
C1 Si1 1_555 1_555
C2 Si2 1_555 1_555
C3 C4 1_555 1_555
C4 H1 1_555 1_555
H2 C4 1_555 1_555
H3 C4 1_555 1_555
C5 C3 1_555 1_555
H4 C5 1_555 1_555
H5 C5 1_555 1_555
H6 C5 1_555 1_555
C6 C3 1_555 1_555
H7 C6 1_555 1_555
H8 C6 1_555 1_555
H9 C6 1_555 1_555
C7 N1 1_555 1_555
C8 C7 1_555 1_555
C9 C8 1_555 1_555
H10 C9 1_555 1_555
C10 C9 1_555 1_555
H11 C10 1_555 1_555
C11 C10 1_555 1_555
H12 C11 1_555 1_555
C12 C11 1_555 1_555
H13 C12 1_555 1_555
C13 C8 1_555 1_555
H14 C13 1_555 1_555
C14 N2 1_555 1_555
C15 C14 1_555 1_555
H15 C15 1_555 1_555
H16 C15 1_555 1_555
H17 C15 1_555 1_555
C16 C14 1_555 1_555
H18 C16 1_555 1_555
H19 C16 1_555 1_555
H20 C16 1_555 1_555
C17 C14 1_555 1_555
H21 C17 1_555 1_555
H22 C17 1_555 1_555
H23 C17 1_555 1_555
C18 C19 1_555 1_555
C19 H24 1_555 1_555
H25 C19 1_555 1_555
H26 C19 1_555 1_555
C20 C18 1_555 1_555
H27 C20 1_555 1_555
H28 C20 1_555 1_555
H29 C20 1_555 1_555
C21 C18 1_555 1_555
H30 C21 1_555 1_555
H31 C21 1_555 1_555
H32 C21 1_555 1_555
C22 N3 1_555 1_555
C23 C22 1_555 1_555
C24 C23 1_555 1_555
H33 C24 1_555 1_555
C25 C24 1_555 1_555
H34 C25 1_555 1_555
C26 C25 1_555 1_555
H35 C26 1_555 1_555
C27 C26 1_555 1_555
H36 C27 1_555 1_555
C28 C23 1_555 1_555
H37 C28 1_555 1_555
C29 N4 1_555 1_555
C30 C29 1_555 1_555
H38 C30 1_555 1_555
H39 C30 1_555 1_555
H40 C30 1_555 1_555
C31 C29 1_555 1_555
H41 C31 1_555 1_555
H42 C31 1_555 1_555
H43 C31 1_555 1_555
C32 C29 1_555 1_555
H44 C32 1_555 1_555
H45 C32 1_555 1_555
H46 C32 1_555 1_555
B1 C1 1_555 1_555
B2 C1 1_555 1_555
B3 C1 1_555 1_555
B4 C1 1_555 1_555
B5 C2 1_555 1_555
B6 B1 1_555 1_555
B7 B2 1_555 1_555
B8 B3 1_555 1_555
B9 C2 1_555 1_555
B10 B5 1_555 1_555
B11 Si1 1_555 1_555
H47 B4 1_555 1_555
H48 B6 1_555 1_555
H49 B2 1_555 1_555
H50 B9 1_555 1_555
H51 B10 1_555 1_555
H52 B8 1_555 1_555
H53 B5 1_555 1_555
H54 B3 1_555 1_555
H55 B7 1_555 1_555
H56 B11 1_555 1_555
Na1 O1 1_555 1_555
C33 H57 1_555 1_555
H58 C33 1_555 1_555
C34 C33 1_555 1_555
H59 C34 1_555 1_555
H60 C34 1_555 1_555
C35 C34 1_555 1_555
H61 C35 1_555 1_555
H62 C35 1_555 1_555
C36 C35 1_555 1_555
H63 C36 1_555 1_555
H64 C36 1_555 1_555
C37 H65 1_555 1_555
H66 C37 1_555 1_555
C38 C37 1_555 1_555
H67 C38 1_555 1_555
H68 C38 1_555 1_555
C39 C38 1_555 1_555
H69 C39 1_555 1_555
H70 C39 1_555 1_555
C40 C39 1_555 1_555
H71 C40 1_555 1_555
H72 C40 1_555 1_555
O1 C33 1_555 1_555
O2 Na1 1_555 1_555
Si2 B11 1_555 1_555
N2 C7 1_555 1_555
N4 C22 1_555 1_555
C2 B4 1_555 1_555
C12 C13 1_555 1_555
C27 C28 1_555 1_555
B1 B2 1_555 1_555
B1 B5 1_555 1_555
B1 B11 1_555 1_555
B2 B3 1_555 1_555
B2 B6 1_555 1_555
B3 B4 1_555 1_555
B3 B7 1_555 1_555
B4 B8 1_555 1_555
B4 B9 1_555 1_555
B5 B6 1_555 1_555
B5 B9 1_555 1_555
B6 B7 1_555 1_555
B6 B10 1_555 1_555
B7 B8 1_555 1_555
B7 B10 1_555 1_555
B8 B9 1_555 1_555
B8 B10 1_555 1_555
B9 B10 1_555 1_555
C36 O1 1_555 1_555
C37 O2 1_555 1_555
C40 O2 1_555 1_555

#END
