
#######################################################################
#
#                 Cambridge Crystallographic Data Centre
#                                CCDC 
#
#######################################################################
#
# If this CIF has been generated from an entry in the Cambridge 
# Structural Database, then it will include bibliographic, chemical, 
# crystal, experimental, refinement or atomic coordinate data resulting 
# from the CCDC's data processing and validation procedures.
#
#######################################################################

data_NIBLOC
_chemical_formula_moiety         'C21 H21 N1 O2'
_chemical_name_systematic        
3-(4-methoxyphenyl)-4,4-dimethyl-5-(3-phenylprop-2-yn-1-yl)-4,5-dihydro-1,2-oxazole
_symmetry_cell_setting           monoclinic
_symmetry_space_group_name_H-M   'C 2/c'
_symmetry_Int_Tables_number      15
_space_group_name_Hall           '-C 2yn'
loop_
_symmetry_equiv_pos_site_id
_symmetry_equiv_pos_as_xyz
1 x,y,z
2 -x,y,1/2-z
3 1/2+x,1/2+y,z
4 1/2-x,1/2+y,1/2-z
5 -x,-y,-z
6 x,-y,1/2+z
7 1/2-x,1/2-y,-z
8 1/2+x,1/2-y,1/2+z
_cell_length_a                   17.8381(5)
_cell_length_b                   10.6919(3)
_cell_length_c                   19.0278(6)
_cell_angle_alpha                90
_cell_angle_beta                 107.7810(10)
_cell_angle_gamma                90
_cell_volume                     3455.69
_exptl_crystal_colour            colorless
_exptl_crystal_description       block
_cell_formula_units_Z            8
loop_
_atom_site_label
_atom_site_type_symbol
_atom_site_fract_x
_atom_site_fract_y
_atom_site_fract_z
O1 O 0.73382(16) 0.6247(3) 0.20020(19)
C1 C 0.3615(2) 0.6457(4) 0.0955(2)
N1 N 0.6552(2) 0.6671(4) 0.1707(2)
O2 O 0.28418(17) 0.6786(3) 0.0776(2)
C2 C 0.3887(2) 0.5312(4) 0.0807(2)
H1 H 0.3527 0.4693 0.0547
C3 C 0.4943(2) 0.7130(4) 0.1538(3)
H2 H 0.5300 0.7760 0.1789
C4 C 0.5233(2) 0.5970(4) 0.1411(2)
C5 C 0.4688(2) 0.5065(4) 0.1038(2)
H3 H 0.4870 0.4268 0.0942
C6 C 0.6508(2) 0.4503(4) 0.1903(2)
C7 C 0.6083(2) 0.5739(4) 0.1669(2)
C8 C 0.4147(3) 0.7380(5) 0.1306(3)
H4 H 0.3962 0.8184 0.1385
C9 C 0.7299(2) 0.5078(5) 0.2361(2)
H5 H 0.7265 0.5265 0.2865
C10 C 0.8025(3) 0.4393(5) 0.2446(3)
H6 H 0.8101 0.4301 0.1955
H7 H 0.7969 0.3544 0.2631
C11 C 0.8735(3) 0.4982(5) 0.2951(3)
C12 C 0.9303(3) 0.5449(4) 0.3380(3)
C13 C 1.0008(2) 0.5993(4) 0.3863(2)
C14 C 1.0063(2) 0.6364(4) 0.4585(2)
H8 H 0.9621 0.6271 0.4761
C15 C 1.0756(2) 0.6863(4) 0.5040(2)
H9 H 1.0793 0.7108 0.5530
C16 C 1.1387(2) 0.7003(4) 0.4782(2)
H10 H 1.1864 0.7343 0.5095
C17 C 1.0655(3) 0.6159(4) 0.3618(2)
H11 H 1.0626 0.5925 0.3128
C18 C 1.1339(2) 0.6658(4) 0.4074(2)
H12 H 1.1781 0.6766 0.3900
C19 C 0.6554(3) 0.3801(5) 0.1223(3)
H13 H 0.6850 0.3022 0.1374
H14 H 0.6821 0.4322 0.0949
H15 H 0.6021 0.3605 0.0907
C20 C 0.6150(2) 0.3686(4) 0.2378(2)
H16 H 0.6507 0.2991 0.2585
H17 H 0.5643 0.3354 0.2072
H18 H 0.6070 0.4189 0.2779
C21 C 0.2272(3) 0.5898(6) 0.0372(4)
H19 H 0.1743 0.6253 0.0267
H20 H 0.2310 0.5134 0.0665
H21 H 0.2374 0.5697 -0.0093
loop_
_geom_bond_atom_site_label_1
_geom_bond_atom_site_label_2
_geom_bond_site_symmetry_1
_geom_bond_site_symmetry_2
O1 N1 1_555 1_555
C1 O2 1_555 1_555
N1 C7 1_555 1_555
O2 C21 1_555 1_555
C2 C1 1_555 1_555
H1 C2 1_555 1_555
C3 H2 1_555 1_555
C4 C3 1_555 1_555
C5 C2 1_555 1_555
H3 C5 1_555 1_555
C6 C7 1_555 1_555
C7 C4 1_555 1_555
C8 C1 1_555 1_555
H4 C8 1_555 1_555
C9 O1 1_555 1_555
H5 C9 1_555 1_555
C10 C9 1_555 1_555
H6 C10 1_555 1_555
H7 C10 1_555 1_555
C11 C10 1_555 1_555
C12 C11 1_555 1_555
C13 C12 1_555 1_555
C14 C13 1_555 1_555
H8 C14 1_555 1_555
C15 C14 1_555 1_555
H9 C15 1_555 1_555
C16 C15 1_555 1_555
H10 C16 1_555 1_555
C17 C13 1_555 1_555
H11 C17 1_555 1_555
C18 C16 1_555 1_555
H12 C18 1_555 1_555
C19 C6 1_555 1_555
H13 C19 1_555 1_555
H14 C19 1_555 1_555
H15 C19 1_555 1_555
C20 C6 1_555 1_555
H16 C20 1_555 1_555
H17 C20 1_555 1_555
H18 C20 1_555 1_555
C21 H19 1_555 1_555
H20 C21 1_555 1_555
H21 C21 1_555 1_555
C3 C8 1_555 1_555
C4 C5 1_555 1_555
C6 C9 1_555 1_555
C17 C18 1_555 1_555

#END
