
#######################################################################
#
#                 Cambridge Crystallographic Data Centre
#                                CCDC 
#
#######################################################################
#
# If this CIF has been generated from an entry in the Cambridge 
# Structural Database, then it will include bibliographic, chemical, 
# crystal, experimental, refinement or atomic coordinate data resulting 
# from the CCDC's data processing and validation procedures.
#
#######################################################################

data_NIBQIB
_chemical_formula_moiety         'C24 H17 Br1 O3'
_chemical_name_systematic        
3-(4-bromophenyl)-2-(2-hydroxynaphthalen-1-yl)-2,3-dihydro-1-benzofuran-5-ol
_symmetry_cell_setting           orthorhombic
_symmetry_space_group_name_H-M   'P 21 21 21'
_symmetry_Int_Tables_number      19
_space_group_name_Hall           'P 2ac 2ab'
loop_
_symmetry_equiv_pos_site_id
_symmetry_equiv_pos_as_xyz
1 x,y,z
2 1/2-x,-y,1/2+z
3 -x,1/2+y,1/2-z
4 1/2+x,1/2-y,-z
_cell_length_a                   5.3602(12)
_cell_length_b                   9.273(2)
_cell_length_c                   37.474(8)
_cell_angle_alpha                90
_cell_angle_beta                 90
_cell_angle_gamma                90
_cell_volume                     1862.65
_exptl_crystal_colour            colorless
_exptl_crystal_description       block
_cell_formula_units_Z            4
loop_
_atom_site_label
_atom_site_type_symbol
_atom_site_fract_x
_atom_site_fract_y
_atom_site_fract_z
Br1 Br 0.51892(17) 1.06482(8) 0.75353(2)
O1 O 0.4940(9) 0.3914(4) 0.95921(8)
H1 H 0.3679 0.4320 0.9520
O2 O 0.3074(9) 1.0591(4) 0.98159(10)
H2 H 0.2079 1.0665 0.9981
O3 O 0.2319(7) 0.5423(4) 0.91304(9)
C1 C 0.6444(13) 0.3583(6) 0.93090(15)
C2 C 0.8228(14) 0.2533(6) 0.93843(16)
H3 H 0.8278 0.2112 0.9609
C3 C 0.9896(14) 0.2120(6) 0.91304(16)
H4 H 1.1077 0.1417 0.9183
C4 C 0.9848(12) 0.2745(5) 0.87904(15)
C5 C 1.1614(13) 0.2368(7) 0.8526(2)
H5 H 1.2815 0.1674 0.8576
C6 C 1.1584(14) 0.3006(8) 0.8198(2)
H6 H 1.2751 0.2749 0.8026
C7 C 0.9805(13) 0.4036(7) 0.81247(15)
H7 H 0.9787 0.4468 0.7901
C8 C 0.8077(11) 0.4438(7) 0.83698(14)
H8 H 0.6907 0.5138 0.8310
C9 C 0.8013(12) 0.3817(6) 0.87148(14)
C10 C 0.6287(10) 0.4246(6) 0.89791(13)
C11 C 0.4462(10) 0.5433(5) 0.88906(12)
H9 H 0.3853 0.5272 0.8647
C12 C 0.5636(10) 0.6971(5) 0.89066(12)
H10 H 0.7391 0.6896 0.8977
C13 C 0.4145(10) 0.7647(5) 0.92087(12)
C14 C 0.4401(11) 0.8956(5) 0.93793(12)
H11 H 0.5663 0.9594 0.9315
C15 C 0.2734(11) 0.9296(7) 0.96481(12)
C16 C 0.0825(12) 0.8380(6) 0.97407(14)
H12 H -0.0311 0.8646 0.9916
C17 C 0.0598(11) 0.7048(6) 0.95701(13)
H13 H -0.0652 0.6400 0.9633
C18 C 0.2263(11) 0.6737(6) 0.93108(13)
C19 C 0.5437(11) 0.7865(5) 0.85676(12)
C20 C 0.3489(12) 0.7738(6) 0.83320(14)
H14 H 0.2211 0.7087 0.8379
C21 C 0.3402(13) 0.8566(6) 0.80259(15)
H15 H 0.2093 0.8457 0.7865
C22 C 0.5239(13) 0.9540(6) 0.79604(12)
C23 C 0.7121(13) 0.9727(6) 0.81942(16)
H16 H 0.8344 1.0417 0.8151
C24 C 0.7220(12) 0.8880(6) 0.85005(15)
H17 H 0.8520 0.9007 0.8662
loop_
_geom_bond_atom_site_label_1
_geom_bond_atom_site_label_2
_geom_bond_site_symmetry_1
_geom_bond_site_symmetry_2
Br1 C22 1_555 1_555
O1 H1 1_555 1_555
O2 H2 1_555 1_555
O3 C11 1_555 1_555
C1 O1 1_555 1_555
C2 C1 1_555 1_555
H3 C2 1_555 1_555
C3 C2 1_555 1_555
H4 C3 1_555 1_555
C4 C3 1_555 1_555
C5 C4 1_555 1_555
H5 C5 1_555 1_555
C6 C5 1_555 1_555
H6 C6 1_555 1_555
C7 C6 1_555 1_555
H7 C7 1_555 1_555
C8 C7 1_555 1_555
H8 C8 1_555 1_555
C9 C4 1_555 1_555
C10 C1 1_555 1_555
C11 C10 1_555 1_555
H9 C11 1_555 1_555
C12 C11 1_555 1_555
H10 C12 1_555 1_555
C13 C12 1_555 1_555
C14 C13 1_555 1_555
H11 C14 1_555 1_555
C15 O2 1_555 1_555
C16 C15 1_555 1_555
H12 C16 1_555 1_555
C17 C16 1_555 1_555
H13 C17 1_555 1_555
C18 O3 1_555 1_555
C19 C12 1_555 1_555
C20 C19 1_555 1_555
H14 C20 1_555 1_555
C21 C20 1_555 1_555
H15 C21 1_555 1_555
C22 C21 1_555 1_555
C23 C22 1_555 1_555
H16 C23 1_555 1_555
C24 C19 1_555 1_555
H17 C24 1_555 1_555
C8 C9 1_555 1_555
C9 C10 1_555 1_555
C13 C18 1_555 1_555
C14 C15 1_555 1_555
C17 C18 1_555 1_555
C23 C24 1_555 1_555

#END
