
#######################################################################
#
#                 Cambridge Crystallographic Data Centre
#                                CCDC 
#
#######################################################################
#
# If this CIF has been generated from an entry in the Cambridge 
# Structural Database, then it will include bibliographic, chemical, 
# crystal, experimental, refinement or atomic coordinate data resulting 
# from the CCDC's data processing and validation procedures.
#
#######################################################################

data_NIBXUR
_chemical_formula_moiety         'C15 H16 O6 S1'
_chemical_name_systematic        
'Methyl 4,6-O-benzylidene-2,3-O,S-carbonyl-3-thio-\b-D-allose'
_symmetry_cell_setting           orthorhombic
_symmetry_space_group_name_H-M   'P 21 21 21'
_symmetry_Int_Tables_number      19
_space_group_name_Hall           'P 2ac 2ab'
loop_
_symmetry_equiv_pos_site_id
_symmetry_equiv_pos_as_xyz
1 x,y,z
2 1/2-x,-y,1/2+z
3 1/2+x,1/2-y,-z
4 -x,1/2+y,1/2-z
_cell_length_a                   9.731(6)
_cell_length_b                   32.49(2)
_cell_length_c                   9.519(5)
_cell_angle_alpha                90
_cell_angle_beta                 90
_cell_angle_gamma                90
_cell_volume                     3009.53
_exptl_crystal_colour            colorless
_exptl_crystal_description       prism
_chemical_melting_point          135-138deg.C
_cell_formula_units_Z            8
_exptl_crystal_recrystallization_method ethylacetate/hexane
loop_
_atom_site_label
_atom_site_type_symbol
_atom_site_fract_x
_atom_site_fract_y
_atom_site_fract_z
S1 S 0.3490(2) 0.80603(7) 0.4973(3)
O1 O 0.6481(6) 0.8215(2) 0.7627(5)
O2 O 0.8032(6) 0.8002(2) 0.5989(6)
O3 O 0.5783(6) 0.7708(2) 0.4274(6)
O4 O 0.4646(8) 0.7983(3) 0.2486(7)
O5 O 0.2891(5) 0.7968(2) 0.8199(6)
O6 O 0.3516(6) 0.8491(2) 0.9738(6)
C1 C 0.666(1) 0.8108(3) 0.6192(9)
C2 C 0.5817(9) 0.7727(2) 0.5787(8)
C3 C 0.4328(8) 0.7744(2) 0.6286(9)
C4 C 0.4280(9) 0.7910(2) 0.7794(8)
C5 C 0.5062(8) 0.8308(2) 0.791(1)
C6 C 0.495(1) 0.8460(3) 0.941(1)
C7 C 0.893(1) 0.8343(3) 0.599(1)
C8 C 0.473(1) 0.7915(3) 0.371(1)
C9 C 0.2871(8) 0.8103(3) 0.9629(9)
C10 C 0.142(1) 0.8120(2) 1.017(1)
C11 C 0.034(1) 0.7973(3) 0.941(1)
C12 C -0.098(1) 0.7986(3) 0.997(1)
C13 C -0.118(1) 0.8153(3) 1.128(1)
C14 C -0.008(1) 0.8302(3) 1.204(1)
C15 C 0.122(1) 0.8280(3) 1.148(1)
H1 H 0.6414 0.8344 0.5579
H2 H 0.6295 0.7483 0.6170
H3 H 0.3937 0.7462 0.6291
H4 H 0.4716 0.7709 0.8450
H5 H 0.4685 0.8517 0.7266
H6 H 0.5431 0.8259 1.0018
H7 H 0.5454 0.8715 0.9536
H8 H 0.9868 0.8276 0.5881
H9 H 0.8859 0.8509 0.6861
H10 H 0.8699 0.8542 0.5244
H11 H 0.3390 0.7896 1.0200
H12 H 0.0502 0.7848 0.8455
H13 H -0.1774 0.7882 0.9394
H14 H -0.2084 0.8159 1.1699
H15 H -0.0263 0.8432 1.2957
H16 H 0.2008 0.8388 1.2020
S2 S 0.2408(2) 0.94318(7) 0.1309(3)
O7 O -0.0103(5) 0.9316(2) -0.1856(6)
O8 O 0.1624(6) 0.9495(2) -0.3345(6)
O9 O 0.3202(6) 0.9792(2) -0.0987(7)
O10 O 0.4905(6) 0.9517(2) 0.0250(8)
O11 O -0.0742(5) 0.9537(2) 0.1822(6)
O12 O -0.2345(5) 0.9049(2) 0.1047(6)
C16 C 0.1326(9) 0.9402(3) -0.195(1)
C17 C 0.1716(8) 0.9774(2) -0.109(1)
C18 C 0.1184(8) 0.9759(2) 0.0414(9)
C19 C -0.0283(8) 0.9604(2) 0.0409(9)
C20 C -0.0459(8) 0.9219(2) -0.0433(8)
C21 C -0.1944(8) 0.9093(3) -0.039(1)
C22 C 0.155(1) 0.9162(3) -0.428(1)
C23 C 0.371(1) 0.9583(3) 0.010(1)
C24 C -0.2174(8) 0.9425(3) 0.178(1)
C25 C -0.2699(9) 0.9369(2) 0.327(1)
C26 C -0.1974(8) 0.9516(3) 0.439(1)
C27 C -0.252(1) 0.9486(3) 0.574(1)
C28 C -0.380(1) 0.9312(3) 0.592(1)
C29 C -0.451(1) 0.9163(3) 0.480(1)
C30 C -0.3971(8) 0.9191(3) 0.346(1)
H17 H 0.1853 0.9151 -0.1638
H18 H 0.1338 1.0012 -0.1595
H19 H 0.1190 1.0041 0.0813
H20 H -0.0883 0.9815 -0.0031
H21 H 0.0101 0.8994 -0.0047
H22 H -0.2491 0.9294 -0.0885
H23 H -0.2079 0.8832 -0.0910
H24 H 0.0665 0.9031 -0.4289
H25 H 0.2218 0.8950 -0.4049
H26 H 0.1748 0.9245 -0.5236
H27 H -0.2701 0.9645 0.1301
H28 H -0.1056 0.9639 0.4264
H29 H -0.2018 0.9599 0.6571
H30 H -0.4165 0.9282 0.6884
H31 H -0.5395 0.9029 0.4959
H32 H -0.4485 0.9090 0.2635
loop_
_geom_bond_atom_site_label_1
_geom_bond_atom_site_label_2
_geom_bond_site_symmetry_1
_geom_bond_site_symmetry_2
S1 C3 1_555 1_555
O1 C1 1_555 1_555
O2 C1 1_555 1_555
O3 C2 1_555 1_555
O4 C8 1_555 1_555
O5 C4 1_555 1_555
O6 C6 1_555 1_555
C1 C2 1_555 1_555
C2 C3 1_555 1_555
C3 C4 1_555 1_555
C4 C5 1_555 1_555
C5 O1 1_555 1_555
C6 C5 1_555 1_555
C7 O2 1_555 1_555
C8 S1 1_555 1_555
C9 O5 1_555 1_555
C10 C9 1_555 1_555
C11 C10 1_555 1_555
C12 C11 1_555 1_555
C13 C12 1_555 1_555
C14 C13 1_555 1_555
C15 C10 1_555 1_555
H1 C1 1_555 1_555
H2 C2 1_555 1_555
H3 C3 1_555 1_555
H4 C4 1_555 1_555
H5 C5 1_555 1_555
H6 C6 1_555 1_555
H7 C6 1_555 1_555
H8 C7 1_555 1_555
H9 C7 1_555 1_555
H10 C7 1_555 1_555
H11 C9 1_555 1_555
H12 C11 1_555 1_555
H13 C12 1_555 1_555
H14 C13 1_555 1_555
H15 C14 1_555 1_555
H16 C15 1_555 1_555
S2 C18 1_555 1_555
O7 C16 1_555 1_555
O8 C16 1_555 1_555
O9 C17 1_555 1_555
O10 C23 1_555 1_555
O11 C19 1_555 1_555
O12 C21 1_555 1_555
C16 C17 1_555 1_555
C17 C18 1_555 1_555
C18 C19 1_555 1_555
C19 C20 1_555 1_555
C20 O7 1_555 1_555
C21 C20 1_555 1_555
C22 O8 1_555 1_555
C23 S2 1_555 1_555
C24 O11 1_555 1_555
C25 C24 1_555 1_555
C26 C25 1_555 1_555
C27 C26 1_555 1_555
C28 C27 1_555 1_555
C29 C28 1_555 1_555
C30 C25 1_555 1_555
H17 C16 1_555 1_555
H18 C17 1_555 1_555
H19 C18 1_555 1_555
H20 C19 1_555 1_555
H21 C20 1_555 1_555
H22 C21 1_555 1_555
H23 C21 1_555 1_555
H24 C22 1_555 1_555
H25 C22 1_555 1_555
H26 C22 1_555 1_555
H27 C24 1_555 1_555
H28 C26 1_555 1_555
H29 C27 1_555 1_555
H30 C28 1_555 1_555
H31 C29 1_555 1_555
H32 C30 1_555 1_555
O3 C8 1_555 1_555
O6 C9 1_555 1_555
C14 C15 1_555 1_555
O9 C23 1_555 1_555
O12 C24 1_555 1_555
C29 C30 1_555 1_555

#END
