
#######################################################################
#
#                 Cambridge Crystallographic Data Centre
#                                CCDC 
#
#######################################################################
#
# If this CIF has been generated from an entry in the Cambridge 
# Structural Database, then it will include bibliographic, chemical, 
# crystal, experimental, refinement or atomic coordinate data resulting 
# from the CCDC's data processing and validation procedures.
#
#######################################################################

data_NICCEI
_chemical_name_common            
(2-(t-Butoxycarbonyl)-3-hydroxy-3-phenylpropyl)(diphenyl)phosphine
_chemical_formula_moiety         'C26 H29 O3 P1'
_chemical_name_systematic        
't-Butyl 2-(diphenylphosphinomethyl)-3-hydroxy-3-phenylpropanoate'
_symmetry_cell_setting           monoclinic
_symmetry_space_group_name_H-M   'P 21'
_symmetry_Int_Tables_number      4
_space_group_name_Hall           'P 2yb'
loop_
_symmetry_equiv_pos_site_id
_symmetry_equiv_pos_as_xyz
1 x,y,z
2 -x,1/2+y,-z
_cell_length_a                   10.7290(11)
_cell_length_b                   9.6080(10)
_cell_length_c                   11.2870(11)
_cell_angle_alpha                90
_cell_angle_beta                 92.169(2)
_cell_angle_gamma                90
_cell_volume                     1162.68
_exptl_crystal_colour            colorless
_exptl_crystal_description       plate
_cell_formula_units_Z            2
loop_
_atom_site_label
_atom_site_type_symbol
_atom_site_fract_x
_atom_site_fract_y
_atom_site_fract_z
C1 C 0.70432(16) 0.6418(2) 0.14168(17)
C2 C 0.67346(18) 0.7751(2) 0.17928(19)
H1 H 0.6970 0.8036 0.2576
C3 C 0.6087(2) 0.8677(2) 0.1042(2)
H2 H 0.5883 0.9582 0.1313
C4 C 0.5746(2) 0.8267(3) -0.0096(2)
H3 H 0.5292 0.8886 -0.0607
C5 C 0.6064(2) 0.6953(2) -0.04944(19)
H4 H 0.5838 0.6680 -0.1283
C6 C 0.67105(18) 0.6036(2) 0.02540(17)
H5 H 0.6929 0.5140 -0.0028
C7 C 0.85559(17) 0.3944(2) 0.16601(16)
C8 C 0.79551(19) 0.2777(2) 0.1178(2)
H6 H 0.7093 0.2638 0.1303
C9 C 0.8601(2) 0.1813(2) 0.0516(2)
H7 H 0.8183 0.1015 0.0202
C10 C 0.9849(2) 0.2017(2) 0.03153(19)
H8 H 1.0283 0.1373 -0.0156
C11 C 1.0465(2) 0.3151(2) 0.0797(2)
H9 H 1.1326 0.3286 0.0664
C12 C 0.98271(18) 0.4099(2) 0.14782(17)
H10 H 1.0264 0.4865 0.1826
C13 C 0.64618(17) 0.4405(2) 0.31176(16)
H11 H 0.5860 0.5101 0.3400
H12 H 0.6043 0.3859 0.2474
C14 C 0.68568(16) 0.3435(2) 0.41382(16)
H13 H 0.7527 0.2799 0.3869
C15 C 0.57559(17) 0.2553(2) 0.45592(16)
H14 H 0.5074 0.3188 0.4805
C16 C 0.61647(18) 0.1661(2) 0.55987(18)
C17 C 0.5950(2) 0.2130(3) 0.67501(19)
H15 H 0.5518 0.2982 0.6852
C18 C 0.6347(2) 0.1386(3) 0.7736(2)
H16 H 0.6192 0.1712 0.8511
C19 C 0.6966(2) 0.0177(4) 0.7571(2)
H17 H 0.7245 -0.0343 0.8246
C20 C 0.7204(2) -0.0326(3) 0.6467(3)
H18 H 0.7641 -0.1178 0.6383
C21 C 0.6794(2) 0.0438(3) 0.5450(2)
H19 H 0.6953 0.0105 0.4677
C22 C 0.73693(17) 0.43039(19) 0.51735(16)
C23 C 0.91972(19) 0.4631(2) 0.65118(18)
C24 C 0.9459(3) 0.6117(3) 0.6169(2)
H20 H 0.9865 0.6132 0.5406
H21 H 1.0008 0.6548 0.6777
H22 H 0.8673 0.6635 0.6100
C25 C 1.0404(3) 0.3820(3) 0.6599(3)
H23 H 1.0227 0.2848 0.6794
H24 H 1.0954 0.4224 0.7221
H25 H 1.0814 0.3862 0.5838
C26 C 0.8485(3) 0.4521(3) 0.7637(2)
H26 H 0.7708 0.5054 0.7549
H27 H 0.8995 0.4896 0.8302
H28 H 0.8291 0.3543 0.7791
O1 O 0.53201(14) 0.17544(17) 0.35652(12)
H29 H 0.4736 0.1234 0.3767
O2 O 0.67857(12) 0.52453(18) 0.56082(12)
O3 O 0.85069(12) 0.39132(14) 0.55195(11)
P1 P 0.78319(4) 0.53062(5) 0.25384(4)
loop_
_geom_bond_atom_site_label_1
_geom_bond_atom_site_label_2
_geom_bond_site_symmetry_1
_geom_bond_site_symmetry_2
C1 C2 1_555 1_555
C2 H1 1_555 1_555
C3 C2 1_555 1_555
H2 C3 1_555 1_555
C4 C3 1_555 1_555
H3 C4 1_555 1_555
C5 C4 1_555 1_555
H4 C5 1_555 1_555
C6 C1 1_555 1_555
H5 C6 1_555 1_555
C7 C8 1_555 1_555
C8 H6 1_555 1_555
C9 C8 1_555 1_555
H7 C9 1_555 1_555
C10 C9 1_555 1_555
H8 C10 1_555 1_555
C11 C10 1_555 1_555
H9 C11 1_555 1_555
C12 C7 1_555 1_555
H10 C12 1_555 1_555
C13 H11 1_555 1_555
H12 C13 1_555 1_555
C14 C13 1_555 1_555
H13 C14 1_555 1_555
C15 C14 1_555 1_555
H14 C15 1_555 1_555
C16 C15 1_555 1_555
C17 C16 1_555 1_555
H15 C17 1_555 1_555
C18 C17 1_555 1_555
H16 C18 1_555 1_555
C19 C18 1_555 1_555
H17 C19 1_555 1_555
C20 C19 1_555 1_555
H18 C20 1_555 1_555
C21 C16 1_555 1_555
H19 C21 1_555 1_555
C22 C14 1_555 1_555
C23 C24 1_555 1_555
C24 H20 1_555 1_555
H21 C24 1_555 1_555
H22 C24 1_555 1_555
C25 C23 1_555 1_555
H23 C25 1_555 1_555
H24 C25 1_555 1_555
H25 C25 1_555 1_555
C26 C23 1_555 1_555
H26 C26 1_555 1_555
H27 C26 1_555 1_555
H28 C26 1_555 1_555
O1 C15 1_555 1_555
H29 O1 1_555 1_555
O2 C22 1_555 1_555
O3 C22 1_555 1_555
P1 C1 1_555 1_555
C5 C6 1_555 1_555
C7 P1 1_555 1_555
C11 C12 1_555 1_555
C13 P1 1_555 1_555
C20 C21 1_555 1_555
C23 O3 1_555 1_555

#END
