
#######################################################################
#
#                 Cambridge Crystallographic Data Centre
#                                CCDC 
#
#######################################################################
#
# If this CIF has been generated from an entry in the Cambridge 
# Structural Database, then it will include bibliographic, chemical, 
# crystal, experimental, refinement or atomic coordinate data resulting 
# from the CCDC's data processing and validation procedures.
#
#######################################################################

data_NICLAN
_chemical_formula_moiety         'C22 H12 S2'
_chemical_name_systematic        
Dinaphtho(2,3-b:2',3'-f)thieno(3,2-b)thiophene
_symmetry_cell_setting           monoclinic
_symmetry_space_group_name_H-M   'P 21'
_symmetry_Int_Tables_number      4
_space_group_name_Hall           'P 2yb'
loop_
_symmetry_equiv_pos_site_id
_symmetry_equiv_pos_as_xyz
1 x,y,z
2 -x,1/2+y,-z
_cell_length_a                   6.187(4)
_cell_length_b                   7.662(6)
_cell_length_c                   16.21(1)
_cell_angle_alpha                90
_cell_angle_beta                 92.49(2)
_cell_angle_gamma                90
_cell_volume                     767.706
_exptl_crystal_colour            yellow
_exptl_crystal_description       platelet
_chemical_melting_point          'above 300 deg.C'
_cell_formula_units_Z            2
_exptl_crystal_recrystallization_method m-dichlorobenzene
loop_
_atom_site_label
_atom_site_type_symbol
_atom_site_fract_x
_atom_site_fract_y
_atom_site_fract_z
S1 S 0.5050(1) 0.1301(2) 0.91709(5)
S2 S -0.0388(1) 0.3439(2) 1.02415(5)
C1 C 0.3365(5) 0.2106(4) 1.0761(2)
C2 C 0.1417(5) 0.2741(4) 0.9529(2)
C3 C 0.3173(5) 0.1771(5) 0.8362(2)
C4 C 0.1443(5) 0.2869(4) 1.1044(2)
C5 C 0.4957(5) 0.1577(5) 1.1328(2)
C6 C 0.1259(5) 0.2583(4) 0.8646(2)
C7 C 0.3298(5) 0.2101(4) 0.9882(2)
C8 C 0.3403(5) 0.1414(6) 0.7545(2)
C9 C 0.2616(5) 0.2942(5) 1.3310(2)
C10 C 0.1158(5) 0.3142(5) 1.1871(2)
C11 C -0.1792(5) 0.3177(5) 0.6636(2)
C12 C 0.2793(5) 0.2639(5) 1.2450(2)
C13 C -0.0154(5) 0.2711(5) 0.7235(2)
C14 C -0.0357(5) 0.3051(5) 0.8078(2)
C15 C 0.4714(5) 0.1840(5) 1.2174(2)
C16 C 0.6326(5) 0.1350(6) 1.2782(2)
C17 C 0.6089(6) 0.1660(6) 1.3598(2)
C18 C 0.1744(5) 0.1867(5) 0.6962(2)
C19 C 0.1911(5) 0.1510(6) 0.6117(2)
C20 C -0.1560(5) 0.2831(5) 0.5829(2)
C21 C 0.0301(6) 0.1971(5) 0.5559(2)
C22 C 0.4216(6) 0.2483(5) 1.3864(2)
H1 H 0.6241 0.1048 1.1146
H2 H 0.4681 0.0868 0.7367
H3 H 0.1349 0.3489 1.3497
H4 H -0.0126 0.3671 1.2053
H5 H -0.3054 0.3767 0.6800
H6 H -0.1602 0.3642 0.8257
H7 H 0.7614 0.0820 1.2605
H8 H 0.7189 0.1311 1.3990
H9 H 0.3176 0.0956 0.5934
H10 H -0.2668 0.3156 0.5435
H11 H 0.0410 0.1699 0.4991
H12 H 0.4058 0.2713 1.4434
loop_
_geom_bond_atom_site_label_1
_geom_bond_atom_site_label_2
_geom_bond_site_symmetry_1
_geom_bond_site_symmetry_2
S1 C3 1_555 1_555
S2 C2 1_555 1_555
C1 C4 1_555 1_555
C2 C6 1_555 1_555
C3 C6 1_555 1_555
C4 S2 1_555 1_555
C5 C1 1_555 1_555
C6 C14 1_555 1_555
C7 S1 1_555 1_555
C8 C3 1_555 1_555
C9 C12 1_555 1_555
C10 C4 1_555 1_555
C11 C13 1_555 1_555
C12 C10 1_555 1_555
C13 C14 1_555 1_555
C14 H6 1_555 1_555
C15 C5 1_555 1_555
C16 C15 1_555 1_555
C17 C16 1_555 1_555
C18 C8 1_555 1_555
C19 C18 1_555 1_555
C20 C11 1_555 1_555
C21 C19 1_555 1_555
C22 C9 1_555 1_555
H1 C5 1_555 1_555
H2 C8 1_555 1_555
H3 C9 1_555 1_555
H4 C10 1_555 1_555
H5 C11 1_555 1_555
H7 C16 1_555 1_555
H8 C17 1_555 1_555
H9 C19 1_555 1_555
H10 C20 1_555 1_555
H11 C21 1_555 1_555
H12 C22 1_555 1_555
C1 C7 1_555 1_555
C2 C7 1_555 1_555
C12 C15 1_555 1_555
C13 C18 1_555 1_555
C17 C22 1_555 1_555
C20 C21 1_555 1_555

#END
