
#######################################################################
#
#                 Cambridge Crystallographic Data Centre
#                                CCDC 
#
#######################################################################
#
# If this CIF has been generated from an entry in the Cambridge 
# Structural Database, then it will include bibliographic, chemical, 
# crystal, experimental, refinement or atomic coordinate data resulting 
# from the CCDC's data processing and validation procedures.
#
#######################################################################

data_NICOAC05
_chemical_name_common            Niacin
_chemical_formula_moiety         'C6 H5 N1 O2'
_chemical_name_systematic        'nicotinic acid'
_chemical_properties_biological  
'vasodilator, toxic, lowers VLDL levels, increases HDL levels'
_symmetry_cell_setting           monoclinic
_symmetry_space_group_name_H-M   'P 21/c'
_symmetry_Int_Tables_number      14
_space_group_name_Hall           '-P 2ybc'
loop_
_symmetry_equiv_pos_site_id
_symmetry_equiv_pos_as_xyz
1 x,y,z
2 -x,1/2+y,1/2-z
3 -x,-y,-z
4 x,1/2-y,1/2+z
_cell_length_a                   7.303(11)
_cell_length_b                   11.693(2)
_cell_length_c                   7.33(3)
_cell_angle_alpha                90
_cell_angle_beta                 113.68(14)
_cell_angle_gamma                90
_cell_volume                     573.236
_exptl_crystal_description       nanocrystal
_cell_formula_units_Z            4
loop_
_atom_site_label
_atom_site_type_symbol
_atom_site_fract_x
_atom_site_fract_y
_atom_site_fract_z
N1 N 0.736(4) 0.8896(10) 0.708(2)
C1 C 0.848(5) 0.7925(11) 0.720(2)
H1 H 0.9828 0.7978 0.7459
O1 O 0.802(5) 0.4854(12) 0.697(2)
C2 C 0.751(5) 0.6824(11) 0.692(2)
O2 O 1.055(5) 0.5870(11) 0.746(2)
H2 H 1.115(16) 0.529(17) 0.80(3)
C3 C 0.547(5) 0.6760(12) 0.652(2)
H3 H 0.4826 0.6056 0.6339
C4 C 0.442(6) 0.7771(15) 0.639(3)
H4 H 0.3081 0.7785 0.6179
C5 C 0.560(6) 0.8802(13) 0.660(3)
H5 H 0.4880 0.9483 0.6327
C6 C 0.866(5) 0.5751(11) 0.706(2)
loop_
_geom_bond_atom_site_label_1
_geom_bond_atom_site_label_2
_geom_bond_site_symmetry_1
_geom_bond_site_symmetry_2
N1 C1 1_555 1_555
C1 H1 1_555 1_555
O1 C6 1_555 1_555
C2 C1 1_555 1_555
O2 H2 1_555 1_555
C3 C2 1_555 1_555
H3 C3 1_555 1_555
C4 C3 1_555 1_555
H4 C4 1_555 1_555
C5 N1 1_555 1_555
H5 C5 1_555 1_555
C6 C2 1_555 1_555
O2 C6 1_555 1_555
C4 C5 1_555 1_555

#END
