
#######################################################################
#
#                 Cambridge Crystallographic Data Centre
#                                CCDC 
#
#######################################################################
#
# If this CIF has been generated from an entry in the Cambridge 
# Structural Database, then it will include bibliographic, chemical, 
# crystal, experimental, refinement or atomic coordinate data resulting 
# from the CCDC's data processing and validation procedures.
#
#######################################################################

data_NICOTI
_chemical_formula_moiety         'C10 H16 N2 2+,2(I1 1-)'
_chemical_name_systematic        'Nicotine dihydroiodide'
_symmetry_cell_setting           orthorhombic
_symmetry_space_group_name_H-M   'P 21 21 21'
_symmetry_Int_Tables_number      19
_space_group_name_Hall           'P 2ac 2ab'
loop_
_symmetry_equiv_pos_site_id
_symmetry_equiv_pos_as_xyz
1 x,y,z
2 1/2+x,1/2-y,-z
3 -x,1/2+y,1/2-z
4 1/2-x,-y,1/2+z
_cell_length_a                   7.61
_cell_length_b                   11.01
_cell_length_c                   17.27
_cell_angle_alpha                90
_cell_angle_beta                 90
_cell_angle_gamma                90
_cell_volume                     1446.99
_chemical_melting_point          195deg.C
_cell_formula_units_Z            4
loop_
_atom_site_label
_atom_site_type_symbol
_atom_site_fract_x
_atom_site_fract_y
_atom_site_fract_z
C1 C 0.52300 -0.28200 -0.26000
C2 C 0.35300 -0.34300 -0.56100
C3 C 0.64200 -0.35300 -0.30200
C4 C 0.59000 -0.42400 -0.36500
C5 C 0.41300 -0.43300 -0.38800
C6 C 0.30700 -0.35600 -0.34700
C7 C 0.35800 -0.49500 -0.46300
C8 C 0.37500 -0.63300 -0.45000
C9 C 0.40800 -0.68200 -0.53300
C10 C 0.39500 -0.58000 -0.59700
N1 N 0.35500 -0.29300 -0.28300
N2 N 0.40000 -0.47200 -0.54600
I1 I 0.49700 -0.38200 0.21300
I2 I -0.13000 -0.47500 0.44100
loop_
_geom_bond_atom_site_label_1
_geom_bond_atom_site_label_2
_geom_bond_site_symmetry_1
_geom_bond_site_symmetry_2
C1 C3 1_555 1_555
C2 N2 1_555 1_555
C3 C4 1_555 1_555
C4 C5 1_555 1_555
C5 C6 1_555 1_555
C6 N1 1_555 1_555
C7 C5 1_555 1_555
C8 C7 1_555 1_555
C9 C8 1_555 1_555
C10 C9 1_555 1_555
N1 C1 1_555 1_555
N2 C7 1_555 1_555
C10 N2 1_555 1_555

#END
