
#######################################################################
#
#                 Cambridge Crystallographic Data Centre
#                                CCDC 
#
#######################################################################
#
# If this CIF has been generated from an entry in the Cambridge 
# Structural Database, then it will include bibliographic, chemical, 
# crystal, experimental, refinement or atomic coordinate data resulting 
# from the CCDC's data processing and validation procedures.
#
#######################################################################

data_NICOAC06
_chemical_name_common            Niacin
_chemical_formula_moiety         'C6 H5 N1 O2'
_chemical_name_systematic        'nicotinic acid'
_chemical_properties_biological  
'vasodilator, toxic, lowers VLDL levels, increases HDL levels'
_symmetry_cell_setting           monoclinic
_symmetry_space_group_name_H-M   'P 21/c'
_symmetry_Int_Tables_number      14
_space_group_name_Hall           '-P 2ybc'
loop_
_symmetry_equiv_pos_site_id
_symmetry_equiv_pos_as_xyz
1 x,y,z
2 -x,1/2+y,1/2-z
3 -x,-y,-z
4 x,1/2-y,1/2+z
_cell_length_a                   7.41(3)
_cell_length_b                   11.692(2)
_cell_length_c                   7.377(11)
_cell_angle_alpha                90
_cell_angle_beta                 114.45(14)
_cell_angle_gamma                90
_cell_volume                     581.811
_cell_formula_units_Z            4
loop_
_atom_site_label
_atom_site_type_symbol
_atom_site_fract_x
_atom_site_fract_y
_atom_site_fract_z
C1 C 0.638(5) 0.5758(11) 0.292(2)
C2 C 0.655(5) 0.7931(12) 0.279(2)
H1 H 0.5230 0.7977 0.2588
O1 O 0.447(5) 0.5868(12) 0.249(2)
H2 H 0.3923 0.5244 0.2173
N1 N 0.770(5) 0.8912(11) 0.289(2)
O2 O 0.702(6) 0.4865(16) 0.299(3)
C3 C 0.758(6) 0.6834(13) 0.302(3)
C4 C 0.952(6) 0.8795(13) 0.334(2)
H3 H 1.0262 0.9453 0.3455
C5 C 1.047(7) 0.7770(16) 0.366(3)
H4 H 1.1840 0.7780 0.4048
C6 C 0.960(5) 0.6757(12) 0.345(2)
H5 H 1.0266 0.6066 0.3577
loop_
_geom_bond_atom_site_label_1
_geom_bond_atom_site_label_2
_geom_bond_site_symmetry_1
_geom_bond_site_symmetry_2
C1 O1 1_555 1_555
C2 H1 1_555 1_555
O1 H2 1_555 1_555
N1 C2 1_555 1_555
O2 C1 1_555 1_555
C3 C1 1_555 1_555
C4 N1 1_555 1_555
H3 C4 1_555 1_555
C5 C4 1_555 1_555
H4 C5 1_555 1_555
C6 C3 1_555 1_555
H5 C6 1_555 1_555
C2 C3 1_555 1_555
C5 C6 1_555 1_555

#END
