
#######################################################################
#
#                 Cambridge Crystallographic Data Centre
#                                CCDC 
#
#######################################################################
#
# If this CIF has been generated from an entry in the Cambridge 
# Structural Database, then it will include bibliographic, chemical, 
# crystal, experimental, refinement or atomic coordinate data resulting 
# from the CCDC's data processing and validation procedures.
#
#######################################################################

data_NICREZ
_chemical_formula_moiety         'C19 H20 O4'
_chemical_name_systematic        
'6-methoxy-1,5-dimethyl-2,3,3a,8,9,9b-hexahydro-3,9a-(epoxymethano)cyclopenta[def]phenanthrene-4,10(1H)-dione unknown solvate'
_symmetry_cell_setting           monoclinic
_symmetry_space_group_name_H-M   'P 21/n'
_symmetry_Int_Tables_number      14
_space_group_name_Hall           '-P 2yn'
loop_
_symmetry_equiv_pos_site_id
_symmetry_equiv_pos_as_xyz
1 x,y,z
2 1/2-x,1/2+y,1/2-z
3 -x,-y,-z
4 1/2+x,1/2-y,1/2+z
_cell_length_a                   9.4235(12)
_cell_length_b                   20.518(3)
_cell_length_c                   18.322(2)
_cell_angle_alpha                90
_cell_angle_beta                 99.732(5)
_cell_angle_gamma                90
_cell_volume                     3491.6
_exptl_crystal_colour            'light colorless'
_exptl_crystal_description       block
_cell_formula_units_Z            8
loop_
_atom_site_label
_atom_site_type_symbol
_atom_site_fract_x
_atom_site_fract_y
_atom_site_fract_z
O1 O 0.66743(18) 0.43334(8) 0.31541(9)
O2 O 0.8673(2) 0.42818(9) 0.39770(10)
O3 O 0.6000(2) 0.61260(10) 0.58034(11)
O4 O 0.34987(19) 0.53473(11) 0.30548(12)
C1 C 0.8003(3) 0.45521(11) 0.34502(13)
C2 C 0.8188(2) 0.58945(11) 0.43279(14)
C3 C 0.5270(2) 0.58561(10) 0.45626(14)
C4 C 0.7256(2) 0.56413(10) 0.29857(13)
H1 H 0.7495 0.6034 0.2727
C5 C 0.7062(2) 0.57996(10) 0.37538(13)
C6 C 0.7852(2) 0.60010(11) 0.50277(15)
H2 H 0.8585 0.6072 0.5428
C7 C 0.5634(2) 0.57433(10) 0.38678(14)
C8 C 0.8486(2) 0.51322(11) 0.30398(13)
C9 C 0.3751(3) 0.57994(13) 0.47154(17)
H3 H 0.3367 0.6227 0.4767
H4 H 0.3755 0.5558 0.5165
H5 H 0.3166 0.5577 0.4312
C10 C 0.5798(3) 0.53669(12) 0.26223(14)
H6 H 0.5448 0.5599 0.2159
C11 C 0.8560(3) 0.48873(13) 0.22484(14)
H7 H 0.8706 0.5266 0.1944
C12 C 0.4778(3) 0.54820(12) 0.31793(15)
C13 C 0.9858(3) 0.54402(13) 0.34652(16)
H8 H 1.0257 0.5726 0.3130
H9 H 1.0553 0.5095 0.3610
C14 C 0.6405(3) 0.60018(11) 0.51351(14)
C15 C 0.6045(3) 0.46500(13) 0.24639(14)
H10 H 0.5127 0.4442 0.2260
C16 C 0.9698(3) 0.58333(16) 0.41614(18)
H11 H 1.0296 0.5632 0.4584
H12 H 1.0072 0.6268 0.4110
C17 C 0.9798(3) 0.44091(16) 0.22184(18)
H13 H 1.0700 0.4623 0.2388
H14 H 0.9768 0.4264 0.1718
H15 H 0.9702 0.4041 0.2530
C18 C 0.7089(3) 0.45802(15) 0.19248(15)
H16 H 0.6698 0.4794 0.1462
H17 H 0.7219 0.4122 0.1823
C19 C 0.7061(4) 0.61932(16) 0.64359(17)
H18 H 0.7633 0.6572 0.6385
H19 H 0.7666 0.5814 0.6490
H20 H 0.6608 0.6239 0.6865
O5 O 0.8626(2) 0.66282(8) 0.12909(11)
O6 O 0.38458(19) 0.71034(10) 0.31549(10)
O7 O 0.6663(3) 0.60510(9) 0.09280(12)
O8 O 0.9176(2) 0.78370(12) 0.26932(12)
C20 C 0.5975(2) 0.75881(10) 0.14552(13)
C21 C 0.3902(3) 0.71627(12) 0.18382(14)
H21 H 0.2980 0.6987 0.1731
C22 C 0.5956(2) 0.74811(11) 0.27773(13)
C23 C 0.4537(2) 0.72513(11) 0.25739(13)
C24 C 0.6926(3) 0.77211(10) 0.08959(13)
H22 H 0.6629 0.8120 0.0617
C25 C 0.6663(2) 0.76335(10) 0.21829(13)
C26 C 0.4616(3) 0.73311(11) 0.12576(13)
C27 C 0.7316(3) 0.65480(11) 0.08761(15)
C28 C 0.6805(3) 0.71225(11) 0.03770(13)
C29 C 0.8223(3) 0.77740(12) 0.21702(15)
C30 C 0.6640(3) 0.75427(13) 0.35721(14)
H23 H 0.6333 0.7941 0.3771
H24 H 0.7669 0.7546 0.3609
H25 H 0.6359 0.7180 0.3847
C31 C 0.7932(3) 0.72057(12) -0.01505(16)
H26 H 0.7727 0.7621 -0.0412
C32 C 0.4077(3) 0.72242(16) 0.04487(15)
H27 H 0.3599 0.7618 0.0244
H28 H 0.3363 0.6879 0.0396
C33 C 0.5251(3) 0.70431(16) -0.00101(15)
H29 H 0.5109 0.6593 -0.0166
H30 H 0.5112 0.7310 -0.0454
C34 C 0.8416(3) 0.77984(12) 0.13565(15)
H31 H 0.8835 0.8217 0.1248
C35 C 0.9326(3) 0.72403(14) 0.11442(17)
H32 H 1.0292 0.7260 0.1442
C36 C 0.7842(4) 0.66725(17) -0.0733(2)
H33 H 0.7962 0.6255 -0.0494
H34 H 0.8587 0.6736 -0.1024
H35 H 0.6919 0.6690 -0.1049
C37 C 0.9433(4) 0.72625(15) 0.03279(18)
H36 H 1.0036 0.6907 0.0211
H37 H 0.9877 0.7669 0.0218
C38 C 0.2373(3) 0.69187(18) 0.29907(17)
H38 H 0.2271 0.6551 0.2662
H39 H 0.1814 0.7276 0.2759
H40 H 0.2040 0.6804 0.3441
loop_
_geom_bond_atom_site_label_1
_geom_bond_atom_site_label_2
_geom_bond_site_symmetry_1
_geom_bond_site_symmetry_2
O1 C1 1_555 1_555
O2 C1 1_555 1_555
O3 C14 1_555 1_555
O4 C12 1_555 1_555
C1 C8 1_555 1_555
C2 C5 1_555 1_555
C3 C7 1_555 1_555
C4 H1 1_555 1_555
C5 C4 1_555 1_555
C6 C2 1_555 1_555
H2 C6 1_555 1_555
C7 C5 1_555 1_555
C8 C4 1_555 1_555
C9 C3 1_555 1_555
H3 C9 1_555 1_555
H4 C9 1_555 1_555
H5 C9 1_555 1_555
C10 C4 1_555 1_555
H6 C10 1_555 1_555
C11 C8 1_555 1_555
H7 C11 1_555 1_555
C12 C7 1_555 1_555
C13 C8 1_555 1_555
H8 C13 1_555 1_555
H9 C13 1_555 1_555
C14 C3 1_555 1_555
C15 O1 1_555 1_555
H10 C15 1_555 1_555
C16 C2 1_555 1_555
H11 C16 1_555 1_555
H12 C16 1_555 1_555
C17 C11 1_555 1_555
H13 C17 1_555 1_555
H14 C17 1_555 1_555
H15 C17 1_555 1_555
C18 C11 1_555 1_555
H16 C18 1_555 1_555
H17 C18 1_555 1_555
C19 O3 1_555 1_555
H18 C19 1_555 1_555
H19 C19 1_555 1_555
H20 C19 1_555 1_555
O5 C27 1_555 1_555
O6 C23 1_555 1_555
O7 C27 1_555 1_555
O8 C29 1_555 1_555
C20 C24 1_555 1_555
C21 H21 1_555 1_555
C22 C23 1_555 1_555
C23 C21 1_555 1_555
C24 H22 1_555 1_555
C25 C20 1_555 1_555
C26 C20 1_555 1_555
C27 C28 1_555 1_555
C28 C24 1_555 1_555
C29 C25 1_555 1_555
C30 C22 1_555 1_555
H23 C30 1_555 1_555
H24 C30 1_555 1_555
H25 C30 1_555 1_555
C31 C28 1_555 1_555
H26 C31 1_555 1_555
C32 C26 1_555 1_555
H27 C32 1_555 1_555
H28 C32 1_555 1_555
C33 C28 1_555 1_555
H29 C33 1_555 1_555
H30 C33 1_555 1_555
C34 C24 1_555 1_555
H31 C34 1_555 1_555
C35 O5 1_555 1_555
H32 C35 1_555 1_555
C36 C31 1_555 1_555
H33 C36 1_555 1_555
H34 C36 1_555 1_555
H35 C36 1_555 1_555
C37 C31 1_555 1_555
H36 C37 1_555 1_555
H37 C37 1_555 1_555
C38 O6 1_555 1_555
H38 C38 1_555 1_555
H39 C38 1_555 1_555
H40 C38 1_555 1_555
C6 C14 1_555 1_555
C10 C12 1_555 1_555
C10 C15 1_555 1_555
C13 C16 1_555 1_555
C15 C18 1_555 1_555
C21 C26 1_555 1_555
C22 C25 1_555 1_555
C29 C34 1_555 1_555
C32 C33 1_555 1_555
C34 C35 1_555 1_555
C35 C37 1_555 1_555

#END
