
#######################################################################
#
#                 Cambridge Crystallographic Data Centre
#                                CCDC 
#
#######################################################################
#
# If this CIF has been generated from an entry in the Cambridge 
# Structural Database, then it will include bibliographic, chemical, 
# crystal, experimental, refinement or atomic coordinate data resulting 
# from the CCDC's data processing and validation procedures.
#
#######################################################################

data_NICROJ
_chemical_formula_moiety         'C19 H22 O4'
_chemical_name_systematic        
9b-hydroxy-6-methoxy-1,5-dimethyl-1,2,3,3a,4,8,9,9b-octahydro-3,9a-(epoxymethano)cyclopenta[def]phenanthren-10-one
_symmetry_cell_setting           monoclinic
_symmetry_space_group_name_H-M   'P 21/c'
_symmetry_Int_Tables_number      14
_space_group_name_Hall           '-P 2ybc'
loop_
_symmetry_equiv_pos_site_id
_symmetry_equiv_pos_as_xyz
1 x,y,z
2 -x,1/2+y,1/2-z
3 -x,-y,-z
4 x,1/2-y,1/2+z
_cell_length_a                   9.4065(10)
_cell_length_b                   14.5426(16)
_cell_length_c                   11.1202(12)
_cell_angle_alpha                90
_cell_angle_beta                 91.584(3)
_cell_angle_gamma                90
_cell_volume                     1520.61
_exptl_crystal_colour            'light colorless'
_exptl_crystal_description       block
_cell_formula_units_Z            4
loop_
_atom_site_label
_atom_site_type_symbol
_atom_site_fract_x
_atom_site_fract_y
_atom_site_fract_z
O1 O 0.52353(10) 0.30372(6) 0.49491(8)
O2 O 0.76635(10) 0.49172(7) 0.01965(8)
H1 H 0.8216 0.4463 0.0201
O3 O 0.83055(10) 0.70521(6) 0.10713(8)
O4 O 1.03989(10) 0.65047(7) 0.05725(9)
C1 C 0.58691(13) 0.35181(9) 0.40446(11)
C2 C 0.69792(13) 0.45482(9) 0.22618(11)
C3 C 0.50090(13) 0.42164(9) 0.35240(11)
C4 C 0.72697(14) 0.33668(9) 0.37164(11)
H2 H 0.7820 0.2898 0.4100
C5 C 0.56202(13) 0.47424(9) 0.26318(11)
C6 C 0.75081(13) 0.52426(9) 0.14030(11)
C7 C 0.89480(13) 0.56045(9) 0.19367(11)
C8 C 0.78586(14) 0.39088(9) 0.28210(11)
C9 C 1.00005(14) 0.48005(9) 0.19594(12)
H3 H 1.0873 0.4992 0.2411
H4 H 1.0270 0.4663 0.1124
C10 C 0.87341(14) 0.60248(9) 0.32147(11)
H5 H 0.8345 0.5532 0.3739
C11 C 0.93261(14) 0.64001(9) 0.11360(11)
C12 C 0.35490(14) 0.44164(10) 0.39796(13)
H6 H 0.2967 0.3858 0.3928
H7 H 0.3101 0.4901 0.3488
H8 H 0.3628 0.4620 0.4819
C13 C 0.50766(14) 0.56230(9) 0.20404(13)
C14 C 0.76172(14) 0.68003(9) 0.31111(12)
H9 H 0.6820 0.6667 0.3647
H10 H 0.8053 0.7391 0.3365
C15 C 0.63651(14) 0.59942(9) 0.13407(12)
H11 H 0.6064 0.6092 0.0481
C16 C 0.70652(14) 0.68725(9) 0.18234(12)
H12 H 0.6379 0.7396 0.1748
C17 C 0.60691(15) 0.23652(10) 0.55858(13)
H13 H 0.6380 0.1892 0.5023
H14 H 0.5496 0.2081 0.6208
H15 H 0.6904 0.2662 0.5963
C18 C 1.01261(16) 0.63666(10) 0.37992(14)
H16 H 1.0725 0.5839 0.4023
H17 H 0.9919 0.6724 0.4521
H18 H 1.0626 0.6756 0.3229
C19 C 0.94214(15) 0.39064(10) 0.25364(14)
H19 H 0.9600 0.3388 0.1984
H20 H 0.9974 0.3788 0.3291
H21 H 0.4772(17) 0.6068(11) 0.2651(15)
H22 H 0.4262(19) 0.5517(12) 0.1496(16)
loop_
_geom_bond_atom_site_label_1
_geom_bond_atom_site_label_2
_geom_bond_site_symmetry_1
_geom_bond_site_symmetry_2
O1 C1 1_555 1_555
O2 H1 1_555 1_555
O3 C11 1_555 1_555
O4 C11 1_555 1_555
C1 C3 1_555 1_555
C2 C5 1_555 1_555
C3 C5 1_555 1_555
C4 C1 1_555 1_555
H2 C4 1_555 1_555
C5 C13 1_555 1_555
C6 O2 1_555 1_555
C7 C6 1_555 1_555
C8 C2 1_555 1_555
C9 C7 1_555 1_555
H3 C9 1_555 1_555
H4 C9 1_555 1_555
C10 C7 1_555 1_555
H5 C10 1_555 1_555
C11 C7 1_555 1_555
C12 C3 1_555 1_555
H6 C12 1_555 1_555
H7 C12 1_555 1_555
H8 C12 1_555 1_555
C13 C15 1_555 1_555
C14 C10 1_555 1_555
H9 C14 1_555 1_555
H10 C14 1_555 1_555
C15 C6 1_555 1_555
H11 C15 1_555 1_555
C16 O3 1_555 1_555
H12 C16 1_555 1_555
C17 O1 1_555 1_555
H13 C17 1_555 1_555
H14 C17 1_555 1_555
H15 C17 1_555 1_555
C18 C10 1_555 1_555
H16 C18 1_555 1_555
H17 C18 1_555 1_555
H18 C18 1_555 1_555
C19 C8 1_555 1_555
H19 C19 1_555 1_555
H20 C19 1_555 1_555
H21 C13 1_555 1_555
H22 C13 1_555 1_555
C2 C6 1_555 1_555
C4 C8 1_555 1_555
C9 C19 1_555 1_555
C14 C16 1_555 1_555
C15 C16 1_555 1_555

#END
