
#######################################################################
#
#                 Cambridge Crystallographic Data Centre
#                                CCDC 
#
#######################################################################
#
# If this CIF has been generated from an entry in the Cambridge 
# Structural Database, then it will include bibliographic, chemical, 
# crystal, experimental, refinement or atomic coordinate data resulting 
# from the CCDC's data processing and validation procedures.
#
#######################################################################

data_NICRIC
_chemical_formula_moiety         'C26 H16 Br2'
_chemical_name_systematic        2,6-Dibromo-9,10-diphenylanthracene
_symmetry_cell_setting           monoclinic
_symmetry_space_group_name_H-M   'P 21/c'
_symmetry_Int_Tables_number      14
_space_group_name_Hall           '-P 2ybc'
loop_
_symmetry_equiv_pos_site_id
_symmetry_equiv_pos_as_xyz
1 x,y,z
2 -x,1/2+y,1/2-z
3 -x,-y,-z
4 x,1/2-y,1/2+z
_cell_length_a                   10.7905(14)
_cell_length_b                   15.832(2)
_cell_length_c                   5.8309(7)
_cell_angle_alpha                90
_cell_angle_beta                 96.579(2)
_cell_angle_gamma                90
_cell_volume                     989.563
_exptl_crystal_colour            colorless
_exptl_crystal_description       block
_cell_formula_units_Z            2
loop_
_atom_site_label
_atom_site_type_symbol
_atom_site_fract_x
_atom_site_fract_y
_atom_site_fract_z
C1 C 0.96477(19) 0.43279(13) 0.3481(4)
Br1 Br 0.75055(2) 0.672432(18) 1.13158(5)
C2 C 0.5445(3) 0.4132(2) 0.2740(6)
H1 H 0.4874 0.4266 0.1474
C3 C 0.5094(3) 0.3617(2) 0.4419(6)
H2 H 0.4284 0.3410 0.4324
C4 C 0.7143(3) 0.3743(2) 0.6441(5)
H3 H 0.7703 0.3613 0.7726
C5 C 0.7504(2) 0.42682(14) 0.4732(4)
C6 C 0.8284(2) 0.56384(14) 0.7888(4)
H4 H 0.7488 0.5409 0.7845
C7 C 0.91300(19) 0.53076(14) 0.6428(4)
C8 C 0.8788(2) 0.46369(14) 0.4893(4)
C9 C 0.9359(2) 0.36375(15) 0.1949(4)
H5 H 0.8581 0.3382 0.1911
C10 C 0.5937(4) 0.3411(2) 0.6226(7)
H6 H 0.5710 0.3042 0.7345
C11 C 1.0181(3) 0.33374(15) 0.0536(5)
H7 H 0.9960 0.2896 -0.0481
C12 C 0.8624(2) 0.62884(15) 0.9352(4)
C13 C 0.6632(2) 0.4457(2) 0.2893(5)
H8 H 0.6851 0.4811 0.1731
C1B C 1.03523(19) 0.56721(13) 0.6519(4)
Br1B Br 1.24945(2) 0.327568(18) -0.13158(5)
C2B C 1.4555(3) 0.5868(2) 0.7260(6)
H1B H 1.5126 0.5734 0.8526
C3B C 1.4906(3) 0.6383(2) 0.5581(6)
H2B H 1.5716 0.6590 0.5676
C4B C 1.2857(3) 0.6257(2) 0.3559(5)
H3B H 1.2297 0.6387 0.2274
C5B C 1.2496(2) 0.57318(14) 0.5268(4)
C6B C 1.1716(2) 0.43616(14) 0.2112(4)
H4B H 1.2512 0.4591 0.2155
C7B C 1.08700(19) 0.46924(14) 0.3572(4)
C8B C 1.1212(2) 0.53631(14) 0.5107(4)
C9B C 1.0641(2) 0.63625(15) 0.8051(4)
H5B H 1.1419 0.6618 0.8089
C10B C 1.4063(4) 0.6589(2) 0.3774(7)
H6B H 1.4290 0.6958 0.2655
C11B C 0.9819(3) 0.66626(15) 0.9464(5)
H7B H 1.0040 0.7104 1.0481
C12B C 1.1376(2) 0.37116(15) 0.0648(4)
C13B C 1.3368(2) 0.5543(2) 0.7107(5)
H8B H 1.3149 0.5189 0.8269
loop_
_geom_bond_atom_site_label_1
_geom_bond_atom_site_label_2
_geom_bond_site_symmetry_1
_geom_bond_site_symmetry_2
C1 C8 1_555 1_555
Br1 C12 1_555 1_555
C2 H1 1_555 1_555
C3 C2 1_555 1_555
H2 C3 1_555 1_555
C4 H3 1_555 1_555
C5 C4 1_555 1_555
C6 H4 1_555 1_555
C7 C6 1_555 1_555
C8 C5 1_555 1_555
C9 C1 1_555 1_555
H5 C9 1_555 1_555
C10 C3 1_555 1_555
H6 C10 1_555 1_555
C11 C9 1_555 1_555
H7 C11 1_555 1_555
C12 C6 1_555 1_555
C13 C2 1_555 1_555
H8 C13 1_555 1_555
C1B C7 1_555 1_555
Br1B C12B 1_555 1_555
C2B H1B 1_555 1_555
C3B C2B 1_555 1_555
H2B C3B 1_555 1_555
C4B H3B 1_555 1_555
C5B C4B 1_555 1_555
C6B H4B 1_555 1_555
C7B C1 1_555 1_555
C8B C1B 1_555 1_555
C9B C1B 1_555 1_555
H5B C9B 1_555 1_555
C10B C3B 1_555 1_555
H6B C10B 1_555 1_555
C11B C12 1_555 1_555
H7B C11B 1_555 1_555
C12B C11 1_555 1_555
C13B C2B 1_555 1_555
H8B C13B 1_555 1_555
C4 C10 1_555 1_555
C5 C13 1_555 1_555
C7 C8 1_555 1_555
C4B C10B 1_555 1_555
C5B C8B 1_555 1_555
C5B C13B 1_555 1_555
C6B C7B 1_555 1_555
C6B C12B 1_555 1_555
C7B C8B 1_555 1_555
C9B C11B 1_555 1_555

#END
