
#######################################################################
#
#                 Cambridge Crystallographic Data Centre
#                                CCDC 
#
#######################################################################
#
# If this CIF has been generated from an entry in the Cambridge 
# Structural Database, then it will include bibliographic, chemical, 
# crystal, experimental, refinement or atomic coordinate data resulting 
# from the CCDC's data processing and validation procedures.
#
#######################################################################

data_NICSUP
_chemical_formula_moiety         'C14 H10,2(C6 F4 I2)'
_chemical_name_systematic        
'bis(1,2,4,5-Tetrafluoro-3,6-diiodobenzene) phenanthrene'
_symmetry_cell_setting           triclinic
_symmetry_space_group_name_H-M   'P -1'
_symmetry_Int_Tables_number      2
_space_group_name_Hall           '-P 1'
loop_
_symmetry_equiv_pos_site_id
_symmetry_equiv_pos_as_xyz
1 x,y,z
2 -x,-y,-z
_cell_length_a                   6.1901(16)
_cell_length_b                   9.381(3)
_cell_length_c                   12.462(3)
_cell_angle_alpha                104.290(4)
_cell_angle_beta                 90.952(4)
_cell_angle_gamma                97.561(4)
_cell_volume                     694.263
_cell_formula_units_Z            1
loop_
_atom_site_label
_atom_site_type_symbol
_atom_site_fract_x
_atom_site_fract_y
_atom_site_fract_z
C15 C 0.3643(9) 0.7795(6) 0.8474(5)
C16 C 0.5328(10) 0.6967(7) 0.8253(5)
C17 C 0.6531(10) 0.6672(7) 0.9077(5)
C18 C 0.6100(9) 0.7192(6) 1.0180(5)
C19 C 0.4401(9) 0.8022(6) 1.0407(5)
C20 C 0.3197(9) 0.8322(7) 0.9563(6)
F1 F 0.5810(8) 0.6395(6) 0.7195(3)
F2 F 0.8158(7) 0.5852(5) 0.8814(4)
F3 F 0.3896(7) 0.8572(5) 1.1459(3)
F4 F 0.1587(7) 0.9143(5) 0.9842(4)
I1 I 0.18115(9) 0.82551(6) 0.72147(5)
I2 I 0.79471(8) 0.67846(5) 1.14549(4)
C1 C 0.8595(16) 1.1277(12) 0.5766(10)
C2 C 0.8433(18) 1.2765(13) 0.6229(10)
H1 H 0.7240 1.3025 0.6639
C3 C 1.005(2) 1.3863(10) 0.6078(12)
H2 H 0.9944 1.4858 0.6388
C4 C 1.1836(19) 1.3473(12) 0.5465(12)
H3 H 1.2920 1.4207 0.5364
C5 C 1.1998(16) 1.1985(14) 0.5002(10)
H4 H 1.3191 1.1724 0.4592
C6 C 1.0378(18) 1.0887(11) 0.5153(9)
C7 C 1.2297(17) 0.8832(12) 0.4051(11)
H5 H 1.3406 0.9544 0.3939
C8 C 1.2396(18) 0.7332(14) 0.3599(11)
H6 H 1.3570 0.7041 0.3184
C9 C 1.074(2) 0.6268(11) 0.3765(11)
H7 H 1.0805 0.5265 0.3463
C10 C 0.8983(18) 0.6703(11) 0.4385(11)
H8 H 0.7875 0.5991 0.4496
C11 C 0.8885(17) 0.8202(12) 0.4837(9)
C12 C 1.0542(18) 0.9267(10) 0.4670(10)
C13 C 0.706(2) 0.8638(17) 0.5460(11)
H9 H 0.5961 0.7914 0.5563
C14 C 0.690(2) 1.0081(16) 0.5899(10)
H10 H 0.5694 1.0331 0.6299
C1A C 1.1405(16) 0.8723(12) 0.4234(10)
C2A C 1.1567(18) 0.7235(13) 0.3771(10)
H1A H 1.2760 0.6975 0.3361
C3A C 0.995(2) 0.6137(10) 0.3922(12)
H2A H 1.0056 0.5142 0.3612
C4A C 0.8164(19) 0.6527(12) 0.4535(12)
H3A H 0.7080 0.5793 0.4636
C5A C 0.8002(16) 0.8015(14) 0.4998(10)
H4A H 0.6809 0.8276 0.5408
C6A C 0.9622(18) 0.9113(11) 0.4847(9)
C7A C 0.7703(17) 1.1168(12) 0.5949(11)
H5A H 0.6594 1.0456 0.6061
C8A C 0.7604(18) 1.2668(14) 0.6401(11)
H6A H 0.6430 1.2959 0.6816
C9A C 0.926(2) 1.3732(11) 0.6235(11)
H7A H 0.9195 1.4735 0.6537
C10A C 1.1017(18) 1.3297(11) 0.5615(11)
H8A H 1.2125 1.4009 0.5504
C11A C 1.1115(17) 1.1798(12) 0.5163(9)
C12A C 0.9458(18) 1.0733(10) 0.5330(10)
C13A C 1.294(2) 1.1362(17) 0.4540(11)
H9A H 1.4039 1.2086 0.4437
C14A C 1.310(2) 0.9919(16) 0.4101(10)
H10A H 1.4306 0.9669 0.3701
loop_
_geom_bond_atom_site_label_1
_geom_bond_atom_site_label_2
_geom_bond_site_symmetry_1
_geom_bond_site_symmetry_2
C1 C2 1_555 1_555
C2 H1 1_555 1_555
C3 C2 1_555 1_555
H2 C3 1_555 1_555
C4 C3 1_555 1_555
H3 C4 1_555 1_555
C5 C4 1_555 1_555
H4 C5 1_555 1_555
C6 C1 1_555 1_555
C7 H5 1_555 1_555
C8 C7 1_555 1_555
H6 C8 1_555 1_555
C9 C8 1_555 1_555
H7 C9 1_555 1_555
C10 C9 1_555 1_555
H8 C10 1_555 1_555
C11 C10 1_555 1_555
C12 C6 1_555 1_555
C13 C11 1_555 1_555
H9 C13 1_555 1_555
C14 C1 1_555 1_555
H10 C14 1_555 1_555
C15 C16 1_555 1_555
C16 C17 1_555 1_555
C17 C18 1_555 1_555
C18 C19 1_555 1_555
C19 C20 1_555 1_555
C20 C15 1_555 1_555
F1 C16 1_555 1_555
F2 C17 1_555 1_555
F3 C19 1_555 1_555
F4 C20 1_555 1_555
I1 C15 1_555 1_555
I2 C18 1_555 1_555
C1A C7 1_555 1_555
C2A C8 1_555 1_555
H1A C2A 1_555 1_555
C3A H7 1_555 1_555
H2A C9 1_555 1_555
C4A C10 1_555 1_555
H3A C4A 1_555 1_555
C5A C11 1_555 1_555
H4A C5A 1_555 1_555
C6A C11 1_555 1_555
C7A C1 1_555 1_555
H5A C7A 1_555 1_555
C8A C2 1_555 1_555
H6A C8A 1_555 1_555
C9A C2 1_555 1_555
H7A C3 1_555 1_555
C10A C3 1_555 1_555
H8A C10A 1_555 1_555
C11A C1 1_555 1_555
C12A C1 1_555 1_555
C13A C5 1_555 1_555
H9A C13A 1_555 1_555
C14A C7 1_555 1_555
H10A C14A 1_555 1_555
H2 C9A 1_555 1_555
C4 C10A 1_555 1_555
C5 C6 1_555 1_555
C5 C11A 1_555 1_555
C6 C11A 1_555 1_555
C6 C12A 1_555 1_555
C7 C12 1_555 1_555
C9 C2A 1_555 1_555
C10 C3A 1_555 1_555
C11 C12 1_555 1_555
C11 C1A 1_555 1_555
C12 C1A 1_555 1_555
C12 C6A 1_555 1_555
C13 C14 1_555 1_555
C13 C5A 1_555 1_555
C14 C7A 1_555 1_555
C1A C2A 1_555 1_555
C1A C6A 1_555 1_555
C1A C14A 1_555 1_555
C2A C3A 1_555 1_555
C3A H2A 1_555 1_555
C3A C4A 1_555 1_555
C4A C5A 1_555 1_555
C5A C6A 1_555 1_555
C6A C12A 1_555 1_555
C7A C8A 1_555 1_555
C7A C12A 1_555 1_555
C8A C9A 1_555 1_555
C9A H7A 1_555 1_555
C9A C10A 1_555 1_555
C10A C11A 1_555 1_555
C11A C12A 1_555 1_555
C11A C13A 1_555 1_555
C13A C14A 1_555 1_555

#END
