
#######################################################################
#
#                 Cambridge Crystallographic Data Centre
#                                CCDC 
#
#######################################################################
#
# If this CIF has been generated from an entry in the Cambridge 
# Structural Database, then it will include bibliographic, chemical, 
# crystal, experimental, refinement or atomic coordinate data resulting 
# from the CCDC's data processing and validation procedures.
#
#######################################################################

data_NICVOM
_chemical_formula_moiety         'C20 H12 B1 Br2 F2 N3'
_chemical_name_systematic        
2,3-bis(4-Bromophenyl)-5,5-difluoro-5H-6\l^5^,5\l^5^-imidazo[1',2':3,4][1,3,2]diazaborolo[1,5-a]pyridine
_symmetry_cell_setting           triclinic
_symmetry_space_group_name_H-M   'P -1'
_symmetry_Int_Tables_number      2
_space_group_name_Hall           '-P 1'
loop_
_symmetry_equiv_pos_site_id
_symmetry_equiv_pos_as_xyz
1 x,y,z
2 -x,-y,-z
_cell_length_a                   12.098(10)
_cell_length_b                   13.022(12)
_cell_length_c                   13.279(12)
_cell_angle_alpha                85.69(3)
_cell_angle_beta                 84.90(3)
_cell_angle_gamma                66.276(18)
_cell_volume                     1905.83
_cell_formula_units_Z            4
loop_
_atom_site_label
_atom_site_type_symbol
_atom_site_fract_x
_atom_site_fract_y
_atom_site_fract_z
C1 C 0.6590(6) 0.3514(5) 0.5297(5)
H1 H 0.7153 0.3607 0.5674
C2 C 0.5979(6) 0.2840(5) 0.5670(5)
H2 H 0.6129 0.2480 0.6306
C3 C 0.5156(6) 0.2707(5) 0.5095(5)
H3 H 0.4743 0.2264 0.5345
C4 C 0.4950(6) 0.3222(5) 0.4165(5)
H4 H 0.4412 0.3111 0.3773
C5 C 0.6333(5) 0.4037(4) 0.4359(4)
C6 C 0.6771(5) 0.4808(4) 0.3781(4)
C7 C 0.6712(5) 0.5916(4) 0.2443(4)
C8 C 0.7486(5) 0.5966(4) 0.3128(4)
C9 C 0.6330(5) 0.6530(5) 0.1478(4)
C10 C 0.6065(5) 0.6018(5) 0.0694(4)
H5 H 0.6109 0.5288 0.0790
C11 C 0.5736(6) 0.6600(6) -0.0225(4)
H6 H 0.5571 0.6259 -0.0749
C12 C 0.5659(5) 0.7675(6) -0.0352(4)
C13 C 0.5893(6) 0.8209(6) 0.0387(5)
H7 H 0.5844 0.8940 0.0275
C14 C 0.6208(6) 0.7640(5) 0.1322(4)
H8 H 0.6337 0.8007 0.1846
C15 C 0.8295(5) 0.6575(4) 0.3046(4)
C16 C 0.8851(5) 0.6774(4) 0.2125(4)
H9 H 0.8677 0.6555 0.1528
C17 C 0.9642(5) 0.7283(5) 0.2091(4)
H10 H 1.0003 0.7410 0.1473
C18 C 0.9907(5) 0.7608(4) 0.2968(4)
C19 C 0.9383(5) 0.7435(5) 0.3890(4)
H11 H 0.9564 0.7658 0.4482
C20 C 0.8581(5) 0.6921(5) 0.3912(4)
H12 H 0.8219 0.6802 0.4532
N1 N 0.5516(4) 0.3899(4) 0.3794(4)
N2 N 0.6262(4) 0.5153(4) 0.2886(3)
N3 N 0.7520(4) 0.5267(4) 0.3988(3)
B1 B 0.5398(6) 0.4584(6) 0.2731(5)
F1 F 0.4209(3) 0.5331(3) 0.2613(3)
F2 F 0.5793(4) 0.3833(3) 0.1971(3)
Br1 Br 0.52467(9) 0.84598(8) -0.16261(6)
Br2 Br 1.10239(6) 0.83002(5) 0.29086(5)
C21 C 0.9258(6) 0.6033(5) -0.3514(4)
H13 H 0.9482 0.6142 -0.4188
C22 C 0.8515(6) 0.5477(5) -0.3251(5)
H14 H 0.8215 0.5217 -0.3752
C23 C 0.8211(6) 0.5303(5) -0.2244(5)
H15 H 0.7699 0.4935 -0.2069
C24 C 0.8664(5) 0.5674(5) -0.1502(5)
H16 H 0.8473 0.5546 -0.0823
C25 C 0.9663(5) 0.6424(4) -0.2749(4)
C26 C 1.0367(5) 0.7102(4) -0.2798(4)
C27 C 1.1171(5) 0.8010(4) -0.1999(4)
C28 C 1.1265(5) 0.8211(4) -0.3041(4)
C29 C 1.1548(5) 0.8413(4) -0.1145(4)
C30 C 1.2179(5) 0.7675(5) -0.0368(4)
H17 H 1.2366 0.6911 -0.0390
C31 C 1.2522(5) 0.8075(5) 0.0423(4)
H18 H 1.2938 0.7579 0.0934
C32 C 1.2260(5) 0.9194(5) 0.0469(4)
C33 C 1.1648(6) 0.9936(5) -0.0283(5)
H19 H 1.1481 1.0696 -0.0251
C34 C 1.1278(6) 0.9563(5) -0.1088(4)
H20 H 1.0854 1.0071 -0.1589
C35 C 1.1793(5) 0.8906(4) -0.3651(4)
C36 C 1.2659(5) 0.9236(5) -0.3333(4)
H21 H 1.2928 0.9023 -0.2684
C37 C 1.3135(5) 0.9886(5) -0.3977(5)
H22 H 1.3706 1.0112 -0.3751
C38 C 1.2758(5) 1.0185(4) -0.4929(4)
C39 C 1.1906(6) 0.9862(5) -0.5288(4)
H23 H 1.1657 1.0063 -0.5943
C40 C 1.1441(5) 0.9232(4) -0.4639(4)
H24 H 1.0867 0.9015 -0.4871
N4 N 0.9389(4) 0.6223(3) -0.1765(3)
N5 N 1.0600(4) 0.7278(3) -0.1860(3)
N6 N 1.0737(4) 0.7638(4) -0.3523(3)
B2 B 1.0060(6) 0.6685(5) -0.1018(5)
F3 F 0.9226(4) 0.7383(3) -0.0350(3)
F4 F 1.0919(4) 0.5777(3) -0.0551(3)
Br3 Br 1.27376(8) 0.97521(7) 0.15542(5)
Br4 Br 1.34222(7) 1.10169(6) -0.58493(6)
loop_
_geom_bond_atom_site_label_1
_geom_bond_atom_site_label_2
_geom_bond_site_symmetry_1
_geom_bond_site_symmetry_2
C1 H1 1_555 1_555
C2 C1 1_555 1_555
H2 C2 1_555 1_555
C3 C2 1_555 1_555
H3 C3 1_555 1_555
C4 C3 1_555 1_555
H4 C4 1_555 1_555
C5 C1 1_555 1_555
C6 C5 1_555 1_555
C7 C8 1_555 1_555
C8 C15 1_555 1_555
C9 C7 1_555 1_555
C10 C9 1_555 1_555
H5 C10 1_555 1_555
C11 C10 1_555 1_555
H6 C11 1_555 1_555
C12 C11 1_555 1_555
C13 C12 1_555 1_555
H7 C13 1_555 1_555
C14 C9 1_555 1_555
H8 C14 1_555 1_555
C15 C16 1_555 1_555
C16 H9 1_555 1_555
C17 C16 1_555 1_555
H10 C17 1_555 1_555
C18 C17 1_555 1_555
C19 C18 1_555 1_555
H11 C19 1_555 1_555
C20 C15 1_555 1_555
H12 C20 1_555 1_555
N1 C4 1_555 1_555
N2 C6 1_555 1_555
N3 C6 1_555 1_555
B1 N1 1_555 1_555
F1 B1 1_555 1_555
F2 B1 1_555 1_555
Br1 C12 1_555 1_555
Br2 C18 1_555 1_555
C21 H13 1_555 1_555
C22 C21 1_555 1_555
H14 C22 1_555 1_555
C23 C22 1_555 1_555
H15 C23 1_555 1_555
C24 C23 1_555 1_555
H16 C24 1_555 1_555
C25 C21 1_555 1_555
C26 C25 1_555 1_555
C27 C28 1_555 1_555
C28 C35 1_555 1_555
C29 C27 1_555 1_555
C30 C29 1_555 1_555
H17 C30 1_555 1_555
C31 C30 1_555 1_555
H18 C31 1_555 1_555
C32 C31 1_555 1_555
C33 C32 1_555 1_555
H19 C33 1_555 1_555
C34 C29 1_555 1_555
H20 C34 1_555 1_555
C35 C36 1_555 1_555
C36 H21 1_555 1_555
C37 C36 1_555 1_555
H22 C37 1_555 1_555
C38 C37 1_555 1_555
C39 C38 1_555 1_555
H23 C39 1_555 1_555
C40 C35 1_555 1_555
H24 C40 1_555 1_555
N4 C24 1_555 1_555
N5 C26 1_555 1_555
N6 C26 1_555 1_555
B2 N4 1_555 1_555
F3 B2 1_555 1_555
F4 B2 1_555 1_555
Br3 C32 1_555 1_555
Br4 C38 1_555 1_555
C5 N1 1_555 1_555
C7 N2 1_555 1_555
C8 N3 1_555 1_555
C13 C14 1_555 1_555
C19 C20 1_555 1_555
N2 B1 1_555 1_555
C25 N4 1_555 1_555
C27 N5 1_555 1_555
C28 N6 1_555 1_555
C33 C34 1_555 1_555
C39 C40 1_555 1_555
N5 B2 1_555 1_555

#END
