
#######################################################################
#
#                 Cambridge Crystallographic Data Centre
#                                CCDC 
#
#######################################################################
#
# If this CIF has been generated from an entry in the Cambridge 
# Structural Database, then it will include bibliographic, chemical, 
# crystal, experimental, refinement or atomic coordinate data resulting 
# from the CCDC's data processing and validation procedures.
#
#######################################################################

data_NICWEE
_chemical_formula_moiety         'C22 H21 N1 O5'
_chemical_name_systematic        
'1,4-dimethyl-5a-phenyl-4,5,5a,6-tetrahydro-1H-1,4-epoxy[1,2]dioxepino[4,5-b]quinolin-6-yl acetate unknown solvate'
_symmetry_cell_setting           monoclinic
_symmetry_space_group_name_H-M   'P 21/c'
_symmetry_Int_Tables_number      14
_space_group_name_Hall           '-P 2ybc'
loop_
_symmetry_equiv_pos_site_id
_symmetry_equiv_pos_as_xyz
1 x,y,z
2 -x,1/2+y,1/2-z
3 -x,-y,-z
4 x,1/2-y,1/2+z
_cell_length_a                   11.8837(10)
_cell_length_b                   10.0611(7)
_cell_length_c                   19.6889(16)
_cell_angle_alpha                90
_cell_angle_beta                 107.518(3)
_cell_angle_gamma                90
_cell_volume                     2244.89
_exptl_crystal_colour            colorless
_cell_formula_units_Z            4
loop_
_atom_site_label
_atom_site_type_symbol
_atom_site_fract_x
_atom_site_fract_y
_atom_site_fract_z
C1 C 0.61448(19) 0.41058(19) 0.24943(10)
H1 H 0.6262 0.3228 0.2744
C2 C 0.48773(19) 0.42997(18) 0.20845(11)
C3 C 0.3971(2) 0.3633(2) 0.22468(12)
H2 H 0.4148 0.3003 0.2624
C4 C 0.2811(2) 0.3881(2) 0.18625(14)
H3 H 0.2193 0.3411 0.1971
C5 C 0.2547(2) 0.4810(2) 0.13219(14)
H4 H 0.1747 0.4982 0.1062
C6 C 0.34452(19) 0.5496(2) 0.11546(12)
H5 H 0.3261 0.6142 0.0786
C7 C 0.46075(18) 0.52297(19) 0.15299(11)
C8 C 0.65542(17) 0.54660(18) 0.15517(10)
C9 C 0.75014(17) 0.62092(19) 0.13241(11)
C10 C 0.89514(18) 0.5245(2) 0.21522(12)
C11 C 0.82575(18) 0.4230(2) 0.24284(11)
H6 H 0.8339 0.4429 0.2933
H7 H 0.8597 0.3337 0.2408
C12 C 0.69236(17) 0.42066(18) 0.19980(10)
C13 C 1.0256(2) 0.5001(3) 0.23681(16)
H8 H 1.0411 0.4139 0.2183
H9 H 1.0571 0.5000 0.2889
H10 H 1.0639 0.5706 0.2174
C14 C 0.7102(2) 0.6802(2) 0.05913(13)
H11 H 0.7760 0.7279 0.0499
H12 H 0.6451 0.7422 0.0557
H13 H 0.6834 0.6093 0.0239
C15 C 0.66516(16) 0.29804(18) 0.15052(10)
C16 C 0.68655(18) 0.17135(19) 0.18059(11)
H14 H 0.7152 0.1625 0.2309
C17 C 0.66679(19) 0.0586(2) 0.13855(12)
H15 H 0.6822 -0.0266 0.1601
C18 C 0.62467(18) 0.0697(2) 0.06541(12)
H16 H 0.6120 -0.0078 0.0365
C19 C 0.60083(18) 0.1944(2) 0.03413(11)
H17 H 0.5710 0.2025 -0.0162
C20 C 0.62084(17) 0.30744(19) 0.07681(10)
H18 H 0.6039 0.3925 0.0552
C21 C 0.6796(2) 0.4882(2) 0.36974(12)
C22 C 0.7020(3) 0.6092(2) 0.41568(12)
H19 H 0.7355 0.5829 0.4657
H20 H 0.6277 0.6567 0.4095
H21 H 0.7577 0.6674 0.4020
N1 N 0.55089(14) 0.59267(15) 0.13373(9)
O1 O 0.64679(15) 0.51925(13) 0.30093(7)
O2 O 0.6915(3) 0.37604(18) 0.39091(9)
O3 O 0.79630(13) 0.72587(14) 0.18179(9)
O4 O 0.87473(16) 0.65507(15) 0.24190(9)
O5 O 0.84825(13) 0.53721(14) 0.14037(8)
loop_
_geom_bond_atom_site_label_1
_geom_bond_atom_site_label_2
_geom_bond_site_symmetry_1
_geom_bond_site_symmetry_2
C1 H1 1_555 1_555
C2 C1 1_555 1_555
C3 C2 1_555 1_555
H2 C3 1_555 1_555
C4 C3 1_555 1_555
H3 C4 1_555 1_555
C5 C4 1_555 1_555
H4 C5 1_555 1_555
C6 C5 1_555 1_555
H5 C6 1_555 1_555
C7 C2 1_555 1_555
C8 C9 1_555 1_555
C9 C14 1_555 1_555
C10 C11 1_555 1_555
C11 H6 1_555 1_555
H7 C11 1_555 1_555
C12 C1 1_555 1_555
C13 C10 1_555 1_555
H8 C13 1_555 1_555
H9 C13 1_555 1_555
H10 C13 1_555 1_555
C14 H11 1_555 1_555
H12 C14 1_555 1_555
H13 C14 1_555 1_555
C15 C12 1_555 1_555
C16 C15 1_555 1_555
H14 C16 1_555 1_555
C17 C16 1_555 1_555
H15 C17 1_555 1_555
C18 C17 1_555 1_555
H16 C18 1_555 1_555
C19 C18 1_555 1_555
H17 C19 1_555 1_555
C20 C15 1_555 1_555
H18 C20 1_555 1_555
C21 C22 1_555 1_555
C22 H19 1_555 1_555
H20 C22 1_555 1_555
H21 C22 1_555 1_555
N1 C7 1_555 1_555
O1 C1 1_555 1_555
O2 C21 1_555 1_555
O3 C9 1_555 1_555
O4 C10 1_555 1_555
O5 C9 1_555 1_555
C6 C7 1_555 1_555
C8 C12 1_555 1_555
C8 N1 1_555 1_555
C10 O5 1_555 1_555
C11 C12 1_555 1_555
C19 C20 1_555 1_555
C21 O1 1_555 1_555
O3 O4 1_555 1_555

#END
