
#######################################################################
#
#                 Cambridge Crystallographic Data Centre
#                                CCDC 
#
#######################################################################
#
# If this CIF has been generated from an entry in the Cambridge 
# Structural Database, then it will include bibliographic, chemical, 
# crystal, experimental, refinement or atomic coordinate data resulting 
# from the CCDC's data processing and validation procedures.
#
#######################################################################

data_NICWOO
_chemical_formula_moiety         'C70 H59 B1 N2 S1'
_chemical_name_systematic        
7,7-diphenyl-2,16,19,20-tetra-n-butyl-7H-diphenanthro[2',1',10',9':7,8,9;9'',10'',1'',2'':4,5,6]pentapheno[1,14,13-cdefg][1,2,5]thiadiazolo[4,3,2-ij][1,2]benzazaborinin-8-ium-7-ide
_symmetry_cell_setting           monoclinic
_symmetry_space_group_name_H-M   'P 21/n'
_symmetry_Int_Tables_number      14
_space_group_name_Hall           '-P 2yn'
loop_
_symmetry_equiv_pos_site_id
_symmetry_equiv_pos_as_xyz
1 x,y,z
2 1/2-x,1/2+y,1/2-z
3 -x,-y,-z
4 1/2+x,1/2-y,1/2+z
_cell_length_a                   9.0402(5)
_cell_length_b                   39.5093(15)
_cell_length_c                   27.6306(9)
_cell_angle_alpha                90
_cell_angle_beta                 97.574(4)
_cell_angle_gamma                90
_cell_volume                     9782.77
_exptl_crystal_colour            black
_exptl_crystal_description       prisms
_cell_formula_units_Z            8
loop_
_atom_site_label
_atom_site_type_symbol
_atom_site_fract_x
_atom_site_fract_y
_atom_site_fract_z
S1 S 0.6164(5) 0.47829(8) 0.61423(10)
N1 N 0.6921(9) 0.4863(2) 0.6709(2)
N2 N 0.5322(9) 0.44365(19) 0.6245(3)
C1 C 0.6520(11) 0.4614(3) 0.6996(3)
C2 C 0.5596(11) 0.4367(3) 0.6734(4)
B1 B 0.7588(12) 0.5226(2) 0.6915(3)
C3 C 0.4922(7) 0.40875(15) 0.69872(19)
C4 C 0.3843(7) 0.38532(14) 0.67580(19)
C5 C 0.3289(7) 0.38701(17) 0.6251(2)
H1 H 0.364931 0.403829 0.605052
C6 C 0.2219(8) 0.36389(19) 0.6053(2)
H2 H 0.187367 0.365145 0.571332
C7 C 0.1647(7) 0.33970(17) 0.6320(2)
H3 H 0.090995 0.324575 0.616866
C8 C 0.2148(6) 0.33693(15) 0.6826(2)
C9 C 0.1567(7) 0.31103(15) 0.7119(2)
C10 C 0.0515(7) 0.28649(18) 0.6926(3)
H4 H 0.019690 0.286234 0.658406
C11 C -0.0065(8) 0.26296(19) 0.7215(3)
H5 H -0.078446 0.247287 0.706775
C12 C 0.0379(8) 0.26124(19) 0.7735(3)
C13 C 0.1417(7) 0.28526(17) 0.7918(3)
H6 H 0.173541 0.285190 0.826006
C14 C 0.2034(6) 0.30974(15) 0.7635(2)
C15 C 0.3106(6) 0.33449(14) 0.7851(2)
C16 C 0.3435(6) 0.33828(13) 0.83542(19)
H7 H 0.288521 0.325245 0.855772
C17 C 0.4523(6) 0.36007(13) 0.85745(19)
C18 C 0.5438(6) 0.37723(12) 0.82819(17)
C19 C 0.6794(6) 0.39552(13) 0.84772(16)
C20 C 0.7771(5) 0.38475(13) 0.88937(17)
C21 C 0.8822(6) 0.40744(13) 0.91019(18)
H8 H 0.944265 0.400809 0.939074
C22 C 0.9030(6) 0.43969(13) 0.89133(18)
C23 C 1.0080(6) 0.46421(13) 0.91694(19)
C24 C 1.0791(6) 0.45788(14) 0.96488(19)
H9 H 1.057252 0.437484 0.980716
C25 C 1.1793(6) 0.48048(15) 0.9894(2)
C26 C 1.2115(7) 0.51012(14) 0.9649(2)
H10 H 1.282533 0.525665 0.980545
C27 C 1.1423(7) 0.51699(15) 0.9190(2)
H11 H 1.164519 0.537650 0.903857
C28 C 1.0394(6) 0.49461(14) 0.8932(2)
C29 C 0.9673(7) 0.50145(14) 0.8443(2)
C30 C 1.0016(9) 0.52983(17) 0.8186(2)
H12 H 1.070369 0.545974 0.833920
C31 C 0.9370(10) 0.53504(18) 0.7707(3)
H13 H 0.964767 0.554635 0.754167
C32 C 0.8343(9) 0.51316(17) 0.7461(2)
C33 C 0.7967(7) 0.48427(14) 0.7725(2)
C34 C 0.6966(7) 0.45889(14) 0.74939(19)
C35 C 0.6513(6) 0.43062(13) 0.77322(17)
C36 C 0.5484(6) 0.40587(13) 0.74837(18)
C37 C 0.4909(6) 0.37943(12) 0.77709(18)
C38 C 0.3771(6) 0.35744(13) 0.75542(18)
C39 C 0.3252(6) 0.35962(14) 0.70397(19)
C40 C 0.7175(6) 0.42480(13) 0.82282(17)
C41 C 0.8268(6) 0.44745(13) 0.84520(18)
C42 C 0.8636(7) 0.47790(14) 0.82096(19)
C43 C -0.0351(9) 0.23683(19) 0.8054(3)
H14 H -0.110916 0.224261 0.785363
H15 H -0.082286 0.249511 0.828724
C44 C 0.0720(14) 0.2130(2) 0.8315(3)
H16 H 0.019239 0.197721 0.851972
H17 H 0.148302 0.225660 0.853318
C45 C 0.1470(14) 0.1923(4) 0.7958(6)
H18 H 0.210845 0.207177 0.778507
H19 H 0.211521 0.174911 0.813674
C46 C 0.0337(16) 0.1754(4) 0.7594(5)
H20 H -0.002688 0.154824 0.773789
H21 H 0.079509 0.169360 0.730303
H22 H -0.050020 0.190840 0.750143
C47 C 0.4465(6) 0.36895(13) 0.91038(18)
H23 H 0.544891 0.377651 0.925107
H24 H 0.424060 0.348355 0.928491
C48 C 0.3261(6) 0.39587(15) 0.9148(2)
H25 H 0.230059 0.387823 0.897175
H26 H 0.313257 0.398430 0.949643
C49 C 0.3617(7) 0.43012(15) 0.8948(2)
H27 H 0.270642 0.444295 0.891992
H28 H 0.388598 0.427014 0.861458
C50 C 0.4870(7) 0.44890(15) 0.9252(2)
H29 H 0.459952 0.452971 0.957887
H30 H 0.503811 0.470600 0.909610
H31 H 0.578327 0.435300 0.927747
C51 C 0.7792(6) 0.34905(12) 0.91007(17)
H32 H 0.712894 0.334547 0.887421
H33 H 0.738292 0.349606 0.941584
C52 C 0.9347(6) 0.33314(13) 0.91818(17)
H34 H 0.978858 0.333821 0.887258
H35 H 0.999486 0.346550 0.942755
C53 C 0.9299(6) 0.29684(14) 0.9355(2)
H36 H 0.872723 0.283093 0.909470
H37 H 0.876419 0.295995 0.964486
C54 C 1.0835(7) 0.28140(17) 0.9484(3)
H38 H 1.136420 0.281696 0.919661
H39 H 1.073539 0.257993 0.959257
H40 H 1.139982 0.294542 0.974731
C55 C 1.2589(7) 0.47360(16) 1.0391(2)
H41 H 1.367151 0.476285 1.037648
H42 H 1.229759 0.491407 1.061190
C56 C 1.2373(9) 0.44158(18) 1.0611(3)
H43 H 1.260830 0.423369 1.038764
H44 H 1.130958 0.439300 1.065678
C57 C 1.3334(11) 0.4369(2) 1.1104(3)
H45 H 1.439587 0.439392 1.105703
H46 H 1.309562 0.455158 1.132610
C58 C 1.3153(14) 0.4063(3) 1.1322(4)
H47 H 1.209802 0.403150 1.135921
H48 H 1.375301 0.405857 1.164471
H49 H 1.347677 0.388103 1.111998
C59 C 0.6369(9) 0.5516(2) 0.6890(3)
C60 C 0.5965(11) 0.5664(3) 0.7300(4)
H50 H 0.643536 0.559055 0.761013
C61 C 0.4883(13) 0.5919(3) 0.7281(4)
H51 H 0.463615 0.601629 0.757416
C62 C 0.4167(13) 0.6029(4) 0.6829(5)
H52 H 0.342169 0.620006 0.681223
C63 C 0.4558(13) 0.5887(3) 0.6411(4)
H53 H 0.408480 0.595691 0.609955
C64 C 0.5644(10) 0.5643(2) 0.6450(4)
H54 H 0.592311 0.555340 0.615658
C65 C 0.8825(10) 0.5307(2) 0.6559(3)
C66 C 0.9618(14) 0.5056(3) 0.6333(4)
H55 H 0.933030 0.482582 0.635970
C67 C 1.0806(17) 0.5130(4) 0.6072(5)
H56 H 1.130472 0.495311 0.592550
C68 C 1.1220(17) 0.5444(4) 0.6031(5)
H57 H 1.204884 0.548955 0.586274
C69 C 1.0499(12) 0.5714(3) 0.6224(4)
H58 H 1.079533 0.594157 0.617718
C70 C 0.9295(10) 0.5637(2) 0.6495(3)
H59 H 0.880065 0.581715 0.663486
S3 S 0.27497(15) 0.21121(3) 0.66929(4)
N5 N 0.2435(5) 0.22344(10) 0.61188(13)
N6 N 0.3898(5) 0.24041(11) 0.68845(14)
B2 B 0.1341(6) 0.20507(15) 0.56909(19)
C76 C 0.3235(5) 0.25102(11) 0.60705(15)
C77 C 0.4100(5) 0.26171(12) 0.65168(15)
C78 C 0.5032(5) 0.29080(12) 0.65223(16)
C79 C 0.5972(6) 0.30231(12) 0.69642(16)
C80 C 0.5921(6) 0.28696(13) 0.74227(17)
H69 H 0.525313 0.268725 0.745108
C81 C 0.6835(6) 0.29825(13) 0.78301(17)
H70 H 0.677581 0.287950 0.813766
C82 C 0.7823(6) 0.32398(13) 0.77975(17)
H71 H 0.846709 0.330627 0.808132
C83 C 0.7912(6) 0.34083(12) 0.73578(16)
C84 C 0.8902(6) 0.36941(13) 0.73254(17)
C85 C 0.9817(6) 0.38245(13) 0.77390(19)
H72 H 0.980181 0.371712 0.804587
C86 C 1.0711(6) 0.40959(13) 0.77127(18)
H73 H 1.130579 0.417453 0.799990
C87 C 1.0776(6) 0.42627(14) 0.7272(2)
C88 C 0.9906(6) 0.41355(13) 0.68566(19)
H74 H 0.994706 0.424409 0.655190
C89 C 0.8980(6) 0.38555(13) 0.68730(18)
C90 C 0.8031(6) 0.37289(13) 0.64351(18)
C91 C 0.8197(7) 0.38505(15) 0.5970(2)
H75 H 0.898867 0.400305 0.593550
C92 C 0.7243(7) 0.37555(14) 0.5559(2)
C93 C 0.6024(6) 0.35463(12) 0.56088(17)
C94 C 0.4810(6) 0.34891(13) 0.52125(17)
C95 C 0.4314(7) 0.37359(14) 0.48551(19)
C96 C 0.3391(7) 0.36329(14) 0.4440(2)
H76 H 0.311826 0.379490 0.418990
C97 C 0.2846(6) 0.33054(13) 0.43706(17)
C98 C 0.1998(6) 0.31913(13) 0.39077(18)
C99 C 0.1953(6) 0.33847(14) 0.34827(18)
H77 H 0.247520 0.359383 0.349454
C100 C 0.1163(7) 0.32785(14) 0.30424(18)
C101 C 0.0418(7) 0.29709(14) 0.30359(18)
H78 H -0.012009 0.289367 0.273789
C102 C 0.0436(7) 0.27765(14) 0.34432(18)
H79 H -0.010073 0.256922 0.342644
C103 C 0.1252(6) 0.28814(13) 0.38940(17)
C104 C 0.1277(6) 0.26742(12) 0.43322(17)
C105 C 0.0415(6) 0.23852(12) 0.43560(17)
H80 H -0.021136 0.231195 0.407214
C106 C 0.0447(6) 0.22019(13) 0.47834(17)
H81 H -0.017131 0.200753 0.478403
C107 C 0.1353(5) 0.22904(11) 0.52150(16)
C108 C 0.2252(5) 0.25756(12) 0.51952(15)
C109 C 0.3228(5) 0.26899(11) 0.56231(16)
C110 C 0.4112(5) 0.29751(12) 0.56344(15)
C111 C 0.5040(5) 0.30859(12) 0.60818(15)
C112 C 0.6012(5) 0.33667(12) 0.60546(16)
C113 C 0.7008(5) 0.34667(12) 0.64734(16)
C114 C 0.6959(5) 0.32979(12) 0.69346(16)
C115 C 0.4026(6) 0.31799(12) 0.51950(16)
C116 C 0.3051(6) 0.30812(12) 0.47710(17)
C117 C 0.2218(5) 0.27746(11) 0.47644(16)
C118 C 1.1690(7) 0.45809(16) 0.7230(2)
H82 H 1.236377 0.454161 0.698070
H83 H 1.100146 0.476620 0.710944
C119 C 1.2604(8) 0.46963(18) 0.7685(2)
H84 H 1.338868 0.452611 0.778540
H85 H 1.196159 0.471227 0.794812
C120 C 1.3340(9) 0.5040(2) 0.7626(3)
H86 H 1.256698 0.521488 0.753879
H87 H 1.398226 0.502840 0.736300
C121 C 1.4278(9) 0.5130(2) 0.8112(3)
H88 H 1.362934 0.514532 0.836882
H89 H 1.477496 0.534754 0.808089
H90 H 1.503090 0.495355 0.819766
C122 C 0.7729(8) 0.38459(19) 0.5067(2)
H91 H 0.692203 0.378574 0.480374
H92 H 0.789168 0.409333 0.505341
C123 C 0.9138(9) 0.3666(3) 0.4982(3)
H93 H 0.937107 0.372582 0.465245
H94 H 0.996729 0.374987 0.522178
C124 C 0.9082(12) 0.3303(3) 0.5019(4)
H95 H 0.877532 0.324175 0.533875
H96 H 1.009674 0.321072 0.500972
C125 C 0.8033(12) 0.3138(3) 0.4623(5)
H97 H 0.700339 0.317138 0.468813
H98 H 0.824992 0.289540 0.461425
H99 H 0.816039 0.324025 0.430797
C126 C 0.4566(8) 0.41152(15) 0.4931(2)
H100 H 0.519369 0.415216 0.524857
H101 H 0.511751 0.420323 0.467156
C127 C 0.3124(9) 0.43130(16) 0.4925(3)
H102 H 0.258448 0.423310 0.519325
H103 H 0.247829 0.427325 0.461248
C128 C 0.3445(12) 0.4690(2) 0.4987(3)
H104 H 0.404588 0.472630 0.530882
H105 H 0.406079 0.476111 0.473385
C129 C 0.2157(15) 0.4904(3) 0.4954(5)
H106 H 0.160348 0.488850 0.462529
H107 H 0.247191 0.513854 0.502092
H108 H 0.151525 0.483115 0.519412
C130 C 0.1106(7) 0.34861(15) 0.25783(18)
H109 H 0.184059 0.367269 0.263211
H110 H 0.139224 0.334103 0.231359
C131 C -0.0427(6) 0.36331(14) 0.24208(18)
H111 H -0.118621 0.345493 0.244198
H112 H -0.061502 0.381687 0.264849
C132 C -0.0602(7) 0.37719(15) 0.19062(19)
H113 H -0.038979 0.358983 0.167900
H114 H 0.013723 0.395457 0.188677
C133 C -0.2155(7) 0.39102(16) 0.1747(2)
H115 H -0.289334 0.373173 0.177272
H116 H -0.222802 0.398775 0.140786
H117 H -0.234619 0.410040 0.195778
C134 C -0.0276(6) 0.20437(13) 0.58923(18)
C135 C -0.1333(6) 0.22892(14) 0.5784(2)
H118 H -0.115834 0.246104 0.555794
C136 C -0.2654(7) 0.22980(16) 0.5991(2)
H119 H -0.336106 0.247300 0.590629
C137 C -0.2928(7) 0.20537(18) 0.6317(2)
H120 H -0.382954 0.205807 0.645956
C138 C -0.1917(7) 0.18055(18) 0.6438(2)
H121 H -0.210222 0.163584 0.666594
C139 C -0.0609(6) 0.17997(15) 0.6228(2)
H122 H 0.008842 0.162312 0.631472
C140 C 0.2024(6) 0.16829(12) 0.55926(16)
C141 C 0.3564(6) 0.16315(14) 0.56191(18)
H123 H 0.421341 0.181551 0.571516
C142 C 0.4187(7) 0.13231(14) 0.55111(19)
H124 H 0.523953 0.129594 0.553984
C143 C 0.3238(8) 0.10552(15) 0.5360(2)
H125 H 0.363942 0.084269 0.528320
C144 C 0.1718(8) 0.10982(14) 0.53226(19)
H126 H 0.107388 0.091473 0.521909
C145 C 0.1120(7) 0.14046(13) 0.54334(18)
H127 H 0.006587 0.142867 0.540129
S2? S 0.5250(9) 0.48732(19) 0.6205(2)
N3? N 0.6288(16) 0.4915(4) 0.6742(4)
N4? N 0.4605(16) 0.4499(3) 0.6287(6)
C71? C 0.614(2) 0.4631(5) 0.6999(5)
C72? C 0.518(2) 0.4390(4) 0.6743(6)
H60? H -0.139546 0.241991 0.803284
H61? H 0.008634 0.238781 0.838844
C73? C -0.012(2) 0.2014(2) 0.7873(7)
H62? H -0.069296 0.185097 0.804881
H63? H -0.049493 0.199852 0.752032
C74? C 0.150(3) 0.1927(7) 0.7957(9)
H64? H 0.208343 0.210356 0.781193
H65? H 0.167266 0.170861 0.779685
C75? C 0.203(3) 0.1900(8) 0.8497(9)
H66? H 0.121651 0.196348 0.868054
H67? H 0.287870 0.205286 0.858339
H68? H 0.233955 0.166690 0.857748
loop_
_geom_bond_atom_site_label_1
_geom_bond_atom_site_label_2
_geom_bond_site_symmetry_1
_geom_bond_site_symmetry_2
S1 N1 1_555 1_555
N1 C1 1_555 1_555
N2 S1 1_555 1_555
C1 C2 1_555 1_555
C2 N2 1_555 1_555
B1 N1 1_555 1_555
C3 C2 1_555 1_555
C4 C3 1_555 1_555
C5 C4 1_555 1_555
H1 C5 1_555 1_555
C6 C5 1_555 1_555
H2 C6 1_555 1_555
C7 C6 1_555 1_555
H3 C7 1_555 1_555
C8 C7 1_555 1_555
C9 C8 1_555 1_555
C10 C9 1_555 1_555
H4 C10 1_555 1_555
C11 C10 1_555 1_555
H5 C11 1_555 1_555
C12 C11 1_555 1_555
C13 C12 1_555 1_555
H6 C13 1_555 1_555
C14 C9 1_555 1_555
C15 C14 1_555 1_555
C16 C15 1_555 1_555
H7 C16 1_555 1_555
C17 C16 1_555 1_555
C18 C17 1_555 1_555
C19 C18 1_555 1_555
C20 C19 1_555 1_555
C21 C20 1_555 1_555
H8 C21 1_555 1_555
C22 C21 1_555 1_555
C23 C22 1_555 1_555
C24 C23 1_555 1_555
H9 C24 1_555 1_555
C25 C24 1_555 1_555
C26 C25 1_555 1_555
H10 C26 1_555 1_555
C27 C26 1_555 1_555
H11 C27 1_555 1_555
C28 C23 1_555 1_555
C29 C28 1_555 1_555
C30 C29 1_555 1_555
H12 C30 1_555 1_555
C31 C30 1_555 1_555
H13 C31 1_555 1_555
C32 B1 1_555 1_555
C33 C32 1_555 1_555
C34 C1 1_555 1_555
C35 C34 1_555 1_555
C36 C3 1_555 1_555
C37 C18 1_555 1_555
C38 C15 1_555 1_555
C39 C4 1_555 1_555
C40 C19 1_555 1_555
C41 C22 1_555 1_555
C42 C29 1_555 1_555
C43 C12 1_555 1_555
H14 C43 1_555 1_555
H15 C43 1_555 1_555
C44 C43 1_555 1_555
H16 C44 1_555 1_555
H17 C44 1_555 1_555
C45 C44 1_555 1_555
H18 C45 1_555 1_555
H19 C45 1_555 1_555
C46 C45 1_555 1_555
H20 C46 1_555 1_555
H21 C46 1_555 1_555
H22 C46 1_555 1_555
C47 C17 1_555 1_555
H23 C47 1_555 1_555
H24 C47 1_555 1_555
C48 C47 1_555 1_555
H25 C48 1_555 1_555
H26 C48 1_555 1_555
C49 C48 1_555 1_555
H27 C49 1_555 1_555
H28 C49 1_555 1_555
C50 C49 1_555 1_555
H29 C50 1_555 1_555
H30 C50 1_555 1_555
H31 C50 1_555 1_555
C51 C20 1_555 1_555
H32 C51 1_555 1_555
H33 C51 1_555 1_555
C52 C51 1_555 1_555
H34 C52 1_555 1_555
H35 C52 1_555 1_555
C53 C52 1_555 1_555
H36 C53 1_555 1_555
H37 C53 1_555 1_555
C54 C53 1_555 1_555
H38 C54 1_555 1_555
H39 C54 1_555 1_555
H40 C54 1_555 1_555
C55 C25 1_555 1_555
H41 C55 1_555 1_555
H42 C55 1_555 1_555
C56 C55 1_555 1_555
H43 C56 1_555 1_555
H44 C56 1_555 1_555
C57 C56 1_555 1_555
H45 C57 1_555 1_555
H46 C57 1_555 1_555
C58 C57 1_555 1_555
H47 C58 1_555 1_555
H48 C58 1_555 1_555
H49 C58 1_555 1_555
C59 B1 1_555 1_555
C60 C59 1_555 1_555
H50 C60 1_555 1_555
C61 C60 1_555 1_555
H51 C61 1_555 1_555
C62 C61 1_555 1_555
H52 C62 1_555 1_555
C63 C62 1_555 1_555
H53 C63 1_555 1_555
C64 C59 1_555 1_555
H54 C64 1_555 1_555
C65 B1 1_555 1_555
C66 C65 1_555 1_555
H55 C66 1_555 1_555
C67 C66 1_555 1_555
H56 C67 1_555 1_555
C68 C67 1_555 1_555
H57 C68 1_555 1_555
C69 C68 1_555 1_555
H58 C69 1_555 1_555
C70 C65 1_555 1_555
H59 C70 1_555 1_555
S3 N5 1_555 1_555
N5 B2 1_555 1_555
N6 S3 1_555 1_555
B2 C107 1_555 1_555
C76 N5 1_555 1_555
C77 N6 1_555 1_555
C78 C77 1_555 1_555
C79 C78 1_555 1_555
C80 C79 1_555 1_555
H69 C80 1_555 1_555
C81 C80 1_555 1_555
H70 C81 1_555 1_555
C82 C81 1_555 1_555
H71 C82 1_555 1_555
C83 C82 1_555 1_555
C84 C83 1_555 1_555
C85 C84 1_555 1_555
H72 C85 1_555 1_555
C86 C85 1_555 1_555
H73 C86 1_555 1_555
C87 C86 1_555 1_555
C88 C87 1_555 1_555
H74 C88 1_555 1_555
C89 C84 1_555 1_555
C90 C89 1_555 1_555
C91 C90 1_555 1_555
H75 C91 1_555 1_555
C92 C91 1_555 1_555
C93 C92 1_555 1_555
C94 C93 1_555 1_555
C95 C94 1_555 1_555
C96 C95 1_555 1_555
H76 C96 1_555 1_555
C97 C96 1_555 1_555
C98 C97 1_555 1_555
C99 C98 1_555 1_555
H77 C99 1_555 1_555
C100 C99 1_555 1_555
C101 C100 1_555 1_555
H78 C101 1_555 1_555
C102 C101 1_555 1_555
H79 C102 1_555 1_555
C103 C98 1_555 1_555
C104 C103 1_555 1_555
C105 C104 1_555 1_555
H80 C105 1_555 1_555
C106 C105 1_555 1_555
H81 C106 1_555 1_555
C107 C106 1_555 1_555
C108 C107 1_555 1_555
C109 C76 1_555 1_555
C110 C109 1_555 1_555
C111 C78 1_555 1_555
C112 C93 1_555 1_555
C113 C90 1_555 1_555
C114 C79 1_555 1_555
C115 C94 1_555 1_555
C116 C97 1_555 1_555
C117 C104 1_555 1_555
C118 C87 1_555 1_555
H82 C118 1_555 1_555
H83 C118 1_555 1_555
C119 C118 1_555 1_555
H84 C119 1_555 1_555
H85 C119 1_555 1_555
C120 C119 1_555 1_555
H86 C120 1_555 1_555
H87 C120 1_555 1_555
C121 C120 1_555 1_555
H88 C121 1_555 1_555
H89 C121 1_555 1_555
H90 C121 1_555 1_555
C122 C92 1_555 1_555
H91 C122 1_555 1_555
H92 C122 1_555 1_555
C123 C122 1_555 1_555
H93 C123 1_555 1_555
H94 C123 1_555 1_555
C124 C123 1_555 1_555
H95 C124 1_555 1_555
H96 C124 1_555 1_555
C125 C124 1_555 1_555
H97 C125 1_555 1_555
H98 C125 1_555 1_555
H99 C125 1_555 1_555
C126 C95 1_555 1_555
H100 C126 1_555 1_555
H101 C126 1_555 1_555
C127 C126 1_555 1_555
H102 C127 1_555 1_555
H103 C127 1_555 1_555
C128 C127 1_555 1_555
H104 C128 1_555 1_555
H105 C128 1_555 1_555
C129 C128 1_555 1_555
H106 C129 1_555 1_555
H107 C129 1_555 1_555
H108 C129 1_555 1_555
C130 C100 1_555 1_555
H109 C130 1_555 1_555
H110 C130 1_555 1_555
C131 C130 1_555 1_555
H111 C131 1_555 1_555
H112 C131 1_555 1_555
C132 C131 1_555 1_555
H113 C132 1_555 1_555
H114 C132 1_555 1_555
C133 C132 1_555 1_555
H115 C133 1_555 1_555
H116 C133 1_555 1_555
H117 C133 1_555 1_555
C134 B2 1_555 1_555
C135 C134 1_555 1_555
H118 C135 1_555 1_555
C136 C135 1_555 1_555
H119 C136 1_555 1_555
C137 C136 1_555 1_555
H120 C137 1_555 1_555
C138 C137 1_555 1_555
H121 C138 1_555 1_555
C139 C134 1_555 1_555
H122 C139 1_555 1_555
C140 B2 1_555 1_555
C141 C140 1_555 1_555
H123 C141 1_555 1_555
C142 C141 1_555 1_555
H124 C142 1_555 1_555
C143 C142 1_555 1_555
H125 C143 1_555 1_555
C144 C143 1_555 1_555
H126 C144 1_555 1_555
C145 C140 1_555 1_555
H127 C145 1_555 1_555
C8 C39 1_555 1_555
C13 C14 1_555 1_555
C27 C28 1_555 1_555
C31 C32 1_555 1_555
C33 C34 1_555 1_555
C33 C42 1_555 1_555
C35 C36 1_555 1_555
C35 C40 1_555 1_555
C36 C37 1_555 1_555
C37 C38 1_555 1_555
C38 C39 1_555 1_555
C40 C41 1_555 1_555
C41 C42 1_555 1_555
C63 C64 1_555 1_555
C69 C70 1_555 1_555
C76 C77 1_555 1_555
C83 C114 1_555 1_555
C88 C89 1_555 1_555
C102 C103 1_555 1_555
C108 C109 1_555 1_555
C108 C117 1_555 1_555
C110 C111 1_555 1_555
C110 C115 1_555 1_555
C111 C112 1_555 1_555
C112 C113 1_555 1_555
C113 C114 1_555 1_555
C115 C116 1_555 1_555
C116 C117 1_555 1_555
C138 C139 1_555 1_555
C144 C145 1_555 1_555

#END
