
#######################################################################
#
#                 Cambridge Crystallographic Data Centre
#                                CCDC 
#
#######################################################################
#
# If this CIF has been generated from an entry in the Cambridge 
# Structural Database, then it will include bibliographic, chemical, 
# crystal, experimental, refinement or atomic coordinate data resulting 
# from the CCDC's data processing and validation procedures.
#
#######################################################################

data_NICWAA
_chemical_formula_moiety         'C18 H20 Br1 N1 O1'
_chemical_name_systematic        
4-((2-(4-bromophenyl)-4,5-dimethylcyclopenta-1,4-dien-1-yl)amino)pent-3-en-2-one
_symmetry_cell_setting           triclinic
_symmetry_space_group_name_H-M   'P -1'
_symmetry_Int_Tables_number      2
_space_group_name_Hall           '-P 1'
loop_
_symmetry_equiv_pos_site_id
_symmetry_equiv_pos_as_xyz
1 x,y,z
2 -x,-y,-z
_cell_length_a                   7.6388(10)
_cell_length_b                   11.2206(13)
_cell_length_c                   11.3511(13)
_cell_angle_alpha                116.079(3)
_cell_angle_beta                 109.218(4)
_cell_angle_gamma                91.505(4)
_cell_volume                     808.233
_exptl_crystal_colour            yellow
_exptl_crystal_description       prism
_cell_formula_units_Z            2
loop_
_atom_site_label
_atom_site_type_symbol
_atom_site_fract_x
_atom_site_fract_y
_atom_site_fract_z
C1 C 0.4367(3) 0.81548(19) 0.7066(2)
C2 C 0.3160(3) 0.7474(2) 0.5659(2)
H1 H 0.2729 0.7958 0.5146
C3 C 0.2584(3) 0.60867(19) 0.5005(2)
H2 H 0.1758 0.5625 0.4035
C4 C 0.3178(2) 0.53357(18) 0.57245(18)
C5 C 0.4390(3) 0.6070(2) 0.7156(2)
H3 H 0.4816 0.5598 0.7682
C6 C 0.4982(3) 0.7458(2) 0.7822(2)
H4 H 0.5805 0.7931 0.8792
C7 C 0.2509(2) 0.38721(18) 0.49927(17)
C8 C 0.1050(2) 0.31130(18) 0.35028(17)
H5 H -0.0156 0.3434 0.3443
H6 H 0.1501 0.3232 0.2830
C9 C 0.0797(2) 0.16627(19) 0.31842(19)
C10 C -0.0481(3) 0.0543(2) 0.1771(2)
H7 H 0.0132 0.0344 0.1089
H8 H -0.1674 0.0820 0.1440
H9 H -0.0738 -0.0269 0.1857
C11 C 0.1944(2) 0.15662(18) 0.43122(19)
C12 C 0.2222(3) 0.0320(2) 0.4467(2)
H10 H 0.1798 0.0353 0.5206
H11 H 0.3566 0.0275 0.4732
H12 H 0.1482 -0.0483 0.3566
C13 C 0.3002(2) 0.29301(18) 0.54136(17)
C14 C 0.4258(2) 0.32036(17) 0.78305(18)
C15 C 0.2314(3) 0.3133(3) 0.7840(2)
C16 C 0.5801(3) 0.33299(18) 0.89617(18)
H13 H 0.5610 0.3418 0.9780
C17 C 0.7660(3) 0.33357(18) 0.89697(19)
C18 C 0.9204(3) 0.3379(2) 1.0236(2)
Br1 Br 0.51708(3) 1.006202(19) 0.79707(2)
N1 N 0.4473(2) 0.31520(15) 0.66889(15)
O1 O 0.80812(18) 0.33011(16) 0.79873(14)
H14 H 0.5715 0.3242 0.6760
H15 H 0.1793 0.3808 0.7619
H16 H 0.1564 0.2327 0.7203
H17 H 0.2305 0.3391 0.8792
H18 H 1.0006 0.4269 1.0773
H19 H 0.9818 0.2575 0.9887
H20 H 0.8691 0.3308 1.0867
loop_
_geom_bond_atom_site_label_1
_geom_bond_atom_site_label_2
_geom_bond_site_symmetry_1
_geom_bond_site_symmetry_2
C1 C2 1_555 1_555
C2 H1 1_555 1_555
C3 C2 1_555 1_555
H2 C3 1_555 1_555
C4 C3 1_555 1_555
C5 C4 1_555 1_555
H3 C5 1_555 1_555
C6 C1 1_555 1_555
H4 C6 1_555 1_555
C7 C4 1_555 1_555
C8 C7 1_555 1_555
H5 C8 1_555 1_555
H6 C8 1_555 1_555
C9 C8 1_555 1_555
C10 C9 1_555 1_555
H7 C10 1_555 1_555
H8 C10 1_555 1_555
H9 C10 1_555 1_555
C11 C9 1_555 1_555
C12 C11 1_555 1_555
H10 C12 1_555 1_555
H11 C12 1_555 1_555
H12 C12 1_555 1_555
C13 C7 1_555 1_555
C14 C15 1_555 1_555
C15 H15 1_555 1_555
C16 C14 1_555 1_555
H13 C16 1_555 1_555
C17 C16 1_555 1_555
C18 C17 1_555 1_555
Br1 C1 1_555 1_555
N1 C13 1_555 1_555
O1 C17 1_555 1_555
H14 N1 1_555 1_555
H16 C15 1_555 1_555
H17 C15 1_555 1_555
H18 C18 1_555 1_555
H19 C18 1_555 1_555
H20 C18 1_555 1_555
C5 C6 1_555 1_555
C11 C13 1_555 1_555
C14 N1 1_555 1_555

#END
