
#######################################################################
#
#                 Cambridge Crystallographic Data Centre
#                                CCDC 
#
#######################################################################
#
# If this CIF has been generated from an entry in the Cambridge 
# Structural Database, then it will include bibliographic, chemical, 
# crystal, experimental, refinement or atomic coordinate data resulting 
# from the CCDC's data processing and validation procedures.
#
#######################################################################

data_NICYOQ
_chemical_formula_moiety         'C19 H20 O4'
_chemical_name_systematic        
6-methoxy-1,5-dimethyl-2,3,3a,8,9,9b-hexahydro-3,9a-(epoxymethano)cyclopenta[def]phenanthrene-4,10(1H)-dione
_symmetry_cell_setting           monoclinic
_symmetry_space_group_name_H-M   'P 21/c'
_symmetry_Int_Tables_number      14
_space_group_name_Hall           '-P 2ybc'
loop_
_symmetry_equiv_pos_site_id
_symmetry_equiv_pos_as_xyz
1 x,y,z
2 -x,1/2+y,1/2-z
3 -x,-y,-z
4 x,1/2-y,1/2+z
_cell_length_a                   14.5021(3)
_cell_length_b                   7.11540(10)
_cell_length_c                   16.3667(3)
_cell_angle_alpha                90
_cell_angle_beta                 115.2690(10)
_cell_angle_gamma                90
_cell_volume                     1527.25
_exptl_crystal_colour            'light colorless'
_exptl_crystal_description       block
_cell_formula_units_Z            4
loop_
_atom_site_label
_atom_site_type_symbol
_atom_site_fract_x
_atom_site_fract_y
_atom_site_fract_z
O1 O 0.03528(7) 0.50799(15) 0.26234(6)
O2 O 0.58004(7) 0.80436(15) 0.63827(6)
O3 O -0.06392(7) 0.57115(15) 0.33105(7)
O4 O 0.34984(8) 0.64297(17) 0.28625(6)
C1 C 0.35613(9) 0.75328(16) 0.42890(8)
C2 C 0.27921(9) 0.77501(16) 0.45773(8)
C3 C 0.18120(9) 0.41290(17) 0.43930(8)
H1 H 0.2499 0.4389 0.4859
C4 C 0.29902(9) 0.78252(17) 0.54802(8)
C5 C 0.17512(9) 0.74838(17) 0.38415(8)
H2 H 0.1376 0.8674 0.3706
C6 C 0.45902(9) 0.76300(16) 0.48947(8)
C7 C 0.30784(9) 0.68949(19) 0.33325(8)
C8 C 0.47877(9) 0.78964(16) 0.58059(8)
C9 C 0.19143(9) 0.6822(2) 0.30263(8)
H3 H 0.1575 0.7686 0.2519
C10 C 0.02125(9) 0.56057(19) 0.33609(9)
C11 C 0.40143(10) 0.79263(17) 0.60987(8)
H4 H 0.4183 0.8015 0.6713
C12 C 0.12028(9) 0.60067(17) 0.41718(8)
C13 C 0.10915(9) 0.69040(19) 0.49744(9)
H5 H 0.0761 0.6014 0.5212
H6 H 0.0653 0.7997 0.4764
C14 C 0.21204(10) 0.7511(2) 0.57478(9)
H7 H 0.2011 0.8666 0.6009
H8 H 0.2328 0.6556 0.6215
C15 C 0.19122(10) 0.34630(19) 0.35361(9)
H9 H 0.2627 0.3315 0.3669
H10 H 0.1581 0.2253 0.3347
C16 C 0.54413(10) 0.73875(19) 0.46127(9)
H11 H 0.5714 0.6139 0.4760
H12 H 0.5969 0.8286 0.4925
H13 H 0.5186 0.7582 0.3973
C17 C 0.14267(10) 0.4877(2) 0.27826(8)
H14 H 0.1464 0.4420 0.2233
C18 C 0.13428(13) 0.2610(2) 0.47529(11)
H15 H 0.1304 0.3052 0.5292
H16 H 0.1758 0.1500 0.4889
H17 H 0.0670 0.2320 0.4305
C19 C 0.60821(12) 0.8242(3) 0.73208(10)
H18 H 0.5752 0.9328 0.7423
H19 H 0.6808 0.8389 0.7635
H20 H 0.5877 0.7142 0.7541
loop_
_geom_bond_atom_site_label_1
_geom_bond_atom_site_label_2
_geom_bond_site_symmetry_1
_geom_bond_site_symmetry_2
O1 C10 1_555 1_555
O2 C8 1_555 1_555
O3 C10 1_555 1_555
O4 C7 1_555 1_555
C1 C2 1_555 1_555
C2 C4 1_555 1_555
C3 H1 1_555 1_555
C4 C11 1_555 1_555
C5 C2 1_555 1_555
H2 C5 1_555 1_555
C6 C1 1_555 1_555
C7 C1 1_555 1_555
C8 C6 1_555 1_555
C9 C5 1_555 1_555
H3 C9 1_555 1_555
C10 C12 1_555 1_555
C11 C8 1_555 1_555
H4 C11 1_555 1_555
C12 C3 1_555 1_555
C13 C12 1_555 1_555
H5 C13 1_555 1_555
H6 C13 1_555 1_555
C14 C4 1_555 1_555
H7 C14 1_555 1_555
H8 C14 1_555 1_555
C15 C3 1_555 1_555
H9 C15 1_555 1_555
H10 C15 1_555 1_555
C16 C6 1_555 1_555
H11 C16 1_555 1_555
H12 C16 1_555 1_555
H13 C16 1_555 1_555
C17 O1 1_555 1_555
H14 C17 1_555 1_555
C18 C3 1_555 1_555
H15 C18 1_555 1_555
H16 C18 1_555 1_555
H17 C18 1_555 1_555
C19 O2 1_555 1_555
H18 C19 1_555 1_555
H19 C19 1_555 1_555
H20 C19 1_555 1_555
C5 C12 1_555 1_555
C7 C9 1_555 1_555
C9 C17 1_555 1_555
C13 C14 1_555 1_555
C15 C17 1_555 1_555

#END
