
#######################################################################
#
#                 Cambridge Crystallographic Data Centre
#                                CCDC 
#
#######################################################################
#
# If this CIF has been generated from an entry in the Cambridge 
# Structural Database, then it will include bibliographic, chemical, 
# crystal, experimental, refinement or atomic coordinate data resulting 
# from the CCDC's data processing and validation procedures.
#
#######################################################################

data_NICYAC
_chemical_name_common            
'2,6,8,12-tetraoxa-1,7(1,4)-tetrazina-4,10(1,2)-dibenzenacyclododecaphane tetrahomocorona[2]arene[2]tetrazine'
_chemical_formula_moiety         'C20 H16 N8 O4'
_chemical_name_systematic        
5,12,17,24-tetrahydro-7,10:19,22-didiazenodibenzo[h,r][1,6,11,16,3,4,13,14]tetraoxatetraazacycloicosine
_symmetry_cell_setting           monoclinic
_symmetry_space_group_name_H-M   'P 21/c'
_symmetry_Int_Tables_number      14
_space_group_name_Hall           '-P 2ybc'
loop_
_symmetry_equiv_pos_site_id
_symmetry_equiv_pos_as_xyz
1 x,y,z
2 -x,1/2+y,1/2-z
3 -x,-y,-z
4 x,1/2-y,1/2+z
_cell_length_a                   11.2112(6)
_cell_length_b                   5.6021(3)
_cell_length_c                   15.3836(8)
_cell_angle_alpha                90
_cell_angle_beta                 102.938(6)
_cell_angle_gamma                90
_cell_volume                     941.658
_exptl_crystal_colour            red
_exptl_crystal_description       block
_cell_formula_units_Z            2
loop_
_atom_site_label
_atom_site_type_symbol
_atom_site_fract_x
_atom_site_fract_y
_atom_site_fract_z
O1 O 0.55828(10) 0.6064(2) 0.69408(7)
C1 C 0.76911(14) 0.6514(3) 0.76990(10)
N1 N 0.37366(12) 0.6402(2) 0.60205(9)
N2 N 0.29139(12) 0.5637(3) 0.53334(9)
O2 O 0.23183(10) 0.2973(2) 0.42398(7)
C2 C 0.80434(14) 0.8499(3) 0.72518(10)
N3 N 0.41004(12) 0.2132(3) 0.52721(9)
C3 C 0.89675(15) 0.9978(3) 0.77056(11)
H1 H 0.919940 1.133435 0.741132
C4 C 0.95601(15) 0.9511(3) 0.85832(11)
H2 H 1.018685 1.054925 0.888601
N4 N 0.49467(12) 0.2928(3) 0.59741(9)
C5 C 0.92362(15) 0.7540(3) 0.90125(10)
H3 H 0.965116 0.719632 0.960832
C6 C 0.83013(15) 0.6052(3) 0.85732(10)
H4 H 0.807656 0.470188 0.887448
C7 C 0.67347(14) 0.4781(3) 0.72427(10)
H5 H 0.698755 0.404610 0.672705
H6 H 0.663188 0.349610 0.766153
C8 C 0.47496(14) 0.5044(3) 0.62907(10)
C9 C 0.31645(14) 0.3544(3) 0.49672(10)
C10 C 0.25532(15) 0.0944(3) 0.37039(10)
H7 H 0.220289 -0.053371 0.389701
H8 H 0.344477 0.071340 0.377160
O1B O 0.44172(10) 0.3936(2) 0.30592(7)
C1B C 0.23089(14) 0.3486(3) 0.23010(10)
N1B N 0.62634(12) 0.3598(2) 0.39795(9)
N2B N 0.70861(12) 0.4363(3) 0.46666(9)
O2B O 0.76817(10) 0.7027(2) 0.57602(7)
C2B C 0.19566(14) 0.1501(3) 0.27482(10)
N3B N 0.58996(12) 0.7868(3) 0.47279(9)
C3B C 0.10325(15) 0.0022(3) 0.22944(11)
H1B H 0.080060 -0.133435 0.258868
C4B C 0.04399(15) 0.0489(3) 0.14168(11)
H2B H -0.018685 -0.054925 0.111399
N4B N 0.50533(12) 0.7072(3) 0.40259(9)
C5B C 0.07638(15) 0.2460(3) 0.09875(10)
H3B H 0.034884 0.280368 0.039168
C6B C 0.16987(15) 0.3948(3) 0.14268(10)
H4B H 0.192344 0.529812 0.112552
C7B C 0.32653(14) 0.5219(3) 0.27573(10)
H5B H 0.301245 0.595390 0.327295
H6B H 0.336812 0.650390 0.233847
C8B C 0.52504(14) 0.4956(3) 0.37093(10)
C9B C 0.68355(14) 0.6456(3) 0.50328(10)
C10B C 0.74468(15) 0.9056(3) 0.62961(10)
H7B H 0.779711 1.053371 0.610299
H8B H 0.655523 0.928660 0.622840
loop_
_geom_bond_atom_site_label_1
_geom_bond_atom_site_label_2
_geom_bond_site_symmetry_1
_geom_bond_site_symmetry_2
O1 C7 1_555 1_555
C1 C2 1_555 1_555
N1 N2 1_555 1_555
N2 C9 1_555 1_555
O2 C9 1_555 1_555
C2 C3 1_555 1_555
N3 N4 1_555 1_555
C3 H1 1_555 1_555
C4 C3 1_555 1_555
H2 C4 1_555 1_555
N4 C8 1_555 1_555
C5 C4 1_555 1_555
H3 C5 1_555 1_555
C6 C1 1_555 1_555
H4 C6 1_555 1_555
C7 C1 1_555 1_555
H5 C7 1_555 1_555
H6 C7 1_555 1_555
C8 O1 1_555 1_555
C9 N3 1_555 1_555
C10 O2 1_555 1_555
H7 C10 1_555 1_555
H8 C10 1_555 1_555
O1B C7B 1_555 1_555
C1B C2B 1_555 1_555
N1B N2B 1_555 1_555
N2B C9B 1_555 1_555
O2B C9B 1_555 1_555
C2B C10 1_555 1_555
N3B N4B 1_555 1_555
C3B C2B 1_555 1_555
H1B C3B 1_555 1_555
C4B C3B 1_555 1_555
H2B C4B 1_555 1_555
N4B C8B 1_555 1_555
C5B C4B 1_555 1_555
H3B C5B 1_555 1_555
C6B C1B 1_555 1_555
H4B C6B 1_555 1_555
C7B C1B 1_555 1_555
H5B C7B 1_555 1_555
H6B C7B 1_555 1_555
C8B O1B 1_555 1_555
C9B N3B 1_555 1_555
C10B C2 1_555 1_555
H7B C10B 1_555 1_555
H8B C10B 1_555 1_555
N1 C8 1_555 1_555
C5 C6 1_555 1_555
N1B C8B 1_555 1_555
O2B C10B 1_555 1_555
C5B C6B 1_555 1_555

#END
