
#######################################################################
#
#                 Cambridge Crystallographic Data Centre
#                                CCDC 
#
#######################################################################
#
# If this CIF has been generated from an entry in the Cambridge 
# Structural Database, then it will include bibliographic, chemical, 
# crystal, experimental, refinement or atomic coordinate data resulting 
# from the CCDC's data processing and validation procedures.
#
#######################################################################

data_NICZUX
_chemical_formula_moiety         'C58 H50 N2 S1'
_chemical_name_systematic        
2,16,19,20-tetrabutyldibenzo[5,6:9,10]phenanthro[2',1',10',9',8',7':15,16,17,18]heptapheno[7,8-c][1,2,5]thiadiazole
_symmetry_cell_setting           monoclinic
_symmetry_space_group_name_H-M   'P 21/n'
_symmetry_Int_Tables_number      14
_space_group_name_Hall           '-P 2yn'
loop_
_symmetry_equiv_pos_site_id
_symmetry_equiv_pos_as_xyz
1 x,y,z
2 1/2-x,1/2+y,1/2-z
3 -x,-y,-z
4 1/2+x,1/2-y,1/2+z
_cell_length_a                   4.9812(5)
_cell_length_b                   26.603(2)
_cell_length_c                   30.448(2)
_cell_angle_alpha                90
_cell_angle_beta                 90.531(8)
_cell_angle_gamma                90
_cell_volume                     4034.64
_exptl_crystal_colour            purple
_exptl_crystal_description       prism
_cell_formula_units_Z            4
loop_
_atom_site_label
_atom_site_type_symbol
_atom_site_fract_x
_atom_site_fract_y
_atom_site_fract_z
C1 C -0.4740(14) 0.0371(3) 0.2397(3)
H1 H -0.6167 0.0136 0.2422
C2 C -0.4083(14) 0.0658(2) 0.2754(3)
H2 H -0.5061 0.0624 0.3019
C3 C -0.2261(15) 0.1239(3) 0.3518(3)
H3 H -0.3626 0.0994 0.3557
C4 C -0.1415(16) 0.1525(3) 0.3872(3)
H4 H -0.2181 0.1469 0.4153
C5 C -0.205(2) -0.0244(4) 0.0438(3)
H5 H -0.1545 0.0097 0.0349
H6 H -0.3014 -0.0410 0.0196
H7 H -0.0426 -0.0436 0.0511
C6 C -0.3829(16) -0.0218(3) 0.0835(3)
H8 H -0.4089 -0.0561 0.0952
H9 H -0.5609 -0.0086 0.0745
C7 C -0.2668(15) 0.0115(3) 0.1196(3)
H10 H -0.0814 0.0005 0.1265
H11 H -0.2584 0.0467 0.1089
C8 C -0.4312(14) 0.0097(3) 0.1605(3)
H12 H -0.4410 -0.0258 0.1701
H13 H -0.6161 0.0203 0.1527
C9 C -0.3396(14) 0.0409(2) 0.1995(3)
C10 C -0.1923(13) 0.1008(2) 0.2728(3)
C11 C -0.1130(14) 0.1307(2) 0.3104(3)
C12 C 0.0537(15) 0.1890(3) 0.3823(3)
H14 H 0.1082 0.2084 0.4070
C13 C -0.1303(14) 0.0754(2) 0.1960(3)
H15 H -0.0351 0.0783 0.1692
C14 C -0.0590(14) 0.1060(2) 0.2321(2)
C15 C 0.0876(13) 0.1688(2) 0.3048(3)
C16 C 0.1722(14) 0.1979(3) 0.3414(2)
C17 C 0.1491(13) 0.1449(2) 0.2272(2)
C18 C 0.2073(13) 0.1775(2) 0.2630(3)
C19 C 0.3801(14) 0.2360(2) 0.3345(2)
C20 C 0.4986(15) 0.2649(3) 0.3698(3)
C21 C 0.3024(13) 0.1495(2) 0.1887(2)
H16 H 0.2899 0.1235 0.1674
C22 C 0.3859(13) 0.2188(2) 0.2553(3)
C23 C 0.4776(13) 0.2474(2) 0.2924(2)
C24 C 0.7102(14) 0.2997(3) 0.3624(2)
C25 C 0.6218(19) 0.1331(3) 0.0223(3)
H17 H 0.5869 0.0976 0.0289
H18 H 0.7466 0.1354 -0.0023
H19 H 0.4527 0.1498 0.0144
C26 C 0.7441(15) 0.1585(3) 0.0623(3)
H20 H 0.8092 0.1923 0.0540
H21 H 0.9005 0.1387 0.0727
C27 C 0.5443(14) 0.1636(3) 0.0995(2)
H22 H 0.3912 0.1843 0.0891
H23 H 0.4740 0.1299 0.1067
C28 C 0.6596(12) 0.1872(2) 0.1410(2)
H24 H 0.7176 0.2218 0.1340
H25 H 0.8215 0.1680 0.1499
C29 C 0.4684(13) 0.1893(2) 0.1803(2)
C30 C 0.4860(13) 0.2283(2) 0.2125(2)
C31 C 0.6850(13) 0.2855(2) 0.2849(2)
C32 C 0.8136(13) 0.3101(2) 0.3196(3)
C33 C 0.6080(12) 0.2777(2) 0.2046(2)
C34 C 0.7387(13) 0.3015(2) 0.2403(2)
C35 C 1.0246(13) 0.3472(2) 0.3109(3)
C36 C 1.1877(14) 0.3669(2) 0.3437(3)
H26 H 1.1657 0.3564 0.3733
C37 C 0.3518(18) 0.2988(3) 0.0023(3)
H27 H 0.4345 0.3321 0.0003
H28 H 0.1986 0.2968 -0.0180
H29 H 0.4841 0.2730 -0.0053
C38 C 0.2569(15) 0.2902(3) 0.0485(3)
H30 H 0.1073 0.3136 0.0547
H31 H 0.1874 0.2555 0.0510
C39 C 0.4757(15) 0.2979(3) 0.0820(3)
H32 H 0.5517 0.3320 0.0783
H33 H 0.6210 0.2734 0.0766
C40 C 0.3809(13) 0.2921(2) 0.1291(2)
H34 H 0.2244 0.3144 0.1334
H35 H 0.3191 0.2571 0.1332
C41 C 0.5890(13) 0.3039(2) 0.1641(2)
C42 C 0.9061(13) 0.3439(2) 0.2321(2)
C43 C 1.0637(13) 0.3649(2) 0.2674(2)
C44 C 1.3827(14) 0.4019(3) 0.3335(3)
H36 H 1.4996 0.4134 0.3561
C45 C 0.7407(13) 0.3471(2) 0.1579(3)
H37 H 0.7224 0.3648 0.1310
C46 C 0.9193(13) 0.3655(2) 0.1898(3)
C47 C 1.2538(13) 0.4035(2) 0.2584(3)
C48 C 1.4138(14) 0.4206(3) 0.2918(3)
H38 H 1.5464 0.4454 0.2863
C49 C 1.1086(13) 0.4056(2) 0.1802(2)
C50 C 1.2788(14) 0.4236(2) 0.2138(3)
C51 C 1.1413(14) 0.4243(3) 0.1371(3)
H39 H 1.0310 0.4111 0.1143
C52 C 1.4643(15) 0.4613(3) 0.2024(3)
H40 H 1.5793 0.4743 0.2247
C53 C 1.1042(18) 0.5982(3) 0.0169(3)
H41 H 0.9131 0.5900 0.0141
H42 H 1.1664 0.6133 -0.0106
H43 H 1.1306 0.6221 0.0411
C54 C 1.2635(18) 0.5506(3) 0.0263(3)
H44 H 1.4570 0.5575 0.0224
H45 H 1.2103 0.5243 0.0049
C55 C 1.2186(16) 0.5309(3) 0.0727(3)
H46 H 1.2842 0.5561 0.0941
H47 H 1.0237 0.5263 0.0773
C56 C 1.3608(16) 0.4814(3) 0.0810(3)
H48 H 1.2916 0.4562 0.0599
H49 H 1.5547 0.4859 0.0753
C57 C 1.3279(15) 0.4613(3) 0.1267(3)
C58 C 1.4875(15) 0.4801(3) 0.1609(3)
H50 H 1.6131 0.5061 0.1553
N1 N 0.4184(13) 0.2623(2) 0.4128(2)
N2 N 0.7873(13) 0.3240(2) 0.3998(2)
S1 S 0.6029(5) 0.30287(9) 0.43876(8)
loop_
_geom_bond_atom_site_label_1
_geom_bond_atom_site_label_2
_geom_bond_site_symmetry_1
_geom_bond_site_symmetry_2
C1 H1 1_555 1_555
C2 C1 1_555 1_555
H2 C2 1_555 1_555
C3 H3 1_555 1_555
C4 C3 1_555 1_555
H4 C4 1_555 1_555
C5 H5 1_555 1_555
H6 C5 1_555 1_555
H7 C5 1_555 1_555
C6 C5 1_555 1_555
H8 C6 1_555 1_555
H9 C6 1_555 1_555
C7 C6 1_555 1_555
H10 C7 1_555 1_555
H11 C7 1_555 1_555
C8 C7 1_555 1_555
H12 C8 1_555 1_555
H13 C8 1_555 1_555
C9 C1 1_555 1_555
C10 C2 1_555 1_555
C11 C3 1_555 1_555
C12 C4 1_555 1_555
H14 C12 1_555 1_555
C13 C9 1_555 1_555
H15 C13 1_555 1_555
C14 C10 1_555 1_555
C15 C11 1_555 1_555
C16 C12 1_555 1_555
C17 C14 1_555 1_555
C18 C15 1_555 1_555
C19 C16 1_555 1_555
C20 C19 1_555 1_555
C21 C17 1_555 1_555
H16 C21 1_555 1_555
C22 C18 1_555 1_555
C23 C19 1_555 1_555
C24 C20 1_555 1_555
C25 H17 1_555 1_555
H18 C25 1_555 1_555
H19 C25 1_555 1_555
C26 C25 1_555 1_555
H20 C26 1_555 1_555
H21 C26 1_555 1_555
C27 C26 1_555 1_555
H22 C27 1_555 1_555
H23 C27 1_555 1_555
C28 C27 1_555 1_555
H24 C28 1_555 1_555
H25 C28 1_555 1_555
C29 C21 1_555 1_555
C30 C22 1_555 1_555
C31 C23 1_555 1_555
C32 C24 1_555 1_555
C33 C30 1_555 1_555
C34 C31 1_555 1_555
C35 C32 1_555 1_555
C36 C35 1_555 1_555
H26 C36 1_555 1_555
C37 H27 1_555 1_555
H28 C37 1_555 1_555
H29 C37 1_555 1_555
C38 C37 1_555 1_555
H30 C38 1_555 1_555
H31 C38 1_555 1_555
C39 C38 1_555 1_555
H32 C39 1_555 1_555
H33 C39 1_555 1_555
C40 C39 1_555 1_555
H34 C40 1_555 1_555
H35 C40 1_555 1_555
C41 C33 1_555 1_555
C42 C34 1_555 1_555
C43 C35 1_555 1_555
C44 C36 1_555 1_555
H36 C44 1_555 1_555
C45 C41 1_555 1_555
H37 C45 1_555 1_555
C46 C42 1_555 1_555
C47 C43 1_555 1_555
C48 C44 1_555 1_555
H38 C48 1_555 1_555
C49 C46 1_555 1_555
C50 C47 1_555 1_555
C51 C49 1_555 1_555
H39 C51 1_555 1_555
C52 C50 1_555 1_555
H40 C52 1_555 1_555
C53 H41 1_555 1_555
H42 C53 1_555 1_555
H43 C53 1_555 1_555
C54 C53 1_555 1_555
H44 C54 1_555 1_555
H45 C54 1_555 1_555
C55 C54 1_555 1_555
H46 C55 1_555 1_555
H47 C55 1_555 1_555
C56 C55 1_555 1_555
H48 C56 1_555 1_555
H49 C56 1_555 1_555
C57 C51 1_555 1_555
C58 C52 1_555 1_555
H50 C58 1_555 1_555
N1 C20 1_555 1_555
N2 C24 1_555 1_555
S1 N1 1_555 1_555
C8 C9 1_555 1_555
C10 C11 1_555 1_555
C13 C14 1_555 1_555
C15 C16 1_555 1_555
C17 C18 1_555 1_555
C22 C23 1_555 1_555
C28 C29 1_555 1_555
C29 C30 1_555 1_555
C31 C32 1_555 1_555
C33 C34 1_555 1_555
C40 C41 1_555 1_555
C42 C43 1_555 1_555
C45 C46 1_555 1_555
C47 C48 1_555 1_555
C49 C50 1_555 1_555
C56 C57 1_555 1_555
C57 C58 1_555 1_555
N2 S1 1_555 1_555

#END
