
#######################################################################
#
#                 Cambridge Crystallographic Data Centre
#                                CCDC 
#
#######################################################################
#
# If this CIF has been generated from an entry in the Cambridge 
# Structural Database, then it will include bibliographic, chemical, 
# crystal, experimental, refinement or atomic coordinate data resulting 
# from the CCDC's data processing and validation procedures.
#
#######################################################################

data_NIDBUA
_chemical_formula_moiety         'C36 H42 F7 N3 O1'
_chemical_name_systematic        
4-(3-(4-decyloxyphenyl)-1-(2,3,5,6-tetrafluoro-4-(trifluoromethyl)phenyl)-4,5-dihydro-1H-pyrazol-5-yl)-N,N-diethylaniline
_symmetry_cell_setting           triclinic
_symmetry_space_group_name_H-M   'P -1'
_symmetry_Int_Tables_number      2
_space_group_name_Hall           '-P 1'
loop_
_symmetry_equiv_pos_site_id
_symmetry_equiv_pos_as_xyz
1 x,y,z
2 -x,-y,-z
_cell_length_a                   8.8449(8)
_cell_length_b                   12.8119(11)
_cell_length_c                   16.2966(14)
_cell_angle_alpha                104.4130(10)
_cell_angle_beta                 90.2510(10)
_cell_angle_gamma                103.1260(10)
_cell_volume                     1738.24
_exptl_crystal_colour            colorless
_exptl_crystal_description       prism
_cell_formula_units_Z            2
loop_
_atom_site_label
_atom_site_type_symbol
_atom_site_fract_x
_atom_site_fract_y
_atom_site_fract_z
F1 F 0.9611(3) 0.92481(19) 0.59318(18)
O1 O 0.0823(3) 0.6471(2) 0.43668(16)
N1 N 0.7816(3) 0.7315(2) 0.59083(14)
C1 C 0.2246(4) 0.6555(3) 0.47307(18)
F2 F 1.2424(3) 1.04624(19) 0.6027(2)
N2 N 0.8963(3) 0.7196(2) 0.64460(15)
C2 C 0.3595(4) 0.7316(3) 0.4642(2)
H1 H 0.3560 0.7813 0.4316
N3 N 0.8177(7) 0.8806(4) 1.0512(2)
C3 C 0.4988(4) 0.7333(3) 0.50408(19)
H2 H 0.5882 0.7846 0.4978
F3 F 1.4276(2) 0.80925(18) 0.73803(13)
C4 C 0.5088(3) 0.6602(2) 0.55325(16)
F4 F 1.1522(2) 0.67944(16) 0.71918(12)
C5 C 0.3720(4) 0.5831(2) 0.55973(18)
H3 H 0.3751 0.5327 0.5917
F5 F 1.5542(4) 1.0128(3) 0.6007(3)
C6 C 0.2330(4) 0.5802(3) 0.51985(19)
H4 H 0.1443 0.5273 0.5244
F6 F 1.5085(4) 1.1117(3) 0.7087(3)
C7 C 0.6525(4) 0.6663(2) 0.59976(16)
F7 F 1.6098(4) 0.9804(4) 0.7106(5)
C8 C 0.6667(4) 0.5998(3) 0.66274(18)
H5 H 0.6525 0.5217 0.6345
H6 H 0.5909 0.6081 0.7053
C9 C 0.8321(3) 0.6496(2) 0.70246(17)
H7 H 0.8879 0.5907 0.6981
C10 C 0.8383(3) 0.7149(2) 0.79429(17)
C11 C 0.8950(4) 0.6811(3) 0.8599(2)
H8 H 0.9385 0.6198 0.8469
C12 C 0.8893(5) 0.7352(3) 0.9442(2)
H9 H 0.9283 0.7093 0.9864
C13 C 0.7699(5) 0.8623(3) 0.9007(2)
H10 H 0.7275 0.9241 0.9130
C14 C 0.8260(5) 0.8279(4) 0.9669(2)
C15 C 1.0409(3) 0.7931(2) 0.65513(16)
C16 C 0.7761(4) 0.8060(3) 0.81659(19)
H11 H 0.7367 0.8310 0.7740
C17 C 1.0720(4) 0.8905(3) 0.6271(2)
C18 C 1.3465(4) 0.9339(3) 0.6711(2)
C19 C 1.2221(5) 0.9560(3) 0.6340(2)
C20 C 1.5061(6) 1.0088(4) 0.6772(3)
C21 C 1.3154(4) 0.8399(3) 0.70171(19)
C22 C 1.1679(3) 0.7725(2) 0.69278(17)
C23 C 0.0642(4) 0.7341(3) 0.3991(2)
H12 H 0.1311 0.7369 0.3523
H13 H 0.0920 0.8052 0.4408
C24 C -0.1075(4) 0.7084(3) 0.3670(2)
H14 H -0.1731 0.6969 0.4130
H15 H -0.1272 0.7716 0.3498
C25 C -0.1507(4) 0.6049(3) 0.2916(2)
H16 H -0.1400 0.5403 0.3100
H17 H -0.0799 0.6136 0.2472
C26 C -0.3188(4) 0.5871(4) 0.2563(3)
H18 H -0.3255 0.6473 0.2313
H19 H -0.3874 0.5891 0.3026
C27 C -0.3739(6) 0.4761(4) 0.1889(2)
H20 H -0.3569 0.4167 0.2122
H21 H -0.4848 0.4631 0.1760
C28 C -0.2897(7) 0.4727(5) 0.1062(3)
H22 H -0.1789 0.4814 0.1169
H23 H -0.3052 0.5312 0.0815
C29 C -0.3626(11) 0.3579(6) 0.0468(5)
H24 H -0.3613 0.3000 0.0752
H25 H -0.4696 0.3535 0.0296
C30 C -0.2641(12) 0.3445(13) -0.0311(6)
H26 H -0.1602 0.3915 -0.0160
H27 H -0.2556 0.2682 -0.0503
C31 C -0.3420(14) 0.3771(13) -0.1025(7)
H28 H -0.3464 0.4541 -0.0816
H29 H -0.4485 0.3334 -0.1123
C32 C -0.2692(11) 0.3645(8) -0.1890(5)
H30 H -0.2779 0.4252 -0.2119
H31 H -0.3228 0.2959 -0.2273
H32 H -0.1614 0.3645 -0.1818
C33 C 0.8437(11) 0.8315(7) 1.1219(4)
H33 H 0.7707 0.8471 1.1649
H34 H 0.8268 0.7517 1.1009
C34 C 1.0003(13) 0.8780(9) 1.1582(6)
H35 H 1.0186 0.8443 1.2026
H36 H 1.0150 0.9565 1.1812
H37 H 1.0720 0.8642 1.1150
C35 C 0.7990(9) 1.0142(9) 1.0753(4)
H38 H 0.8487 1.0591 1.1298
H39 H 0.8270 1.0516 1.0307
C36 C 0.6232(10) 0.9665(10) 1.0768(6)
H40 H 0.5715 1.0262 1.0923
H41 H 0.6054 0.9230 1.1175
H42 H 0.5831 0.9207 1.0216
loop_
_geom_bond_atom_site_label_1
_geom_bond_atom_site_label_2
_geom_bond_site_symmetry_1
_geom_bond_site_symmetry_2
F1 C17 1_555 1_555
O1 C1 1_555 1_555
N1 N2 1_555 1_555
C1 C2 1_555 1_555
F2 C19 1_555 1_555
N2 C9 1_555 1_555
C2 H1 1_555 1_555
N3 C14 1_555 1_555
C3 C2 1_555 1_555
H2 C3 1_555 1_555
F3 C21 1_555 1_555
C4 C3 1_555 1_555
F4 C22 1_555 1_555
C5 C4 1_555 1_555
H3 C5 1_555 1_555
F5 C20 1_555 1_555
C6 C1 1_555 1_555
H4 C6 1_555 1_555
F6 C20 1_555 1_555
C7 N1 1_555 1_555
F7 C20 1_555 1_555
C8 C7 1_555 1_555
H5 C8 1_555 1_555
H6 C8 1_555 1_555
C9 C8 1_555 1_555
H7 C9 1_555 1_555
C10 C9 1_555 1_555
C11 C10 1_555 1_555
H8 C11 1_555 1_555
C12 C11 1_555 1_555
H9 C12 1_555 1_555
C13 H10 1_555 1_555
C14 C12 1_555 1_555
C15 N2 1_555 1_555
C16 C10 1_555 1_555
H11 C16 1_555 1_555
C17 C15 1_555 1_555
C18 C19 1_555 1_555
C19 C17 1_555 1_555
C20 C18 1_555 1_555
C21 C18 1_555 1_555
C22 C15 1_555 1_555
C23 O1 1_555 1_555
H12 C23 1_555 1_555
H13 C23 1_555 1_555
C24 C23 1_555 1_555
H14 C24 1_555 1_555
H15 C24 1_555 1_555
C25 C24 1_555 1_555
H16 C25 1_555 1_555
H17 C25 1_555 1_555
C26 C25 1_555 1_555
H18 C26 1_555 1_555
H19 C26 1_555 1_555
C27 C26 1_555 1_555
H20 C27 1_555 1_555
H21 C27 1_555 1_555
C28 C27 1_555 1_555
H22 C28 1_555 1_555
H23 C28 1_555 1_555
C29 C28 1_555 1_555
H24 C29 1_555 1_555
H25 C29 1_555 1_555
C30 C29 1_555 1_555
H26 C30 1_555 1_555
H27 C30 1_555 1_555
C31 C30 1_555 1_555
H28 C31 1_555 1_555
H29 C31 1_555 1_555
C32 C31 1_555 1_555
H30 C32 1_555 1_555
H31 C32 1_555 1_555
H32 C32 1_555 1_555
C33 N3 1_555 1_555
H33 C33 1_555 1_555
H34 C33 1_555 1_555
C34 C33 1_555 1_555
H35 C34 1_555 1_555
H36 C34 1_555 1_555
H37 C34 1_555 1_555
C35 N3 1_555 1_555
H38 C35 1_555 1_555
H39 C35 1_555 1_555
C36 C35 1_555 1_555
H40 C36 1_555 1_555
H41 C36 1_555 1_555
H42 C36 1_555 1_555
C4 C7 1_555 1_555
C5 C6 1_555 1_555
C13 C14 1_555 1_555
C13 C16 1_555 1_555
C21 C22 1_555 1_555

#END
