
#######################################################################
#
#                 Cambridge Crystallographic Data Centre
#                                CCDC 
#
#######################################################################
#
# If this CIF has been generated from an entry in the Cambridge 
# Structural Database, then it will include bibliographic, chemical, 
# crystal, experimental, refinement or atomic coordinate data resulting 
# from the CCDC's data processing and validation procedures.
#
#######################################################################

data_NIDGOZ
_chemical_name_common            
16-(pyridin-2'-yl)-3-methoxyestra-1,3,5(10)-triene-17-one
_chemical_formula_moiety         'C25 H27 N1 O2'
_chemical_name_systematic        
3-methoxy-16-[(pyridin-2-yl)methylidene]estra-1(10),2,4-trien-17-one
_symmetry_cell_setting           monoclinic
_symmetry_space_group_name_H-M   'P 21'
_symmetry_Int_Tables_number      4
_space_group_name_Hall           'P 2yb'
loop_
_symmetry_equiv_pos_site_id
_symmetry_equiv_pos_as_xyz
1 x,y,z
2 -x,1/2+y,-z
_cell_length_a                   6.6309(3)
_cell_length_b                   7.2698(3)
_cell_length_c                   20.6867(11)
_cell_angle_alpha                90
_cell_angle_beta                 92.523(4)
_cell_angle_gamma                90
_cell_volume                     996.242
_exptl_crystal_colour            yellow
_exptl_crystal_description       block
_chemical_melting_point          '443 K'
_cell_formula_units_Z            2
loop_
_atom_site_label
_atom_site_type_symbol
_atom_site_fract_x
_atom_site_fract_y
_atom_site_fract_z
O1 O -0.0574(3) 0.3981(3) 0.19282(12)
N1 N -0.3258(4) -0.1366(4) 0.06459(15)
C1 C -0.3722(6) -0.2892(6) 0.0321(2)
H1 H -0.503311 -0.301061 0.014730
O2 O 1.3221(3) 0.0869(3) 0.47167(10)
C2 C -0.2411(6) -0.4299(6) 0.02229(19)
H2 H -0.280878 -0.532855 -0.001717
C3 C -0.0477(6) -0.4147(5) 0.04911(16)
H3 H 0.045686 -0.508541 0.044083
C4 C 0.0042(5) -0.2603(4) 0.08304(15)
H4 H 0.134109 -0.247921 0.101392
C5 C -0.1359(4) -0.1217(4) 0.09029(14)
C6 C -0.0915(4) 0.0507(4) 0.12447(14)
H5 H -0.191598 0.139946 0.119924
C7 C 0.0702(4) 0.1003(4) 0.16116(13)
C8 C 0.2611(4) -0.0025(4) 0.18219(15)
H6 H 0.356803 -0.004503 0.148047
H7 H 0.231468 -0.127763 0.194803
C9 C 0.3412(4) 0.1109(3) 0.24008(13)
H8 H 0.253782 0.080647 0.275566
C10 C 0.5568(4) 0.0888(3) 0.26784(13)
H9 H 0.650862 0.132463 0.235995
C11 C 0.6077(4) -0.1102(4) 0.28544(14)
H10 H 0.519588 -0.152076 0.318631
H11 H 0.584609 -0.187636 0.247656
C12 C 0.8270(4) -0.1283(4) 0.30998(15)
H12 H 0.845661 -0.247590 0.330359
H13 H 0.913280 -0.123321 0.273352
C13 C 0.8923(4) 0.0197(4) 0.35790(13)
C14 C 1.0705(4) -0.0042(4) 0.39512(14)
H14 H 1.142070 -0.113335 0.391130
C15 C 1.1450(4) 0.1283(4) 0.43778(13)
C16 C 1.4166(6) 0.2300(5) 0.50827(19)
H15 H 1.437741 0.333895 0.480733
H16 H 1.544121 0.187660 0.526295
H17 H 1.331819 0.265505 0.542600
C17 C 1.0403(5) 0.2907(4) 0.44363(15)
H18 H 1.088599 0.382396 0.471590
C18 C 0.8621(4) 0.3154(4) 0.40727(15)
H19 H 0.791565 0.424823 0.411839
C19 C 0.7836(4) 0.1842(3) 0.36423(13)
C20 C 0.5788(4) 0.2088(3) 0.32860(13)
H20 H 0.478010 0.163783 0.358053
C21 C 0.5244(4) 0.4123(4) 0.31442(16)
H21 H 0.529608 0.480807 0.354687
H22 H 0.623578 0.464633 0.286648
C22 C 0.3123(4) 0.4324(4) 0.28139(15)
H23 H 0.211129 0.397709 0.311590
H24 H 0.289554 0.559843 0.269315
C23 C 0.4178(4) 0.3878(4) 0.16661(16)
H25 H 0.557117 0.393682 0.181133
H26 H 0.371134 0.508725 0.154816
H27 H 0.403827 0.307905 0.129730
C24 C 0.2908(4) 0.3121(3) 0.22161(14)
C25 C 0.0799(4) 0.2888(4) 0.19199(14)
loop_
_geom_bond_atom_site_label_1
_geom_bond_atom_site_label_2
_geom_bond_site_symmetry_1
_geom_bond_site_symmetry_2
O1 C25 1_555 1_555
N1 C1 1_555 1_555
C1 H1 1_555 1_555
O2 C15 1_555 1_555
C2 C1 1_555 1_555
H2 C2 1_555 1_555
C3 C2 1_555 1_555
H3 C3 1_555 1_555
C4 C3 1_555 1_555
H4 C4 1_555 1_555
C5 N1 1_555 1_555
C6 C5 1_555 1_555
H5 C6 1_555 1_555
C7 C6 1_555 1_555
C8 C7 1_555 1_555
H6 C8 1_555 1_555
H7 C8 1_555 1_555
C9 C8 1_555 1_555
H8 C9 1_555 1_555
C10 C9 1_555 1_555
H9 C10 1_555 1_555
C11 C10 1_555 1_555
H10 C11 1_555 1_555
H11 C11 1_555 1_555
C12 C11 1_555 1_555
H12 C12 1_555 1_555
H13 C12 1_555 1_555
C13 C12 1_555 1_555
C14 C13 1_555 1_555
H14 C14 1_555 1_555
C15 C14 1_555 1_555
C16 O2 1_555 1_555
H15 C16 1_555 1_555
H16 C16 1_555 1_555
H17 C16 1_555 1_555
C17 C15 1_555 1_555
H18 C17 1_555 1_555
C18 C17 1_555 1_555
H19 C18 1_555 1_555
C19 C13 1_555 1_555
C20 C10 1_555 1_555
H20 C20 1_555 1_555
C21 C20 1_555 1_555
H21 C21 1_555 1_555
H22 C21 1_555 1_555
C22 C21 1_555 1_555
H23 C22 1_555 1_555
H24 C22 1_555 1_555
C23 H25 1_555 1_555
H26 C23 1_555 1_555
H27 C23 1_555 1_555
C24 C9 1_555 1_555
C25 C7 1_555 1_555
C4 C5 1_555 1_555
C18 C19 1_555 1_555
C19 C20 1_555 1_555
C22 C24 1_555 1_555
C23 C24 1_555 1_555
C24 C25 1_555 1_555

#END
