
#######################################################################
#
#                 Cambridge Crystallographic Data Centre
#                                CCDC 
#
#######################################################################
#
# If this CIF has been generated from an entry in the Cambridge 
# Structural Database, then it will include bibliographic, chemical, 
# crystal, experimental, refinement or atomic coordinate data resulting 
# from the CCDC's data processing and validation procedures.
#
#######################################################################

data_NIDHAM
_chemical_formula_moiety         'C16 H16 N2 O2'
_chemical_name_systematic        
4-(4-methoxyphenyl)-1,3,4,5-tetrahydro-2H-1,5-benzodiazepin-2-one
_symmetry_cell_setting           orthorhombic
_symmetry_space_group_name_H-M   'P 21 21 21'
_symmetry_Int_Tables_number      19
_space_group_name_Hall           'P 2ac 2ab'
loop_
_symmetry_equiv_pos_site_id
_symmetry_equiv_pos_as_xyz
1 x,y,z
2 1/2-x,-y,1/2+z
3 1/2+x,1/2-y,-z
4 -x,1/2+y,1/2-z
_cell_length_a                   9.48189(19)
_cell_length_b                   13.1263(2)
_cell_length_c                   21.6679(5)
_cell_angle_alpha                90
_cell_angle_beta                 90
_cell_angle_gamma                90
_cell_volume                     2696.83
_exptl_crystal_colour            colorless
_exptl_crystal_description       block
_cell_formula_units_Z            8
loop_
_atom_site_label
_atom_site_type_symbol
_atom_site_fract_x
_atom_site_fract_y
_atom_site_fract_z
O1 O -0.53677(15) -0.09795(10) -0.43552(7)
O2 O -0.08115(16) -0.65953(10) -0.35514(7)
N1 N -0.33028(18) -0.55910(12) -0.47988(8)
H1 H -0.3468 -0.5318 -0.5152
N2 N -0.29576(18) -0.71100(12) -0.38827(7)
H2 H -0.2723 -0.7733 -0.3815
C1 C -0.4472(2) -0.61770(14) -0.46060(9)
C2 C -0.3367(2) -0.38134(14) -0.43717(9)
C3 C -0.4633(2) -0.18830(14) -0.43623(9)
C4 C -0.5376(2) -0.27329(15) -0.41558(9)
H3 H -0.6297 -0.2661 -0.4014
C5 C -0.2566(2) -0.53010(14) -0.37260(9)
H4 H -0.1949 -0.4881 -0.3476
H5 H -0.3496 -0.5286 -0.3540
C6 C -0.2652(2) -0.48487(14) -0.43776(9)
H6 H -0.1681 -0.4742 -0.4519
C7 C -0.2022(2) -0.63856(14) -0.37223(9)
C8 C -0.3263(2) -0.19933(15) -0.45731(9)
H7 H -0.2756 -0.1430 -0.4709
C9 C -0.2657(2) -0.29590(14) -0.45782(9)
H8 H -0.1741 -0.3032 -0.4726
C10 C -0.4293(2) -0.69352(14) -0.41527(9)
C11 C -0.6702(2) -0.74851(15) -0.42950(10)
H9 H -0.7439 -0.7921 -0.4194
C12 C -0.5782(2) -0.60944(15) -0.48911(9)
H10 H -0.5921 -0.5590 -0.5187
C13 C -0.4749(2) -0.36817(15) -0.41607(9)
H11 H -0.5254 -0.4244 -0.4021
C14 C -0.6883(2) -0.67446(15) -0.47458(10)
H12 H -0.7742 -0.6685 -0.4950
C15 C -0.5413(2) -0.75679(14) -0.39978(9)
H13 H -0.5297 -0.8054 -0.3690
C16 C -0.4639(2) -0.00847(14) -0.45667(10)
H14 H -0.4315 -0.0191 -0.4982
H15 H -0.3845 0.0046 -0.4303
H16 H -0.5268 0.0488 -0.4557
O3 O -0.24145(15) -0.02220(10) -0.71754(6)
O4 O -0.70665(15) -0.57821(10) -0.62912(6)
N3 N -0.49737(18) -0.63206(12) -0.66594(8)
H17 H -0.5195 -0.6936 -0.6564
N4 N -0.31697(18) -0.47562(12) -0.62248(8)
H18 H -0.2454 -0.4448 -0.6068
C17 C -0.3917(2) -0.30080(14) -0.65322(9)
C18 C -0.3719(2) -0.11782(14) -0.63943(10)
H19 H -0.3918 -0.0598 -0.6164
C19 C -0.4182(2) -0.21289(15) -0.61967(9)
H20 H -0.4683 -0.2177 -0.5829
C20 C -0.5918(2) -0.55868(14) -0.65341(9)
C21 C -0.3640(2) -0.61577(14) -0.69378(9)
C22 C -0.2690(2) -0.19787(15) -0.72854(9)
H21 H -0.2185 -0.1931 -0.7652
C23 C -0.2958(2) -0.11038(14) -0.69384(9)
C24 C -0.3192(2) -0.68146(15) -0.74025(10)
H22 H -0.3796 -0.7321 -0.7545
C25 C -0.2754(2) -0.53773(15) -0.67265(9)
C26 C -0.4377(2) -0.40426(14) -0.62979(9)
H23 H -0.4797 -0.3943 -0.5889
C27 C -0.5512(2) -0.45094(14) -0.67145(9)
H24 H -0.6347 -0.4083 -0.6700
H25 H -0.5172 -0.4513 -0.7137
C28 C -0.3172(2) -0.29114(14) -0.70863(9)
H26 H -0.3000 -0.3488 -0.7324
C29 C -0.1418(2) -0.52886(15) -0.69928(9)
H27 H -0.0818 -0.4770 -0.6863
C30 C -0.0970(2) -0.59602(16) -0.74466(10)
H28 H -0.0069 -0.5898 -0.7612
C31 C -0.1861(2) -0.67224(16) -0.76540(10)
H29 H -0.1565 -0.7169 -0.7961
C32 C -0.2481(3) 0.06692(15) -0.67928(11)
H30 H -0.1967 0.1214 -0.6985
H31 H -0.2072 0.0522 -0.6398
H32 H -0.3447 0.0868 -0.6740
loop_
_geom_bond_atom_site_label_1
_geom_bond_atom_site_label_2
_geom_bond_site_symmetry_1
_geom_bond_site_symmetry_2
O1 C3 1_555 1_555
O2 C7 1_555 1_555
N1 H1 1_555 1_555
N2 H2 1_555 1_555
C1 N1 1_555 1_555
C2 C6 1_555 1_555
C3 C4 1_555 1_555
C4 H3 1_555 1_555
C5 H4 1_555 1_555
H5 C5 1_555 1_555
C6 N1 1_555 1_555
H6 C6 1_555 1_555
C7 N2 1_555 1_555
C8 C3 1_555 1_555
H7 C8 1_555 1_555
C9 C2 1_555 1_555
H8 C9 1_555 1_555
C10 N2 1_555 1_555
C11 H9 1_555 1_555
C12 C1 1_555 1_555
H10 C12 1_555 1_555
C13 C2 1_555 1_555
H11 C13 1_555 1_555
C14 C11 1_555 1_555
H12 C14 1_555 1_555
C15 C10 1_555 1_555
H13 C15 1_555 1_555
C16 O1 1_555 1_555
H14 C16 1_555 1_555
H15 C16 1_555 1_555
H16 C16 1_555 1_555
O3 C23 1_555 1_555
O4 C20 1_555 1_555
N3 H17 1_555 1_555
N4 H18 1_555 1_555
C17 C19 1_555 1_555
C18 H19 1_555 1_555
C19 C18 1_555 1_555
H20 C19 1_555 1_555
C20 N3 1_555 1_555
C21 N3 1_555 1_555
C22 H21 1_555 1_555
C23 C18 1_555 1_555
C24 C21 1_555 1_555
H22 C24 1_555 1_555
C25 N4 1_555 1_555
C26 N4 1_555 1_555
H23 C26 1_555 1_555
C27 C20 1_555 1_555
H24 C27 1_555 1_555
H25 C27 1_555 1_555
C28 C17 1_555 1_555
H26 C28 1_555 1_555
C29 C25 1_555 1_555
H27 C29 1_555 1_555
C30 C29 1_555 1_555
H28 C30 1_555 1_555
C31 C24 1_555 1_555
H29 C31 1_555 1_555
C32 O3 1_555 1_555
H30 C32 1_555 1_555
H31 C32 1_555 1_555
H32 C32 1_555 1_555
C1 C10 1_555 1_555
C4 C13 1_555 1_555
C5 C6 1_555 1_555
C5 C7 1_555 1_555
C8 C9 1_555 1_555
C11 C15 1_555 1_555
C12 C14 1_555 1_555
C17 C26 1_555 1_555
C21 C25 1_555 1_555
C22 C23 1_555 1_555
C22 C28 1_555 1_555
C26 C27 1_555 1_555
C30 C31 1_555 1_555

#END
