
#######################################################################
#
#                 Cambridge Crystallographic Data Centre
#                                CCDC 
#
#######################################################################
#
# If this CIF has been generated from an entry in the Cambridge 
# Structural Database, then it will include bibliographic, chemical, 
# crystal, experimental, refinement or atomic coordinate data resulting 
# from the CCDC's data processing and validation procedures.
#
#######################################################################

data_NIDKUJ
_chemical_name_common            1-Phenyl-2-(thiocyanatomethyl)pyrrolidine
_chemical_formula_moiety         'C12 H14 N2 S1'
_chemical_name_systematic        '(1-phenylpyrrolidin-2-yl)methyl thiocyanate'
_symmetry_cell_setting           monoclinic
_symmetry_space_group_name_H-M   'P 21/c'
_symmetry_Int_Tables_number      14
_space_group_name_Hall           '-P 2ybc'
loop_
_symmetry_equiv_pos_site_id
_symmetry_equiv_pos_as_xyz
1 x,y,z
2 -x,1/2+y,1/2-z
3 -x,-y,-z
4 x,1/2-y,1/2+z
_cell_length_a                   13.566(7)
_cell_length_b                   5.956(3)
_cell_length_c                   19.115(7)
_cell_angle_alpha                90
_cell_angle_beta                 131.57(2)
_cell_angle_gamma                90
_cell_volume                     1155.49
_exptl_crystal_colour            white
_exptl_crystal_description       Prism
_chemical_melting_point          '67-71 deg.C'
_cell_formula_units_Z            4
loop_
_atom_site_label
_atom_site_type_symbol
_atom_site_fract_x
_atom_site_fract_y
_atom_site_fract_z
S1 S -0.08695(4) -0.20142(7) -0.12909(3)
N1 N 0.29568(12) -0.2718(2) -0.01258(9)
N2 N -0.09270(14) -0.6755(2) -0.12591(11)
C1 C 0.36774(14) -0.4356(3) 0.05517(10)
C2 C 0.50544(15) -0.4426(3) 0.11443(12)
H1 H 0.5492 -0.3354 0.1083
C3 C 0.57672(17) -0.6083(4) 0.18201(12)
H2 H 0.6680 -0.6101 0.2207
C4 C 0.51632(19) -0.7693(4) 0.19328(13)
H3 H 0.5654 -0.8802 0.2387
C5 C 0.38123(17) -0.7637(3) 0.13592(11)
H4 H 0.3389 -0.8719 0.1429
C6 C 0.30771(15) -0.6008(3) 0.06842(10)
H5 H 0.2166 -0.6002 0.0309
C7 C 0.35542(17) -0.1161(3) -0.03394(13)
H6 H 0.4027 -0.1963 -0.0480
H7 H 0.4158 -0.0150 0.0180
C8 C 0.2398(2) 0.0108(4) -0.11852(13)
H8 H 0.2565 0.0537 -0.1588
H9 H 0.2212 0.1446 -0.1001
C9 C 0.12658(19) -0.1560(3) -0.16730(12)
H10 H 0.1278 -0.2592 -0.2060
H11 H 0.0423 -0.0793 -0.2059
C10 C 0.15289(13) -0.2786(2) -0.08617(10)
H12 H 0.1227 -0.4345 -0.1037
C11 C 0.09082(14) -0.1643(2) -0.05182(10)
H13 H 0.1101 -0.0050 -0.0447
H14 H 0.1315 -0.2237 0.0094
C12 C -0.08953(14) -0.4840(3) -0.12661(10)
loop_
_geom_bond_atom_site_label_1
_geom_bond_atom_site_label_2
_geom_bond_site_symmetry_1
_geom_bond_site_symmetry_2
S1 C11 1_555 1_555
N1 C1 1_555 1_555
N2 C12 1_555 1_555
C1 C2 1_555 1_555
C2 H1 1_555 1_555
C3 C2 1_555 1_555
H2 C3 1_555 1_555
C4 C3 1_555 1_555
H3 C4 1_555 1_555
C5 C4 1_555 1_555
H4 C5 1_555 1_555
C6 C1 1_555 1_555
H5 C6 1_555 1_555
C7 N1 1_555 1_555
H6 C7 1_555 1_555
H7 C7 1_555 1_555
C8 C7 1_555 1_555
H8 C8 1_555 1_555
H9 C8 1_555 1_555
C9 C8 1_555 1_555
H10 C9 1_555 1_555
H11 C9 1_555 1_555
C10 N1 1_555 1_555
H12 C10 1_555 1_555
C11 C10 1_555 1_555
H13 C11 1_555 1_555
H14 C11 1_555 1_555
C12 S1 1_555 1_555
C5 C6 1_555 1_555
C9 C10 1_555 1_555

#END
