
#######################################################################
#
#                 Cambridge Crystallographic Data Centre
#                                CCDC 
#
#######################################################################
#
# If this CIF has been generated from an entry in the Cambridge 
# Structural Database, then it will include bibliographic, chemical, 
# crystal, experimental, refinement or atomic coordinate data resulting 
# from the CCDC's data processing and validation procedures.
#
#######################################################################

data_NIDNUM
_chemical_formula_moiety         'C62 H50 O6,2(C2 H6 O1)'
_chemical_name_systematic        
'4,5,11,12,17,18-hexakis(4-methoxyphenyl)pentacyclo[6.6.6.0^2,7^.0^9,14^.0^15,20^]icosa-2,4,6,9,11,13,15,17,19-nonaene ethanol solvate'
_symmetry_cell_setting           triclinic
_symmetry_space_group_name_H-M   'P -1'
_symmetry_Int_Tables_number      2
_space_group_name_Hall           '-P 1'
loop_
_symmetry_equiv_pos_site_id
_symmetry_equiv_pos_as_xyz
1 x,y,z
2 -x,-y,-z
_cell_length_a                   9.8567(2)
_cell_length_b                   16.4658(4)
_cell_length_c                   17.9517(4)
_cell_angle_alpha                66.907(2)
_cell_angle_beta                 79.373(2)
_cell_angle_gamma                81.276(2)
_cell_volume                     2623.94
_exptl_crystal_colour            colorless
_exptl_crystal_description       needle
_cell_formula_units_Z            2
loop_
_atom_site_label
_atom_site_type_symbol
_atom_site_fract_x
_atom_site_fract_y
_atom_site_fract_z
C1 C 0.32190(16) 0.18732(10) 0.68883(9)
H1 H 0.405807 0.150288 0.711678
C2 C 0.10343(16) 0.28366(10) 0.62888(9)
H2 H 0.019646 0.320827 0.605984
C3 C 0.35615(16) 0.26272(10) 0.60722(9)
C4 C 0.48613(16) 0.28252(10) 0.56510(9)
H3 H 0.565009 0.246620 0.587277
C5 C 0.50507(16) 0.35472(10) 0.48989(9)
C6 C 0.38680(16) 0.40809(10) 0.45820(9)
C7 C 0.25500(16) 0.38659(10) 0.50202(9)
H4 H 0.175137 0.422028 0.480766
C8 C 0.23916(16) 0.31512(10) 0.57526(9)
C9 C 0.23341(16) 0.22960(10) 0.74551(9)
C10 C 0.25906(16) 0.22087(10) 0.82164(9)
H5 H 0.341275 0.188015 0.841849
C11 C 0.16473(16) 0.26011(10) 0.86932(9)
C12 C 0.04144(16) 0.30668(10) 0.83947(9)
C13 C 0.01955(16) 0.31750(10) 0.76078(9)
H6 H -0.061696 0.350829 0.739584
C14 C 0.11492(16) 0.28017(10) 0.71405(9)
C15 C 0.22169(16) 0.13447(10) 0.67401(9)
C16 C 0.23401(16) 0.04432(10) 0.69300(9)
H7 H 0.313800 0.009514 0.714932
C17 C 0.13010(16) 0.00309(10) 0.68038(9)
C18 C 0.01405(16) 0.05533(10) 0.64540(9)
C19 C 0.00432(16) 0.14736(10) 0.62570(9)
H8 H -0.073065 0.183270 0.601629
C20 C 0.10511(16) 0.18631(10) 0.64072(9)
C21 C 0.65045(16) 0.37064(10) 0.45019(9)
C22 C 0.74731(17) 0.29913(11) 0.45137(10)
H9 H 0.717817 0.240944 0.475700
C23 C 0.88523(17) 0.30995(11) 0.41828(10)
H10 H 0.948719 0.259924 0.419917
C24 C 0.92947(16) 0.39477(11) 0.38272(10)
C25 C 0.83522(17) 0.46740(11) 0.38152(10)
H11 H 0.865541 0.525370 0.357834
C26 C 0.69832(17) 0.45576(10) 0.41444(10)
H12 H 0.635351 0.505958 0.412976
O1 O 1.06178(12) 0.41414(8) 0.34630(7)
C27 C 1.16060(18) 0.34182(12) 0.34518(12)
H13 H 1.250545 0.364186 0.317657
H14 H 1.169556 0.301036 0.401390
H15 H 1.129724 0.310467 0.315706
C28 C 0.39223(16) 0.48830(10) 0.38049(10)
C29 C 0.46518(17) 0.48797(11) 0.30630(10)
H16 H 0.515835 0.434856 0.304145
C30 C 0.46531(18) 0.56392(11) 0.23526(10)
H17 H 0.515108 0.562349 0.185145
C31 C 0.39229(18) 0.64198(11) 0.23803(10)
C32 C 0.31967(18) 0.64391(11) 0.31148(10)
H18 H 0.270444 0.697403 0.313599
C33 C 0.31912(17) 0.56787(11) 0.38151(10)
H19 H 0.268154 0.569620 0.431307
O2 O 0.38518(14) 0.72054(8) 0.17138(7)
C34 C 0.43254(19) 0.71690(12) 0.09247(10)
H20 H 0.422242 0.776527 0.050438
H21 H 0.530332 0.694035 0.089492
H22 H 0.377527 0.677649 0.083364
C35 C 0.20138(16) 0.25671(10) 0.94755(9)
C36 C 0.24573(16) 0.17859(10) 1.00766(10)
H23 H 0.250387 0.124336 0.999904
C37 C 0.28371(17) 0.17753(11) 1.07927(10)
H24 H 0.313294 0.123192 1.119746
C38 C 0.27775(17) 0.25671(11) 1.09066(9)
C39 C 0.23456(18) 0.33588(11) 1.03086(10)
H25 H 0.231101 0.390238 1.038281
C40 C 0.19688(17) 0.33540(11) 0.96099(10)
H26 H 0.167021 0.389865 0.920772
O3 O 0.31216(13) 0.26482(8) 1.15792(7)
C41 C 0.3488(2) 0.18519(13) 1.22334(11)
H27 H 0.371014 0.199825 1.267390
H28 H 0.270894 0.148084 1.244103
H29 H 0.429756 0.152946 1.203488
C42 C -0.06671(16) 0.34499(10) 0.88905(9)
C43 C -0.11094(16) 0.29715(11) 0.97135(10)
H30 H -0.073444 0.237649 0.995956
C44 C -0.20826(17) 0.33416(11) 1.01827(10)
H31 H -0.237777 0.300096 1.074014
C45 C -0.26209(16) 0.42167(11) 0.98276(10)
C46 C -0.22043(17) 0.47019(11) 0.90048(10)
H32 H -0.257418 0.529851 0.876096
C47 C -0.12544(16) 0.43188(10) 0.85411(10)
H33 H -0.099710 0.465117 0.797683
O4 O -0.35484(12) 0.46564(8) 1.02373(7)
C48 C -0.43215(18) 0.41297(13) 1.09838(10)
H34 H -0.494604 0.451801 1.121784
H35 H -0.486562 0.374719 1.087480
H36 H -0.368307 0.376249 1.137072
C49 C 0.14919(16) -0.09512(10) 0.70576(9)
C50 C 0.27123(17) -0.13465(11) 0.67613(10)
H37 H 0.341483 -0.098564 0.640749
C51 C 0.29135(18) -0.22558(11) 0.69752(11)
H38 H 0.374973 -0.251402 0.676846
C52 C 0.18951(18) -0.27913(11) 0.74915(11)
C53 C 0.06977(18) -0.24172(11) 0.78178(10)
H39 H 0.001368 -0.278272 0.818796
C54 C 0.05055(17) -0.15000(11) 0.75982(10)
H40 H -0.031558 -0.124519 0.782245
O5 O 0.21890(14) -0.36782(8) 0.76418(8)
C55 C 0.1144(2) -0.42502(12) 0.81246(13)
H41 H 0.147878 -0.486208 0.818715
H42 H 0.092548 -0.420878 0.866435
H43 H 0.030939 -0.407394 0.785490
C56 C -0.09940(16) 0.01822(10) 0.62744(9)
C57 C -0.07325(16) -0.04393(10) 0.59036(9)
H44 H 0.019624 -0.066511 0.579443
C58 C -0.17920(16) -0.07370(10) 0.56898(9)
H45 H -0.158547 -0.115220 0.542878
C59 C -0.31557(16) -0.04232(10) 0.58604(9)
C60 C -0.34453(17) 0.01900(11) 0.62400(10)
H46 H -0.437691 0.040356 0.636107
C61 C -0.23768(17) 0.04866(10) 0.64398(10)
H47 H -0.258590 0.090686 0.669537
O6 O -0.42822(11) -0.06895(8) 0.57024(7)
C62 C -0.40428(18) -0.12726(12) 0.52697(11)
H48 H -0.493267 -0.140947 0.519848
H49 H -0.350794 -0.098758 0.473267
H50 H -0.352323 -0.182182 0.558041
O7 O 0.50976(17) 0.99582(11) 0.17092(10)
H51 H 0.445(2) 0.9650(14) 0.1652(13)
C63 C 0.6026(3) 1.02461(15) 0.09591(17)
H52 H 0.549137 1.050506 0.049076
H53 H 0.664128 0.973444 0.090039
C64 C 0.6875(3) 1.0925(3) 0.09628(17)
H54 H 0.751176 1.112418 0.045040
H55 H 0.626119 1.143247 0.101603
H56 H 0.740806 1.066389 0.142458
O8 O 0.3160(2) 0.89876(14) 0.15457(16)
H57 H 0.338(4) 0.839(3) 0.160(3)
C65 C 0.1721(4) 0.9189(2) 0.16821(19)
H58 H 0.155497 0.978310 0.171483
H59 H 0.135919 0.875835 0.222227
C66 C 0.0937(4) 0.9186(3) 0.1097(3)
H60 H -0.004569 0.933465 0.125637
H61 H 0.125458 0.962447 0.055955
H62 H 0.105808 0.859595 0.106886
loop_
_geom_bond_atom_site_label_1
_geom_bond_atom_site_label_2
_geom_bond_site_symmetry_1
_geom_bond_site_symmetry_2
C1 H1 1_555 1_555
C2 H2 1_555 1_555
C3 C1 1_555 1_555
C4 C3 1_555 1_555
H3 C4 1_555 1_555
C5 C4 1_555 1_555
C6 C5 1_555 1_555
C7 C6 1_555 1_555
H4 C7 1_555 1_555
C8 C2 1_555 1_555
C9 C1 1_555 1_555
C10 C9 1_555 1_555
H5 C10 1_555 1_555
C11 C10 1_555 1_555
C12 C11 1_555 1_555
C13 C12 1_555 1_555
H6 C13 1_555 1_555
C14 C2 1_555 1_555
C15 C1 1_555 1_555
C16 C15 1_555 1_555
H7 C16 1_555 1_555
C17 C16 1_555 1_555
C18 C17 1_555 1_555
C19 C18 1_555 1_555
H8 C19 1_555 1_555
C20 C2 1_555 1_555
C21 C5 1_555 1_555
C22 C21 1_555 1_555
H9 C22 1_555 1_555
C23 C22 1_555 1_555
H10 C23 1_555 1_555
C24 C23 1_555 1_555
C25 C24 1_555 1_555
H11 C25 1_555 1_555
C26 C21 1_555 1_555
H12 C26 1_555 1_555
O1 C24 1_555 1_555
C27 O1 1_555 1_555
H13 C27 1_555 1_555
H14 C27 1_555 1_555
H15 C27 1_555 1_555
C28 C6 1_555 1_555
C29 C28 1_555 1_555
H16 C29 1_555 1_555
C30 C29 1_555 1_555
H17 C30 1_555 1_555
C31 C30 1_555 1_555
C32 C31 1_555 1_555
H18 C32 1_555 1_555
C33 C28 1_555 1_555
H19 C33 1_555 1_555
O2 C31 1_555 1_555
C34 O2 1_555 1_555
H20 C34 1_555 1_555
H21 C34 1_555 1_555
H22 C34 1_555 1_555
C35 C11 1_555 1_555
C36 C35 1_555 1_555
H23 C36 1_555 1_555
C37 C36 1_555 1_555
H24 C37 1_555 1_555
C38 C37 1_555 1_555
C39 C38 1_555 1_555
H25 C39 1_555 1_555
C40 C35 1_555 1_555
H26 C40 1_555 1_555
O3 C38 1_555 1_555
C41 O3 1_555 1_555
H27 C41 1_555 1_555
H28 C41 1_555 1_555
H29 C41 1_555 1_555
C42 C12 1_555 1_555
C43 C42 1_555 1_555
H30 C43 1_555 1_555
C44 C43 1_555 1_555
H31 C44 1_555 1_555
C45 C44 1_555 1_555
C46 C45 1_555 1_555
H32 C46 1_555 1_555
C47 C42 1_555 1_555
H33 C47 1_555 1_555
O4 C45 1_555 1_555
C48 O4 1_555 1_555
H34 C48 1_555 1_555
H35 C48 1_555 1_555
H36 C48 1_555 1_555
C49 C17 1_555 1_555
C50 C49 1_555 1_555
H37 C50 1_555 1_555
C51 C50 1_555 1_555
H38 C51 1_555 1_555
C52 C51 1_555 1_555
C53 C52 1_555 1_555
H39 C53 1_555 1_555
C54 C49 1_555 1_555
H40 C54 1_555 1_555
O5 C52 1_555 1_555
C55 O5 1_555 1_555
H41 C55 1_555 1_555
H42 C55 1_555 1_555
H43 C55 1_555 1_555
C56 C18 1_555 1_555
C57 C56 1_555 1_555
H44 C57 1_555 1_555
C58 C57 1_555 1_555
H45 C58 1_555 1_555
C59 C58 1_555 1_555
C60 C59 1_555 1_555
H46 C60 1_555 1_555
C61 C56 1_555 1_555
H47 C61 1_555 1_555
O6 C59 1_555 1_555
C62 O6 1_555 1_555
H48 C62 1_555 1_555
H49 C62 1_555 1_555
H50 C62 1_555 1_555
O7 H51 1_555 1_555
C63 O7 1_555 1_555
H52 C63 1_555 1_555
H53 C63 1_555 1_555
C64 C63 1_555 1_555
H54 C64 1_555 1_555
H55 C64 1_555 1_555
H56 C64 1_555 1_555
O8 H57 1_555 1_555
C65 O8 1_555 1_555
H58 C65 1_555 1_555
H59 C65 1_555 1_555
C66 C65 1_555 1_555
H60 C66 1_555 1_555
H61 C66 1_555 1_555
H62 C66 1_555 1_555
C3 C8 1_555 1_555
C7 C8 1_555 1_555
C9 C14 1_555 1_555
C13 C14 1_555 1_555
C15 C20 1_555 1_555
C19 C20 1_555 1_555
C25 C26 1_555 1_555
C32 C33 1_555 1_555
C39 C40 1_555 1_555
C46 C47 1_555 1_555
C53 C54 1_555 1_555
C60 C61 1_555 1_555

#END
