
#######################################################################
#
#                 Cambridge Crystallographic Data Centre
#                                CCDC 
#
#######################################################################
#
# If this CIF has been generated from an entry in the Cambridge 
# Structural Database, then it will include bibliographic, chemical, 
# crystal, experimental, refinement or atomic coordinate data resulting 
# from the CCDC's data processing and validation procedures.
#
#######################################################################

data_NIDTIG
_chemical_formula_moiety         'C28 H24 O2'
_chemical_name_systematic        
1,1'-[2,2-bis(2-methoxyphenyl)ethene-1,1-diyl]dibenzene
_symmetry_cell_setting           monoclinic
_symmetry_space_group_name_H-M   'C 2/c'
_symmetry_Int_Tables_number      15
_space_group_name_Hall           '-C 2yn'
loop_
_symmetry_equiv_pos_site_id
_symmetry_equiv_pos_as_xyz
1 x,y,z
2 -x,y,1/2-z
3 1/2+x,1/2+y,z
4 1/2-x,1/2+y,1/2-z
5 -x,-y,-z
6 x,-y,1/2+z
7 1/2-x,1/2-y,-z
8 1/2+x,1/2-y,1/2+z
_cell_length_a                   14.5500(2)
_cell_length_b                   12.0209(2)
_cell_length_c                   25.0181(3)
_cell_angle_alpha                90
_cell_angle_beta                 99.8280(10)
_cell_angle_gamma                90
_cell_volume                     4311.55
_exptl_crystal_description       block
_cell_formula_units_Z            8
loop_
_atom_site_label
_atom_site_type_symbol
_atom_site_fract_x
_atom_site_fract_y
_atom_site_fract_z
O1 O 0.12267(7) 0.70059(9) 0.47846(4)
O2 O 0.08932(8) 0.96134(9) 0.45259(4)
C1 C 0.04228(8) 0.79512(10) 0.37810(5)
C2 C -0.01331(8) 0.73888(10) 0.41549(5)
C3 C 0.10641(8) 0.74107(10) 0.35492(5)
C4 C -0.10948(9) 0.73436(11) 0.40149(6)
H1 H -0.137855 0.764624 0.368576
C5 C 0.17157(8) 0.79808(11) 0.32394(5)
C6 C 0.01462(8) 0.91343(10) 0.36597(5)
C7 C 0.21290(9) 0.89939(12) 0.34102(6)
H2 H 0.198515 0.933347 0.371959
C8 C -0.03749(10) 0.94313(12) 0.31650(6)
H3 H -0.050842 0.889686 0.289409
C9 C 0.11527(9) 0.61761(10) 0.35905(5)
C10 C -0.12314(11) 0.64324(13) 0.48406(7)
H4 H -0.159766 0.611217 0.506974
C11 C 0.19675(10) 0.74852(13) 0.27823(5)
H5 H 0.171374 0.679986 0.266440
C12 C 0.02798(9) 0.69411(10) 0.46575(5)
C13 C 0.20057(10) 0.56711(12) 0.37696(6)
H6 H 0.253570 0.610672 0.386823
C14 C -0.02754(10) 0.64714(12) 0.49973(6)
H7 H -0.000198 0.618205 0.533150
C15 C 0.03863(10) 0.54959(12) 0.34337(7)
H8 H -0.019061 0.581515 0.330325
C16 C 0.25901(11) 0.79993(15) 0.25015(6)
H9 H 0.274683 0.765864 0.219559
C17 C 0.03511(9) 0.99585(11) 0.40570(5)
C18 C 0.00281(11) 1.10384(12) 0.39551(7)
H10 H 0.017128 1.158472 0.421938
C19 C 0.29790(11) 0.90078(16) 0.26699(7)
H11 H 0.339265 0.935336 0.247764
C20 C -0.16468(10) 0.68608(13) 0.43508(7)
H12 H -0.229083 0.682768 0.424543
C21 C -0.07026(13) 1.05064(14) 0.30636(7)
H13 H -0.105342 1.069020 0.272882
C22 C 0.04629(13) 0.43503(13) 0.34673(8)
H14 H -0.006136 0.390850 0.336165
C23 C 0.27504(11) 0.95029(15) 0.31266(7)
H15 H 0.301537 1.018271 0.324478
C24 C 0.20761(13) 0.45228(13) 0.38029(6)
H16 H 0.265236 0.419565 0.392673
C25 C -0.05040(12) 1.12970(13) 0.34622(8)
H17 H -0.073201 1.201616 0.339828
C26 C 0.16597(12) 0.66834(16) 0.53130(7)
H18 H 0.232305 0.676984 0.534723
H19 H 0.143383 0.714283 0.557657
H20 H 0.151521 0.591911 0.537312
C27 C 0.11898(13) 1.04159(16) 0.49341(7)
H21 H 0.156396 1.006107 0.523995
H22 H 0.155181 1.097809 0.479327
H23 H 0.065458 1.075207 0.504553
C28 C 0.13059(14) 0.38639(13) 0.36554(7)
H24 H 0.135601 0.309401 0.368280
loop_
_geom_bond_atom_site_label_1
_geom_bond_atom_site_label_2
_geom_bond_site_symmetry_1
_geom_bond_site_symmetry_2
O1 C12 1_555 1_555
O2 C17 1_555 1_555
C1 C2 1_555 1_555
C2 C4 1_555 1_555
C3 C1 1_555 1_555
C4 H1 1_555 1_555
C5 C3 1_555 1_555
C6 C1 1_555 1_555
C7 C5 1_555 1_555
H2 C7 1_555 1_555
C8 C6 1_555 1_555
H3 C8 1_555 1_555
C9 C3 1_555 1_555
C10 H4 1_555 1_555
C11 C5 1_555 1_555
H5 C11 1_555 1_555
C12 C2 1_555 1_555
C13 C9 1_555 1_555
H6 C13 1_555 1_555
C14 C10 1_555 1_555
H7 C14 1_555 1_555
C15 C9 1_555 1_555
H8 C15 1_555 1_555
C16 C11 1_555 1_555
H9 C16 1_555 1_555
C17 C6 1_555 1_555
C18 C17 1_555 1_555
H10 C18 1_555 1_555
C19 C16 1_555 1_555
H11 C19 1_555 1_555
C20 C4 1_555 1_555
H12 C20 1_555 1_555
C21 C8 1_555 1_555
H13 C21 1_555 1_555
C22 C15 1_555 1_555
H14 C22 1_555 1_555
C23 C7 1_555 1_555
H15 C23 1_555 1_555
C24 C13 1_555 1_555
H16 C24 1_555 1_555
C25 C18 1_555 1_555
H17 C25 1_555 1_555
C26 O1 1_555 1_555
H18 C26 1_555 1_555
H19 C26 1_555 1_555
H20 C26 1_555 1_555
C27 O2 1_555 1_555
H21 C27 1_555 1_555
H22 C27 1_555 1_555
H23 C27 1_555 1_555
C28 C22 1_555 1_555
H24 C28 1_555 1_555
C10 C20 1_555 1_555
C12 C14 1_555 1_555
C19 C23 1_555 1_555
C21 C25 1_555 1_555
C24 C28 1_555 1_555

#END
