
#######################################################################
#
#                 Cambridge Crystallographic Data Centre
#                                CCDC 
#
#######################################################################
#
# If this CIF has been generated from an entry in the Cambridge 
# Structural Database, then it will include bibliographic, chemical, 
# crystal, experimental, refinement or atomic coordinate data resulting 
# from the CCDC's data processing and validation procedures.
#
#######################################################################

data_NIFDEN
_chemical_formula_moiety         'C33 H33 N2 O3 P1'
_chemical_name_systematic        
'N-((5-Isobutyl-4-oxo-2-phenyl-4,5-dihydro-1,3-oxazol-5-yl)(4-methylphenyl)methyl)-P,P-diphenylphosphinic amide'
_symmetry_cell_setting           monoclinic
_symmetry_space_group_name_H-M   'P 21'
_symmetry_Int_Tables_number      4
_space_group_name_Hall           'P 2yb'
loop_
_symmetry_equiv_pos_site_id
_symmetry_equiv_pos_as_xyz
1 x,y,z
2 -x,1/2+y,-z
_cell_length_a                   13.545(7)
_cell_length_b                   5.781(3)
_cell_length_c                   18.568(9)
_cell_angle_alpha                90
_cell_angle_beta                 97.705(6)
_cell_angle_gamma                90
_cell_volume                     1440.82
_exptl_crystal_colour            colorless
_exptl_crystal_description       block
_cell_formula_units_Z            2
loop_
_atom_site_label
_atom_site_type_symbol
_atom_site_fract_x
_atom_site_fract_y
_atom_site_fract_z
C1 C 1.0282(4) -0.1627(11) 0.0826(3)
H1 H 0.9976 -0.3071 0.0785
C2 C 1.1041(4) -0.1163(12) 0.0423(3)
H2 H 1.1244 -0.2264 0.0108
C3 C 1.1488(4) 0.0962(13) 0.0497(3)
H3 H 1.2006 0.1294 0.0232
C4 C 1.1190(4) 0.2629(12) 0.0957(3)
H4 H 1.1509 0.4055 0.1006
C5 C 1.0409(4) 0.2141(11) 0.1341(3)
H5 H 1.0182 0.3266 0.1638
C6 C 0.9965(4) -0.0022(10) 0.1286(3)
C7 C 0.9186(4) -0.0647(10) 0.1725(3)
C8 C 0.8027(4) 0.0041(9) 0.2458(3)
C9 C 0.8209(4) -0.2496(9) 0.2324(3)
C10 C 0.6978(3) 0.0861(9) 0.2095(2)
H6 H 0.6981 0.2556 0.2100
C11 C 0.6735(3) 0.0105(8) 0.1306(2)
C12 C 0.6949(3) 0.1567(9) 0.0760(2)
H7 H 0.7264 0.2973 0.0877
C13 C 0.6694(4) 0.0941(11) 0.0036(3)
H8 H 0.6845 0.1943 -0.0326
C14 C 0.6228(4) -0.1110(10) -0.0159(3)
C15 C 0.6042(3) -0.2571(10) 0.0383(3)
H9 H 0.5745 -0.3995 0.0263
C16 C 0.6286(3) -0.1979(9) 0.1110(3)
H10 H 0.6144 -0.3003 0.1468
C17 C 0.5921(4) -0.1762(12) -0.0947(3)
H11 H 0.5959 -0.0424 -0.1248
H12 H 0.5250 -0.2335 -0.1008
H13 H 0.6359 -0.2940 -0.1084
C18 C 0.8242(4) 0.0730(11) 0.3241(3)
H14 H 0.7801 -0.0133 0.3513
H15 H 0.8082 0.2356 0.3281
C19 C 0.9320(6) 0.0349(17) 0.3602(4)
H16 H 0.9620 -0.0979 0.3385
C20 C 0.9950(7) 0.238(3) 0.3595(6)
H17 H 1.0005 0.2800 0.3102
H18 H 1.0600 0.2047 0.3848
H19 H 0.9660 0.3641 0.3831
C21 C 0.9271(10) -0.007(4) 0.4399(6)
H20 H 0.9121 0.1357 0.4626
H21 H 0.9902 -0.0644 0.4627
H22 H 0.8761 -0.1183 0.4452
C22 C 0.4289(4) 0.0845(11) 0.2798(3)
C23 C 0.4012(4) -0.1149(12) 0.2471(3)
H23 H 0.4494 -0.2072 0.2301
C24 C 0.3021(5) -0.1900(14) 0.2373(4)
H24 H 0.2842 -0.3278 0.2132
C25 C 0.2327(5) -0.0573(18) 0.2638(4)
H25 H 0.1670 -0.1080 0.2592
C26 C 0.2573(5) 0.1480(19) 0.2969(4)
H26 H 0.2089 0.2393 0.3141
C27 C 0.3564(4) 0.2190(14) 0.3045(3)
H27 H 0.3740 0.3600 0.3267
C28 C 0.5928(4) 0.2080(11) 0.3862(2)
C29 C 0.5712(5) 0.0302(12) 0.4298(3)
H28 H 0.5327 -0.0930 0.4099
C30 C 0.6061(6) 0.0313(15) 0.5036(4)
H29 H 0.5922 -0.0928 0.5325
C31 C 0.6602(6) 0.2112(19) 0.5335(4)
H30 H 0.6819 0.2124 0.5832
C32 C 0.6830(5) 0.3901(16) 0.4918(4)
H31 H 0.7220 0.5114 0.5126
C33 C 0.6479(4) 0.3932(11) 0.4169(3)
H32 H 0.6617 0.5184 0.3883
N1 N 0.8917(3) -0.2725(8) 0.1850(2)
N2 N 0.6210(3) 0.0098(7) 0.2527(2)
O1 O 0.8745(2) 0.1108(6) 0.20233(18)
O2 O 0.5591(3) 0.4371(6) 0.25825(18)
O3 O 0.7800(3) -0.4050(7) 0.2605(2)
P1 P 0.55296(10) 0.2037(3) 0.28977(7)
loop_
_geom_bond_atom_site_label_1
_geom_bond_atom_site_label_2
_geom_bond_site_symmetry_1
_geom_bond_site_symmetry_2
C1 H1 1_555 1_555
C2 C1 1_555 1_555
H2 C2 1_555 1_555
C3 C2 1_555 1_555
H3 C3 1_555 1_555
C4 C3 1_555 1_555
H4 C4 1_555 1_555
C5 C4 1_555 1_555
H5 C5 1_555 1_555
C6 C1 1_555 1_555
C7 C6 1_555 1_555
C8 C9 1_555 1_555
C9 N1 1_555 1_555
C10 C8 1_555 1_555
H6 C10 1_555 1_555
C11 C10 1_555 1_555
C12 C11 1_555 1_555
H7 C12 1_555 1_555
C13 C12 1_555 1_555
H8 C13 1_555 1_555
C14 C13 1_555 1_555
C15 C14 1_555 1_555
H9 C15 1_555 1_555
C16 C11 1_555 1_555
H10 C16 1_555 1_555
C17 C14 1_555 1_555
H11 C17 1_555 1_555
H12 C17 1_555 1_555
H13 C17 1_555 1_555
C18 C8 1_555 1_555
H14 C18 1_555 1_555
H15 C18 1_555 1_555
C19 C18 1_555 1_555
H16 C19 1_555 1_555
C20 C19 1_555 1_555
H17 C20 1_555 1_555
H18 C20 1_555 1_555
H19 C20 1_555 1_555
C21 C19 1_555 1_555
H20 C21 1_555 1_555
H21 C21 1_555 1_555
H22 C21 1_555 1_555
C22 C23 1_555 1_555
C23 H23 1_555 1_555
C24 C23 1_555 1_555
H24 C24 1_555 1_555
C25 C24 1_555 1_555
H25 C25 1_555 1_555
C26 C25 1_555 1_555
H26 C26 1_555 1_555
C27 C22 1_555 1_555
H27 C27 1_555 1_555
C28 C29 1_555 1_555
C29 H28 1_555 1_555
C30 C29 1_555 1_555
H29 C30 1_555 1_555
C31 C30 1_555 1_555
H30 C31 1_555 1_555
C32 C31 1_555 1_555
H31 C32 1_555 1_555
C33 C28 1_555 1_555
H32 C33 1_555 1_555
N1 C7 1_555 1_555
N2 C10 1_555 1_555
O1 C7 1_555 1_555
O2 P1 1_555 1_555
O3 C9 1_555 1_555
P1 C22 1_555 1_555
C5 C6 1_555 1_555
C8 O1 1_555 1_555
C15 C16 1_555 1_555
C26 C27 1_555 1_555
C28 P1 1_555 1_555
C32 C33 1_555 1_555
N2 P1 1_555 1_555

#END
