
#######################################################################
#
#                 Cambridge Crystallographic Data Centre
#                                CCDC 
#
#######################################################################
#
# If this CIF has been generated from an entry in the Cambridge 
# Structural Database, then it will include bibliographic, chemical, 
# crystal, experimental, refinement or atomic coordinate data resulting 
# from the CCDC's data processing and validation procedures.
#
#######################################################################

data_NIFFIR
_chemical_formula_moiety         'C15 H13 N3'
_chemical_name_systematic        5,7-Dimethyl-3-phenyl-1,2,4-benzotriazine
_symmetry_cell_setting           triclinic
_symmetry_space_group_name_H-M   'P -1'
_symmetry_Int_Tables_number      2
_space_group_name_Hall           '-P 1'
loop_
_symmetry_equiv_pos_site_id
_symmetry_equiv_pos_as_xyz
1 x,y,z
2 -x,-y,-z
_cell_length_a                   7.089(1)
_cell_length_b                   9.648(2)
_cell_length_c                   9.798(1)
_cell_angle_alpha                94.12(1)
_cell_angle_beta                 108.04(1)
_cell_angle_gamma                101.22(2)
_cell_volume                     618.708
_exptl_crystal_colour            yellow
_exptl_crystal_description       prismatic
_cell_formula_units_Z            2
loop_
_atom_site_label
_atom_site_type_symbol
_atom_site_fract_x
_atom_site_fract_y
_atom_site_fract_z
C1 C 0.2173(2) 0.1029(2) -0.1607(2)
N1 N 0.1448(2) -0.0279(2) -0.24625(13)
N2 N 0.1341(2) -0.14441(14) -0.18480(14)
C2 C 0.1954(2) -0.1314(2) -0.0373(2)
C3 C 0.1838(2) -0.2566(2) 0.0284(2)
H1 H 0.1354(2) -0.3455(2) -0.0290(2)
C4 C 0.2433(2) -0.2480(2) 0.1756(2)
C5 C 0.3151(2) -0.1106(2) 0.2586(2)
H2 H 0.3542(2) -0.1051(2) 0.3590(2)
C6 C 0.3308(2) 0.0139(2) 0.2015(2)
C7 C 0.2688(2) 0.0040(2) 0.0477(2)
N3 N 0.2803(2) 0.12316(13) -0.01733(12)
C8 C 0.2230(2) 0.2287(2) -0.23835(15)
C9 C 0.1542(2) 0.2145(2) -0.3893(2)
H3 H 0.1034(2) 0.1241(2) -0.4434(2)
C10 C 0.1611(3) 0.3336(2) -0.4587(2)
H4 H 0.1136(3) 0.3228(2) -0.5594(2)
C11 C 0.2372(2) 0.4681(2) -0.3809(2)
H5 H 0.2422(2) 0.5479(2) -0.4286(2)
C12 C 0.3059(2) 0.4838(2) -0.2316(2)
H6 H 0.3576(2) 0.5745(2) -0.1783(2)
C13 C 0.2984(2) 0.3655(2) -0.1611(2)
H7 H 0.3444(2) 0.3773(2) -0.0603(2)
C14 C 0.4110(3) 0.1577(2) 0.2937(2)
H8 H 0.3279(13) 0.2216(5) 0.2522(9)
H9 H 0.5488(8) 0.1950(7) 0.2980(13)
H10 H 0.4074(21) 0.1482(3) 0.3898(5)
C15 C 0.2368(2) -0.3780(2) 0.2519(2)
H14 H 0.3682(7) -0.3721(8) 0.3222(11)
H15 H 0.2012(22) -0.4621(2) 0.1823(3)
H16 H 0.1369(16) -0.3825(9) 0.2999(13)
H11? H 0.5282(14) 0.1549(5) 0.3744(9)
H12? H 0.3073(8) 0.1816(7) 0.3287(13)
H13? H 0.4486(21) 0.2283(3) 0.2369(4)
H17? H 0.1027(7) -0.4391(8) 0.2141(11)
H18? H 0.2697(22) -0.3490(2) 0.3539(3)
H19? H 0.3340(16) -0.4286(9) 0.2364(14)
loop_
_geom_bond_atom_site_label_1
_geom_bond_atom_site_label_2
_geom_bond_site_symmetry_1
_geom_bond_site_symmetry_2
C1 N1 1_555 1_555
N1 N2 1_555 1_555
N2 C2 1_555 1_555
C2 C3 1_555 1_555
C3 H1 1_555 1_555
C4 C3 1_555 1_555
C5 C4 1_555 1_555
H2 C5 1_555 1_555
C6 C5 1_555 1_555
C7 C2 1_555 1_555
N3 C1 1_555 1_555
C8 C1 1_555 1_555
C9 C8 1_555 1_555
H3 C9 1_555 1_555
C10 C9 1_555 1_555
H4 C10 1_555 1_555
C11 C10 1_555 1_555
H5 C11 1_555 1_555
C12 C11 1_555 1_555
H6 C12 1_555 1_555
C13 C8 1_555 1_555
H7 C13 1_555 1_555
C14 C6 1_555 1_555
H8 C14 1_555 1_555
H9 C14 1_555 1_555
H10 C14 1_555 1_555
C15 C4 1_555 1_555
H14 C15 1_555 1_555
H15 C15 1_555 1_555
H16 C15 1_555 1_555
C6 C7 1_555 1_555
C7 N3 1_555 1_555
C12 C13 1_555 1_555

#END
