
#######################################################################
#
#                 Cambridge Crystallographic Data Centre
#                                CCDC 
#
#######################################################################
#
# If this CIF has been generated from an entry in the Cambridge 
# Structural Database, then it will include bibliographic, chemical, 
# crystal, experimental, refinement or atomic coordinate data resulting 
# from the CCDC's data processing and validation procedures.
#
#######################################################################

data_NIFGAL
_chemical_formula_moiety         'C9 H7 Br1 N2 S2'
_chemical_name_systematic        
(E)-N-((5-Bromothiophen-2-yl)methylene)-5-methylthiazol-2-amine
_symmetry_cell_setting           monoclinic
_symmetry_space_group_name_H-M   'P 21/c'
_symmetry_Int_Tables_number      14
_space_group_name_Hall           '-P 2ybc'
loop_
_symmetry_equiv_pos_site_id
_symmetry_equiv_pos_as_xyz
1 x,y,z
2 -x,1/2+y,1/2-z
3 -x,-y,-z
4 x,1/2-y,1/2+z
_cell_length_a                   9.5515(10)
_cell_length_b                   10.9177(11)
_cell_length_c                   10.9141(11)
_cell_angle_alpha                90
_cell_angle_beta                 107.06(10)
_cell_angle_gamma                90
_cell_volume                     1088.05
_exptl_crystal_colour            colorless
_exptl_crystal_description       block
_cell_formula_units_Z            4
_exptl_crystal_recrystallization_method dichloromethane/ethanol
loop_
_atom_site_label
_atom_site_type_symbol
_atom_site_fract_x
_atom_site_fract_y
_atom_site_fract_z
Br1 Br 0.59314(4) 1.23977(3) 0.17687(4)
C1 C 0.4366(3) 1.1433(3) 0.0801(3)
C2 C 0.3745(3) 1.1446(3) -0.0481(3)
H1 H 0.4021 1.1968 -0.1042
C3 C 0.2627(3) 1.0568(3) -0.0855(3)
H2 H 0.2081 1.0445 -0.1704
C4 C 0.2416(3) 0.9918(3) 0.0131(3)
C5 C 0.1400(3) 0.8926(3) 0.0063(3)
H3 H 0.0812 0.8673 -0.0737
C6 C 0.0274(3) 0.7426(2) 0.0921(3)
C7 C -0.0887(3) 0.5910(3) 0.1508(3)
H4 H -0.1098 0.5375 0.2094
C8 C -0.1607(3) 0.5841(3) 0.0254(3)
C9 C -0.2806(4) 0.4988(3) -0.0419(3)
H5 H -0.2957 0.4395 0.0179
H6 H -0.2541 0.4577 -0.1096
H7 H -0.3692 0.5444 -0.0773
N1 N 0.1279(2) 0.8383(2) 0.1063(2)
N2 N 0.0168(3) 0.6793(3) 0.1898(2)
S1 S 0.36114(8) 1.03825(6) 0.15710(7)
S2 S -0.09293(8) 0.69442(7) -0.05398(7)
loop_
_geom_bond_atom_site_label_1
_geom_bond_atom_site_label_2
_geom_bond_site_symmetry_1
_geom_bond_site_symmetry_2
Br1 C1 1_555 1_555
C1 C2 1_555 1_555
C2 H1 1_555 1_555
C3 C2 1_555 1_555
H2 C3 1_555 1_555
C4 C3 1_555 1_555
C5 C4 1_555 1_555
H3 C5 1_555 1_555
C6 N1 1_555 1_555
C7 H4 1_555 1_555
C8 C7 1_555 1_555
C9 C8 1_555 1_555
H5 C9 1_555 1_555
H6 C9 1_555 1_555
H7 C9 1_555 1_555
N1 C5 1_555 1_555
N2 C6 1_555 1_555
S1 C1 1_555 1_555
S2 C6 1_555 1_555
C4 S1 1_555 1_555
C7 N2 1_555 1_555
C8 S2 1_555 1_555

#END
