
#######################################################################
#
#                 Cambridge Crystallographic Data Centre
#                                CCDC 
#
#######################################################################
#
# If this CIF has been generated from an entry in the Cambridge 
# Structural Database, then it will include bibliographic, chemical, 
# crystal, experimental, refinement or atomic coordinate data resulting 
# from the CCDC's data processing and validation procedures.
#
#######################################################################

data_NIFJAO
_chemical_formula_moiety         'C46 H24 Cl2 N6 O4'
_chemical_name_systematic        
'trans-(1^4^,5^4^-Dichloro-2,4,6,8-tetraoxo-1,5(2,6)-di(1,3,5-triazina)-3,7(2,7)ditryptycenaoctacyclophane) unknown solvate'
_symmetry_cell_setting           triclinic
_symmetry_space_group_name_H-M   'P -1'
_symmetry_Int_Tables_number      2
_space_group_name_Hall           '-P 1'
loop_
_symmetry_equiv_pos_site_id
_symmetry_equiv_pos_as_xyz
1 x,y,z
2 -x,-y,-z
_cell_length_a                   12.1813(39)
_cell_length_b                   15.6261(51)
_cell_length_c                   15.9368(49)
_cell_angle_alpha                63.269(6)
_cell_angle_beta                 77.693(6)
_cell_angle_gamma                86.662(7)
_cell_volume                     2644.59
_chemical_melting_point          'above 300 deg.C'
_cell_formula_units_Z            2
loop_
_atom_site_label
_atom_site_type_symbol
_atom_site_fract_x
_atom_site_fract_y
_atom_site_fract_z
Cl1 Cl 0.1417 0.5705 0.0824
Cl2 Cl 0.9649 0.0046 -0.2819
C1 C 0.9176 0.0217 -0.1785
N1 N 0.8323 -0.0391 -0.1153
N2 N 0.8513 0.0375 -0.0169
O1 O 0.9913 0.1588 -0.0829
C2 C 0.7637 0.1928 0.2081
O2 O 0.7169 -0.0820 0.0259
O3 O 0.5233 0.4853 0.1062
C3 C 0.9721 0.1846 -0.0059
N3 N 0.9716 0.0874 -0.1716
C4 C 0.9355 0.0905 -0.0890
C5 C 0.8052 -0.0244 -0.0368
C6 C 0.3847 0.0234 0.2849
C7 C 0.8724 0.1652 0.0640
C8 C 0.4489 0.0128 0.3498
C9 C 0.6947 -0.0905 0.2659
C10 C 0.5109 -0.0807 0.3825
C11 C 1.0536 0.2833 0.0489
C12 C 0.6770 -0.0768 0.1144
C13 C 0.4548 0.0844 0.3801
C14 C 0.5768 -0.0817 0.2890
N4 N 0.3922 0.3539 0.1850
C15 C 0.8070 0.4533 0.1529
O4 O 0.2435 0.2458 0.2525
C16 C 0.4176 -0.1600 0.4227
N5 N 0.2018 0.3969 0.1754
C17 C 0.8095 0.1573 0.2990
C18 C 0.8675 0.2048 0.1250
C19 C 0.2415 0.4861 0.1216
C20 C 0.7447 -0.0877 0.1756
C21 C 0.7307 0.2986 0.1821
C22 C 0.3162 0.1036 0.2500
C23 C 0.3217 0.1709 0.2827
C24 C 0.9533 0.2624 0.1210
N6 N 0.3467 0.5213 0.0975
C25 C 0.2638 -0.2161 0.3830
C26 C 0.3873 -0.0633 0.2612
C27 C 0.9319 0.3019 0.1941
C28 C 0.2431 -0.2925 0.4761
C29 C 0.3855 0.1658 0.3466
C30 C 1.0597 0.2449 -0.0153
C31 C 0.3541 -0.1503 0.3600
C32 C 0.6171 0.4324 0.1376
C33 C 0.5099 -0.0733 0.2268
C34 C 0.2828 0.3368 0.2049
C35 C 0.7035 0.4920 0.1319
C36 C 0.8993 0.2143 0.2914
C37 C 0.3094 -0.3067 0.5446
C38 C 0.5578 -0.0667 0.1318
C39 C 0.8183 0.3532 0.1794
C40 C 0.6302 0.3335 0.1626
C41 C 0.4030 -0.2349 0.5166
C42 C 0.4149 0.4510 0.1331
C43 C 0.9173 0.1055 0.4553
C44 C 0.8242 0.0488 0.4611
C45 C 0.7706 0.0715 0.3815
C46 C 0.9478 0.1873 0.3712
C47? C 0.6768 0.2255 0.8652
C48? C 0.6683 0.6235 0.0860
C49? C 0.5505 0.1755 0.0385
C50? C 0.4477 0.2303 0.0057
loop_
_geom_bond_atom_site_label_1
_geom_bond_atom_site_label_2
_geom_bond_site_symmetry_1
_geom_bond_site_symmetry_2
Cl1 C19 1_555 1_555
Cl2 C1 1_555 1_555
C1 N1 1_555 1_555
N1 C5 1_555 1_555
N2 C4 1_555 1_555
O1 C3 1_555 1_555
C2 C17 1_555 1_555
O2 C5 1_555 1_555
O3 C32 1_555 1_555
C3 C7 1_555 1_555
N3 C1 1_555 1_555
C4 O1 1_555 1_555
C5 N2 1_555 1_555
C6 C8 1_555 1_555
C7 C18 1_555 1_555
C8 C10 1_555 1_555
C9 C14 1_555 1_555
C10 C14 1_555 1_555
C11 C24 1_555 1_555
C12 O2 1_555 1_555
C13 C8 1_555 1_555
C14 C33 1_555 1_555
N4 C34 1_555 1_555
C15 C35 1_555 1_555
O4 C23 1_555 1_555
C16 C10 1_555 1_555
N5 C19 1_555 1_555
C17 C36 1_555 1_555
C18 C2 1_555 1_555
C19 N6 1_555 1_555
C20 C9 1_555 1_555
C21 C2 1_555 1_555
C22 C6 1_555 1_555
C23 C22 1_555 1_555
C24 C18 1_555 1_555
N6 C42 1_555 1_555
C25 C28 1_555 1_555
C26 C6 1_555 1_555
C27 C24 1_555 1_555
C28 C37 1_555 1_555
C29 C13 1_555 1_555
C30 C3 1_555 1_555
C31 C16 1_555 1_555
C32 C35 1_555 1_555
C33 C26 1_555 1_555
C34 O4 1_555 1_555
C36 C27 1_555 1_555
C37 C41 1_555 1_555
C38 C12 1_555 1_555
C39 C15 1_555 1_555
C40 C21 1_555 1_555
C41 C16 1_555 1_555
C42 O3 1_555 1_555
C43 C44 1_555 1_555
C44 C45 1_555 1_555
C45 C17 1_555 1_555
C46 C36 1_555 1_555
N3 C4 1_555 1_555
C11 C30 1_555 1_555
C12 C20 1_555 1_555
N4 C42 1_555 1_555
N5 C34 1_555 1_555
C21 C39 1_555 1_555
C23 C29 1_555 1_555
C25 C31 1_555 1_555
C26 C31 1_555 1_555
C27 C39 1_555 1_555
C32 C40 1_555 1_555
C33 C38 1_555 1_555
C43 C46 1_555 1_555

#END
