
#######################################################################
#
#                 Cambridge Crystallographic Data Centre
#                                CCDC 
#
#######################################################################
#
# If this CIF has been generated from an entry in the Cambridge 
# Structural Database, then it will include bibliographic, chemical, 
# crystal, experimental, refinement or atomic coordinate data resulting 
# from the CCDC's data processing and validation procedures.
#
#######################################################################

data_NIFREZ
_chemical_formula_moiety         'C17 H22 O4 S1'
_chemical_name_systematic        
((2-exo-Hydroxy-10-bornyl)methyl)(2-carboxyphenyl)sulfoxide
_symmetry_cell_setting           monoclinic
_symmetry_space_group_name_H-M   'P 21'
_symmetry_Int_Tables_number      4
_space_group_name_Hall           'P 2yb'
loop_
_symmetry_equiv_pos_site_id
_symmetry_equiv_pos_as_xyz
1 x,y,z
2 -x,1/2+y,-z
_cell_length_a                   6.961(4)
_cell_length_b                   10.993(3)
_cell_length_c                   10.765(4)
_cell_angle_alpha                90
_cell_angle_beta                 103.04(4)
_cell_angle_gamma                90
_cell_volume                     802.52
_exptl_crystal_colour            colorless
_exptl_crystal_description       prismatic
_cell_formula_units_Z            2
loop_
_atom_site_label
_atom_site_type_symbol
_atom_site_fract_x
_atom_site_fract_y
_atom_site_fract_z
S1 S -0.5339(2) -0.351(2) -0.3615(1)
O1 O -0.7149(8) -0.581(2) -0.7055(4)
O2 O -0.5075(7) -0.531(2) -0.5264(4)
O3 O -0.3251(10) -0.683(2) -0.3366(6)
O4 O -0.5465(8) -0.241(2) -0.2783(4)
C1 C -0.7806(8) -0.367(2) -0.4594(5)
C2 C -0.9237(10) -0.291(2) -0.4330(6)
C3 C -1.113(1) -0.294(2) -0.5113(7)
C4 C -1.1562(9) -0.370(2) -0.6145(7)
C5 C -1.0131(10) -0.442(2) -0.6422(6)
C6 C -0.8224(9) -0.444(2) -0.5674(5)
C7 C -0.6672(10) -0.522(2) -0.5985(5)
C8 C -0.5322(10) -0.479(2) -0.2531(6)
C9 C -0.3276(9) -0.514(2) -0.1834(6)
C10 C -0.1884(10) -0.406(2) -0.1303(6)
C11 C -0.023(1) -0.466(2) -0.0259(8)
C12 C -0.0858(10) -0.599(2) -0.0315(7)
C13 C -0.048(1) -0.651(2) -0.1559(8)
C14 C -0.211(1) -0.593(2) -0.2609(7)
C15 C -0.3131(9) -0.592(2) -0.0586(6)
C16 C -0.414(1) -0.716(2) -0.0771(8)
C17 C -0.390(1) -0.526(2) 0.0470(6)
H1 H -0.8937 -0.2368 -0.3618
H2 H -1.2120 -0.2410 -0.4931
H3 H -1.2860 -0.3716 -0.6664
H4 H -1.0445 -0.4927 -0.7152
H5 H -0.5923 -0.5458 -0.3012
H6 H -0.6058 -0.4562 -0.1922
H7 H -0.1347 -0.3699 -0.1955
H8 H -0.2567 -0.3449 -0.0941
H9 H 0.1027 -0.4557 -0.0456
H10 H -0.0194 -0.4309 0.0558
H11 H -0.0275 -0.6444 0.0423
H12 H 0.0790 -0.6281 -0.1660
H13 H -0.0598 -0.7365 -0.1571
H14 H -0.1521 -0.5412 -0.3131
H15 H -0.5525 -0.7038 -0.1010
H16 H -0.3708 -0.7583 -0.1421
H17 H -0.3807 -0.7594 0.0005
H18 H -0.5290 -0.5160 0.0210
H19 H -0.3301 -0.4473 0.0616
H20 H -0.3584 -0.5716 0.1233
loop_
_geom_bond_atom_site_label_1
_geom_bond_atom_site_label_2
_geom_bond_site_symmetry_1
_geom_bond_site_symmetry_2
S1 O4 1_555 1_555
O1 C7 1_555 1_555
O2 C7 1_555 1_555
O3 C14 1_555 1_555
C1 S1 1_555 1_555
C2 C1 1_555 1_555
C3 C2 1_555 1_555
C4 C3 1_555 1_555
C5 C4 1_555 1_555
C6 C1 1_555 1_555
C7 C6 1_555 1_555
C8 S1 1_555 1_555
C9 C8 1_555 1_555
C10 C9 1_555 1_555
C11 C10 1_555 1_555
C12 C11 1_555 1_555
C13 C12 1_555 1_555
C14 C9 1_555 1_555
C15 C9 1_555 1_555
C16 C15 1_555 1_555
C17 C15 1_555 1_555
H1 C2 1_555 1_555
H2 C3 1_555 1_555
H3 C4 1_555 1_555
H4 C5 1_555 1_555
H5 C8 1_555 1_555
H6 C8 1_555 1_555
H7 C10 1_555 1_555
H8 C10 1_555 1_555
H9 C11 1_555 1_555
H10 C11 1_555 1_555
H11 C12 1_555 1_555
H12 C13 1_555 1_555
H13 C13 1_555 1_555
H14 C14 1_555 1_555
H15 C16 1_555 1_555
H16 C16 1_555 1_555
H17 C16 1_555 1_555
H18 C17 1_555 1_555
H19 C17 1_555 1_555
H20 C17 1_555 1_555
C5 C6 1_555 1_555
C12 C15 1_555 1_555
C13 C14 1_555 1_555

#END
