
#######################################################################
#
#                 Cambridge Crystallographic Data Centre
#                                CCDC 
#
#######################################################################
#
# If this CIF has been generated from an entry in the Cambridge 
# Structural Database, then it will include bibliographic, chemical, 
# crystal, experimental, refinement or atomic coordinate data resulting 
# from the CCDC's data processing and validation procedures.
#
#######################################################################

data_NIFROL
_chemical_formula_moiety         'C24 H25 Br1 N4 O7 S2'
_chemical_name_systematic        
'N-(1-(2-Bromophenyl)-1-(2-methyl-2-((4-methylphenyl)sulfonyl)hydrazino)-3-oxobutan-2-yl)-4-nitrobenzenesulfonamide unknown solvate'
_symmetry_cell_setting           orthorhombic
_symmetry_space_group_name_H-M   'P n a 21'
_symmetry_Int_Tables_number      33
_space_group_name_Hall           'P 2c -2n'
loop_
_symmetry_equiv_pos_site_id
_symmetry_equiv_pos_as_xyz
1 x,y,z
2 -x,-y,1/2+z
3 1/2+x,1/2-y,z
4 1/2-x,1/2+y,1/2+z
_cell_length_a                   11.0457(9)
_cell_length_b                   14.7223(15)
_cell_length_c                   36.520(4)
_cell_angle_alpha                90
_cell_angle_beta                 90
_cell_angle_gamma                90
_cell_volume                     5938.81
_exptl_crystal_colour            colorless
_exptl_crystal_description       prismatic
_cell_formula_units_Z            8
loop_
_atom_site_label
_atom_site_type_symbol
_atom_site_fract_x
_atom_site_fract_y
_atom_site_fract_z
Br1 Br 0.55751(12) 0.39497(9) 0.97933(5)
S1 S 0.5424(3) 0.7440(2) 0.90911(10)
S2 S 0.8133(2) 0.55431(19) 1.07361(7)
N1 N 0.6282(8) 0.6549(6) 0.9157(3)
N2 N 0.6980(8) 0.6652(6) 0.9485(2)
H1 H 0.7411 0.7127 0.9528
N3 N 0.7196(8) 0.5611(6) 1.0398(3)
H2 H 0.6605 0.5233 1.0387
N4 N 1.2197(10) 0.3290(8) 1.0202(3)
O1 O 0.7065(8) 0.7907(6) 1.0224(3)
O2 O 0.4794(8) 0.7324(6) 0.8757(3)
O3 O 0.4741(7) 0.7563(6) 0.9408(3)
O4 O 0.8584(7) 0.6423(5) 1.0810(2)
O5 O 0.7514(7) 0.5063(6) 1.10187(19)
O6 O 1.2954(8) 0.3657(8) 0.9994(4)
O7 O 1.2268(8) 0.2492(7) 1.0314(3)
C1 C 0.6909(8) 0.5905(7) 0.9740(3)
H3 H 0.6054 0.5735 0.9761
C2 C 0.7317(9) 0.6281(7) 1.0116(3)
H4 H 0.8171 0.6455 1.0099
C3 C 0.6595(11) 0.7106(7) 1.0207(3)
C4 C 0.5275(11) 0.6998(9) 1.0283(4)
H5 H 0.5134 0.7048 1.0541
H6 H 0.5011 0.6413 1.0199
H7 H 0.4832 0.7464 1.0157
C5 C 0.7608(9) 0.5055(9) 0.9642(3)
C6 C 0.8919(10) 0.5156(8) 0.9516(3)
H8 H 0.9261 0.5730 0.9494
C7 C 0.9564(14) 0.4428(11) 0.9439(4)
H9 H 1.0393 0.4476 0.9398
C8 C 0.9001(17) 0.3593(9) 0.9419(4)
H10 H 0.9404 0.3104 0.9314
C9 C 0.7851(12) 0.3473(8) 0.9554(4)
H11 H 0.7537 0.2892 0.9584
C10 C 0.7213(11) 0.4175(8) 0.9640(3)
C11 C 0.7018(14) 0.6299(10) 0.8821(4)
H12 H 0.7744 0.6657 0.8815
H13 H 0.6550 0.6416 0.8605
H14 H 0.7226 0.5666 0.8831
C12 C 0.6419(11) 0.8365(9) 0.9045(4)
C13 C 0.6893(11) 0.8775(9) 0.9340(4)
H15 H 0.6685 0.8579 0.9574
C14 C 0.7704(11) 0.9500(10) 0.9296(4)
H16 H 0.8054 0.9778 0.9498
C15 C 0.7966(15) 0.9788(11) 0.8955(4)
C16 C 0.7533(15) 0.9328(10) 0.8652(4)
H17 H 0.7798 0.9476 0.8417
C17 C 0.6707(12) 0.8653(9) 0.8705(3)
H18 H 0.6336 0.8385 0.8504
C18 C 0.881(3) 1.0618(19) 0.8890(7)
H19 H 0.8405 1.1164 0.8964
H20 H 0.9015 1.0656 0.8635
H21 H 0.9539 1.0546 0.9031
C19 C 0.9341(8) 0.4868(7) 1.0573(3)
C20 C 1.0361(9) 0.5294(8) 1.0440(3)
H22 H 1.0426 0.5924 1.0444
C21 C 1.1298(9) 0.4757(8) 1.0300(3)
H23 H 1.1960 0.5014 1.0182
C22 C 1.1196(9) 0.3803(7) 1.0347(3)
C23 C 1.0219(10) 0.3418(9) 1.0482(3)
H24 H 1.0168 0.2789 1.0499
C24 C 0.9276(11) 0.3950(8) 1.0599(4)
H25 H 0.8587 0.3680 1.0697
Br2 Br 0.67483(12) 0.60112(10) 0.19069(5)
S3 S 0.6876(3) 0.2547(2) 0.25812(9)
S4 S 0.4160(2) 0.4470(2) 0.09473(8)
N5 N 0.5977(9) 0.3449(7) 0.2526(3)
N6 N 0.5284(7) 0.3311(6) 0.2192(2)
H26 H 0.4861 0.2833 0.2147
N7 N 0.5080(7) 0.4413(6) 0.1285(2)
H27 H 0.5641 0.4816 0.1304
N8 N 0.0104(10) 0.6781(9) 0.1489(3)
O8 O 0.5181(8) 0.2145(6) 0.1460(2)
O9 O 0.7575(7) 0.2460(5) 0.2242(2)
O10 O 0.7512(8) 0.2763(9) 0.2920(3)
O11 O 0.3659(7) 0.3571(5) 0.0874(2)
O12 O 0.4766(7) 0.4973(6) 0.0660(2)
O13 O -0.0574(10) 0.6417(9) 0.1707(3)
O14 O 0.0042(9) 0.7528(6) 0.1377(3)
C25 C 0.5397(9) 0.4081(7) 0.1943(3)
H28 H 0.6248 0.4265 0.1930
C26 C 0.4997(10) 0.3687(7) 0.1566(3)
H29 H 0.4136 0.3535 0.1589
C27 C 0.5649(10) 0.2805(9) 0.1457(3)
C28 C 0.7029(12) 0.2938(10) 0.1365(5)
H30 H 0.7462 0.2389 0.1420
H31 H 0.7349 0.3428 0.1509
H32 H 0.7118 0.3078 0.1109
C29 C 0.4596(6) 0.4937(4) 0.2054(2)
C30 C 0.3382(6) 0.4827(4) 0.2143(3)
H33 H 0.3034 0.4252 0.2137
C31 C 0.2688(6) 0.5576(6) 0.2241(3)
H34 H 0.1876 0.5502 0.2301
C32 C 0.3209(8) 0.6435(5) 0.2250(3)
H35 H 0.2745 0.6937 0.2315
C33 C 0.4423(8) 0.6545(4) 0.2160(3)
H36 H 0.4772 0.7120 0.2166
C34 C 0.5117(5) 0.5796(5) 0.2062(3)
C35 C 0.5238(14) 0.3731(11) 0.2832(3)
H37 H 0.4748 0.4240 0.2760
H38 H 0.5750 0.3904 0.3032
H39 H 0.4725 0.3238 0.2905
C36 C 0.5982(7) 0.1565(5) 0.2626(2)
C37 C 0.5372(8) 0.1196(6) 0.23285(19)
H40 H 0.5465 0.1451 0.2097
C38 C 0.4624(9) 0.0446(6) 0.2376(3)
H41 H 0.4217 0.0199 0.2177
C39 C 0.4486(9) 0.0065(6) 0.2722(3)
C40 C 0.5096(10) 0.0433(7) 0.3020(2)
H42 H 0.5004 0.0178 0.3251
C41 C 0.5844(8) 0.1184(7) 0.2972(2)
H43 H 0.6252 0.1430 0.3171
C42 C 0.378(2) -0.0805(16) 0.2831(8)
H44 H 0.4142 -0.1322 0.2713
H45 H 0.2954 -0.0749 0.2756
H46 H 0.3819 -0.0883 0.3092
C43 C 0.2959(9) 0.5117(7) 0.1089(3)
C44 C 0.1945(10) 0.4739(9) 0.1244(3)
H47 H 0.1911 0.4110 0.1264
C45 C 0.0948(9) 0.5248(8) 0.1374(4)
H48 H 0.0245 0.4982 0.1463
C46 C 0.1114(10) 0.6170(8) 0.1356(3)
C47 C 0.2112(11) 0.6625(8) 0.1210(4)
H49 H 0.2166 0.7255 0.1198
C48 C 0.3022(10) 0.6046(9) 0.1084(4)
H50 H 0.3721 0.6310 0.0990
loop_
_geom_bond_atom_site_label_1
_geom_bond_atom_site_label_2
_geom_bond_site_symmetry_1
_geom_bond_site_symmetry_2
Br1 C10 1_555 1_555
S1 N1 1_555 1_555
S2 N3 1_555 1_555
N1 N2 1_555 1_555
N2 H1 1_555 1_555
N3 H2 1_555 1_555
N4 O6 1_555 1_555
O1 C3 1_555 1_555
O2 S1 1_555 1_555
O3 S1 1_555 1_555
O4 S2 1_555 1_555
O5 S2 1_555 1_555
O7 N4 1_555 1_555
C1 N2 1_555 1_555
H3 C1 1_555 1_555
C2 N3 1_555 1_555
H4 C2 1_555 1_555
C3 C2 1_555 1_555
C4 C3 1_555 1_555
H5 C4 1_555 1_555
H6 C4 1_555 1_555
H7 C4 1_555 1_555
C5 C1 1_555 1_555
C6 C5 1_555 1_555
H8 C6 1_555 1_555
C7 C6 1_555 1_555
H9 C7 1_555 1_555
C8 C7 1_555 1_555
H10 C8 1_555 1_555
C9 C8 1_555 1_555
H11 C9 1_555 1_555
C10 C5 1_555 1_555
C11 N1 1_555 1_555
H12 C11 1_555 1_555
H13 C11 1_555 1_555
H14 C11 1_555 1_555
C12 S1 1_555 1_555
C13 C12 1_555 1_555
H15 C13 1_555 1_555
C14 C13 1_555 1_555
H16 C14 1_555 1_555
C15 C14 1_555 1_555
C16 C15 1_555 1_555
H17 C16 1_555 1_555
C17 C12 1_555 1_555
H18 C17 1_555 1_555
C18 C15 1_555 1_555
H19 C18 1_555 1_555
H20 C18 1_555 1_555
H21 C18 1_555 1_555
C19 S2 1_555 1_555
C20 C19 1_555 1_555
H22 C20 1_555 1_555
C21 C20 1_555 1_555
H23 C21 1_555 1_555
C22 N4 1_555 1_555
C23 C22 1_555 1_555
H24 C23 1_555 1_555
C24 C19 1_555 1_555
H25 C24 1_555 1_555
Br2 C34 1_555 1_555
S3 N5 1_555 1_555
S4 N7 1_555 1_555
N5 N6 1_555 1_555
N6 H26 1_555 1_555
N7 H27 1_555 1_555
N8 O13 1_555 1_555
O8 C27 1_555 1_555
O9 S3 1_555 1_555
O10 S3 1_555 1_555
O11 S4 1_555 1_555
O12 S4 1_555 1_555
O14 N8 1_555 1_555
C25 N6 1_555 1_555
H28 C25 1_555 1_555
C26 N7 1_555 1_555
H29 C26 1_555 1_555
C27 C26 1_555 1_555
C28 C27 1_555 1_555
H30 C28 1_555 1_555
H31 C28 1_555 1_555
H32 C28 1_555 1_555
C29 C25 1_555 1_555
C30 C29 1_555 1_555
H33 C30 1_555 1_555
C31 C30 1_555 1_555
H34 C31 1_555 1_555
C32 C31 1_555 1_555
H35 C32 1_555 1_555
C33 C32 1_555 1_555
H36 C33 1_555 1_555
C34 C29 1_555 1_555
C35 N5 1_555 1_555
H37 C35 1_555 1_555
H38 C35 1_555 1_555
H39 C35 1_555 1_555
C36 S3 1_555 1_555
C37 C36 1_555 1_555
H40 C37 1_555 1_555
C38 C37 1_555 1_555
H41 C38 1_555 1_555
C39 C38 1_555 1_555
C40 C39 1_555 1_555
H42 C40 1_555 1_555
C41 C36 1_555 1_555
H43 C41 1_555 1_555
C42 C39 1_555 1_555
H44 C42 1_555 1_555
H45 C42 1_555 1_555
H46 C42 1_555 1_555
C43 S4 1_555 1_555
C44 C43 1_555 1_555
H47 C44 1_555 1_555
C45 C44 1_555 1_555
H48 C45 1_555 1_555
C46 N8 1_555 1_555
C47 C46 1_555 1_555
H49 C47 1_555 1_555
C48 C43 1_555 1_555
H50 C48 1_555 1_555
C1 C2 1_555 1_555
C9 C10 1_555 1_555
C16 C17 1_555 1_555
C21 C22 1_555 1_555
C23 C24 1_555 1_555
C25 C26 1_555 1_555
C33 C34 1_555 1_555
C40 C41 1_555 1_555
C45 C46 1_555 1_555
C47 C48 1_555 1_555

#END
