
#######################################################################
#
#                 Cambridge Crystallographic Data Centre
#                                CCDC 
#
#######################################################################
#
# If this CIF has been generated from an entry in the Cambridge 
# Structural Database, then it will include bibliographic, chemical, 
# crystal, experimental, refinement or atomic coordinate data resulting 
# from the CCDC's data processing and validation procedures.
#
#######################################################################

data_NIFWUX
_chemical_compound_source        
'mangrove-derived fungus Eupenicillium sp. HJ002'
_chemical_name_common            'penicilindole A'
_chemical_formula_moiety         'C28 H41 N1 O2'
_chemical_name_systematic        
8-[(1H-indol-3-yl)methyl]-4,4a,7-trimethyl-8a-(4-methylpent-3-en-1-yl)decahydronaphthalene-1,7-diol
_chemical_properties_biological  
'cytotoxic activity against human A549 and HepG2 cell lines'
_symmetry_cell_setting           orthorhombic
_symmetry_space_group_name_H-M   'P 21 21 21'
_symmetry_Int_Tables_number      19
_space_group_name_Hall           'P 2ac 2ab'
loop_
_symmetry_equiv_pos_site_id
_symmetry_equiv_pos_as_xyz
1 x,y,z
2 1/2-x,-y,1/2+z
3 1/2+x,1/2-y,-z
4 -x,1/2+y,1/2-z
_cell_length_a                   12.11907(19)
_cell_length_b                   13.2029(3)
_cell_length_c                   15.3994(3)
_cell_angle_alpha                90
_cell_angle_beta                 90
_cell_angle_gamma                90
_cell_volume                     2464.01
_exptl_crystal_colour            colorless
_exptl_crystal_description       block
_chemical_melting_point          '92.8-93.4 deg.C'
_cell_formula_units_Z            4
_exptl_crystal_recrystallization_method methanol
loop_
_atom_site_label
_atom_site_type_symbol
_atom_site_fract_x
_atom_site_fract_y
_atom_site_fract_z
C1 C 0.47636(15) 0.24722(14) 0.05622(12)
H1 H 0.4254 0.2989 0.0648
C2 C 0.58776(13) 0.25540(13) 0.06977(11)
C3 C 0.63342(14) 0.15787(13) 0.05001(11)
C4 C 0.74098(15) 0.11832(15) 0.05360(13)
H2 H 0.7997 0.1583 0.0718
C5 C 0.75743(18) 0.01901(16) 0.02956(15)
H3 H 0.8283 -0.0079 0.0312
C6 C 0.6691(2) -0.04244(16) 0.00265(16)
H4 H 0.6827 -0.1091 -0.0136
C7 C 0.56267(18) -0.00593(16) -0.00018(14)
H5 H 0.5042 -0.0469 -0.0173
C8 C 0.54609(15) 0.09441(15) 0.02350(12)
C9 C 0.65863(13) 0.34211(13) 0.09839(12)
H6 H 0.7303 0.3345 0.0711
H7 H 0.6697 0.3360 0.1606
C10 C 0.61676(12) 0.45109(13) 0.07949(11)
H8 H 0.5361 0.4464 0.0802
C11 C 0.64719(13) 0.48235(13) -0.01462(11)
C12 C 0.60198(14) 0.58722(14) -0.03576(12)
H9 H 0.6299 0.6084 -0.0919
H10 H 0.5222 0.5836 -0.0397
C13 C 0.63351(14) 0.66547(14) 0.03176(12)
H11 H 0.6016 0.7301 0.0154
H12 H 0.7131 0.6732 0.0316
C14 C 0.59577(14) 0.63926(14) 0.12481(11)
C15 C 0.46665(14) 0.63587(14) 0.12916(12)
H13 H 0.4430 0.5826 0.0890
C16 C 0.42661(14) 0.60470(16) 0.21900(13)
H14 H 0.3466 0.6048 0.2201
H15 H 0.4524 0.6533 0.2617
C17 C 0.46896(14) 0.49958(15) 0.24241(12)
H16 H 0.4379 0.4504 0.2025
H17 H 0.4443 0.4823 0.3005
C18 C 0.59473(13) 0.49364(15) 0.23876(12)
H18 H 0.6145 0.4220 0.2445
C19 C 0.64690(13) 0.53212(13) 0.15182(11)
C20 C 0.77332(14) 0.54490(14) 0.16596(12)
H19 H 0.8045 0.5684 0.1116
H20 H 0.7834 0.5989 0.2079
C21 C 0.84323(15) 0.45454(15) 0.19640(14)
H21 H 0.8120 0.4271 0.2494
H22 H 0.8414 0.4018 0.1525
C22 C 0.96071(15) 0.48555(16) 0.21251(12)
H23 H 0.9760 0.5546 0.2137
C23 C 1.04473(16) 0.42231(19) 0.22525(15)
C24 C 1.0310(2) 0.3100(2) 0.2285(3)
H24 H 0.9546 0.2931 0.2209
H25 H 1.0560 0.2852 0.2837
H26 H 1.0737 0.2794 0.1830
C25 C 1.16121(17) 0.4612(3) 0.2355(2)
H27 H 1.1605 0.5339 0.2365
H28 H 1.2054 0.4381 0.1877
H29 H 1.1917 0.4362 0.2889
C26 C 0.60593(15) 0.40708(15) -0.08234(12)
H30 H 0.6254 0.4306 -0.1393
H31 H 0.5272 0.4010 -0.0781
H32 H 0.6393 0.3422 -0.0723
C27 C 0.40901(16) 0.73348(16) 0.10010(16)
H33 H 0.3305 0.7237 0.1011
H34 H 0.4320 0.7503 0.0422
H35 H 0.4284 0.7876 0.1388
C28 C 0.63743(15) 0.72786(15) 0.18186(14)
H36 H 0.7161 0.7334 0.1765
H37 H 0.6184 0.7153 0.2414
H38 H 0.6036 0.7898 0.1631
N1 N 0.45118(12) 0.15083(13) 0.02795(11)
H39 H 0.3862 0.1294 0.0151
O1 O 0.64167(10) 0.54558(12) 0.31271(8)
H40 H 0.5968 0.5863 0.3319
O2 O 0.76675(9) 0.48574(10) -0.02044(8)
H41 H 0.7851 0.4922 -0.0714
loop_
_geom_bond_atom_site_label_1
_geom_bond_atom_site_label_2
_geom_bond_site_symmetry_1
_geom_bond_site_symmetry_2
C1 H1 1_555 1_555
C2 C1 1_555 1_555
C3 C2 1_555 1_555
C4 C3 1_555 1_555
H2 C4 1_555 1_555
C5 C4 1_555 1_555
H3 C5 1_555 1_555
C6 C5 1_555 1_555
H4 C6 1_555 1_555
C7 C6 1_555 1_555
H5 C7 1_555 1_555
C8 C3 1_555 1_555
C9 C2 1_555 1_555
H6 C9 1_555 1_555
H7 C9 1_555 1_555
C10 C9 1_555 1_555
H8 C10 1_555 1_555
C11 C10 1_555 1_555
C12 C11 1_555 1_555
H9 C12 1_555 1_555
H10 C12 1_555 1_555
C13 C12 1_555 1_555
H11 C13 1_555 1_555
H12 C13 1_555 1_555
C14 C13 1_555 1_555
C15 C14 1_555 1_555
H13 C15 1_555 1_555
C16 C15 1_555 1_555
H14 C16 1_555 1_555
H15 C16 1_555 1_555
C17 C16 1_555 1_555
H16 C17 1_555 1_555
H17 C17 1_555 1_555
C18 C17 1_555 1_555
H18 C18 1_555 1_555
C19 C10 1_555 1_555
C20 C19 1_555 1_555
H19 C20 1_555 1_555
H20 C20 1_555 1_555
C21 C20 1_555 1_555
H21 C21 1_555 1_555
H22 C21 1_555 1_555
C22 C21 1_555 1_555
H23 C22 1_555 1_555
C23 C22 1_555 1_555
C24 C23 1_555 1_555
H24 C24 1_555 1_555
H25 C24 1_555 1_555
H26 C24 1_555 1_555
C25 C23 1_555 1_555
H27 C25 1_555 1_555
H28 C25 1_555 1_555
H29 C25 1_555 1_555
C26 C11 1_555 1_555
H30 C26 1_555 1_555
H31 C26 1_555 1_555
H32 C26 1_555 1_555
C27 C15 1_555 1_555
H33 C27 1_555 1_555
H34 C27 1_555 1_555
H35 C27 1_555 1_555
C28 C14 1_555 1_555
H36 C28 1_555 1_555
H37 C28 1_555 1_555
H38 C28 1_555 1_555
N1 C1 1_555 1_555
H39 N1 1_555 1_555
O1 C18 1_555 1_555
H40 O1 1_555 1_555
O2 C11 1_555 1_555
H41 O2 1_555 1_555
C7 C8 1_555 1_555
C8 N1 1_555 1_555
C14 C19 1_555 1_555
C18 C19 1_555 1_555

#END
