
#######################################################################
#
#                 Cambridge Crystallographic Data Centre
#                                CCDC 
#
#######################################################################
#
# If this CIF has been generated from an entry in the Cambridge 
# Structural Database, then it will include bibliographic, chemical, 
# crystal, experimental, refinement or atomic coordinate data resulting 
# from the CCDC's data processing and validation procedures.
#
#######################################################################

data_NIFWOR
_chemical_compound_source        'whole plants of Artemisia freyniana'
_chemical_name_common            'Artefreynic acid F'
_chemical_formula_moiety         'C15 H20 O3'
_chemical_name_systematic        
'2-(3-formyl-7,7a-dimethyl-2,4,5,6,7,7a-hexahydro-1H-inden-2-yl)prop-2-enoic acid'
_symmetry_cell_setting           orthorhombic
_symmetry_space_group_name_H-M   'P 21 21 2'
_symmetry_Int_Tables_number      18
_space_group_name_Hall           'P 2 2ab'
loop_
_symmetry_equiv_pos_site_id
_symmetry_equiv_pos_as_xyz
1 x,y,z
2 -x,-y,z
3 1/2-x,1/2+y,-z
4 1/2+x,1/2-y,-z
_cell_length_a                   6.83018(8)
_cell_length_b                   26.1293(3)
_cell_length_c                   7.49108(9)
_cell_angle_alpha                90
_cell_angle_beta                 90
_cell_angle_gamma                90
_cell_volume                     1336.92
_exptl_crystal_colour            'light colorless'
_exptl_crystal_description       block
_cell_formula_units_Z            4
loop_
_atom_site_label
_atom_site_type_symbol
_atom_site_fract_x
_atom_site_fract_y
_atom_site_fract_z
O1 O 0.5234(4) 0.71198(9) -0.0904(3)
O2 O 0.7765(4) 0.53009(8) -0.0064(3)
O3 O 1.0703(3) 0.56386(9) 0.0370(4)
H1 H 1.1033 0.5338 0.0445
C1 C 0.3384(5) 0.70568(10) 0.4637(4)
H2 H 0.3033 0.7346 0.3890
H3 H 0.4345 0.7173 0.5501
C2 C 0.1566(5) 0.68666(12) 0.5620(5)
H4 H 0.1198 0.7117 0.6516
H5 H 0.0493 0.6838 0.4777
C3 C 0.1875(5) 0.63529(11) 0.6516(4)
H6 H 0.0646 0.6238 0.7026
H7 H 0.2809 0.6392 0.7482
C4 C 0.2623(4) 0.59523(10) 0.5212(4)
H8 H 0.1654 0.5930 0.4250
C5 C 0.4573(4) 0.61231(9) 0.4337(4)
C6 C 0.5103(5) 0.57871(10) 0.2707(4)
H9 H 0.3980 0.5586 0.2337
H10 H 0.6164 0.5555 0.3004
C7 C 0.5737(4) 0.61558(10) 0.1191(4)
H11 H 0.5096 0.6051 0.0078
C8 C 0.4878(4) 0.66626(10) 0.1799(3)
C9 C 0.4682(5) 0.71028(11) 0.0637(4)
H12 H 0.4089 0.7394 0.1105
C10 C 0.4269(4) 0.66451(10) 0.3502(4)
C11 C 0.7932(4) 0.61627(10) 0.0906(4)
C12 C 0.8832(4) 0.56684(11) 0.0363(4)
C13 C 0.9084(5) 0.65664(13) 0.1107(5)
H13 H 1.0424 0.6537 0.0909
H14 H 0.8554 0.6879 0.1446
C14 C 0.2728(6) 0.54241(12) 0.6071(5)
H15 H 0.3188 0.5180 0.5210
H16 H 0.1449 0.5326 0.6477
H17 H 0.3613 0.5434 0.7066
C15 C 0.6275(5) 0.61444(13) 0.5669(5)
H18 H 0.7445 0.6250 0.5061
H19 H 0.6473 0.5812 0.6180
H20 H 0.5974 0.6385 0.6598
loop_
_geom_bond_atom_site_label_1
_geom_bond_atom_site_label_2
_geom_bond_site_symmetry_1
_geom_bond_site_symmetry_2
O1 C9 1_555 1_555
O2 C12 1_555 1_555
O3 H1 1_555 1_555
C1 H2 1_555 1_555
H3 C1 1_555 1_555
C2 C1 1_555 1_555
H4 C2 1_555 1_555
H5 C2 1_555 1_555
C3 C2 1_555 1_555
H6 C3 1_555 1_555
H7 C3 1_555 1_555
C4 C3 1_555 1_555
H8 C4 1_555 1_555
C5 C4 1_555 1_555
C6 C5 1_555 1_555
H9 C6 1_555 1_555
H10 C6 1_555 1_555
C7 C6 1_555 1_555
H11 C7 1_555 1_555
C8 C7 1_555 1_555
C9 C8 1_555 1_555
H12 C9 1_555 1_555
C10 C1 1_555 1_555
C11 C7 1_555 1_555
C12 O3 1_555 1_555
C13 C11 1_555 1_555
H13 C13 1_555 1_555
H14 C13 1_555 1_555
C14 C4 1_555 1_555
H15 C14 1_555 1_555
H16 C14 1_555 1_555
H17 C14 1_555 1_555
C15 C5 1_555 1_555
H18 C15 1_555 1_555
H19 C15 1_555 1_555
H20 C15 1_555 1_555
C5 C10 1_555 1_555
C8 C10 1_555 1_555
C11 C12 1_555 1_555

#END
