
#######################################################################
#
#                 Cambridge Crystallographic Data Centre
#                                CCDC 
#
#######################################################################
#
# If this CIF has been generated from an entry in the Cambridge 
# Structural Database, then it will include bibliographic, chemical, 
# crystal, experimental, refinement or atomic coordinate data resulting 
# from the CCDC's data processing and validation procedures.
#
#######################################################################

data_NIFXAE
_chemical_compound_source        
'mangrove-derived fungus Eupenicillium sp. HJ002'
_chemical_name_common            'Penicilindole B'
_chemical_formula_moiety         'C28 H39 N1 O2'
_chemical_name_systematic        
7-hydroxy-8-[(1H-indol-3-yl)methyl]-4,4a,7-trimethyl-8a-(4-methylpent-3-en-1-yl)octahydronaphthalen-1(2H)-one
_symmetry_cell_setting           orthorhombic
_symmetry_space_group_name_H-M   'P 21 21 21'
_symmetry_Int_Tables_number      19
_space_group_name_Hall           'P 2ac 2ab'
loop_
_symmetry_equiv_pos_site_id
_symmetry_equiv_pos_as_xyz
1 x,y,z
2 1/2-x,-y,1/2+z
3 1/2+x,1/2-y,-z
4 -x,1/2+y,1/2-z
_cell_length_a                   12.11105(14)
_cell_length_b                   13.12445(18)
_cell_length_c                   15.25655(18)
_cell_angle_alpha                90
_cell_angle_beta                 90
_cell_angle_gamma                90
_cell_volume                     2425.04
_exptl_crystal_colour            colorless
_exptl_crystal_description       block
_chemical_melting_point          '98.6-99.2 deg.C'
_cell_formula_units_Z            4
loop_
_atom_site_label
_atom_site_type_symbol
_atom_site_fract_x
_atom_site_fract_y
_atom_site_fract_z
C1 C 1.02196(11) 0.75500(11) 0.92723(8)
H1 H 1.0731 0.8055 0.9140
C2 C 0.90994(10) 0.76514(10) 0.91993(8)
C3 C 0.86414(11) 0.66929(10) 0.94598(8)
C4 C 0.75537(12) 0.63266(11) 0.95184(9)
H2 H 0.6959 0.6740 0.9368
C5 C 0.73868(13) 0.53407(12) 0.98034(10)
H3 H 0.6671 0.5089 0.9847
C6 C 0.82804(14) 0.47107(12) 1.00286(10)
H4 H 0.8143 0.4051 1.0221
C7 C 0.93563(13) 0.50462(11) 0.99712(9)
H5 H 0.9946 0.4625 1.0116
C8 C 0.95231(11) 0.60454(10) 0.96860(8)
C9 C 0.84097(11) 0.85327(10) 0.88967(8)
H6 H 0.7660 0.8423 0.9100
H7 H 0.8391 0.8521 0.8261
C10 C 0.87682(9) 0.96090(9) 0.91867(8)
H8 H 0.9577 0.9596 0.9182
C11 C 0.84448(10) 0.98677(10) 1.01450(8)
C12 C 0.89075(10) 1.09122(10) 1.03978(9)
H9 H 0.8620 1.1101 1.0969
H10 H 0.9704 1.0863 1.0447
C13 C 0.86242(11) 1.17473(10) 0.97447(9)
H11 H 0.8973 1.2376 0.9933
H12 H 0.7832 1.1855 0.9752
C14 C 0.89857(10) 1.15183(10) 0.87966(8)
C15 C 1.02755(11) 1.14517(10) 0.87447(8)
H13 H 1.0505 1.0911 0.9149
C16 C 1.06673(11) 1.11394(11) 0.78312(9)
H14 H 1.1467 1.1098 0.7828
H15 H 1.0448 1.1656 0.7411
C17 C 1.01865(11) 1.01119(12) 0.75534(8)
H16 H 1.0405 0.9958 0.6956
H17 H 1.0465 0.9577 0.7932
C18 C 0.89439(11) 1.01623(10) 0.76166(8)
C19 C 0.84355(10) 1.04611(10) 0.85064(8)
C20 C 0.71733(10) 1.06166(10) 0.83690(8)
H18 H 0.6891 1.0960 0.8886
H19 H 0.7082 1.1083 0.7881
C21 C 0.64253(11) 0.96970(11) 0.81954(8)
H20 H 0.6750 0.9280 0.7738
H21 H 0.6377 0.9287 0.8723
C22 C 0.52807(10) 1.00174(11) 0.79208(8)
H22 H 0.5147 1.0712 0.7862
C23 C 0.44517(12) 0.93895(12) 0.77567(10)
C24 C 0.45573(17) 0.82624(15) 0.78224(18)
H23 H 0.5303 0.8089 0.7973
H24 H 0.4371 0.7959 0.7269
H25 H 0.4066 0.8013 0.8267
C25 C 0.33199(13) 0.97762(16) 0.75293(13)
H26 H 0.3328 1.0507 0.7516
H27 H 0.2801 0.9548 0.7962
H28 H 0.3108 0.9521 0.6964
C26 C 0.88538(11) 0.90703(11) 1.07956(9)
H29 H 0.8678 0.9284 1.1381
H30 H 0.9639 0.8995 1.0739
H31 H 0.8502 0.8430 1.0676
C27 C 1.08785(12) 1.24264(12) 0.90290(11)
H32 H 1.1661 1.2313 0.9013
H33 H 1.0660 1.2604 0.9614
H34 H 1.0692 1.2972 0.8637
C28 C 0.85793(11) 1.23936(11) 0.82099(9)
H35 H 0.7807 1.2508 0.8313
H36 H 0.8692 1.2217 0.7606
H37 H 0.8985 1.3002 0.8345
N1 N 1.04781(9) 0.65866(9) 0.95722(8)
H38 H 1.1134 0.6363 0.9671
O1 O 0.83774(8) 1.00180(8) 0.69733(6)
O2 O 0.72513(7) 0.98950(7) 1.01896(5)
H39 H 0.7059 1.0047 1.0688
loop_
_geom_bond_atom_site_label_1
_geom_bond_atom_site_label_2
_geom_bond_site_symmetry_1
_geom_bond_site_symmetry_2
C1 H1 1_555 1_555
C2 C1 1_555 1_555
C3 C2 1_555 1_555
C4 C3 1_555 1_555
H2 C4 1_555 1_555
C5 C4 1_555 1_555
H3 C5 1_555 1_555
C6 C5 1_555 1_555
H4 C6 1_555 1_555
C7 C6 1_555 1_555
H5 C7 1_555 1_555
C8 C3 1_555 1_555
C9 C2 1_555 1_555
H6 C9 1_555 1_555
H7 C9 1_555 1_555
C10 C9 1_555 1_555
H8 C10 1_555 1_555
C11 C10 1_555 1_555
C12 C11 1_555 1_555
H9 C12 1_555 1_555
H10 C12 1_555 1_555
C13 C12 1_555 1_555
H11 C13 1_555 1_555
H12 C13 1_555 1_555
C14 C13 1_555 1_555
C15 C14 1_555 1_555
H13 C15 1_555 1_555
C16 C15 1_555 1_555
H14 C16 1_555 1_555
H15 C16 1_555 1_555
C17 C16 1_555 1_555
H16 C17 1_555 1_555
H17 C17 1_555 1_555
C18 C17 1_555 1_555
C19 C10 1_555 1_555
C20 C19 1_555 1_555
H18 C20 1_555 1_555
H19 C20 1_555 1_555
C21 C20 1_555 1_555
H20 C21 1_555 1_555
H21 C21 1_555 1_555
C22 C21 1_555 1_555
H22 C22 1_555 1_555
C23 C22 1_555 1_555
C24 C23 1_555 1_555
H23 C24 1_555 1_555
H24 C24 1_555 1_555
H25 C24 1_555 1_555
C25 C23 1_555 1_555
H26 C25 1_555 1_555
H27 C25 1_555 1_555
H28 C25 1_555 1_555
C26 C11 1_555 1_555
H29 C26 1_555 1_555
H30 C26 1_555 1_555
H31 C26 1_555 1_555
C27 C15 1_555 1_555
H32 C27 1_555 1_555
H33 C27 1_555 1_555
H34 C27 1_555 1_555
C28 C14 1_555 1_555
H35 C28 1_555 1_555
H36 C28 1_555 1_555
H37 C28 1_555 1_555
N1 C1 1_555 1_555
H38 N1 1_555 1_555
O1 C18 1_555 1_555
O2 C11 1_555 1_555
H39 O2 1_555 1_555
C7 C8 1_555 1_555
C8 N1 1_555 1_555
C14 C19 1_555 1_555
C18 C19 1_555 1_555

#END
