
#######################################################################
#
#                 Cambridge Crystallographic Data Centre
#                                CCDC 
#
#######################################################################
#
# If this CIF has been generated from an entry in the Cambridge 
# Structural Database, then it will include bibliographic, chemical, 
# crystal, experimental, refinement or atomic coordinate data resulting 
# from the CCDC's data processing and validation procedures.
#
#######################################################################

data_NIFXAB
_chemical_formula_moiety         'C13 H22 O4'
_chemical_name_systematic        
2,3-Isopropylidenedioxy-4-t-butoxymethyl-1-cyclopentanone
_symmetry_cell_setting           orthorhombic
_symmetry_space_group_name_H-M   'P 21 21 21'
_symmetry_Int_Tables_number      19
_space_group_name_Hall           'P 2ac 2ab'
loop_
_symmetry_equiv_pos_site_id
_symmetry_equiv_pos_as_xyz
1 x,y,z
2 1/2-x,-y,1/2+z
3 1/2+x,1/2-y,-z
4 -x,1/2+y,1/2-z
_cell_length_a                   7.9192
_cell_length_b                   11.6020
_cell_length_c                   15.4554
_cell_angle_alpha                90
_cell_angle_beta                 90
_cell_angle_gamma                90
_cell_volume                     1420.02
_exptl_crystal_colour            colorless
_chemical_melting_point          63-65deg.C
_cell_formula_units_Z            4
loop_
_atom_site_label
_atom_site_type_symbol
_atom_site_fract_x
_atom_site_fract_y
_atom_site_fract_z
O1 O 0.0444(6) 0.1113(4) 0.5684(2)
O2 O 0.2393(6) 0.1065(4) 0.6744(3)
O3 O 0.1037(8) -0.0614(4) 0.8045(4)
O4 O -0.2553(6) 0.1210(4) 0.7917(3)
C1 C -0.0504(8) 0.1359(5) 0.6455(4)
C2 C 0.2158(9) 0.1369(6) 0.5858(4)
C3 C 0.327(1) 0.0637(7) 0.5309(5)
C4 C 0.250(1) 0.2657(6) 0.5752(5)
C5 C 0.0806(8) 0.1094(5) 0.7143(4)
C6 C 0.0348(9) -0.0141(5) 0.7464(4)
C7 C -0.1085(10) -0.0583(6) 0.6926(5)
C8 C -0.1948(8) 0.0499(6) 0.6538(4)
C9 C -0.3322(9) 0.0963(7) 0.7109(5)
C10 C -0.3623(9) 0.1626(6) 0.8602(4)
C11 C -0.243(2) 0.1868(8) 0.9331(4)
C12 C -0.491(1) 0.0729(7) 0.8856(6)
C13 C -0.455(1) 0.2718(7) 0.8319(5)
H1 H 0.080 0.163 0.762
H2 H -0.062 -0.109 0.647
H3 H -0.181 -0.104 0.727
H4 H -0.236 0.032 0.597
H5 H -0.428 0.045 0.716
H6 H -0.382 0.168 0.685
H7 H 0.305 -0.015 0.540
H8 H 0.302 0.081 0.471
H9 H 0.441 0.081 0.542
H10 H -0.372 0.333 0.818
H11 H -0.521 0.261 0.781
H12 H -0.527 0.302 0.876
H13 H 0.367 0.284 0.584
H14 H 0.224 0.291 0.516
H15 H 0.184 0.310 0.613
H16 H -0.181 0.118 0.951
H17 H -0.158 0.243 0.918
H18 H -0.298 0.215 0.985
H19 H -0.567 0.100 0.931
H20 H -0.565 0.052 0.837
H21 H -0.440 0.004 0.906
H22 H -0.086 0.216 0.649
loop_
_geom_bond_atom_site_label_1
_geom_bond_atom_site_label_2
_geom_bond_site_symmetry_1
_geom_bond_site_symmetry_2
O1 C1 1_555 1_555
O2 C2 1_555 1_555
O3 C6 1_555 1_555
O4 C9 1_555 1_555
C1 C5 1_555 1_555
C2 O1 1_555 1_555
C3 C2 1_555 1_555
C4 C2 1_555 1_555
C5 O2 1_555 1_555
C6 C5 1_555 1_555
C7 C6 1_555 1_555
C8 C1 1_555 1_555
C9 C8 1_555 1_555
C10 O4 1_555 1_555
C11 C10 1_555 1_555
C12 C10 1_555 1_555
C13 C10 1_555 1_555
H1 C5 1_555 1_555
H2 C7 1_555 1_555
H3 C7 1_555 1_555
H4 C8 1_555 1_555
H5 C9 1_555 1_555
H6 C9 1_555 1_555
H7 C3 1_555 1_555
H8 C3 1_555 1_555
H9 C3 1_555 1_555
H10 C13 1_555 1_555
H11 C13 1_555 1_555
H12 C13 1_555 1_555
H13 C4 1_555 1_555
H14 C4 1_555 1_555
H15 C4 1_555 1_555
H16 C11 1_555 1_555
H17 C11 1_555 1_555
H18 C11 1_555 1_555
H19 C12 1_555 1_555
H20 C12 1_555 1_555
H21 C12 1_555 1_555
H22 C1 1_555 1_555
C7 C8 1_555 1_555

#END
