
#######################################################################
#
#                 Cambridge Crystallographic Data Centre
#                                CCDC 
#
#######################################################################
#
# If this CIF has been generated from an entry in the Cambridge 
# Structural Database, then it will include bibliographic, chemical, 
# crystal, experimental, refinement or atomic coordinate data resulting 
# from the CCDC's data processing and validation procedures.
#
#######################################################################

data_NIFYIK01
_chemical_formula_moiety         'C23 H17 Cl1 N4'
_chemical_name_systematic        
7-(p-Chlorophenyl)-5,6-diphenyl-2-methyl-7H-imidazo(1,2-b)-1,2,4-triazole
_symmetry_cell_setting           monoclinic
_symmetry_space_group_name_H-M   'P 21/c'
_symmetry_Int_Tables_number      14
_space_group_name_Hall           '-P 2ybc'
loop_
_symmetry_equiv_pos_site_id
_symmetry_equiv_pos_as_xyz
1 x,y,z
2 -x,1/2+y,1/2-z
3 -x,-y,-z
4 x,1/2-y,1/2+z
_cell_length_a                   10.611(4)
_cell_length_b                   8.392(3)
_cell_length_c                   22.067(5)
_cell_angle_alpha                90
_cell_angle_beta                 92.05(3)
_cell_angle_gamma                90
_cell_volume                     1963.75
_exptl_crystal_colour            colorless
_chemical_melting_point          216-217deg.C
_cell_formula_units_Z            4
loop_
_atom_site_label
_atom_site_type_symbol
_atom_site_fract_x
_atom_site_fract_y
_atom_site_fract_z
Cl1 Cl 0.0898(1) 0.2128(1) 0.3114(1)
N1 N 0.4618(2) 0.2490(2) 0.5187(1)
N2 N 0.6440(2) 0.2680(2) 0.5684(1)
N3 N 0.7730(2) 0.2643(2) 0.5651(1)
N4 N 0.6726(2) 0.2299(2) 0.4712(1)
C1 C 0.5538(2) 0.2821(2) 0.6123(1)
C2 C 0.4406(2) 0.2718(2) 0.5805(1)
C3 C 0.1992(2) 0.2229(3) 0.3725(1)
C4 C 0.1861(2) 0.3391(3) 0.4157(1)
C5 C 0.2722(2) 0.3482(2) 0.4640(1)
C6 C 0.3716(2) 0.2408(2) 0.4688(1)
C7 C 0.3858(2) 0.1268(3) 0.4241(1)
C8 C 0.2994(2) 0.1169(3) 0.3758(1)
C9 C 0.5896(2) 0.2467(2) 0.5135(1)
C10 C 0.7827(2) 0.2420(3) 0.5063(1)
C11 C 0.9086(2) 0.2355(4) 0.4787(1)
C12 C 0.5878(2) 0.2958(2) 0.6774(1)
C13 C 0.6967(2) 0.3738(3) 0.6980(1)
C14 C 0.7279(2) 0.3845(3) 0.7593(1)
C15 C 0.6509(3) 0.3185(3) 0.8010(1)
C16 C 0.5435(3) 0.2400(3) 0.7810(1)
C17 C 0.5114(2) 0.2276(3) 0.7201(1)
C18 C 0.3121(2) 0.2816(2) 0.6032(1)
C19 C 0.2288(2) 0.1546(3) 0.5963(1)
C20 C 0.1095(2) 0.1668(4) 0.6188(1)
C21 C 0.0740(2) 0.3027(4) 0.6477(1)
C22 C 0.1557(2) 0.4288(4) 0.6546(1)
C23 C 0.2748(2) 0.4186(3) 0.6323(1)
loop_
_geom_bond_atom_site_label_1
_geom_bond_atom_site_label_2
_geom_bond_site_symmetry_1
_geom_bond_site_symmetry_2
Cl1 C3 1_555 1_555
N1 C2 1_555 1_555
N2 N3 1_555 1_555
N3 C10 1_555 1_555
N4 C9 1_555 1_555
C1 N2 1_555 1_555
C2 C1 1_555 1_555
C3 C4 1_555 1_555
C4 C5 1_555 1_555
C5 C6 1_555 1_555
C6 N1 1_555 1_555
C7 C6 1_555 1_555
C8 C3 1_555 1_555
C9 N1 1_555 1_555
C10 N4 1_555 1_555
C11 C10 1_555 1_555
C12 C1 1_555 1_555
C13 C12 1_555 1_555
C14 C13 1_555 1_555
C15 C14 1_555 1_555
C16 C15 1_555 1_555
C17 C12 1_555 1_555
C18 C2 1_555 1_555
C19 C18 1_555 1_555
C20 C19 1_555 1_555
C21 C20 1_555 1_555
C22 C21 1_555 1_555
C23 C18 1_555 1_555
N2 C9 1_555 1_555
C7 C8 1_555 1_555
C16 C17 1_555 1_555
C22 C23 1_555 1_555

#END
