
#######################################################################
#
#                 Cambridge Crystallographic Data Centre
#                                CCDC 
#
#######################################################################
#
# If this CIF has been generated from an entry in the Cambridge 
# Structural Database, then it will include bibliographic, chemical, 
# crystal, experimental, refinement or atomic coordinate data resulting 
# from the CCDC's data processing and validation procedures.
#
#######################################################################

data_NIFYOQ
_chemical_formula_moiety         'C18 H15 N1 S1,H2 O1'
_chemical_name_systematic        'S,S,S-Triphenylthiazyne monohydrate'
_symmetry_cell_setting           monoclinic
_symmetry_space_group_name_H-M   'P 21/n'
_symmetry_Int_Tables_number      14
_space_group_name_Hall           '-P 2yn'
loop_
_symmetry_equiv_pos_site_id
_symmetry_equiv_pos_as_xyz
1 x,y,z
2 1/2-x,1/2+y,1/2-z
3 -x,-y,-z
4 1/2+x,1/2-y,1/2+z
_cell_length_a                   9.213(2)
_cell_length_b                   16.486(4)
_cell_length_c                   11.098(2)
_cell_angle_alpha                90
_cell_angle_beta                 111.64(1)
_cell_angle_gamma                90
_cell_volume                     1566.82
_exptl_crystal_colour            colorless
_chemical_melting_point          181-182deg.C
_cell_formula_units_Z            4
loop_
_atom_site_label
_atom_site_type_symbol
_atom_site_fract_x
_atom_site_fract_y
_atom_site_fract_z
S1 S 0.97964(9) 0.13941(6) 0.74483(7)
N1 N 0.9793(4) 0.0795(2) 0.8417(3)
C1 C 0.8867(4) 0.2355(2) 0.7482(3)
C2 C 0.8093(5) 0.2821(2) 0.6407(3)
C3 C 0.7391(5) 0.3531(3) 0.6538(4)
C4 C 0.7457(5) 0.3781(3) 0.7739(4)
C5 C 0.8217(4) 0.3316(3) 0.8803(3)
C6 C 0.8929(4) 0.2603(3) 0.8699(3)
C7 C 1.1683(4) 0.1714(2) 0.7504(3)
C8 C 1.2923(4) 0.1273(3) 0.8281(4)
C9 C 1.4414(5) 0.1450(3) 0.8377(5)
C10 C 1.4654(5) 0.2090(3) 0.7670(5)
C11 C 1.3436(5) 0.2534(3) 0.6922(4)
C12 C 1.1934(5) 0.2374(3) 0.6817(4)
C13 C 0.8804(4) 0.1094(2) 0.5774(3)
C14 C 0.9535(5) 0.1053(3) 0.4885(4)
C15 C 0.8644(6) 0.0771(3) 0.3662(4)
C16 C 0.7203(6) 0.0537(3) 0.3336(4)
C17 C 0.6484(6) 0.0546(3) 0.4234(5)
C18 C 0.7326(5) 0.0833(3) 0.5459(4)
H1 H 0.797(3) 0.261(2) 0.562(3)
H2 H 0.674(3) 0.379(2) 0.581(3)
H3 H 0.684(3) 0.424(2) 0.779(3)
H4 H 0.836(3) 0.350(2) 0.958(3)
H5 H 0.953(3) 0.230(2) 0.941(3)
H6 H 1.268(3) 0.089(2) 0.860(3)
H7 H 1.531(3) 0.118(2) 0.892(3)
H8 H 1.575(3) 0.222(2) 0.781(3)
H9 H 1.355(3) 0.293(2) 0.663(3)
H10 H 1.097(3) 0.264(2) 0.629(3)
H11 H 1.069(3) 0.118(2) 0.517(3)
H12 H 0.908(3) 0.071(2) 0.327(3)
H13 H 0.656(3) 0.040(2) 0.265(3)
H14 H 0.537(3) 0.041(2) 0.399(3)
H15 H 0.691(3) 0.087(2) 0.601(3)
O1 O 0.8304(3) 0.0569(2) 1.0269(3)
loop_
_geom_bond_atom_site_label_1
_geom_bond_atom_site_label_2
_geom_bond_site_symmetry_1
_geom_bond_site_symmetry_2
S1 N1 1_555 1_555
C1 S1 1_555 1_555
C2 C1 1_555 1_555
C3 C2 1_555 1_555
C4 C3 1_555 1_555
C5 C4 1_555 1_555
C6 C1 1_555 1_555
C7 S1 1_555 1_555
C8 C7 1_555 1_555
C9 C8 1_555 1_555
C10 C9 1_555 1_555
C11 C10 1_555 1_555
C12 C7 1_555 1_555
C13 S1 1_555 1_555
C14 C13 1_555 1_555
C15 C14 1_555 1_555
C16 C15 1_555 1_555
C17 C16 1_555 1_555
C18 C13 1_555 1_555
H1 C2 1_555 1_555
H2 C3 1_555 1_555
H3 C4 1_555 1_555
H4 C5 1_555 1_555
H5 C6 1_555 1_555
H6 C8 1_555 1_555
H7 C9 1_555 1_555
H8 C10 1_555 1_555
H9 C11 1_555 1_555
H10 C12 1_555 1_555
H11 C14 1_555 1_555
H12 C15 1_555 1_555
H13 C16 1_555 1_555
H14 C17 1_555 1_555
H15 C18 1_555 1_555
C5 C6 1_555 1_555
C11 C12 1_555 1_555
C17 C18 1_555 1_555

#END
