
#######################################################################
#
#                 Cambridge Crystallographic Data Centre
#                                CCDC 
#
#######################################################################
#
# If this CIF has been generated from an entry in the Cambridge 
# Structural Database, then it will include bibliographic, chemical, 
# crystal, experimental, refinement or atomic coordinate data resulting 
# from the CCDC's data processing and validation procedures.
#
#######################################################################

data_NIFZUA
_chemical_formula_moiety         'C10 H8 I1 N1 O1'
_chemical_name_systematic        5-(iodomethyl)-3-phenyl-1,2-oxazole
_symmetry_cell_setting           triclinic
_symmetry_space_group_name_H-M   'P 1'
_symmetry_Int_Tables_number      1
_space_group_name_Hall           'P 1'
loop_
_symmetry_equiv_pos_site_id
_symmetry_equiv_pos_as_xyz
1 x,y,z
_cell_length_a                   4.7468(12)
_cell_length_b                   4.7508(12)
_cell_length_c                   11.704(3)
_cell_angle_alpha                91.136(19)
_cell_angle_beta                 99.12(2)
_cell_angle_gamma                106.83(2)
_cell_volume                     248.836
_exptl_crystal_colour            colorless
_exptl_crystal_description       block
_cell_formula_units_Z            1
loop_
_atom_site_label
_atom_site_type_symbol
_atom_site_fract_x
_atom_site_fract_y
_atom_site_fract_z
I1 I 0.0514 -0.9920 -0.7398
O1 O -0.2934(14) -1.2069(15) -0.4958(6)
C1 C 0.0845(15) -1.2549(15) -0.2114(6)
N1 N -0.2637(16) -1.3418(17) -0.3902(7)
C2 C -0.0118(15) -1.1863(14) -0.3298(6)
C3 C 0.1321(17) -0.9448(16) -0.3919(7)
H1 H 0.3150 -0.8025 -0.3678
C4 C -0.0538(18) -0.9693(16) -0.4917(7)
C5 C 0.273(3) -1.025(3) -0.1283(13)
H2 H 0.3360 -0.8324 -0.1500
C6 C 0.2724(19) -1.3675(19) 0.0176(8)
H3 H 0.3328 -1.4065 0.0936
C7 C -0.047(2) -0.783(2) -0.5903(9)
H4 H 0.1041 -0.5945 -0.5684
H5 H -0.2388 -0.7461 -0.6106
C8 C -0.007(3) -1.532(3) -0.1729(14)
H6 H -0.1384 -1.6815 -0.2241
C9 C 0.086(3) -1.599(3) -0.0629(16)
H7 H 0.0290 -1.7926 -0.0415
C10 C 0.362(3) -1.088(4) -0.0164(16)
H8 H 0.4854 -0.9379 0.0366
H9? H 0.3397 -1.4050 0.0931
C11? C 0.379(3) -1.175(3) -0.1663(13)
H10? H 0.5196 -1.0878 -0.2122
C12? C -0.029(4) -1.455(4) -0.0274(15)
H11? H -0.1693 -1.5437 0.0180
C13? C -0.119(4) -1.405(4) -0.1460(17)
H12? H -0.3194 -1.4751 -0.1794
C14? C 0.473(3) -1.223(3) -0.0515(15)
H13? H 0.6752 -1.1564 -0.0204
loop_
_geom_bond_atom_site_label_1
_geom_bond_atom_site_label_2
_geom_bond_site_symmetry_1
_geom_bond_site_symmetry_2
I1 C7 1_555 1_555
O1 N1 1_555 1_555
C1 C2 1_555 1_555
N1 C2 1_555 1_555
C2 C3 1_555 1_555
C3 H1 1_555 1_555
C4 O1 1_555 1_555
C5 C1 1_555 1_555
H2 C5 1_555 1_555
C6 H3 1_555 1_555
C7 C4 1_555 1_555
H4 C7 1_555 1_555
H5 C7 1_555 1_555
C8 C1 1_555 1_555
H6 C8 1_555 1_555
C9 C6 1_555 1_555
H7 C9 1_555 1_555
C10 C5 1_555 1_555
H8 C10 1_555 1_555
C3 C4 1_555 1_555
C6 C10 1_555 1_555
C8 C9 1_555 1_555

#END
