
#######################################################################
#
#                 Cambridge Crystallographic Data Centre
#                                CCDC 
#
#######################################################################
#
# If this CIF has been generated from an entry in the Cambridge 
# Structural Database, then it will include bibliographic, chemical, 
# crystal, experimental, refinement or atomic coordinate data resulting 
# from the CCDC's data processing and validation procedures.
#
#######################################################################

data_NIGMIC
_chemical_formula_moiety         'C27 H16 N2 O5 S1'
_chemical_name_systematic        
'methyl 6-(4-nitrophenyl)-7-oxo-7,13-dihydroindeno[1,2-b]phenothiazine-12-carboxylate'
_symmetry_cell_setting           triclinic
_symmetry_space_group_name_H-M   'P -1'
_symmetry_Int_Tables_number      2
_space_group_name_Hall           '-P 1'
loop_
_symmetry_equiv_pos_site_id
_symmetry_equiv_pos_as_xyz
1 x,y,z
2 -x,-y,-z
_cell_length_a                   10.1127(12)
_cell_length_b                   10.6660(11)
_cell_length_c                   11.9417(12)
_cell_angle_alpha                114.374(3)
_cell_angle_beta                 100.761(4)
_cell_angle_gamma                102.754(4)
_cell_volume                     1086.91
_exptl_crystal_colour            red
_exptl_crystal_description       block
_cell_formula_units_Z            2
loop_
_atom_site_label
_atom_site_type_symbol
_atom_site_fract_x
_atom_site_fract_y
_atom_site_fract_z
C1 C 0.77096(18) 0.43273(17) 0.19671(15)
C2 C 0.84903(18) 0.51479(17) 0.32756(15)
C3 C 0.8049(2) 0.4787(2) 0.41674(17)
H1 H 0.8550 0.5360 0.5045
C4 C 0.6868(2) 0.3581(2) 0.37576(19)
H2 H 0.6577 0.3338 0.4357
C5 C 0.6123(2) 0.2741(2) 0.24610(19)
H3 H 0.5346 0.1909 0.2181
C6 C 0.65245(19) 0.31266(19) 0.15705(17)
H4 H 0.5993 0.2574 0.0699
C7 C 0.99940(17) 0.69893(17) 0.25489(14)
C8 C 0.90423(17) 0.59933(16) 0.12962(14)
C9 C 0.90391(17) 0.63651(17) 0.02794(14)
C10 C 0.79249(17) 0.53847(18) -0.10036(15)
C11 C 0.6316(3) 0.5309(2) -0.27567(19)
H5 H 0.6689 0.4642 -0.3323
H6 H 0.6132 0.5962 -0.3081
H7 H 0.5445 0.4772 -0.2718
C12 C 1.30475(18) 0.89261(19) 0.46396(16)
H8 H 1.3174 0.8058 0.4122
C13 C 1.39509(19) 0.98010(19) 0.58961(16)
H9 H 1.4677 0.9531 0.6235
C14 C 1.37399(19) 1.10808(19) 0.66261(15)
C15 C 1.2687(2) 1.1526(2) 0.61536(18)
H10 H 1.2583 1.2409 0.6668
C16 C 1.1789(2) 1.06317(19) 0.48991(17)
H11 H 1.1069 1.0911 0.4564
C17 C 1.19539(17) 0.93239(17) 0.41392(15)
C18 C 1.09431(17) 0.83085(16) 0.28015(14)
C19 C 1.09913(17) 0.86017(17) 0.17767(15)
C20 C 1.00717(17) 0.76310(16) 0.05191(14)
C21 C 1.04876(18) 0.81928(18) -0.03704(15)
C22 C 1.0045(2) 0.7622(2) -0.17022(16)
H12 H 0.9335 0.6718 -0.2225
C23 C 1.0679(2) 0.8423(2) -0.22464(18)
H13 H 1.0384 0.8047 -0.3141
C24 C 1.1736(2) 0.9761(2) -0.14858(19)
H14 H 1.2122 1.0290 -0.1870
C25 C 1.2228(2) 1.0324(2) -0.01560(19)
H15 H 1.2957 1.1216 0.0360
C26 C 1.16026(18) 0.95231(18) 0.03822(16)
C27 C 1.19775(18) 0.98538(18) 0.17635(16)
N1 N 0.81297(16) 0.46791(15) 0.10503(13)
H16 H 0.7783 0.4008 0.0256
N2 N 1.4664(2) 1.1994(2) 0.79811(16)
O1 O 0.75624(14) 0.40771(13) -0.15417(12)
O2 O 0.73457(14) 0.61400(13) -0.14754(11)
O3 O 1.55896(19) 1.15735(18) 0.83817(14)
O4 O 1.4469(2) 1.3121(2) 0.86338(15)
O5 O 1.28992(14) 1.09215(14) 0.26718(12)
S1 S 1.01396(5) 0.65286(5) 0.38216(4)
loop_
_geom_bond_atom_site_label_1
_geom_bond_atom_site_label_2
_geom_bond_site_symmetry_1
_geom_bond_site_symmetry_2
C1 C2 1_555 1_555
C2 C3 1_555 1_555
C3 H1 1_555 1_555
C4 C3 1_555 1_555
H2 C4 1_555 1_555
C5 C4 1_555 1_555
H3 C5 1_555 1_555
C6 C1 1_555 1_555
H4 C6 1_555 1_555
C7 C8 1_555 1_555
C8 C9 1_555 1_555
C9 C10 1_555 1_555
C10 O1 1_555 1_555
C11 H5 1_555 1_555
H6 C11 1_555 1_555
H7 C11 1_555 1_555
C12 H8 1_555 1_555
C13 C12 1_555 1_555
H9 C13 1_555 1_555
C14 C13 1_555 1_555
C15 C14 1_555 1_555
H10 C15 1_555 1_555
C16 C15 1_555 1_555
H11 C16 1_555 1_555
C17 C12 1_555 1_555
C18 C7 1_555 1_555
C19 C18 1_555 1_555
C20 C9 1_555 1_555
C21 C20 1_555 1_555
C22 C21 1_555 1_555
H12 C22 1_555 1_555
C23 C22 1_555 1_555
H13 C23 1_555 1_555
C24 C23 1_555 1_555
H14 C24 1_555 1_555
C25 C24 1_555 1_555
H15 C25 1_555 1_555
C26 C21 1_555 1_555
C27 C19 1_555 1_555
N1 C1 1_555 1_555
H16 N1 1_555 1_555
N2 C14 1_555 1_555
O2 C10 1_555 1_555
O3 N2 1_555 1_555
O4 N2 1_555 1_555
O5 C27 1_555 1_555
S1 C2 1_555 1_555
C5 C6 1_555 1_555
C7 S1 1_555 1_555
C8 N1 1_555 1_555
C11 O2 1_555 1_555
C16 C17 1_555 1_555
C17 C18 1_555 1_555
C19 C20 1_555 1_555
C25 C26 1_555 1_555
C26 C27 1_555 1_555

#END
