
#######################################################################
#
#                 Cambridge Crystallographic Data Centre
#                                CCDC 
#
#######################################################################
#
# If this CIF has been generated from an entry in the Cambridge 
# Structural Database, then it will include bibliographic, chemical, 
# crystal, experimental, refinement or atomic coordinate data resulting 
# from the CCDC's data processing and validation procedures.
#
#######################################################################

data_NIGMUM
_chemical_formula_moiety         'C15 H22 O11 S3'
_chemical_name_systematic        
'2,3,4,6-Tetra-O-acetyl-\b-D-glucopyranosyl methanedithiosulfonate'
_symmetry_cell_setting           monoclinic
_symmetry_space_group_name_H-M   'P 21'
_symmetry_Int_Tables_number      4
_space_group_name_Hall           'P 2yb'
loop_
_symmetry_equiv_pos_site_id
_symmetry_equiv_pos_as_xyz
1 x,y,z
2 -x,1/2+y,-z
_cell_length_a                   5.6609(6)
_cell_length_b                   20.850(2)
_cell_length_c                   9.2785(10)
_cell_angle_alpha                90
_cell_angle_beta                 105.45(3)
_cell_angle_gamma                90
_cell_volume                     1055.56
_exptl_crystal_colour            colorless
_exptl_crystal_description       wedge
_chemical_melting_point          '147-148 deg.C'
_cell_formula_units_Z            2
_exptl_crystal_recrystallization_method ether
loop_
_atom_site_label
_atom_site_type_symbol
_atom_site_fract_x
_atom_site_fract_y
_atom_site_fract_z
S1 S 0.51131(7) 0.199262(19) 0.59061(4)
S2 S 0.12989(8) 0.09608(2) 0.65080(5)
S3 S 0.17829(8) 0.16173(2) 0.48987(4)
O1 O 0.3072(2) 0.31251(6) 0.55824(12)
O2 O 0.7356(2) 0.25950(6) 0.90190(12)
O3 O 0.8359(2) 0.39773(6) 0.89019(12)
O4 O 0.3772(2) 0.46668(6) 0.74485(13)
O5 O -0.1535(2) 0.37404(6) 0.42078(13)
O6 O 0.1617(3) 0.12765(8) 0.79233(17)
O7 O -0.1032(2) 0.06699(7) 0.57990(18)
O8 O 1.1344(2) 0.27922(7) 0.91889(13)
O9 O 0.6883(2) 0.44831(7) 1.06209(14)
O10 O 0.6935(3) 0.52119(7) 0.69931(17)
O11 O -0.0152(2) 0.33375(7) 0.23203(14)
C1 C 0.4238(3) 0.27070(7) 0.67608(16)
H1 H 0.3093 0.2592 0.7371
C2 C 0.6570(3) 0.30119(7) 0.77514(16)
H2 H 0.7857 0.3037 0.7199
C3 C 0.6022(3) 0.36800(8) 0.82529(16)
H3 H 0.5081 0.3645 0.9018
C4 C 0.4583(3) 0.40779(8) 0.69325(17)
H4 H 0.5611 0.4169 0.6235
C5 C 0.2288(3) 0.37077(8) 0.61262(17)
H5 H 0.1288 0.3608 0.6835
C6 C 0.0758(3) 0.40702(9) 0.47955(19)
H6 H 0.0445 0.4509 0.5099
H7 H 0.1649 0.4102 0.4017
C7 C 0.3661(3) 0.03996(9) 0.6660(2)
H8 H 0.5250 0.0616 0.7003
H9 H 0.3523 0.0203 0.5682
H10 H 0.3532 0.0067 0.7380
C8 C 0.9803(3) 0.25067(8) 0.96106(18)
C9 C 1.0271(3) 0.20009(10) 1.07924(19)
H11 H 1.0388 0.1582 1.0339
H12 H 0.8921 0.1995 1.1269
H13 H 1.1810 0.2094 1.1545
C10 C 0.8553(3) 0.43716(8) 1.00866(18)
C11 C 1.1071(3) 0.46463(11) 1.0594(2)
H14 H 1.1110 0.4977 1.1351
H15 H 1.1520 0.4838 0.9739
H16 H 1.2237 0.4305 1.1024
C12 C 0.5099(3) 0.52035(9) 0.74058(19)
C13 C 0.3977(4) 0.57709(9) 0.7974(2)
H17 H 0.4631 0.5801 0.9062
H18 H 0.2194 0.5718 0.7725
H19 H 0.4374 0.6163 0.7507
C14 C -0.1727(3) 0.33751(8) 0.29660(17)
C15 C -0.4138(3) 0.30356(11) 0.2527(2)
H20 H -0.4477 0.2896 0.1483
H21 H -0.5436 0.3327 0.2638
H22 H -0.4084 0.2661 0.3172
loop_
_geom_bond_atom_site_label_1
_geom_bond_atom_site_label_2
_geom_bond_site_symmetry_1
_geom_bond_site_symmetry_2
S1 S3 1_555 1_555
S2 S3 1_555 1_555
O1 C1 1_555 1_555
O2 C2 1_555 1_555
O3 C3 1_555 1_555
O4 C4 1_555 1_555
O5 C6 1_555 1_555
O6 S2 1_555 1_555
O7 S2 1_555 1_555
O8 C8 1_555 1_555
O9 C10 1_555 1_555
O10 C12 1_555 1_555
O11 C14 1_555 1_555
C1 S1 1_555 1_555
H1 C1 1_555 1_555
C2 C1 1_555 1_555
H2 C2 1_555 1_555
C3 C2 1_555 1_555
H3 C3 1_555 1_555
C4 C3 1_555 1_555
H4 C4 1_555 1_555
C5 O1 1_555 1_555
H5 C5 1_555 1_555
C6 C5 1_555 1_555
H6 C6 1_555 1_555
H7 C6 1_555 1_555
C7 S2 1_555 1_555
H8 C7 1_555 1_555
H9 C7 1_555 1_555
H10 C7 1_555 1_555
C8 O2 1_555 1_555
C9 C8 1_555 1_555
H11 C9 1_555 1_555
H12 C9 1_555 1_555
H13 C9 1_555 1_555
C10 O3 1_555 1_555
C11 C10 1_555 1_555
H14 C11 1_555 1_555
H15 C11 1_555 1_555
H16 C11 1_555 1_555
C12 O4 1_555 1_555
C13 C12 1_555 1_555
H17 C13 1_555 1_555
H18 C13 1_555 1_555
H19 C13 1_555 1_555
C14 O5 1_555 1_555
C15 C14 1_555 1_555
H20 C15 1_555 1_555
H21 C15 1_555 1_555
H22 C15 1_555 1_555
C4 C5 1_555 1_555

#END
