
#######################################################################
#
#                 Cambridge Crystallographic Data Centre
#                                CCDC 
#
#######################################################################
#
# If this CIF has been generated from an entry in the Cambridge 
# Structural Database, then it will include bibliographic, chemical, 
# crystal, experimental, refinement or atomic coordinate data resulting 
# from the CCDC's data processing and validation procedures.
#
#######################################################################

data_NIGMEW
_chemical_formula_moiety         'C21 H39 N1 O5 S1 Si1'
_chemical_name_systematic        
(2R)-N-(5-(t-butyldimethylsilyloxy)-(3R)-hydroxypentanoyl)-10,2-bornanesultam
_symmetry_cell_setting           monoclinic
_symmetry_space_group_name_H-M   'C 2'
_symmetry_Int_Tables_number      5
_space_group_name_Hall           'C 2y'
loop_
_symmetry_equiv_pos_site_id
_symmetry_equiv_pos_as_xyz
1 x,y,z
2 -x,y,-z
3 1/2+x,1/2+y,z
4 1/2-x,1/2+y,-z
_cell_length_a                   25.1378(5)
_cell_length_b                   7.16800(10)
_cell_length_c                   14.1884(3)
_cell_angle_alpha                90
_cell_angle_beta                 103.6404(7)
_cell_angle_gamma                90
_cell_volume                     2484.47
_exptl_crystal_colour            colorless
_exptl_crystal_description       rod
_chemical_melting_point          '65 deg.C'
_cell_formula_units_Z            4
loop_
_atom_site_label
_atom_site_type_symbol
_atom_site_fract_x
_atom_site_fract_y
_atom_site_fract_z
S1 S 0.070084(15) 0.00003(5) 0.91889(2)
O1 O 0.01220(5) -0.0287(2) 0.89053(9)
O2 O 0.10068(7) -0.0439(2) 0.84893(9)
C1 C 0.13037(6) 0.0478(2) 1.09842(9)
C2 C 0.10544(5) 0.2389(2) 1.06246(9)
H1 H 0.0747(7) 0.267(3) 1.0876(12)
C3 C 0.15332(8) 0.3765(3) 1.09722(12)
H2 H 0.1413(9) 0.478(4) 1.1288(18)
H3 H 0.1664(8) 0.413(3) 1.0470(16)
C4 C 0.19644(7) 0.2516(3) 1.16303(12)
H4 H 0.2346(9) 0.308(3) 1.1799(16)
C5 C 0.17324(9) 0.1940(3) 1.24979(12)
H5 H 0.2023(9) 0.125(3) 1.3014(16)
H6 H 0.1543(11) 0.299(4) 1.2732(19)
C6 C 0.12976(8) 0.0433(3) 1.20652(11)
H7 H 0.0936(9) 0.081(3) 1.2151(15)
H8 H 0.1418(8) -0.087(4) 1.2308(15)
C7 C 0.19300(6) 0.0702(3) 1.10362(12)
C8 C 0.20873(9) 0.0916(4) 1.00676(16)
H9 H 0.1890(8) 0.180(3) 0.9652(15)
H10 H 0.2019(9) -0.035(4) 0.9689(17)
H11 H 0.2495(13) 0.122(5) 1.021(2)
C9 C 0.22724(9) -0.0920(4) 1.1568(2)
H12 H 0.2248(11) -0.094(5) 1.217(2)
H13 H 0.2136(11) -0.202(5) 1.125(2)
H14 H 0.2651(12) -0.072(4) 1.1581(19)
C10 C 0.09873(7) -0.1027(2) 1.03475(11)
H15 H 0.1160(10) -0.219(4) 1.0285(18)
H16 H 0.0689(9) -0.146(3) 1.0535(16)
N1 N 0.08351(5) 0.22296(17) 0.95650(7)
C11 C 0.05690(7) 0.3768(2) 0.90708(10)
O3 O 0.05618(6) 0.52087(19) 0.95117(9)
C12 C 0.03188(8) 0.3572(3) 0.79944(11)
H17 H 0.0087(9) 0.240(3) 0.7863(15)
H18 H 0.0591(9) 0.336(3) 0.7732(16)
C13 C -0.00093(6) 0.5302(2) 0.75833(11)
H19 H 0.0233(8) 0.643(3) 0.7731(14)
O4 O -0.04521(6) 0.5542(2) 0.80415(10)
H20 H -0.0336(12) 0.586(5) 0.856(2)
C14 C -0.02497(7) 0.5098(3) 0.65011(11)
H21 H -0.0483(9) 0.413(4) 0.6383(16)
H22 H 0.0038(9) 0.497(4) 0.6208(17)
C15 C -0.05469(11) 0.6848(3) 0.60788(15)
H23 H -0.0860(13) 0.701(5) 0.638(2)
H24 H -0.0296(11) 0.789(4) 0.6228(19)
O5 O -0.07593(5) 0.6598(2) 0.50565(9)
Si1 Si -0.133782(17) 0.74366(7) 0.44145(3)
C16 C -0.13992(10) 0.6399(3) 0.31910(15)
H25 H -0.1404 0.5063 0.3238
H26 H -0.1093 0.6780 0.2941
H27 H -0.1733 0.6818 0.2763
C17 C -0.19127(11) 0.6657(5) 0.4938(2)
H28 H -0.2138 0.7708 0.5001
H29 H -0.1769 0.6113 0.5564
H30 H -0.2128 0.5747 0.4517
C18 C -0.13282(7) 1.0052(3) 0.43332(11)
C19 C -0.13705(14) 1.0960(5) 0.52958(19)
H31 H -0.1305 1.2276 0.5270
H32 H -0.1103 1.0415 0.5820
H33 H -0.1730 1.0755 0.5398
C20 C -0.18178(12) 1.0709(4) 0.3528(2)
H34 H -0.1765 1.0330 0.2908
H35 H -0.1845 1.2044 0.3547
H36 H -0.2149 1.0163 0.3629
C21 C -0.07997(11) 1.0702(4) 0.4085(2)
H37 H -0.0510 1.0714 0.4663
H38 H -0.0850 1.1935 0.3816
H39 H -0.0707 0.9864 0.3621
loop_
_geom_bond_atom_site_label_1
_geom_bond_atom_site_label_2
_geom_bond_site_symmetry_1
_geom_bond_site_symmetry_2
S1 O1 1_555 1_555
O2 S1 1_555 1_555
C1 C2 1_555 1_555
C2 H1 1_555 1_555
C3 C2 1_555 1_555
H2 C3 1_555 1_555
H3 C3 1_555 1_555
C4 C3 1_555 1_555
H4 C4 1_555 1_555
C5 C4 1_555 1_555
H5 C5 1_555 1_555
H6 C5 1_555 1_555
C6 C1 1_555 1_555
H7 C6 1_555 1_555
H8 C6 1_555 1_555
C7 C1 1_555 1_555
C8 C7 1_555 1_555
H9 C8 1_555 1_555
H10 C8 1_555 1_555
H11 C8 1_555 1_555
C9 C7 1_555 1_555
H12 C9 1_555 1_555
H13 C9 1_555 1_555
H14 C9 1_555 1_555
C10 S1 1_555 1_555
H15 C10 1_555 1_555
H16 C10 1_555 1_555
N1 S1 1_555 1_555
C11 N1 1_555 1_555
O3 C11 1_555 1_555
C12 C11 1_555 1_555
H17 C12 1_555 1_555
H18 C12 1_555 1_555
C13 C12 1_555 1_555
H19 C13 1_555 1_555
O4 C13 1_555 1_555
H20 O4 1_555 1_555
C14 C13 1_555 1_555
H21 C14 1_555 1_555
H22 C14 1_555 1_555
C15 C14 1_555 1_555
H23 C15 1_555 1_555
H24 C15 1_555 1_555
O5 C15 1_555 1_555
Si1 O5 1_555 1_555
C16 Si1 1_555 1_555
H25 C16 1_555 1_555
H26 C16 1_555 1_555
H27 C16 1_555 1_555
C17 Si1 1_555 1_555
H28 C17 1_555 1_555
H29 C17 1_555 1_555
H30 C17 1_555 1_555
C18 Si1 1_555 1_555
C19 C18 1_555 1_555
H31 C19 1_555 1_555
H32 C19 1_555 1_555
H33 C19 1_555 1_555
C20 C18 1_555 1_555
H34 C20 1_555 1_555
H35 C20 1_555 1_555
H36 C20 1_555 1_555
C21 C18 1_555 1_555
H37 C21 1_555 1_555
H38 C21 1_555 1_555
H39 C21 1_555 1_555
C1 C10 1_555 1_555
C2 N1 1_555 1_555
C4 C7 1_555 1_555
C5 C6 1_555 1_555

#END
