
#######################################################################
#
#                 Cambridge Crystallographic Data Centre
#                                CCDC 
#
#######################################################################
#
# If this CIF has been generated from an entry in the Cambridge 
# Structural Database, then it will include bibliographic, chemical, 
# crystal, experimental, refinement or atomic coordinate data resulting 
# from the CCDC's data processing and validation procedures.
#
#######################################################################

data_NIGRON
_chemical_formula_moiety         'C19 H13 N1 O5'
_chemical_name_systematic        
'methyl 4,9-dioxo-3-phenyl-4,9-dihydronaphtho[2,3-d][1,2]oxazole-9a(3aH)-carboxylate'
_symmetry_cell_setting           monoclinic
_symmetry_space_group_name_H-M   'P 21/c'
_symmetry_Int_Tables_number      14
_space_group_name_Hall           '-P 2ybc'
loop_
_symmetry_equiv_pos_site_id
_symmetry_equiv_pos_as_xyz
1 x,y,z
2 -x,1/2+y,1/2-z
3 -x,-y,-z
4 x,1/2-y,1/2+z
_cell_length_a                   15.3338(19)
_cell_length_b                   9.2168(12)
_cell_length_c                   11.0275(14)
_cell_angle_alpha                90
_cell_angle_beta                 97.106(2)
_cell_angle_gamma                90
_cell_volume                     1546.53
_exptl_crystal_colour            colorless
_exptl_crystal_description       prism
_cell_formula_units_Z            4
loop_
_atom_site_label
_atom_site_type_symbol
_atom_site_fract_x
_atom_site_fract_y
_atom_site_fract_z
O1 O 0.26936(6) 0.68392(10) 1.07847(7)
O2 O 0.32405(6) 0.41743(10) 0.80255(9)
O3 O 0.40308(7) 0.90052(11) 1.06428(10)
O4 O 0.16794(7) 0.91303(11) 0.99545(9)
O5 O 0.25753(6) 0.96692(10) 0.85482(8)
N1 N 0.20178(7) 0.57967(11) 1.04453(9)
C1 C -0.01040(9) 0.30553(14) 0.74128(14)
H1 H -0.0576 0.2521 0.6988
C2 C 0.00051(9) 0.30908(14) 0.86821(13)
H2 H -0.0387 0.2569 0.9124
C3 C 0.06861(8) 0.38865(13) 0.93054(12)
H3 H 0.0755 0.3922 1.0173
C4 C 0.12726(8) 0.46382(12) 0.86547(11)
C5 C 0.19628(8) 0.55680(12) 0.92880(10)
C6 C 0.26531(7) 0.63937(12) 0.86841(10)
H4 H 0.2381 0.6866 0.7912
C7 C 0.34028(8) 0.53819(13) 0.84271(10)
C8 C 0.43179(8) 0.59463(13) 0.86568(10)
C9 C 0.45324(8) 0.71840(13) 0.93735(11)
C10 C 0.54056(8) 0.76552(14) 0.95806(12)
H5 H 0.5556 0.8475 1.0086
C11 C 0.60498(9) 0.69236(16) 0.90475(13)
H6 H 0.6640 0.7260 0.9169
C12 C 0.04742(9) 0.37976(14) 0.67643(13)
H7 H 0.0396 0.3774 0.5896
C13 C 0.11664(8) 0.45751(13) 0.73802(11)
H8 H 0.1569 0.5066 0.6934
C14 C 0.28982(8) 0.75315(13) 0.96759(10)
C15 C 0.58374(9) 0.56967(16) 0.83336(13)
H9 H 0.6283 0.5202 0.7970
C16 C 0.49777(8) 0.51952(14) 0.81520(11)
H10 H 0.4838 0.4342 0.7685
C17 C 0.38593(8) 0.79932(13) 0.99446(11)
C18 C 0.23074(8) 0.88786(13) 0.94385(11)
C19 C 0.20591(10) 1.09655(15) 0.82072(14)
H11 H 0.1459 1.0685 0.7882
H12 H 0.2328 1.1502 0.7582
H13 H 0.2043 1.1582 0.8928
loop_
_geom_bond_atom_site_label_1
_geom_bond_atom_site_label_2
_geom_bond_site_symmetry_1
_geom_bond_site_symmetry_2
O1 N1 1_555 1_555
O2 C7 1_555 1_555
O3 C17 1_555 1_555
O4 C18 1_555 1_555
O5 C18 1_555 1_555
N1 C5 1_555 1_555
C1 H1 1_555 1_555
C2 C1 1_555 1_555
H2 C2 1_555 1_555
C3 C2 1_555 1_555
H3 C3 1_555 1_555
C4 C3 1_555 1_555
C5 C4 1_555 1_555
C6 C5 1_555 1_555
H4 C6 1_555 1_555
C7 C6 1_555 1_555
C8 C7 1_555 1_555
C9 C8 1_555 1_555
C10 C9 1_555 1_555
H5 C10 1_555 1_555
C11 C10 1_555 1_555
H6 C11 1_555 1_555
C12 C1 1_555 1_555
H7 C12 1_555 1_555
C13 C4 1_555 1_555
H8 C13 1_555 1_555
C14 O1 1_555 1_555
C15 C11 1_555 1_555
H9 C15 1_555 1_555
C16 C8 1_555 1_555
H10 C16 1_555 1_555
C17 C9 1_555 1_555
C18 C14 1_555 1_555
C19 O5 1_555 1_555
H11 C19 1_555 1_555
H12 C19 1_555 1_555
H13 C19 1_555 1_555
C6 C14 1_555 1_555
C12 C13 1_555 1_555
C14 C17 1_555 1_555
C15 C16 1_555 1_555

#END
