
#######################################################################
#
#                 Cambridge Crystallographic Data Centre
#                                CCDC 
#
#######################################################################
#
# If this CIF has been generated from an entry in the Cambridge 
# Structural Database, then it will include bibliographic, chemical, 
# crystal, experimental, refinement or atomic coordinate data resulting 
# from the CCDC's data processing and validation procedures.
#
#######################################################################

data_NIGSEE
_chemical_formula_moiety         'C20 H8 N2 O4'
_chemical_name_systematic        
'[1,4]benzodioxino[2,3-b]oxanthrene-6,13-dicarbonitrile'
_symmetry_cell_setting           orthorhombic
_symmetry_space_group_name_H-M   'P b c a'
_symmetry_Int_Tables_number      61
_space_group_name_Hall           '-P 2ac 2ab'
loop_
_symmetry_equiv_pos_site_id
_symmetry_equiv_pos_as_xyz
1 x,y,z
2 1/2-x,-y,1/2+z
3 -x,1/2+y,1/2-z
4 1/2+x,1/2-y,-z
5 -x,-y,-z
6 1/2+x,y,1/2-z
7 x,1/2-y,1/2+z
8 1/2-x,1/2+y,z
_cell_length_a                   7.1478(7)
_cell_length_b                   19.364(2)
_cell_length_c                   20.976(2)
_cell_angle_alpha                90
_cell_angle_beta                 90
_cell_angle_gamma                90
_cell_volume                     2903.29
_exptl_crystal_colour            colorless
_exptl_crystal_description       needle
_cell_formula_units_Z            8
loop_
_atom_site_label
_atom_site_type_symbol
_atom_site_fract_x
_atom_site_fract_y
_atom_site_fract_z
O1 O 0.50073(13) 0.23394(5) 0.66228(4)
O2 O 0.63991(13) 0.40260(5) 0.50604(4)
O3 O 0.63123(14) 0.32588(5) 0.75984(4)
O4 O 0.77179(13) 0.49356(5) 0.60360(4)
N1 N 0.83648(17) 0.48861(6) 0.76665(5)
N2 N 0.42772(16) 0.24050(6) 0.49966(5)
C1 C 0.70852(17) 0.42836(6) 0.61611(6)
C2 C 0.57250(17) 0.31958(6) 0.58567(6)
C3 C 0.64284(17) 0.38449(6) 0.56900(6)
C4 C 0.70630(17) 0.40723(6) 0.67959(6)
C5 C 0.63448(17) 0.34260(6) 0.69631(6)
C6 C 0.49512(18) 0.27519(6) 0.53768(6)
C7 C 0.56938(17) 0.29853(6) 0.64937(6)
C8 C 0.77779(18) 0.45275(6) 0.72809(6)
C9 C 0.71031(17) 0.46820(6) 0.49210(6)
C10 C 0.77429(17) 0.51237(6) 0.53958(6)
C11 C 0.55345(18) 0.26127(6) 0.77400(6)
C12 C 0.84381(18) 0.57686(7) 0.52450(6)
C13 C 0.49259(18) 0.21646(7) 0.72670(6)
C14 C 0.78655(18) 0.55308(7) 0.41340(6)
C15 C 0.71566(18) 0.48829(7) 0.42885(6)
C16 C 0.42143(18) 0.15241(7) 0.74220(6)
C17 C 0.54086(19) 0.24283(7) 0.83729(6)
C18 C 0.40989(19) 0.13342(7) 0.80604(6)
C19 C 0.85016(18) 0.59714(7) 0.46095(6)
C20 C 0.4685(2) 0.17849(7) 0.85349(6)
H1 H 0.454(2) 0.1649(8) 0.8983(8)
H2 H 0.793(2) 0.5679(8) 0.3680(8)
H3 H 0.899(2) 0.6423(8) 0.4503(7)
H4 H 0.583(2) 0.2761(9) 0.8692(8)
H5 H 0.363(2) 0.0883(9) 0.8173(8)
H6 H 0.381(2) 0.1213(9) 0.7072(8)
H7 H 0.889(2) 0.6077(8) 0.5583(7)
H8 H 0.672(2) 0.4567(8) 0.3959(7)
loop_
_geom_bond_atom_site_label_1
_geom_bond_atom_site_label_2
_geom_bond_site_symmetry_1
_geom_bond_site_symmetry_2
O1 C7 1_555 1_555
O2 C3 1_555 1_555
O3 C5 1_555 1_555
O4 C1 1_555 1_555
N1 C8 1_555 1_555
N2 C6 1_555 1_555
C1 C3 1_555 1_555
C2 C3 1_555 1_555
C4 C1 1_555 1_555
C5 C4 1_555 1_555
C6 C2 1_555 1_555
C7 C2 1_555 1_555
C8 C4 1_555 1_555
C9 O2 1_555 1_555
C10 O4 1_555 1_555
C11 O3 1_555 1_555
C12 C10 1_555 1_555
C13 O1 1_555 1_555
C14 C15 1_555 1_555
C15 C9 1_555 1_555
C16 C13 1_555 1_555
C17 C11 1_555 1_555
C18 C16 1_555 1_555
C19 C12 1_555 1_555
C20 C17 1_555 1_555
H1 C20 1_555 1_555
H2 C14 1_555 1_555
H3 C19 1_555 1_555
H4 C17 1_555 1_555
H5 C18 1_555 1_555
H6 C16 1_555 1_555
H7 C12 1_555 1_555
H8 C15 1_555 1_555
C5 C7 1_555 1_555
C9 C10 1_555 1_555
C11 C13 1_555 1_555
C14 C19 1_555 1_555
C18 C20 1_555 1_555

#END
