
#######################################################################
#
#                 Cambridge Crystallographic Data Centre
#                                CCDC 
#
#######################################################################
#
# If this CIF has been generated from an entry in the Cambridge 
# Structural Database, then it will include bibliographic, chemical, 
# crystal, experimental, refinement or atomic coordinate data resulting 
# from the CCDC's data processing and validation procedures.
#
#######################################################################

data_NIGVAB
_chemical_name_common            
2,3-Dithia-(5',8'-dioxaoctyl)-6,7-ethylenedithiatetrathiafulvalene
_chemical_formula_moiety         'C14 H16 O2 S8'
_chemical_name_systematic        
2-(5,6-Dihydro(1,3)dithiolo(4,5-b)(1,4)dithiin-2-ylidene)-5,6,8,9,11,12-hexahydro(1,3)-dithiolo(4,5-h)(1,4,7,10)dioxadithiacyclododecine
_symmetry_cell_setting           triclinic
_symmetry_space_group_name_H-M   'P -1'
_symmetry_Int_Tables_number      2
_space_group_name_Hall           '-P 1'
loop_
_symmetry_equiv_pos_site_id
_symmetry_equiv_pos_as_xyz
1 x,y,z
2 -x,-y,-z
_cell_length_a                   7.8589(18)
_cell_length_b                   8.0602(18)
_cell_length_c                   16.120(4)
_cell_angle_alpha                76.107(4)
_cell_angle_beta                 86.032(4)
_cell_angle_gamma                79.926(4)
_cell_volume                     975.561
_exptl_crystal_colour            orange
_exptl_crystal_description       block
_chemical_melting_point          '138 deg.C'
_cell_formula_units_Z            2
_exptl_crystal_recrystallization_method 'dichloromethane/diethyl ether'
loop_
_atom_site_label
_atom_site_type_symbol
_atom_site_fract_x
_atom_site_fract_y
_atom_site_fract_z
C1 C 0.7601(9) -0.2881(13) 0.6439(4)
H1 H 0.7708 -0.1947 0.6706
H2 H 0.7699 -0.3918 0.6898
C2 C 0.9027(8) -0.3080(13) 0.5994(3)
H3 H 0.9427 -0.4317 0.6087
H4 H 0.9869 -0.2614 0.6246
C3 C 0.5666(5) -0.2455(5) 0.5092(2)
C4 C 0.7093(5) -0.2366(5) 0.4598(2)
C5 C 0.4688(4) -0.2251(4) 0.3582(2)
C6 C 0.3743(4) -0.1789(4) 0.2880(2)
C7 C 0.1281(4) -0.0245(4) 0.1866(2)
C8 C 0.2724(4) -0.0095(4) 0.1387(2)
C9 C 0.4370(5) 0.2417(4) 0.0393(2)
H5 H 0.5421 0.1688 0.0631
H6 H 0.4652 0.3042 -0.0179
C10 C 0.3738(5) 0.3694(5) 0.0931(2)
H7 H 0.3214 0.3120 0.1461
H8 H 0.4699 0.4178 0.1070
C11 C 0.1590(5) 0.6127(5) 0.0974(3)
H9 H 0.1515 0.7318 0.0650
H10 H 0.2219 0.6007 0.1487
C12 C -0.0177(5) 0.5748(4) 0.1218(3)
H11 H -0.0808 0.6634 0.1488
H12 H -0.0781 0.5779 0.0709
C13 C -0.1818(5) 0.3685(5) 0.1934(3)
H13 H -0.2438 0.4053 0.1404
H14 H -0.2441 0.4297 0.2342
C14 C -0.1741(5) 0.1777(5) 0.2273(3)
H15 H -0.2901 0.1537 0.2435
H16 H -0.1057 0.1407 0.2783
O1 O 0.2524(3) 0.5010(3) 0.04752(16)
O2 O -0.0141(3) 0.4101(3) 0.17884(16)
S1 S 0.54758(17) -0.2496(2) 0.61722(7)
S2 S 0.91396(16) -0.2213(2) 0.48788(8)
S3 S 0.38062(12) -0.27045(13) 0.46208(6)
S4 S 0.69466(12) -0.25136(13) 0.35397(6)
S5 S 0.15014(12) -0.16465(12) 0.28852(6)
S6 S 0.46667(11) -0.13061(12) 0.18413(5)
S7 S -0.08153(11) 0.05362(12) 0.15078(6)
S8 S 0.28008(12) 0.10570(11) 0.03273(5)
loop_
_geom_bond_atom_site_label_1
_geom_bond_atom_site_label_2
_geom_bond_site_symmetry_1
_geom_bond_site_symmetry_2
C1 H1 1_555 1_555
H2 C1 1_555 1_555
C2 C1 1_555 1_555
H3 C2 1_555 1_555
H4 C2 1_555 1_555
C3 C4 1_555 1_555
C4 S2 1_555 1_555
C5 C6 1_555 1_555
C6 S5 1_555 1_555
C7 C8 1_555 1_555
C8 S6 1_555 1_555
C9 H5 1_555 1_555
H6 C9 1_555 1_555
C10 C9 1_555 1_555
H7 C10 1_555 1_555
H8 C10 1_555 1_555
C11 H9 1_555 1_555
H10 C11 1_555 1_555
C12 C11 1_555 1_555
H11 C12 1_555 1_555
H12 C12 1_555 1_555
C13 H13 1_555 1_555
H14 C13 1_555 1_555
C14 C13 1_555 1_555
H15 C14 1_555 1_555
H16 C14 1_555 1_555
O1 C10 1_555 1_555
O2 C12 1_555 1_555
S1 C1 1_555 1_555
S2 C2 1_555 1_555
S3 C3 1_555 1_555
S4 C4 1_555 1_555
S5 C7 1_555 1_555
S6 C6 1_555 1_555
S7 C7 1_555 1_555
S8 C8 1_555 1_555
C3 S1 1_555 1_555
C5 S3 1_555 1_555
C5 S4 1_555 1_555
C9 S8 1_555 1_555
C11 O1 1_555 1_555
C13 O2 1_555 1_555
C14 S7 1_555 1_555

#END
