
#######################################################################
#
#                 Cambridge Crystallographic Data Centre
#                                CCDC 
#
#######################################################################
#
# If this CIF has been generated from an entry in the Cambridge 
# Structural Database, then it will include bibliographic, chemical, 
# crystal, experimental, refinement or atomic coordinate data resulting 
# from the CCDC's data processing and validation procedures.
#
#######################################################################

data_NIGWIK
_chemical_formula_moiety         'C32 H24 N4 O4,H2 O1'
_chemical_name_systematic        
'13-Benzyl-2,6-diphenyltetrahydro-1H-4,4,8-(epiminomethenoazenoethene[1,1,2]triyl)pyrrolo[3,4-f]isoindole-1,3,5,7(2H,3aH,6H)-tetrone monohydrate'
_symmetry_cell_setting           monoclinic
_symmetry_space_group_name_H-M   'P 21/c'
_symmetry_Int_Tables_number      14
_space_group_name_Hall           '-P 2ybc'
loop_
_symmetry_equiv_pos_site_id
_symmetry_equiv_pos_as_xyz
1 x,y,z
2 -x,1/2+y,1/2-z
3 -x,-y,-z
4 x,1/2-y,1/2+z
_cell_length_a                   20.938(6)
_cell_length_b                   9.3858(18)
_cell_length_c                   13.540(2)
_cell_angle_alpha                90
_cell_angle_beta                 93.114(17)
_cell_angle_gamma                90
_cell_volume                     2656.95
_exptl_crystal_colour            colorless
_exptl_crystal_description       blocks
_cell_formula_units_Z            4
loop_
_atom_site_label
_atom_site_type_symbol
_atom_site_fract_x
_atom_site_fract_y
_atom_site_fract_z
C1 C 0.20918(12) 0.6942(3) -0.00835(19)
H1 H 0.1776 0.7517 0.0183
C2 C 0.28250(11) 0.6239(2) -0.10168(17)
C3 C 0.32602(11) 0.6017(3) -0.16858(18)
H2 H 0.3351 0.6667 -0.2187
C4 C 0.35866(12) 0.4599(3) -0.15402(18)
H3 H 0.3916 0.4461 -0.2029
C5 C 0.30948(11) 0.3365(3) -0.15922(19)
H4 H 0.3307 0.2448 -0.1422
C6 C 0.25532(11) 0.3662(3) -0.08946(19)
H5 H 0.2499 0.2846 -0.0443
C7 C 0.27234(11) 0.5039(3) -0.02967(18)
C8 C 0.19633(12) 0.3866(3) -0.1565(2)
C9 C 0.27664(12) 0.3294(3) -0.2605(2)
C10 C 0.16833(12) 0.3823(3) -0.3393(2)
C11 C 0.10651(13) 0.3323(3) -0.3359(2)
H6 H 0.0931 0.2876 -0.2785
C12 C 0.06459(14) 0.3484(4) -0.4172(2)
H7 H 0.0222 0.3165 -0.4143
C13 C 0.08410(15) 0.4108(4) -0.5028(2)
H8 H 0.0555 0.4201 -0.5584
C14 C 0.14658(16) 0.4596(3) -0.5058(2)
H9 H 0.1604 0.5017 -0.5639
C15 C 0.18836(14) 0.4467(3) -0.4243(2)
H10 H 0.2304 0.4816 -0.4262
C16 C 0.18795(12) 0.4841(3) 0.1014(2)
H11 H 0.2183 0.4565 0.1557
H12 H 0.1697 0.3968 0.0717
C17 C 0.38919(11) 0.4567(3) -0.04679(18)
H13 H 0.4137 0.3676 -0.0351
C18 C 0.43171(11) 0.5842(3) -0.02900(18)
C19 C 0.35870(12) 0.5957(3) 0.09249(18)
C20 C 0.33735(11) 0.4719(3) 0.02924(18)
H14 H 0.3343 0.3842 0.0693
C21 C 0.43999(12) 0.7896(3) 0.08765(18)
C22 C 0.49503(14) 0.7824(3) 0.14792(19)
H15 H 0.5119 0.6935 0.1680
C23 C 0.52521(17) 0.9062(5) 0.1785(2)
H16 H 0.5630 0.9018 0.2193
C24 C 0.5007(2) 1.0347(4) 0.1502(3)
H17 H 0.5222 1.1187 0.1701
C25 C 0.4450(2) 1.0428(3) 0.0927(3)
H18 H 0.4278 1.1323 0.0750
C26 C 0.41358(15) 0.9185(3) 0.0600(2)
H19 H 0.3754 0.9231 0.0203
C27 C 0.13528(11) 0.5725(3) 0.14158(18)
C28 C 0.07299(13) 0.5589(3) 0.1048(2)
H20 H 0.0627 0.4900 0.0562
C29 C 0.02529(14) 0.6457(4) 0.1388(3)
H21 H -0.0172 0.6348 0.1138
C30 C 0.04012(14) 0.7471(4) 0.2089(2)
H22 H 0.0079 0.8070 0.2311
C31 C 0.10172(15) 0.7618(3) 0.2468(2)
H23 H 0.1117 0.8315 0.2951
C32 C 0.14910(13) 0.6741(3) 0.2142(2)
H24 H 0.1912 0.6832 0.2414
O1 O 0.30149(9) 0.2989(2) -0.33671(14)
O2 O 0.14318(8) 0.4169(2) -0.13181(14)
O3 O 0.47717(8) 0.61804(19) -0.07563(13)
O4 O 0.33575(10) 0.6353(2) 0.16730(14)
N1 N 0.22186(9) 0.5629(2) 0.02666(15)
N2 N 0.24261(10) 0.7386(2) -0.08105(15)
N3 N 0.21215(9) 0.3660(2) -0.25501(15)
N4 N 0.41067(9) 0.6599(2) 0.05148(14)
O5 O 0.28657(12) 1.0078(2) -0.15515(18)
H25 H 0.2656(18) 0.928(4) -0.133(3)
H26 H 0.311(2) 0.964(5) -0.213(4)
loop_
_geom_bond_atom_site_label_1
_geom_bond_atom_site_label_2
_geom_bond_site_symmetry_1
_geom_bond_site_symmetry_2
C1 H1 1_555 1_555
C2 C3 1_555 1_555
C3 H2 1_555 1_555
C4 C3 1_555 1_555
H3 C4 1_555 1_555
C5 C4 1_555 1_555
H4 C5 1_555 1_555
C6 C5 1_555 1_555
H5 C6 1_555 1_555
C7 C2 1_555 1_555
C8 C6 1_555 1_555
C9 C5 1_555 1_555
C10 C11 1_555 1_555
C11 H6 1_555 1_555
C12 C11 1_555 1_555
H7 C12 1_555 1_555
C13 C12 1_555 1_555
H8 C13 1_555 1_555
C14 C13 1_555 1_555
H9 C14 1_555 1_555
C15 C10 1_555 1_555
H10 C15 1_555 1_555
C16 H11 1_555 1_555
H12 C16 1_555 1_555
C17 C4 1_555 1_555
H13 C17 1_555 1_555
C18 C17 1_555 1_555
C19 C20 1_555 1_555
C20 C7 1_555 1_555
H14 C20 1_555 1_555
C21 C22 1_555 1_555
C22 H15 1_555 1_555
C23 C22 1_555 1_555
H16 C23 1_555 1_555
C24 C23 1_555 1_555
H17 C24 1_555 1_555
C25 C24 1_555 1_555
H18 C25 1_555 1_555
C26 C21 1_555 1_555
H19 C26 1_555 1_555
C27 C16 1_555 1_555
C28 C27 1_555 1_555
H20 C28 1_555 1_555
C29 C28 1_555 1_555
H21 C29 1_555 1_555
C30 C29 1_555 1_555
H22 C30 1_555 1_555
C31 C30 1_555 1_555
H23 C31 1_555 1_555
C32 C27 1_555 1_555
H24 C32 1_555 1_555
O1 C9 1_555 1_555
O2 C8 1_555 1_555
O3 C18 1_555 1_555
O4 C19 1_555 1_555
N1 C1 1_555 1_555
N2 C1 1_555 1_555
N3 C8 1_555 1_555
N4 C18 1_555 1_555
O5 H25 1_555 1_555
H26 O5 1_555 1_555
C2 N2 1_555 1_555
C6 C7 1_555 1_555
C7 N1 1_555 1_555
C9 N3 1_555 1_555
C10 N3 1_555 1_555
C14 C15 1_555 1_555
C16 N1 1_555 1_555
C17 C20 1_555 1_555
C19 N4 1_555 1_555
C21 N4 1_555 1_555
C25 C26 1_555 1_555
C31 C32 1_555 1_555

#END
