
#######################################################################
#
#                 Cambridge Crystallographic Data Centre
#                                CCDC 
#
#######################################################################
#
# If this CIF has been generated from an entry in the Cambridge 
# Structural Database, then it will include bibliographic, chemical, 
# crystal, experimental, refinement or atomic coordinate data resulting 
# from the CCDC's data processing and validation procedures.
#
#######################################################################

data_NIGWEG
_chemical_formula_moiety         'C33 H28 N4 O4'
_chemical_name_systematic        
1-Benzyl-2-methyl-1,4,5,5a,6,7,8,8a-octahydro-6,8-dioxo-4-(2,5-dioxo-1-phenyl-3-pyrrolyl)-7-phenylpyrrolo(3,4-g)benzimidazole
_symmetry_cell_setting           monoclinic
_symmetry_space_group_name_H-M   'P 21/n'
_symmetry_Int_Tables_number      14
_space_group_name_Hall           '-P 2yn'
loop_
_symmetry_equiv_pos_site_id
_symmetry_equiv_pos_as_xyz
1 x,y,z
2 1/2-x,1/2+y,1/2-z
3 -x,-y,-z
4 1/2+x,1/2-y,1/2+z
_cell_length_a                   9.2165(18)
_cell_length_b                   15.144(3)
_cell_length_c                   20.742(4)
_cell_angle_alpha                90
_cell_angle_beta                 101.92(2)
_cell_angle_gamma                90
_cell_volume                     2832.63
_exptl_crystal_colour            colorless
_exptl_crystal_description       diamond
_cell_formula_units_Z            4
loop_
_atom_site_label
_atom_site_type_symbol
_atom_site_fract_x
_atom_site_fract_y
_atom_site_fract_z
O1 O 0.0782(2) 0.84822(14) 0.13772(12)
O2 O 0.5684(2) 0.84547(13) 0.23335(10)
O3 O 0.1773(2) 0.55048(11) -0.00220(8)
O4 O 0.2002(3) 0.31381(13) 0.13294(10)
N1 N 0.5717(2) 0.61898(15) 0.22306(10)
N2 N 0.4313(3) 0.53722(15) 0.14529(11)
N3 N 0.3268(3) 0.86742(14) 0.17964(11)
N4 N 0.1911(2) 0.41819(12) 0.05302(9)
C1 C 0.5650(3) 0.5470(2) 0.18254(15)
C2 C 0.3491(3) 0.60594(16) 0.16253(11)
C3 C 0.1888(3) 0.62333(16) 0.13369(11)
H1 H 0.1840 0.6669 0.0984
C4 C 0.1215(3) 0.66564(17) 0.18800(12)
H2 H 0.0206 0.6838 0.1695
H3 H 0.1180 0.6221 0.2219
C5 C 0.2105(3) 0.74574(17) 0.21910(13)
H4 H 0.1721 0.7622 0.2581
C6 C 0.3802(3) 0.73567(17) 0.24128(12)
H5 H 0.4070 0.7304 0.2894
C7 C 0.4319(3) 0.65619(16) 0.21016(12)
C8 C 0.4420(3) 0.82100(18) 0.21974(13)
C9 C 0.1909(3) 0.82442(18) 0.17388(14)
C10 C 0.3446(3) 0.95165(17) 0.14967(14)
C11 C 0.4543(4) 0.9640(2) 0.11457(17)
H6 H 0.5188 0.9183 0.1102
C12 C 0.4677(4) 1.0453(2) 0.08591(17)
H7 H 0.5423 1.0543 0.0625
C13 C 0.3724(4) 1.1123(2) 0.09161(18)
H8 H 0.3817 1.1668 0.0721
C14 C 0.2630(4) 1.0991(2) 0.12623(17)
H9 H 0.1974 1.1445 0.1299
C15 C 0.2498(3) 1.01867(19) 0.15566(15)
H10 H 0.1760 1.0102 0.1796
C16 C 0.6942(4) 0.4899(3) 0.17803(19)
H11 H 0.6630 0.4441 0.1461
H12 H 0.7329 0.4637 0.2203
H13 H 0.7698 0.5249 0.1648
C17 C 0.6989(3) 0.6482(2) 0.27342(14)
H14 H 0.7167 0.7103 0.2667
H15 H 0.7863 0.6158 0.2679
C18 C 0.6769(3) 0.6351(2) 0.34259(14)
C19 C 0.6932(4) 0.7048(3) 0.38612(18)
H16 H 0.7152 0.7608 0.3725
C20 C 0.6765(5) 0.6911(4) 0.4507(2)
H17 H 0.6875 0.7381 0.4802
C21 C 0.6439(5) 0.6088(5) 0.4707(2)
H18 H 0.6333 0.5999 0.5138
C22 C 0.6269(5) 0.5400(4) 0.4279(2)
H19 H 0.6044 0.4840 0.4415
C23 C 0.6433(4) 0.5539(3) 0.36439(17)
H20 H 0.6311 0.5065 0.3352
C24 C 0.1043(3) 0.54109(15) 0.10391(12)
H21 H -0.0003 0.5571 0.0888
C25 C 0.1622(3) 0.50775(16) 0.04538(12)
C26 C 0.1713(3) 0.38788(19) 0.11351(13)
C27 C 0.1123(3) 0.46094(17) 0.14869(13)
H22 H 0.1778 0.4723 0.1909
H23 H 0.0147 0.4462 0.1562
C28 C 0.2617(3) 0.36679(16) 0.01023(12)
C29 C 0.1866(3) 0.29976(18) -0.02660(14)
H24 H 0.0891 0.2869 -0.0243
C30 C 0.2590(5) 0.2513(2) -0.06747(16)
H25 H 0.2099 0.2059 -0.0933
C31 C 0.4029(5) 0.2711(2) -0.06940(17)
H26 H 0.4507 0.2391 -0.0972
C32 C 0.4778(4) 0.3370(2) -0.03118(18)
H27 H 0.5765 0.3486 -0.0320
C33 C 0.4058(4) 0.38566(19) 0.00823(14)
H28 H 0.4548 0.4315 0.0336
loop_
_geom_bond_atom_site_label_1
_geom_bond_atom_site_label_2
_geom_bond_site_symmetry_1
_geom_bond_site_symmetry_2
O1 C9 1_555 1_555
O2 C8 1_555 1_555
O3 C25 1_555 1_555
O4 C26 1_555 1_555
N1 C1 1_555 1_555
N2 C1 1_555 1_555
N3 C8 1_555 1_555
N4 C25 1_555 1_555
C1 C16 1_555 1_555
C2 N2 1_555 1_555
C3 C2 1_555 1_555
H1 C3 1_555 1_555
C4 C3 1_555 1_555
H2 C4 1_555 1_555
H3 C4 1_555 1_555
C5 C4 1_555 1_555
H4 C5 1_555 1_555
C6 C5 1_555 1_555
H5 C6 1_555 1_555
C7 N1 1_555 1_555
C8 C6 1_555 1_555
C9 N3 1_555 1_555
C10 N3 1_555 1_555
C11 C10 1_555 1_555
H6 C11 1_555 1_555
C12 C11 1_555 1_555
H7 C12 1_555 1_555
C13 C12 1_555 1_555
H8 C13 1_555 1_555
C14 C13 1_555 1_555
H9 C14 1_555 1_555
C15 C10 1_555 1_555
H10 C15 1_555 1_555
C16 H11 1_555 1_555
H12 C16 1_555 1_555
H13 C16 1_555 1_555
C17 N1 1_555 1_555
H14 C17 1_555 1_555
H15 C17 1_555 1_555
C18 C17 1_555 1_555
C19 C18 1_555 1_555
H16 C19 1_555 1_555
C20 C19 1_555 1_555
H17 C20 1_555 1_555
C21 C20 1_555 1_555
H18 C21 1_555 1_555
C22 C21 1_555 1_555
H19 C22 1_555 1_555
C23 C18 1_555 1_555
H20 C23 1_555 1_555
C24 C3 1_555 1_555
H21 C24 1_555 1_555
C25 C24 1_555 1_555
C26 N4 1_555 1_555
C27 C24 1_555 1_555
H22 C27 1_555 1_555
H23 C27 1_555 1_555
C28 N4 1_555 1_555
C29 C28 1_555 1_555
H24 C29 1_555 1_555
C30 C29 1_555 1_555
H25 C30 1_555 1_555
C31 C30 1_555 1_555
H26 C31 1_555 1_555
C32 C31 1_555 1_555
H27 C32 1_555 1_555
C33 C28 1_555 1_555
H28 C33 1_555 1_555
C2 C7 1_555 1_555
C5 C9 1_555 1_555
C6 C7 1_555 1_555
C14 C15 1_555 1_555
C22 C23 1_555 1_555
C26 C27 1_555 1_555
C32 C33 1_555 1_555

#END
