
#######################################################################
#
#                 Cambridge Crystallographic Data Centre
#                                CCDC 
#
#######################################################################
#
# If this CIF has been generated from an entry in the Cambridge 
# Structural Database, then it will include bibliographic, chemical, 
# crystal, experimental, refinement or atomic coordinate data resulting 
# from the CCDC's data processing and validation procedures.
#
#######################################################################

data_NIGXEJ
_chemical_formula_moiety         'C46 H56 F3 I1 N4 O8'
_chemical_name_systematic        
N^1^-{2,4-bis(2-methylpropoxy)-5-[(2,3,4-trifluoro-5-iodobenzene-1-carbonyl)amino]phenyl}-4,6-bis(2-methylpropoxy)-N^3^-[4-(2-methylpropoxy)pyridin-3-yl]benzene-1,3-dicarboxamide
_symmetry_cell_setting           monoclinic
_symmetry_space_group_name_H-M   'P 21/c'
_symmetry_Int_Tables_number      14
_space_group_name_Hall           '-P 2ybc'
loop_
_symmetry_equiv_pos_site_id
_symmetry_equiv_pos_as_xyz
1 x,y,z
2 -x,1/2+y,1/2-z
3 -x,-y,-z
4 x,1/2-y,1/2+z
_cell_length_a                   8.68030(10)
_cell_length_b                   24.3536(2)
_cell_length_c                   22.4030(2)
_cell_angle_alpha                90
_cell_angle_beta                 92.0360(10)
_cell_angle_gamma                90
_cell_volume                     4732.93
_exptl_crystal_colour            'light colorless'
_exptl_crystal_description       block
_cell_formula_units_Z            4
loop_
_atom_site_label
_atom_site_type_symbol
_atom_site_fract_x
_atom_site_fract_y
_atom_site_fract_z
I1 I 0.53879(4) 0.74988(2) 0.03152(2)
F1 F 0.7236(4) 0.70697(11) -0.08615(14)
F2 F 0.8245(4) 0.60669(13) -0.11451(13)
F3 F 0.7862(4) 0.52147(11) -0.04268(12)
O1 O 0.7823(4) 0.38809(12) 0.03044(13)
O2 O 0.5546(10) 0.54707(18) 0.1168(3)
O3 O 0.5496(4) 0.29563(11) 0.19820(12)
O4 O 0.2556(4) 0.33911(12) 0.30788(13)
O5 O 0.4741(5) 0.48158(13) 0.26169(15)
O6 O 0.3703(7) 0.56127(14) 0.44011(17)
O7 O 0.1542(4) 0.42050(12) 0.49851(12)
O8 O 0.1508(4) 0.51353(12) 0.62728(13)
N1 N 0.6680(4) 0.48206(13) 0.06356(14)
H1 H 0.718929 0.476381 0.031909
N2 N 0.4520(4) 0.39190(12) 0.23821(13)
H2 H 0.411959 0.361374 0.249137
N3 N 0.2820(4) 0.52046(12) 0.52164(13)
H3 H 0.248875 0.490111 0.536050
N4 N 0.3757(5) 0.65734(14) 0.58471(18)
C1 C 0.7307(5) 0.56988(16) -0.02608(18)
C2 C 0.6228(7) 0.53322(19) 0.0732(2)
C3 C 0.7513(6) 0.61412(19) -0.06340(18)
C4 C 0.6982(5) 0.66491(17) -0.04830(19)
C5 C 0.6253(5) 0.67315(16) 0.00421(18)
C6 C 0.6045(5) 0.62881(16) 0.04090(18)
H4 H 0.554323 0.633974 0.076459
C7 C 0.6556(5) 0.57659(16) 0.02684(18)
C8 C 0.6409(5) 0.43557(14) 0.10025(15)
C9 C 0.5589(5) 0.43803(15) 0.15180(16)
H5 H 0.519827 0.471487 0.164338
C10 C 0.5343(4) 0.39098(15) 0.18515(15)
C11 C 0.5881(5) 0.34081(14) 0.16494(16)
C12 C 0.6725(5) 0.33843(15) 0.11342(17)
H6 H 0.710232 0.304910 0.100440
C13 C 0.7005(5) 0.38556(16) 0.08149(16)
C14 C 0.3513(4) 0.42671(14) 0.33189(15)
C15 C 0.3615(4) 0.46995(14) 0.37191(16)
H7 H 0.414686 0.501301 0.360888
C16 C 0.2962(4) 0.46899(14) 0.42796(15)
C17 C 0.2158(4) 0.42153(15) 0.44345(15)
C18 C 0.2007(5) 0.37807(16) 0.40364(16)
H8 H 0.144232 0.347230 0.413839
C19 C 0.2691(4) 0.38030(15) 0.34892(16)
C20 C 0.2927(4) 0.56559(14) 0.56067(16)
C21 C 0.3701(5) 0.61357(16) 0.54819(19)
H9 H 0.421202 0.615699 0.512478
C22 C 0.3028(6) 0.65223(19) 0.6361(2)
H10 H 0.304623 0.682104 0.661927
C23 C 0.2272(6) 0.60699(18) 0.6529(2)
H11 H 0.179038 0.606246 0.689298
C24 C 0.2210(5) 0.56131(16) 0.61572(17)
C25 C 0.8469(5) 0.33873(18) 0.00870(19)
H12 H 0.766081 0.311814 0.001273
H13 H 0.919739 0.323792 0.038244
C26 C 0.9271(6) 0.3505(3) -0.0480(2)
H14 H 1.012717 0.375919 -0.039509
C27 C 0.8212(10) 0.3751(3) -0.0955(3)
H15 H 0.755034 0.346945 -0.112135
H16 H 0.881210 0.390590 -0.126480
H17 H 0.759677 0.403265 -0.078231
C28 C 0.9925(9) 0.2950(3) -0.0701(3)
H18 H 1.040197 0.275657 -0.036989
H19 H 1.067618 0.301817 -0.099661
H20 H 0.910147 0.273205 -0.087294
C29 C 0.5975(6) 0.24264(15) 0.1785(2)
H21 H 0.708880 0.239892 0.182233
H22 H 0.567035 0.237781 0.136759
C30 C 0.5251(6) 0.19816(18) 0.2154(2)
H23 H 0.413816 0.198227 0.206380
C31 C 0.5503(8) 0.2069(2) 0.2814(2)
H24 H 0.658721 0.210130 0.290780
H25 H 0.509448 0.176177 0.302631
H26 H 0.498859 0.239857 0.293118
C32 C 0.5896(9) 0.1428(2) 0.1960(4)
H27 H 0.565195 0.137114 0.154357
H28 H 0.544729 0.113984 0.218895
H29 H 0.699513 0.142582 0.202642
C33 C 0.1575(5) 0.29294(17) 0.31687(18)
H30 H 0.062747 0.304411 0.334911
H31 H 0.208603 0.266197 0.342812
C34 C 0.1235(6) 0.2686(2) 0.2555(2)
H32 H 0.221414 0.263978 0.235614
C35 C 0.0218(8) 0.3069(3) 0.2179(2)
H33 H -0.078951 0.308511 0.234181
H34 H 0.013669 0.293476 0.177635
H35 H 0.066343 0.343002 0.218136
C36 C 0.0499(8) 0.2121(2) 0.2621(3)
H36 H 0.119181 0.188471 0.284385
H37 H 0.028762 0.196653 0.223210
H38 H -0.044635 0.215646 0.282719
C37 C 0.0403(7) 0.3818(3) 0.5136(2)
H39 H -0.011092 0.369262 0.476956
H40 H -0.036135 0.400554 0.536736
C38 C 0.0920(10) 0.3351(3) 0.5463(4)
H41 H 0.142136 0.308207 0.520902
C39 C 0.1970(10) 0.3519(3) 0.6021(4)
H42 H 0.282133 0.373486 0.589207
H43 H 0.235140 0.319398 0.621852
H44 H 0.137629 0.372997 0.629235
C40 C -0.0645(11) 0.3111(4) 0.5742(4)
H45 H -0.099945 0.336005 0.603940
H46 H -0.043529 0.275970 0.592054
H47 H -0.142452 0.307203 0.542977
C41 C 0.0451(6) 0.5117(2) 0.6758(2)
H48 H -0.031903 0.483669 0.666952
H49 H -0.007786 0.546650 0.677745
C42 C 0.1194(9) 0.4999(2) 0.7350(2)
H50 H 0.199984 0.527589 0.741712
C43 C 0.0084(12) 0.5066(5) 0.7839(3)
H51 H -0.023408 0.544268 0.785911
H52 H 0.057213 0.496033 0.821267
H53 H -0.080159 0.483743 0.775917
C44 C 0.1987(12) 0.4446(3) 0.7368(4)
H54 H 0.123030 0.416089 0.740299
H55 H 0.270085 0.443112 0.770454
H56 H 0.253222 0.439353 0.700671
C45 C 0.4295(5) 0.43600(14) 0.27382(16)
C46 C 0.3190(5) 0.52035(15) 0.46355(17)
loop_
_geom_bond_atom_site_label_1
_geom_bond_atom_site_label_2
_geom_bond_site_symmetry_1
_geom_bond_site_symmetry_2
I1 C5 1_555 1_555
F1 C4 1_555 1_555
F2 C3 1_555 1_555
F3 C1 1_555 1_555
O1 C13 1_555 1_555
O2 C2 1_555 1_555
O3 C11 1_555 1_555
O4 C19 1_555 1_555
O5 C45 1_555 1_555
O6 C46 1_555 1_555
O7 C17 1_555 1_555
O8 C24 1_555 1_555
N1 H1 1_555 1_555
N2 H2 1_555 1_555
N3 H3 1_555 1_555
N4 C21 1_555 1_555
C1 C3 1_555 1_555
C2 N1 1_555 1_555
C3 C4 1_555 1_555
C4 C5 1_555 1_555
C5 C6 1_555 1_555
C6 H4 1_555 1_555
C7 C1 1_555 1_555
C8 N1 1_555 1_555
C9 C8 1_555 1_555
H5 C9 1_555 1_555
C10 N2 1_555 1_555
C11 C10 1_555 1_555
C12 C11 1_555 1_555
H6 C12 1_555 1_555
C13 C8 1_555 1_555
C14 C15 1_555 1_555
C15 H7 1_555 1_555
C16 C15 1_555 1_555
C17 C16 1_555 1_555
C18 C17 1_555 1_555
H8 C18 1_555 1_555
C19 C14 1_555 1_555
C20 N3 1_555 1_555
C21 C20 1_555 1_555
H9 C21 1_555 1_555
C22 N4 1_555 1_555
H10 C22 1_555 1_555
C23 C22 1_555 1_555
H11 C23 1_555 1_555
C24 C20 1_555 1_555
C25 O1 1_555 1_555
H12 C25 1_555 1_555
H13 C25 1_555 1_555
C26 C25 1_555 1_555
H14 C26 1_555 1_555
C27 C26 1_555 1_555
H15 C27 1_555 1_555
H16 C27 1_555 1_555
H17 C27 1_555 1_555
C28 C26 1_555 1_555
H18 C28 1_555 1_555
H19 C28 1_555 1_555
H20 C28 1_555 1_555
C29 O3 1_555 1_555
H21 C29 1_555 1_555
H22 C29 1_555 1_555
C30 C29 1_555 1_555
H23 C30 1_555 1_555
C31 C30 1_555 1_555
H24 C31 1_555 1_555
H25 C31 1_555 1_555
H26 C31 1_555 1_555
C32 C30 1_555 1_555
H27 C32 1_555 1_555
H28 C32 1_555 1_555
H29 C32 1_555 1_555
C33 O4 1_555 1_555
H30 C33 1_555 1_555
H31 C33 1_555 1_555
C34 C33 1_555 1_555
H32 C34 1_555 1_555
C35 C34 1_555 1_555
H33 C35 1_555 1_555
H34 C35 1_555 1_555
H35 C35 1_555 1_555
C36 C34 1_555 1_555
H36 C36 1_555 1_555
H37 C36 1_555 1_555
H38 C36 1_555 1_555
C37 O7 1_555 1_555
H39 C37 1_555 1_555
H40 C37 1_555 1_555
C38 C37 1_555 1_555
H41 C38 1_555 1_555
C39 C38 1_555 1_555
H42 C39 1_555 1_555
H43 C39 1_555 1_555
H44 C39 1_555 1_555
C40 C38 1_555 1_555
H45 C40 1_555 1_555
H46 C40 1_555 1_555
H47 C40 1_555 1_555
C41 O8 1_555 1_555
H48 C41 1_555 1_555
H49 C41 1_555 1_555
C42 C41 1_555 1_555
H50 C42 1_555 1_555
C43 C42 1_555 1_555
H51 C43 1_555 1_555
H52 C43 1_555 1_555
H53 C43 1_555 1_555
C44 C42 1_555 1_555
H54 C44 1_555 1_555
H55 C44 1_555 1_555
H56 C44 1_555 1_555
C45 N2 1_555 1_555
C46 N3 1_555 1_555
C2 C7 1_555 1_555
C6 C7 1_555 1_555
C9 C10 1_555 1_555
C12 C13 1_555 1_555
C14 C45 1_555 1_555
C16 C46 1_555 1_555
C18 C19 1_555 1_555
C23 C24 1_555 1_555

#END
