
#######################################################################
#
#                 Cambridge Crystallographic Data Centre
#                                CCDC 
#
#######################################################################
#
# If this CIF has been generated from an entry in the Cambridge 
# Structural Database, then it will include bibliographic, chemical, 
# crystal, experimental, refinement or atomic coordinate data resulting 
# from the CCDC's data processing and validation procedures.
#
#######################################################################

data_NIGZUY
_chemical_formula_moiety         'C7 H3 F2 N2 S2'
_chemical_name_systematic        
'4-(2,3-Difluorophenyl)-1,2,3,5-dithiadiazolyl radical'
_symmetry_cell_setting           triclinic
_symmetry_space_group_name_H-M   'P -1'
_symmetry_Int_Tables_number      2
_space_group_name_Hall           '-P 1'
loop_
_symmetry_equiv_pos_site_id
_symmetry_equiv_pos_as_xyz
1 x,y,z
2 -x,-y,-z
_cell_length_a                   6.637(6)
_cell_length_b                   8.768(11)
_cell_length_c                   13.546(5)
_cell_angle_alpha                88.79(6)
_cell_angle_beta                 86.37(5)
_cell_angle_gamma                80.40(9)
_cell_volume                     775.642
_cell_formula_units_Z            4
_exptl_crystal_recrystallization_method 'vacuum sublimation'
loop_
_atom_site_label
_atom_site_type_symbol
_atom_site_fract_x
_atom_site_fract_y
_atom_site_fract_z
S1 S 0.5904(3) 0.4454(2) 0.1286(1)
S2 S 0.5584(3) 0.6114(2) 0.2411(2)
N1 N 0.6051(10) 0.4869(7) 0.3299(5)
N2 N 0.6428(11) 0.2998(7) 0.2055(4)
C1 C 0.6817(12) 0.2170(8) 0.3772(5)
C2 C 0.7389(12) 0.0601(8) 0.3576(5)
C3 C 0.7720(12) -0.0449(8) 0.4348(5)
C4 C 0.7511(13) -0.0020(9) 0.5320(5)
C5 C 0.6958(14) 0.1539(9) 0.5520(6)
C6 C 0.6614(13) 0.2606(9) 0.4775(6)
C7 C 0.6420(12) 0.3373(8) 0.2993(5)
F1 F 0.7648(9) 0.0048(5) 0.2655(3)
F2 F 0.8246(8) -0.1969(5) 0.4110(3)
H1 H 0.7695(13) -0.0755(9) 0.5825(5)
H2 H 0.6829(14) 0.1869(9) 0.6173(6)
H3 H 0.6227(13) 0.3646(9) 0.4932(6)
S3 S 0.1446(3) 0.4409(2) 0.3688(1)
S4 S 0.1034(3) 0.6070(2) 0.2551(1)
N3 N 0.1219(10) 0.4827(8) 0.1675(5)
N4 N 0.1721(11) 0.2953(8) 0.2930(4)
C8 C 0.1835(12) 0.2146(8) 0.1203(5)
C9 C 0.2409(12) 0.0560(8) 0.1388(5)
C10 C 0.2698(11) -0.0468(8) 0.0605(5)
C11 C 0.2481(12) -0.0022(9) -0.0361(5)
C12 C 0.1892(12) 0.1552(8) -0.0542(5)
C13 C 0.1622(12) 0.2612(9) 0.0209(5)
C14 C 0.1584(12) 0.3333(9) 0.1984(5)
F3 F 0.2658(8) -0.0001(5) 0.2306(3)
F4 F 0.3206(8) -0.2000(5) 0.0839(3)
H4 H 0.2706(12) -0.0736(9) -0.0870(5)
H5 H 0.1702(12) 0.1909(8) -0.1186(5)
H6 H 0.1262(12) 0.3658(9) 0.0058(5)
loop_
_geom_bond_atom_site_label_1
_geom_bond_atom_site_label_2
_geom_bond_site_symmetry_1
_geom_bond_site_symmetry_2
S1 S2 1_555 1_555
S2 N1 1_555 1_555
N1 C7 1_555 1_555
N2 S1 1_555 1_555
C1 C2 1_555 1_555
C2 C3 1_555 1_555
C3 C4 1_555 1_555
C4 C5 1_555 1_555
C5 C6 1_555 1_555
C6 C1 1_555 1_555
C7 N2 1_555 1_555
F1 C2 1_555 1_555
F2 C3 1_555 1_555
S3 S4 1_555 1_555
S4 N3 1_555 1_555
N3 C14 1_555 1_555
N4 S3 1_555 1_555
C8 C9 1_555 1_555
C9 C10 1_555 1_555
C10 C11 1_555 1_555
C11 C12 1_555 1_555
C12 C13 1_555 1_555
C13 C8 1_555 1_555
C14 N4 1_555 1_555
F3 C9 1_555 1_555
F4 C10 1_555 1_555
H1 C4 1_555 1_555
H2 C5 1_555 1_555
H3 C6 1_555 1_555
H4 C11 1_555 1_555
H5 C12 1_555 1_555
H6 C13 1_555 1_555
C1 C7 1_555 1_555
C8 C14 1_555 1_555

#END
