
#######################################################################
#
#                 Cambridge Crystallographic Data Centre
#                                CCDC 
#
#######################################################################
#
# If this CIF has been generated from an entry in the Cambridge 
# Structural Database, then it will include bibliographic, chemical, 
# crystal, experimental, refinement or atomic coordinate data resulting 
# from the CCDC's data processing and validation procedures.
#
#######################################################################

data_NIHCAJ
_chemical_compound_source        'Salvia prionitis Hance (Labiatae)'
_chemical_name_common            'prionoid A'
_chemical_formula_moiety         'C20 H26 O4'
_chemical_name_systematic        
6a-hydroxy-6-(1-hydroxy-1-methylethyl)-3-methyl-7a-(1-methylethyl)-4,5,6,6a,7a,8a-hexahydro-7H-phenaleno[1,2-b]oxiren-7-one
_symmetry_cell_setting           triclinic
_symmetry_space_group_name_H-M   'P -1'
_symmetry_Int_Tables_number      2
_space_group_name_Hall           '-P 1'
loop_
_symmetry_equiv_pos_site_id
_symmetry_equiv_pos_as_xyz
1 x,y,z
2 -x,-y,-z
_cell_length_a                   8.0842(12)
_cell_length_b                   9.2747(14)
_cell_length_c                   12.5438(18)
_cell_angle_alpha                102.394(3)
_cell_angle_beta                 101.696(3)
_cell_angle_gamma                101.267(3)
_cell_volume                     871.012
_exptl_crystal_colour            colorless
_chemical_melting_point          '50-52 deg.C'
_cell_formula_units_Z            2
_exptl_crystal_recrystallization_method methanol
loop_
_atom_site_label
_atom_site_type_symbol
_atom_site_fract_x
_atom_site_fract_y
_atom_site_fract_z
O1 O 0.11224(16) -0.21815(12) 0.68868(11)
O2 O 0.14214(14) 0.05706(12) 0.62298(9)
O3 O -0.06966(14) 0.21165(12) 0.81962(9)
O4 O 0.01600(13) 0.27525(11) 0.56110(8)
C1 C 0.5024(2) 0.18370(19) 0.89192(15)
C2 C 0.3762(2) 0.03162(19) 0.82898(16)
C3 C 0.18695(19) 0.04217(17) 0.81226(13)
C4 C 0.0587(2) -0.11953(17) 0.77237(13)
C5 C 0.58826(18) 0.45430(17) 0.88013(12)
C6 C 0.5527(2) 0.57132(19) 0.83472(14)
C7 C 0.3968(2) 0.55436(18) 0.75837(13)
C8 C 0.27098(18) 0.41758(16) 0.72568(12)
C9 C 0.30440(18) 0.29493(15) 0.76845(11)
C10 C 0.46387(18) 0.31264(16) 0.84456(12)
C11 C 0.15748(18) 0.14699(15) 0.73454(11)
C12 C -0.00375(18) 0.21020(15) 0.74143(12)
C13 C -0.05724(18) 0.29817(16) 0.65797(12)
C14 C 0.09779(19) 0.41025(17) 0.65454(12)
C15 C -0.2402(2) 0.31973(19) 0.63738(15)
C16 C -0.3703(3) 0.1662(3) 0.5862(2)
C17 C -0.2702(3) 0.4273(3) 0.5644(2)
C18 C 0.0716(3) -0.1928(3) 0.8708(2)
C19 C -0.1313(2) -0.1229(2) 0.7255(2)
C20 C 0.7568(2) 0.4787(2) 0.96624(16)
H1 H 0.5033(19) 0.2063(17) 0.9743(14)
H2 H 0.623(2) 0.1780(18) 0.8913(13)
H3 H 0.3984(19) -0.0012(17) 0.7568(13)
H4 H 0.394(2) -0.0439(19) 0.8718(13)
H5 H 0.1699(17) 0.0938(16) 0.8846(12)
H6 H 0.636(2) 0.6693(18) 0.8593(13)
H7 H 0.3704(18) 0.6337(18) 0.7282(12)
H8 H 0.0840(17) 0.5011(17) 0.6360(11)
H9 H -0.2537(19) 0.3622(18) 0.7068(14)
H10 H -0.358(3) 0.123(3) 0.511(2)
H11 H -0.356(3) 0.099(3) 0.6352(18)
H12 H -0.490(3) 0.179(2) 0.5700(15)
H13 H -0.264(3) 0.379(3) 0.484(2)
H14 H -0.385(3) 0.442(2) 0.5554(15)
H15 H -0.193(3) 0.531(3) 0.5983(19)
H16 H 0.195(3) -0.194(3) 0.9058(18)
H17 H -0.004(2) -0.296(2) 0.8459(15)
H18 H 0.036(3) -0.137(2) 0.9301(19)
H19 H -0.198(2) -0.229(2) 0.7005(14)
H20 H -0.178(2) -0.062(2) 0.7840(16)
H21 H -0.150(2) -0.083(2) 0.6579(15)
H22 H 0.739(2) 0.4599(19) 1.0370(16)
H23 H 0.831(2) 0.416(2) 0.9403(16)
H24 H 0.826(2) 0.585(2) 0.9873(16)
H25 H 0.098(3) -0.192(3) 0.6279(18)
H26 H 0.113(2) 0.110(2) 0.5768(16)
loop_
_geom_bond_atom_site_label_1
_geom_bond_atom_site_label_2
_geom_bond_site_symmetry_1
_geom_bond_site_symmetry_2
O1 C4 1_555 1_555
O2 C11 1_555 1_555
O3 C12 1_555 1_555
O4 C13 1_555 1_555
C1 C2 1_555 1_555
C2 C3 1_555 1_555
C3 C4 1_555 1_555
C4 C18 1_555 1_555
C5 C6 1_555 1_555
C6 C7 1_555 1_555
C7 C8 1_555 1_555
C8 C9 1_555 1_555
C9 C10 1_555 1_555
C10 C1 1_555 1_555
C11 C3 1_555 1_555
C12 C11 1_555 1_555
C13 C12 1_555 1_555
C14 O4 1_555 1_555
C15 C13 1_555 1_555
C16 C15 1_555 1_555
C17 C15 1_555 1_555
C18 H16 1_555 1_555
C19 C4 1_555 1_555
C20 C5 1_555 1_555
H1 C1 1_555 1_555
H2 C1 1_555 1_555
H3 C2 1_555 1_555
H4 C2 1_555 1_555
H5 C3 1_555 1_555
H6 C6 1_555 1_555
H7 C7 1_555 1_555
H8 C14 1_555 1_555
H9 C15 1_555 1_555
H10 C16 1_555 1_555
H11 C16 1_555 1_555
H12 C16 1_555 1_555
H13 C17 1_555 1_555
H14 C17 1_555 1_555
H15 C17 1_555 1_555
H17 C18 1_555 1_555
H18 C18 1_555 1_555
H19 C19 1_555 1_555
H20 C19 1_555 1_555
H21 C19 1_555 1_555
H22 C20 1_555 1_555
H23 C20 1_555 1_555
H24 C20 1_555 1_555
H25 O1 1_555 1_555
H26 O2 1_555 1_555
C5 C10 1_555 1_555
C8 C14 1_555 1_555
C9 C11 1_555 1_555
C13 C14 1_555 1_555

#END
