
#######################################################################
#
#                 Cambridge Crystallographic Data Centre
#                                CCDC 
#
#######################################################################
#
# If this CIF has been generated from an entry in the Cambridge 
# Structural Database, then it will include bibliographic, chemical, 
# crystal, experimental, refinement or atomic coordinate data resulting 
# from the CCDC's data processing and validation procedures.
#
#######################################################################

data_NIHGIW
_chemical_formula_moiety         'C28 H22 O5'
_chemical_name_systematic        
Phenyl(1-(3,4,5-trimethoxyphenyl)naphtho[2,1-b]furan-2-yl)methanone
_symmetry_cell_setting           monoclinic
_symmetry_space_group_name_H-M   'P 21/n'
_symmetry_Int_Tables_number      14
_space_group_name_Hall           '-P 2yn'
loop_
_symmetry_equiv_pos_site_id
_symmetry_equiv_pos_as_xyz
1 x,y,z
2 1/2-x,1/2+y,1/2-z
3 -x,-y,-z
4 1/2+x,1/2-y,1/2+z
_cell_length_a                   9.627(6)
_cell_length_b                   22.777(15)
_cell_length_c                   20.968(14)
_cell_angle_alpha                90
_cell_angle_beta                 90.706(7)
_cell_angle_gamma                90
_cell_volume                     4597.39
_exptl_crystal_colour            yellow
_exptl_crystal_description       block
_cell_formula_units_Z            8
loop_
_atom_site_label
_atom_site_type_symbol
_atom_site_fract_x
_atom_site_fract_y
_atom_site_fract_z
C1 C 0.3713(4) -0.08460(19) 0.8209(2)
H1 H 0.3640 -0.0705 0.7794
C2 C 0.4016(4) -0.1426(2) 0.8315(2)
H2 H 0.4169 -0.1673 0.7970
C3 C 0.4097(4) -0.1651(2) 0.8935(3)
H3 H 0.4294 -0.2047 0.9002
C4 C 0.3887(4) -0.1289(2) 0.9439(2)
H4 H 0.3935 -0.1444 0.9849
C5 C 0.3598(4) -0.06878(19) 0.93611(19)
C6 C 0.3419(4) -0.0310(2) 0.98962(19)
H5 H 0.3430 -0.0471 1.0304
C7 C 0.3231(4) 0.0277(2) 0.98306(17)
H6 H 0.3134 0.0522 1.0182
C8 C 0.3191(4) 0.04945(18) 0.92094(17)
C9 C 0.3259(3) 0.01553(18) 0.86637(16)
C10 C 0.3512(4) -0.04621(18) 0.87270(18)
C11 C 0.3059(4) 0.05539(17) 0.81388(16)
C12 C 0.2951(4) 0.11016(18) 0.83982(16)
C13 C 0.2732(4) 0.16863(19) 0.81213(18)
C14 C 0.3260(4) 0.22147(17) 0.84583(17)
C15 C 0.4501(4) 0.22151(19) 0.87975(18)
H7 H 0.5013 0.1870 0.8835
C16 C 0.4985(5) 0.2725(2) 0.9082(2)
H8 H 0.5831 0.2725 0.9301
C17 C 0.4218(6) 0.3230(2) 0.9040(3)
H9 H 0.4538 0.3571 0.9237
C18 C 0.2979(7) 0.3236(2) 0.8709(3)
H10 H 0.2458 0.3579 0.8685
C19 C 0.2507(5) 0.2733(2) 0.8412(2)
H11 H 0.1679 0.2740 0.8179
C20 C 0.2924(4) 0.04194(16) 0.74449(16)
C21 C 0.3937(4) 0.06004(15) 0.70255(16)
H12 H 0.4734 0.0787 0.7177
C22 C 0.3751(4) 0.05009(15) 0.63767(16)
C23 C 0.2567(4) 0.02221(17) 0.61538(16)
C24 C 0.1578(4) 0.00285(18) 0.65801(18)
C25 C 0.1755(4) 0.01309(17) 0.72255(17)
H13 H 0.1086 0.0005 0.7511
C26 C 0.5841(4) 0.1006(2) 0.61246(19)
H14 H 0.5530 0.1336 0.6368
H15 H 0.6334 0.1142 0.5758
H16 H 0.6446 0.0768 0.6384
C27 C 0.2399(8) -0.0217(3) 0.5180(3)
H17 H 0.3284 -0.0222 0.4974
H18 H 0.1671 -0.0213 0.4863
H19 H 0.2308 -0.0561 0.5441
C28 C -0.0649(5) -0.0418(3) 0.6722(2)
H20 H -0.0300 -0.0693 0.7031
H21 H -0.1376 -0.0598 0.6473
H22 H -0.1010 -0.0080 0.6938
O1 O 0.3033(3) 0.10766(12) 0.90629(11)
O2 O 0.2131(3) 0.17311(14) 0.76048(14)
O3 O 0.4680(3) 0.06689(12) 0.59238(11)
O4 O 0.2314(4) 0.02117(19) 0.55066(15)
O5 O 0.0443(3) -0.02429(15) 0.63145(13)
C29 C 0.8777(4) 0.33349(16) 0.81819(17)
H23 H 0.8642 0.3192 0.7770
C30 C 0.9018(4) 0.39199(18) 0.82760(19)
H24 H 0.9051 0.4169 0.7925
C31 C 0.9216(4) 0.41499(19) 0.8884(2)
H25 H 0.9381 0.4549 0.8937
C32 C 0.9169(4) 0.37896(19) 0.9399(2)
H26 H 0.9281 0.3947 0.9806
C33 C 0.8954(4) 0.31791(18) 0.93287(17)
C34 C 0.8984(4) 0.27971(19) 0.98679(17)
H27 H 0.9127 0.2959 1.0271
C35 C 0.8811(4) 0.22079(19) 0.98172(16)
H28 H 0.8840 0.1964 1.0173
C36 C 0.8588(4) 0.19873(17) 0.92021(16)
C37 C 0.8511(3) 0.23277(16) 0.86553(15)
C38 C 0.8732(3) 0.29462(16) 0.87061(15)
C39 C 0.8214(3) 0.19234(16) 0.81429(15)
C40 C 0.8151(4) 0.13822(17) 0.84107(16)
C41 C 0.7827(4) 0.08057(17) 0.81296(18)
C42 C 0.8264(4) 0.02495(16) 0.84473(16)
C43 C 0.9428(4) 0.02120(18) 0.88391(18)
H29 H 0.9924 0.0550 0.8944
C44 C 0.9854(4) -0.0326(2) 0.9075(2)
H30 H 1.0634 -0.0348 0.9339
C45 C 0.9138(5) -0.0828(2) 0.8922(2)
H31 H 0.9446 -0.1189 0.9073
C46 C 0.7966(5) -0.0796(2) 0.8544(2)
H32 H 0.7461 -0.1134 0.8450
C47 C 0.7539(5) -0.02589(19) 0.83051(18)
H33 H 0.6753 -0.0239 0.8044
C48 C 0.7975(4) 0.20632(15) 0.74569(15)
C49 C 0.8940(4) 0.19046(15) 0.70049(16)
H34 H 0.9763 0.1722 0.7129
C50 C 0.8673(4) 0.20199(16) 0.63660(16)
C51 C 0.7455(4) 0.22965(16) 0.61784(16)
C52 C 0.6505(4) 0.24666(16) 0.66369(16)
C53 C 0.6762(4) 0.23519(15) 0.72764(16)
H35 H 0.6126 0.2467 0.7583
C54 C 1.0725(6) 0.1523(2) 0.6030(2)
H36 H 1.1314 0.1727 0.6329
H37 H 1.1231 0.1445 0.5648
H38 H 1.0424 0.1159 0.6213
C55 C 0.7559(5) 0.2835(2) 0.52226(19)
H39 H 0.7228 0.3181 0.5434
H40 H 0.7214 0.2829 0.4791
H41 H 0.8556 0.2837 0.5222
C56 C 0.4291(5) 0.2879(3) 0.6851(2)
H42 H 0.3960 0.2530 0.7056
H43 H 0.3532 0.3071 0.6634
H44 H 0.4679 0.3140 0.7167
O6 O 0.8383(3) 0.14045(11) 0.90658(11)
O7 O 0.7190(3) 0.07868(13) 0.76193(14)
O8 O 0.9551(3) 0.18759(13) 0.58814(12)
O9 O 0.7099(3) 0.23428(13) 0.55400(12)
O10 O 0.5326(3) 0.27285(13) 0.64049(12)
loop_
_geom_bond_atom_site_label_1
_geom_bond_atom_site_label_2
_geom_bond_site_symmetry_1
_geom_bond_site_symmetry_2
C1 H1 1_555 1_555
C2 C1 1_555 1_555
H2 C2 1_555 1_555
C3 C2 1_555 1_555
H3 C3 1_555 1_555
C4 C3 1_555 1_555
H4 C4 1_555 1_555
C5 C4 1_555 1_555
C6 C5 1_555 1_555
H5 C6 1_555 1_555
C7 C6 1_555 1_555
H6 C7 1_555 1_555
C8 C7 1_555 1_555
C9 C8 1_555 1_555
C10 C1 1_555 1_555
C11 C9 1_555 1_555
C12 C11 1_555 1_555
C13 C12 1_555 1_555
C14 C13 1_555 1_555
C15 C14 1_555 1_555
H7 C15 1_555 1_555
C16 C15 1_555 1_555
H8 C16 1_555 1_555
C17 C16 1_555 1_555
H9 C17 1_555 1_555
C18 C17 1_555 1_555
H10 C18 1_555 1_555
C19 C14 1_555 1_555
H11 C19 1_555 1_555
C20 C11 1_555 1_555
C21 C20 1_555 1_555
H12 C21 1_555 1_555
C22 C21 1_555 1_555
C23 C22 1_555 1_555
C24 C23 1_555 1_555
C25 C20 1_555 1_555
H13 C25 1_555 1_555
C26 H14 1_555 1_555
H15 C26 1_555 1_555
H16 C26 1_555 1_555
C27 H17 1_555 1_555
H18 C27 1_555 1_555
H19 C27 1_555 1_555
C28 H20 1_555 1_555
H21 C28 1_555 1_555
H22 C28 1_555 1_555
O1 C8 1_555 1_555
O2 C13 1_555 1_555
O3 C22 1_555 1_555
O4 C23 1_555 1_555
O5 C24 1_555 1_555
C29 H23 1_555 1_555
C30 C29 1_555 1_555
H24 C30 1_555 1_555
C31 C30 1_555 1_555
H25 C31 1_555 1_555
C32 C31 1_555 1_555
H26 C32 1_555 1_555
C33 C32 1_555 1_555
C34 C33 1_555 1_555
H27 C34 1_555 1_555
C35 C34 1_555 1_555
H28 C35 1_555 1_555
C36 C35 1_555 1_555
C37 C36 1_555 1_555
C38 C29 1_555 1_555
C39 C37 1_555 1_555
C40 C39 1_555 1_555
C41 C40 1_555 1_555
C42 C41 1_555 1_555
C43 C42 1_555 1_555
H29 C43 1_555 1_555
C44 C43 1_555 1_555
H30 C44 1_555 1_555
C45 C44 1_555 1_555
H31 C45 1_555 1_555
C46 C45 1_555 1_555
H32 C46 1_555 1_555
C47 C42 1_555 1_555
H33 C47 1_555 1_555
C48 C39 1_555 1_555
C49 C48 1_555 1_555
H34 C49 1_555 1_555
C50 C49 1_555 1_555
C51 C50 1_555 1_555
C52 C51 1_555 1_555
C53 C48 1_555 1_555
H35 C53 1_555 1_555
C54 H36 1_555 1_555
H37 C54 1_555 1_555
H38 C54 1_555 1_555
C55 H39 1_555 1_555
H40 C55 1_555 1_555
H41 C55 1_555 1_555
C56 H42 1_555 1_555
H43 C56 1_555 1_555
H44 C56 1_555 1_555
O6 C36 1_555 1_555
O7 C41 1_555 1_555
O8 C50 1_555 1_555
O9 C51 1_555 1_555
O10 C52 1_555 1_555
C5 C10 1_555 1_555
C9 C10 1_555 1_555
C12 O1 1_555 1_555
C18 C19 1_555 1_555
C24 C25 1_555 1_555
C26 O3 1_555 1_555
C27 O4 1_555 1_555
C28 O5 1_555 1_555
C33 C38 1_555 1_555
C37 C38 1_555 1_555
C40 O6 1_555 1_555
C46 C47 1_555 1_555
C52 C53 1_555 1_555
C54 O8 1_555 1_555
C55 O9 1_555 1_555
C56 O10 1_555 1_555

#END
