
#######################################################################
#
#                 Cambridge Crystallographic Data Centre
#                                CCDC 
#
#######################################################################
#
# If this CIF has been generated from an entry in the Cambridge 
# Structural Database, then it will include bibliographic, chemical, 
# crystal, experimental, refinement or atomic coordinate data resulting 
# from the CCDC's data processing and validation procedures.
#
#######################################################################

data_NIHGOC
_chemical_formula_moiety         'C28 H24 O5'
_chemical_name_systematic        
Phenyl(1-(3,4,5-trimethoxyphenyl)-1,2-dihydronaphtho[2,1-b]furan-2-yl)methanone
_symmetry_cell_setting           triclinic
_symmetry_space_group_name_H-M   'P -1'
_symmetry_Int_Tables_number      2
_space_group_name_Hall           '-P 1'
loop_
_symmetry_equiv_pos_site_id
_symmetry_equiv_pos_as_xyz
1 x,y,z
2 -x,-y,-z
_cell_length_a                   8.064(2)
_cell_length_b                   9.030(2)
_cell_length_c                   16.884(5)
_cell_angle_alpha                97.742(3)
_cell_angle_beta                 98.905(3)
_cell_angle_gamma                111.668(2)
_cell_volume                     1103.89
_exptl_crystal_colour            colorless
_exptl_crystal_description       block
_cell_formula_units_Z            2
loop_
_atom_site_label
_atom_site_type_symbol
_atom_site_fract_x
_atom_site_fract_y
_atom_site_fract_z
C1 C -0.1462(2) 0.0897(2) 0.31886(11)
H1 H -0.1275 0.0059 0.2884
C2 C -0.2882(3) 0.0535(2) 0.35912(12)
H2 H -0.3637 -0.0545 0.3565
C3 C -0.3178(3) 0.1777(2) 0.40326(13)
H3 H -0.4147 0.1533 0.4296
C4 C -0.2042(3) 0.3389(3) 0.40864(14)
H4 H -0.2242 0.4222 0.4389
C5 C -0.0609(3) 0.3756(2) 0.36889(12)
H5 H 0.0155 0.4837 0.3725
C6 C -0.0306(2) 0.2513(2) 0.32356(10)
C7 C 0.1213(2) 0.2833(2) 0.27950(11)
C8 C 0.2639(2) 0.4577(2) 0.29301(10)
H6 H 0.2021 0.5265 0.2747
C9 C 0.4222(2) 0.4768(2) 0.24858(10)
H7 H 0.4336 0.3719 0.2385
C10 C 0.5838(2) 0.5937(2) 0.31560(9)
C11 C 0.5280(2) 0.6043(2) 0.38784(10)
C12 C 0.6475(3) 0.6904(2) 0.46360(10)
H8 H 0.6050 0.6945 0.5117
C13 C 0.8283(3) 0.7677(2) 0.46402(11)
H9 H 0.9102 0.8261 0.5135
C14 C 0.8952(2) 0.7617(2) 0.39121(10)
C15 C 1.0829(3) 0.8419(2) 0.39145(12)
H10 H 1.1656 0.9014 0.4406
C16 C 1.1446(3) 0.8334(3) 0.32093(12)
H11 H 1.2682 0.8880 0.3223
C17 C 1.0225(3) 0.7428(2) 0.24631(12)
H12 H 1.0663 0.7370 0.1986
C18 C 0.8403(2) 0.6630(2) 0.24298(11)
H13 H 0.7611 0.6029 0.1931
C19 C 0.7707(2) 0.67116(19) 0.31497(10)
C20 C 0.3884(2) 0.5249(2) 0.16661(9)
C21 C 0.4144(2) 0.6837(2) 0.16160(10)
H14 H 0.4549 0.7643 0.2091
C22 C 0.3797(2) 0.7221(2) 0.08513(11)
C23 C 0.3179(2) 0.6009(2) 0.01400(10)
C24 C 0.2868(2) 0.4415(2) 0.01969(10)
C25 C 0.3233(2) 0.4033(2) 0.09601(10)
H15 H 0.3041 0.2966 0.0997
C26 C 0.4659(4) 1.0048(3) 0.13996(15)
H16 H 0.3772 0.9858 0.1735
H17 H 0.4826 1.1039 0.1212
H18 H 0.5803 1.0139 0.1716
C27 C 0.1304(3) 0.6585(3) -0.08828(13)
H19 H 0.0288 0.5617 -0.0865
H20 H 0.1209 0.6761 -0.1433
H21 H 0.1293 0.7502 -0.0526
C28 C 0.1765(3) 0.1645(3) -0.05046(13)
H22 H 0.2849 0.1521 -0.0260
H23 H 0.1296 0.1000 -0.1052
H24 H 0.0859 0.1290 -0.0186
O1 O 0.1307(2) 0.17526(18) 0.23172(10)
O2 O 0.34367(16) 0.51619(15) 0.38068(7)
O3 O 0.4040(2) 0.87429(16) 0.07227(8)
O4 O 0.29663(17) 0.64004(17) -0.06214(7)
O5 O 0.21923(19) 0.33022(16) -0.05279(7)
loop_
_geom_bond_atom_site_label_1
_geom_bond_atom_site_label_2
_geom_bond_site_symmetry_1
_geom_bond_site_symmetry_2
C1 H1 1_555 1_555
C2 C1 1_555 1_555
H2 C2 1_555 1_555
C3 C2 1_555 1_555
H3 C3 1_555 1_555
C4 C3 1_555 1_555
H4 C4 1_555 1_555
C5 C4 1_555 1_555
H5 C5 1_555 1_555
C6 C1 1_555 1_555
C7 C6 1_555 1_555
C8 C7 1_555 1_555
H6 C8 1_555 1_555
C9 C8 1_555 1_555
H7 C9 1_555 1_555
C10 C9 1_555 1_555
C11 C10 1_555 1_555
C12 C11 1_555 1_555
H8 C12 1_555 1_555
C13 C12 1_555 1_555
H9 C13 1_555 1_555
C14 C13 1_555 1_555
C15 C14 1_555 1_555
H10 C15 1_555 1_555
C16 C15 1_555 1_555
H11 C16 1_555 1_555
C17 C16 1_555 1_555
H12 C17 1_555 1_555
C18 C17 1_555 1_555
H13 C18 1_555 1_555
C19 C10 1_555 1_555
C20 C9 1_555 1_555
C21 C20 1_555 1_555
H14 C21 1_555 1_555
C22 C21 1_555 1_555
C23 C22 1_555 1_555
C24 C23 1_555 1_555
C25 C20 1_555 1_555
H15 C25 1_555 1_555
C26 H16 1_555 1_555
H17 C26 1_555 1_555
H18 C26 1_555 1_555
C27 H19 1_555 1_555
H20 C27 1_555 1_555
H21 C27 1_555 1_555
C28 H22 1_555 1_555
H23 C28 1_555 1_555
H24 C28 1_555 1_555
O1 C7 1_555 1_555
O2 C8 1_555 1_555
O3 C22 1_555 1_555
O4 C23 1_555 1_555
O5 C24 1_555 1_555
C5 C6 1_555 1_555
C11 O2 1_555 1_555
C14 C19 1_555 1_555
C18 C19 1_555 1_555
C24 C25 1_555 1_555
C26 O3 1_555 1_555
C27 O4 1_555 1_555
C28 O5 1_555 1_555

#END
