
#######################################################################
#
#                 Cambridge Crystallographic Data Centre
#                                CCDC 
#
#######################################################################
#
# If this CIF has been generated from an entry in the Cambridge 
# Structural Database, then it will include bibliographic, chemical, 
# crystal, experimental, refinement or atomic coordinate data resulting 
# from the CCDC's data processing and validation procedures.
#
#######################################################################

data_NIHQOM
_chemical_formula_moiety         'C15 H17 N1 O2'
_chemical_name_systematic        
4-Methoxy-11-azatetracyclo[6.5.2.0^2,7^.0^11,14^]pentadeca-2,4,6-trien-10-one
_symmetry_cell_setting           orthorhombic
_symmetry_space_group_name_H-M   'P 21 21 21'
_symmetry_Int_Tables_number      19
_space_group_name_Hall           'P 2ac 2ab'
loop_
_symmetry_equiv_pos_site_id
_symmetry_equiv_pos_as_xyz
1 x,y,z
2 1/2-x,-y,1/2+z
3 -x,1/2+y,1/2-z
4 1/2+x,1/2-y,-z
_cell_length_a                   7.360(2)
_cell_length_b                   8.125(3)
_cell_length_c                   20.588(7)
_cell_angle_alpha                90
_cell_angle_beta                 90
_cell_angle_gamma                90
_cell_volume                     1231.16
_exptl_crystal_colour            colorless
_exptl_crystal_description       block
_cell_formula_units_Z            4
loop_
_atom_site_label
_atom_site_type_symbol
_atom_site_fract_x
_atom_site_fract_y
_atom_site_fract_z
C1 C 0.3355(3) 0.8439(2) 0.11210(9)
C2 C 0.2176(3) 0.9740(2) 0.12208(9)
H1 H 0.1233 0.9630 0.1518
C3 C 0.2376(3) 1.1199(2) 0.08855(9)
C4 C 0.3774(3) 1.1363(3) 0.04428(10)
H2 H 0.3913 1.2338 0.0211
C5 C 0.4951(3) 1.0088(3) 0.03470(10)
H3 H 0.5897 1.0217 0.0052
C6 C 0.4782(3) 0.8601(3) 0.06764(9)
C7 C 0.6118(3) 0.7229(3) 0.05333(10)
H4 H 0.6473 0.7269 0.0075
C8 C 0.5268(3) 0.5582(3) 0.06818(10)
H5 H 0.4271 0.5369 0.0385
H6 H 0.6160 0.4712 0.0633
C9 C 0.4584(3) 0.5636(3) 0.13700(10)
H7 H 0.4199 0.4529 0.1500
C10 C 0.3034(3) 0.6829(2) 0.14817(9)
H8 H 0.1892 0.6333 0.1334
C11 C 0.7803(3) 0.7364(3) 0.09593(11)
H9 H 0.8651 0.6500 0.0842
H10 H 0.8390 0.8413 0.0878
C12 C 0.7364(3) 0.7228(3) 0.16685(11)
C13 C 0.4959(4) 0.6590(3) 0.24371(11)
H11 H 0.5490 0.7520 0.2663
H12 H 0.4983 0.5640 0.2723
C14 C 0.3020(3) 0.6976(3) 0.22264(11)
H13 H 0.2677 0.8079 0.2359
H14 H 0.2172 0.6198 0.2416
C15 C -0.0139(3) 1.2466(3) 0.14175(12)
H15 H -0.1001 1.1635 0.1295
H16 H -0.0739 1.3513 0.1443
H17 H 0.0372 1.2198 0.1833
N1 N 0.5950(2) 0.6249(2) 0.18380(8)
O1 O 0.1269(2) 1.25432(19) 0.09457(7)
O2 O 0.8244(2) 0.8001(2) 0.20726(8)
loop_
_geom_bond_atom_site_label_1
_geom_bond_atom_site_label_2
_geom_bond_site_symmetry_1
_geom_bond_site_symmetry_2
C1 C2 1_555 1_555
C2 H1 1_555 1_555
C3 C2 1_555 1_555
C4 C3 1_555 1_555
H2 C4 1_555 1_555
C5 C4 1_555 1_555
H3 C5 1_555 1_555
C6 C1 1_555 1_555
C7 C6 1_555 1_555
H4 C7 1_555 1_555
C8 C7 1_555 1_555
H5 C8 1_555 1_555
H6 C8 1_555 1_555
C9 C8 1_555 1_555
H7 C9 1_555 1_555
C10 C1 1_555 1_555
H8 C10 1_555 1_555
C11 C7 1_555 1_555
H9 C11 1_555 1_555
H10 C11 1_555 1_555
C12 C11 1_555 1_555
C13 H11 1_555 1_555
H12 C13 1_555 1_555
C14 C10 1_555 1_555
H13 C14 1_555 1_555
H14 C14 1_555 1_555
C15 H15 1_555 1_555
H16 C15 1_555 1_555
H17 C15 1_555 1_555
N1 C9 1_555 1_555
O1 C3 1_555 1_555
O2 C12 1_555 1_555
C5 C6 1_555 1_555
C9 C10 1_555 1_555
C12 N1 1_555 1_555
C13 C14 1_555 1_555
C13 N1 1_555 1_555
C15 O1 1_555 1_555

#END
