
#######################################################################
#
#                 Cambridge Crystallographic Data Centre
#                                CCDC 
#
#######################################################################
#
# If this CIF has been generated from an entry in the Cambridge 
# Structural Database, then it will include bibliographic, chemical, 
# crystal, experimental, refinement or atomic coordinate data resulting 
# from the CCDC's data processing and validation procedures.
#
#######################################################################

data_NIHQUS
_chemical_formula_moiety         'C21 H22 N2 O7 S1'
_chemical_name_systematic        
'3,5-Dimethoxy-1-methyl-10-((2-nitrophenyl)sulfonyl)-10-azatricyclo[7.3.1.0^2,7^]trideca-2,4,6-trien-11-one unknown solvate'
_symmetry_cell_setting           triclinic
_symmetry_space_group_name_H-M   'P -1'
_symmetry_Int_Tables_number      2
_space_group_name_Hall           '-P 1'
loop_
_symmetry_equiv_pos_site_id
_symmetry_equiv_pos_as_xyz
1 x,y,z
2 -x,-y,-z
_cell_length_a                   7.866(4)
_cell_length_b                   11.435(6)
_cell_length_c                   13.934(7)
_cell_angle_alpha                74.892(5)
_cell_angle_beta                 75.847(5)
_cell_angle_gamma                80.987(5)
_cell_volume                     1167.49
_exptl_crystal_colour            yellow
_exptl_crystal_description       block
_cell_formula_units_Z            2
loop_
_atom_site_label
_atom_site_type_symbol
_atom_site_fract_x
_atom_site_fract_y
_atom_site_fract_z
C1 C 0.0391(4) 0.6878(2) 0.71807(19)
C2 C -0.1241(3) 0.6205(2) 0.7561(2)
H1 H -0.2134 0.6648 0.7194
H2 H -0.1691 0.6207 0.8274
C3 C -0.0977(3) 0.4897(2) 0.74536(19)
C4 C 0.0177(3) 0.4137(2) 0.81846(18)
C5 C 0.1953(3) 0.3802(2) 0.7855(2)
C6 C 0.2880(4) 0.4214(2) 0.6749(2)
H3 H 0.4026 0.4449 0.6722
H4 H 0.3066 0.3536 0.6425
C7 C 0.1854(4) 0.5270(2) 0.6163(2)
H5 H 0.2388 0.5400 0.5435
C8 C -0.0008(4) 0.4954(3) 0.6349(2)
H6 H 0.0014 0.4172 0.6193
H7 H -0.0642 0.5560 0.5899
C9 C -0.2735(4) 0.4407(3) 0.7596(2)
H8 H -0.3499 0.4552 0.8214
H9 H -0.2547 0.3548 0.7632
H10 H -0.3269 0.4812 0.7031
C10 C -0.0514(4) 0.3815(2) 0.92457(19)
C11 C 0.0494(4) 0.3134(3) 0.9910(2)
H11 H 0.0001 0.2918 1.0602
C12 C 0.2252(4) 0.2766(2) 0.9548(2)
C13 C 0.2983(4) 0.3114(2) 0.8530(2)
H12 H 0.4169 0.2891 0.8289
C14 C -0.2969(5) 0.3976(3) 1.0642(2)
H13 H -0.2933 0.3112 1.0913
H14 H -0.4169 0.4332 1.0761
H15 H -0.2295 0.4319 1.0970
C15 C 0.4891(5) 0.1686(4) 0.9943(4)
H16 H 0.4983 0.1244 0.9431
H17 H 0.5335 0.1163 1.0507
H18 H 0.5568 0.2373 0.9662
C16 C 0.2944(3) 0.8700(2) 0.5584(2)
C17 C 0.2640(4) 0.9107(2) 0.4608(2)
C18 C 0.2316(4) 1.0329(3) 0.4183(3)
H19 H 0.2123 1.0584 0.3525
C19 C 0.2279(5) 1.1163(3) 0.4735(3)
H20 H 0.2027 1.1988 0.4461
C20 C 0.2615(4) 1.0781(3) 0.5693(3)
H21 H 0.2621 1.1352 0.6060
C21 C 0.2948(4) 0.9549(2) 0.6124(2)
H22 H 0.3172 0.9300 0.6776
N1 N 0.2617(4) 0.8259(2) 0.3973(2)
N2 N 0.1792(3) 0.64209(18) 0.65054(15)
O1 O 0.4694(3) 0.66499(17) 0.53198(15)
O2 O 0.4299(3) 0.71406(17) 0.69700(15)
O3 O 0.1606(4) 0.7479(2) 0.43077(19)
O4 O 0.3608(5) 0.8415(3) 0.3139(2)
O5 O 0.0481(3) 0.78107(16) 0.74149(14)
O6 O -0.2238(3) 0.42228(18) 0.95680(14)
O7 O 0.3121(3) 0.2094(2) 1.0276(2)
S1 S 0.36054(9) 0.71567(6) 0.61185(5)
loop_
_geom_bond_atom_site_label_1
_geom_bond_atom_site_label_2
_geom_bond_site_symmetry_1
_geom_bond_site_symmetry_2
C1 C2 1_555 1_555
C2 H1 1_555 1_555
H2 C2 1_555 1_555
C3 C2 1_555 1_555
C4 C3 1_555 1_555
C5 C4 1_555 1_555
C6 C5 1_555 1_555
H3 C6 1_555 1_555
H4 C6 1_555 1_555
C7 C6 1_555 1_555
H5 C7 1_555 1_555
C8 C3 1_555 1_555
H6 C8 1_555 1_555
H7 C8 1_555 1_555
C9 C3 1_555 1_555
H8 C9 1_555 1_555
H9 C9 1_555 1_555
H10 C9 1_555 1_555
C10 C4 1_555 1_555
C11 C10 1_555 1_555
H11 C11 1_555 1_555
C12 C11 1_555 1_555
C13 C5 1_555 1_555
H12 C13 1_555 1_555
C14 H13 1_555 1_555
H14 C14 1_555 1_555
H15 C14 1_555 1_555
C15 H16 1_555 1_555
H17 C15 1_555 1_555
H18 C15 1_555 1_555
C16 C17 1_555 1_555
C17 C18 1_555 1_555
C18 H19 1_555 1_555
C19 C18 1_555 1_555
H20 C19 1_555 1_555
C20 C19 1_555 1_555
H21 C20 1_555 1_555
C21 C16 1_555 1_555
H22 C21 1_555 1_555
N1 C17 1_555 1_555
N2 C1 1_555 1_555
O1 S1 1_555 1_555
O2 S1 1_555 1_555
O3 N1 1_555 1_555
O4 N1 1_555 1_555
O5 C1 1_555 1_555
O6 C10 1_555 1_555
O7 C12 1_555 1_555
S1 C16 1_555 1_555
C7 C8 1_555 1_555
C7 N2 1_555 1_555
C12 C13 1_555 1_555
C14 O6 1_555 1_555
C15 O7 1_555 1_555
C20 C21 1_555 1_555
N2 S1 1_555 1_555

#END
