
#######################################################################
#
#                 Cambridge Crystallographic Data Centre
#                                CCDC 
#
#######################################################################
#
# If this CIF has been generated from an entry in the Cambridge 
# Structural Database, then it will include bibliographic, chemical, 
# crystal, experimental, refinement or atomic coordinate data resulting 
# from the CCDC's data processing and validation procedures.
#
#######################################################################

data_NIJDER
_chemical_formula_moiety         'C20 H23 N1 O4 S2'
_chemical_name_systematic        
3-(Ethylsulfanyl)-6,6-dimethyl-2-((4-methylphenyl)sulfonyl)-6,7-dihydrocyclohepta[b]pyrrole-4,8(1H,5H)-dione
_symmetry_cell_setting           monoclinic
_symmetry_space_group_name_H-M   'P 21/n'
_symmetry_Int_Tables_number      14
_space_group_name_Hall           '-P 2yn'
loop_
_symmetry_equiv_pos_site_id
_symmetry_equiv_pos_as_xyz
1 x,y,z
2 1/2-x,1/2+y,1/2-z
3 -x,-y,-z
4 1/2+x,1/2-y,1/2+z
_cell_length_a                   15.619(2)
_cell_length_b                   5.9270(8)
_cell_length_c                   22.055(3)
_cell_angle_alpha                90
_cell_angle_beta                 101.129(2)
_cell_angle_gamma                90
_cell_volume                     2003.32
_cell_formula_units_Z            4
loop_
_atom_site_label
_atom_site_type_symbol
_atom_site_fract_x
_atom_site_fract_y
_atom_site_fract_z
S1 S 0.82643(5) -0.08940(12) -0.01709(3)
S2 S 0.79395(5) -0.18218(13) 0.13395(4)
O1 O 0.80995(13) -0.3167(3) -0.00107(10)
O2 O 0.88130(13) -0.0424(4) -0.06063(9)
N1 N 0.92708(15) 0.2296(4) 0.04865(11)
O3 O 0.91998(14) 0.0495(4) 0.24608(9)
O4 O 1.03904(15) 0.5699(4) 0.06390(9)
C1 C 0.72616(18) 0.0469(5) -0.04184(12)
C2 C 1.01597(17) 0.5082(4) 0.11033(12)
C3 C 0.91682(15) 0.1904(4) 0.14699(12)
C4 C 0.93798(16) 0.2051(5) 0.21480(12)
C5 C 0.95425(16) 0.3173(4) 0.10537(11)
C6 C 0.87237(16) 0.0545(4) 0.05087(12)
C7 C 0.86248(16) 0.0246(4) 0.11158(12)
C8 C 1.06585(17) 0.4989(5) 0.23012(12)
C9 C 1.04770(19) 0.6305(5) 0.16978(12)
H1 H 1.0049 0.7456 0.1736
H2 H 1.1011 0.7081 0.1660
C10 C 0.98027(19) 0.4117(5) 0.24649(12)
H3 H 0.9913 0.3829 0.2906
H4 H 0.9380 0.5333 0.2387
C11 C 0.7246(2) 0.2547(5) -0.07073(14)
H5 H 0.7760 0.3177 -0.0784
C12 C 0.6497(2) -0.0512(6) -0.03286(13)
H6 H 0.6503 -0.1923 -0.0143
C13 C 1.1058(2) 0.6635(5) 0.28137(14)
H7 H 1.1179 0.5854 0.3202
H8 H 1.0655 0.7842 0.2835
H9 H 1.1591 0.7241 0.2725
C14 C 0.6472(2) 0.3669(6) -0.08802(15)
H10 H 0.6466 0.5073 -0.1069
C15 C 0.73117(19) -0.0263(6) 0.18036(15)
H11 H 0.6881 -0.1266 0.1921
H12 H 0.7699 0.0217 0.2180
C16 C 1.12949(19) 0.3054(6) 0.22733(16)
H13 H 1.1391 0.2243 0.2657
H14 H 1.1839 0.3650 0.2203
H15 H 1.1054 0.2052 0.1942
C17 C 0.5719(2) 0.0631(7) -0.05176(15)
H16 H 0.5200 -0.0042 -0.0468
C18 C 0.6849(2) 0.1784(7) 0.14920(19)
H17 H 0.6532 0.2513 0.1769
H18 H 0.6451 0.1327 0.1125
H19 H 0.7270 0.2813 0.1384
C19 C 0.5700(2) 0.2755(7) -0.07790(14)
C20 C 0.4846(2) 0.4024(7) -0.09393(17)
H20 H 0.4943 0.5455 -0.1118
H21 H 0.4615 0.4260 -0.0571
H22 H 0.4437 0.3161 -0.1230
H23 H 0.9438(16) 0.277(4) 0.0192(12)
loop_
_geom_bond_atom_site_label_1
_geom_bond_atom_site_label_2
_geom_bond_site_symmetry_1
_geom_bond_site_symmetry_2
S1 O1 1_555 1_555
S2 C7 1_555 1_555
O2 S1 1_555 1_555
N1 C5 1_555 1_555
O3 C4 1_555 1_555
O4 C2 1_555 1_555
C1 S1 1_555 1_555
C2 C5 1_555 1_555
C3 C4 1_555 1_555
C4 C10 1_555 1_555
C5 C3 1_555 1_555
C6 S1 1_555 1_555
C7 C3 1_555 1_555
C8 C9 1_555 1_555
C9 C2 1_555 1_555
H1 C9 1_555 1_555
H2 C9 1_555 1_555
C10 C8 1_555 1_555
H3 C10 1_555 1_555
H4 C10 1_555 1_555
C11 C1 1_555 1_555
H5 C11 1_555 1_555
C12 C1 1_555 1_555
H6 C12 1_555 1_555
C13 C8 1_555 1_555
H7 C13 1_555 1_555
H8 C13 1_555 1_555
H9 C13 1_555 1_555
C14 C11 1_555 1_555
H10 C14 1_555 1_555
C15 S2 1_555 1_555
H11 C15 1_555 1_555
H12 C15 1_555 1_555
C16 C8 1_555 1_555
H13 C16 1_555 1_555
H14 C16 1_555 1_555
H15 C16 1_555 1_555
C17 C12 1_555 1_555
H16 C17 1_555 1_555
C18 C15 1_555 1_555
H17 C18 1_555 1_555
H18 C18 1_555 1_555
H19 C18 1_555 1_555
C19 C14 1_555 1_555
C20 C19 1_555 1_555
H20 C20 1_555 1_555
H21 C20 1_555 1_555
H22 C20 1_555 1_555
H23 N1 1_555 1_555
N1 C6 1_555 1_555
C6 C7 1_555 1_555
C17 C19 1_555 1_555

#END
