
#######################################################################
#
#                 Cambridge Crystallographic Data Centre
#                                CCDC 
#
#######################################################################
#
# If this CIF has been generated from an entry in the Cambridge 
# Structural Database, then it will include bibliographic, chemical, 
# crystal, experimental, refinement or atomic coordinate data resulting 
# from the CCDC's data processing and validation procedures.
#
#######################################################################

data_NIJGUI01
_chemical_compound_source        'Hydrilla verticillata (Linn. f.) Royle'
_chemical_name_common            Loliolide
_chemical_formula_moiety         'C11 H16 O3'
_chemical_name_systematic        
6-Hydroxy-4,4,7a-trimethyl-5,6,7,7a-tetrahydro-1-benzofuran-2(4H)-one
_symmetry_cell_setting           monoclinic
_symmetry_space_group_name_H-M   'P 21'
_symmetry_Int_Tables_number      4
_space_group_name_Hall           'P 2yb'
loop_
_symmetry_equiv_pos_site_id
_symmetry_equiv_pos_as_xyz
1 x,y,z
2 -x,1/2+y,-z
_cell_length_a                   6.0750(12)
_cell_length_b                   11.692(2)
_cell_length_c                   7.8730(16)
_cell_angle_alpha                90
_cell_angle_beta                 109.61(3)
_cell_angle_gamma                90
_cell_volume                     526.776
_exptl_crystal_colour            colorless
_exptl_crystal_description       block
_cell_formula_units_Z            2
loop_
_atom_site_label
_atom_site_type_symbol
_atom_site_fract_x
_atom_site_fract_y
_atom_site_fract_z
O1 O 0.3869(5) 0.2226(2) 0.1975(4)
O2 O 0.1399(5) 0.0785(2) 0.0936(3)
O3 O -0.2483(5) -0.2266(2) 0.1890(4)
H1 H -0.3057 -0.2412 0.0812
C1 C 0.2740(6) 0.1441(3) 0.2293(5)
C2 C 0.0096(6) -0.0032(3) 0.1652(4)
C3 C 0.0652(7) -0.1245(3) 0.1219(5)
H2 H -0.0173 -0.1399 -0.0046
H3 H 0.2314 -0.1304 0.1422
C4 C -0.0027(7) -0.2140(3) 0.2355(5)
H4 H 0.0608 -0.2876 0.2143
C5 C 0.1017(7) -0.1874(3) 0.4338(5)
H5 H 0.2691 -0.1995 0.4699
H6 H 0.0408 -0.2423 0.4989
C6 C 0.0598(6) -0.0656(3) 0.4961(5)
C7 C 0.1086(5) 0.0153(3) 0.3651(4)
C8 C 0.2581(6) 0.1025(3) 0.3975(4)
H7 H 0.3397 0.1320 0.5109
C9 C -0.2438(7) 0.0300(4) 0.0761(5)
H8 H -0.2671 0.1068 0.1096
H9 H -0.3414 -0.0212 0.1145
H10 H -0.2838 0.0255 -0.0525
C10 C -0.1902(7) -0.0519(4) 0.4994(5)
H11 H -0.2109 0.0244 0.5366
H12 H -0.2161 -0.1058 0.5828
H13 H -0.2999 -0.0658 0.3811
C11 C 0.2294(7) -0.0463(4) 0.6863(5)
H14 H 0.2063 0.0289 0.7263
H15 H 0.3869 -0.0533 0.6865
H16 H 0.2018 -0.1023 0.7661
loop_
_geom_bond_atom_site_label_1
_geom_bond_atom_site_label_2
_geom_bond_site_symmetry_1
_geom_bond_site_symmetry_2
O1 C1 1_555 1_555
O2 C1 1_555 1_555
O3 H1 1_555 1_555
C1 C8 1_555 1_555
C2 O2 1_555 1_555
C3 C2 1_555 1_555
H2 C3 1_555 1_555
H3 C3 1_555 1_555
C4 O3 1_555 1_555
H4 C4 1_555 1_555
C5 C4 1_555 1_555
H5 C5 1_555 1_555
H6 C5 1_555 1_555
C6 C5 1_555 1_555
C7 C2 1_555 1_555
C8 C7 1_555 1_555
H7 C8 1_555 1_555
C9 C2 1_555 1_555
H8 C9 1_555 1_555
H9 C9 1_555 1_555
H10 C9 1_555 1_555
C10 C6 1_555 1_555
H11 C10 1_555 1_555
H12 C10 1_555 1_555
H13 C10 1_555 1_555
C11 C6 1_555 1_555
H14 C11 1_555 1_555
H15 C11 1_555 1_555
H16 C11 1_555 1_555
C3 C4 1_555 1_555
C6 C7 1_555 1_555

#END
