
#######################################################################
#
#                 Cambridge Crystallographic Data Centre
#                                CCDC 
#
#######################################################################
#
# If this CIF has been generated from an entry in the Cambridge 
# Structural Database, then it will include bibliographic, chemical, 
# crystal, experimental, refinement or atomic coordinate data resulting 
# from the CCDC's data processing and validation procedures.
#
#######################################################################

data_NIJGIX
_chemical_formula_moiety         'C27 H43 N1 O4 Si1'
_chemical_name_systematic        
8,9-Dimethoxy-1-(tri-isopropylsilyloxy)-10b-(but-3-enyl)-1,2,3,5,6,10b-hexahydropyrrolo(2,1-a)isoquinolin-3(2H)-one
_symmetry_cell_setting           triclinic
_symmetry_space_group_name_H-M   'P 1'
_symmetry_Int_Tables_number      1
_space_group_name_Hall           'P 1'
loop_
_symmetry_equiv_pos_site_id
_symmetry_equiv_pos_as_xyz
1 x,y,z
_cell_length_a                   10.9159(8)
_cell_length_b                   12.6615(9)
_cell_length_c                   21.0370(15)
_cell_angle_alpha                100.6150(10)
_cell_angle_beta                 104.2520(10)
_cell_angle_gamma                92.8180(10)
_cell_volume                     2756.18
_exptl_crystal_colour            colorless
_exptl_crystal_description       block
_cell_formula_units_Z            4
loop_
_atom_site_label
_atom_site_type_symbol
_atom_site_fract_x
_atom_site_fract_y
_atom_site_fract_z
Si1 Si 0.30675(8) 0.75627(6) 0.23424(4)
O1 O 0.32173(18) 0.73040(16) 0.30920(10)
C1 C 0.2550(3) 0.7465(2) 0.35918(15)
H1 H 0.2238 0.8180 0.3650
C2 C 0.1491(3) 0.6556(3) 0.34360(17)
H2 H 0.0859 0.6750 0.3679
H3 H 0.1080 0.6367 0.2960
O2 O 0.1846(2) 0.46693(18) 0.34889(13)
C3 C 0.2196(3) 0.5638(3) 0.36751(17)
N1 N 0.3290(2) 0.6076(2) 0.41268(13)
C4 C 0.4346(3) 0.5452(3) 0.43453(18)
H4 H 0.4090 0.4688 0.4170
H5 H 0.4593 0.5569 0.4830
C5 C 0.5456(3) 0.5804(2) 0.40932(19)
H6 H 0.6198 0.5467 0.4288
H7 H 0.5255 0.5566 0.3611
C6 C 0.5754(3) 0.7015(2) 0.42724(16)
C7 C 0.6999(3) 0.7465(3) 0.43735(17)
H8 H 0.7632 0.7009 0.4338
O3 O 0.8508(2) 0.90652(19) 0.46463(13)
C8 C 0.7313(3) 0.8558(3) 0.45233(16)
O4 O 0.6735(2) 1.03311(17) 0.47057(12)
C9 C 0.6348(3) 0.9263(2) 0.45674(15)
C10 C 0.5127(3) 0.8813(2) 0.44757(14)
H9 H 0.4490 0.9265 0.4509
C11 C 0.4820(3) 0.7691(2) 0.43332(14)
C12 C 0.3447(3) 0.7265(2) 0.42446(15)
C13 C 0.2962(3) 0.7749(3) 0.48555(16)
H10 H 0.2976 0.8525 0.4891
H11 H 0.2086 0.7462 0.4778
C14 C 0.3727(4) 0.7523(3) 0.55168(17)
H12 H 0.3625 0.6752 0.5499
H13 H 0.4619 0.7725 0.5565
C15 C 0.3378(6) 0.8089(4) 0.6117(2)
H14 H 0.3210 0.8803 0.6125
C16 C 0.3282(6) 0.7713(6) 0.6622(3)
H15 H 0.3439 0.7003 0.6641
H16 H 0.3054 0.8147 0.6973
C17 C 0.9507(3) 0.8388(3) 0.4660(2)
H17 H 1.0299 0.8823 0.4751
H18 H 0.9359 0.7904 0.4235
H19 H 0.9538 0.7979 0.5005
C18 C 0.5776(4) 1.1044(3) 0.4702(3)
H20 H 0.6155 1.1776 0.4798
H21 H 0.5343 1.0945 0.5035
H22 H 0.5181 1.0896 0.4269
C19 C 0.1356(3) 0.7298(3) 0.18340(17)
H23 H 0.1056 0.6585 0.1886
C20 C 0.0460(3) 0.8079(3) 0.2083(2)
H24 H -0.0388 0.7883 0.1802
H25 H 0.0737 0.8803 0.2066
H26 H 0.0471 0.8040 0.2535
C21 C 0.1205(4) 0.7207(4) 0.1091(2)
H27 H 0.0320 0.7073 0.0859
H28 H 0.1648 0.6621 0.0930
H29 H 0.1552 0.7868 0.1013
C22 C 0.4004(4) 0.6535(3) 0.19707(18)
H30 H 0.3913 0.6594 0.1504
C23 C 0.3488(5) 0.5393(3) 0.1973(2)
H31 H 0.3978 0.4880 0.1778
H32 H 0.2616 0.5260 0.1718
H33 H 0.3544 0.5321 0.2426
C24 C 0.5433(4) 0.6746(4) 0.2338(2)
H34 H 0.5889 0.6214 0.2131
H35 H 0.5547 0.6702 0.2799
H36 H 0.5751 0.7452 0.2311
C25 C 0.3820(3) 0.8972(3) 0.24390(18)
H37 H 0.4696 0.8985 0.2705
C26 C 0.3921(5) 0.9266(4) 0.1784(2)
H38 H 0.4318 0.9990 0.1871
H39 H 0.3087 0.9218 0.1488
H40 H 0.4423 0.8775 0.1579
C27 C 0.3232(4) 0.9841(3) 0.2837(2)
H41 H 0.3662 1.0536 0.2868
H42 H 0.3315 0.9704 0.3279
H43 H 0.2349 0.9831 0.2616
Si2 Si 0.81393(8) 0.81295(7) 0.72492(4)
O5 O 0.81259(19) 0.78607(16) 0.79831(10)
C28 C 0.7299(3) 0.8063(2) 0.84048(14)
H44 H 0.6981 0.8774 0.8409
C29 C 0.6233(3) 0.7157(3) 0.82143(16)
H45 H 0.5940 0.6919 0.7732
H46 H 0.5522 0.7381 0.8388
O6 O 0.6495(2) 0.53047(18) 0.83841(13)
C30 C 0.6850(3) 0.6273(3) 0.85407(16)
N2 N 0.7874(2) 0.67466(19) 0.90317(12)
C31 C 0.8865(3) 0.6168(2) 0.93712(16)
H47 H 0.8642 0.5396 0.9217
H48 H 0.8955 0.6342 0.9850
C32 C 1.0111(3) 0.6490(2) 0.92224(17)
H49 H 1.0798 0.6191 0.9500
H50 H 1.0068 0.6191 0.8758
C33 C 1.0387(3) 0.7703(2) 0.93541(15)
C34 C 1.1647(3) 0.8169(3) 0.95179(16)
H51 H 1.2305 0.7727 0.9568
O7 O 1.3124(2) 0.9788(2) 0.97547(13)
C35 C 1.1926(3) 0.9264(3) 0.96050(16)
O8 O 1.1299(2) 1.10176(17) 0.96361(12)
C36 C 1.0936(3) 0.9944(2) 0.95381(15)
C37 C 0.9697(3) 0.9483(2) 0.93846(14)
H52 H 0.9037 0.9924 0.9341
C38 C 0.9412(3) 0.8365(2) 0.92929(14)
C39 C 0.8037(3) 0.7932(2) 0.91127(14)
C40 C 0.7375(3) 0.8470(2) 0.96462(15)
H53 H 0.7363 0.9232 0.9635
H54 H 0.6501 0.8155 0.9523
C41 C 0.7990(3) 0.8361(3) 1.03595(15)
H55 H 0.7809 0.7624 1.0404
H56 H 0.8904 0.8508 1.0451
C42 C 0.7522(4) 0.9116(4) 1.08624(18)
H57 H 0.7640 0.9846 1.0858
C43 C 0.6982(4) 0.8879(5) 1.1296(2)
H58 H 0.6839 0.8161 1.1324
H59 H 0.6731 0.9423 1.1584
C44 C 1.4148(3) 0.9126(3) 0.9795(2)
H60 H 1.4936 0.9573 0.9900
H61 H 1.4038 0.8638 0.9374
H62 H 1.4160 0.8721 1.0140
C45 C 1.0316(3) 1.1715(3) 0.9573(2)
H63 H 1.0681 1.2448 0.9651
H64 H 0.9845 1.1648 0.9896
H65 H 0.9758 1.1522 0.9130
C46 C 0.7252(9) 0.6939(6) 0.6593(4)
H66 H 0.6341 0.6994 0.6538
C47 C 0.7527(10) 0.6923(9) 0.5912(4)
H67 H 0.7042 0.6314 0.5592
H68 H 0.8416 0.6868 0.5953
H69 H 0.7296 0.7577 0.5765
C48 C 0.7553(10) 0.5869(7) 0.6798(5)
H70 H 0.7076 0.5285 0.6454
H71 H 0.7328 0.5849 0.7210
H72 H 0.8444 0.5800 0.6861
C52 C 0.9848(4) 0.8630(4) 0.7357(2)
H80 H 0.9969 0.9300 0.7693
C53 C 1.0824(5) 0.7993(6) 0.7670(3)
H81 H 1.1651 0.8326 0.7699
H82 H 1.0711 0.7275 0.7405
H83 H 1.0750 0.7962 0.8112
C54 C 1.0151(5) 0.9008(6) 0.6770(3)
H84 H 1.1040 0.9243 0.6877
H85 H 0.9665 0.9597 0.6672
H86 H 0.9939 0.8424 0.6387
C55 C 0.7122(4) 0.9263(4) 0.7085(2)
H87 H 0.6304 0.9063 0.7167
C56 C 0.6828(5) 0.9447(5) 0.6353(3)
H88 H 0.6305 1.0031 0.6312
H89 H 0.6391 0.8801 0.6051
H90 H 0.7609 0.9622 0.6246
C57 C 0.7664(6) 1.0320(4) 0.7568(3)
H91 H 0.7115 1.0870 0.7468
H92 H 0.8492 1.0528 0.7524
H93 H 0.7728 1.0233 0.8019
Si3 Si 0.04792(8) 0.31756(7) 0.53135(4)
O9 O 0.02672(19) 0.26062(17) 0.45209(10)
C58 C 0.1002(3) 0.2492(2) 0.40499(14)
H94 H 0.1434 0.3181 0.4036
C59 C 0.1919(3) 0.1643(2) 0.41871(16)
H95 H 0.2611 0.1715 0.3979
H96 H 0.2268 0.1700 0.4664
O10 O 0.1324(2) -0.02988(17) 0.40173(12)
C60 C 0.1107(3) 0.0586(2) 0.38770(15)
N3 N 0.0087(2) 0.07884(19) 0.34186(12)
C61 C -0.1040(3) 0.0026(2) 0.31133(16)
H97 H -0.0911 -0.0652 0.3261
H98 H -0.1197 -0.0116 0.2630
C62 C -0.2170(3) 0.0502(2) 0.33164(17)
H99 H -0.2942 0.0053 0.3060
H100 H -0.2084 0.0504 0.3787
C63 C -0.2276(3) 0.1642(2) 0.32005(15)
C64 C -0.3472(3) 0.2044(2) 0.30721(18)
H101 H -0.4193 0.1594 0.3040
O11 O -0.4714(2) 0.35582(19) 0.28730(16)
C65 C -0.3590(3) 0.3092(3) 0.29930(19)
O12 O -0.2716(2) 0.47991(18) 0.29515(15)
C66 C -0.2507(3) 0.3767(2) 0.30344(18)
C67 C -0.1341(3) 0.3374(2) 0.31490(16)
H102 H -0.0623 0.3820 0.3170
C68 C -0.1215(3) 0.2310(2) 0.32349(14)
C69 C 0.0113(3) 0.1931(2) 0.33569(15)
C70 C 0.0747(3) 0.2107(2) 0.27995(15)
H103 H 0.0854 0.2876 0.2813
H104 H 0.1588 0.1862 0.2902
C71 C 0.0053(3) 0.1551(3) 0.20929(16)
H105 H -0.0033 0.0777 0.2067
H106 H -0.0793 0.1784 0.1983
C72 C 0.0726(4) 0.1792(4) 0.15994(19)
H107 H 0.0839 0.2510 0.1565
C73 C 0.1175(5) 0.1082(5) 0.1209(2)
H108 H 0.1083 0.0355 0.1227
H109 H 0.1589 0.1301 0.0911
C74 C -0.5835(3) 0.2914(3) 0.2838(3)
H110 H -0.6550 0.3328 0.2752
H111 H -0.5762 0.2686 0.3255
H112 H -0.5953 0.2292 0.2482
C75 C -0.1642(3) 0.5521(3) 0.30434(19)
H113 H -0.1904 0.6211 0.2969
H114 H -0.1167 0.5248 0.2731
H115 H -0.1119 0.5600 0.3492
C76 C -0.0191(4) 0.2094(3) 0.56712(17)
H116 H -0.0991 0.1787 0.5344
C77 C 0.0634(4) 0.1167(3) 0.5721(2)
H117 H 0.0254 0.0634 0.5904
H118 H 0.1463 0.1433 0.6008
H119 H 0.0709 0.0847 0.5283
C78 C -0.0536(5) 0.2473(4) 0.6334(2)
H120 H -0.0871 0.1863 0.6472
H121 H -0.1163 0.2977 0.6275
H122 H 0.0210 0.2817 0.6671
C79 C 0.2196(3) 0.3607(3) 0.57606(16)
H123 H 0.2587 0.2945 0.5837
C80 C 0.2992(4) 0.4162(3) 0.53916(19)
H124 H 0.3844 0.4346 0.5669
H125 H 0.2630 0.4806 0.5291
H126 H 0.3002 0.3682 0.4983
C81 C 0.2308(5) 0.4305(4) 0.6460(2)
H127 H 0.3187 0.4521 0.6684
H128 H 0.1940 0.3892 0.6719
H129 H 0.1865 0.4934 0.6414
C82 C -0.0523(4) 0.4342(3) 0.53249(19)
H130 H -0.0449 0.4666 0.5795
C83 C -0.1925(4) 0.3934(4) 0.4997(2)
H131 H -0.2429 0.4535 0.5006
H132 H -0.2202 0.3437 0.5239
H133 H -0.2021 0.3576 0.4542
C84 C -0.0096(5) 0.5221(3) 0.5002(2)
H134 H -0.0641 0.5791 0.5024
H135 H -0.0137 0.4925 0.4542
H136 H 0.0762 0.5503 0.5235
Si4 Si 0.57622(8) 0.38658(7) 1.02783(4)
C85 C 0.5828(3) 0.2981(3) 0.89659(15)
H137 H 0.6299 0.3643 0.8937
O13 O 0.5261(2) 0.31478(19) 0.95086(11)
C86 C 0.6680(3) 0.2053(3) 0.90332(17)
H138 H 0.7318 0.2090 0.8786
H139 H 0.7099 0.2068 0.9499
O14 O 0.5905(3) 0.0148(2) 0.88383(13)
C87 C 0.5761(3) 0.1059(3) 0.87365(16)
N4 N 0.4733(2) 0.1343(2) 0.83226(13)
C88 C 0.3559(3) 0.0635(3) 0.80391(19)
H140 H 0.3679 -0.0076 0.8141
H141 H 0.3308 0.0561 0.7556
C89 C 0.2534(3) 0.1132(3) 0.8345(2)
H142 H 0.1719 0.0720 0.8123
H143 H 0.2728 0.1101 0.8816
C90 C 0.2453(3) 0.2288(2) 0.82703(15)
C91 C 0.1288(3) 0.2727(2) 0.82029(15)
H144 H 0.0567 0.2290 0.8187
O15 O 0.0070(2) 0.42689(17) 0.80821(12)
C92 C 0.1185(3) 0.3790(2) 0.81604(15)
C93 C 0.2261(3) 0.4451(2) 0.81853(15)
O16 O 0.2080(2) 0.55056(17) 0.81549(12)
C94 C 0.3410(3) 0.4024(2) 0.82378(14)
H145 H 0.4126 0.4462 0.8247
C95 C 0.3517(3) 0.2937(2) 0.82778(14)
C96 C 0.4808(3) 0.2507(2) 0.83068(15)
C97 C 0.5315(3) 0.2717(2) 0.77131(15)
H146 H 0.5332 0.3483 0.7711
H147 H 0.6182 0.2530 0.7784
C98 C 0.4550(3) 0.2097(3) 0.70293(16)
H148 H 0.4567 0.1330 0.7023
H149 H 0.3673 0.2257 0.6966
C99 C 0.5007(4) 0.2343(4) 0.6457(2)
H150 H 0.4591 0.1931 0.6038
C100 C 0.5889(4) 0.3039(5) 0.6464(2)
H151 H 0.6344 0.3478 0.6866
H152 H 0.6082 0.3111 0.6066
C101 C -0.1047(3) 0.3632(3) 0.80603(19)
H153 H -0.1754 0.4058 0.8001
H154 H -0.0944 0.3380 0.8472
H155 H -0.1201 0.3024 0.7693
C102 C 0.3166(3) 0.6195(3) 0.81766(18)
H156 H 0.2926 0.6909 0.8151
H157 H 0.3503 0.5922 0.7805
H158 H 0.3799 0.6221 0.8588
C103 C 0.5746(5) 0.3015(4) 1.0920(3)
H159 H 0.5975 0.3518 1.1355
C104 C 0.4488(6) 0.2413(6) 1.0878(4)
H160 H 0.4607 0.1963 1.1204
H161 H 0.4164 0.1972 1.0438
H162 H 0.3896 0.2921 1.0964
C105 C 0.6760(7) 0.2221(7) 1.0957(5)
H163 H 0.6690 0.1793 1.1282
H164 H 0.7587 0.2614 1.1087
H165 H 0.6639 0.1757 1.0527
C109 C 0.4530(4) 0.4837(4) 1.03732(19)
H173 H 0.4655 0.5126 1.0852
C110 C 0.3179(4) 0.4295(5) 1.0094(3)
H174 H 0.2590 0.4819 1.0154
H175 H 0.3057 0.3729 1.0327
H176 H 0.3039 0.3994 0.9626
C111 C 0.4671(5) 0.5784(4) 1.0033(3)
H177 H 0.4036 0.6262 1.0094
H178 H 0.4567 0.5518 0.9563
H179 H 0.5499 0.6167 1.0227
C112 C 0.7345(3) 0.4694(3) 1.04311(18)
H180 H 0.7208 0.5183 1.0115
C113 C 0.8488(4) 0.4092(3) 1.0321(2)
H181 H 0.9222 0.4602 1.0416
H182 H 0.8305 0.3710 0.9864
H183 H 0.8651 0.3587 1.0614
C114 C 0.7686(5) 0.5409(4) 1.1128(2)
H184 H 0.8485 0.5827 1.1203
H185 H 0.7750 0.4967 1.1457
H186 H 0.7038 0.5886 1.1164
C49? C 0.6514(9) 0.6351(10) 0.6357(6)
H73? H 0.6445 0.5674 0.6051
H74? H 0.6060 0.6858 0.6127
H75? H 0.6160 0.6247 0.6719
C50? C 0.7908(7) 0.6784(6) 0.6635(4)
H76? H 0.8270 0.6872 0.6264
C51? C 0.8496(9) 0.5859(7) 0.6948(5)
H77? H 0.8333 0.5206 0.6612
H78? H 0.8126 0.5755 0.7304
H79? H 0.9396 0.6037 0.7123
C106? C 0.5049(13) 0.1778(11) 1.0493(7)
H166? H 0.5116 0.1343 1.0826
H167? H 0.5161 0.1350 1.0088
H168? H 0.4227 0.2041 1.0405
C107? C 0.6357(18) 0.3101(14) 1.1495(6)
H169? H 0.6205 0.2502 1.1696
H170? H 0.5821 0.3651 1.1600
H171? H 0.7231 0.3390 1.1667
C108? C 0.6066(12) 0.2724(9) 1.0745(5)
H172? H 0.6842 0.2444 1.0656
loop_
_geom_bond_atom_site_label_1
_geom_bond_atom_site_label_2
_geom_bond_site_symmetry_1
_geom_bond_site_symmetry_2
Si1 O1 1_555 1_555
O1 C1 1_555 1_555
C1 H1 1_555 1_555
C2 C1 1_555 1_555
H2 C2 1_555 1_555
H3 C2 1_555 1_555
O2 C3 1_555 1_555
C3 C2 1_555 1_555
N1 C3 1_555 1_555
C4 N1 1_555 1_555
H4 C4 1_555 1_555
H5 C4 1_555 1_555
C5 C4 1_555 1_555
H6 C5 1_555 1_555
H7 C5 1_555 1_555
C6 C5 1_555 1_555
C7 C6 1_555 1_555
H8 C7 1_555 1_555
O3 C8 1_555 1_555
C8 C7 1_555 1_555
O4 C9 1_555 1_555
C9 C8 1_555 1_555
C10 C9 1_555 1_555
H9 C10 1_555 1_555
C11 C6 1_555 1_555
C12 C1 1_555 1_555
C13 C12 1_555 1_555
H10 C13 1_555 1_555
H11 C13 1_555 1_555
C14 C13 1_555 1_555
H12 C14 1_555 1_555
H13 C14 1_555 1_555
C15 C14 1_555 1_555
H14 C15 1_555 1_555
C16 C15 1_555 1_555
H15 C16 1_555 1_555
H16 C16 1_555 1_555
C17 O3 1_555 1_555
H17 C17 1_555 1_555
H18 C17 1_555 1_555
H19 C17 1_555 1_555
C18 O4 1_555 1_555
H20 C18 1_555 1_555
H21 C18 1_555 1_555
H22 C18 1_555 1_555
C19 Si1 1_555 1_555
H23 C19 1_555 1_555
C20 C19 1_555 1_555
H24 C20 1_555 1_555
H25 C20 1_555 1_555
H26 C20 1_555 1_555
C21 C19 1_555 1_555
H27 C21 1_555 1_555
H28 C21 1_555 1_555
H29 C21 1_555 1_555
C22 Si1 1_555 1_555
H30 C22 1_555 1_555
C23 C22 1_555 1_555
H31 C23 1_555 1_555
H32 C23 1_555 1_555
H33 C23 1_555 1_555
C24 C22 1_555 1_555
H34 C24 1_555 1_555
H35 C24 1_555 1_555
H36 C24 1_555 1_555
C25 Si1 1_555 1_555
H37 C25 1_555 1_555
C26 C25 1_555 1_555
H38 C26 1_555 1_555
H39 C26 1_555 1_555
H40 C26 1_555 1_555
C27 C25 1_555 1_555
H41 C27 1_555 1_555
H42 C27 1_555 1_555
H43 C27 1_555 1_555
Si2 O5 1_555 1_555
O5 C28 1_555 1_555
C28 H44 1_555 1_555
C29 C28 1_555 1_555
H45 C29 1_555 1_555
H46 C29 1_555 1_555
O6 C30 1_555 1_555
C30 C29 1_555 1_555
N2 C30 1_555 1_555
C31 N2 1_555 1_555
H47 C31 1_555 1_555
H48 C31 1_555 1_555
C32 C31 1_555 1_555
H49 C32 1_555 1_555
H50 C32 1_555 1_555
C33 C32 1_555 1_555
C34 C33 1_555 1_555
H51 C34 1_555 1_555
O7 C35 1_555 1_555
C35 C34 1_555 1_555
O8 C36 1_555 1_555
C36 C35 1_555 1_555
C37 C36 1_555 1_555
H52 C37 1_555 1_555
C38 C33 1_555 1_555
C39 C28 1_555 1_555
C40 C39 1_555 1_555
H53 C40 1_555 1_555
H54 C40 1_555 1_555
C41 C40 1_555 1_555
H55 C41 1_555 1_555
H56 C41 1_555 1_555
C42 C41 1_555 1_555
H57 C42 1_555 1_555
C43 C42 1_555 1_555
H58 C43 1_555 1_555
H59 C43 1_555 1_555
C44 O7 1_555 1_555
H60 C44 1_555 1_555
H61 C44 1_555 1_555
H62 C44 1_555 1_555
C45 O8 1_555 1_555
H63 C45 1_555 1_555
H64 C45 1_555 1_555
H65 C45 1_555 1_555
C46 Si2 1_555 1_555
H66 C46 1_555 1_555
C47 C46 1_555 1_555
H67 C47 1_555 1_555
H68 C47 1_555 1_555
H69 C47 1_555 1_555
C48 C46 1_555 1_555
H70 C48 1_555 1_555
H71 C48 1_555 1_555
H72 C48 1_555 1_555
C52 Si2 1_555 1_555
H80 C52 1_555 1_555
C53 C52 1_555 1_555
H81 C53 1_555 1_555
H82 C53 1_555 1_555
H83 C53 1_555 1_555
C54 C52 1_555 1_555
H84 C54 1_555 1_555
H85 C54 1_555 1_555
H86 C54 1_555 1_555
C55 Si2 1_555 1_555
H87 C55 1_555 1_555
C56 C55 1_555 1_555
H88 C56 1_555 1_555
H89 C56 1_555 1_555
H90 C56 1_555 1_555
C57 C55 1_555 1_555
H91 C57 1_555 1_555
H92 C57 1_555 1_555
H93 C57 1_555 1_555
Si3 O9 1_555 1_555
O9 C58 1_555 1_555
C58 H94 1_555 1_555
C59 C58 1_555 1_555
H95 C59 1_555 1_555
H96 C59 1_555 1_555
O10 C60 1_555 1_555
C60 C59 1_555 1_555
N3 C60 1_555 1_555
C61 N3 1_555 1_555
H97 C61 1_555 1_555
H98 C61 1_555 1_555
C62 C61 1_555 1_555
H99 C62 1_555 1_555
H100 C62 1_555 1_555
C63 C62 1_555 1_555
C64 C63 1_555 1_555
H101 C64 1_555 1_555
O11 C65 1_555 1_555
C65 C64 1_555 1_555
O12 C66 1_555 1_555
C66 C65 1_555 1_555
C67 C66 1_555 1_555
H102 C67 1_555 1_555
C68 C63 1_555 1_555
C69 C58 1_555 1_555
C70 C69 1_555 1_555
H103 C70 1_555 1_555
H104 C70 1_555 1_555
C71 C70 1_555 1_555
H105 C71 1_555 1_555
H106 C71 1_555 1_555
C72 C71 1_555 1_555
H107 C72 1_555 1_555
C73 C72 1_555 1_555
H108 C73 1_555 1_555
H109 C73 1_555 1_555
C74 O11 1_555 1_555
H110 C74 1_555 1_555
H111 C74 1_555 1_555
H112 C74 1_555 1_555
C75 O12 1_555 1_555
H113 C75 1_555 1_555
H114 C75 1_555 1_555
H115 C75 1_555 1_555
C76 Si3 1_555 1_555
H116 C76 1_555 1_555
C77 C76 1_555 1_555
H117 C77 1_555 1_555
H118 C77 1_555 1_555
H119 C77 1_555 1_555
C78 C76 1_555 1_555
H120 C78 1_555 1_555
H121 C78 1_555 1_555
H122 C78 1_555 1_555
C79 Si3 1_555 1_555
H123 C79 1_555 1_555
C80 C79 1_555 1_555
H124 C80 1_555 1_555
H125 C80 1_555 1_555
H126 C80 1_555 1_555
C81 C79 1_555 1_555
H127 C81 1_555 1_555
H128 C81 1_555 1_555
H129 C81 1_555 1_555
C82 Si3 1_555 1_555
H130 C82 1_555 1_555
C83 C82 1_555 1_555
H131 C83 1_555 1_555
H132 C83 1_555 1_555
H133 C83 1_555 1_555
C84 C82 1_555 1_555
H134 C84 1_555 1_555
H135 C84 1_555 1_555
H136 C84 1_555 1_555
Si4 O13 1_555 1_555
C85 H137 1_555 1_555
O13 C85 1_555 1_555
C86 C85 1_555 1_555
H138 C86 1_555 1_555
H139 C86 1_555 1_555
O14 C87 1_555 1_555
C87 C86 1_555 1_555
N4 C87 1_555 1_555
C88 N4 1_555 1_555
H140 C88 1_555 1_555
H141 C88 1_555 1_555
C89 C88 1_555 1_555
H142 C89 1_555 1_555
H143 C89 1_555 1_555
C90 C89 1_555 1_555
C91 C90 1_555 1_555
H144 C91 1_555 1_555
O15 C92 1_555 1_555
C92 C91 1_555 1_555
C93 C92 1_555 1_555
O16 C93 1_555 1_555
C94 C93 1_555 1_555
H145 C94 1_555 1_555
C95 C90 1_555 1_555
C96 C85 1_555 1_555
C97 C96 1_555 1_555
H146 C97 1_555 1_555
H147 C97 1_555 1_555
C98 C97 1_555 1_555
H148 C98 1_555 1_555
H149 C98 1_555 1_555
C99 C98 1_555 1_555
H150 C99 1_555 1_555
C100 C99 1_555 1_555
H151 C100 1_555 1_555
H152 C100 1_555 1_555
C101 O15 1_555 1_555
H153 C101 1_555 1_555
H154 C101 1_555 1_555
H155 C101 1_555 1_555
C102 O16 1_555 1_555
H156 C102 1_555 1_555
H157 C102 1_555 1_555
H158 C102 1_555 1_555
C103 Si4 1_555 1_555
H159 C103 1_555 1_555
C104 C103 1_555 1_555
H160 C104 1_555 1_555
H161 C104 1_555 1_555
H162 C104 1_555 1_555
C105 C103 1_555 1_555
H163 C105 1_555 1_555
H164 C105 1_555 1_555
H165 C105 1_555 1_555
C109 Si4 1_555 1_555
H173 C109 1_555 1_555
C110 C109 1_555 1_555
H174 C110 1_555 1_555
H175 C110 1_555 1_555
H176 C110 1_555 1_555
C111 C109 1_555 1_555
H177 C111 1_555 1_555
H178 C111 1_555 1_555
H179 C111 1_555 1_555
C112 Si4 1_555 1_555
H180 C112 1_555 1_555
C113 C112 1_555 1_555
H181 C113 1_555 1_555
H182 C113 1_555 1_555
H183 C113 1_555 1_555
C114 C112 1_555 1_555
H184 C114 1_555 1_555
H185 C114 1_555 1_555
H186 C114 1_555 1_555
N1 C12 1_555 1_555
C10 C11 1_555 1_555
C11 C12 1_555 1_555
N2 C39 1_555 1_555
C37 C38 1_555 1_555
C38 C39 1_555 1_555
N3 C69 1_555 1_555
C67 C68 1_555 1_555
C68 C69 1_555 1_555
N4 C96 1_555 1_555
C94 C95 1_555 1_555
C95 C96 1_555 1_555

#END
