
#######################################################################
#
#                 Cambridge Crystallographic Data Centre
#                                CCDC 
#
#######################################################################
#
# If this CIF has been generated from an entry in the Cambridge 
# Structural Database, then it will include bibliographic, chemical, 
# crystal, experimental, refinement or atomic coordinate data resulting 
# from the CCDC's data processing and validation procedures.
#
#######################################################################

data_NIJHUJ02
_chemical_formula_moiety         'C3 H8 N2 O1'
_chemical_name_systematic        1,3-Dimethylurea
_symmetry_cell_setting           orthorhombic
_symmetry_space_group_name_H-M   'P 21 21 2'
_symmetry_Int_Tables_number      18
_space_group_name_Hall           'P 2 2ab'
loop_
_symmetry_equiv_pos_site_id
_symmetry_equiv_pos_as_xyz
1 x,y,z
2 1/2+x,1/2-y,-z
3 1/2-x,1/2+y,-z
4 -x,-y,z
_cell_length_a                   4.9790(10)
_cell_length_b                   10.775(2)
_cell_length_c                   4.5764(9)
_cell_angle_alpha                90
_cell_angle_beta                 90
_cell_angle_gamma                90
_cell_volume                     245.518
_exptl_crystal_colour            colorless
_exptl_crystal_description       block
_cell_formula_units_Z            2
loop_
_atom_site_label
_atom_site_type_symbol
_atom_site_fract_x
_atom_site_fract_y
_atom_site_fract_z
O1 O 0.5000 0.5000 0.4407(4)
C1 C 0.5000 0.5000 0.7117(5)
N1 N 0.6617(3) 0.57528(14) 0.8670(3)
C2 C 0.8518(4) 0.65689(18) 0.7299(4)
H1 H 0.9622 0.6913 0.8634
H2 H 0.7722 0.7161 0.6209
H3 H 0.9634 0.6092 0.5900
H4 H 0.6598 0.5690 1.0550
N1C N 0.3383(3) 0.42472(14) 0.8670(3)
C2C C 0.1482(4) 0.34311(18) 0.7299(4)
H1C H 0.0378 0.3087 0.8634
H2C H 0.2278 0.2839 0.6209
H3C H 0.0366 0.3908 0.5900
H4C H 0.3402 0.4310 1.0550
loop_
_geom_bond_atom_site_label_1
_geom_bond_atom_site_label_2
_geom_bond_site_symmetry_1
_geom_bond_site_symmetry_2
O1 C1 1_555 1_555
C1 N1 1_555 1_555
N1 C2 1_555 1_555
C2 H1 1_555 1_555
H2 C2 1_555 1_555
H3 C2 1_555 1_555
H4 N1 1_555 1_555
N1C C1 1_555 1_555
C2C N1C 1_555 1_555
H1C C2C 1_555 1_555
H2C C2C 1_555 1_555
H3C C2C 1_555 1_555
H4C N1C 1_555 1_555

#END
