
#######################################################################
#
#                 Cambridge Crystallographic Data Centre
#                                CCDC 
#
#######################################################################
#
# If this CIF has been generated from an entry in the Cambridge 
# Structural Database, then it will include bibliographic, chemical, 
# crystal, experimental, refinement or atomic coordinate data resulting 
# from the CCDC's data processing and validation procedures.
#
#######################################################################

data_NIJKIA
_chemical_formula_moiety         'C24 H23 N1 O1 S2'
_chemical_name_systematic        
7-Acetyl-2,3:8,9-dibenzo-5,6-(4,5-diethylbenzo)-1,4-dithia-7-azacyclonona-2,5,8-triene
_symmetry_cell_setting           triclinic
_symmetry_space_group_name_H-M   'P -1'
_symmetry_Int_Tables_number      2
_space_group_name_Hall           '-P 1'
loop_
_symmetry_equiv_pos_site_id
_symmetry_equiv_pos_as_xyz
1 x,y,z
2 -x,-y,-z
_cell_length_a                   9.967(1)
_cell_length_b                   14.651(1)
_cell_length_c                   15.133(2)
_cell_angle_alpha                80.99(1)
_cell_angle_beta                 72.95(1)
_cell_angle_gamma                86.92(1)
_cell_volume                     2086.56
_exptl_crystal_colour            colorless
_chemical_melting_point          191-192deg.C
_cell_formula_units_Z            4
loop_
_atom_site_label
_atom_site_type_symbol
_atom_site_fract_x
_atom_site_fract_y
_atom_site_fract_z
S1 S 0.5961 0.4572 0.1508
S2 S 0.5595 0.6405 -0.0109
O1 O 0.6307 0.7949 0.1132
N1 N 0.6969 0.6506 0.1577
C1 C 0.4460 0.5327 0.1663
C2 C 0.3375 0.5120 0.2460
C3 C 0.2156 0.5680 0.2633
C4 C 0.2069 0.6454 0.1967
C5 C 0.3183 0.6663 0.1178
C6 C 0.4405 0.6093 0.1005
C7 C 0.7337 0.6323 -0.0073
C8 C 0.8287 0.6165 -0.0927
C9 C 0.9750 0.6144 -0.1049
C10 C 1.0248 0.6217 -0.0304
C11 C 0.9327 0.6364 0.0540
C12 C 0.7901 0.6412 0.0671
C13 C 0.7088 0.5801 0.2326
C14 C 0.7649 0.6027 0.3009
C15 C 0.7779 0.5352 0.3746
C16 C 0.7365 0.4470 0.3785
C17 C 0.6814 0.4226 0.3090
C18 C 0.6672 0.4895 0.2366
C19 C 0.7483 0.3678 0.4573
C20 C 0.8994 0.3269 0.4314
C21 C 0.8338 0.5679 0.4476
C22 C 0.7314 0.6264 0.5032
C23 C 0.6213 0.7297 0.1754
C24 C 0.5197 0.7332 0.2700
S3 S 0.9150 1.0989 -0.3633
S4 S 1.0372 0.8920 -0.2866
N2 N 1.1575 1.0687 -0.2525
O2 O 1.0638 1.2103 -0.2350
C25 C 0.8544 1.0400 -0.2487
C26 C 0.7423 1.0847 -0.1909
C27 C 0.6706 1.0396 -0.1027
C28 C 0.7120 0.9504 -0.0697
C29 C 0.8262 0.9080 -0.1280
C30 C 0.8977 0.9519 -0.2163
C31 C 1.1663 0.8999 -0.2294
C32 C 1.2245 0.8166 -0.1969
C33 C 1.3284 0.8179 -0.1523
C34 C 1.3738 0.9028 -0.1395
C35 C 1.3157 0.9863 -0.1720
C36 C 1.2116 0.9831 -0.2163
C37 C 1.1969 1.0915 -0.3537
C38 C 1.3396 1.1022 -0.3998
C39 C 1.3906 1.1197 -0.4974
C40 C 1.2897 1.1254 -0.5476
C41 C 1.1495 1.1160 -0.5026
C42 C 1.0990 1.0999 -0.4042
C43 C 1.3344 1.1354 -0.6559
C44 C 1.3151 1.2331 -0.7008
C45 C 1.5475 1.1318 -0.5482
C46 C 1.6402 1.1213 -0.4832
C47 C 1.0882 1.1325 -0.1991
C48 C 1.0380 1.1048 -0.0937
loop_
_geom_bond_atom_site_label_1
_geom_bond_atom_site_label_2
_geom_bond_site_symmetry_1
_geom_bond_site_symmetry_2
S1 C1 1_555 1_555
S2 C6 1_555 1_555
O1 C23 1_555 1_555
N1 C12 1_555 1_555
C1 C2 1_555 1_555
C2 C3 1_555 1_555
C3 C4 1_555 1_555
C4 C5 1_555 1_555
C5 C6 1_555 1_555
C6 C1 1_555 1_555
C7 S2 1_555 1_555
C8 C7 1_555 1_555
C9 C8 1_555 1_555
C10 C9 1_555 1_555
C11 C10 1_555 1_555
C12 C7 1_555 1_555
C13 N1 1_555 1_555
C14 C13 1_555 1_555
C15 C14 1_555 1_555
C16 C15 1_555 1_555
C17 C16 1_555 1_555
C18 S1 1_555 1_555
C19 C16 1_555 1_555
C20 C19 1_555 1_555
C21 C15 1_555 1_555
C22 C21 1_555 1_555
C23 N1 1_555 1_555
C24 C23 1_555 1_555
S3 C25 1_555 1_555
S4 C30 1_555 1_555
N2 C36 1_555 1_555
O2 C47 1_555 1_555
C25 C26 1_555 1_555
C26 C27 1_555 1_555
C27 C28 1_555 1_555
C28 C29 1_555 1_555
C29 C30 1_555 1_555
C30 C25 1_555 1_555
C31 S4 1_555 1_555
C32 C31 1_555 1_555
C33 C32 1_555 1_555
C34 C33 1_555 1_555
C35 C34 1_555 1_555
C36 C31 1_555 1_555
C37 N2 1_555 1_555
C38 C37 1_555 1_555
C39 C38 1_555 1_555
C40 C39 1_555 1_555
C41 C40 1_555 1_555
C42 S3 1_555 1_555
C43 C40 1_555 1_555
C44 C43 1_555 1_555
C45 C39 1_555 1_555
C46 C45 1_555 1_555
C47 N2 1_555 1_555
C48 C47 1_555 1_555
C11 C12 1_555 1_555
C13 C18 1_555 1_555
C17 C18 1_555 1_555
C35 C36 1_555 1_555
C37 C42 1_555 1_555
C41 C42 1_555 1_555

#END
