
#######################################################################
#
#                 Cambridge Crystallographic Data Centre
#                                CCDC 
#
#######################################################################
#
# If this CIF has been generated from an entry in the Cambridge 
# Structural Database, then it will include bibliographic, chemical, 
# crystal, experimental, refinement or atomic coordinate data resulting 
# from the CCDC's data processing and validation procedures.
#
#######################################################################

data_NIJKAV
_chemical_formula_moiety         'C22 H17 Cl1 O2'
_chemical_name_systematic        
2-(4-chlorophenyl)-1,4-diphenylbutane-1,4-dione
_symmetry_cell_setting           triclinic
_symmetry_space_group_name_H-M   'P -1'
_symmetry_Int_Tables_number      2
_space_group_name_Hall           '-P 1'
loop_
_symmetry_equiv_pos_site_id
_symmetry_equiv_pos_as_xyz
1 x,y,z
2 -x,-y,-z
_cell_length_a                   11.476(4)
_cell_length_b                   9.529(3)
_cell_length_c                   16.264(6)
_cell_angle_alpha                90.00
_cell_angle_beta                 93.826(6)
_cell_angle_gamma                90.00
_cell_volume                     1774.58
_cell_formula_units_Z            4
loop_
_atom_site_label
_atom_site_type_symbol
_atom_site_fract_x
_atom_site_fract_y
_atom_site_fract_z
Cl1 Cl 0.7036(8) 0.6594(9) -0.0284(5)
O1 O 0.3669(19) 0.839(2) 0.3244(13)
O2 O 0.207(2) 0.547(3) 0.3494(15)
C1 C 0.270(4) 0.651(4) 0.211(2)
C2 C 0.380(3) 0.606(3) 0.2560(19)
C3 C 0.049(3) 0.644(3) 0.2685(18)
C4 C 0.174(3) 0.604(3) 0.284(2)
C5 C 0.419(3) 0.738(3) 0.3129(18)
C6 C 0.476(3) 0.627(4) 0.188(2)
C7 C 0.615(3) 0.647(3) 0.0546(18)
C8 C -0.023(3) 0.635(4) 0.325(2)
C9 C -0.001(3) 0.677(3) 0.187(2)
C10 C 0.597(3) 0.521(4) 0.108(2)
C11 C 0.518(3) 0.697(3) 0.3820(19)
C12 C 0.554(3) 0.772(4) 0.081(2)
C13 C 0.532(3) 0.523(4) 0.166(2)
C14 C 0.563(3) 0.811(3) 0.4337(18)
C15 C 0.486(3) 0.751(3) 0.1428(17)
C16 C 0.553(3) 0.573(4) 0.401(2)
C17 C -0.159(4) 0.657(4) 0.324(2)
C18 C 0.660(3) 0.786(3) 0.490(2)
C19 C 0.637(3) 0.537(4) 0.468(2)
C20 C 0.684(3) 0.663(3) 0.5147(19)
C21 C -0.191(7) 0.713(8) 0.222(5)
C22 C -0.119(4) 0.719(4) 0.171(2)
loop_
_geom_bond_atom_site_label_1
_geom_bond_atom_site_label_2
_geom_bond_site_symmetry_1
_geom_bond_site_symmetry_2
Cl1 C7 1_555 1_555
O1 C5 1_555 1_555
O2 C4 1_555 1_555
C1 C2 1_555 1_555
C2 C5 1_555 1_555
C3 C4 1_555 1_555
C4 C1 1_555 1_555
C5 C11 1_555 1_555
C6 C2 1_555 1_555
C7 C10 1_555 1_555
C8 C3 1_555 1_555
C9 C3 1_555 1_555
C10 C13 1_555 1_555
C11 C14 1_555 1_555
C12 C7 1_555 1_555
C13 C6 1_555 1_555
C14 C18 1_555 1_555
C15 C6 1_555 1_555
C16 C11 1_555 1_555
C17 C8 1_555 1_555
C18 C20 1_555 1_555
C19 C16 1_555 1_555
C20 C19 1_555 1_555
C21 C17 1_555 1_555
C22 C9 1_555 1_555
C12 C15 1_555 1_555
C21 C22 1_555 1_555

#END
