
#######################################################################
#
#                 Cambridge Crystallographic Data Centre
#                                CCDC 
#
#######################################################################
#
# If this CIF has been generated from an entry in the Cambridge 
# Structural Database, then it will include bibliographic, chemical, 
# crystal, experimental, refinement or atomic coordinate data resulting 
# from the CCDC's data processing and validation procedures.
#
#######################################################################

data_NIJKAS
_chemical_formula_moiety         'C15 H15 N1 O2 S1'
_chemical_name_systematic        
rel-(1R,5R,6R)-5-Methoxy-8-phenyl-7-thioxo-8-azabicyclo(4.3.0)-3-nonen-9-one
_symmetry_cell_setting           orthorhombic
_symmetry_space_group_name_H-M   'P b c a'
_symmetry_Int_Tables_number      61
_space_group_name_Hall           '-P 2ac 2ab'
loop_
_symmetry_equiv_pos_site_id
_symmetry_equiv_pos_as_xyz
1 x,y,z
2 1/2-x,-y,1/2+z
3 1/2+x,1/2-y,-z
4 -x,1/2+y,1/2-z
5 -x,-y,-z
6 1/2+x,y,1/2-z
7 1/2-x,1/2+y,z
8 x,1/2-y,1/2+z
_cell_length_a                   14.956(3)
_cell_length_b                   19.759(2)
_cell_length_c                   9.522(2)
_cell_angle_alpha                90
_cell_angle_beta                 90
_cell_angle_gamma                90
_cell_volume                     2813.9
_exptl_crystal_colour            colorless
_exptl_crystal_description       prismatic
_chemical_melting_point          147.2-147.8deg.C
_cell_formula_units_Z            8
loop_
_atom_site_label
_atom_site_type_symbol
_atom_site_fract_x
_atom_site_fract_y
_atom_site_fract_z
S1 S 0.0566(1) 0.0884(1) 0.0450(2)
O1 O -0.2251(3) 0.0941(3) -0.2230(6)
O2 O 0.0037(3) 0.1844(3) -0.2607(6)
N1 N -0.1053(3) 0.0908(3) -0.0756(5)
C1 C -0.0145(4) 0.0812(4) -0.0831(6)
C2 C 0.0084(5) 0.0660(4) -0.2357(8)
C3 C -0.0821(5) 0.0526(4) -0.3065(7)
C4 C -0.1492(5) 0.0814(4) -0.2048(7)
C5 C 0.0551(5) 0.1265(5) -0.2977(8)
C6 C 0.0587(7) 0.1185(5) -0.455(1)
C7 C -0.0094(8) 0.0974(5) -0.5245(8)
C8 C -0.0944(7) 0.0784(5) -0.4565(10)
C9 C 0.054(1) 0.2449(6) -0.265(2)
C10 C -0.1509(4) 0.1166(4) 0.0461(7)
C11 C -0.1941(5) 0.0708(4) 0.1326(8)
C12 C -0.2374(5) 0.0960(5) 0.2493(9)
C13 C -0.2375(6) 0.1619(6) 0.2777(9)
C14 C -0.1941(6) 0.2076(5) 0.191(1)
C15 C -0.1516(5) 0.1830(5) 0.0732(9)
H1 H 0.040(3) 0.026(2) -0.234(5)
H2 H -0.084(4) 0.003(3) -0.303(6)
H3 H -0.119(5) 0.038(4) -0.518(9)
H4 H -0.130(5) 0.115(4) -0.452(8)
H5 H -0.004(5) 0.098(5) -0.626(7)
H6 H 0.109(4) 0.130(3) -0.481(7)
H7 H 0.108(4) 0.124(3) -0.249(6)
H8 H 0.062(7) 0.255(6) -0.351(9)
H9 H 0.025(6) 0.279(4) -0.24(1)
H10 H -0.197(3) 0.027(2) 0.098(5)
H11 H -0.264(4) 0.066(3) 0.303(6)
H12 H -0.264(4) 0.182(3) 0.354(6)
H13 H -0.191(4) 0.259(3) 0.213(7)
H14 H -0.109(4) 0.211(3) 0.011(7)
H15? H 0.080(8) 0.206(6) -0.16(1)
loop_
_geom_bond_atom_site_label_1
_geom_bond_atom_site_label_2
_geom_bond_site_symmetry_1
_geom_bond_site_symmetry_2
S1 C1 1_555 1_555
O1 C4 1_555 1_555
O2 C5 1_555 1_555
N1 C1 1_555 1_555
C1 C2 1_555 1_555
C2 C3 1_555 1_555
C3 C4 1_555 1_555
C4 N1 1_555 1_555
C5 C2 1_555 1_555
C6 C5 1_555 1_555
C7 C6 1_555 1_555
C8 C3 1_555 1_555
C9 O2 1_555 1_555
C10 N1 1_555 1_555
C11 C10 1_555 1_555
C12 C11 1_555 1_555
C13 C12 1_555 1_555
C14 C13 1_555 1_555
C15 C10 1_555 1_555
H1 C2 1_555 1_555
H2 C3 1_555 1_555
H3 C8 1_555 1_555
H4 C8 1_555 1_555
H5 C7 1_555 1_555
H6 C6 1_555 1_555
H7 C5 1_555 1_555
H8 C9 1_555 1_555
H9 C9 1_555 1_555
H10 C11 1_555 1_555
H11 C12 1_555 1_555
H12 C13 1_555 1_555
H13 C14 1_555 1_555
H14 C15 1_555 1_555
C7 C8 1_555 1_555
C14 C15 1_555 1_555

#END
