
#######################################################################
#
#                 Cambridge Crystallographic Data Centre
#                                CCDC 
#
#######################################################################
#
# If this CIF has been generated from an entry in the Cambridge 
# Structural Database, then it will include bibliographic, chemical, 
# crystal, experimental, refinement or atomic coordinate data resulting 
# from the CCDC's data processing and validation procedures.
#
#######################################################################

data_NIJLAU
_chemical_formula_moiety         'C26 H16 N4 S3'
_chemical_name_systematic        
5,5''-bis(1-(7-Azaindole))-2,2':5',2''-terthiophene
_symmetry_cell_setting           monoclinic
_symmetry_space_group_name_H-M   'P 21/c'
_symmetry_Int_Tables_number      14
_space_group_name_Hall           '-P 2ybc'
loop_
_symmetry_equiv_pos_site_id
_symmetry_equiv_pos_as_xyz
1 x,y,z
2 -x,1/2+y,1/2-z
3 -x,-y,-z
4 x,1/2-y,1/2+z
_cell_length_a                   28.210(2)
_cell_length_b                   5.8342(5)
_cell_length_c                   13.1903(11)
_cell_angle_alpha                90
_cell_angle_beta                 96.588(2)
_cell_angle_gamma                90
_cell_volume                     2156.56
_exptl_crystal_colour            brown
_exptl_crystal_description       plate
_cell_formula_units_Z            4
_exptl_crystal_recrystallization_method hexane/dichloromethane
loop_
_atom_site_label
_atom_site_type_symbol
_atom_site_fract_x
_atom_site_fract_y
_atom_site_fract_z
S1 S 0.34951(4) 0.38801(17) 0.85808(8)
S2 S 0.23948(4) 0.59482(18) 1.04893(8)
S3 S 0.16903(4) 0.66032(19) 1.22240(8)
N1 N 0.42832(12) 0.2460(6) 0.7490(3)
N2 N 0.38347(12) 0.5825(6) 0.6914(2)
N3 N 0.11790(12) 0.7166(6) 1.3839(3)
N4 N 0.09239(12) 0.9746(6) 1.2462(3)
C1 C 0.46136(16) 0.0988(7) 0.7209(3)
H1 H 0.4718 -0.0208 0.7670
C2 C 0.48099(17) 0.1100(8) 0.6297(4)
H2 H 0.5045 0.0014 0.6157
C3 C 0.46682(16) 0.2774(8) 0.5588(4)
H3 H 0.4798 0.2849 0.4955
C4 C 0.43291(15) 0.4348(8) 0.5832(3)
C5 C 0.40911(16) 0.6287(8) 0.5367(3)
H4 H 0.4127 0.6879 0.4709
C6 C 0.38050(16) 0.7138(8) 0.6028(3)
H5 H 0.3609 0.8457 0.5904
C7 C 0.41618(14) 0.4087(7) 0.6795(3)
C8 C 0.35439(14) 0.6052(7) 0.7703(3)
C9 C 0.32382(15) 0.7821(7) 0.7825(3)
H6 H 0.3220 0.9175 0.7423
C10 C 0.29583(15) 0.7420(7) 0.8598(3)
H7 H 0.2724 0.8477 0.8772
C11 C 0.30448(14) 0.5385(6) 0.9092(3)
C12 C 0.28307(14) 0.4426(6) 0.9949(3)
C13 C 0.29225(15) 0.2385(7) 1.0458(3)
H8 H 0.3151 0.1305 1.0279
C14 C 0.26468(14) 0.2050(7) 1.1267(3)
H9 H 0.2668 0.0713 1.1681
C15 C 0.23434(14) 0.3841(6) 1.1404(3)
C16 C 0.20428(14) 0.4173(7) 1.2215(3)
C17 C 0.20016(15) 0.2850(7) 1.3044(3)
H10 H 0.2166 0.1437 1.3166
C18 C 0.16902(16) 0.3769(7) 1.3713(3)
H11 H 0.1627 0.3052 1.4330
C19 C 0.14933(15) 0.5786(7) 1.3371(3)
C20 C 0.10821(17) 0.6948(9) 1.4845(3)
H12 H 0.1213 0.5811 1.5311
C21 C 0.07728(17) 0.8603(9) 1.5058(4)
H13 H 0.0647 0.8803 1.5690
C22 C 0.06667(16) 0.9989(8) 1.4178(4)
C23 C 0.03997(17) 1.1959(9) 1.3893(4)
H14 H 0.0223 1.2720 1.4363
C24 C 0.04017(17) 1.2755(9) 1.2914(5)
H15 H 0.0226 1.4094 1.2701
C25 C 0.06598(17) 1.1611(8) 1.2233(4)
H16 H 0.0647 1.2197 1.1558
C26 C 0.09194(15) 0.9036(7) 1.3414(3)
loop_
_geom_bond_atom_site_label_1
_geom_bond_atom_site_label_2
_geom_bond_site_symmetry_1
_geom_bond_site_symmetry_2
S1 C8 1_555 1_555
S2 C12 1_555 1_555
S3 C16 1_555 1_555
N1 C1 1_555 1_555
N2 C6 1_555 1_555
N3 C19 1_555 1_555
N4 C25 1_555 1_555
C1 H1 1_555 1_555
C2 C1 1_555 1_555
H2 C2 1_555 1_555
C3 C2 1_555 1_555
H3 C3 1_555 1_555
C4 C3 1_555 1_555
C5 C4 1_555 1_555
H4 C5 1_555 1_555
C6 C5 1_555 1_555
H5 C6 1_555 1_555
C7 N1 1_555 1_555
C8 N2 1_555 1_555
C9 C8 1_555 1_555
H6 C9 1_555 1_555
C10 C9 1_555 1_555
H7 C10 1_555 1_555
C11 S1 1_555 1_555
C12 C11 1_555 1_555
C13 C12 1_555 1_555
H8 C13 1_555 1_555
C14 C13 1_555 1_555
H9 C14 1_555 1_555
C15 S2 1_555 1_555
C16 C15 1_555 1_555
C17 C16 1_555 1_555
H10 C17 1_555 1_555
C18 C17 1_555 1_555
H11 C18 1_555 1_555
C19 S3 1_555 1_555
C20 N3 1_555 1_555
H12 C20 1_555 1_555
C21 C20 1_555 1_555
H13 C21 1_555 1_555
C22 C21 1_555 1_555
C23 C22 1_555 1_555
H14 C23 1_555 1_555
C24 C23 1_555 1_555
H15 C24 1_555 1_555
C25 C24 1_555 1_555
H16 C25 1_555 1_555
C26 N3 1_555 1_555
N2 C7 1_555 1_555
N4 C26 1_555 1_555
C4 C7 1_555 1_555
C10 C11 1_555 1_555
C14 C15 1_555 1_555
C18 C19 1_555 1_555
C22 C26 1_555 1_555

#END
