
#######################################################################
#
#                 Cambridge Crystallographic Data Centre
#                                CCDC 
#
#######################################################################
#
# If this CIF has been generated from an entry in the Cambridge 
# Structural Database, then it will include bibliographic, chemical, 
# crystal, experimental, refinement or atomic coordinate data resulting 
# from the CCDC's data processing and validation procedures.
#
#######################################################################

data_NIJLIE
_chemical_formula_moiety         'C11 H15 O2 1-,C5 H11 N2 O1 1+'
_chemical_name_systematic        
'2-carbamoylpyrrolidin-1-ium 1-adamantanecarboxylate'
_symmetry_cell_setting           monoclinic
_symmetry_space_group_name_H-M   'P 21'
_symmetry_Int_Tables_number      4
_space_group_name_Hall           'P 2yb'
loop_
_symmetry_equiv_pos_site_id
_symmetry_equiv_pos_as_xyz
1 x,y,z
2 -x,1/2+y,-z
_cell_length_a                   6.6071(5)
_cell_length_b                   9.4244(7)
_cell_length_c                   12.8412(11)
_cell_angle_alpha                90
_cell_angle_beta                 104.868(2)
_cell_angle_gamma                90
_cell_volume                     772.824
_exptl_crystal_colour            white
_exptl_crystal_description       needle
_cell_formula_units_Z            2
loop_
_atom_site_label
_atom_site_type_symbol
_atom_site_fract_x
_atom_site_fract_y
_atom_site_fract_z
O1 O -0.28286(16) 0.37164(11) 0.11985(8)
O2 O -0.25357(18) 0.60246(12) 0.09305(9)
C1 C -0.2013(2) 0.49220(17) 0.14703(12)
C2 C -0.0227(2) 0.50030(18) 0.25071(12)
C3 C -0.0350(3) 0.63785(19) 0.31236(14)
H1 H -0.0313(3) 0.71871(19) 0.26616(14)
H2 H -0.1660(3) 0.64069(19) 0.33322(14)
C4 C 0.1859(2) 0.50013(18) 0.21756(13)
H3 H 0.1970(2) 0.41373(18) 0.17835(13)
H4 H 0.1892(2) 0.58007(18) 0.17044(13)
C5 C -0.0218(3) 0.3722(2) 0.32482(14)
H5 H -0.1522(3) 0.3693(2) 0.34629(14)
H6 H -0.0106(3) 0.2853(2) 0.28622(14)
C6 C 0.1627(3) 0.3827(2) 0.42520(15)
H7 H 0.1609(3) 0.3011(2) 0.47227(15)
C7 C 0.3670(3) 0.3830(2) 0.39022(15)
H8 H 0.4852(3) 0.3880(2) 0.45315(15)
H9 H 0.3786(3) 0.2960(2) 0.35187(15)
C8 C 0.3704(2) 0.5099(2) 0.31748(13)
H10 H 0.5019(2) 0.5103(2) 0.29553(13)
C9 C 0.1487(3) 0.6465(2) 0.41307(15)
H11 H 0.1385(3) 0.7342(2) 0.45244(15)
C10 C 0.3538(3) 0.64568(19) 0.37927(14)
H12 H 0.4709(3) 0.65165(19) 0.44263(14)
H13 H 0.3591(3) 0.72739(19) 0.33412(14)
C11 C 0.1436(3) 0.5191(2) 0.48522(13)
H14 H 0.0132(3) 0.5187(2) 0.50677(13)
H15 H 0.2581(3) 0.5254(2) 0.54974(13)
O3 O 0.95018(18) -0.09860(12) 0.04285(10)
N1 N 0.9634(2) 0.14052(14) 0.05569(11)
H16 H 1.0801(2) 0.14578(14) 0.03792(11)
H17 H 0.9035(2) 0.21657(14) 0.06972(11)
N2 N 0.56632(19) -0.12277(13) 0.06889(10)
H18 H 0.66301(19) -0.19028(13) 0.06962(10)
H19 H 0.47579(19) -0.12187(13) 0.00323(10)
C12 C 0.4520(3) -0.15361(17) 0.15349(13)
H20 H 0.3054(3) -0.17316(17) 0.12070(13)
H21 H 0.5133(3) -0.23460(17) 0.19686(13)
C13 C 0.4765(3) -0.02014(18) 0.22160(14)
H22 H 0.3616(3) 0.04509(18) 0.19423(14)
H23 H 0.4826(3) -0.04258(18) 0.29606(14)
C14 C 0.6829(3) 0.04225(18) 0.21125(13)
H24 H 0.6931(3) 0.14242(18) 0.22921(13)
H25 H 0.8015(3) -0.00737(18) 0.25688(13)
C15 C 0.6696(2) 0.01852(17) 0.09272(12)
H26 H 0.5790(2) 0.09126(17) 0.04999(12)
C16 C 0.8757(2) 0.01492(18) 0.06147(12)
loop_
_geom_bond_atom_site_label_1
_geom_bond_atom_site_label_2
_geom_bond_site_symmetry_1
_geom_bond_site_symmetry_2
O1 C1 1_555 1_555
O2 C1 1_555 1_555
C1 C2 1_555 1_555
C2 C3 1_555 1_555
C3 H1 1_555 1_555
H2 C3 1_555 1_555
C4 C2 1_555 1_555
H3 C4 1_555 1_555
H4 C4 1_555 1_555
C5 C2 1_555 1_555
H5 C5 1_555 1_555
H6 C5 1_555 1_555
C6 C5 1_555 1_555
H7 C6 1_555 1_555
C7 C6 1_555 1_555
H8 C7 1_555 1_555
H9 C7 1_555 1_555
C8 C4 1_555 1_555
H10 C8 1_555 1_555
C9 C3 1_555 1_555
H11 C9 1_555 1_555
C10 C8 1_555 1_555
H12 C10 1_555 1_555
H13 C10 1_555 1_555
C11 C6 1_555 1_555
H14 C11 1_555 1_555
H15 C11 1_555 1_555
O3 C16 1_555 1_555
N1 H16 1_555 1_555
H17 N1 1_555 1_555
N2 H18 1_555 1_555
H19 N2 1_555 1_555
C12 N2 1_555 1_555
H20 C12 1_555 1_555
H21 C12 1_555 1_555
C13 C12 1_555 1_555
H22 C13 1_555 1_555
H23 C13 1_555 1_555
C14 C13 1_555 1_555
H24 C14 1_555 1_555
H25 C14 1_555 1_555
C15 N2 1_555 1_555
H26 C15 1_555 1_555
C16 N1 1_555 1_555
C7 C8 1_555 1_555
C9 C10 1_555 1_555
C9 C11 1_555 1_555
C14 C15 1_555 1_555
C15 C16 1_555 1_555

#END
