
#######################################################################
#
#                 Cambridge Crystallographic Data Centre
#                                CCDC 
#
#######################################################################
#
# If this CIF has been generated from an entry in the Cambridge 
# Structural Database, then it will include bibliographic, chemical, 
# crystal, experimental, refinement or atomic coordinate data resulting 
# from the CCDC's data processing and validation procedures.
#
#######################################################################

data_NIJLOK
_chemical_formula_moiety         '2(C23 H15 N1),C10 H2 N4'
_chemical_name_systematic        
'bis(3-(anthracen-9-yl)-2-phenylprop-2-enenitrile) benzene-1,2,4,5-tetracarbonitrile'
_symmetry_cell_setting           triclinic
_symmetry_space_group_name_H-M   'P -1'
_symmetry_Int_Tables_number      2
_space_group_name_Hall           '-P 1'
loop_
_symmetry_equiv_pos_site_id
_symmetry_equiv_pos_as_xyz
1 x,y,z
2 -x,-y,-z
_cell_length_a                   9.2680(19)
_cell_length_b                   9.789(2)
_cell_length_c                   12.891(3)
_cell_angle_alpha                92.46(3)
_cell_angle_beta                 104.78(3)
_cell_angle_gamma                114.41(3)
_cell_volume                     1015.03
_exptl_crystal_colour            orange
_exptl_crystal_description       block
_cell_formula_units_Z            1
loop_
_atom_site_label
_atom_site_type_symbol
_atom_site_fract_x
_atom_site_fract_y
_atom_site_fract_z
C1 C 0.5909(3) 0.4773(3) 0.2826(2)
N1 N 0.2804(4) 0.0855(3) 0.2034(3)
C2 C 0.6606(3) 0.5479(3) 0.3933(2)
C3 C 0.7894(3) 0.5243(3) 0.4650(2)
H1 H 0.8306 0.4619 0.4397
C4 C 0.8528(4) 0.5940(3) 0.5717(2)
H2 H 0.9366 0.5773 0.6182
C5 C 0.7946(4) 0.6896(3) 0.6126(2)
H3 H 0.8411 0.7368 0.6850
C6 C 0.6721(4) 0.7131(3) 0.5474(2)
H4 H 0.6320 0.7745 0.5755
C7 C 0.6018(3) 0.6445(3) 0.4345(2)
C8 C 0.4768(3) 0.6703(3) 0.3669(2)
H5 H 0.4378 0.7329 0.3948
C9 C 0.4086(3) 0.6039(3) 0.2577(2)
C10 C 0.2803(4) 0.6313(4) 0.1879(3)
H6 H 0.2403 0.6927 0.2160
C11 C 0.2169(4) 0.5694(4) 0.0819(3)
H7 H 0.1354 0.5907 0.0371
C12 C 0.2717(4) 0.4734(4) 0.0380(3)
H8 H 0.2250 0.4305 -0.0353
C13 C 0.3916(4) 0.4420(3) 0.1008(2)
H9 H 0.4273 0.3790 0.0699
C14 C 0.4643(3) 0.5045(3) 0.2143(2)
C15 C 0.6590(3) 0.3815(3) 0.2410(2)
H10 H 0.7693 0.4309 0.2417
C16 C 0.5810(3) 0.2325(3) 0.20251(19)
C17 C 0.4133(4) 0.1515(3) 0.2031(2)
C18 C 0.6565(3) 0.1414(3) 0.16315(18)
C19 C 0.5753(4) -0.0159(3) 0.1426(2)
H11 H 0.4706 -0.0646 0.1519
C20 C 0.6453(5) -0.1018(4) 0.1087(2)
H12 H 0.5884 -0.2075 0.0964
C21 C 0.7969(5) -0.0338(4) 0.0932(2)
H13 H 0.8442 -0.0922 0.0703
C22 C 0.8800(4) 0.1228(4) 0.1117(3)
H14 H 0.9836 0.1705 0.1008
C23 C 0.8102(4) 0.2088(3) 0.1463(2)
H15 H 0.8677 0.3144 0.1586
N2 N 0.3514(4) 0.8613(4) 0.5473(2)
N3 N -0.0104(3) 0.7243(3) 0.2605(2)
C24 C -0.1191(3) 0.9592(3) 0.3999(2)
H16 H -0.1986 0.9335 0.3323
C25 C -0.0014(3) 0.9059(3) 0.4158(2)
C26 C 0.1210(3) 0.9486(3) 0.5160(2)
C27 C 0.2489(4) 0.8993(3) 0.5326(2)
C28 C -0.0038(3) 0.8066(3) 0.3291(2)
N2A N -0.3514(4) 1.1387(4) 0.4527(2)
N3A N 0.0104(3) 1.2757(3) 0.7395(2)
C24A C 0.1191(3) 1.0408(3) 0.6001(2)
H16A H 0.1986 1.0665 0.6677
C25A C 0.0014(3) 1.0941(3) 0.5842(2)
C26A C -0.1210(3) 1.0514(3) 0.4840(2)
C27A C -0.2489(4) 1.1007(3) 0.4674(2)
C28A C 0.0038(3) 1.1934(3) 0.6709(2)
loop_
_geom_bond_atom_site_label_1
_geom_bond_atom_site_label_2
_geom_bond_site_symmetry_1
_geom_bond_site_symmetry_2
C1 C2 1_555 1_555
N1 C17 1_555 1_555
C2 C3 1_555 1_555
C3 H1 1_555 1_555
C4 C3 1_555 1_555
H2 C4 1_555 1_555
C5 C4 1_555 1_555
H3 C5 1_555 1_555
C6 C5 1_555 1_555
H4 C6 1_555 1_555
C7 C2 1_555 1_555
C8 C7 1_555 1_555
H5 C8 1_555 1_555
C9 C8 1_555 1_555
C10 C9 1_555 1_555
H6 C10 1_555 1_555
C11 C10 1_555 1_555
H7 C11 1_555 1_555
C12 C11 1_555 1_555
H8 C12 1_555 1_555
C13 C12 1_555 1_555
H9 C13 1_555 1_555
C14 C1 1_555 1_555
C15 C1 1_555 1_555
H10 C15 1_555 1_555
C16 C15 1_555 1_555
C17 C16 1_555 1_555
C18 C16 1_555 1_555
C19 C18 1_555 1_555
H11 C19 1_555 1_555
C20 C19 1_555 1_555
H12 C20 1_555 1_555
C21 C20 1_555 1_555
H13 C21 1_555 1_555
C22 C21 1_555 1_555
H14 C22 1_555 1_555
C23 C18 1_555 1_555
H15 C23 1_555 1_555
N2 C27 1_555 1_555
N3 C28 1_555 1_555
C24 H16 1_555 1_555
C25 C24 1_555 1_555
C26 C25 1_555 1_555
C27 C26 1_555 1_555
C28 C25 1_555 1_555
N2A C27A 1_555 1_555
N3A C28A 1_555 1_555
C24A C26 1_555 1_555
H16A C24A 1_555 1_555
C25A C24A 1_555 1_555
C26A C24 1_555 1_555
C27A C26A 1_555 1_555
C28A C25A 1_555 1_555
C6 C7 1_555 1_555
C9 C14 1_555 1_555
C13 C14 1_555 1_555
C22 C23 1_555 1_555
C25A C26A 1_555 1_555

#END
