
#######################################################################
#
#                 Cambridge Crystallographic Data Centre
#                                CCDC 
#
#######################################################################
#
# If this CIF has been generated from an entry in the Cambridge 
# Structural Database, then it will include bibliographic, chemical, 
# crystal, experimental, refinement or atomic coordinate data resulting 
# from the CCDC's data processing and validation procedures.
#
#######################################################################

data_NIJMAX
_chemical_formula_moiety         '2(C26 H17 N1 O1),C10 H2 N4'
_chemical_name_systematic        
'bis(2-(4-methoxyphenyl)-3-(pyren-1-yl)prop-2-enenitrile) benzene-1,2,4,5-tetracarbonitrile'
_symmetry_cell_setting           triclinic
_symmetry_space_group_name_H-M   'P -1'
_symmetry_Int_Tables_number      2
_space_group_name_Hall           '-P 1'
loop_
_symmetry_equiv_pos_site_id
_symmetry_equiv_pos_as_xyz
1 x,y,z
2 -x,-y,-z
_cell_length_a                   9.844(2)
_cell_length_b                   10.404(2)
_cell_length_c                   11.351(2)
_cell_angle_alpha                95.21(3)
_cell_angle_beta                 96.75(3)
_cell_angle_gamma                95.34(3)
_cell_volume                     1143.36
_exptl_crystal_colour            maroon
_exptl_crystal_description       block
_cell_formula_units_Z            1
loop_
_atom_site_label
_atom_site_type_symbol
_atom_site_fract_x
_atom_site_fract_y
_atom_site_fract_z
O1 O 0.71130(18) 0.85736(18) -0.05276(16)
C1 C 0.3094(2) 0.7336(2) 0.59045(19)
N1 N 0.0915(2) 0.8327(3) 0.2236(2)
C2 C 0.4032(2) 0.6363(2) 0.5859(2)
H1 H 0.4591 0.6330 0.5254
C3 C 0.4125(2) 0.5494(2) 0.6673(2)
H2 H 0.4749 0.4880 0.6613
C4 C 0.3297(2) 0.5493(2) 0.7615(2)
C5 C 0.2335(2) 0.6425(2) 0.7676(2)
C6 C 0.2236(2) 0.7347(2) 0.68210(19)
C7 C 0.3394(3) 0.4634(3) 0.8477(3)
H3 H 0.4014 0.4013 0.8441
C8 C 0.2588(4) 0.4687(3) 0.9387(3)
H4 H 0.2676 0.4107 0.9961
C9 C 0.1661(3) 0.5577(3) 0.9462(3)
H5 H 0.1124 0.5595 1.0084
C10 C 0.1509(3) 0.6461(2) 0.8614(2)
C11 C 0.0570(3) 0.7437(3) 0.8679(3)
H6 H 0.0019 0.7468 0.9291
C12 C 0.0475(2) 0.8300(3) 0.7879(2)
H7 H -0.0134 0.8926 0.7951
C13 C 0.1286(2) 0.8286(2) 0.6915(2)
C14 C 0.1203(2) 0.9168(2) 0.6060(2)
H8 H 0.0574 0.9779 0.6095
C15 C 0.2025(3) 0.9151(2) 0.5174(2)
H9 H 0.1941 0.9756 0.4622
C16 C 0.2988(2) 0.8257(2) 0.5067(2)
C17 C 0.3885(2) 0.8298(2) 0.4135(2)
H10 H 0.4813 0.8240 0.4367
C18 C 0.3512(2) 0.8412(2) 0.2968(2)
C19 C 0.2059(3) 0.8378(2) 0.2557(2)
C20 C 0.4443(2) 0.8485(2) 0.2048(2)
C21 C 0.3940(3) 0.8254(3) 0.0847(2)
H11 H 0.2995 0.8082 0.0628
C22 C 0.4790(3) 0.8270(3) -0.0030(2)
H12 H 0.4419 0.8096 -0.0827
C23 C 0.6186(2) 0.8543(2) 0.0268(2)
C24 C 0.6708(3) 0.8810(3) 0.1455(2)
H13 H 0.7651 0.9010 0.1667
C25 C 0.5861(3) 0.8784(2) 0.2324(2)
H14 H 0.6238 0.8971 0.3119
C26 C 0.6608(3) 0.8228(3) -0.1759(2)
H15 H 0.7360 0.8288 -0.2225
H16 H 0.6169 0.7354 -0.1865
H17 H 0.5955 0.8808 -0.2013
N2 N 0.2455(2) 0.5039(2) 0.2477(2)
N3 N -0.2679(2) 0.7596(2) 0.5193(2)
C27 C 0.0841(2) 0.4999(2) 0.40990(19)
C28 C -0.0105(2) 0.5904(2) 0.4169(2)
H18 H -0.0175 0.6508 0.3614
C29 C -0.0940(2) 0.5907(2) 0.5061(2)
C30 C 0.1733(3) 0.5015(2) 0.3191(2)
C31 C -0.1914(2) 0.6852(2) 0.5139(2)
N2A N -0.2455(2) 0.4961(2) 0.7523(2)
N3A N 0.2679(2) 0.2404(2) 0.4807(2)
C27A C -0.0841(2) 0.5001(2) 0.59010(19)
C28A C 0.0105(2) 0.4096(2) 0.5831(2)
H18A H 0.0175 0.3492 0.6386
C29A C 0.0940(2) 0.4093(2) 0.4939(2)
C30A C -0.1733(3) 0.4985(2) 0.6809(2)
C31A C 0.1914(2) 0.3148(2) 0.4861(2)
loop_
_geom_bond_atom_site_label_1
_geom_bond_atom_site_label_2
_geom_bond_site_symmetry_1
_geom_bond_site_symmetry_2
O1 C23 1_555 1_555
C1 C2 1_555 1_555
N1 C19 1_555 1_555
C2 H1 1_555 1_555
C3 C2 1_555 1_555
H2 C3 1_555 1_555
C4 C3 1_555 1_555
C5 C4 1_555 1_555
C6 C1 1_555 1_555
C7 C4 1_555 1_555
H3 C7 1_555 1_555
C8 C7 1_555 1_555
H4 C8 1_555 1_555
C9 C8 1_555 1_555
H5 C9 1_555 1_555
C10 C5 1_555 1_555
C11 C10 1_555 1_555
H6 C11 1_555 1_555
C12 C11 1_555 1_555
H7 C12 1_555 1_555
C13 C6 1_555 1_555
C14 C13 1_555 1_555
H8 C14 1_555 1_555
C15 C14 1_555 1_555
H9 C15 1_555 1_555
C16 C1 1_555 1_555
C17 C16 1_555 1_555
H10 C17 1_555 1_555
C18 C17 1_555 1_555
C19 C18 1_555 1_555
C20 C18 1_555 1_555
C21 C20 1_555 1_555
H11 C21 1_555 1_555
C22 C21 1_555 1_555
H12 C22 1_555 1_555
C23 C22 1_555 1_555
C24 C23 1_555 1_555
H13 C24 1_555 1_555
C25 C20 1_555 1_555
H14 C25 1_555 1_555
C26 O1 1_555 1_555
H15 C26 1_555 1_555
H16 C26 1_555 1_555
H17 C26 1_555 1_555
N2 C30 1_555 1_555
N3 C31 1_555 1_555
C27 C28 1_555 1_555
C28 H18 1_555 1_555
C29 C28 1_555 1_555
C30 C27 1_555 1_555
C31 C29 1_555 1_555
N2A C30A 1_555 1_555
N3A C31A 1_555 1_555
C27A C29 1_555 1_555
C28A C27A 1_555 1_555
H18A C28A 1_555 1_555
C29A C27 1_555 1_555
C30A C27A 1_555 1_555
C31A C29A 1_555 1_555
C5 C6 1_555 1_555
C9 C10 1_555 1_555
C12 C13 1_555 1_555
C15 C16 1_555 1_555
C24 C25 1_555 1_555
C28A C29A 1_555 1_555

#END
