
#######################################################################
#
#                 Cambridge Crystallographic Data Centre
#                                CCDC 
#
#######################################################################
#
# If this CIF has been generated from an entry in the Cambridge 
# Structural Database, then it will include bibliographic, chemical, 
# crystal, experimental, refinement or atomic coordinate data resulting 
# from the CCDC's data processing and validation procedures.
#
#######################################################################

data_NIJNEA
_chemical_formula_moiety         'C13 H9 F2 N3 O2 S1,0.5(C1 H4 O1)'
_chemical_name_systematic        
'7-Benzenesulfonyl-5,6-difluoro-2-methyl-1H-imidazo(4,5-b)pyridine methanol solvate'
_symmetry_cell_setting           monoclinic
_symmetry_space_group_name_H-M   'C 2/c'
_symmetry_Int_Tables_number      15
_space_group_name_Hall           '-C 2yn'
loop_
_symmetry_equiv_pos_site_id
_symmetry_equiv_pos_as_xyz
1 x,y,z
2 1/2+x,1/2+y,z
3 -x,y,1/2-z
4 1/2-x,1/2+y,1/2-z
5 -x,-y,-z
6 1/2-x,1/2-y,-z
7 x,-y,1/2+z
8 1/2+x,1/2-y,1/2+z
_cell_length_a                   16.2592(3)
_cell_length_b                   10.1481(2)
_cell_length_c                   17.6509(3)
_cell_angle_alpha                90
_cell_angle_beta                 112.20(1)
_cell_angle_gamma                90
_cell_volume                     2696.5
_exptl_crystal_colour            colorless
_exptl_crystal_description       plate
_chemical_melting_point          '498-500 K'
_cell_formula_units_Z            8
_exptl_crystal_recrystallization_method acetonitrile
loop_
_atom_site_label
_atom_site_type_symbol
_atom_site_fract_x
_atom_site_fract_y
_atom_site_fract_z
S1 S 0.22506(2) 0.40663(3) 0.250313(19)
F1 F 0.16938(6) 0.10728(10) 0.45871(6)
F2 F 0.11784(5) 0.28946(9) 0.34370(6)
O1 O 0.30411(7) 0.46208(10) 0.24559(6)
O2 O 0.15883(7) 0.49085(10) 0.25984(6)
N1 N 0.30623(8) 0.09017(12) 0.45508(7)
N2 N 0.41741(7) 0.24407(12) 0.34094(7)
N3 N 0.44610(8) 0.08628(12) 0.43663(7)
C1 C 0.22873(9) 0.14719(14) 0.42688(9)
C2 C 0.20171(9) 0.24483(14) 0.36709(8)
C3 C 0.25963(8) 0.29120(13) 0.33231(8)
C4 C 0.34388(8) 0.23230(13) 0.36095(8)
C5 C 0.36206(8) 0.13302(13) 0.42119(8)
C6 C 0.47575(9) 0.15394(14) 0.38704(9)
C7 C 0.56319(10) 0.12953(18) 0.38150(11)
C8 C 0.17461(8) 0.30251(13) 0.16564(8)
C9 C 0.08460(9) 0.27434(15) 0.14061(9)
C10 C 0.04692(10) 0.18759(16) 0.07584(10)
C11 C 0.09896(11) 0.12992(17) 0.03817(10)
C12 C 0.18889(11) 0.15869(18) 0.06416(10)
C13 C 0.22727(10) 0.24581(16) 0.12825(10)
H1 H 0.429(2) 0.292(4) 0.308(2)
H3 H 0.6015(18) 0.080(3) 0.4257(17)
H4 H 0.5901(17) 0.209(3) 0.3819(16)
H5 H 0.5567(19) 0.082(3) 0.3316(18)
H6 H 0.0508(12) 0.3138(19) 0.1670(12)
H7 H -0.0138(14) 0.173(2) 0.0586(13)
H8 H 0.0745(14) 0.072(2) -0.0057(13)
H9 H 0.2256(15) 0.119(2) 0.0357(14)
H10 H 0.2883(14) 0.271(2) 0.1451(12)
O3 O 0.5000 0.37986(18) 0.2500
C14 C 0.5000 0.5146(3) 0.2500
H13 H 0.4406 0.5468 0.2162
H13B H 0.5594 0.5468 0.2838
H2? H 0.477(2) 0.033(3) 0.4726(19)
H11? H 0.5430 0.5468 0.2276
H12? H 0.5164 0.5468 0.3062
H14? H 0.527(2) 0.355(4) 0.235(2)
loop_
_geom_bond_atom_site_label_1
_geom_bond_atom_site_label_2
_geom_bond_site_symmetry_1
_geom_bond_site_symmetry_2
S1 O1 1_555 1_555
F1 C1 1_555 1_555
F2 C2 1_555 1_555
O2 S1 1_555 1_555
N1 C1 1_555 1_555
N2 C4 1_555 1_555
N3 C5 1_555 1_555
C1 C2 1_555 1_555
C2 C3 1_555 1_555
C3 S1 1_555 1_555
C4 C3 1_555 1_555
C5 N1 1_555 1_555
C6 N2 1_555 1_555
C7 C6 1_555 1_555
C8 S1 1_555 1_555
C9 C8 1_555 1_555
C10 C9 1_555 1_555
C11 C10 1_555 1_555
C12 C11 1_555 1_555
C13 C8 1_555 1_555
H1 N2 1_555 1_555
H3 C7 1_555 1_555
H4 C7 1_555 1_555
H5 C7 1_555 1_555
H6 C9 1_555 1_555
H7 C10 1_555 1_555
H8 C11 1_555 1_555
H9 C12 1_555 1_555
H10 C13 1_555 1_555
O3 C14 1_555 1_555
C14 H13 1_555 1_555
H13B C14 1_555 1_555
N3 C6 1_555 1_555
C4 C5 1_555 1_555
C12 C13 1_555 1_555

#END
