
#######################################################################
#
#                 Cambridge Crystallographic Data Centre
#                                CCDC 
#
#######################################################################
#
# If this CIF has been generated from an entry in the Cambridge 
# Structural Database, then it will include bibliographic, chemical, 
# crystal, experimental, refinement or atomic coordinate data resulting 
# from the CCDC's data processing and validation procedures.
#
#######################################################################

data_NIJNUQ
_chemical_formula_moiety         'C20 H14 F2 N6'
_chemical_name_systematic        
N-(4-Amino-5,8-difluoro-2-phenylpyrido(3,4-d)pyrimidin-6-yl)-benzamidine
_symmetry_cell_setting           orthorhombic
_symmetry_space_group_name_H-M   'P b c a'
_symmetry_Int_Tables_number      61
_space_group_name_Hall           '-P 2ac 2ab'
loop_
_symmetry_equiv_pos_site_id
_symmetry_equiv_pos_as_xyz
1 x,y,z
2 1/2-x,-y,1/2+z
3 -x,1/2+y,1/2-z
4 1/2+x,1/2-y,-z
5 -x,-y,-z
6 1/2+x,y,1/2-z
7 x,1/2-y,1/2+z
8 1/2-x,1/2+y,z
_cell_length_a                   11.3937(2)
_cell_length_b                   8.9080(2)
_cell_length_c                   33.5493(7)
_cell_angle_alpha                90
_cell_angle_beta                 90
_cell_angle_gamma                90
_cell_volume                     3405.09
_exptl_crystal_colour            'light yellow'
_exptl_crystal_description       prism
_chemical_melting_point          '488-489 K'
_cell_formula_units_Z            8
_exptl_crystal_recrystallization_method acetonitrile
loop_
_atom_site_label
_atom_site_type_symbol
_atom_site_fract_x
_atom_site_fract_y
_atom_site_fract_z
F1 F 0.52640(7) 0.19001(10) 0.38387(2)
F2 F 0.20034(7) -0.07158(10) 0.47571(2)
N1 N 0.28126(10) -0.03434(13) 0.41577(3)
N2 N 0.35685(10) 0.11005(13) 0.51364(3)
N3 N 0.52891(10) 0.26427(13) 0.50938(3)
N4 N 0.62561(11) 0.30991(15) 0.45115(4)
N5 N 0.37055(10) 0.00513(14) 0.35071(3)
N6 N 0.22470(12) -0.18207(16) 0.34849(4)
C1 C 0.36355(11) 0.03006(16) 0.39139(4)
C2 C 0.44577(12) 0.12544(16) 0.40832(4)
C3 C 0.45023(12) 0.15522(16) 0.44912(4)
C4 C 0.36421(11) 0.08787(15) 0.47344(4)
C5 C 0.28389(11) -0.00582(16) 0.45367(4)
C6 C 0.53640(11) 0.24527(16) 0.47027(4)
C7 C 0.43829(12) 0.19898(16) 0.52903(4)
C8 C 0.43152(12) 0.23052(16) 0.57257(4)
C9 C 0.49365(14) 0.35088(19) 0.58871(4)
C10 C 0.48657(15) 0.3811(2) 0.62927(5)
C11 C 0.41839(15) 0.2926(2) 0.65380(5)
C12 C 0.35648(14) 0.1721(2) 0.63807(4)
C13 C 0.36333(13) 0.14152(18) 0.59758(4)
C14 C 0.31075(12) -0.09993(17) 0.33239(4)
C15 C 0.34294(13) -0.13008(16) 0.28999(4)
C16 C 0.43910(14) -0.05575(18) 0.27347(4)
C17 C 0.47369(15) -0.08425(19) 0.23454(4)
C18 C 0.41420(16) -0.1892(2) 0.21191(5)
C19 C 0.31944(16) -0.2650(2) 0.22807(5)
C20 C 0.28322(14) -0.23482(19) 0.26684(5)
H1 H 0.6340(14) 0.2944(18) 0.4250(5)
H2 H 0.6834(16) 0.355(2) 0.4667(5)
H3 H 0.2124(15) -0.1733(19) 0.3746(5)
H4 H 0.1968(16) -0.265(2) 0.3371(5)
H5 H 0.5415(14) 0.4137(18) 0.5712(5)
H6 H 0.5289(16) 0.465(2) 0.6396(5)
H7 H 0.4152(15) 0.3117(19) 0.6821(5)
H8 H 0.3073(14) 0.1038(19) 0.6552(4)
H9 H 0.3235(14) 0.0529(18) 0.5878(4)
H10 H 0.4856(14) 0.0169(19) 0.2904(4)
H11 H 0.5409(15) -0.033(2) 0.2239(5)
H12 H 0.4405(16) -0.210(2) 0.1850(6)
H13 H 0.2767(15) -0.342(2) 0.2126(5)
H14 H 0.2149(16) -0.2861(19) 0.2770(5)
loop_
_geom_bond_atom_site_label_1
_geom_bond_atom_site_label_2
_geom_bond_site_symmetry_1
_geom_bond_site_symmetry_2
F1 C2 1_555 1_555
F2 C5 1_555 1_555
N1 C1 1_555 1_555
N2 C4 1_555 1_555
N3 C6 1_555 1_555
N4 C6 1_555 1_555
N5 C1 1_555 1_555
N6 C14 1_555 1_555
C1 C2 1_555 1_555
C2 C3 1_555 1_555
C3 C4 1_555 1_555
C4 C5 1_555 1_555
C5 N1 1_555 1_555
C6 C3 1_555 1_555
C7 N2 1_555 1_555
C8 C7 1_555 1_555
C9 C8 1_555 1_555
C10 C9 1_555 1_555
C11 C10 1_555 1_555
C12 C11 1_555 1_555
C13 C8 1_555 1_555
C14 N5 1_555 1_555
C15 C14 1_555 1_555
C16 C15 1_555 1_555
C17 C16 1_555 1_555
C18 C17 1_555 1_555
C19 C18 1_555 1_555
C20 C15 1_555 1_555
H1 N4 1_555 1_555
H2 N4 1_555 1_555
H3 N6 1_555 1_555
H4 N6 1_555 1_555
H5 C9 1_555 1_555
H6 C10 1_555 1_555
H7 C11 1_555 1_555
H8 C12 1_555 1_555
H9 C13 1_555 1_555
H10 C16 1_555 1_555
H11 C17 1_555 1_555
H12 C18 1_555 1_555
H13 C19 1_555 1_555
H14 C20 1_555 1_555
N3 C7 1_555 1_555
C12 C13 1_555 1_555
C19 C20 1_555 1_555

#END
