
#######################################################################
#
#                 Cambridge Crystallographic Data Centre
#                                CCDC 
#
#######################################################################
#
# If this CIF has been generated from an entry in the Cambridge 
# Structural Database, then it will include bibliographic, chemical, 
# crystal, experimental, refinement or atomic coordinate data resulting 
# from the CCDC's data processing and validation procedures.
#
#######################################################################

data_NIJPAA
_chemical_formula_moiety         'C15 H15 F1 O4'
_chemical_name_systematic        
3-(2-acetyl-3-hydroxybut-2-en-1-yl)-6-fluoro-2,3-dihydro-4H-1-benzopyran-4-one
_symmetry_cell_setting           triclinic
_symmetry_space_group_name_H-M   'P -1'
_symmetry_Int_Tables_number      2
_space_group_name_Hall           '-P 1'
loop_
_symmetry_equiv_pos_site_id
_symmetry_equiv_pos_as_xyz
1 x,y,z
2 -x,-y,-z
_cell_length_a                   6.8490(8)
_cell_length_b                   7.8676(12)
_cell_length_c                   12.9034(15)
_cell_angle_alpha                88.554(11)
_cell_angle_beta                 76.944(10)
_cell_angle_gamma                80.244(11)
_cell_volume                     667.472
_exptl_crystal_colour            colorless
_exptl_crystal_description       prism
_cell_formula_units_Z            2
loop_
_atom_site_label
_atom_site_type_symbol
_atom_site_fract_x
_atom_site_fract_y
_atom_site_fract_z
C1 C 0.5583(4) 1.0987(4) 0.1730(2)
H1 H 0.6745 1.0851 0.2002
C2 C 0.5389(5) 1.2053(4) 0.0898(2)
C3 C 0.3694(5) 1.2304(4) 0.0474(2)
H2 H 0.3628 1.3032 -0.0101
C4 C 0.2099(5) 1.1468(4) 0.0908(3)
H3 H 0.0945 1.1628 0.0628
C5 C 0.2213(4) 1.0386(4) 0.1766(2)
C6 C 0.3983(4) 1.0102(3) 0.2164(2)
C7 C 0.4195(4) 0.8805(4) 0.2995(2)
C8 C 0.2470(4) 0.7792(4) 0.3306(2)
H4 H 0.2369 0.7449 0.4049
C9 C 0.0502(4) 0.8945(4) 0.3231(3)
H5 H -0.0606 0.8293 0.3420
H6 H 0.0232 0.9895 0.3737
C10 C 0.2917(4) 0.6136(3) 0.2612(2)
H7 H 0.2895 0.6454 0.1883
H8 H 0.4270 0.5529 0.2620
C11 C 0.1397(4) 0.4939(4) 0.2994(2)
C12 C 0.1611(4) 0.3826(4) 0.3864(2)
C13 C 0.3412(6) 0.3659(5) 0.4364(3)
H9 H 0.2965 0.3589 0.5122
H10 H 0.4069 0.4648 0.4192
H11 H 0.4352 0.2634 0.4096
C14 C -0.0225(4) 0.4896(4) 0.2530(2)
C15 C -0.0607(5) 0.5884(5) 0.1573(3)
H12 H -0.1382 0.5287 0.1214
H13 H 0.0667 0.5986 0.1100
H14 H -0.1353 0.7013 0.1788
F1 F 0.6947(3) 1.2909(3) 0.04587(17)
O1 O 0.5685(4) 0.8524(3) 0.33633(19)
O2 O 0.0580(3) 0.9619(3) 0.21811(18)
O3 O 0.0287(4) 0.2893(3) 0.42508(17)
O4 O -0.1591(3) 0.3908(3) 0.28895(19)
H15 H -0.1328 0.3394 0.3415
loop_
_geom_bond_atom_site_label_1
_geom_bond_atom_site_label_2
_geom_bond_site_symmetry_1
_geom_bond_site_symmetry_2
C1 H1 1_555 1_555
C2 C1 1_555 1_555
C3 C2 1_555 1_555
H2 C3 1_555 1_555
C4 C3 1_555 1_555
H3 C4 1_555 1_555
C5 C4 1_555 1_555
C6 C1 1_555 1_555
C7 C6 1_555 1_555
C8 C7 1_555 1_555
H4 C8 1_555 1_555
C9 C8 1_555 1_555
H5 C9 1_555 1_555
H6 C9 1_555 1_555
C10 C8 1_555 1_555
H7 C10 1_555 1_555
H8 C10 1_555 1_555
C11 C10 1_555 1_555
C12 C11 1_555 1_555
C13 C12 1_555 1_555
H9 C13 1_555 1_555
H10 C13 1_555 1_555
H11 C13 1_555 1_555
C14 C11 1_555 1_555
C15 C14 1_555 1_555
H12 C15 1_555 1_555
H13 C15 1_555 1_555
H14 C15 1_555 1_555
F1 C2 1_555 1_555
O1 C7 1_555 1_555
O2 C5 1_555 1_555
O3 C12 1_555 1_555
O4 C14 1_555 1_555
H15 O4 1_555 1_555
C5 C6 1_555 1_555
C9 O2 1_555 1_555

#END
