
#######################################################################
#
#                 Cambridge Crystallographic Data Centre
#                                CCDC 
#
#######################################################################
#
# If this CIF has been generated from an entry in the Cambridge 
# Structural Database, then it will include bibliographic, chemical, 
# crystal, experimental, refinement or atomic coordinate data resulting 
# from the CCDC's data processing and validation procedures.
#
#######################################################################

data_NIJPAY
_chemical_formula_moiety         'C20 H16 F2 N4,2(C1 H4 O1)'
_chemical_name_systematic        
'N-Benzyl-N-(6,7-difluoro-2-phenyl-3H-imidazo(4,5-c)pyridin-4-yl)methylamine methanol solvate'
_symmetry_cell_setting           triclinic
_symmetry_space_group_name_H-M   'P -1'
_symmetry_Int_Tables_number      2
_space_group_name_Hall           '-P 1'
loop_
_symmetry_equiv_pos_site_id
_symmetry_equiv_pos_as_xyz
1 x,y,z
2 -x,-y,-z
_cell_length_a                   10.0524(9)
_cell_length_b                   11.0747(9)
_cell_length_c                   11.3796(10)
_cell_angle_alpha                111.617(3)
_cell_angle_beta                 94.376(3)
_cell_angle_gamma                116.040(3)
_cell_volume                     1014.33
_exptl_crystal_colour            colorless
_exptl_crystal_description       prism
_chemical_melting_point          '352-356 K'
_cell_formula_units_Z            2
loop_
_atom_site_label
_atom_site_type_symbol
_atom_site_fract_x
_atom_site_fract_y
_atom_site_fract_z
N1 N 0.54062(10) 0.65636(10) 0.34568(9)
N2 N 0.76320(10) 0.60688(10) 0.58318(9)
N3 N 0.70269(11) 0.39605(10) 0.40384(10)
N4 N 0.64603(11) 0.81959(10) 0.56844(9)
F1 F 0.42936(8) 0.50626(7) 0.12729(7)
F2 F 0.51345(9) 0.30371(7) 0.13198(6)
C1 C 0.62001(12) 0.69124(11) 0.46523(10)
C2 C 0.67364(12) 0.59532(11) 0.47675(11)
C3 C 0.63619(12) 0.46416(11) 0.36415(11)
C4 C 0.55084(13) 0.42930(12) 0.24279(11)
C5 C 0.50962(13) 0.53088(12) 0.24240(11)
C6 C 0.77803(12) 0.48662(12) 0.53593(11)
C7 C 0.86810(13) 0.45506(12) 0.61543(12)
C8 C 0.89656(15) 0.33673(14) 0.55968(13)
C9 C 0.98444(15) 0.31306(15) 0.63969(14)
C10 C 1.04474(15) 0.40570(16) 0.77339(15)
C11 C 1.01764(16) 0.52400(16) 0.82916(14)
C12 C 0.92976(15) 0.54858(14) 0.75055(13)
C13 C 0.71745(13) 0.86473(12) 0.70487(11)
C14 C 0.88804(12) 0.98097(11) 0.75533(10)
C15 C 0.98061(13) 0.99302(13) 0.67076(11)
C16 C 1.13830(14) 1.09575(13) 0.72000(12)
C17 C 1.20587(14) 1.18706(13) 0.85392(12)
C18 C 1.11443(15) 1.17552(15) 0.93879(12)
C19 C 0.95682(14) 1.07403(14) 0.88974(11)
C20 C 0.59611(15) 0.91502(13) 0.54323(12)
H1 H 0.6900(19) 0.306(2) 0.3554(16)
H2 H 0.8533(17) 0.2676(17) 0.4619(15)
H3 H 0.9993(18) 0.2271(17) 0.5981(15)
H4 H 1.107(2) 0.3897(19) 0.8305(16)
H5 H 1.054(2) 0.5832(19) 0.9226(18)
H6 H 0.9107(17) 0.6323(17) 0.7872(15)
H7 H 0.7023(15) 0.7751(15) 0.7161(13)
H8 H 0.6593(15) 0.9046(14) 0.7613(12)
H9 H 0.9354(15) 0.9322(14) 0.5771(13)
H10 H 1.2025(18) 1.1046(17) 0.6615(15)
H11 H 1.3179(18) 1.2570(17) 0.8874(15)
H12 H 1.1591(18) 1.2364(17) 1.0345(16)
H13 H 0.8936(18) 1.0662(17) 0.9525(15)
H14 H 0.6495(17) 0.9520(16) 0.4849(14)
H15 H 0.484(2) 0.8620(17) 0.5066(15)
H16 H 0.6256(18) 0.9988(18) 0.6249(16)
O1 O 0.52213(10) 0.16791(9) 0.76656(9)
C21 C 0.66405(17) 0.25481(17) 0.86547(15)
H17 H 0.510(2) 0.225(2) 0.7370(17)
H18 H 0.661(3) 0.333(3) 0.941(2)
H19 H 0.680(2) 0.189(2) 0.894(2)
H20 H 0.749(3) 0.298(3) 0.835(2)
O2 O 0.36115(11) 0.89416(10) 0.76030(9)
C22 C 0.2960(2) 0.91290(18) 0.86704(16)
H21 H 0.4000(19) 0.9762(19) 0.7536(15)
H22 H 0.274(2) 0.8274(19) 0.8870(17)
H23 H 0.363(3) 1.015(3) 0.943(2)
H24 H 0.195(2) 0.908(2) 0.8404(19)
loop_
_geom_bond_atom_site_label_1
_geom_bond_atom_site_label_2
_geom_bond_site_symmetry_1
_geom_bond_site_symmetry_2
N1 C1 1_555 1_555
N2 C2 1_555 1_555
N3 C3 1_555 1_555
N4 C1 1_555 1_555
F1 C5 1_555 1_555
F2 C4 1_555 1_555
C1 C2 1_555 1_555
C2 C3 1_555 1_555
C3 C4 1_555 1_555
C4 C5 1_555 1_555
C5 N1 1_555 1_555
C6 N2 1_555 1_555
C7 C6 1_555 1_555
C8 C7 1_555 1_555
C9 C8 1_555 1_555
C10 C9 1_555 1_555
C11 C10 1_555 1_555
C12 C7 1_555 1_555
C13 N4 1_555 1_555
C14 C13 1_555 1_555
C15 C14 1_555 1_555
C16 C15 1_555 1_555
C17 C16 1_555 1_555
C18 C17 1_555 1_555
C19 C14 1_555 1_555
C20 N4 1_555 1_555
O1 C21 1_555 1_555
C21 H18 1_555 1_555
O2 C22 1_555 1_555
C22 H22 1_555 1_555
H1 N3 1_555 1_555
H2 C8 1_555 1_555
H3 C9 1_555 1_555
H4 C10 1_555 1_555
H5 C11 1_555 1_555
H6 C12 1_555 1_555
H7 C13 1_555 1_555
H8 C13 1_555 1_555
H9 C15 1_555 1_555
H10 C16 1_555 1_555
H11 C17 1_555 1_555
H12 C18 1_555 1_555
H13 C19 1_555 1_555
H14 C20 1_555 1_555
H15 C20 1_555 1_555
H16 C20 1_555 1_555
H17 O1 1_555 1_555
H19 C21 1_555 1_555
H20 C21 1_555 1_555
H21 O2 1_555 1_555
H23 C22 1_555 1_555
H24 C22 1_555 1_555
N3 C6 1_555 1_555
C11 C12 1_555 1_555
C18 C19 1_555 1_555

#END
