
#######################################################################
#
#                 Cambridge Crystallographic Data Centre
#                                CCDC 
#
#######################################################################
#
# If this CIF has been generated from an entry in the Cambridge 
# Structural Database, then it will include bibliographic, chemical, 
# crystal, experimental, refinement or atomic coordinate data resulting 
# from the CCDC's data processing and validation procedures.
#
#######################################################################

data_NIJQUU
_chemical_formula_moiety         'C26 H25 N3 O3'
_chemical_name_systematic        
'9-((2-(1H-Indol-3-yl)ethyl)amino)-11-oxo-2,3,6,7-tetrahydro-1H,5H,11H-pyrano[2,3-f]pyrido[3,2,1-ij]quinoline-10-carbaldehyde unknown solvate'
_symmetry_cell_setting           triclinic
_symmetry_space_group_name_H-M   'P -1'
_symmetry_Int_Tables_number      2
_space_group_name_Hall           '-P 1'
loop_
_symmetry_equiv_pos_site_id
_symmetry_equiv_pos_as_xyz
1 x,y,z
2 -x,-y,-z
_cell_length_a                   7.5683(7)
_cell_length_b                   11.9057(16)
_cell_length_c                   14.1137(18)
_cell_angle_alpha                102.206(11)
_cell_angle_beta                 101.521(10)
_cell_angle_gamma                92.584(8)
_cell_volume                     1212.86
_exptl_crystal_colour            yellow
_exptl_crystal_description       prismatic
_cell_formula_units_Z            2
loop_
_atom_site_label
_atom_site_type_symbol
_atom_site_fract_x
_atom_site_fract_y
_atom_site_fract_z
O1 O 0.07259(16) 0.22289(9) 0.36530(8)
O2 O 0.21946(14) 0.35922(8) 0.49113(7)
O3 O -0.08629(14) 0.43693(9) 0.18345(7)
N1 N 0.55457(16) 0.62191(9) 0.77966(8)
N2 N 0.06467(16) 0.61198(9) 0.33386(8)
H1 H 0.0070 0.5803 0.2727
N3 N 0.07107(18) 0.65529(11) 0.02184(8)
H2 H 0.0436 0.6101 -0.0380
C1 C 0.11524(19) 0.32686(11) 0.39624(9)
C2 C 0.27824(18) 0.47335(10) 0.53619(9)
C3 C 0.38497(18) 0.48876(10) 0.63102(9)
C4 C 0.42783(19) 0.38688(11) 0.67758(9)
H3 H 0.5359 0.3536 0.6576
H4 H 0.3248 0.3265 0.6538
C5 C 0.46337(19) 0.42552(11) 0.79071(9)
H5 H 0.3505 0.4491 0.8113
H6 H 0.5034 0.3607 0.8210
C6 C 0.60888(19) 0.52634(12) 0.82608(10)
H7 H 0.6296 0.5527 0.8991
H8 H 0.7238 0.5010 0.8092
C7 C 0.64729(19) 0.73652(11) 0.82813(10)
H9 H 0.7593 0.7469 0.8035
H10 H 0.6820 0.7429 0.9007
C8 C 0.5255(2) 0.83052(12) 0.80716(10)
H11 H 0.5896 0.9074 0.8404
H12 H 0.4148 0.8220 0.8334
C9 C 0.4743(2) 0.82025(12) 0.69509(10)
H13 H 0.3783 0.8717 0.6801
H14 H 0.5812 0.8458 0.6719
C10 C 0.40743(19) 0.69737(11) 0.63985(9)
C11 C 0.45158(18) 0.60249(11) 0.68483(9)
C12 C 0.30075(19) 0.67660(11) 0.54507(9)
H15 H 0.2729 0.7406 0.5162
C13 C 0.23089(17) 0.56462(11) 0.48888(9)
C14 C 0.12137(18) 0.53596(11) 0.38865(9)
C15 C 0.06778(18) 0.41584(11) 0.34329(9)
C16 C -0.03787(19) 0.37557(12) 0.24442(9)
H16 H -0.0745 0.2953 0.2232
C17 C 0.08185(19) 0.73849(11) 0.35793(9)
H17 H 0.2112 0.7678 0.3727
H18 H 0.0324 0.7675 0.4175
C18 C -0.02216(19) 0.78202(11) 0.26965(9)
H19 H -0.1514 0.7531 0.2564
H20 H -0.0145 0.8674 0.2877
C19 C 0.04767(19) 0.74499(11) 0.17642(9)
C20 C 0.2211(2) 0.78325(11) 0.16048(9)
C21 C 0.3678(2) 0.86118(11) 0.21899(10)
H21 H 0.3644 0.9013 0.2843
C22 C 0.5166(2) 0.87756(12) 0.17878(11)
H22 H 0.6170 0.9290 0.2176
C23 C 0.5231(2) 0.81946(13) 0.08105(11)
H23 H 0.6273 0.8330 0.0557
C24 C 0.3803(2) 0.74326(13) 0.02182(10)
H24 H 0.3842 0.7047 -0.0438
C25 C 0.2302(2) 0.72538(12) 0.06249(9)
C26 C -0.0382(2) 0.66771(12) 0.09042(10)
H25 H -0.1551 0.6287 0.0798
loop_
_geom_bond_atom_site_label_1
_geom_bond_atom_site_label_2
_geom_bond_site_symmetry_1
_geom_bond_site_symmetry_2
O1 C1 1_555 1_555
O2 C1 1_555 1_555
O3 C16 1_555 1_555
N1 C6 1_555 1_555
N2 H1 1_555 1_555
N3 H2 1_555 1_555
C1 C15 1_555 1_555
C2 O2 1_555 1_555
C3 C2 1_555 1_555
C4 C3 1_555 1_555
H3 C4 1_555 1_555
H4 C4 1_555 1_555
C5 C4 1_555 1_555
H5 C5 1_555 1_555
H6 C5 1_555 1_555
C6 C5 1_555 1_555
H7 C6 1_555 1_555
H8 C6 1_555 1_555
C7 N1 1_555 1_555
H9 C7 1_555 1_555
H10 C7 1_555 1_555
C8 C7 1_555 1_555
H11 C8 1_555 1_555
H12 C8 1_555 1_555
C9 C8 1_555 1_555
H13 C9 1_555 1_555
H14 C9 1_555 1_555
C10 C9 1_555 1_555
C11 N1 1_555 1_555
C12 C10 1_555 1_555
H15 C12 1_555 1_555
C13 C2 1_555 1_555
C14 N2 1_555 1_555
C15 C14 1_555 1_555
C16 C15 1_555 1_555
H16 C16 1_555 1_555
C17 N2 1_555 1_555
H17 C17 1_555 1_555
H18 C17 1_555 1_555
C18 C17 1_555 1_555
H19 C18 1_555 1_555
H20 C18 1_555 1_555
C19 C18 1_555 1_555
C20 C19 1_555 1_555
C21 C20 1_555 1_555
H21 C21 1_555 1_555
C22 C21 1_555 1_555
H22 C22 1_555 1_555
C23 C22 1_555 1_555
H23 C23 1_555 1_555
C24 C23 1_555 1_555
H24 C24 1_555 1_555
C25 N3 1_555 1_555
C26 N3 1_555 1_555
H25 C26 1_555 1_555
C3 C11 1_555 1_555
C10 C11 1_555 1_555
C12 C13 1_555 1_555
C13 C14 1_555 1_555
C19 C26 1_555 1_555
C20 C25 1_555 1_555
C24 C25 1_555 1_555

#END
