
#######################################################################
#
#                 Cambridge Crystallographic Data Centre
#                                CCDC 
#
#######################################################################
#
# If this CIF has been generated from an entry in the Cambridge 
# Structural Database, then it will include bibliographic, chemical, 
# crystal, experimental, refinement or atomic coordinate data resulting 
# from the CCDC's data processing and validation procedures.
#
#######################################################################

data_NIJRUV
_chemical_formula_moiety         'C31 H29 N3 O2'
_chemical_name_systematic        
7'-Benzyl-3'-t-butyl-1'-phenyl-1',4',6',7'-tetrahydrospiro[indene-2,5'-pyrazolo[3,4-b]pyridine]-1,3-dione
_symmetry_cell_setting           monoclinic
_symmetry_space_group_name_H-M   'P 21/c'
_symmetry_Int_Tables_number      14
_space_group_name_Hall           '-P 2ybc'
loop_
_symmetry_equiv_pos_site_id
_symmetry_equiv_pos_as_xyz
1 x,y,z
2 -x,1/2+y,1/2-z
3 -x,-y,-z
4 x,1/2-y,1/2+z
_cell_length_a                   16.6917(18)
_cell_length_b                   5.9748(4)
_cell_length_c                   24.840(3)
_cell_angle_alpha                90
_cell_angle_beta                 91.841(10)
_cell_angle_gamma                90
_cell_volume                     2476
_exptl_crystal_colour            'pale yellow'
_exptl_crystal_description       block
_cell_formula_units_Z            4
loop_
_atom_site_label
_atom_site_type_symbol
_atom_site_fract_x
_atom_site_fract_y
_atom_site_fract_z
N1 N 0.24247(8) 0.3603(2) 0.63330(5)
N2 N 0.16935(8) 0.2808(2) 0.64967(5)
C1 C 0.14271(9) 0.1498(3) 0.60944(6)
C2 C 0.19774(9) 0.1426(3) 0.56725(6)
C3 C 0.19455(10) 0.0355(3) 0.51271(6)
H1 H 0.1388 0.0376 0.4978
H2 H 0.2122 -0.1223 0.5156
C4 C 0.25005(9) 0.1651(3) 0.47469(6)
C5 C 0.33166(9) 0.2112(3) 0.50430(6)
H3 H 0.3579 0.0662 0.5126
H4 H 0.3665 0.2940 0.4796
N3 N 0.32604(8) 0.3391(2) 0.55438(5)
C6 C 0.25948(9) 0.2808(3) 0.58353(6)
C7 C 0.20610(9) 0.3730(3) 0.45367(6)
O1 O 0.18240(7) 0.52709(19) 0.48063(4)
C8 C 0.26266(10) 0.0272(3) 0.42381(6)
O2 O 0.29945(7) -0.1477(2) 0.42245(5)
C9 C 0.22283(9) 0.1434(3) 0.37753(6)
C10 C 0.21537(10) 0.0773(3) 0.32371(6)
H5 H 0.2367 -0.0611 0.3120
C11 C 0.17571(10) 0.2205(3) 0.28785(7)
H6 H 0.1691 0.1791 0.2510
C12 C 0.14545(11) 0.4244(3) 0.30528(7)
H7 H 0.1189 0.5204 0.2799
C13 C 0.15310(10) 0.4909(3) 0.35875(7)
H8 H 0.1325 0.6305 0.3703
C14 C 0.19181(9) 0.3464(3) 0.39461(6)
C15 C 0.29000(9) 0.4909(3) 0.67070(6)
C16 C 0.26215(10) 0.6979(3) 0.68680(6)
H9 H 0.2132 0.7554 0.6720
C17 C 0.30642(11) 0.8207(3) 0.72471(7)
H10 H 0.2877 0.9630 0.7359
C18 C 0.37777(10) 0.7363(3) 0.74627(6)
H11 H 0.4076 0.8197 0.7726
C19 C 0.40544(10) 0.5308(3) 0.72946(6)
H12 H 0.4548 0.4741 0.7439
C20 C 0.36168(10) 0.4066(3) 0.69159(6)
H13 H 0.3807 0.2652 0.6801
C21 C 0.05951(10) 0.0486(3) 0.61060(6)
C22 C 0.05998(11) -0.1994(3) 0.59411(8)
H14 H 0.0821 -0.2139 0.5582
H15 H 0.0051 -0.2576 0.5935
H16 H 0.0931 -0.2847 0.6201
C23 C 0.00517(10) 0.1790(3) 0.57030(7)
H17 H 0.0039 0.3372 0.5807
H18 H -0.0492 0.1174 0.5705
H19 H 0.0262 0.1653 0.5341
C24 C 0.02508(11) 0.0698(4) 0.66680(7)
H20 H 0.0573 -0.0200 0.6925
H21 H -0.0304 0.0159 0.6659
H22 H 0.0263 0.2271 0.6780
C25 C 0.34898(10) 0.5767(3) 0.55292(6)
H23 H 0.3066 0.6665 0.5697
H24 H 0.3520 0.6244 0.5149
C26 C 0.42857(9) 0.6264(3) 0.58165(6)
C27 C 0.44048(10) 0.8345(3) 0.60595(6)
H25 H 0.3995 0.9447 0.6034
C28 C 0.51192(10) 0.8816(3) 0.63387(7)
H26 H 0.5196 1.0241 0.6502
C29 C 0.57188(10) 0.7225(3) 0.63803(7)
H27 H 0.6201 0.7541 0.6580
C30 C 0.56146(10) 0.5170(3) 0.61303(7)
H28 H 0.6030 0.4082 0.6152
C31 C 0.49021(10) 0.4696(3) 0.58466(6)
H29 H 0.4836 0.3290 0.5672
loop_
_geom_bond_atom_site_label_1
_geom_bond_atom_site_label_2
_geom_bond_site_symmetry_1
_geom_bond_site_symmetry_2
N1 N2 1_555 1_555
N2 C1 1_555 1_555
C1 C2 1_555 1_555
C2 C3 1_555 1_555
C3 H1 1_555 1_555
H2 C3 1_555 1_555
C4 C3 1_555 1_555
C5 C4 1_555 1_555
H3 C5 1_555 1_555
H4 C5 1_555 1_555
N3 C5 1_555 1_555
C6 N1 1_555 1_555
C7 C4 1_555 1_555
O1 C7 1_555 1_555
C8 C4 1_555 1_555
O2 C8 1_555 1_555
C9 C8 1_555 1_555
C10 C9 1_555 1_555
H5 C10 1_555 1_555
C11 C10 1_555 1_555
H6 C11 1_555 1_555
C12 C11 1_555 1_555
H7 C12 1_555 1_555
C13 C12 1_555 1_555
H8 C13 1_555 1_555
C14 C7 1_555 1_555
C15 N1 1_555 1_555
C16 C15 1_555 1_555
H9 C16 1_555 1_555
C17 C16 1_555 1_555
H10 C17 1_555 1_555
C18 C17 1_555 1_555
H11 C18 1_555 1_555
C19 C18 1_555 1_555
H12 C19 1_555 1_555
C20 C15 1_555 1_555
H13 C20 1_555 1_555
C21 C1 1_555 1_555
C22 C21 1_555 1_555
H14 C22 1_555 1_555
H15 C22 1_555 1_555
H16 C22 1_555 1_555
C23 C21 1_555 1_555
H17 C23 1_555 1_555
H18 C23 1_555 1_555
H19 C23 1_555 1_555
C24 C21 1_555 1_555
H20 C24 1_555 1_555
H21 C24 1_555 1_555
H22 C24 1_555 1_555
C25 N3 1_555 1_555
H23 C25 1_555 1_555
H24 C25 1_555 1_555
C26 C25 1_555 1_555
C27 C26 1_555 1_555
H25 C27 1_555 1_555
C28 C27 1_555 1_555
H26 C28 1_555 1_555
C29 C28 1_555 1_555
H27 C29 1_555 1_555
C30 C29 1_555 1_555
H28 C30 1_555 1_555
C31 C26 1_555 1_555
H29 C31 1_555 1_555
C2 C6 1_555 1_555
N3 C6 1_555 1_555
C9 C14 1_555 1_555
C13 C14 1_555 1_555
C19 C20 1_555 1_555
C30 C31 1_555 1_555

#END
