
#######################################################################
#
#                 Cambridge Crystallographic Data Centre
#                                CCDC 
#
#######################################################################
#
# If this CIF has been generated from an entry in the Cambridge 
# Structural Database, then it will include bibliographic, chemical, 
# crystal, experimental, refinement or atomic coordinate data resulting 
# from the CCDC's data processing and validation procedures.
#
#######################################################################

data_NIKCEQ
_chemical_formula_moiety         'C15 H17 N1 O4 S2'
_chemical_name_systematic        
'N-((2-Thiophenyl)sulfonyl)-\a-L-phenylalanine ethyl ester'
_chemical_properties_biological  'antiproliferation effect on K562 cells'
_symmetry_cell_setting           monoclinic
_symmetry_space_group_name_H-M   'P 21'
_symmetry_Int_Tables_number      4
_space_group_name_Hall           'P 2yb'
loop_
_symmetry_equiv_pos_site_id
_symmetry_equiv_pos_as_xyz
1 x,y,z
2 -x,1/2+y,-z
_cell_length_a                   5.7916(10)
_cell_length_b                   11.5078(19)
_cell_length_c                   12.924(2)
_cell_angle_alpha                90
_cell_angle_beta                 97.781(3)
_cell_angle_gamma                90
_cell_volume                     853.435
_exptl_crystal_colour            colorless
_exptl_crystal_description       prismatic
_chemical_melting_point          '336-337 K'
_cell_formula_units_Z            2
loop_
_atom_site_label
_atom_site_type_symbol
_atom_site_fract_x
_atom_site_fract_y
_atom_site_fract_z
S1 S 0.9222(3) 0.17159(15) 0.50947(15)
S2 S 0.89582(16) -0.02024(8) 0.66597(7)
O1 O 0.7255(6) 0.2709(3) 0.7903(3)
O2 O 0.3592(6) 0.2201(3) 0.8012(3)
O3 O 0.7585(6) -0.1220(3) 0.6652(2)
O4 O 1.1367(5) -0.0278(3) 0.6635(2)
N1 N 0.8628(6) 0.0499(4) 0.7722(3)
C1 C 0.6908(14) 0.2078(6) 0.4257(5)
H1 H 0.6918 0.2680 0.3778
C2 C 0.5095(12) 0.1451(8) 0.4330(5)
H2 H 0.3680 0.1563 0.3908
C3 C 0.5439(7) 0.0566(5) 0.5116(3)
H3 H 0.4319 0.0040 0.5274
C4 C 0.7763(7) 0.0628(4) 0.5609(3)
C5 C 0.6314(7) 0.0706(4) 0.7974(3)
H4 H 0.5190 0.0325 0.7447
C6 C 0.5817(8) 0.1996(4) 0.7951(4)
C7 C 0.6042(9) 0.0197(5) 0.9055(4)
H5 H 0.4439 0.0295 0.9180
H6 H 0.6364 -0.0630 0.9050
C8 C 0.7606(8) 0.0747(4) 0.9920(3)
C9 C 0.6979(11) 0.1733(5) 1.0426(4)
H7 H 0.5512 0.2060 1.0242
C10 C 0.8539(14) 0.2236(6) 1.1209(4)
H8 H 0.8123 0.2914 1.1529
C11 C 1.0618(14) 0.1765(7) 1.1509(4)
H9 H 1.1638 0.2113 1.2036
C12 C 1.1250(11) 0.0787(6) 1.1054(4)
H10 H 1.2689 0.0451 1.1283
C13 C 0.9794(10) 0.0278(5) 1.0254(4)
H11 H 1.0275 -0.0385 0.9932
C14 C 0.2906(11) 0.3397(6) 0.8146(7)
H12 H 0.1543 0.3413 0.8507
H13 H 0.4156 0.3803 0.8575
C15 C 0.2384(19) 0.3987(8) 0.7157(9)
H14 H 0.3672 0.3903 0.6767
H15 H 0.2122 0.4796 0.7277
H16 H 0.1012 0.3654 0.6770
H17 H 0.958(6) 0.104(3) 0.780(3)
loop_
_geom_bond_atom_site_label_1
_geom_bond_atom_site_label_2
_geom_bond_site_symmetry_1
_geom_bond_site_symmetry_2
S1 C1 1_555 1_555
S2 O3 1_555 1_555
O1 C6 1_555 1_555
O2 C6 1_555 1_555
O4 S2 1_555 1_555
N1 S2 1_555 1_555
C1 H1 1_555 1_555
C2 C1 1_555 1_555
H2 C2 1_555 1_555
C3 C2 1_555 1_555
H3 C3 1_555 1_555
C4 S1 1_555 1_555
C5 N1 1_555 1_555
H4 C5 1_555 1_555
C6 C5 1_555 1_555
C7 C5 1_555 1_555
H5 C7 1_555 1_555
H6 C7 1_555 1_555
C8 C7 1_555 1_555
C9 C8 1_555 1_555
H7 C9 1_555 1_555
C10 C9 1_555 1_555
H8 C10 1_555 1_555
C11 C10 1_555 1_555
H9 C11 1_555 1_555
C12 C11 1_555 1_555
H10 C12 1_555 1_555
C13 C8 1_555 1_555
H11 C13 1_555 1_555
C14 O2 1_555 1_555
H12 C14 1_555 1_555
H13 C14 1_555 1_555
C15 C14 1_555 1_555
H14 C15 1_555 1_555
H15 C15 1_555 1_555
H16 C15 1_555 1_555
H17 N1 1_555 1_555
S2 C4 1_555 1_555
C3 C4 1_555 1_555
C12 C13 1_555 1_555

#END
