
#######################################################################
#
#                 Cambridge Crystallographic Data Centre
#                                CCDC 
#
#######################################################################
#
# If this CIF has been generated from an entry in the Cambridge 
# Structural Database, then it will include bibliographic, chemical, 
# crystal, experimental, refinement or atomic coordinate data resulting 
# from the CCDC's data processing and validation procedures.
#
#######################################################################

data_NIKFOF
_chemical_formula_moiety         'C69 H48 Br6 O6,6(C2 H3 N1)'
_chemical_name_systematic        
'(rac)-Hexabromo-(O-methyl)~6~-2,6-helic[6]arene acetonitrile unknown solvate'
_symmetry_cell_setting           monoclinic
_symmetry_space_group_name_H-M   'P 21/n'
_symmetry_Int_Tables_number      14
_space_group_name_Hall           '-P 2yn'
loop_
_symmetry_equiv_pos_site_id
_symmetry_equiv_pos_as_xyz
1 x,y,z
2 1/2-x,1/2+y,1/2-z
3 -x,-y,-z
4 1/2+x,1/2-y,1/2+z
_cell_length_a                   19.9132(8)
_cell_length_b                   15.6470(7)
_cell_length_c                   25.9036(9)
_cell_angle_alpha                90
_cell_angle_beta                 91.158(3)
_cell_angle_gamma                90
_cell_volume                     8069.44
_exptl_crystal_colour            colorless
_exptl_crystal_description       block
_cell_formula_units_Z            4
loop_
_atom_site_label
_atom_site_type_symbol
_atom_site_fract_x
_atom_site_fract_y
_atom_site_fract_z
Br1 Br 0.02500(4) 0.68628(5) 0.65297(3)
Br2 Br 0.14641(4) 1.04408(5) 0.46514(3)
Br3 Br 0.26105(4) 0.60053(5) 0.32956(3)
Br4 Br 0.54032(4) 0.69151(5) 0.51529(3)
Br5 Br 0.28111(4) 0.91074(5) 0.69974(3)
Br6 Br 0.31507(4) 0.35086(5) 0.57252(3)
O1 O 0.2973(2) 1.0632(3) 0.48580(17)
O2 O 0.4795(2) 0.8125(3) 0.43339(17)
O3 O 0.2690(2) 0.7286(3) 0.73890(17)
O4 O 0.3971(2) 0.4730(3) 0.64315(19)
O5 O 0.0058(2) 0.7116(3) 0.53617(17)
O6 O 0.1488(2) 0.5246(3) 0.39477(16)
C1 C 0.0542(3) 0.6140(4) 0.5988(3)
C2 C 0.0396(3) 0.6366(4) 0.5471(3)
C3 C 0.0625(3) 0.5850(4) 0.5069(2)
C4 C 0.1016(3) 0.5132(4) 0.5182(2)
H1 H 0.118108 0.479844 0.491609
C5 C 0.1157(3) 0.4916(4) 0.5692(2)
C6 C 0.0909(3) 0.5410(4) 0.6099(2)
C7 C 0.1131(3) 0.5062(4) 0.6634(2)
H2 H 0.096700 0.540759 0.692074
C8 C 0.1899(3) 0.5016(4) 0.6621(2)
C9 C 0.2137(3) 0.4489(4) 0.6228(2)
C10 C 0.1562(3) 0.4132(4) 0.5883(2)
H3 H 0.172728 0.378435 0.559758
C11 C 0.1105(3) 0.3626(4) 0.6240(2)
C12 C 0.0872(3) 0.4136(4) 0.6644(2)
C13 C 0.0439(3) 0.3791(4) 0.7002(2)
H4 H 0.027397 0.412630 0.726710
C14 C 0.0253(3) 0.2929(5) 0.6958(3)
H5 H -0.002465 0.268829 0.720324
C15 C 0.0479(3) 0.2428(4) 0.6551(3)
H6 H 0.034617 0.186000 0.651999
C16 C 0.0907(3) 0.2787(4) 0.6190(2)
H7 H 0.105811 0.245921 0.591626
C17 C 0.2816(3) 0.4365(4) 0.6177(2)
C18 C 0.3290(3) 0.4820(4) 0.6492(3)
C19 C 0.3039(3) 0.5343(4) 0.6892(2)
C20 C 0.2345(3) 0.5429(4) 0.6956(2)
H8 H 0.218372 0.576282 0.722365
C21 C 0.4221(4) 0.5117(5) 0.5960(3)
H9 H 0.404594 0.481066 0.566576
H10 H 0.470267 0.509182 0.596345
H11 H 0.407846 0.570220 0.594126
C22 C -0.0671(3) 0.7078(5) 0.5390(3)
H12 H -0.084669 0.673738 0.510997
H13 H -0.085231 0.764559 0.536537
H14 H -0.079460 0.682682 0.571223
C23 C 0.3533(3) 0.5823(4) 0.7253(3)
H15 H 0.333409 0.588227 0.758963
H16 H 0.393936 0.548588 0.729519
C24 C 0.3718(3) 0.6707(4) 0.7052(2)
C25 C 0.4307(3) 0.6841(4) 0.6780(2)
H17 H 0.460447 0.639012 0.673724
C26 C 0.4455(3) 0.7627(4) 0.6575(2)
C27 C 0.4019(3) 0.8328(4) 0.6635(2)
C28 C 0.3428(4) 0.8193(4) 0.6903(2)
C29 C 0.3284(3) 0.7396(4) 0.7118(2)
C30 C 0.2780(4) 0.7526(5) 0.7926(3)
H18 H 0.292417 0.811111 0.794711
H19 H 0.311307 0.716508 0.808654
H20 H 0.236198 0.746287 0.810035
C31 C 0.4282(3) 0.9163(4) 0.6396(2)
H21 H 0.398024 0.965055 0.644368
C32 C 0.4404(3) 0.8950(4) 0.5824(2)
C33 C 0.4815(3) 0.8238(4) 0.5759(2)
C34 C 0.5082(3) 0.7859(4) 0.6271(2)
H22 H 0.538471 0.737354 0.622306
C35 C 0.5412(4) 0.8602(5) 0.6570(3)
C36 C 0.4979(4) 0.9297(5) 0.6637(2)
C37 C 0.5197(4) 1.0041(5) 0.6892(2)
H23 H 0.490795 1.050215 0.693266
C38 C 0.5858(5) 1.0074(6) 0.7085(3)
H24 H 0.601448 1.056160 0.725391
C39 C 0.6277(5) 0.9383(7) 0.7024(3)
H25 H 0.671330 0.940987 0.715821
C40 C 0.6068(4) 0.8650(6) 0.6769(3)
H26 H 0.636086 0.819239 0.673170
C41 C 0.4154(3) 0.9418(4) 0.5408(2)
H27 H 0.388056 0.989020 0.546287
C42 C 0.4316(3) 0.9174(4) 0.4900(2)
C43 C 0.4695(3) 0.8434(4) 0.4828(2)
C44 C 0.5435(3) 0.8345(5) 0.4132(3)
H28 H 0.548245 0.808981 0.379788
H29 H 0.578456 0.813887 0.436067
H30 H 0.546920 0.895538 0.410229
C45 C 0.4098(3) 0.9718(4) 0.4440(2)
H31 H 0.415290 1.031579 0.453074
H32 H 0.439082 0.959798 0.415467
C46 C 0.3378(3) 0.9569(4) 0.4266(2)
C47 C 0.2846(3) 1.0028(4) 0.4472(2)
C48 C 0.2168(3) 0.9838(4) 0.4330(2)
C49 C 0.2030(3) 0.9205(4) 0.3970(2)
C50 C 0.2566(3) 0.8777(4) 0.3739(2)
C51 C 0.3228(3) 0.8949(4) 0.3884(2)
H33 H 0.357469 0.865293 0.372880
C52 C 0.3036(4) 1.1493(4) 0.4656(3)
H34 H 0.338563 1.150668 0.440657
H35 H 0.314541 1.187816 0.493371
H36 H 0.261880 1.166252 0.449486
C53 C 0.1348(3) 0.8865(4) 0.3799(3)
H37 H 0.097723 0.915256 0.397198
C54 C 0.1352(3) 0.7904(4) 0.3889(2)
C55 C 0.1880(3) 0.7483(4) 0.3628(2)
C56 C 0.2334(3) 0.8115(4) 0.3331(2)
H38 H 0.270750 0.783377 0.315777
C57 C 0.1848(4) 0.8584(4) 0.2956(3)
C58 C 0.1893(4) 0.8619(5) 0.2423(3)
H39 H 0.224793 0.835993 0.225568
C59 C 0.1387(5) 0.9057(6) 0.2141(3)
H40 H 0.141325 0.910019 0.178364
C60 C 0.0862(5) 0.9416(6) 0.2388(4)
H41 H 0.052694 0.968435 0.219296
C61 C 0.0808(4) 0.9397(5) 0.2926(3)
H42 H 0.045165 0.965948 0.309009
C62 C 0.1311(3) 0.8968(4) 0.3204(3)
C63 C 0.0915(3) 0.7446(4) 0.4186(2)
H43 H 0.059328 0.773363 0.437502
C64 C 0.0948(3) 0.6555(4) 0.4208(2)
C65 C 0.1443(3) 0.6130(4) 0.3933(2)
C66 C 0.1925(3) 0.6600(4) 0.3650(2)
C67 C 0.0429(3) 0.6045(4) 0.4503(2)
H44 H 0.035054 0.550835 0.432464
H45 H 0.000954 0.636018 0.449691
C68 C 0.1165(4) 0.4839(4) 0.3505(3)
H46 H 0.135591 0.505576 0.319351
H47 H 0.069271 0.496060 0.350435
H48 H 0.123360 0.423271 0.352365
C69 C 0.4938(3) 0.7962(4) 0.5259(3)
N1 N 0.2907(6) 0.7645(7) 0.1394(4)
C70 C 0.3189(6) 0.7075(8) 0.1585(5)
C71 C 0.3535(7) 0.6384(7) 0.1829(4)
H49 H 0.365513 0.654011 0.217735
H50 H 0.393435 0.625562 0.164254
H51 H 0.324933 0.588974 0.183244
N2 N 0.5338(4) 0.4261(5) 0.0650(3)
C72 C 0.5485(5) 0.5912(5) 0.0657(4)
H52 H 0.524796 0.615371 0.036552
H53 H 0.595405 0.604793 0.063662
H54 H 0.530997 0.614511 0.096977
C73 C 0.5399(4) 0.4990(6) 0.0656(3)
N3 N 0.6709(5) 0.8820(6) 0.3569(6)
C74 C 0.7202(7) 0.9054(8) 0.3761(5)
C75 C 0.7837(7) 0.9339(8) 0.3989(4)
H55 H 0.801006 0.890594 0.421863
H56 H 0.776784 0.985740 0.417893
H57 H 0.815332 0.944076 0.372108
N4 N 0.3994(5) 0.4941(7) 0.4265(5)
C76 C 0.2801(5) 0.4179(8) 0.4355(4)
H58 H 0.254527 0.444608 0.462071
H59 H 0.287009 0.358760 0.443861
H60 H 0.256178 0.422407 0.403096
C77 C 0.3486(7) 0.4629(8) 0.4315(4)
N5 N 0.5719(6) 0.2346(7) 0.7168(4)
C78 C 0.5444(5) 0.3496(6) 0.6464(4)
H61 H 0.500601 0.372523 0.652510
H62 H 0.544936 0.323456 0.612911
H63 H 0.577023 0.394767 0.648036
C79 C 0.5610(6) 0.2851(8) 0.6861(5)
N6 N 0.4525(8) 0.4131(8) 0.7968(5)
C80 C 0.3891(5) 0.3072(7) 0.7389(4)
H64 H 0.377857 0.334251 0.706592
H65 H 0.348625 0.290360 0.755685
H66 H 0.416182 0.257631 0.732740
C81 C 0.4258(6) 0.3660(8) 0.7713(5)
loop_
_geom_bond_atom_site_label_1
_geom_bond_atom_site_label_2
_geom_bond_site_symmetry_1
_geom_bond_site_symmetry_2
Br1 C1 1_555 1_555
Br2 C48 1_555 1_555
Br3 C66 1_555 1_555
Br4 C69 1_555 1_555
Br5 C28 1_555 1_555
Br6 C17 1_555 1_555
O1 C47 1_555 1_555
O2 C43 1_555 1_555
O3 C29 1_555 1_555
O4 C18 1_555 1_555
O5 C2 1_555 1_555
O6 C65 1_555 1_555
C1 C2 1_555 1_555
C2 C3 1_555 1_555
C3 C4 1_555 1_555
C4 H1 1_555 1_555
C5 C4 1_555 1_555
C6 C1 1_555 1_555
C7 C6 1_555 1_555
H2 C7 1_555 1_555
C8 C7 1_555 1_555
C9 C8 1_555 1_555
C10 C5 1_555 1_555
H3 C10 1_555 1_555
C11 C10 1_555 1_555
C12 C7 1_555 1_555
C13 C12 1_555 1_555
H4 C13 1_555 1_555
C14 C13 1_555 1_555
H5 C14 1_555 1_555
C15 C14 1_555 1_555
H6 C15 1_555 1_555
C16 C11 1_555 1_555
H7 C16 1_555 1_555
C17 C9 1_555 1_555
C18 C17 1_555 1_555
C19 C18 1_555 1_555
C20 C8 1_555 1_555
H8 C20 1_555 1_555
C21 O4 1_555 1_555
H9 C21 1_555 1_555
H10 C21 1_555 1_555
H11 C21 1_555 1_555
C22 O5 1_555 1_555
H12 C22 1_555 1_555
H13 C22 1_555 1_555
H14 C22 1_555 1_555
C23 C19 1_555 1_555
H15 C23 1_555 1_555
H16 C23 1_555 1_555
C24 C23 1_555 1_555
C25 C24 1_555 1_555
H17 C25 1_555 1_555
C26 C25 1_555 1_555
C27 C26 1_555 1_555
C28 C27 1_555 1_555
C29 C24 1_555 1_555
C30 O3 1_555 1_555
H18 C30 1_555 1_555
H19 C30 1_555 1_555
H20 C30 1_555 1_555
C31 C27 1_555 1_555
H21 C31 1_555 1_555
C32 C31 1_555 1_555
C33 C32 1_555 1_555
C34 C26 1_555 1_555
H22 C34 1_555 1_555
C35 C34 1_555 1_555
C36 C31 1_555 1_555
C37 C36 1_555 1_555
H23 C37 1_555 1_555
C38 C37 1_555 1_555
H24 C38 1_555 1_555
C39 C38 1_555 1_555
H25 C39 1_555 1_555
C40 C35 1_555 1_555
H26 C40 1_555 1_555
C41 C32 1_555 1_555
H27 C41 1_555 1_555
C42 C41 1_555 1_555
C43 C42 1_555 1_555
C44 O2 1_555 1_555
H28 C44 1_555 1_555
H29 C44 1_555 1_555
H30 C44 1_555 1_555
C45 C42 1_555 1_555
H31 C45 1_555 1_555
H32 C45 1_555 1_555
C46 C45 1_555 1_555
C47 C46 1_555 1_555
C48 C47 1_555 1_555
C49 C48 1_555 1_555
C50 C49 1_555 1_555
C51 C46 1_555 1_555
H33 C51 1_555 1_555
C52 O1 1_555 1_555
H34 C52 1_555 1_555
H35 C52 1_555 1_555
H36 C52 1_555 1_555
C53 C49 1_555 1_555
H37 C53 1_555 1_555
C54 C53 1_555 1_555
C55 C54 1_555 1_555
C56 C50 1_555 1_555
H38 C56 1_555 1_555
C57 C56 1_555 1_555
C58 C57 1_555 1_555
H39 C58 1_555 1_555
C59 C58 1_555 1_555
H40 C59 1_555 1_555
C60 C59 1_555 1_555
H41 C60 1_555 1_555
C61 C60 1_555 1_555
H42 C61 1_555 1_555
C62 C53 1_555 1_555
C63 C54 1_555 1_555
H43 C63 1_555 1_555
C64 C63 1_555 1_555
C65 C64 1_555 1_555
C66 C55 1_555 1_555
C67 C3 1_555 1_555
H44 C67 1_555 1_555
H45 C67 1_555 1_555
C68 O6 1_555 1_555
H46 C68 1_555 1_555
H47 C68 1_555 1_555
H48 C68 1_555 1_555
C69 C33 1_555 1_555
N1 C70 1_555 1_555
C70 C71 1_555 1_555
C71 H49 1_555 1_555
H50 C71 1_555 1_555
H51 C71 1_555 1_555
N2 C73 1_555 1_555
C72 H52 1_555 1_555
H53 C72 1_555 1_555
H54 C72 1_555 1_555
C73 C72 1_555 1_555
N3 C74 1_555 1_555
C74 C75 1_555 1_555
C75 H55 1_555 1_555
H56 C75 1_555 1_555
H57 C75 1_555 1_555
N4 C77 1_555 1_555
C76 H58 1_555 1_555
H59 C76 1_555 1_555
H60 C76 1_555 1_555
C77 C76 1_555 1_555
N5 C79 1_555 1_555
C78 H61 1_555 1_555
H62 C78 1_555 1_555
H63 C78 1_555 1_555
C79 C78 1_555 1_555
N6 C81 1_555 1_555
C80 H64 1_555 1_555
H65 C80 1_555 1_555
H66 C80 1_555 1_555
C81 C80 1_555 1_555
C5 C6 1_555 1_555
C9 C10 1_555 1_555
C11 C12 1_555 1_555
C15 C16 1_555 1_555
C19 C20 1_555 1_555
C28 C29 1_555 1_555
C33 C34 1_555 1_555
C35 C36 1_555 1_555
C39 C40 1_555 1_555
C43 C69 1_555 1_555
C50 C51 1_555 1_555
C55 C56 1_555 1_555
C57 C62 1_555 1_555
C61 C62 1_555 1_555
C64 C67 1_555 1_555
C65 C66 1_555 1_555

#END
