
#######################################################################
#
#                 Cambridge Crystallographic Data Centre
#                                CCDC 
#
#######################################################################
#
# If this CIF has been generated from an entry in the Cambridge 
# Structural Database, then it will include bibliographic, chemical, 
# crystal, experimental, refinement or atomic coordinate data resulting 
# from the CCDC's data processing and validation procedures.
#
#######################################################################

data_NIKFOD
_chemical_formula_moiety         'C14 H8 N2 O1'
_chemical_name_systematic        4-Phenoxyphthalonitrile
_symmetry_cell_setting           orthorhombic
_symmetry_space_group_name_H-M   'P b c a'
_symmetry_Int_Tables_number      61
_space_group_name_Hall           '-P 2ac 2ab'
loop_
_symmetry_equiv_pos_site_id
_symmetry_equiv_pos_as_xyz
1 x,y,z
2 1/2-x,-y,1/2+z
3 -x,1/2+y,1/2-z
4 1/2+x,1/2-y,-z
5 -x,-y,-z
6 1/2+x,y,1/2-z
7 x,1/2-y,1/2+z
8 1/2-x,1/2+y,z
_cell_length_a                   11.146(2)
_cell_length_b                   8.0132(16)
_cell_length_c                   24.880(5)
_cell_angle_alpha                90
_cell_angle_beta                 90
_cell_angle_gamma                90
_cell_volume                     2222.16
_cell_formula_units_Z            8
_exptl_crystal_recrystallization_method methanol
loop_
_atom_site_label
_atom_site_type_symbol
_atom_site_fract_x
_atom_site_fract_y
_atom_site_fract_z
C1 C 0.46128(12) 0.2395(2) 0.04465(6)
C2 C 0.36309(13) 0.13092(19) 0.04914(5)
C3 C 0.31708(14) 0.09280(19) 0.09899(6)
H1 H 0.2520 0.0207 0.1020
C4 C 0.36799(14) 0.16214(19) 0.14453(5)
C5 C 0.46429(14) 0.2698(2) 0.14054(6)
H2 H 0.4977 0.3165 0.1713
C6 C 0.51070(15) 0.3076(2) 0.09051(6)
H3 H 0.5758 0.3796 0.0877
C7 C 0.50989(14) 0.2790(2) -0.00703(6)
C8 C 0.31064(14) 0.0596(2) 0.00168(7)
C9 C 0.35225(13) 0.19109(19) 0.24057(6)
C10 C 0.27659(14) 0.3030(2) 0.26468(7)
H4 H 0.2066 0.3366 0.2474
C11 C 0.30486(16) 0.3655(2) 0.31471(7)
H5 H 0.2537 0.4413 0.3313
C12 C 0.40793(16) 0.3164(2) 0.33998(7)
H6 H 0.4266 0.3585 0.3738
C13 C 0.48375(15) 0.2052(2) 0.31556(7)
H7 H 0.5539 0.1728 0.3329
C14 C 0.45700(14) 0.1406(2) 0.26534(7)
H8 H 0.5083 0.0651 0.2487
N1 N 0.55047(13) 0.3079(2) -0.04799(6)
N2 N 0.27131(14) 0.0021(2) -0.03639(6)
O1 O 0.31488(11) 0.11786(15) 0.19209(4)
loop_
_geom_bond_atom_site_label_1
_geom_bond_atom_site_label_2
_geom_bond_site_symmetry_1
_geom_bond_site_symmetry_2
C1 C2 1_555 1_555
C2 C3 1_555 1_555
C3 H1 1_555 1_555
C4 C3 1_555 1_555
C5 C4 1_555 1_555
H2 C5 1_555 1_555
C6 C1 1_555 1_555
H3 C6 1_555 1_555
C7 C1 1_555 1_555
C8 C2 1_555 1_555
C9 C10 1_555 1_555
C10 H4 1_555 1_555
C11 C10 1_555 1_555
H5 C11 1_555 1_555
C12 C11 1_555 1_555
H6 C12 1_555 1_555
C13 C12 1_555 1_555
H7 C13 1_555 1_555
C14 C9 1_555 1_555
H8 C14 1_555 1_555
N1 C7 1_555 1_555
N2 C8 1_555 1_555
O1 C4 1_555 1_555
C5 C6 1_555 1_555
C9 O1 1_555 1_555
C13 C14 1_555 1_555

#END
