
#######################################################################
#
#                 Cambridge Crystallographic Data Centre
#                                CCDC 
#
#######################################################################
#
# If this CIF has been generated from an entry in the Cambridge 
# Structural Database, then it will include bibliographic, chemical, 
# crystal, experimental, refinement or atomic coordinate data resulting 
# from the CCDC's data processing and validation procedures.
#
#######################################################################

data_NIKFET
_chemical_formula_moiety         'C14 H8 N2 O1'
_chemical_name_systematic        3-Phenoxyphthalonitrile
_symmetry_cell_setting           monoclinic
_symmetry_space_group_name_H-M   'P 21/a'
_symmetry_Int_Tables_number      14
_space_group_name_Hall           '-P 2yab'
loop_
_symmetry_equiv_pos_site_id
_symmetry_equiv_pos_as_xyz
1 x,y,z
2 1/2-x,1/2+y,-z
3 -x,-y,-z
4 1/2+x,1/2-y,z
_cell_length_a                   6.9322(7)
_cell_length_b                   14.5330(12)
_cell_length_c                   11.7063(10)
_cell_angle_alpha                90
_cell_angle_beta                 102.616(3)
_cell_angle_gamma                90
_cell_volume                     1150.88
_exptl_crystal_colour            colorless
_exptl_crystal_description       needle
_cell_formula_units_Z            4
_exptl_crystal_recrystallization_method methanol
loop_
_atom_site_label
_atom_site_type_symbol
_atom_site_fract_x
_atom_site_fract_y
_atom_site_fract_z
O1 O 0.2543(3) 0.54279(11) 0.34733(13)
N1 N 0.2718(4) 0.35659(15) 0.1634(2)
N2 N 0.2648(3) 0.47082(16) -0.13658(18)
H1 H -0.097(4) 0.5948(16) 0.347(2)
H2 H 0.461(5) 0.586(2) 0.548(3)
H3 H -0.227(5) 0.660(2) 0.501(3)
H4 H 0.001(4) 0.688(2) 0.683(3)
H5 H 0.329(4) 0.6471(17) 0.709(3)
H6 H 0.223(4) 0.7198(17) 0.299(2)
H7 H 0.228(3) 0.787(2) 0.115(2)
H8 H 0.231(4) 0.6967(17) -0.046(2)
C1 C 0.2460(3) 0.57485(15) 0.03924(19)
C2 C 0.2509(3) 0.53332(13) 0.14774(17)
C3 C 0.2445(3) 0.58786(15) 0.24473(19)
C4 C 0.2319(4) 0.68325(16) 0.2320(3)
C5 C 0.2265(4) 0.72231(18) 0.1245(3)
C6 C 0.2322(4) 0.66969(17) 0.0270(3)
C7 C 0.2563(3) 0.51754(17) -0.0589(2)
C8 C 0.2638(3) 0.43480(16) 0.15910(18)
C9 C 0.1831(4) 0.58662(14) 0.43640(19)
C10 C 0.3112(4) 0.60017(17) 0.5419(2)
C11 C 0.2407(5) 0.63799(19) 0.6327(2)
C12 C 0.0448(5) 0.66115(18) 0.6167(3)
C13 C -0.0809(5) 0.64689(18) 0.5107(3)
C14 C -0.0141(4) 0.60818(17) 0.4188(2)
loop_
_geom_bond_atom_site_label_1
_geom_bond_atom_site_label_2
_geom_bond_site_symmetry_1
_geom_bond_site_symmetry_2
O1 C3 1_555 1_555
N1 C8 1_555 1_555
N2 C7 1_555 1_555
H1 C14 1_555 1_555
H2 C10 1_555 1_555
H3 C13 1_555 1_555
H4 C12 1_555 1_555
H5 C11 1_555 1_555
H6 C4 1_555 1_555
H7 C5 1_555 1_555
H8 C6 1_555 1_555
C1 C2 1_555 1_555
C2 C3 1_555 1_555
C3 C4 1_555 1_555
C4 C5 1_555 1_555
C5 C6 1_555 1_555
C6 C1 1_555 1_555
C7 C1 1_555 1_555
C8 C2 1_555 1_555
C9 O1 1_555 1_555
C10 C9 1_555 1_555
C11 C10 1_555 1_555
C12 C11 1_555 1_555
C13 C12 1_555 1_555
C14 C9 1_555 1_555
C13 C14 1_555 1_555

#END
