
#######################################################################
#
#                 Cambridge Crystallographic Data Centre
#                                CCDC 
#
#######################################################################
#
# If this CIF has been generated from an entry in the Cambridge 
# Structural Database, then it will include bibliographic, chemical, 
# crystal, experimental, refinement or atomic coordinate data resulting 
# from the CCDC's data processing and validation procedures.
#
#######################################################################

data_NIKGIA
_chemical_formula_moiety         'C15 H16 N2 O2 S1'
_chemical_name_systematic        
N-[(4-methylphenyl)sulfonyl]-N'-phenylethanimidamide
_symmetry_cell_setting           monoclinic
_symmetry_space_group_name_H-M   'P 21/c'
_symmetry_Int_Tables_number      14
_space_group_name_Hall           '-P 2ybc'
loop_
_symmetry_equiv_pos_site_id
_symmetry_equiv_pos_as_xyz
1 x,y,z
2 -x,1/2+y,1/2-z
3 -x,-y,-z
4 x,1/2-y,1/2+z
_cell_length_a                   8.1751(4)
_cell_length_b                   12.0147(5)
_cell_length_c                   14.6748(6)
_cell_angle_alpha                90
_cell_angle_beta                 98.073(2)
_cell_angle_gamma                90
_cell_volume                     1427.09
_exptl_crystal_colour            colorless
_exptl_crystal_description       block
_cell_formula_units_Z            4
loop_
_atom_site_label
_atom_site_type_symbol
_atom_site_fract_x
_atom_site_fract_y
_atom_site_fract_z
S1 S 0.46836(5) 0.18084(3) 0.70972(3)
O1 O 0.45216(17) 0.23024(11) 0.79780(8)
N1 N 0.39935(19) 0.34555(12) 0.48793(9)
C1 C 0.4522(2) 0.26683(14) 0.54931(11)
O2 O 0.61882(16) 0.12057(11) 0.70467(9)
C2 C 0.5308(3) 0.16823(15) 0.50985(12)
H1 H 0.522695 0.176571 0.442934
H2 H 0.473563 0.100101 0.524169
H3 H 0.647300 0.163669 0.536692
N2 N 0.43098(19) 0.27986(12) 0.63619(9)
C3 C 0.3102(2) 0.44527(14) 0.49819(11)
C4 C 0.2511(3) 0.49972(17) 0.41682(13)
H4 H 0.272029 0.469641 0.359716
C5 C 0.1621(3) 0.59716(18) 0.41812(14)
H5 H 0.123946 0.634408 0.362054
C6 C 0.1284(3) 0.64067(17) 0.50021(14)
H6 H 0.064467 0.706586 0.501099
C7 C 0.1888(3) 0.58723(16) 0.58124(13)
H7 H 0.167182 0.617717 0.638077
C8 C 0.2801(2) 0.49025(15) 0.58152(12)
H8 H 0.321613 0.454845 0.637925
C9 C 0.3005(2) 0.08894(14) 0.68272(11)
C10 C 0.1404(2) 0.13151(17) 0.66927(14)
H9 H 0.122672 0.209594 0.670770
C11 C 0.0082(3) 0.0600(2) 0.65383(16)
H10 H -0.100965 0.089053 0.645157
C12 C 0.0323(3) -0.05511(19) 0.65073(15)
C13 C 0.1910(3) -0.09533(17) 0.66474(14)
H11 H 0.208623 -0.173426 0.663277
C14 C 0.3263(2) -0.02482(15) 0.68098(12)
H12 H 0.435256 -0.054224 0.690778
C15 C -0.1151(4) -0.1324(3) 0.6332(2)
H13 H -0.199644 -0.108549 0.670261
H14 H -0.080285 -0.208514 0.650273
H15 H -0.160764 -0.130064 0.567840
H16 H 0.506(2) 0.3447(16) 0.646(12)
loop_
_geom_bond_atom_site_label_1
_geom_bond_atom_site_label_2
_geom_bond_site_symmetry_1
_geom_bond_site_symmetry_2
S1 O1 1_555 1_555
N1 C1 1_555 1_555
C1 C2 1_555 1_555
O2 S1 1_555 1_555
C2 H1 1_555 1_555
H2 C2 1_555 1_555
H3 C2 1_555 1_555
N2 S1 1_555 1_555
C3 N1 1_555 1_555
C4 C3 1_555 1_555
H4 C4 1_555 1_555
C5 C4 1_555 1_555
H5 C5 1_555 1_555
C6 C5 1_555 1_555
H6 C6 1_555 1_555
C7 C6 1_555 1_555
H7 C7 1_555 1_555
C8 C3 1_555 1_555
H8 C8 1_555 1_555
C9 S1 1_555 1_555
C10 C9 1_555 1_555
H9 C10 1_555 1_555
C11 C10 1_555 1_555
H10 C11 1_555 1_555
C12 C11 1_555 1_555
C13 C12 1_555 1_555
H11 C13 1_555 1_555
C14 C9 1_555 1_555
H12 C14 1_555 1_555
C15 C12 1_555 1_555
H13 C15 1_555 1_555
H14 C15 1_555 1_555
H15 C15 1_555 1_555
H16 N2 1_555 1_555
C1 N2 1_555 1_555
C7 C8 1_555 1_555
C13 C14 1_555 1_555

#END
