
#######################################################################
#
#                 Cambridge Crystallographic Data Centre
#                                CCDC 
#
#######################################################################
#
# If this CIF has been generated from an entry in the Cambridge 
# Structural Database, then it will include bibliographic, chemical, 
# crystal, experimental, refinement or atomic coordinate data resulting 
# from the CCDC's data processing and validation procedures.
#
#######################################################################

data_NIKJUP
_chemical_formula_moiety         'C8 H9 N1 O3'
_chemical_name_systematic        2-[(hydroxyimino)methyl]-5-methoxyphenol
_symmetry_cell_setting           monoclinic
_symmetry_space_group_name_H-M   'P 21/c'
_symmetry_Int_Tables_number      14
_space_group_name_Hall           '-P 2ybc'
loop_
_symmetry_equiv_pos_site_id
_symmetry_equiv_pos_as_xyz
1 x,y,z
2 -x,1/2+y,1/2-z
3 -x,-y,-z
4 x,1/2-y,1/2+z
_cell_length_a                   9.3591(13)
_cell_length_b                   6.2634(7)
_cell_length_c                   13.6260(2)
_cell_angle_alpha                90
_cell_angle_beta                 108.636(16)
_cell_angle_gamma                90
_cell_volume                     756.873
_exptl_crystal_colour            colorless
_exptl_crystal_description       plate
_cell_formula_units_Z            4
loop_
_atom_site_label
_atom_site_type_symbol
_atom_site_fract_x
_atom_site_fract_y
_atom_site_fract_z
O1 O 0.63191(14) 0.1847(2) 0.42822(9)
H1 H 0.711(3) 0.265(5) 0.423(2)
O2 O 0.91351(14) 0.6293(2) 0.38674(10)
H2 H 0.981(3) 0.524(5) 0.388(2)
O3 O 0.10398(13) 0.30632(19) 0.36291(8)
N1 N 0.78766(16) 0.5076(2) 0.38782(11)
C1 C 0.52304(18) 0.5260(3) 0.36005(11)
C2 C 0.51014(18) 0.3173(3) 0.39480(11)
C3 C 0.37212(18) 0.2374(3) 0.39667(12)
H3 H 0.365066 0.097118 0.421199
C4 C 0.24440(19) 0.3667(3) 0.36197(12)
C5 C 0.25337(19) 0.5722(3) 0.32479(12)
H4 H 0.165354 0.657670 0.299366
C6 C 0.39104(19) 0.6495(3) 0.32543(12)
H5 H 0.397195 0.790761 0.301740
C7 C 0.66646(18) 0.6195(3) 0.36181(12)
H6 H 0.670249 0.765245 0.343458
C8 C 0.0866(2) 0.0952(3) 0.39792(14)
H7 H -0.018185 0.074061 0.395637
H8 H 0.153667 0.076825 0.469161
H9 H 0.112340 -0.009659 0.352899
loop_
_geom_bond_atom_site_label_1
_geom_bond_atom_site_label_2
_geom_bond_site_symmetry_1
_geom_bond_site_symmetry_2
O1 H1 1_555 1_555
O2 H2 1_555 1_555
O3 C4 1_555 1_555
N1 O2 1_555 1_555
C1 C2 1_555 1_555
C2 O1 1_555 1_555
C3 C2 1_555 1_555
H3 C3 1_555 1_555
C4 C3 1_555 1_555
C5 C4 1_555 1_555
H4 C5 1_555 1_555
C6 C1 1_555 1_555
H5 C6 1_555 1_555
C7 N1 1_555 1_555
H6 C7 1_555 1_555
C8 O3 1_555 1_555
H7 C8 1_555 1_555
H8 C8 1_555 1_555
H9 C8 1_555 1_555
C1 C7 1_555 1_555
C5 C6 1_555 1_555

#END
