
#######################################################################
#
#                 Cambridge Crystallographic Data Centre
#                                CCDC 
#
#######################################################################
#
# If this CIF has been generated from an entry in the Cambridge 
# Structural Database, then it will include bibliographic, chemical, 
# crystal, experimental, refinement or atomic coordinate data resulting 
# from the CCDC's data processing and validation procedures.
#
#######################################################################

data_NIKMUS
_chemical_formula_moiety         'C30 H25 F1 N2 O4'
_chemical_name_systematic        
11-(4-fluorophenyl)-2,3,6,7-tetramethoxy-10-methyl-10H-triphenyleno[2,3-d]imidazole
_symmetry_cell_setting           monoclinic
_symmetry_space_group_name_H-M   'P 21/c'
_symmetry_Int_Tables_number      14
_space_group_name_Hall           '-P 2ybc'
loop_
_symmetry_equiv_pos_site_id
_symmetry_equiv_pos_as_xyz
1 x,y,z
2 -x,1/2+y,1/2-z
3 -x,-y,-z
4 x,1/2-y,1/2+z
_cell_length_a                   11.551(3)
_cell_length_b                   12.966(3)
_cell_length_c                   15.938(4)
_cell_angle_alpha                90
_cell_angle_beta                 104.819(6)
_cell_angle_gamma                90
_cell_volume                     2307.64
_exptl_crystal_colour            red
_exptl_crystal_description       block
_cell_formula_units_Z            4
loop_
_atom_site_label
_atom_site_type_symbol
_atom_site_fract_x
_atom_site_fract_y
_atom_site_fract_z
O1 O 0.4255(2) 0.66544(16) 0.39352(15)
F1 F 1.26210(19) 0.07551(18) 0.18410(16)
O2 O 0.2419(2) 0.61337(18) 0.44791(16)
O3 O 0.0862(2) 0.08109(17) 0.47396(16)
O4 O 0.2252(2) -0.06115(17) 0.44330(19)
N1 N 0.7660(2) 0.0876(2) 0.30821(18)
N2 N 0.8063(3) 0.2539(2) 0.2869(2)
C1 C 0.3484(3) 0.3533(2) 0.4088(2)
C2 C 0.4495(3) 0.3806(2) 0.3811(2)
C3 C 0.5275(3) 0.3004(2) 0.3607(2)
C4 C 0.3940(3) 0.1680(2) 0.4003(2)
C5 C 0.6771(3) 0.1449(2) 0.3292(2)
C6 C 0.3176(3) 0.2453(2) 0.4172(2)
C7 C 0.4051(3) 0.5623(2) 0.3965(2)
C8 C 0.2768(3) 0.4319(2) 0.4303(2)
H1 H 0.2073 0.4136 0.4485
C9 C 0.4754(3) 0.4862(2) 0.3741(2)
H2 H 0.5426 0.5053 0.3535
C10 C 0.3047(3) 0.5342(2) 0.4256(2)
C11 C 0.5009(3) 0.1944(2) 0.3722(2)
C12 C 0.2144(3) 0.2158(2) 0.4439(2)
H3 H 0.1638 0.2678 0.4569
C13 C 0.1857(3) 0.1147(2) 0.4515(2)
C14 C 0.6285(3) 0.3255(2) 0.3308(2)
H4 H 0.6457 0.3955 0.3211
C15 C 0.7029(3) 0.2478(2) 0.3155(2)
C16 C 0.3624(3) 0.0632(2) 0.4096(2)
H5 H 0.4127 0.0100 0.3980
C17 C 0.5774(3) 0.1167(2) 0.3567(2)
H6 H 0.5610 0.0462 0.3649
C18 C 0.9495(3) 0.1310(3) 0.2547(2)
C19 C 0.2614(3) 0.0369(2) 0.4350(2)
C20 C 0.5316(3) 0.6982(3) 0.3698(2)
H7 H 0.5278 0.6755 0.3105
H8 H 0.6022 0.6678 0.4099
H9 H 0.5374 0.7736 0.3729
C21 C 0.8408(3) 0.1574(3) 0.2825(2)
C22 C 0.0085(3) 0.1570(3) 0.4931(2)
H10 H -0.0198 0.2021 0.4426
H11 H 0.0516 0.1982 0.5428
H12 H -0.0602 0.1233 0.5071
C23 C 1.1590(3) 0.0937(3) 0.2074(2)
C24 C 0.2953(4) -0.1426(3) 0.4209(3)
H13 H 0.2927 -0.1381 0.3591
H14 H 0.2628 -0.2093 0.4329
H15 H 0.3783 -0.1363 0.4555
C25 C 1.0186(4) 0.2113(3) 0.2371(3)
H16 H 0.9937 0.2804 0.2418
C26 C 1.1231(4) 0.1926(3) 0.2130(3)
H17 H 1.1694 0.2483 0.2004
C27 C 0.1472(4) 0.5884(3) 0.4865(3)
H18 H 0.0821 0.5551 0.4433
H19 H 0.1173 0.6516 0.5074
H20 H 0.1769 0.5413 0.5353
C28 C 0.7747(4) -0.0241(3) 0.3179(3)
H21 H 0.7139 -0.0487 0.3461
H22 H 0.8545 -0.0426 0.3535
H23 H 0.7618 -0.0562 0.2605
C29 C 1.0938(4) 0.0118(3) 0.2219(4)
H24 H 1.1189 -0.0569 0.2157
C30 C 0.9891(4) 0.0320(3) 0.2463(4)
H25 H 0.9428 -0.0244 0.2575
loop_
_geom_bond_atom_site_label_1
_geom_bond_atom_site_label_2
_geom_bond_site_symmetry_1
_geom_bond_site_symmetry_2
O1 C7 1_555 1_555
F1 C23 1_555 1_555
O2 C10 1_555 1_555
O3 C13 1_555 1_555
O4 C19 1_555 1_555
N1 C5 1_555 1_555
N2 C15 1_555 1_555
C1 C2 1_555 1_555
C2 C3 1_555 1_555
C3 C11 1_555 1_555
C4 C6 1_555 1_555
C5 C15 1_555 1_555
C6 C1 1_555 1_555
C7 C9 1_555 1_555
C8 C1 1_555 1_555
H1 C8 1_555 1_555
C9 C2 1_555 1_555
H2 C9 1_555 1_555
C10 C7 1_555 1_555
C11 C4 1_555 1_555
C12 C6 1_555 1_555
H3 C12 1_555 1_555
C13 C12 1_555 1_555
C14 C3 1_555 1_555
H4 C14 1_555 1_555
C15 C14 1_555 1_555
C16 C4 1_555 1_555
H5 C16 1_555 1_555
C17 C5 1_555 1_555
H6 C17 1_555 1_555
C18 C21 1_555 1_555
C19 C13 1_555 1_555
C20 O1 1_555 1_555
H7 C20 1_555 1_555
H8 C20 1_555 1_555
H9 C20 1_555 1_555
C21 N1 1_555 1_555
C22 O3 1_555 1_555
H10 C22 1_555 1_555
H11 C22 1_555 1_555
H12 C22 1_555 1_555
C23 C26 1_555 1_555
C24 O4 1_555 1_555
H13 C24 1_555 1_555
H14 C24 1_555 1_555
H15 C24 1_555 1_555
C25 C18 1_555 1_555
H16 C25 1_555 1_555
C26 C25 1_555 1_555
H17 C26 1_555 1_555
C27 O2 1_555 1_555
H18 C27 1_555 1_555
H19 C27 1_555 1_555
H20 C27 1_555 1_555
C28 N1 1_555 1_555
H21 C28 1_555 1_555
H22 C28 1_555 1_555
H23 C28 1_555 1_555
C29 C23 1_555 1_555
H24 C29 1_555 1_555
C30 C18 1_555 1_555
H25 C30 1_555 1_555
N2 C21 1_555 1_555
C8 C10 1_555 1_555
C11 C17 1_555 1_555
C16 C19 1_555 1_555
C29 C30 1_555 1_555

#END
