
#######################################################################
#
#                 Cambridge Crystallographic Data Centre
#                                CCDC 
#
#######################################################################
#
# If this CIF has been generated from an entry in the Cambridge 
# Structural Database, then it will include bibliographic, chemical, 
# crystal, experimental, refinement or atomic coordinate data resulting 
# from the CCDC's data processing and validation procedures.
#
#######################################################################

data_NIKSAC
_chemical_formula_moiety         'C19 H19 Br1 F1 N1 O1'
_chemical_name_systematic        
2-((4-Bromophenyl)(4-fluorophenylamino)methyl)cyclohexanone
_symmetry_cell_setting           monoclinic
_symmetry_space_group_name_H-M   'P 21/n'
_symmetry_Int_Tables_number      14
_space_group_name_Hall           '-P 2yn'
loop_
_symmetry_equiv_pos_site_id
_symmetry_equiv_pos_as_xyz
1 x,y,z
2 1/2-x,1/2+y,1/2-z
3 -x,-y,-z
4 1/2+x,1/2-y,1/2+z
_cell_length_a                   12.6501(14)
_cell_length_b                   8.2310(9)
_cell_length_c                   17.0111(18)
_cell_angle_alpha                90
_cell_angle_beta                 103.031(2)
_cell_angle_gamma                90
_cell_volume                     1725.63
_exptl_crystal_colour            colorless
_exptl_crystal_description       prismatic
_chemical_melting_point          '386-387 K'
_cell_formula_units_Z            4
_exptl_crystal_recrystallization_method dichloromethane/hexane
loop_
_atom_site_label
_atom_site_type_symbol
_atom_site_fract_x
_atom_site_fract_y
_atom_site_fract_z
Br1 Br 0.04416(4) -0.08221(6) 0.22974(3)
F1 F 0.4047(2) -0.0544(3) 0.82439(15)
N1 N 0.3694(2) 0.3266(4) 0.55354(17)
H1 H 0.4227 0.3337 0.5347
O1 O 0.4507(2) 0.7010(3) 0.53240(16)
C1 C 0.3566(3) 0.6596(5) 0.5257(2)
C2 C 0.2870(3) 0.7350(5) 0.5766(2)
H2 H 0.3290 0.8137 0.6132
H3 H 0.2620 0.6518 0.6085
C3 C 0.1896(3) 0.8187(6) 0.5221(3)
H4 H 0.1414 0.8591 0.5547
H5 H 0.2145 0.9108 0.4956
C4 C 0.1277(3) 0.7028(5) 0.4588(3)
H6 H 0.0967 0.6162 0.4851
H7 H 0.0687 0.7605 0.4236
C5 C 0.2005(3) 0.6311(5) 0.4095(2)
H8 H 0.2255 0.7171 0.3791
H9 H 0.1592 0.5547 0.3711
C6 C 0.3002(3) 0.5429(4) 0.4614(2)
H10 H 0.3501 0.5158 0.4269
C7 C 0.2709(3) 0.3845(4) 0.5007(2)
H11 H 0.2194 0.4120 0.5339
C8 C 0.2161(3) 0.2645(4) 0.4365(2)
C9 C 0.2742(3) 0.1833(5) 0.3891(2)
H12 H 0.3489 0.1980 0.3986
C10 C 0.2239(3) 0.0810(5) 0.3282(2)
H13 H 0.2642 0.0292 0.2961
C11 C 0.1146(3) 0.0558(5) 0.3149(2)
C12 C 0.0553(3) 0.1319(5) 0.3614(2)
H14 H -0.0192 0.1156 0.3519
C13 C 0.1063(3) 0.2331(5) 0.4227(2)
H15 H 0.0658 0.2816 0.4557
C14 C 0.3719(3) 0.2214(4) 0.6170(2)
C15 C 0.2835(3) 0.1887(5) 0.6498(2)
H16 H 0.2157 0.2295 0.6247
C16 C 0.2939(3) 0.0961(5) 0.7196(2)
H17 H 0.2345 0.0783 0.7422
C17 C 0.3928(4) 0.0321(5) 0.7540(2)
C18 C 0.4799(3) 0.0540(5) 0.7218(3)
H18 H 0.5463 0.0074 0.7458
C19 C 0.4693(3) 0.1465(5) 0.6528(2)
H19 H 0.5288 0.1591 0.6297
loop_
_geom_bond_atom_site_label_1
_geom_bond_atom_site_label_2
_geom_bond_site_symmetry_1
_geom_bond_site_symmetry_2
Br1 C11 1_555 1_555
F1 C17 1_555 1_555
N1 H1 1_555 1_555
O1 C1 1_555 1_555
C1 C2 1_555 1_555
C2 H2 1_555 1_555
H3 C2 1_555 1_555
C3 C2 1_555 1_555
H4 C3 1_555 1_555
H5 C3 1_555 1_555
C4 C3 1_555 1_555
H6 C4 1_555 1_555
H7 C4 1_555 1_555
C5 C4 1_555 1_555
H8 C5 1_555 1_555
H9 C5 1_555 1_555
C6 C1 1_555 1_555
H10 C6 1_555 1_555
C7 N1 1_555 1_555
H11 C7 1_555 1_555
C8 C7 1_555 1_555
C9 C8 1_555 1_555
H12 C9 1_555 1_555
C10 C9 1_555 1_555
H13 C10 1_555 1_555
C11 C10 1_555 1_555
C12 C11 1_555 1_555
H14 C12 1_555 1_555
C13 C8 1_555 1_555
H15 C13 1_555 1_555
C14 N1 1_555 1_555
C15 C14 1_555 1_555
H16 C15 1_555 1_555
C16 C15 1_555 1_555
H17 C16 1_555 1_555
C17 C16 1_555 1_555
C18 C17 1_555 1_555
H18 C18 1_555 1_555
C19 C14 1_555 1_555
H19 C19 1_555 1_555
C5 C6 1_555 1_555
C6 C7 1_555 1_555
C12 C13 1_555 1_555
C18 C19 1_555 1_555

#END
