
#######################################################################
#
#                 Cambridge Crystallographic Data Centre
#                                CCDC 
#
#######################################################################
#
# If this CIF has been generated from an entry in the Cambridge 
# Structural Database, then it will include bibliographic, chemical, 
# crystal, experimental, refinement or atomic coordinate data resulting 
# from the CCDC's data processing and validation procedures.
#
#######################################################################

data_NIKWOW
_chemical_formula_moiety         'C20 H19 Cl1 N2 O2'
_chemical_name_systematic        
'ethyl [2-(4-chlorophenyl)-1-(isoquinolin-1-yl)ethyl]carbamate'
_symmetry_cell_setting           monoclinic
_symmetry_space_group_name_H-M   'P 21'
_symmetry_Int_Tables_number      4
_space_group_name_Hall           'P 2yb'
loop_
_symmetry_equiv_pos_site_id
_symmetry_equiv_pos_as_xyz
1 x,y,z
2 -x,1/2+y,-z
_cell_length_a                   4.8686(2)
_cell_length_b                   12.4297(4)
_cell_length_c                   15.3404(7)
_cell_angle_alpha                90
_cell_angle_beta                 99.020(4)
_cell_angle_gamma                90
_cell_volume                     916.848
_exptl_crystal_colour            colorless
_exptl_crystal_description       needle
_cell_formula_units_Z            2
loop_
_atom_site_label
_atom_site_type_symbol
_atom_site_fract_x
_atom_site_fract_y
_atom_site_fract_z
C1 C 0.6149(10) 0.7505(4) 0.0176(3)
H1 H 0.6435 0.7884 -0.0325
C2 C 0.4428(11) 0.7907(4) 0.0706(4)
H2 H 0.3531 0.8559 0.0562
C3 C 0.3968(10) 0.7359(4) 0.1472(4)
H3 H 0.2799 0.7653 0.1834
C4 C 0.5247(9) 0.6393(4) 0.1683(3)
H4 H 0.4922 0.6031 0.2188
C5 C 0.7058(8) 0.5934(3) 0.1146(3)
C6 C 0.7521(9) 0.6508(4) 0.0378(3)
C7 C 0.9346(10) 0.6049(4) -0.0146(3)
H5 H 0.9674 0.6392 -0.0659
C8 C 1.0623(10) 0.5102(4) 0.0105(3)
H6 H 1.1869 0.4824 -0.0238
C9 C 0.8431(8) 0.4921(3) 0.1316(3)
C10 C 0.7957(9) 0.4257(3) 0.2112(3)
H7 H 0.6019 0.4348 0.2200
C11 C 0.9879(10) 0.4658(4) 0.2951(3)
H8 H 1.1799 0.4518 0.2889
H9 H 0.9659 0.5429 0.3003
C12 C 0.9266(10) 0.4126(4) 0.3778(3)
C13 C 0.7448(12) 0.4585(4) 0.4275(3)
H10 H 0.6659 0.5250 0.4109
C14 C 0.6771(13) 0.4070(5) 0.5019(4)
H11 H 0.5560 0.4391 0.5353
C15 C 0.7911(14) 0.3088(6) 0.5251(4)
C16 C 0.9706(14) 0.2609(5) 0.4774(4)
H12 H 1.0465 0.1939 0.4939
C17 C 1.0384(12) 0.3132(5) 0.4039(4)
H13 H 1.1618 0.2809 0.3714
C18 C 0.6659(8) 0.2369(4) 0.2150(3)
C19 C 0.6167(14) 0.0472(5) 0.2289(6)
H14 H 0.5032 0.0210 0.1755
H15 H 0.4946 0.0680 0.2703
C20 C 0.810(3) -0.0378(10) 0.2677(11)
H16 H 0.9237 -0.0601 0.2254
H17 H 0.7050 -0.0981 0.2837
H18 H 0.9255 -0.0103 0.3194
Cl1 Cl 0.6998(6) 0.2429(2) 0.61727(13)
N1 N 1.0188(8) 0.4536(3) 0.0829(3)
N2 N 0.8447(8) 0.3126(3) 0.1971(3)
H19 H 1.002(12) 0.300(5) 0.191(4)
O1 O 0.4372(6) 0.2518(3) 0.2318(3)
O2 O 0.7803(7) 0.1387(3) 0.2089(3)
H20? H 0.6593 -0.0147 0.1950
H21? H 0.4203 0.0633 0.2129
C21? C 0.681(8) 0.022(2) 0.3258(18)
H22? H 0.8763 0.0302 0.3458
H23? H 0.6267 -0.0508 0.3357
H24? H 0.5793 0.0702 0.3579
loop_
_geom_bond_atom_site_label_1
_geom_bond_atom_site_label_2
_geom_bond_site_symmetry_1
_geom_bond_site_symmetry_2
C1 H1 1_555 1_555
C2 C1 1_555 1_555
H2 C2 1_555 1_555
C3 C2 1_555 1_555
H3 C3 1_555 1_555
C4 C3 1_555 1_555
H4 C4 1_555 1_555
C5 C4 1_555 1_555
C6 C1 1_555 1_555
C7 C6 1_555 1_555
H5 C7 1_555 1_555
C8 C7 1_555 1_555
H6 C8 1_555 1_555
C9 C5 1_555 1_555
C10 C9 1_555 1_555
H7 C10 1_555 1_555
C11 C10 1_555 1_555
H8 C11 1_555 1_555
H9 C11 1_555 1_555
C12 C11 1_555 1_555
C13 C12 1_555 1_555
H10 C13 1_555 1_555
C14 C13 1_555 1_555
H11 C14 1_555 1_555
C15 C14 1_555 1_555
C16 C15 1_555 1_555
H12 C16 1_555 1_555
C17 C12 1_555 1_555
H13 C17 1_555 1_555
C18 N2 1_555 1_555
C19 H14 1_555 1_555
H15 C19 1_555 1_555
C20 C19 1_555 1_555
H16 C20 1_555 1_555
H17 C20 1_555 1_555
H18 C20 1_555 1_555
Cl1 C15 1_555 1_555
N1 C8 1_555 1_555
N2 C10 1_555 1_555
H19 N2 1_555 1_555
O1 C18 1_555 1_555
O2 C18 1_555 1_555
C5 C6 1_555 1_555
C9 N1 1_555 1_555
C16 C17 1_555 1_555
C19 O2 1_555 1_555

#END
