
#######################################################################
#
#                 Cambridge Crystallographic Data Centre
#                                CCDC 
#
#######################################################################
#
# If this CIF has been generated from an entry in the Cambridge 
# Structural Database, then it will include bibliographic, chemical, 
# crystal, experimental, refinement or atomic coordinate data resulting 
# from the CCDC's data processing and validation procedures.
#
#######################################################################

data_NIKWAG
_chemical_formula_moiety         'C16 H14 Cl2 N2 O2'
_chemical_name_systematic        
(E,E)-4,4'-Dichloro-2,2'-(1,1'-azinodiethylene)diphenol
_symmetry_cell_setting           triclinic
_symmetry_space_group_name_H-M   'P -1'
_symmetry_Int_Tables_number      2
_space_group_name_Hall           '-P 1'
loop_
_symmetry_equiv_pos_site_id
_symmetry_equiv_pos_as_xyz
1 x,y,z
2 -x,-y,-z
_cell_length_a                   3.9105(2)
_cell_length_b                   6.2985(4)
_cell_length_c                   15.1479(9)
_cell_angle_alpha                89.520(2)
_cell_angle_beta                 88.792(1)
_cell_angle_gamma                86.164(2)
_cell_volume                     372.169
_exptl_crystal_colour            colorless
_exptl_crystal_description       plate
_cell_formula_units_Z            1
_exptl_crystal_recrystallization_method acetone
loop_
_atom_site_label
_atom_site_type_symbol
_atom_site_fract_x
_atom_site_fract_y
_atom_site_fract_z
Cl1 Cl 0.07776(19) 0.29780(11) 0.07597(4)
O1 O 0.6578(4) -0.3076(2) 0.33622(10)
H1 H 0.6553 -0.2565 0.3859
N1 N 0.5071(4) -0.0325(3) 0.45587(10)
C1 C 0.5138(5) -0.1637(3) 0.27931(13)
C2 C 0.3675(5) 0.0368(3) 0.30718(13)
C3 C 0.2340(5) 0.1759(3) 0.24204(13)
H2 H 0.1387 0.3095 0.2581
C4 C 0.2415(6) 0.1185(4) 0.15515(14)
C5 C 0.3773(6) -0.0796(4) 0.12886(14)
H3 H 0.3771 -0.1182 0.0697
C6 C 0.5124(6) -0.2187(4) 0.19101(14)
H4 H 0.6046 -0.3521 0.1736
C7 C 0.3551(5) 0.0988(3) 0.40064(12)
C8 C 0.1725(6) 0.3052(3) 0.42815(14)
H5 H 0.0690 0.2888 0.4856
H6 H -0.0020 0.3455 0.3864
H7 H 0.3335 0.4136 0.4300
Cl1A Cl 0.92224(19) -0.29780(11) 0.92403(4)
O1A O 0.3422(4) 0.3076(2) 0.66378(10)
H1A H 0.3447 0.2565 0.6141
N1A N 0.4929(4) 0.0325(3) 0.54413(10)
C1A C 0.4862(5) 0.1637(3) 0.72069(13)
C2A C 0.6325(5) -0.0368(3) 0.69282(13)
C3A C 0.7660(5) -0.1759(3) 0.75796(13)
H2A H 0.8613 -0.3095 0.7419
C4A C 0.7585(6) -0.1185(4) 0.84485(14)
C5A C 0.6227(6) 0.0796(4) 0.87114(14)
H3A H 0.6229 0.1182 0.9303
C6A C 0.4876(6) 0.2187(4) 0.80899(14)
H4A H 0.3954 0.3521 0.8264
C7A C 0.6449(5) -0.0988(3) 0.59936(12)
C8A C 0.8275(6) -0.3052(3) 0.57185(14)
H5A H 0.9310 -0.2888 0.5144
H6A H 1.0020 -0.3455 0.6136
H7A H 0.6665 -0.4136 0.5700
loop_
_geom_bond_atom_site_label_1
_geom_bond_atom_site_label_2
_geom_bond_site_symmetry_1
_geom_bond_site_symmetry_2
Cl1 C4 1_555 1_555
O1 H1 1_555 1_555
N1 C7 1_555 1_555
C1 O1 1_555 1_555
C2 C1 1_555 1_555
C3 C2 1_555 1_555
H2 C3 1_555 1_555
C4 C3 1_555 1_555
C5 C4 1_555 1_555
H3 C5 1_555 1_555
C6 C1 1_555 1_555
H4 C6 1_555 1_555
C7 C2 1_555 1_555
C8 C7 1_555 1_555
H5 C8 1_555 1_555
H6 C8 1_555 1_555
H7 C8 1_555 1_555
Cl1A C4A 1_555 1_555
O1A H1A 1_555 1_555
N1A N1 1_555 1_555
C1A O1A 1_555 1_555
C2A C1A 1_555 1_555
C3A C2A 1_555 1_555
H2A C3A 1_555 1_555
C4A C3A 1_555 1_555
C5A C4A 1_555 1_555
H3A C5A 1_555 1_555
C6A C1A 1_555 1_555
H4A C6A 1_555 1_555
C7A N1A 1_555 1_555
C8A C7A 1_555 1_555
H5A C8A 1_555 1_555
H6A C8A 1_555 1_555
H7A C8A 1_555 1_555
C5 C6 1_555 1_555
C2A C7A 1_555 1_555
C5A C6A 1_555 1_555

#END
