
#######################################################################
#
#                 Cambridge Crystallographic Data Centre
#                                CCDC 
#
#######################################################################
#
# If this CIF has been generated from an entry in the Cambridge 
# Structural Database, then it will include bibliographic, chemical, 
# crystal, experimental, refinement or atomic coordinate data resulting 
# from the CCDC's data processing and validation procedures.
#
#######################################################################

data_NIKYUD
_chemical_formula_moiety         'C16 H10 O8,H2 O1'
_chemical_name_systematic        
"Biphenyl-2,4,4',6-tetracarboxylic acid monohydrate"
_symmetry_cell_setting           monoclinic
_symmetry_space_group_name_H-M   'P 21/c'
_symmetry_Int_Tables_number      14
_space_group_name_Hall           '-P 2ybc'
loop_
_symmetry_equiv_pos_site_id
_symmetry_equiv_pos_as_xyz
1 x,y,z
2 -x,1/2+y,1/2-z
3 -x,-y,-z
4 x,1/2-y,1/2+z
_cell_length_a                   5.638(4)
_cell_length_b                   16.160(11)
_cell_length_c                   16.798(12)
_cell_angle_alpha                90
_cell_angle_beta                 92.524(12)
_cell_angle_gamma                90
_cell_volume                     1528.98
_exptl_crystal_colour            colorless
_exptl_crystal_description       prism
_cell_formula_units_Z            4
loop_
_atom_site_label
_atom_site_type_symbol
_atom_site_fract_x
_atom_site_fract_y
_atom_site_fract_z
C1 C -0.0695(3) 0.89761(9) 0.06051(8)
C2 C -0.0558(3) 0.89091(9) -0.02802(8)
C3 C 0.1413(3) 0.85407(10) -0.06078(8)
H1 H 0.2633 0.8333 -0.0274
C4 C 0.1565(3) 0.84821(10) -0.14271(8)
H2 H 0.2885 0.8236 -0.1641
C5 C -0.0247(2) 0.87892(8) -0.19285(7)
C6 C -0.2205(3) 0.91575(10) -0.15985(8)
H3 H -0.3424 0.9365 -0.1932
C7 C -0.2365(3) 0.92190(10) -0.07773(8)
H4 H -0.3682 0.9468 -0.0563
C8 C -0.0256(2) 0.87106(8) -0.28226(7)
C9 C 0.1157(2) 0.92037(8) -0.33066(7)
C10 C 0.1001(3) 0.91203(9) -0.41364(8)
H5 H 0.2018 0.9420 -0.4448
C11 C -0.0664(3) 0.85925(9) -0.44958(7)
C12 C -0.2109(3) 0.81166(9) -0.40302(8)
H6 H -0.3254 0.7773 -0.4270
C13 C -0.1844(2) 0.81537(8) -0.32018(7)
C14 C 0.2767(2) 0.98523(9) -0.29572(8)
C15 C -0.0870(3) 0.85389(10) -0.53843(8)
C16 C -0.3229(3) 0.75439(9) -0.27373(8)
O1 O 0.0881(3) 0.87787(9) 0.10711(6)
O2 O -0.2753(2) 0.92774(10) 0.08217(7)
H7 H -0.2625 0.9434 0.1286
O3 O 0.2393(2) 1.02125(8) -0.23453(6)
O4 O 0.4623(2) 1.00041(8) -0.33852(7)
H8 H 0.5466 1.0353 -0.3159
O5 O 0.0525(3) 0.88594(9) -0.58157(6)
O6 O -0.2751(3) 0.81178(9) -0.56371(6)
H9 H -0.2663 0.8019 -0.6114
O7 O -0.5391(2) 0.74324(9) -0.30234(8)
H10 H -0.5991 0.7040 -0.2796
O8 O -0.2375(2) 0.71750(8) -0.21700(7)
O9 O 0.24574(18) 0.88370(7) 0.26856(6)
H11 H 0.159(3) 0.8987(13) 0.2288(8)
H12 H 0.158(3) 0.8750(16) 0.3080(9)
loop_
_geom_bond_atom_site_label_1
_geom_bond_atom_site_label_2
_geom_bond_site_symmetry_1
_geom_bond_site_symmetry_2
C1 C2 1_555 1_555
C2 C3 1_555 1_555
C3 H1 1_555 1_555
C4 C3 1_555 1_555
H2 C4 1_555 1_555
C5 C4 1_555 1_555
C6 C5 1_555 1_555
H3 C6 1_555 1_555
C7 C2 1_555 1_555
H4 C7 1_555 1_555
C8 C5 1_555 1_555
C9 C8 1_555 1_555
C10 C9 1_555 1_555
H5 C10 1_555 1_555
C11 C10 1_555 1_555
C12 C11 1_555 1_555
H6 C12 1_555 1_555
C13 C8 1_555 1_555
C14 C9 1_555 1_555
C15 C11 1_555 1_555
C16 C13 1_555 1_555
O1 C1 1_555 1_555
O2 C1 1_555 1_555
H7 O2 1_555 1_555
O3 C14 1_555 1_555
O4 C14 1_555 1_555
H8 O4 1_555 1_555
O5 C15 1_555 1_555
O6 C15 1_555 1_555
H9 O6 1_555 1_555
O7 C16 1_555 1_555
H10 O7 1_555 1_555
O8 C16 1_555 1_555
O9 H11 1_555 1_555
H12 O9 1_555 1_555
C6 C7 1_555 1_555
C12 C13 1_555 1_555

#END
