
#######################################################################
#
#                 Cambridge Crystallographic Data Centre
#                                CCDC 
#
#######################################################################
#
# If this CIF has been generated from an entry in the Cambridge 
# Structural Database, then it will include bibliographic, chemical, 
# crystal, experimental, refinement or atomic coordinate data resulting 
# from the CCDC's data processing and validation procedures.
#
#######################################################################

data_NILBAO
_chemical_compound_source        'aerial parts of Premna fulva'
_chemical_name_common            'Premnafulvol C'
_chemical_formula_moiety         'C20 H30 O3'
_chemical_name_systematic        16,18-dihydroxy-14,15-cyclopimar-8-en-7-one
_chemical_properties_biological  
'tested for activity on estrogen biosynthesis by modulating the expression of aromatase'
_symmetry_cell_setting           monoclinic
_symmetry_space_group_name_H-M   'P 21'
_symmetry_Int_Tables_number      4
_space_group_name_Hall           'P 2yb'
loop_
_symmetry_equiv_pos_site_id
_symmetry_equiv_pos_as_xyz
1 x,y,z
2 -x,1/2+y,-z
_cell_length_a                   9.8117(14)
_cell_length_b                   7.9071(12)
_cell_length_c                   22.454(4)
_cell_angle_alpha                90
_cell_angle_beta                 95.169(9)
_cell_angle_gamma                90
_cell_volume                     1734.94
_exptl_crystal_colour            colorless
_exptl_crystal_description       plate
_cell_formula_units_Z            4
loop_
_atom_site_label
_atom_site_type_symbol
_atom_site_fract_x
_atom_site_fract_y
_atom_site_fract_z
O1 O 0.0519(5) 0.0116(6) 0.2232(2)
H1 H 0.1254 0.0595 0.2357
O2 O 0.5153(4) 0.6877(6) 0.27513(19)
H2 H 0.4428 0.7388 0.2634
O3 O 0.4547(4) 0.1242(6) 0.3622(2)
C1 C -0.0035(6) -0.0728(9) 0.2712(3)
H3 H 0.0630 -0.1594 0.2870
H4 H -0.0874 -0.1329 0.2552
C2 C -0.0394(6) 0.0383(9) 0.3233(3)
C3 C 0.0862(6) 0.1527(8) 0.3434(3)
H5 H 0.1057 0.2160 0.3065
C4 C 0.2178(6) 0.0593(9) 0.3625(3)
H6 H 0.2089 0.0026 0.4012
H7 H 0.2329 -0.0292 0.3325
C5 C 0.3389(6) 0.1749(9) 0.3686(3)
C6 C 0.3146(6) 0.3502(8) 0.3870(3)
C7 C 0.4359(7) 0.4625(9) 0.3937(3)
H8 H 0.5264 0.4046 0.3930
C8 C 0.4295(6) 0.6438(8) 0.3692(3)
H9 H 0.3372 0.6775 0.3504
C9 C 0.5451(7) 0.7133(9) 0.3386(3)
H10 H 0.5562 0.8354 0.3475
H11 H 0.6311 0.6548 0.3528
C10 C -0.1561(6) 0.1573(9) 0.3012(3)
H12 H -0.1324 0.2121 0.2639
H13 H -0.2397 0.0891 0.2913
C11 C -0.1883(7) 0.2941(9) 0.3452(3)
H14 H -0.2230 0.2410 0.3808
H15 H -0.2611 0.3685 0.3264
C12 C -0.0620(6) 0.4003(8) 0.3647(3)
H16 H -0.0859 0.4831 0.3951
H17 H -0.0349 0.4645 0.3298
C13 C 0.0599(6) 0.2941(8) 0.3906(3)
C14 C 0.1886(7) 0.4031(9) 0.3993(3)
C15 C 0.4341(6) 0.6132(9) 0.4350(3)
C16 C 0.5638(7) 0.6540(10) 0.4758(3)
H18 H 0.6447 0.6223 0.4558
H19 H 0.5629 0.5905 0.5133
H20 H 0.5666 0.7755 0.4846
C17 C 0.3033(7) 0.6347(9) 0.4648(3)
H21 H 0.2925 0.7555 0.4750
H22 H 0.3106 0.5696 0.5027
C18 C 0.1753(6) 0.5761(9) 0.4259(3)
H23 H 0.0965 0.5760 0.4505
H24 H 0.1553 0.6585 0.3931
C19 C 0.0331(7) 0.2258(9) 0.4526(3)
H25 H 0.1063 0.1471 0.4666
H26 H -0.0550 0.1667 0.4499
H27 H 0.0310 0.3201 0.4808
C20 C -0.0861(7) -0.0802(9) 0.3707(3)
H28 H -0.1440 -0.0181 0.3965
H29 H -0.0060 -0.1251 0.3948
H30 H -0.1383 -0.1738 0.3512
O4 O 1.3169(5) 0.4652(8) 0.2273(3)
H31 H 1.3705 0.5116 0.2537
O5 O 0.3360(4) -0.0632(6) 0.2210(2)
H32 H 0.3719 -0.1586 0.2172
O6 O 0.7239(4) 0.5737(6) 0.2185(2)
C21 C 1.1858(6) 0.5301(9) 0.2297(3)
H33 H 1.1858 0.6537 0.2226
H34 H 1.1536 0.5090 0.2696
C22 C 1.0930(6) 0.4436(8) 0.1821(3)
H35 H 1.0917 0.3174 0.1847
C23 C 0.9555(6) 0.5251(8) 0.1606(3)
H36 H 0.9381 0.6396 0.1772
C24 C 0.8333(6) 0.4146(9) 0.1486(3)
C25 C 0.8316(6) 0.2785(9) 0.1127(3)
C26 C 0.7048(6) 0.1658(8) 0.0989(3)
C27 C 0.6157(6) 0.1764(8) 0.1520(3)
H37 H 0.6767 0.1341 0.1869
C28 C 0.4889(6) 0.0594(8) 0.1501(3)
C29 C 0.4350(6) 0.0666(9) 0.2125(3)
H38 H 0.5129 0.0545 0.2434
H39 H 0.3927 0.1785 0.2179
C30 C 1.0692(7) 0.5149(9) 0.1188(3)
C31 C 1.1363(8) 0.6773(10) 0.1021(3)
H40 H 1.2294 0.6537 0.0919
H41 H 1.1397 0.7560 0.1359
H42 H 1.0833 0.7279 0.0675
C32 C 1.0402(6) 0.3926(9) 0.0675(3)
H43 H 0.9909 0.4539 0.0336
H44 H 1.1286 0.3540 0.0542
C33 C 0.9575(6) 0.2395(9) 0.0814(3)
H45 H 1.0166 0.1618 0.1069
H46 H 0.9293 0.1797 0.0436
C34 C 0.7477(7) -0.0201(8) 0.0918(3)
H47 H 0.7975 -0.0311 0.0555
H48 H 0.8108 -0.0534 0.1267
C35 C 0.6247(7) -0.1393(9) 0.0866(3)
H49 H 0.5664 -0.1139 0.0494
H50 H 0.6571 -0.2575 0.0842
C36 C 0.5409(7) -0.1214(9) 0.1398(3)
H51 H 0.5973 -0.1586 0.1762
H52 H 0.4611 -0.1982 0.1340
C37 C 0.5872(6) 0.3616(9) 0.1678(3)
H53 H 0.5321 0.4153 0.1339
H54 H 0.5328 0.3645 0.2029
C38 C 0.7160(6) 0.4603(9) 0.1817(3)
C39 C 0.3708(6) 0.1072(10) 0.1027(3)
H55 H 0.2893 0.0409 0.1095
H56 H 0.3981 0.0829 0.0627
H57 H 0.3503 0.2279 0.1059
C40 C 0.6357(7) 0.2341(10) 0.0387(3)
H58 H 0.7057 0.2549 0.0110
H59 H 0.5877 0.3399 0.0458
H60 H 0.5700 0.1504 0.0212
loop_
_geom_bond_atom_site_label_1
_geom_bond_atom_site_label_2
_geom_bond_site_symmetry_1
_geom_bond_site_symmetry_2
O1 H1 1_555 1_555
O2 H2 1_555 1_555
O3 C5 1_555 1_555
C1 O1 1_555 1_555
H3 C1 1_555 1_555
H4 C1 1_555 1_555
C2 C1 1_555 1_555
C3 C2 1_555 1_555
H5 C3 1_555 1_555
C4 C3 1_555 1_555
H6 C4 1_555 1_555
H7 C4 1_555 1_555
C5 C4 1_555 1_555
C6 C5 1_555 1_555
C7 C6 1_555 1_555
H8 C7 1_555 1_555
C8 C7 1_555 1_555
H9 C8 1_555 1_555
C9 O2 1_555 1_555
H10 C9 1_555 1_555
H11 C9 1_555 1_555
C10 C2 1_555 1_555
H12 C10 1_555 1_555
H13 C10 1_555 1_555
C11 C10 1_555 1_555
H14 C11 1_555 1_555
H15 C11 1_555 1_555
C12 C11 1_555 1_555
H16 C12 1_555 1_555
H17 C12 1_555 1_555
C13 C3 1_555 1_555
C14 C6 1_555 1_555
C15 C7 1_555 1_555
C16 C15 1_555 1_555
H18 C16 1_555 1_555
H19 C16 1_555 1_555
H20 C16 1_555 1_555
C17 C15 1_555 1_555
H21 C17 1_555 1_555
H22 C17 1_555 1_555
C18 C14 1_555 1_555
H23 C18 1_555 1_555
H24 C18 1_555 1_555
C19 C13 1_555 1_555
H25 C19 1_555 1_555
H26 C19 1_555 1_555
H27 C19 1_555 1_555
C20 C2 1_555 1_555
H28 C20 1_555 1_555
H29 C20 1_555 1_555
H30 C20 1_555 1_555
O4 H31 1_555 1_555
O5 H32 1_555 1_555
O6 C38 1_555 1_555
C21 O4 1_555 1_555
H33 C21 1_555 1_555
H34 C21 1_555 1_555
C22 C21 1_555 1_555
H35 C22 1_555 1_555
C23 C22 1_555 1_555
H36 C23 1_555 1_555
C24 C23 1_555 1_555
C25 C24 1_555 1_555
C26 C25 1_555 1_555
C27 C26 1_555 1_555
H37 C27 1_555 1_555
C28 C27 1_555 1_555
C29 O5 1_555 1_555
H38 C29 1_555 1_555
H39 C29 1_555 1_555
C30 C22 1_555 1_555
C31 C30 1_555 1_555
H40 C31 1_555 1_555
H41 C31 1_555 1_555
H42 C31 1_555 1_555
C32 C30 1_555 1_555
H43 C32 1_555 1_555
H44 C32 1_555 1_555
C33 C25 1_555 1_555
H45 C33 1_555 1_555
H46 C33 1_555 1_555
C34 C26 1_555 1_555
H47 C34 1_555 1_555
H48 C34 1_555 1_555
C35 C34 1_555 1_555
H49 C35 1_555 1_555
H50 C35 1_555 1_555
C36 C28 1_555 1_555
H51 C36 1_555 1_555
H52 C36 1_555 1_555
C37 C27 1_555 1_555
H53 C37 1_555 1_555
H54 C37 1_555 1_555
C38 C24 1_555 1_555
C39 C28 1_555 1_555
H55 C39 1_555 1_555
H56 C39 1_555 1_555
H57 C39 1_555 1_555
C40 C26 1_555 1_555
H58 C40 1_555 1_555
H59 C40 1_555 1_555
H60 C40 1_555 1_555
C8 C9 1_555 1_555
C8 C15 1_555 1_555
C12 C13 1_555 1_555
C13 C14 1_555 1_555
C17 C18 1_555 1_555
C23 C30 1_555 1_555
C28 C29 1_555 1_555
C32 C33 1_555 1_555
C35 C36 1_555 1_555
C37 C38 1_555 1_555

#END
