
#######################################################################
#
#                 Cambridge Crystallographic Data Centre
#                                CCDC 
#
#######################################################################
#
# If this CIF has been generated from an entry in the Cambridge 
# Structural Database, then it will include bibliographic, chemical, 
# crystal, experimental, refinement or atomic coordinate data resulting 
# from the CCDC's data processing and validation procedures.
#
#######################################################################

data_NILGAT
_chemical_formula_moiety         'C66 H92 B2 Na2 O4'
_chemical_name_systematic        
'(\m-5,5,10,10-tetrakis(2,4,6-trimethylphenyl)-5,10-dihydro[1]benzoborolo[3,2-b][1]benzoborol-5,10-diido)-tetrakis(diethyl ether)-di-sodium'
_symmetry_cell_setting           monoclinic
_symmetry_space_group_name_H-M   'P 21/n'
_symmetry_Int_Tables_number      14
_space_group_name_Hall           '-P 2yn'
loop_
_symmetry_equiv_pos_site_id
_symmetry_equiv_pos_as_xyz
1 x,y,z
2 1/2-x,1/2+y,1/2-z
3 -x,-y,-z
4 1/2+x,1/2-y,1/2+z
_cell_length_a                   13.1769(8)
_cell_length_b                   13.2707(7)
_cell_length_c                   17.6291(10)
_cell_angle_alpha                90
_cell_angle_beta                 105.467(6)
_cell_angle_gamma                90
_cell_volume                     2971.1
_exptl_crystal_colour            yellow
_exptl_crystal_description       block
_cell_formula_units_Z            2
loop_
_atom_site_label
_atom_site_type_symbol
_atom_site_fract_x
_atom_site_fract_y
_atom_site_fract_z
Na1 Na 0.31512(6) 0.75720(5) 0.07762(5)
O1 O 0.18940(12) 0.88611(10) 0.03229(10)
C1 C 0.46740(13) 0.46818(13) 0.01212(9)
C2 C 0.47377(14) 0.62586(13) -0.04178(9)
C3 C 0.51198(15) 0.71618(14) -0.06354(11)
H1 H 0.5834 0.7222 -0.0602
C4 C 0.44571(16) 0.79725(14) -0.09010(11)
H2 H 0.4729 0.8568 -0.1044
C5 C 0.34019(16) 0.78989(14) -0.09544(11)
H3 H 0.2955 0.8439 -0.1141
C6 C 0.36436(15) 0.61650(13) -0.04603(9)
C7 C 0.30031(14) 0.70033(14) -0.07261(10)
H4 H 0.2290 0.6965 -0.0752
C8 C 0.28896(14) 0.54871(12) 0.06512(9)
C9 C 0.34544(14) 0.56444(12) 0.14476(10)
C10 C 0.29698(15) 0.60268(13) 0.20051(10)
H5 H 0.3372 0.6112 0.2521
C11 C 0.19144(15) 0.62812(14) 0.18132(11)
C12 C 0.13495(14) 0.61478(13) 0.10316(11)
H6 H 0.0640 0.6321 0.0882
C13 C 0.18077(14) 0.57641(13) 0.04626(10)
C14 C 0.10561(14) 0.56193(15) -0.03468(10)
H7 H 0.0512 0.6120 -0.0432
H8 H 0.0746 0.4960 -0.0380
H9 H 0.1434 0.5686 -0.0740
C15 C 0.46097(15) 0.53860(15) 0.17404(10)
H10 H 0.4996 0.5743 0.1434
H11 H 0.4702 0.4674 0.1689
H12 H 0.4864 0.5577 0.2283
C16 C 0.24287(13) 0.41136(13) -0.14173(10)
C17 C 0.27525(15) 0.49188(15) -0.19137(10)
H13 H 0.2272 0.5475 -0.1979
H14 H 0.2740 0.4645 -0.2420
H15 H 0.3451 0.5147 -0.1657
C18 C 0.13960(19) 0.6670(2) 0.24251(14)
H16 H 0.1756 0.6405 0.2932
H17 H 0.0673 0.6459 0.2292
H18 H 0.1430 0.7393 0.2440
C19 C 0.26661(13) 0.41853(13) -0.05869(9)
C20 C 0.23265(15) 0.33661(13) 0.06599(10)
H19 H 0.2995 0.3636 0.0946
H20 H 0.2269 0.2681 0.0818
H21 H 0.1771 0.3760 0.0769
C21 C 0.22395(13) 0.33994(13) -0.02159(10)
C22 C 0.18561(14) 0.33059(14) -0.18298(10)
H22 H 0.1722 0.3291 -0.2375
C23 C 0.09152(19) 0.16313(17) -0.19081(14)
H23 H 0.0668 0.1798 -0.2457
H24 H 0.0327 0.1456 -0.1710
H25 H 0.1391 0.1070 -0.1843
C24 C 0.3202(2) 1.01427(19) 0.04904(18)
H26 H 0.3560 0.9831 0.0144
H27 H 0.3484 0.9891 0.1015
H28 H 0.3299 1.0859 0.0486
C25 C 0.07952(18) 0.86078(18) 0.00783(16)
H29 H 0.0408 0.9089 0.0308
H30 H 0.0699 0.7947 0.0284
C26 C 0.0335(2) 0.8600(2) -0.07977(18)
H31 H 0.0759 0.8182 -0.1037
H32 H 0.0321 0.9274 -0.0997
H33 H -0.0369 0.8337 -0.0919
B1 B 0.34303(15) 0.50790(14) -0.00610(11)
C27 C 0.2069(2) 0.99078(18) 0.0223(2)
H34 H 0.1691 1.0302 0.0523
H35 H 0.1801 1.0087 -0.0328
C28 C 0.14818(14) 0.25298(14) -0.14589(11)
C29 C 0.6017(2) 0.8863(3) 0.11519(17)
H36 H 0.5497 0.9067 0.0684
H37 H 0.6660 0.8698 0.1023
H38 H 0.6142 0.9405 0.1526
C30 C 0.3711(5) 0.8739(7) 0.2574(4)
H39 H 0.3193 0.9030 0.2140
H40 H 0.3772 0.9141 0.3036
H41 H 0.3501 0.8067 0.2667
C31 C 0.4757(2) 0.8704(2) 0.23830(15)
H42 H 0.4988 0.9382 0.2307
H43 H 0.5282 0.8395 0.2813
C32 C 0.5627(4) 0.7957(3) 0.1500(3)
H44 H 0.5547 0.7399 0.1133
H45 H 0.6150 0.7764 0.1979
O2 O 0.46389(16) 0.81288(14) 0.16805(10)
C33 C 0.16775(14) 0.26003(13) -0.06472(11)
H46 H 0.1425 0.2096 -0.0380
C1B C 0.53260(13) 0.53182(13) -0.01212(9)
C2B C 0.52623(14) 0.37414(13) 0.04178(9)
C3B C 0.48802(15) 0.28382(14) 0.06354(11)
H1B H 0.4166 0.2778 0.0602
C4B C 0.55429(16) 0.20275(14) 0.09010(11)
H2B H 0.5271 0.1432 0.1044
C5B C 0.65981(16) 0.21011(14) 0.09544(11)
H3B H 0.7045 0.1561 0.1141
C6B C 0.63564(15) 0.38350(13) 0.04603(9)
C7B C 0.69969(14) 0.29967(14) 0.07261(10)
H4B H 0.7710 0.3035 0.0752
C8B C 0.71104(14) 0.45129(12) -0.06512(9)
C9B C 0.65456(14) 0.43556(12) -0.14476(10)
C10B C 0.70302(15) 0.39732(13) -0.20051(10)
H5B H 0.6628 0.3888 -0.2521
C11B C 0.80856(15) 0.37188(14) -0.18132(11)
C12B C 0.86505(14) 0.38522(13) -0.10316(11)
H6B H 0.9360 0.3679 -0.0882
C13B C 0.81923(14) 0.42359(13) -0.04626(10)
C14B C 0.89439(14) 0.43807(15) 0.03468(10)
H7B H 0.9488 0.3880 0.0432
H8B H 0.9254 0.5040 0.0380
H9B H 0.8566 0.4314 0.0740
C15B C 0.53903(15) 0.46140(15) -0.17404(10)
H10B H 0.5004 0.4257 -0.1434
H11B H 0.5298 0.5326 -0.1689
H12B H 0.5136 0.4423 -0.2283
C16B C 0.75713(13) 0.58864(13) 0.14173(10)
C17B C 0.72475(15) 0.50812(15) 0.19137(10)
H13B H 0.7728 0.4525 0.1979
H14B H 0.7260 0.5355 0.2420
H15B H 0.6549 0.4853 0.1657
C18B C 0.86040(19) 0.3330(2) -0.24251(14)
H16B H 0.8244 0.3595 -0.2932
H17B H 0.9327 0.3541 -0.2292
H18B H 0.8570 0.2607 -0.2440
C19B C 0.73339(13) 0.58147(13) 0.05869(9)
C20B C 0.76735(15) 0.66339(13) -0.06599(10)
H19B H 0.7005 0.6364 -0.0946
H20B H 0.7731 0.7319 -0.0818
H21B H 0.8229 0.6240 -0.0769
C21B C 0.77605(13) 0.66006(13) 0.02159(10)
C22B C 0.81439(14) 0.66941(14) 0.18298(10)
H22B H 0.8278 0.6709 0.2375
C23B C 0.90848(19) 0.83687(17) 0.19081(14)
H23B H 0.9332 0.8202 0.2457
H24B H 0.9673 0.8544 0.1710
H25B H 0.8609 0.8930 0.1843
B1B B 0.65697(15) 0.49210(14) 0.00610(11)
C28B C 0.85182(14) 0.74702(14) 0.14589(11)
C33B C 0.83225(14) 0.73997(13) 0.06472(11)
H46B H 0.8575 0.7904 0.0380
Na1B Na 0.68488(6) 0.24280(5) -0.07762(5)
O1B O 0.81060(12) 0.11389(10) -0.03229(10)
C24B C 0.6798(2) -0.01427(19) -0.04904(18)
H26B H 0.6440 0.0169 -0.0144
H27B H 0.6516 0.0109 -0.1015
H28B H 0.6701 -0.0859 -0.0486
C25B C 0.92048(18) 0.13922(18) -0.00783(16)
H29B H 0.9592 0.0911 -0.0308
H30B H 0.9301 0.2053 -0.0284
C26B C 0.9665(2) 0.1400(2) 0.07977(18)
H31B H 0.9241 0.1818 0.1037
H32B H 0.9679 0.0726 0.0997
H33B H 1.0369 0.1663 0.0919
C27B C 0.7931(2) 0.00922(18) -0.0223(2)
H34B H 0.8309 -0.0302 -0.0523
H35B H 0.8199 -0.0087 0.0328
C29B C 0.3983(2) 0.1137(3) -0.11519(17)
H36B H 0.4503 0.0933 -0.0684
H37B H 0.3340 0.1302 -0.1023
H38B H 0.3858 0.0595 -0.1526
C30B C 0.6289(5) 0.1261(7) -0.2574(4)
H39B H 0.6807 0.0970 -0.2140
H40B H 0.6228 0.0859 -0.3036
H41B H 0.6499 0.1933 -0.2667
C31B C 0.5243(2) 0.1296(2) -0.23830(15)
H42B H 0.5012 0.0618 -0.2307
H43B H 0.4718 0.1605 -0.2813
C32B C 0.4373(4) 0.2043(3) -0.1500(3)
H44B H 0.4453 0.2601 -0.1133
H45B H 0.3850 0.2236 -0.1979
O2B O 0.53611(16) 0.18712(14) -0.16805(10)
C34? C 0.2610(17) 0.8837(13) 0.2207(10)
H47? H 0.2474 0.9375 0.1830
H48? H 0.2315 0.9003 0.2634
H49? H 0.2294 0.8228 0.1959
C35? C 0.3824(19) 0.868(3) 0.2530(14)
H50? H 0.4161 0.9296 0.2771
H51? H 0.3978 0.8146 0.2918
O3? O 0.4177(11) 0.8420(9) 0.1850(7)
C36? C 0.571(3) 0.824(2) 0.1298(15)
H52? H 0.5355 0.7697 0.0968
H53? H 0.6451 0.8107 0.1455
H54? H 0.5575 0.8859 0.1011
C37? C 0.5292(16) 0.831(2) 0.2031(14)
H55? H 0.5495 0.7707 0.2346
H56? H 0.5621 0.8881 0.2345
loop_
_geom_bond_atom_site_label_1
_geom_bond_atom_site_label_2
_geom_bond_site_symmetry_1
_geom_bond_site_symmetry_2
Na1 O1 1_555 1_555
O1 C25 1_555 1_555
C1 B1 1_555 1_555
C2 C3 1_555 1_555
C3 H1 1_555 1_555
C4 C3 1_555 1_555
H2 C4 1_555 1_555
C5 C4 1_555 1_555
H3 C5 1_555 1_555
C6 C2 1_555 1_555
C7 Na1 1_555 1_555
H4 C7 1_555 1_555
C8 Na1 1_555 1_555
C9 Na1 1_555 1_555
C10 Na1 1_555 1_555
H5 C10 1_555 1_555
C11 C10 1_555 1_555
C12 C11 1_555 1_555
H6 C12 1_555 1_555
C13 Na1 1_555 1_555
C14 C13 1_555 1_555
H7 C14 1_555 1_555
H8 C14 1_555 1_555
H9 C14 1_555 1_555
C15 C9 1_555 1_555
H10 C15 1_555 1_555
H11 C15 1_555 1_555
H12 C15 1_555 1_555
C16 C17 1_555 1_555
C17 H13 1_555 1_555
H14 C17 1_555 1_555
H15 C17 1_555 1_555
C18 C11 1_555 1_555
H16 C18 1_555 1_555
H17 C18 1_555 1_555
H18 C18 1_555 1_555
C19 C16 1_555 1_555
C20 H19 1_555 1_555
H20 C20 1_555 1_555
H21 C20 1_555 1_555
C21 C19 1_555 1_555
C22 C16 1_555 1_555
H22 C22 1_555 1_555
C23 H23 1_555 1_555
H24 C23 1_555 1_555
H25 C23 1_555 1_555
C24 H26 1_555 1_555
H27 C24 1_555 1_555
H28 C24 1_555 1_555
C25 H29 1_555 1_555
H30 C25 1_555 1_555
C26 C25 1_555 1_555
H31 C26 1_555 1_555
H32 C26 1_555 1_555
H33 C26 1_555 1_555
B1 C6 1_555 1_555
C27 O1 1_555 1_555
H34 C27 1_555 1_555
H35 C27 1_555 1_555
C28 C22 1_555 1_555
C29 H36 1_555 1_555
H37 C29 1_555 1_555
H38 C29 1_555 1_555
C30 H39 1_555 1_555
H40 C30 1_555 1_555
H41 C30 1_555 1_555
C31 C30 1_555 1_555
H42 C31 1_555 1_555
H43 C31 1_555 1_555
C32 C29 1_555 1_555
H44 C32 1_555 1_555
H45 C32 1_555 1_555
O2 Na1 1_555 1_555
C33 C21 1_555 1_555
H46 C33 1_555 1_555
C1B C1 1_555 1_555
C2B C1 1_555 1_555
C3B C2B 1_555 1_555
H1B C3B 1_555 1_555
C4B C3B 1_555 1_555
H2B C4B 1_555 1_555
C5B C4B 1_555 1_555
H3B C5B 1_555 1_555
C6B C2B 1_555 1_555
C7B C5B 1_555 1_555
H4B C7B 1_555 1_555
C8B C9B 1_555 1_555
C9B C10B 1_555 1_555
C10B H5B 1_555 1_555
C11B C10B 1_555 1_555
C12B C11B 1_555 1_555
H6B C12B 1_555 1_555
C13B C8B 1_555 1_555
C14B C13B 1_555 1_555
H7B C14B 1_555 1_555
H8B C14B 1_555 1_555
H9B C14B 1_555 1_555
C15B C9B 1_555 1_555
H10B C15B 1_555 1_555
H11B C15B 1_555 1_555
H12B C15B 1_555 1_555
C16B C17B 1_555 1_555
C17B H13B 1_555 1_555
H14B C17B 1_555 1_555
H15B C17B 1_555 1_555
C18B C11B 1_555 1_555
H16B C18B 1_555 1_555
H17B C18B 1_555 1_555
H18B C18B 1_555 1_555
C19B C16B 1_555 1_555
C20B H19B 1_555 1_555
H20B C20B 1_555 1_555
H21B C20B 1_555 1_555
C21B C19B 1_555 1_555
C22B C16B 1_555 1_555
H22B C22B 1_555 1_555
C23B H23B 1_555 1_555
H24B C23B 1_555 1_555
H25B C23B 1_555 1_555
B1B C1B 1_555 1_555
C28B C22B 1_555 1_555
C33B C21B 1_555 1_555
H46B C33B 1_555 1_555
Na1B C7B 1_555 1_555
O1B Na1B 1_555 1_555
C24B H26B 1_555 1_555
H27B C24B 1_555 1_555
H28B C24B 1_555 1_555
C25B O1B 1_555 1_555
H29B C25B 1_555 1_555
H30B C25B 1_555 1_555
C26B C25B 1_555 1_555
H31B C26B 1_555 1_555
H32B C26B 1_555 1_555
H33B C26B 1_555 1_555
C27B O1B 1_555 1_555
H34B C27B 1_555 1_555
H35B C27B 1_555 1_555
C29B H36B 1_555 1_555
H37B C29B 1_555 1_555
H38B C29B 1_555 1_555
C30B H39B 1_555 1_555
H40B C30B 1_555 1_555
H41B C30B 1_555 1_555
C31B C30B 1_555 1_555
H42B C31B 1_555 1_555
H43B C31B 1_555 1_555
C32B C29B 1_555 1_555
H44B C32B 1_555 1_555
H45B C32B 1_555 1_555
O2B Na1B 1_555 1_555
C2 C1B 1_555 1_555
C5 C7 1_555 1_555
C6 C7 1_555 1_555
C8 C9 1_555 1_555
C8 C13 1_555 1_555
C8 B1 1_555 1_555
C9 C10 1_555 1_555
C12 C13 1_555 1_555
C19 B1 1_555 1_555
C20 C21 1_555 1_555
C23 C28 1_555 1_555
C24 C27 1_555 1_555
C28 C33 1_555 1_555
C31 O2 1_555 1_555
C32 O2 1_555 1_555
C6B C7B 1_555 1_555
C6B B1B 1_555 1_555
C8B B1B 1_555 1_555
C8B Na1B 1_555 1_555
C9B Na1B 1_555 1_555
C10B Na1B 1_555 1_555
C12B C13B 1_555 1_555
C13B Na1B 1_555 1_555
C19B B1B 1_555 1_555
C20B C21B 1_555 1_555
C23B C28B 1_555 1_555
C28B C33B 1_555 1_555
C24B C27B 1_555 1_555
C31B O2B 1_555 1_555
C32B O2B 1_555 1_555

#END
