
#######################################################################
#
#                 Cambridge Crystallographic Data Centre
#                                CCDC 
#
#######################################################################
#
# If this CIF has been generated from an entry in the Cambridge 
# Structural Database, then it will include bibliographic, chemical, 
# crystal, experimental, refinement or atomic coordinate data resulting 
# from the CCDC's data processing and validation procedures.
#
#######################################################################

data_NILMUT
_chemical_formula_moiety         'C29 H35 N7 O4,H2 O1'
_chemical_name_systematic        
"N'^2^,N'^6^-bis((4-(diethylamino)-2-hydroxyphenyl)methylidene)pyridine-2,6-dicarbohydrazide monohydrate"
_symmetry_cell_setting           monoclinic
_symmetry_space_group_name_H-M   'C 2/c'
_symmetry_Int_Tables_number      15
_space_group_name_Hall           '-C 2yn'
loop_
_symmetry_equiv_pos_site_id
_symmetry_equiv_pos_as_xyz
1 x,y,z
2 -x,y,1/2-z
3 1/2+x,1/2+y,z
4 1/2-x,1/2+y,1/2-z
5 -x,-y,-z
6 x,-y,1/2+z
7 1/2-x,1/2-y,-z
8 1/2+x,1/2-y,1/2+z
_cell_length_a                   9.8583(5)
_cell_length_b                   10.4135(5)
_cell_length_c                   27.9889(15)
_cell_angle_alpha                90
_cell_angle_beta                 97.161(3)
_cell_angle_gamma                90
_cell_volume                     2850.91
_exptl_crystal_colour            colorless
_exptl_crystal_description       block
_cell_formula_units_Z            4
loop_
_atom_site_label
_atom_site_type_symbol
_atom_site_fract_x
_atom_site_fract_y
_atom_site_fract_z
O1 O 0.7037(3) 0.9671(2) 0.30822(10)
O2 O 0.5653(2) 0.6501(2) 0.38007(8)
H1 H 0.605394 0.696440 0.362730
N1 N 1.000000 0.9270(3) 0.250000
N2 N 0.8440(3) 0.7962(2) 0.30500(9)
H2 H 0.916501 0.766389 0.294782
N3 N 0.7663(3) 0.7168(2) 0.33020(8)
N4 N 0.5398(3) 0.2136(3) 0.42709(12)
C1 C 0.9078(3) 0.9928(3) 0.27108(10)
C2 C 0.9042(4) 1.1256(3) 0.27153(12)
H3 H 0.838026 1.169056 0.286170
C3 C 1.000000 1.1915(4) 0.250000
H4 H 0.999998 1.280775 0.249999
C4 C 0.8085(4) 0.9188(3) 0.29618(11)
C5 C 0.8106(3) 0.6008(3) 0.33630(10)
H5 H 0.891531 0.578290 0.324528
C6 C 0.7406(3) 0.5059(3) 0.36033(9)
C7 C 0.7900(3) 0.3809(3) 0.36387(12)
H6 H 0.869738 0.362007 0.350696
C8 C 0.7273(3) 0.2845(3) 0.38571(12)
H7 H 0.764315 0.202215 0.387125
C9 C 0.6063(3) 0.3093(3) 0.40613(11)
C10 C 0.5567(3) 0.4354(3) 0.40351(10)
H8 H 0.478208 0.454976 0.417371
C11 C 0.6204(3) 0.5303(3) 0.38115(9)
C12 C 0.4197(3) 0.2374(3) 0.45058(12)
H9 H 0.371045 0.157009 0.452606
H10 H 0.359983 0.295334 0.430626
C13 C 0.4476(4) 0.2938(4) 0.50029(13)
H11 H 0.496284 0.373278 0.498873
H12 H 0.501819 0.234822 0.521019
H13 H 0.362645 0.309246 0.512713
C14 C 0.5884(5) 0.0737(6) 0.4271(2)
H14 H 0.513673 0.014922 0.430191
H15 H 0.627113 0.053845 0.397723
C15 C 0.6856(6) 0.0666(6) 0.4663(2)
H16 H 0.757402 0.126738 0.462684
H17 H 0.722669 -0.018762 0.468861
H18 H 0.645030 0.086695 0.494804
O1A O 1.2963(3) 0.9671(2) 0.19178(10)
O2A O 1.4347(2) 0.6501(2) 0.11993(8)
H1A H 1.394606 0.696440 0.137270
N2A N 1.1560(3) 0.7962(2) 0.19500(9)
H2A H 1.083499 0.766389 0.205218
N3A N 1.2337(3) 0.7168(2) 0.16980(8)
N4A N 1.4602(3) 0.2136(3) 0.07291(12)
C1A C 1.0922(3) 0.9928(3) 0.22892(10)
C2A C 1.0958(4) 1.1256(3) 0.22847(12)
H3A H 1.161974 1.169056 0.213830
C4A C 1.1915(4) 0.9188(3) 0.20382(11)
C5A C 1.1894(3) 0.6008(3) 0.16370(10)
H5A H 1.108469 0.578290 0.175472
C6A C 1.2594(3) 0.5059(3) 0.13967(9)
C7A C 1.2100(3) 0.3809(3) 0.13613(12)
H6A H 1.130262 0.362007 0.149304
C8A C 1.2727(3) 0.2845(3) 0.11429(12)
H7A H 1.235685 0.202215 0.112875
C9A C 1.3937(3) 0.3093(3) 0.09387(11)
C10A C 1.4433(3) 0.4354(3) 0.09649(10)
H8A H 1.521792 0.454976 0.082629
C11A C 1.3796(3) 0.5303(3) 0.11885(9)
C12A C 1.5803(3) 0.2374(3) 0.04942(12)
H9A H 1.628955 0.157009 0.047394
H10A H 1.640017 0.295334 0.069374
C13A C 1.5524(4) 0.2938(4) -0.00029(13)
H11A H 1.503716 0.373278 0.001127
H12A H 1.498181 0.234822 -0.021019
H13A H 1.637355 0.309246 -0.012713
C14A C 1.4116(5) 0.0737(6) 0.0729(2)
H14A H 1.486327 0.014922 0.069809
H15A H 1.372887 0.053845 0.102277
C15A C 1.3144(6) 0.0666(6) 0.0337(2)
H16A H 1.242598 0.126738 0.037316
H17A H 1.277331 -0.018762 0.031139
H18A H 1.354970 0.086695 0.005196
O3 O 0.504(2) 1.1093(4) 0.2512(11)
H19? H 0.455(12) 1.050(6) 0.237(5)
H20? H 0.569(10) 1.082(10) 0.272(4)
loop_
_geom_bond_atom_site_label_1
_geom_bond_atom_site_label_2
_geom_bond_site_symmetry_1
_geom_bond_site_symmetry_2
O1 C4 1_555 1_555
O2 H1 1_555 1_555
N1 C1 1_555 1_555
N2 H2 1_555 1_555
N3 N2 1_555 1_555
N4 C9 1_555 1_555
C1 C2 1_555 1_555
C2 H3 1_555 1_555
C3 C2 1_555 1_555
H4 C3 1_555 1_555
C4 N2 1_555 1_555
C5 N3 1_555 1_555
H5 C5 1_555 1_555
C6 C5 1_555 1_555
C7 C6 1_555 1_555
H6 C7 1_555 1_555
C8 C7 1_555 1_555
H7 C8 1_555 1_555
C9 C8 1_555 1_555
C10 C9 1_555 1_555
H8 C10 1_555 1_555
C11 O2 1_555 1_555
C12 N4 1_555 1_555
H9 C12 1_555 1_555
H10 C12 1_555 1_555
C13 C12 1_555 1_555
H11 C13 1_555 1_555
H12 C13 1_555 1_555
H13 C13 1_555 1_555
C14 N4 1_555 1_555
H14 C14 1_555 1_555
H15 C14 1_555 1_555
C15 C14 1_555 1_555
H16 C15 1_555 1_555
H17 C15 1_555 1_555
H18 C15 1_555 1_555
O1A C4A 1_555 1_555
O2A H1A 1_555 1_555
N2A H2A 1_555 1_555
N3A N2A 1_555 1_555
N4A C9A 1_555 1_555
C1A N1 1_555 1_555
C2A C3 1_555 1_555
H3A C2A 1_555 1_555
C4A N2A 1_555 1_555
C5A N3A 1_555 1_555
H5A C5A 1_555 1_555
C6A C5A 1_555 1_555
C7A C6A 1_555 1_555
H6A C7A 1_555 1_555
C8A C7A 1_555 1_555
H7A C8A 1_555 1_555
C9A C8A 1_555 1_555
C10A C9A 1_555 1_555
H8A C10A 1_555 1_555
C11A O2A 1_555 1_555
C12A N4A 1_555 1_555
H9A C12A 1_555 1_555
H10A C12A 1_555 1_555
C13A C12A 1_555 1_555
H11A C13A 1_555 1_555
H12A C13A 1_555 1_555
H13A C13A 1_555 1_555
C14A N4A 1_555 1_555
H14A C14A 1_555 1_555
H15A C14A 1_555 1_555
C15A C14A 1_555 1_555
H16A C15A 1_555 1_555
H17A C15A 1_555 1_555
H18A C15A 1_555 1_555
C1 C4 1_555 1_555
C6 C11 1_555 1_555
C10 C11 1_555 1_555
C1A C2A 1_555 1_555
C1A C4A 1_555 1_555
C6A C11A 1_555 1_555
C10A C11A 1_555 1_555

#END
