
#######################################################################
#
#                 Cambridge Crystallographic Data Centre
#                                CCDC 
#
#######################################################################
#
# If this CIF has been generated from an entry in the Cambridge 
# Structural Database, then it will include bibliographic, chemical, 
# crystal, experimental, refinement or atomic coordinate data resulting 
# from the CCDC's data processing and validation procedures.
#
#######################################################################

data_NILMED
_chemical_name_common            
(E)-3-(2-(1,2-diphenylvinyl)phenyl)-8-methyl-4-phenylcinnoline
_chemical_formula_moiety         'C35 H26 N2'
_chemical_name_systematic        
(E)-3-(2-(1,2-diphenylethenyl)phenyl)-8-methyl-4-phenylcinnoline
_symmetry_cell_setting           monoclinic
_symmetry_space_group_name_H-M   'P 21/c'
_symmetry_Int_Tables_number      14
_space_group_name_Hall           '-P 2ybc'
loop_
_symmetry_equiv_pos_site_id
_symmetry_equiv_pos_as_xyz
1 x,y,z
2 -x,1/2+y,1/2-z
3 -x,-y,-z
4 x,1/2-y,1/2+z
_cell_length_a                   13.627(6)
_cell_length_b                   13.804(6)
_cell_length_c                   13.675(7)
_cell_angle_alpha                90
_cell_angle_beta                 91.26(2)
_cell_angle_gamma                90
_cell_volume                     2571.74
_exptl_crystal_colour            yellow
_exptl_crystal_description       block
_cell_formula_units_Z            4
loop_
_atom_site_label
_atom_site_type_symbol
_atom_site_fract_x
_atom_site_fract_y
_atom_site_fract_z
N1 N 0.46320(9) 0.39143(10) 0.28892(10)
N2 N 0.42341(9) 0.45674(9) 0.34498(10)
C1 C 0.54932(14) 0.26708(15) 0.15412(15)
H1 H 0.5988 0.3030 0.1896
H2 H 0.5192 0.3079 0.1052
H3 H 0.5789 0.2123 0.1232
C2 C 0.47284(12) 0.23273(13) 0.22353(13)
C3 C 0.44473(13) 0.13788(13) 0.22861(14)
H4 H 0.4752 0.0925 0.1892
C4 C 0.37097(14) 0.10697(12) 0.29172(14)
H5 H 0.3551 0.0415 0.2943
C5 C 0.32226(12) 0.17076(11) 0.34916(13)
H6 H 0.2724 0.1492 0.3891
C6 C 0.34810(11) 0.27073(11) 0.34770(11)
C7 C 0.42605(11) 0.29985(11) 0.28729(12)
C8 C 0.30300(10) 0.34372(10) 0.40462(11)
C9 C 0.21976(11) 0.32204(10) 0.46962(12)
C10 C 0.13503(11) 0.27505(11) 0.43425(13)
H7 H 0.1284 0.2603 0.3681
C11 C 0.06099(12) 0.25043(12) 0.49763(14)
H8 H 0.0054 0.2184 0.4737
C12 C 0.06890(12) 0.27304(12) 0.59576(14)
H9 H 0.0194 0.2555 0.6380
C13 C 0.15099(12) 0.32200(12) 0.63111(13)
H10 H 0.1559 0.3388 0.6969
C14 C 0.22575(12) 0.34596(11) 0.56855(12)
H11 H 0.2808 0.3785 0.5929
C15 C 0.34269(11) 0.43567(10) 0.39855(11)
C16 C 0.30405(11) 0.52371(10) 0.44826(11)
C17 C 0.35576(11) 0.56310(11) 0.52736(12)
H12 H 0.4124 0.5325 0.5507
C18 C 0.32433(12) 0.64711(12) 0.57183(12)
H13 H 0.3593 0.6725 0.6250
C19 C 0.24075(12) 0.69313(12) 0.53694(13)
H14 H 0.2193 0.7498 0.5665
C20 C 0.18887(12) 0.65470(12) 0.45774(12)
H15 H 0.1327 0.6862 0.4346
C21 C 0.21881(11) 0.57019(11) 0.41223(11)
C22 C 0.16228(11) 0.53251(10) 0.32527(12)
C23 C 0.21869(11) 0.52023(11) 0.23406(12)
C24 C 0.28299(12) 0.59201(11) 0.20301(12)
H16 H 0.2870 0.6502 0.2372
C25 C 0.34091(13) 0.57821(12) 0.12217(13)
H17 H 0.3829 0.6271 0.1022
C26 C 0.33635(13) 0.49196(12) 0.07119(13)
H18 H 0.3755 0.4823 0.0172
C27 C 0.27312(13) 0.41999(12) 0.10105(13)
H19 H 0.2698 0.3618 0.0668
C28 C 0.21490(12) 0.43371(11) 0.18118(12)
H20 H 0.1726 0.3847 0.2002
C29 C 0.06651(11) 0.51138(11) 0.33486(12)
H21 H 0.0433 0.5163 0.3981
C30 C -0.00690(11) 0.48169(11) 0.26009(13)
C31 C -0.01166(12) 0.52074(13) 0.16642(14)
H22 H 0.0351 0.5659 0.1479
C32 C -0.08524(13) 0.49339(13) 0.09980(14)
H23 H -0.0876 0.5206 0.0376
C33 C -0.15457(13) 0.42619(14) 0.12577(14)
H24 H -0.2033 0.4073 0.0811
C34 C -0.15120(13) 0.38722(15) 0.21823(15)
H25 H -0.1976 0.3415 0.2360
C35 C -0.07905(12) 0.41565(14) 0.28527(14)
H26 H -0.0789 0.3901 0.3482
loop_
_geom_bond_atom_site_label_1
_geom_bond_atom_site_label_2
_geom_bond_site_symmetry_1
_geom_bond_site_symmetry_2
N1 N2 1_555 1_555
N2 C15 1_555 1_555
C1 H1 1_555 1_555
H2 C1 1_555 1_555
H3 C1 1_555 1_555
C2 C1 1_555 1_555
C3 C2 1_555 1_555
H4 C3 1_555 1_555
C4 C3 1_555 1_555
H5 C4 1_555 1_555
C5 C4 1_555 1_555
H6 C5 1_555 1_555
C6 C5 1_555 1_555
C7 N1 1_555 1_555
C8 C6 1_555 1_555
C9 C8 1_555 1_555
C10 C9 1_555 1_555
H7 C10 1_555 1_555
C11 C10 1_555 1_555
H8 C11 1_555 1_555
C12 C11 1_555 1_555
H9 C12 1_555 1_555
C13 C12 1_555 1_555
H10 C13 1_555 1_555
C14 C9 1_555 1_555
H11 C14 1_555 1_555
C15 C8 1_555 1_555
C16 C15 1_555 1_555
C17 C16 1_555 1_555
H12 C17 1_555 1_555
C18 C17 1_555 1_555
H13 C18 1_555 1_555
C19 C18 1_555 1_555
H14 C19 1_555 1_555
C20 C19 1_555 1_555
H15 C20 1_555 1_555
C21 C16 1_555 1_555
C22 C21 1_555 1_555
C23 C22 1_555 1_555
C24 C23 1_555 1_555
H16 C24 1_555 1_555
C25 C24 1_555 1_555
H17 C25 1_555 1_555
C26 C25 1_555 1_555
H18 C26 1_555 1_555
C27 C26 1_555 1_555
H19 C27 1_555 1_555
C28 C23 1_555 1_555
H20 C28 1_555 1_555
C29 C22 1_555 1_555
H21 C29 1_555 1_555
C30 C29 1_555 1_555
C31 C30 1_555 1_555
H22 C31 1_555 1_555
C32 C31 1_555 1_555
H23 C32 1_555 1_555
C33 C32 1_555 1_555
H24 C33 1_555 1_555
C34 C33 1_555 1_555
H25 C34 1_555 1_555
C35 C30 1_555 1_555
H26 C35 1_555 1_555
C2 C7 1_555 1_555
C6 C7 1_555 1_555
C13 C14 1_555 1_555
C20 C21 1_555 1_555
C27 C28 1_555 1_555
C34 C35 1_555 1_555

#END
