
#######################################################################
#
#                 Cambridge Crystallographic Data Centre
#                                CCDC 
#
#######################################################################
#
# If this CIF has been generated from an entry in the Cambridge 
# Structural Database, then it will include bibliographic, chemical, 
# crystal, experimental, refinement or atomic coordinate data resulting 
# from the CCDC's data processing and validation procedures.
#
#######################################################################

data_NILPOQ
_chemical_formula_moiety         'C19 H18'
_chemical_name_systematic        
2-methyl-1-phenyl-3,3a,8,8a-tetrahydrocyclopenta[a]indene
_symmetry_cell_setting           orthorhombic
_symmetry_space_group_name_H-M   'P b c a'
_symmetry_Int_Tables_number      61
_space_group_name_Hall           '-P 2ac 2ab'
loop_
_symmetry_equiv_pos_site_id
_symmetry_equiv_pos_as_xyz
1 x,y,z
2 1/2+x,1/2-y,-z
3 -x,1/2+y,1/2-z
4 1/2-x,-y,1/2+z
5 -x,-y,-z
6 1/2-x,1/2+y,z
7 x,1/2-y,1/2+z
8 1/2+x,y,1/2-z
_cell_length_a                   11.1361(7)
_cell_length_b                   7.7797(4)
_cell_length_c                   30.9551(19)
_cell_angle_alpha                90
_cell_angle_beta                 90
_cell_angle_gamma                90
_cell_volume                     2681.81
_exptl_crystal_colour            colorless
_exptl_crystal_description       Tabular
_cell_formula_units_Z            8
loop_
_atom_site_label
_atom_site_type_symbol
_atom_site_fract_x
_atom_site_fract_y
_atom_site_fract_z
C1 C 1.22184(14) 0.53551(19) 0.55364(5)
H1 H 1.2790 0.5603 0.5317
C2 C 1.11376(14) 0.45895(18) 0.54271(5)
H2 H 1.0971 0.4296 0.5135
C3 C 1.02991(13) 0.42546(17) 0.57494(5)
C4 C 0.90588(13) 0.34747(18) 0.57053(4)
H3 H 0.8482 0.4302 0.5571
C5 C 0.87170(13) 0.30740(17) 0.61812(4)
H4 H 0.7843 0.3285 0.6234
C6 C 0.90162(12) 0.11737(17) 0.62199(4)
C7 C 0.90356(13) 0.03140(18) 0.66457(5)
C8 C 0.81780(15) 0.07404(19) 0.69583(5)
H5 H 0.7619 0.1633 0.6901
C9 C 0.81306(18) -0.0118(2) 0.73505(5)
H6 H 0.7525 0.0162 0.7555
C10 C 0.8962(2) -0.1376(2) 0.74434(6)
H7 H 0.8925 -0.1974 0.7711
C11 C 1.24755(15) 0.57648(19) 0.59645(5)
H8 H 1.3221 0.6288 0.6035
C12 C 1.05550(13) 0.46659(17) 0.61778(5)
C13 C 0.94990(14) 0.42573(18) 0.64636(5)
H9 H 0.9058 0.5315 0.6544
H10 H 0.9760 0.3661 0.6730
C14 C 0.90460(13) 0.17302(18) 0.54715(5)
H11 H 0.8281 0.1557 0.5315
H12 H 0.9720 0.1642 0.5264
C15 C 0.91815(12) 0.04440(18) 0.58324(5)
C16 C 0.98910(16) -0.09339(19) 0.67507(5)
H13 H 1.0505 -0.1215 0.6550
C17 C 0.98477(19) -0.1765(2) 0.71481(6)
H14 H 1.0434 -0.2610 0.7217
C18 C 0.94054(14) -0.14092(19) 0.57251(5)
H15 H 1.0250 -0.1564 0.5646
H16 H 0.8893 -0.1751 0.5482
H17 H 0.9219 -0.2123 0.5977
C19 C 1.16471(14) 0.54118(18) 0.62883(5)
H18 H 1.1825 0.5676 0.6581
loop_
_geom_bond_atom_site_label_1
_geom_bond_atom_site_label_2
_geom_bond_site_symmetry_1
_geom_bond_site_symmetry_2
C1 H1 1_555 1_555
C2 C1 1_555 1_555
H2 C2 1_555 1_555
C3 C2 1_555 1_555
C4 C3 1_555 1_555
H3 C4 1_555 1_555
C5 C4 1_555 1_555
H4 C5 1_555 1_555
C6 C5 1_555 1_555
C7 C6 1_555 1_555
C8 C7 1_555 1_555
H5 C8 1_555 1_555
C9 C8 1_555 1_555
H6 C9 1_555 1_555
C10 C9 1_555 1_555
H7 C10 1_555 1_555
C11 C1 1_555 1_555
H8 C11 1_555 1_555
C12 C3 1_555 1_555
C13 C5 1_555 1_555
H9 C13 1_555 1_555
H10 C13 1_555 1_555
C14 C4 1_555 1_555
H11 C14 1_555 1_555
H12 C14 1_555 1_555
C15 C6 1_555 1_555
C16 C7 1_555 1_555
H13 C16 1_555 1_555
C17 C10 1_555 1_555
H14 C17 1_555 1_555
C18 C15 1_555 1_555
H15 C18 1_555 1_555
H16 C18 1_555 1_555
H17 C18 1_555 1_555
C19 C11 1_555 1_555
H18 C19 1_555 1_555
C12 C13 1_555 1_555
C12 C19 1_555 1_555
C14 C15 1_555 1_555
C16 C17 1_555 1_555

#END
