
#######################################################################
#
#                 Cambridge Crystallographic Data Centre
#                                CCDC 
#
#######################################################################
#
# If this CIF has been generated from an entry in the Cambridge 
# Structural Database, then it will include bibliographic, chemical, 
# crystal, experimental, refinement or atomic coordinate data resulting 
# from the CCDC's data processing and validation procedures.
#
#######################################################################

data_NILSOT
_chemical_formula_moiety         'C13 H18 N2 O8 S4'
_chemical_name_systematic        
'(R)-2-(4-(bis(methylsulfonyl)amino)-3-(thiophen-2-yl)-1,2-oxazol-5-yl)propyl methanesulfonate'
_symmetry_cell_setting           triclinic
_symmetry_space_group_name_H-M   'P -1'
_symmetry_Int_Tables_number      2
_space_group_name_Hall           '-P 1'
loop_
_symmetry_equiv_pos_site_id
_symmetry_equiv_pos_as_xyz
1 x,y,z
2 -x,-y,-z
_cell_length_a                   8.3349(7)
_cell_length_b                   11.2541(7)
_cell_length_c                   11.5632(8)
_cell_angle_alpha                90.401(5)
_cell_angle_beta                 110.250(7)
_cell_angle_gamma                103.900(6)
_cell_volume                     982.958
_exptl_crystal_colour            colorless
_exptl_crystal_description       prism
_chemical_melting_point          '123.5-125.1 deg.C'
_cell_formula_units_Z            2
loop_
_atom_site_label
_atom_site_type_symbol
_atom_site_fract_x
_atom_site_fract_y
_atom_site_fract_z
C1 C 0.7883(5) 0.7557(3) 0.1549(3)
H1 H 0.8055 0.8353 0.1317
C2 C 0.9213(5) 0.7055(3) 0.2163(4)
H2 H 1.0402 0.7472 0.2397
C3 C 0.8622(4) 0.5829(3) 0.2416(3)
H3 H 0.9366 0.5349 0.2831
C4 C 0.6797(4) 0.5442(2) 0.1965(3)
C5 C 0.5606(3) 0.4280(2) 0.2034(2)
C6 C 0.5906(3) 0.3090(2) 0.2258(2)
C7 C 0.4345(3) 0.2353(2) 0.2192(3)
C8 C 0.3726(4) 0.1024(2) 0.2365(3)
H4 H 0.4719 0.0651 0.2517
C9 C 0.3198(4) 0.0936(3) 0.3496(3)
H5 H 0.2374 0.1431 0.3446
H6 H 0.2634 0.0090 0.3555
C10 C 0.2210(5) 0.0315(3) 0.1238(3)
H7 H 0.268(5) 0.036(3) 0.055(4)
H8 H 0.186(5) -0.057(4) 0.138(4)
H9 H 0.126(6) 0.079(4) 0.106(4)
C11 C 0.4917(5) 0.3521(3) 0.5508(3)
H10 H 0.5985 0.3850 0.5347
H11 H 0.4949 0.3977 0.6224
H12 H 0.3915 0.3584 0.4805
C12 C 0.8916(5) 0.3243(4) 0.0664(4)
H13 H 0.9205 0.2911 0.0017
H14 H 0.9985 0.3677 0.1316
H15 H 0.8194 0.3797 0.0337
C13 C 0.8920(4) 0.1519(3) 0.4472(3)
H16 H 0.9064 0.0954 0.3913
H17 H 0.7784 0.1221 0.4546
H18 H 0.9834 0.1592 0.5271
N1 N 0.3958(3) 0.4249(2) 0.1863(3)
N2 N 0.7487(3) 0.2716(2) 0.2459(2)
O1 O 0.3141(2) 0.30141(17) 0.1954(2)
O2 O 0.4808(3) 0.13879(18) 0.4567(2)
O3 O 0.6296(3) 0.1866(2) 0.6731(2)
O4 O 0.3063(3) 0.1441(2) 0.5863(2)
O5 O 0.6027(3) 0.1562(2) 0.0366(2)
O6 O 0.8861(3) 0.1244(2) 0.1765(2)
O7 O 0.8495(3) 0.3726(2) 0.4580(2)
O8 O 1.0727(3) 0.3386(2) 0.3741(2)
S1 S 0.58616(12) 0.65761(7) 0.12477(8)
S2 S 0.47364(9) 0.19776(6) 0.57770(7)
S3 S 0.77548(10) 0.20429(7) 0.12531(7)
S4 S 0.90654(9) 0.29663(6) 0.38986(7)
loop_
_geom_bond_atom_site_label_1
_geom_bond_atom_site_label_2
_geom_bond_site_symmetry_1
_geom_bond_site_symmetry_2
C1 H1 1_555 1_555
C2 C1 1_555 1_555
H2 C2 1_555 1_555
C3 C2 1_555 1_555
H3 C3 1_555 1_555
C4 C3 1_555 1_555
C5 C4 1_555 1_555
C6 C5 1_555 1_555
C7 C6 1_555 1_555
C8 C7 1_555 1_555
H4 C8 1_555 1_555
C9 C8 1_555 1_555
H5 C9 1_555 1_555
H6 C9 1_555 1_555
C10 C8 1_555 1_555
H7 C10 1_555 1_555
H8 C10 1_555 1_555
H9 C10 1_555 1_555
C11 H10 1_555 1_555
H11 C11 1_555 1_555
H12 C11 1_555 1_555
C12 H13 1_555 1_555
H14 C12 1_555 1_555
H15 C12 1_555 1_555
C13 H16 1_555 1_555
H17 C13 1_555 1_555
H18 C13 1_555 1_555
N1 C5 1_555 1_555
N2 C6 1_555 1_555
O1 C7 1_555 1_555
O2 C9 1_555 1_555
O3 S2 1_555 1_555
O4 S2 1_555 1_555
O5 S3 1_555 1_555
O6 S3 1_555 1_555
O7 S4 1_555 1_555
O8 S4 1_555 1_555
S1 C1 1_555 1_555
S2 C11 1_555 1_555
S3 C12 1_555 1_555
S4 C13 1_555 1_555
C4 S1 1_555 1_555
N1 O1 1_555 1_555
N2 S3 1_555 1_555
N2 S4 1_555 1_555
O2 S2 1_555 1_555

#END
