
#######################################################################
#
#                 Cambridge Crystallographic Data Centre
#                                CCDC 
#
#######################################################################
#
# If this CIF has been generated from an entry in the Cambridge 
# Structural Database, then it will include bibliographic, chemical, 
# crystal, experimental, refinement or atomic coordinate data resulting 
# from the CCDC's data processing and validation procedures.
#
#######################################################################

data_NILTEI
_chemical_formula_moiety         'C28 H40 S4 Si4,C6 H14'
_chemical_name_systematic        
'2,5,8,11-tetrakis(Trimethylsilyl)cyclo-octatetrathiophene hexane solvate'
_symmetry_cell_setting           triclinic
_symmetry_space_group_name_H-M   'P -1'
_symmetry_Int_Tables_number      2
_space_group_name_Hall           '-P 1'
loop_
_symmetry_equiv_pos_site_id
_symmetry_equiv_pos_as_xyz
1 x,y,z
2 -x,-y,-z
_cell_length_a                   12.6217(9)
_cell_length_b                   13.2892(9)
_cell_length_c                   13.3125(9)
_cell_angle_alpha                110.0070(10)
_cell_angle_beta                 111.4940(10)
_cell_angle_gamma                96.1850(10)
_cell_volume                     1881.6
_exptl_crystal_colour            colorless
_exptl_crystal_description       block
_chemical_melting_point          '302 deg.C'
_cell_formula_units_Z            2
_exptl_crystal_preparation       'sublimes at 302 deg.C'
loop_
_atom_site_label
_atom_site_type_symbol
_atom_site_fract_x
_atom_site_fract_y
_atom_site_fract_z
S1 S 0.16287(9) 0.02958(9) 0.66216(10)
S2 S 0.26351(9) 0.30026(9) 0.83996(9)
S3 S 0.43790(8) 0.23083(8) 0.42678(8)
S4 S 0.65280(8) 0.21097(8) 0.65079(9)
Si1 Si 0.13005(11) -0.22772(10) 0.58987(12)
Si2 Si 0.26702(11) 0.55281(10) 0.94027(10)
Si3 Si 0.30331(10) 0.35786(9) 0.28109(10)
Si4 Si 0.83676(9) 0.10689(9) 0.78536(10)
C4 C 0.2160(3) -0.0859(3) 0.6272(4)
C5 C 0.3229(3) -0.0546(3) 0.6285(3)
H1 H 0.3663 -0.1050 0.6115
C6 C 0.3642(3) 0.0601(3) 0.6573(3)
C7 C 0.2863(3) 0.1182(3) 0.6800(3)
C8 C 0.2965(3) 0.2369(3) 0.7217(3)
C9 C 0.3228(3) 0.3121(3) 0.6791(3)
C10 C 0.3154(3) 0.4200(3) 0.7439(3)
H2 H 0.3307 0.4805 0.7264
C11 C 0.2840(3) 0.4271(3) 0.8335(3)
C12 C 0.3387(3) 0.3094(3) 0.4030(3)
C13 C 0.2992(3) 0.3314(3) 0.4895(3)
H3 H 0.2435 0.3715 0.4917
C14 C 0.3492(3) 0.2887(3) 0.5754(3)
C15 C 0.4276(3) 0.2309(3) 0.5528(3)
C16 C 0.5051(3) 0.1811(3) 0.6214(3)
C17 C 0.4806(3) 0.1083(3) 0.6682(3)
C18 C 0.5850(3) 0.0777(3) 0.7263(3)
H4 H 0.5843 0.0288 0.7622
C19 C 0.6847(3) 0.1263(3) 0.7244(3)
C20 C 0.0216(7) -0.2915(7) 0.4351(7)
H5 H 0.0604 -0.2902 0.3854
H6 H -0.0370 -0.2508 0.4236
H7 H -0.0157 -0.3670 0.4149
C21 C 0.0590(5) -0.2182(5) 0.6912(7)
H8 H 0.1182 -0.1831 0.7718
H9 H 0.0191 -0.2915 0.6753
H10 H 0.0029 -0.1752 0.6791
C22 C 0.2375(5) -0.3124(4) 0.6106(6)
H11 H 0.2950 -0.2803 0.6919
H12 H 0.2765 -0.3139 0.5605
H13 H 0.1965 -0.3868 0.5901
C23 C 0.4040(8) 0.6596(9) 1.0181(12)
H14 H 0.4056 0.7135 1.0888
H15 H 0.4109 0.6952 0.9682
H16 H 0.4687 0.6271 1.0388
C24 C 0.2382(15) 0.5201(8) 1.0487(9)
H17 H 0.2947 0.4836 1.0811
H18 H 0.1599 0.4717 1.0124
H19 H 0.2443 0.5872 1.1111
C25 C 0.1434(8) 0.5940(7) 0.8585(6)
H20 H 0.1575 0.6103 0.7989
H21 H 0.1343 0.6589 0.9117
H22 H 0.0727 0.5346 0.8214
C26 C 0.2544(12) 0.4811(7) 0.3286(8)
H23 H 0.1902 0.4816 0.2620
H24 H 0.3186 0.5458 0.3609
H25 H 0.2285 0.4814 0.3881
C27 C 0.4387(6) 0.3976(11) 0.2710(9)
H26 H 0.4709 0.3349 0.2543
H27 H 0.4944 0.4566 0.3448
H28 H 0.4231 0.4224 0.2086
C28 C 0.1933(8) 0.2512(6) 0.1420(6)
H29 H 0.1196 0.2373 0.1471
H30 H 0.2186 0.1842 0.1253
H31 H 0.1833 0.2754 0.0797
C29 C 0.8498(5) 0.0600(5) 0.9041(5)
H32 H 0.9271 0.0495 0.9372
H33 H 0.7912 -0.0088 0.8717
H34 H 0.8380 0.1151 0.9649
C30 C 0.8577(4) 0.0027(4) 0.6645(5)
H35 H 0.8425 0.0254 0.6006
H36 H 0.8040 -0.0682 0.6364
H37 H 0.9374 -0.0032 0.6940
C31 C 0.9458(4) 0.2418(4) 0.8454(5)
H38 H 1.0243 0.2330 0.8756
H39 H 0.9352 0.2955 0.9082
H40 H 0.9346 0.2669 0.7836
C1 C 0.3626(17) -0.0601(17) 0.9638(16)
C2 C 0.4794(8) -0.1066(8) 0.8919(9)
C3 C 0.4188(15) -0.0011(17) 0.9497(17)
C32? C 0.4013(15) 0.8816(15) 0.9535(15)
C33? C 0.3462(17) -0.0179(19) 0.9646(17)
loop_
_geom_bond_atom_site_label_1
_geom_bond_atom_site_label_2
_geom_bond_site_symmetry_1
_geom_bond_site_symmetry_2
C1 C3 1_555 1_555
C2 C3 1_555 1_555
S1 C4 1_555 1_555
S2 C8 1_555 1_555
S3 C12 1_555 1_555
S4 C16 1_555 1_555
Si1 C4 1_555 1_555
Si2 C11 1_555 1_555
Si3 C12 1_555 1_555
Si4 C19 1_555 1_555
C4 C5 1_555 1_555
C5 H1 1_555 1_555
C6 C5 1_555 1_555
C7 S1 1_555 1_555
C8 C7 1_555 1_555
C9 C8 1_555 1_555
C10 C9 1_555 1_555
H2 C10 1_555 1_555
C11 S2 1_555 1_555
C12 C13 1_555 1_555
C13 H3 1_555 1_555
C14 C9 1_555 1_555
C15 S3 1_555 1_555
C16 C15 1_555 1_555
C17 C6 1_555 1_555
C18 C17 1_555 1_555
H4 C18 1_555 1_555
C19 S4 1_555 1_555
C20 Si1 1_555 1_555
H5 C20 1_555 1_555
H6 C20 1_555 1_555
H7 C20 1_555 1_555
C21 Si1 1_555 1_555
H8 C21 1_555 1_555
H9 C21 1_555 1_555
H10 C21 1_555 1_555
C22 Si1 1_555 1_555
H11 C22 1_555 1_555
H12 C22 1_555 1_555
H13 C22 1_555 1_555
C23 Si2 1_555 1_555
H14 C23 1_555 1_555
H15 C23 1_555 1_555
H16 C23 1_555 1_555
C24 Si2 1_555 1_555
H17 C24 1_555 1_555
H18 C24 1_555 1_555
H19 C24 1_555 1_555
C25 Si2 1_555 1_555
H20 C25 1_555 1_555
H21 C25 1_555 1_555
H22 C25 1_555 1_555
C26 Si3 1_555 1_555
H23 C26 1_555 1_555
H24 C26 1_555 1_555
H25 C26 1_555 1_555
C27 Si3 1_555 1_555
H26 C27 1_555 1_555
H27 C27 1_555 1_555
H28 C27 1_555 1_555
C28 Si3 1_555 1_555
H29 C28 1_555 1_555
H30 C28 1_555 1_555
H31 C28 1_555 1_555
C29 Si4 1_555 1_555
H32 C29 1_555 1_555
H33 C29 1_555 1_555
H34 C29 1_555 1_555
C30 Si4 1_555 1_555
H35 C30 1_555 1_555
H36 C30 1_555 1_555
H37 C30 1_555 1_555
C31 Si4 1_555 1_555
H38 C31 1_555 1_555
H39 C31 1_555 1_555
H40 C31 1_555 1_555
C6 C7 1_555 1_555
C10 C11 1_555 1_555
C13 C14 1_555 1_555
C14 C15 1_555 1_555
C16 C17 1_555 1_555
C18 C19 1_555 1_555

#END
