
#######################################################################
#
#                 Cambridge Crystallographic Data Centre
#                                CCDC 
#
#######################################################################
#
# If this CIF has been generated from an entry in the Cambridge 
# Structural Database, then it will include bibliographic, chemical, 
# crystal, experimental, refinement or atomic coordinate data resulting 
# from the CCDC's data processing and validation procedures.
#
#######################################################################

data_NILTAF
_chemical_formula_moiety         'C56 H58 Mg1 N2 O3'
_chemical_name_systematic        
'bis(10-((2,6-Diisopropylphenyl)amino)phenanthren-9-olato radical anion)-tetrahydrofuran-magnesium'
_symmetry_cell_setting           triclinic
_symmetry_space_group_name_H-M   'P -1'
_symmetry_Int_Tables_number      2
_space_group_name_Hall           '-P 1'
loop_
_symmetry_equiv_pos_site_id
_symmetry_equiv_pos_as_xyz
1 x,y,z
2 -x,-y,-z
_cell_length_a                   11.8017(9)
_cell_length_b                   12.2632(9)
_cell_length_c                   17.6549(13)
_cell_angle_alpha                83.8540(10)
_cell_angle_beta                 78.6140(10)
_cell_angle_gamma                65.6400(10)
_cell_volume                     2280.91
_exptl_crystal_colour            red
_exptl_crystal_description       block
_cell_formula_units_Z            2
loop_
_atom_site_label
_atom_site_type_symbol
_atom_site_fract_x
_atom_site_fract_y
_atom_site_fract_z
C1 C 1.04370(16) 0.69413(14) 0.13213(9)
C2 C 1.13191(16) 0.61471(15) 0.07015(10)
C3 C 1.25864(18) 0.54143(16) 0.07617(11)
H1 H 1.2888 0.5430 0.1219
C4 C 1.3400(2) 0.46757(18) 0.01771(12)
H2 H 1.4255 0.4210 0.0228
C5 C 1.2966(2) 0.46136(18) -0.04864(11)
H3 H 1.3521 0.4104 -0.0890
C6 C 1.1733(2) 0.52915(17) -0.05549(11)
H4 H 1.1443 0.5229 -0.1007
C7 C 1.08798(17) 0.60769(15) 0.00199(10)
C8 C 0.95770(18) 0.68029(16) -0.00862(10)
C9 C 0.9106(2) 0.67795(19) -0.07541(11)
H5 H 0.9644 0.6255 -0.1156
C10 C 0.7887(2) 0.7498(2) -0.08372(12)
H6 H 0.7597 0.7465 -0.1296
C11 C 0.7069(2) 0.8273(2) -0.02626(12)
H7 H 0.6228 0.8772 -0.0329
C12 C 0.74888(19) 0.83118(18) 0.04062(11)
H8 H 0.6933 0.8833 0.0805
C13 C 0.87395(17) 0.75792(15) 0.04985(10)
C14 C 0.91483(16) 0.76315(15) 0.12074(10)
C15 C 1.18563(16) 0.66935(16) 0.22361(10)
C16 C 1.21650(17) 0.57679(17) 0.28056(10)
C17 C 1.3345(2) 0.5362(2) 0.30193(13)
H9 H 1.3580 0.4720 0.3388
C18 C 1.4181(2) 0.5874(2) 0.27074(15)
H10 H 1.4991 0.5574 0.2854
C19 C 1.38451(19) 0.6823(2) 0.21811(13)
H11 H 1.4415 0.7192 0.1987
C20 C 1.26869(17) 0.72488(17) 0.19303(10)
C21 C 1.12631(18) 0.51834(17) 0.31471(11)
H12 H 1.0388 0.5817 0.3171
C22 C 1.1401(2) 0.4675(2) 0.39687(13)
H13 H 1.2217 0.3992 0.3960
H14 H 1.0719 0.4412 0.4179
H15 H 1.1356 0.5296 0.4294
C23 C 1.1384(2) 0.42152(19) 0.26244(13)
H16 H 1.1181 0.4574 0.2119
H17 H 1.0798 0.3846 0.2859
H18 H 1.2250 0.3603 0.2559
C24 C 1.23588(18) 0.82949(17) 0.13496(11)
H19 H 1.1575 0.8373 0.1170
C25 C 1.2066(3) 0.9444(2) 0.17346(15)
H20 H 1.1376 0.9568 0.2173
H21 H 1.1814 1.0116 0.1362
H22 H 1.2818 0.9394 0.1918
C26 C 1.3381(2) 0.8108(2) 0.06409(14)
H23 H 1.4150 0.8070 0.0795
H24 H 1.3093 0.8776 0.0269
H25 H 1.3559 0.7357 0.0401
C27 C 0.79152(14) 1.01381(14) 0.37786(9)
C28 C 0.72853(14) 1.12445(14) 0.42190(9)
C29 C 0.64827(16) 1.23294(15) 0.39048(10)
H26 H 0.6300 1.2341 0.3403
C30 C 0.59581(18) 1.33699(16) 0.43063(11)
H27 H 0.5422 1.4090 0.4080
C31 C 0.62095(18) 1.33730(16) 0.50439(11)
H28 H 0.5845 1.4093 0.5322
C32 C 0.69834(17) 1.23351(15) 0.53657(10)
H29 H 0.7150 1.2347 0.5869
C33 C 0.75417(15) 1.12493(14) 0.49724(9)
C34 C 0.83915(14) 1.01645(15) 0.53241(9)
C35 C 0.86121(16) 1.01010(16) 0.60843(10)
H30 H 0.8182 1.0789 0.6393
C36 C 0.94328(18) 0.90702(18) 0.63902(11)
H31 H 0.9565 0.9054 0.6906
C37 C 1.00733(17) 0.80480(17) 0.59538(11)
H32 H 1.0639 0.7336 0.6170
C38 C 0.98844(16) 0.80731(16) 0.52081(10)
H33 H 1.0325 0.7377 0.4908
C39 C 0.90449(14) 0.91211(14) 0.48866(9)
C40 C 0.88634(14) 0.91155(14) 0.41046(9)
C41 C 0.68081(15) 1.07114(14) 0.26639(9)
C42 C 0.71598(17) 1.12967(16) 0.19914(10)
C43 C 0.6235(2) 1.2037(2) 0.15699(12)
H34 H 0.6457 1.2467 0.1127
C44 C 0.5002(2) 1.2162(2) 0.17812(13)
H35 H 0.4380 1.2676 0.1489
C45 C 0.46781(18) 1.15345(19) 0.24200(12)
H36 H 0.3832 1.1603 0.2554
C46 C 0.55598(16) 1.08031(15) 0.28741(10)
C47 C 0.85157(18) 1.11755(18) 0.17511(11)
H37 H 0.9061 1.0442 0.2020
C48 C 0.8663(2) 1.2244(2) 0.20217(13)
H38 H 0.8139 1.2979 0.1767
H39 H 0.9549 1.2133 0.1889
H40 H 0.8394 1.2305 0.2583
C49 C 0.8981(2) 1.1016(2) 0.08800(13)
H41 H 0.8872 1.0330 0.0720
H42 H 0.9876 1.0877 0.0762
H43 H 0.8493 1.1741 0.0601
C50 C 0.51628(17) 1.01150(18) 0.35635(12)
H44 H 0.5911 0.9678 0.3827
C51 C 0.4802(2) 0.9181(2) 0.32910(15)
H45 H 0.4055 0.9585 0.3042
H46 H 0.4614 0.8695 0.3736
H47 H 0.5504 0.8664 0.2920
C52 C 0.4099(2) 1.0931(2) 0.41540(13)
H48 H 0.4356 1.1521 0.4319
H49 H 0.3919 1.0449 0.4603
H50 H 0.3340 1.1348 0.3919
C53 C 0.7705(2) 0.6810(2) 0.40273(12)
H51 H 0.6954 0.7488 0.4272
H52 H 0.8421 0.6668 0.4292
C54 C 0.7445(4) 0.5719(3) 0.4072(2)
H53 H 0.8132 0.5029 0.4272
H54 H 0.6642 0.5840 0.4427
C55 C 0.7363(4) 0.5497(4) 0.3340(2)
H55 H 0.6477 0.5657 0.3314
H56 H 0.7887 0.4644 0.3225
C56 C 0.7801(2) 0.62638(19) 0.27588(14)
H57 H 0.8591 0.5775 0.2421
H58 H 0.7153 0.6721 0.2434
Mg1 Mg 0.89257(5) 0.81656(5) 0.27324(3)
N1 N 1.06440(13) 0.71134(12) 0.20111(8)
N2 N 0.77552(12) 0.99305(11) 0.30886(7)
O1 O 0.83510(11) 0.83119(11) 0.17421(7)
O2 O 0.95137(11) 0.81749(10) 0.37010(7)
O3 O 0.80133(12) 0.70646(11) 0.32086(7)
loop_
_geom_bond_atom_site_label_1
_geom_bond_atom_site_label_2
_geom_bond_site_symmetry_1
_geom_bond_site_symmetry_2
C1 C2 1_555 1_555
C2 C3 1_555 1_555
C3 H1 1_555 1_555
C4 C3 1_555 1_555
H2 C4 1_555 1_555
C5 C4 1_555 1_555
H3 C5 1_555 1_555
C6 C5 1_555 1_555
H4 C6 1_555 1_555
C7 C2 1_555 1_555
C8 C7 1_555 1_555
C9 C8 1_555 1_555
H5 C9 1_555 1_555
C10 C9 1_555 1_555
H6 C10 1_555 1_555
C11 C10 1_555 1_555
H7 C11 1_555 1_555
C12 C11 1_555 1_555
H8 C12 1_555 1_555
C13 C8 1_555 1_555
C14 C1 1_555 1_555
C15 C16 1_555 1_555
C16 C17 1_555 1_555
C17 H9 1_555 1_555
C18 C17 1_555 1_555
H10 C18 1_555 1_555
C19 C18 1_555 1_555
H11 C19 1_555 1_555
C20 C15 1_555 1_555
C21 C16 1_555 1_555
H12 C21 1_555 1_555
C22 C21 1_555 1_555
H13 C22 1_555 1_555
H14 C22 1_555 1_555
H15 C22 1_555 1_555
C23 C21 1_555 1_555
H16 C23 1_555 1_555
H17 C23 1_555 1_555
H18 C23 1_555 1_555
C24 C20 1_555 1_555
H19 C24 1_555 1_555
C25 C24 1_555 1_555
H20 C25 1_555 1_555
H21 C25 1_555 1_555
H22 C25 1_555 1_555
C26 C24 1_555 1_555
H23 C26 1_555 1_555
H24 C26 1_555 1_555
H25 C26 1_555 1_555
C27 C28 1_555 1_555
C28 C29 1_555 1_555
C29 H26 1_555 1_555
C30 C29 1_555 1_555
H27 C30 1_555 1_555
C31 C30 1_555 1_555
H28 C31 1_555 1_555
C32 C31 1_555 1_555
H29 C32 1_555 1_555
C33 C28 1_555 1_555
C34 C33 1_555 1_555
C35 C34 1_555 1_555
H30 C35 1_555 1_555
C36 C35 1_555 1_555
H31 C36 1_555 1_555
C37 C36 1_555 1_555
H32 C37 1_555 1_555
C38 C37 1_555 1_555
H33 C38 1_555 1_555
C39 C34 1_555 1_555
C40 C27 1_555 1_555
C41 C42 1_555 1_555
C42 C43 1_555 1_555
C43 H34 1_555 1_555
C44 C43 1_555 1_555
H35 C44 1_555 1_555
C45 C44 1_555 1_555
H36 C45 1_555 1_555
C46 C41 1_555 1_555
C47 C42 1_555 1_555
H37 C47 1_555 1_555
C48 C47 1_555 1_555
H38 C48 1_555 1_555
H39 C48 1_555 1_555
H40 C48 1_555 1_555
C49 C47 1_555 1_555
H41 C49 1_555 1_555
H42 C49 1_555 1_555
H43 C49 1_555 1_555
C50 C46 1_555 1_555
H44 C50 1_555 1_555
C51 C50 1_555 1_555
H45 C51 1_555 1_555
H46 C51 1_555 1_555
H47 C51 1_555 1_555
C52 C50 1_555 1_555
H48 C52 1_555 1_555
H49 C52 1_555 1_555
H50 C52 1_555 1_555
C53 H51 1_555 1_555
H52 C53 1_555 1_555
C54 C53 1_555 1_555
H53 C54 1_555 1_555
H54 C54 1_555 1_555
C55 C54 1_555 1_555
H55 C55 1_555 1_555
H56 C55 1_555 1_555
C56 C55 1_555 1_555
H57 C56 1_555 1_555
H58 C56 1_555 1_555
Mg1 N1 1_555 1_555
N1 C1 1_555 1_555
N2 C27 1_555 1_555
O1 C14 1_555 1_555
O2 C40 1_555 1_555
O3 C53 1_555 1_555
C6 C7 1_555 1_555
C12 C13 1_555 1_555
C13 C14 1_555 1_555
C15 N1 1_555 1_555
C19 C20 1_555 1_555
C32 C33 1_555 1_555
C38 C39 1_555 1_555
C39 C40 1_555 1_555
C41 N2 1_555 1_555
C45 C46 1_555 1_555
C56 O3 1_555 1_555
Mg1 N2 1_555 1_555
Mg1 O1 1_555 1_555
Mg1 O2 1_555 1_555
Mg1 O3 1_555 1_555

#END
