
#######################################################################
#
#                 Cambridge Crystallographic Data Centre
#                                CCDC 
#
#######################################################################
#
# If this CIF has been generated from an entry in the Cambridge 
# Structural Database, then it will include bibliographic, chemical, 
# crystal, experimental, refinement or atomic coordinate data resulting 
# from the CCDC's data processing and validation procedures.
#
#######################################################################

data_NILTUY
_chemical_formula_moiety         'C22 H19 N3 O5 S1'
_chemical_name_systematic        
3-Methylene-1-(phthalimidoyl)-5-(p-toluenesulfonyl)-1,5-diazabicyclo(3.3.0)nonan-2-one
_symmetry_cell_setting           monoclinic
_symmetry_space_group_name_H-M   'P 21/c'
_symmetry_Int_Tables_number      14
_space_group_name_Hall           '-P 2ybc'
loop_
_symmetry_equiv_pos_site_id
_symmetry_equiv_pos_as_xyz
1 x,y,z
2 -x,1/2+y,1/2-z
3 -x,-y,-z
4 x,1/2-y,1/2+z
_cell_length_a                   13.408(2)
_cell_length_b                   16.554(2)
_cell_length_c                   9.614(2)
_cell_angle_alpha                90
_cell_angle_beta                 101.687(14)
_cell_angle_gamma                90
_cell_volume                     2089.65
_exptl_crystal_colour            colorless
_exptl_crystal_description       block
_cell_formula_units_Z            4
loop_
_atom_site_label
_atom_site_type_symbol
_atom_site_fract_x
_atom_site_fract_y
_atom_site_fract_z
S1 S 0.43225(7) 0.16354(6) 0.09045(10)
O1 O 0.9219(2) 0.30546(19) 0.0054(3)
O2 O 0.7562(2) 0.12377(14) 0.2372(3)
O3 O 0.80118(19) 0.35259(15) 0.3008(3)
O4 O 0.37146(19) 0.20571(16) 0.1730(3)
O5 O 0.48663(19) 0.09231(14) 0.1465(3)
N1 N 0.8187(2) 0.22593(17) 0.1152(3)
N2 N 0.7381(2) 0.27849(16) 0.1019(3)
N3 N 0.51786(18) 0.22766(15) 0.0614(3)
C1 C 0.9073(3) 0.2436(3) 0.0630(4)
C2 C 0.9704(3) 0.1701(2) 0.0959(4)
C3 C 1.0642(3) 0.1536(4) 0.0622(5)
C4 C 1.1058(4) 0.0797(4) 0.1057(6)
C5 C 1.0587(4) 0.0243(3) 0.1762(6)
C6 C 0.9639(3) 0.0421(3) 0.2090(5)
C7 C 0.9211(3) 0.1160(2) 0.1678(4)
C8 C 0.8224(3) 0.1503(2) 0.1838(4)
C9 C 0.7383(3) 0.3413(2) 0.1930(4)
C10 C 0.6469(3) 0.3898(2) 0.1330(4)
C11 C 0.5889(3) 0.3491(2) 0.0018(4)
C12 C 0.4881(3) 0.3115(2) 0.0206(5)
C13 C 0.5886(3) 0.2034(2) -0.0297(4)
C14 C 0.6557(3) 0.2772(2) -0.0244(4)
C15 C 0.6260(4) 0.4575(3) 0.1920(6)
C16 C 0.3543(2) 0.13878(19) -0.0739(3)
C17 C 0.3789(3) 0.0739(2) -0.1513(5)
C18 C 0.3175(4) 0.0563(3) -0.2814(5)
C19 C 0.2329(3) 0.1011(3) -0.3361(5)
C20 C 0.2090(3) 0.1647(3) -0.2562(5)
C21 C 0.2696(3) 0.1842(2) -0.1263(4)
C22 C 0.1691(7) 0.0816(7) -0.4813(7)
H1 H 1.095(3) 0.198(3) 0.002(5)
H2 H 1.172(4) 0.067(3) 0.102(5)
H3 H 1.084(3) -0.030(2) 0.209(4)
H4 H 0.931(2) 0.008(2) 0.255(4)
H5 H 0.577(2) 0.3852(17) -0.082(3)
H6 H 0.457(2) 0.3398(18) 0.103(3)
H7 H 0.443(2) 0.3148(18) -0.060(3)
H8 H 0.550(2) 0.193(2) -0.127(4)
H9 H 0.625(2) 0.1549(19) 0.006(3)
H10 H 0.683(2) 0.2817(17) -0.107(3)
H11 H 0.668(3) 0.474(2) 0.269(4)
H12 H 0.565(3) 0.489(3) 0.150(5)
H13 H 0.338(2) 0.012(2) -0.330(4)
H14 H 0.435(3) 0.045(2) -0.115(4)
H15 H 0.152(2) 0.1974(19) -0.294(4)
H16 H 0.252(3) 0.230(2) -0.071(4)
H17 H 0.111(5) 0.100(4) -0.490(7)
H18 H 0.158(4) 0.026(3) -0.476(5)
H19 H 0.199(5) 0.101(4) -0.562(7)
loop_
_geom_bond_atom_site_label_1
_geom_bond_atom_site_label_2
_geom_bond_site_symmetry_1
_geom_bond_site_symmetry_2
S1 O4 1_555 1_555
O1 C1 1_555 1_555
O2 C8 1_555 1_555
O3 C9 1_555 1_555
O5 S1 1_555 1_555
N1 N2 1_555 1_555
N2 C9 1_555 1_555
N3 S1 1_555 1_555
C1 N1 1_555 1_555
C2 C1 1_555 1_555
C3 C2 1_555 1_555
C4 C3 1_555 1_555
C5 C4 1_555 1_555
C6 C5 1_555 1_555
C7 C2 1_555 1_555
C8 N1 1_555 1_555
C9 C10 1_555 1_555
C10 C11 1_555 1_555
C11 C12 1_555 1_555
C12 N3 1_555 1_555
C13 N3 1_555 1_555
C14 N2 1_555 1_555
C15 C10 1_555 1_555
C16 S1 1_555 1_555
C17 C16 1_555 1_555
C18 C17 1_555 1_555
C19 C18 1_555 1_555
C20 C19 1_555 1_555
C21 C16 1_555 1_555
C22 C19 1_555 1_555
H1 C3 1_555 1_555
H2 C4 1_555 1_555
H3 C5 1_555 1_555
H4 C6 1_555 1_555
H5 C11 1_555 1_555
H6 C12 1_555 1_555
H7 C12 1_555 1_555
H8 C13 1_555 1_555
H9 C13 1_555 1_555
H10 C14 1_555 1_555
H11 C15 1_555 1_555
H12 C15 1_555 1_555
H13 C18 1_555 1_555
H14 C17 1_555 1_555
H15 C20 1_555 1_555
H16 C21 1_555 1_555
H17 C22 1_555 1_555
H18 C22 1_555 1_555
H19 C22 1_555 1_555
C6 C7 1_555 1_555
C7 C8 1_555 1_555
C11 C14 1_555 1_555
C13 C14 1_555 1_555
C20 C21 1_555 1_555

#END
