
#######################################################################
#
#                 Cambridge Crystallographic Data Centre
#                                CCDC 
#
#######################################################################
#
# If this CIF has been generated from an entry in the Cambridge 
# Structural Database, then it will include bibliographic, chemical, 
# crystal, experimental, refinement or atomic coordinate data resulting 
# from the CCDC's data processing and validation procedures.
#
#######################################################################

data_NILXIR
_chemical_name_common            'PDB Chemical Component code: BB0'
_chemical_formula_moiety         'C14 H15 N1 O1'
_chemical_name_systematic        1-(6-(Dimethylamino)-2-naphthyl)ethanone
_symmetry_cell_setting           monoclinic
_symmetry_space_group_name_H-M   'P 21/c'
_symmetry_Int_Tables_number      14
_space_group_name_Hall           '-P 2ybc'
loop_
_symmetry_equiv_pos_site_id
_symmetry_equiv_pos_as_xyz
1 x,y,z
2 -x,1/2+y,1/2-z
3 -x,-y,-z
4 x,1/2-y,1/2+z
_cell_length_a                   8.1170(16)
_cell_length_b                   6.0778(12)
_cell_length_c                   22.794(6)
_cell_angle_alpha                90
_cell_angle_beta                 101.22(3)
_cell_angle_gamma                90
_cell_volume                     1103.02
_exptl_crystal_colour            colorless
_exptl_crystal_description       block
_cell_formula_units_Z            4
loop_
_atom_site_label
_atom_site_type_symbol
_atom_site_fract_x
_atom_site_fract_y
_atom_site_fract_z
C1 C 0.68421(19) 0.5990(3) 0.71239(7)
C2 C 0.70956(19) 0.7529(3) 0.75844(7)
H1 H 0.6491 0.8838 0.7537
C3 C 0.82498(19) 0.7143(3) 0.81201(7)
C4 C 0.91766(19) 0.5140(3) 0.82023(7)
C5 C 0.8890(2) 0.3585(3) 0.77301(7)
H2 H 0.9478 0.2263 0.7775
C6 C 0.7773(2) 0.3983(3) 0.72127(7)
H3 H 0.7614 0.2928 0.6911
C7 C 0.8552(2) 0.8723(3) 0.85919(7)
H4 H 0.7956 1.0039 0.8550
C8 C 0.9699(2) 0.8338(3) 0.91018(7)
H5 H 0.9882 0.9403 0.9400
C9 C 1.0622(2) 0.6334(3) 0.91866(7)
C10 C 1.0343(2) 0.4774(3) 0.87396(7)
H6 H 1.0934 0.3455 0.8793
C11 C 0.4848(2) 0.8422(3) 0.64989(8)
H7 H 0.4249 0.8669 0.6817
H8 H 0.4068 0.8382 0.6124
H9 H 0.5639 0.9592 0.6493
C12 C 0.5517(2) 0.4771(3) 0.61119(8)
H10 H 0.6573 0.4536 0.5992
H11 H 0.4713 0.5319 0.5778
H12 H 0.5122 0.3406 0.6245
C13 C 1.1855(2) 0.6007(3) 0.97533(7)
C14 C 1.2744(2) 0.3834(3) 0.98702(8)
H13 H 1.3358 0.3796 1.0275
H14 H 1.3507 0.3655 0.9601
H15 H 1.1934 0.2665 0.9810
N1 N 0.57311(19) 0.6354(2) 0.65934(6)
O1 O 1.2148(2) 0.7484(2) 1.01206(6)
loop_
_geom_bond_atom_site_label_1
_geom_bond_atom_site_label_2
_geom_bond_site_symmetry_1
_geom_bond_site_symmetry_2
C1 C2 1_555 1_555
C2 H1 1_555 1_555
C3 C2 1_555 1_555
C4 C3 1_555 1_555
C5 C4 1_555 1_555
H2 C5 1_555 1_555
C6 C1 1_555 1_555
H3 C6 1_555 1_555
C7 C3 1_555 1_555
H4 C7 1_555 1_555
C8 C7 1_555 1_555
H5 C8 1_555 1_555
C9 C8 1_555 1_555
C10 C4 1_555 1_555
H6 C10 1_555 1_555
C11 H7 1_555 1_555
H8 C11 1_555 1_555
H9 C11 1_555 1_555
C12 H10 1_555 1_555
H11 C12 1_555 1_555
H12 C12 1_555 1_555
C13 C9 1_555 1_555
C14 C13 1_555 1_555
H13 C14 1_555 1_555
H14 C14 1_555 1_555
H15 C14 1_555 1_555
N1 C1 1_555 1_555
O1 C13 1_555 1_555
C5 C6 1_555 1_555
C9 C10 1_555 1_555
C11 N1 1_555 1_555
C12 N1 1_555 1_555

#END
