
#######################################################################
#
#                 Cambridge Crystallographic Data Centre
#                                CCDC 
#
#######################################################################
#
# If this CIF has been generated from an entry in the Cambridge 
# Structural Database, then it will include bibliographic, chemical, 
# crystal, experimental, refinement or atomic coordinate data resulting 
# from the CCDC's data processing and validation procedures.
#
#######################################################################

data_NILZEP
_chemical_formula_moiety         'C15 H17 F3 O5'
_chemical_name_systematic        
2'-(Methoxy(2,2,2-trifluoroethoxy)methyl)-6H-spiro[1,3-benzodioxole-5,1'-cyclopentan]-6-one
_symmetry_cell_setting           triclinic
_symmetry_space_group_name_H-M   'P -1'
_symmetry_Int_Tables_number      2
_space_group_name_Hall           '-P 1'
loop_
_symmetry_equiv_pos_site_id
_symmetry_equiv_pos_as_xyz
1 x,y,z
2 -x,-y,-z
_cell_length_a                   8.3578(2)
_cell_length_b                   9.4715(2)
_cell_length_c                   10.6537(8)
_cell_angle_alpha                98.611(7)
_cell_angle_beta                 100.684(5)
_cell_angle_gamma                105.961(7)
_cell_volume                     778.601
_exptl_crystal_colour            colorless
_exptl_crystal_description       platelet
_cell_formula_units_Z            2
loop_
_atom_site_label
_atom_site_type_symbol
_atom_site_fract_x
_atom_site_fract_y
_atom_site_fract_z
O1 O 0.0327(2) 0.3372(2) 0.89526(18)
O2 O 0.2011(2) -0.01253(17) 0.61213(17)
O3 O 0.3204(2) 0.0671(2) 0.44252(15)
O4 O 0.0943(3) 0.1905(2) 1.03902(19)
O5 O 0.5629(2) 0.1215(2) 0.87759(19)
C1 C -0.0152(4) 0.2763(4) 1.0008(3)
H1 H -0.1337 0.2126 0.9746
H2 H -0.0038 0.3564 1.0735
C2 C 0.1728(3) 0.2968(2) 0.8734(2)
C3 C 0.2645(3) 0.3331(2) 0.7889(2)
H3 H 0.2326 0.3885 0.7291
C4 C 0.4220(3) 0.2846(2) 0.7893(2)
C5 C 0.4361(3) 0.2236(2) 0.6492(2)
H4 H 0.5266 0.1758 0.6568
C6 C 0.2752(3) 0.1124(2) 0.5589(2)
H5 H 0.1905 0.1649 0.5397
C7 C 0.2908(4) -0.1183(3) 0.6218(4)
H6 H 0.3837 -0.0832 0.6998
H7 H 0.3391 -0.1316 0.5464
C8 C 0.1707(5) -0.2601(4) 0.6276(4)
F1 F 0.2565(17) -0.3543(14) 0.6598(17)
F2 F 0.0822(19) -0.3163(8) 0.4982(10)
F3 F 0.0609(16) -0.2666(13) 0.6952(18)
C9 C 0.1805(4) 0.0000(5) 0.3320(3)
H8 H 0.1045 -0.0878 0.3487
H9 H 0.2225 -0.0280 0.2572
H10 H 0.1198 0.0705 0.3156
C10 C 0.2086(3) 0.2042(3) 0.9638(2)
C11 C 0.3363(3) 0.1441(3) 0.9687(2)
H11 H 0.3541 0.0836 1.0277
C12 C 0.4451(3) 0.1757(3) 0.8802(2)
C13 C 0.5848(3) 0.4263(3) 0.8342(2)
H12 H 0.5683 0.5013 0.8989
H13 H 0.6840 0.3993 0.8723
C14 C 0.6097(5) 0.4863(3) 0.7139(3)
H14 H 0.7289 0.5096 0.7098
H15 H 0.5776 0.5774 0.7155
C15 C 0.4973(4) 0.3661(3) 0.5966(2)
H16 H 0.5619 0.3498 0.5320
H17 H 0.4005 0.3950 0.5566
F4? F 0.2393(10) -0.3706(10) 0.6299(13)
F5? F 0.0187(10) -0.3085(11) 0.556(2)
F6? F 0.155(3) -0.2188(16) 0.7576(14)
loop_
_geom_bond_atom_site_label_1
_geom_bond_atom_site_label_2
_geom_bond_site_symmetry_1
_geom_bond_site_symmetry_2
O1 C1 1_555 1_555
O2 C6 1_555 1_555
O3 C6 1_555 1_555
O4 C1 1_555 1_555
O5 C12 1_555 1_555
C1 H1 1_555 1_555
H2 C1 1_555 1_555
C2 O1 1_555 1_555
C3 C2 1_555 1_555
H3 C3 1_555 1_555
C4 C3 1_555 1_555
C5 C4 1_555 1_555
H4 C5 1_555 1_555
C6 C5 1_555 1_555
H5 C6 1_555 1_555
C7 O2 1_555 1_555
H6 C7 1_555 1_555
H7 C7 1_555 1_555
C8 C7 1_555 1_555
F1 C8 1_555 1_555
F2 C8 1_555 1_555
F3 C8 1_555 1_555
C9 O3 1_555 1_555
H8 C9 1_555 1_555
H9 C9 1_555 1_555
H10 C9 1_555 1_555
C10 O4 1_555 1_555
C11 C10 1_555 1_555
H11 C11 1_555 1_555
C12 C4 1_555 1_555
C13 C4 1_555 1_555
H12 C13 1_555 1_555
H13 C13 1_555 1_555
C14 C13 1_555 1_555
H14 C14 1_555 1_555
H15 C14 1_555 1_555
C15 C5 1_555 1_555
H16 C15 1_555 1_555
H17 C15 1_555 1_555
C2 C10 1_555 1_555
C11 C12 1_555 1_555
C14 C15 1_555 1_555

#END
