
#######################################################################
#
#                 Cambridge Crystallographic Data Centre
#                                CCDC 
#
#######################################################################
#
# If this CIF has been generated from an entry in the Cambridge 
# Structural Database, then it will include bibliographic, chemical, 
# crystal, experimental, refinement or atomic coordinate data resulting 
# from the CCDC's data processing and validation procedures.
#
#######################################################################

data_NIMFEU
_chemical_name_common            
'endo,endo-3,4,5,6,10,11,12,13,16,16-Decachloropentacyclo(6.6.1.1$3,6!.0$ 2,7!.0$9,14!)hexadeca-9(14),10,12-triene'
_chemical_formula_moiety         'C16 H8 Cl10'
_chemical_name_systematic        
endo,endo-1,5,6,7,8,12,13,14,15,15-Decachloropentacyclo(10.2.1.1^3,10^.0^2,11^.0^4,9^)hexadeca-4(9),5,7-triene
_symmetry_cell_setting           monoclinic
_symmetry_space_group_name_H-M   'C 2/c'
_symmetry_Int_Tables_number      15
_space_group_name_Hall           '-C 2yn'
loop_
_symmetry_equiv_pos_site_id
_symmetry_equiv_pos_as_xyz
1 x,y,z
2 1/2+x,1/2+y,z
3 -x,y,1/2-z
4 1/2-x,1/2+y,1/2-z
5 -x,-y,-z
6 1/2-x,1/2-y,-z
7 x,-y,1/2+z
8 1/2+x,1/2-y,1/2+z
_cell_length_a                   13.911(3)
_cell_length_b                   10.357(2)
_cell_length_c                   28.782(6)
_cell_angle_alpha                90
_cell_angle_beta                 102.87(2)
_cell_angle_gamma                90
_cell_volume                     4042.63
_exptl_crystal_colour            colorless
_exptl_crystal_description       plate
_cell_formula_units_Z            8
loop_
_atom_site_label
_atom_site_type_symbol
_atom_site_fract_x
_atom_site_fract_y
_atom_site_fract_z
Cl1 Cl 0.48277(7) -0.0444(1) 0.62855(4)
Cl2 Cl 0.63377(7) -0.1206(1) 0.49648(4)
Cl3 Cl 0.78227(9) 0.0589(1) 0.45971(4)
Cl4 Cl 0.97439(8) 0.1512(1) 0.52913(4)
Cl5 Cl 1.02491(7) 0.0522(1) 0.63559(4)
Cl6 Cl 0.83779(8) 0.1227(1) 0.74240(3)
Cl7 Cl 0.75793(8) 0.3126(1) 0.65457(4)
Cl8 Cl 0.55671(7) 0.2209(1) 0.59233(3)
Cl9 Cl 0.59050(8) 0.2017(1) 0.70676(4)
Cl10 Cl 0.62585(9) -0.0514(1) 0.74253(4)
C1 C 0.6083(2) -0.0059(4) 0.6455(1)
C2 C 0.6755(3) -0.1278(4) 0.6499(1)
C3 C 0.7111(3) -0.2011(4) 0.6092(1)
C4 C 0.7653(2) -0.1150(3) 0.5809(1)
C5 C 0.7433(3) -0.0747(4) 0.5340(1)
C6 C 0.8093(3) 0.0068(4) 0.5182(1)
C7 C 0.8961(3) 0.0466(4) 0.5487(1)
C8 C 0.9190(3) 0.0028(4) 0.5960(1)
C9 C 0.8530(2) -0.0768(3) 0.6114(1)
C10 C 0.8550(3) -0.1382(4) 0.6595(1)
C11 C 0.7740(3) -0.0825(4) 0.6833(1)
C12 C 0.7530(3) 0.0615(4) 0.6921(1)
C13 C 0.7446(3) 0.1428(4) 0.6461(1)
C14 C 0.6440(3) 0.0979(4) 0.6141(1)
C15 C 0.6443(3) 0.0521(4) 0.6965(1)
C16 C 0.8027(3) -0.2661(4) 0.6419(2)
H1 H 0.8014(20) 0.1271(28) 0.633(1)
H2 H 0.9224(21) -0.1383(29) 0.680(1)
H3 H 0.6355(22) -0.1884(32) 0.665(1)
H4 H 0.7881(23) -0.3207(32) 0.668(1)
H5 H 0.6556(20) 0.0579(28) 0.587(1)
H6 H 0.7835(20) -0.1192(29) 0.715(1)
H7 H 0.8387(23) -0.3167(33) 0.623(1)
H8 H 0.6606(20) -0.2546(28) 0.591(1)
loop_
_geom_bond_atom_site_label_1
_geom_bond_atom_site_label_2
_geom_bond_site_symmetry_1
_geom_bond_site_symmetry_2
Cl1 C1 1_555 1_555
Cl2 C5 1_555 1_555
Cl3 C6 1_555 1_555
Cl4 C7 1_555 1_555
Cl5 C8 1_555 1_555
Cl6 C12 1_555 1_555
Cl7 C13 1_555 1_555
Cl8 C14 1_555 1_555
Cl9 C15 1_555 1_555
Cl10 C15 1_555 1_555
C1 C2 1_555 1_555
C2 C3 1_555 1_555
C3 C4 1_555 1_555
C4 C5 1_555 1_555
C5 C6 1_555 1_555
C6 C7 1_555 1_555
C7 C8 1_555 1_555
C8 C9 1_555 1_555
C9 C4 1_555 1_555
C10 C9 1_555 1_555
C11 C2 1_555 1_555
C12 C11 1_555 1_555
C13 C12 1_555 1_555
C14 C1 1_555 1_555
C15 C1 1_555 1_555
C16 C3 1_555 1_555
H1 C13 1_555 1_555
H2 C10 1_555 1_555
H3 C2 1_555 1_555
H4 C16 1_555 1_555
H5 C14 1_555 1_555
H6 C11 1_555 1_555
H7 C16 1_555 1_555
H8 C3 1_555 1_555
C10 C11 1_555 1_555
C10 C16 1_555 1_555
C12 C15 1_555 1_555
C13 C14 1_555 1_555

#END
