
#######################################################################
#
#                 Cambridge Crystallographic Data Centre
#                                CCDC 
#
#######################################################################
#
# If this CIF has been generated from an entry in the Cambridge 
# Structural Database, then it will include bibliographic, chemical, 
# crystal, experimental, refinement or atomic coordinate data resulting 
# from the CCDC's data processing and validation procedures.
#
#######################################################################

data_NIMLON
_chemical_formula_moiety         'C16 H15 Cl1 N2 O2'
_chemical_name_systematic        
2-(2-((3-chlorophenoxy)methyl)-1H-benzimidazol-1-yl)ethanol
_symmetry_cell_setting           monoclinic
_symmetry_space_group_name_H-M   'P 21/c'
_symmetry_Int_Tables_number      14
_space_group_name_Hall           '-P 2ybc'
loop_
_symmetry_equiv_pos_site_id
_symmetry_equiv_pos_as_xyz
1 x,y,z
2 -x,1/2+y,1/2-z
3 -x,-y,-z
4 x,1/2-y,1/2+z
_cell_length_a                   11.374(4)
_cell_length_b                   8.503(3)
_cell_length_c                   15.816(6)
_cell_angle_alpha                90
_cell_angle_beta                 105.845(6)
_cell_angle_gamma                90
_cell_volume                     1471.5
_exptl_crystal_colour            colorless
_exptl_crystal_description       block
_cell_formula_units_Z            4
loop_
_atom_site_label
_atom_site_type_symbol
_atom_site_fract_x
_atom_site_fract_y
_atom_site_fract_z
Cl1 Cl 0.10674(8) 0.30527(11) 0.14379(7)
N1 N -0.46329(16) -0.16510(19) -0.05894(11)
N2 N -0.43981(15) -0.24333(19) 0.07987(10)
C1 C -0.54651(18) -0.3124(2) 0.03077(13)
O1 O -0.17923(14) -0.17059(19) 0.06997(12)
C2 C -0.39465(18) -0.1576(2) 0.02301(13)
C3 C -0.6608(2) -0.3131(3) -0.12261(15)
H1 H -0.6715 -0.2815 -0.1805
O2 O -0.4370(2) 0.0024(2) 0.21875(11)
H2 H -0.4770 0.0334 0.1703
C4 C -0.55980(18) -0.2630(2) -0.05556(13)
C5 C -0.28010(19) -0.0639(3) 0.05207(15)
H3 H -0.2745 0.0095 0.0064
H4 H -0.2795 -0.0045 0.1045
C6 C -0.6300(2) -0.4118(2) 0.05404(15)
H5 H -0.6196 -0.4443 0.1118
C7 C -0.3900(2) -0.2601(3) 0.17500(13)
H6 H -0.3041 -0.2318 0.1912
H7 H -0.3960 -0.3693 0.1910
C8 C -0.7436(2) -0.4106(3) -0.09982(16)
H8 H -0.8114 -0.4452 -0.1433
C9 C -0.7289(2) -0.4594(3) -0.01320(17)
H9 H -0.7870 -0.5254 -0.0005
C10 C -0.0419(2) 0.0533(3) 0.10659(16)
H10 H -0.1058 0.1252 0.0965
C11 C -0.06468(19) -0.1060(3) 0.09652(15)
C12 C -0.4556(3) -0.1588(3) 0.22579(14)
H11 H -0.5425 -0.1803 0.2052
H12 H -0.4287 -0.1883 0.2873
C13 C 0.0312(2) -0.2125(4) 0.11200(19)
H13 H 0.0158 -0.3199 0.1056
C14 C 0.0787(2) 0.1036(4) 0.13205(16)
C15 C 0.1751(2) 0.0015(4) 0.14713(18)
H14 H 0.2552 0.0378 0.1637
C16 C 0.1496(2) -0.1571(4) 0.13700(19)
H15 H 0.2139 -0.2285 0.1473
loop_
_geom_bond_atom_site_label_1
_geom_bond_atom_site_label_2
_geom_bond_site_symmetry_1
_geom_bond_site_symmetry_2
Cl1 C14 1_555 1_555
N1 C2 1_555 1_555
N2 C1 1_555 1_555
C1 C4 1_555 1_555
O1 C5 1_555 1_555
C2 N2 1_555 1_555
C3 H1 1_555 1_555
O2 H2 1_555 1_555
C4 N1 1_555 1_555
C5 C2 1_555 1_555
H3 C5 1_555 1_555
H4 C5 1_555 1_555
C6 C1 1_555 1_555
H5 C6 1_555 1_555
C7 N2 1_555 1_555
H6 C7 1_555 1_555
H7 C7 1_555 1_555
C8 C3 1_555 1_555
H8 C8 1_555 1_555
C9 C6 1_555 1_555
H9 C9 1_555 1_555
C10 H10 1_555 1_555
C11 O1 1_555 1_555
C12 O2 1_555 1_555
H11 C12 1_555 1_555
H12 C12 1_555 1_555
C13 C11 1_555 1_555
H13 C13 1_555 1_555
C14 C10 1_555 1_555
C15 C14 1_555 1_555
H14 C15 1_555 1_555
C16 C13 1_555 1_555
H15 C16 1_555 1_555
C3 C4 1_555 1_555
C7 C12 1_555 1_555
C8 C9 1_555 1_555
C10 C11 1_555 1_555
C15 C16 1_555 1_555

#END
