
#######################################################################
#
#                 Cambridge Crystallographic Data Centre
#                                CCDC 
#
#######################################################################
#
# If this CIF has been generated from an entry in the Cambridge 
# Structural Database, then it will include bibliographic, chemical, 
# crystal, experimental, refinement or atomic coordinate data resulting 
# from the CCDC's data processing and validation procedures.
#
#######################################################################

data_NIMMAA
_chemical_formula_moiety         'C17 H18 N2 O2'
_chemical_name_systematic        
2-(2-((3-methylphenoxy)methyl)-1H-benzimidazol-1-yl)ethanol
_symmetry_cell_setting           monoclinic
_symmetry_space_group_name_H-M   'P 21/c'
_symmetry_Int_Tables_number      14
_space_group_name_Hall           '-P 2ybc'
loop_
_symmetry_equiv_pos_site_id
_symmetry_equiv_pos_as_xyz
1 x,y,z
2 -x,1/2+y,1/2-z
3 -x,-y,-z
4 x,1/2-y,1/2+z
_cell_length_a                   11.3301(15)
_cell_length_b                   8.6024(12)
_cell_length_c                   15.774(2)
_cell_angle_alpha                90
_cell_angle_beta                 103.202(2)
_cell_angle_gamma                90
_cell_volume                     1496.8
_cell_formula_units_Z            4
loop_
_atom_site_label
_atom_site_type_symbol
_atom_site_fract_x
_atom_site_fract_y
_atom_site_fract_z
O1 O 0.43872(13) 0.50014(13) 0.28339(7)
H1 H 0.4842 0.5348 0.3273
O2 O 0.18361(9) 0.32472(12) 0.43424(8)
N1 N 0.44168(10) 0.25639(12) 0.42262(7)
N2 N 0.46340(10) 0.33407(13) 0.56082(7)
C1 C 0.54714(12) 0.18834(14) 0.46881(8)
C2 C 0.55978(12) 0.23742(15) 0.55482(8)
C3 C 0.65883(13) 0.18764(17) 0.61904(9)
H2 H 0.6689 0.2193 0.6766
C4 C 0.74101(14) 0.09010(19) 0.59412(11)
H3 H 0.8077 0.0555 0.6358
C5 C 0.72684(15) 0.04165(19) 0.50780(11)
H4 H 0.7843 -0.0246 0.4936
C6 C 0.63028(14) 0.08934(16) 0.44332(10)
H5 H 0.6209 0.0573 0.3858
C7 C 0.39610(12) 0.34123(15) 0.48114(8)
C8 C 0.39365(14) 0.24036(17) 0.32891(9)
H6 H 0.3086 0.2688 0.3149
H7 H 0.3995 0.1324 0.3125
C9 C 0.46042(16) 0.34061(18) 0.27656(9)
H8 H 0.5467 0.3214 0.2961
H9 H 0.4363 0.3104 0.2158
C10 C 0.28155(12) 0.43226(17) 0.45512(10)
H10 H 0.2718 0.4992 0.5026
H11 H 0.2835 0.4967 0.4050
C11 C 0.06935(13) 0.38539(19) 0.40353(10)
C12 C 0.04391(14) 0.5424(2) 0.39572(11)
H12 H 0.1065 0.6143 0.4109
C13 C -0.07520(15) 0.5940(2) 0.36512(11)
C14 C -0.16607(16) 0.4845(3) 0.34359(13)
H13 H -0.2459 0.5167 0.3236
C15 C -0.14024(17) 0.3282(3) 0.35130(14)
H14 H -0.2028 0.2562 0.3365
C16 C -0.02292(16) 0.2770(2) 0.38068(13)
H15 H -0.0058 0.1712 0.3851
C17 C -0.1005(2) 0.7660(3) 0.35749(17)
H16 H -0.0488 0.8191 0.4054
H17 H -0.1837 0.7848 0.3584
H18 H -0.0851 0.8038 0.3038
loop_
_geom_bond_atom_site_label_1
_geom_bond_atom_site_label_2
_geom_bond_site_symmetry_1
_geom_bond_site_symmetry_2
O1 H1 1_555 1_555
O2 C10 1_555 1_555
N1 C1 1_555 1_555
N2 C2 1_555 1_555
C1 C2 1_555 1_555
C2 C3 1_555 1_555
C3 H2 1_555 1_555
C4 C3 1_555 1_555
H3 C4 1_555 1_555
C5 C4 1_555 1_555
H4 C5 1_555 1_555
C6 C1 1_555 1_555
H5 C6 1_555 1_555
C7 N1 1_555 1_555
C8 N1 1_555 1_555
H6 C8 1_555 1_555
H7 C8 1_555 1_555
C9 O1 1_555 1_555
H8 C9 1_555 1_555
H9 C9 1_555 1_555
C10 C7 1_555 1_555
H10 C10 1_555 1_555
H11 C10 1_555 1_555
C11 O2 1_555 1_555
C12 C11 1_555 1_555
H12 C12 1_555 1_555
C13 C12 1_555 1_555
C14 C13 1_555 1_555
H13 C14 1_555 1_555
C15 C14 1_555 1_555
H14 C15 1_555 1_555
C16 C11 1_555 1_555
H15 C16 1_555 1_555
C17 C13 1_555 1_555
H16 C17 1_555 1_555
H17 C17 1_555 1_555
H18 C17 1_555 1_555
N2 C7 1_555 1_555
C5 C6 1_555 1_555
C8 C9 1_555 1_555
C15 C16 1_555 1_555

#END
