
#######################################################################
#
#                 Cambridge Crystallographic Data Centre
#                                CCDC 
#
#######################################################################
#
# If this CIF has been generated from an entry in the Cambridge 
# Structural Database, then it will include bibliographic, chemical, 
# crystal, experimental, refinement or atomic coordinate data resulting 
# from the CCDC's data processing and validation procedures.
#
#######################################################################

data_NIMVEN
_chemical_formula_moiety         'C1 H7 N4 1+,C1 H1 O2 1-'
_chemical_name_systematic        'amino(hydrazino)methaniminium formate'
_symmetry_cell_setting           monoclinic
_symmetry_space_group_name_H-M   'P 21/n'
_symmetry_Int_Tables_number      14
_space_group_name_Hall           '-P 2yn'
loop_
_symmetry_equiv_pos_site_id
_symmetry_equiv_pos_as_xyz
1 x,y,z
2 1/2-x,1/2+y,1/2-z
3 -x,-y,-z
4 1/2+x,1/2-y,1/2+z
_cell_length_a                   4.8442(2)
_cell_length_b                   11.3965(4)
_cell_length_c                   10.4336(4)
_cell_angle_alpha                90
_cell_angle_beta                 92.3420(10)
_cell_angle_gamma                90
_cell_volume                     575.526
_exptl_crystal_colour            colorless
_exptl_crystal_description       block
_cell_formula_units_Z            4
loop_
_atom_site_label
_atom_site_type_symbol
_atom_site_fract_x
_atom_site_fract_y
_atom_site_fract_z
C1 C 0.9432(2) 0.58154(11) 0.66256(11)
N1 N 0.7969(3) 0.62604(11) 0.56526(11)
N2 N 1.1556(3) 0.64100(12) 0.71367(13)
N3 N 0.8813(2) 0.47817(10) 0.71156(11)
N4 N 0.6655(3) 0.41114(10) 0.65391(12)
H1 H 1.194(4) 0.7103(14) 0.6823(15)
H2 H 0.987(3) 0.4484(14) 0.7723(14)
H3 H 0.854(3) 0.6908(12) 0.5299(15)
H4 H 0.663(3) 0.5873(14) 0.5332(16)
H5 H 0.549(3) 0.3960(15) 0.7141(15)
H6 H 0.745(3) 0.3429(14) 0.6305(14)
H7 H 1.248(3) 0.6161(13) 0.7814(14)
C2 C 1.3075(3) 0.38236(13) 0.99672(14)
O1 O 1.2574(2) 0.37344(9) 0.88023(10)
O2 O 1.4647(3) 0.32208(10) 1.06428(10)
H8 H 1.211(4) 0.4481(15) 1.038(2)
loop_
_geom_bond_atom_site_label_1
_geom_bond_atom_site_label_2
_geom_bond_site_symmetry_1
_geom_bond_site_symmetry_2
C1 N1 1_555 1_555
N1 H3 1_555 1_555
N2 C1 1_555 1_555
N3 C1 1_555 1_555
N4 N3 1_555 1_555
H1 N2 1_555 1_555
H2 N3 1_555 1_555
H4 N1 1_555 1_555
H5 N4 1_555 1_555
H6 N4 1_555 1_555
H7 N2 1_555 1_555
C2 O1 1_555 1_555
O2 C2 1_555 1_555
H8 C2 1_555 1_555

#END
