
#######################################################################
#
#                 Cambridge Crystallographic Data Centre
#                                CCDC 
#
#######################################################################
#
# If this CIF has been generated from an entry in the Cambridge 
# Structural Database, then it will include bibliographic, chemical, 
# crystal, experimental, refinement or atomic coordinate data resulting 
# from the CCDC's data processing and validation procedures.
#
#######################################################################

data_NINBIY
_chemical_formula_moiety         'C23 H25 N1 O6'
_chemical_name_systematic        
'2-hydroxy-15-oxotetracyclo[6.6.1.1^2,7^.0^1,10^]hexadec-4-en-16-yl 4-nitrobenzoate'
_symmetry_cell_setting           monoclinic
_symmetry_space_group_name_H-M   'P 21/c'
_symmetry_Int_Tables_number      14
_space_group_name_Hall           '-P 2ybc'
loop_
_symmetry_equiv_pos_site_id
_symmetry_equiv_pos_as_xyz
1 x,y,z
2 -x,1/2+y,1/2-z
3 -x,-y,-z
4 x,1/2-y,1/2+z
_cell_length_a                   7.941(3)
_cell_length_b                   34.688(11)
_cell_length_c                   7.185(3)
_cell_angle_alpha                90
_cell_angle_beta                 105.71(5)
_cell_angle_gamma                90
_cell_volume                     1905.23
_exptl_crystal_colour            colorless
_exptl_crystal_description       block
_cell_formula_units_Z            4
loop_
_atom_site_label
_atom_site_type_symbol
_atom_site_fract_x
_atom_site_fract_y
_atom_site_fract_z
O1 O 0.1778(4) 0.67344(9) 0.4259(5)
H1 H 0.1357 0.6767 0.3095
O2 O -0.0338(5) 0.68734(10) 0.9787(5)
O3 O 0.0508(4) 0.60469(8) 0.4323(5)
O4 O -0.1710(5) 0.57061(10) 0.2410(6)
O5 O 0.4597(6) 0.43551(12) 0.2006(7)
O6 O 0.6395(6) 0.48160(13) 0.2053(8)
C1 C 0.1308(5) 0.67352(11) 0.7427(7)
C2 C 0.2297(6) 0.71165(13) 0.7916(8)
H2 H 0.1459 0.7320 0.7917
H3 H 0.2856 0.7175 0.6905
C3 C 0.3693(7) 0.71198(14) 0.9868(9)
H4 H 0.4374 0.7355 0.9981
H5 H 0.3125 0.7117 1.0905
C4 C 0.4895(7) 0.67769(15) 1.0072(9)
H6 H 0.5793 0.6789 1.1293
H7 H 0.5460 0.6775 0.9032
C5 C 0.3799(6) 0.64164(14) 0.9991(7)
H8 H 0.4566 0.6194 1.0187
H9 H 0.3258 0.6424 1.1050
C6 C 0.2381(6) 0.63631(12) 0.8122(7)
H10 H 0.2901 0.6271 0.7111
C7 C 0.1023(7) 0.60572(12) 0.8453(8)
H11 H 0.0946 0.5840 0.7584
H12 H 0.1365 0.5963 0.9774
C8 C -0.0747(6) 0.62710(12) 0.8032(6)
H13 H -0.1444 0.6183 0.8886
C9 C -0.1772(6) 0.62347(12) 0.5888(6)
H14 H -0.2042 0.5960 0.5651
C10 C -0.3543(6) 0.64479(13) 0.5438(8)
H15 H -0.4220 0.6371 0.4154
H16 H -0.4168 0.6357 0.6341
C11 C -0.3512(7) 0.68753(15) 0.5512(8)
H17 H -0.4448 0.6984 0.5873
C12 C -0.2399(7) 0.71316(14) 0.5159(8)
H18 H -0.2649 0.7387 0.5363
C13 C -0.0780(6) 0.70681(12) 0.4473(8)
H19 H -0.0062 0.7298 0.4797
H20 H -0.1154 0.7052 0.3073
C14 C 0.0401(5) 0.67215(11) 0.5201(7)
C15 C -0.0685(5) 0.63522(11) 0.4535(7)
H21 H -0.1487 0.6403 0.3260
C16 C -0.0083(6) 0.66712(12) 0.8523(7)
C17 C -0.0167(6) 0.57460(12) 0.3218(7)
C18 C 0.1204(6) 0.54737(12) 0.3005(7)
C19 C 0.0728(6) 0.50964(13) 0.2493(7)
H22 H -0.0414 0.5014 0.2357
C20 C 0.1988(6) 0.48391(13) 0.2181(7)
H23 H 0.1688 0.4587 0.1795
C21 C 0.3668(6) 0.49672(13) 0.2456(7)
C22 C 0.4181(6) 0.53373(12) 0.2966(7)
H24 H 0.5327 0.5415 0.3092
C23 C 0.2944(6) 0.55940(12) 0.3291(7)
H25 H 0.3268 0.5844 0.3695
N1 N 0.4977(6) 0.46898(12) 0.2154(7)
loop_
_geom_bond_atom_site_label_1
_geom_bond_atom_site_label_2
_geom_bond_site_symmetry_1
_geom_bond_site_symmetry_2
O1 H1 1_555 1_555
O2 C16 1_555 1_555
O3 C15 1_555 1_555
O4 C17 1_555 1_555
O5 N1 1_555 1_555
O6 N1 1_555 1_555
C1 C2 1_555 1_555
C2 H2 1_555 1_555
H3 C2 1_555 1_555
C3 C2 1_555 1_555
H4 C3 1_555 1_555
H5 C3 1_555 1_555
C4 C3 1_555 1_555
H6 C4 1_555 1_555
H7 C4 1_555 1_555
C5 C4 1_555 1_555
H8 C5 1_555 1_555
H9 C5 1_555 1_555
C6 C1 1_555 1_555
H10 C6 1_555 1_555
C7 C6 1_555 1_555
H11 C7 1_555 1_555
H12 C7 1_555 1_555
C8 C7 1_555 1_555
H13 C8 1_555 1_555
C9 C8 1_555 1_555
H14 C9 1_555 1_555
C10 C9 1_555 1_555
H15 C10 1_555 1_555
H16 C10 1_555 1_555
C11 C10 1_555 1_555
H17 C11 1_555 1_555
C12 C11 1_555 1_555
H18 C12 1_555 1_555
C13 C12 1_555 1_555
H19 C13 1_555 1_555
H20 C13 1_555 1_555
C14 O1 1_555 1_555
C15 C9 1_555 1_555
H21 C15 1_555 1_555
C16 C1 1_555 1_555
C17 O3 1_555 1_555
C18 C17 1_555 1_555
C19 C18 1_555 1_555
H22 C19 1_555 1_555
C20 C19 1_555 1_555
H23 C20 1_555 1_555
C21 C20 1_555 1_555
C22 C21 1_555 1_555
H24 C22 1_555 1_555
C23 C18 1_555 1_555
H25 C23 1_555 1_555
N1 C21 1_555 1_555
C1 C14 1_555 1_555
C5 C6 1_555 1_555
C8 C16 1_555 1_555
C13 C14 1_555 1_555
C14 C15 1_555 1_555
C22 C23 1_555 1_555

#END
