
#######################################################################
#
#                 Cambridge Crystallographic Data Centre
#                                CCDC 
#
#######################################################################
#
# If this CIF has been generated from an entry in the Cambridge 
# Structural Database, then it will include bibliographic, chemical, 
# crystal, experimental, refinement or atomic coordinate data resulting 
# from the CCDC's data processing and validation procedures.
#
#######################################################################

data_NINBOE
_chemical_formula_moiety         'C15 H18 O3'
_chemical_name_systematic        
13-hydroxytetracyclo[6.5.1.1^9,13^.0^1,6^]pentadec-11-ene-14,15-dione
_symmetry_cell_setting           triclinic
_symmetry_space_group_name_H-M   'P -1'
_symmetry_Int_Tables_number      2
_space_group_name_Hall           '-P 1'
loop_
_symmetry_equiv_pos_site_id
_symmetry_equiv_pos_as_xyz
1 x,y,z
2 -x,-y,-z
_cell_length_a                   7.1658(6)
_cell_length_b                   8.0997(5)
_cell_length_c                   11.1352(7)
_cell_angle_alpha                83.180(5)
_cell_angle_beta                 88.881(6)
_cell_angle_gamma                80.694(6)
_cell_volume                     633.277
_cell_formula_units_Z            2
loop_
_atom_site_label
_atom_site_type_symbol
_atom_site_fract_x
_atom_site_fract_y
_atom_site_fract_z
O1 O -0.07437(14) 0.60812(15) 0.67538(10)
H1 H -0.0627 0.5720 0.6094
O2 O 0.22454(16) 0.48520(16) 0.54760(10)
O3 O 0.36155(18) 0.77398(18) 0.91956(11)
C1 C -0.0281(2) 0.8508(2) 0.83403(15)
H2 H -0.1445 0.8236 0.8044
H3 H -0.0104 0.7978 0.9167
C2 C -0.0494(3) 1.0406(2) 0.83405(17)
H4 H -0.1674 1.0810 0.8730
H5 H 0.0533 1.0675 0.8797
C3 C -0.0474(3) 1.1277(3) 0.70613(18)
H6 H -0.1479 1.0989 0.6594
H7 H -0.0684 1.2489 0.7072
C4 C 0.1408(3) 1.0727(2) 0.64915(18)
H8 H 0.2398 1.1018 0.6969
H9 H 0.1445 1.1337 0.5689
C5 C 0.1801(2) 0.8845(2) 0.63920(15)
H10 H 0.1049 0.8597 0.5730
C6 C 0.3955(3) 0.8254(3) 0.61402(18)
H11 H 0.4115 0.7738 0.5394
H12 H 0.4635 0.9204 0.6071
C7 C 0.4696(2) 0.6969(2) 0.72183(16)
H13 H 0.5988 0.7066 0.7440
C8 C 0.4529(2) 0.5167(2) 0.69678(15)
H14 H 0.5487 0.4798 0.6374
C9 C 0.4728(3) 0.3884(3) 0.81123(17)
H15 H 0.5201 0.2773 0.7885
H16 H 0.5650 0.4169 0.8647
C10 C 0.2908(3) 0.3835(2) 0.87762(16)
H17 H 0.2932 0.3129 0.9500
C11 C 0.1268(2) 0.4716(2) 0.84140(14)
H18 H 0.0198 0.4568 0.8873
C12 C 0.1054(2) 0.5963(2) 0.72792(13)
C13 C 0.1362(2) 0.77629(19) 0.75730(13)
C14 C 0.2595(2) 0.5268(2) 0.64458(14)
C15 C 0.3282(2) 0.7488(2) 0.81824(15)
loop_
_geom_bond_atom_site_label_1
_geom_bond_atom_site_label_2
_geom_bond_site_symmetry_1
_geom_bond_site_symmetry_2
O1 H1 1_555 1_555
O2 C14 1_555 1_555
O3 C15 1_555 1_555
C1 H2 1_555 1_555
H3 C1 1_555 1_555
C2 C1 1_555 1_555
H4 C2 1_555 1_555
H5 C2 1_555 1_555
C3 C2 1_555 1_555
H6 C3 1_555 1_555
H7 C3 1_555 1_555
C4 C3 1_555 1_555
H8 C4 1_555 1_555
H9 C4 1_555 1_555
C5 C4 1_555 1_555
H10 C5 1_555 1_555
C6 C5 1_555 1_555
H11 C6 1_555 1_555
H12 C6 1_555 1_555
C7 C6 1_555 1_555
H13 C7 1_555 1_555
C8 C7 1_555 1_555
H14 C8 1_555 1_555
C9 C8 1_555 1_555
H15 C9 1_555 1_555
H16 C9 1_555 1_555
C10 C9 1_555 1_555
H17 C10 1_555 1_555
C11 C10 1_555 1_555
H18 C11 1_555 1_555
C12 O1 1_555 1_555
C13 C1 1_555 1_555
C14 C8 1_555 1_555
C15 C7 1_555 1_555
C5 C13 1_555 1_555
C11 C12 1_555 1_555
C12 C13 1_555 1_555
C12 C14 1_555 1_555
C13 C15 1_555 1_555

#END
