
#######################################################################
#
#                 Cambridge Crystallographic Data Centre
#                                CCDC 
#
#######################################################################
#
# If this CIF has been generated from an entry in the Cambridge 
# Structural Database, then it will include bibliographic, chemical, 
# crystal, experimental, refinement or atomic coordinate data resulting 
# from the CCDC's data processing and validation procedures.
#
#######################################################################

data_NINFIB
_chemical_formula_moiety         'C15 H7 N1 O3,C2 H6 O1 S1'
_chemical_name_systematic        
'Naphtho[1,8-ef]isoindole-7,8,10(9H)-trione dimethyl sulfoxide solvate'
_symmetry_cell_setting           monoclinic
_symmetry_space_group_name_H-M   'P 21/c'
_symmetry_Int_Tables_number      14
_space_group_name_Hall           '-P 2ybc'
loop_
_symmetry_equiv_pos_site_id
_symmetry_equiv_pos_as_xyz
1 x,y,z
2 -x,1/2+y,1/2-z
3 -x,-y,-z
4 x,1/2-y,1/2+z
_cell_length_a                   4.5711(13)
_cell_length_b                   16.149(5)
_cell_length_c                   19.343(6)
_cell_angle_alpha                90
_cell_angle_beta                 95.111(7)
_cell_angle_gamma                90
_cell_volume                     1422.2
_exptl_crystal_colour            yellow
_exptl_crystal_description       needle
_cell_formula_units_Z            4
loop_
_atom_site_label
_atom_site_type_symbol
_atom_site_fract_x
_atom_site_fract_y
_atom_site_fract_z
O1 O 0.6857(4) 0.19893(11) 0.60069(9)
O2 O 0.6241(4) 0.31668(11) 0.72509(9)
O3 O -0.1350(4) 0.47394(11) 0.62730(9)
N1 N 0.2535(5) 0.40939(13) 0.69058(11)
H1 H 0.244(6) 0.4402(18) 0.7295(15)
C1 C 0.4837(6) 0.24206(16) 0.57398(13)
C2 C 0.3582(5) 0.31165(15) 0.60980(13)
C3 C 0.1385(5) 0.35942(16) 0.57977(13)
C4 C 0.0082(5) 0.34818(16) 0.50988(12)
C5 C 0.1198(5) 0.27996(15) 0.47258(12)
C6 C 0.3468(5) 0.22783(16) 0.50269(13)
C7 C -0.2087(5) 0.39823(16) 0.47844(13)
H2 H -0.2796 0.4437 0.5033
C8 C -0.3266(6) 0.38278(17) 0.40977(13)
H3 H -0.4773 0.4175 0.3888
C9 C -0.2236(5) 0.31749(17) 0.37313(14)
H4 H -0.3047 0.3076 0.3269
C10 C 0.0017(6) 0.26460(16) 0.40309(13)
C11 C 0.1081(6) 0.19789(17) 0.36638(13)
H5 H 0.0274 0.1870 0.3203
C12 C 0.3290(6) 0.14774(17) 0.39633(13)
H6 H 0.4001 0.1029 0.3708
C13 C 0.4470(6) 0.16302(16) 0.46387(13)
H7 H 0.5997 0.1284 0.4839
C14 C 0.4391(6) 0.34288(16) 0.68166(13)
C15 C 0.0607(6) 0.42279(16) 0.63292(13)
S1 S -0.13109(15) 0.52732(4) 0.80350(3)
O4 O 0.1949(4) 0.51719(10) 0.79838(9)
C16 C -0.2152(6) 0.63079(16) 0.77585(13)
H8 H -0.2023 0.6351 0.7257
H9 H -0.0748 0.6691 0.8001
H10 H -0.4146 0.6449 0.7866
C17 C -0.1681(6) 0.54171(16) 0.89392(12)
H11 H -0.0368 0.5862 0.9119
H12 H -0.1161 0.4903 0.9190
H13 H -0.3716 0.5565 0.9005
loop_
_geom_bond_atom_site_label_1
_geom_bond_atom_site_label_2
_geom_bond_site_symmetry_1
_geom_bond_site_symmetry_2
O1 C1 1_555 1_555
O2 C14 1_555 1_555
O3 C15 1_555 1_555
N1 H1 1_555 1_555
C1 C2 1_555 1_555
C2 C3 1_555 1_555
C3 C4 1_555 1_555
C4 C5 1_555 1_555
C5 C6 1_555 1_555
C6 C1 1_555 1_555
C7 C4 1_555 1_555
H2 C7 1_555 1_555
C8 C7 1_555 1_555
H3 C8 1_555 1_555
C9 C8 1_555 1_555
H4 C9 1_555 1_555
C10 C5 1_555 1_555
C11 C10 1_555 1_555
H5 C11 1_555 1_555
C12 C11 1_555 1_555
H6 C12 1_555 1_555
C13 C6 1_555 1_555
H7 C13 1_555 1_555
C14 N1 1_555 1_555
C15 N1 1_555 1_555
S1 O4 1_555 1_555
C16 S1 1_555 1_555
H8 C16 1_555 1_555
H9 C16 1_555 1_555
H10 C16 1_555 1_555
C17 S1 1_555 1_555
H11 C17 1_555 1_555
H12 C17 1_555 1_555
H13 C17 1_555 1_555
C2 C14 1_555 1_555
C3 C15 1_555 1_555
C9 C10 1_555 1_555
C12 C13 1_555 1_555

#END
