
#######################################################################
#
#                 Cambridge Crystallographic Data Centre
#                                CCDC 
#
#######################################################################
#
# If this CIF has been generated from an entry in the Cambridge 
# Structural Database, then it will include bibliographic, chemical, 
# crystal, experimental, refinement or atomic coordinate data resulting 
# from the CCDC's data processing and validation procedures.
#
#######################################################################

data_NINHAW
_chemical_formula_moiety         'C29 H30 N2 O10'
_chemical_name_systematic        
'1,4a-dihydroxydodecahydro-1,5-ethanobenzo[c]indene-3,12-diyl bis(4-nitrobenzoate) unknown solvate'
_symmetry_cell_setting           triclinic
_symmetry_space_group_name_H-M   'P -1'
_symmetry_Int_Tables_number      2
_space_group_name_Hall           '-P 1'
loop_
_symmetry_equiv_pos_site_id
_symmetry_equiv_pos_as_xyz
1 x,y,z
2 -x,-y,-z
_cell_length_a                   11.4254(5)
_cell_length_b                   12.6087(6)
_cell_length_c                   12.6497(7)
_cell_angle_alpha                65.320(5)
_cell_angle_beta                 68.680(5)
_cell_angle_gamma                64.069(4)
_cell_volume                     1452.16
_exptl_crystal_colour            'light colorless'
_exptl_crystal_description       block
_cell_formula_units_Z            2
loop_
_atom_site_label
_atom_site_type_symbol
_atom_site_fract_x
_atom_site_fract_y
_atom_site_fract_z
O1 O 0.65699(11) 0.64750(10) 0.58896(11)
O2 O 0.78060(14) 0.99539(11) 0.37950(12)
O3 O 0.56171(12) 0.79704(13) 0.72461(12)
H1 H 0.5024 0.8231 0.6891
O4 O 1.04249(13) 0.69697(12) 0.65750(14)
H2 H 1.0489 0.7487 0.6763
O5 O 0.89073(19) 1.12987(16) 0.30369(15)
O6 O 0.45968(18) 0.76938(14) 0.5425(3)
C1 C 0.68281(15) 0.80542(14) 0.64057(15)
N1 N 0.8275(2) 1.1203(2) -0.17336(19)
C2 C 0.50073(17) 0.55414(16) 0.62663(16)
O7 O 0.8776(3) 1.1916(3) -0.25767(18)
C3 C 0.70257(16) 0.75453(15) 0.53992(16)
H3 H 0.6478 0.8202 0.4838
C4 C 0.80098(16) 0.73874(15) 0.70614(15)
C5 C 0.82961(19) 1.08507(16) 0.17160(18)
C6 C 0.84596(17) 0.71464(17) 0.46984(17)
H4 H 0.8577 0.6531 0.4364
H5 H 0.8623 0.7857 0.4041
C7 C 0.82921(18) 0.59590(16) 0.75477(17)
H6 H 0.7460 0.5813 0.7709
C8 C 0.92739(16) 0.75085(15) 0.60771(16)
N2 N 0.3796(3) 0.2441(2) 0.7523(2)
C9 C 0.78446(19) 0.97852(16) 0.50082(16)
H7 H 0.7751 1.0585 0.5034
C10 C 0.66326(17) 0.94435(15) 0.58497(17)
H8 H 0.5926 0.9832 0.5418
H9 H 0.6327 0.9798 0.6492
C11 C 0.94768(17) 0.66096(17) 0.54532(18)
H10 H 1.0385 0.6399 0.4962
C12 C 0.83672(19) 1.07422(17) 0.29112(18)
O8 O 0.7764(3) 1.0600(2) -0.1835(2)
C13 C 0.91829(18) 0.88500(17) 0.53128(17)
H11 H 0.9457 0.9178 0.5719
H12 H 0.9835 0.8822 0.4567
O9 O 0.2641(3) 0.2610(2) 0.7634(3)
C14 C 0.8262(2) 1.10928(18) -0.05245(19)
C15 C 0.53603(18) 0.66856(16) 0.5814(2)
C16 C 0.92840(19) 0.54706(17) 0.6503(2)
H13 H 1.0128 0.4909 0.6721
H14 H 0.8927 0.5032 0.6294
C17 C 0.5955(2) 0.43726(18) 0.6412(2)
H15 H 0.6854 0.4273 0.6240
C18 C 0.4225(2) 0.35251(19) 0.70714(18)
C19 C 0.7562(2) 1.02998(18) 0.15769(19)
H16 H 0.7085 0.9850 0.2243
C20 C 0.3671(2) 0.56889(19) 0.6509(2)
H17 H 0.3039 0.6481 0.6388
C21 C 0.7692(2) 0.79868(19) 0.80235(18)
H18 H 0.7953 0.8720 0.7641
H19 H 0.6733 0.8260 0.8325
C22 C 0.3268(2) 0.4674(2) 0.6928(2)
H20 H 0.2369 0.4769 0.7107
C23 C 0.8997(2) 1.15316(19) 0.0715(2)
H21 H 0.9478 1.1907 0.0812
C24 C 0.7546(2) 1.0425(2) 0.0445(2)
H22 H 0.7058 1.0063 0.0338
C25 C 0.5566(2) 0.33475(19) 0.6813(2)
H23 H 0.6196 0.2555 0.6906
C26 C 0.8987(2) 1.1655(2) -0.0417(2)
H24 H 0.9457 1.2106 -0.1087
C27 C 0.8848(2) 0.5270(2) 0.8678(2)
H25 H 0.8756 0.4456 0.9023
H26 H 0.9792 0.5153 0.8461
O10 O 0.4617(3) 0.1416(2) 0.7806(3)
C28 C 0.8162(3) 0.5937(3) 0.9607(2)
H27 H 0.7218 0.6047 0.9845
H28 H 0.8541 0.5452 1.0307
C29 C 0.8349(3) 0.7179(3) 0.9086(2)
H29 H 0.9294 0.7063 0.8831
H30 H 0.7960 0.7594 0.9691
loop_
_geom_bond_atom_site_label_1
_geom_bond_atom_site_label_2
_geom_bond_site_symmetry_1
_geom_bond_site_symmetry_2
O1 C3 1_555 1_555
O2 C9 1_555 1_555
O3 H1 1_555 1_555
O4 H2 1_555 1_555
O5 C12 1_555 1_555
O6 C15 1_555 1_555
C1 O3 1_555 1_555
N1 O7 1_555 1_555
C2 C15 1_555 1_555
C3 C1 1_555 1_555
H3 C3 1_555 1_555
C4 C1 1_555 1_555
C5 C12 1_555 1_555
C6 C3 1_555 1_555
H4 C6 1_555 1_555
H5 C6 1_555 1_555
C7 C4 1_555 1_555
H6 C7 1_555 1_555
C8 O4 1_555 1_555
N2 O9 1_555 1_555
C9 H7 1_555 1_555
C10 C1 1_555 1_555
H8 C10 1_555 1_555
H9 C10 1_555 1_555
C11 C6 1_555 1_555
H10 C11 1_555 1_555
C12 O2 1_555 1_555
O8 N1 1_555 1_555
C13 C8 1_555 1_555
H11 C13 1_555 1_555
H12 C13 1_555 1_555
C14 N1 1_555 1_555
C15 O1 1_555 1_555
C16 C7 1_555 1_555
H13 C16 1_555 1_555
H14 C16 1_555 1_555
C17 C2 1_555 1_555
H15 C17 1_555 1_555
C18 N2 1_555 1_555
C19 C5 1_555 1_555
H16 C19 1_555 1_555
C20 C2 1_555 1_555
H17 C20 1_555 1_555
C21 C4 1_555 1_555
H18 C21 1_555 1_555
H19 C21 1_555 1_555
C22 C18 1_555 1_555
H20 C22 1_555 1_555
C23 C5 1_555 1_555
H21 C23 1_555 1_555
C24 C14 1_555 1_555
H22 C24 1_555 1_555
C25 C17 1_555 1_555
H23 C25 1_555 1_555
C26 C14 1_555 1_555
H24 C26 1_555 1_555
C27 C7 1_555 1_555
H25 C27 1_555 1_555
H26 C27 1_555 1_555
O10 N2 1_555 1_555
C28 C27 1_555 1_555
H27 C28 1_555 1_555
H28 C28 1_555 1_555
C29 C21 1_555 1_555
H29 C29 1_555 1_555
H30 C29 1_555 1_555
C4 C8 1_555 1_555
C8 C11 1_555 1_555
C9 C10 1_555 1_555
C9 C13 1_555 1_555
C11 C16 1_555 1_555
C18 C25 1_555 1_555
C19 C24 1_555 1_555
C20 C22 1_555 1_555
C23 C26 1_555 1_555
C28 C29 1_555 1_555

#END
