
#######################################################################
#
#                 Cambridge Crystallographic Data Centre
#                                CCDC 
#
#######################################################################
#
# If this CIF has been generated from an entry in the Cambridge 
# Structural Database, then it will include bibliographic, chemical, 
# crystal, experimental, refinement or atomic coordinate data resulting 
# from the CCDC's data processing and validation procedures.
#
#######################################################################

data_NINLOO
_chemical_formula_moiety         'C21 H20 F3 N1 O3 S1'
_chemical_name_systematic        
2-{3-hydroxy-6-phenyl-4-[(trifluoromethyl)sulfanyl]hexyl}-1H-isoindole-1,3(2H)-dione
_symmetry_cell_setting           monoclinic
_symmetry_space_group_name_H-M   'P 21'
_symmetry_Int_Tables_number      4
_space_group_name_Hall           'P 2yb'
loop_
_symmetry_equiv_pos_site_id
_symmetry_equiv_pos_as_xyz
1 x,y,z
2 -x,1/2+y,-z
_cell_length_a                   17.6718(2)
_cell_length_b                   5.07180(10)
_cell_length_c                   23.6280(3)
_cell_angle_alpha                90
_cell_angle_beta                 106.6920(10)
_cell_angle_gamma                90
_cell_volume                     2028.49
_exptl_crystal_colour            'whitish colorless'
_exptl_crystal_description       needle
_cell_formula_units_Z            4
loop_
_atom_site_label
_atom_site_type_symbol
_atom_site_fract_x
_atom_site_fract_y
_atom_site_fract_z
S1 S 0.75677(6) 0.9061(2) 0.00966(5)
O1 O 0.51153(15) 1.0150(6) 0.14920(10)
N1 N 0.58965(15) 1.3710(6) 0.14111(11)
C1 C 0.63844(19) 1.5542(8) 0.17923(15)
C2 C 0.5760(2) 1.3747(8) 0.07690(14)
O2 O 0.67352(15) 1.7319(6) 0.16377(11)
C3 C 0.7060(2) 1.2039(8) -0.02598(16)
C4 C 0.55637(18) 1.1930(7) 0.17160(14)
C5 C 0.63526(18) 1.4814(8) 0.23959(14)
O3 O 0.59284(16) 1.4794(6) -0.03276(11)
C6 C 0.63003(19) 1.2459(8) -0.00643(14)
C7 C 0.64817(19) 1.2781(8) 0.06011(14)
C8 C 0.5862(2) 1.2686(8) 0.23504(13)
C9 C 0.6336(3) 0.9912(10) -0.12553(19)
F1 F 0.87590(17) 1.0679(13) -0.02552(15)
F2 F 0.90375(16) 0.8152(8) 0.05032(15)
C10 C 0.6542(2) 1.4929(10) 0.34282(15)
C11 C 0.6711(2) 1.5990(9) 0.29374(16)
C12 C 0.6330(2) 0.9691(9) -0.18958(19)
C13 C 0.6924(2) 1.1982(8) -0.09261(17)
F3 F 0.8738(2) 1.2189(8) 0.05595(17)
C14 C 0.6046(3) 1.2781(11) 0.33825(16)
C15 C 0.5701(3) 1.1602(10) 0.28402(17)
C16 C 0.5871(4) 1.1167(19) -0.2903(2)
C17 C 0.8569(3) 1.0057(13) 0.02077(18)
C18 C 0.6735(6) 0.7655(15) -0.2680(4)
C19 C 0.6297(4) 0.9348(13) -0.3083(3)
C20 C 0.6773(5) 0.7876(14) -0.2085(4)
C21 C 0.5887(3) 1.1355(14) -0.2311(2)
H1 H 0.5582 1.2680 -0.2195
H2 H 0.565(2) 1.562(9) 0.0640(16)
H3 H 0.691(2) 1.405(9) 0.0728(16)
H4 H 0.764(3) 1.296(12) -0.008(2)
H5 H 0.544(3) 1.014(11) 0.2815(18)
H6 H 0.5294(19) 1.281(8) 0.0608(13)
H7 H 0.702(3) 1.750(12) 0.296(2)
H8 H 0.668(2) 1.112(10) 0.0816(18)
H9 H 0.678(3) 1.566(12) 0.379(2)
H10 H 0.646(2) 0.814(10) -0.1033(18)
H11 H 0.672(2) 1.366(10) -0.1116(16)
H12 H 0.741(2) 1.144(10) -0.1057(18)
H13 H 0.578(2) 1.039(9) -0.1219(16)
H14 H 0.574(2) 1.469(11) -0.065(2)
H15 H 0.629(3) 0.908(14) -0.347(3)
H16 H 0.706(3) 0.641(15) -0.276(3)
H17 H 0.696(5) 0.654(19) -0.189(3)
H18 H 0.561(4) 1.190(17) -0.315(3)
H19 H 0.597(3) 1.197(13) 0.374(2)
H20 H 0.592(2) 1.087(8) -0.0164(15)
S2 S 0.28694(6) 0.7455(2) 0.45899(6)
O4 O 0.08070(15) 1.1181(6) 0.43454(12)
O5 O 0.19094(15) 0.5002(6) 0.63782(12)
O6 O 0.02728(15) 1.2139(7) 0.60972(13)
C22 C 0.14313(19) 0.9356(8) 0.45957(16)
C23 C 0.15423(19) 0.6813(8) 0.65017(16)
N2 N 0.10547(16) 0.8506(7) 0.60886(13)
F4 F 0.43613(15) 0.7620(9) 0.49703(17)
C24 C 0.2142(2) 1.0131(8) 0.43763(17)
C25 C 0.0984(2) 0.9851(9) 0.70045(16)
C26 C 0.07109(19) 1.0410(8) 0.63574(16)
C27 C 0.1617(2) 0.9450(9) 0.52642(16)
C28 C 0.3765(2) 0.9292(12) 0.47796(18)
C29 C 0.1839(2) 0.6700(10) 0.76462(18)
C30 C 0.1923(2) 1.0713(8) 0.37172(18)
C31 C 0.1509(3) 0.8454(10) 0.3326(2)
C32 C 0.1489(2) 0.7698(9) 0.70885(15)
F5 F 0.38105(19) 1.0952(9) 0.52216(15)
F6 F 0.38852(16) 1.0686(10) 0.43539(15)
C33 C 0.0929(2) 0.8289(10) 0.54555(16)
C34 C 0.1278(2) 0.9066(11) 0.26757(19)
C35 C 0.1662(3) 0.7946(13) 0.81160(18)
C36 C 0.0809(3) 1.1094(11) 0.7465(2)
C37 C 0.0752(3) 1.0956(14) 0.2431(2)
C38 C 0.1160(3) 1.0107(13) 0.8029(2)
C39 C 0.1577(4) 0.7526(19) 0.2308(3)
C40 C 0.1350(5) 0.809(3) 0.1700(3)
C41 C 0.0831(4) 1.008(2) 0.1462(2)
C42 C 0.0545(4) 1.149(2) 0.1833(3)
H21 H 0.239(2) 1.165(9) 0.4595(15)
H22 H 0.048(2) 0.911(8) 0.5285(14)
H23 H 0.211(2) 0.845(10) 0.5464(17)
H24 H 0.168(2) 1.142(9) 0.5382(16)
H25 H 0.158(2) 1.213(10) 0.3617(17)
H26 H 0.214(3) 0.509(11) 0.7679(19)
H27 H 0.126(2) 0.754(10) 0.4456(15)
H28 H 0.105(2) 0.777(10) 0.3433(17)
H29 H 0.045(3) 1.026(12) 0.413(2)
H30 H 0.238(2) 1.127(9) 0.3590(17)
H31 H 0.188(3) 0.701(13) 0.339(2)
H32 H 0.089(3) 0.644(12) 0.5367(19)
H33 H 0.050(3) 1.265(14) 0.739(2)
H34 H 0.187(3) 0.727(13) 0.849(2)
H35 H 0.103(3) 1.068(14) 0.837(3)
H36 H 0.057(3) 1.238(16) 0.273(3)
H37 H 0.200(5) 0.59(2) 0.249(3)
H38 H 0.070(4) 1.065(16) 0.102(3)
H39 H 0.016(4) 1.249(16) 0.165(3)
H40 H 0.155(4) 0.682(16) 0.149(3)
loop_
_geom_bond_atom_site_label_1
_geom_bond_atom_site_label_2
_geom_bond_site_symmetry_1
_geom_bond_site_symmetry_2
S1 C3 1_555 1_555
O1 C4 1_555 1_555
N1 C1 1_555 1_555
C1 O2 1_555 1_555
C2 N1 1_555 1_555
C3 C6 1_555 1_555
C4 N1 1_555 1_555
C5 C1 1_555 1_555
O3 C6 1_555 1_555
C6 C7 1_555 1_555
C7 C2 1_555 1_555
C8 C4 1_555 1_555
C9 C12 1_555 1_555
F1 C17 1_555 1_555
F2 C17 1_555 1_555
C10 C11 1_555 1_555
C11 C5 1_555 1_555
C12 C20 1_555 1_555
C13 C3 1_555 1_555
F3 C17 1_555 1_555
C14 C10 1_555 1_555
C15 C8 1_555 1_555
C16 C19 1_555 1_555
C17 S1 1_555 1_555
C18 C19 1_555 1_555
C19 H15 1_555 1_555
C20 C18 1_555 1_555
C21 C12 1_555 1_555
H1 C21 1_555 1_555
H2 C2 1_555 1_555
H3 C7 1_555 1_555
H4 C3 1_555 1_555
H5 C15 1_555 1_555
H6 C2 1_555 1_555
H7 C11 1_555 1_555
H8 C7 1_555 1_555
H9 C10 1_555 1_555
H10 C9 1_555 1_555
H11 C13 1_555 1_555
H12 C13 1_555 1_555
H13 C9 1_555 1_555
H14 O3 1_555 1_555
H16 C18 1_555 1_555
H17 C20 1_555 1_555
H18 C16 1_555 1_555
H19 C14 1_555 1_555
H20 C6 1_555 1_555
S2 C24 1_555 1_555
O4 C22 1_555 1_555
O5 C23 1_555 1_555
O6 C26 1_555 1_555
C22 C24 1_555 1_555
C23 N2 1_555 1_555
N2 C26 1_555 1_555
F4 C28 1_555 1_555
C24 C30 1_555 1_555
C25 C26 1_555 1_555
C27 C22 1_555 1_555
C28 S2 1_555 1_555
C29 C32 1_555 1_555
C30 C31 1_555 1_555
C31 C34 1_555 1_555
C32 C23 1_555 1_555
F5 C28 1_555 1_555
F6 C28 1_555 1_555
C33 N2 1_555 1_555
C34 C37 1_555 1_555
C35 C29 1_555 1_555
C36 C25 1_555 1_555
C37 C42 1_555 1_555
C38 C35 1_555 1_555
C39 C34 1_555 1_555
C40 C39 1_555 1_555
C41 C40 1_555 1_555
C42 C41 1_555 1_555
H21 C24 1_555 1_555
H22 C33 1_555 1_555
H23 C27 1_555 1_555
H24 C27 1_555 1_555
H25 C30 1_555 1_555
H26 C29 1_555 1_555
H27 C22 1_555 1_555
H28 C31 1_555 1_555
H29 O4 1_555 1_555
H30 C30 1_555 1_555
H31 C31 1_555 1_555
H32 C33 1_555 1_555
H33 C36 1_555 1_555
H34 C35 1_555 1_555
H35 C38 1_555 1_555
H36 C37 1_555 1_555
H37 C39 1_555 1_555
H38 C41 1_555 1_555
H39 C42 1_555 1_555
H40 C40 1_555 1_555
C5 C8 1_555 1_555
C9 C13 1_555 1_555
C14 C15 1_555 1_555
C16 C21 1_555 1_555
C25 C32 1_555 1_555
C27 C33 1_555 1_555
C36 C38 1_555 1_555

#END
