
#######################################################################
#
#                 Cambridge Crystallographic Data Centre
#                                CCDC 
#
#######################################################################
#
# If this CIF has been generated from an entry in the Cambridge 
# Structural Database, then it will include bibliographic, chemical, 
# crystal, experimental, refinement or atomic coordinate data resulting 
# from the CCDC's data processing and validation procedures.
#
#######################################################################

data_NINQOR
_chemical_formula_moiety         'C52 H67 N3 O9'
_chemical_name_systematic        
25-(n-Butoxycarbonylmethoxy)-26,27,28-tris(n-butylamidomethoxy)calix(4)arene
_symmetry_cell_setting           monoclinic
_symmetry_space_group_name_H-M   'P 21/c'
_symmetry_Int_Tables_number      14
_space_group_name_Hall           '-P 2ybc'
loop_
_symmetry_equiv_pos_site_id
_symmetry_equiv_pos_as_xyz
1 x,y,z
2 -x,1/2+y,1/2-z
3 -x,-y,-z
4 x,1/2-y,1/2+z
_cell_length_a                   13.6215(18)
_cell_length_b                   19.208(2)
_cell_length_c                   19.424(3)
_cell_angle_alpha                90
_cell_angle_beta                 101.284(2)
_cell_angle_gamma                90
_cell_volume                     4983.89
_exptl_crystal_colour            colorless
_exptl_crystal_description       'square plate'
_cell_formula_units_Z            4
loop_
_atom_site_label
_atom_site_type_symbol
_atom_site_fract_x
_atom_site_fract_y
_atom_site_fract_z
C1 C 0.6508(5) 0.3586(3) 0.4142(4)
H1 H 0.5807 0.3709 0.4132
H2 H 0.6872 0.3621 0.4628
C2 C 0.6953(5) 0.4096(4) 0.3686(4)
C3 C 0.7922(5) 0.4006(4) 0.3584(4)
H3 H 0.8313 0.3642 0.3818
C4 C 0.8327(5) 0.4439(5) 0.3144(5)
H4 H 0.9000 0.4393 0.3102
C5 C 0.7724(6) 0.4942(5) 0.2767(5)
H5 H 0.7986 0.5217 0.2445
C6 C 0.6748(6) 0.5056(4) 0.2846(4)
C7 C 0.6387(5) 0.4623(4) 0.3318(4)
O1 O 0.5440(4) 0.4743(2) 0.3459(3)
C8 C 0.5396(5) 0.5226(4) 0.4002(4)
H6 H 0.5747 0.5650 0.3910
H7 H 0.5759 0.5030 0.4445
C9 C 0.4378(7) 0.5418(5) 0.4092(4)
O2 O 0.4216(5) 0.5771(4) 0.4567(3)
N1 N 0.3670(5) 0.5154(5) 0.3581(4)
H8 H 0.3834 0.4846 0.3294
C10 C 0.2584(7) 0.5385(7) 0.3497(6)
H9 H 0.2539 0.5835 0.3727
H10 H 0.2273 0.5428 0.2999
C11 C 0.2086(10) 0.4828(7) 0.3840(11)
H11 H 0.2472 0.4708 0.4305
H12 H 0.1969 0.4408 0.3550
C12 C 0.1090(10) 0.5203(14) 0.3888(13)
H13 H 0.1140 0.5709 0.3834
H14 H 0.0526 0.5025 0.3540
C13 C 0.1007(18) 0.5003(17) 0.4631(11)
H15 H 0.0946 0.4502 0.4662
H16 H 0.0421 0.5223 0.4750
H17 H 0.1601 0.5157 0.4956
C18 C 0.5936(6) 0.1910(3) 0.2111(3)
H28 H 0.5215 0.2000 0.1976
H29 H 0.6061 0.1427 0.1992
C19 C 0.6286(6) 0.2029(3) 0.2896(3)
C20 C 0.6922(6) 0.1559(4) 0.3299(4)
H30 H 0.7063 0.1133 0.3100
C21 C 0.7356(7) 0.1703(4) 0.3989(4)
H31 H 0.7751 0.1368 0.4269
C22 C 0.7198(6) 0.2349(4) 0.4261(4)
H32 H 0.7530 0.2460 0.4719
C23 C 0.6567(6) 0.2840(4) 0.3882(3)
C24 C 0.6075(5) 0.2643(4) 0.3211(3)
O3 O 0.5385(4) 0.3089(2) 0.2815(2)
C25 C 0.4489(4) 0.3199(3) 0.3065(3)
H33 H 0.4337 0.3698 0.3041
H34 H 0.4601 0.3061 0.3560
C26 C 0.3606(6) 0.2817(5) 0.2680(4)
O4 O 0.3555(4) 0.2584(3) 0.2101(3)
N3 N 0.2874(5) 0.2780(4) 0.3050(3)
H35 H 0.2996 0.2902 0.3490
C27 C 0.1831(8) 0.2529(10) 0.2712(6)
H36 H 0.1531 0.2837 0.2325
H37 H 0.1858 0.2055 0.2528
C28 C 0.1241(10) 0.2544(11) 0.3282(10)
H38 H 0.1041 0.3019 0.3379
H39 H 0.1611 0.2334 0.3717
C29 C 0.0328(12) 0.2092(13) 0.2941(9)
H40 H -0.0155 0.2358 0.2601
H41 H 0.0533 0.1676 0.2714
C30 C -0.0083(16) 0.1911(17) 0.3591(11)
H42 H 0.0285 0.2166 0.3991
H43 H -0.0011 0.1415 0.3681
H44 H -0.0785 0.2037 0.3517
C35 C 0.5878(5) 0.3872(3) 0.0369(4)
H55 H 0.5164 0.3758 0.0295
H56 H 0.6087 0.3847 -0.0085
C36 C 0.6475(5) 0.3351(4) 0.0876(4)
C37 C 0.7492(5) 0.3445(4) 0.1112(4)
H57 H 0.7820 0.3807 0.0922
C38 C 0.8035(5) 0.3019(4) 0.1622(4)
H58 H 0.8732 0.3069 0.1757
C39 C 0.7533(5) 0.2518(4) 0.1929(4)
H59 H 0.7897 0.2243 0.2292
C40 C 0.6514(5) 0.2407(4) 0.1722(4)
C41 C 0.6014(5) 0.2814(4) 0.1168(3)
O5 O 0.5002(3) 0.2701(2) 0.0909(2)
C42 C 0.4765(4) 0.2333(4) 0.0267(3)
H60 H 0.5222 0.1936 0.0288
H61 H 0.4885 0.2639 -0.0112
C43 C 0.3724(7) 0.2073(5) 0.0087(3)
O6 O 0.3345(5) 0.1863(4) -0.0484(3)
N5 N 0.3289(5) 0.2064(5) 0.0650(3)
H62 H 0.3570 0.2282 0.1031
C44 C 0.2309(7) 0.1676(6) 0.0629(7)
H63 H 0.2187 0.1344 0.0239
H64 H 0.2322 0.1422 0.1069
C45 C 0.1521(8) 0.2226(8) 0.0531(14)
H65 H 0.1459 0.2459 0.0076
H66 H 0.1647 0.2574 0.0907
C46 C 0.0586(10) 0.1774(10) 0.057(2)
H67 H 0.0423 0.1454 0.0170
H68 H 0.0671 0.1509 0.1008
C47 C -0.0194(10) 0.2344(12) 0.0538(14)
H69 H 0.0070 0.2713 0.0863
H70 H -0.0793 0.2153 0.0665
H71 H -0.0357 0.2531 0.0065
C52 C 0.6059(7) 0.5576(4) 0.2386(3)
H82 H 0.5367 0.5515 0.2447
H83 H 0.6267 0.6054 0.2519
C53 C 0.6135(7) 0.5439(4) 0.1627(4)
C54 C 0.6599(7) 0.5910(4) 0.1258(4)
H84 H 0.6778 0.6352 0.1452
C55 C 0.6807(8) 0.5745(4) 0.0608(4)
H85 H 0.7120 0.6069 0.0360
C56 C 0.6543(7) 0.5094(4) 0.0330(4)
H86 H 0.6704 0.4975 -0.0104
C57 C 0.6051(6) 0.4609(4) 0.0668(4)
C58 C 0.5797(6) 0.4820(4) 0.1298(4)
O7 O 0.5346(4) 0.4353(2) 0.1686(2)
C59 C 0.4389(5) 0.4106(4) 0.1363(4)
H87 H 0.4367 0.3603 0.1443
H88 H 0.4304 0.4179 0.0856
C60 C 0.3536(6) 0.4432(6) 0.1607(5)
O8 O 0.3622(5) 0.4817(4) 0.2101(4)
O9 O 0.2698(6) 0.4238(5) 0.1218(4)
C61 C 0.1773(12) 0.4662(13) 0.1296(18)
H89 H 0.1765 0.4771 0.1788
H90 H 0.1713 0.5093 0.1020
C62 C 0.0995(13) 0.4146(16) 0.100(3)
H91 H 0.0932 0.3781 0.1341
H92 H 0.1132 0.3933 0.0571
C63 C 0.0036(16) 0.462(2) 0.0844(15)
H93 H 0.0168 0.5054 0.0608
H94 H -0.0527 0.4379 0.0551
C64 C -0.017(3) 0.477(2) 0.1564(19)
H95 H 0.0083 0.4391 0.1878
H96 H -0.0889 0.4813 0.1535
H97 H 0.0154 0.5201 0.1741
N2? N 0.3670(5) 0.5154(5) 0.3581(4)
H18? H 0.3696 0.5033 0.3154
C14? C 0.2807(16) 0.513(2) 0.3974(14)
H19? H 0.2697 0.4652 0.4122
H20? H 0.2945 0.5429 0.4391
C15? C 0.1918(11) 0.5386(19) 0.346(3)
H21? H 0.2094 0.5522 0.3016
H22? H 0.1595 0.5779 0.3652
C16? C 0.125(4) 0.472(3) 0.339(2)
H23? H 0.0541 0.4835 0.3250
H24? H 0.1441 0.4393 0.3047
C17? C 0.152(5) 0.445(2) 0.413(2)
H25? H 0.2100 0.4695 0.4387
H26? H 0.1671 0.3955 0.4124
H27? H 0.0959 0.4518 0.4365
N4? N 0.2874(5) 0.2780(4) 0.3050(3)
H45? H 0.2862 0.3014 0.3432
C31? C 0.207(3) 0.227(3) 0.271(2)
H46? H 0.1687 0.2465 0.2267
H47? H 0.2362 0.1829 0.2607
C32? C 0.1404(17) 0.2178(16) 0.323(3)
H48? H 0.1791 0.2149 0.3709
H49? H 0.0981 0.1764 0.3125
C33? C 0.078(4) 0.286(2) 0.310(4)
H50? H 0.1151 0.3260 0.3337
H51? H 0.0563 0.2961 0.2601
C34? C -0.009(3) 0.266(3) 0.344(3)
H52? H 0.0162 0.2477 0.3910
H53? H -0.0491 0.2306 0.3161
H54? H -0.0502 0.3066 0.3476
N6? N 0.3289(5) 0.2064(5) 0.0650(3)
H72? H 0.3613 0.1916 0.1054
C48? C 0.2214(15) 0.232(2) 0.056(3)
H73? H 0.2193 0.2789 0.0758
H74? H 0.1889 0.2328 0.0066
C49? C 0.1709(17) 0.181(3) 0.096(3)
H75? H 0.1929 0.1864 0.1468
H76? H 0.1821 0.1330 0.0825
C50? C 0.0600(17) 0.204(5) 0.071(7)
H77? H 0.0501 0.2530 0.0802
H78? H 0.0360 0.1939 0.0210
C51? C 0.011(3) 0.157(4) 0.117(4)
H79? H 0.0541 0.1176 0.1332
H80? H -0.0526 0.1397 0.0905
H81? H -0.0014 0.1829 0.1575
O10? O 0.2698(6) 0.4238(5) 0.1218(4)
C65? C 0.1862(13) 0.437(2) 0.1627(11)
H98? H 0.1644 0.3941 0.1824
H99? H 0.2056 0.4715 0.2001
C66? C 0.1094(16) 0.464(2) 0.1043(18)
H100? H 0.1078 0.4381 0.0609
H101? H 0.1203 0.5139 0.0956
C67? C 0.0113(16) 0.453(2) 0.134(2)
H102? H -0.0258 0.4121 0.1130
H103? H 0.0269 0.4469 0.1854
C68? C -0.047(3) 0.519(2) 0.114(3)
H104? H -0.0154 0.5571 0.1429
H105? H -0.1150 0.5129 0.1221
H106? H -0.0491 0.5290 0.0652
loop_
_geom_bond_atom_site_label_1
_geom_bond_atom_site_label_2
_geom_bond_site_symmetry_1
_geom_bond_site_symmetry_2
C1 H1 1_555 1_555
H2 C1 1_555 1_555
C2 C1 1_555 1_555
C3 C2 1_555 1_555
H3 C3 1_555 1_555
C4 C3 1_555 1_555
H4 C4 1_555 1_555
C5 C4 1_555 1_555
H5 C5 1_555 1_555
C6 C5 1_555 1_555
C7 C2 1_555 1_555
O1 C7 1_555 1_555
C8 O1 1_555 1_555
H6 C8 1_555 1_555
H7 C8 1_555 1_555
C9 C8 1_555 1_555
O2 C9 1_555 1_555
N1 C9 1_555 1_555
H8 N1 1_555 1_555
C10 N1 1_555 1_555
H9 C10 1_555 1_555
H10 C10 1_555 1_555
C11 C10 1_555 1_555
H11 C11 1_555 1_555
H12 C11 1_555 1_555
C12 C11 1_555 1_555
H13 C12 1_555 1_555
H14 C12 1_555 1_555
C13 C12 1_555 1_555
H15 C13 1_555 1_555
H16 C13 1_555 1_555
H17 C13 1_555 1_555
C18 H28 1_555 1_555
H29 C18 1_555 1_555
C19 C18 1_555 1_555
C20 C19 1_555 1_555
H30 C20 1_555 1_555
C21 C20 1_555 1_555
H31 C21 1_555 1_555
C22 C21 1_555 1_555
H32 C22 1_555 1_555
C23 C1 1_555 1_555
C24 C19 1_555 1_555
O3 C24 1_555 1_555
C25 O3 1_555 1_555
H33 C25 1_555 1_555
H34 C25 1_555 1_555
C26 C25 1_555 1_555
O4 C26 1_555 1_555
N3 C26 1_555 1_555
H35 N3 1_555 1_555
C27 N3 1_555 1_555
H36 C27 1_555 1_555
H37 C27 1_555 1_555
C28 C27 1_555 1_555
H38 C28 1_555 1_555
H39 C28 1_555 1_555
C29 C28 1_555 1_555
H40 C29 1_555 1_555
H41 C29 1_555 1_555
C30 C29 1_555 1_555
H42 C30 1_555 1_555
H43 C30 1_555 1_555
H44 C30 1_555 1_555
C35 H55 1_555 1_555
H56 C35 1_555 1_555
C36 C35 1_555 1_555
C37 C36 1_555 1_555
H57 C37 1_555 1_555
C38 C37 1_555 1_555
H58 C38 1_555 1_555
C39 C38 1_555 1_555
H59 C39 1_555 1_555
C40 C18 1_555 1_555
C41 C36 1_555 1_555
O5 C41 1_555 1_555
C42 O5 1_555 1_555
H60 C42 1_555 1_555
H61 C42 1_555 1_555
C43 C42 1_555 1_555
O6 C43 1_555 1_555
N5 C43 1_555 1_555
H62 N5 1_555 1_555
C44 N5 1_555 1_555
H63 C44 1_555 1_555
H64 C44 1_555 1_555
C45 C44 1_555 1_555
H65 C45 1_555 1_555
H66 C45 1_555 1_555
C46 C45 1_555 1_555
H67 C46 1_555 1_555
H68 C46 1_555 1_555
C47 C46 1_555 1_555
H69 C47 1_555 1_555
H70 C47 1_555 1_555
H71 C47 1_555 1_555
C52 C6 1_555 1_555
H82 C52 1_555 1_555
H83 C52 1_555 1_555
C53 C52 1_555 1_555
C54 C53 1_555 1_555
H84 C54 1_555 1_555
C55 C54 1_555 1_555
H85 C55 1_555 1_555
C56 C55 1_555 1_555
H86 C56 1_555 1_555
C57 C35 1_555 1_555
C58 C53 1_555 1_555
O7 C58 1_555 1_555
C59 O7 1_555 1_555
H87 C59 1_555 1_555
H88 C59 1_555 1_555
C60 C59 1_555 1_555
O8 C60 1_555 1_555
O9 C60 1_555 1_555
C61 O9 1_555 1_555
H89 C61 1_555 1_555
H90 C61 1_555 1_555
C62 C61 1_555 1_555
H91 C62 1_555 1_555
H92 C62 1_555 1_555
C63 C62 1_555 1_555
H93 C63 1_555 1_555
H94 C63 1_555 1_555
C64 C63 1_555 1_555
H95 C64 1_555 1_555
H96 C64 1_555 1_555
H97 C64 1_555 1_555
C6 C7 1_555 1_555
C22 C23 1_555 1_555
C23 C24 1_555 1_555
C39 C40 1_555 1_555
C40 C41 1_555 1_555
C56 C57 1_555 1_555
C57 C58 1_555 1_555

#END
