
#######################################################################
#
#                 Cambridge Crystallographic Data Centre
#                                CCDC 
#
#######################################################################
#
# If this CIF has been generated from an entry in the Cambridge 
# Structural Database, then it will include bibliographic, chemical, 
# crystal, experimental, refinement or atomic coordinate data resulting 
# from the CCDC's data processing and validation procedures.
#
#######################################################################

data_NINTIO
_chemical_formula_moiety         'C62 H96 O4 Si2'
_chemical_name_systematic        
5,11,17,23-Tetra-t-butyl-25,27-dihydroxy-26,28-bis(tri-isopropylsiloxy)calix(4)arene
_symmetry_cell_setting           monoclinic
_symmetry_space_group_name_H-M   'P 21/n'
_symmetry_Int_Tables_number      14
_space_group_name_Hall           '-P 2yn'
loop_
_symmetry_equiv_pos_site_id
_symmetry_equiv_pos_as_xyz
1 x,y,z
2 1/2-x,1/2+y,1/2-z
3 -x,-y,-z
4 1/2+x,1/2-y,1/2+z
_cell_length_a                   13.7963(6)
_cell_length_b                   18.6621(8)
_cell_length_c                   24.1864(11)
_cell_angle_alpha                90
_cell_angle_beta                 99.2650(10)
_cell_angle_gamma                90
_cell_volume                     6145.98
_exptl_crystal_colour            colorless
_exptl_crystal_description       Block
_cell_formula_units_Z            4
loop_
_atom_site_label
_atom_site_type_symbol
_atom_site_fract_x
_atom_site_fract_y
_atom_site_fract_z
Si1 Si 0.98252(5) 0.84303(4) 0.11584(3)
Si2 Si 1.37161(6) 0.82412(4) -0.07266(3)
O1 O 1.16978(13) 0.71030(8) 0.03825(7)
H1 H 1.1360 0.7283 0.0601
O2 O 1.35430(12) 0.78801(8) -0.01180(7)
O3 O 1.29606(11) 0.83530(9) 0.10079(7)
H2 H 1.3187 0.8265 0.0717
O4 O 1.08531(11) 0.79376(8) 0.12124(7)
C1 C 1.28749(18) 0.63927(12) -0.02549(9)
H3 H 1.2527 0.6809 -0.0437
H4 H 1.3060 0.6080 -0.0547
C2 C 1.49833(17) 0.83450(12) 0.07997(10)
H5 H 1.5684 0.8444 0.0812
H6 H 1.4615 0.8645 0.0506
C3 C 1.23813(16) 0.86221(11) 0.20236(10)
H7 H 1.1967 0.8859 0.1709
H8 H 1.2288 0.8870 0.2368
C4 C 1.05590(17) 0.64150(12) 0.11607(10)
H9 H 1.0119 0.6079 0.1309
H10 H 1.0151 0.6772 0.0934
C5 C 1.16778(17) 0.63710(11) 0.04263(10)
C6 C 1.11533(17) 0.60101(12) 0.07891(10)
C7 C 1.11977(18) 0.52664(12) 0.08064(10)
H11 H 1.0858 0.5023 0.1056
C8 C 1.17245(18) 0.48659(12) 0.04692(10)
C9 C 1.22182(17) 0.52454(12) 0.01048(10)
H12 H 1.2566 0.4989 -0.0134
C10 C 1.22155(16) 0.59905(12) 0.00813(9)
C11 C 1.1782(2) 0.40459(13) 0.05295(12)
C12 C 1.2356(3) 0.37014(16) 0.01127(17)
H13 H 1.2362 0.3186 0.0162
H14 H 1.3024 0.3881 0.0176
H15 H 1.2046 0.3818 -0.0266
C13 C 1.0748(3) 0.37303(17) 0.04362(17)
H16 H 1.0787 0.3213 0.0475
H17 H 1.0419 0.3852 0.0063
H18 H 1.0380 0.3925 0.0711
C14 C 1.2291(3) 0.38623(16) 0.11222(15)
H19 H 1.1924 0.4068 0.1393
H20 H 1.2952 0.4056 0.1181
H21 H 1.2320 0.3346 0.1168
C15 C 1.40612(16) 0.73528(12) 0.02124(9)
C16 C 1.37910(16) 0.66362(11) 0.01389(9)
C17 C 1.43213(17) 0.61297(12) 0.04869(9)
H22 H 1.4168 0.5643 0.0425
C18 C 1.50672(17) 0.63121(12) 0.09208(10)
C19 C 1.52770(17) 0.70355(12) 0.09981(10)
H23 H 1.5769 0.7175 0.1294
C20 C 1.47852(16) 0.75627(12) 0.06535(9)
C21 C 1.5578(2) 0.57359(14) 0.13151(11)
C22 C 1.6259(6) 0.5331(4) 0.1000(3)
H24 H 1.5887 0.5132 0.0660
H25 H 1.6570 0.4945 0.1233
H26 H 1.6757 0.5653 0.0904
C23 C 1.4806(5) 0.5241(4) 0.1500(3)
H27 H 1.4317 0.5527 0.1646
H28 H 1.5120 0.4919 0.1789
H29 H 1.4491 0.4965 0.1181
C24 C 1.6160(6) 0.6033(4) 0.1856(3)
H30 H 1.5724 0.6299 0.2057
H31 H 1.6672 0.6348 0.1767
H32 H 1.6454 0.5640 0.2087
C25 C 1.37152(16) 0.85193(11) 0.14324(10)
C26 C 1.46939(16) 0.85386(11) 0.13570(10)
C27 C 1.54028(17) 0.87293(12) 0.18125(10)
H33 H 1.6065 0.8737 0.1765
C28 C 1.51726(17) 0.89078(13) 0.23306(11)
C29 C 1.41780(17) 0.88770(12) 0.23871(10)
H34 H 1.3998 0.8994 0.2735
C30 C 1.34486(16) 0.86805(11) 0.19489(10)
C31 C 1.5951(2) 0.9142(2) 0.28221(13)
C32 C 1.5848(4) 0.8662(4) 0.33296(19)
H35 H 1.6292 0.8829 0.3656
H36 H 1.6009 0.8171 0.3248
H37 H 1.5178 0.8684 0.3403
C33 C 1.5769(3) 0.9906(3) 0.2965(3)
H38 H 1.6185 1.0032 0.3314
H39 H 1.5085 0.9965 0.3005
H40 H 1.5919 1.0216 0.2668
C34 C 1.6985(2) 0.9040(3) 0.27138(18)
H41 H 1.7100 0.9349 0.2408
H42 H 1.7080 0.8544 0.2614
H43 H 1.7443 0.9161 0.3049
C35 C 1.13549(15) 0.75303(11) 0.16488(9)
C36 C 1.20628(16) 0.78425(11) 0.20539(10)
C37 C 1.25229(18) 0.74144(12) 0.24886(10)
H44 H 1.2984 0.7626 0.2770
C38 C 1.2330(2) 0.66863(12) 0.25249(11)
C39 C 1.16763(19) 0.63843(12) 0.20890(10)
H45 H 1.1557 0.5889 0.2094
C40 C 1.11921(16) 0.67912(11) 0.16463(10)
C41 C 1.2823(2) 0.62299(15) 0.30160(12)
C42 C 1.3408(6) 0.5649(4) 0.2788(3)
H46 H 1.2985 0.5386 0.2498
H47 H 1.3669 0.5324 0.3088
H48 H 1.3945 0.5863 0.2632
C43 C 1.3317(7) 0.6645(4) 0.3506(3)
H49 H 1.3482 0.6326 0.3825
H50 H 1.2879 0.7018 0.3598
H51 H 1.3912 0.6861 0.3417
C44 C 1.1989(6) 0.5792(4) 0.3263(3)
H52 H 1.1627 0.5496 0.2970
H53 H 1.1542 0.6125 0.3400
H54 H 1.2292 0.5489 0.3569
C45 C 0.9898(3) 0.89794(19) 0.05171(13)
H55 H 0.9311 0.9292 0.0459
C46 C 0.9828(5) 0.8491(3) -0.00081(16)
H56 H 0.9203 0.8242 -0.0065
H57 H 1.0359 0.8144 0.0047
H58 H 0.9879 0.8783 -0.0334
C47 C 1.0806(3) 0.9480(2) 0.06130(18)
H59 H 1.1397 0.9195 0.0705
H60 H 1.0753 0.9805 0.0919
H61 H 1.0835 0.9753 0.0275
C48 C 0.9838(2) 0.90235(16) 0.17824(12)
H62 H 1.0472 0.9283 0.1827
C49 C 0.9032(3) 0.9607(2) 0.16802(16)
H63 H 0.9083 0.9862 0.1337
H64 H 0.9117 0.9940 0.1992
H65 H 0.8390 0.9383 0.1648
C50 C 0.9818(3) 0.8640(2) 0.23433(15)
H66 H 0.9931 0.8986 0.2646
H67 H 1.0327 0.8277 0.2400
H68 H 0.9182 0.8416 0.2338
C51 C 0.8727(2) 0.7826(2) 0.1009(2)
H69 H 0.8873 0.7484 0.0721
C52 C 0.8558(4) 0.7354(3) 0.1528(3)
H70 H 0.8371 0.7661 0.1817
H71 H 0.9159 0.7103 0.1675
H72 H 0.8039 0.7010 0.1411
C53 C 0.7788(3) 0.8231(3) 0.0744(3)
H73 H 0.7276 0.7889 0.0608
H74 H 0.7931 0.8521 0.0433
H75 H 0.7570 0.8539 0.1023
C54 C 1.3933(3) 0.92206(17) -0.05798(16)
H76 H 1.4553 0.9244 -0.0310
C55 C 1.4129(6) 0.9647(3) -0.1091(2)
H77 H 1.4649 0.9418 -0.1252
H78 H 1.4325 1.0131 -0.0978
H79 H 1.3536 0.9662 -0.1368
C56 C 1.3153(4) 0.9585(2) -0.0279(2)
H80 H 1.3123 0.9340 0.0072
H81 H 1.2516 0.9561 -0.0516
H82 H 1.3331 1.0083 -0.0204
C57 C 1.2580(3) 0.8020(2) -0.12339(14)
H83 H 1.2569 0.7492 -0.1268
C58 C 1.1630(3) 0.8226(3) -0.1014(2)
H84 H 1.1596 0.8742 -0.0979
H85 H 1.1628 0.8006 -0.0651
H86 H 1.1066 0.8058 -0.1275
C59 C 1.2585(5) 0.8309(3) -0.18315(19)
H87 H 1.3199 0.8181 -0.1953
H88 H 1.2519 0.8827 -0.1831
H89 H 1.2041 0.8102 -0.2085
C60 C 1.4818(3) 0.7848(2) -0.09828(14)
H90 H 1.4876 0.8108 -0.1333
C61 C 1.4719(4) 0.7058(2) -0.11444(18)
H91 H 1.5284 0.6911 -0.1310
H92 H 1.4125 0.6987 -0.1413
H93 H 1.4687 0.6772 -0.0813
C62 C 1.5789(3) 0.7988(3) -0.05831(18)
H94 H 1.5841 0.8494 -0.0491
H95 H 1.6338 0.7848 -0.0764
H96 H 1.5799 0.7712 -0.0243
C63? C 1.5578(2) 0.57359(14) 0.13151(11)
C64? C 1.5089(9) 0.5779(6) 0.1826(4)
H97? H 1.4418 0.5610 0.1735
H98? H 1.5090 0.6273 0.1953
H99? H 1.5445 0.5483 0.2121
C65? C 1.6688(7) 0.5890(6) 0.1462(5)
H100? H 1.6999 0.5798 0.1136
H101? H 1.6975 0.5581 0.1767
H102? H 1.6788 0.6387 0.1573
C66? C 1.5485(10) 0.4983(5) 0.1066(4)
H103? H 1.5700 0.4986 0.0703
H104? H 1.4806 0.4829 0.1022
H105? H 1.5892 0.4655 0.1314
C67? C 1.2823(2) 0.62299(15) 0.30160(12)
C68? C 1.2486(9) 0.6486(5) 0.3539(4)
H106? H 1.2672 0.6984 0.3604
H107? H 1.2790 0.6198 0.3854
H108? H 1.1778 0.6442 0.3499
C69? C 1.2785(10) 0.5443(5) 0.2913(4)
H109? H 1.2919 0.5346 0.2539
H110? H 1.2137 0.5265 0.2948
H111? H 1.3273 0.5207 0.3186
C70? C 1.3979(7) 0.6409(5) 0.3125(4)
H112? H 1.4254 0.6309 0.2789
H113? H 1.4305 0.6115 0.3430
H114? H 1.4075 0.6911 0.3222
loop_
_geom_bond_atom_site_label_1
_geom_bond_atom_site_label_2
_geom_bond_site_symmetry_1
_geom_bond_site_symmetry_2
Si1 O4 1_555 1_555
Si2 O2 1_555 1_555
O1 H1 1_555 1_555
O2 C15 1_555 1_555
O3 H2 1_555 1_555
O4 C35 1_555 1_555
C1 H3 1_555 1_555
H4 C1 1_555 1_555
C2 H5 1_555 1_555
H6 C2 1_555 1_555
C3 H7 1_555 1_555
H8 C3 1_555 1_555
C4 H9 1_555 1_555
H10 C4 1_555 1_555
C5 O1 1_555 1_555
C6 C4 1_555 1_555
C7 C6 1_555 1_555
H11 C7 1_555 1_555
C8 C7 1_555 1_555
C9 C8 1_555 1_555
H12 C9 1_555 1_555
C10 C1 1_555 1_555
C11 C8 1_555 1_555
C12 C11 1_555 1_555
H13 C12 1_555 1_555
H14 C12 1_555 1_555
H15 C12 1_555 1_555
C13 C11 1_555 1_555
H16 C13 1_555 1_555
H17 C13 1_555 1_555
H18 C13 1_555 1_555
C14 C11 1_555 1_555
H19 C14 1_555 1_555
H20 C14 1_555 1_555
H21 C14 1_555 1_555
C15 C16 1_555 1_555
C16 C1 1_555 1_555
C17 C16 1_555 1_555
H22 C17 1_555 1_555
C18 C17 1_555 1_555
C19 C18 1_555 1_555
H23 C19 1_555 1_555
C20 C2 1_555 1_555
C21 C18 1_555 1_555
C22 C21 1_555 1_555
H24 C22 1_555 1_555
H25 C22 1_555 1_555
H26 C22 1_555 1_555
C23 C21 1_555 1_555
H27 C23 1_555 1_555
H28 C23 1_555 1_555
H29 C23 1_555 1_555
C24 C21 1_555 1_555
H30 C24 1_555 1_555
H31 C24 1_555 1_555
H32 C24 1_555 1_555
C25 O3 1_555 1_555
C26 C2 1_555 1_555
C27 C26 1_555 1_555
H33 C27 1_555 1_555
C28 C27 1_555 1_555
C29 C28 1_555 1_555
H34 C29 1_555 1_555
C30 C3 1_555 1_555
C31 C28 1_555 1_555
C32 C31 1_555 1_555
H35 C32 1_555 1_555
H36 C32 1_555 1_555
H37 C32 1_555 1_555
C33 C31 1_555 1_555
H38 C33 1_555 1_555
H39 C33 1_555 1_555
H40 C33 1_555 1_555
C34 C31 1_555 1_555
H41 C34 1_555 1_555
H42 C34 1_555 1_555
H43 C34 1_555 1_555
C35 C36 1_555 1_555
C36 C3 1_555 1_555
C37 C36 1_555 1_555
H44 C37 1_555 1_555
C38 C37 1_555 1_555
C39 C38 1_555 1_555
H45 C39 1_555 1_555
C40 C4 1_555 1_555
C41 C38 1_555 1_555
C42 C41 1_555 1_555
H46 C42 1_555 1_555
H47 C42 1_555 1_555
H48 C42 1_555 1_555
C43 C41 1_555 1_555
H49 C43 1_555 1_555
H50 C43 1_555 1_555
H51 C43 1_555 1_555
C44 C41 1_555 1_555
H52 C44 1_555 1_555
H53 C44 1_555 1_555
H54 C44 1_555 1_555
C45 Si1 1_555 1_555
H55 C45 1_555 1_555
C46 C45 1_555 1_555
H56 C46 1_555 1_555
H57 C46 1_555 1_555
H58 C46 1_555 1_555
C47 C45 1_555 1_555
H59 C47 1_555 1_555
H60 C47 1_555 1_555
H61 C47 1_555 1_555
C48 Si1 1_555 1_555
H62 C48 1_555 1_555
C49 C48 1_555 1_555
H63 C49 1_555 1_555
H64 C49 1_555 1_555
H65 C49 1_555 1_555
C50 C48 1_555 1_555
H66 C50 1_555 1_555
H67 C50 1_555 1_555
H68 C50 1_555 1_555
C51 Si1 1_555 1_555
H69 C51 1_555 1_555
C52 C51 1_555 1_555
H70 C52 1_555 1_555
H71 C52 1_555 1_555
H72 C52 1_555 1_555
C53 C51 1_555 1_555
H73 C53 1_555 1_555
H74 C53 1_555 1_555
H75 C53 1_555 1_555
C54 Si2 1_555 1_555
H76 C54 1_555 1_555
C55 C54 1_555 1_555
H77 C55 1_555 1_555
H78 C55 1_555 1_555
H79 C55 1_555 1_555
C56 C54 1_555 1_555
H80 C56 1_555 1_555
H81 C56 1_555 1_555
H82 C56 1_555 1_555
C57 Si2 1_555 1_555
H83 C57 1_555 1_555
C58 C57 1_555 1_555
H84 C58 1_555 1_555
H85 C58 1_555 1_555
H86 C58 1_555 1_555
C59 C57 1_555 1_555
H87 C59 1_555 1_555
H88 C59 1_555 1_555
H89 C59 1_555 1_555
C60 Si2 1_555 1_555
H90 C60 1_555 1_555
C61 C60 1_555 1_555
H91 C61 1_555 1_555
H92 C61 1_555 1_555
H93 C61 1_555 1_555
C62 C60 1_555 1_555
H94 C62 1_555 1_555
H95 C62 1_555 1_555
H96 C62 1_555 1_555
C5 C6 1_555 1_555
C5 C10 1_555 1_555
C9 C10 1_555 1_555
C15 C20 1_555 1_555
C19 C20 1_555 1_555
C25 C26 1_555 1_555
C25 C30 1_555 1_555
C29 C30 1_555 1_555
C35 C40 1_555 1_555
C39 C40 1_555 1_555

#END
