
#######################################################################
#
#                 Cambridge Crystallographic Data Centre
#                                CCDC 
#
#######################################################################
#
# If this CIF has been generated from an entry in the Cambridge 
# Structural Database, then it will include bibliographic, chemical, 
# crystal, experimental, refinement or atomic coordinate data resulting 
# from the CCDC's data processing and validation procedures.
#
#######################################################################

data_NINVUE
_chemical_formula_moiety         'C28 H18 F6 N2 O3 S1,C1 H2 Cl2'
_chemical_name_systematic        
'4-((4-oxo-3,5-bis((4-(trifluoromethyl)phenyl)methylidene)piperidin-1-yl)sulfonyl)benzonitrile dichloromethane solvate'
_symmetry_cell_setting           triclinic
_symmetry_space_group_name_H-M   'P -1'
_symmetry_Int_Tables_number      2
_space_group_name_Hall           '-P 1'
loop_
_symmetry_equiv_pos_site_id
_symmetry_equiv_pos_as_xyz
1 x,y,z
2 -x,-y,-z
_cell_length_a                   9.7338(6)
_cell_length_b                   12.4558(9)
_cell_length_c                   12.6397(9)
_cell_angle_alpha                70.586(3)
_cell_angle_beta                 88.379(4)
_cell_angle_gamma                81.726(3)
_cell_volume                     1429.97
_exptl_crystal_colour            yellow
_exptl_crystal_description       block
_cell_formula_units_Z            2
loop_
_atom_site_label
_atom_site_type_symbol
_atom_site_fract_x
_atom_site_fract_y
_atom_site_fract_z
C1 C 0.2251(3) 0.6874(2) 0.3737(2)
H1 H 0.3181 0.7010 0.3429
H2 H 0.1587 0.7048 0.3104
C2 C 0.2295(2) 0.5639(2) 0.4483(2)
C3 C 0.1347(3) 0.5379(2) 0.5467(2)
C4 C 0.0349(2) 0.6341(2) 0.5613(2)
C5 C 0.0378(2) 0.7528(2) 0.4781(2)
H3 H -0.0243 0.7657 0.4131
H4 H 0.0057 0.8116 0.5136
C6 C 0.3168(2) 0.4754(2) 0.4360(2)
H5 H 0.3107 0.4028 0.4912
C7 C 0.4201(2) 0.4745(2) 0.3497(2)
C8 C 0.5350(3) 0.3884(2) 0.3780(2)
H6 H 0.5408 0.3317 0.4505
C9 C 0.6399(3) 0.3837(2) 0.3037(2)
H7 H 0.7181 0.3254 0.3255
C10 C 0.6306(3) 0.4647(2) 0.1966(2)
C11 C 0.5137(3) 0.5474(2) 0.1649(2)
H8 H 0.5054 0.6010 0.0908
C12 C 0.4095(3) 0.5524(2) 0.2400(2)
H9 H 0.3300 0.6092 0.2172
C13 C 0.7436(3) 0.4651(2) 0.1152(2)
C14 C -0.0505(3) 0.6104(2) 0.6484(2)
H10 H -0.0352 0.5338 0.6993
C15 C -0.1642(2) 0.6869(2) 0.6756(2)
C16 C -0.2007(3) 0.6650(2) 0.7880(2)
H11 H -0.1463 0.6056 0.8451
C17 C -0.3144(3) 0.7282(3) 0.8170(2)
H12 H -0.3365 0.7136 0.8937
C18 C -0.3965(3) 0.8132(2) 0.7342(2)
C19 C -0.3622(3) 0.8373(2) 0.6225(2)
H13 H -0.4180 0.8960 0.5658
C20 C -0.2459(2) 0.7755(2) 0.5939(2)
H14 H -0.2213 0.7936 0.5174
C21 C -0.5244(3) 0.8746(3) 0.7680(3)
C22 C 0.1465(2) 0.9772(2) 0.2868(2)
C23 C 0.1993(3) 0.9807(2) 0.1829(2)
H15 H 0.2846 0.9350 0.1780
C24 C 0.1271(3) 1.0512(2) 0.0868(2)
H16 H 0.1629 1.0550 0.0152
C25 C 0.0013(3) 1.1169(2) 0.0953(2)
C26 C -0.0518(3) 1.1122(2) 0.1996(2)
H17 H -0.1380 1.1568 0.2048
C27 C 0.0212(3) 1.0423(2) 0.2959(2)
H18 H -0.0140 1.0388 0.3676
C28 C -0.0742(3) 1.1910(3) -0.0048(3)
F1 F 0.80484(18) 0.56012(16) 0.08932(16)
F2 F 0.69830(18) 0.46293(18) 0.01714(14)
F3 F 0.84560(17) 0.37668(15) 0.15218(14)
F4 F -0.60578(18) 0.9403(2) 0.68140(16)
F5 F -0.49708(16) 0.94232(15) 0.82446(15)
F6 F -0.60193(18) 0.80030(17) 0.83699(19)
N1 N 0.1814(2) 0.76125(17) 0.44130(16)
N2 N -0.1347(3) 1.2483(3) -0.0848(2)
O1 O 0.1362(2) 0.43929(15) 0.61050(15)
O2 O 0.38056(16) 0.86676(15) 0.38543(14)
O3 O 0.19401(18) 0.92877(15) 0.49955(14)
S1 S 0.23658(6) 0.88541(5) 0.41058(5)
C29 C 0.3476(3) 0.2120(3) 0.7732(2)
H19 H 0.4133 0.1976 0.7166
H20 H 0.3169 0.2960 0.7507
Cl1 Cl 0.20281(8) 0.14143(7) 0.77593(7)
Cl2 Cl 0.43281(8) 0.16459(7) 0.90498(7)
loop_
_geom_bond_atom_site_label_1
_geom_bond_atom_site_label_2
_geom_bond_site_symmetry_1
_geom_bond_site_symmetry_2
C1 H1 1_555 1_555
H2 C1 1_555 1_555
C2 C1 1_555 1_555
C3 C2 1_555 1_555
C4 C3 1_555 1_555
C5 C4 1_555 1_555
H3 C5 1_555 1_555
H4 C5 1_555 1_555
C6 C2 1_555 1_555
H5 C6 1_555 1_555
C7 C6 1_555 1_555
C8 C7 1_555 1_555
H6 C8 1_555 1_555
C9 C8 1_555 1_555
H7 C9 1_555 1_555
C10 C9 1_555 1_555
C11 C10 1_555 1_555
H8 C11 1_555 1_555
C12 C7 1_555 1_555
H9 C12 1_555 1_555
C13 C10 1_555 1_555
C14 C4 1_555 1_555
H10 C14 1_555 1_555
C15 C14 1_555 1_555
C16 C15 1_555 1_555
H11 C16 1_555 1_555
C17 C16 1_555 1_555
H12 C17 1_555 1_555
C18 C17 1_555 1_555
C19 C18 1_555 1_555
H13 C19 1_555 1_555
C20 C15 1_555 1_555
H14 C20 1_555 1_555
C21 C18 1_555 1_555
C22 C23 1_555 1_555
C23 H15 1_555 1_555
C24 C23 1_555 1_555
H16 C24 1_555 1_555
C25 C24 1_555 1_555
C26 C25 1_555 1_555
H17 C26 1_555 1_555
C27 C22 1_555 1_555
H18 C27 1_555 1_555
C28 C25 1_555 1_555
F1 C13 1_555 1_555
F2 C13 1_555 1_555
F3 C13 1_555 1_555
F4 C21 1_555 1_555
F5 C21 1_555 1_555
F6 C21 1_555 1_555
N1 C1 1_555 1_555
N2 C28 1_555 1_555
O1 C3 1_555 1_555
O2 S1 1_555 1_555
O3 S1 1_555 1_555
S1 C22 1_555 1_555
C29 H19 1_555 1_555
H20 C29 1_555 1_555
Cl1 C29 1_555 1_555
Cl2 C29 1_555 1_555
C5 N1 1_555 1_555
C11 C12 1_555 1_555
C19 C20 1_555 1_555
C26 C27 1_555 1_555
N1 S1 1_555 1_555

#END
