
#######################################################################
#
#                 Cambridge Crystallographic Data Centre
#                                CCDC 
#
#######################################################################
#
# If this CIF has been generated from an entry in the Cambridge 
# Structural Database, then it will include bibliographic, chemical, 
# crystal, experimental, refinement or atomic coordinate data resulting 
# from the CCDC's data processing and validation procedures.
#
#######################################################################

data_NINVUD
_chemical_formula_moiety         'C26 H26 Cl1 N3 O2,C3 H8 O1'
_chemical_name_systematic        
'1-(2-(4-Chlorobenzyloxy)-2-(4-(morpholin-4-yl)phenyl)ethyl)-1H-benzimidazole isopropanol solvate'
_symmetry_cell_setting           triclinic
_symmetry_space_group_name_H-M   'P -1'
_symmetry_Int_Tables_number      2
_space_group_name_Hall           '-P 1'
loop_
_symmetry_equiv_pos_site_id
_symmetry_equiv_pos_as_xyz
1 x,y,z
2 -x,-y,-z
_cell_length_a                   10.6542(3)
_cell_length_b                   11.5152(4)
_cell_length_c                   11.6853(4)
_cell_angle_alpha                87.010(3)
_cell_angle_beta                 83.703(3)
_cell_angle_gamma                71.572(2)
_cell_volume                     1351.66
_exptl_crystal_colour            colorless
_exptl_crystal_description       prism
_cell_formula_units_Z            2
loop_
_atom_site_label
_atom_site_type_symbol
_atom_site_fract_x
_atom_site_fract_y
_atom_site_fract_z
Cl1 Cl 0.12222(6) 0.01131(6) 0.06222(7)
O1 O 0.55011(15) 0.28048(12) 0.19797(12)
O2 O 1.05293(17) 0.58050(15) -0.36418(15)
N1 N 0.55093(18) 0.35870(15) 0.42231(14)
N2 N 0.41749(19) 0.27808(17) 0.53940(16)
N3 N 0.90888(18) 0.48375(15) -0.18415(15)
C1 C 0.6596(2) 0.31728(19) 0.22470(18)
H1 H 0.7254 0.2463 0.2565
C2 C 0.6021(2) 0.41068(19) 0.31857(18)
H2 H 0.6705 0.4436 0.3373
H3 H 0.5308 0.4777 0.2902
C3 C 0.4401(2) 0.32288(19) 0.4366(2)
H4 H 0.3851 0.3296 0.3785
C4 C 0.6061(2) 0.33516(18) 0.52643(18)
C5 C 0.7173(2) 0.35401(19) 0.56430(19)
H5 H 0.7736 0.3863 0.5157
C6 C 0.7403(3) 0.3225(2) 0.6777(2)
H6 H 0.8127 0.3352 0.7066
C7 C 0.6563(3) 0.2716(2) 0.7504(2)
H7 H 0.6750 0.2508 0.8260
C8 C 0.5472(3) 0.2517(2) 0.7123(2)
H8 H 0.4926 0.2174 0.7608
C9 C 0.5211(2) 0.28481(18) 0.59858(19)
C10 C 0.5907(3) 0.1737(2) 0.1282(2)
H9 H 0.6551 0.1073 0.1652
H10 H 0.6318 0.1911 0.0538
C11 C 0.4708(2) 0.13819(19) 0.1133(2)
C12 C 0.4139(2) 0.0811(2) 0.2031(2)
H11 H 0.4498 0.0671 0.2735
C13 C 0.3050(2) 0.0453(2) 0.1886(2)
H12 H 0.2670 0.0078 0.2490
C14 C 0.2527(2) 0.0656(2) 0.0829(2)
C15 C 0.3053(3) 0.1241(2) -0.0070(2)
H13 H 0.2691 0.1383 -0.0772
C16 C 0.4130(3) 0.1608(2) 0.0104(2)
H14 H 0.4480 0.2020 -0.0489
C17 C 0.7259(2) 0.36472(18) 0.12031(18)
C18 C 0.8556(2) 0.30403(19) 0.07960(19)
H15 H 0.9027 0.2344 0.1190
C19 C 0.9176(2) 0.3435(2) -0.0178(2)
H16 H 1.0055 0.3004 -0.0419
C20 C 0.8508(2) 0.44694(18) -0.08082(18)
C21 C 0.7187(2) 0.5080(2) -0.0392(2)
H17 H 0.6704 0.5769 -0.0789
C22 C 0.6590(2) 0.4684(2) 0.0586(2)
H18 H 0.5718 0.5119 0.0843
C23 C 1.0515(2) 0.4257(2) -0.2155(2)
H19 H 1.0739 0.3379 -0.2027
H20 H 1.1021 0.4564 -0.1674
C24 C 1.0869(3) 0.4525(2) -0.3397(2)
H21 H 1.1817 0.4149 -0.3589
H22 H 1.0408 0.4165 -0.3876
C25 C 0.9129(3) 0.6344(2) -0.3385(2)
H23 H 0.8669 0.5993 -0.3874
H24 H 0.8889 0.7216 -0.3555
C26 C 0.8684(2) 0.6145(2) -0.2142(2)
H25 H 0.9071 0.6566 -0.1652
H26 H 0.7724 0.6485 -0.2012
O3 O 0.73878(19) 0.85398(16) 0.32068(16)
H27 H 0.699(3) 0.816(3) 0.368(2)
C27 C 0.8136(3) 0.8985(2) 0.3906(2)
H28 H 0.8611 0.8314 0.4402
C28 C 0.7247(4) 1.0008(3) 0.4653(3)
H29 H 0.6592 0.9727 0.5113
H30 H 0.6810 1.0687 0.4175
H31 H 0.7770 1.0261 0.5148
C29 C 0.9145(3) 0.9384(3) 0.3103(3)
H32 H 0.9703 0.8700 0.2660
H33 H 0.9681 0.9684 0.3546
H34 H 0.8690 1.0023 0.2594
loop_
_geom_bond_atom_site_label_1
_geom_bond_atom_site_label_2
_geom_bond_site_symmetry_1
_geom_bond_site_symmetry_2
Cl1 C14 1_555 1_555
O1 C1 1_555 1_555
O2 C24 1_555 1_555
N1 C2 1_555 1_555
N2 C3 1_555 1_555
N3 C20 1_555 1_555
C1 H1 1_555 1_555
C2 C1 1_555 1_555
H2 C2 1_555 1_555
H3 C2 1_555 1_555
C3 N1 1_555 1_555
H4 C3 1_555 1_555
C4 N1 1_555 1_555
C5 C4 1_555 1_555
H5 C5 1_555 1_555
C6 C5 1_555 1_555
H6 C6 1_555 1_555
C7 C6 1_555 1_555
H7 C7 1_555 1_555
C8 C7 1_555 1_555
H8 C8 1_555 1_555
C9 N2 1_555 1_555
C10 O1 1_555 1_555
H9 C10 1_555 1_555
H10 C10 1_555 1_555
C11 C10 1_555 1_555
C12 C11 1_555 1_555
H11 C12 1_555 1_555
C13 C12 1_555 1_555
H12 C13 1_555 1_555
C14 C13 1_555 1_555
C15 C14 1_555 1_555
H13 C15 1_555 1_555
C16 C11 1_555 1_555
H14 C16 1_555 1_555
C17 C1 1_555 1_555
C18 C17 1_555 1_555
H15 C18 1_555 1_555
C19 C18 1_555 1_555
H16 C19 1_555 1_555
C20 C19 1_555 1_555
C21 C20 1_555 1_555
H17 C21 1_555 1_555
C22 C17 1_555 1_555
H18 C22 1_555 1_555
C23 N3 1_555 1_555
H19 C23 1_555 1_555
H20 C23 1_555 1_555
C24 C23 1_555 1_555
H21 C24 1_555 1_555
H22 C24 1_555 1_555
C25 O2 1_555 1_555
H23 C25 1_555 1_555
H24 C25 1_555 1_555
C26 N3 1_555 1_555
H25 C26 1_555 1_555
H26 C26 1_555 1_555
O3 H27 1_555 1_555
C27 O3 1_555 1_555
H28 C27 1_555 1_555
C28 C27 1_555 1_555
H29 C28 1_555 1_555
H30 C28 1_555 1_555
H31 C28 1_555 1_555
C29 C27 1_555 1_555
H32 C29 1_555 1_555
H33 C29 1_555 1_555
H34 C29 1_555 1_555
C4 C9 1_555 1_555
C8 C9 1_555 1_555
C15 C16 1_555 1_555
C21 C22 1_555 1_555
C25 C26 1_555 1_555

#END
