
#######################################################################
#
#                 Cambridge Crystallographic Data Centre
#                                CCDC 
#
#######################################################################
#
# If this CIF has been generated from an entry in the Cambridge 
# Structural Database, then it will include bibliographic, chemical, 
# crystal, experimental, refinement or atomic coordinate data resulting 
# from the CCDC's data processing and validation procedures.
#
#######################################################################

data_NINZAN
_chemical_name_common            'bis(2-Hydroxyethyl)ammonium picrate'
_chemical_formula_moiety         'C4 H12 N1 O2 1+,C6 H2 N3 O7 1-'
_chemical_name_systematic        
'bis(2-Hydroxyethyl)ammonium 2,4,6-trinitrophenolate'
_symmetry_cell_setting           monoclinic
_symmetry_space_group_name_H-M   'P 21/c'
_symmetry_Int_Tables_number      14
_space_group_name_Hall           '-P 2ybc'
loop_
_symmetry_equiv_pos_site_id
_symmetry_equiv_pos_as_xyz
1 x,y,z
2 -x,1/2+y,1/2-z
3 -x,-y,-z
4 x,1/2-y,1/2+z
_cell_length_a                   24.9396(6)
_cell_length_b                   6.9158(2)
_cell_length_c                   16.2974(5)
_cell_angle_alpha                90
_cell_angle_beta                 94.6080(10)
_cell_angle_gamma                90
_cell_volume                     2801.85
_exptl_crystal_colour            yellow
_exptl_crystal_description       block
_cell_formula_units_Z            8
loop_
_atom_site_label
_atom_site_type_symbol
_atom_site_fract_x
_atom_site_fract_y
_atom_site_fract_z
O1 O 0.36588(4) 0.55080(17) 0.35068(7)
O2 O 0.31475(5) 0.6612(3) 0.48109(9)
O3 O 0.36173(6) 0.6189(3) 0.59420(9)
O4 O 0.54463(5) 0.8458(2) 0.60986(8)
O5 O 0.58962(5) 0.8254(2) 0.50363(8)
O6 O 0.50603(8) 0.4989(3) 0.26298(10)
O7 O 0.42846(7) 0.6218(3) 0.22486(8)
N1 N 0.35824(6) 0.6443(2) 0.52065(9)
N2 N 0.54771(5) 0.81045(19) 0.53708(8)
N3 N 0.46430(7) 0.5815(3) 0.27694(9)
C1 C 0.40616(6) 0.6139(2) 0.39305(9)
C2 C 0.40723(6) 0.6641(2) 0.47915(9)
C3 C 0.45221(6) 0.7261(2) 0.52603(9)
C4 C 0.49989(6) 0.7465(2) 0.48898(9)
C5 C 0.50313(6) 0.6991(2) 0.40681(9)
C6 C 0.45820(6) 0.6370(2) 0.36189(9)
H1 H 0.45060 0.75380 0.58160
H2 H 0.53560 0.70980 0.38280
O8 O 0.14146(4) 0.04467(19) 0.63223(7)
O9 O 0.17482(5) 0.1133(3) 0.48253(9)
O10 O 0.11402(5) 0.0955(2) 0.38420(8)
O11 O -0.05810(5) 0.3536(2) 0.41733(7)
O12 O -0.09095(5) 0.3430(2) 0.53515(8)
O13 O 0.02107(7) 0.1656(3) 0.77418(9)
O14 O 0.08393(6) -0.0338(3) 0.76020(9)
N4 N 0.12787(5) 0.1159(2) 0.45685(8)
N5 N -0.05404(5) 0.3196(2) 0.49110(8)
N6 N 0.05233(6) 0.0868(3) 0.73232(8)
C7 C 0.09722(6) 0.1020(2) 0.59992(9)
C8 C 0.08651(6) 0.1477(2) 0.51350(9)
C9 C 0.03840(6) 0.2168(2) 0.47875(9)
C10 C -0.00312(6) 0.2474(2) 0.52799(9)
C11 C 0.00245(6) 0.2070(2) 0.61143(9)
C12 C 0.05015(6) 0.1339(2) 0.64497(9)
H3 H 0.03390 0.24270 0.42260
H4 H -0.02580 0.22930 0.64410
O15 O 0.25842(5) 0.43596(19) 0.33076(8)
O16 O 0.23692(4) 0.95252(18) 0.11889(8)
N7 N 0.19095(5) 0.7158(2) 0.24951(8)
C13 C 0.17130(7) 0.9075(3) 0.21928(11)
C14 C 0.18137(6) 0.9372(3) 0.13031(11)
C15 C 0.19148(7) 0.6884(3) 0.34013(10)
C16 C 0.20910(7) 0.4870(3) 0.36335(11)
H5 H 0.2259(4) 0.703(3) 0.2383(12)
H6 H 0.1700(6) 0.623(2) 0.2236(11)
H7 H 0.28350 0.48610 0.35860
H8 H 0.18940 1.00830 0.25240
H9 H 0.13300 0.91760 0.22540
H10 H 0.24850 0.84640 0.10650
H11 H 0.16630 0.82940 0.09810
H12 H 0.16320 1.05400 0.11020
H13 H 0.15580 0.71130 0.35760
H14 H 0.21590 0.78100 0.36800
H15 H 0.21330 0.47650 0.42290
H16 H 0.18140 0.39650 0.34320
O17 O 0.24822(4) -0.02326(19) 0.61782(8)
O18 O 0.30269(5) 0.6577(2) 0.78140(10)
N8 N 0.30854(5) 0.2811(2) 0.70463(8)
C17 C 0.32980(6) 0.1541(3) 0.64123(11)
C18 C 0.28589(7) 0.0922(3) 0.57860(10)
C19 C 0.35099(7) 0.3627(3) 0.76446(11)
C20 C 0.32629(8) 0.4956(3) 0.82332(12)
H17 H 0.2849(6) 0.214(2) 0.7332(10)
H18 H 0.2887(7) 0.377(2) 0.6794(11)
H19 H 0.21760 0.01330 0.60360
H20 H 0.32190 0.75280 0.79060
H21 H 0.34630 0.04070 0.66760
H22 H 0.35720 0.22300 0.61400
H23 H 0.26800 0.20500 0.55390
H24 H 0.30100 0.01840 0.53540
H25 H 0.37710 0.43310 0.73500
H26 H 0.36960 0.25850 0.79470
H27 H 0.29900 0.42650 0.85090
H28 H 0.35370 0.53900 0.86480
loop_
_geom_bond_atom_site_label_1
_geom_bond_atom_site_label_2
_geom_bond_site_symmetry_1
_geom_bond_site_symmetry_2
O1 C1 1_555 1_555
O2 N1 1_555 1_555
O3 N1 1_555 1_555
O4 N2 1_555 1_555
O5 N2 1_555 1_555
O6 N3 1_555 1_555
O7 N3 1_555 1_555
N1 C2 1_555 1_555
N2 C4 1_555 1_555
N3 C6 1_555 1_555
C1 C2 1_555 1_555
C2 C3 1_555 1_555
C3 C4 1_555 1_555
C4 C5 1_555 1_555
C5 C6 1_555 1_555
C6 C1 1_555 1_555
H1 C3 1_555 1_555
H2 C5 1_555 1_555
O8 C7 1_555 1_555
O9 N4 1_555 1_555
O10 N4 1_555 1_555
O11 N5 1_555 1_555
O12 N5 1_555 1_555
O13 N6 1_555 1_555
O14 N6 1_555 1_555
N4 C8 1_555 1_555
N5 C10 1_555 1_555
N6 C12 1_555 1_555
C7 C8 1_555 1_555
C8 C9 1_555 1_555
C9 C10 1_555 1_555
C10 C11 1_555 1_555
C11 C12 1_555 1_555
C12 C7 1_555 1_555
H3 C9 1_555 1_555
H4 C11 1_555 1_555
O15 C16 1_555 1_555
O16 C14 1_555 1_555
N7 C13 1_555 1_555
C13 C14 1_555 1_555
C14 H11 1_555 1_555
C15 N7 1_555 1_555
C16 C15 1_555 1_555
H5 N7 1_555 1_555
H6 N7 1_555 1_555
H7 O15 1_555 1_555
H8 C13 1_555 1_555
H9 C13 1_555 1_555
H10 O16 1_555 1_555
H12 C14 1_555 1_555
H13 C15 1_555 1_555
H14 C15 1_555 1_555
H15 C16 1_555 1_555
H16 C16 1_555 1_555
O17 C18 1_555 1_555
O18 C20 1_555 1_555
N8 C17 1_555 1_555
C17 C18 1_555 1_555
C18 H23 1_555 1_555
C19 N8 1_555 1_555
C20 C19 1_555 1_555
H17 N8 1_555 1_555
H18 N8 1_555 1_555
H19 O17 1_555 1_555
H20 O18 1_555 1_555
H21 C17 1_555 1_555
H22 C17 1_555 1_555
H24 C18 1_555 1_555
H25 C19 1_555 1_555
H26 C19 1_555 1_555
H27 C20 1_555 1_555
H28 C20 1_555 1_555

#END
