
#######################################################################
#
#                 Cambridge Crystallographic Data Centre
#                                CCDC 
#
#######################################################################
#
# If this CIF has been generated from an entry in the Cambridge 
# Structural Database, then it will include bibliographic, chemical, 
# crystal, experimental, refinement or atomic coordinate data resulting 
# from the CCDC's data processing and validation procedures.
#
#######################################################################

data_NIPDUL
_chemical_formula_moiety         'C14 H20 O3'
_chemical_name_systematic        
3,9-Dimethyl-4,5-acetolactone-decahydroazulen-2-one
_symmetry_cell_setting           orthorhombic
_symmetry_space_group_name_H-M   'P 21 21 21'
_symmetry_Int_Tables_number      19
_space_group_name_Hall           'P 2ac 2ab'
loop_
_symmetry_equiv_pos_site_id
_symmetry_equiv_pos_as_xyz
1 x,y,z
2 1/2-x,-y,1/2+z
3 1/2+x,1/2-y,-z
4 -x,1/2+y,1/2-z
_cell_length_a                   6.608(1)
_cell_length_b                   8.310(3)
_cell_length_c                   22.780(6)
_cell_angle_alpha                90
_cell_angle_beta                 90
_cell_angle_gamma                90
_cell_volume                     1250.91
_cell_formula_units_Z            4
loop_
_atom_site_label
_atom_site_type_symbol
_atom_site_fract_x
_atom_site_fract_y
_atom_site_fract_z
O1 O 0.1007(2) 0.2429(2) 0.58543(6)
C1 C -0.0844(3) -0.2490(3) 0.65291(9)
C2 C 0.0351(3) 0.0768(3) 0.59675(8)
C3 C 0.3168(4) 0.0737(3) 0.5344(1)
C4 C -0.2764(4) -0.2489(3) 0.6156(1)
C5 C -0.0488(3) -0.0956(3) 0.68934(9)
C6 C -0.2101(4) -0.0737(3) 0.73732(9)
C7 C 0.1704(4) -0.1978(3) 0.56726(9)
O2 O 0.3329(3) 0.3668(2) 0.53162(8)
C8 C -0.0517(3) 0.0705(2) 0.65802(8)
C9 C 0.2593(4) 0.2435(3) 0.54842(9)
O3 O -0.5144(4) 0.0845(3) 0.7383(1)
C10 C -0.2717(3) 0.1296(3) 0.66138(9)
C11 C -0.3547(4) 0.0516(3) 0.7162(1)
C12 C -0.3058(4) 0.3100(3) 0.6590(1)
C13 C 0.1041(4) -0.3026(3) 0.6185(1)
C14 C 0.2207(3) -0.0251(3) 0.58294(9)
H1 H -0.063(3) 0.046(2) 0.5665(8)
H2 H -0.254(3) -0.164(3) 0.5829(9)
H3 H 0.021(3) 0.142(2) 0.6821(7)
H4 H -0.100(3) -0.336(2) 0.6817(8)
H5 H 0.085(3) -0.106(2) 0.7085(7)
H6 H -0.397(3) -0.223(2) 0.6374(9)
H7 H 0.078(3) -0.412(3) 0.604(1)
H8 H -0.243(3) 0.355(3) 0.6237(9)
H9 H -0.291(3) -0.356(3) 0.5984(9)
H10 H -0.152(4) -0.030(3) 0.774(1)
H11 H 0.288(4) -0.241(3) 0.5485(9)
H12 H 0.224(3) -0.308(3) 0.6462(8)
H13 H 0.069(4) -0.190(2) 0.5364(8)
H14 H -0.348(3) 0.083(2) 0.6295(8)
H15 H 0.244(4) 0.044(3) 0.4962(9)
H16 H 0.305(3) -0.020(2) 0.6176(9)
H17 H -0.267(3) -0.168(3) 0.7496(9)
H18 H 0.448(4) 0.067(3) 0.529(1)
H19 H -0.443(4) 0.337(3) 0.663(1)
H20 H -0.242(4) 0.364(4) 0.688(1)
loop_
_geom_bond_atom_site_label_1
_geom_bond_atom_site_label_2
_geom_bond_site_symmetry_1
_geom_bond_site_symmetry_2
O1 C2 1_555 1_555
C1 C4 1_555 1_555
C2 C8 1_555 1_555
C3 C9 1_555 1_555
C4 H2 1_555 1_555
C5 C1 1_555 1_555
C6 C5 1_555 1_555
C7 C13 1_555 1_555
O2 C9 1_555 1_555
C8 C5 1_555 1_555
C9 O1 1_555 1_555
O3 C11 1_555 1_555
C10 C8 1_555 1_555
C11 C6 1_555 1_555
C12 C10 1_555 1_555
C13 C1 1_555 1_555
C14 C2 1_555 1_555
H1 C2 1_555 1_555
H3 C8 1_555 1_555
H4 C1 1_555 1_555
H5 C5 1_555 1_555
H6 C4 1_555 1_555
H7 C13 1_555 1_555
H8 C12 1_555 1_555
H9 C4 1_555 1_555
H10 C6 1_555 1_555
H11 C7 1_555 1_555
H12 C13 1_555 1_555
H13 C7 1_555 1_555
H14 C10 1_555 1_555
H15 C3 1_555 1_555
H16 C14 1_555 1_555
H17 C6 1_555 1_555
H18 C3 1_555 1_555
H19 C12 1_555 1_555
H20 C12 1_555 1_555
C3 C14 1_555 1_555
C7 C14 1_555 1_555
C10 C11 1_555 1_555

#END
