
#######################################################################
#
#                 Cambridge Crystallographic Data Centre
#                                CCDC 
#
#######################################################################
#
# If this CIF has been generated from an entry in the Cambridge 
# Structural Database, then it will include bibliographic, chemical, 
# crystal, experimental, refinement or atomic coordinate data resulting 
# from the CCDC's data processing and validation procedures.
#
#######################################################################

data_NIPHSS01
_chemical_formula_moiety         'C12 H8 N2 O4 S2'
_chemical_name_systematic        bis(4-Nitrophenyl)disulfide
_symmetry_cell_setting           monoclinic
_symmetry_space_group_name_H-M   'C 2/c'
_symmetry_Int_Tables_number      15
_space_group_name_Hall           '-C 2yn'
loop_
_symmetry_equiv_pos_site_id
_symmetry_equiv_pos_as_xyz
1 x,y,z
2 1/2+x,1/2+y,z
3 -x,y,1/2-z
4 1/2-x,1/2+y,1/2-z
5 -x,-y,-z
6 1/2-x,1/2-y,-z
7 x,-y,1/2+z
8 1/2+x,1/2-y,1/2+z
_cell_length_a                   7.1167(7)
_cell_length_b                   14.1692(15)
_cell_length_c                   12.6473(14)
_cell_angle_alpha                90
_cell_angle_beta                 93.753(4)
_cell_angle_gamma                90
_cell_volume                     1272.59
_exptl_crystal_colour            yellow
_exptl_crystal_description       plate
_cell_formula_units_Z            4
_exptl_crystal_recrystallization_method ethanol
loop_
_atom_site_label
_atom_site_type_symbol
_atom_site_fract_x
_atom_site_fract_y
_atom_site_fract_z
S1 S 0.07390(8) 0.19515(4) 0.32141(4)
C1 C -0.0343(3) 0.28198(15) 0.39887(16)
C2 C 0.0035(3) 0.27414(16) 0.50782(16)
C3 C -0.0640(3) 0.34088(17) 0.57459(17)
C4 C -0.1712(3) 0.41457(15) 0.53141(16)
N1 N -0.2422(3) 0.48575(14) 0.60274(15)
O1 O -0.2200(2) 0.47221(12) 0.69860(13)
O2 O -0.3195(3) 0.55602(13) 0.56369(14)
C5 C -0.2122(3) 0.42328(16) 0.42358(17)
C6 C -0.1435(3) 0.35602(16) 0.35704(17)
H1 H 0.0760 0.2226 0.5361
H2 H -0.0376 0.3365 0.6490
H3 H -0.2862 0.4745 0.3957
H4 H -0.1709 0.3604 0.2827
S1B S -0.07390(8) 0.19515(4) 0.17859(4)
C1B C 0.0343(3) 0.28198(15) 0.10113(16)
C2B C -0.0035(3) 0.27414(16) -0.00782(16)
C3B C 0.0640(3) 0.34088(17) -0.07459(17)
C4B C 0.1712(3) 0.41457(15) -0.03141(16)
N1B N 0.2422(3) 0.48575(14) -0.10274(15)
O1B O 0.2200(2) 0.47221(12) -0.19860(13)
O2B O 0.3195(3) 0.55602(13) -0.06369(14)
C5B C 0.2122(3) 0.42328(16) 0.07642(17)
C6B C 0.1435(3) 0.35602(16) 0.14296(17)
H4B H 0.1709 0.3604 0.2173
H3B H 0.2862 0.4745 0.1043
H2B H 0.0376 0.3365 -0.1490
H1B H -0.0760 0.2226 -0.0361
loop_
_geom_bond_atom_site_label_1
_geom_bond_atom_site_label_2
_geom_bond_site_symmetry_1
_geom_bond_site_symmetry_2
S1 C1 1_555 1_555
C1 C2 1_555 1_555
C2 C3 1_555 1_555
C3 C4 1_555 1_555
C4 N1 1_555 1_555
N1 O1 1_555 1_555
O2 N1 1_555 1_555
C5 C4 1_555 1_555
C6 C1 1_555 1_555
H1 C2 1_555 1_555
H2 C3 1_555 1_555
H3 C5 1_555 1_555
H4 C6 1_555 1_555
S1B S1 1_555 1_555
C1B S1B 1_555 1_555
C2B C1B 1_555 1_555
C3B C2B 1_555 1_555
C4B C3B 1_555 1_555
N1B C4B 1_555 1_555
O1B N1B 1_555 1_555
O2B N1B 1_555 1_555
C5B C4B 1_555 1_555
C6B C1B 1_555 1_555
H4B C6B 1_555 1_555
H3B C5B 1_555 1_555
H2B C3B 1_555 1_555
H1B C2B 1_555 1_555
C5 C6 1_555 1_555
C5B C6B 1_555 1_555

#END
