
#######################################################################
#
#                 Cambridge Crystallographic Data Centre
#                                CCDC 
#
#######################################################################
#
# If this CIF has been generated from an entry in the Cambridge 
# Structural Database, then it will include bibliographic, chemical, 
# crystal, experimental, refinement or atomic coordinate data resulting 
# from the CCDC's data processing and validation procedures.
#
#######################################################################

data_NIPJOO
_chemical_formula_moiety         'C19 H29 Br1 O2,0.5(C1 H4 O1)'
_chemical_name_systematic        
'16-bromo-3-hydroxyandrostan-17-one methanol solvate'
_symmetry_cell_setting           monoclinic
_symmetry_space_group_name_H-M   'P 21'
_symmetry_Int_Tables_number      4
_space_group_name_Hall           'P 2yb'
loop_
_symmetry_equiv_pos_site_id
_symmetry_equiv_pos_as_xyz
1 x,y,z
2 -x,1/2+y,-z
_cell_length_a                   19.9813(4)
_cell_length_b                   6.15720(10)
_cell_length_c                   30.4028(6)
_cell_angle_alpha                90
_cell_angle_beta                 92.093(2)
_cell_angle_gamma                90
_cell_volume                     3737.93
_exptl_crystal_colour            colorless
_exptl_crystal_description       needle
_cell_formula_units_Z            8
loop_
_atom_site_label
_atom_site_type_symbol
_atom_site_fract_x
_atom_site_fract_y
_atom_site_fract_z
Br1 Br 0.48681(3) 0.54260(11) 0.07198(2)
O1 O 0.5947(2) 0.4689(7) -0.00157(15)
O2 O 0.9310(2) -0.1638(8) 0.26059(15)
H1 H 0.942970 -0.285201 0.251023
C1 C 0.5294(3) 0.2729(10) 0.0522(2)
H2 H 0.497482 0.190131 0.032478
C2 C 0.5915(3) 0.3349(10) 0.0272(2)
C3 C 0.6489(3) 0.1961(10) 0.0464(2)
C4 C 0.6284(3) 0.1744(10) 0.09409(19)
H3 H 0.634463 0.320466 0.108049
C5 C 0.5528(3) 0.1309(10) 0.0905(2)
H4 H 0.543416 -0.024215 0.084312
H5 H 0.530778 0.173169 0.117873
C6 C 0.6740(3) 0.0167(12) 0.12001(19)
H6 H 0.672564 -0.128029 0.105083
C7 C 0.7469(3) 0.1058(10) 0.11994(19)
H7 H 0.746026 0.248470 0.135646
C8 C 0.7689(3) 0.1564(12) 0.0727(2)
H8 H 0.812119 0.234974 0.074566
H9 H 0.776401 0.017533 0.057188
C9 C 0.7184(3) 0.2923(11) 0.0452(2)
H10 H 0.717678 0.442467 0.056814
H11 H 0.732480 0.298631 0.014346
C10 C 0.7968(3) -0.0399(10) 0.1470(2)
C11 C 0.7702(3) -0.0618(10) 0.1940(2)
H12 H 0.766608 0.089715 0.205559
C12 C 0.8187(3) -0.1795(10) 0.2256(2)
H13 H 0.799413 -0.187250 0.255061
H14 H 0.825515 -0.329760 0.215064
C13 C 0.8856(3) -0.0633(11) 0.2290(2)
H15 H 0.876873 0.087346 0.239649
C14 C 0.9147(3) -0.0438(11) 0.1839(2)
H16 H 0.925246 -0.190610 0.172815
H17 H 0.957079 0.039509 0.186343
C15 C 0.8668(3) 0.0689(12) 0.1510(2)
H18 H 0.886909 0.068924 0.121696
H19 H 0.861250 0.222055 0.160074
C16 C 0.6997(3) -0.1553(11) 0.1942(2)
H20 H 0.684901 -0.165854 0.224830
H21 H 0.699552 -0.303191 0.181419
C17 C 0.6514(3) -0.0103(12) 0.1674(2)
H22 H 0.649026 0.134046 0.181577
H23 H 0.606041 -0.075133 0.166963
C18 C 0.8041(3) -0.2611(11) 0.1252(2)
H24 H 0.826167 -0.243853 0.097208
H25 H 0.759627 -0.325339 0.119870
H26 H 0.831019 -0.356462 0.144658
C19 C 0.6448(3) -0.0192(11) 0.0198(2)
H27 H 0.679636 -0.119100 0.030908
H28 H 0.651372 0.011287 -0.011350
H29 H 0.600660 -0.085640 0.023155
Br2 Br 0.39251(3) 0.50988(12) 0.52463(2)
O3 O 0.4722(2) 0.4233(8) 0.43597(15)
O4 O 0.0121(2) 1.1327(8) 0.29892(15)
H30 H -0.012667 1.041744 0.285677
C20 C 0.4350(3) 0.7126(11) 0.4841(2)
H31 H 0.479768 0.761052 0.496079
C21 C 0.4413(3) 0.5888(10) 0.4403(2)
C22 C 0.4016(3) 0.7129(10) 0.4045(2)
C23 C 0.3488(3) 0.8252(10) 0.4323(2)
H32 H 0.319312 0.706459 0.442914
C24 C 0.3897(3) 0.9061(10) 0.4735(2)
H33 H 0.416114 1.037143 0.466714
H34 H 0.360136 0.938604 0.498061
C25 C 0.3033(3) 0.9760(10) 0.4056(2)
H35 H 0.331484 1.086787 0.390876
C26 C 0.2671(3) 0.8354(10) 0.36973(19)
H36 H 0.241885 0.722001 0.385874
C27 C 0.3172(3) 0.7121(10) 0.3419(2)
H37 H 0.342906 0.817988 0.324774
H38 H 0.292221 0.617265 0.320777
C28 C 0.3664(3) 0.5726(10) 0.3698(2)
H39 H 0.341765 0.454084 0.384139
H40 H 0.399792 0.506315 0.350617
C29 C 0.2135(3) 0.9650(10) 0.3418(2)
C30 C 0.1643(3) 1.0700(10) 0.3742(2)
H41 H 0.145542 0.947518 0.391513
C31 C 0.1044(3) 1.1803(11) 0.3508(2)
H42 H 0.074095 1.239103 0.372895
H43 H 0.120289 1.303057 0.332902
C32 C 0.0665(3) 1.0220(13) 0.3214(2)
H44 H 0.047441 0.905958 0.340242
C33 C 0.1116(3) 0.9157(11) 0.2888(2)
H45 H 0.127562 1.026837 0.268107
H46 H 0.085775 0.805901 0.271529
C34 C 0.1719(3) 0.8065(11) 0.3120(2)
H47 H 0.201171 0.744943 0.289569
H48 H 0.155939 0.684874 0.330175
C35 C 0.2004(3) 1.2173(11) 0.4076(2)
H49 H 0.221676 1.338926 0.391960
H50 H 0.167610 1.279355 0.427691
C36 C 0.2536(3) 1.0926(10) 0.4341(2)
H51 H 0.231304 0.984431 0.452673
H52 H 0.278237 1.194884 0.453845
C37 C 0.4517(3) 0.8691(11) 0.3842(2)
H53 H 0.427787 0.968552 0.363994
H54 H 0.484628 0.785797 0.368033
H55 H 0.474810 0.952716 0.407627
C38 C 0.2471(3) 1.1358(10) 0.3128(2)
H56 H 0.270569 1.062325 0.289255
H57 H 0.279318 1.220518 0.330833
H58 H 0.212922 1.232904 0.299865
Br3 Br -0.02463(3) 0.51081(13) 0.09631(3)
O5 O 0.0741(3) 0.5752(9) 0.01687(18)
O6 O 0.4305(2) -0.1321(8) 0.25184(16)
H59 H 0.454914 -0.037294 0.264145
C39 C 0.0175(4) 0.2950(11) 0.0582(2)
H60 H -0.015094 0.241180 0.034972
C40 C 0.0774(4) 0.4090(12) 0.0374(2)
C41 C 0.1388(3) 0.2719(11) 0.0483(2)
C42 C 0.1210(3) 0.1742(10) 0.09248(19)
H61 H 0.120879 0.298241 0.113716
C43 C 0.0472(3) 0.1046(11) 0.0856(2)
H62 H 0.024985 0.089928 0.114026
H63 H 0.043370 -0.034290 0.069294
C44 C 0.1740(3) 0.0159(12) 0.11050(19)
H64 H 0.180187 -0.101217 0.088226
C45 C 0.2409(3) 0.1447(10) 0.1165(2)
H65 H 0.231321 0.266996 0.136969
C46 C 0.2596(3) 0.2511(11) 0.0730(2)
H66 H 0.269457 0.136102 0.051417
H67 H 0.300846 0.338262 0.078030
C47 C 0.2037(3) 0.3987(11) 0.0537(2)
H68 H 0.197185 0.523889 0.073473
H69 H 0.216703 0.455200 0.024711
C48 C 0.2974(3) 0.0117(12) 0.13936(19)
C49 C 0.2712(3) -0.0781(11) 0.1829(2)
H70 H 0.255978 0.051636 0.199582
C50 C 0.3254(3) -0.1864(11) 0.2125(2)
H71 H 0.305443 -0.236622 0.240068
H72 H 0.343524 -0.314697 0.197356
C51 C 0.3816(3) -0.0290(11) 0.2235(2)
H73 H 0.362591 0.097472 0.239473
C52 C 0.4116(3) 0.0547(13) 0.1811(2)
H74 H 0.447490 0.160746 0.188488
H75 H 0.431808 -0.068013 0.165205
C53 C 0.3582(3) 0.1628(11) 0.1513(2)
H76 H 0.378879 0.209683 0.123733
H77 H 0.341624 0.294337 0.166121
C54 C 0.2094(3) -0.2188(11) 0.1757(2)
H78 H 0.194842 -0.274416 0.204358
H79 H 0.220307 -0.344835 0.157053
C55 C 0.1527(3) -0.0890(12) 0.1535(2)
H80 H 0.138111 0.025772 0.173851
H81 H 0.114095 -0.186375 0.147233
C56 C 0.1419(4) 0.1045(12) 0.0106(2)
H82 H 0.149954 0.179895 -0.017070
H83 H 0.099349 0.025650 0.007988
H84 H 0.178400 0.001719 0.017073
C57 C 0.3221(3) -0.1698(11) 0.1092(2)
H85 H 0.346215 -0.105567 0.084889
H86 H 0.283670 -0.252735 0.097353
H87 H 0.352207 -0.266772 0.126135
Br4 Br 0.90131(4) 0.17449(14) 0.52403(3)
O7 O 0.4903(2) 0.1980(9) 0.29419(17)
H88 H 0.490443 0.300566 0.275979
C58 C 0.9265(4) 0.3982(13) 0.4812(2)
H89 H 0.962984 0.494784 0.493320
C59 C 0.9484(3) 0.2710(13) 0.4400(2)
C60 C 0.8990(3) 0.3226(12) 0.4018(2)
C61 C 0.8368(3) 0.3883(11) 0.4269(2)
H90 H 0.821123 0.251370 0.440899
C62 C 0.8646(3) 0.5285(13) 0.4652(2)
H91 H 0.831758 0.542565 0.488651
H92 H 0.877208 0.675142 0.455007
C63 C 0.7786(3) 0.4621(11) 0.3973(2)
H93 H 0.792949 0.589660 0.379643
C64 C 0.7601(3) 0.2714(11) 0.3656(2)
H94 H 0.747369 0.147323 0.384809
C65 C 0.8218(3) 0.1952(12) 0.3411(2)
H95 H 0.809410 0.067070 0.322897
H96 H 0.835768 0.312079 0.321051
C66 C 0.8810(3) 0.1355(12) 0.3721(2)
H97 H 0.869228 0.007733 0.389992
H98 H 0.920097 0.096377 0.354588
C67 C 0.6976(3) 0.3189(10) 0.3354(2)
C68 C 0.6390(3) 0.3726(11) 0.3659(2)
H99 H 0.635236 0.244672 0.385962
C69 C 0.5707(3) 0.3923(11) 0.3416(2)
H100 H 0.535579 0.421202 0.362943
H101 H 0.571467 0.515428 0.320656
C70 C 0.5546(3) 0.1848(12) 0.3168(2)
H102 H 0.552518 0.064874 0.338917
C71 C 0.6096(3) 0.1280(12) 0.2851(2)
H103 H 0.599171 -0.012751 0.270704
H104 H 0.611378 0.240576 0.261910
C72 C 0.6775(3) 0.1136(11) 0.3095(2)
H105 H 0.712197 0.082865 0.287973
H106 H 0.676678 -0.010343 0.330263
C73 C 0.7182(3) 0.5281(13) 0.4242(2)
H107 H 0.709444 0.412081 0.445823
H108 H 0.729594 0.662016 0.440938
C74 C 0.9312(3) 0.5142(14) 0.3771(2)
H109 H 0.898775 0.573407 0.355330
H110 H 0.970802 0.462195 0.362121
H111 H 0.944556 0.627881 0.398201
C75 C 0.7111(3) 0.5043(12) 0.30309(19)
H112 H 0.743767 0.456263 0.281850
H113 H 0.729008 0.630108 0.319406
H114 H 0.669268 0.544944 0.287414
C76 C 0.6548(3) 0.5681(11) 0.3962(2)
H115 H 0.660498 0.699822 0.378043
H116 H 0.616752 0.593286 0.415552
O8 O 0.9969(2) 0.1558(10) 0.43898(17)
O9 O -0.0036(2) 0.4607(8) 0.24090(18)
H117 H 0.001232 0.373516 0.262030
C77 C 0.0526(4) 0.4466(13) 0.2137(3)
H118 H 0.051614 0.567812 0.192818
H119 H 0.051054 0.308966 0.197555
H120 H 0.093880 0.453479 0.232095
O10 O 0.4863(3) 0.5009(10) 0.23163(19)
H121 H 0.468679 0.618679 0.238993
C78 C 0.5354(3) 0.5414(15) 0.2021(3)
H122 H 0.567635 0.645551 0.214952
H123 H 0.514980 0.601897 0.175002
H124 H 0.558454 0.405610 0.195415
loop_
_geom_bond_atom_site_label_1
_geom_bond_atom_site_label_2
_geom_bond_site_symmetry_1
_geom_bond_site_symmetry_2
Br1 C1 1_555 1_555
O1 C2 1_555 1_555
O2 H1 1_555 1_555
C1 H2 1_555 1_555
C2 C1 1_555 1_555
C3 C2 1_555 1_555
C4 C3 1_555 1_555
H3 C4 1_555 1_555
C5 C1 1_555 1_555
H4 C5 1_555 1_555
H5 C5 1_555 1_555
C6 C4 1_555 1_555
H6 C6 1_555 1_555
C7 C6 1_555 1_555
H7 C7 1_555 1_555
C8 C7 1_555 1_555
H8 C8 1_555 1_555
H9 C8 1_555 1_555
C9 C3 1_555 1_555
H10 C9 1_555 1_555
H11 C9 1_555 1_555
C10 C7 1_555 1_555
C11 C10 1_555 1_555
H12 C11 1_555 1_555
C12 C11 1_555 1_555
H13 C12 1_555 1_555
H14 C12 1_555 1_555
C13 O2 1_555 1_555
H15 C13 1_555 1_555
C14 C13 1_555 1_555
H16 C14 1_555 1_555
H17 C14 1_555 1_555
C15 C10 1_555 1_555
H18 C15 1_555 1_555
H19 C15 1_555 1_555
C16 C11 1_555 1_555
H20 C16 1_555 1_555
H21 C16 1_555 1_555
C17 C6 1_555 1_555
H22 C17 1_555 1_555
H23 C17 1_555 1_555
C18 C10 1_555 1_555
H24 C18 1_555 1_555
H25 C18 1_555 1_555
H26 C18 1_555 1_555
C19 C3 1_555 1_555
H27 C19 1_555 1_555
H28 C19 1_555 1_555
H29 C19 1_555 1_555
Br2 C20 1_555 1_555
O3 C21 1_555 1_555
O4 H30 1_555 1_555
C20 H31 1_555 1_555
C21 C20 1_555 1_555
C22 C21 1_555 1_555
C23 C22 1_555 1_555
H32 C23 1_555 1_555
C24 C20 1_555 1_555
H33 C24 1_555 1_555
H34 C24 1_555 1_555
C25 C23 1_555 1_555
H35 C25 1_555 1_555
C26 C25 1_555 1_555
H36 C26 1_555 1_555
C27 C26 1_555 1_555
H37 C27 1_555 1_555
H38 C27 1_555 1_555
C28 C22 1_555 1_555
H39 C28 1_555 1_555
H40 C28 1_555 1_555
C29 C26 1_555 1_555
C30 C29 1_555 1_555
H41 C30 1_555 1_555
C31 C30 1_555 1_555
H42 C31 1_555 1_555
H43 C31 1_555 1_555
C32 O4 1_555 1_555
H44 C32 1_555 1_555
C33 C32 1_555 1_555
H45 C33 1_555 1_555
H46 C33 1_555 1_555
C34 C29 1_555 1_555
H47 C34 1_555 1_555
H48 C34 1_555 1_555
C35 C30 1_555 1_555
H49 C35 1_555 1_555
H50 C35 1_555 1_555
C36 C25 1_555 1_555
H51 C36 1_555 1_555
H52 C36 1_555 1_555
C37 C22 1_555 1_555
H53 C37 1_555 1_555
H54 C37 1_555 1_555
H55 C37 1_555 1_555
C38 C29 1_555 1_555
H56 C38 1_555 1_555
H57 C38 1_555 1_555
H58 C38 1_555 1_555
Br3 C39 1_555 1_555
O5 C40 1_555 1_555
O6 H59 1_555 1_555
C39 H60 1_555 1_555
C40 C39 1_555 1_555
C41 C40 1_555 1_555
C42 C41 1_555 1_555
H61 C42 1_555 1_555
C43 C39 1_555 1_555
H62 C43 1_555 1_555
H63 C43 1_555 1_555
C44 C42 1_555 1_555
H64 C44 1_555 1_555
C45 C44 1_555 1_555
H65 C45 1_555 1_555
C46 C45 1_555 1_555
H66 C46 1_555 1_555
H67 C46 1_555 1_555
C47 C41 1_555 1_555
H68 C47 1_555 1_555
H69 C47 1_555 1_555
C48 C45 1_555 1_555
C49 C48 1_555 1_555
H70 C49 1_555 1_555
C50 C49 1_555 1_555
H71 C50 1_555 1_555
H72 C50 1_555 1_555
C51 O6 1_555 1_555
H73 C51 1_555 1_555
C52 C51 1_555 1_555
H74 C52 1_555 1_555
H75 C52 1_555 1_555
C53 C48 1_555 1_555
H76 C53 1_555 1_555
H77 C53 1_555 1_555
C54 C49 1_555 1_555
H78 C54 1_555 1_555
H79 C54 1_555 1_555
C55 C44 1_555 1_555
H80 C55 1_555 1_555
H81 C55 1_555 1_555
C56 C41 1_555 1_555
H82 C56 1_555 1_555
H83 C56 1_555 1_555
H84 C56 1_555 1_555
C57 C48 1_555 1_555
H85 C57 1_555 1_555
H86 C57 1_555 1_555
H87 C57 1_555 1_555
Br4 C58 1_555 1_555
O7 H88 1_555 1_555
C58 H89 1_555 1_555
C59 C58 1_555 1_555
C60 C59 1_555 1_555
C61 C60 1_555 1_555
H90 C61 1_555 1_555
C62 C58 1_555 1_555
H91 C62 1_555 1_555
H92 C62 1_555 1_555
C63 C61 1_555 1_555
H93 C63 1_555 1_555
C64 C63 1_555 1_555
H94 C64 1_555 1_555
C65 C64 1_555 1_555
H95 C65 1_555 1_555
H96 C65 1_555 1_555
C66 C60 1_555 1_555
H97 C66 1_555 1_555
H98 C66 1_555 1_555
C67 C64 1_555 1_555
C68 C67 1_555 1_555
H99 C68 1_555 1_555
C69 C68 1_555 1_555
H100 C69 1_555 1_555
H101 C69 1_555 1_555
C70 O7 1_555 1_555
H102 C70 1_555 1_555
C71 C70 1_555 1_555
H103 C71 1_555 1_555
H104 C71 1_555 1_555
C72 C67 1_555 1_555
H105 C72 1_555 1_555
H106 C72 1_555 1_555
C73 C63 1_555 1_555
H107 C73 1_555 1_555
H108 C73 1_555 1_555
C74 C60 1_555 1_555
H109 C74 1_555 1_555
H110 C74 1_555 1_555
H111 C74 1_555 1_555
C75 C67 1_555 1_555
H112 C75 1_555 1_555
H113 C75 1_555 1_555
H114 C75 1_555 1_555
C76 C68 1_555 1_555
H115 C76 1_555 1_555
H116 C76 1_555 1_555
O8 C59 1_555 1_555
O9 H117 1_555 1_555
C77 O9 1_555 1_555
H118 C77 1_555 1_555
H119 C77 1_555 1_555
H120 C77 1_555 1_555
O10 H121 1_555 1_555
C78 O10 1_555 1_555
H122 C78 1_555 1_555
H123 C78 1_555 1_555
H124 C78 1_555 1_555
C4 C5 1_555 1_555
C8 C9 1_555 1_555
C12 C13 1_555 1_555
C14 C15 1_555 1_555
C16 C17 1_555 1_555
C23 C24 1_555 1_555
C27 C28 1_555 1_555
C31 C32 1_555 1_555
C33 C34 1_555 1_555
C35 C36 1_555 1_555
C42 C43 1_555 1_555
C46 C47 1_555 1_555
C50 C51 1_555 1_555
C52 C53 1_555 1_555
C54 C55 1_555 1_555
C61 C62 1_555 1_555
C65 C66 1_555 1_555
C69 C70 1_555 1_555
C71 C72 1_555 1_555
C73 C76 1_555 1_555

#END
