
#######################################################################
#
#                 Cambridge Crystallographic Data Centre
#                                CCDC 
#
#######################################################################
#
# If this CIF has been generated from an entry in the Cambridge 
# Structural Database, then it will include bibliographic, chemical, 
# crystal, experimental, refinement or atomic coordinate data resulting 
# from the CCDC's data processing and validation procedures.
#
#######################################################################

data_NIPJUS
_chemical_formula_moiety         'C26 H25 N3'
_chemical_name_systematic        
(2-(((2,6-Dimethylphenyl)imino)methyl)phenyl)(2,4-dimethylquinolin-7-yl)amine
_symmetry_cell_setting           monoclinic
_symmetry_space_group_name_H-M   'P 21/c'
_symmetry_Int_Tables_number      14
_space_group_name_Hall           '-P 2ybc'
loop_
_symmetry_equiv_pos_site_id
_symmetry_equiv_pos_as_xyz
1 x,y,z
2 -x,1/2+y,1/2-z
3 -x,-y,-z
4 x,1/2-y,1/2+z
_cell_length_a                   17.371(4)
_cell_length_b                   8.4558(17)
_cell_length_c                   15.347(3)
_cell_angle_alpha                90
_cell_angle_beta                 107.62(3)
_cell_angle_gamma                90
_cell_volume                     2148.5
_exptl_crystal_colour            yellow
_exptl_crystal_description       block
_cell_formula_units_Z            4
_exptl_crystal_recrystallization_method 'ethyl acetate/petroleum ether'
_exptl_crystal_preparation       fluorescent
loop_
_atom_site_label
_atom_site_type_symbol
_atom_site_fract_x
_atom_site_fract_y
_atom_site_fract_z
N1 N 0.31324(8) 0.81185(17) 0.75057(10)
N2 N 0.20125(9) 0.61254(18) 0.64947(11)
N3 N 0.27613(9) 0.31284(17) 0.42716(10)
C1 C 0.17136(10) 0.82526(19) 0.73732(12)
C2 C 0.11442(11) 0.9126(2) 0.76339(15)
H1 H 0.1317 0.9965 0.8038
C3 C 0.03320(12) 0.8791(3) 0.73145(17)
H2 H -0.0039 0.9382 0.7505
C4 C 0.00807(12) 0.7563(3) 0.67071(16)
H3 H -0.0467 0.7329 0.6483
C5 C 0.06218(10) 0.6675(2) 0.64248(14)
H4 H 0.0435 0.5864 0.6004
C6 C 0.14499(10) 0.6974(2) 0.67610(12)
C7 C 0.18997(10) 0.4744(2) 0.59644(12)
C8 C 0.23103(10) 0.4594(2) 0.53396(12)
H5 H 0.2606 0.5450 0.5232
C9 C 0.22995(10) 0.31810(19) 0.48526(11)
C10 C 0.18236(10) 0.18982(19) 0.49856(12)
C11 C 0.14014(11) 0.2085(2) 0.56321(13)
H6 H 0.1088 0.1253 0.5732
C12 C 0.14406(11) 0.3452(2) 0.61154(14)
H7 H 0.1164 0.3534 0.6546
C13 C 0.27508(12) 0.1808(2) 0.38090(13)
C14 C 0.22754(12) 0.0496(2) 0.38887(14)
H8 H 0.2277 -0.0400 0.3537
C15 C 0.18154(11) 0.0501(2) 0.44636(13)
C16 C 0.32799(15) 0.1756(3) 0.31993(17)
H9 H 0.3006 0.2248 0.2625
H10 H 0.3399 0.0675 0.3097
H11 H 0.3774 0.2311 0.3485
C17 C 0.13204(15) -0.0914(2) 0.45554(17)
H12 H 0.1344 -0.1696 0.4111
H13 H 0.0770 -0.0597 0.4456
H14 H 0.1532 -0.1350 0.5158
C18 C 0.25516(10) 0.8758(2) 0.77181(12)
H15 H 0.2671 0.9608 0.8122
C19 C 0.39242(10) 0.87794(19) 0.78528(13)
C20 C 0.44035(11) 0.8472(2) 0.87382(14)
C21 C 0.51884(12) 0.9070(3) 0.90053(16)
H16 H 0.5526 0.8878 0.9594
C22 C 0.54686(13) 0.9939(3) 0.84093(19)
H17 H 0.5993 1.0334 0.8598
C23 C 0.49885(13) 1.0227(3) 0.75486(18)
H18 H 0.5187 1.0827 0.7156
C24 C 0.42107(11) 0.9649(2) 0.72424(14)
C25 C 0.41084(16) 0.7509(3) 0.93926(16)
H19 H 0.3669 0.8051 0.9521
H20 H 0.4540 0.7364 0.9950
H21 H 0.3926 0.6497 0.9126
C26 C 0.36862(14) 0.9972(3) 0.62854(17)
H22 H 0.3484 0.8991 0.5989
H23 H 0.3998 1.0499 0.5952
H24 H 0.3242 1.0632 0.6303
H25 H 0.2527(13) 0.658(2) 0.6678(15)
loop_
_geom_bond_atom_site_label_1
_geom_bond_atom_site_label_2
_geom_bond_site_symmetry_1
_geom_bond_site_symmetry_2
N1 C18 1_555 1_555
N2 C6 1_555 1_555
N3 C9 1_555 1_555
C1 C2 1_555 1_555
C2 H1 1_555 1_555
C3 C2 1_555 1_555
H2 C3 1_555 1_555
C4 C3 1_555 1_555
H3 C4 1_555 1_555
C5 C4 1_555 1_555
H4 C5 1_555 1_555
C6 C1 1_555 1_555
C7 N2 1_555 1_555
C8 C7 1_555 1_555
H5 C8 1_555 1_555
C9 C8 1_555 1_555
C10 C9 1_555 1_555
C11 C10 1_555 1_555
H6 C11 1_555 1_555
C12 C7 1_555 1_555
H7 C12 1_555 1_555
C13 N3 1_555 1_555
C14 C13 1_555 1_555
H8 C14 1_555 1_555
C15 C10 1_555 1_555
C16 C13 1_555 1_555
H9 C16 1_555 1_555
H10 C16 1_555 1_555
H11 C16 1_555 1_555
C17 C15 1_555 1_555
H12 C17 1_555 1_555
H13 C17 1_555 1_555
H14 C17 1_555 1_555
C18 C1 1_555 1_555
H15 C18 1_555 1_555
C19 N1 1_555 1_555
C20 C19 1_555 1_555
C21 C20 1_555 1_555
H16 C21 1_555 1_555
C22 C21 1_555 1_555
H17 C22 1_555 1_555
C23 C22 1_555 1_555
H18 C23 1_555 1_555
C24 C19 1_555 1_555
C25 C20 1_555 1_555
H19 C25 1_555 1_555
H20 C25 1_555 1_555
H21 C25 1_555 1_555
C26 C24 1_555 1_555
H22 C26 1_555 1_555
H23 C26 1_555 1_555
H24 C26 1_555 1_555
H25 N2 1_555 1_555
C5 C6 1_555 1_555
C11 C12 1_555 1_555
C14 C15 1_555 1_555
C23 C24 1_555 1_555

#END
