
#######################################################################
#
#                 Cambridge Crystallographic Data Centre
#                                CCDC 
#
#######################################################################
#
# If this CIF has been generated from an entry in the Cambridge 
# Structural Database, then it will include bibliographic, chemical, 
# crystal, experimental, refinement or atomic coordinate data resulting 
# from the CCDC's data processing and validation procedures.
#
#######################################################################

data_NIPKAZ
_chemical_formula_moiety         'C28 H29 N3'
_chemical_name_systematic        
(2-(((2,6-Diethylphenyl)imino)methyl)phenyl)(2,4-dimethylquinolin-7-yl)amine
_symmetry_cell_setting           triclinic
_symmetry_space_group_name_H-M   'P -1'
_symmetry_Int_Tables_number      2
_space_group_name_Hall           '-P 1'
loop_
_symmetry_equiv_pos_site_id
_symmetry_equiv_pos_as_xyz
1 x,y,z
2 -x,-y,-z
_cell_length_a                   9.989(2)
_cell_length_b                   13.204(3)
_cell_length_c                   18.038(4)
_cell_angle_alpha                75.85(3)
_cell_angle_beta                 87.79(3)
_cell_angle_gamma                88.84(3)
_cell_volume                     2305.07
_exptl_crystal_colour            'light yellow'
_exptl_crystal_description       block
_cell_formula_units_Z            4
_exptl_crystal_recrystallization_method 'ethyl acetate/petroleum ether'
_exptl_crystal_preparation       fluorescent
loop_
_atom_site_label
_atom_site_type_symbol
_atom_site_fract_x
_atom_site_fract_y
_atom_site_fract_z
N1 N 1.7126(3) 0.96443(19) 0.21284(15)
H1 H 1.7363 0.9240 0.2554
N2 N 1.4257(3) 1.2587(2) 0.11145(15)
N3 N 1.7389(3) 0.75986(19) 0.28812(15)
C1 C 1.7636(3) 0.9370(2) 0.14781(19)
C2 C 1.7958(3) 0.8302(2) 0.15388(18)
C3 C 1.8423(4) 0.8005(3) 0.0887(2)
H3 H 1.8632 0.7306 0.0924
C4 C 1.8584(4) 0.8703(3) 0.0195(2)
H4 H 1.8860 0.8481 -0.0238
C5 C 1.8326(4) 0.9743(3) 0.0154(2)
H5 H 1.8461 1.0230 -0.0311
C6 C 1.7875(3) 1.0077(3) 0.0784(2)
H6 H 1.7729 1.0786 0.0744
C7 C 1.6291(3) 1.0475(2) 0.21962(17)
C8 C 1.5710(3) 1.1178(2) 0.16034(17)
H7 H 1.5918 1.1149 0.1102
C9 C 1.4803(3) 1.1944(2) 0.17462(18)
C10 C 1.4472(3) 1.2009(2) 0.24918(18)
C11 C 1.5095(3) 1.1281(2) 0.30961(19)
H8 H 1.4899 1.1307 0.3599
C12 C 1.5972(3) 1.0549(2) 0.29521(18)
H9 H 1.6371 1.0086 0.3359
C13 C 1.3395(4) 1.3296(3) 0.1233(2)
C14 C 1.3027(4) 1.3418(3) 0.1962(2)
H10 H 1.2411 1.3938 0.2010
C15 C 1.3545(3) 1.2798(3) 0.2599(2)
C16 C 1.2796(5) 1.3989(3) 0.0539(3)
H11 H 1.3308 1.4618 0.0378
H12 H 1.1888 1.4162 0.0659
H13 H 1.2807 1.3633 0.0134
C17 C 1.3150(4) 1.2931(3) 0.3378(2)
H14 H 1.3923 1.3112 0.3616
H15 H 1.2786 1.2289 0.3683
H16 H 1.2487 1.3477 0.3334
C18 C 1.7803(3) 0.7481(2) 0.2234(2)
H17 H 1.8027 0.6805 0.2203
C19 C 1.7270(3) 0.6711(2) 0.35094(18)
C20 C 1.6302(3) 0.5955(2) 0.3525(2)
C21 C 1.6226(4) 0.5131(3) 0.4178(2)
H18 H 1.5590 0.4617 0.4207
C22 C 1.7057(4) 0.5052(3) 0.4777(2)
H19 H 1.6994 0.4485 0.5200
C23 C 1.7987(4) 0.5819(3) 0.4747(2)
H20 H 1.8547 0.5767 0.5155
C24 C 1.8103(3) 0.6662(2) 0.41237(18)
C25 C 1.5341(4) 0.6018(3) 0.2897(3)
H21 H 1.5339 0.6725 0.2577
H22 H 1.4447 0.5876 0.3123
C26 C 1.5662(5) 0.5272(4) 0.2402(3)
H23 H 1.6495 0.5463 0.2124
H24 H 1.4960 0.5303 0.2048
H25 H 1.5735 0.4575 0.2718
C27 C 1.9080(3) 0.7536(2) 0.40818(19)
H26 H 1.9674 0.7579 0.3637
H27 H 1.8578 0.8188 0.4002
C28 C 1.9925(4) 0.7439(3) 0.4771(2)
H28 H 1.9353 0.7358 0.5221
H29 H 2.0451 0.8057 0.4708
H30 H 2.0508 0.6841 0.4823
N4 N 1.1898(3) 0.69845(19) 0.22899(14)
H2 H 1.1838 0.7276 0.2668
N5 N 0.9434(3) 0.46038(19) 0.12395(14)
N6 N 1.2354(3) 0.86004(18) 0.29227(15)
C29 C 1.2796(3) 0.7437(2) 0.17105(16)
C30 C 1.3362(3) 0.8401(2) 0.17262(16)
C31 C 1.4297(3) 0.8852(3) 0.11554(19)
H31 H 1.4652 0.9497 0.1158
C32 C 1.4712(3) 0.8377(3) 0.05893(19)
H32 H 1.5340 0.8690 0.0213
C33 C 1.4179(3) 0.7432(3) 0.05918(19)
H33 H 1.4456 0.7099 0.0213
C34 C 1.3245(3) 0.6962(2) 0.11380(19)
H34 H 1.2908 0.6316 0.1125
C35 C 1.1075(3) 0.6127(2) 0.23567(17)
C36 C 1.0618(3) 0.5790(2) 0.17523(17)
H35 H 1.0859 0.6145 0.1255
C37 C 0.9787(3) 0.4907(2) 0.18759(17)
C38 C 0.9389(3) 0.4378(2) 0.26206(17)
C39 C 0.9819(3) 0.4768(2) 0.32309(17)
H36 H 0.9530 0.4452 0.3729
C40 C 1.0652(3) 0.5602(2) 0.31019(17)
H37 H 1.0949 0.5828 0.3516
C41 C 0.8684(4) 0.3767(2) 0.1348(2)
C42 C 0.8226(4) 0.3208(2) 0.2071(2)
H38 H 0.7683 0.2632 0.2112
C43 C 0.8557(3) 0.3488(2) 0.27169(19)
C44 C 0.8354(4) 0.3416(3) 0.0650(2)
H39 H 0.8845 0.3825 0.0214
H40 H 0.7411 0.3507 0.0568
H41 H 0.8594 0.2692 0.0719
C45 C 0.8067(4) 0.2882(3) 0.3488(2)
H42 H 0.7460 0.2354 0.3430
H43 H 0.7611 0.3345 0.3752
H44 H 0.8814 0.2558 0.3778
C46 C 1.3100(3) 0.8942(2) 0.23273(18)
H45 H 1.3506 0.9584 0.2275
C47 C 1.2250(3) 0.9198(2) 0.34828(17)
C48 C 1.3121(3) 0.8964(2) 0.40846(18)
C49 C 1.2930(4) 0.9491(3) 0.4655(2)
H46 H 1.3498 0.9353 0.5065
C50 C 1.1913(4) 1.0218(3) 0.4625(2)
H47 H 1.1802 1.0568 0.5013
C51 C 1.1072(4) 1.0425(3) 0.4033(2)
H48 H 1.0387 1.0915 0.4023
C52 C 1.1204(3) 0.9926(2) 0.3446(2)
C53 C 1.4186(4) 0.8129(3) 0.4107(2)
H49 H 1.3754 0.7502 0.4049
H50 H 1.4793 0.8359 0.3668
C54 C 1.4992(5) 0.7844(4) 0.4800(3)
H51 H 1.5479 0.8443 0.4849
H52 H 1.5611 0.7294 0.4759
H53 H 1.4410 0.7612 0.5243
C55 C 1.0248(4) 1.0152(3) 0.2809(2)
H54 H 0.9384 1.0341 0.3004
H55 H 1.0131 0.9521 0.2636
C56 C 1.0688(5) 1.1017(3) 0.2134(3)
H56 H 1.0801 1.1647 0.2299
H57 H 1.0021 1.1129 0.1753
H58 H 1.1523 1.0823 0.1922
loop_
_geom_bond_atom_site_label_1
_geom_bond_atom_site_label_2
_geom_bond_site_symmetry_1
_geom_bond_site_symmetry_2
N1 H1 1_555 1_555
N2 C9 1_555 1_555
N3 C18 1_555 1_555
N4 H2 1_555 1_555
N5 C37 1_555 1_555
N6 C46 1_555 1_555
C1 N1 1_555 1_555
C2 C1 1_555 1_555
C3 C2 1_555 1_555
H3 C3 1_555 1_555
C4 C3 1_555 1_555
H4 C4 1_555 1_555
C5 C4 1_555 1_555
H5 C5 1_555 1_555
C6 C1 1_555 1_555
H6 C6 1_555 1_555
C7 N1 1_555 1_555
C8 C7 1_555 1_555
H7 C8 1_555 1_555
C9 C8 1_555 1_555
C10 C9 1_555 1_555
C11 C10 1_555 1_555
H8 C11 1_555 1_555
C12 C7 1_555 1_555
H9 C12 1_555 1_555
C13 N2 1_555 1_555
C14 C13 1_555 1_555
H10 C14 1_555 1_555
C15 C10 1_555 1_555
C16 C13 1_555 1_555
H11 C16 1_555 1_555
H12 C16 1_555 1_555
H13 C16 1_555 1_555
C17 C15 1_555 1_555
H14 C17 1_555 1_555
H15 C17 1_555 1_555
H16 C17 1_555 1_555
C18 C2 1_555 1_555
H17 C18 1_555 1_555
C19 N3 1_555 1_555
C20 C19 1_555 1_555
C21 C20 1_555 1_555
H18 C21 1_555 1_555
C22 C21 1_555 1_555
H19 C22 1_555 1_555
C23 C22 1_555 1_555
H20 C23 1_555 1_555
C24 C19 1_555 1_555
C25 C20 1_555 1_555
H21 C25 1_555 1_555
H22 C25 1_555 1_555
C26 C25 1_555 1_555
H23 C26 1_555 1_555
H24 C26 1_555 1_555
H25 C26 1_555 1_555
C27 C24 1_555 1_555
H26 C27 1_555 1_555
H27 C27 1_555 1_555
C28 C27 1_555 1_555
H28 C28 1_555 1_555
H29 C28 1_555 1_555
H30 C28 1_555 1_555
C29 N4 1_555 1_555
C30 C29 1_555 1_555
C31 C30 1_555 1_555
H31 C31 1_555 1_555
C32 C31 1_555 1_555
H32 C32 1_555 1_555
C33 C32 1_555 1_555
H33 C33 1_555 1_555
C34 C29 1_555 1_555
H34 C34 1_555 1_555
C35 N4 1_555 1_555
C36 C35 1_555 1_555
H35 C36 1_555 1_555
C37 C36 1_555 1_555
C38 C37 1_555 1_555
C39 C38 1_555 1_555
H36 C39 1_555 1_555
C40 C35 1_555 1_555
H37 C40 1_555 1_555
C41 N5 1_555 1_555
C42 C41 1_555 1_555
H38 C42 1_555 1_555
C43 C38 1_555 1_555
C44 C41 1_555 1_555
H39 C44 1_555 1_555
H40 C44 1_555 1_555
H41 C44 1_555 1_555
C45 C43 1_555 1_555
H42 C45 1_555 1_555
H43 C45 1_555 1_555
H44 C45 1_555 1_555
C46 C30 1_555 1_555
H45 C46 1_555 1_555
C47 N6 1_555 1_555
C48 C47 1_555 1_555
C49 C48 1_555 1_555
H46 C49 1_555 1_555
C50 C49 1_555 1_555
H47 C50 1_555 1_555
C51 C50 1_555 1_555
H48 C51 1_555 1_555
C52 C47 1_555 1_555
C53 C48 1_555 1_555
H49 C53 1_555 1_555
H50 C53 1_555 1_555
C54 C53 1_555 1_555
H51 C54 1_555 1_555
H52 C54 1_555 1_555
H53 C54 1_555 1_555
C55 C52 1_555 1_555
H54 C55 1_555 1_555
H55 C55 1_555 1_555
C56 C55 1_555 1_555
H56 C56 1_555 1_555
H57 C56 1_555 1_555
H58 C56 1_555 1_555
C5 C6 1_555 1_555
C11 C12 1_555 1_555
C14 C15 1_555 1_555
C23 C24 1_555 1_555
C33 C34 1_555 1_555
C39 C40 1_555 1_555
C42 C43 1_555 1_555
C51 C52 1_555 1_555

#END
