
#######################################################################
#
#                 Cambridge Crystallographic Data Centre
#                                CCDC 
#
#######################################################################
#
# If this CIF has been generated from an entry in the Cambridge 
# Structural Database, then it will include bibliographic, chemical, 
# crystal, experimental, refinement or atomic coordinate data resulting 
# from the CCDC's data processing and validation procedures.
#
#######################################################################

data_NIPVUG
_chemical_formula_moiety         'C14 H18 N5 P1'
_chemical_name_systematic        
N,N-diethyl-2-(pyridin-2-yl)[1,2,4,3]triazaphospholo[4,5-a]pyridin-3(2H)-amine
_symmetry_cell_setting           monoclinic
_symmetry_space_group_name_H-M   'P 21/n'
_symmetry_Int_Tables_number      14
_space_group_name_Hall           '-P 2yn'
loop_
_symmetry_equiv_pos_site_id
_symmetry_equiv_pos_as_xyz
1 x,y,z
2 1/2-x,1/2+y,1/2-z
3 -x,-y,-z
4 1/2+x,1/2-y,1/2+z
_cell_length_a                   7.2939(3)
_cell_length_b                   20.1377(9)
_cell_length_c                   10.5394(5)
_cell_angle_alpha                90
_cell_angle_beta                 109.6180(10)
_cell_angle_gamma                90
_cell_volume                     1458.19
_exptl_crystal_colour            yellow
_exptl_crystal_description       prism
_cell_formula_units_Z            4
loop_
_atom_site_label
_atom_site_type_symbol
_atom_site_fract_x
_atom_site_fract_y
_atom_site_fract_z
P1 P 0.71828(4) 0.68251(2) 0.30030(3)
N1 N 0.54105(14) 0.57529(5) 0.36417(10)
N2 N 0.55282(14) 0.61718(5) 0.25974(10)
N3 N 0.92507(14) 0.65267(5) 0.29108(10)
N4 N 0.73035(14) 0.66382(5) 0.46586(10)
N5 N 0.47551(15) 0.63832(5) 0.03378(10)
C1 C 0.64046(16) 0.60391(6) 0.47662(11)
C2 C 0.66382(17) 0.57927(6) 0.60882(12)
H1 H 0.6045 0.5387 0.6198
C3 C 0.77108(18) 0.61440(6) 0.71754(12)
H2 H 0.7849 0.5986 0.8052
C4 C 0.86468(18) 0.67528(6) 0.70293(12)
H3 H 0.9408 0.6994 0.7802
C5 C 0.84332(17) 0.69784(6) 0.57854(12)
H4 H 0.9068 0.7376 0.5683
C6 C 0.45431(16) 0.59772(6) 0.12849(11)
C7 C 0.34055(18) 0.54002(6) 0.09853(12)
H5 H 0.3284 0.5124 0.1683
C8 C 0.24707(19) 0.52455(6) -0.03441(13)
H6 H 0.1697 0.4856 -0.0579
C9 C 0.2660(2) 0.56615(6) -0.13466(12)
H7 H 0.2021 0.5565 -0.2273
C10 C 0.38096(19) 0.62194(6) -0.09483(12)
H8 H 0.3938 0.6506 -0.1630
C11 C 1.03345(19) 0.69317(7) 0.22450(13)
H9 H 1.1746 0.6858 0.2700
H10 H 1.0062 0.7407 0.2347
C12 C 0.9818(2) 0.67735(7) 0.07553(13)
H11 H 1.0586 0.7056 0.0365
H12 H 0.8429 0.6857 0.0293
H13 H 1.0106 0.6306 0.0647
C13 C 1.00258(18) 0.58630(6) 0.33635(13)
H14 H 1.0701 0.5693 0.2757
H15 H 0.8929 0.5559 0.3295
C14 C 1.1433(2) 0.58550(8) 0.48012(13)
H16 H 1.2008 0.5412 0.5016
H17 H 1.0733 0.5967 0.5420
H18 H 1.2466 0.6182 0.4896
loop_
_geom_bond_atom_site_label_1
_geom_bond_atom_site_label_2
_geom_bond_site_symmetry_1
_geom_bond_site_symmetry_2
P1 N2 1_555 1_555
N1 N2 1_555 1_555
N2 C6 1_555 1_555
N3 P1 1_555 1_555
N4 P1 1_555 1_555
N5 C6 1_555 1_555
C1 N1 1_555 1_555
C2 C1 1_555 1_555
H1 C2 1_555 1_555
C3 C2 1_555 1_555
H2 C3 1_555 1_555
C4 C3 1_555 1_555
H3 C4 1_555 1_555
C5 N4 1_555 1_555
H4 C5 1_555 1_555
C6 C7 1_555 1_555
C7 H5 1_555 1_555
C8 C7 1_555 1_555
H6 C8 1_555 1_555
C9 C8 1_555 1_555
H7 C9 1_555 1_555
C10 N5 1_555 1_555
H8 C10 1_555 1_555
C11 N3 1_555 1_555
H9 C11 1_555 1_555
H10 C11 1_555 1_555
C12 C11 1_555 1_555
H11 C12 1_555 1_555
H12 C12 1_555 1_555
H13 C12 1_555 1_555
C13 N3 1_555 1_555
H14 C13 1_555 1_555
H15 C13 1_555 1_555
C14 C13 1_555 1_555
H16 C14 1_555 1_555
H17 C14 1_555 1_555
H18 C14 1_555 1_555
N4 C1 1_555 1_555
C4 C5 1_555 1_555
C9 C10 1_555 1_555

#END
