
#######################################################################
#
#                 Cambridge Crystallographic Data Centre
#                                CCDC 
#
#######################################################################
#
# If this CIF has been generated from an entry in the Cambridge 
# Structural Database, then it will include bibliographic, chemical, 
# crystal, experimental, refinement or atomic coordinate data resulting 
# from the CCDC's data processing and validation procedures.
#
#######################################################################

data_NIPWAN
_chemical_formula_moiety         'C10 H8 Br1 N4 P1'
_chemical_name_systematic        
3-bromo-2-(pyridin-2-yl)-2,3-dihydro[1,2,4,3]triazaphospholo[4,5-a]pyridine
_symmetry_cell_setting           monoclinic
_symmetry_space_group_name_H-M   'P 21/n'
_symmetry_Int_Tables_number      14
_space_group_name_Hall           '-P 2yn'
loop_
_symmetry_equiv_pos_site_id
_symmetry_equiv_pos_as_xyz
1 x,y,z
2 1/2-x,1/2+y,1/2-z
3 -x,-y,-z
4 1/2+x,1/2-y,1/2+z
_cell_length_a                   7.7949(7)
_cell_length_b                   9.2688(9)
_cell_length_c                   15.2413(15)
_cell_angle_alpha                90
_cell_angle_beta                 92.668(2)
_cell_angle_gamma                90
_cell_volume                     1099.98
_exptl_crystal_colour            yellow
_exptl_crystal_description       prism
_cell_formula_units_Z            4
loop_
_atom_site_label
_atom_site_type_symbol
_atom_site_fract_x
_atom_site_fract_y
_atom_site_fract_z
Br1 Br 0.54967(2) 0.08130(2) 0.36823(2)
P1 P 0.59089(4) 0.27584(4) 0.47540(2)
N1 N 0.79691(14) 0.24123(12) 0.51145(7)
N2 N 0.85316(15) 0.41111(12) 0.40750(8)
N3 N 0.67579(15) 0.40728(12) 0.41471(8)
N4 N 0.40547(15) 0.46616(13) 0.36162(8)
C1 C 0.84768(18) 0.13877(15) 0.57449(9)
H1 H 0.7640 0.0882 0.6058
C2 C 1.01573(19) 0.11195(15) 0.59064(9)
H2 H 1.0511 0.0445 0.6348
C3 C 1.14157(18) 0.18506(15) 0.54127(10)
H3 H 1.2597 0.1630 0.5519
C4 C 1.09522(17) 0.28496(15) 0.47987(9)
H4 H 1.1798 0.3333 0.4479
C5 C 0.91725(17) 0.31657(14) 0.46385(9)
C6 C 0.57192(17) 0.49695(14) 0.35999(8)
C7 C 0.64089(18) 0.60811(15) 0.31142(9)
H5 H 0.7613 0.6241 0.3112
C8 C 0.5256(2) 0.69454(15) 0.26321(9)
H6 H 0.5661 0.7731 0.2299
C9 C 0.3509(2) 0.66563(16) 0.26384(9)
H7 H 0.2703 0.7234 0.2310
C10 C 0.29693(19) 0.55034(16) 0.31350(10)
H8 H 0.1775 0.5299 0.3135
loop_
_geom_bond_atom_site_label_1
_geom_bond_atom_site_label_2
_geom_bond_site_symmetry_1
_geom_bond_site_symmetry_2
Br1 P1 1_555 1_555
P1 N1 1_555 1_555
N1 C1 1_555 1_555
N2 N3 1_555 1_555
N3 P1 1_555 1_555
N4 C6 1_555 1_555
C1 H1 1_555 1_555
C2 C1 1_555 1_555
H2 C2 1_555 1_555
C3 C2 1_555 1_555
H3 C3 1_555 1_555
C4 C3 1_555 1_555
H4 C4 1_555 1_555
C5 N1 1_555 1_555
C6 N3 1_555 1_555
C7 C6 1_555 1_555
H5 C7 1_555 1_555
C8 C7 1_555 1_555
H6 C8 1_555 1_555
C9 C8 1_555 1_555
H7 C9 1_555 1_555
C10 N4 1_555 1_555
H8 C10 1_555 1_555
N2 C5 1_555 1_555
C4 C5 1_555 1_555
C9 C10 1_555 1_555

#END
