
#######################################################################
#
#                 Cambridge Crystallographic Data Centre
#                                CCDC 
#
#######################################################################
#
# If this CIF has been generated from an entry in the Cambridge 
# Structural Database, then it will include bibliographic, chemical, 
# crystal, experimental, refinement or atomic coordinate data resulting 
# from the CCDC's data processing and validation procedures.
#
#######################################################################

data_NIPYUJ
_chemical_formula_moiety         'C23 H24 F3 N7 O1 S1'
_chemical_name_systematic        
5-{[4-(4,6-dimethylpyrimidin-2-yl)piperazin-1-yl]methyl}-6-(4-methoxyphenyl)-2-(trifluoromethyl)imidazo[2,1-b][1,3,4]thiadiazole
_symmetry_cell_setting           monoclinic
_symmetry_space_group_name_H-M   'C 2/c'
_symmetry_Int_Tables_number      15
_space_group_name_Hall           '-C 2yn'
loop_
_symmetry_equiv_pos_site_id
_symmetry_equiv_pos_as_xyz
1 x,y,z
2 -x,y,1/2-z
3 1/2+x,1/2+y,z
4 1/2-x,1/2+y,1/2-z
5 -x,-y,-z
6 x,-y,1/2+z
7 1/2-x,1/2-y,-z
8 1/2+x,1/2-y,1/2+z
_cell_length_a                   38.97(3)
_cell_length_b                   6.544(4)
_cell_length_c                   17.979(12)
_cell_angle_alpha                90
_cell_angle_beta                 96.515(8)
_cell_angle_gamma                90
_cell_volume                     4555.39
_exptl_crystal_colour            colorless
_exptl_crystal_description       Prism
_cell_formula_units_Z            8
loop_
_atom_site_label
_atom_site_type_symbol
_atom_site_fract_x
_atom_site_fract_y
_atom_site_fract_z
S1 S 0.014142(10) 0.67633(7) 0.39072(2)
F1 F 0.02347(4) 1.10970(18) 0.32980(7)
F2 F 0.03847(3) 0.91408(17) 0.24502(5)
F3 F 0.07715(3) 1.0758(2) 0.31470(9)
O1 O 0.10580(3) -0.41743(19) 0.67452(7)
N1 N 0.08070(3) 0.7345(2) 0.39541(7)
N2 N 0.07512(3) 0.5681(2) 0.43704(7)
N3 N 0.03986(3) 0.3390(2) 0.47892(7)
N4 N 0.15363(3) 0.3167(2) 0.44460(7)
N5 N 0.20053(3) 0.2025(2) 0.34285(7)
N6 N 0.21180(3) 0.19544(19) 0.21982(7)
N7 N 0.25774(3) 0.1967(2) 0.32108(7)
C1 C 0.04783(4) 0.9785(3) 0.31494(10)
C2 C 0.05086(4) 0.8036(3) 0.36819(9)
C3 C 0.04192(4) 0.5064(3) 0.44094(8)
C4 C 0.07437(4) 0.2870(3) 0.50098(8)
C5 C 0.09684(4) 0.4291(2) 0.47671(8)
C6 C 0.13502(4) 0.4621(3) 0.48692(8)
H1 H 0.1401 0.6026 0.4708
H2 H 0.1435 0.4498 0.5408
C7 C 0.14538(4) 0.3487(3) 0.36401(8)
H3 H 0.1527 0.4877 0.3507
H4 H 0.1201 0.3381 0.3504
C8 C 0.16350(4) 0.1918(3) 0.32056(8)
H5 H 0.1549 0.0533 0.3307
H6 H 0.1586 0.2187 0.2662
C9 C 0.21004(4) 0.1805(3) 0.42280(8)
H7 H 0.2353 0.2004 0.4347
H8 H 0.2043 0.0410 0.4387
C10 C 0.19089(4) 0.3364(3) 0.46474(8)
H9 H 0.1965 0.3157 0.5193
H10 H 0.1984 0.4758 0.4524
C11 C 0.22424(4) 0.1970(2) 0.29263(8)
C12 C 0.22206(4) 0.1935(3) 0.09023(9)
H11 H 0.2081 0.0702 0.0793
H12 H 0.2415 0.1933 0.0601
H13 H 0.2078 0.3148 0.0780
C13 C 0.23545(4) 0.1972(2) 0.17147(8)
C14 C 0.27044(4) 0.2010(2) 0.19495(8)
H14 H 0.2870 0.2048 0.1600
C15 C 0.28060(4) 0.1993(2) 0.27115(8)
C16 C 0.31787(4) 0.1990(3) 0.30185(9)
H15 H 0.3217 0.2987 0.3426
H16 H 0.3320 0.2356 0.2621
H17 H 0.3244 0.0626 0.3210
C17 C 0.08206(4) 0.0989(2) 0.54399(8)
C18 C 0.11599(4) 0.0372(3) 0.56731(9)
H18 H 0.1347 0.1149 0.5527
C19 C 0.12271(4) -0.1335(3) 0.61085(9)
H19 H 0.1459 -0.1704 0.6272
C20 C 0.09581(4) -0.2525(3) 0.63105(8)
C21 C 0.06196(4) -0.1997(3) 0.60617(9)
H20 H 0.0434 -0.2828 0.6183
C22 C 0.05542(4) -0.0249(3) 0.56354(9)
H21 H 0.0322 0.0114 0.5472
C23 C 0.07967(4) -0.5457(3) 0.69784(10)
H22 H 0.0652 -0.4669 0.7286
H23 H 0.0904 -0.6597 0.7272
H24 H 0.0654 -0.5992 0.6538
loop_
_geom_bond_atom_site_label_1
_geom_bond_atom_site_label_2
_geom_bond_site_symmetry_1
_geom_bond_site_symmetry_2
S1 C2 1_555 1_555
F1 C1 1_555 1_555
F2 C1 1_555 1_555
F3 C1 1_555 1_555
O1 C20 1_555 1_555
N1 N2 1_555 1_555
N2 C3 1_555 1_555
N3 C3 1_555 1_555
N4 C6 1_555 1_555
N5 C8 1_555 1_555
N6 C11 1_555 1_555
N7 C11 1_555 1_555
C1 C2 1_555 1_555
C2 N1 1_555 1_555
C3 S1 1_555 1_555
C4 N3 1_555 1_555
C5 N2 1_555 1_555
C6 C5 1_555 1_555
H1 C6 1_555 1_555
H2 C6 1_555 1_555
C7 N4 1_555 1_555
H3 C7 1_555 1_555
H4 C7 1_555 1_555
C8 C7 1_555 1_555
H5 C8 1_555 1_555
H6 C8 1_555 1_555
C9 N5 1_555 1_555
H7 C9 1_555 1_555
H8 C9 1_555 1_555
C10 N4 1_555 1_555
H9 C10 1_555 1_555
H10 C10 1_555 1_555
C11 N5 1_555 1_555
C12 H11 1_555 1_555
H12 C12 1_555 1_555
H13 C12 1_555 1_555
C13 N6 1_555 1_555
C14 C13 1_555 1_555
H14 C14 1_555 1_555
C15 N7 1_555 1_555
C16 C15 1_555 1_555
H15 C16 1_555 1_555
H16 C16 1_555 1_555
H17 C16 1_555 1_555
C17 C4 1_555 1_555
C18 C17 1_555 1_555
H18 C18 1_555 1_555
C19 C18 1_555 1_555
H19 C19 1_555 1_555
C20 C19 1_555 1_555
C21 C20 1_555 1_555
H20 C21 1_555 1_555
C22 C17 1_555 1_555
H21 C22 1_555 1_555
C23 O1 1_555 1_555
H22 C23 1_555 1_555
H23 C23 1_555 1_555
H24 C23 1_555 1_555
C4 C5 1_555 1_555
C9 C10 1_555 1_555
C12 C13 1_555 1_555
C14 C15 1_555 1_555
C21 C22 1_555 1_555

#END
