
#######################################################################
#
#                 Cambridge Crystallographic Data Centre
#                                CCDC 
#
#######################################################################
#
# If this CIF has been generated from an entry in the Cambridge 
# Structural Database, then it will include bibliographic, chemical, 
# crystal, experimental, refinement or atomic coordinate data resulting 
# from the CCDC's data processing and validation procedures.
#
#######################################################################

data_NIPYET
_chemical_formula_moiety         '2(C26 H22 N2 O2),C6 Cl4 O2'
_chemical_name_systematic        
'bis(1-(5-(9-anthryl)-3-(4-methoxyphenyl)-4,5-dihydro-1H-pyrazol-1-yl)ethanone) 2,3,5,6-tetrachloro-1,4-benzoquinone'
_symmetry_cell_setting           monoclinic
_symmetry_space_group_name_H-M   'P 21/n'
_symmetry_Int_Tables_number      14
_space_group_name_Hall           '-P 2yn'
loop_
_symmetry_equiv_pos_site_id
_symmetry_equiv_pos_as_xyz
1 x,y,z
2 1/2-x,1/2+y,1/2-z
3 -x,-y,-z
4 1/2+x,1/2-y,1/2+z
_cell_length_a                   13.064(3)
_cell_length_b                   12.088(2)
_cell_length_c                   15.643(3)
_cell_angle_alpha                90
_cell_angle_beta                 90.54(3)
_cell_angle_gamma                90
_cell_volume                     2470.2
_exptl_crystal_colour            black
_exptl_crystal_description       block
_cell_formula_units_Z            2
loop_
_atom_site_label
_atom_site_type_symbol
_atom_site_fract_x
_atom_site_fract_y
_atom_site_fract_z
Cl1 Cl 0.13159(9) 1.18278(10) 0.08835(9)
Cl2 Cl 0.08245(9) 0.75779(9) -0.00335(9)
C1 C 0.0952(3) 0.9717(3) 0.0416(2)
C2 C 0.0332(3) 0.8873(3) -0.0031(3)
C3 C 0.0563(3) 1.0870(3) 0.0393(2)
O1 O 0.1718(2) 0.9483(2) 0.08049(18)
Cl1B Cl -0.13159(9) 0.81722(10) -0.08835(9)
Cl2B Cl -0.08245(9) 1.24221(9) 0.00335(9)
C1B C -0.0952(3) 1.0283(3) -0.0416(2)
C2B C -0.0332(3) 1.1127(3) 0.0031(3)
C3B C -0.0563(3) 0.9130(3) -0.0393(2)
O1B O -0.1718(2) 1.0517(2) -0.08049(18)
C4 C 0.5110(3) 0.3120(3) 0.8246(2)
C5 C 0.2001(2) 0.1512(3) 0.7113(2)
C6 C 0.2135(3) 0.0468(3) 0.5777(2)
C7 C 0.0618(3) 0.1546(3) 0.6032(3)
C8 C 0.6101(3) 0.4721(3) 0.7846(2)
H1 H 0.6133 0.5424 0.7606
C9 C 0.5995(3) 0.2652(3) 0.8583(2)
H2 H 0.5963 0.1962 0.8844
C10 C 0.6967(3) 0.4222(3) 0.8169(2)
C11 C 0.1012(3) 0.1872(3) 0.6850(2)
C12 C 0.1172(3) 0.0833(3) 0.5536(3)
H3 H 0.0892 0.0587 0.5021
C13 C 0.4140(3) 0.2532(3) 0.8248(2)
C14 C 0.5183(3) 0.4156(3) 0.7884(2)
H4 H 0.4596 0.4486 0.7658
C15 C 0.2580(3) 0.0846(3) 0.6557(2)
C16 C 0.2687(3) 0.0284(3) 0.8832(2)
C17 C 0.3187(3) 0.2925(3) 0.7805(3)
H5 H 0.3306 0.3048 0.7201
H6 H 0.2939 0.3606 0.8058
C18 C 0.3620(3) 0.0533(3) 0.6716(2)
H7 H 0.3949 0.0786 0.7208
C19 C 0.2429(3) 0.1975(3) 0.7941(2)
C20 C 0.3436(3) -0.0409(3) 0.9330(3)
H8 H 0.3669 -0.0005 0.9823
H9 H 0.4011 -0.0585 0.8976
H10 H 0.3110 -0.1080 0.9509
C21 C 0.0377(3) 0.2570(3) 0.7347(3)
H11 H 0.0592 0.2775 0.7892
C22 C 0.2705(4) -0.0241(3) 0.5231(3)
H12 H 0.2399 -0.0510 0.4734
C23 C 0.4137(3) -0.0123(3) 0.6167(3)
H13 H 0.4814 -0.0309 0.6288
C24 C 0.6912(3) 0.3186(3) 0.8536(2)
H14 H 0.7501 0.2851 0.8752
C25 C 0.3666(4) -0.0528(3) 0.5416(3)
H15 H 0.4025 -0.0993 0.5052
C26 C -0.0334(3) 0.1979(4) 0.5743(3)
H16 H -0.0581 0.1781 0.5205
C27 C 0.8048(3) 0.5718(4) 0.7734(3)
H17 H 0.7819 0.5647 0.7152
H18 H 0.8757 0.5927 0.7746
H19 H 0.7651 0.6276 0.8016
C28 C -0.0533(4) 0.2945(4) 0.7046(4)
H20 H -0.0933 0.3397 0.7390
C29 C -0.0882(3) 0.2664(4) 0.6227(4)
H21 H -0.1495 0.2954 0.6019
O2 O 0.1780(2) 0.0042(2) 0.87345(17)
N1 N 0.3050(2) 0.1207(2) 0.84633(18)
N2 N 0.4047(2) 0.1582(3) 0.86147(18)
O3 O 0.79257(19) 0.4688(2) 0.81639(16)
H22 H 0.1858(18) 0.218(2) 0.8298(17)
loop_
_geom_bond_atom_site_label_1
_geom_bond_atom_site_label_2
_geom_bond_site_symmetry_1
_geom_bond_site_symmetry_2
Cl1 C3 1_555 1_555
Cl2 C2 1_555 1_555
C1 C2 1_555 1_555
C2 C3B 1_555 1_555
C3 C1 1_555 1_555
O1 C1 1_555 1_555
C4 C9 1_555 1_555
C5 C11 1_555 1_555
C6 C12 1_555 1_555
C7 C11 1_555 1_555
C8 H1 1_555 1_555
C9 H2 1_555 1_555
C10 C8 1_555 1_555
C11 C21 1_555 1_555
C12 C7 1_555 1_555
H3 C12 1_555 1_555
C13 C4 1_555 1_555
C14 C4 1_555 1_555
H4 C14 1_555 1_555
C15 C5 1_555 1_555
C16 C20 1_555 1_555
C17 C13 1_555 1_555
H5 C17 1_555 1_555
H6 C17 1_555 1_555
C18 C15 1_555 1_555
H7 C18 1_555 1_555
C19 C5 1_555 1_555
C20 H8 1_555 1_555
H9 C20 1_555 1_555
H10 C20 1_555 1_555
C21 H11 1_555 1_555
C22 C6 1_555 1_555
H12 C22 1_555 1_555
C23 C18 1_555 1_555
H13 C23 1_555 1_555
C24 C9 1_555 1_555
H14 C24 1_555 1_555
C25 C22 1_555 1_555
H15 C25 1_555 1_555
C26 C7 1_555 1_555
H16 C26 1_555 1_555
C27 H17 1_555 1_555
H18 C27 1_555 1_555
H19 C27 1_555 1_555
C28 C21 1_555 1_555
H20 C28 1_555 1_555
C29 C26 1_555 1_555
H21 C29 1_555 1_555
O2 C16 1_555 1_555
N1 C16 1_555 1_555
N2 C13 1_555 1_555
O3 C10 1_555 1_555
H22 C19 1_555 1_555
Cl1B C3B 1_555 1_555
Cl2B C2B 1_555 1_555
C1B C2B 1_555 1_555
C2B C3 1_555 1_555
C3B C1B 1_555 1_555
O1B C1B 1_555 1_555
C6 C15 1_555 1_555
C8 C14 1_555 1_555
C10 C24 1_555 1_555
C17 C19 1_555 1_555
C19 N1 1_555 1_555
C23 C25 1_555 1_555
C27 O3 1_555 1_555
C28 C29 1_555 1_555
N1 N2 1_555 1_555

#END
