
#######################################################################
#
#                 Cambridge Crystallographic Data Centre
#                                CCDC 
#
#######################################################################
#
# If this CIF has been generated from an entry in the Cambridge 
# Structural Database, then it will include bibliographic, chemical, 
# crystal, experimental, refinement or atomic coordinate data resulting 
# from the CCDC's data processing and validation procedures.
#
#######################################################################

data_NIQBUN
_chemical_formula_moiety         'C35 H28 Br1 N1 O1'
_chemical_name_systematic        
'3-[6-(4-bromophenyl)-1-methyl-3,5-diphenyl-5,6-dihydro-4H-cyclopenta[c]furan-4-yl]-1-methyl-1H-indole unknown solvate'
_symmetry_cell_setting           hexagonal
_symmetry_space_group_name_H-M   'P 61'
_symmetry_Int_Tables_number      169
_space_group_name_Hall           'P 61'
loop_
_symmetry_equiv_pos_site_id
_symmetry_equiv_pos_as_xyz
1 x,y,z
2 -y,x-y,1/3+z
3 -x+y,-x,2/3+z
4 -x,-y,1/2+z
5 y,-x+y,5/6+z
6 x-y,x,1/6+z
_cell_length_a                   22.0408(11)
_cell_length_b                   22.0408(11)
_cell_length_c                   10.3688(7)
_cell_angle_alpha                90
_cell_angle_beta                 90
_cell_angle_gamma                120
_cell_volume                     4362.28
_exptl_crystal_colour            colorless
_exptl_crystal_description       block
_cell_formula_units_Z            6
loop_
_atom_site_label
_atom_site_type_symbol
_atom_site_fract_x
_atom_site_fract_y
_atom_site_fract_z
Br1 Br 0.17938(3) 0.24201(3) -0.00388(5)
O1 O 0.28437(12) 0.21562(12) -0.7880(3)
N1 N 0.55789(19) 0.5360(2) -0.6596(5)
C1 C 0.38943(19) 0.28431(19) -0.9071(4)
C2 C 0.4541(2) 0.3442(2) -0.9275(4)
H1 H 0.4680 0.3832 -0.8750
C3 C 0.4981(2) 0.3462(3) -1.0260(5)
H2 H 0.5407 0.3869 -1.0401
C4 C 0.4790(2) 0.2886(3) -1.1022(5)
H3 H 0.5092 0.2899 -1.1661
C5 C 0.4149(2) 0.2287(2) -1.0841(4)
H4 H 0.4018 0.1897 -1.1362
C6 C 0.3707(2) 0.2270(2) -0.9890(4)
H5 H 0.3273 0.1868 -0.9786
C7 C 0.24166(19) 0.22120(19) -0.6976(4)
C8 C 0.27183(17) 0.28841(17) -0.6592(4)
C9 C 0.25681(16) 0.33330(17) -0.5716(3)
H6 H 0.2233 0.3440 -0.6133
C10 C 0.33151(16) 0.40208(17) -0.5659(3)
H7 H 0.3572 0.3955 -0.4952
C11 C 0.37105(17) 0.40483(17) -0.6934(4)
H8 H 0.3598 0.4294 -0.7597
C12 C 0.33621(17) 0.32783(17) -0.7285(3)
C13 C 0.34207(17) 0.28163(17) -0.8075(3)
C14 C 0.1768(2) 0.15555(19) -0.6638(5)
H9 H 0.1511 0.1653 -0.6004
H10 H 0.1888 0.1224 -0.6295
H11 H 0.1486 0.1364 -0.7397
C15 C 0.23155(17) 0.30570(17) -0.4374(4)
C16 C 0.2476(2) 0.2586(2) -0.3788(4)
H12 H 0.2708 0.2405 -0.4260
C17 C 0.2298(2) 0.2382(2) -0.2521(4)
H13 H 0.2394 0.2054 -0.2156
C18 C 0.1980(2) 0.2664(2) -0.1807(4)
C19 C 0.18005(19) 0.3120(2) -0.2350(4)
H14 H 0.1568 0.3296 -0.1866
C20 C 0.19682(18) 0.33131(18) -0.3617(4)
H15 H 0.1847 0.3623 -0.3982
C21 C 0.32751(17) 0.46706(17) -0.5338(4)
C22 C 0.2998(2) 0.4942(2) -0.6220(5)
H16 H 0.2862 0.4742 -0.7035
C23 C 0.2925(2) 0.5505(2) -0.5888(6)
H17 H 0.2740 0.5684 -0.6484
C24 C 0.3122(2) 0.5811(2) -0.4684(6)
H18 H 0.3063 0.6187 -0.4464
C25 C 0.3408(3) 0.5550(2) -0.3813(5)
H19 H 0.3546 0.5753 -0.3001
C26 C 0.3489(2) 0.49870(19) -0.4147(4)
H20 H 0.3690 0.4819 -0.3561
C27 C 0.4927(2) 0.5123(2) -0.7099(4)
H21 H 0.4801 0.5380 -0.7636
C28 C 0.44813(19) 0.44444(18) -0.6694(4)
C29 C 0.48797(19) 0.4245(2) -0.5902(4)
C30 C 0.4729(3) 0.3643(3) -0.5224(4)
H22 H 0.4282 0.3253 -0.5244
C31 C 0.5258(4) 0.3632(4) -0.4516(6)
H23 H 0.5167 0.3234 -0.4051
C32 C 0.5941(4) 0.4232(6) -0.4506(7)
H24 H 0.6294 0.4221 -0.4031
C33 C 0.6088(3) 0.4812(4) -0.5168(7)
H25 H 0.6538 0.5198 -0.5149
C34 C 0.5572(2) 0.4838(3) -0.5875(5)
C35 C 0.6183(3) 0.6057(2) -0.6726(7)
H26 H 0.6572 0.6081 -0.6268
H27 H 0.6074 0.6395 -0.6374
H28 H 0.6301 0.6158 -0.7622
loop_
_geom_bond_atom_site_label_1
_geom_bond_atom_site_label_2
_geom_bond_site_symmetry_1
_geom_bond_site_symmetry_2
Br1 C18 1_555 1_555
O1 C7 1_555 1_555
N1 C27 1_555 1_555
C1 C2 1_555 1_555
C2 H1 1_555 1_555
C3 C2 1_555 1_555
H2 C3 1_555 1_555
C4 C3 1_555 1_555
H3 C4 1_555 1_555
C5 C4 1_555 1_555
H4 C5 1_555 1_555
C6 C1 1_555 1_555
H5 C6 1_555 1_555
C7 C8 1_555 1_555
C8 C9 1_555 1_555
C9 H6 1_555 1_555
C10 C9 1_555 1_555
H7 C10 1_555 1_555
C11 C10 1_555 1_555
H8 C11 1_555 1_555
C12 C8 1_555 1_555
C13 O1 1_555 1_555
C14 C7 1_555 1_555
H9 C14 1_555 1_555
H10 C14 1_555 1_555
H11 C14 1_555 1_555
C15 C9 1_555 1_555
C16 C15 1_555 1_555
H12 C16 1_555 1_555
C17 C16 1_555 1_555
H13 C17 1_555 1_555
C18 C17 1_555 1_555
C19 C18 1_555 1_555
H14 C19 1_555 1_555
C20 C15 1_555 1_555
H15 C20 1_555 1_555
C21 C10 1_555 1_555
C22 C21 1_555 1_555
H16 C22 1_555 1_555
C23 C22 1_555 1_555
H17 C23 1_555 1_555
C24 C23 1_555 1_555
H18 C24 1_555 1_555
C25 C24 1_555 1_555
H19 C25 1_555 1_555
C26 C21 1_555 1_555
H20 C26 1_555 1_555
C27 H21 1_555 1_555
C28 C11 1_555 1_555
C29 C28 1_555 1_555
C30 C29 1_555 1_555
H22 C30 1_555 1_555
C31 C30 1_555 1_555
H23 C31 1_555 1_555
C32 C31 1_555 1_555
H24 C32 1_555 1_555
C33 C32 1_555 1_555
H25 C33 1_555 1_555
C34 N1 1_555 1_555
C35 N1 1_555 1_555
H26 C35 1_555 1_555
H27 C35 1_555 1_555
H28 C35 1_555 1_555
C1 C13 1_555 1_555
C5 C6 1_555 1_555
C11 C12 1_555 1_555
C12 C13 1_555 1_555
C19 C20 1_555 1_555
C25 C26 1_555 1_555
C27 C28 1_555 1_555
C29 C34 1_555 1_555
C33 C34 1_555 1_555

#END
