
#######################################################################
#
#                 Cambridge Crystallographic Data Centre
#                                CCDC 
#
#######################################################################
#
# If this CIF has been generated from an entry in the Cambridge 
# Structural Database, then it will include bibliographic, chemical, 
# crystal, experimental, refinement or atomic coordinate data resulting 
# from the CCDC's data processing and validation procedures.
#
#######################################################################

data_NIQCUM02
_chemical_formula_moiety         'C9 H14 B1 N1 O4'
_chemical_name_systematic        
't-Butyl 2-(dihydroxyboryl)pyrrole-1-carboxylate'
_symmetry_cell_setting           orthorhombic
_symmetry_space_group_name_H-M   'P b c a'
_symmetry_Int_Tables_number      61
_space_group_name_Hall           '-P 2ac 2ab'
loop_
_symmetry_equiv_pos_site_id
_symmetry_equiv_pos_as_xyz
1 x,y,z
2 1/2-x,-y,1/2+z
3 -x,1/2+y,1/2-z
4 1/2+x,1/2-y,-z
5 -x,-y,-z
6 1/2+x,y,1/2-z
7 x,1/2-y,1/2+z
8 1/2-x,1/2+y,z
_cell_length_a                   13.014(3)
_cell_length_b                   9.940(2)
_cell_length_c                   17.417(4)
_cell_angle_alpha                90
_cell_angle_beta                 90
_cell_angle_gamma                90
_cell_volume                     2253.05
_exptl_crystal_colour            colorless
_exptl_crystal_description       prism
_cell_formula_units_Z            8
_exptl_crystal_recrystallization_method 'ethyl acetate/hexane'
loop_
_atom_site_label
_atom_site_type_symbol
_atom_site_fract_x
_atom_site_fract_y
_atom_site_fract_z
B1 B 1.03949(15) 0.6990(2) 0.51802(11)
C1 C 1.09811(14) 1.0494(2) 0.59196(12)
C2 C 1.17519(16) 1.0274(3) 0.54329(13)
C3 C 1.16298(14) 0.8995(3) 0.51194(12)
C4 C 1.07732(12) 0.83956(18) 0.54116(8)
C5 C 0.94986(12) 0.92187(19) 0.63777(9)
C6 C 0.85439(15) 1.03344(19) 0.74024(10)
C7 C 0.75166(18) 1.0282(3) 0.70204(16)
C8 C 0.8711(3) 0.9215(3) 0.79700(14)
C9 C 0.8746(3) 1.1693(3) 0.7756(2)
N1 N 1.03646(9) 0.93560(14) 0.59221(7)
O1 O 0.93714(8) 1.02801(13) 0.68119(7)
O2 O 0.89519(9) 0.82427(13) 0.63724(7)
O3 O 0.95566(10) 0.63485(15) 0.54641(8)
O4 O 1.09809(10) 0.6338(2) 0.46635(8)
H1 H 1.2044(14) 0.8510(17) 0.4741(10)
H2 H 0.7006(17) 1.040(2) 0.7397(13)
H3 H 0.7430(18) 1.106(3) 0.6664(14)
H4 H 0.8247(16) 0.934(2) 0.8403(14)
H5 H 1.0760(14) 1.126(2) 0.6241(11)
H6 H 0.8259(16) 1.184(2) 0.8132(14)
H7 H 0.8706(15) 1.236(2) 0.7359(14)
H8 H 0.7384(15) 0.942(2) 0.6764(13)
H9 H 1.2262(17) 1.090(2) 0.5323(11)
H10 H 0.941(2) 0.928(2) 0.8167(14)
H11 H 0.949(2) 1.169(3) 0.7937(16)
H12 H 0.8565(17) 0.826(3) 0.7735(14)
H13 H 0.9265(14) 0.6888(19) 0.5791(11)
H14 H 1.080(2) 0.548(3) 0.4581(16)
loop_
_geom_bond_atom_site_label_1
_geom_bond_atom_site_label_2
_geom_bond_site_symmetry_1
_geom_bond_site_symmetry_2
B1 C4 1_555 1_555
C1 C2 1_555 1_555
C2 C3 1_555 1_555
C3 C4 1_555 1_555
C4 N1 1_555 1_555
C5 N1 1_555 1_555
C6 C7 1_555 1_555
C7 H2 1_555 1_555
C8 C6 1_555 1_555
C9 C6 1_555 1_555
N1 C1 1_555 1_555
O1 C5 1_555 1_555
O2 C5 1_555 1_555
O3 B1 1_555 1_555
O4 B1 1_555 1_555
H1 C3 1_555 1_555
H3 C7 1_555 1_555
H4 C8 1_555 1_555
H5 C1 1_555 1_555
H6 C9 1_555 1_555
H7 C9 1_555 1_555
H8 C7 1_555 1_555
H9 C2 1_555 1_555
H10 C8 1_555 1_555
H11 C9 1_555 1_555
H12 C8 1_555 1_555
H13 O3 1_555 1_555
H14 O4 1_555 1_555
C6 O1 1_555 1_555

#END
