
#######################################################################
#
#                 Cambridge Crystallographic Data Centre
#                                CCDC 
#
#######################################################################
#
# If this CIF has been generated from an entry in the Cambridge 
# Structural Database, then it will include bibliographic, chemical, 
# crystal, experimental, refinement or atomic coordinate data resulting 
# from the CCDC's data processing and validation procedures.
#
#######################################################################

data_NIQDEX
_chemical_name_common            
'5,10,15,20,22,24-Hexahydro-5,5,10,10,15,15,20,20-octamethylporphyrin-2-carboxylic acid'
_chemical_formula_moiety         'C29 H36 N4 O2'
_chemical_name_systematic        
'2,2,7,7,12,12,17,17-Octamethylcalix(4)pyrrole-4-carboxylic acid'
_symmetry_cell_setting           monoclinic
_symmetry_space_group_name_H-M   'P 21/n'
_symmetry_Int_Tables_number      14
_space_group_name_Hall           '-P 2yn'
loop_
_symmetry_equiv_pos_site_id
_symmetry_equiv_pos_as_xyz
1 x,y,z
2 1/2-x,1/2+y,1/2-z
3 -x,-y,-z
4 1/2+x,1/2-y,1/2+z
_cell_length_a                   15.152(4)
_cell_length_b                   10.037(2)
_cell_length_c                   17.022(4)
_cell_angle_alpha                90
_cell_angle_beta                 101.54(2)
_cell_angle_gamma                90
_cell_volume                     2536.39
_exptl_crystal_colour            colorless
_exptl_crystal_description       block
_cell_formula_units_Z            4
loop_
_atom_site_label
_atom_site_type_symbol
_atom_site_fract_x
_atom_site_fract_y
_atom_site_fract_z
C1 C 0.61320(15) 0.1453(2) -0.09248(13)
H1 H 0.6357 0.1655 -0.1413
H2 H 0.5479 0.1317 -0.1062
H3 H 0.6424 0.0642 -0.0677
C2 C 0.63460(13) 0.2617(2) -0.03358(12)
C3 C 0.59463(14) 0.2315(2) 0.04109(13)
H4 H 0.6193 0.1473 0.0651
H5 H 0.5290 0.2244 0.0253
H6 H 0.6102 0.3036 0.0802
C4 C 0.73583(13) 0.2759(2) -0.00862(11)
C5 C 0.80386(14) 0.2347(2) -0.04407(12)
H7 H 0.7974 0.1854 -0.0925
C6 C 0.88627(14) 0.2783(2) 0.00410(13)
H8 H 0.9447 0.2641 -0.0066
C7 C 0.86677(13) 0.3443(2) 0.06846(12)
C8 C 0.92525(14) 0.4011(2) 0.14310(13)
C9 C 0.9269(2) 0.3039(2) 0.21285(14)
H9 H 0.9645 0.3405 0.2616
H10 H 0.9517 0.2183 0.2000
H11 H 0.8654 0.2907 0.2215
C10 C 1.02172(15) 0.4209(3) 0.12895(18)
H12 H 1.0210 0.4861 0.0860
H13 H 1.0450 0.3358 0.1136
H14 H 1.0605 0.4534 0.1783
C11 C 0.88792(13) 0.5326(2) 0.16335(12)
C12 C 0.85735(13) 0.5782(2) 0.22795(12)
H15 H 0.8551 0.5287 0.2751
C13 C 0.82907(13) 0.7128(2) 0.21308(12)
H16 H 0.8047 0.7689 0.2483
C14 C 0.84340(13) 0.74632(19) 0.13887(12)
C15 C 0.83616(13) 0.8761(2) 0.09297(11)
C16 C 0.92881(14) 0.9440(2) 0.11131(13)
H17 H 0.9463 0.9608 0.1690
H18 H 0.9257 1.0287 0.0822
H19 H 0.9735 0.8859 0.0944
C17 C 0.76804(15) 0.9678(2) 0.12075(13)
H20 H 0.7082 0.9265 0.1086
H21 H 0.7662 1.0534 0.0928
H22 H 0.7860 0.9824 0.1787
C18 C 0.81030(13) 0.84805(19) 0.00421(12)
C19 C 0.85668(14) 0.8703(2) -0.05543(12)
H23 H 0.9133 0.9138 -0.0496
C20 C 0.80600(14) 0.8176(2) -0.12728(13)
H24 H 0.8224 0.8200 -0.1783
C21 C 0.72962(13) 0.7626(2) -0.11098(11)
C22 C 0.65045(14) 0.7030(2) -0.16862(12)
C23 C 0.58071(16) 0.8137(2) -0.19524(16)
H25 H 0.5320 0.7794 -0.2370
H26 H 0.6098 0.8891 -0.2164
H27 H 0.5559 0.8432 -0.1492
C24 C 0.68364(19) 0.6504(3) -0.24237(14)
H28 H 0.7292 0.5813 -0.2257
H29 H 0.7101 0.7237 -0.2679
H30 H 0.6328 0.6126 -0.2806
C25 C 0.60483(13) 0.5905(2) -0.13421(11)
C26 C 0.51651(13) 0.5586(2) -0.14371(12)
H31 H 0.4678 0.6112 -0.1711
C27 C 0.50822(13) 0.4336(2) -0.10607(12)
C28 C 0.59538(13) 0.3892(2) -0.07460(11)
C29 C 0.42257(14) 0.3697(2) -0.10440(12)
N1 N 0.65125(11) 0.48574(16) -0.09248(9)
H32 H 0.7104 0.4818 -0.0790
N2 N 0.77492(11) 0.34296(16) 0.05960(9)
H33 H 0.7451 0.3801 0.0932
N3 N 0.87896(11) 0.63651(16) 0.10947(9)
H34 H 0.8942 0.6326 0.0623
N4 N 0.73207(11) 0.78252(16) -0.03034(9)
H35 H 0.6899 0.7571 -0.0047
O1 O 0.35188(9) 0.44376(15) -0.14311(9)
H36 H 0.3043 0.3987 -0.1485
O2 O 0.40921(10) 0.26364(15) -0.07428(9)
loop_
_geom_bond_atom_site_label_1
_geom_bond_atom_site_label_2
_geom_bond_site_symmetry_1
_geom_bond_site_symmetry_2
C1 H1 1_555 1_555
H2 C1 1_555 1_555
H3 C1 1_555 1_555
C2 C1 1_555 1_555
C3 C2 1_555 1_555
H4 C3 1_555 1_555
H5 C3 1_555 1_555
H6 C3 1_555 1_555
C4 C2 1_555 1_555
C5 C4 1_555 1_555
H7 C5 1_555 1_555
C6 C5 1_555 1_555
H8 C6 1_555 1_555
C7 C6 1_555 1_555
C8 C7 1_555 1_555
C9 C8 1_555 1_555
H9 C9 1_555 1_555
H10 C9 1_555 1_555
H11 C9 1_555 1_555
C10 C8 1_555 1_555
H12 C10 1_555 1_555
H13 C10 1_555 1_555
H14 C10 1_555 1_555
C11 C8 1_555 1_555
C12 C11 1_555 1_555
H15 C12 1_555 1_555
C13 C12 1_555 1_555
H16 C13 1_555 1_555
C14 C13 1_555 1_555
C15 C14 1_555 1_555
C16 C15 1_555 1_555
H17 C16 1_555 1_555
H18 C16 1_555 1_555
H19 C16 1_555 1_555
C17 C15 1_555 1_555
H20 C17 1_555 1_555
H21 C17 1_555 1_555
H22 C17 1_555 1_555
C18 C15 1_555 1_555
C19 C18 1_555 1_555
H23 C19 1_555 1_555
C20 C19 1_555 1_555
H24 C20 1_555 1_555
C21 C20 1_555 1_555
C22 C21 1_555 1_555
C23 C22 1_555 1_555
H25 C23 1_555 1_555
H26 C23 1_555 1_555
H27 C23 1_555 1_555
C24 C22 1_555 1_555
H28 C24 1_555 1_555
H29 C24 1_555 1_555
H30 C24 1_555 1_555
C25 C22 1_555 1_555
C26 C25 1_555 1_555
H31 C26 1_555 1_555
C27 C26 1_555 1_555
C28 C2 1_555 1_555
C29 C27 1_555 1_555
N1 C25 1_555 1_555
H32 N1 1_555 1_555
N2 C4 1_555 1_555
H33 N2 1_555 1_555
N3 C11 1_555 1_555
H34 N3 1_555 1_555
N4 C18 1_555 1_555
H35 N4 1_555 1_555
O1 C29 1_555 1_555
H36 O1 1_555 1_555
O2 C29 1_555 1_555
C7 N2 1_555 1_555
C14 N3 1_555 1_555
C21 N4 1_555 1_555
C27 C28 1_555 1_555
C28 N1 1_555 1_555

#END
