
#######################################################################
#
#                 Cambridge Crystallographic Data Centre
#                                CCDC 
#
#######################################################################
#
# If this CIF has been generated from an entry in the Cambridge 
# Structural Database, then it will include bibliographic, chemical, 
# crystal, experimental, refinement or atomic coordinate data resulting 
# from the CCDC's data processing and validation procedures.
#
#######################################################################

data_NIQLEH
_chemical_formula_moiety         'C29 H24 F5 N3 O6'
_chemical_name_systematic        
"methyl 8-methoxy-1',3'-dimethyl-2',4',6'-trioxo-4-(pentafluoroethyl)-2-phenyl-1',3',4',6'-tetrahydro-2H,2'H,11bH-spiro[pyrido[2,1-a]isoquinoline-1,5'-pyrimidine]-3-carboxylate"
_symmetry_cell_setting           monoclinic
_symmetry_space_group_name_H-M   'P 21/c'
_symmetry_Int_Tables_number      14
_space_group_name_Hall           '-P 2ybc'
loop_
_symmetry_equiv_pos_site_id
_symmetry_equiv_pos_as_xyz
1 x,y,z
2 -x,1/2+y,1/2-z
3 -x,-y,-z
4 x,1/2-y,1/2+z
_cell_length_a                   12.680(13)
_cell_length_b                   10.089(10)
_cell_length_c                   21.37(2)
_cell_angle_alpha                90
_cell_angle_beta                 94.430(14)
_cell_angle_gamma                90
_cell_volume                     2725.66
_cell_formula_units_Z            4
loop_
_atom_site_label
_atom_site_type_symbol
_atom_site_fract_x
_atom_site_fract_y
_atom_site_fract_z
C1 C 0.09990(18) 0.3003(2) 0.36277(11)
H1 H 0.1376 0.3808 0.3773
C2 C -0.01332(18) 0.3408(2) 0.34501(12)
C3 C -0.0616(2) 0.4371(3) 0.37952(13)
H2 H -0.0228 0.4808 0.4120
C4 C -0.1668(2) 0.4679(3) 0.36573(15)
H3 H -0.1992 0.5308 0.3896
C5 C -0.2244(2) 0.4057(3) 0.31649(17)
H4 H -0.2957 0.4255 0.3079
C6 C -0.1757(2) 0.3138(3) 0.28004(15)
C7 C -0.06954(19) 0.2787(2) 0.29451(12)
C8 C -0.0142(2) 0.1845(3) 0.25724(13)
H5 H -0.0522 0.1313 0.2280
C9 C 0.09064(19) 0.1743(2) 0.26479(11)
H6 H 0.1245 0.1136 0.2404
C10 C 0.26094(18) 0.2207(2) 0.32060(12)
C11 C 0.30104(18) 0.1837(2) 0.37753(12)
C12 C 0.23756(17) 0.1785(2) 0.43583(12)
H7 H 0.2481 0.0894 0.4535
C13 C 0.11589(17) 0.1935(2) 0.41923(11)
C14 C 0.05563(19) 0.2489(3) 0.47178(12)
C15 C -0.0917(2) 0.0973(3) 0.44318(14)
C16 C 0.07531(19) 0.0603(2) 0.39551(12)
C17 C 0.29300(18) 0.2742(3) 0.48357(12)
C18 C 0.3121(2) 0.4058(3) 0.46945(14)
H8 H 0.2856 0.4402 0.4310
C19 C 0.3696(2) 0.4860(3) 0.51139(17)
H9 H 0.3794 0.5748 0.5018
C20 C 0.4126(2) 0.4354(5) 0.56743(17)
H10 H 0.4527 0.4894 0.5954
C21 C 0.3963(2) 0.3068(5) 0.58173(15)
H11 H 0.4253 0.2728 0.6197
C22 C 0.3362(2) 0.2240(3) 0.53998(13)
H12 H 0.3255 0.1357 0.5503
C23 C -0.0795(2) -0.0801(3) 0.36610(16)
H13 H -0.0921 -0.1516 0.3942
H14 H -0.0329 -0.1096 0.3356
H15 H -0.1454 -0.0521 0.3451
C24 C -0.1117(2) 0.2691(3) 0.52171(15)
H16 H -0.1410 0.3467 0.5011
H17 H -0.0697 0.2946 0.5591
H18 H -0.1679 0.2119 0.5326
C25 C 0.3276(2) 0.2487(3) 0.26618(13)
C26 C 0.3622(2) 0.3924(3) 0.26147(15)
C27 C 0.4130(2) 0.1326(3) 0.39385(14)
C28 C 0.5933(2) 0.1734(4) 0.4122(2)
H19 H 0.5966 0.1435 0.4549
H20 H 0.6445 0.2423 0.4081
H21 H 0.6082 0.1007 0.3853
C29 C -0.3251(3) 0.2929(4) 0.2047(2)
H22 H -0.3760 0.2740 0.2345
H23 H -0.3446 0.2474 0.1661
H24 H -0.3233 0.3866 0.1971
F1 F 0.27527(12) 0.22181(17) 0.20971(7)
F2 F 0.41610(12) 0.17298(17) 0.26879(8)
F3 F 0.28069(17) 0.4698(2) 0.25351(14)
F4 F 0.4196(2) 0.4130(2) 0.21364(12)
F5 F 0.4176(2) 0.4334(2) 0.31120(11)
N1 N 0.15214(14) 0.2522(2) 0.30855(9)
N2 N -0.04463(15) 0.1984(2) 0.47922(10)
N3 N -0.03057(16) 0.0317(2) 0.40198(10)
O1 O 0.13087(14) -0.01742(18) 0.36959(9)
O2 O 0.08806(14) 0.3411(2) 0.50416(9)
O3 O -0.18217(15) 0.0640(2) 0.44963(12)
O4 O -0.22348(15) 0.2493(2) 0.22907(11)
O5 O 0.42764(16) 0.0190(2) 0.40650(12)
O6 O 0.48657(14) 0.2252(2) 0.39408(11)
loop_
_geom_bond_atom_site_label_1
_geom_bond_atom_site_label_2
_geom_bond_site_symmetry_1
_geom_bond_site_symmetry_2
C1 H1 1_555 1_555
C2 C1 1_555 1_555
C3 C2 1_555 1_555
H2 C3 1_555 1_555
C4 C3 1_555 1_555
H3 C4 1_555 1_555
C5 C4 1_555 1_555
H4 C5 1_555 1_555
C6 C5 1_555 1_555
C7 C2 1_555 1_555
C8 C7 1_555 1_555
H5 C8 1_555 1_555
C9 C8 1_555 1_555
H6 C9 1_555 1_555
C10 C11 1_555 1_555
C11 C12 1_555 1_555
C12 H7 1_555 1_555
C13 C1 1_555 1_555
C14 C13 1_555 1_555
C15 N2 1_555 1_555
C16 C13 1_555 1_555
C17 C12 1_555 1_555
C18 C17 1_555 1_555
H8 C18 1_555 1_555
C19 C18 1_555 1_555
H9 C19 1_555 1_555
C20 C19 1_555 1_555
H10 C20 1_555 1_555
C21 C20 1_555 1_555
H11 C21 1_555 1_555
C22 C17 1_555 1_555
H12 C22 1_555 1_555
C23 H13 1_555 1_555
H14 C23 1_555 1_555
H15 C23 1_555 1_555
C24 H16 1_555 1_555
H17 C24 1_555 1_555
H18 C24 1_555 1_555
C25 C10 1_555 1_555
C26 C25 1_555 1_555
C27 C11 1_555 1_555
C28 H19 1_555 1_555
H20 C28 1_555 1_555
H21 C28 1_555 1_555
C29 H22 1_555 1_555
H23 C29 1_555 1_555
H24 C29 1_555 1_555
F1 C25 1_555 1_555
F2 C25 1_555 1_555
F3 C26 1_555 1_555
F4 C26 1_555 1_555
F5 C26 1_555 1_555
N1 C1 1_555 1_555
N2 C14 1_555 1_555
N3 C15 1_555 1_555
O1 C16 1_555 1_555
O2 C14 1_555 1_555
O3 C15 1_555 1_555
O4 C6 1_555 1_555
O5 C27 1_555 1_555
O6 C27 1_555 1_555
C6 C7 1_555 1_555
C9 N1 1_555 1_555
C10 N1 1_555 1_555
C12 C13 1_555 1_555
C16 N3 1_555 1_555
C21 C22 1_555 1_555
C23 N3 1_555 1_555
C24 N2 1_555 1_555
C28 O6 1_555 1_555
C29 O4 1_555 1_555

#END
