
#######################################################################
#
#                 Cambridge Crystallographic Data Centre
#                                CCDC 
#
#######################################################################
#
# If this CIF has been generated from an entry in the Cambridge 
# Structural Database, then it will include bibliographic, chemical, 
# crystal, experimental, refinement or atomic coordinate data resulting 
# from the CCDC's data processing and validation procedures.
#
#######################################################################

data_NIQNUX
_chemical_formula_moiety         'C12 H11 N3 O1 S1'
_chemical_name_systematic        
(E)-N'-((5-Methylthiophen-2-yl)methylene)isonicotinohydrazide
_symmetry_cell_setting           monoclinic
_symmetry_space_group_name_H-M   'P 21/c'
_symmetry_Int_Tables_number      14
_space_group_name_Hall           '-P 2ybc'
loop_
_symmetry_equiv_pos_site_id
_symmetry_equiv_pos_as_xyz
1 x,y,z
2 -x,1/2+y,1/2-z
3 -x,-y,-z
4 x,1/2-y,1/2+z
_cell_length_a                   19.172(7)
_cell_length_b                   5.884(2)
_cell_length_c                   10.273(4)
_cell_angle_alpha                90
_cell_angle_beta                 97.309(7)
_cell_angle_gamma                90
_cell_volume                     1149.46
_exptl_crystal_colour            yellow
_exptl_crystal_description       block
_cell_formula_units_Z            4
_exptl_crystal_recrystallization_method ethanol
loop_
_atom_site_label
_atom_site_type_symbol
_atom_site_fract_x
_atom_site_fract_y
_atom_site_fract_z
S1 S 0.38071(4) 1.38538(11) 0.10139(6)
O1 O 0.20976(10) 0.7241(3) 0.18993(17)
N1 N 0.26629(10) 1.0178(3) 0.02564(19)
N2 N 0.21957(11) 0.8469(3) -0.01604(19)
H1 H 0.2071 0.8268 -0.0987
N3 N 0.03831(13) 0.2277(4) -0.0882(2)
C1 C 0.47021(16) 1.7636(5) 0.1251(3)
H2 H 0.5095 1.7888 0.0776
H3 H 0.4856 1.6820 0.2045
H4 H 0.4507 1.9072 0.1464
C2 C 0.41553(13) 1.6283(4) 0.0427(3)
C3 C 0.38671(15) 1.6675(5) -0.0821(3)
H5 H 0.3982 1.7932 -0.1299
C4 C 0.33807(15) 1.5035(5) -0.1333(3)
H6 H 0.3147 1.5076 -0.2183
C5 C 0.32862(13) 1.3368(4) -0.0450(2)
C6 C 0.28111(13) 1.1477(4) -0.0664(3)
H7 H 0.2601 1.1187 -0.1514
C7 C 0.19310(13) 0.7107(4) 0.0714(2)
C8 C 0.13952(13) 0.5436(4) 0.0116(2)
C9 C 0.09620(14) 0.5838(5) -0.1038(2)
H8 H 0.1004 0.7173 -0.1507
C10 C 0.04682(15) 0.4237(5) -0.1483(3)
H9 H 0.0175 0.4544 -0.2255
C11 C 0.08050(15) 0.1924(5) 0.0227(3)
H10 H 0.0759 0.0560 0.0666
C12 C 0.13018(14) 0.3430(5) 0.0768(3)
H11 H 0.1573 0.3108 0.1563
loop_
_geom_bond_atom_site_label_1
_geom_bond_atom_site_label_2
_geom_bond_site_symmetry_1
_geom_bond_site_symmetry_2
S1 C2 1_555 1_555
O1 C7 1_555 1_555
N1 N2 1_555 1_555
N2 H1 1_555 1_555
N3 C10 1_555 1_555
C1 H2 1_555 1_555
H3 C1 1_555 1_555
H4 C1 1_555 1_555
C2 C1 1_555 1_555
C3 C2 1_555 1_555
H5 C3 1_555 1_555
C4 C3 1_555 1_555
H6 C4 1_555 1_555
C5 S1 1_555 1_555
C6 N1 1_555 1_555
H7 C6 1_555 1_555
C7 N2 1_555 1_555
C8 C7 1_555 1_555
C9 C8 1_555 1_555
H8 C9 1_555 1_555
C10 C9 1_555 1_555
H9 C10 1_555 1_555
C11 N3 1_555 1_555
H10 C11 1_555 1_555
C12 C8 1_555 1_555
H11 C12 1_555 1_555
C4 C5 1_555 1_555
C5 C6 1_555 1_555
C11 C12 1_555 1_555

#END
