
#######################################################################
#
#                 Cambridge Crystallographic Data Centre
#                                CCDC 
#
#######################################################################
#
# If this CIF has been generated from an entry in the Cambridge 
# Structural Database, then it will include bibliographic, chemical, 
# crystal, experimental, refinement or atomic coordinate data resulting 
# from the CCDC's data processing and validation procedures.
#
#######################################################################

data_NIQPEI
_chemical_formula_moiety         'C50 H64 N2 O6,2(H2 O1)'
_chemical_name_systematic        
'5,11,17,23-Tetra-t-butyl-25,27-(4,5-dioxo-3,6-diazaoctane-1,8-dioxy)-26,28-dihydroxycalix(4)arene dihydrate'
_symmetry_cell_setting           monoclinic
_symmetry_space_group_name_H-M   'P 21/c'
_symmetry_Int_Tables_number      14
_space_group_name_Hall           '-P 2ybc'
loop_
_symmetry_equiv_pos_site_id
_symmetry_equiv_pos_as_xyz
1 x,y,z
2 -x,1/2+y,1/2-z
3 -x,-y,-z
4 x,1/2-y,1/2+z
_cell_length_a                   18.881(7)
_cell_length_b                   13.551(5)
_cell_length_c                   21.248(8)
_cell_angle_alpha                90
_cell_angle_beta                 107.677(8)
_cell_angle_gamma                90
_cell_volume                     5179.75
_chemical_melting_point          'above 280 deg.C'
_cell_formula_units_Z            4
_exptl_crystal_recrystallization_method methanol/chloroform
loop_
_atom_site_label
_atom_site_type_symbol
_atom_site_fract_x
_atom_site_fract_y
_atom_site_fract_z
N1 N 0.5133(4) 0.6020(5) 1.0830(4)
H1 H 0.5079 0.5473 1.0615
N2 N 0.5766(4) 0.7458(5) 0.9720(4)
H2 H 0.5873 0.7967 0.9973
O1 O 0.3724(3) 0.6790(4) 1.0608(3)
O2 O 0.4536(4) 0.8042(4) 0.8810(2)
O3 O 0.4146(3) 0.8576(4) 1.0117(2)
O4 O 0.3804(3) 0.6456(4) 0.9161(2)
O5 O 0.5733(4) 0.7474(5) 1.0972(3)
O6 O 0.5476(3) 0.5824(4) 0.9681(3)
C1 C 0.2852(4) 0.5364(6) 0.9649(4)
H3 H 0.3385 0.5345 0.9860
H4 H 0.2647 0.4738 0.9732
C2 C 0.2527(6) 0.6168(7) 0.9940(4)
C3 C 0.1771(7) 0.6309(7) 0.9726(4)
H5 H 0.1470 0.5856 0.9437
C4 C 0.1446(6) 0.7122(9) 0.9935(5)
C5 C 0.1875(7) 0.7840(7) 1.0319(5)
H6 H 0.1652 0.8399 1.0428
C6 C 0.2653(6) 0.7738(7) 1.0549(4)
C7 C 0.3132(4) 0.8587(6) 1.0921(4)
H7 H 0.2917 0.8854 1.1246
H8 H 0.3628 0.8350 1.1150
C8 C 0.3169(5) 0.9372(6) 1.0436(4)
C9 C 0.2658(4) 1.0150(7) 1.0328(4)
H9 H 0.2328 1.0171 1.0576
C10 C 0.2622(6) 1.0881(6) 0.9876(5)
C11 C 0.3132(5) 1.0824(6) 0.9515(4)
H10 H 0.3121 1.1315 0.9207
C12 C 0.3655(5) 1.0072(7) 0.9594(4)
C13 C 0.4143(4) 0.9989(5) 0.9163(4)
H11 H 0.4583 0.9607 0.9385
H12 H 0.4301 1.0640 0.9072
C14 C 0.3723(5) 0.9489(7) 0.8522(4)
C15 C 0.3120(5) 0.9936(6) 0.8055(5)
H13 H 0.3014 1.0596 0.8108
C16 C 0.2681(5) 0.9421(9) 0.7519(4)
C17 C 0.2860(5) 0.8457(8) 0.7412(5)
H14 H 0.2573 0.8129 0.7037
C18 C 0.3448(5) 0.7971(7) 0.7840(4)
C19 C 0.3557(4) 0.6881(7) 0.7761(4)
H15 H 0.3459 0.6734 0.7295
H16 H 0.4071 0.6712 0.7985
C20 C 0.3069(5) 0.6269(6) 0.8026(5)
C21 C 0.2382(6) 0.5896(6) 0.7599(4)
H17 H 0.2262 0.6041 0.7151
C22 C 0.1894(6) 0.5346(7) 0.7805(6)
C23 C 0.2085(5) 0.5147(6) 0.8489(5)
H18 H 0.1768 0.4751 0.8640
C24 C 0.2698(5) 0.5498(6) 0.8932(5)
C25 C 0.2943(5) 0.6896(8) 1.0366(4)
C26 C 0.3171(5) 0.6055(7) 0.8698(5)
C27 C 0.3897(5) 0.8526(7) 0.8391(4)
C28 C 0.3634(5) 0.9346(6) 1.0056(5)
C29 C 0.0588(7) 0.7296(9) 0.9721(7)
C30 C 0.0354(5) 0.8355(9) 0.9784(6)
H19 H -0.0178 0.8404 0.9621
H20 H 0.0571 0.8781 0.9531
H21 H 0.0522 0.8550 1.0240
C31 C 0.0283(6) 0.6541(15) 1.0075(12)
H22 H 0.0460 0.5900 1.0001
H23 H -0.0250 0.6550 0.9912
H24 H 0.0442 0.6683 1.0539
C32 C 0.0285(7) 0.7037(17) 0.9042(10)
H25 H 0.0442 0.6382 0.8973
H26 H 0.0456 0.7495 0.8775
H27 H -0.0248 0.7058 0.8919
C33 C 0.2008(6) 1.1676(8) 0.9733(6)
C34 C 0.2118(5) 1.2435(7) 0.9229(7)
H28 H 0.1725 1.2914 0.9137
H29 H 0.2110 1.2102 0.8828
H30 H 0.2588 1.2761 0.9409
C35 C 0.2001(5) 1.2204(7) 1.0356(5)
H31 H 0.1614 1.2691 1.0253
H32 H 0.2472 1.2520 1.0549
H33 H 0.1913 1.1736 1.0663
C36 C 0.1287(5) 1.1186(7) 0.9412(5)
H34 H 0.0897 1.1668 0.9309
H35 H 0.1193 1.0700 0.9706
H36 H 0.1305 1.0870 0.9012
C37 C 0.2065(7) 1.0006(11) 0.7014(7)
C38 C 0.2211(12) 1.0239(17) 0.6371(8)
H37 H 0.2617 1.0696 0.6450
H38 H 0.1774 1.0527 0.6069
H39 H 0.2335 0.9643 0.6184
C39 C 0.1797(9) 1.0881(12) 0.7321(7)
H40 H 0.2181 1.1373 0.7439
H41 H 0.1679 1.0672 0.7708
H42 H 0.1362 1.1155 0.7009
C40 C 0.1422(10) 0.9432(15) 0.6881(12)
H43 H 0.1019 0.9768 0.6569
H44 H 0.1300 0.9324 0.7283
H45 H 0.1506 0.8808 0.6701
C41 C 0.1183(8) 0.4990(14) 0.7282(7)
C42 C 0.0581(10) 0.528(2) 0.7421(13)
H46 H 0.0148 0.5030 0.7094
H47 H 0.0563 0.5988 0.7424
H48 H 0.0593 0.5033 0.7848
C43 C 0.1108(14) 0.3863(13) 0.7463(10)
H49 H 0.1534 0.3503 0.7433
H50 H 0.0666 0.3588 0.7161
H51 H 0.1077 0.3818 0.7905
C44 C 0.1158(7) 0.5000(13) 0.6601(6)
H52 H 0.1486 0.4502 0.6528
H53 H 0.1312 0.5635 0.6492
H54 H 0.0660 0.4868 0.6329
C45 C 0.3972(4) 0.6056(5) 1.1133(4)
H55 H 0.3802 0.5404 1.0967
H56 H 0.3777 0.6209 1.1495
C46 C 0.4814(6) 0.6094(6) 1.1366(4)
H57 H 0.4973 0.6709 1.1600
H58 H 0.5001 0.5558 1.1674
C47 C 0.5506(5) 0.6745(8) 1.0647(6)
C48 C 0.5592(5) 0.6603(8) 0.9971(6)
C49 C 0.5779(5) 0.7550(6) 0.9044(5)
H59 H 0.5669 0.6917 0.8823
H60 H 0.6269 0.7757 0.9040
C50 C 0.5199(5) 0.8312(6) 0.8682(4)
H61 H 0.5350 0.8971 0.8847
H62 H 0.5134 0.8298 0.8212
O7 O 0.6394(7) 0.7340(9) 0.2367(7)
O8 O 0.5235(7) 0.6180(11) 0.7362(8)
loop_
_geom_bond_atom_site_label_1
_geom_bond_atom_site_label_2
_geom_bond_site_symmetry_1
_geom_bond_site_symmetry_2
N1 H1 1_555 1_555
N2 H2 1_555 1_555
O1 C25 1_555 1_555
O2 C27 1_555 1_555
O3 C28 1_555 1_555
O4 C26 1_555 1_555
O5 C47 1_555 1_555
O6 C48 1_555 1_555
C1 H3 1_555 1_555
H4 C1 1_555 1_555
C2 C1 1_555 1_555
C3 C2 1_555 1_555
H5 C3 1_555 1_555
C4 C3 1_555 1_555
C5 C4 1_555 1_555
H6 C5 1_555 1_555
C6 C5 1_555 1_555
C7 C6 1_555 1_555
H7 C7 1_555 1_555
H8 C7 1_555 1_555
C8 C7 1_555 1_555
C9 C8 1_555 1_555
H9 C9 1_555 1_555
C10 C9 1_555 1_555
C11 C10 1_555 1_555
H10 C11 1_555 1_555
C12 C11 1_555 1_555
C13 C12 1_555 1_555
H11 C13 1_555 1_555
H12 C13 1_555 1_555
C14 C13 1_555 1_555
C15 C14 1_555 1_555
H13 C15 1_555 1_555
C16 C15 1_555 1_555
C17 C16 1_555 1_555
H14 C17 1_555 1_555
C18 C17 1_555 1_555
C19 C18 1_555 1_555
H15 C19 1_555 1_555
H16 C19 1_555 1_555
C20 C19 1_555 1_555
C21 C20 1_555 1_555
H17 C21 1_555 1_555
C22 C21 1_555 1_555
C23 C22 1_555 1_555
H18 C23 1_555 1_555
C24 C1 1_555 1_555
C25 C2 1_555 1_555
C26 C20 1_555 1_555
C27 C14 1_555 1_555
C28 C8 1_555 1_555
C29 C4 1_555 1_555
C30 C29 1_555 1_555
H19 C30 1_555 1_555
H20 C30 1_555 1_555
H21 C30 1_555 1_555
C31 C29 1_555 1_555
H22 C31 1_555 1_555
H23 C31 1_555 1_555
H24 C31 1_555 1_555
C32 C29 1_555 1_555
H25 C32 1_555 1_555
H26 C32 1_555 1_555
H27 C32 1_555 1_555
C33 C10 1_555 1_555
C34 C33 1_555 1_555
H28 C34 1_555 1_555
H29 C34 1_555 1_555
H30 C34 1_555 1_555
C35 C33 1_555 1_555
H31 C35 1_555 1_555
H32 C35 1_555 1_555
H33 C35 1_555 1_555
C36 C33 1_555 1_555
H34 C36 1_555 1_555
H35 C36 1_555 1_555
H36 C36 1_555 1_555
C37 C16 1_555 1_555
C38 C37 1_555 1_555
H37 C38 1_555 1_555
H38 C38 1_555 1_555
H39 C38 1_555 1_555
C39 C37 1_555 1_555
H40 C39 1_555 1_555
H41 C39 1_555 1_555
H42 C39 1_555 1_555
C40 C37 1_555 1_555
H43 C40 1_555 1_555
H44 C40 1_555 1_555
H45 C40 1_555 1_555
C41 C22 1_555 1_555
C42 C41 1_555 1_555
H46 C42 1_555 1_555
H47 C42 1_555 1_555
H48 C42 1_555 1_555
C43 C41 1_555 1_555
H49 C43 1_555 1_555
H50 C43 1_555 1_555
H51 C43 1_555 1_555
C44 C41 1_555 1_555
H52 C44 1_555 1_555
H53 C44 1_555 1_555
H54 C44 1_555 1_555
C45 O1 1_555 1_555
H55 C45 1_555 1_555
H56 C45 1_555 1_555
C46 N1 1_555 1_555
H57 C46 1_555 1_555
H58 C46 1_555 1_555
C47 N1 1_555 1_555
C48 N2 1_555 1_555
C49 N2 1_555 1_555
H59 C49 1_555 1_555
H60 C49 1_555 1_555
C50 O2 1_555 1_555
H61 C50 1_555 1_555
H62 C50 1_555 1_555
C6 C25 1_555 1_555
C12 C28 1_555 1_555
C18 C27 1_555 1_555
C23 C24 1_555 1_555
C24 C26 1_555 1_555
C45 C46 1_555 1_555
C47 C48 1_555 1_555
C49 C50 1_555 1_555

#END
