
#######################################################################
#
#                 Cambridge Crystallographic Data Centre
#                                CCDC 
#
#######################################################################
#
# If this CIF has been generated from an entry in the Cambridge 
# Structural Database, then it will include bibliographic, chemical, 
# crystal, experimental, refinement or atomic coordinate data resulting 
# from the CCDC's data processing and validation procedures.
#
#######################################################################

data_NIQQAG
_chemical_formula_moiety         'C25 H30 N4 O1'
_chemical_name_systematic        
2,2'-Diethyl-1,1'-(4-oxoheptane-1,7-diyl)di-1H-benzimidazole
_symmetry_cell_setting           monoclinic
_symmetry_space_group_name_H-M   'P 21/c'
_symmetry_Int_Tables_number      14
_space_group_name_Hall           '-P 2ybc'
loop_
_symmetry_equiv_pos_site_id
_symmetry_equiv_pos_as_xyz
1 x,y,z
2 -x,1/2+y,1/2-z
3 -x,-y,-z
4 x,1/2-y,1/2+z
_cell_length_a                   10.886(7)
_cell_length_b                   9.526(6)
_cell_length_c                   21.734(14)
_cell_angle_alpha                90
_cell_angle_beta                 102.672(12)
_cell_angle_gamma                90
_cell_volume                     2198.92
_exptl_crystal_colour            colorless
_exptl_crystal_description       block
_cell_formula_units_Z            4
loop_
_atom_site_label
_atom_site_type_symbol
_atom_site_fract_x
_atom_site_fract_y
_atom_site_fract_z
C1 C 0.65136(15) 0.65380(17) 0.54635(8)
C2 C 0.72914(15) 0.61470(17) 0.50605(7)
C3 C 0.77365(18) 0.7109(2) 0.46823(9)
H1 H 0.8260 0.6839 0.4418
C4 C 0.7366(2) 0.8478(2) 0.47173(10)
H2 H 0.7640 0.9151 0.4468
C5 C 0.6594(2) 0.8886(2) 0.51142(11)
H3 H 0.6361 0.9824 0.5123
C6 C 0.61636(18) 0.79397(19) 0.54961(9)
H4 H 0.5657 0.8224 0.5766
C7 C 0.67739(15) 0.43185(17) 0.55765(7)
C8 C 0.67221(18) 0.28324(18) 0.57800(9)
H5 H 0.7570 0.2520 0.5966
H6 H 0.6408 0.2257 0.5411
C9 C 0.5908(2) 0.2596(2) 0.62469(10)
H7 H 0.5918 0.1618 0.6355
H8 H 0.5061 0.2881 0.6064
H9 H 0.6226 0.3138 0.6620
C10 C 0.82124(15) 0.38095(19) 0.48254(8)
H10 H 0.8686 0.3159 0.5131
H11 H 0.8812 0.4385 0.4669
C11 C 0.74318(17) 0.29774(18) 0.42782(8)
H12 H 0.7993 0.2426 0.4084
H13 H 0.6891 0.2331 0.4441
C12 C 0.66271(15) 0.38945(17) 0.37815(7)
H14 H 0.6143 0.4523 0.3988
H15 H 0.7179 0.4469 0.3591
C13 C 0.57347(16) 0.31317(19) 0.32671(8)
C14 C 0.50134(16) 0.40223(18) 0.27465(8)
H16 H 0.5587 0.4338 0.2491
H17 H 0.4720 0.4849 0.2932
C15 C 0.38883(15) 0.33353(19) 0.23140(8)
H18 H 0.3705 0.3823 0.1912
H19 H 0.4096 0.2370 0.2236
C16 C 0.27321(15) 0.33575(17) 0.25925(8)
H20 H 0.2922 0.2899 0.3001
H21 H 0.2504 0.4323 0.2655
C17 C 0.13936(14) 0.12333(17) 0.21942(7)
C18 C 0.19173(16) 0.01599(19) 0.25986(8)
H22 H 0.2589 0.0317 0.2938
C19 C 0.13911(18) -0.1150(2) 0.24709(9)
H23 H 0.1716 -0.1899 0.2731
C20 C 0.03894(18) -0.13853(19) 0.19652(10)
H24 H 0.0061 -0.2287 0.1894
C21 C 0.03816(14) 0.10199(17) 0.16846(7)
C22 C 0.08260(15) 0.32118(17) 0.16817(7)
C23 C 0.07978(17) 0.47399(17) 0.15393(9)
H25 H 0.1615 0.5023 0.1472
H26 H 0.0647 0.5254 0.1901
C24 C -0.0204(2) 0.5131(2) 0.09637(10)
H27 H -0.0182 0.6125 0.0895
H28 H -0.1017 0.4871 0.1030
H29 H -0.0047 0.4645 0.0602
C25 C -0.01315(17) -0.03124(18) 0.15657(9)
H30 H -0.0805 -0.0477 0.1228
N1 N 0.74548(13) 0.47145(14) 0.51418(6)
N2 N 0.62039(13) 0.53759(14) 0.57860(6)
N3 N 0.16700(12) 0.26482(14) 0.21831(6)
N4 N 0.00414(13) 0.22733(13) 0.13691(6)
O1 O 0.55972(14) 0.18762(14) 0.32768(6)
loop_
_geom_bond_atom_site_label_1
_geom_bond_atom_site_label_2
_geom_bond_site_symmetry_1
_geom_bond_site_symmetry_2
C1 C2 1_555 1_555
C2 C3 1_555 1_555
C3 H1 1_555 1_555
C4 C3 1_555 1_555
H2 C4 1_555 1_555
C5 C4 1_555 1_555
H3 C5 1_555 1_555
C6 C1 1_555 1_555
H4 C6 1_555 1_555
C7 C8 1_555 1_555
C8 H5 1_555 1_555
H6 C8 1_555 1_555
C9 C8 1_555 1_555
H7 C9 1_555 1_555
H8 C9 1_555 1_555
H9 C9 1_555 1_555
C10 H10 1_555 1_555
H11 C10 1_555 1_555
C11 C10 1_555 1_555
H12 C11 1_555 1_555
H13 C11 1_555 1_555
C12 C11 1_555 1_555
H14 C12 1_555 1_555
H15 C12 1_555 1_555
C13 C12 1_555 1_555
C14 C13 1_555 1_555
H16 C14 1_555 1_555
H17 C14 1_555 1_555
C15 C14 1_555 1_555
H18 C15 1_555 1_555
H19 C15 1_555 1_555
C16 C15 1_555 1_555
H20 C16 1_555 1_555
H21 C16 1_555 1_555
C17 C18 1_555 1_555
C18 H22 1_555 1_555
C19 C18 1_555 1_555
H23 C19 1_555 1_555
C20 C19 1_555 1_555
H24 C20 1_555 1_555
C21 C17 1_555 1_555
C22 C23 1_555 1_555
C23 H25 1_555 1_555
H26 C23 1_555 1_555
C24 C23 1_555 1_555
H27 C24 1_555 1_555
H28 C24 1_555 1_555
H29 C24 1_555 1_555
C25 C20 1_555 1_555
H30 C25 1_555 1_555
N1 C2 1_555 1_555
N2 C1 1_555 1_555
N3 C16 1_555 1_555
N4 C21 1_555 1_555
O1 C13 1_555 1_555
C5 C6 1_555 1_555
C7 N1 1_555 1_555
C7 N2 1_555 1_555
C10 N1 1_555 1_555
C17 N3 1_555 1_555
C21 C25 1_555 1_555
C22 N3 1_555 1_555
C22 N4 1_555 1_555

#END
