
#######################################################################
#
#                 Cambridge Crystallographic Data Centre
#                                CCDC 
#
#######################################################################
#
# If this CIF has been generated from an entry in the Cambridge 
# Structural Database, then it will include bibliographic, chemical, 
# crystal, experimental, refinement or atomic coordinate data resulting 
# from the CCDC's data processing and validation procedures.
#
#######################################################################

data_NIQQEK
_chemical_formula_moiety         'C13 H13 N1 O1'
_chemical_name_systematic        2-(Anilinomethyl)phenol
_symmetry_cell_setting           triclinic
_symmetry_space_group_name_H-M   'P -1'
_symmetry_Int_Tables_number      2
_space_group_name_Hall           '-P 1'
loop_
_symmetry_equiv_pos_site_id
_symmetry_equiv_pos_as_xyz
1 x,y,z
2 -x,-y,-z
_cell_length_a                   5.5911(16)
_cell_length_b                   7.932(2)
_cell_length_c                   11.803(3)
_cell_angle_alpha                90.649(5)
_cell_angle_beta                 91.985(4)
_cell_angle_gamma                90.323(5)
_cell_volume                     523.089
_exptl_crystal_colour            colorless
_exptl_crystal_description       prism
_cell_formula_units_Z            2
loop_
_atom_site_label
_atom_site_type_symbol
_atom_site_fract_x
_atom_site_fract_y
_atom_site_fract_z
H1 H 0.524(3) 0.7013(18) 0.9462(12)
N1 N 0.6501(2) 0.70555(13) 0.90607(9)
O1 O 1.20706(16) 0.62179(11) 1.04289(7)
H2 H 1.2523 0.5298 1.0659
C1 C 0.8734(2) 0.79374(16) 1.08012(11)
C2 C 1.0614(2) 0.69432(15) 1.12069(10)
C3 C 1.1025(2) 0.67500(18) 1.23582(11)
H3 H 1.2296 0.6095 1.2623
C4 C 0.9552(3) 0.7527(2) 1.31168(12)
H4 H 0.9828 0.7387 1.3891
C5 C 0.7681(3) 0.8508(2) 1.27337(13)
H5 H 0.6687 0.9030 1.3245
C6 C 0.7296(3) 0.87091(19) 1.15865(13)
H6 H 0.6036 0.9381 1.1330
C7 C 0.8315(2) 0.82149(17) 0.95536(11)
H7 H 0.7802 0.9367 0.9433
H8 H 0.9806 0.8057 0.9170
C8 C 0.5870(2) 0.72473(15) 0.78965(11)
C9 C 0.7269(3) 0.81622(19) 0.71694(12)
H9 H 0.8623 0.8735 0.7451
C10 C 0.6651(3) 0.8221(2) 0.60285(13)
H10 H 0.7602 0.8832 0.5547
C11 C 0.4659(3) 0.7395(2) 0.55931(13)
H11 H 0.4264 0.7436 0.4822
C12 C 0.3253(3) 0.6506(2) 0.63132(14)
H12 H 0.1889 0.5952 0.6026
C13 C 0.3841(3) 0.64261(19) 0.74551(12)
H13 H 0.2874 0.5819 0.7932
loop_
_geom_bond_atom_site_label_1
_geom_bond_atom_site_label_2
_geom_bond_site_symmetry_1
_geom_bond_site_symmetry_2
H1 N1 1_555 1_555
N1 C7 1_555 1_555
O1 H2 1_555 1_555
C1 C2 1_555 1_555
C2 O1 1_555 1_555
C3 C2 1_555 1_555
H3 C3 1_555 1_555
C4 C3 1_555 1_555
H4 C4 1_555 1_555
C5 C4 1_555 1_555
H5 C5 1_555 1_555
C6 C1 1_555 1_555
H6 C6 1_555 1_555
C7 C1 1_555 1_555
H7 C7 1_555 1_555
H8 C7 1_555 1_555
C8 N1 1_555 1_555
C9 C8 1_555 1_555
H9 C9 1_555 1_555
C10 C9 1_555 1_555
H10 C10 1_555 1_555
C11 C10 1_555 1_555
H11 C11 1_555 1_555
C12 C11 1_555 1_555
H12 C12 1_555 1_555
C13 C8 1_555 1_555
H13 C13 1_555 1_555
C5 C6 1_555 1_555
C12 C13 1_555 1_555

#END
