
#######################################################################
#
#                 Cambridge Crystallographic Data Centre
#                                CCDC 
#
#######################################################################
#
# If this CIF has been generated from an entry in the Cambridge 
# Structural Database, then it will include bibliographic, chemical, 
# crystal, experimental, refinement or atomic coordinate data resulting 
# from the CCDC's data processing and validation procedures.
#
#######################################################################

data_NIQSIQ
_chemical_formula_moiety         'C26 H30 B10 P2'
_chemical_name_systematic        
1,7-bis(Diphenylphosphino)-1,7-dicarba-closo-dodecaborane(10)
_symmetry_cell_setting           monoclinic
_symmetry_space_group_name_H-M   'P 21/n'
_symmetry_Int_Tables_number      14
_space_group_name_Hall           '-P 2yn'
loop_
_symmetry_equiv_pos_site_id
_symmetry_equiv_pos_as_xyz
1 x,y,z
2 1/2-x,1/2+y,1/2-z
3 -x,-y,-z
4 1/2+x,1/2-y,1/2+z
_cell_length_a                   9.783(5)
_cell_length_b                   18.069(9)
_cell_length_c                   16.373(8)
_cell_angle_alpha                90
_cell_angle_beta                 104.399(6)
_cell_angle_gamma                90
_cell_volume                     2803.32
_exptl_crystal_colour            colorless
_exptl_crystal_description       block
_chemical_melting_point          373K
_cell_formula_units_Z            4
_exptl_crystal_recrystallization_method dichloromethane
loop_
_atom_site_label
_atom_site_type_symbol
_atom_site_fract_x
_atom_site_fract_y
_atom_site_fract_z
P1 P 0.55217(8) 0.22819(5) 0.54071(5)
P2 P 1.14944(8) 0.29856(5) 0.52703(5)
C1 C 0.6907(3) 0.28633(15) 0.50867(16)
C2 C 0.9565(3) 0.32104(15) 0.50979(17)
B1 B 0.8322(3) 0.25335(19) 0.47661(19)
H1 H 0.8559 0.1942 0.4716
B2 B 0.8539(3) 0.29779(18) 0.57592(19)
H2 H 0.8922 0.2675 0.6355
B3 B 0.7249(4) 0.36785(19) 0.5644(2)
H3 H 0.6774 0.3827 0.6164
B4 B 0.6246(4) 0.3679(2) 0.4582(2)
H4 H 0.5121 0.3828 0.4411
B5 B 0.6921(4) 0.2970(2) 0.4040(2)
H5 H 0.6238 0.2661 0.3516
B6 B 0.8999(4) 0.39119(19) 0.5651(2)
H6 H 0.9690 0.4219 0.6174
B7 B 0.7583(4) 0.4347(2) 0.4930(2)
H7 H 0.7343 0.4937 0.4985
B8 B 0.7368(4) 0.3908(2) 0.3935(2)
H8 H 0.6983 0.4214 0.3342
B9 B 0.8664(4) 0.31998(19) 0.4050(2)
H9 H 0.9141 0.3045 0.3533
B10 B 0.9087(4) 0.4043(2) 0.4594(2)
H10 H 0.9841 0.4432 0.4429
C3 C 0.4947(3) 0.16648(17) 0.45081(18)
C4 C 0.3981(3) 0.19668(19) 0.3817(2)
H11 H 0.3709 0.2459 0.3834
C5 C 0.3424(4) 0.1554(2) 0.3112(2)
H12 H 0.2791 0.1768 0.2654
C6 C 0.3796(4) 0.0829(2) 0.3080(2)
H13 H 0.3423 0.0551 0.2598
C7 C 0.4720(4) 0.0506(2) 0.3758(2)
H14 H 0.4958 0.0009 0.3739
C8 C 0.5295(3) 0.09241(18) 0.44683(19)
H15 H 0.5924 0.0705 0.4925
C9 C 0.6517(3) 0.17128(16) 0.62705(18)
C10 C 0.6028(4) 0.17367(19) 0.6994(2)
H16 H 0.5231 0.2016 0.6999
C11 C 0.6711(5) 0.1350(2) 0.7709(2)
H17 H 0.6368 0.1372 0.8190
C12 C 0.7868(4) 0.0942(2) 0.7716(2)
H18 H 0.8317 0.0683 0.8199
C13 C 0.8384(4) 0.09080(19) 0.7005(2)
H19 H 0.9187 0.0630 0.7009
C14 C 0.7707(3) 0.12866(17) 0.6290(2)
H20 H 0.8052 0.1257 0.5811
C15 C 1.2338(3) 0.34047(16) 0.62844(17)
C16 C 1.3554(3) 0.37966(16) 0.6286(2)
H21 H 1.3856 0.3837 0.5793
C17 C 1.4318(4) 0.41272(19) 0.7013(2)
H22 H 1.5136 0.4388 0.7009
C18 C 1.3882(4) 0.4075(2) 0.7741(2)
H23 H 1.4408 0.4297 0.8232
C19 C 1.2675(4) 0.36979(18) 0.7751(2)
H24 H 1.2374 0.3670 0.8246
C20 C 1.1907(3) 0.33611(18) 0.70329(18)
H25 H 1.1091 0.3101 0.7045
C21 C 1.1562(3) 0.19890(17) 0.54844(19)
C22 C 1.1403(3) 0.15312(19) 0.4789(2)
H26 H 1.1199 0.1740 0.4253
C23 C 1.1539(4) 0.0777(2) 0.4870(2)
H27 H 1.1422 0.0483 0.4392
C24 C 1.1844(4) 0.0457(2) 0.5648(2)
H28 H 1.1933 -0.0054 0.5704
C25 C 1.2020(4) 0.0897(2) 0.6344(2)
H29 H 1.2235 0.0683 0.6878
C26 C 1.1881(4) 0.1655(2) 0.6266(2)
H30 H 1.2005 0.1946 0.6748
loop_
_geom_bond_atom_site_label_1
_geom_bond_atom_site_label_2
_geom_bond_site_symmetry_1
_geom_bond_site_symmetry_2
P1 C1 1_555 1_555
P2 C2 1_555 1_555
C1 B1 1_555 1_555
C2 B1 1_555 1_555
B1 H1 1_555 1_555
B2 C1 1_555 1_555
H2 B2 1_555 1_555
B3 C1 1_555 1_555
H3 B3 1_555 1_555
B4 C1 1_555 1_555
H4 B4 1_555 1_555
B5 C1 1_555 1_555
H5 B5 1_555 1_555
B6 C2 1_555 1_555
H6 B6 1_555 1_555
B7 B3 1_555 1_555
H7 B7 1_555 1_555
B8 B4 1_555 1_555
H8 B8 1_555 1_555
B9 C2 1_555 1_555
H9 B9 1_555 1_555
B10 C2 1_555 1_555
H10 B10 1_555 1_555
C3 P1 1_555 1_555
C4 C3 1_555 1_555
H11 C4 1_555 1_555
C5 C4 1_555 1_555
H12 C5 1_555 1_555
C6 C5 1_555 1_555
H13 C6 1_555 1_555
C7 C6 1_555 1_555
H14 C7 1_555 1_555
C8 C3 1_555 1_555
H15 C8 1_555 1_555
C9 P1 1_555 1_555
C10 C9 1_555 1_555
H16 C10 1_555 1_555
C11 C10 1_555 1_555
H17 C11 1_555 1_555
C12 C11 1_555 1_555
H18 C12 1_555 1_555
C13 C12 1_555 1_555
H19 C13 1_555 1_555
C14 C9 1_555 1_555
H20 C14 1_555 1_555
C15 P2 1_555 1_555
C16 C15 1_555 1_555
H21 C16 1_555 1_555
C17 C16 1_555 1_555
H22 C17 1_555 1_555
C18 C17 1_555 1_555
H23 C18 1_555 1_555
C19 C18 1_555 1_555
H24 C19 1_555 1_555
C20 C15 1_555 1_555
H25 C20 1_555 1_555
C21 P2 1_555 1_555
C22 C21 1_555 1_555
H26 C22 1_555 1_555
C23 C22 1_555 1_555
H27 C23 1_555 1_555
C24 C23 1_555 1_555
H28 C24 1_555 1_555
C25 C24 1_555 1_555
H29 C25 1_555 1_555
C26 C21 1_555 1_555
H30 C26 1_555 1_555
C2 B2 1_555 1_555
B1 B2 1_555 1_555
B1 B5 1_555 1_555
B1 B9 1_555 1_555
B2 B3 1_555 1_555
B2 B6 1_555 1_555
B3 B4 1_555 1_555
B3 B6 1_555 1_555
B4 B5 1_555 1_555
B4 B7 1_555 1_555
B5 B8 1_555 1_555
B5 B9 1_555 1_555
B6 B7 1_555 1_555
B6 B10 1_555 1_555
B7 B8 1_555 1_555
B7 B10 1_555 1_555
B8 B9 1_555 1_555
B8 B10 1_555 1_555
B9 B10 1_555 1_555
C7 C8 1_555 1_555
C13 C14 1_555 1_555
C19 C20 1_555 1_555
C25 C26 1_555 1_555

#END
