
#######################################################################
#
#                 Cambridge Crystallographic Data Centre
#                                CCDC 
#
#######################################################################
#
# If this CIF has been generated from an entry in the Cambridge 
# Structural Database, then it will include bibliographic, chemical, 
# crystal, experimental, refinement or atomic coordinate data resulting 
# from the CCDC's data processing and validation procedures.
#
#######################################################################

data_NIQTOX
_chemical_formula_moiety         'C11 H12 O3'
_chemical_name_systematic        
1,1'-(2-Hydroxy-5-methyl-1,3-phenylene)diethanone
_symmetry_cell_setting           monoclinic
_symmetry_space_group_name_H-M   'P 21/c'
_symmetry_Int_Tables_number      14
_space_group_name_Hall           '-P 2ybc'
loop_
_symmetry_equiv_pos_site_id
_symmetry_equiv_pos_as_xyz
1 x,y,z
2 -x,1/2+y,1/2-z
3 -x,-y,-z
4 x,1/2-y,1/2+z
_cell_length_a                   9.1404(3)
_cell_length_b                   16.0798(5)
_cell_length_c                   7.2639(2)
_cell_angle_alpha                90
_cell_angle_beta                 109.601(2)
_cell_angle_gamma                90
_cell_volume                     1005.75
_exptl_crystal_colour            colorless
_exptl_crystal_description       plate
_cell_formula_units_Z            4
loop_
_atom_site_label
_atom_site_type_symbol
_atom_site_fract_x
_atom_site_fract_y
_atom_site_fract_z
O1 O 0.55595(18) 0.07936(10) 0.6888(3)
O2 O 0.58456(15) 0.23486(9) 0.6841(3)
H1 H 0.5436 0.1899 0.6892
O3 O 0.8741(2) 0.43432(10) 0.7143(3)
C1 C 0.7565(3) -0.01684(14) 0.7204(4)
H2 H 0.6757 -0.0559 0.7148
H3 H 0.8405 -0.0235 0.8415
H4 H 0.7936 -0.0267 0.6133
C2 C 0.6942(2) 0.06921(13) 0.7073(3)
C3 C 0.7953(2) 0.14150(11) 0.7159(3)
C4 C 0.7344(2) 0.22292(11) 0.7045(3)
C5 C 0.8321(2) 0.29126(11) 0.7151(3)
C6 C 0.9857(2) 0.27648(12) 0.7345(3)
H5 H 1.0499 0.3220 0.7401
C7 C 1.0489(2) 0.19765(12) 0.7458(3)
C8 C 0.9516(2) 0.13103(12) 0.7364(3)
H6 H 0.9913 0.0774 0.7441
C9 C 1.2178(2) 0.18455(15) 0.7649(4)
H7 H 1.2810 0.1867 0.9004
H8 H 1.2497 0.2274 0.6946
H9 H 1.2294 0.1312 0.7119
C10 C 0.7809(2) 0.38034(13) 0.7063(3)
C11 C 0.6192(3) 0.40390(15) 0.6887(4)
H10 H 0.6139 0.4628 0.7064
H11 H 0.5896 0.3753 0.7867
H12 H 0.5500 0.3887 0.5615
loop_
_geom_bond_atom_site_label_1
_geom_bond_atom_site_label_2
_geom_bond_site_symmetry_1
_geom_bond_site_symmetry_2
O1 C2 1_555 1_555
O2 H1 1_555 1_555
O3 C10 1_555 1_555
C1 H2 1_555 1_555
H3 C1 1_555 1_555
H4 C1 1_555 1_555
C2 C1 1_555 1_555
C3 C2 1_555 1_555
C4 O2 1_555 1_555
C5 C4 1_555 1_555
C6 C5 1_555 1_555
H5 C6 1_555 1_555
C7 C6 1_555 1_555
C8 C3 1_555 1_555
H6 C8 1_555 1_555
C9 C7 1_555 1_555
H7 C9 1_555 1_555
H8 C9 1_555 1_555
H9 C9 1_555 1_555
C10 C5 1_555 1_555
C11 C10 1_555 1_555
H10 C11 1_555 1_555
H11 C11 1_555 1_555
H12 C11 1_555 1_555
C3 C4 1_555 1_555
C7 C8 1_555 1_555

#END
