
#######################################################################
#
#                 Cambridge Crystallographic Data Centre
#                                CCDC 
#
#######################################################################
#
# If this CIF has been generated from an entry in the Cambridge 
# Structural Database, then it will include bibliographic, chemical, 
# crystal, experimental, refinement or atomic coordinate data resulting 
# from the CCDC's data processing and validation procedures.
#
#######################################################################

data_NIRFOM
_chemical_formula_moiety         'C13 H10 Cl1 N1 O1'
_chemical_name_systematic        
5-(1-chloro-3-phenylprop-2-yn-1-ylidene)pyrrolidin-2-one
_symmetry_cell_setting           triclinic
_symmetry_space_group_name_H-M   'P -1'
_symmetry_Int_Tables_number      2
_space_group_name_Hall           '-P 1'
loop_
_symmetry_equiv_pos_site_id
_symmetry_equiv_pos_as_xyz
1 x,y,z
2 -x,-y,-z
_cell_length_a                   7.1030(14)
_cell_length_b                   7.1710(14)
_cell_length_c                   22.409(4)
_cell_angle_alpha                94.46(3)
_cell_angle_beta                 96.95(3)
_cell_angle_gamma                98.47(3)
_cell_volume                     1115.35
_exptl_crystal_colour            colorless
_exptl_crystal_description       block
_cell_formula_units_Z            4
loop_
_atom_site_label
_atom_site_type_symbol
_atom_site_fract_x
_atom_site_fract_y
_atom_site_fract_z
Cl1 Cl 0.37757(8) 0.80451(7) 0.54367(2)
O1 O 0.2099(3) 0.3112(2) 0.34885(7)
C1 C 0.1987(3) 0.3177(3) 0.40292(9)
C2 C 0.1194(3) 0.1561(3) 0.43695(9)
H1 H 0.190355 0.048201 0.431863
H2 H -0.018324 0.112137 0.422292
C3 C 0.1471(3) 0.2375(3) 0.50333(9)
H3 H 0.023067 0.225343 0.519734
H4 H 0.236842 0.172319 0.528301
C4 C 0.2303(3) 0.4438(3) 0.50165(9)
N1 N 0.2560(3) 0.4753(3) 0.44275(8)
H5 H 0.297(4) 0.574(4) 0.4298(12)
C5 C 0.2745(3) 0.5722(3) 0.55028(9)
C6 C 0.2397(3) 0.5225(3) 0.60857(9)
C7 C 0.2027(4) 0.4661(3) 0.65550(10)
C8 C 0.1590(3) 0.3815(3) 0.70881(9)
C9 C 0.1950(4) 0.4822(3) 0.76594(10)
H6 H 0.247798 0.612960 0.770163
C10 C 0.1540(4) 0.3924(4) 0.81665(11)
H7 H 0.178594 0.461995 0.855354
C11 C 0.0776(4) 0.2020(4) 0.81101(11)
H8 H 0.049712 0.141176 0.845820
C12 C 0.0415(4) 0.0994(4) 0.75441(12)
H9 H -0.009704 -0.031667 0.750560
C13 C 0.0802(4) 0.1887(3) 0.70391(11)
H10 H 0.053208 0.118724 0.665267
Cl2 Cl 0.25131(10) 0.31433(8) 0.19793(2)
O2 O 0.4036(3) 0.8024(2) 0.39087(7)
C14 C 0.4081(3) 0.8002(3) 0.33633(10)
C15 C 0.4644(4) 0.9695(3) 0.30213(10)
H11 H 0.598645 1.029490 0.316280
H12 H 0.378743 1.065006 0.307447
C16 C 0.4421(4) 0.8880(3) 0.23569(10)
H13 H 0.348553 0.948190 0.210390
H14 H 0.566756 0.907330 0.219716
C17 C 0.3700(3) 0.6803(3) 0.23703(9)
N2 N 0.3610(3) 0.6430(3) 0.29647(8)
H15 H 0.326(4) 0.542(4) 0.3080(13)
C18 C 0.3235(4) 0.5533(3) 0.18847(10)
C19 C 0.3225(4) 0.6033(3) 0.12843(10)
C20 C 0.3185(4) 0.6532(3) 0.07879(10)
C21 C 0.3120(4) 0.7173(3) 0.01941(10)
C22 C 0.1406(5) 0.7643(4) -0.00867(12)
H16 H 0.028205 0.749552 0.010656
C23 C 0.1365(5) 0.8330(5) -0.06510(13)
H17 H 0.020709 0.865866 -0.084184
C24 C 0.2977(6) 0.8537(4) -0.09344(11)
H18 H 0.292557 0.900439 -0.132022
C25 C 0.4676(6) 0.8071(4) -0.06639(13)
H19 H 0.578907 0.821868 -0.086280
C26 C 0.4752(5) 0.7382(3) -0.00977(11)
H20 H 0.591625 0.705659 0.008904
loop_
_geom_bond_atom_site_label_1
_geom_bond_atom_site_label_2
_geom_bond_site_symmetry_1
_geom_bond_site_symmetry_2
Cl1 C5 1_555 1_555
O1 C1 1_555 1_555
C1 C2 1_555 1_555
C2 H1 1_555 1_555
H2 C2 1_555 1_555
C3 C2 1_555 1_555
H3 C3 1_555 1_555
H4 C3 1_555 1_555
C4 C3 1_555 1_555
N1 C1 1_555 1_555
H5 N1 1_555 1_555
C5 C4 1_555 1_555
C6 C5 1_555 1_555
C7 C6 1_555 1_555
C8 C7 1_555 1_555
C9 C8 1_555 1_555
H6 C9 1_555 1_555
C10 C9 1_555 1_555
H7 C10 1_555 1_555
C11 C10 1_555 1_555
H8 C11 1_555 1_555
C12 C11 1_555 1_555
H9 C12 1_555 1_555
C13 C8 1_555 1_555
H10 C13 1_555 1_555
Cl2 C18 1_555 1_555
O2 C14 1_555 1_555
C14 C15 1_555 1_555
C15 H11 1_555 1_555
H12 C15 1_555 1_555
C16 C15 1_555 1_555
H13 C16 1_555 1_555
H14 C16 1_555 1_555
C17 C16 1_555 1_555
N2 C14 1_555 1_555
H15 N2 1_555 1_555
C18 C17 1_555 1_555
C19 C18 1_555 1_555
C20 C19 1_555 1_555
C21 C20 1_555 1_555
C22 C21 1_555 1_555
H16 C22 1_555 1_555
C23 C22 1_555 1_555
H17 C23 1_555 1_555
C24 C23 1_555 1_555
H18 C24 1_555 1_555
C25 C24 1_555 1_555
H19 C25 1_555 1_555
C26 C21 1_555 1_555
H20 C26 1_555 1_555
C4 N1 1_555 1_555
C12 C13 1_555 1_555
C17 N2 1_555 1_555
C25 C26 1_555 1_555

#END
