
#######################################################################
#
#                 Cambridge Crystallographic Data Centre
#                                CCDC 
#
#######################################################################
#
# If this CIF has been generated from an entry in the Cambridge 
# Structural Database, then it will include bibliographic, chemical, 
# crystal, experimental, refinement or atomic coordinate data resulting 
# from the CCDC's data processing and validation procedures.
#
#######################################################################

data_NIRKUX
_chemical_formula_moiety         'C17 H11 N1 O1'
_chemical_name_systematic        3-phenyl-5H-pyrrolo[2,1-a]isoindol-5-one
_symmetry_cell_setting           orthorhombic
_symmetry_space_group_name_H-M   'P 21 21 21'
_symmetry_Int_Tables_number      19
_space_group_name_Hall           'P 2ac 2ab'
loop_
_symmetry_equiv_pos_site_id
_symmetry_equiv_pos_as_xyz
1 x,y,z
2 1/2-x,-y,1/2+z
3 -x,1/2+y,1/2-z
4 1/2+x,1/2-y,-z
_cell_length_a                   6.22900(10)
_cell_length_b                   13.6065(2)
_cell_length_c                   14.6177(3)
_cell_angle_alpha                90
_cell_angle_beta                 90
_cell_angle_gamma                90
_cell_volume                     1238.92
_exptl_crystal_colour            orange
_cell_formula_units_Z            4
loop_
_atom_site_label
_atom_site_type_symbol
_atom_site_fract_x
_atom_site_fract_y
_atom_site_fract_z
O1 O 0.7555(2) 0.78108(8) 0.29560(8)
N1 N 0.7393(2) 0.62572(8) 0.22528(8)
C1 C 1.0301(2) 0.64274(11) 0.12861(10)
C2 C 0.8517(2) 0.58003(11) 0.15486(10)
C3 C 0.4199(2) 0.58499(11) 0.32820(11)
C4 C 1.0142(2) 0.72825(11) 0.18154(10)
C5 C 0.8254(2) 0.72102(10) 0.24236(10)
C6 C 0.5673(2) 0.56561(11) 0.25221(10)
C7 C 0.5772(3) 0.48444(11) 0.19683(11)
H1 H 0.4820 0.4318 0.1986
C8 C 1.1990(3) 0.63094(13) 0.06835(11)
H2 H 1.2114 0.5745 0.0329
C9 C 1.3494(3) 0.70572(14) 0.06224(12)
H3 H 1.4643 0.6988 0.0221
C10 C 0.2196(3) 0.53921(13) 0.32852(12)
H4 H 0.1806 0.4988 0.2800
C11 C 1.1642(3) 0.80255(13) 0.17500(11)
H5 H 1.1523 0.8592 0.2103
C12 C 0.4761(3) 0.64307(12) 0.40339(11)
H6 H 0.6104 0.6729 0.4053
C13 C 0.7545(3) 0.49277(12) 0.13642(11)
H7 H 0.7963 0.4472 0.0925
C14 C 0.0782(3) 0.55335(14) 0.40050(14)
H8 H -0.0551 0.5225 0.3999
C15 C 1.3331(3) 0.79038(14) 0.11427(12)
H9 H 1.4362 0.8394 0.1085
C16 C 0.1341(3) 0.61291(14) 0.47306(14)
H10 H 0.0375 0.6236 0.5206
C17 C 0.3342(3) 0.65657(13) 0.47483(13)
H11 H 0.3737 0.6953 0.5245
loop_
_geom_bond_atom_site_label_1
_geom_bond_atom_site_label_2
_geom_bond_site_symmetry_1
_geom_bond_site_symmetry_2
O1 C5 1_555 1_555
N1 C2 1_555 1_555
C1 C2 1_555 1_555
C2 C13 1_555 1_555
C3 C6 1_555 1_555
C4 C1 1_555 1_555
C5 N1 1_555 1_555
C6 N1 1_555 1_555
C7 C6 1_555 1_555
H1 C7 1_555 1_555
C8 C1 1_555 1_555
H2 C8 1_555 1_555
C9 C8 1_555 1_555
H3 C9 1_555 1_555
C10 C3 1_555 1_555
H4 C10 1_555 1_555
C11 C4 1_555 1_555
H5 C11 1_555 1_555
C12 C3 1_555 1_555
H6 C12 1_555 1_555
C13 C7 1_555 1_555
H7 C13 1_555 1_555
C14 C10 1_555 1_555
H8 C14 1_555 1_555
C15 C9 1_555 1_555
H9 C15 1_555 1_555
C16 C14 1_555 1_555
H10 C16 1_555 1_555
C17 C12 1_555 1_555
H11 C17 1_555 1_555
C4 C5 1_555 1_555
C11 C15 1_555 1_555
C16 C17 1_555 1_555

#END
