
#######################################################################
#
#                 Cambridge Crystallographic Data Centre
#                                CCDC 
#
#######################################################################
#
# If this CIF has been generated from an entry in the Cambridge 
# Structural Database, then it will include bibliographic, chemical, 
# crystal, experimental, refinement or atomic coordinate data resulting 
# from the CCDC's data processing and validation procedures.
#
#######################################################################

data_NIRMUX
_chemical_formula_moiety         'C21 H21 N3 O1 S1'
_chemical_name_systematic        
6-(\a-Cyano-(1-naphthylmethyl))-3,4-dihydro-5-ethyl-2-isopropylthiopyrimidin-4(3H)-one
_chemical_properties_biological  'anti-HIV-1 activity against MT-4 cells'
_symmetry_cell_setting           monoclinic
_symmetry_space_group_name_H-M   'P 21/n'
_symmetry_Int_Tables_number      14
_space_group_name_Hall           '-P 2yn'
loop_
_symmetry_equiv_pos_site_id
_symmetry_equiv_pos_as_xyz
1 x,y,z
2 1/2-x,1/2+y,1/2-z
3 -x,-y,-z
4 1/2+x,1/2-y,1/2+z
_cell_length_a                   10.822(3)
_cell_length_b                   15.375(3)
_cell_length_c                   12.061(4)
_cell_angle_alpha                90
_cell_angle_beta                 105.51(3)
_cell_angle_gamma                90
_cell_volume                     1933.73
_chemical_melting_point          228-229.4deg.C
_cell_formula_units_Z            4
_exptl_crystal_recrystallization_method methanol
loop_
_atom_site_label
_atom_site_type_symbol
_atom_site_fract_x
_atom_site_fract_y
_atom_site_fract_z
S1 S 0.3725(1) -0.0006(1) 0.1221(1)
O1 O -0.0790(2) 0.0689(1) 0.0786(2)
N1 N 0.2906(2) 0.1190(1) 0.2460(2)
C1 C 0.2576(2) 0.0613(2) 0.1655(2)
N2 N 0.1339(2) 0.0445(1) 0.1094(2)
C2 C 0.0321(2) 0.0874(2) 0.1325(2)
C3 C 0.0669(2) 0.1539(2) 0.2204(2)
C4 C 0.1939(2) 0.1652(2) 0.2710(2)
C5 C 0.5202(3) 0.0565(2) 0.1941(3)
C6 C 0.6287(3) -0.0042(3) 0.2017(4)
C7 C 0.5322(3) 0.1408(2) 0.1320(4)
C8 C 0.2460(3) 0.2319(2) 0.3673(2)
C9 C 0.2591(3) 0.1865(2) 0.4774(3)
N3 N 0.2669(3) 0.1491(2) 0.5596(3)
C10 C 0.3709(3) 0.2723(2) 0.3594(2)
C11 C 0.4863(3) 0.2488(2) 0.4331(3)
C12 C 0.6022(3) 0.2827(2) 0.4226(3)
C13 C 0.6029(3) 0.3395(2) 0.3380(3)
C14 C 0.4874(4) 0.4259(2) 0.1710(3)
C15 C 0.3764(4) 0.4524(2) 0.0975(3)
C16 C 0.2583(4) 0.4197(2) 0.1064(3)
C17 C 0.2549(3) 0.3604(2) 0.1907(3)
C18 C 0.4885(3) 0.3667(2) 0.2593(3)
C19 C 0.3689(3) 0.3321(2) 0.2700(2)
C20 C -0.0403(3) 0.2050(2) 0.2473(2)
C21 C -0.0793(3) 0.1723(3) 0.3522(3)
H1 H 0.1160(2) 0.0074(13) 0.0556(18)
H2 H 0.5169 0.0708 0.2724
H3 H 0.7082 0.0256 0.2337
H4 H 0.6266 -0.0251 0.1262
H5 H 0.6216 -0.0525 0.2501
H6 H 0.6108 0.1694 0.1706
H7 H 0.4611 0.1780 0.1320
H8 H 0.5325 0.1282 0.0541
H9 H 0.1823 0.2783 0.3605
H10 H 0.4872 0.2092 0.4915
H11 H 0.6790 0.2661 0.4741
H12 H 0.6807 0.3613 0.3313
H13 H 0.5647 0.4475 0.1627
H14 H 0.3782 0.4927 0.0405
H15 H 0.1825 0.4381 0.0552
H16 H 0.1764 0.3386 0.1956
H17 H -0.1145 0.2029 0.1810
H18 H -0.0141 0.2653 0.2597
H19 H -0.1076 0.1131 0.3399
H20 H -0.1476 0.2077 0.3641
H21 H -0.0071 0.1756 0.4187
loop_
_geom_bond_atom_site_label_1
_geom_bond_atom_site_label_2
_geom_bond_site_symmetry_1
_geom_bond_site_symmetry_2
S1 C1 1_555 1_555
O1 C2 1_555 1_555
N1 C1 1_555 1_555
C1 N2 1_555 1_555
N2 C2 1_555 1_555
C2 C3 1_555 1_555
C3 C4 1_555 1_555
C4 N1 1_555 1_555
C5 S1 1_555 1_555
C6 C5 1_555 1_555
C7 C5 1_555 1_555
C8 C4 1_555 1_555
C9 C8 1_555 1_555
N3 C9 1_555 1_555
C10 C8 1_555 1_555
C11 C10 1_555 1_555
C12 C11 1_555 1_555
C13 C12 1_555 1_555
C14 C15 1_555 1_555
C15 C16 1_555 1_555
C16 C17 1_555 1_555
C17 C19 1_555 1_555
C18 C13 1_555 1_555
C19 C10 1_555 1_555
C20 C3 1_555 1_555
C21 C20 1_555 1_555
H1 N2 1_555 1_555
H2 C5 1_555 1_555
H3 C6 1_555 1_555
H4 C6 1_555 1_555
H5 C6 1_555 1_555
H6 C7 1_555 1_555
H7 C7 1_555 1_555
H8 C7 1_555 1_555
H9 C8 1_555 1_555
H10 C11 1_555 1_555
H11 C12 1_555 1_555
H12 C13 1_555 1_555
H13 C14 1_555 1_555
H14 C15 1_555 1_555
H15 C16 1_555 1_555
H16 C17 1_555 1_555
H17 C20 1_555 1_555
H18 C20 1_555 1_555
H19 C21 1_555 1_555
H20 C21 1_555 1_555
H21 C21 1_555 1_555
C14 C18 1_555 1_555
C18 C19 1_555 1_555

#END
