
#######################################################################
#
#                 Cambridge Crystallographic Data Centre
#                                CCDC 
#
#######################################################################
#
# If this CIF has been generated from an entry in the Cambridge 
# Structural Database, then it will include bibliographic, chemical, 
# crystal, experimental, refinement or atomic coordinate data resulting 
# from the CCDC's data processing and validation procedures.
#
#######################################################################

data_NIRNUY
_chemical_formula_moiety         'C28 H21 Cl1 O4 S2'
_chemical_name_systematic        
trans-1-(2-Thienoyl)-2-(2-chlorophenyl)-3-(p-toluenesulfonyl)-3-benzoylcyclopropane
_symmetry_cell_setting           orthorhombic
_symmetry_space_group_name_H-M   'P b c a'
_symmetry_Int_Tables_number      61
_space_group_name_Hall           '-P 2ac 2ab'
loop_
_symmetry_equiv_pos_site_id
_symmetry_equiv_pos_as_xyz
1 x,y,z
2 1/2-x,-y,1/2+z
3 -x,1/2+y,1/2-z
4 1/2+x,1/2-y,-z
5 -x,-y,-z
6 1/2+x,y,1/2-z
7 x,1/2-y,1/2+z
8 1/2-x,1/2+y,z
_cell_length_a                   12.1587(10)
_cell_length_b                   14.8794(12)
_cell_length_c                   26.595(2)
_cell_angle_alpha                90
_cell_angle_beta                 90
_cell_angle_gamma                90
_cell_volume                     4811.41
_cell_formula_units_Z            8
_exptl_crystal_recrystallization_method 'ethyl acetate/petroleum ether'
loop_
_atom_site_label
_atom_site_type_symbol
_atom_site_fract_x
_atom_site_fract_y
_atom_site_fract_z
S1 S 0.36106(4) 0.07508(3) 0.609068(17)
S2 S 0.12309(6) 0.22224(5) 0.80427(2)
C1 C 0.24951(14) 0.14746(12) 0.62757(6)
C2 C 0.25424(15) 0.24703(12) 0.61545(6)
H1 H 0.1813 0.2742 0.6118
C3 C 0.27790(15) 0.21686(12) 0.66817(6)
H2 H 0.3548 0.2193 0.6791
C4 C 0.19216(16) 0.23449(13) 0.70756(7)
C5 C 0.22547(17) 0.22709(13) 0.76019(7)
C6 C 0.32894(19) 0.22078(14) 0.78169(7)
H3 H 0.3947 0.2212 0.7638
C7 C 0.3204(2) 0.21355(17) 0.83480(8)
H4 H 0.3810 0.2096 0.8560
C8 C 0.2159(2) 0.21294(18) 0.85123(8)
H5 H 0.1967 0.2079 0.8850
C9 C 0.13529(15) 0.10337(13) 0.62749(7)
C10 C 0.09940(16) 0.04661(12) 0.67051(7)
C11 C 0.16877(19) 0.01849(14) 0.70893(7)
H6 H 0.2427 0.0347 0.7085
C12 C 0.1280(2) -0.03356(17) 0.74781(8)
H7 H 0.1752 -0.0533 0.7730
C13 C 0.0191(2) -0.05622(18) 0.74957(10)
H8 H -0.0077 -0.0909 0.7759
C14 C -0.0499(2) -0.02771(17) 0.71241(10)
H9 H -0.1242 -0.0425 0.7138
C15 C -0.01072(17) 0.02294(14) 0.67276(8)
H10 H -0.0585 0.0413 0.6474
C16 C 0.33981(15) 0.29145(12) 0.58355(7)
C17 C 0.32540(15) 0.30037(11) 0.53182(7)
C18 C 0.40421(17) 0.34039(13) 0.50163(7)
H11 H 0.3939 0.3436 0.4670
C19 C 0.49762(17) 0.37532(13) 0.52295(8)
H12 H 0.5508 0.4024 0.5029
C20 C 0.51219(18) 0.37002(14) 0.57420(8)
H13 H 0.5750 0.3944 0.5888
C21 C 0.43418(16) 0.32877(14) 0.60397(7)
H14 H 0.4452 0.3259 0.6385
C22 C 0.35897(15) 0.07066(12) 0.54311(7)
C23 C 0.27854(17) 0.02025(13) 0.51942(7)
H15 H 0.2251 -0.0096 0.5381
C24 C 0.27905(18) 0.01508(14) 0.46775(8)
H16 H 0.2251 -0.0187 0.4517
C25 C 0.35764(19) 0.05872(14) 0.43913(7)
C26 C 0.43869(18) 0.10690(14) 0.46382(8)
H17 H 0.4932 0.1354 0.4452
C27 C 0.44008(16) 0.11351(13) 0.51568(7)
H18 H 0.4948 0.1463 0.5319
C28 C 0.3548(2) 0.05298(18) 0.38279(8)
H19 H 0.3532 -0.0090 0.3727
H20 H 0.4191 0.0813 0.3692
H21 H 0.2902 0.0829 0.3705
Cl1 Cl 0.20688(4) 0.25927(4) 0.503738(18)
O1 O 0.46080(11) 0.11802(10) 0.62449(5)
O2 O 0.33527(14) -0.01276(9) 0.62759(5)
O3 O 0.07519(12) 0.11731(12) 0.59235(5)
O4 O 0.09801(12) 0.25089(11) 0.69561(5)
loop_
_geom_bond_atom_site_label_1
_geom_bond_atom_site_label_2
_geom_bond_site_symmetry_1
_geom_bond_site_symmetry_2
S1 C1 1_555 1_555
S2 C5 1_555 1_555
C1 C2 1_555 1_555
C2 H1 1_555 1_555
C3 C1 1_555 1_555
H2 C3 1_555 1_555
C4 C3 1_555 1_555
C5 C4 1_555 1_555
C6 C5 1_555 1_555
H3 C6 1_555 1_555
C7 C6 1_555 1_555
H4 C7 1_555 1_555
C8 S2 1_555 1_555
H5 C8 1_555 1_555
C9 C1 1_555 1_555
C10 C9 1_555 1_555
C11 C10 1_555 1_555
H6 C11 1_555 1_555
C12 C11 1_555 1_555
H7 C12 1_555 1_555
C13 C12 1_555 1_555
H8 C13 1_555 1_555
C14 C13 1_555 1_555
H9 C14 1_555 1_555
C15 C10 1_555 1_555
H10 C15 1_555 1_555
C16 C2 1_555 1_555
C17 C16 1_555 1_555
C18 C17 1_555 1_555
H11 C18 1_555 1_555
C19 C18 1_555 1_555
H12 C19 1_555 1_555
C20 C19 1_555 1_555
H13 C20 1_555 1_555
C21 C16 1_555 1_555
H14 C21 1_555 1_555
C22 S1 1_555 1_555
C23 C22 1_555 1_555
H15 C23 1_555 1_555
C24 C23 1_555 1_555
H16 C24 1_555 1_555
C25 C24 1_555 1_555
C26 C25 1_555 1_555
H17 C26 1_555 1_555
C27 C22 1_555 1_555
H18 C27 1_555 1_555
C28 C25 1_555 1_555
H19 C28 1_555 1_555
H20 C28 1_555 1_555
H21 C28 1_555 1_555
Cl1 C17 1_555 1_555
O1 S1 1_555 1_555
O2 S1 1_555 1_555
O3 C9 1_555 1_555
O4 C4 1_555 1_555
C2 C3 1_555 1_555
C7 C8 1_555 1_555
C14 C15 1_555 1_555
C20 C21 1_555 1_555
C26 C27 1_555 1_555

#END
