
#######################################################################
#
#                 Cambridge Crystallographic Data Centre
#                                CCDC 
#
#######################################################################
#
# If this CIF has been generated from an entry in the Cambridge 
# Structural Database, then it will include bibliographic, chemical, 
# crystal, experimental, refinement or atomic coordinate data resulting 
# from the CCDC's data processing and validation procedures.
#
#######################################################################

data_NIRPAG
_chemical_formula_moiety         'C28 H22 O4 S2'
_chemical_name_systematic        
2-(2-Thienoyl)-3,5-diphenyl-4-(p-toluenesulfonyl)-trans-2,3-dihydrofuran
_symmetry_cell_setting           monoclinic
_symmetry_space_group_name_H-M   'C 2/c'
_symmetry_Int_Tables_number      15
_space_group_name_Hall           '-C 2yn'
loop_
_symmetry_equiv_pos_site_id
_symmetry_equiv_pos_as_xyz
1 x,y,z
2 1/2+x,1/2+y,z
3 -x,y,1/2-z
4 1/2-x,1/2+y,1/2-z
5 -x,-y,-z
6 1/2-x,1/2-y,-z
7 x,-y,1/2+z
8 1/2+x,1/2-y,1/2+z
_cell_length_a                   16.145(3)
_cell_length_b                   9.4331(16)
_cell_length_c                   31.436(5)
_cell_angle_alpha                90
_cell_angle_beta                 91.109(2)
_cell_angle_gamma                90
_cell_volume                     4786.72
_cell_formula_units_Z            8
_exptl_crystal_recrystallization_method 'ethyl acetate/petroleum ether'
loop_
_atom_site_label
_atom_site_type_symbol
_atom_site_fract_x
_atom_site_fract_y
_atom_site_fract_z
S1 S 0.23150(6) 0.55680(11) 0.33364(3)
S2 S 0.06561(8) 0.11807(17) 0.46065(4)
C1 C 0.3151(2) 0.5182(4) 0.41106(12)
C2 C 0.2807(2) 0.4652(4) 0.37497(11)
C3 C 0.2771(2) 0.3045(4) 0.37793(11)
H1 H 0.2223 0.2702 0.3688
C4 C 0.2887(2) 0.2870(4) 0.42681(12)
H2 H 0.3240 0.2047 0.4331
C5 C 0.2062(3) 0.2712(5) 0.44886(13)
C6 C 0.1627(2) 0.1358(5) 0.44244(12)
C7 C 0.19399(19) 0.0053(4) 0.42058(10)
H3 H 0.2452 -0.0083 0.4081
C8 C 0.1266(3) -0.0937(5) 0.42338(15)
H4 H 0.1298 -0.1852 0.4125
C9 C 0.0579(3) -0.0446(5) 0.44296(14)
H5 H 0.0104 -0.0990 0.4460
C10 C 0.3448(2) 0.6596(4) 0.42391(12)
C11 C 0.3378(3) 0.7018(5) 0.46643(13)
H6 H 0.3122 0.6427 0.4858
C12 C 0.3691(3) 0.8307(5) 0.47945(15)
H7 H 0.3631 0.8599 0.5075
C13 C 0.4086(3) 0.9154(5) 0.45143(17)
H8 H 0.4305 1.0016 0.4605
C14 C 0.4164(3) 0.8746(5) 0.40967(16)
H9 H 0.4432 0.9335 0.3906
C15 C 0.3847(2) 0.7467(5) 0.39618(13)
H10 H 0.3905 0.7192 0.3680
C16 C 0.2991(2) 0.5661(4) 0.29059(11)
C17 C 0.3349(3) 0.6950(4) 0.27994(12)
H11 H 0.3253 0.7750 0.2964
C18 C 0.3845(3) 0.7039(5) 0.24495(13)
H12 H 0.4085 0.7904 0.2381
C19 C 0.3994(2) 0.5866(5) 0.21975(12)
C20 C 0.3632(3) 0.4603(5) 0.23058(13)
H13 H 0.3729 0.3804 0.2141
C21 C 0.3130(3) 0.4491(5) 0.26521(13)
H14 H 0.2883 0.3628 0.2716
C22 C 0.4512(3) 0.5994(6) 0.17966(14)
H15 H 0.5049 0.5588 0.1849
H16 H 0.4571 0.6976 0.1723
H17 H 0.4240 0.5498 0.1566
C23 C 0.3442(2) 0.2322(4) 0.35270(12)
C24 C 0.3237(3) 0.1330(4) 0.32126(13)
H18 H 0.2685 0.1097 0.3162
C25 C 0.3844(3) 0.0692(5) 0.29770(14)
H19 H 0.3698 0.0065 0.2760
C26 C 0.4663(3) 0.0980(5) 0.30628(15)
H20 H 0.5074 0.0533 0.2909
C27 C 0.4871(3) 0.1939(5) 0.33779(14)
H21 H 0.5426 0.2130 0.3439
C28 C 0.4266(2) 0.2617(5) 0.36034(13)
H22 H 0.4415 0.3281 0.3810
O1 O 0.32962(16) 0.4151(3) 0.44104(8)
O2 O 0.16400(16) 0.4674(3) 0.32020(9)
O3 O 0.21488(17) 0.6985(3) 0.34717(9)
O4 O 0.1776(2) 0.3671(4) 0.47015(11)
loop_
_geom_bond_atom_site_label_1
_geom_bond_atom_site_label_2
_geom_bond_site_symmetry_1
_geom_bond_site_symmetry_2
S1 C2 1_555 1_555
S2 C6 1_555 1_555
C1 C2 1_555 1_555
C2 C3 1_555 1_555
C3 H1 1_555 1_555
C4 C3 1_555 1_555
H2 C4 1_555 1_555
C5 C4 1_555 1_555
C6 C5 1_555 1_555
C7 C6 1_555 1_555
H3 C7 1_555 1_555
C8 C7 1_555 1_555
H4 C8 1_555 1_555
C9 S2 1_555 1_555
H5 C9 1_555 1_555
C10 C1 1_555 1_555
C11 C10 1_555 1_555
H6 C11 1_555 1_555
C12 C11 1_555 1_555
H7 C12 1_555 1_555
C13 C12 1_555 1_555
H8 C13 1_555 1_555
C14 C13 1_555 1_555
H9 C14 1_555 1_555
C15 C10 1_555 1_555
H10 C15 1_555 1_555
C16 S1 1_555 1_555
C17 C16 1_555 1_555
H11 C17 1_555 1_555
C18 C17 1_555 1_555
H12 C18 1_555 1_555
C19 C18 1_555 1_555
C20 C19 1_555 1_555
H13 C20 1_555 1_555
C21 C16 1_555 1_555
H14 C21 1_555 1_555
C22 C19 1_555 1_555
H15 C22 1_555 1_555
H16 C22 1_555 1_555
H17 C22 1_555 1_555
C23 C3 1_555 1_555
C24 C23 1_555 1_555
H18 C24 1_555 1_555
C25 C24 1_555 1_555
H19 C25 1_555 1_555
C26 C25 1_555 1_555
H20 C26 1_555 1_555
C27 C26 1_555 1_555
H21 C27 1_555 1_555
C28 C23 1_555 1_555
H22 C28 1_555 1_555
O1 C1 1_555 1_555
O2 S1 1_555 1_555
O3 S1 1_555 1_555
O4 C5 1_555 1_555
C4 O1 1_555 1_555
C8 C9 1_555 1_555
C14 C15 1_555 1_555
C20 C21 1_555 1_555
C27 C28 1_555 1_555

#END
