
#######################################################################
#
#                 Cambridge Crystallographic Data Centre
#                                CCDC 
#
#######################################################################
#
# If this CIF has been generated from an entry in the Cambridge 
# Structural Database, then it will include bibliographic, chemical, 
# crystal, experimental, refinement or atomic coordinate data resulting 
# from the CCDC's data processing and validation procedures.
#
#######################################################################

data_NIRVOC
_chemical_formula_moiety         'C17 H17 Cl1 F1 N1 O2'
_chemical_name_systematic        
'ethyl 3-(4-chlorophenyl)-2-fluoro-3-(phenylamino)propanoate'
_symmetry_cell_setting           tetragonal
_symmetry_space_group_name_H-M   'P 43 21 2'
_symmetry_Int_Tables_number      96
_space_group_name_Hall           'P 4nw 2abw'
loop_
_symmetry_equiv_pos_site_id
_symmetry_equiv_pos_as_xyz
1 x,y,z
2 1/2-y,1/2+x,3/4+z
3 -x,-y,1/2+z
4 1/2+y,1/2-x,1/4+z
5 1/2+x,1/2-y,1/4-z
6 1/2-x,1/2+y,3/4-z
7 y,x,-z
8 -y,-x,1/2-z
_cell_length_a                   10.3462(2)
_cell_length_b                   10.3462(2)
_cell_length_c                   31.0370(9)
_cell_angle_alpha                90
_cell_angle_beta                 90
_cell_angle_gamma                90
_cell_volume                     3322.32
_cell_formula_units_Z            8
loop_
_atom_site_label
_atom_site_type_symbol
_atom_site_fract_x
_atom_site_fract_y
_atom_site_fract_z
Cl1 Cl 0.54174(9) 0.20219(9) 0.07408(3)
F1 F 0.08458(17) -0.13236(16) -0.01198(4)
N1 N -0.02809(19) -0.1232(2) 0.07445(5)
H1 H -0.0854 -0.1150 0.0546
O1 O -0.0167(2) -0.4175(2) 0.03737(7)
C1 C 0.2070(2) -0.0753(2) 0.06692(6)
C2 C 0.0972(2) -0.1727(2) 0.06320(7)
H2 H 0.1164 -0.2434 0.0832
C3 C -0.0598(2) -0.0885(2) 0.11613(7)
C4 C 0.3285(2) -0.1171(2) 0.07896(9)
H3 H 0.3409 -0.2037 0.0858
O2 O -0.1015(2) -0.3004(3) -0.01587(7)
C5 C 0.1902(3) 0.0535(3) 0.05788(10)
H4 H 0.1086 0.0837 0.0504
C6 C 0.0934(3) -0.2303(2) 0.01825(7)
H5 H 0.1732 -0.2790 0.0133
C7 C -0.0205(3) -0.3182(3) 0.01072(8)
C8 C -0.1806(3) -0.0329(3) 0.12392(9)
H6 H -0.2358 -0.0156 0.1010
C9 C -0.2183(4) -0.0037(3) 0.16521(12)
H7 H -0.2996 0.0317 0.1701
C10 C 0.0219(3) -0.1099(3) 0.15070(7)
H8 H 0.1035 -0.1450 0.1462
C11 C 0.4125(3) 0.0952(3) 0.07116(9)
C12 C 0.4313(3) -0.0335(3) 0.08103(10)
H9 H 0.5127 -0.0632 0.0890
C13 C -0.1372(5) -0.0264(4) 0.19933(10)
H10 H -0.1629 -0.0062 0.2272
C14 C 0.2927(3) 0.1393(3) 0.05977(11)
H11 H 0.2802 0.2262 0.0534
C15 C -0.0184(4) -0.0790(4) 0.19186(9)
H12 H 0.0366 -0.0943 0.2150
C16 C -0.1276(5) -0.5075(5) 0.03675(18)
H13 H -0.1996 -0.4693 0.0522
H14 H -0.1545 -0.5221 0.0072
C17 C -0.0953(7) -0.6243(6) 0.05556(18)
H15 H -0.0381 -0.6711 0.0368
H16 H -0.1723 -0.6741 0.0603
H17 H -0.0530 -0.6089 0.0826
loop_
_geom_bond_atom_site_label_1
_geom_bond_atom_site_label_2
_geom_bond_site_symmetry_1
_geom_bond_site_symmetry_2
Cl1 C11 1_555 1_555
F1 C6 1_555 1_555
N1 H1 1_555 1_555
O1 C7 1_555 1_555
C1 C2 1_555 1_555
C2 N1 1_555 1_555
H2 C2 1_555 1_555
C3 N1 1_555 1_555
C4 C1 1_555 1_555
H3 C4 1_555 1_555
O2 C7 1_555 1_555
C5 C1 1_555 1_555
H4 C5 1_555 1_555
C6 C2 1_555 1_555
H5 C6 1_555 1_555
C7 C6 1_555 1_555
C8 C3 1_555 1_555
H6 C8 1_555 1_555
C9 C8 1_555 1_555
H7 C9 1_555 1_555
C10 C3 1_555 1_555
H8 C10 1_555 1_555
C11 C12 1_555 1_555
C12 C4 1_555 1_555
H9 C12 1_555 1_555
C13 C9 1_555 1_555
H10 C13 1_555 1_555
C14 C5 1_555 1_555
H11 C14 1_555 1_555
C15 C10 1_555 1_555
H12 C15 1_555 1_555
C16 O1 1_555 1_555
H13 C16 1_555 1_555
H14 C16 1_555 1_555
C17 C16 1_555 1_555
H15 C17 1_555 1_555
H16 C17 1_555 1_555
H17 C17 1_555 1_555
C11 C14 1_555 1_555
C13 C15 1_555 1_555

#END
