
#######################################################################
#
#                 Cambridge Crystallographic Data Centre
#                                CCDC 
#
#######################################################################
#
# If this CIF has been generated from an entry in the Cambridge 
# Structural Database, then it will include bibliographic, chemical, 
# crystal, experimental, refinement or atomic coordinate data resulting 
# from the CCDC's data processing and validation procedures.
#
#######################################################################

data_NIRYUI
_chemical_formula_moiety         'C18 H16 S4 Se8'
_chemical_name_systematic        
cis-cis-2,6,8,12-Tetrathia-1,7(2,7)-ditetraselenafulvalenacyclododecaphane
_symmetry_cell_setting           monoclinic
_symmetry_space_group_name_H-M   'P 21/a'
_symmetry_Int_Tables_number      14
_space_group_name_Hall           '-P 2yab'
loop_
_symmetry_equiv_pos_site_id
_symmetry_equiv_pos_as_xyz
1 x,y,z
2 1/2-x,1/2+y,-z
3 -x,-y,-z
4 1/2+x,1/2-y,z
_cell_length_a                   10.378(2)
_cell_length_b                   13.198(2)
_cell_length_c                   10.683(2)
_cell_angle_alpha                90
_cell_angle_beta                 113.78(1)
_cell_angle_gamma                90
_cell_volume                     1339.01
_exptl_crystal_colour            red
_exptl_crystal_description       prismatic
_chemical_melting_point          '471-473 K(dec.)'
_cell_formula_units_Z            2
_exptl_crystal_recrystallization_method 'carbon disulfide'
loop_
_atom_site_label
_atom_site_type_symbol
_atom_site_fract_x
_atom_site_fract_y
_atom_site_fract_z
Se1 Se -0.9188(1) -0.36800(9) -0.2755(1)
Se2 Se -1.0907(1) -0.16737(9) -0.2855(1)
Se3 Se -0.6550(1) -0.28232(9) 0.0266(1)
Se4 Se -0.8339(1) -0.08892(9) 0.0175(1)
S1 S -1.1974(3) -0.4748(2) -0.4733(3)
S2 S -0.5694(3) -0.3031(3) 0.3438(3)
C1 C -0.922(1) -0.2412(8) -0.191(1)
C2 C -1.190(1) -0.2841(9) -0.379(1)
C3 C -1.117(1) -0.3671(8) -0.376(1)
C4 C -0.823(1) -0.2088(8) -0.079(1)
C5 C -0.742(1) -0.1551(9) 0.189(1)
C6 C -0.669(1) -0.2380(9) 0.192(1)
C7 C -1.151(1) -0.5716(9) -0.340(2)
C8 C -1.212(1) -0.554(1) -0.234(1)
C9 C -0.630(1) -0.4326(9) 0.293(1)
C9B C -1.370(1) -0.5674(9) -0.293(1)
S2B S -1.4306(3) -0.6969(3) -0.3438(3)
C6B C -1.331(1) -0.7620(9) -0.192(1)
Se3B Se -1.3450(1) -0.71768(9) -0.0266(1)
C4B C -1.177(1) -0.7912(8) 0.079(1)
Se4B Se -1.1661(1) -0.91108(9) -0.0175(1)
C5B C -1.258(1) -0.8449(9) -0.189(1)
C1B C -1.078(1) -0.7588(8) 0.191(1)
Se1B Se -1.0812(1) -0.63200(9) 0.2755(1)
C3B C -0.883(1) -0.6329(8) 0.376(1)
S1B S -0.8026(3) -0.5252(2) 0.4733(3)
C7B C -0.849(1) -0.4284(9) 0.340(2)
C8B C -0.788(1) -0.446(1) 0.234(1)
C2B C -0.810(1) -0.7159(9) 0.379(1)
Se2B Se -0.9093(1) -0.83263(9) 0.2855(1)
loop_
_geom_bond_atom_site_label_1
_geom_bond_atom_site_label_2
_geom_bond_site_symmetry_1
_geom_bond_site_symmetry_2
Se1 C1 1_555 1_555
Se2 C1 1_555 1_555
Se3 C4 1_555 1_555
Se4 C4 1_555 1_555
S1 C3 1_555 1_555
S2 C6 1_555 1_555
C1 C4 1_555 1_555
C2 Se2 1_555 1_555
C3 Se1 1_555 1_555
C5 Se4 1_555 1_555
C6 Se3 1_555 1_555
C7 S1 1_555 1_555
C8 C7 1_555 1_555
C9 S2 1_555 1_555
C9B C8 1_555 1_555
S2B C9B 1_555 1_555
C6B S2B 1_555 1_555
Se3B C6B 1_555 1_555
C4B Se3B 1_555 1_555
Se4B C4B 1_555 1_555
C5B C6B 1_555 1_555
C1B C4B 1_555 1_555
Se1B C1B 1_555 1_555
C3B Se1B 1_555 1_555
S1B C3B 1_555 1_555
C7B S1B 1_555 1_555
C8B C9 1_555 1_555
C2B C3B 1_555 1_555
Se2B C1B 1_555 1_555
C2 C3 1_555 1_555
C5 C6 1_555 1_555
Se4B C5B 1_555 1_555
C7B C8B 1_555 1_555
C2B Se2B 1_555 1_555

#END
