
#######################################################################
#
#                 Cambridge Crystallographic Data Centre
#                                CCDC 
#
#######################################################################
#
# If this CIF has been generated from an entry in the Cambridge 
# Structural Database, then it will include bibliographic, chemical, 
# crystal, experimental, refinement or atomic coordinate data resulting 
# from the CCDC's data processing and validation procedures.
#
#######################################################################

data_NISGAX
_chemical_formula_moiety         'C17 H16 O1 S1'
_chemical_name_systematic        
5,5-Dimethyl-2-phenyl-5,6-dihydro-7H-thiachromen-7-one
_symmetry_cell_setting           monoclinic
_symmetry_space_group_name_H-M   'C 2/c'
_symmetry_Int_Tables_number      15
_space_group_name_Hall           '-C 2yn'
loop_
_symmetry_equiv_pos_site_id
_symmetry_equiv_pos_as_xyz
1 x,y,z
2 -x,y,1/2-z
3 1/2+x,1/2+y,z
4 1/2-x,1/2+y,1/2-z
5 -x,-y,-z
6 x,-y,1/2+z
7 1/2-x,1/2-y,-z
8 1/2+x,1/2-y,1/2+z
_cell_length_a                   24.090(5)
_cell_length_b                   6.187(1)
_cell_length_c                   18.811(4)
_cell_angle_alpha                90
_cell_angle_beta                 101.71(3)
_cell_angle_gamma                90
_cell_volume                     2745.33
_exptl_crystal_colour            deep-red
_chemical_melting_point          103-105deg.C
_cell_formula_units_Z            8
_exptl_crystal_recrystallization_method acetone
loop_
_atom_site_label
_atom_site_type_symbol
_atom_site_fract_x
_atom_site_fract_y
_atom_site_fract_z
S1 S 0.2661(1) 0.0360(2) 0.0817(1)
O1 O 0.4132(2) -0.1690(8) -0.0566(2)
C1 C 0.3472(3) -0.0634(11) 0.0118(3)
C2 C 0.3981(2) -0.0364(12) -0.0162(3)
C3 C 0.4297(3) 0.1670(12) 0.0037(3)
C4 C 0.4287(2) 0.2475(8) 0.0808(3)
C5 C 0.3675(2) 0.2559(9) 0.0897(3)
C6 C 0.3472(3) 0.4103(11) 0.1273(4)
C7 C 0.2933(3) 0.4123(12) 0.1482(3)
C8 C 0.2550(2) 0.2557(9) 0.1345(2)
C9 C 0.3320(2) 0.0788(9) 0.0584(3)
C10 C 0.2017(2) 0.2499(11) 0.1621(3)
C11 C 0.1851(3) 0.4251(12) 0.1991(4)
C12 C 0.1358(3) 0.4190(16) 0.2251(4)
C13 C 0.1014(3) 0.2434(15) 0.2141(4)
C14 C 0.1166(3) 0.0689(15) 0.1773(4)
C15 C 0.1666(3) 0.0734(13) 0.1523(3)
C16 C 0.4580(3) 0.4661(12) 0.0917(6)
C17 C 0.4610(3) 0.0881(12) 0.1364(4)
H1 H 0.32601 -0.17869 -0.00344
H2 H 0.41431 0.28022 -0.02898
H3 H 0.46869 0.15372 -0.00073
H4 H 0.36938 0.51681 0.14367
H5 H 0.28776 0.52335 0.17045
H6 H 0.20723 0.54269 0.20834
H7 H 0.12287 0.52921 0.24482
H8 H 0.06308 0.22940 0.22723
H9 H 0.09603 -0.05662 0.17347
H10 H 0.17257 -0.04692 0.13176
H11 H 0.46164 0.51687 0.14355
H12 H 0.49533 0.45775 0.08070
H13 H 0.43871 0.58086 0.05417
H14 H 0.46317 0.13711 0.18459
H15 H 0.44316 -0.05866 0.12918
H16 H 0.49980 0.08405 0.12810
loop_
_geom_bond_atom_site_label_1
_geom_bond_atom_site_label_2
_geom_bond_site_symmetry_1
_geom_bond_site_symmetry_2
S1 C8 1_555 1_555
O1 C2 1_555 1_555
C1 C2 1_555 1_555
C2 C3 1_555 1_555
C3 C4 1_555 1_555
C4 C5 1_555 1_555
C5 C6 1_555 1_555
C6 C7 1_555 1_555
C7 C8 1_555 1_555
C8 C10 1_555 1_555
C9 S1 1_555 1_555
C10 C11 1_555 1_555
C11 C12 1_555 1_555
C12 C13 1_555 1_555
C13 C14 1_555 1_555
C14 C15 1_555 1_555
C15 C10 1_555 1_555
C16 C4 1_555 1_555
C17 C4 1_555 1_555
H1 C1 1_555 1_555
H2 C3 1_555 1_555
H3 C3 1_555 1_555
H4 C6 1_555 1_555
H5 C7 1_555 1_555
H6 C11 1_555 1_555
H7 C12 1_555 1_555
H8 C13 1_555 1_555
H9 C14 1_555 1_555
H10 C15 1_555 1_555
H11 C16 1_555 1_555
H12 C16 1_555 1_555
H13 C16 1_555 1_555
H14 C17 1_555 1_555
H15 C17 1_555 1_555
H16 C17 1_555 1_555
C1 C9 1_555 1_555
C5 C9 1_555 1_555

#END
