
#######################################################################
#
#                 Cambridge Crystallographic Data Centre
#                                CCDC 
#
#######################################################################
#
# If this CIF has been generated from an entry in the Cambridge 
# Structural Database, then it will include bibliographic, chemical, 
# crystal, experimental, refinement or atomic coordinate data resulting 
# from the CCDC's data processing and validation procedures.
#
#######################################################################

data_NISPAH
_chemical_formula_moiety         'C7 H7 O5 P1'
_chemical_name_systematic        '4-phosphonobenzoic acid'
_symmetry_cell_setting           monoclinic
_symmetry_space_group_name_H-M   'P 21/c'
_symmetry_Int_Tables_number      14
_space_group_name_Hall           '-P 2ybc'
loop_
_symmetry_equiv_pos_site_id
_symmetry_equiv_pos_as_xyz
1 x,y,z
2 -x,1/2+y,1/2-z
3 -x,-y,-z
4 x,1/2-y,1/2+z
_cell_length_a                   16.785(8)
_cell_length_b                   6.851(4)
_cell_length_c                   6.738(3)
_cell_angle_alpha                90
_cell_angle_beta                 94.967(7)
_cell_angle_gamma                90
_cell_volume                     771.92
_exptl_crystal_colour            colorless
_exptl_crystal_description       sheet
_cell_formula_units_Z            4
loop_
_atom_site_label
_atom_site_type_symbol
_atom_site_fract_x
_atom_site_fract_y
_atom_site_fract_z
P1 P 0.10707(6) 0.46007(16) 0.28813(14)
O1 O 0.06930(15) 0.2715(4) 0.3256(4)
O2 O 0.05975(17) 0.6363(5) 0.3457(4)
H1 H 0.0203 0.6497 0.2661
O3 O 0.12527(17) 0.4804(4) 0.0721(4)
H2 H 0.1041 0.3906 0.0066
O4 O 0.40478(19) 0.5589(6) 0.9932(5)
O5 O 0.47183(18) 0.4528(7) 0.7511(5)
H3 H 0.5082 0.4525 0.8405
C1 C 0.1979(2) 0.4876(5) 0.4378(6)
C2 C 0.1960(2) 0.5473(6) 0.6305(6)
H4 H 0.1476 0.5807 0.6789
C3 C 0.2649(2) 0.5579(6) 0.7514(6)
H5 H 0.2636 0.6005 0.8821
C4 C 0.3362(2) 0.5063(6) 0.6821(6)
C5 C 0.3383(2) 0.4500(7) 0.4888(6)
H6 H 0.3870 0.4190 0.4401
C6 C 0.2697(2) 0.4388(6) 0.3666(6)
H7 H 0.2712 0.3983 0.2352
C7 C 0.4085(2) 0.5085(6) 0.8193(6)
loop_
_geom_bond_atom_site_label_1
_geom_bond_atom_site_label_2
_geom_bond_site_symmetry_1
_geom_bond_site_symmetry_2
P1 O1 1_555 1_555
O2 P1 1_555 1_555
H1 O2 1_555 1_555
O3 P1 1_555 1_555
H2 O3 1_555 1_555
O4 C7 1_555 1_555
O5 H3 1_555 1_555
C1 P1 1_555 1_555
C2 C1 1_555 1_555
H4 C2 1_555 1_555
C3 C2 1_555 1_555
H5 C3 1_555 1_555
C4 C3 1_555 1_555
C5 C4 1_555 1_555
H6 C5 1_555 1_555
C6 C1 1_555 1_555
H7 C6 1_555 1_555
C7 O5 1_555 1_555
C4 C7 1_555 1_555
C5 C6 1_555 1_555

#END
