
#######################################################################
#
#                 Cambridge Crystallographic Data Centre
#                                CCDC 
#
#######################################################################
#
# If this CIF has been generated from an entry in the Cambridge 
# Structural Database, then it will include bibliographic, chemical, 
# crystal, experimental, refinement or atomic coordinate data resulting 
# from the CCDC's data processing and validation procedures.
#
#######################################################################

data_NISQEL
_chemical_formula_moiety         'C30 H24 N6'
_chemical_name_systematic        Hexapyrrolylbenzene
_symmetry_cell_setting           orthorhombic
_symmetry_space_group_name_H-M   'P n a 21'
_symmetry_Int_Tables_number      33
_space_group_name_Hall           'P 2c -2n'
loop_
_symmetry_equiv_pos_site_id
_symmetry_equiv_pos_as_xyz
1 x,y,z
2 -x,-y,1/2+z
3 1/2-x,1/2+y,1/2+z
4 1/2+x,1/2-y,z
_cell_length_a                   10.2570(12)
_cell_length_b                   19.797(2)
_cell_length_c                   11.811(2)
_cell_angle_alpha                90
_cell_angle_beta                 90
_cell_angle_gamma                90
_cell_volume                     2398.32
_exptl_crystal_colour            colorless
_exptl_crystal_description       block-shaped
_cell_formula_units_Z            4
_exptl_crystal_recrystallization_method acetonitrile
loop_
_atom_site_label
_atom_site_type_symbol
_atom_site_fract_x
_atom_site_fract_y
_atom_site_fract_z
N1 N 0.6138(5) 0.1755(2) -0.1377(4)
N2 N 0.6287(4) 0.2260(2) 0.0844(4)
N3 N 0.7159(5) 0.1411(2) 0.2631(4)
N4 N 0.7933(4) 0.0075(2) 0.2127(4)
N5 N 0.7569(5) -0.0457(2) -0.0025(4)
N6 N 0.6780(5) 0.0396(2) -0.1820(4)
C1 C 0.6554(5) 0.1325(3) -0.0479(5)
C2 C 0.5007(6) 0.1685(3) -0.1984(5)
C3 C 0.4952(6) 0.2204(3) -0.2748(5)
C4 C 0.6090(6) 0.2603(3) -0.2600(5)
C5 C 0.6791(6) 0.2322(3) -0.1748(5)
C6 C 0.6639(5) 0.1575(3) 0.0636(5)
C7 C 0.5198(6) 0.2590(3) 0.0432(5)
C8 C 0.5269(6) 0.3254(3) 0.0743(5)
C9 C 0.6443(6) 0.3341(3) 0.1344(5)
C10 C 0.7053(6) 0.2731(3) 0.1406(5)
C11 C 0.7070(5) 0.1167(3) 0.1497(5)
C12 C 0.6108(6) 0.1612(3) 0.3288(5)
C13 C 0.6567(7) 0.1761(3) 0.4334(5)
C14 C 0.7933(6) 0.1635(3) 0.4333(5)
C15 C 0.8258(6) 0.1419(3) 0.3286(5)
C16 C 0.7448(5) 0.0498(3) 0.1267(5)
C17 C 0.7302(6) -0.0106(3) 0.3120(5)
C18 C 0.8084(6) -0.0541(3) 0.3697(5)
C19 C 0.9241(6) -0.0626(3) 0.3069(5)
C20 C 0.9127(6) -0.0246(3) 0.2116(5)
C21 C 0.7319(5) 0.0243(3) 0.0171(5)
C22 C 0.6786(6) -0.0968(3) 0.0353(5)
C23 C 0.7272(6) -0.1552(3) -0.0066(5)
C24 C 0.8394(6) -0.1400(3) -0.0718(5)
C25 C 0.8559(6) -0.0721(3) -0.0688(5)
C26 C 0.6883(5) 0.0657(3) -0.0702(5)
C27 C 0.6141(6) -0.0195(3) -0.2123(6)
C28 C 0.6204(6) -0.0250(3) -0.3269(5)
C29 C 0.6919(6) 0.0316(3) -0.3696(5)
C30 C 0.7246(6) 0.0701(3) -0.2795(5)
H1 H 0.433(4) 0.132(2) -0.1886(8)
H2 H 0.420(4) 0.2292(5) -0.334(3)
H3 H 0.6327(15) 0.301(3) -0.304(3)
H4 H 0.762(5) 0.2493(10) -0.1447(18)
H5 H 0.459(4) 0.2411(13) 0.005(3)
H6 H 0.468(4) 0.357(2) 0.0593(11)
H7 H 0.677(2) 0.377(3) 0.1668(19)
H8 H 0.792(5) 0.2637(6) 0.180(2)
H9 H 0.521(6) 0.1641(3) 0.3042(16)
H10 H 0.607(4) 0.1921(11) 0.496(4)
H11 H 0.853(4) 0.1695(5) 0.498(4)
H12 H 0.908(5) 0.1297(8) 0.3053(16)
H13 H 0.649(5) 0.0043(10) 0.3349(15)
H14 H 0.7884(14) -0.0751(13) 0.440(5)
H15 H 1.004(5) -0.0927(18) 0.3297(14)
H16 H 0.974(4) -0.0209(4) 0.156(3)
H17 H 0.608(5) -0.0925(4) 0.080(3)
H18 H 0.693(2) -0.198(3) 0.0052(9)
H19 H 0.893(3) -0.172(2) -0.111(3)
H20 H 0.923(4) -0.0472(15) -0.106(2)
H21 H 0.570(3) -0.0529(19) -0.158(3)
H22 H 0.581(2) -0.063(2) -0.374(3)
H23 H 0.7127(15) 0.0404(7) -0.447(5)
H24 H 0.767(3) 0.107(3) -0.2823(5)
loop_
_geom_bond_atom_site_label_1
_geom_bond_atom_site_label_2
_geom_bond_site_symmetry_1
_geom_bond_site_symmetry_2
N1 C1 1_555 1_555
N2 C6 1_555 1_555
N3 C11 1_555 1_555
N4 C16 1_555 1_555
N5 C21 1_555 1_555
N6 C26 1_555 1_555
C1 C6 1_555 1_555
C2 N1 1_555 1_555
C3 C2 1_555 1_555
C4 C3 1_555 1_555
C5 N1 1_555 1_555
C6 C11 1_555 1_555
C7 N2 1_555 1_555
C8 C7 1_555 1_555
C9 C8 1_555 1_555
C10 N2 1_555 1_555
C11 C16 1_555 1_555
C12 N3 1_555 1_555
C13 C12 1_555 1_555
C14 C13 1_555 1_555
C15 N3 1_555 1_555
C16 C21 1_555 1_555
C17 N4 1_555 1_555
C18 C17 1_555 1_555
C19 C18 1_555 1_555
C20 N4 1_555 1_555
C21 C26 1_555 1_555
C22 N5 1_555 1_555
C23 C22 1_555 1_555
C24 C23 1_555 1_555
C25 N5 1_555 1_555
C26 C1 1_555 1_555
C27 N6 1_555 1_555
C28 C27 1_555 1_555
C29 C28 1_555 1_555
C30 N6 1_555 1_555
H1 C2 1_555 1_555
H2 C3 1_555 1_555
H3 C4 1_555 1_555
H4 C5 1_555 1_555
H5 C7 1_555 1_555
H6 C8 1_555 1_555
H7 C9 1_555 1_555
H8 C10 1_555 1_555
H9 C12 1_555 1_555
H10 C13 1_555 1_555
H11 C14 1_555 1_555
H12 C15 1_555 1_555
H13 C17 1_555 1_555
H14 C18 1_555 1_555
H15 C19 1_555 1_555
H16 C20 1_555 1_555
H17 C22 1_555 1_555
H18 C23 1_555 1_555
H19 C24 1_555 1_555
H20 C25 1_555 1_555
H21 C27 1_555 1_555
H22 C28 1_555 1_555
H23 C29 1_555 1_555
H24 C30 1_555 1_555
C4 C5 1_555 1_555
C9 C10 1_555 1_555
C14 C15 1_555 1_555
C19 C20 1_555 1_555
C24 C25 1_555 1_555
C29 C30 1_555 1_555

#END
