
#######################################################################
#
#                 Cambridge Crystallographic Data Centre
#                                CCDC 
#
#######################################################################
#
# If this CIF has been generated from an entry in the Cambridge 
# Structural Database, then it will include bibliographic, chemical, 
# crystal, experimental, refinement or atomic coordinate data resulting 
# from the CCDC's data processing and validation procedures.
#
#######################################################################

data_NISVOA01
_chemical_formula_moiety         'C5 H9 N1 O2,2(C20 H14 O2)'
_chemical_name_systematic        
"(S)-Pyrrolidinium-2-carboxylate bis((S)-1,1'-binaphthalene-2,2'-diol)"
_symmetry_cell_setting           orthorhombic
_symmetry_space_group_name_H-M   'P 21 21 21'
_symmetry_Int_Tables_number      19
_space_group_name_Hall           'P 2ac 2ab'
loop_
_symmetry_equiv_pos_site_id
_symmetry_equiv_pos_as_xyz
1 x,y,z
2 1/2+x,1/2-y,-z
3 -x,1/2+y,1/2-z
4 1/2-x,-y,1/2+z
_cell_length_a                   27.272(2)
_cell_length_b                   9.0398(8)
_cell_length_c                   13.7458(12)
_cell_angle_alpha                90
_cell_angle_beta                 90
_cell_angle_gamma                90
_cell_volume                     3388.8
_cell_formula_units_Z            4
loop_
_atom_site_label
_atom_site_type_symbol
_atom_site_fract_x
_atom_site_fract_y
_atom_site_fract_z
C1 C 0.46000(11) 0.2236(3) 0.9771(2)
C2 C 0.50449(11) 0.2230(3) 1.0228(2)
C3 C 0.54532(11) 0.3027(3) 0.9858(2)
H1 H 0.5753 0.3002 1.0181
C4 C 0.54009(12) 0.3831(4) 0.9024(2)
H2 H 0.5667 0.4363 0.8787
C5 C 0.49537(12) 0.3873(3) 0.8514(2)
C6 C 0.48909(13) 0.4727(4) 0.7664(2)
H3 H 0.5150 0.5299 0.7438
C7 C 0.44576(14) 0.4732(4) 0.7167(2)
H4 H 0.4422 0.5313 0.6613
C8 C 0.40641(13) 0.3855(4) 0.7497(2)
H5 H 0.3774 0.3831 0.7143
C9 C 0.41041(12) 0.3033(4) 0.8335(2)
H6 H 0.3840 0.2468 0.8546
C10 C 0.45465(11) 0.3040(3) 0.8883(2)
C11 C 0.41691(10) 0.1427(3) 1.0183(2)
C12 C 0.38278(11) 0.2159(3) 1.0751(2)
C13 C 0.33937(10) 0.1443(4) 1.1059(2)
H7 H 0.3165 0.1960 1.1428
C14 C 0.33064(11) 0.0003(4) 1.0819(2)
H8 H 0.3015 -0.0443 1.1013
C15 C 0.36544(10) -0.0824(3) 1.0279(2)
C16 C 0.35811(11) -0.2330(4) 1.0039(2)
H9 H 0.3295 -0.2800 1.0239
C17 C 0.39249(12) -0.3115(4) 0.9517(2)
H10 H 0.3873 -0.4108 0.9371
C18 C 0.43542(12) -0.2400(4) 0.9206(2)
H11 H 0.4585 -0.2921 0.8844
C19 C 0.44379(11) -0.0938(4) 0.9431(2)
H12 H 0.4727 -0.0489 0.9227
C20 C 0.40905(10) -0.0110(3) 0.9966(2)
O1 O 0.51350(8) 0.1482(2) 1.10771(16)
H13 H 0.4912 0.0893 1.1179
O2 O 0.38663(8) 0.3614(2) 1.10035(17)
H14 H 0.4157 0.3840 1.1048
C21 C 0.18079(12) 0.1479(4) 0.8777(2)
C22 C 0.14050(11) 0.1492(4) 0.8178(2)
C23 C 0.13435(11) 0.2611(3) 0.7470(2)
H15 H 0.1068 0.2602 0.7072
C24 C 0.16820(11) 0.3700(3) 0.7364(2)
H16 H 0.1637 0.4412 0.6884
C25 C 0.21001(11) 0.3779(3) 0.7965(2)
C26 C 0.24585(12) 0.4903(4) 0.7864(2)
H17 H 0.2425 0.5605 0.7374
C27 C 0.28536(12) 0.4973(4) 0.8475(3)
H18 H 0.3082 0.5730 0.8409
C28 C 0.29122(11) 0.3898(5) 0.9200(3)
H19 H 0.3177 0.3957 0.9625
C29 C 0.25789(12) 0.2743(5) 0.9291(3)
H20 H 0.2633 0.2010 0.9754
C30 C 0.21597(11) 0.2664(4) 0.8693(2)
C31 C 0.18834(12) 0.0243(4) 0.9492(3)
C32 C 0.20244(11) -0.1130(4) 0.9206(3)
C33 C 0.21175(12) -0.2345(4) 0.9819(3)
H21 H 0.2213 -0.3258 0.9572
C34 C 0.20590(12) -0.2110(5) 1.0812(3)
H22 H 0.2119 -0.2881 1.1244
C35 C 0.19069(11) -0.0696(4) 1.1184(2)
C36 C 0.18481(15) -0.0431(6) 1.2188(3)
H23 H 0.1909 -0.1197 1.2623
C37 C 0.17081(15) 0.0883(6) 1.2537(3)
H24 H 0.1671 0.1037 1.3202
C38 C 0.16197(12) 0.2014(5) 1.1872(3)
H25 H 0.1514 0.2917 1.2120
C39 C 0.16735(12) 0.1912(4) 1.0903(2)
H26 H 0.1616 0.2721 1.0500
C40 C 0.18289(11) 0.0448(5) 1.0493(3)
O3 O 0.10733(8) 0.0381(3) 0.82560(19)
H27 H 0.0828 0.0588 0.7939
O4 O 0.20856(11) -0.1472(3) 0.82137(19)
H28 H 0.2049 -0.0721 0.7888
C41 C 0.05575(11) 0.7897(4) 0.9678(2)
H29 H 0.0387 0.7913 1.0297
H30 H 0.0775 0.8745 0.9641
C42 C 0.08356(11) 0.6474(4) 0.9545(2)
H31 H 0.0645 0.5635 0.9768
H32 H 0.1145 0.6496 0.9894
C43 C 0.09195(11) 0.6401(4) 0.8445(2)
H33 H 0.0950 0.5384 0.8230
H34 H 0.1214 0.6935 0.8265
C44 C 0.04580(10) 0.7142(3) 0.7995(2)
H35 H 0.0559 0.7895 0.7523
C45 C 0.01088(10) 0.6050(3) 0.7509(2)
N1 N 0.02036(9) 0.7877(3) 0.88442(18)
H36 H 0.0116 0.8805 0.8686
H37 H -0.0068 0.7368 0.9007
O5 O -0.02977(7) 0.5808(2) 0.79280(16)
O6 O 0.02535(7) 0.5437(2) 0.67425(15)
loop_
_geom_bond_atom_site_label_1
_geom_bond_atom_site_label_2
_geom_bond_site_symmetry_1
_geom_bond_site_symmetry_2
C1 C2 1_555 1_555
C2 C3 1_555 1_555
C3 H1 1_555 1_555
C4 C3 1_555 1_555
H2 C4 1_555 1_555
C5 C4 1_555 1_555
C6 C5 1_555 1_555
H3 C6 1_555 1_555
C7 C6 1_555 1_555
H4 C7 1_555 1_555
C8 C7 1_555 1_555
H5 C8 1_555 1_555
C9 C8 1_555 1_555
H6 C9 1_555 1_555
C10 C1 1_555 1_555
C11 C1 1_555 1_555
C12 C11 1_555 1_555
C13 C12 1_555 1_555
H7 C13 1_555 1_555
C14 C13 1_555 1_555
H8 C14 1_555 1_555
C15 C14 1_555 1_555
C16 C15 1_555 1_555
H9 C16 1_555 1_555
C17 C16 1_555 1_555
H10 C17 1_555 1_555
C18 C17 1_555 1_555
H11 C18 1_555 1_555
C19 C18 1_555 1_555
H12 C19 1_555 1_555
C20 C11 1_555 1_555
O1 C2 1_555 1_555
H13 O1 1_555 1_555
O2 C12 1_555 1_555
H14 O2 1_555 1_555
C21 C22 1_555 1_555
C22 C23 1_555 1_555
C23 H15 1_555 1_555
C24 C23 1_555 1_555
H16 C24 1_555 1_555
C25 C24 1_555 1_555
C26 C25 1_555 1_555
H17 C26 1_555 1_555
C27 C26 1_555 1_555
H18 C27 1_555 1_555
C28 C27 1_555 1_555
H19 C28 1_555 1_555
C29 C28 1_555 1_555
H20 C29 1_555 1_555
C30 C21 1_555 1_555
C31 C21 1_555 1_555
C32 C31 1_555 1_555
C33 C32 1_555 1_555
H21 C33 1_555 1_555
C34 C33 1_555 1_555
H22 C34 1_555 1_555
C35 C34 1_555 1_555
C36 C35 1_555 1_555
H23 C36 1_555 1_555
C37 C36 1_555 1_555
H24 C37 1_555 1_555
C38 C37 1_555 1_555
H25 C38 1_555 1_555
C39 C38 1_555 1_555
H26 C39 1_555 1_555
C40 C31 1_555 1_555
O3 C22 1_555 1_555
H27 O3 1_555 1_555
O4 C32 1_555 1_555
H28 O4 1_555 1_555
C41 H29 1_555 1_555
H30 C41 1_555 1_555
C42 C41 1_555 1_555
H31 C42 1_555 1_555
H32 C42 1_555 1_555
C43 C42 1_555 1_555
H33 C43 1_555 1_555
H34 C43 1_555 1_555
C44 C43 1_555 1_555
H35 C44 1_555 1_555
C45 C44 1_555 1_555
N1 C41 1_555 1_555
H36 N1 1_555 1_555
H37 N1 1_555 1_555
O5 C45 1_555 1_555
O6 C45 1_555 1_555
C5 C10 1_555 1_555
C9 C10 1_555 1_555
C15 C20 1_555 1_555
C19 C20 1_555 1_555
C25 C30 1_555 1_555
C29 C30 1_555 1_555
C35 C40 1_555 1_555
C39 C40 1_555 1_555
C44 N1 1_555 1_555

#END
