
#######################################################################
#
#                 Cambridge Crystallographic Data Centre
#                                CCDC 
#
#######################################################################
#
# If this CIF has been generated from an entry in the Cambridge 
# Structural Database, then it will include bibliographic, chemical, 
# crystal, experimental, refinement or atomic coordinate data resulting 
# from the CCDC's data processing and validation procedures.
#
#######################################################################

data_NITOLU
_chemical_name_common            1-methyl-4-nitrobenzene
_chemical_formula_moiety         'C7 H7 N1 O2'
_chemical_name_systematic        p-Nitrotoluene
_symmetry_cell_setting           orthorhombic
_symmetry_space_group_name_H-M   'P c a b'
_symmetry_Int_Tables_number      61
_space_group_name_Hall           '-P 2bc 2ac'
loop_
_symmetry_equiv_pos_site_id
_symmetry_equiv_pos_as_xyz
1 x,y,z
2 -x,1/2-y,1/2+z
3 1/2+x,-y,1/2-z
4 1/2-x,1/2+y,-z
5 -x,-y,-z
6 x,1/2+y,1/2-z
7 1/2-x,y,1/2+z
8 1/2+x,1/2-y,z
_cell_length_a                   6.43
_cell_length_b                   14.07
_cell_length_c                   15.66
_cell_angle_alpha                90
_cell_angle_beta                 90
_cell_angle_gamma                90
_cell_volume                     1416.76
_cell_formula_units_Z            8
loop_
_atom_site_label
_atom_site_type_symbol
_atom_site_fract_x
_atom_site_fract_y
_atom_site_fract_z
C1 C 0.12040 0.11440 -0.02320
C2 C -0.08170 0.15260 -0.02800
C3 C -0.18990 0.16060 0.04790
C4 C -0.10640 0.13380 0.12600
C5 C 0.09640 0.09680 0.12610
C6 C 0.20900 0.08790 0.05130
C7 C -0.22720 0.14380 0.20760
H1 H -0.14600 0.17700 -0.08300
H2 H -0.32800 0.18400 0.05100
H3 H 0.13300 0.07300 0.17700
H4 H 0.34800 0.06300 0.05300
H5 H -0.20100 0.12100 0.25900
H6 H -0.25800 0.18500 0.22800
H7 H -0.27800 0.10400 0.20900
N1 N 0.24200 0.10900 -0.10310
O1 O 0.41480 0.07410 -0.10040
O2 O 0.15890 0.13220 -0.16930
loop_
_geom_bond_atom_site_label_1
_geom_bond_atom_site_label_2
_geom_bond_site_symmetry_1
_geom_bond_site_symmetry_2
C1 C2 1_555 1_555
C2 C3 1_555 1_555
C3 C4 1_555 1_555
C4 C5 1_555 1_555
C5 C6 1_555 1_555
C6 C1 1_555 1_555
C7 C4 1_555 1_555
H1 C2 1_555 1_555
H2 C3 1_555 1_555
H3 C5 1_555 1_555
H4 C6 1_555 1_555
H5 C7 1_555 1_555
H6 C7 1_555 1_555
H7 C7 1_555 1_555
N1 C1 1_555 1_555
O1 N1 1_555 1_555
O2 N1 1_555 1_555

#END
