
#######################################################################
#
#                 Cambridge Crystallographic Data Centre
#                                CCDC 
#
#######################################################################
#
# If this CIF has been generated from an entry in the Cambridge 
# Structural Database, then it will include bibliographic, chemical, 
# crystal, experimental, refinement or atomic coordinate data resulting 
# from the CCDC's data processing and validation procedures.
#
#######################################################################

data_NITQEN
_chemical_compound_source        'Prinsepia utilis Royle'
_chemical_name_common            Utililactone
_chemical_formula_moiety         'C5 H7 Cl1 O3'
_chemical_name_systematic        
(+)-(2R,3S)-2-Chloro-3-hydroxy-3-methyl-\g-butyrolactone
_chemical_properties_biological  
'some inhibitory effect on lymphocyte transformation'
_symmetry_cell_setting           monoclinic
_symmetry_space_group_name_H-M   'P 21'
_symmetry_Int_Tables_number      4
_space_group_name_Hall           'P 2yb'
loop_
_symmetry_equiv_pos_site_id
_symmetry_equiv_pos_as_xyz
1 x,y,z
2 -x,1/2+y,-z
_cell_length_a                   6.513(3)
_cell_length_b                   5.159(2)
_cell_length_c                   9.839(5)
_cell_angle_alpha                90
_cell_angle_beta                 96.646(6)
_cell_angle_gamma                90
_cell_volume                     328.374
_exptl_crystal_colour            colorless
_exptl_crystal_description       prisms
_chemical_melting_point          89-91deg.C
_cell_formula_units_Z            2
loop_
_atom_site_label
_atom_site_type_symbol
_atom_site_fract_x
_atom_site_fract_y
_atom_site_fract_z
Cl1 Cl 0.97546(11) 0.68545(18) 0.63098(7)
O1 O 0.8978(3) 1.1902(4) 0.90546(16)
O2 O 1.1960(3) 1.0665(5) 0.8394(2)
O3 O 0.5262(3) 0.7115(4) 0.7778(2)
H1 H 0.406(3) 0.775(7) 0.767(3)
C1 C 1.0142(4) 1.0302(6) 0.8407(3)
C2 C 0.8834(4) 0.8097(5) 0.7796(2)
H2 H 0.8905 0.6700 0.8475
C3 C 0.6649(4) 0.9191(5) 0.7655(2)
C4 C 0.6850(4) 1.0940(6) 0.8928(3)
H3 H 0.5874 1.2364 0.8809
H4 H 0.6600 0.9961 0.9734
C5 C 0.6064(5) 1.0747(7) 0.6370(3)
H5 H 0.6085 0.9645 0.5585
H6 H 0.7035 1.2136 0.6323
H7 H 0.4702 1.1450 0.6383
loop_
_geom_bond_atom_site_label_1
_geom_bond_atom_site_label_2
_geom_bond_site_symmetry_1
_geom_bond_site_symmetry_2
Cl1 C2 1_555 1_555
O1 C1 1_555 1_555
O2 C1 1_555 1_555
O3 H1 1_555 1_555
C1 C2 1_555 1_555
C2 H2 1_555 1_555
C3 O3 1_555 1_555
C4 O1 1_555 1_555
H3 C4 1_555 1_555
H4 C4 1_555 1_555
C5 C3 1_555 1_555
H5 C5 1_555 1_555
H6 C5 1_555 1_555
H7 C5 1_555 1_555
C2 C3 1_555 1_555
C3 C4 1_555 1_555

#END
