
#######################################################################
#
#                 Cambridge Crystallographic Data Centre
#                                CCDC 
#
#######################################################################
#
# If this CIF has been generated from an entry in the Cambridge 
# Structural Database, then it will include bibliographic, chemical, 
# crystal, experimental, refinement or atomic coordinate data resulting 
# from the CCDC's data processing and validation procedures.
#
#######################################################################

data_NITTAM
_chemical_compound_source        
'roots and aerial parts of Senecio nemorensis L.(Compositae)'
_chemical_formula_moiety         'C17 H28 O6'
_chemical_name_systematic        
1\b,10\b(8,12)-Diepoxy-7\b,11\b-dihydroxy-8\b,12\a-dimethoxyeremophilane
_chemical_properties_biological  
'no significant antimicrobial activity against Staphylococcus aureus and Candida albicans'
_symmetry_cell_setting           monoclinic
_symmetry_space_group_name_H-M   'P 21'
_symmetry_Int_Tables_number      4
_space_group_name_Hall           'P 2yb'
loop_
_symmetry_equiv_pos_site_id
_symmetry_equiv_pos_as_xyz
1 x,y,z
2 -x,1/2+y,-z
_cell_length_a                   8.9665(2)
_cell_length_b                   18.9944(5)
_cell_length_c                   10.3867(3)
_cell_angle_alpha                90.00
_cell_angle_beta                 95.8920(10)
_cell_angle_gamma                90.00
_cell_volume                     1759.65
_exptl_crystal_colour            colorless
_chemical_melting_point          96-98deg.C
_cell_formula_units_Z            4
loop_
_atom_site_label
_atom_site_type_symbol
_atom_site_fract_x
_atom_site_fract_y
_atom_site_fract_z
C1 C 0.1221(3) 0.63911(14) 0.9156(3)
H1 H 0.1863 0.6287 0.8472
C2 C 0.2014(4) 0.64334(16) 1.0507(3)
H2 H 0.3086 0.6467 1.0458
H3 H 0.1822 0.6006 1.0975
C3 C 0.1490(3) 0.70705(15) 1.1244(3)
H4 H 0.1848 0.7022 1.2153
H5 H 0.1937 0.7493 1.0925
C4 C -0.0211(3) 0.71592(13) 1.1116(2)
H6 H -0.0418 0.7587 1.1594
C5 C -0.0836(3) 0.72869(13) 0.9684(2)
C6 C -0.0439(3) 0.80571(12) 0.9353(2)
H7 H -0.1014 0.8366 0.9857
H8 H 0.0611 0.8131 0.9646
C7 C -0.0697(3) 0.82948(12) 0.7936(2)
C8 C -0.0122(3) 0.77354(13) 0.7047(2)
C9 C -0.0495(3) 0.69827(12) 0.7343(2)
H9 H -0.1554 0.6902 0.7100
H10 H 0.0064 0.6671 0.6829
C10 C -0.0129(3) 0.68096(13) 0.8751(3)
C11 C 0.0346(3) 0.89259(13) 0.7700(3)
C12 C 0.1831(3) 0.85485(14) 0.7517(3)
H11 H 0.2301 0.8767 0.6805
C13 C 0.0458(3) 0.94930(13) 0.8725(3)
H12 H 0.1034 0.9880 0.8446
H13 H 0.0942 0.9306 0.9519
H14 H -0.0529 0.9653 0.8860
C14 C -0.2556(3) 0.71888(14) 0.9531(3)
H15 H -0.2959 0.7352 0.8692
H16 H -0.2987 0.7454 1.0187
H17 H -0.2791 0.6699 0.9619
C15 C -0.0930(4) 0.65475(15) 1.1791(3)
H18 H -0.0940 0.6135 1.1257
H19 H -0.1939 0.6670 1.1933
H20 H -0.0361 0.6454 1.2608
C16 C 0.0060(3) 0.75888(17) 0.4749(3)
H21 H 0.1086 0.7741 0.4817
H22 H -0.0428 0.7721 0.3918
H23 H 0.0024 0.7086 0.4843
C17 C 0.4236(3) 0.82504(17) 0.8484(3)
H24 H 0.4112 0.7751 0.8381
H25 H 0.4923 0.8345 0.9235
H26 H 0.4626 0.8443 0.7732
O1 O -0.0234(2) 0.60581(9) 0.90141(19)
O2 O -0.06848(18) 0.79138(9) 0.57433(16)
O3 O -0.22429(17) 0.84516(9) 0.76609(17)
H53 H -0.2407 0.8585 0.6909
O4 O 0.14626(17) 0.78234(8) 0.72036(16)
O5 O 0.2807(2) 0.85695(10) 0.8640(2)
O6 O -0.0173(2) 0.92826(9) 0.65270(18)
H54 H -0.0451 0.8993 0.5969
C18 C 0.3550(3) 0.65116(13) 0.5744(3)
H27 H 0.2925 0.6663 0.6412
C19 C 0.4981(3) 0.69115(14) 0.5657(3)
H28 H 0.5578 0.6901 0.6491
H29 H 0.4749 0.7399 0.5445
C20 C 0.5874(3) 0.65984(14) 0.4638(3)
H30 H 0.6826 0.6841 0.4646
H31 H 0.5329 0.6659 0.3789
C21 C 0.6148(3) 0.58186(15) 0.4903(3)
H32 H 0.6579 0.5788 0.5807
C22 C 0.4687(3) 0.53682(12) 0.4814(2)
C23 C 0.5052(2) 0.47231(12) 0.5710(2)
H33 H 0.5761 0.4432 0.5305
H34 H 0.5570 0.4898 0.6512
C24 C 0.3795(3) 0.42430(13) 0.6065(2)
C25 C 0.2531(3) 0.46947(13) 0.6514(2)
C26 C 0.2091(3) 0.53360(13) 0.5703(3)
H35 H 0.1467 0.5635 0.6183
H36 H 0.1488 0.5184 0.4924
C27 C 0.3389(3) 0.57718(14) 0.5314(2)
C28 C 0.4080(3) 0.43703(15) 0.8373(3)
H37 H 0.3638 0.4147 0.9095
C29 C 0.4287(3) 0.38217(14) 0.7310(3)
C30 C 0.5821(3) 0.34836(15) 0.7398(3)
H38 H 0.5996 0.3229 0.8198
H39 H 0.6571 0.3842 0.7367
H40 H 0.5869 0.3165 0.6686
C31 C 0.4183(3) 0.51285(14) 0.3412(2)
H41 H 0.3203 0.4921 0.3377
H42 H 0.4880 0.4788 0.3146
H43 H 0.4154 0.5528 0.2843
C32 C 0.7342(3) 0.55221(16) 0.4099(3)
H44 H 0.7025 0.5585 0.3196
H45 H 0.7479 0.5029 0.4281
H46 H 0.8272 0.5766 0.4317
C33 C 0.0016(3) 0.45220(17) 0.7137(3)
H47 H 0.0375 0.4787 0.7894
H48 H -0.0617 0.4147 0.7377
H49 H -0.0545 0.4826 0.6528
C34 C 0.5354(4) 0.5147(2) 0.9880(4)
H50 H 0.4753 0.5547 0.9599
H51 H 0.6342 0.5301 1.0200
H52 H 0.4904 0.4907 1.0557
O7 O 0.2782(2) 0.63475(9) 0.44868(18)
O8 O 0.30792(19) 0.49042(9) 0.77858(17)
O9 O 0.5446(2) 0.46753(11) 0.8809(2)
O10 O 0.3275(2) 0.32469(10) 0.7416(2)
H55 H 0.2415 0.3397 0.7390
O11 O 0.3363(2) 0.37970(9) 0.49965(17)
H56 H 0.2751 0.3508 0.5201
O12 O 0.12671(19) 0.42327(9) 0.65580(18)
loop_
_geom_bond_atom_site_label_1
_geom_bond_atom_site_label_2
_geom_bond_site_symmetry_1
_geom_bond_site_symmetry_2
C1 H1 1_555 1_555
C2 C1 1_555 1_555
H2 C2 1_555 1_555
H3 C2 1_555 1_555
C3 C2 1_555 1_555
H4 C3 1_555 1_555
H5 C3 1_555 1_555
C4 C3 1_555 1_555
H6 C4 1_555 1_555
C5 C4 1_555 1_555
C6 C5 1_555 1_555
H7 C6 1_555 1_555
H8 C6 1_555 1_555
C7 C6 1_555 1_555
C8 C7 1_555 1_555
C9 C8 1_555 1_555
H9 C9 1_555 1_555
H10 C9 1_555 1_555
C10 C1 1_555 1_555
C11 C7 1_555 1_555
C12 C11 1_555 1_555
H11 C12 1_555 1_555
C13 C11 1_555 1_555
H12 C13 1_555 1_555
H13 C13 1_555 1_555
H14 C13 1_555 1_555
C14 C5 1_555 1_555
H15 C14 1_555 1_555
H16 C14 1_555 1_555
H17 C14 1_555 1_555
C15 C4 1_555 1_555
H18 C15 1_555 1_555
H19 C15 1_555 1_555
H20 C15 1_555 1_555
C16 H21 1_555 1_555
H22 C16 1_555 1_555
H23 C16 1_555 1_555
C17 H24 1_555 1_555
H25 C17 1_555 1_555
H26 C17 1_555 1_555
C18 H27 1_555 1_555
C19 C18 1_555 1_555
H28 C19 1_555 1_555
H29 C19 1_555 1_555
C20 C19 1_555 1_555
H30 C20 1_555 1_555
H31 C20 1_555 1_555
C21 C20 1_555 1_555
H32 C21 1_555 1_555
C22 C21 1_555 1_555
C23 C22 1_555 1_555
H33 C23 1_555 1_555
H34 C23 1_555 1_555
C24 C23 1_555 1_555
C25 C24 1_555 1_555
C26 C25 1_555 1_555
H35 C26 1_555 1_555
H36 C26 1_555 1_555
C27 C18 1_555 1_555
C28 H37 1_555 1_555
C29 C24 1_555 1_555
C30 C29 1_555 1_555
H38 C30 1_555 1_555
H39 C30 1_555 1_555
H40 C30 1_555 1_555
C31 C22 1_555 1_555
H41 C31 1_555 1_555
H42 C31 1_555 1_555
H43 C31 1_555 1_555
C32 C21 1_555 1_555
H44 C32 1_555 1_555
H45 C32 1_555 1_555
H46 C32 1_555 1_555
C33 H47 1_555 1_555
H48 C33 1_555 1_555
H49 C33 1_555 1_555
C34 H50 1_555 1_555
H51 C34 1_555 1_555
H52 C34 1_555 1_555
O1 C1 1_555 1_555
O2 C8 1_555 1_555
O3 C7 1_555 1_555
H53 O3 1_555 1_555
O4 C8 1_555 1_555
O5 C12 1_555 1_555
O6 C11 1_555 1_555
H54 O6 1_555 1_555
O7 C18 1_555 1_555
O8 C25 1_555 1_555
O9 C28 1_555 1_555
O10 C29 1_555 1_555
H55 O10 1_555 1_555
O11 C24 1_555 1_555
H56 O11 1_555 1_555
O12 C25 1_555 1_555
C5 C10 1_555 1_555
C9 C10 1_555 1_555
C10 O1 1_555 1_555
C12 O4 1_555 1_555
C16 O2 1_555 1_555
C17 O5 1_555 1_555
C22 C27 1_555 1_555
C26 C27 1_555 1_555
C27 O7 1_555 1_555
C28 C29 1_555 1_555
C28 O8 1_555 1_555
C33 O12 1_555 1_555
C34 O9 1_555 1_555

#END
