
#######################################################################
#
#                 Cambridge Crystallographic Data Centre
#                                CCDC 
#
#######################################################################
#
# If this CIF has been generated from an entry in the Cambridge 
# Structural Database, then it will include bibliographic, chemical, 
# crystal, experimental, refinement or atomic coordinate data resulting 
# from the CCDC's data processing and validation procedures.
#
#######################################################################

data_NITXUJ
_chemical_formula_moiety         'C17 H16 O2 Te1'
_chemical_name_systematic        
3-(4-Ethoxyphenyltelluro)-3-phenylprop-2-enone
_symmetry_cell_setting           monoclinic
_symmetry_space_group_name_H-M   'P 21/n'
_symmetry_Int_Tables_number      14
_space_group_name_Hall           '-P 2yn'
loop_
_symmetry_equiv_pos_site_id
_symmetry_equiv_pos_as_xyz
1 x,y,z
2 1/2-x,1/2+y,1/2-z
3 -x,-y,-z
4 1/2+x,1/2-y,1/2+z
_cell_length_a                   9.279(9)
_cell_length_b                   8.950(8)
_cell_length_c                   18.978(14)
_cell_angle_alpha                90
_cell_angle_beta                 100.58(2)
_cell_angle_gamma                90
_cell_volume                     1549.27
_chemical_melting_point          110deg.C
_cell_formula_units_Z            4
loop_
_atom_site_label
_atom_site_type_symbol
_atom_site_fract_x
_atom_site_fract_y
_atom_site_fract_z
Te1 Te 0.6016(1) 0.0370(1) 0.6801(1)
O1 O 0.3965(3) 0.1470(4) 0.7522(2)
O2 O 0.9835(3) -0.2637(3) 0.4780(2)
C1 C 0.4275(4) -0.1159(5) 0.6715(2)
C2 C 0.3076(4) -0.0809(5) 0.7009(2)
C3 C 0.2982(5) 0.0549(5) 0.7402(2)
C4 C 0.4334(4) -0.2627(4) 0.6361(2)
C5 C 0.3187(4) -0.3081(5) 0.5823(2)
C6 C 0.3156(6) -0.4529(5) 0.5546(3)
C7 C 0.4278(6) -0.5509(5) 0.5807(3)
C8 C 0.5402(5) -0.5071(5) 0.6338(3)
C9 C 0.5450(4) -0.3635(5) 0.6614(2)
C10 C 0.7244(4) -0.0703(5) 0.6109(2)
C11 C 0.8382(4) -0.1694(5) 0.6365(2)
C12 C 0.9221(4) -0.2324(5) 0.5911(2)
C13 C 0.8951(4) -0.1954(5) 0.5185(2)
C14 C 0.7843(4) -0.0942(5) 0.4920(2)
C15 C 0.7002(4) -0.0335(5) 0.5387(2)
C16 C 0.9644(5) -0.2245(6) 0.4034(2)
C17 C 1.0790(5) -0.3095(6) 0.3722(3)
H1 H 0.223 -0.149 0.694
H2 H 0.210 0.074 0.758
H3 H 0.242 -0.239 0.564
H4 H 0.235 -0.485 0.518
H5 H 0.427 -0.650 0.561
H6 H 0.617 -0.576 0.652
H7 H 0.625 -0.333 0.698
H8 H 0.858 -0.193 0.687
H9 H 1.000 -0.301 0.609
H10 H 0.766 -0.067 0.442
H11 H 0.623 0.036 0.521
H12 H 0.978 -0.119 0.398
H13 H 0.868 -0.251 0.379
H14 H 1.071 -0.286 0.322
H15 H 1.175 -0.282 0.397
H16 H 1.064 -0.415 0.378
loop_
_geom_bond_atom_site_label_1
_geom_bond_atom_site_label_2
_geom_bond_site_symmetry_1
_geom_bond_site_symmetry_2
Te1 C1 1_555 1_555
O1 C3 1_555 1_555
O2 C13 1_555 1_555
C1 C2 1_555 1_555
C2 C3 1_555 1_555
C3 H2 1_555 1_555
C4 C1 1_555 1_555
C5 C4 1_555 1_555
C6 C5 1_555 1_555
C7 C6 1_555 1_555
C8 C7 1_555 1_555
C9 C4 1_555 1_555
C10 Te1 1_555 1_555
C11 C10 1_555 1_555
C12 C11 1_555 1_555
C13 C12 1_555 1_555
C14 C13 1_555 1_555
C15 C10 1_555 1_555
C16 O2 1_555 1_555
C17 C16 1_555 1_555
H1 C2 1_555 1_555
H3 C5 1_555 1_555
H4 C6 1_555 1_555
H5 C7 1_555 1_555
H6 C8 1_555 1_555
H7 C9 1_555 1_555
H8 C11 1_555 1_555
H9 C12 1_555 1_555
H10 C14 1_555 1_555
H11 C15 1_555 1_555
H12 C16 1_555 1_555
H13 C16 1_555 1_555
H14 C17 1_555 1_555
H15 C17 1_555 1_555
H16 C17 1_555 1_555
C8 C9 1_555 1_555
C14 C15 1_555 1_555

#END
