
#######################################################################
#
#                 Cambridge Crystallographic Data Centre
#                                CCDC 
#
#######################################################################
#
# If this CIF has been generated from an entry in the Cambridge 
# Structural Database, then it will include bibliographic, chemical, 
# crystal, experimental, refinement or atomic coordinate data resulting 
# from the CCDC's data processing and validation procedures.
#
#######################################################################

data_NITYIA
_chemical_formula_moiety         'C19 H16 N2 O2'
_chemical_name_systematic        'Benzyl (2-(pyridin-2-yl)phenyl)carbamate'
_symmetry_cell_setting           orthorhombic
_symmetry_space_group_name_H-M   'P 21 21 21'
_symmetry_Int_Tables_number      19
_space_group_name_Hall           'P 2ac 2ab'
loop_
_symmetry_equiv_pos_site_id
_symmetry_equiv_pos_as_xyz
1 x,y,z
2 1/2+x,1/2-y,-z
3 -x,1/2+y,1/2-z
4 1/2-x,-y,1/2+z
_cell_length_a                   5.5837(13)
_cell_length_b                   9.0762(17)
_cell_length_c                   31.477(7)
_cell_angle_alpha                90
_cell_angle_beta                 90
_cell_angle_gamma                90
_cell_volume                     1595.22
_exptl_crystal_colour            colorless
_exptl_crystal_description       block
_cell_formula_units_Z            4
loop_
_atom_site_label
_atom_site_type_symbol
_atom_site_fract_x
_atom_site_fract_y
_atom_site_fract_z
O1 O 0.0400(5) 0.9199(2) 0.14671(7)
O2 O 0.1462(6) 1.1297(3) 0.11337(8)
N1 N 0.3237(6) 0.9077(4) 0.09847(9)
C1 C -0.2073(7) 0.9158(4) 0.20927(12)
C2 C 0.8754(10) 0.4515(4) 0.08678(16)
H1 H 1.0011 0.3872 0.0812
C3 C 0.8770(7) 0.5920(4) 0.06940(14)
H2 H 1.0052 0.6229 0.0528
C4 C 0.6887(7) 0.6846(4) 0.07687(11)
C5 C 0.6752(7) 0.8368(3) 0.05758(10)
C6 C 0.5006(7) 0.9435(3) 0.06852(10)
C7 C 0.1686(8) 0.9991(4) 0.11861(12)
C8 C -0.1427(7) 1.0002(4) 0.16978(12)
H3 H -0.2834 1.0124 0.1521
H4 H -0.0835 1.0971 0.1774
C9 C -0.0747(8) 0.9353(4) 0.24563(15)
H5 H 0.0577 0.9975 0.2452
C10 C -0.1351(13) 0.8642(6) 0.28247(15)
H6 H -0.0442 0.8783 0.3069
C11 C -0.3257(13) 0.7741(7) 0.28328(17)
H7 H -0.3653 0.7250 0.3082
C12 C -0.4008(9) 0.8240(5) 0.21101(15)
H8 H -0.4927 0.8091 0.1867
C13 C -0.4613(10) 0.7539(5) 0.2479(2)
H9 H -0.5947 0.6927 0.2487
C14 C 0.8478(7) 0.8770(4) 0.02745(11)
H10 H 0.9652 0.8090 0.0200
C15 C 0.8499(8) 1.0138(4) 0.00840(11)
H11 H 0.9652 1.0367 -0.0119
C16 C 0.6813(8) 1.1153(4) 0.01958(12)
H12 H 0.6841 1.2084 0.0073
C17 C 0.5066(8) 1.0811(4) 0.04892(10)
H13 H 0.3909 1.1509 0.0557
N2 N 0.5058(7) 0.6412(4) 0.10074(10)
C18 C 0.6953(10) 0.4086(5) 0.11142(14)
H14 H 0.6945 0.3158 0.1239
C19 C 0.5116(10) 0.5052(5) 0.11773(15)
H15 H 0.3838 0.4755 0.1346
H16 H 0.315(7) 0.821(4) 0.1066(10)
loop_
_geom_bond_atom_site_label_1
_geom_bond_atom_site_label_2
_geom_bond_site_symmetry_1
_geom_bond_site_symmetry_2
O1 C7 1_555 1_555
O2 C7 1_555 1_555
N1 C6 1_555 1_555
C1 C8 1_555 1_555
C2 H1 1_555 1_555
C3 C2 1_555 1_555
H2 C3 1_555 1_555
C4 C3 1_555 1_555
C5 C4 1_555 1_555
C6 C5 1_555 1_555
C7 N1 1_555 1_555
C8 O1 1_555 1_555
H3 C8 1_555 1_555
H4 C8 1_555 1_555
C9 C1 1_555 1_555
H5 C9 1_555 1_555
C10 C9 1_555 1_555
H6 C10 1_555 1_555
C11 C10 1_555 1_555
H7 C11 1_555 1_555
C12 C1 1_555 1_555
H8 C12 1_555 1_555
C13 C11 1_555 1_555
H9 C13 1_555 1_555
C14 C5 1_555 1_555
H10 C14 1_555 1_555
C15 C14 1_555 1_555
H11 C15 1_555 1_555
C16 C15 1_555 1_555
H12 C16 1_555 1_555
C17 C6 1_555 1_555
H13 C17 1_555 1_555
N2 C4 1_555 1_555
C18 C2 1_555 1_555
H14 C18 1_555 1_555
C19 N2 1_555 1_555
H15 C19 1_555 1_555
H16 N1 1_555 1_555
C12 C13 1_555 1_555
C16 C17 1_555 1_555
C18 C19 1_555 1_555

#END
