
#######################################################################
#
#                 Cambridge Crystallographic Data Centre
#                                CCDC 
#
#######################################################################
#
# If this CIF has been generated from an entry in the Cambridge 
# Structural Database, then it will include bibliographic, chemical, 
# crystal, experimental, refinement or atomic coordinate data resulting 
# from the CCDC's data processing and validation procedures.
#
#######################################################################

data_NITYAQ
_chemical_formula_moiety         'C24 H23 N1 O1 Te1'
_chemical_name_systematic        
N-(3-(4-Ethoxyphenyltelluro)-3-phenylprop-2-enylidene)-4-methylaniline
_symmetry_cell_setting           triclinic
_symmetry_space_group_name_H-M   'P -1'
_symmetry_Int_Tables_number      2
_space_group_name_Hall           '-P 1'
loop_
_symmetry_equiv_pos_site_id
_symmetry_equiv_pos_as_xyz
1 x,y,z
2 -x,-y,-z
_cell_length_a                   6.460(2)
_cell_length_b                   12.587(3)
_cell_length_c                   13.243(4)
_cell_angle_alpha                81.41(2)
_cell_angle_beta                 88.47(2)
_cell_angle_gamma                84.62(2)
_cell_volume                     1059.96
_exptl_crystal_colour            yellow
_chemical_melting_point          122-124deg.C
_cell_formula_units_Z            2
loop_
_atom_site_label
_atom_site_type_symbol
_atom_site_fract_x
_atom_site_fract_y
_atom_site_fract_z
Te1 Te 0.3643(1) 0.3241(1) 0.0789(1)
O1 O 0.7614(6) 0.5537(3) 0.4074(3)
N1 N 0.1817(7) 0.1791(4) -0.0209(3)
C1 C 0.4719(7) 0.1642(4) 0.1416(4)
C2 C 0.4023(8) 0.0802(4) 0.1066(4)
C3 C 0.2528(8) 0.0874(4) 0.0264(4)
C4 C 0.6201(7) 0.1480(4) 0.2274(4)
C5 C 0.8166(8) 0.1863(4) 0.2163(4)
C6 C 0.9529(8) 0.1676(4) 0.2972(5)
C7 C 0.8975(9) 0.1119(4) 0.3884(5)
C8 C 0.7058(9) 0.0734(5) 0.4008(4)
C9 C 0.5680(8) 0.0908(5) 0.3208(4)
C10 C 0.5094(8) 0.3999(4) 0.1891(4)
C11 C 0.4237(8) 0.4012(4) 0.2857(4)
C12 C 0.5120(8) 0.4513(4) 0.3567(4)
C13 C 0.6899(8) 0.5041(4) 0.3318(4)
C14 C 0.7778(8) 0.5052(4) 0.2359(4)
C15 C 0.6883(8) 0.4524(4) 0.1647(4)
C16 C 0.9336(8) 0.6187(5) 0.3828(4)
C17 C 0.9529(1) 0.6792(6) 0.4731(5)
C18 C 0.0348(8) 0.1848(4) -0.0992(4)
C19 C 0.0455(8) 0.1151(4) -0.1718(4)
C20 C -0.1054(8) 0.1237(4) -0.2444(4)
C21 C -0.2722(8) 0.2014(4) -0.2486(4)
C22 C -0.2817(9) 0.2725(5) -0.1770(4)
C23 C -0.1307(8) 0.2651(4) -0.1042(4)
C24 C -0.4375(10) 0.2098(6) -0.3290(6)
H1 H 0.456 0.010 0.138
H2 H 0.205 0.023 0.008
H3 H 0.856 0.225 0.152
H4 H 1.087 0.195 0.289
H5 H 0.994 0.099 0.444
H6 H 0.667 0.033 0.465
H7 H 0.433 0.064 0.329
H8 H 0.299 0.366 0.302
H9 H 0.453 0.449 0.424
H10 H 0.901 0.542 0.219
H11 H 0.748 0.454 0.097
H12 H 0.904 0.669 0.322
H13 H 1.059 0.574 0.372
H14 H 1.064 0.725 0.462
H15 H 0.825 0.722 0.482
H16 H 0.980 0.627 0.533
H17 H 0.158 0.059 -0.170
H18 H -0.093 0.076 -0.295
H19 H -0.395 0.328 -0.179
H20 H -0.139 0.315 -0.056
H21 H -0.407 0.154 -0.371
H22 H -0.571 0.202 -0.296
H23 H -0.440 0.279 -0.370
loop_
_geom_bond_atom_site_label_1
_geom_bond_atom_site_label_2
_geom_bond_site_symmetry_1
_geom_bond_site_symmetry_2
Te1 C1 1_555 1_555
O1 C13 1_555 1_555
N1 C3 1_555 1_555
C1 C2 1_555 1_555
C2 C3 1_555 1_555
C3 H2 1_555 1_555
C4 C1 1_555 1_555
C5 C4 1_555 1_555
C6 C5 1_555 1_555
C7 C6 1_555 1_555
C8 C7 1_555 1_555
C9 C4 1_555 1_555
C10 Te1 1_555 1_555
C11 C10 1_555 1_555
C12 C11 1_555 1_555
C13 C12 1_555 1_555
C14 C13 1_555 1_555
C15 C10 1_555 1_555
C16 O1 1_555 1_555
C17 C16 1_555 1_555
C18 N1 1_555 1_555
C19 C18 1_555 1_555
C20 C19 1_555 1_555
C21 C20 1_555 1_555
C22 C21 1_555 1_555
C23 C18 1_555 1_555
C24 C21 1_555 1_555
H1 C2 1_555 1_555
H3 C5 1_555 1_555
H4 C6 1_555 1_555
H5 C7 1_555 1_555
H6 C8 1_555 1_555
H7 C9 1_555 1_555
H8 C11 1_555 1_555
H9 C12 1_555 1_555
H10 C14 1_555 1_555
H11 C15 1_555 1_555
H12 C16 1_555 1_555
H13 C16 1_555 1_555
H14 C17 1_555 1_555
H15 C17 1_555 1_555
H16 C17 1_555 1_555
H17 C19 1_555 1_555
H18 C20 1_555 1_555
H19 C22 1_555 1_555
H20 C23 1_555 1_555
H21 C24 1_555 1_555
H22 C24 1_555 1_555
H23 C24 1_555 1_555
C8 C9 1_555 1_555
C14 C15 1_555 1_555
C22 C23 1_555 1_555

#END
