
#######################################################################
#
#                 Cambridge Crystallographic Data Centre
#                                CCDC 
#
#######################################################################
#
# If this CIF has been generated from an entry in the Cambridge 
# Structural Database, then it will include bibliographic, chemical, 
# crystal, experimental, refinement or atomic coordinate data resulting 
# from the CCDC's data processing and validation procedures.
#
#######################################################################

data_NIVFOO
_chemical_formula_moiety         'C25 H18 N2 O1'
_chemical_name_systematic        
(S)-2-(Pyrrol-2-ylmethyleneamino)-2'-hydroxy-1,1'-binaphthyl
_symmetry_cell_setting           monoclinic
_symmetry_space_group_name_H-M   'P 21'
_symmetry_Int_Tables_number      4
_space_group_name_Hall           'P 2yb'
loop_
_symmetry_equiv_pos_site_id
_symmetry_equiv_pos_as_xyz
1 x,y,z
2 -x,1/2+y,-z
_cell_length_a                   10.5046(19)
_cell_length_b                   8.5468(15)
_cell_length_c                   11.379(2)
_cell_angle_alpha                90
_cell_angle_beta                 107.694(3)
_cell_angle_gamma                90
_cell_volume                     973.286
_exptl_crystal_colour            yellow
_exptl_crystal_description       block
_chemical_melting_point          178-180deg.C
_cell_formula_units_Z            2
_exptl_crystal_recrystallization_method benzene/hexane
loop_
_atom_site_label
_atom_site_type_symbol
_atom_site_fract_x
_atom_site_fract_y
_atom_site_fract_z
O1 O 0.05438(19) 0.7563(3) 0.44979(15)
H1 H 0.015(4) 0.810(6) 0.495(4)
N1 N 0.00999(15) 0.3759(2) 0.36320(15)
N2 N -0.25995(18) 0.2362(2) 0.3313(2)
H2 H -0.217(3) 0.240(5) 0.4131(11)
C1 C -0.0142(2) 0.7665(3) 0.32888(19)
C2 C -0.1260(2) 0.8637(3) 0.2869(2)
H3 H -0.1526 0.9246 0.3430
C3 C -0.1948(2) 0.8700(3) 0.1675(3)
H4 H -0.2693 0.9346 0.1414
C4 C -0.15642(18) 0.7803(3) 0.08041(19)
C5 C -0.2288(2) 0.7815(3) -0.0458(2)
H5 H -0.3047 0.8437 -0.0734
C6 C -0.1899(2) 0.6938(4) -0.1276(2)
H6 H -0.2399 0.6946 -0.2105
C7 C -0.0752(2) 0.6026(3) -0.08816(19)
H7 H -0.0480 0.5443 -0.1452
C8 C -0.0024(2) 0.5979(2) 0.03321(16)
H8 H 0.0741 0.5363 0.0582
C9 C -0.04153(16) 0.6853(2) 0.12150(16)
C10 C 0.02901(17) 0.6772(2) 0.24870(16)
C11 C 0.14619(16) 0.5731(2) 0.30081(14)
C12 C 0.27532(18) 0.6196(2) 0.29706(16)
C13 C 0.2948(2) 0.7539(3) 0.23348(19)
H9 H 0.2225 0.8187 0.1965
C14 C 0.4175(2) 0.7906(4) 0.2252(2)
H10 H 0.4282 0.8792 0.1818
C15 C 0.5272(2) 0.6971(4) 0.2811(2)
H11 H 0.6104 0.7223 0.2734
C16 C 0.5137(2) 0.5700(3) 0.3464(2)
H12 H 0.5883 0.5096 0.3850
C17 C 0.38792(18) 0.5274(3) 0.35683(17)
C18 C 0.37127(19) 0.3963(3) 0.42403(18)
H13 H 0.4456 0.3385 0.4677
C19 C 0.24815(19) 0.3523(3) 0.42644(17)
H14 H 0.2388 0.2649 0.4719
C20 C 0.13414(17) 0.4379(2) 0.36064(15)
C21 C -0.08032(19) 0.3565(3) 0.26042(19)
H15 H -0.0590 0.3860 0.1900
C22 C -0.2107(2) 0.2943(3) 0.2423(2)
C23 C -0.3079(2) 0.2754(4) 0.1314(3)
H16 H -0.3024 0.3047 0.0544
C24 C -0.4165(2) 0.2040(4) 0.1555(4)
H17 H -0.4969 0.1766 0.0975
C25 C -0.3837(3) 0.1820(4) 0.2787(4)
H18 H -0.4382 0.1365 0.3201
loop_
_geom_bond_atom_site_label_1
_geom_bond_atom_site_label_2
_geom_bond_site_symmetry_1
_geom_bond_site_symmetry_2
O1 H1 1_555 1_555
N1 C20 1_555 1_555
N2 H2 1_555 1_555
C1 O1 1_555 1_555
C2 C1 1_555 1_555
H3 C2 1_555 1_555
C3 C2 1_555 1_555
H4 C3 1_555 1_555
C4 C3 1_555 1_555
C5 C4 1_555 1_555
H5 C5 1_555 1_555
C6 C5 1_555 1_555
H6 C6 1_555 1_555
C7 C6 1_555 1_555
H7 C7 1_555 1_555
C8 C7 1_555 1_555
H8 C8 1_555 1_555
C9 C4 1_555 1_555
C10 C1 1_555 1_555
C11 C10 1_555 1_555
C12 C11 1_555 1_555
C13 C12 1_555 1_555
H9 C13 1_555 1_555
C14 C13 1_555 1_555
H10 C14 1_555 1_555
C15 C14 1_555 1_555
H11 C15 1_555 1_555
C16 C15 1_555 1_555
H12 C16 1_555 1_555
C17 C12 1_555 1_555
C18 C17 1_555 1_555
H13 C18 1_555 1_555
C19 C18 1_555 1_555
H14 C19 1_555 1_555
C20 C11 1_555 1_555
C21 N1 1_555 1_555
H15 C21 1_555 1_555
C22 N2 1_555 1_555
C23 C22 1_555 1_555
H16 C23 1_555 1_555
C24 C23 1_555 1_555
H17 C24 1_555 1_555
C25 N2 1_555 1_555
H18 C25 1_555 1_555
C8 C9 1_555 1_555
C9 C10 1_555 1_555
C16 C17 1_555 1_555
C19 C20 1_555 1_555
C21 C22 1_555 1_555
C24 C25 1_555 1_555

#END
