
#######################################################################
#
#                 Cambridge Crystallographic Data Centre
#                                CCDC 
#
#######################################################################
#
# If this CIF has been generated from an entry in the Cambridge 
# Structural Database, then it will include bibliographic, chemical, 
# crystal, experimental, refinement or atomic coordinate data resulting 
# from the CCDC's data processing and validation procedures.
#
#######################################################################

data_NIVHAD
_chemical_formula_moiety         'C22 H12 S1'
_chemical_name_systematic        Benzo[b]pyreno[1,2-d]thiophene
_symmetry_cell_setting           monoclinic
_symmetry_space_group_name_H-M   'P 21'
_symmetry_Int_Tables_number      4
_space_group_name_Hall           'P 2yb'
loop_
_symmetry_equiv_pos_site_id
_symmetry_equiv_pos_as_xyz
1 x,y,z
2 -x,1/2+y,-z
_cell_length_a                   12.7855(13)
_cell_length_b                   3.9520(4)
_cell_length_c                   14.5688(16)
_cell_angle_alpha                90
_cell_angle_beta                 106.642(7)
_cell_angle_gamma                90
_cell_volume                     705.302
_exptl_crystal_colour            colorless
_exptl_crystal_description       plate
_cell_formula_units_Z            2
_exptl_crystal_recrystallization_method hexane
loop_
_atom_site_label
_atom_site_type_symbol
_atom_site_fract_x
_atom_site_fract_y
_atom_site_fract_z
S1 S -0.77934(9) -0.7565(3) -0.45439(7)
C1 C -0.4443(3) -0.9335(11) -0.2483(3)
C2 C -0.5540(4) -0.7190(14) -0.4024(3)
H1 H -0.5602(4) -0.6148(14) -0.4610(3)
C3 C -0.3390(3) -0.9803(11) -0.1823(3)
C4 C -0.4508(4) -0.7727(13) -0.3382(3)
C5 C -0.2574(4) -0.7172(13) -0.2964(3)
H2 H -0.1956(4) -0.6477(13) -0.3127(3)
C6 C -0.5403(3) -1.0437(11) -0.2261(3)
C7 C -0.6441(3) -0.9807(11) -0.2929(3)
C8 C -0.1416(4) -0.9114(13) -0.1371(3)
H3 H -0.0788(4) -0.8395(13) -0.1515(3)
C9 C -0.5254(3) -1.2146(13) -0.1358(3)
H4 H -0.5859(3) -1.3001(13) -0.1202(3)
C10 C -0.2249(4) -1.1706(13) -0.0269(3)
H5 H -0.2177(4) -1.2688(13) 0.0326(3)
C11 C -0.3274(4) -1.1378(11) -0.0919(3)
C12 C -0.4251(4) -1.2528(15) -0.0735(3)
H6 H -0.4195(4) -1.3598(15) -0.0154(3)
C13 C -0.2433(4) -0.8677(11) -0.2050(3)
C14 C -0.7555(4) -1.0504(12) -0.2872(3)
C15 C -0.6461(4) -0.8192(11) -0.3795(3)
C16 C -0.7923(4) -1.2013(14) -0.2151(3)
H7 H -0.7425(4) -1.2795(14) -0.1593(3)
C17 C -0.8347(4) -0.9355(12) -0.3710(3)
C18 C -0.1327(4) -1.0576(14) -0.0501(4)
H8 H -0.0643(4) -1.0817(14) -0.0061(4)
C19 C -0.3531(4) -0.6712(12) -0.3591(3)
H9 H -0.3572(4) -0.5710(12) -0.4178(3)
C20 C -0.9027(4) -1.2330(16) -0.2276(3)
H10 H -0.9268(4) -1.3323(16) -0.1794(3)
C21 C -0.9452(4) -0.9724(13) -0.3821(3)
H11 H -0.9962(4) -0.8979(13) -0.4377(3)
C22 C -0.9789(4) -1.1202(14) -0.3101(4)
H12 H -1.0530(4) -1.1449(14) -0.3168(4)
loop_
_geom_bond_atom_site_label_1
_geom_bond_atom_site_label_2
_geom_bond_site_symmetry_1
_geom_bond_site_symmetry_2
S1 C15 1_555 1_555
C1 C3 1_555 1_555
C2 H1 1_555 1_555
C3 C11 1_555 1_555
C4 C1 1_555 1_555
C5 H2 1_555 1_555
C6 C1 1_555 1_555
C7 C6 1_555 1_555
C8 H3 1_555 1_555
C9 C6 1_555 1_555
H4 C9 1_555 1_555
C10 H5 1_555 1_555
C11 C10 1_555 1_555
C12 C9 1_555 1_555
H6 C12 1_555 1_555
C13 C3 1_555 1_555
C14 C7 1_555 1_555
C15 C2 1_555 1_555
C16 C14 1_555 1_555
H7 C16 1_555 1_555
C17 S1 1_555 1_555
C18 C8 1_555 1_555
H8 C18 1_555 1_555
C19 C4 1_555 1_555
H9 C19 1_555 1_555
C20 C16 1_555 1_555
H10 C20 1_555 1_555
C21 C17 1_555 1_555
H11 C21 1_555 1_555
C22 C20 1_555 1_555
H12 C22 1_555 1_555
C2 C4 1_555 1_555
C5 C13 1_555 1_555
C5 C19 1_555 1_555
C7 C15 1_555 1_555
C8 C13 1_555 1_555
C10 C18 1_555 1_555
C11 C12 1_555 1_555
C14 C17 1_555 1_555
C21 C22 1_555 1_555

#END
