
#######################################################################
#
#                 Cambridge Crystallographic Data Centre
#                                CCDC 
#
#######################################################################
#
# If this CIF has been generated from an entry in the Cambridge 
# Structural Database, then it will include bibliographic, chemical, 
# crystal, experimental, refinement or atomic coordinate data resulting 
# from the CCDC's data processing and validation procedures.
#
#######################################################################

data_NIVLAH
_chemical_name_common            paeoveitol
_chemical_formula_moiety         'C19 H20 O5'
_chemical_name_systematic        
5a-(Hydroxymethyl)-3,8,11-trimethyl-10a,11-dihydro-5aH-[1]benzofuro[3,2-b]chromene-2,7-diol
_symmetry_cell_setting           monoclinic
_symmetry_space_group_name_H-M   'C 2/c'
_symmetry_Int_Tables_number      15
_space_group_name_Hall           '-C 2yn'
loop_
_symmetry_equiv_pos_site_id
_symmetry_equiv_pos_as_xyz
1 x,y,z
2 -x,y,1/2-z
3 1/2+x,1/2+y,z
4 1/2-x,1/2+y,1/2-z
5 -x,-y,-z
6 x,-y,1/2+z
7 1/2-x,1/2-y,-z
8 1/2+x,1/2-y,1/2+z
_cell_length_a                   19.2190(18)
_cell_length_b                   8.9835(8)
_cell_length_c                   18.1799(16)
_cell_angle_alpha                90
_cell_angle_beta                 95.0930(10)
_cell_angle_gamma                90
_cell_volume                     3126.44
_exptl_crystal_colour            violet
_exptl_crystal_description       block
_cell_formula_units_Z            8
loop_
_atom_site_label
_atom_site_type_symbol
_atom_site_fract_x
_atom_site_fract_y
_atom_site_fract_z
O1 O 0.46772(5) 0.34901(11) 0.08038(5)
O2 O 0.50848(5) -0.24552(11) 0.14721(6)
H1 H 0.5491 -0.2638 0.1660
O3 O 0.30236(5) 0.22049(11) 0.09247(5)
O4 O 0.37004(5) 0.59416(12) 0.32742(6)
H2 H 0.3773 0.5484 0.3677
O5 O 0.41107(5) 0.52320(13) -0.04175(6)
H3 H 0.4502 0.5614 -0.0471
C1 C 0.26517(8) 0.37128(18) 0.34853(8)
H4 H 0.2270 0.2988 0.3415
H5 H 0.2463 0.4683 0.3614
H6 H 0.2991 0.3377 0.3885
C2 C 0.30065(7) 0.38512(16) 0.27802(8)
C3 C 0.28242(6) 0.29027(16) 0.21854(7)
H7 H 0.2476 0.2160 0.2218
C4 C 0.31602(6) 0.30648(15) 0.15481(7)
C5 C 0.36758(6) 0.41188(15) 0.14875(7)
C6 C 0.39473(6) 0.39724(15) 0.07400(7)
C7 C 0.47821(6) 0.19975(15) 0.09976(7)
C8 C 0.53085(7) 0.16148(16) 0.15330(8)
H8 H 0.5578 0.2371 0.1788
C9 C 0.54456(7) 0.01134(16) 0.17001(8)
C10 C 0.60299(7) -0.03252(18) 0.22651(9)
H9 H 0.5879 -0.1161 0.2559
H10 H 0.6152 0.0522 0.2591
H11 H 0.6439 -0.0622 0.2014
C11 C 0.50207(7) -0.09528(15) 0.13273(8)
C12 C 0.34462(7) 0.27855(16) 0.03607(7)
H12 H 0.3133 0.3276 -0.0036
C13 C 0.35280(7) 0.49334(15) 0.27116(7)
C14 C 0.38668(7) 0.50746(15) 0.20710(7)
H13 H 0.4219 0.5805 0.2033
C15 C 0.38253(7) 0.14957(15) 0.00273(7)
H14 H 0.4081 0.1911 -0.0382
C16 C 0.33249(7) 0.03102(17) -0.03076(8)
H15 H 0.3590 -0.0463 -0.0540
H16 H 0.2991 0.0768 -0.0680
H17 H 0.3071 -0.0136 0.0082
C17 C 0.43692(6) 0.09329(16) 0.06158(7)
C18 C 0.44869(7) -0.05492(16) 0.07931(8)
H18 H 0.4203 -0.1297 0.0550
C19 C 0.39473(7) 0.54343(16) 0.03228(8)
H19 H 0.3481 0.5904 0.0322
H20 H 0.4294 0.6116 0.0579
loop_
_geom_bond_atom_site_label_1
_geom_bond_atom_site_label_2
_geom_bond_site_symmetry_1
_geom_bond_site_symmetry_2
O1 C6 1_555 1_555
O2 H1 1_555 1_555
O3 C4 1_555 1_555
O4 H2 1_555 1_555
O5 H3 1_555 1_555
C1 H4 1_555 1_555
H5 C1 1_555 1_555
H6 C1 1_555 1_555
C2 C1 1_555 1_555
C3 C2 1_555 1_555
H7 C3 1_555 1_555
C4 C3 1_555 1_555
C5 C4 1_555 1_555
C6 C5 1_555 1_555
C7 O1 1_555 1_555
C8 C7 1_555 1_555
H8 C8 1_555 1_555
C9 C8 1_555 1_555
C10 C9 1_555 1_555
H9 C10 1_555 1_555
H10 C10 1_555 1_555
H11 C10 1_555 1_555
C11 O2 1_555 1_555
C12 O3 1_555 1_555
H12 C12 1_555 1_555
C13 O4 1_555 1_555
C14 C5 1_555 1_555
H13 C14 1_555 1_555
C15 C12 1_555 1_555
H14 C15 1_555 1_555
C16 C15 1_555 1_555
H15 C16 1_555 1_555
H16 C16 1_555 1_555
H17 C16 1_555 1_555
C17 C7 1_555 1_555
C18 C11 1_555 1_555
H18 C18 1_555 1_555
C19 O5 1_555 1_555
H19 C19 1_555 1_555
H20 C19 1_555 1_555
C2 C13 1_555 1_555
C6 C12 1_555 1_555
C6 C19 1_555 1_555
C9 C11 1_555 1_555
C13 C14 1_555 1_555
C15 C17 1_555 1_555
C17 C18 1_555 1_555

#END
