
#######################################################################
#
#                 Cambridge Crystallographic Data Centre
#                                CCDC 
#
#######################################################################
#
# If this CIF has been generated from an entry in the Cambridge 
# Structural Database, then it will include bibliographic, chemical, 
# crystal, experimental, refinement or atomic coordinate data resulting 
# from the CCDC's data processing and validation procedures.
#
#######################################################################

data_NIVNAH
_chemical_formula_moiety         'C56 H101 N11 O14,C4 H8 O2'
_chemical_name_systematic        
't-Butoxycarbonyl-leucyl-\a-aminoisobutyryl-valyl-\b-alanyl-\g-aminobutyryl-leucyl-\a-aminoisobutyryl-valyl-alanyl-leucyl-\a-aminoisobutyric acid methyl ester ethyl acetate solvate'
_symmetry_cell_setting           monoclinic
_symmetry_space_group_name_H-M   'P 21'
_symmetry_Int_Tables_number      4
_space_group_name_Hall           'P 2yb'
loop_
_symmetry_equiv_pos_site_id
_symmetry_equiv_pos_as_xyz
1 x,y,z
2 -x,1/2+y,-z
_cell_length_a                   8.605(3)
_cell_length_b                   22.805(4)
_cell_length_c                   19.014(3)
_cell_angle_alpha                90
_cell_angle_beta                 101.470
_cell_angle_gamma                90
_cell_volume                     3656.73
_exptl_crystal_colour            colorless
_exptl_crystal_description       needles
_chemical_melting_point          105-106deg.C
_cell_formula_units_Z            2
loop_
_atom_site_label
_atom_site_type_symbol
_atom_site_fract_x
_atom_site_fract_y
_atom_site_fract_z
C1 C 0.0221(16) 0.3265(5) 0.0834(6)
C2 C -0.1001(16) 0.2967(6) 0.1197(9)
C3 C 0.1880(14) 0.3180(6) 0.1244(6)
C4 C 0.0012(18) 0.3061(7) 0.0071(6)
O1 O -0.0162(9) 0.3886 0.0746(3)
C5 C -0.0141(3) 0.4237(5) 0.1331(5)
O2 O -0.0052(9) 0.4062(3) 0.1947(3)
N1 N -0.0276(9) 0.4800(4) 0.1132(4)
C6 C -0.0122(11) 0.5252(4) 0.1694(4)
C7 C -0.1399(12) 0.5196(5) 0.2148(5)
O3 O -0.1046(8) 0.5313(3) 0.2781(3)
C8 C -0.0195(16) 0.5857(5) 0.1325(5)
C9 C 0.0667(36) 0.6323(8) 0.1654(15)
C10 C 0.0457(26) 0.6873(8) 0.1218(14)
C11 C 0.1690(19) 0.6385(6) 0.2311(8)
N2 N -0.2822(9) 0.5015(4) 0.1819(3)
C12 C -0.4153(12) 0.4973(6) 0.2220(5)
C13 C -0.3669(12) 0.4576(5) 0.2872(5)
O4 O -0.4225(9) 0.4665(4) 0.3408(3)
C14 C -0.5525(12) 0.4683(7) 0.1716(5)
C15 C -0.4621(15) 0.5581(6) 0.2443(6)
N3 N -0.2813(10) 0.4099(4) 0.2799(4)
C16 C -0.2426(13) 0.3661(5) 0.3362(5)
C17 C -0.0804(13) 0.3743(5) 0.3830(5)
O5 O -0.0556(9) 0.3692(4) 0.4479(3)
C18 C -0.2654(6) 0.3036(5) 0.3061(6)
C19 C -0.4245(18) 0.2960(7) 0.2544(8)
C20 C -0.2562(21) 0.2600(6) 0.3654(8)
N4 N 0.0365(10) 0.3882(4) 0.3473(4)
C21 C 0.2363(14) 0.4649(7) 0.3819(5)
C22 C 0.1778(16) 0.4978(7) 0.4406(6)
O6 O 0.2480(9) 0.4898(4) 0.5037(3)
C23 C 0.1983(14) 0.4019(8) 0.3803(6)
N5 N 0.0568(14) 0.5322(6) 0.4228(5)
C24 C -0.2136(13) 0.4984(5) 0.5001(6)
C25 C -0.1199(3) 0.4856(6) 0.5738(6)
O7 O -0.1252(8) 0.5166(4) 0.6260(4)
C26 C -0.1809(16) 0.5590(6) 0.4732(6)
C27 C -0.0119(17) 0.5706(6) 0.4716(6)
N6 N -0.0227(10) 0.4382(4) 0.5798(4)
C28 C 0.0704(13) 0.4201(5) 0.6498(5)
C29 C 0.1784(13) 0.4667(5) 0.6879(5)
O8 O 0.2020(9) 0.4685(3) 0.7539(3)
C30 C 0.1590(15) 0.3636(5) 0.6383(7)
C31 C 0.0530(20) 0.3097(7) 0.6232(8)
C32 C 0.1414(26) 0.2600(8) 0.5987(12)
C33 C -0.0088(28) 0.2925(9) 0.6900(10)
N7 N 0.2519(9) 0.5029(4) 0.6484(4)
C34 C 0.3584(13) 0.5492(5) 0.6818(5)
C35 C 0.2748(14) 0.5886(5) 0.7290(5)
O9 O 0.3472(9) 0.6115(4) 0.7837(4)
C36 C 0.3984(14) 0.5883(5) 0.6218(5)
C37 C 0.5114(12) 0.5234(6) 0.7241(5)
N8 N 0.1187(10) 0.5993(4) 0.7048(4)
C38 C 0.0304(13) 0.6356(5) 0.7451(5)
C39 C 0.0192(13) 0.6072(6) 0.8166(6)
O10 O 0.0377(10) 0.6346(4) 0.8725(4)
C40 C -0.1355(13) 0.6502(5) 0.6989(6)
C41 C -0.1236(18) 0.6827(7) 0.6321(7)
C42 C -0.2353(15) 0.6839(7) 0.7428(7)
N9 N -0.0180(10) 0.5501(4) 0.8133(4)
C43 C -0.0367(14) 0.5179(6) 0.8783(6)
C44 C 0.1200(15) 0.5108(5) 0.9332(6)
O11 O 0.1180(9) 0.5084(4) 0.9972(3)
C45 C -0.1026(14) 0.4569(6) 0.8561(7)
N10 N 0.2511(9) 0.5024(4) 0.9054(4)
C46 C 0.4024(14) 0.4885(5) 0.9550(5)
C47 C 0.4919(15) 0.5434(5) 0.9828(5)
O12 O 0.6057(9) 0.5387(4) 1.0339(3)
C48 C 0.4997(15) 0.4501(5) 0.9182(6)
C49 C 0.4420(17) 0.3879(5) 0.8985(8)
C50 C 0.5466(19) 0.3589(7) 0.8516(10)
C51 C 0.4289(28) 0.3531(7) 0.9634(12)
N11 N 0.4448(12) 0.5936(4) 0.9525(4)
C52 C 0.5196(17) 0.6497(5) 0.9732(6)
C53 C 0.5208(21) 0.6587(7) 1.0534(8)
O13 O 0.4325(16) 0.6379(6) 1.0861(6)
C54 C 0.6854(19) 0.6507(7) 0.9536(7)
C55 C 0.4164(8) 0.6977(6) 0.9349(7)
O14 O 0.6429(13) 0.6931(4) 1.0845(5)
C56 C 0.6500(24) 0.7072(8) 1.1585(7)
H1 H -0.2037 0.3038 0.0912
H2 H -0.0808 0.2553 0.1233
H3 H -0.0942 0.3128 0.1668
H4 H 0.2628 0.3369 0.1006
H5 H 0.1966 0.3342 0.1717
H6 H 0.2101 0.2767 0.1281
H7 H 0.0764 0.3230 -0.0181
H8 H 0.0106 0.2641 0.0068
H9 H -0.1042 0.3172 -0.0160
H10 H -0.0464 0.4900 0.0665
H11 H 0.0902 0.5212 0.2001
H12 H -0.1282 0.5937 0.1111
H13 H 0.0388 0.5836 0.0944
H14 H -0.0159 0.6410 0.1911
H15 H 0.0835 0.7231 0.1459
H16 H 0.1102 0.6775 0.0877
H17 H -0.0622 0.6924 0.0973
H18 H 0.1877 0.6755 0.2555
H19 H 0.1569 0.6084 0.2650
H20 H 0.2573 0.6292 0.2092
H21 H -0.2999 0.4918 0.1351
H22 H -0.5182 0.4304 0.1589
H23 H -0.6413 0.4639 0.1947
H24 H -0.5833 0.4916 0.1290
H25 H -0.4933 0.5828 0.2030
H26 H -0.5476 0.5553 0.2697
H27 H -0.3709 0.5747 0.2752
H28 H -0.2448 0.4049 0.2391
H29 H -0.3176 0.3707 0.3670
H30 H -0.1809 0.2691 0.2810
H31 H -0.4325 0.2567 0.2357
H32 H -0.5100 0.3032 0.2788
H33 H -0.4304 0.3234 0.2155
H34 H -0.1565 0.2651 0.3979
H35 H -0.3412 0.2666 0.3904
H36 H -0.2630 0.2208 0.3467
H37 H 0.0129 0.3874 0.2990
H38 H 0.3487 0.4702 0.3872
H39 H 0.1861 0.4809 0.3364
H40 H 0.2702 0.3808 0.3569
H41 H 0.2159 0.3890 0.4293
H42 H 0.0085 0.5335 0.3763
H43 H -0.3244 0.4936 0.5003
H44 H -0.1852 0.4707 0.4669
H45 H -0.2181 0.5866 0.5042
H46 H -0.2415 0.5648 0.4255
H47 H -0.0011 0.6109 0.4584
H48 H 0.0486 0.5653 0.5193
H49 H -0.0134 0.4173 0.5407
H50 H -0.0037 0.4102 0.6796
H51 H 0.2393 0.3562 0.6802
H52 H 0.2103 0.3698 0.5985
H53 H -0.0351 0.3200 0.5858
H54 H 0.1797 0.2727 0.5571
H55 H 0.2294 0.2489 0.6357
H56 H 0.0721 0.2270 0.5864
H57 H -0.0650 0.3249 0.7054
H58 H -0.0793 0.2598 0.6785
H59 H 0.0780 0.2817 0.7279
H60 H 0.2348 0.4985 0.6004
H61 H 0.3016 0.6050 0.5956
H62 H 0.4699 0.6192 0.6415
H63 H 0.4463 0.5647 0.5902
H64 H 0.4870 0.4997 0.7621
H65 H 0.5597 0.4996 0.6928
H66 H 0.5833 0.5541 0.7441
H67 H 0.0675 0.5821 0.6642
H68 H 0.0875 0.6718 0.7550
H69 H -0.1874 0.6136 0.6847
H70 H -0.2273 0.6900 0.6040
H71 H -0.0718 0.7194 0.6462
H72 H -0.0624 0.6607 0.6043
H73 H -0.3390 0.6917 0.7148
H74 H -0.2449 0.6613 0.7843
H75 H -0.1829 0.7203 0.7577
H76 H -0.0263 0.5312 0.7711
H77 H -0.1126 0.5385 0.8999
H78 H -0.2008 0.4602 0.8221
H79 H -0.0267 0.4363 0.8347
H80 H -0.1199 0.4359 0.8976
H81 H 0.2477 0.5046 0.8578
H82 H 0.3771 0.4579 0.9953
H83 H 0.6001 0.4456 0.9504
H84 H 0.5186 0.4700 0.8763
H85 H 0.3346 0.3909 0.8725
H86 H 0.5432 0.3808 0.8082
H87 H 0.6541 0.3568 0.8777
H88 H 0.5071 0.3200 0.8400
H89 H 0.3645 0.3722 0.9924
H90 H 0.3894 0.3142 0.9517
H91 H 0.5364 0.3510 0.9895
H92 H 0.3597 0.5934 0.9162
H93 H 0.7494 0.6202 0.9793
H94 H 0.6742 0.6443 0.9029
H95 H 0.7353 0.6880 0.9660
H96 H 0.4109 0.6942 0.8841
H97 H 0.3123 0.6931 0.9451
H98 H 0.4576 0.7355 0.9509
H99 H 0.7386 0.7319 1.1777
H100 H 0.5532 0.7267 1.1624
H101 H 0.6585 0.6711 1.1850
O15 O 0.5739(33) 0.3650(14) 0.5625(15)
O16 O 0.5836(23) 0.2565(12) 0.5653(12)
C57 C 0.4533(31) 0.2828(13) 0.4724(14)
C58 C 0.5509(53) 0.3113(26) 0.5351(25)
C59 C 0.5521(39) 0.1953(18) 0.5329(18)
C60 C 0.6026(35) 0.1548(15) 0.5816(16)
loop_
_geom_bond_atom_site_label_1
_geom_bond_atom_site_label_2
_geom_bond_site_symmetry_1
_geom_bond_site_symmetry_2
C1 C2 1_555 1_555
C2 H1 1_555 1_555
C3 C1 1_555 1_555
C4 C1 1_555 1_555
O1 C1 1_555 1_555
C5 O1 1_555 1_555
O2 C5 1_555 1_555
N1 C5 1_555 1_555
C6 N1 1_555 1_555
C7 C6 1_555 1_555
O3 C7 1_555 1_555
C8 C6 1_555 1_555
C9 C8 1_555 1_555
C10 C9 1_555 1_555
C11 C9 1_555 1_555
N2 C7 1_555 1_555
C12 N2 1_555 1_555
C13 C12 1_555 1_555
O4 C13 1_555 1_555
C14 C12 1_555 1_555
C15 C12 1_555 1_555
N3 C13 1_555 1_555
C16 N3 1_555 1_555
C17 C16 1_555 1_555
O5 C17 1_555 1_555
C18 C16 1_555 1_555
C19 C18 1_555 1_555
C20 C18 1_555 1_555
N4 C17 1_555 1_555
C21 C22 1_555 1_555
C22 O6 1_555 1_555
C23 N4 1_555 1_555
N5 C22 1_555 1_555
C24 C25 1_555 1_555
C25 O7 1_555 1_555
C26 C24 1_555 1_555
C27 N5 1_555 1_555
N6 C25 1_555 1_555
C28 N6 1_555 1_555
C29 C28 1_555 1_555
O8 C29 1_555 1_555
C30 C28 1_555 1_555
C31 C30 1_555 1_555
C32 C31 1_555 1_555
C33 C31 1_555 1_555
N7 C29 1_555 1_555
C34 N7 1_555 1_555
C35 C34 1_555 1_555
O9 C35 1_555 1_555
C36 C34 1_555 1_555
C37 C34 1_555 1_555
N8 C35 1_555 1_555
C38 N8 1_555 1_555
C39 C38 1_555 1_555
O10 C39 1_555 1_555
C40 C38 1_555 1_555
C41 C40 1_555 1_555
C42 C40 1_555 1_555
N9 C39 1_555 1_555
C43 N9 1_555 1_555
C44 C43 1_555 1_555
O11 C44 1_555 1_555
C45 C43 1_555 1_555
N10 C44 1_555 1_555
C46 N10 1_555 1_555
C47 C46 1_555 1_555
O12 C47 1_555 1_555
C48 C46 1_555 1_555
C49 C48 1_555 1_555
C50 C49 1_555 1_555
C51 C49 1_555 1_555
N11 C47 1_555 1_555
C52 N11 1_555 1_555
C53 C52 1_555 1_555
O13 C53 1_555 1_555
C54 C52 1_555 1_555
C55 C52 1_555 1_555
O14 C53 1_555 1_555
C56 O14 1_555 1_555
O15 C58 1_555 1_555
O16 C58 1_555 1_555
C57 C58 1_555 1_555
C59 O16 1_555 1_555
C60 C59 1_555 1_555
H2 C2 1_555 1_555
H3 C2 1_555 1_555
H4 C3 1_555 1_555
H5 C3 1_555 1_555
H6 C3 1_555 1_555
H7 C4 1_555 1_555
H8 C4 1_555 1_555
H9 C4 1_555 1_555
H10 N1 1_555 1_555
H11 C6 1_555 1_555
H12 C8 1_555 1_555
H13 C8 1_555 1_555
H14 C9 1_555 1_555
H15 C10 1_555 1_555
H16 C10 1_555 1_555
H17 C10 1_555 1_555
H18 C11 1_555 1_555
H19 C11 1_555 1_555
H20 C11 1_555 1_555
H21 N2 1_555 1_555
H22 C14 1_555 1_555
H23 C14 1_555 1_555
H24 C14 1_555 1_555
H25 C15 1_555 1_555
H26 C15 1_555 1_555
H27 C15 1_555 1_555
H28 N3 1_555 1_555
H29 C16 1_555 1_555
H30 C18 1_555 1_555
H31 C19 1_555 1_555
H32 C19 1_555 1_555
H33 C19 1_555 1_555
H34 C20 1_555 1_555
H35 C20 1_555 1_555
H36 C20 1_555 1_555
H37 N4 1_555 1_555
H38 C21 1_555 1_555
H39 C21 1_555 1_555
H40 C23 1_555 1_555
H41 C23 1_555 1_555
H42 N5 1_555 1_555
H43 C24 1_555 1_555
H44 C24 1_555 1_555
H45 C26 1_555 1_555
H46 C26 1_555 1_555
H47 C27 1_555 1_555
H48 C27 1_555 1_555
H49 N6 1_555 1_555
H50 C28 1_555 1_555
H51 C30 1_555 1_555
H52 C30 1_555 1_555
H53 C31 1_555 1_555
H54 C32 1_555 1_555
H55 C32 1_555 1_555
H56 C32 1_555 1_555
H57 C33 1_555 1_555
H58 C33 1_555 1_555
H59 C33 1_555 1_555
H60 N7 1_555 1_555
H61 C36 1_555 1_555
H62 C36 1_555 1_555
H63 C36 1_555 1_555
H64 C37 1_555 1_555
H65 C37 1_555 1_555
H66 C37 1_555 1_555
H67 N8 1_555 1_555
H68 C38 1_555 1_555
H69 C40 1_555 1_555
H70 C41 1_555 1_555
H71 C41 1_555 1_555
H72 C41 1_555 1_555
H73 C42 1_555 1_555
H74 C42 1_555 1_555
H75 C42 1_555 1_555
H76 N9 1_555 1_555
H77 C43 1_555 1_555
H78 C45 1_555 1_555
H79 C45 1_555 1_555
H80 C45 1_555 1_555
H81 N10 1_555 1_555
H82 C46 1_555 1_555
H83 C48 1_555 1_555
H84 C48 1_555 1_555
H85 C49 1_555 1_555
H86 C50 1_555 1_555
H87 C50 1_555 1_555
H88 C50 1_555 1_555
H89 C51 1_555 1_555
H90 C51 1_555 1_555
H91 C51 1_555 1_555
H92 N11 1_555 1_555
H93 C54 1_555 1_555
H94 C54 1_555 1_555
H95 C54 1_555 1_555
H96 C55 1_555 1_555
H97 C55 1_555 1_555
H98 C55 1_555 1_555
H99 C56 1_555 1_555
H100 C56 1_555 1_555
H101 C56 1_555 1_555
C21 C23 1_555 1_555
C26 C27 1_555 1_555

#END
