
#######################################################################
#
#                 Cambridge Crystallographic Data Centre
#                                CCDC 
#
#######################################################################
#
# If this CIF has been generated from an entry in the Cambridge 
# Structural Database, then it will include bibliographic, chemical, 
# crystal, experimental, refinement or atomic coordinate data resulting 
# from the CCDC's data processing and validation procedures.
#
#######################################################################

data_NIVSOC
_chemical_formula_moiety         'C6 H9 Cl3 O3'
_chemical_name_systematic        2,4,6-tris(chloromethyl)-1,3,5-trioxane
_symmetry_cell_setting           monoclinic
_symmetry_space_group_name_H-M   'P 21/n'
_symmetry_Int_Tables_number      14
_space_group_name_Hall           '-P 2yn'
loop_
_symmetry_equiv_pos_site_id
_symmetry_equiv_pos_as_xyz
1 x,y,z
2 1/2-x,1/2+y,1/2-z
3 -x,-y,-z
4 1/2+x,1/2-y,1/2+z
_cell_length_a                   8.2352(16)
_cell_length_b                   8.6735(17)
_cell_length_c                   13.354(3)
_cell_angle_alpha                90
_cell_angle_beta                 90.23(3)
_cell_angle_gamma                90
_cell_volume                     953.842
_exptl_crystal_colour            colorless
_exptl_crystal_description       block
_cell_formula_units_Z            4
loop_
_atom_site_label
_atom_site_type_symbol
_atom_site_fract_x
_atom_site_fract_y
_atom_site_fract_z
Cl1 Cl 0.12830(5) 0.79424(5) 0.49114(3)
Cl2 Cl 0.08799(6) 0.77112(6) 1.00209(3)
Cl3 Cl 0.77170(6) 1.02367(7) 0.77393(4)
O1 O 0.34199(13) 0.93198(13) 0.65771(8)
O2 O 0.15955(13) 0.86655(14) 0.78273(8)
O3 O 0.41491(13) 0.95918(13) 0.82504(8)
C1 C 0.21690(19) 0.82913(19) 0.68546(12)
H1 H 0.2566 0.7202 0.6834
C2 C 0.0744(2) 0.8502(2) 0.61532(12)
H2 H 0.0402 0.9596 0.6155
H3 H -0.0180 0.7869 0.6386
C3 C 0.28962(19) 0.85645(18) 0.85264(12)
H4 H 0.3318 0.7485 0.8560
C4 C 0.2301(2) 0.9072(2) 0.95406(12)
H5 H 0.1778 1.0096 0.9483
H6 H 0.3233 0.9165 1.0008
C5 C 0.47141(19) 0.92133(19) 0.72770(12)
H7 H 0.5183 0.8150 0.7273
C6 C 0.5972(2) 1.0368(2) 0.69516(13)
H8 H 0.5514 1.1422 0.6988
H9 H 0.6284 1.0165 0.6249
loop_
_geom_bond_atom_site_label_1
_geom_bond_atom_site_label_2
_geom_bond_site_symmetry_1
_geom_bond_site_symmetry_2
Cl1 C2 1_555 1_555
Cl2 C4 1_555 1_555
Cl3 C6 1_555 1_555
O1 C1 1_555 1_555
O2 C1 1_555 1_555
O3 C3 1_555 1_555
C1 H1 1_555 1_555
C2 C1 1_555 1_555
H2 C2 1_555 1_555
H3 C2 1_555 1_555
C3 O2 1_555 1_555
H4 C3 1_555 1_555
C4 C3 1_555 1_555
H5 C4 1_555 1_555
H6 C4 1_555 1_555
C5 O1 1_555 1_555
H7 C5 1_555 1_555
C6 C5 1_555 1_555
H8 C6 1_555 1_555
H9 C6 1_555 1_555
O3 C5 1_555 1_555

#END
