
#######################################################################
#
#                 Cambridge Crystallographic Data Centre
#                                CCDC 
#
#######################################################################
#
# If this CIF has been generated from an entry in the Cambridge 
# Structural Database, then it will include bibliographic, chemical, 
# crystal, experimental, refinement or atomic coordinate data resulting 
# from the CCDC's data processing and validation procedures.
#
#######################################################################

data_NIVTOD
_chemical_formula_moiety         'C23 H16 S1'
_chemical_name_systematic        'Methyl 2-(pyren-2-yl)phenyl sulfide'
_symmetry_cell_setting           monoclinic
_symmetry_space_group_name_H-M   'P 21/n'
_symmetry_Int_Tables_number      14
_space_group_name_Hall           '-P 2yn'
loop_
_symmetry_equiv_pos_site_id
_symmetry_equiv_pos_as_xyz
1 x,y,z
2 1/2-x,1/2+y,1/2-z
3 -x,-y,-z
4 1/2+x,1/2-y,1/2+z
_cell_length_a                   10.9159(2)
_cell_length_b                   13.4792(2)
_cell_length_c                   11.7522(2)
_cell_angle_alpha                90
_cell_angle_beta                 105.1540(10)
_cell_angle_gamma                90
_cell_volume                     1669.06
_exptl_crystal_colour            colorless
_exptl_crystal_description       prism
_cell_formula_units_Z            4
_exptl_crystal_recrystallization_method hexane
loop_
_atom_site_label
_atom_site_type_symbol
_atom_site_fract_x
_atom_site_fract_y
_atom_site_fract_z
H1 H 0.7420 0.6398 0.1078
H2 H 0.6084 0.6398 0.0167
H3 H 0.7242 0.5891 -0.0155
H4 H 0.6296 0.2042 -0.0046
H5 H 0.1199 -0.0443 0.0234
H6 H 0.0467 -0.0321 0.1905
H7 H 0.2720 0.0098 -0.0927
H8 H 0.4464 0.0955 -0.1013
H9 H 0.1431 0.0723 0.3417
H10 H 0.3142 0.1937 0.4292
H11 H 0.4888 0.2790 0.4198
H12 H 0.6498 0.3221 0.3122
H13 H 0.8888 0.1938 0.1909
H14 H 1.0811 0.2653 0.1945
H15 H 1.0935 0.4329 0.1626
H16 H 0.9139 0.5298 0.1271
C1 C 0.59642(14) 0.21095(11) 0.06029(13)
C2 C 0.65949(13) 0.26962(11) 0.15392(13)
C3 C 0.60883(14) 0.28102(11) 0.25041(13)
C4 C 0.44860(17) 0.23870(12) 0.35689(16)
C5 C 0.34447(17) 0.18740(14) 0.36254(16)
C6 C 0.17442(17) 0.06772(15) 0.27548(19)
C7 C 0.1162(2) 0.00548(15) 0.1846(2)
C8 C 0.16030(18) -0.00190(14) 0.0840(2)
C9 C 0.31300(15) 0.04891(12) -0.02889(15)
C10 C 0.41712(14) 0.10020(12) -0.03397(13)
C11 C 0.48379(13) 0.16147(10) 0.06081(12)
C12 C 0.43547(12) 0.17102(10) 0.16059(12)
C13 C 0.32567(13) 0.11677(10) 0.16747(13)
C14 C 0.26392(14) 0.05339(12) 0.07312(15)
C15 C 0.49839(14) 0.23235(11) 0.25625(13)
C16 C 0.27959(15) 0.12399(12) 0.26969(15)
C17 C 0.78282(13) 0.31831(11) 0.15571(12)
C18 C 0.89310(15) 0.26154(12) 0.17763(15)
C19 C 1.00828(15) 0.30419(14) 0.18001(16)
C20 C 1.01562(15) 0.40410(14) 0.16099(16)
C21 C 0.90810(16) 0.46199(13) 0.13950(15)
C22 C 0.79072(13) 0.41980(11) 0.13624(13)
C23 C 0.68480(19) 0.60239(13) 0.0470(2)
S1 S 0.64722(4) 0.48784(3) 0.10648(5)
loop_
_geom_bond_atom_site_label_1
_geom_bond_atom_site_label_2
_geom_bond_site_symmetry_1
_geom_bond_site_symmetry_2
H1 C23 1_555 1_555
H2 C23 1_555 1_555
H3 C23 1_555 1_555
H4 C1 1_555 1_555
H5 C8 1_555 1_555
H6 C7 1_555 1_555
H7 C9 1_555 1_555
H8 C10 1_555 1_555
H9 C6 1_555 1_555
H10 C5 1_555 1_555
H11 C4 1_555 1_555
H12 C3 1_555 1_555
H13 C18 1_555 1_555
H14 C19 1_555 1_555
H15 C20 1_555 1_555
H16 C21 1_555 1_555
C1 C2 1_555 1_555
C2 C3 1_555 1_555
C3 C15 1_555 1_555
C4 C5 1_555 1_555
C5 C16 1_555 1_555
C6 C7 1_555 1_555
C7 C8 1_555 1_555
C8 C14 1_555 1_555
C9 C10 1_555 1_555
C10 C11 1_555 1_555
C11 C1 1_555 1_555
C12 C11 1_555 1_555
C13 C12 1_555 1_555
C14 C9 1_555 1_555
C15 C4 1_555 1_555
C16 C6 1_555 1_555
C17 C2 1_555 1_555
C18 C17 1_555 1_555
C19 C18 1_555 1_555
C20 C19 1_555 1_555
C21 C20 1_555 1_555
C22 C17 1_555 1_555
C23 S1 1_555 1_555
S1 C22 1_555 1_555
C12 C15 1_555 1_555
C13 C14 1_555 1_555
C13 C16 1_555 1_555
C21 C22 1_555 1_555

#END
