
#######################################################################
#
#                 Cambridge Crystallographic Data Centre
#                                CCDC 
#
#######################################################################
#
# If this CIF has been generated from an entry in the Cambridge 
# Structural Database, then it will include bibliographic, chemical, 
# crystal, experimental, refinement or atomic coordinate data resulting 
# from the CCDC's data processing and validation procedures.
#
#######################################################################

data_NIVTUJ
_chemical_formula_moiety         'C22 H12 S1'
_chemical_name_systematic        Benzo[b]pyreno[2,1-d]thiophene
_symmetry_cell_setting           monoclinic
_symmetry_space_group_name_H-M   'P 21/c'
_symmetry_Int_Tables_number      14
_space_group_name_Hall           '-P 2ybc'
loop_
_symmetry_equiv_pos_site_id
_symmetry_equiv_pos_as_xyz
1 x,y,z
2 -x,1/2+y,1/2-z
3 -x,-y,-z
4 x,1/2-y,1/2+z
_cell_length_a                   22.853(3)
_cell_length_b                   3.9578(5)
_cell_length_c                   16.3958(19)
_cell_angle_alpha                90
_cell_angle_beta                 105.654(4)
_cell_angle_gamma                90
_cell_volume                     1427.96
_cell_formula_units_Z            4
_exptl_crystal_recrystallization_method hexane
loop_
_atom_site_label
_atom_site_type_symbol
_atom_site_fract_x
_atom_site_fract_y
_atom_site_fract_z
H1 H 0.0377 1.1495 -0.2262
H2 H 0.1338 1.3372 -0.2163
H3 H 0.2420 1.4098 -0.1318
H4 H 0.3160 1.3437 -0.0103
H5 H 0.3235 0.6241 0.3689
H6 H 0.4168 0.6263 0.4674
H7 H 0.5013 0.8424 0.4340
H8 H 0.4934 1.0690 0.3017
H9 H 0.0142 0.8939 -0.1130
H10 H 0.0472 0.6893 0.0381
H11 H 0.1206 0.6159 0.1601
H12 H 0.2294 0.6707 0.2435
C1 C 0.31034(10) 1.0377(6) 0.13408(13)
C2 C 0.29696(11) 0.8796(6) 0.20341(14)
C3 C 0.23818(11) 0.7757(7) 0.19743(15)
C4 C 0.13030(12) 0.7187(7) 0.11438(17)
C5 C 0.08636(12) 0.7634(8) 0.04136(17)
C6 C 0.05369(12) 0.9673(8) -0.10764(18)
C7 C 0.06780(14) 1.1215(8) -0.17573(18)
C8 C 0.12548(14) 1.2333(8) -0.16975(17)
C9 C 0.23271(12) 1.3049(7) -0.08604(15)
C10 C 0.27717(11) 1.2636(7) -0.01379(14)
C11 C 0.26532(11) 1.0979(6) 0.05758(14)
C12 C 0.20523(10) 0.9879(6) 0.05236(14)
C13 C 0.15837(11) 1.0340(7) -0.02426(15)
C14 C 0.17211(12) 1.1943(7) -0.09510(15)
C15 C 0.19177(11) 0.8266(6) 0.12300(14)
C16 C 0.09810(11) 0.9204(7) -0.03076(16)
C17 C 0.35116(11) 0.8497(6) 0.27457(14)
C18 C 0.35712(12) 0.7143(7) 0.35501(15)
C19 C 0.41297(13) 0.7148(8) 0.41372(16)
C20 C 0.46387(13) 0.8462(8) 0.39370(16)
C21 C 0.45936(11) 0.9812(8) 0.31516(15)
C22 C 0.40296(11) 0.9838(7) 0.25629(14)
S1 S 0.38684(3) 1.14740(18) 0.15302(4)
loop_
_geom_bond_atom_site_label_1
_geom_bond_atom_site_label_2
_geom_bond_site_symmetry_1
_geom_bond_site_symmetry_2
H1 C7 1_555 1_555
H2 C8 1_555 1_555
H3 C9 1_555 1_555
H4 C10 1_555 1_555
H5 C18 1_555 1_555
H6 C19 1_555 1_555
H7 C20 1_555 1_555
H8 C21 1_555 1_555
H9 C6 1_555 1_555
H10 C5 1_555 1_555
H11 C4 1_555 1_555
H12 C3 1_555 1_555
C1 C2 1_555 1_555
C2 C3 1_555 1_555
C3 C15 1_555 1_555
C4 C5 1_555 1_555
C5 C16 1_555 1_555
C6 C7 1_555 1_555
C7 C8 1_555 1_555
C8 C14 1_555 1_555
C9 C10 1_555 1_555
C10 C11 1_555 1_555
C11 C1 1_555 1_555
C12 C11 1_555 1_555
C13 C12 1_555 1_555
C14 C9 1_555 1_555
C15 C4 1_555 1_555
C16 C6 1_555 1_555
C17 C2 1_555 1_555
C18 C17 1_555 1_555
C19 C18 1_555 1_555
C20 C19 1_555 1_555
C21 C20 1_555 1_555
C22 C17 1_555 1_555
S1 C1 1_555 1_555
C12 C15 1_555 1_555
C13 C14 1_555 1_555
C13 C16 1_555 1_555
C21 C22 1_555 1_555
C22 S1 1_555 1_555

#END
