
#######################################################################
#
#                 Cambridge Crystallographic Data Centre
#                                CCDC 
#
#######################################################################
#
# If this CIF has been generated from an entry in the Cambridge 
# Structural Database, then it will include bibliographic, chemical, 
# crystal, experimental, refinement or atomic coordinate data resulting 
# from the CCDC's data processing and validation procedures.
#
#######################################################################

data_NIVVEV
_chemical_formula_moiety         'C18 H13 F1 N2 O1'
_chemical_name_systematic        
4-(3-Fluorophenyl)-1-(quinolin-8-yl)azetidin-2-one
_symmetry_cell_setting           monoclinic
_symmetry_space_group_name_H-M   'P 21/c'
_symmetry_Int_Tables_number      14
_space_group_name_Hall           '-P 2ybc'
loop_
_symmetry_equiv_pos_site_id
_symmetry_equiv_pos_as_xyz
1 x,y,z
2 -x,1/2+y,1/2-z
3 -x,-y,-z
4 x,1/2-y,1/2+z
_cell_length_a                   7.8685(7)
_cell_length_b                   16.8026(14)
_cell_length_c                   10.9944(9)
_cell_angle_alpha                90
_cell_angle_beta                 106.8430(10)
_cell_angle_gamma                90
_cell_volume                     1391.23
_exptl_crystal_colour            brown
_exptl_crystal_description       prism
_cell_formula_units_Z            4
loop_
_atom_site_label
_atom_site_type_symbol
_atom_site_fract_x
_atom_site_fract_y
_atom_site_fract_z
O1 O -0.14611(17) 0.58052(8) 0.05334(12)
N1 N 0.02013(18) 0.60994(8) 0.26453(13)
C1 C 0.4368(3) 0.84431(12) 0.45319(19)
H1 H 0.5363 0.8785 0.4834
C2 C 0.4463(2) 0.77702(11) 0.3841(2)
C3 C 0.3051(2) 0.72537(10) 0.33682(19)
H2 H 0.3166 0.6804 0.2874
C4 C 0.1472(2) 0.74100(10) 0.36360(15)
C5 C -0.0126(2) 0.68839(9) 0.31614(15)
H3 H -0.0794 0.6827 0.3804
C6 C 0.1231(2) 0.54281(9) 0.31607(15)
C7 C 0.1888(2) 0.53262(9) 0.45033(15)
C8 C 0.2891(2) 0.46305(9) 0.49813(16)
C9 C 0.3488(2) 0.45378(10) 0.63208(17)
H4 H 0.4161 0.4083 0.6685
C10 C 0.3092(2) 0.51041(11) 0.70831(17)
H5 H 0.3481 0.5049 0.7981
C11 C 0.3223(2) 0.40604(10) 0.41319(18)
H6 H 0.3899 0.3598 0.4452
C12 C 0.2568(2) 0.41766(10) 0.28456(18)
H7 H 0.2794 0.3791 0.2280
C13 C 0.1565(2) 0.48592(10) 0.23500(16)
H8 H 0.1117 0.4929 0.1456
N2 N 0.15024(19) 0.58926(8) 0.52764(13)
C14 C 0.2090(2) 0.57753(10) 0.65133(16)
H9 H 0.1824 0.6166 0.7056
C15 C -0.0972(2) 0.62281(10) 0.14636(15)
C16 C -0.1389(2) 0.70677(10) 0.18145(16)
H10 H -0.2644 0.7152 0.1790
H11 H -0.0963 0.7494 0.1355
C17 C 0.2757(3) 0.86042(13) 0.47716(18)
H12 H 0.2638 0.9068 0.5234
C18 C 0.1326(3) 0.80904(11) 0.43382(17)
H13 H 0.0240 0.8201 0.4519
F1 F 0.60274(16) 0.75979(8) 0.36316(15)
loop_
_geom_bond_atom_site_label_1
_geom_bond_atom_site_label_2
_geom_bond_site_symmetry_1
_geom_bond_site_symmetry_2
O1 C15 1_555 1_555
N1 C5 1_555 1_555
C1 H1 1_555 1_555
C2 C1 1_555 1_555
C3 C2 1_555 1_555
H2 C3 1_555 1_555
C4 C3 1_555 1_555
C5 C4 1_555 1_555
H3 C5 1_555 1_555
C6 N1 1_555 1_555
C7 C6 1_555 1_555
C8 C7 1_555 1_555
C9 C8 1_555 1_555
H4 C9 1_555 1_555
C10 C9 1_555 1_555
H5 C10 1_555 1_555
C11 C8 1_555 1_555
H6 C11 1_555 1_555
C12 C11 1_555 1_555
H7 C12 1_555 1_555
C13 C6 1_555 1_555
H8 C13 1_555 1_555
N2 C7 1_555 1_555
C14 C10 1_555 1_555
H9 C14 1_555 1_555
C15 N1 1_555 1_555
C16 C5 1_555 1_555
H10 C16 1_555 1_555
H11 C16 1_555 1_555
C17 C1 1_555 1_555
H12 C17 1_555 1_555
C18 C4 1_555 1_555
H13 C18 1_555 1_555
F1 C2 1_555 1_555
C12 C13 1_555 1_555
N2 C14 1_555 1_555
C15 C16 1_555 1_555
C17 C18 1_555 1_555

#END
