
#######################################################################
#
#                 Cambridge Crystallographic Data Centre
#                                CCDC 
#
#######################################################################
#
# If this CIF has been generated from an entry in the Cambridge 
# Structural Database, then it will include bibliographic, chemical, 
# crystal, experimental, refinement or atomic coordinate data resulting 
# from the CCDC's data processing and validation procedures.
#
#######################################################################

data_NIWCIF
_chemical_formula_moiety         'C13 H9 N1,C12 H9 N1 S1'
_chemical_name_systematic        'Acridine phenothiazine'
_symmetry_cell_setting           monoclinic
_symmetry_space_group_name_H-M   'P 21/c'
_symmetry_Int_Tables_number      14
_space_group_name_Hall           '-P 2ybc'
loop_
_symmetry_equiv_pos_site_id
_symmetry_equiv_pos_as_xyz
1 x,y,z
2 -x,1/2+y,1/2-z
3 -x,-y,-z
4 x,1/2-y,1/2+z
_cell_length_a                   13.121(2)
_cell_length_b                   9.126(3)
_cell_length_c                   17.318(1)
_cell_angle_alpha                90
_cell_angle_beta                 110.83(1)
_cell_angle_gamma                90
_cell_volume                     1938.16
_exptl_crystal_colour            red
_exptl_crystal_description       prismatic
_chemical_melting_point          134deg.C
_cell_formula_units_Z            4
loop_
_atom_site_label
_atom_site_type_symbol
_atom_site_fract_x
_atom_site_fract_y
_atom_site_fract_z
S1 S -0.00194(5) 0.06982(8) 0.77671(5)
N2 N 0.1602(2) -0.1306(2) 0.8974(1)
C14 C 0.0564(2) -0.1306(3) 0.9035(1)
C15 C 0.0370(3) -0.2097(4) 0.9650(2)
C16 C -0.0660(3) -0.2068(4) 0.9712(2)
C17 C -0.1492(3) -0.1289(5) 0.9157(3)
C18 C -0.1306(2) -0.0508(4) 0.8548(2)
C19 C -0.0279(2) -0.0484(3) 0.8489(2)
C20 C 0.1027(2) -0.0297(3) 0.7587(1)
C21 C 0.1189(3) -0.0167(4) 0.6841(2)
C22 C 0.2062(3) -0.0855(4) 0.6722(2)
C23 C 0.2770(3) -0.1670(3) 0.7340(2)
C24 C 0.2614(2) -0.1833(3) 0.8083(2)
C25 C 0.1737(2) -0.1152(2) 0.8217(1)
H10 H 0.0982 -0.2679 1.0051
H11 H -0.0791 -0.2661 1.0159
H12 H -0.2218 -0.1276 0.9214
H13 H -0.1920 0.0036 0.8131
H14 H 0.0696 0.0475 0.6385
H15 H 0.2174 -0.0746 0.6197
H16 H 0.3383 -0.2166 0.7247
H17 H 0.3136 -0.2448 0.8521
H18 H 0.209(3) -0.192(4) 0.932(2)
N1 N 0.3302(2) 0.6556(2) 1.0107(1)
C1 C 0.4115(2) 0.7026(2) 1.0788(1)
C2 C 0.4179(2) 0.8547(3) 1.0986(2)
C3 C 0.4993(3) 0.9061(3) 1.1662(2)
C4 C 0.5781(3) 0.8113(4) 1.2174(2)
C5 C 0.5753(2) 0.6674(4) 1.2017(2)
C6 C 0.4921(2) 0.6067(3) 1.1310(1)
C7 C 0.4853(2) 0.4598(3) 1.1111(2)
C8 C 0.4031(2) 0.4084(3) 1.0405(1)
C9 C 0.3934(3) 0.2595(3) 1.0146(2)
C10 C 0.3115(4) 0.2171(4) 0.9459(3)
C11 C 0.2348(3) 0.3200(5) 0.8980(2)
C12 C 0.2405(2) 0.4630(4) 0.9199(2)
C13 C 0.3254(2) 0.5130(3) 0.9919(1)
H1 H 0.3627 0.9241 1.0656
H2 H 0.5054 1.0120 1.1789
H3 H 0.6381 0.8508 1.2668
H4 H 0.6310 0.6032 1.2401
H5 H 0.5384 0.3902 1.1474
H6 H 0.4497 0.1865 1.0486
H7 H 0.3028 0.1141 0.9268
H8 H 0.1758 0.2850 0.8487
H9 H 0.1829 0.5329 0.8849
loop_
_geom_bond_atom_site_label_1
_geom_bond_atom_site_label_2
_geom_bond_site_symmetry_1
_geom_bond_site_symmetry_2
S1 C19 1_555 1_555
N1 C1 1_555 1_555
N2 C14 1_555 1_555
C1 C2 1_555 1_555
C2 C3 1_555 1_555
C3 C4 1_555 1_555
C4 C5 1_555 1_555
C5 C6 1_555 1_555
C6 C1 1_555 1_555
C7 C6 1_555 1_555
C8 C7 1_555 1_555
C9 C8 1_555 1_555
C10 C9 1_555 1_555
C11 C10 1_555 1_555
C12 C11 1_555 1_555
C13 N1 1_555 1_555
C14 C15 1_555 1_555
C15 C16 1_555 1_555
C16 C17 1_555 1_555
C17 C18 1_555 1_555
C18 C19 1_555 1_555
C19 C14 1_555 1_555
C20 S1 1_555 1_555
C21 C20 1_555 1_555
C22 C21 1_555 1_555
C23 C22 1_555 1_555
C24 C23 1_555 1_555
C25 N2 1_555 1_555
H1 C2 1_555 1_555
H2 C3 1_555 1_555
H3 C4 1_555 1_555
H4 C5 1_555 1_555
H5 C7 1_555 1_555
H6 C9 1_555 1_555
H7 C10 1_555 1_555
H8 C11 1_555 1_555
H9 C12 1_555 1_555
H10 C15 1_555 1_555
H11 C16 1_555 1_555
H12 C17 1_555 1_555
H13 C18 1_555 1_555
H14 C21 1_555 1_555
H15 C22 1_555 1_555
H16 C23 1_555 1_555
H17 C24 1_555 1_555
H18 N2 1_555 1_555
C8 C13 1_555 1_555
C12 C13 1_555 1_555
C20 C25 1_555 1_555
C24 C25 1_555 1_555

#END
