
#######################################################################
#
#                 Cambridge Crystallographic Data Centre
#                                CCDC 
#
#######################################################################
#
# If this CIF has been generated from an entry in the Cambridge 
# Structural Database, then it will include bibliographic, chemical, 
# crystal, experimental, refinement or atomic coordinate data resulting 
# from the CCDC's data processing and validation procedures.
#
#######################################################################

data_NIWCOL
_chemical_formula_moiety         'C25 H16 N2 S1'
_chemical_name_systematic        N-(Acridin-9-yl)phenothiazine
_symmetry_cell_setting           monoclinic
_symmetry_space_group_name_H-M   'P 21/n'
_symmetry_Int_Tables_number      14
_space_group_name_Hall           '-P 2yn'
loop_
_symmetry_equiv_pos_site_id
_symmetry_equiv_pos_as_xyz
1 x,y,z
2 1/2-x,1/2+y,1/2-z
3 -x,-y,-z
4 1/2+x,1/2-y,1/2+z
_cell_length_a                   8.460(8)
_cell_length_b                   9.870(2)
_cell_length_c                   22.633(7)
_cell_angle_alpha                90
_cell_angle_beta                 99.39(6)
_cell_angle_gamma                90
_cell_volume                     1864.54
_exptl_crystal_colour            red-yellow
_exptl_crystal_description       prismatic
_chemical_melting_point          289-291deg.C
_cell_formula_units_Z            4
loop_
_atom_site_label
_atom_site_type_symbol
_atom_site_fract_x
_atom_site_fract_y
_atom_site_fract_z
S1 S 0.1286(3) 0.4967(3) 0.7188(1)
N1 N -0.244(1) -0.0011(9) 0.5108(3)
N2 N 0.0170(8) 0.2480(7) 0.6473(3)
C1 C -0.257(1) 0.136(1) 0.5097(4)
C2 C -0.364(1) 0.195(1) 0.4628(5)
C3 C -0.383(1) 0.330(1) 0.4579(5)
C4 C -0.294(1) 0.418(1) 0.5002(6)
C5 C -0.192(1) 0.365(1) 0.5469(4)
C6 C -0.167(1) 0.2227(9) 0.5543(4)
C7 C -0.067(1) 0.1616(9) 0.6012(4)
C8 C -0.0435(10) 0.0233(9) 0.6020(3)
C9 C 0.065(1) -0.0453(9) 0.6459(4)
C10 C 0.088(1) -0.181(1) 0.6447(5)
C11 C 0.000(1) -0.259(1) 0.5965(5)
C12 C -0.108(1) -0.198(1) 0.5539(4)
C13 C -0.135(1) -0.0544(9) 0.5548(4)
C14 C -0.0450(9) 0.2637(8) 0.7020(3)
C15 C -0.163(1) 0.1760(9) 0.7164(4)
C16 C -0.222(1) 0.195(1) 0.7695(4)
C17 C -0.168(1) 0.296(1) 0.8085(4)
C18 C -0.051(1) 0.3822(10) 0.7942(4)
C19 C 0.004(1) 0.3690(8) 0.7403(3)
C20 C 0.247(1) 0.3948(9) 0.6788(4)
C21 C 0.405(1) 0.430(1) 0.6797(4)
C22 C 0.493(1) 0.363(1) 0.6424(5)
C23 C 0.425(1) 0.260(1) 0.6067(4)
C24 C 0.270(1) 0.2191(9) 0.6088(4)
C25 C 0.177(1) 0.2864(9) 0.6451(4)
H1 H -0.4318 0.1342 0.4320
H2 H -0.4593 0.3675 0.4247
H3 H -0.3073 0.5139 0.4946
H4 H -0.1322 0.4296 0.5758
H5 H 0.1315 0.0080 0.6785
H6 H 0.1643 -0.2253 0.6759
H7 H 0.0157 -0.3572 0.5950
H8 H -0.1729 -0.2562 0.5241
H9 H -0.2075 0.1017 0.6883
H10 H -0.3070 0.1295 0.7797
H11 H -0.2144 0.3081 0.8450
H12 H -0.0018 0.4514 0.8249
H13 H 0.4631 0.4996 0.7079
H14 H 0.6058 0.3894 0.6409
H15 H 0.4879 0.2127 0.5797
H16 H 0.2220 0.1422 0.5826
loop_
_geom_bond_atom_site_label_1
_geom_bond_atom_site_label_2
_geom_bond_site_symmetry_1
_geom_bond_site_symmetry_2
S1 C19 1_555 1_555
N1 C1 1_555 1_555
N2 C7 1_555 1_555
C1 C2 1_555 1_555
C2 C3 1_555 1_555
C3 C4 1_555 1_555
C4 C5 1_555 1_555
C5 C6 1_555 1_555
C6 C1 1_555 1_555
C7 C6 1_555 1_555
C8 C7 1_555 1_555
C9 C8 1_555 1_555
C10 C9 1_555 1_555
C11 C10 1_555 1_555
C12 C11 1_555 1_555
C13 N1 1_555 1_555
C14 N2 1_555 1_555
C15 C14 1_555 1_555
C16 C15 1_555 1_555
C17 C16 1_555 1_555
C18 C17 1_555 1_555
C19 C14 1_555 1_555
C20 S1 1_555 1_555
C21 C20 1_555 1_555
C22 C21 1_555 1_555
C23 C22 1_555 1_555
C24 C23 1_555 1_555
C25 N2 1_555 1_555
H1 C2 1_555 1_555
H2 C3 1_555 1_555
H3 C4 1_555 1_555
H4 C5 1_555 1_555
H5 C9 1_555 1_555
H6 C10 1_555 1_555
H7 C11 1_555 1_555
H8 C12 1_555 1_555
H9 C15 1_555 1_555
H10 C16 1_555 1_555
H11 C17 1_555 1_555
H12 C18 1_555 1_555
H13 C21 1_555 1_555
H14 C22 1_555 1_555
H15 C23 1_555 1_555
H16 C24 1_555 1_555
C8 C13 1_555 1_555
C12 C13 1_555 1_555
C18 C19 1_555 1_555
C20 C25 1_555 1_555
C24 C25 1_555 1_555

#END
