
#######################################################################
#
#                 Cambridge Crystallographic Data Centre
#                                CCDC 
#
#######################################################################
#
# If this CIF has been generated from an entry in the Cambridge 
# Structural Database, then it will include bibliographic, chemical, 
# crystal, experimental, refinement or atomic coordinate data resulting 
# from the CCDC's data processing and validation procedures.
#
#######################################################################

data_NIWDEE
_chemical_formula_moiety         'C23 H26 Br1 N1 O1'
_chemical_name_systematic        
(4-Bromophenyl)(1-octylindolizin-3-yl)methanone
_symmetry_cell_setting           monoclinic
_symmetry_space_group_name_H-M   'P 21/c'
_symmetry_Int_Tables_number      14
_space_group_name_Hall           '-P 2ybc'
loop_
_symmetry_equiv_pos_site_id
_symmetry_equiv_pos_as_xyz
1 x,y,z
2 -x,1/2+y,1/2-z
3 -x,-y,-z
4 x,1/2-y,1/2+z
_cell_length_a                   16.7328(16)
_cell_length_b                   16.4647(15)
_cell_length_c                   7.5120(7)
_cell_angle_alpha                90
_cell_angle_beta                 96.155(3)
_cell_angle_gamma                90
_cell_volume                     2057.63
_exptl_crystal_colour            yellow
_exptl_crystal_description       block
_chemical_melting_point          '96.5 deg.C'
_cell_formula_units_Z            4
loop_
_atom_site_label
_atom_site_type_symbol
_atom_site_fract_x
_atom_site_fract_y
_atom_site_fract_z
Br1 Br 0.09453(4) 0.36151(4) -0.09929(9)
N1 N 0.40542(17) -0.08846(18) -0.0250(4)
O1 O 0.41455(18) 0.13861(16) -0.2889(4)
C1 C 0.3000(2) 0.1748(2) -0.1505(5)
C2 C 0.4398(2) -0.1634(2) -0.0413(5)
H1 H 0.4318 -0.2044 0.0401
C3 C 0.3567(2) -0.0621(2) 0.1018(5)
C4 C 0.3712(2) 0.0400(2) -0.0952(5)
C5 C 0.1236(3) -0.0952(3) 0.9071(6)
H2 H 0.1541 -0.0502 0.9631
H3 H 0.0777 -0.0725 0.8338
C6 C 0.3351(2) 0.0154(2) 0.0591(5)
H4 H 0.3018 0.0476 0.1213
C7 C 0.3662(2) 0.1180(2) -0.1838(5)
C8 C 0.4162(2) -0.0261(2) -0.1450(5)
C9 C 0.2058(3) -0.0875(3) 0.6431(5)
H5 H 0.2357 -0.0423 0.7003
H6 H 0.1598 -0.0651 0.5700
C10 C 0.2226(2) 0.1495(2) -0.1355(6)
H7 H 0.2112 0.0942 -0.1365
C11 C 0.2589(3) -0.1306(2) 0.5213(5)
H8 H 0.3060 -0.1517 0.5929
H9 H 0.2297 -0.1762 0.4645
C12 C 0.2547(3) 0.3126(3) -0.1247(6)
H10 H 0.2660 0.3679 -0.1179
C13 C 0.3149(3) 0.2579(2) -0.1443(5)
H11 H 0.3667 0.2766 -0.1535
C14 C 0.2855(3) -0.0749(2) 0.3780(5)
H12 H 0.2382 -0.0527 0.3092
H13 H 0.3155 -0.0300 0.4356
C15 C 0.1760(3) -0.1394(3) 0.7855(6)
H14 H 0.1886 -0.1943 0.7985
C16 C 0.4633(2) -0.0413(2) -0.2852(5)
H15 H 0.4714 -0.0008 -0.3677
C17 C 0.3370(3) -0.1162(2) 0.2511(5)
H16 H 0.3866 -0.1342 0.3180
H17 H 0.3089 -0.1638 0.2007
C18 C 0.1616(3) 0.2044(3) -0.1188(6)
H18 H 0.1095 0.1863 -0.1101
C19 C 0.1786(3) 0.2856(3) -0.1153(6)
C20 C 0.4852(2) -0.1775(3) -0.1755(6)
H19 H 0.5089 -0.2281 -0.1863
C21 C 0.4969(2) -0.1158(3) -0.2991(6)
H20 H 0.5281 -0.1262 -0.3919
C22 C 0.0934(3) -0.1456(3) 1.0505(7)
H21 H 0.1389 -0.1713 1.1191
H22 H 0.0595 -0.1883 0.9946
C23 C 0.0465(4) -0.0996(4) 1.1767(8)
H23 H 0.0792 -0.0567 1.2321
H24 H 0.0311 -0.1358 1.2672
H25 H -0.0008 -0.0769 1.1117
loop_
_geom_bond_atom_site_label_1
_geom_bond_atom_site_label_2
_geom_bond_site_symmetry_1
_geom_bond_site_symmetry_2
Br1 C19 1_555 1_555
N1 C2 1_555 1_555
O1 C7 1_555 1_555
C1 C7 1_555 1_555
C2 H1 1_555 1_555
C3 N1 1_555 1_555
C4 C6 1_555 1_555
C5 H2 1_555 1_555
H3 C5 1_555 1_555
C6 C3 1_555 1_555
H4 C6 1_555 1_555
C7 C4 1_555 1_555
C8 N1 1_555 1_555
C9 H5 1_555 1_555
H6 C9 1_555 1_555
C10 C1 1_555 1_555
H7 C10 1_555 1_555
C11 C9 1_555 1_555
H8 C11 1_555 1_555
H9 C11 1_555 1_555
C12 H10 1_555 1_555
C13 C1 1_555 1_555
H11 C13 1_555 1_555
C14 C11 1_555 1_555
H12 C14 1_555 1_555
H13 C14 1_555 1_555
C15 C5 1_555 1_555
H14 C15 1_555 1_555
C16 C8 1_555 1_555
H15 C16 1_555 1_555
C17 C3 1_555 1_555
H16 C17 1_555 1_555
H17 C17 1_555 1_555
C18 C10 1_555 1_555
H18 C18 1_555 1_555
C19 C12 1_555 1_555
C20 C2 1_555 1_555
H19 C20 1_555 1_555
C21 C16 1_555 1_555
H20 C21 1_555 1_555
C22 C5 1_555 1_555
H21 C22 1_555 1_555
H22 C22 1_555 1_555
C23 C22 1_555 1_555
H23 C23 1_555 1_555
H24 C23 1_555 1_555
H25 C23 1_555 1_555
C4 C8 1_555 1_555
C9 C15 1_555 1_555
C12 C13 1_555 1_555
C14 C17 1_555 1_555
C18 C19 1_555 1_555
C20 C21 1_555 1_555

#END
