
#######################################################################
#
#                 Cambridge Crystallographic Data Centre
#                                CCDC 
#
#######################################################################
#
# If this CIF has been generated from an entry in the Cambridge 
# Structural Database, then it will include bibliographic, chemical, 
# crystal, experimental, refinement or atomic coordinate data resulting 
# from the CCDC's data processing and validation procedures.
#
#######################################################################

data_NIWHEI
_chemical_formula_moiety         'C22 H12 S1'
_chemical_name_systematic        Phenanthro[3,4,5-mnab]thioxanthene
_symmetry_cell_setting           orthorhombic
_symmetry_space_group_name_H-M   'P 21 21 21'
_symmetry_Int_Tables_number      19
_space_group_name_Hall           'P 2ac 2ab'
loop_
_symmetry_equiv_pos_site_id
_symmetry_equiv_pos_as_xyz
1 x,y,z
2 1/2+x,1/2-y,-z
3 -x,1/2+y,1/2-z
4 1/2-x,-y,1/2+z
_cell_length_a                   4.3991(3)
_cell_length_b                   15.0875(12)
_cell_length_c                   21.4552(15)
_cell_angle_alpha                90
_cell_angle_beta                 90
_cell_angle_gamma                90
_cell_volume                     1424.01
_exptl_crystal_colour            yellow
_exptl_crystal_description       plate
_cell_formula_units_Z            4
_exptl_crystal_recrystallization_method hexane
loop_
_atom_site_label
_atom_site_type_symbol
_atom_site_fract_x
_atom_site_fract_y
_atom_site_fract_z
S1 S 0.6913(3) 0.75013(8) 0.86597(5)
C1 C 0.1144(13) 0.9694(3) 0.9439(2)
H1 H -0.0088 1.0133 0.9608
C2 C 0.1948(12) 0.9730(3) 0.8815(2)
H2 H 0.1246 1.0198 0.8573
C3 C 0.3780(10) 0.9085(3) 0.85401(18)
C4 C 0.4727(10) 0.9160(3) 0.78745(17)
C5 C 0.6719(10) 0.8551(2) 0.75857(17)
C6 C 0.7713(10) 0.8693(2) 0.69568(17)
C7 C 0.9715(10) 0.8090(3) 0.66536(17)
C8 C 1.0770(10) 0.7328(3) 0.69757(18)
C9 C 1.2681(11) 0.6743(3) 0.66689(19)
H3 H 1.3379 0.6243 0.6878
C10 C 1.3585(12) 0.6886(3) 0.6054(2)
H4 H 1.4852 0.6483 0.5853
C11 C 0.2163(13) 0.9010(3) 0.9810(2)
H5 H 0.1645 0.8987 1.0230
C12 C 0.3958(12) 0.8361(3) 0.9550(2)
H6 H 0.4666 0.7900 0.9798
C13 C 0.4734(11) 0.8384(3) 0.89186(19)
C14 C 0.7914(10) 0.7771(2) 0.78964(16)
C15 C 0.3678(11) 0.9879(3) 0.7520(2)
H7 H 0.2288 1.0271 0.7696
C16 C 0.4660(12) 1.0022(3) 0.69155(19)
H8 H 0.3942 1.0512 0.6697
C17 C 0.6674(11) 0.9455(3) 0.66299(19)
C18 C 1.0662(11) 0.8241(3) 0.60291(19)
C19 C 0.9624(12) 0.9019(3) 0.57169(19)
H9 H 1.0236 0.9127 0.5309
C20 C 0.7771(12) 0.9599(3) 0.6005(2)
H10 H 0.7178 1.0109 0.5794
C21 C 1.2574(11) 0.7633(3) 0.5748(2)
H11 H 1.3197 0.7731 0.5339
C22 C 0.9813(10) 0.7198(3) 0.76057(18)
H12 H 1.0514 0.6705 0.7822
loop_
_geom_bond_atom_site_label_1
_geom_bond_atom_site_label_2
_geom_bond_site_symmetry_1
_geom_bond_site_symmetry_2
S1 C13 1_555 1_555
C1 H1 1_555 1_555
C2 C1 1_555 1_555
H2 C2 1_555 1_555
C3 C2 1_555 1_555
C4 C3 1_555 1_555
C5 C4 1_555 1_555
C6 C5 1_555 1_555
C7 C6 1_555 1_555
C8 C7 1_555 1_555
C9 C8 1_555 1_555
H3 C9 1_555 1_555
C10 C9 1_555 1_555
H4 C10 1_555 1_555
C11 C1 1_555 1_555
H5 C11 1_555 1_555
C12 C11 1_555 1_555
H6 C12 1_555 1_555
C13 C3 1_555 1_555
C14 S1 1_555 1_555
C15 C4 1_555 1_555
H7 C15 1_555 1_555
C16 C15 1_555 1_555
H8 C16 1_555 1_555
C17 C6 1_555 1_555
C18 C7 1_555 1_555
C19 C18 1_555 1_555
H9 C19 1_555 1_555
C20 C17 1_555 1_555
H10 C20 1_555 1_555
C21 C10 1_555 1_555
H11 C21 1_555 1_555
C22 C8 1_555 1_555
H12 C22 1_555 1_555
C5 C14 1_555 1_555
C12 C13 1_555 1_555
C14 C22 1_555 1_555
C16 C17 1_555 1_555
C18 C21 1_555 1_555
C19 C20 1_555 1_555

#END
