
#######################################################################
#
#                 Cambridge Crystallographic Data Centre
#                                CCDC 
#
#######################################################################
#
# If this CIF has been generated from an entry in the Cambridge 
# Structural Database, then it will include bibliographic, chemical, 
# crystal, experimental, refinement or atomic coordinate data resulting 
# from the CCDC's data processing and validation procedures.
#
#######################################################################

data_NIWHEH
_chemical_compound_source        'seeds of Annona reticulata'
_chemical_name_common            'Cycloreticulin A dihydrate'
_chemical_formula_moiety         'C44 H61 N9 O12,2(H2 O1)'
_chemical_name_systematic        
'Cyclo-(prolyl-glycyl-asparaginyl-isoleucyl-seryl-isoleucyl-tyrosyl-tyrosyl) dihydrate'
_symmetry_cell_setting           orthorhombic
_symmetry_space_group_name_H-M   'P 21 21 21'
_symmetry_Int_Tables_number      19
_space_group_name_Hall           'P 2ac 2ab'
loop_
_symmetry_equiv_pos_site_id
_symmetry_equiv_pos_as_xyz
1 x,y,z
2 1/2-x,-y,1/2+z
3 1/2+x,1/2-y,-z
4 -x,1/2+y,1/2-z
_cell_length_a                   9.986
_cell_length_b                   21.121
_cell_length_c                   26.512
_cell_angle_alpha                90
_cell_angle_beta                 90
_cell_angle_gamma                90
_cell_volume                     5591.76
_exptl_crystal_colour            colorless
_exptl_crystal_description       prismatic
_chemical_melting_point          '269-270 deg.C'
_cell_formula_units_Z            4
_chemical_properties_physical    'air- and moisture-sensitive'
_exptl_crystal_recrystallization_method methanol
loop_
_atom_site_label
_atom_site_type_symbol
_atom_site_fract_x
_atom_site_fract_y
_atom_site_fract_z
O1 O 0.341 0.189 0.702
N1 N 0.264 0.012 0.760
N2 N 0.290 0.019 0.628
O2 O 0.500 0.194 0.639
O3 O 0.426 0.078 0.730
O4 O 0.502 0.235 0.754
O5 O 0.235 0.217 0.855
O6 O 0.350 -0.064 0.677
N3 N 0.460 0.226 0.873
N4 N 0.460 0.102 0.839
N5 N 0.707 0.220 0.609
N6 N 0.544 0.068 0.627
O7 O 0.895 0.170 0.715
N7 N 0.712 0.289 0.700
O8 O 0.360 0.071 0.912
C1 C 0.285 -0.013 0.671
C2 C 0.510 0.039 0.584
C3 C 0.645 0.312 0.662
C4 C 0.343 0.244 0.850
O9 O 0.555 0.355 0.668
N8 N 0.488 0.322 0.804
C5 C 0.196 0.013 0.712
C6 C 0.377 0.046 0.765
C7 C 0.664 0.109 0.630
O10 O 0.810 0.408 0.990
C8 C 0.687 0.307 0.752
C9 C 0.418 0.110 0.887
C10 C 0.611 0.178 0.625
C11 C 0.802 0.288 0.788
O11 O 0.573 0.038 0.546
C12 C 0.457 0.040 0.815
C13 C 0.731 0.102 0.680
C14 C 0.548 0.286 0.768
O12 O 0.782 0.222 0.799
C15 C 0.873 0.130 0.682
N9 N 0.949 0.115 0.649
C16 C 0.648 0.232 0.952
C17 C 0.351 0.306 0.820
C18 C 0.375 0.004 0.586
C19 C 0.801 0.062 0.846
C20 C 0.876 0.031 0.927
C21 C 0.452 0.176 0.911
C22 C 0.597 0.015 0.803
C23 C 0.585 0.168 0.938
C24 C 0.755 0.348 0.978
C25 C 0.185 -0.019 0.800
C26 C 0.285 0.360 0.854
C27 C 0.667 0.288 0.608
O13 O 0.964 0.039 0.966
C28 C 0.751 0.259 0.924
C29 C 0.889 0.068 0.885
C30 C 0.694 0.021 0.848
C31 C 0.804 0.319 0.936
C32 C 0.683 -0.015 0.891
C33 C 0.654 0.325 1.007
C34 C 0.595 0.265 0.994
C35 C 0.070 -0.028 0.720
C36 C 0.769 -0.010 0.931
C37 C 0.791 0.323 0.580
C38 C 0.356 0.368 0.902
C39 C 0.721 0.393 0.572
C40 C 0.272 0.414 0.818
C41 C 0.052 -0.023 0.776
C42 C 0.906 0.323 0.608
C43 C 0.262 0.370 0.939
C44 C 0.776 0.428 0.538
H1 H 0.236 0.056 0.625
H2 H 0.544 0.245 0.864
H3 H 0.493 0.137 0.820
H4 H 0.795 0.206 0.599
H5 H 0.492 0.061 0.657
H6 H 0.782 0.258 0.693
H7 H 0.534 0.356 0.821
H8 H 0.173 0.055 0.700
H9 H 0.726 0.099 0.604
H10 H 0.684 0.353 0.753
H11 H 0.887 0.294 0.772
H12 H 0.798 0.313 0.819
H13 H 0.417 0.010 0.837
H14 H 0.679 0.123 0.705
H15 H 0.736 0.058 0.688
H16 H 0.924 0.085 0.624
H17 H 1.037 0.134 0.649
H18 H 0.305 0.302 0.788
H19 H 0.394 -0.041 0.587
H20 H 0.327 0.013 0.555
H21 H 0.813 0.087 0.816
H22 H 0.385 0.189 0.934
H23 H 0.593 -0.028 0.793
H24 H 0.630 0.041 0.776
H25 H 0.644 0.145 0.916
H26 H 0.572 0.143 0.969
H27 H 0.221 -0.060 0.808
H28 H 0.183 0.007 0.830
H29 H 0.584 0.296 0.591
H30 H 0.788 0.236 0.896
H31 H 0.960 0.098 0.883
H32 H 0.873 0.338 0.917
H33 H 0.612 -0.046 0.892
H34 H 0.625 0.348 1.037
H35 H 0.522 0.247 1.013
H36 H -0.006 -0.012 0.703
H37 H 0.087 -0.071 0.710
H38 H 0.755 -0.035 0.962
H39 H 0.451 0.372 0.906
H40 H 0.233 0.450 0.834
H41 H 0.361 0.425 0.806
H42 H 0.218 0.402 0.790
H43 H 0.007 -0.060 0.788
H44 H 0.001 0.014 0.783
H45 H 0.987 0.342 0.596
H46 H 0.903 0.303 0.640
H47 H 0.291 0.374 0.973
H48 H 0.169 0.365 0.931
H49 H 0.746 0.469 0.529
H50 H 0.858 0.411 0.525
O14 O 0.199 0.151 0.635
loop_
_geom_bond_atom_site_label_1
_geom_bond_atom_site_label_2
_geom_bond_site_symmetry_1
_geom_bond_site_symmetry_2
N1 C5 1_555 1_555
N2 C1 1_555 1_555
O2 C10 1_555 1_555
O3 C6 1_555 1_555
O4 C14 1_555 1_555
O5 C4 1_555 1_555
O6 C1 1_555 1_555
N3 C4 1_555 1_555
N4 C9 1_555 1_555
N5 C10 1_555 1_555
N6 C2 1_555 1_555
O7 C15 1_555 1_555
N7 C3 1_555 1_555
O8 C9 1_555 1_555
C1 C5 1_555 1_555
C2 O11 1_555 1_555
C3 O9 1_555 1_555
C4 C17 1_555 1_555
N8 C14 1_555 1_555
C5 C35 1_555 1_555
C6 N1 1_555 1_555
C7 N6 1_555 1_555
O10 C24 1_555 1_555
C8 N7 1_555 1_555
C9 C21 1_555 1_555
C10 C7 1_555 1_555
C11 C8 1_555 1_555
C12 N4 1_555 1_555
C13 C7 1_555 1_555
C14 C8 1_555 1_555
O12 C11 1_555 1_555
C15 C13 1_555 1_555
N9 C15 1_555 1_555
C16 C23 1_555 1_555
C17 N8 1_555 1_555
C18 N2 1_555 1_555
C19 C29 1_555 1_555
C20 O13 1_555 1_555
C21 N3 1_555 1_555
C22 C12 1_555 1_555
C23 C21 1_555 1_555
C24 C31 1_555 1_555
C25 N1 1_555 1_555
C26 C17 1_555 1_555
C27 N5 1_555 1_555
C28 C16 1_555 1_555
C29 C20 1_555 1_555
C30 C19 1_555 1_555
C31 C28 1_555 1_555
C32 C30 1_555 1_555
C33 C24 1_555 1_555
C34 C16 1_555 1_555
C35 C41 1_555 1_555
C36 C20 1_555 1_555
C37 C27 1_555 1_555
C38 C26 1_555 1_555
C39 C37 1_555 1_555
C40 C26 1_555 1_555
C41 C25 1_555 1_555
C42 C37 1_555 1_555
C43 C38 1_555 1_555
C44 C39 1_555 1_555
H1 N2 1_555 1_555
H2 N3 1_555 1_555
H3 N4 1_555 1_555
H4 N5 1_555 1_555
H5 N6 1_555 1_555
H6 N7 1_555 1_555
H7 N8 1_555 1_555
H8 C5 1_555 1_555
H9 C7 1_555 1_555
H10 C8 1_555 1_555
H11 C11 1_555 1_555
H12 C11 1_555 1_555
H13 C12 1_555 1_555
H14 C13 1_555 1_555
H15 C13 1_555 1_555
H16 N9 1_555 1_555
H17 N9 1_555 1_555
H18 C17 1_555 1_555
H19 C18 1_555 1_555
H20 C18 1_555 1_555
H21 C19 1_555 1_555
H22 C21 1_555 1_555
H23 C22 1_555 1_555
H24 C22 1_555 1_555
H25 C23 1_555 1_555
H26 C23 1_555 1_555
H27 C25 1_555 1_555
H28 C25 1_555 1_555
H29 C27 1_555 1_555
H30 C28 1_555 1_555
H31 C29 1_555 1_555
H32 C31 1_555 1_555
H33 C32 1_555 1_555
H34 C33 1_555 1_555
H35 C34 1_555 1_555
H36 C35 1_555 1_555
H37 C35 1_555 1_555
H38 C36 1_555 1_555
H39 C38 1_555 1_555
H40 C40 1_555 1_555
H41 C40 1_555 1_555
H42 C40 1_555 1_555
H43 C41 1_555 1_555
H44 C41 1_555 1_555
H45 C42 1_555 1_555
H46 C42 1_555 1_555
H47 C43 1_555 1_555
H48 C43 1_555 1_555
H49 C44 1_555 1_555
H50 C44 1_555 1_555
C2 C18 1_555 1_555
C3 C27 1_555 1_555
C6 C12 1_555 1_555
C22 C30 1_555 1_555
C32 C36 1_555 1_555
C33 C34 1_555 1_555

#END
