
#######################################################################
#
#                 Cambridge Crystallographic Data Centre
#                                CCDC 
#
#######################################################################
#
# If this CIF has been generated from an entry in the Cambridge 
# Structural Database, then it will include bibliographic, chemical, 
# crystal, experimental, refinement or atomic coordinate data resulting 
# from the CCDC's data processing and validation procedures.
#
#######################################################################

data_NIWHIM
_chemical_formula_moiety         'C23 H16 S1'
_chemical_name_systematic        'Methyl 2-(pyren-1-yl)phenyl sulfide'
_symmetry_cell_setting           monoclinic
_symmetry_space_group_name_H-M   'P 21/c'
_symmetry_Int_Tables_number      14
_space_group_name_Hall           '-P 2ybc'
loop_
_symmetry_equiv_pos_site_id
_symmetry_equiv_pos_as_xyz
1 x,y,z
2 -x,1/2+y,1/2-z
3 -x,-y,-z
4 x,1/2-y,1/2+z
_cell_length_a                   10.5239(3)
_cell_length_b                   15.5809(4)
_cell_length_c                   10.0994(3)
_cell_angle_alpha                90
_cell_angle_beta                 98.234(2)
_cell_angle_gamma                90
_cell_volume                     1638.95
_exptl_crystal_colour            colorless
_exptl_crystal_description       plate
_cell_formula_units_Z            4
loop_
_atom_site_label
_atom_site_type_symbol
_atom_site_fract_x
_atom_site_fract_y
_atom_site_fract_z
S1 S -0.02179(6) 0.58588(4) 0.10438(7)
C1 C 0.3572(3) 0.29988(17) 0.6320(3)
H1 H 0.3590 0.2558 0.6944
C2 C 0.2682(2) 0.36445(16) 0.6292(2)
H2 H 0.2105 0.3636 0.6908
C3 C 0.2620(2) 0.43102(14) 0.5371(2)
C4 C 0.1711(2) 0.49891(14) 0.5340(2)
H3 H 0.1150 0.4999 0.5974
C5 C 0.1643(2) 0.56204(14) 0.4411(2)
H4 H 0.1037 0.6055 0.4416
C6 C 0.24929(19) 0.56295(12) 0.34174(19)
C7 C 0.2425(2) 0.62627(13) 0.2427(2)
C8 C 0.1463(2) 0.69822(13) 0.2361(2)
C9 C 0.0207(2) 0.68851(13) 0.1694(2)
C10 C -0.0609(2) 0.75899(15) 0.1584(2)
H5 H -0.1432 0.7540 0.1112
C11 C -0.0213(3) 0.83624(15) 0.2164(2)
H6 H -0.0772 0.8828 0.2083
C12 C -0.1756(2) 0.60163(17) 0.0064(3)
H7 H -0.2367 0.6179 0.0639
H8 H -0.2029 0.5493 -0.0391
H9 H -0.1697 0.6462 -0.0581
C13 C 0.1835(2) 0.77672(14) 0.2933(2)
H10 H 0.2666 0.7834 0.3377
C14 C 0.0993(3) 0.84528(15) 0.2856(3)
H11 H 0.1246 0.8970 0.3272
C15 C 0.3495(2) 0.43154(13) 0.4426(2)
C16 C 0.4432(2) 0.36452(14) 0.4465(2)
C17 C 0.5317(2) 0.36873(17) 0.3525(3)
H12 H 0.5951 0.3269 0.3552
C18 C 0.5268(2) 0.43107(16) 0.2601(3)
H13 H 0.5864 0.4312 0.2005
C19 C 0.43189(19) 0.49718(14) 0.2512(2)
C20 C 0.4225(2) 0.56190(16) 0.1565(2)
H14 H 0.4800 0.5632 0.0947
C21 C 0.3291(2) 0.62467(15) 0.1520(2)
H15 H 0.3244 0.6668 0.0863
C22 C 0.34250(18) 0.49731(12) 0.3453(2)
C23 C 0.4433(3) 0.30076(15) 0.5422(3)
H16 H 0.5039 0.2571 0.5457
loop_
_geom_bond_atom_site_label_1
_geom_bond_atom_site_label_2
_geom_bond_site_symmetry_1
_geom_bond_site_symmetry_2
S1 C9 1_555 1_555
C1 H1 1_555 1_555
C2 C1 1_555 1_555
H2 C2 1_555 1_555
C3 C2 1_555 1_555
C4 C3 1_555 1_555
H3 C4 1_555 1_555
C5 C4 1_555 1_555
H4 C5 1_555 1_555
C6 C5 1_555 1_555
C7 C6 1_555 1_555
C8 C7 1_555 1_555
C9 C8 1_555 1_555
C10 C9 1_555 1_555
H5 C10 1_555 1_555
C11 C10 1_555 1_555
H6 C11 1_555 1_555
C12 S1 1_555 1_555
H7 C12 1_555 1_555
H8 C12 1_555 1_555
H9 C12 1_555 1_555
C13 C8 1_555 1_555
H10 C13 1_555 1_555
C14 C11 1_555 1_555
H11 C14 1_555 1_555
C15 C3 1_555 1_555
C16 C15 1_555 1_555
C17 C16 1_555 1_555
H12 C17 1_555 1_555
C18 C17 1_555 1_555
H13 C18 1_555 1_555
C19 C18 1_555 1_555
C20 C19 1_555 1_555
H14 C20 1_555 1_555
C21 C7 1_555 1_555
H15 C21 1_555 1_555
C22 C6 1_555 1_555
C23 C1 1_555 1_555
H16 C23 1_555 1_555
C13 C14 1_555 1_555
C15 C22 1_555 1_555
C16 C23 1_555 1_555
C19 C22 1_555 1_555
C20 C21 1_555 1_555

#END
