
#######################################################################
#
#                 Cambridge Crystallographic Data Centre
#                                CCDC 
#
#######################################################################
#
# If this CIF has been generated from an entry in the Cambridge 
# Structural Database, then it will include bibliographic, chemical, 
# crystal, experimental, refinement or atomic coordinate data resulting 
# from the CCDC's data processing and validation procedures.
#
#######################################################################

data_NIWJUA02
_chemical_name_common            
'2,6-Diisopropylanilinium perchlorate 1,4,7,10,13,16-hexaoxacyclooctadecane'
_chemical_formula_moiety         'C12 H24 O6,C12 H20 N1 1+,Cl1 O4 1-'
_chemical_name_systematic        
'2,6-Diisopropylanilinium perchlorate 18-crown-6'
_symmetry_cell_setting           orthorhombic
_symmetry_space_group_name_H-M   'P 21 c n'
_symmetry_Int_Tables_number      33
_space_group_name_Hall           'P -2n 2a'
loop_
_symmetry_equiv_pos_site_id
_symmetry_equiv_pos_as_xyz
1 x,y,z
2 1/2+x,-y,-z
3 x,1/2-y,1/2+z
4 1/2+x,1/2+y,1/2-z
_cell_length_a                   16.720(3)
_cell_length_b                   17.464(3)
_cell_length_c                   18.831(4)
_cell_angle_alpha                90
_cell_angle_beta                 90
_cell_angle_gamma                90
_cell_volume                     5498.62
_cell_formula_units_Z            8
loop_
_atom_site_label
_atom_site_type_symbol
_atom_site_fract_x
_atom_site_fract_y
_atom_site_fract_z
C1 C 0.14336(11) 0.59311(11) -0.42990(10)
C2 C 0.16442(11) 0.62968(10) -0.49339(9)
C3 C 0.14904(11) 0.59851(11) -0.56054(10)
C4 C 0.11288(12) 0.52657(11) -0.56226(10)
H1 H 0.1019 0.5039 -0.6059
C5 C 0.09295(12) 0.48818(11) -0.50048(10)
H2 H 0.0697 0.4399 -0.5031
C6 C 0.10737(12) 0.52114(11) -0.43454(10)
H3 H 0.0930 0.4952 -0.3934
C7 C 0.16698(12) 0.63918(12) -0.62995(10)
H4 H 0.1990 0.6847 -0.6189
C8 C 0.21553(14) 0.58926(13) -0.68096(11)
H5 H 0.2639 0.5729 -0.6580
H6 H 0.2286 0.6183 -0.7227
H7 H 0.1846 0.5452 -0.6942
C9 C 0.08912(14) 0.66616(13) -0.66499(11)
H8 H 0.0582 0.6225 -0.6792
H9 H 0.1015 0.6967 -0.7060
H10 H 0.0590 0.6962 -0.6318
C10 C 0.15810(12) 0.62783(11) -0.35665(10)
H11 H 0.1847 0.6774 -0.3631
C11 C 0.21372(13) 0.57606(12) -0.31255(11)
H12 H 0.1876 0.5281 -0.3034
H13 H 0.2260 0.6007 -0.2683
H14 H 0.2623 0.5670 -0.3384
C12 C 0.07913(13) 0.64160(12) -0.31710(11)
H15 H 0.0461 0.6757 -0.3443
H16 H 0.0901 0.6639 -0.2715
H17 H 0.0518 0.5937 -0.3108
N1 N 0.20368(10) 0.70496(9) -0.48814(8)
H18 H 0.2242 0.7176 -0.5302
H19 H 0.2426 0.7028 -0.4560
H20 H 0.1680 0.7400 -0.4751
C13 C 0.35542(13) 0.75093(13) -0.34418(11)
H21 H 0.4122 0.7596 -0.3375
H22 H 0.3345 0.7267 -0.3017
C14 C 0.31356(13) 0.82550(12) -0.35697(12)
H23 H 0.3242 0.8606 -0.3182
H24 H 0.3328 0.8486 -0.4006
C15 C 0.18563(13) 0.87801(12) -0.38005(11)
H25 H 0.2044 0.8984 -0.4250
H26 H 0.1931 0.9169 -0.3438
C16 C 0.09865(13) 0.85728(12) -0.38557(11)
H27 H 0.0815 0.8341 -0.3413
H28 H 0.0676 0.9036 -0.3925
C17 C 0.04285(13) 0.83889(12) -0.50308(10)
H29 H -0.0014 0.8699 -0.4863
H30 H 0.0209 0.7984 -0.5325
C18 C 0.09701(13) 0.88786(11) -0.54763(11)
H31 H 0.0670 0.9111 -0.5861
H32 H 0.1199 0.9284 -0.5189
C19 C 0.22138(13) 0.88484(12) -0.60571(11)
H33 H 0.2488 0.9134 -0.5688
H34 H 0.1996 0.9211 -0.6396
C20 C 0.27912(13) 0.83205(12) -0.64226(11)
H35 H 0.2513 0.8024 -0.6781
H36 H 0.3206 0.8617 -0.6655
C21 C 0.37280(13) 0.73310(12) -0.62351(11)
H37 H 0.4131 0.7637 -0.6473
H38 H 0.3476 0.7002 -0.6584
C22 C 0.41067(13) 0.68564(13) -0.56624(11)
H39 H 0.4533 0.6545 -0.5860
H40 H 0.4333 0.7186 -0.5300
C23 C 0.37518(13) 0.59496(12) -0.47594(11)
H41 H 0.4197 0.5625 -0.4896
H42 H 0.3316 0.5618 -0.4613
C24 C 0.40027(13) 0.64337(12) -0.41327(11)
H43 H 0.4030 0.6122 -0.3707
H44 H 0.4527 0.6654 -0.4217
O1 O 0.08263(8) 0.80509(8) -0.44297(7)
O2 O 0.15861(9) 0.84079(8) -0.57546(7)
O3 O 0.31416(9) 0.78188(8) -0.59121(7)
O4 O 0.35033(8) 0.63778(8) -0.53614(7)
O5 O 0.34245(8) 0.70261(8) -0.40456(7)
O6 O 0.22962(9) 0.81096(8) -0.36203(8)
C25 C 0.82457(11) 0.86711(10) -0.48826(10)
C26 C 0.84004(11) 0.89551(11) -0.42009(10)
C27 C 0.87816(12) 0.96717(11) -0.41604(10)
H45 H 0.8900 0.9878 -0.3717
C28 C 0.89835(12) 1.00749(11) -0.47648(11)
H46 H 0.9225 1.0552 -0.4724
C29 C 0.88283(12) 0.97733(11) -0.54320(10)
H47 H 0.8975 1.0047 -0.5835
C30 C 0.84514(11) 0.90584(11) -0.55058(10)
C31 C 0.82047(12) 0.85361(11) -0.35190(10)
H48 H 0.7866 0.8097 -0.3641
C32 C 0.89715(13) 0.82227(12) -0.31709(11)
H49 H 0.9238 0.7885 -0.3496
H50 H 0.8834 0.7947 -0.2747
H51 H 0.9320 0.8641 -0.3052
C33 C 0.77360(13) 0.90385(13) -0.30014(11)
H52 H 0.8065 0.9459 -0.2851
H53 H 0.7583 0.8740 -0.2595
H54 H 0.7266 0.9232 -0.3232
C34 C 0.82914(12) 0.87560(11) -0.62493(10)
H55 H 0.8004 0.8269 -0.6203
C35 C 0.90675(14) 0.86003(12) -0.66569(11)
H56 H 0.9373 0.9064 -0.6691
H57 H 0.8942 0.8419 -0.7125
H58 H 0.9374 0.8219 -0.6410
C36 C 0.77565(13) 0.93084(12) -0.66614(11)
H59 H 0.7285 0.9416 -0.6389
H60 H 0.7607 0.9080 -0.7106
H61 H 0.8042 0.9776 -0.6749
N2 N 0.78466(10) 0.79226(9) -0.49543(8)
H62 H 0.8194 0.7580 -0.5120
H63 H 0.7438 0.7964 -0.5254
H64 H 0.7668 0.7771 -0.4532
Cl1 Cl 0.50000(3) 0.54856(2) -0.24818(2)
O7 O 0.54484(10) 0.58575(10) -0.30294(8)
O8 O 0.55264(12) 0.50453(10) -0.20388(9)
O9 O 0.46020(12) 0.60452(11) -0.20573(10)
O10 O 0.44205(12) 0.49881(11) -0.28023(10)
Cl2 Cl 0.49347(3) 0.92061(2) -0.24857(2)
O11 O 0.49171(12) 0.83904(8) -0.23742(9)
O12 O 0.57436(10) 0.94646(10) -0.24525(10)
O13 O 0.44766(15) 0.95852(12) -0.19482(12)
O14 O 0.46164(12) 0.93780(10) -0.31702(10)
C37 C 0.58474(13) 0.86033(12) -0.56244(11)
H65 H 0.5339 0.8352 -0.5539
H66 H 0.5784 0.8954 -0.6020
C38 C 0.61125(13) 0.90343(11) -0.49674(11)
H67 H 0.6535 0.9388 -0.5098
H68 H 0.5666 0.9334 -0.4792
C39 C 0.61884(13) 0.75859(12) -0.35557(11)
H69 H 0.6428 0.7921 -0.3205
H70 H 0.5792 0.7269 -0.3321
C40 C 0.58018(12) 0.80520(12) -0.41333(11)
H71 H 0.5600 0.7718 -0.4504
H72 H 0.5357 0.8343 -0.3942
C41 C 0.71861(12) 0.66492(12) -0.33615(10)
H73 H 0.6794 0.6364 -0.3089
H74 H 0.7487 0.6971 -0.3037
C42 C 0.77411(12) 0.61048(11) -0.37329(11)
H75 H 0.7997 0.5772 -0.3389
H76 H 0.7443 0.5789 -0.4064
C43 C 0.89227(12) 0.60535(12) -0.44104(11)
H77 H 0.8669 0.5648 -0.4681
H78 H 0.9244 0.5821 -0.4040
C44 C 0.94414(12) 0.65348(12) -0.48886(10)
H79 H 0.9688 0.6936 -0.4608
H80 H 0.9866 0.6217 -0.5079
C45 C 0.87828(13) 0.63545(12) -0.60213(11)
H81 H 0.9059 0.5872 -0.5953
H82 H 0.8946 0.6561 -0.6477
C46 C 0.78917(14) 0.62124(11) -0.60297(11)
H83 H 0.7763 0.5815 -0.6371
H84 H 0.7713 0.6046 -0.5565
C47 C 0.66596(12) 0.68193(13) -0.62786(11)
H85 H 0.6448 0.6592 -0.5848
H86 H 0.6534 0.6484 -0.6673
C48 C 0.62873(13) 0.75902(13) -0.63958(11)
H87 H 0.6513 0.7829 -0.6816
H88 H 0.5715 0.7537 -0.6464
O15 O 0.63929(8) 0.85558(8) -0.44136(7)
O16 O 0.67911(8) 0.71137(8) -0.38781(7)
O17 O 0.83326(9) 0.65404(8) -0.41059(7)
O18 O 0.90140(9) 0.68786(8) -0.54678(7)
O19 O 0.75046(9) 0.69075(8) -0.62195(7)
O20 O 0.64465(9) 0.80506(8) -0.57828(7)
loop_
_geom_bond_atom_site_label_1
_geom_bond_atom_site_label_2
_geom_bond_site_symmetry_1
_geom_bond_site_symmetry_2
C1 C2 1_555 1_555
C2 C3 1_555 1_555
C3 C4 1_555 1_555
C4 H1 1_555 1_555
C5 C4 1_555 1_555
H2 C5 1_555 1_555
C6 C1 1_555 1_555
H3 C6 1_555 1_555
C7 C3 1_555 1_555
H4 C7 1_555 1_555
C8 C7 1_555 1_555
H5 C8 1_555 1_555
H6 C8 1_555 1_555
H7 C8 1_555 1_555
C9 C7 1_555 1_555
H8 C9 1_555 1_555
H9 C9 1_555 1_555
H10 C9 1_555 1_555
C10 C1 1_555 1_555
H11 C10 1_555 1_555
C11 C10 1_555 1_555
H12 C11 1_555 1_555
H13 C11 1_555 1_555
H14 C11 1_555 1_555
C12 C10 1_555 1_555
H15 C12 1_555 1_555
H16 C12 1_555 1_555
H17 C12 1_555 1_555
N1 C2 1_555 1_555
H18 N1 1_555 1_555
H19 N1 1_555 1_555
H20 N1 1_555 1_555
C13 H21 1_555 1_555
H22 C13 1_555 1_555
C14 C13 1_555 1_555
H23 C14 1_555 1_555
H24 C14 1_555 1_555
C15 H25 1_555 1_555
H26 C15 1_555 1_555
C16 C15 1_555 1_555
H27 C16 1_555 1_555
H28 C16 1_555 1_555
C17 H29 1_555 1_555
H30 C17 1_555 1_555
C18 C17 1_555 1_555
H31 C18 1_555 1_555
H32 C18 1_555 1_555
C19 H33 1_555 1_555
H34 C19 1_555 1_555
C20 C19 1_555 1_555
H35 C20 1_555 1_555
H36 C20 1_555 1_555
C21 H37 1_555 1_555
H38 C21 1_555 1_555
C22 C21 1_555 1_555
H39 C22 1_555 1_555
H40 C22 1_555 1_555
C23 H41 1_555 1_555
H42 C23 1_555 1_555
C24 C23 1_555 1_555
H43 C24 1_555 1_555
H44 C24 1_555 1_555
O1 C16 1_555 1_555
O2 C18 1_555 1_555
O3 C20 1_555 1_555
O4 C22 1_555 1_555
O5 C13 1_555 1_555
O6 C14 1_555 1_555
C25 C26 1_555 1_555
C26 C27 1_555 1_555
C27 H45 1_555 1_555
C28 C27 1_555 1_555
H46 C28 1_555 1_555
C29 C28 1_555 1_555
H47 C29 1_555 1_555
C30 C25 1_555 1_555
C31 C26 1_555 1_555
H48 C31 1_555 1_555
C32 C31 1_555 1_555
H49 C32 1_555 1_555
H50 C32 1_555 1_555
H51 C32 1_555 1_555
C33 C31 1_555 1_555
H52 C33 1_555 1_555
H53 C33 1_555 1_555
H54 C33 1_555 1_555
C34 C30 1_555 1_555
H55 C34 1_555 1_555
C35 C34 1_555 1_555
H56 C35 1_555 1_555
H57 C35 1_555 1_555
H58 C35 1_555 1_555
C36 C34 1_555 1_555
H59 C36 1_555 1_555
H60 C36 1_555 1_555
H61 C36 1_555 1_555
N2 C25 1_555 1_555
H62 N2 1_555 1_555
H63 N2 1_555 1_555
H64 N2 1_555 1_555
Cl1 O7 1_555 1_555
O8 Cl1 1_555 1_555
O9 Cl1 1_555 1_555
O10 Cl1 1_555 1_555
Cl2 O11 1_555 1_555
O12 Cl2 1_555 1_555
O13 Cl2 1_555 1_555
O14 Cl2 1_555 1_555
C37 H65 1_555 1_555
H66 C37 1_555 1_555
C38 C37 1_555 1_555
H67 C38 1_555 1_555
H68 C38 1_555 1_555
C39 H69 1_555 1_555
H70 C39 1_555 1_555
C40 C39 1_555 1_555
H71 C40 1_555 1_555
H72 C40 1_555 1_555
C41 H73 1_555 1_555
H74 C41 1_555 1_555
C42 C41 1_555 1_555
H75 C42 1_555 1_555
H76 C42 1_555 1_555
C43 H77 1_555 1_555
H78 C43 1_555 1_555
C44 C43 1_555 1_555
H79 C44 1_555 1_555
H80 C44 1_555 1_555
C45 H81 1_555 1_555
H82 C45 1_555 1_555
C46 C45 1_555 1_555
H83 C46 1_555 1_555
H84 C46 1_555 1_555
C47 H85 1_555 1_555
H86 C47 1_555 1_555
C48 C47 1_555 1_555
H87 C48 1_555 1_555
H88 C48 1_555 1_555
O15 C38 1_555 1_555
O16 C39 1_555 1_555
O17 C42 1_555 1_555
O18 C44 1_555 1_555
O19 C46 1_555 1_555
O20 C37 1_555 1_555
C5 C6 1_555 1_555
C15 O6 1_555 1_555
C17 O1 1_555 1_555
C19 O2 1_555 1_555
C21 O3 1_555 1_555
C23 O4 1_555 1_555
C24 O5 1_555 1_555
C29 C30 1_555 1_555
C40 O15 1_555 1_555
C41 O16 1_555 1_555
C43 O17 1_555 1_555
C45 O18 1_555 1_555
C47 O19 1_555 1_555
C48 O20 1_555 1_555

#END
