
#######################################################################
#
#                 Cambridge Crystallographic Data Centre
#                                CCDC 
#
#######################################################################
#
# If this CIF has been generated from an entry in the Cambridge 
# Structural Database, then it will include bibliographic, chemical, 
# crystal, experimental, refinement or atomic coordinate data resulting 
# from the CCDC's data processing and validation procedures.
#
#######################################################################

data_NIWJUA
_chemical_formula_moiety         'C12 H20 N1 1+,C12 H24 O6,Cl1 O4 1-'
_chemical_name_systematic        
'2,6-Diisopropylanilinium perchlorate 18-crown-6'
_symmetry_cell_setting           orthorhombic
_symmetry_space_group_name_H-M   'I b a m'
_symmetry_Int_Tables_number      72
_space_group_name_Hall           '-I 2 2c'
loop_
_symmetry_equiv_pos_site_id
_symmetry_equiv_pos_as_xyz
1 x,y,z
2 -x,-y,z
3 1/2-x,1/2+y,-z
4 1/2+x,1/2-y,-z
5 1/2+x,1/2+y,1/2+z
6 1/2-x,1/2-y,1/2+z
7 -x,y,1/2-z
8 x,-y,1/2-z
9 -x,-y,-z
10 x,y,-z
11 1/2+x,1/2-y,z
12 1/2-x,1/2+y,z
13 1/2-x,1/2-y,1/2-z
14 1/2+x,1/2+y,1/2-z
15 x,-y,1/2+z
16 -x,y,1/2+z
_cell_length_a                   17.083(3)
_cell_length_b                   17.615(4)
_cell_length_c                   19.139(4)
_cell_angle_alpha                90
_cell_angle_beta                 90
_cell_angle_gamma                90
_cell_volume                     5759.25
_cell_formula_units_Z            8
loop_
_atom_site_label
_atom_site_type_symbol
_atom_site_fract_x
_atom_site_fract_y
_atom_site_fract_z
Cl1 Cl 0.0000 0.18873(9) 0.2500
O1 O 0.0235(10) 0.2272(8) 0.3097(6)
O2 O 0.0554(10) 0.1797(5) 0.2094(10)
O3 O -0.0244(7) 0.1206(6) 0.2704(7)
O4 O -0.0613(9) 0.2279(8) 0.2258(8)
O1F O -0.0235(10) 0.2272(8) 0.1903(6)
O2F O -0.0554(10) 0.1797(5) 0.2906(10)
O3F O 0.0244(7) 0.1206(6) 0.2296(7)
O4F O 0.0613(9) 0.2279(8) 0.2742(8)
O5 O 0.3184(4) 0.5322(4) -0.0997(3)
O6 O 0.3545(3) 0.3928(4) -0.0403(4)
O7 O 0.3464(3) 0.4563(4) 0.0897(3)
O8 O 0.2368(5) 0.5678(4) 0.1250(4)
O9 O 0.0962(3) 0.5664(3) 0.0495(3)
O10 O 0.1655(4) 0.5886(3) -0.0821(3)
C8 C 0.3736(12) 0.4798(12) -0.1297(12)
H12 H 0.3549 0.4491 -0.1676
H13 H 0.4134 0.5135 -0.1469
C9 C 0.4139(8) 0.4389(8) -0.0715(8)
H14 H 0.4351 0.4714 -0.0360
H15 H 0.4560 0.4084 -0.0893
C10 C 0.3802(6) 0.3525(6) 0.0182(8)
H16 H 0.3372 0.3229 0.0355
H17 H 0.4208 0.3179 0.0000
C11 C 0.4042(11) 0.3979(7) 0.0768(10)
H18 H 0.4520 0.4225 0.0634
H19 H 0.4136 0.3682 0.1180
C12 C 0.3613(15) 0.5089(11) 0.1456(11)
H20 H 0.3402 0.4844 0.1863
H21 H 0.4167 0.5143 0.1528
C13 C 0.3182(10) 0.5804(12) 0.1331(11)
H22 H 0.3426 0.6091 0.0964
H23 H 0.3240 0.6075 0.1763
C14 C 0.1913(11) 0.6323(14) 0.1108(15)
H24 H 0.1973 0.6636 0.1516
H25 H 0.2115 0.6598 0.0714
C15 C 0.1094(8) 0.6185(6) 0.1038(7)
H26 H 0.0823 0.6648 0.0931
H27 H 0.0877 0.5986 0.1463
C16 C 0.0568(5) 0.5929(6) -0.0115(16)
H28 H 0.0377 0.5512 -0.0390
H29 H 0.0127 0.6223 0.0000
C17 C 0.1054(7) 0.6387(6) -0.0530(7)
H30 H 0.1296 0.6770 -0.0246
H31 H 0.0765 0.6632 -0.0896
C18 C 0.2275(10) 0.6311(14) -0.1153(13)
H32 H 0.2072 0.6672 -0.1482
H33 H 0.2520 0.6588 -0.0780
C19 C 0.2807(11) 0.5771(11) -0.1485(9)
H34 H 0.3217 0.6086 -0.1667
H35 H 0.2571 0.5504 -0.1868
O5I O 0.3184(4) 0.5322(4) 0.0997(3)
O6I O 0.3545(3) 0.3928(4) 0.0403(4)
O7I O 0.3464(3) 0.4563(4) -0.0897(3)
O8I O 0.2368(5) 0.5678(4) -0.1250(4)
O9I O 0.0962(3) 0.5664(3) -0.0495(3)
O10I O 0.1655(4) 0.5886(3) 0.0821(3)
C8I C 0.3736(12) 0.4798(12) 0.1297(12)
H12I H 0.3549 0.4491 0.1676
H13I H 0.4134 0.5135 0.1469
C9I C 0.4139(8) 0.4389(8) 0.0715(8)
H14I H 0.4351 0.4714 0.0360
H15I H 0.4560 0.4084 0.0893
C10I C 0.3802(6) 0.3525(6) -0.0182(8)
H16I H 0.3372 0.3229 -0.0355
C11I C 0.4042(11) 0.3979(7) -0.0768(10)
H18I H 0.4520 0.4225 -0.0634
H19I H 0.4136 0.3682 -0.1180
C12I C 0.3613(15) 0.5089(11) -0.1456(11)
H20I H 0.3402 0.4844 -0.1863
H21I H 0.4167 0.5143 -0.1528
C13I C 0.3182(10) 0.5804(12) -0.1331(11)
H22I H 0.3426 0.6091 -0.0964
H23I H 0.3240 0.6075 -0.1763
C14I C 0.1913(11) 0.6323(14) -0.1108(15)
H24I H 0.1973 0.6636 -0.1516
H25I H 0.2115 0.6598 -0.0714
C15I C 0.1094(8) 0.6185(6) -0.1038(7)
H26I H 0.0823 0.6648 -0.0931
H27I H 0.0877 0.5986 -0.1463
C16I C 0.0568(5) 0.5929(6) 0.0115(16)
H28I H 0.0377 0.5512 0.0390
C17I C 0.1054(7) 0.6387(6) 0.0530(7)
H30I H 0.1296 0.6770 0.0246
H31I H 0.0765 0.6632 0.0896
C18I C 0.2275(10) 0.6311(14) 0.1153(13)
H32I H 0.2072 0.6672 0.1482
H33I H 0.2520 0.6588 0.0780
C19I C 0.2807(11) 0.5771(11) 0.1485(9)
H34I H 0.3217 0.6086 0.1667
H35I H 0.2571 0.5504 0.1868
N1 N 0.20922(18) 0.45691(17) 0.0000
H1 H 0.2374 0.4610 0.0363
H2 H 0.1753 0.4929 0.0000
C1 C 0.1691(2) 0.3826(2) 0.0000
C2 C 0.15139(15) 0.34939(16) 0.06411(14)
C3 C 0.0968(3) 0.2440(2) 0.0000
H3 H 0.0728 0.1966 0.0000
C4 C 0.11440(17) 0.27875(17) 0.06196(17)
H4 H 0.1014 0.2547 0.1037
C5 C 0.1690(2) 0.38579(18) 0.13432(16)
H5 H 0.1999 0.4318 0.1259
C6 C 0.2174(2) 0.3327(2) 0.18108(19)
H6 H 0.2651 0.3194 0.1576
H7 H 0.1879 0.2875 0.1907
H8 H 0.2295 0.3580 0.2242
C7 C 0.0932(3) 0.4091(2) 0.1711(2)
H9 H 0.0636 0.4420 0.1411
H10 H 0.1056 0.4352 0.2137
H11 H 0.0629 0.3646 0.1815
H1I H 0.2374 0.4610 -0.0363
C2I C 0.15139(15) 0.34939(16) -0.06411(14)
C4I C 0.11440(17) 0.27875(17) -0.06196(17)
H4I H 0.1014 0.2547 -0.1037
C5I C 0.1690(2) 0.38579(18) -0.13432(16)
H5I H 0.1999 0.4318 -0.1259
C6I C 0.2174(2) 0.3327(2) -0.18108(19)
H6I H 0.2651 0.3194 -0.1576
H7I H 0.1879 0.2875 -0.1907
H8I H 0.2295 0.3580 -0.2242
C7I C 0.0932(3) 0.4091(2) -0.1711(2)
H9I H 0.0636 0.4420 -0.1411
H10I H 0.1056 0.4352 -0.2137
H11I H 0.0629 0.3646 -0.1815
loop_
_geom_bond_atom_site_label_1
_geom_bond_atom_site_label_2
_geom_bond_site_symmetry_1
_geom_bond_site_symmetry_2
N1 H1 1_555 1_555
H2 N1 1_555 1_555
C1 N1 1_555 1_555
C2 C1 1_555 1_555
C3 H3 1_555 1_555
C4 C2 1_555 1_555
H4 C4 1_555 1_555
C5 C2 1_555 1_555
H5 C5 1_555 1_555
C6 C5 1_555 1_555
H6 C6 1_555 1_555
H7 C6 1_555 1_555
H8 C6 1_555 1_555
C7 C5 1_555 1_555
H9 C7 1_555 1_555
H10 C7 1_555 1_555
H11 C7 1_555 1_555
Cl1 O1 1_555 1_555
O1 O2F 1_555 1_555
O2 Cl1 1_555 1_555
O3 Cl1 1_555 1_555
O4 Cl1 1_555 1_555
O5 C19 1_555 1_555
O6 C9 1_555 1_555
O7 C11 1_555 1_555
O8 C13 1_555 1_555
O9 C15 1_555 1_555
O10 C17 1_555 1_555
C8 H12 1_555 1_555
H12 C12I 1_555 1_555
H13 C8 1_555 1_555
C9 C8 1_555 1_555
H14 C9 1_555 1_555
H15 C9 1_555 1_555
C10 H16 1_555 1_555
H16 O6I 1_555 1_555
H17 C10 1_555 1_555
C11 C10 1_555 1_555
H18 C11 1_555 1_555
H19 C11 1_555 1_555
C12 H20 1_555 1_555
H20 C8I 1_555 1_555
H21 C12 1_555 1_555
C13 C12 1_555 1_555
H22 C13 1_555 1_555
H23 C13 1_555 1_555
C14 O8 1_555 1_555
H24 C14 1_555 1_555
H25 C14 1_555 1_555
C15 C14 1_555 1_555
H26 C15 1_555 1_555
H27 C15 1_555 1_555
C16 O9 1_555 1_555
H28 C16 1_555 1_555
H29 C16 1_555 1_555
C17 C16 1_555 1_555
H30 C17 1_555 1_555
H31 C17 1_555 1_555
C18 O10 1_555 1_555
H32 C18 1_555 1_555
H33 C18 1_555 1_555
C19 C18 1_555 1_555
H34 C19 1_555 1_555
H35 C19 1_555 1_555
H1I N1 1_555 1_555
C2I C1 1_555 1_555
C4I C3 1_555 1_555
H4I C4I 1_555 1_555
C5I C2I 1_555 1_555
H5I C5I 1_555 1_555
C6I C5I 1_555 1_555
H6I C6I 1_555 1_555
H7I C6I 1_555 1_555
H8I C6I 1_555 1_555
C7I C5I 1_555 1_555
H9I C7I 1_555 1_555
H10I C7I 1_555 1_555
H11I C7I 1_555 1_555
O1F Cl1 1_555 1_555
O2F Cl1 1_555 1_555
O3F Cl1 1_555 1_555
O4F Cl1 1_555 1_555
O5I O7 1_555 1_555
O6I O6 1_555 1_555
O7I O5 1_555 1_555
O8I O5 1_555 1_555
O9I O10 1_555 1_555
O10I O8 1_555 1_555
C8I O7 1_555 1_555
H12I C12 1_555 1_555
H13I C12 1_555 1_555
C9I O7 1_555 1_555
H14I C9I 1_555 1_555
H15I C11 1_555 1_555
C10I C10 1_555 1_555
H16I O6 1_555 1_555
C11I O6 1_555 1_555
H18I C9 1_555 1_555
H19I C11I 1_555 1_555
C12I O5 1_555 1_555
H20I C8 1_555 1_555
H21I C8 1_555 1_555
C13I O5 1_555 1_555
H22I C13I 1_555 1_555
H23I C19 1_555 1_555
C14I O10 1_555 1_555
H24I C18 1_555 1_555
H25I C18 1_555 1_555
C15I O10 1_555 1_555
H26I C17 1_555 1_555
H27I C15I 1_555 1_555
C16I O9 1_555 1_555
H28I O9 1_555 1_555
C17I O9 1_555 1_555
H30I C17I 1_555 1_555
H31I C15 1_555 1_555
C18I O8 1_555 1_555
H32I C14 1_555 1_555
H33I C14 1_555 1_555
C19I O8 1_555 1_555
H34I C13 1_555 1_555
H35I O8 1_555 1_555
C3 C4 1_555 1_555
O1 O4F 1_555 1_555
O2 O1F 1_555 1_555
O2 O3F 1_555 1_555
O2 O4F 1_555 1_555
O3 O2F 1_555 1_555
O3 O3F 1_555 1_555
O4 O1F 1_555 1_555
O4 O2F 1_555 1_555
O6 O7I 1_555 1_555
O7 O6I 1_555 1_555
O8 O5I 1_555 1_555
O9 O10I 1_555 1_555
O10 O8I 1_555 1_555
C8 O7I 1_555 1_555
C8 C12I 1_555 1_555
H13 C12I 1_555 1_555
C9 O7I 1_555 1_555
C9 C11I 1_555 1_555
H15 C11I 1_555 1_555
H17 C10I 1_555 1_555
C11 O6I 1_555 1_555
C11 C9I 1_555 1_555
H18 C9I 1_555 1_555
C12 O5I 1_555 1_555
C12 C8I 1_555 1_555
H21 C8I 1_555 1_555
C13 O5I 1_555 1_555
C13 C19I 1_555 1_555
H23 C19I 1_555 1_555
C14 O10I 1_555 1_555
C14 C18I 1_555 1_555
H24 C18I 1_555 1_555
H25 C18I 1_555 1_555
C15 O10I 1_555 1_555
C15 C17I 1_555 1_555
H26 C17I 1_555 1_555
C16 O9I 1_555 1_555
C16 H28I 1_555 1_555
C16 C17I 1_555 1_555
H28 O9I 1_555 1_555
H28 C16I 1_555 1_555
H29 C16I 1_555 1_555
C17 O9I 1_555 1_555
C17 C15I 1_555 1_555
C17 C16I 1_555 1_555
H31 C15I 1_555 1_555
C18 O8I 1_555 1_555
C18 C14I 1_555 1_555
H32 C14I 1_555 1_555
H33 C14I 1_555 1_555
C19 O8I 1_555 1_555
C19 C13I 1_555 1_555
H34 C13I 1_555 1_555
H35 O8I 1_555 1_555
C2I C4I 1_555 1_555
O5I C19I 1_555 1_555
O6I C9I 1_555 1_555
O7I C11I 1_555 1_555
O8I C13I 1_555 1_555
O8I C14I 1_555 1_555
O9I C15I 1_555 1_555
O9I C16I 1_555 1_555
O10I C17I 1_555 1_555
O10I C18I 1_555 1_555
C8I H12I 1_555 1_555
C8I H13I 1_555 1_555
C8I C9I 1_555 1_555
C9I H15I 1_555 1_555
C10I H16I 1_555 1_555
C10I C11I 1_555 1_555
C11I H18I 1_555 1_555
C12I H20I 1_555 1_555
C12I H21I 1_555 1_555
C12I C13I 1_555 1_555
C13I H23I 1_555 1_555
C14I H24I 1_555 1_555
C14I H25I 1_555 1_555
C14I C15I 1_555 1_555
C15I H26I 1_555 1_555
C16I H28I 1_555 1_555
C16I C17I 1_555 1_555
C17I H31I 1_555 1_555
C18I H32I 1_555 1_555
C18I H33I 1_555 1_555
C18I C19I 1_555 1_555
C19I H34I 1_555 1_555
C19I H35I 1_555 1_555

#END
