
#######################################################################
#
#                 Cambridge Crystallographic Data Centre
#                                CCDC 
#
#######################################################################
#
# If this CIF has been generated from an entry in the Cambridge 
# Structural Database, then it will include bibliographic, chemical, 
# crystal, experimental, refinement or atomic coordinate data resulting 
# from the CCDC's data processing and validation procedures.
#
#######################################################################

data_NIWLUC
_chemical_formula_moiety         'C52 H44 Ca2 N12 O6,3(C2 H3 N1),2(H2 O1)'
_chemical_name_systematic        
'bis(\m-N-(pyridin-2-ylmethylene)benzenecarbohydrazonato)-diaqua-bis(N-(pyridin-2-ylmethylene)benzenecarbohydrazonato)-di-calcium acetonitrile solvate dihydrate'
_symmetry_cell_setting           triclinic
_symmetry_space_group_name_H-M   'P -1'
_symmetry_Int_Tables_number      2
_space_group_name_Hall           '-P 1'
loop_
_symmetry_equiv_pos_site_id
_symmetry_equiv_pos_as_xyz
1 x,y,z
2 -x,-y,-z
_cell_length_a                   12.8935(13)
_cell_length_b                   14.4392(14)
_cell_length_c                   18.0468(18)
_cell_angle_alpha                92.810(2)
_cell_angle_beta                 107.021(2)
_cell_angle_gamma                114.714(2)
_cell_volume                     2860.99
_exptl_crystal_colour            yellow
_exptl_crystal_description       plate
_cell_formula_units_Z            2
loop_
_atom_site_label
_atom_site_type_symbol
_atom_site_fract_x
_atom_site_fract_y
_atom_site_fract_z
C1 C 1.2451(5) 1.1669(4) 0.7840(3)
H1 H 1.2142 1.1673 0.8257
C2 C 1.3606(5) 1.2436(5) 0.7940(4)
H2 H 1.4076 1.2945 0.8415
C3 C 1.4055(5) 1.2443(4) 0.7333(4)
H3 H 1.4833 1.2970 0.7375
C4 C 1.3355(5) 1.1669(4) 0.6665(3)
H4 H 1.3651 1.1649 0.6243
C5 C 1.2222(5) 1.0927(4) 0.6616(3)
C6 C 1.1471(5) 1.0106(4) 0.5921(3)
H5 H 1.1742 1.0104 0.5485
C7 C 0.8666(5) 0.8040(4) 0.5209(3)
C8 C 0.7873(5) 0.7121(4) 0.4551(3)
C9 C 0.8288(6) 0.6828(5) 0.3992(3)
H6 H 0.9113 0.7213 0.4030
C10 C 0.7509(8) 0.5981(5) 0.3383(4)
H7 H 0.7800 0.5792 0.3003
C11 C 0.6316(8) 0.5409(5) 0.3321(4)
H8 H 0.5783 0.4828 0.2899
C12 C 0.5901(6) 0.5682(5) 0.3873(4)
H9 H 0.5079 0.5286 0.3834
C13 C 0.6672(6) 0.6529(4) 0.4484(4)
H10 H 0.6374 0.6708 0.4863
C14 C 1.0300(5) 0.7577(4) 0.7177(3)
H11 H 1.0074 0.7482 0.6618
C15 C 1.0634(5) 0.6878(4) 0.7544(4)
H12 H 1.0650 0.6325 0.7247
C16 C 1.0940(5) 0.7000(4) 0.8343(4)
H13 H 1.1165 0.6526 0.8611
C17 C 1.0922(5) 0.7812(4) 0.8763(3)
H14 H 1.1140 0.7909 0.9322
C18 C 1.0578(5) 0.8488(4) 0.8351(3)
C19 C 1.0539(5) 0.9361(4) 0.8766(3)
H15 H 1.0785 0.9502 0.9326
C20 C 0.9635(5) 1.1202(4) 0.8277(3)
C21 C 0.9760(5) 1.2228(4) 0.8613(3)
C22 C 1.0046(5) 1.2549(4) 0.9412(3)
H16 H 1.0121 1.2096 0.9767
C23 C 1.0222(6) 1.3531(5) 0.9695(4)
H17 H 1.0418 1.3750 1.0244
C24 C 1.0115(6) 1.4195(5) 0.9185(4)
H18 H 1.0247 1.4870 0.9385
C25 C 0.9820(5) 1.3881(4) 0.8389(4)
H19 H 0.9748 1.4338 0.8037
C26 C 0.9625(5) 1.2887(4) 0.8102(3)
H20 H 0.9398 1.2659 0.7550
C27 C 0.6693(5) 1.1990(4) 0.7983(3)
H21 H 0.6677 1.2253 0.7510
C28 C 0.6664(5) 1.2564(4) 0.8605(3)
H22 H 0.6663 1.3217 0.8564
C29 C 0.6636(5) 1.2179(4) 0.9277(3)
H23 H 0.6584 1.2546 0.9705
C30 C 0.6687(5) 1.1247(4) 0.9324(3)
H24 H 0.6676 1.0964 0.9787
C31 C 0.6753(5) 1.0731(4) 0.8687(3)
C32 C 0.6887(5) 0.9781(4) 0.8743(3)
H25 H 0.6887 0.9494 0.9206
C33 C 0.7355(5) 0.8109(4) 0.7652(3)
C34 C 0.7373(5) 0.7074(4) 0.7627(3)
C35 C 0.7354(5) 0.6558(4) 0.8254(4)
H26 H 0.7342 0.6865 0.8727
C36 C 0.7353(6) 0.5599(5) 0.8196(4)
H27 H 0.7334 0.5247 0.8627
C37 C 0.7381(5) 0.5153(5) 0.7517(4)
H28 H 0.7385 0.4496 0.7479
C38 C 0.7402(5) 0.5656(4) 0.6895(4)
H29 H 0.7421 0.5345 0.6426
C39 C 0.7397(5) 0.6615(4) 0.6944(3)
H30 H 0.7411 0.6958 0.6509
C40 C 0.4170(5) 0.7784(4) 0.6868(3)
H31 H 0.4752 0.7635 0.7233
C41 C 0.2968(5) 0.7067(4) 0.6641(3)
H32 H 0.2734 0.6441 0.6840
C42 C 0.2116(5) 0.7273(4) 0.6123(3)
H33 H 0.1276 0.6798 0.5958
C43 C 0.2506(5) 0.8187(4) 0.5844(3)
H34 H 0.1932 0.8345 0.5481
C44 C 0.3725(5) 0.8868(4) 0.6094(3)
C45 C 0.4157(5) 0.9829(4) 0.5802(3)
H35 H 0.3595 0.9992 0.5431
C46 C 0.6861(5) 1.1848(4) 0.5964(3)
C47 C 0.7399(5) 1.2883(4) 0.5745(3)
C48 C 0.6710(5) 1.3314(4) 0.5301(3)
H36 H 0.5847 1.2956 0.5132
C49 C 0.7282(7) 1.4275(5) 0.5104(3)
H37 H 0.6803 1.4562 0.4792
C50 C 0.8529(6) 1.4813(5) 0.5354(4)
H38 H 0.8906 1.5469 0.5216
C51 C 0.9228(6) 1.4403(4) 0.5802(4)
H39 H 1.0091 1.4773 0.5980
C52 C 0.8660(5) 1.3444(4) 0.5991(3)
H40 H 0.9146 1.3160 0.6298
N1 N 1.1752(4) 1.0928(3) 0.7199(3)
N2 N 1.0446(4) 0.9384(3) 0.5890(2)
N3 N 0.9796(4) 0.8607(3) 0.5217(2)
N4 N 1.0278(4) 0.8374(3) 0.7560(3)
N5 N 1.0166(4) 0.9933(3) 0.8355(3)
N6 N 1.0201(4) 1.0785(3) 0.8775(3)
N7 N 0.6742(4) 1.1086(3) 0.8011(3)
N8 N 0.7005(4) 0.9336(3) 0.8161(2)
N9 N 0.7116(4) 0.8427(3) 0.8259(2)
N10 N 0.4578(4) 0.8674(3) 0.6613(3)
N11 N 0.5293(4) 1.0456(3) 0.6044(2)
N12 N 0.5647(4) 1.1373(3) 0.5753(2)
O1 O 0.8221(3) 0.8235(3) 0.5700(2)
O2 O 0.9056(3) 1.0844(3) 0.7539(2)
O3 O 0.7542(3) 0.8592(3) 0.7095(2)
O4 O 0.7565(3) 1.1488(3) 0.6316(2)
O5 O 0.9186(3) 1.0769(3) 0.6010(2)
O6 O 0.6362(3) 0.8921(3) 0.5625(2)
Ca1 Ca 0.94717(10) 0.95874(8) 0.68688(6)
Ca2 Ca 0.68547(10) 0.99677(8) 0.68880(6)
H41 H 0.8805 1.1095 0.6151
H42 H 0.9363 1.0852 0.5604
H43 H 0.6802 0.8512 0.5706
H44 H 0.5761 0.8885 0.5208
C53 C 0.6119(6) 0.0926(5) 0.1423(4)
C54 C 0.6472(6) 0.0361(5) 0.2013(4)
H45 H 0.5784 -0.0037 0.2182
H46 H 0.7161 0.0854 0.2469
H47 H 0.6709 -0.0116 0.1783
N13 N 0.5833(5) 0.1362(5) 0.0968(4)
C55 C 0.6438(8) 0.3875(6) 0.1521(4)
C56 C 0.5143(6) 0.3350(6) 0.1113(4)
H48 H 0.4815 0.3853 0.1098
H49 H 0.4763 0.2811 0.1391
H50 H 0.4971 0.3029 0.0572
N14 N 0.7471(6) 0.4309(5) 0.1857(4)
C57 C 0.6479(6) 0.5144(6) 0.0058(5)
C58 C 0.7035(6) 0.6036(5) 0.0695(4)
H51 H 0.6502 0.5942 0.1005
H52 H 0.7158 0.6665 0.0474
H53 H 0.7821 0.6106 0.1036
N15 N 0.6040(6) 0.4440(5) -0.0430(4)
O7 O 0.2395(3) 0.1806(3) 1.0075(2)
H54 H 0.1616 0.1415 0.9882
H55 H 0.2587 0.1825 1.0579
O8 O 0.3691(5) 0.0963(5) 0.9489(3)
H56 H 0.3274 0.1215 0.9681
H57 H 0.4300 0.1003 0.9884
loop_
_geom_bond_atom_site_label_1
_geom_bond_atom_site_label_2
_geom_bond_site_symmetry_1
_geom_bond_site_symmetry_2
C1 H1 1_555 1_555
C2 C1 1_555 1_555
H2 C2 1_555 1_555
C3 C2 1_555 1_555
H3 C3 1_555 1_555
C4 C3 1_555 1_555
H4 C4 1_555 1_555
C5 C4 1_555 1_555
C6 C5 1_555 1_555
H5 C6 1_555 1_555
C7 C8 1_555 1_555
C8 C9 1_555 1_555
C9 H6 1_555 1_555
C10 C9 1_555 1_555
H7 C10 1_555 1_555
C11 C10 1_555 1_555
H8 C11 1_555 1_555
C12 C11 1_555 1_555
H9 C12 1_555 1_555
C13 C8 1_555 1_555
H10 C13 1_555 1_555
C14 H11 1_555 1_555
C15 C14 1_555 1_555
H12 C15 1_555 1_555
C16 C15 1_555 1_555
H13 C16 1_555 1_555
C17 C16 1_555 1_555
H14 C17 1_555 1_555
C18 C17 1_555 1_555
C19 C18 1_555 1_555
H15 C19 1_555 1_555
C20 C21 1_555 1_555
C21 C22 1_555 1_555
C22 H16 1_555 1_555
C23 C22 1_555 1_555
H17 C23 1_555 1_555
C24 C23 1_555 1_555
H18 C24 1_555 1_555
C25 C24 1_555 1_555
H19 C25 1_555 1_555
C26 C21 1_555 1_555
H20 C26 1_555 1_555
C27 H21 1_555 1_555
C28 C27 1_555 1_555
H22 C28 1_555 1_555
C29 C28 1_555 1_555
H23 C29 1_555 1_555
C30 C29 1_555 1_555
H24 C30 1_555 1_555
C31 C30 1_555 1_555
C32 C31 1_555 1_555
H25 C32 1_555 1_555
C33 C34 1_555 1_555
C34 C35 1_555 1_555
C35 H26 1_555 1_555
C36 C35 1_555 1_555
H27 C36 1_555 1_555
C37 C36 1_555 1_555
H28 C37 1_555 1_555
C38 C37 1_555 1_555
H29 C38 1_555 1_555
C39 C34 1_555 1_555
H30 C39 1_555 1_555
C40 H31 1_555 1_555
C41 C40 1_555 1_555
H32 C41 1_555 1_555
C42 C41 1_555 1_555
H33 C42 1_555 1_555
C43 C42 1_555 1_555
H34 C43 1_555 1_555
C44 C43 1_555 1_555
C45 C44 1_555 1_555
H35 C45 1_555 1_555
C46 C47 1_555 1_555
C47 C48 1_555 1_555
C48 H36 1_555 1_555
C49 C48 1_555 1_555
H37 C49 1_555 1_555
C50 C49 1_555 1_555
H38 C50 1_555 1_555
C51 C50 1_555 1_555
H39 C51 1_555 1_555
C52 C47 1_555 1_555
H40 C52 1_555 1_555
N1 C1 1_555 1_555
N2 C6 1_555 1_555
N3 C7 1_555 1_555
N4 C14 1_555 1_555
N5 C19 1_555 1_555
N6 C20 1_555 1_555
N7 C27 1_555 1_555
N8 C32 1_555 1_555
N9 C33 1_555 1_555
N10 C40 1_555 1_555
N11 C45 1_555 1_555
N12 C46 1_555 1_555
O1 C7 1_555 1_555
O2 C20 1_555 1_555
O3 C33 1_555 1_555
O4 C46 1_555 1_555
O5 Ca1 1_555 1_555
O6 Ca2 1_555 1_555
Ca1 N1 1_555 1_555
Ca2 N7 1_555 1_555
H41 O5 1_555 1_555
H42 O5 1_555 1_555
H43 O6 1_555 1_555
H44 O6 1_555 1_555
C53 C54 1_555 1_555
C54 H45 1_555 1_555
H46 C54 1_555 1_555
H47 C54 1_555 1_555
N13 C53 1_555 1_555
C55 C56 1_555 1_555
C56 H48 1_555 1_555
H49 C56 1_555 1_555
H50 C56 1_555 1_555
N14 C55 1_555 1_555
C57 C58 1_555 1_555
C58 H51 1_555 1_555
H52 C58 1_555 1_555
H53 C58 1_555 1_555
N15 C57 1_555 1_555
O7 H54 1_555 1_555
H55 O7 1_555 1_555
O8 H56 1_555 1_555
H57 O8 1_555 1_555
C5 N1 1_555 1_555
C12 C13 1_555 1_555
C18 N4 1_555 1_555
C25 C26 1_555 1_555
C31 N7 1_555 1_555
C38 C39 1_555 1_555
C44 N10 1_555 1_555
C51 C52 1_555 1_555
N2 N3 1_555 1_555
N2 Ca1 1_555 1_555
N4 Ca1 1_555 1_555
N5 N6 1_555 1_555
N5 Ca1 1_555 1_555
N8 N9 1_555 1_555
N8 Ca2 1_555 1_555
N10 Ca2 1_555 1_555
N11 N12 1_555 1_555
N11 Ca2 1_555 1_555
O1 Ca1 1_555 1_555
O2 Ca1 1_555 1_555
O2 Ca2 1_555 1_555
O3 Ca1 1_555 1_555
O3 Ca2 1_555 1_555
O4 Ca2 1_555 1_555

#END
