
#######################################################################
#
#                 Cambridge Crystallographic Data Centre
#                                CCDC 
#
#######################################################################
#
# If this CIF has been generated from an entry in the Cambridge 
# Structural Database, then it will include bibliographic, chemical, 
# crystal, experimental, refinement or atomic coordinate data resulting 
# from the CCDC's data processing and validation procedures.
#
#######################################################################

data_NIWLOW
_chemical_formula_moiety         'C33 H30 Ca1 N12 2+,2(Cl1 O4 1-),0.5(C2 H3 N1)'
_chemical_name_systematic        
'tris(2-((2-(pyridin-2-yl)hydrazono)methyl)pyridine)-calcium diperchlorate acetonitrile solvate'
_symmetry_cell_setting           monoclinic
_symmetry_space_group_name_H-M   'C 2/c'
_symmetry_Int_Tables_number      15
_space_group_name_Hall           '-C 2yn'
loop_
_symmetry_equiv_pos_site_id
_symmetry_equiv_pos_as_xyz
1 x,y,z
2 -x,y,1/2-z
3 1/2+x,1/2+y,z
4 1/2-x,1/2+y,1/2-z
5 -x,-y,-z
6 x,-y,1/2+z
7 1/2-x,1/2-y,-z
8 1/2+x,1/2-y,1/2+z
_cell_length_a                   11.208(2)
_cell_length_b                   19.890(4)
_cell_length_c                   18.423(4)
_cell_angle_alpha                90
_cell_angle_beta                 96.346(4)
_cell_angle_gamma                90
_cell_volume                     4081.82
_exptl_crystal_colour            colorless
_exptl_crystal_description       prism
_cell_formula_units_Z            4
_exptl_crystal_recrystallization_method 'diisopropyl ether/methanol'
loop_
_atom_site_label
_atom_site_type_symbol
_atom_site_fract_x
_atom_site_fract_y
_atom_site_fract_z
O1 O 0.6031(4) 0.19247(19) 0.1851(2)
O2 O 0.5832(4) 0.1674(3) 0.0621(2)
O3 O 0.4560(4) 0.1168(2) 0.1380(3)
O4 O 0.4372(3) 0.2326(2) 0.1091(3)
Cl1 Cl 0.51849(9) 0.17728(6) 0.12285(6)
C1 C 0.1639(4) -0.0804(2) 0.4009(3)
H1 H 0.0866 -0.0989 0.4042
C2 C 0.2593(5) -0.1047(3) 0.4484(3)
H2 H 0.2473 -0.1387 0.4831
C3 C 0.3723(4) -0.0779(3) 0.4435(3)
H3 H 0.4395 -0.0931 0.4753
C4 C 0.3859(4) -0.0293(2) 0.3924(3)
H4 H 0.4625 -0.0102 0.3880
C5 C 0.2847(4) -0.0083(2) 0.3469(2)
C6 C 0.2986(3) 0.04284(19) 0.2948(2)
H5 H 0.3760 0.0604 0.2895
C7 C 0.1211(3) 0.14090(18) 0.1616(2)
C8 C 0.1382(4) 0.1966(2) 0.1169(3)
H6 H 0.2143 0.2180 0.1190
C9 C 0.0428(5) 0.2197(2) 0.0701(3)
H7 H 0.0521 0.2572 0.0393
C10 C -0.0674(4) 0.1872(2) 0.0687(3)
H8 H -0.1351 0.2023 0.0373
C11 C -0.0760(4) 0.1327(2) 0.1138(2)
H9 H -0.1514 0.1106 0.1122
C12 C 0.1946(4) -0.0265(2) 0.1082(2)
H10 H 0.1837 0.0203 0.0996
C13 C 0.2743(4) -0.0608(2) 0.0691(2)
H11 H 0.3166 -0.0378 0.0347
C14 C 0.2911(4) -0.1288(2) 0.0810(3)
H12 H 0.3459 -0.1533 0.0553
C15 C 0.2276(4) -0.1604(2) 0.1303(3)
H13 H 0.2374 -0.2072 0.1394
C16 C 0.1479(3) -0.12274(18) 0.1673(2)
N1 N 0.1743(3) -0.03272(17) 0.3509(2)
N2 N 0.2029(3) 0.06604(14) 0.25347(18)
N3 N 0.2188(3) 0.11652(18) 0.2086(2)
H14 H 0.2904 0.1347 0.2082
N4 N 0.0151(3) 0.10865(15) 0.15973(18)
N5 N 0.1317(3) -0.05618(16) 0.15777(19)
N6 N 0.0000 -0.1213(2) 0.2500
Ca1 Ca 0.0000 0.00667(5) 0.2500
H15 H 0.0845 -0.2035 0.2214
N7 N 0.0772(4) -0.15623(18) 0.2146(2)
C12A C -0.1946(4) -0.0265(2) 0.3918(2)
H10A H -0.1837 0.0203 0.4004
C13A C -0.2743(4) -0.0608(2) 0.4309(2)
H11A H -0.3166 -0.0378 0.4653
C14A C -0.2911(4) -0.1288(2) 0.4190(3)
H12A H -0.3459 -0.1533 0.4447
C15A C -0.2276(4) -0.1604(2) 0.3697(3)
H13A H -0.2374 -0.2072 0.3606
C16A C -0.1479(3) -0.12274(18) 0.3327(2)
N5A N -0.1317(3) -0.05618(16) 0.34223(19)
H15A H -0.0845 -0.2035 0.2786
N7A N -0.0772(4) -0.15623(18) 0.2854(2)
C1A C -0.1639(4) -0.0804(2) 0.0991(3)
H1A H -0.0866 -0.0989 0.0958
C2A C -0.2593(5) -0.1047(3) 0.0516(3)
H2A H -0.2473 -0.1387 0.0169
C3A C -0.3723(4) -0.0779(3) 0.0565(3)
H3A H -0.4395 -0.0931 0.0247
C4A C -0.3859(4) -0.0293(2) 0.1076(3)
H4A H -0.4625 -0.0102 0.1120
C5A C -0.2847(4) -0.0083(2) 0.1531(2)
C6A C -0.2986(3) 0.04284(19) 0.2052(2)
H5A H -0.3760 0.0604 0.2105
C7A C -0.1211(3) 0.14090(18) 0.3384(2)
C8A C -0.1382(4) 0.1966(2) 0.3831(3)
H6A H -0.2143 0.2180 0.3810
C9A C -0.0428(5) 0.2197(2) 0.4299(3)
H7A H -0.0521 0.2572 0.4607
C10A C 0.0674(4) 0.1872(2) 0.4313(3)
H8A H 0.1351 0.2023 0.4627
C11A C 0.0760(4) 0.1327(2) 0.3862(2)
H9A H 0.1514 0.1106 0.3878
N1A N -0.1743(3) -0.03272(17) 0.1491(2)
N2A N -0.2029(3) 0.06604(14) 0.24653(18)
N3A N -0.2188(3) 0.11652(18) 0.2914(2)
H14A H -0.2904 0.1347 0.2918
N4A N -0.0151(3) 0.10865(15) 0.34027(18)
C17? C 0.0772(4) -0.15623(18) 0.2146(2)
loop_
_geom_bond_atom_site_label_1
_geom_bond_atom_site_label_2
_geom_bond_site_symmetry_1
_geom_bond_site_symmetry_2
C1 H1 1_555 1_555
C2 C1 1_555 1_555
H2 C2 1_555 1_555
C3 C2 1_555 1_555
H3 C3 1_555 1_555
C4 C3 1_555 1_555
H4 C4 1_555 1_555
C5 C4 1_555 1_555
C6 C5 1_555 1_555
H5 C6 1_555 1_555
C7 C8 1_555 1_555
C8 H6 1_555 1_555
C9 C8 1_555 1_555
H7 C9 1_555 1_555
C10 C9 1_555 1_555
H8 C10 1_555 1_555
C11 C10 1_555 1_555
H9 C11 1_555 1_555
C12 H10 1_555 1_555
C13 C12 1_555 1_555
H11 C13 1_555 1_555
C14 C13 1_555 1_555
H12 C14 1_555 1_555
C15 C14 1_555 1_555
H13 C15 1_555 1_555
C16 C15 1_555 1_555
N1 C1 1_555 1_555
N2 C6 1_555 1_555
N3 C7 1_555 1_555
H14 N3 1_555 1_555
N4 C7 1_555 1_555
N5 C12 1_555 1_555
N6 Ca1 1_555 1_555
Ca1 N1 1_555 1_555
H15 N7 1_555 1_555
N7 C16 1_555 1_555
O1 Cl1 1_555 1_555
O2 Cl1 1_555 1_555
O3 Cl1 1_555 1_555
O4 Cl1 1_555 1_555
C12A H10A 1_555 1_555
C13A C12A 1_555 1_555
H11A C13A 1_555 1_555
C14A C13A 1_555 1_555
H12A C14A 1_555 1_555
C15A C14A 1_555 1_555
H13A C15A 1_555 1_555
C16A C15A 1_555 1_555
N5A Ca1 1_555 1_555
H15A N7A 1_555 1_555
N7A N6 1_555 1_555
C1A H1A 1_555 1_555
C2A C1A 1_555 1_555
H2A C2A 1_555 1_555
C3A C2A 1_555 1_555
H3A C3A 1_555 1_555
C4A C3A 1_555 1_555
H4A C4A 1_555 1_555
C5A C4A 1_555 1_555
C6A C5A 1_555 1_555
H5A C6A 1_555 1_555
C7A C8A 1_555 1_555
C8A H6A 1_555 1_555
C9A C8A 1_555 1_555
H7A C9A 1_555 1_555
C10A C9A 1_555 1_555
H8A C10A 1_555 1_555
C11A C10A 1_555 1_555
H9A C11A 1_555 1_555
N1A Ca1 1_555 1_555
N2A Ca1 1_555 1_555
N3A C7A 1_555 1_555
H14A N3A 1_555 1_555
N4A Ca1 1_555 1_555
C5 N1 1_555 1_555
C11 N4 1_555 1_555
C16 N5 1_555 1_555
N2 N3 1_555 1_555
N2 Ca1 1_555 1_555
N4 Ca1 1_555 1_555
N5 Ca1 1_555 1_555
N6 N7 1_555 1_555
C12A N5A 1_555 1_555
C16A N5A 1_555 1_555
C16A N7A 1_555 1_555
C1A N1A 1_555 1_555
C5A N1A 1_555 1_555
C6A N2A 1_555 1_555
C7A N4A 1_555 1_555
C11A N4A 1_555 1_555
N2A N3A 1_555 1_555

#END
