
#######################################################################
#
#                 Cambridge Crystallographic Data Centre
#                                CCDC 
#
#######################################################################
#
# If this CIF has been generated from an entry in the Cambridge 
# Structural Database, then it will include bibliographic, chemical, 
# crystal, experimental, refinement or atomic coordinate data resulting 
# from the CCDC's data processing and validation procedures.
#
#######################################################################

data_NIWNAK
_chemical_formula_moiety         'C76 H17 N1 O1,C7 H8'
_chemical_name_systematic        
'1-hydrogen-2,3-(acetyl(3-methylphenyl)amino-6-yl)-16-benzyl-[60]fullerene toluene solvate'
_symmetry_cell_setting           orthorhombic
_symmetry_space_group_name_H-M   'P b c a'
_symmetry_Int_Tables_number      61
_space_group_name_Hall           '-P 2ac 2ab'
loop_
_symmetry_equiv_pos_site_id
_symmetry_equiv_pos_as_xyz
1 x,y,z
2 1/2-x,-y,1/2+z
3 1/2+x,1/2-y,-z
4 -x,1/2+y,1/2-z
5 -x,-y,-z
6 1/2+x,y,1/2-z
7 1/2-x,1/2+y,z
8 x,1/2-y,1/2+z
_cell_length_a                   14.8117(3)
_cell_length_b                   22.3284(6)
_cell_length_c                   27.3697(7)
_cell_angle_alpha                90
_cell_angle_beta                 90
_cell_angle_gamma                90
_cell_volume                     9051.75
_exptl_crystal_colour            black
_exptl_crystal_description       block
_cell_formula_units_Z            8
loop_
_atom_site_label
_atom_site_type_symbol
_atom_site_fract_x
_atom_site_fract_y
_atom_site_fract_z
C1 C 0.8295(3) 0.2813(2) 0.88486(18)
C2 C 0.7707(3) 0.3044(2) 0.84420(17)
C3 C 0.7405(6) 0.2804(5) 0.7972(4)
C4 C 0.7620(6) 0.2212(4) 0.7900(3)
C5 C 0.8170(4) 0.1887(3) 0.8273(2)
H1 H 0.8727 0.1798 0.8094
C6 C 0.8532(3) 0.2111(2) 0.87696(17)
C7 C 0.8121(4) 0.1758(3) 0.92000(18)
C8 C 0.7765(6) 0.2250(5) 0.9513(3)
C9 C 0.7742(3) 0.2873(2) 0.93151(16)
C10 C 0.7074(3) 0.3290(2) 0.93790(18)
C11 C 0.6769(3) 0.3723(2) 0.8986(2)
C12 C 0.7046(4) 0.3459(2) 0.8500(2)
C13 C 0.6352(3) 0.3441(2) 0.81237(18)
C14 C 0.6531(4) 0.2992(3) 0.77652(19)
C15 C 0.5817(6) 0.2661(3) 0.7565(2)
C16 C 0.6018(6) 0.2047(3) 0.7489(2)
C17 C 0.6882(5) 0.1872(4) 0.7636(2)
C18 C 0.7012(4) 0.1310(4) 0.7870(2)
C19 C 0.7684(4) 0.1305(3) 0.8256(2)
C20 C 0.7459(4) 0.0967(3) 0.8658(3)
C21 C 0.7683(3) 0.1188(3) 0.9114(3)
C22 C 0.7011(4) 0.1042(3) 0.9466(3)
C23 C 0.6851(6) 0.1493(3) 0.9821(3)
C24 C 0.7105(5) 0.2133(4) 0.9870(3)
C25 C 0.6495(4) 0.2575(3) 0.99624(17)
C26 C 0.6389(3) 0.3124(2) 0.97299(16)
C27 C 0.5493(4) 0.3323(2) 0.95833(17)
C28 C 0.5749(6) 0.3651(4) 0.9129(4)
C29 C 0.5116(6) 0.3625(4) 0.8749(4)
C30 C 0.5458(4) 0.3549(2) 0.8284(2)
C31 C 0.4736(4) 0.3203(3) 0.8080(3)
C32 C 0.4925(6) 0.2768(3) 0.7719(3)
C33 C 0.4636(7) 0.2163(5) 0.7668(4)
C34 C 0.5252(4) 0.1674(3) 0.7589(2)
C35 C 0.5385(4) 0.1114(3) 0.7824(2)
C36 C 0.6260(5) 0.0925(3) 0.7970(2)
C37 C 0.5979(7) 0.0611(5) 0.8416(4)
C38 C 0.6646(6) 0.0647(4) 0.8795(4)
C39 C 0.6295(4) 0.0702(2) 0.9278(2)
C40 C 0.5406(4) 0.0801(2) 0.9442(2)
C41 C 0.5215(5) 0.1249(3) 0.9794(2)
C42 C 0.5931(8) 0.1586(3) 0.9986(2)
C43 C 0.5729(6) 0.2208(3) 1.0057(2)
C44 C 0.4859(6) 0.2393(4) 0.9919(3)
C45 C 0.4753(4) 0.2936(4) 0.9700(3)
C46 C 0.4098(3) 0.2938(3) 0.9318(3)
C47 C 0.4325(4) 0.3296(3) 0.8890(3)
C48 C 0.4088(4) 0.3082(3) 0.8438(3)
C49 C 0.3698(3) 0.2493(3) 0.8367(2)
C50 C 0.3948(6) 0.2016(5) 0.8021(3)
C51 C 0.4016(4) 0.1394(3) 0.8237(2)
C52 C 0.4704(5) 0.0959(3) 0.8182(3)
C53 C 0.5074(4) 0.0654(3) 0.8590(3)
C54 C 0.4726(4) 0.0778(2) 0.9053(2)
C55 C 0.4039(4) 0.1215(3) 0.9124(2)
C56 C 0.4280(7) 0.1492(4) 0.9586(4)
C57 C 0.4112(6) 0.2110(4) 0.9659(4)
C58 C 0.3699(3) 0.2351(3) 0.9264(2)
C59 C 0.3497(3) 0.2151(3) 0.8785(2)
C60 C 0.3679(3) 0.1510(3) 0.8714(2)
C61 C 0.9211(3) 0.3107(2) 0.8858(2)
C62 C 0.9411(4) 0.3708(3) 0.8906(3)
H2 H 0.8950 0.3983 0.8960
C63 C 1.0297(4) 0.3901(3) 0.8872(3)
H3 H 1.0432 0.4304 0.8918
C64 C 1.0984(3) 0.3498(3) 0.8771(2)
C65 C 1.1935(4) 0.3710(4) 0.8723(3)
H4 H 1.2190 0.3558 0.8425
H5 H 1.2283 0.3569 0.8995
H6 H 1.1945 0.4140 0.8717
C66 C 1.0786(3) 0.2895(3) 0.87232(18)
H7 H 1.1243 0.2623 0.8652
C67 C 0.9901(3) 0.2696(2) 0.87822(17)
N1 N 0.9540(3) 0.21081(19) 0.87697(14)
C68 C 0.9985(4) 0.1566(3) 0.8777(2)
O1 O 0.9547(3) 0.11058(19) 0.87194(19)
C69 C 1.0984(4) 0.1544(3) 0.8871(3)
H8 H 1.1141 0.1160 0.9003
H9 H 1.1144 0.1852 0.9101
H10 H 1.1303 0.1608 0.8571
C70 C 0.7090(4) 0.4386(2) 0.9046(3)
H11 H 0.7738 0.4401 0.8994
H12 H 0.6809 0.4626 0.8793
C71 C 0.6885(4) 0.4669(2) 0.9536(3)
C72 C 0.6173(4) 0.5062(2) 0.9592(3)
H13 H 0.5794 0.5137 0.9329
C73 C 0.6013(5) 0.5344(3) 1.0031(4)
H14 H 0.5536 0.5612 1.0060
C74 C 0.6555(6) 0.5230(3) 1.0425(4)
H15 H 0.6447 0.5417 1.0723
C75 C 0.7256(6) 0.4839(3) 1.0376(3)
H16 H 0.7623 0.4755 1.0643
C76 C 0.7425(4) 0.4563(3) 0.9929(3)
H17 H 0.7913 0.4304 0.9898
C89 C 0.6004(4) -0.0049(3) 0.2796(3)
H19 H 0.6365 0.0121 0.2540
H20 H 0.6024 -0.0478 0.2774
H21 H 0.6236 0.0076 0.3107
C90 C 0.5035(12) 0.0162(6) 0.2743(5)
C91 C 0.4353(12) -0.0004(6) 0.3086(5)
H22 H 0.4524 -0.0216 0.3363
C92 C 0.3454(12) 0.0134(6) 0.3024(5)
H23 H 0.3008 -0.0011 0.3232
C93 C 0.3244(13) 0.0529(7) 0.2604(6)
H24 H 0.2658 0.0657 0.2539
C94 C 0.3924(13) 0.0687(6) 0.2331(6)
H25 H 0.3794 0.0949 0.2076
C95 C 0.4781(11) 0.0519(5) 0.2373(5)
H26 H 0.5205 0.0648 0.2145
C77? C 0.7734(10) 0.2565(7) 0.8085(5)
C78? C 0.7109(9) 0.2491(6) 0.7722(4)
H18? H 0.8683 0.1609 0.9345
C79? C 0.7638(7) 0.1893(5) 0.9649(3)
C80? C 0.7466(10) 0.2474(5) 0.9684(5)
C81? C 0.5163(7) 0.3591(5) 0.9131(3)
C82? C 0.5771(9) 0.3719(6) 0.8796(5)
C83? C 0.4180(9) 0.2390(8) 0.7906(5)
C84? C 0.6614(8) 0.0667(5) 0.8434(5)
C85? C 0.6003(8) 0.0540(6) 0.8791(4)
C86? C 0.4375(8) 0.1792(8) 0.7820(5)
C87? C 0.3969(10) 0.1757(5) 0.9455(5)
C88? C 0.4659(9) 0.1760(6) 0.9835(4)
loop_
_geom_bond_atom_site_label_1
_geom_bond_atom_site_label_2
_geom_bond_site_symmetry_1
_geom_bond_site_symmetry_2
C1 C2 1_555 1_555
C2 C3 1_555 1_555
C3 C4 1_555 1_555
C4 C5 1_555 1_555
C5 H1 1_555 1_555
C6 C1 1_555 1_555
C7 C6 1_555 1_555
C8 C7 1_555 1_555
C9 C1 1_555 1_555
C10 C9 1_555 1_555
C11 C10 1_555 1_555
C12 C2 1_555 1_555
C13 C12 1_555 1_555
C14 C3 1_555 1_555
C15 C14 1_555 1_555
C16 C15 1_555 1_555
C17 C4 1_555 1_555
C18 C17 1_555 1_555
C19 C5 1_555 1_555
C20 C19 1_555 1_555
C21 C7 1_555 1_555
C22 C21 1_555 1_555
C23 C22 1_555 1_555
C24 C8 1_555 1_555
C25 C24 1_555 1_555
C26 C10 1_555 1_555
C27 C26 1_555 1_555
C28 C11 1_555 1_555
C29 C28 1_555 1_555
C30 C13 1_555 1_555
C31 C30 1_555 1_555
C32 C15 1_555 1_555
C33 C32 1_555 1_555
C34 C16 1_555 1_555
C35 C34 1_555 1_555
C36 C18 1_555 1_555
C37 C36 1_555 1_555
C38 C20 1_555 1_555
C39 C22 1_555 1_555
C40 C39 1_555 1_555
C41 C40 1_555 1_555
C42 C23 1_555 1_555
C43 C25 1_555 1_555
C44 C43 1_555 1_555
C45 C27 1_555 1_555
C46 C45 1_555 1_555
C47 C29 1_555 1_555
C48 C31 1_555 1_555
C49 C48 1_555 1_555
C50 C33 1_555 1_555
C51 C50 1_555 1_555
C52 C35 1_555 1_555
C53 C37 1_555 1_555
C54 C40 1_555 1_555
C55 C54 1_555 1_555
C56 C41 1_555 1_555
C57 C44 1_555 1_555
C58 C46 1_555 1_555
C59 C49 1_555 1_555
C60 C51 1_555 1_555
C61 C1 1_555 1_555
C62 C61 1_555 1_555
H2 C62 1_555 1_555
C63 C62 1_555 1_555
H3 C63 1_555 1_555
C64 C63 1_555 1_555
C65 C64 1_555 1_555
H4 C65 1_555 1_555
H5 C65 1_555 1_555
H6 C65 1_555 1_555
C66 C64 1_555 1_555
H7 C66 1_555 1_555
C67 C61 1_555 1_555
N1 C6 1_555 1_555
C68 N1 1_555 1_555
O1 C68 1_555 1_555
C69 C68 1_555 1_555
H8 C69 1_555 1_555
H9 C69 1_555 1_555
H10 C69 1_555 1_555
C70 C11 1_555 1_555
H11 C70 1_555 1_555
H12 C70 1_555 1_555
C71 C70 1_555 1_555
C72 C71 1_555 1_555
H13 C72 1_555 1_555
C73 C72 1_555 1_555
H14 C73 1_555 1_555
C74 C73 1_555 1_555
H15 C74 1_555 1_555
C75 C74 1_555 1_555
H16 C75 1_555 1_555
C76 C71 1_555 1_555
H17 C76 1_555 1_555
C89 H19 1_555 1_555
H20 C89 1_555 1_555
H21 C89 1_555 1_555
C90 C89 1_555 1_555
C91 C90 1_555 1_555
H22 C91 1_555 1_555
C92 C91 1_555 1_555
H23 C92 1_555 1_555
C93 C92 1_555 1_555
H24 C93 1_555 1_555
C94 C93 1_555 1_555
H25 C94 1_555 1_555
C95 C90 1_555 1_555
H26 C95 1_555 1_555
C5 C6 1_555 1_555
C8 C9 1_555 1_555
C11 C12 1_555 1_555
C13 C14 1_555 1_555
C16 C17 1_555 1_555
C18 C19 1_555 1_555
C20 C21 1_555 1_555
C23 C24 1_555 1_555
C25 C26 1_555 1_555
C27 C28 1_555 1_555
C29 C30 1_555 1_555
C31 C32 1_555 1_555
C33 C34 1_555 1_555
C35 C36 1_555 1_555
C37 C38 1_555 1_555
C38 C39 1_555 1_555
C41 C42 1_555 1_555
C42 C43 1_555 1_555
C44 C45 1_555 1_555
C46 C47 1_555 1_555
C47 C48 1_555 1_555
C49 C50 1_555 1_555
C51 C52 1_555 1_555
C52 C53 1_555 1_555
C53 C54 1_555 1_555
C55 C56 1_555 1_555
C55 C60 1_555 1_555
C56 C57 1_555 1_555
C57 C58 1_555 1_555
C58 C59 1_555 1_555
C59 C60 1_555 1_555
C66 C67 1_555 1_555
C67 N1 1_555 1_555
C75 C76 1_555 1_555
C94 C95 1_555 1_555

#END
