
#######################################################################
#
#                 Cambridge Crystallographic Data Centre
#                                CCDC 
#
#######################################################################
#
# If this CIF has been generated from an entry in the Cambridge 
# Structural Database, then it will include bibliographic, chemical, 
# crystal, experimental, refinement or atomic coordinate data resulting 
# from the CCDC's data processing and validation procedures.
#
#######################################################################

data_NIWPEP
_chemical_formula_moiety         'C15 H17 N2 1+,Br1 1-'
_chemical_name_systematic        
'1-(Bicyclo(4.2.0)octa-1(6),2,4-trien-3-yl)-3-(but-3-enyl)imidazolium bromide'
_symmetry_cell_setting           monoclinic
_symmetry_space_group_name_H-M   'P 21/c'
_symmetry_Int_Tables_number      14
_space_group_name_Hall           '-P 2ybc'
loop_
_symmetry_equiv_pos_site_id
_symmetry_equiv_pos_as_xyz
1 x,y,z
2 -x,1/2+y,1/2-z
3 -x,-y,-z
4 x,1/2-y,1/2+z
_cell_length_a                   9.342(3)
_cell_length_b                   11.775(3)
_cell_length_c                   13.695(7)
_cell_angle_alpha                90
_cell_angle_beta                 107.76(3)
_cell_angle_gamma                90
_cell_volume                     1434.68
_exptl_crystal_colour            colorless
_exptl_crystal_description       Block
_cell_formula_units_Z            4
_exptl_crystal_recrystallization_method 'methanol/diethyl ether'
loop_
_atom_site_label
_atom_site_type_symbol
_atom_site_fract_x
_atom_site_fract_y
_atom_site_fract_z
Br1 Br 0.66118(7) 0.64239(5) 0.09316(5)
N1 N 0.2215(4) 0.5236(3) 0.1168(3)
N2 N 0.3774(5) 0.3946(4) 0.1964(3)
C1 C 0.1596(5) 0.6215(4) 0.0546(4)
C2 C 0.0346(6) 0.6742(5) 0.0674(4)
H1 H -0.0101 0.6444 0.1138
C3 C -0.0254(6) 0.7700(5) 0.0128(4)
H2 H -0.1096 0.8056 0.0215
C4 C 0.0439(6) 0.8108(5) -0.0547(4)
C5 C 0.0411(7) 0.9018(5) -0.1342(5)
H3 H 0.0602 0.9781 -0.1065
H4 H -0.0470 0.8995 -0.1942
C6 C 0.1832(7) 0.8406(5) -0.1486(5)
H5 H 0.1669 0.8072 -0.2159
H6 H 0.2742 0.8860 -0.1284
C7 C 0.1696(6) 0.7568(5) -0.0671(4)
C8 C 0.2313(6) 0.6611(4) -0.0145(4)
H7 H 0.3147 0.6251 -0.0240
C9 C 0.3604(5) 0.4861(4) 0.1372(4)
H8 H 0.4347 0.5185 0.1140
C10 C 0.1468(6) 0.4519(5) 0.1661(4)
H9 H 0.0470 0.4580 0.1649
C11 C 0.2442(6) 0.3735(5) 0.2151(4)
H10 H 0.2253 0.3148 0.2550
C12 C 0.5169(7) 0.3289(5) 0.2334(5)
H11 H 0.5421 0.2980 0.1751
H12 H 0.5009 0.2657 0.2743
C13 C 0.6461(7) 0.3988(6) 0.2966(5)
H13 H 0.7326 0.3497 0.3229
H14 H 0.6715 0.4547 0.2525
C14 C 0.6175(8) 0.4578(8) 0.3828(6)
H15 H 0.5856 0.4122 0.4276
C15 C 0.6302(9) 0.5617(9) 0.4043(7)
H16 H 0.6616 0.6119 0.3625
H17 H 0.6082 0.5884 0.4620
loop_
_geom_bond_atom_site_label_1
_geom_bond_atom_site_label_2
_geom_bond_site_symmetry_1
_geom_bond_site_symmetry_2
N1 C1 1_555 1_555
N2 C9 1_555 1_555
C1 C2 1_555 1_555
C2 H1 1_555 1_555
C3 C2 1_555 1_555
H2 C3 1_555 1_555
C4 C3 1_555 1_555
C5 C4 1_555 1_555
H3 C5 1_555 1_555
H4 C5 1_555 1_555
C6 C5 1_555 1_555
H5 C6 1_555 1_555
H6 C6 1_555 1_555
C7 C4 1_555 1_555
C8 C1 1_555 1_555
H7 C8 1_555 1_555
C9 N1 1_555 1_555
H8 C9 1_555 1_555
C10 N1 1_555 1_555
H9 C10 1_555 1_555
C11 N2 1_555 1_555
H10 C11 1_555 1_555
C12 N2 1_555 1_555
H11 C12 1_555 1_555
H12 C12 1_555 1_555
C13 C12 1_555 1_555
H13 C13 1_555 1_555
H14 C13 1_555 1_555
C14 C13 1_555 1_555
H15 C14 1_555 1_555
C15 C14 1_555 1_555
H16 C15 1_555 1_555
H17 C15 1_555 1_555
C6 C7 1_555 1_555
C7 C8 1_555 1_555
C10 C11 1_555 1_555

#END
