
#######################################################################
#
#                 Cambridge Crystallographic Data Centre
#                                CCDC 
#
#######################################################################
#
# If this CIF has been generated from an entry in the Cambridge 
# Structural Database, then it will include bibliographic, chemical, 
# crystal, experimental, refinement or atomic coordinate data resulting 
# from the CCDC's data processing and validation procedures.
#
#######################################################################

data_NIWQEQ
_chemical_formula_moiety         'C26 H22 N2 O3'
_chemical_name_systematic        
"Ethyl 3'-cyano-1'-methyl-2-oxo-4'-phenylspiro(acenaphthene-1,2'-pyrrolidine)-3'-carboxylate"
_symmetry_cell_setting           orthorhombic
_symmetry_space_group_name_H-M   'P 21 21 21'
_symmetry_Int_Tables_number      19
_space_group_name_Hall           'P 2ac 2ab'
loop_
_symmetry_equiv_pos_site_id
_symmetry_equiv_pos_as_xyz
1 x,y,z
2 1/2-x,-y,1/2+z
3 -x,1/2+y,1/2-z
4 1/2+x,1/2-y,-z
_cell_length_a                   7.564(3)
_cell_length_b                   14.549(6)
_cell_length_c                   19.397(8)
_cell_angle_alpha                90
_cell_angle_beta                 90
_cell_angle_gamma                90
_cell_volume                     2134.61
_exptl_crystal_colour            brown
_exptl_crystal_description       prism
_chemical_melting_point          '458 K'
_cell_formula_units_Z            4
_exptl_crystal_recrystallization_method ethanol
loop_
_atom_site_label
_atom_site_type_symbol
_atom_site_fract_x
_atom_site_fract_y
_atom_site_fract_z
O1 O 1.0623(3) 0.94458(13) 0.30244(11)
O2 O 0.5975(3) 0.73612(15) 0.19934(13)
O3 O 0.6641(2) 0.88028(13) 0.22923(11)
N1 N 1.1489(3) 0.74780(15) 0.28010(11)
N2 N 1.0479(4) 0.90974(17) 0.13933(13)
C1 C 0.9708(4) 0.88274(18) 0.32249(14)
C2 C 0.8422(4) 0.88321(19) 0.37975(13)
C3 C 0.7857(4) 0.9520(2) 0.42294(16)
H1 H 0.8282 1.0117 0.4183
C4 C 0.6623(5) 0.9298(3) 0.47409(16)
H2 H 0.6204 0.9760 0.5029
C5 C 0.6013(4) 0.8416(3) 0.48296(15)
H3 H 0.5186 0.8295 0.5173
C6 C 0.6615(4) 0.7694(2) 0.44122(14)
C7 C 0.6195(4) 0.6742(2) 0.44642(15)
H4 H 0.5406 0.6539 0.4799
C8 C 0.6951(4) 0.6131(2) 0.40222(15)
H5 H 0.6690 0.5510 0.4075
C9 C 0.8115(4) 0.63939(19) 0.34877(14)
H6 H 0.8600 0.5955 0.3195
C10 C 0.8515(3) 0.73065(18) 0.34083(13)
C11 C 0.7806(3) 0.79340(18) 0.38829(12)
C12 C 0.9724(3) 0.78274(17) 0.29125(12)
C13 C 1.1399(4) 0.6722(2) 0.23060(15)
H7 H 1.1395 0.6136 0.2543
H8 H 1.2406 0.6740 0.1996
C14 C 0.9672(4) 0.68563(16) 0.19040(13)
H9 H 0.8830 0.6407 0.2088
C15 C 0.9028(3) 0.78135(17) 0.21481(12)
C16 C 1.2531(4) 0.7268(3) 0.34135(17)
H10 H 1.2516 0.7786 0.3720
H11 H 1.3727 0.7136 0.3281
H12 H 1.2035 0.6743 0.3643
C17 C 0.9744(5) 0.67010(18) 0.11349(14)
C18 C 1.1162(6) 0.6991(2) 0.07389(17)
H13 H 1.2091 0.7311 0.0941
C19 C 1.1185(9) 0.6799(3) 0.0032(2)
H14 H 1.2134 0.6990 -0.0238
C20 C 0.9814(10) 0.6332(3) -0.0262(2)
H15 H 0.9847 0.6201 -0.0731
C21 C 0.8409(8) 0.6057(3) 0.0116(2)
H16 H 0.7473 0.5750 -0.0094
C22 C 0.8374(5) 0.6235(2) 0.08185(16)
H17 H 0.7416 0.6037 0.1080
C23 C 0.9873(4) 0.85531(18) 0.17424(14)
C24 C 0.7021(4) 0.79504(19) 0.21206(14)
C25 C 0.4781(4) 0.9068(2) 0.2361(2)
H18 H 0.4209 0.9062 0.1914
H19 H 0.4168 0.8639 0.2660
C26 C 0.4721(5) 0.9978(3) 0.2651(3)
H20 H 0.5226 0.9969 0.3105
H21 H 0.3516 1.0181 0.2677
H22 H 0.5383 1.0391 0.2364
loop_
_geom_bond_atom_site_label_1
_geom_bond_atom_site_label_2
_geom_bond_site_symmetry_1
_geom_bond_site_symmetry_2
O1 C1 1_555 1_555
O2 C24 1_555 1_555
O3 C24 1_555 1_555
N1 C12 1_555 1_555
N2 C23 1_555 1_555
C1 C2 1_555 1_555
C2 C3 1_555 1_555
C3 H1 1_555 1_555
C4 C3 1_555 1_555
H2 C4 1_555 1_555
C5 C4 1_555 1_555
H3 C5 1_555 1_555
C6 C5 1_555 1_555
C7 C6 1_555 1_555
H4 C7 1_555 1_555
C8 C7 1_555 1_555
H5 C8 1_555 1_555
C9 C8 1_555 1_555
H6 C9 1_555 1_555
C10 C9 1_555 1_555
C11 C2 1_555 1_555
C12 C1 1_555 1_555
C13 N1 1_555 1_555
H7 C13 1_555 1_555
H8 C13 1_555 1_555
C14 C13 1_555 1_555
H9 C14 1_555 1_555
C15 C12 1_555 1_555
C16 N1 1_555 1_555
H10 C16 1_555 1_555
H11 C16 1_555 1_555
H12 C16 1_555 1_555
C17 C14 1_555 1_555
C18 C17 1_555 1_555
H13 C18 1_555 1_555
C19 C18 1_555 1_555
H14 C19 1_555 1_555
C20 C19 1_555 1_555
H15 C20 1_555 1_555
C21 C20 1_555 1_555
H16 C21 1_555 1_555
C22 C17 1_555 1_555
H17 C22 1_555 1_555
C23 C15 1_555 1_555
C24 C15 1_555 1_555
C25 O3 1_555 1_555
H18 C25 1_555 1_555
H19 C25 1_555 1_555
C26 C25 1_555 1_555
H20 C26 1_555 1_555
H21 C26 1_555 1_555
H22 C26 1_555 1_555
C6 C11 1_555 1_555
C10 C11 1_555 1_555
C10 C12 1_555 1_555
C14 C15 1_555 1_555
C21 C22 1_555 1_555

#END
