
#######################################################################
#
#                 Cambridge Crystallographic Data Centre
#                                CCDC 
#
#######################################################################
#
# If this CIF has been generated from an entry in the Cambridge 
# Structural Database, then it will include bibliographic, chemical, 
# crystal, experimental, refinement or atomic coordinate data resulting 
# from the CCDC's data processing and validation procedures.
#
#######################################################################

data_NIWRIV
_chemical_formula_moiety         'C16 H15 N1 O1'
_chemical_name_systematic        1-Benzyl-2,3-dihydroquinolin-4(1H)-one
_symmetry_cell_setting           monoclinic
_symmetry_space_group_name_H-M   'P 21/n'
_symmetry_Int_Tables_number      14
_space_group_name_Hall           '-P 2yn'
loop_
_symmetry_equiv_pos_site_id
_symmetry_equiv_pos_as_xyz
1 x,y,z
2 1/2-x,1/2+y,1/2-z
3 -x,-y,-z
4 1/2+x,1/2-y,1/2+z
_cell_length_a                   5.5992(11)
_cell_length_b                   9.786(2)
_cell_length_c                   23.313(5)
_cell_angle_alpha                90
_cell_angle_beta                 96.79(3)
_cell_angle_gamma                90
_cell_volume                     1268.45
_exptl_crystal_colour            colorless
_exptl_crystal_description       Block
_chemical_melting_point          '391-392 K'
_cell_formula_units_Z            4
_exptl_crystal_recrystallization_method methanol/water
loop_
_atom_site_label
_atom_site_type_symbol
_atom_site_fract_x
_atom_site_fract_y
_atom_site_fract_z
C1 C 0.6399(5) 0.3558(3) 0.11589(12)
C2 C 1.0812(5) 0.7455(3) 0.15820(13)
N1 N 0.7645(4) 0.5798(3) 0.16157(11)
O1 O 1.2200(4) 0.8547(3) 0.24606(10)
C3 C 0.9179(5) 0.6500(3) 0.13068(13)
C4 C 1.1014(5) 0.7645(3) 0.22089(14)
C5 C 0.9186(6) 0.6306(3) 0.07149(13)
H1 H 0.8132 0.5679 0.0522
C6 C 1.2320(6) 0.7970(4) 0.06840(16)
H2 H 1.3355 0.8455 0.0475
C7 C 1.2345(5) 0.8172(3) 0.12615(15)
H3 H 1.3411 0.8805 0.1447
C8 C 0.5711(5) 0.4967(3) 0.13269(15)
H4 H 0.5028 0.5445 0.0981
H5 H 0.4459 0.4891 0.1579
C9 C 1.0728(6) 0.7029(4) 0.04123(14)
H6 H 1.0700 0.6883 0.0017
C10 C 0.4733(6) 0.2784(4) 0.08129(13)
H7 H 0.3272 0.3171 0.0666
C11 C 0.9027(6) 0.1602(4) 0.12313(15)
H8 H 1.0492 0.1209 0.1372
C12 C 0.8556(5) 0.2948(4) 0.13631(13)
H9 H 0.9712 0.3450 0.1593
C13 C 0.5218(7) 0.1445(4) 0.06844(15)
H10 H 0.4079 0.0940 0.0451
C14 C 0.9820(7) 0.6579(4) 0.25256(15)
H11 H 1.0860 0.5785 0.2581
H12 H 0.9568 0.6924 0.2904
C15 C 0.7342(7) 0.0850(4) 0.08949(16)
H13 H 0.7643 -0.0059 0.0811
C16 C 0.7489(6) 0.6170(4) 0.22115(15)
H14 H 0.6863 0.5399 0.2408
H15 H 0.6360 0.6919 0.2221
loop_
_geom_bond_atom_site_label_1
_geom_bond_atom_site_label_2
_geom_bond_site_symmetry_1
_geom_bond_site_symmetry_2
C1 C8 1_555 1_555
C2 C3 1_555 1_555
N1 C3 1_555 1_555
O1 C4 1_555 1_555
C3 C5 1_555 1_555
C4 C2 1_555 1_555
C5 H1 1_555 1_555
C6 H2 1_555 1_555
C7 C2 1_555 1_555
H3 C7 1_555 1_555
C8 N1 1_555 1_555
H4 C8 1_555 1_555
H5 C8 1_555 1_555
C9 C5 1_555 1_555
H6 C9 1_555 1_555
C10 C1 1_555 1_555
H7 C10 1_555 1_555
C11 H8 1_555 1_555
C12 C1 1_555 1_555
H9 C12 1_555 1_555
C13 C10 1_555 1_555
H10 C13 1_555 1_555
C14 C4 1_555 1_555
H11 C14 1_555 1_555
H12 C14 1_555 1_555
C15 C11 1_555 1_555
H13 C15 1_555 1_555
C16 N1 1_555 1_555
H14 C16 1_555 1_555
H15 C16 1_555 1_555
C6 C7 1_555 1_555
C6 C9 1_555 1_555
C11 C12 1_555 1_555
C13 C15 1_555 1_555
C14 C16 1_555 1_555

#END
