
#######################################################################
#
#                 Cambridge Crystallographic Data Centre
#                                CCDC 
#
#######################################################################
#
# If this CIF has been generated from an entry in the Cambridge 
# Structural Database, then it will include bibliographic, chemical, 
# crystal, experimental, refinement or atomic coordinate data resulting 
# from the CCDC's data processing and validation procedures.
#
#######################################################################

data_NIWSES
_chemical_formula_moiety         'C19 H24 Cl1 N1 O3 S1'
_chemical_name_systematic        
(+)-N-(2-(4-Chlorophenyl)propanoyl)bornane-10,2-sultam
_symmetry_cell_setting           monoclinic
_symmetry_space_group_name_H-M   'C 2'
_symmetry_Int_Tables_number      5
_space_group_name_Hall           'C 2y'
loop_
_symmetry_equiv_pos_site_id
_symmetry_equiv_pos_as_xyz
1 x,y,z
2 -x,y,-z
3 1/2+x,1/2+y,z
4 1/2-x,1/2+y,-z
_cell_length_a                   21.0863(16)
_cell_length_b                   7.7948(6)
_cell_length_c                   12.102(1)
_cell_angle_alpha                90
_cell_angle_beta                 107.433(1)
_cell_angle_gamma                90
_cell_volume                     1897.76
_exptl_crystal_colour            colorless
_exptl_crystal_description       block
_cell_formula_units_Z            4
_exptl_crystal_recrystallization_method dichloromethane
loop_
_atom_site_label
_atom_site_type_symbol
_atom_site_fract_x
_atom_site_fract_y
_atom_site_fract_z
C1 C 0.41765(17) 0.1484(5) 0.2515(3)
H1 H 0.4074 0.1971 0.3188
C2 C 0.3700(2) 0.2236(6) 0.1388(4)
H2 H 0.3436 0.3165 0.1552
H3 H 0.3942 0.2647 0.0873
C3 C 0.32641(19) 0.0678(7) 0.0869(4)
H4 H 0.3002 0.0816 0.0056
C4 C 0.28491(19) 0.0218(7) 0.1686(4)
H5 H 0.2497 -0.0582 0.1318
H6 H 0.2655 0.1236 0.1913
C5 C 0.33625(18) -0.0616(6) 0.2743(4)
H7 H 0.3387 -0.0004 0.3453
H8 H 0.3256 -0.1810 0.2829
C6 C 0.40133(17) -0.0439(5) 0.2421(3)
C7 C 0.37733(19) -0.0803(6) 0.1092(3)
C8 C 0.4297(2) -0.0585(7) 0.0450(4)
H9 H 0.4640 -0.1429 0.0721
H10 H 0.4488 0.0542 0.0595
H11 H 0.4090 -0.0731 -0.0367
C9 C 0.3474(3) -0.2582(7) 0.0795(5)
H12 H 0.3291 -0.2688 -0.0030
H13 H 0.3128 -0.2747 0.1150
H14 H 0.3813 -0.3433 0.1076
C10 C 0.46138(18) -0.1414(5) 0.3168(4)
H15 H 0.4653 -0.2514 0.2819
H16 H 0.4570 -0.1614 0.3933
C11 C 0.5168(2) 0.3268(5) 0.2714(4)
C12 C 0.59037(19) 0.3421(6) 0.2804(4)
H17 H 0.6053 0.2315 0.2587
C13 C 0.5985(3) 0.4787(9) 0.1933(5)
H18 H 0.5714 0.4486 0.1168
H19 H 0.6443 0.4837 0.1947
H20 H 0.5851 0.5886 0.2142
C14 C 0.63302(19) 0.3854(6) 0.4024(4)
C15 C 0.7005(2) 0.3585(7) 0.4306(5)
H21 H 0.7185 0.3183 0.3741
C16 C 0.7427(2) 0.3902(9) 0.5418(5)
H22 H 0.7879 0.3674 0.5602
C17 C 0.7166(2) 0.4547(6) 0.6224(4)
C18 C 0.6501(2) 0.4816(7) 0.5981(4)
H23 H 0.6327 0.5210 0.6555
C19 C 0.6085(2) 0.4500(6) 0.4877(4)
H24 H 0.5633 0.4726 0.4706
Cl1 Cl 0.76886(6) 0.4977(2) 0.76187(10)
N1 N 0.48941(14) 0.1662(4) 0.2660(3)
O1 O 0.57014(16) -0.0733(5) 0.2551(4)
O2 O 0.56815(15) 0.0226(5) 0.4436(3)
O3 O 0.48162(16) 0.4517(4) 0.2627(3)
S1 S 0.53270(4) -0.01249(12) 0.32646(8)
loop_
_geom_bond_atom_site_label_1
_geom_bond_atom_site_label_2
_geom_bond_site_symmetry_1
_geom_bond_site_symmetry_2
C1 H1 1_555 1_555
C2 C1 1_555 1_555
H2 C2 1_555 1_555
H3 C2 1_555 1_555
C3 C2 1_555 1_555
H4 C3 1_555 1_555
C4 C3 1_555 1_555
H5 C4 1_555 1_555
H6 C4 1_555 1_555
C5 C4 1_555 1_555
H7 C5 1_555 1_555
H8 C5 1_555 1_555
C6 C1 1_555 1_555
C7 C3 1_555 1_555
C8 C7 1_555 1_555
H9 C8 1_555 1_555
H10 C8 1_555 1_555
H11 C8 1_555 1_555
C9 C7 1_555 1_555
H12 C9 1_555 1_555
H13 C9 1_555 1_555
H14 C9 1_555 1_555
C10 C6 1_555 1_555
H15 C10 1_555 1_555
H16 C10 1_555 1_555
C11 C12 1_555 1_555
C12 H17 1_555 1_555
C13 C12 1_555 1_555
H18 C13 1_555 1_555
H19 C13 1_555 1_555
H20 C13 1_555 1_555
C14 C12 1_555 1_555
C15 C14 1_555 1_555
H21 C15 1_555 1_555
C16 C15 1_555 1_555
H22 C16 1_555 1_555
C17 C16 1_555 1_555
C18 C17 1_555 1_555
H23 C18 1_555 1_555
C19 C14 1_555 1_555
H24 C19 1_555 1_555
Cl1 C17 1_555 1_555
N1 C1 1_555 1_555
O1 S1 1_555 1_555
O2 S1 1_555 1_555
O3 C11 1_555 1_555
S1 C10 1_555 1_555
C5 C6 1_555 1_555
C6 C7 1_555 1_555
C11 N1 1_555 1_555
C18 C19 1_555 1_555
N1 S1 1_555 1_555

#END
