
#######################################################################
#
#                 Cambridge Crystallographic Data Centre
#                                CCDC 
#
#######################################################################
#
# If this CIF has been generated from an entry in the Cambridge 
# Structural Database, then it will include bibliographic, chemical, 
# crystal, experimental, refinement or atomic coordinate data resulting 
# from the CCDC's data processing and validation procedures.
#
#######################################################################

data_NIWZAV
_chemical_compound_source        'tubers of Hemsleya endecaphylla'
_chemical_name_common            
'2beta-Hydroxy-20,21,22,23,24,25,26,27-octanorcucurbita-5-ene-3,11,16-trione methanol solvate'
_chemical_formula_moiety         'C22 H30 O4,C1 H4 O1'
_chemical_name_systematic        'Endecaphyllacin A methanol solvate'
_chemical_properties_biological  'anti-HIV activity'
_symmetry_cell_setting           orthorhombic
_symmetry_space_group_name_H-M   'P 21 21 21'
_symmetry_Int_Tables_number      19
_space_group_name_Hall           'P 2ac 2ab'
loop_
_symmetry_equiv_pos_site_id
_symmetry_equiv_pos_as_xyz
1 x,y,z
2 1/2-x,-y,1/2+z
3 -x,1/2+y,1/2-z
4 1/2+x,1/2-y,-z
_cell_length_a                   7.9551(1)
_cell_length_b                   12.1239(2)
_cell_length_c                   21.4220(4)
_cell_angle_alpha                90
_cell_angle_beta                 90
_cell_angle_gamma                90
_cell_volume                     2066.08
_exptl_crystal_colour            colorless
_exptl_crystal_description       prism
_cell_formula_units_Z            4
loop_
_atom_site_label
_atom_site_type_symbol
_atom_site_fract_x
_atom_site_fract_y
_atom_site_fract_z
O1 O 0.41139(17) 0.39220(10) 0.51411(5)
O2 O 0.29912(19) 0.30108(10) 0.40908(7)
O3 O 0.57244(14) 0.80669(9) 0.48708(5)
O4 O 0.08303(16) 1.11362(9) 0.27460(5)
C1 C 0.45964(17) 0.55583(10) 0.44934(6)
H1 H 0.5623 0.5233 0.4309
H2 H 0.4933 0.5986 0.4867
C2 C 0.33981(18) 0.46327(11) 0.46889(6)
H3 H 0.2377 0.4980 0.4877
C3 C 0.28512(17) 0.40014(11) 0.41122(7)
C4 C 0.21173(15) 0.46746(9) 0.35748(5)
C5 C 0.32038(14) 0.56960(9) 0.34433(5)
C6 C 0.34902(15) 0.60466(10) 0.28658(5)
H4 H 0.3131 0.5588 0.2532
C7 C 0.43374(16) 0.71124(10) 0.27005(5)
H5 H 0.3725 0.7455 0.2348
H6 H 0.5494 0.6950 0.2556
C8 C 0.44305(14) 0.79477(10) 0.32399(5)
H7 H 0.5399 0.8441 0.3137
C9 C 0.49319(14) 0.73552(9) 0.38623(5)
C10 C 0.37704(14) 0.63381(9) 0.40158(5)
H8 H 0.2733 0.6638 0.4217
C11 C 0.47378(15) 0.81191(10) 0.44357(5)
C12 C 0.32627(16) 0.89177(10) 0.44582(5)
H9 H 0.3405 0.9439 0.4810
H10 H 0.2201 0.8507 0.4521
C13 C 0.31982(15) 0.95517(9) 0.38396(5)
C14 C 0.28952(14) 0.87157(9) 0.32926(5)
C15 C 0.26351(16) 0.95103(10) 0.27358(6)
H11 H 0.3723 0.9774 0.2569
H12 H 0.1991 0.9152 0.2396
C16 C 0.16324(17) 1.04551(10) 0.30328(6)
C17 C 0.17842(18) 1.03952(10) 0.37426(6)
H13 H 0.0721 1.0139 0.3935
H14 H 0.2089 1.1122 0.3921
C18 C 0.48670(17) 1.01966(10) 0.37867(6)
H15 H 0.4941 1.0734 0.4127
H16 H 0.4906 1.0583 0.3385
H17 H 0.5813 0.9681 0.3814
C19 C 0.67839(15) 0.70047(12) 0.37975(6)
H18 H 0.7197 0.6735 0.4201
H19 H 0.7459 0.7639 0.3665
H20 H 0.6875 0.6417 0.3485
C20 C 0.18891(18) 0.39269(11) 0.30063(6)
H21 H 0.1218 0.3282 0.3124
H22 H 0.2992 0.3685 0.2856
H23 H 0.1311 0.4335 0.2675
C21 C 0.03584(15) 0.50775(11) 0.37924(6)
H24 H 0.0490 0.5599 0.4139
H25 H -0.0310 0.4444 0.3931
H26 H -0.0215 0.5444 0.3444
C22 C 0.12100(14) 0.80914(10) 0.33611(6)
H27 H 0.1204 0.7683 0.3756
H28 H 0.1079 0.7574 0.3013
H29 H 0.0279 0.8621 0.3358
H33 H 0.5013(18) 0.3700(17) 0.4981(9)
O5 O 0.7212(2) 0.31562(12) 0.46571(7)
C23 C 0.7223(3) 0.28287(19) 0.40045(11)
H30 H 0.6244 0.2362 0.3919
H31 H 0.8254 0.2416 0.3915
H32 H 0.7177 0.3488 0.3740
H34 H 0.751(5) 0.263(2) 0.4869(16)
loop_
_geom_bond_atom_site_label_1
_geom_bond_atom_site_label_2
_geom_bond_site_symmetry_1
_geom_bond_site_symmetry_2
O1 C2 1_555 1_555
O2 C3 1_555 1_555
O3 C11 1_555 1_555
O4 C16 1_555 1_555
C1 H1 1_555 1_555
H2 C1 1_555 1_555
C2 C1 1_555 1_555
H3 C2 1_555 1_555
C3 C2 1_555 1_555
C4 C3 1_555 1_555
C5 C4 1_555 1_555
C6 C5 1_555 1_555
H4 C6 1_555 1_555
C7 C6 1_555 1_555
H5 C7 1_555 1_555
H6 C7 1_555 1_555
C8 C7 1_555 1_555
H7 C8 1_555 1_555
C9 C8 1_555 1_555
C10 C1 1_555 1_555
H8 C10 1_555 1_555
C11 C9 1_555 1_555
C12 C11 1_555 1_555
H9 C12 1_555 1_555
H10 C12 1_555 1_555
C13 C12 1_555 1_555
C14 C8 1_555 1_555
C15 C14 1_555 1_555
H11 C15 1_555 1_555
H12 C15 1_555 1_555
C16 C15 1_555 1_555
C17 C13 1_555 1_555
H13 C17 1_555 1_555
H14 C17 1_555 1_555
C18 C13 1_555 1_555
H15 C18 1_555 1_555
H16 C18 1_555 1_555
H17 C18 1_555 1_555
C19 C9 1_555 1_555
H18 C19 1_555 1_555
H19 C19 1_555 1_555
H20 C19 1_555 1_555
C20 C4 1_555 1_555
H21 C20 1_555 1_555
H22 C20 1_555 1_555
H23 C20 1_555 1_555
C21 C4 1_555 1_555
H24 C21 1_555 1_555
H25 C21 1_555 1_555
H26 C21 1_555 1_555
C22 C14 1_555 1_555
H27 C22 1_555 1_555
H28 C22 1_555 1_555
H29 C22 1_555 1_555
O5 C23 1_555 1_555
C23 H30 1_555 1_555
H31 C23 1_555 1_555
H32 C23 1_555 1_555
H33 O1 1_555 1_555
H34 O5 1_555 1_555
C5 C10 1_555 1_555
C9 C10 1_555 1_555
C13 C14 1_555 1_555
C16 C17 1_555 1_555

#END
