
#######################################################################
#
#                 Cambridge Crystallographic Data Centre
#                                CCDC 
#
#######################################################################
#
# If this CIF has been generated from an entry in the Cambridge 
# Structural Database, then it will include bibliographic, chemical, 
# crystal, experimental, refinement or atomic coordinate data resulting 
# from the CCDC's data processing and validation procedures.
#
#######################################################################

data_NIWZEZ
_chemical_compound_source        
'cultures of the fungus Acremonium byssoides A20'
_chemical_formula_moiety         'C24 H26 O5,0.5(C6 H6)'
_chemical_name_systematic        'rac-Acremine G benzene solvate'
_chemical_properties_biological  
'mild inhibition of the growth of sporangia of Plasmopara viticola'
_symmetry_cell_setting           triclinic
_symmetry_space_group_name_H-M   'P -1'
_symmetry_Int_Tables_number      2
_space_group_name_Hall           '-P 1'
loop_
_symmetry_equiv_pos_site_id
_symmetry_equiv_pos_as_xyz
1 x,y,z
2 -x,-y,-z
_cell_length_a                   9.040(2)
_cell_length_b                   9.384(2)
_cell_length_c                   14.263(4)
_cell_angle_alpha                79.650(10)
_cell_angle_beta                 76.270(10)
_cell_angle_gamma                88.360(10)
_cell_volume                     1156.13
_exptl_crystal_colour            red
_exptl_crystal_description       platelet
_chemical_melting_point          '130-132 deg.C'
_cell_formula_units_Z            2
loop_
_atom_site_label
_atom_site_type_symbol
_atom_site_fract_x
_atom_site_fract_y
_atom_site_fract_z
O1 O 0.5266(2) 0.3804(2) 0.84447(14)
O2 O 0.8451(3) 0.5983(3) 0.46911(18)
H1 H 0.812(5) 0.555(5) 0.429(3)
O3 O 0.2604(3) 0.3207(3) 1.03206(17)
O4 O 0.2574(2) 0.5459(2) 0.66747(15)
O5 O -0.1475(3) 0.1565(4) 0.8465(2)
H2 H -0.229(6) 0.194(6) 0.823(4)
C1 C 0.6002(3) 0.4338(3) 0.7478(2)
C2 C 0.5615(3) 0.3893(3) 0.6704(2)
C3 C 0.6443(3) 0.4441(3) 0.5761(2)
H3 H 0.6195 0.4157 0.5225
C4 C 0.7629(3) 0.5405(3) 0.5618(2)
C5 C 0.8015(3) 0.5875(3) 0.6397(2)
C6 C 0.7168(3) 0.5330(3) 0.7337(2)
H4 H 0.7389 0.5636 0.7875
C7 C 0.4285(3) 0.2873(3) 0.6915(2)
H5 H 0.385(3) 0.299(3) 0.633(2)
C8 C 0.4729(3) 0.1331(3) 0.7210(2)
H6 H 0.522(3) 0.082(3) 0.670(2)
C9 C 0.4617(4) 0.0699(3) 0.8127(2)
C10 C 0.4011(4) 0.1466(4) 0.8966(2)
H7 H 0.4706 0.1336 0.9397
H8 H 0.3039 0.1029 0.9337
C11 C 0.5078(5) -0.0846(4) 0.8394(3)
H9 H 0.5455 -0.1240 0.7807
H10 H 0.4212 -0.1407 0.8796
H11 H 0.5862 -0.0878 0.8748
C12 C 0.9287(4) 0.6952(4) 0.6227(3)
H12 H 0.9387 0.7155 0.6845
H13 H 0.9067 0.7830 0.5826
H14 H 1.0221 0.6559 0.5902
C13 C 0.2717(3) 0.4947(4) 0.7494(2)
C14 C 0.3088(3) 0.3343(3) 0.7762(2)
C15 C 0.3795(3) 0.3079(3) 0.8647(2)
C16 C 0.2902(4) 0.3804(4) 0.9471(2)
C17 C 0.2439(4) 0.5317(4) 0.9195(2)
C18 C 0.2404(4) 0.5818(4) 0.8268(2)
H15 H 0.2164 0.6786 0.8102
C19 C 0.1567(4) 0.2571(4) 0.8011(2)
H16 H 0.093(4) 0.284(4) 0.860(3)
C20 C 0.1119(4) 0.1737(4) 0.7492(3)
H17 H 0.184(4) 0.144(4) 0.688(3)
C21 C -0.0405(4) 0.0990(4) 0.7720(3)
C22 C -0.0996(4) 0.1156(5) 0.6810(3)
H18 H -0.1129 0.2166 0.6576
H19 H -0.1956 0.0654 0.6957
H20 H -0.0282 0.0756 0.6315
C23 C -0.0201(5) -0.0581(4) 0.8123(3)
H21 H 0.0157 -0.0654 0.8712
H22 H 0.0529 -0.1002 0.7647
H23 H -0.1158 -0.1088 0.8268
C24 C 0.2006(5) 0.6173(4) 0.9992(3)
H24 H 0.1728 0.7130 0.9728
H25 H 0.2853 0.6234 1.0282
H26 H 0.1157 0.5710 1.0482
C25 C 0.6373(6) 0.9415(7) 0.5008(4)
H27 H 0.732(5) 0.898(5) 0.497(3)
C26 C 0.5097(7) 0.8618(5) 0.5454(3)
H28 H 0.504(5) 0.767(6) 0.577(3)
C27 C 0.6269(6) 1.0818(6) 0.4550(3)
H29 H 0.717(5) 1.132(5) 0.419(3)
C25A C 0.3627(6) 1.0585(7) 0.4992(4)
H27A H 0.268(5) 1.102(5) 0.503(3)
C26A C 0.4903(7) 1.1382(5) 0.4546(3)
H28A H 0.496(5) 1.233(6) 0.423(3)
C27A C 0.3731(6) 0.9182(6) 0.5450(3)
H29A H 0.283(5) 0.868(5) 0.581(3)
loop_
_geom_bond_atom_site_label_1
_geom_bond_atom_site_label_2
_geom_bond_site_symmetry_1
_geom_bond_site_symmetry_2
O1 C1 1_555 1_555
O2 H1 1_555 1_555
O3 C16 1_555 1_555
O4 C13 1_555 1_555
O5 H2 1_555 1_555
C1 C2 1_555 1_555
C2 C3 1_555 1_555
C3 H3 1_555 1_555
C4 O2 1_555 1_555
C5 C4 1_555 1_555
C6 C1 1_555 1_555
H4 C6 1_555 1_555
C7 C2 1_555 1_555
H5 C7 1_555 1_555
C8 C7 1_555 1_555
H6 C8 1_555 1_555
C9 C8 1_555 1_555
C10 C9 1_555 1_555
H7 C10 1_555 1_555
H8 C10 1_555 1_555
C11 C9 1_555 1_555
H9 C11 1_555 1_555
H10 C11 1_555 1_555
H11 C11 1_555 1_555
C12 C5 1_555 1_555
H12 C12 1_555 1_555
H13 C12 1_555 1_555
H14 C12 1_555 1_555
C13 C14 1_555 1_555
C14 C7 1_555 1_555
C15 O1 1_555 1_555
C16 C15 1_555 1_555
C17 C16 1_555 1_555
C18 C13 1_555 1_555
H15 C18 1_555 1_555
C19 C14 1_555 1_555
H16 C19 1_555 1_555
C20 C19 1_555 1_555
H17 C20 1_555 1_555
C21 O5 1_555 1_555
C22 C21 1_555 1_555
H18 C22 1_555 1_555
H19 C22 1_555 1_555
H20 C22 1_555 1_555
C23 C21 1_555 1_555
H21 C23 1_555 1_555
H22 C23 1_555 1_555
H23 C23 1_555 1_555
C24 C17 1_555 1_555
H24 C24 1_555 1_555
H25 C24 1_555 1_555
H26 C24 1_555 1_555
C25 H27 1_555 1_555
C26 C25 1_555 1_555
H28 C26 1_555 1_555
C27 C25 1_555 1_555
H29 C27 1_555 1_555
C25A H27A 1_555 1_555
C26A C27 1_555 1_555
H28A C26A 1_555 1_555
C27A C26 1_555 1_555
H29A C27A 1_555 1_555
C3 C4 1_555 1_555
C5 C6 1_555 1_555
C10 C15 1_555 1_555
C14 C15 1_555 1_555
C17 C18 1_555 1_555
C20 C21 1_555 1_555
C25A C26A 1_555 1_555
C25A C27A 1_555 1_555

#END
