
#######################################################################
#
#                 Cambridge Crystallographic Data Centre
#                                CCDC 
#
#######################################################################
#
# If this CIF has been generated from an entry in the Cambridge 
# Structural Database, then it will include bibliographic, chemical, 
# crystal, experimental, refinement or atomic coordinate data resulting 
# from the CCDC's data processing and validation procedures.
#
#######################################################################

data_NIXMEN
_chemical_formula_moiety         'C23 H12 F8 N4,0.5(C1 H2 Cl2)'
_chemical_name_systematic        
"N,N'-bis(2,3,5,6-tetrafluoropyridin-4yl)diphenylmethane-4,4'-diamine dichloromethane solvate"
_symmetry_cell_setting           monoclinic
_symmetry_space_group_name_H-M   'P 21/c'
_symmetry_Int_Tables_number      14
_space_group_name_Hall           '-P 2ybc'
loop_
_symmetry_equiv_pos_site_id
_symmetry_equiv_pos_as_xyz
1 x,y,z
2 -x,1/2+y,1/2-z
3 -x,-y,-z
4 x,1/2-y,1/2+z
_cell_length_a                   25.9093(7)
_cell_length_b                   7.4516(2)
_cell_length_c                   26.3977(7)
_cell_angle_alpha                90
_cell_angle_beta                 116.2910(10)
_cell_angle_gamma                90
_cell_volume                     4569.29
_exptl_crystal_colour            colorless
_exptl_crystal_description       prism
_chemical_melting_point          '89-92 deg.C'
_cell_formula_units_Z            8
loop_
_atom_site_label
_atom_site_type_symbol
_atom_site_fract_x
_atom_site_fract_y
_atom_site_fract_z
F1 F 0.96315(6) 0.98534(18) 0.58962(5)
F2 F 0.94668(5) 0.85034(15) 0.48810(5)
F3 F 0.81717(5) 0.43636(17) 0.50673(5)
F4 F 0.83823(5) 0.59355(19) 0.60402(5)
F5 F 0.33388(4) 0.09656(16) 0.28184(5)
F6 F 0.38256(4) 0.04017(13) 0.21130(4)
F7 F 0.55113(4) 0.31411(12) 0.34926(4)
F8 F 0.49637(5) 0.34795(14) 0.41386(4)
N1 N 0.90097(7) 0.7884(2) 0.59746(6)
N2 N 0.87540(7) 0.5682(2) 0.44238(6)
N3 N 0.49527(5) 0.13937(17) 0.24234(5)
N4 N 0.41570(6) 0.21674(18) 0.34879(6)
C1 C 0.92620(9) 0.8485(2) 0.56725(8)
C2 C 0.91831(7) 0.7821(2) 0.51604(7)
C3 C 0.88125(6) 0.6366(2) 0.49197(6)
C4 C 0.85381(7) 0.5759(2) 0.52396(7)
C5 C 0.86522(8) 0.6558(3) 0.57477(7)
C6 C 0.83964(7) 0.4194(2) 0.41271(6)
C7 C 0.86285(7) 0.2497(2) 0.41832(7)
C8 C 0.82812(7) 0.1076(2) 0.38786(7)
C9 C 0.77041(6) 0.1331(2) 0.35126(6)
C10 C 0.74789(7) 0.3049(2) 0.34689(8)
C11 C 0.78231(8) 0.4465(2) 0.37733(9)
C12 C 0.73384(6) -0.0237(2) 0.31717(7)
C13 C 0.67004(6) 0.00817(19) 0.29538(6)
C14 C 0.64282(6) -0.0324(2) 0.32910(6)
C15 C 0.58537(6) 0.00844(19) 0.31197(6)
C16 C 0.55404(6) 0.09469(18) 0.26058(6)
C17 C 0.58007(6) 0.13213(19) 0.22559(6)
C18 C 0.63744(6) 0.0874(2) 0.24286(6)
C19 C 0.38879(6) 0.1447(2) 0.29823(7)
C20 C 0.41319(6) 0.11487(19) 0.26218(6)
C21 C 0.47030(6) 0.16382(18) 0.27807(6)
C22 C 0.49802(6) 0.24596(19) 0.33118(6)
C23 C 0.46913(7) 0.2667(2) 0.36361(6)
H1 H 0.8931(10) 0.611(3) 0.4269(9)
H2 H 0.4729(9) 0.127(3) 0.2071(9)
H3 H 0.9002(9) 0.229(3) 0.4420(8)
H4 H 0.8451(9) -0.008(3) 0.3907(9)
H5 H 0.7087(10) 0.325(3) 0.3233(10)
H6 H 0.7660(10) 0.553(3) 0.3745(10)
H7 H 0.7452(9) -0.129(3) 0.3398(8)
H8 H 0.7441(8) -0.051(3) 0.2875(8)
H9 H 0.6644(9) -0.089(3) 0.3624(9)
H10 H 0.5682(7) -0.028(2) 0.3353(8)
H11 H 0.5585(8) 0.189(3) 0.1899(8)
H12 H 0.6547(8) 0.111(3) 0.2196(8)
F9 F 0.50162(5) 0.14410(15) 0.60438(4)
F10 F 0.46453(5) 0.16416(15) 0.49150(4)
F11 F 0.30318(4) 0.48475(14) 0.48282(4)
F12 F 0.34861(5) 0.45790(15) 0.59495(4)
F13 F 0.00770(4) 0.57590(16) 0.42497(4)
F14 F 0.05401(4) 0.60139(14) 0.35273(4)
F15 F -0.12317(4) 0.84605(14) 0.22021(4)
F16 F -0.16364(4) 0.78816(16) 0.29748(4)
N5 N 0.42614(7) 0.30633(18) 0.60042(5)
N6 N 0.36435(6) 0.3421(2) 0.42468(6)
N7 N -0.01224(5) 0.76278(19) 0.24369(6)
N8 N -0.07740(6) 0.68732(18) 0.36197(6)
C24 C 0.45286(7) 0.2339(2) 0.57304(6)
C25 C 0.43465(7) 0.2434(2) 0.51591(7)
C26 C 0.38389(7) 0.3354(2) 0.48180(6)
C27 C 0.35475(7) 0.4065(2) 0.51078(6)
C28 C 0.37801(7) 0.3890(2) 0.56868(6)
C29 C 0.32899(7) 0.4846(2) 0.39025(6)
C30 C 0.27841(7) 0.4427(2) 0.34341(7)
C31 C 0.24402(7) 0.5786(2) 0.30947(7)
C32 C 0.25914(6) 0.7580(2) 0.32137(6)
C33 C 0.31020(7) 0.7980(2) 0.36843(7)
C34 C 0.34537(7) 0.6620(2) 0.40266(7)
C35 C 0.22021(7) 0.9037(2) 0.28341(7)
C36 C 0.15804(6) 0.8734(2) 0.27151(7)
C37 C 0.13954(7) 0.9180(2) 0.31197(7)
C38 C 0.08378(6) 0.8840(2) 0.30339(6)
C39 C 0.04547(6) 0.7981(2) 0.25418(6)
C40 C 0.06296(7) 0.7546(2) 0.21282(6)
C41 C 0.11879(7) 0.7940(2) 0.22163(6)
C42 C -0.02399(7) 0.6457(2) 0.37364(6)
C43 C 0.00041(6) 0.6638(2) 0.33724(6)
C44 C -0.03144(6) 0.73799(19) 0.28357(6)
C45 C -0.08861(6) 0.7799(2) 0.27142(6)
C46 C -0.10853(6) 0.7506(2) 0.31069(7)
H13 H 0.3831(9) 0.279(3) 0.4105(9)
H14 H -0.0367(9) 0.774(3) 0.2123(9)
H15 H 0.2694(10) 0.311(3) 0.3362(10)
H16 H 0.2105(10) 0.550(3) 0.2787(9)
H17 H 0.3221(9) 0.918(3) 0.3758(9)
H18 H 0.3817(9) 0.695(3) 0.4351(9)
H19 H 0.2360(9) 1.024(3) 0.3033(9)
H20 H 0.2251(9) 0.908(3) 0.2487(9)
H21 H 0.1647(9) 0.974(3) 0.3428(9)
H22 H 0.0717(8) 0.921(2) 0.3322(8)
H23 H 0.0358(8) 0.694(2) 0.1780(8)
H24 H 0.1293(8) 0.762(3) 0.1923(8)
Cl1 Cl 0.35072(2) 0.60314(7) 0.02973(2)
Cl2 Cl 0.24196(3) 0.43625(10) 0.01194(4)
C47 C 0.27961(10) 0.6388(3) 0.01960(13)
H25 H 0.2804 0.7057 0.0523
H26 H 0.2590 0.7133 -0.0146
Cl3? Cl 0.2470(3) 0.4265(11) -0.0202(4)
loop_
_geom_bond_atom_site_label_1
_geom_bond_atom_site_label_2
_geom_bond_site_symmetry_1
_geom_bond_site_symmetry_2
F1 C1 1_555 1_555
F2 C2 1_555 1_555
F3 C4 1_555 1_555
F4 C5 1_555 1_555
F5 C19 1_555 1_555
F6 C20 1_555 1_555
F7 C22 1_555 1_555
F8 C23 1_555 1_555
N1 C1 1_555 1_555
N2 C3 1_555 1_555
N3 C16 1_555 1_555
N4 C19 1_555 1_555
C1 C2 1_555 1_555
C2 C3 1_555 1_555
C3 C4 1_555 1_555
C4 C5 1_555 1_555
C5 N1 1_555 1_555
C6 N2 1_555 1_555
C7 C6 1_555 1_555
C8 C7 1_555 1_555
C9 C8 1_555 1_555
C10 C9 1_555 1_555
C11 C6 1_555 1_555
C12 C9 1_555 1_555
C13 C12 1_555 1_555
C14 C13 1_555 1_555
C15 C14 1_555 1_555
C16 C15 1_555 1_555
C17 C16 1_555 1_555
C18 C13 1_555 1_555
C19 C20 1_555 1_555
C20 C21 1_555 1_555
C21 N3 1_555 1_555
C22 C21 1_555 1_555
C23 N4 1_555 1_555
H1 N2 1_555 1_555
H2 N3 1_555 1_555
H3 C7 1_555 1_555
H4 C8 1_555 1_555
H5 C10 1_555 1_555
H6 C11 1_555 1_555
H7 C12 1_555 1_555
H8 C12 1_555 1_555
H9 C14 1_555 1_555
H10 C15 1_555 1_555
H11 C17 1_555 1_555
H12 C18 1_555 1_555
F9 C24 1_555 1_555
F10 C25 1_555 1_555
F11 C27 1_555 1_555
F12 C28 1_555 1_555
F13 C42 1_555 1_555
F14 C43 1_555 1_555
F15 C45 1_555 1_555
F16 C46 1_555 1_555
N5 C24 1_555 1_555
N6 C26 1_555 1_555
N7 C39 1_555 1_555
N8 C42 1_555 1_555
C24 C25 1_555 1_555
C25 C26 1_555 1_555
C26 C27 1_555 1_555
C27 C28 1_555 1_555
C28 N5 1_555 1_555
C29 N6 1_555 1_555
C30 C29 1_555 1_555
C31 C30 1_555 1_555
C32 C31 1_555 1_555
C33 C32 1_555 1_555
C34 C29 1_555 1_555
C35 C32 1_555 1_555
C36 C35 1_555 1_555
C37 C36 1_555 1_555
C38 C37 1_555 1_555
C39 C38 1_555 1_555
C40 C39 1_555 1_555
C41 C36 1_555 1_555
C42 C43 1_555 1_555
C43 C44 1_555 1_555
C44 N7 1_555 1_555
C45 C44 1_555 1_555
C46 N8 1_555 1_555
H13 N6 1_555 1_555
H14 N7 1_555 1_555
H15 C30 1_555 1_555
H16 C31 1_555 1_555
H17 C33 1_555 1_555
H18 C34 1_555 1_555
H19 C35 1_555 1_555
H20 C35 1_555 1_555
H21 C37 1_555 1_555
H22 C38 1_555 1_555
H23 C40 1_555 1_555
H24 C41 1_555 1_555
Cl1 C47 1_555 1_555
Cl2 C47 1_555 1_555
C47 H25 1_555 1_555
H26 C47 1_555 1_555
C10 C11 1_555 1_555
C17 C18 1_555 1_555
C22 C23 1_555 1_555
C33 C34 1_555 1_555
C40 C41 1_555 1_555
C45 C46 1_555 1_555

#END
