
#######################################################################
#
#                 Cambridge Crystallographic Data Centre
#                                CCDC 
#
#######################################################################
#
# If this CIF has been generated from an entry in the Cambridge 
# Structural Database, then it will include bibliographic, chemical, 
# crystal, experimental, refinement or atomic coordinate data resulting 
# from the CCDC's data processing and validation procedures.
#
#######################################################################

data_NIXMIR
_chemical_formula_moiety         'C24 H14 F8 N4 O1'
_chemical_name_systematic        
"N,N'-dimethyl-N,N'-bis(2,3,5,6-tetrafluoropyridin-4-yl)-4,4'-diaminodiphenyl ether"
_symmetry_cell_setting           monoclinic
_symmetry_space_group_name_H-M   'P 21/c'
_symmetry_Int_Tables_number      14
_space_group_name_Hall           '-P 2ybc'
loop_
_symmetry_equiv_pos_site_id
_symmetry_equiv_pos_as_xyz
1 x,y,z
2 -x,1/2+y,1/2-z
3 -x,-y,-z
4 x,1/2-y,1/2+z
_cell_length_a                   14.5346(4)
_cell_length_b                   7.8419(2)
_cell_length_c                   19.3663(6)
_cell_angle_alpha                90
_cell_angle_beta                 102.15(1)
_cell_angle_gamma                90
_cell_volume                     2157.9
_exptl_crystal_colour            colorless
_exptl_crystal_description       block
_chemical_melting_point          '87-89 deg.C'
_cell_formula_units_Z            4
loop_
_atom_site_label
_atom_site_type_symbol
_atom_site_fract_x
_atom_site_fract_y
_atom_site_fract_z
F1 F 0.39304(6) 0.22060(12) 0.00269(5)
F2 F 0.48862(4) 0.06585(9) 0.11678(4)
F3 F 0.20041(5) -0.20903(9) 0.13326(4)
F4 F 0.11962(5) -0.02997(12) 0.02135(4)
F5 F 1.16234(5) -0.21169(8) 0.32499(3)
F6 F 1.32859(5) -0.32454(9) 0.39738(4)
F7 F 1.13701(5) 0.09971(10) 0.53089(4)
F8 F 1.31271(5) -0.00225(10) 0.58732(4)
O1 O 0.77432(5) -0.36517(10) 0.21849(4)
N1 N 0.25566(7) 0.09612(15) 0.01078(6)
N2 N 0.39846(6) -0.16764(12) 0.19203(5)
N3 N 1.05618(6) 0.02448(12) 0.38855(5)
N4 N 1.32167(6) -0.15994(13) 0.49173(5)
C1 C 0.34674(9) 0.11170(16) 0.03642(6)
C2 C 0.39656(7) 0.03038(14) 0.09500(6)
C3 C 0.35154(7) -0.08434(13) 0.13341(5)
C4 C 0.25418(7) -0.09823(14) 0.10549(6)
C5 C 0.21248(8) -0.00703(16) 0.04662(6)
C6 C 0.49516(7) -0.21610(13) 0.19895(5)
C7 C 0.55933(7) -0.18205(13) 0.26148(6)
C8 C 0.65333(7) -0.22956(14) 0.26923(6)
C9 C 0.68252(7) -0.30928(13) 0.21346(6)
C10 C 0.61890(7) -0.34335(14) 0.15071(6)
C11 C 0.52517(7) -0.29762(14) 0.14363(6)
C12 C 0.84453(7) -0.26686(14) 0.26057(6)
C13 C 0.90726(7) -0.34546(14) 0.31480(6)
C14 C 0.97795(7) -0.24960(15) 0.35714(6)
C15 C 0.98687(7) -0.07599(14) 0.34407(6)
C16 C 0.92374(8) 0.00068(14) 0.28835(6)
C17 C 0.85259(8) -0.09467(15) 0.24672(6)
C18 C 1.28052(7) -0.21299(14) 0.42832(6)
C19 C 1.19417(7) -0.15766(14) 0.39147(5)
C20 C 1.14118(7) -0.04284(13) 0.42289(6)
C21 C 1.18356(8) 0.00382(14) 0.49227(6)
C22 C 1.27250(8) -0.05418(15) 0.52190(6)
C23 C 0.34872(8) -0.23774(16) 0.24431(6)
C24 C 1.03913(9) 0.20713(16) 0.39560(8)
H1 H 0.5407(9) -0.1230(19) 0.2993(8)
H2 H 0.7000(10) -0.2009(18) 0.3120(8)
H3 H 0.6411(10) -0.3968(19) 0.1127(8)
H4 H 0.4798(10) -0.327(2) 0.0989(9)
H5 H 0.9020(10) -0.459(2) 0.3259(8)
H6 H 1.0167(9) -0.3059(18) 0.3965(8)
H7 H 0.9278(10) 0.119(2) 0.2774(8)
H8 H 0.8080(10) -0.039(2) 0.2058(8)
H9 H 0.2977(10) -0.1610(19) 0.2481(8)
H10 H 0.3936(11) -0.246(2) 0.2881(9)
H11 H 1.0914(11) 0.259(2) 0.4258(9)
H12 H 0.3225(10) -0.357(2) 0.2283(8)
H13 H 0.9820(13) 0.222(3) 0.4136(11)
H14 H 1.0299(15) 0.265(3) 0.3495(14)
loop_
_geom_bond_atom_site_label_1
_geom_bond_atom_site_label_2
_geom_bond_site_symmetry_1
_geom_bond_site_symmetry_2
F1 C1 1_555 1_555
F2 C2 1_555 1_555
F3 C4 1_555 1_555
F4 C5 1_555 1_555
F5 C19 1_555 1_555
F6 C18 1_555 1_555
F7 C21 1_555 1_555
F8 C22 1_555 1_555
O1 C9 1_555 1_555
N1 C1 1_555 1_555
N2 C3 1_555 1_555
N3 C15 1_555 1_555
N4 C18 1_555 1_555
C1 C2 1_555 1_555
C2 C3 1_555 1_555
C3 C4 1_555 1_555
C4 C5 1_555 1_555
C5 N1 1_555 1_555
C6 N2 1_555 1_555
C7 C6 1_555 1_555
C8 C7 1_555 1_555
C9 C8 1_555 1_555
C10 C9 1_555 1_555
C11 C6 1_555 1_555
C12 O1 1_555 1_555
C13 C12 1_555 1_555
C14 C13 1_555 1_555
C15 C14 1_555 1_555
C16 C15 1_555 1_555
C17 C12 1_555 1_555
C18 C19 1_555 1_555
C19 C20 1_555 1_555
C20 N3 1_555 1_555
C21 C20 1_555 1_555
C22 N4 1_555 1_555
C23 N2 1_555 1_555
C24 N3 1_555 1_555
H1 C7 1_555 1_555
H2 C8 1_555 1_555
H3 C10 1_555 1_555
H4 C11 1_555 1_555
H5 C13 1_555 1_555
H6 C14 1_555 1_555
H7 C16 1_555 1_555
H8 C17 1_555 1_555
H9 C23 1_555 1_555
H10 C23 1_555 1_555
H11 C24 1_555 1_555
H12 C23 1_555 1_555
H13 C24 1_555 1_555
H14 C24 1_555 1_555
C10 C11 1_555 1_555
C16 C17 1_555 1_555
C21 C22 1_555 1_555

#END
