
#######################################################################
#
#                 Cambridge Crystallographic Data Centre
#                                CCDC 
#
#######################################################################
#
# If this CIF has been generated from an entry in the Cambridge 
# Structural Database, then it will include bibliographic, chemical, 
# crystal, experimental, refinement or atomic coordinate data resulting 
# from the CCDC's data processing and validation procedures.
#
#######################################################################

data_NIXTUK
_chemical_compound_source        'roots of Ligularia sagitta Maxim'
_chemical_formula_moiety         'C22 H30 O7'
_chemical_name_systematic        
'(11a-Hydroxy-13-methoxy-1,2,9-trimethyl-6-oxo-2,3,4,4a,7,8,11,11a-octahydro-1H-8,10a-epoxy-1,10-methanodibenzo[b,e]oxepin-6a(6H)-yl)methyl acetate'
_chemical_properties_biological  
'roots of source plant relieve phlegm and cough, invigorate circulation of blood, soothe pain and cure rheumatoid arthritis'
_symmetry_cell_setting           monoclinic
_symmetry_space_group_name_H-M   'P 21'
_symmetry_Int_Tables_number      4
_space_group_name_Hall           'P 2yb'
loop_
_symmetry_equiv_pos_site_id
_symmetry_equiv_pos_as_xyz
1 x,y,z
2 -x,1/2+y,-z
_cell_length_a                   7.1629(2)
_cell_length_b                   14.2956(3)
_cell_length_c                   10.1682(3)
_cell_angle_alpha                90.00
_cell_angle_beta                 91.7740(10)
_cell_angle_gamma                90.00
_cell_volume                     1040.7
_exptl_crystal_colour            colorless
_exptl_crystal_description       needles
_cell_formula_units_Z            2
loop_
_atom_site_label
_atom_site_type_symbol
_atom_site_fract_x
_atom_site_fract_y
_atom_site_fract_z
C1 C 0.5159(3) 0.41117(14) 1.26435(17)
H1 H 0.5868 0.4612 1.3088
C2 C 0.6416(3) 0.32429(15) 1.27042(17)
H2 H 0.7652 0.3412 1.2421
H3 H 0.6535 0.3030 1.3609
C3 C 0.5664(3) 0.24477(14) 1.18489(18)
H4 H 0.4474 0.2241 1.2174
H5 H 0.6524 0.1924 1.1901
C4 C 0.5408(2) 0.27567(12) 1.04190(16)
H6 H 0.4855 0.2242 0.9903
C5 C 0.4101(2) 0.36139(12) 1.03205(17)
C6 C 0.4795(2) 0.44487(12) 1.12016(16)
C7 C 0.8078(2) 0.31327(12) 0.88756(17)
C8 C 0.6637(2) 0.48689(12) 1.06738(16)
H7 H 0.7684 0.4470 1.0962
C9 C 0.6608(2) 0.49336(12) 0.91955(16)
C10 C 0.7618(2) 0.54380(13) 0.83672(18)
C11 C 0.3700(2) 0.39161(13) 0.89022(17)
H8 H 0.3227 0.3388 0.8393
H9 H 0.2753 0.4402 0.8879
C12 C 0.5441(2) 0.42752(12) 0.83149(16)
C13 C 0.3315(3) 0.52309(15) 1.1144(2)
H10 H 0.3414 0.5573 1.0337
H11 H 0.3518 0.5647 1.1875
H12 H 0.2092 0.4960 1.1184
C14 C 0.7955(3) 0.41386(14) 0.68053(18)
H13 H 0.9277 0.4153 0.7041
H14 H 0.7787 0.3923 0.5905
C15 C 0.7038(2) 0.50966(15) 0.70051(18)
H15 H 0.7239 0.5548 0.6298
C16 C 0.5826(3) 0.27273(14) 0.70466(17)
H16 H 0.5221 0.2322 0.7669
H17 H 0.4882 0.2978 0.6439
C17 C 0.6851(2) 0.35229(13) 0.77718(16)
C18 C 0.6536(3) 0.15670(15) 0.54921(17)
C19 C 0.8370(3) 0.58876(18) 1.2184(2)
H18 H 0.7874 0.5759 1.3032
H19 H 0.8852 0.6514 1.2172
H20 H 0.9357 0.5454 1.2014
C20 C 0.3421(4) 0.39474(18) 1.3464(2)
H21 H 0.2809 0.3383 1.3176
H22 H 0.2579 0.4466 1.3351
H23 H 0.3790 0.3891 1.4376
C21 C 0.9204(3) 0.60991(15) 0.8595(2)
H24 H 0.9385 0.6207 0.9522
H25 H 0.8930 0.6681 0.8159
H26 H 1.0321 0.5835 0.8251
C22 C 0.8066(4) 0.11170(19) 0.4761(2)
H27 H 0.8874 0.0783 0.5368
H28 H 0.8769 0.1589 0.4323
H29 H 0.7540 0.0689 0.4123
O1 O 0.72050(18) 0.22139(10) 0.63422(13)
O2 O 0.4916(2) 0.14010(15) 0.53672(17)
O3 O 0.97392(16) 0.30395(12) 0.87900(13)
O4 O 0.23956(17) 0.32795(10) 1.08477(12)
H30 H 0.1659 0.3147 1.0243
O5 O 0.73586(16) 0.28953(9) 1.00289(11)
O6 O 0.51038(17) 0.48314(10) 0.71646(12)
O7 O 0.69325(18) 0.57924(9) 1.12006(14)
loop_
_geom_bond_atom_site_label_1
_geom_bond_atom_site_label_2
_geom_bond_site_symmetry_1
_geom_bond_site_symmetry_2
C1 H1 1_555 1_555
C2 C1 1_555 1_555
H2 C2 1_555 1_555
H3 C2 1_555 1_555
C3 C2 1_555 1_555
H4 C3 1_555 1_555
H5 C3 1_555 1_555
C4 C3 1_555 1_555
H6 C4 1_555 1_555
C5 C4 1_555 1_555
C6 C1 1_555 1_555
C7 C17 1_555 1_555
C8 C6 1_555 1_555
H7 C8 1_555 1_555
C9 C8 1_555 1_555
C10 C9 1_555 1_555
C11 C5 1_555 1_555
H8 C11 1_555 1_555
H9 C11 1_555 1_555
C12 C9 1_555 1_555
C13 C6 1_555 1_555
H10 C13 1_555 1_555
H11 C13 1_555 1_555
H12 C13 1_555 1_555
C14 H13 1_555 1_555
H14 C14 1_555 1_555
C15 C10 1_555 1_555
H15 C15 1_555 1_555
C16 H16 1_555 1_555
H17 C16 1_555 1_555
C17 C12 1_555 1_555
C18 C22 1_555 1_555
C19 H18 1_555 1_555
H19 C19 1_555 1_555
H20 C19 1_555 1_555
C20 C1 1_555 1_555
H21 C20 1_555 1_555
H22 C20 1_555 1_555
H23 C20 1_555 1_555
C21 C10 1_555 1_555
H24 C21 1_555 1_555
H25 C21 1_555 1_555
H26 C21 1_555 1_555
C22 H27 1_555 1_555
H28 C22 1_555 1_555
H29 C22 1_555 1_555
O1 C16 1_555 1_555
O2 C18 1_555 1_555
O3 C7 1_555 1_555
O4 C5 1_555 1_555
H30 O4 1_555 1_555
O5 C4 1_555 1_555
O6 C12 1_555 1_555
O7 C8 1_555 1_555
C5 C6 1_555 1_555
C7 O5 1_555 1_555
C11 C12 1_555 1_555
C14 C15 1_555 1_555
C14 C17 1_555 1_555
C15 O6 1_555 1_555
C16 C17 1_555 1_555
C18 O1 1_555 1_555
C19 O7 1_555 1_555

#END
