
#######################################################################
#
#                 Cambridge Crystallographic Data Centre
#                                CCDC 
#
#######################################################################
#
# If this CIF has been generated from an entry in the Cambridge 
# Structural Database, then it will include bibliographic, chemical, 
# crystal, experimental, refinement or atomic coordinate data resulting 
# from the CCDC's data processing and validation procedures.
#
#######################################################################

data_NIXWEY
_chemical_formula_moiety         'C33 H21 Cl4 N3 O4'
_chemical_name_systematic        
2,9-Di-n-butyl-5,6,12,13-tetrachloro-1,3,8,10-tetraoxo-1,2,3,8,9,10-hexahydroisoquinolino[4',5',6':6,5,10]anthra[2,1,9-def]isoquinoline-4-carbonitrile
_symmetry_cell_setting           triclinic
_symmetry_space_group_name_H-M   'P -1'
_symmetry_Int_Tables_number      2
_space_group_name_Hall           '-P 1'
loop_
_symmetry_equiv_pos_site_id
_symmetry_equiv_pos_as_xyz
1 x,y,z
2 -x,-y,-z
_cell_length_a                   9.0233(18)
_cell_length_b                   10.762(2)
_cell_length_c                   15.855(3)
_cell_angle_alpha                72.77(3)
_cell_angle_beta                 81.25(3)
_cell_angle_gamma                83.83(3)
_cell_volume                     1450.27
_exptl_crystal_colour            red
_exptl_crystal_description       plate
_cell_formula_units_Z            2
loop_
_atom_site_label
_atom_site_type_symbol
_atom_site_fract_x
_atom_site_fract_y
_atom_site_fract_z
Cl1 Cl 0.2182(3) -0.2590(2) 0.81916(19)
Cl2 Cl -0.0629(3) -0.2065(2) 0.72260(17)
Cl3 Cl 0.5151(3) 0.3237(2) 0.4788(2)
Cl4 Cl 0.2013(3) 0.4624(2) 0.5207(2)
O1 O 0.1527(12) 0.0533(9) 1.0330(6)
O2 O 0.1367(13) 0.4649(10) 0.8572(7)
O3 O 0.0931(8) -0.2372(7) 0.3945(4)
O4 O 0.4613(9) 0.0402(8) 0.2633(5)
N1 N 0.1461(15) 0.2663(12) 0.9430(8)
N2 N 0.1985(17) -0.2306(14) 1.0303(9)
N3 N 0.2769(10) -0.0976(9) 0.3268(6)
C1 C 0.1575(17) 0.1305(14) 0.9550(9)
C2 C 0.1695(14) 0.0834(12) 0.8778(8)
C3 C 0.1836(14) -0.0495(12) 0.8819(8)
C4 C 0.1923(19) -0.1388(15) 0.9651(9)
C5 C 0.1922(12) -0.0956(9) 0.8051(7)
C6 C 0.1821(10) -0.0080(9) 0.7212(6)
C7 C 0.1631(10) -0.0417(8) 0.6403(6)
C8 C 0.0721(10) -0.1372(9) 0.6360(6)
C9 C 0.0718(10) -0.1717(9) 0.5600(7)
H1 H 0.0055 -0.2345 0.5599
C10 C 0.1691(10) -0.1156(9) 0.4800(7)
C11 C 0.1731(12) -0.1531(10) 0.3998(7)
C12 C 0.2722(15) -0.1266(12) 0.2428(8)
H2 H 0.2837 -0.0453 0.1933
H3 H 0.1727 -0.1582 0.2437
C13 C 0.4004(18) -0.2338(15) 0.2248(10)
H4 H 0.4066 -0.2330 0.1617
H5 H 0.4979 -0.2076 0.2330
C14 C 0.381(2) -0.3659(17) 0.2801(11)
H6 H 0.3730 -0.3640 0.3427
H7 H 0.4749 -0.4179 0.2686
C15 C 0.247(2) -0.4452(17) 0.2745(11)
H8 H 0.2213 -0.4174 0.2136
H9 H 0.1599 -0.4289 0.3156
H10 H 0.2782 -0.5385 0.2907
C16 C 0.3687(12) -0.0025(11) 0.3290(8)
C17 C 0.3477(11) 0.0482(10) 0.4054(7)
C18 C 0.4240(10) 0.1553(9) 0.4108(7)
H11 H 0.4965 0.1940 0.3626
C19 C 0.3972(10) 0.2024(10) 0.4804(7)
C20 C 0.2884(10) 0.1583(9) 0.5557(7)
C21 C 0.2373(11) 0.2137(9) 0.6269(7)
C22 C 0.2141(11) 0.3451(10) 0.6194(7)
C23 C 0.1818(13) 0.3917(12) 0.6971(8)
H12 H 0.1676 0.4829 0.6894
C24 C 0.1709(14) 0.3078(11) 0.7826(8)
C25 C 0.1542(18) 0.3510(15) 0.8573(10)
C26 C 0.1816(12) 0.1680(10) 0.7894(7)
C27 C 0.2012(10) 0.1281(9) 0.7149(6)
C28 C 0.2364(9) 0.0335(8) 0.5587(6)
C29 C 0.2503(9) -0.0103(9) 0.4833(6)
C30 C 0.103(3) 0.319(3) 1.022(2)
H13 H 0.0887 0.2484 1.0788
H14 H 0.0097 0.3764 1.0157
C31 C 0.238(3) 0.397(2) 1.0218(19)
H15 H 0.2661 0.4583 0.9625
H16 H 0.2243 0.4428 1.0684
C32 C 0.329(4) 0.268(3) 1.0573(19)
H17 H 0.2812 0.1844 1.0722
H18 H 0.4189 0.2712 1.0125
C33 C 0.373(4) 0.331(3) 1.1195(18)
H19 H 0.4667 0.3761 1.1062
H20 H 0.3808 0.2537 1.1707
H21 H 0.2887 0.3898 1.1333
C34? C 0.187(5) 0.288(5) 1.023(3)
H22? H 0.1668 0.2033 1.0670
H23? H 0.1046 0.3502 1.0365
C35? C 0.336(5) 0.342(5) 1.029(3)
H24? H 0.3880 0.2648 1.0675
H25? H 0.4071 0.3775 0.9750
C36? C 0.275(5) 0.417(5) 1.097(3)
H26? H 0.2302 0.5007 1.0622
H27? H 0.2178 0.3855 1.1573
C37? C 0.445(5) 0.426(5) 1.095(3)
H28? H 0.4946 0.4007 1.0431
H29? H 0.4740 0.3623 1.1495
H30? H 0.4744 0.5124 1.0926
loop_
_geom_bond_atom_site_label_1
_geom_bond_atom_site_label_2
_geom_bond_site_symmetry_1
_geom_bond_site_symmetry_2
Cl1 C5 1_555 1_555
Cl2 C8 1_555 1_555
Cl3 C19 1_555 1_555
Cl4 C22 1_555 1_555
O1 C1 1_555 1_555
O2 C25 1_555 1_555
O3 C11 1_555 1_555
O4 C16 1_555 1_555
N1 C1 1_555 1_555
N2 C4 1_555 1_555
N3 C11 1_555 1_555
C1 C2 1_555 1_555
C2 C3 1_555 1_555
C3 C4 1_555 1_555
C5 C3 1_555 1_555
C6 C5 1_555 1_555
C7 C6 1_555 1_555
C8 C7 1_555 1_555
C9 C8 1_555 1_555
H1 C9 1_555 1_555
C10 C9 1_555 1_555
C11 C10 1_555 1_555
C12 N3 1_555 1_555
H2 C12 1_555 1_555
H3 C12 1_555 1_555
C13 C12 1_555 1_555
H4 C13 1_555 1_555
H5 C13 1_555 1_555
C14 C13 1_555 1_555
H6 C14 1_555 1_555
H7 C14 1_555 1_555
C15 C14 1_555 1_555
H8 C15 1_555 1_555
H9 C15 1_555 1_555
H10 C15 1_555 1_555
C16 N3 1_555 1_555
C17 C16 1_555 1_555
C18 C17 1_555 1_555
H11 C18 1_555 1_555
C19 C18 1_555 1_555
C20 C19 1_555 1_555
C21 C20 1_555 1_555
C22 C21 1_555 1_555
C23 C22 1_555 1_555
H12 C23 1_555 1_555
C24 C23 1_555 1_555
C25 N1 1_555 1_555
C26 C2 1_555 1_555
C27 C6 1_555 1_555
C28 C7 1_555 1_555
C29 C10 1_555 1_555
C30 N1 1_555 1_555
H13 C30 1_555 1_555
H14 C30 1_555 1_555
C31 C30 1_555 1_555
H15 C31 1_555 1_555
H16 C31 1_555 1_555
C32 C31 1_555 1_555
H17 C32 1_555 1_555
H18 C32 1_555 1_555
C33 C32 1_555 1_555
H19 C33 1_555 1_555
H20 C33 1_555 1_555
H21 C33 1_555 1_555
C17 C29 1_555 1_555
C20 C28 1_555 1_555
C21 C27 1_555 1_555
C24 C25 1_555 1_555
C24 C26 1_555 1_555
C26 C27 1_555 1_555
C28 C29 1_555 1_555

#END
