
#######################################################################
#
#                 Cambridge Crystallographic Data Centre
#                                CCDC 
#
#######################################################################
#
# If this CIF has been generated from an entry in the Cambridge 
# Structural Database, then it will include bibliographic, chemical, 
# crystal, experimental, refinement or atomic coordinate data resulting 
# from the CCDC's data processing and validation procedures.
#
#######################################################################

data_NIXXID
_chemical_formula_moiety         'C22 H15 Cl1 N2'
_chemical_name_systematic        
2-(2-Chlorobenzyl)-3-phenylindolizine-1-carbonitrile
_symmetry_cell_setting           triclinic
_symmetry_space_group_name_H-M   'P -1'
_symmetry_Int_Tables_number      2
_space_group_name_Hall           '-P 1'
loop_
_symmetry_equiv_pos_site_id
_symmetry_equiv_pos_as_xyz
1 x,y,z
2 -x,-y,-z
_cell_length_a                   8.6705(17)
_cell_length_b                   10.194(2)
_cell_length_c                   10.926(2)
_cell_angle_alpha                110.20(3)
_cell_angle_beta                 92.26(3)
_cell_angle_gamma                106.10(3)
_cell_volume                     860.929
_cell_formula_units_Z            2
loop_
_atom_site_label
_atom_site_type_symbol
_atom_site_fract_x
_atom_site_fract_y
_atom_site_fract_z
Cl1 Cl 0.35980(5) 0.21890(5) 0.05899(5)
N1 N -0.09642(14) 0.64118(13) 0.32026(11)
C1 C 0.08152(18) 0.23701(15) 0.16015(13)
C2 C 0.03246(17) 0.58318(15) 0.31099(14)
C3 C 0.18942(18) 0.15609(16) 0.12739(14)
C4 C 0.00088(18) 0.46818(15) 0.19118(14)
C5 C 0.17264(17) 0.64548(16) 0.41661(14)
C6 C -0.20987(18) 0.56340(16) 0.20586(14)
C7 C -0.14985(19) 0.45594(16) 0.12513(14)
C8 C 0.1120(2) 0.38002(17) 0.13760(16)
C9 C -0.0533(2) 0.17931(18) 0.21179(15)
C10 C -0.1246(2) 0.75103(17) 0.42403(15)
C11 C -0.2289(2) 0.35447(17) -0.00274(15)
C12 C 0.2574(2) 0.79554(18) 0.46665(17)
C13 C 0.1666(2) 0.02463(18) 0.14539(17)
C14 C -0.3514(2) 0.60419(19) 0.19606(17)
C15 C 0.2239(2) 0.5542(2) 0.46749(17)
C16 C -0.3768(2) 0.7139(2) 0.29766(19)
N2 N -0.2929(2) 0.27405(18) -0.10555(15)
C17 C -0.0786(3) 0.04677(19) 0.22904(16)
C18 C 0.3862(2) 0.8532(2) 0.56771(19)
C19 C 0.0315(3) -0.02941(18) 0.19694(17)
C20 C -0.2614(2) 0.78730(19) 0.41420(18)
C21 C 0.4341(2) 0.7621(3) 0.61878(19)
C22 C 0.3547(2) 0.6121(3) 0.5670(2)
H1 H -0.042(2) 0.793(2) 0.4974(18)
H2 H -0.426(2) 0.550(2) 0.1153(19)
H3 H 0.104(2) 0.355(2) 0.046(2)
H4 H 0.224(3) 0.443(2) 0.1797(19)
H5 H 0.227(3) 0.860(3) 0.424(2)
H6 H -0.129(3) 0.230(2) 0.229(2)
H7 H 0.244(3) -0.029(3) 0.117(2)
H8 H 0.446(3) 0.955(3) 0.594(2)
H9 H 0.166(3) 0.451(3) 0.433(2)
H10 H -0.282(3) 0.866(2) 0.490(2)
H11 H 0.016(3) -0.122(2) 0.208(2)
H12 H -0.479(3) 0.737(3) 0.284(2)
H13 H -0.170(3) 0.014(2) 0.264(2)
H14 H 0.525(3) 0.804(2) 0.687(2)
H15 H 0.389(3) 0.549(3) 0.602(2)
loop_
_geom_bond_atom_site_label_1
_geom_bond_atom_site_label_2
_geom_bond_site_symmetry_1
_geom_bond_site_symmetry_2
Cl1 C3 1_555 1_555
N1 C2 1_555 1_555
C1 C3 1_555 1_555
C2 C4 1_555 1_555
C3 C13 1_555 1_555
C4 C7 1_555 1_555
C5 C2 1_555 1_555
C6 N1 1_555 1_555
C7 C6 1_555 1_555
C8 C1 1_555 1_555
C9 C1 1_555 1_555
C10 N1 1_555 1_555
C11 C7 1_555 1_555
C12 C5 1_555 1_555
C13 C19 1_555 1_555
C14 C6 1_555 1_555
C15 C5 1_555 1_555
C16 C14 1_555 1_555
N2 C11 1_555 1_555
C17 C9 1_555 1_555
C18 C12 1_555 1_555
C19 C17 1_555 1_555
C20 C10 1_555 1_555
C21 C18 1_555 1_555
C22 C15 1_555 1_555
H1 C10 1_555 1_555
H2 C14 1_555 1_555
H3 C8 1_555 1_555
H4 C8 1_555 1_555
H5 C12 1_555 1_555
H6 C9 1_555 1_555
H7 C13 1_555 1_555
H8 C18 1_555 1_555
H9 C15 1_555 1_555
H10 C20 1_555 1_555
H11 C19 1_555 1_555
H12 C16 1_555 1_555
H13 C17 1_555 1_555
H14 C21 1_555 1_555
H15 C22 1_555 1_555
C4 C8 1_555 1_555
C16 C20 1_555 1_555
C21 C22 1_555 1_555

#END
