
#######################################################################
#
#                 Cambridge Crystallographic Data Centre
#                                CCDC 
#
#######################################################################
#
# If this CIF has been generated from an entry in the Cambridge 
# Structural Database, then it will include bibliographic, chemical, 
# crystal, experimental, refinement or atomic coordinate data resulting 
# from the CCDC's data processing and validation procedures.
#
#######################################################################

data_NIYBIG
_chemical_formula_moiety         'C20 H28 O12'
_chemical_name_systematic        
"2-(2',3',4',6'-Tetra-O-acetyl-\b-D-glucosyloxy)ethyl methacrylate"
_symmetry_cell_setting           orthorhombic
_symmetry_space_group_name_H-M   'P 21 21 21'
_symmetry_Int_Tables_number      19
_space_group_name_Hall           'P 2ac 2ab'
loop_
_symmetry_equiv_pos_site_id
_symmetry_equiv_pos_as_xyz
1 x,y,z
2 1/2-x,-y,1/2+z
3 -x,1/2+y,1/2-z
4 1/2+x,1/2-y,-z
_cell_length_a                   8.442(2)
_cell_length_b                   12.466(4)
_cell_length_c                   21.904(7)
_cell_angle_alpha                90
_cell_angle_beta                 90
_cell_angle_gamma                90
_cell_volume                     2305.13
_exptl_crystal_colour            colorless
_exptl_crystal_description       plate
_chemical_melting_point          350-352K
_cell_formula_units_Z            4
loop_
_atom_site_label
_atom_site_type_symbol
_atom_site_fract_x
_atom_site_fract_y
_atom_site_fract_z
O1 O 0.66194(11) 0.61041(8) 0.24748(5)
O2 O 0.39079(11) 0.54306(8) 0.18033(4)
O3 O 0.13277(11) 0.46898(7) 0.25450(4)
O4 O 0.08428(12) 0.60440(8) 0.35890(5)
O5 O 0.51166(11) 0.62381(7) 0.33364(4)
O6 O 0.42843(13) 0.56365(8) 0.45196(5)
O7 O 0.58951(13) 0.78650(8) 0.16365(5)
O8 O 0.59057(18) 0.71625(15) 0.06945(6)
O9 O 0.51326(16) 0.38315(9) 0.17123(5)
O10 O 0.01913(12) 0.57142(8) 0.18126(5)
O11 O 0.06004(16) 0.46759(13) 0.42588(7)
O12 O 0.4941(3) 0.64746(13) 0.53805(7)
C1 C 0.50882(15) 0.62774(10) 0.26854(6)
H1 H 0.4687 0.6989 0.2543
C2 C 0.40118(14) 0.53788(10) 0.24604(6)
H2 H 0.4422 0.4664 0.2594
C3 C 0.23506(14) 0.55721(10) 0.27095(6)
H3 H 0.1919 0.6250 0.2531
C4 C 0.23827(15) 0.56685(10) 0.34018(6)
H4 H 0.2632 0.4962 0.3595
C5 C 0.36050(15) 0.65185(10) 0.35870(6)
H5 H 0.3273 0.7223 0.3410
C6 C 0.38146(18) 0.66582(11) 0.42664(7)
H6 H 0.4638 0.7205 0.4349
H7 H 0.2810 0.6900 0.4454
C7 C 0.75315(15) 0.70757(11) 0.24041(6)
H8 H 0.8643 0.6941 0.2526
H9 H 0.7097 0.7641 0.2674
C8 C 0.74808(16) 0.74506(12) 0.17498(6)
H10 H 0.8278 0.8021 0.1682
H11 H 0.7714 0.6847 0.1470
C9 C 0.52095(19) 0.76140(13) 0.10982(6)
C10 C 0.3506(2) 0.79499(13) 0.10784(7)
C11 C 0.2820(2) 0.85410(15) 0.16094(9)
H12 H 0.1688 0.8668 0.1541
H13 H 0.3367 0.9230 0.1654
H14 H 0.2961 0.8117 0.1982
C12 C 0.2672(3) 0.76867(18) 0.05843(9)
H15 H 0.319(2) 0.7298(17) 0.0297(10)
H16 H 0.156(3) 0.789(2) 0.0541(11)
C13 C 0.44977(16) 0.45944(11) 0.14805(7)
C14 C 0.4250(3) 0.47516(16) 0.08088(8)
H17 H 0.5103 0.5196 0.0641
H18 H 0.3229 0.5106 0.0739
H19 H 0.4250 0.4051 0.0605
C15 C 0.02865(14) 0.48696(11) 0.20778(6)
C16 C -0.06898(18) 0.38952(13) 0.19405(7)
H20 H -0.1817 0.4082 0.1955
H21 H -0.0465 0.3340 0.2245
H22 H -0.0426 0.3625 0.1533
C17 C 0.00773(17) 0.54798(13) 0.40337(6)
C18 C -0.1458(2) 0.60146(17) 0.41915(8)
H23 H -0.2017 0.5588 0.4500
H24 H -0.2116 0.6074 0.3824
H25 H -0.1245 0.6733 0.4354
C19 C 0.4823(2) 0.56550(14) 0.50942(7)
C20 C 0.5267(3) 0.45544(15) 0.53117(8)
H26 H 0.5034 0.4491 0.5749
H27 H 0.6400 0.4436 0.5243
H28 H 0.4656 0.4017 0.5085
loop_
_geom_bond_atom_site_label_1
_geom_bond_atom_site_label_2
_geom_bond_site_symmetry_1
_geom_bond_site_symmetry_2
O1 C1 1_555 1_555
O2 C2 1_555 1_555
O3 C3 1_555 1_555
O4 C4 1_555 1_555
O5 C1 1_555 1_555
O6 C6 1_555 1_555
O7 C8 1_555 1_555
O8 C9 1_555 1_555
O9 C13 1_555 1_555
O10 C15 1_555 1_555
O11 C17 1_555 1_555
O12 C19 1_555 1_555
C1 H1 1_555 1_555
C2 C1 1_555 1_555
H2 C2 1_555 1_555
C3 C2 1_555 1_555
H3 C3 1_555 1_555
C4 C3 1_555 1_555
H4 C4 1_555 1_555
C5 O5 1_555 1_555
H5 C5 1_555 1_555
C6 C5 1_555 1_555
H6 C6 1_555 1_555
H7 C6 1_555 1_555
C7 O1 1_555 1_555
H8 C7 1_555 1_555
H9 C7 1_555 1_555
C8 C7 1_555 1_555
H10 C8 1_555 1_555
H11 C8 1_555 1_555
C9 O7 1_555 1_555
C10 C9 1_555 1_555
C11 C10 1_555 1_555
H12 C11 1_555 1_555
H13 C11 1_555 1_555
H14 C11 1_555 1_555
C12 C10 1_555 1_555
H15 C12 1_555 1_555
H16 C12 1_555 1_555
C13 O2 1_555 1_555
C14 C13 1_555 1_555
H17 C14 1_555 1_555
H18 C14 1_555 1_555
H19 C14 1_555 1_555
C15 O3 1_555 1_555
C16 C15 1_555 1_555
H20 C16 1_555 1_555
H21 C16 1_555 1_555
H22 C16 1_555 1_555
C17 O4 1_555 1_555
C18 C17 1_555 1_555
H23 C18 1_555 1_555
H24 C18 1_555 1_555
H25 C18 1_555 1_555
C19 O6 1_555 1_555
C20 C19 1_555 1_555
H26 C20 1_555 1_555
H27 C20 1_555 1_555
H28 C20 1_555 1_555
C4 C5 1_555 1_555

#END
