
#######################################################################
#
#                 Cambridge Crystallographic Data Centre
#                                CCDC 
#
#######################################################################
#
# If this CIF has been generated from an entry in the Cambridge 
# Structural Database, then it will include bibliographic, chemical, 
# crystal, experimental, refinement or atomic coordinate data resulting 
# from the CCDC's data processing and validation procedures.
#
#######################################################################

data_NIYFIK
_chemical_formula_moiety         'C16 H19 N7 O1'
_chemical_name_systematic        
4-(Benzylamino)-2-(2-hydroxyethylamino)-8-(methylamino)pyrimido(5,4-d)pyrimidine
_symmetry_cell_setting           orthorhombic
_symmetry_space_group_name_H-M   'P b c n'
_symmetry_Int_Tables_number      60
_space_group_name_Hall           '-P 2n 2ab'
loop_
_symmetry_equiv_pos_site_id
_symmetry_equiv_pos_as_xyz
1 x,y,z
2 1/2-x,1/2-y,1/2+z
3 -x,y,1/2-z
4 1/2+x,1/2-y,-z
5 -x,-y,-z
6 1/2+x,1/2+y,1/2-z
7 x,-y,1/2+z
8 1/2-x,1/2+y,z
_cell_length_a                   38.754(8)
_cell_length_b                   7.9580(16)
_cell_length_c                   20.954(4)
_cell_angle_alpha                90
_cell_angle_beta                 90
_cell_angle_gamma                90
_cell_volume                     6462.3
_exptl_crystal_colour            colorless
_exptl_crystal_description       needle
_cell_formula_units_Z            16
loop_
_atom_site_label
_atom_site_type_symbol
_atom_site_fract_x
_atom_site_fract_y
_atom_site_fract_z
O1 O 0.16270(5) 0.8044(2) 0.03999(9)
H1 H 0.1809(7) 0.777(4) 0.0145(13)
N1 N 0.15017(5) 0.5887(3) 0.15090(10)
H2 H 0.1716(6) 0.605(3) 0.1680(12)
N2 N 0.13018(5) 0.7078(2) 0.24356(10)
N3 N 0.13670(5) 0.8665(3) 0.36173(10)
H3 H 0.1557(7) 0.858(3) 0.3318(13)
N4 N 0.07796(5) 0.8453(3) 0.37893(10)
N5 N 0.03958(5) 0.7362(3) 0.29882(10)
N6 N 0.09138(5) 0.6026(3) 0.16213(10)
N7 N 0.03259(5) 0.6100(3) 0.17365(10)
H4 H 0.0155(7) 0.643(3) 0.1950(12)
C1 C 0.13772(6) 0.6723(3) 0.03914(13)
H5 H 0.1361 0.6262 -0.0047
H6 H 0.1149 0.7190 0.0506
C2 C 0.14649(6) 0.5315(3) 0.08478(12)
H7 H 0.1281 0.4452 0.0828
H8 H 0.1683 0.4782 0.0710
C3 C 0.12311(6) 0.6356(3) 0.18712(12)
C4 C 0.10156(6) 0.7428(3) 0.27961(12)
C5 C 0.10533(6) 0.8192(3) 0.34161(12)
C6 C 0.14217(7) 0.9506(4) 0.42268(14)
H9 H 0.1276 1.0511 0.4249
H10 H 0.1665 0.9832 0.4265
H11 H 0.1361 0.8741 0.4576
C7 C 0.04694(6) 0.8013(3) 0.35521(13)
H12 H 0.0278 0.8196 0.3827
C8 C 0.06794(6) 0.7093(3) 0.26073(12)
C9 C 0.06394(6) 0.6397(3) 0.19769(12)
C10 C 0.02804(6) 0.5155(3) 0.11479(12)
H13 H 0.0034 0.4837 0.1111
H14 H 0.0416 0.4104 0.1180
C11 C 0.03852(6) 0.6056(3) 0.05430(12)
C12 C 0.03696(6) 0.7790(3) 0.04880(13)
H15 H 0.0296 0.8440 0.0843
C13 C 0.04594(7) 0.8601(4) -0.00793(14)
H16 H 0.0445 0.9790 -0.0111
C14 C 0.05702(7) 0.7650(4) -0.05964(14)
H17 H 0.0633 0.8186 -0.0984
C15 C 0.05885(7) 0.5918(4) -0.05439(14)
H18 H 0.0664 0.5269 -0.0897
C16 C 0.04972(6) 0.5124(4) 0.00186(13)
H19 H 0.0511 0.3934 0.0048
O2 O 0.27880(5) 1.2446(3) -0.02818(10)
H20 H 0.2757(9) 1.210(4) -0.0605(16)
N8 N 0.26910(5) 1.2672(2) 0.10971(10)
H21 H 0.2920(6) 1.279(3) 0.1122(12)
N9 N 0.27578(5) 1.1177(2) 0.20215(9)
N10 N 0.31330(5) 0.9966(3) 0.30798(10)
H22 H 0.3224(6) 1.068(3) 0.2816(12)
N11 N 0.26336(5) 0.8888(2) 0.35185(10)
N12 N 0.20806(5) 0.9211(2) 0.30169(10)
N13 N 0.21939(5) 1.1618(2) 0.15456(9)
N14 N 0.17126(5) 1.0287(3) 0.19641(11)
H23 H 0.1629(6) 0.954(3) 0.2224(12)
C17 C 0.24627(7) 1.2905(4) -0.00146(13)
H24 H 0.2314 1.1895 0.0019
H25 H 0.2346 1.3719 -0.0300
C18 C 0.25074(7) 1.3663(3) 0.06260(12)
H26 H 0.2631 1.4743 0.0574
H27 H 0.2276 1.3924 0.0799
C19 C 0.25415(6) 1.1803(3) 0.15794(11)
C20 C 0.25971(6) 1.0333(3) 0.25059(12)
C21 C 0.27927(6) 0.9715(3) 0.30463(12)
C22 C 0.33362(6) 0.9450(4) 0.36320(13)
H28 H 0.3252 1.0036 0.4013
H29 H 0.3579 0.9733 0.3561
H30 H 0.3314 0.8234 0.3693
C23 C 0.22874(6) 0.8695(3) 0.34728(12)
H31 H 0.2180 0.8110 0.3815
C24 C 0.22466(6) 1.0040(3) 0.25281(12)
C25 C 0.20468(6) 1.0675(3) 0.19957(12)
C26 C 0.14660(6) 1.0962(3) 0.15012(12)
H32 H 0.1427 1.0133 0.1157
H33 H 0.1560 1.2001 0.1307
C27 C 0.11284(6) 1.1344(3) 0.18380(12)
C28 C 0.08183(6) 1.0698(3) 0.16206(14)
H34 H 0.0814 1.0020 0.1248
C29 C 0.05136(7) 1.1037(4) 0.19453(16)
H35 H 0.0302 1.0585 0.1795
C30 C 0.05178(8) 1.2026(4) 0.24839(16)
H36 H 0.0309 1.2255 0.2706
C31 C 0.08234(7) 1.2679(4) 0.26989(14)
H37 H 0.0826 1.3370 0.3069
C32 C 0.11275(7) 1.2340(3) 0.23814(14)
H38 H 0.1338 1.2793 0.2536
loop_
_geom_bond_atom_site_label_1
_geom_bond_atom_site_label_2
_geom_bond_site_symmetry_1
_geom_bond_site_symmetry_2
O1 H1 1_555 1_555
N1 H2 1_555 1_555
N2 C3 1_555 1_555
N3 H3 1_555 1_555
N4 C5 1_555 1_555
N5 C7 1_555 1_555
N6 C3 1_555 1_555
N7 H4 1_555 1_555
C1 O1 1_555 1_555
H5 C1 1_555 1_555
H6 C1 1_555 1_555
C2 N1 1_555 1_555
H7 C2 1_555 1_555
H8 C2 1_555 1_555
C3 N1 1_555 1_555
C4 N2 1_555 1_555
C5 N3 1_555 1_555
C6 N3 1_555 1_555
H9 C6 1_555 1_555
H10 C6 1_555 1_555
H11 C6 1_555 1_555
C7 N4 1_555 1_555
H12 C7 1_555 1_555
C8 N5 1_555 1_555
C9 N6 1_555 1_555
C10 N7 1_555 1_555
H13 C10 1_555 1_555
H14 C10 1_555 1_555
C11 C10 1_555 1_555
C12 C11 1_555 1_555
H15 C12 1_555 1_555
C13 C12 1_555 1_555
H16 C13 1_555 1_555
C14 C13 1_555 1_555
H17 C14 1_555 1_555
C15 C14 1_555 1_555
H18 C15 1_555 1_555
C16 C11 1_555 1_555
H19 C16 1_555 1_555
O2 H20 1_555 1_555
N8 H21 1_555 1_555
N9 C19 1_555 1_555
N10 H22 1_555 1_555
N11 C21 1_555 1_555
N12 C23 1_555 1_555
N13 C19 1_555 1_555
N14 H23 1_555 1_555
C17 O2 1_555 1_555
H24 C17 1_555 1_555
H25 C17 1_555 1_555
C18 N8 1_555 1_555
H26 C18 1_555 1_555
H27 C18 1_555 1_555
C19 N8 1_555 1_555
C20 N9 1_555 1_555
C21 N10 1_555 1_555
C22 N10 1_555 1_555
H28 C22 1_555 1_555
H29 C22 1_555 1_555
H30 C22 1_555 1_555
C23 N11 1_555 1_555
H31 C23 1_555 1_555
C24 N12 1_555 1_555
C25 N13 1_555 1_555
C26 N14 1_555 1_555
H32 C26 1_555 1_555
H33 C26 1_555 1_555
C27 C26 1_555 1_555
C28 C27 1_555 1_555
H34 C28 1_555 1_555
C29 C28 1_555 1_555
H35 C29 1_555 1_555
C30 C29 1_555 1_555
H36 C30 1_555 1_555
C31 C30 1_555 1_555
H37 C31 1_555 1_555
C32 C27 1_555 1_555
H38 C32 1_555 1_555
N7 C9 1_555 1_555
C1 C2 1_555 1_555
C4 C5 1_555 1_555
C4 C8 1_555 1_555
C8 C9 1_555 1_555
C15 C16 1_555 1_555
N14 C25 1_555 1_555
C17 C18 1_555 1_555
C20 C21 1_555 1_555
C20 C24 1_555 1_555
C24 C25 1_555 1_555
C31 C32 1_555 1_555

#END
