
#######################################################################
#
#                 Cambridge Crystallographic Data Centre
#                                CCDC 
#
#######################################################################
#
# If this CIF has been generated from an entry in the Cambridge 
# Structural Database, then it will include bibliographic, chemical, 
# crystal, experimental, refinement or atomic coordinate data resulting 
# from the CCDC's data processing and validation procedures.
#
#######################################################################

data_NIZKAK
_chemical_formula_moiety         'C50 H32 N4 O1'
_chemical_name_systematic        
9,9'-(1,3,4-Oxadiazole-2,5-diyldibiphenyl-2,4'-diyl)bis(9H-carbazole)
_symmetry_cell_setting           orthorhombic
_symmetry_space_group_name_H-M   'P n a 21'
_symmetry_Int_Tables_number      33
_space_group_name_Hall           'P 2c -2n'
loop_
_symmetry_equiv_pos_site_id
_symmetry_equiv_pos_as_xyz
1 x,y,z
2 -x,-y,1/2+z
3 1/2+x,1/2-y,z
4 1/2-x,1/2+y,1/2+z
_cell_length_a                   17.9874(4)
_cell_length_b                   9.2989(8)
_cell_length_c                   21.5822(9)
_cell_angle_alpha                90
_cell_angle_beta                 90
_cell_angle_gamma                90
_cell_volume                     3609.9
_exptl_crystal_colour            colorless
_exptl_crystal_description       block
_cell_formula_units_Z            4
loop_
_atom_site_label
_atom_site_type_symbol
_atom_site_fract_x
_atom_site_fract_y
_atom_site_fract_z
O1 O 0.24250(5) -0.11530(7) 0.25001(6)
N1 N 0.28154(6) -0.33948(11) 0.24487(7)
N2 N 0.20435(6) -0.34009(11) 0.25675(7)
N3 N 0.21624(6) 0.36302(12) 0.39468(6)
N4 N 0.26726(6) 0.36832(12) 0.10736(6)
C1 C 0.30079(7) -0.20597(13) 0.24102(6)
C2 C 0.18438(6) -0.20588(14) 0.25935(6)
C3 C 0.37471(6) -0.14666(13) 0.22823(6)
C4 C 0.40002(7) -0.01594(13) 0.25383(6)
C5 C 0.47254(7) 0.02717(14) 0.23933(7)
C6 C 0.51756(7) -0.05312(15) 0.20053(7)
C7 C 0.49095(7) -0.17943(16) 0.17439(7)
C8 C 0.42006(7) -0.22616(15) 0.18836(6)
C9 C 0.11062(7) -0.14739(14) 0.27215(6)
C10 C 0.08508(6) -0.01674(13) 0.24678(6)
C11 C 0.01242(7) 0.02527(15) 0.26090(7)
C12 C -0.03255(7) -0.05560(15) 0.29968(7)
C13 C -0.00586(7) -0.18181(16) 0.32583(7)
C14 C 0.06506(7) -0.22765(15) 0.31177(7)
C15 C 0.35367(6) 0.08012(13) 0.29359(6)
C16 C 0.31674(7) 0.03253(15) 0.34653(6)
C17 C 0.27244(7) 0.12481(14) 0.38082(6)
C18 C 0.26411(7) 0.26674(15) 0.36184(6)
C19 C 0.30128(7) 0.31727(14) 0.30987(6)
C20 C 0.34637(7) 0.22420(13) 0.27644(6)
C21 C 0.13144(6) 0.08021(13) 0.20737(6)
C22 C 0.16822(7) 0.03463(14) 0.15394(6)
C23 C 0.21234(7) 0.12903(14) 0.11994(7)
C24 C 0.22049(7) 0.26999(14) 0.13985(6)
C25 C 0.18332(7) 0.31772(15) 0.19216(6)
C26 C 0.13849(7) 0.22399(13) 0.22527(6)
C27 C 0.13985(7) 0.34793(16) 0.40323(7)
C28 C 0.09404(8) 0.23112(18) 0.39125(7)
C29 C 0.01901(9) 0.2445(2) 0.40520(8)
C30 C -0.00989(9) 0.3709(2) 0.43097(9)
C31 C 0.03560(9) 0.4867(2) 0.44278(8)
C32 C 0.11157(8) 0.47716(17) 0.42874(7)
C33 C 0.17345(9) 0.57367(17) 0.43523(7)
C34 C 0.18103(11) 0.71403(18) 0.45744(8)
C35 C 0.25086(11) 0.77448(19) 0.46021(8)
C36 C 0.31394(10) 0.69798(18) 0.44134(8)
C37 C 0.30811(9) 0.55964(16) 0.41756(7)
C38 C 0.23741(8) 0.50027(16) 0.41435(7)
C39 C 0.34375(8) 0.35617(16) 0.09877(7)
C40 C 0.39100(8) 0.24165(18) 0.11123(7)
C41 C 0.46546(8) 0.2584(2) 0.09655(8)
C42 C 0.49255(10) 0.3847(2) 0.07002(9)
C43 C 0.44565(9) 0.4983(2) 0.05773(8)
C44 C 0.37017(9) 0.48608(17) 0.07246(7)
C45 C 0.30703(9) 0.58040(18) 0.06561(7)
C46 C 0.29715(11) 0.72001(18) 0.04243(8)
C47 C 0.22671(12) 0.77601(19) 0.03961(8)
C48 C 0.16511(11) 0.69635(18) 0.05842(8)
C49 C 0.17268(9) 0.55843(17) 0.08298(7)
C50 C 0.24456(8) 0.50374(16) 0.08714(7)
H1 H 0.491526 0.114743 0.256777
H2 H 0.567235 -0.021447 0.191675
H3 H 0.521729 -0.234082 0.146712
H4 H 0.401789 -0.313906 0.170544
H5 H -0.006834 0.112438 0.243276
H6 H -0.082299 -0.024259 0.30848
H7 H -0.036522 -0.236741 0.353496
H8 H 0.083402 -0.315602 0.329345
H9 H 0.322088 -0.065728 0.35943
H10 H 0.247662 0.090975 0.417423
H11 H 0.295862 0.415645 0.297163
H12 H 0.372934 0.259457 0.240978
H13 H 0.163024 -0.063216 0.140424
H14 H 0.236948 0.096795 0.082987
H15 H 0.188607 0.415691 0.20547
H16 H 0.111958 0.258247 0.260937
H17 H 0.113579 0.143921 0.373877
H18 H -0.013804 0.165362 0.396998
H19 H -0.061932 0.376824 0.440486
H20 H 0.015532 0.573096 0.460457
H21 H 0.138198 0.767548 0.470586
H22 H 0.256371 0.87095 0.475369
H23 H 0.362052 0.741876 0.444895
H24 H 0.351123 0.507351 0.403927
H25 H 0.372749 0.154196 0.129328
H26 H 0.499329 0.181 0.104855
H27 H 0.54445 0.392594 0.060223
H28 H 0.464544 0.584865 0.039282
H29 H 0.339052 0.77551 0.028763
H30 H 0.219697 0.872035 0.024359
H31 H 0.116361 0.737337 0.05438
H32 H 0.130352 0.503792 0.096374
loop_
_geom_bond_atom_site_label_1
_geom_bond_atom_site_label_2
_geom_bond_site_symmetry_1
_geom_bond_site_symmetry_2
O1 C1 1_555 1_555
N1 N2 1_555 1_555
N2 C2 1_555 1_555
N3 C18 1_555 1_555
N4 C24 1_555 1_555
C1 N1 1_555 1_555
C2 O1 1_555 1_555
C3 C1 1_555 1_555
C4 C3 1_555 1_555
C5 C4 1_555 1_555
C6 C5 1_555 1_555
C7 C6 1_555 1_555
C8 C3 1_555 1_555
C9 C2 1_555 1_555
C10 C9 1_555 1_555
C11 C10 1_555 1_555
C12 C11 1_555 1_555
C13 C12 1_555 1_555
C14 C9 1_555 1_555
C15 C4 1_555 1_555
C16 C15 1_555 1_555
C17 C16 1_555 1_555
C18 C17 1_555 1_555
C19 C18 1_555 1_555
C20 C15 1_555 1_555
C21 C10 1_555 1_555
C22 C21 1_555 1_555
C23 C22 1_555 1_555
C24 C23 1_555 1_555
C25 C24 1_555 1_555
C26 C21 1_555 1_555
C27 N3 1_555 1_555
C28 C27 1_555 1_555
C29 C28 1_555 1_555
C30 C29 1_555 1_555
C31 C30 1_555 1_555
C32 C27 1_555 1_555
C33 C32 1_555 1_555
C34 C33 1_555 1_555
C35 C34 1_555 1_555
C36 C35 1_555 1_555
C37 C36 1_555 1_555
C38 N3 1_555 1_555
C39 N4 1_555 1_555
C40 C39 1_555 1_555
C41 C40 1_555 1_555
C42 C41 1_555 1_555
C43 C42 1_555 1_555
C44 C39 1_555 1_555
C45 C44 1_555 1_555
C46 C45 1_555 1_555
C47 C46 1_555 1_555
C48 C47 1_555 1_555
C49 C48 1_555 1_555
C50 N4 1_555 1_555
H1 C5 1_555 1_555
H2 C6 1_555 1_555
H3 C7 1_555 1_555
H4 C8 1_555 1_555
H5 C11 1_555 1_555
H6 C12 1_555 1_555
H7 C13 1_555 1_555
H8 C14 1_555 1_555
H9 C16 1_555 1_555
H10 C17 1_555 1_555
H11 C19 1_555 1_555
H12 C20 1_555 1_555
H13 C22 1_555 1_555
H14 C23 1_555 1_555
H15 C25 1_555 1_555
H16 C26 1_555 1_555
H17 C28 1_555 1_555
H18 C29 1_555 1_555
H19 C30 1_555 1_555
H20 C31 1_555 1_555
H21 C34 1_555 1_555
H22 C35 1_555 1_555
H23 C36 1_555 1_555
H24 C37 1_555 1_555
H25 C40 1_555 1_555
H26 C41 1_555 1_555
H27 C42 1_555 1_555
H28 C43 1_555 1_555
H29 C46 1_555 1_555
H30 C47 1_555 1_555
H31 C48 1_555 1_555
H32 C49 1_555 1_555
C7 C8 1_555 1_555
C13 C14 1_555 1_555
C19 C20 1_555 1_555
C25 C26 1_555 1_555
C31 C32 1_555 1_555
C33 C38 1_555 1_555
C37 C38 1_555 1_555
C43 C44 1_555 1_555
C45 C50 1_555 1_555
C49 C50 1_555 1_555

#END
