
#######################################################################
#
#                 Cambridge Crystallographic Data Centre
#                                CCDC 
#
#######################################################################
#
# If this CIF has been generated from an entry in the Cambridge 
# Structural Database, then it will include bibliographic, chemical, 
# crystal, experimental, refinement or atomic coordinate data resulting 
# from the CCDC's data processing and validation procedures.
#
#######################################################################

data_NMBYAN01
_chemical_formula_moiety         'C14 H12 N2 O2'
_chemical_name_systematic        N-(4'-Nitrobenzylidene)-4-methylaniline
_symmetry_cell_setting           monoclinic
_symmetry_space_group_name_H-M   'P c'
_symmetry_Int_Tables_number      7
_space_group_name_Hall           'P -2yc'
loop_
_symmetry_equiv_pos_site_id
_symmetry_equiv_pos_as_xyz
1 x,y,z
2 x,-y,1/2+z
_cell_length_a                   7.305(4)
_cell_length_b                   11.495(5)
_cell_length_c                   7.240(3)
_cell_angle_alpha                90
_cell_angle_beta                 109.71(5)
_cell_angle_gamma                90
_cell_volume                     572.331
_exptl_crystal_colour            yellow
_exptl_crystal_description       block
_cell_formula_units_Z            2
loop_
_atom_site_label
_atom_site_type_symbol
_atom_site_fract_x
_atom_site_fract_y
_atom_site_fract_z
O1 O 1.1583(4) 0.9665(2) 0.6238(3)
O2 O 1.2740(4) 0.8444(2) 0.4654(3)
N1 N 0.3211(2) 0.70490(12) -0.1104(2)
N2 N 1.1386(2) 0.89530(12) 0.4911(2)
C1 C 0.6025(3) 0.9190(2) 0.2429(2)
H1 H 0.4839(10) 0.9739(5) 0.2458(7)
C2 C 0.5666(3) 0.8224(2) 0.1178(2)
C3 C 0.7216(3) 0.7515(2) 0.1144(2)
H2 H 0.6917(9) 0.6769(4) 0.0175(6)
C4 C 0.9103(3) 0.7756(2) 0.2343(2)
H3 H 1.0315(9) 0.7204(5) 0.2348(7)
C5 C 0.9411(3) 0.8711(2) 0.3590(2)
C6 C 0.7914(3) 0.9435(2) 0.3662(2)
H4 H 0.8204(10) 1.0171(5) 0.4679(7)
C7 C 0.3647(3) 0.7962(2) -0.0035(2)
H5 H 0.2563(8) 0.8591(5) 0.0066(7)
C8 C 0.1248(3) 0.6796(2) -0.2231(2)
C9 C -0.0368(3) 0.7430(2) -0.2187(2)
H6 H -0.0191(10) 0.8193(5) -0.1247(7)
C10 C -0.2240(3) 0.7103(2) -0.3347(2)
H7 H -0.3498(9) 0.7602(5) -0.3301(7)
C11 C -0.2561(3) 0.6131(2) -0.4583(2)
C12 C -0.0932(3) 0.5502(2) -0.4630(2)
H8 H -0.1130(9) 0.4759(5) -0.5613(7)
C13 C 0.0939(3) 0.5823(2) -0.3474(2)
H9 H 0.2202(9) 0.5336(5) -0.3523(7)
C14 C -0.4582(4) 0.5789(2) -0.5840(2)
H10 H -0.4956(11) 0.4918(5) -0.5537(8)
H11 H -0.4754(12) 0.5801(7) -0.7399(6)
H12 H -0.5674(11) 0.6380(7) -0.5675(9)
loop_
_geom_bond_atom_site_label_1
_geom_bond_atom_site_label_2
_geom_bond_site_symmetry_1
_geom_bond_site_symmetry_2
O1 N2 1_555 1_555
O2 N2 1_555 1_555
N1 C7 1_555 1_555
N2 C5 1_555 1_555
C1 H1 1_555 1_555
C2 C1 1_555 1_555
C3 C2 1_555 1_555
H2 C3 1_555 1_555
C4 C3 1_555 1_555
H3 C4 1_555 1_555
C5 C4 1_555 1_555
C6 C1 1_555 1_555
H4 C6 1_555 1_555
C7 C2 1_555 1_555
H5 C7 1_555 1_555
C8 N1 1_555 1_555
C9 C8 1_555 1_555
H6 C9 1_555 1_555
C10 C9 1_555 1_555
H7 C10 1_555 1_555
C11 C10 1_555 1_555
C12 C11 1_555 1_555
H8 C12 1_555 1_555
C13 C8 1_555 1_555
H9 C13 1_555 1_555
C14 C11 1_555 1_555
H10 C14 1_555 1_555
H11 C14 1_555 1_555
H12 C14 1_555 1_555
C5 C6 1_555 1_555
C12 C13 1_555 1_555

#END
