
#######################################################################
#
#                 Cambridge Crystallographic Data Centre
#                                CCDC 
#
#######################################################################
#
# If this CIF has been generated from an entry in the Cambridge 
# Structural Database, then it will include bibliographic, chemical, 
# crystal, experimental, refinement or atomic coordinate data resulting 
# from the CCDC's data processing and validation procedures.
#
#######################################################################

data_NOBDOZ
_chemical_name_common            
'2,3-Dihydroxybenzoic acid iloperidone monohydrate'
_chemical_formula_moiety         'C24 H27 F1 N2 O4,C7 H6 O4,H2 O1'
_chemical_name_systematic        
'2,3-Dihydroxybenzoic acid 1-(4-(3-(4-(6-fluoro-1,2-benzoxazol-3-yl)piperidin-1-yl)propoxy)-3-methoxyphenyl)ethanone monohydrate'
_symmetry_cell_setting           monoclinic
_symmetry_space_group_name_H-M   'P 21'
_symmetry_Int_Tables_number      4
_space_group_name_Hall           'P 2yb'
loop_
_symmetry_equiv_pos_site_id
_symmetry_equiv_pos_as_xyz
1 x,y,z
2 -x,1/2+y,-z
_cell_length_a                   7.780(4)
_cell_length_b                   13.794(6)
_cell_length_c                   13.926(7)
_cell_angle_alpha                90
_cell_angle_beta                 103.589(7)
_cell_angle_gamma                90
_cell_volume                     1452.66
_cell_formula_units_Z            2
loop_
_atom_site_label
_atom_site_type_symbol
_atom_site_fract_x
_atom_site_fract_y
_atom_site_fract_z
C1 C 0.8422(6) 0.9934(3) 0.2522(3)
H1 H 0.7794 0.9660 0.2983
H2 H 0.9508 0.9573 0.2567
C2 C 0.9868(5) 1.1195(3) 0.3604(3)
C3 C 0.7038(6) 0.8876(3) 0.1098(3)
H3 H 0.8186 0.8568 0.1188
H4 H 0.6362 0.8516 0.1482
C4 C 0.5849(5) 0.8186(3) -0.2023(3)
H5 H 0.7003 0.7870 -0.1935
C5 C 0.6148(6) 0.9242(3) -0.1710(3)
H6 H 0.6830 0.9561 -0.2118
H7 H 0.5017 0.9570 -0.1806
C6 C 1.0571(6) 1.0551(3) 0.4357(3)
H8 H 1.0317 0.9893 0.4276
C7 C 0.5774(6) 0.7791(3) -0.0271(3)
H9 H 0.5064 0.7493 0.0134
H10 H 0.6896 0.7451 -0.0152
C8 C 1.2033(6) 1.1858(4) 0.5368(3)
C9 C 0.4832(6) 0.7687(3) -0.1353(3)
H11 H 0.3659 0.7969 -0.1460
H12 H 0.4699 0.7005 -0.1522
C10 C 0.3544(6) 0.7512(4) -0.4562(3)
C11 C 0.4871(5) 0.8079(3) -0.3084(3)
C12 C 0.7126(6) 0.9313(4) -0.0631(3)
H13 H 0.8276 0.9007 -0.0540
H14 H 0.7310 0.9990 -0.0446
C13 C 1.0284(5) 1.2181(3) 0.3714(3)
C14 C 0.7289(6) 0.9912(4) 0.1483(3)
H15 H 0.7844 1.0295 0.1056
H16 H 0.6144 1.0196 0.1473
C15 C 0.4604(5) 0.7208(3) -0.3670(3)
C16 C 1.1652(6) 1.0886(4) 0.5230(3)
H17 H 1.2127 1.0448 0.5730
C17 C 1.3186(6) 1.2242(4) 0.6280(3)
C18 C 0.5117(6) 0.6239(4) -0.3527(3)
H18 H 0.5841 0.6027 -0.2935
C19 C 0.2912(7) 0.6885(4) -0.5337(3)
H19 H 0.2178 0.7089 -0.5930
C20 C 1.1356(5) 1.2511(3) 0.4591(3)
H20 H 1.1631 1.3167 0.4669
C21 C 0.3434(7) 0.5951(4) -0.5174(3)
C22 C 1.3938(9) 1.1564(5) 0.7117(4)
H21 H 1.4672 1.1922 0.7651
H22 H 1.4632 1.1075 0.6895
H23 H 1.2991 1.1263 0.7341
C23 C 0.4503(7) 0.5603(4) -0.4308(4)
H24 H 0.4809 0.4951 -0.4247
C24 C 0.9979(7) 1.3749(4) 0.3001(4)
H25 H 0.9402 1.4069 0.2400
H26 H 1.1236 1.3830 0.3109
H27 H 0.9583 1.4025 0.3544
F1 F 0.2844(5) 0.5298(3) -0.5899(2)
N1 N 0.4083(5) 0.8816(3) -0.3576(3)
N2 N 0.6098(4) 0.8829(2) 0.0023(2)
O1 O 1.3541(5) 1.3108(3) 0.6360(3)
O2 O 0.9562(5) 1.2747(2) 0.2927(2)
O3 O 0.8789(4) 1.0945(2) 0.27250(19)
O4 O 0.3214(5) 0.8466(3) -0.4534(2)
C25 C 0.0572(5) 1.1141(4) -0.0999(3)
C26 C 0.1117(5) 1.0868(3) -0.0026(3)
C27 C 0.0492(6) 1.1379(4) 0.0683(3)
H28 H 0.0841 1.1198 0.1344
C28 C -0.0644(6) 1.2150(4) 0.0411(4)
H29 H -0.1060 1.2488 0.0889
C29 C -0.1162(6) 1.2422(4) -0.0560(4)
H30 H -0.1929 1.2943 -0.0738
C30 C -0.0552(6) 1.1927(4) -0.1276(3)
C31 C 0.2432(6) 1.0067(4) 0.0277(4)
O5 O 0.2932(6) 0.9861(4) 0.1165(3)
O6 O 0.2987(5) 0.9655(3) -0.0390(3)
H31 H 0.4013 0.9454 -0.0165
O7 O 0.125(3) 1.0719(18) -0.1675(12)
H32 H 0.1923 1.0267 -0.1470
O8 O -0.0964(5) 1.2186(3) -0.2249(2)
H33 H -0.1608 1.2665 -0.2326
O9 O 0.2998(6) 0.8722(4) 0.2701(3)
H34 H 0.3383 0.8873 0.2150
H35 H 0.4203 0.8687 0.2999
loop_
_geom_bond_atom_site_label_1
_geom_bond_atom_site_label_2
_geom_bond_site_symmetry_1
_geom_bond_site_symmetry_2
C1 H1 1_555 1_555
H2 C1 1_555 1_555
C2 C6 1_555 1_555
C3 H3 1_555 1_555
H4 C3 1_555 1_555
C4 H5 1_555 1_555
C5 C4 1_555 1_555
H6 C5 1_555 1_555
H7 C5 1_555 1_555
C6 H8 1_555 1_555
C7 H9 1_555 1_555
H10 C7 1_555 1_555
C8 C16 1_555 1_555
C9 C4 1_555 1_555
H11 C9 1_555 1_555
H12 C9 1_555 1_555
C10 C15 1_555 1_555
C11 C4 1_555 1_555
C12 C5 1_555 1_555
H13 C12 1_555 1_555
H14 C12 1_555 1_555
C13 C2 1_555 1_555
C14 C1 1_555 1_555
H15 C14 1_555 1_555
H16 C14 1_555 1_555
C15 C11 1_555 1_555
C16 C6 1_555 1_555
H17 C16 1_555 1_555
C17 C8 1_555 1_555
C18 C15 1_555 1_555
H18 C18 1_555 1_555
C19 C10 1_555 1_555
H19 C19 1_555 1_555
C20 C8 1_555 1_555
H20 C20 1_555 1_555
C21 C19 1_555 1_555
C22 C17 1_555 1_555
H21 C22 1_555 1_555
H22 C22 1_555 1_555
H23 C22 1_555 1_555
C23 C18 1_555 1_555
H24 C23 1_555 1_555
C24 H25 1_555 1_555
H26 C24 1_555 1_555
H27 C24 1_555 1_555
F1 C21 1_555 1_555
N1 C11 1_555 1_555
N2 C3 1_555 1_555
O1 C17 1_555 1_555
O2 C13 1_555 1_555
O3 C1 1_555 1_555
O4 C10 1_555 1_555
C25 C26 1_555 1_555
C26 C27 1_555 1_555
C27 H28 1_555 1_555
C28 C27 1_555 1_555
H29 C28 1_555 1_555
C29 C28 1_555 1_555
H30 C29 1_555 1_555
C30 C25 1_555 1_555
C31 C26 1_555 1_555
O5 C31 1_555 1_555
O6 C31 1_555 1_555
H31 O6 1_555 1_555
O7 C25 1_555 1_555
H32 O7 1_555 1_555
O8 C30 1_555 1_555
H33 O8 1_555 1_555
O9 H34 1_555 1_555
H35 O9 1_555 1_555
C2 O3 1_555 1_555
C3 C14 1_555 1_555
C7 C9 1_555 1_555
C7 N2 1_555 1_555
C12 N2 1_555 1_555
C13 C20 1_555 1_555
C21 C23 1_555 1_555
C24 O2 1_555 1_555
N1 O4 1_555 1_555
C29 C30 1_555 1_555

#END
