
#######################################################################
#
#                 Cambridge Crystallographic Data Centre
#                                CCDC 
#
#######################################################################
#
# If this CIF has been generated from an entry in the Cambridge 
# Structural Database, then it will include bibliographic, chemical, 
# crystal, experimental, refinement or atomic coordinate data resulting 
# from the CCDC's data processing and validation procedures.
#
#######################################################################

data_NOBFEP01
_chemical_formula_moiety         'C36 H24'
_chemical_name_systematic        2,2',2''-benzene-1,3,5-triyltrinaphthalene
_symmetry_cell_setting           orthorhombic
_symmetry_space_group_name_H-M   'P n a 21'
_symmetry_Int_Tables_number      33
_space_group_name_Hall           'P 2c -2n'
loop_
_symmetry_equiv_pos_site_id
_symmetry_equiv_pos_as_xyz
1 x,y,z
2 -x,-y,1/2+z
3 1/2-x,1/2+y,1/2+z
4 1/2+x,1/2-y,z
_cell_length_a                   7.3179(6)
_cell_length_b                   23.2967(17)
_cell_length_c                   14.4155(13)
_cell_angle_alpha                90
_cell_angle_beta                 90
_cell_angle_gamma                90
_cell_volume                     2457.6
_exptl_crystal_colour            colorless
_exptl_crystal_description       needle
_cell_formula_units_Z            4
loop_
_atom_site_label
_atom_site_type_symbol
_atom_site_fract_x
_atom_site_fract_y
_atom_site_fract_z
C1 C 0.9040(5) 0.34897(19) 0.7754(2)
H1 H 0.9206 0.3464 0.8407
C2 C 0.9774(4) 0.39591(17) 0.7263(2)
H2 H 1.0440 0.4247 0.7585
C3 C 0.9531(3) 0.40018(13) 0.6324(2)
H3 H 1.0020 0.4323 0.6002
C4 C 0.8571(3) 0.35788(11) 0.58288(17)
C5 C 0.8357(3) 0.36068(10) 0.48525(17)
H4 H 0.8845 0.3927 0.4527
C6 C 0.7467(3) 0.31860(9) 0.43637(17)
C7 C 0.7256(3) 0.32181(10) 0.33382(17)
C8 C 0.7319(3) 0.27192(10) 0.28089(18)
H5 H 0.7492 0.2361 0.3112
C9 C 0.7137(3) 0.27297(9) 0.18577(18)
C10 C 0.7226(3) 0.21928(10) 0.13069(18)
C11 C 0.7959(3) 0.21908(10) 0.04492(18)
H6 H 0.8379 0.2541 0.0188
C12 C 0.8118(3) 0.16691(11) -0.00810(18)
C13 C 0.7465(3) 0.11630(10) 0.03123(17)
C14 C 0.7637(4) 0.06340(13) -0.0211(2)
H7 H 0.7191 0.0284 0.0039
C15 C 0.8442(4) 0.06428(16) -0.1060(2)
H8 H 0.8546 0.0296 -0.1403
C16 C 0.6927(4) 0.60124(13) -0.0780(2)
H9 H 0.6838 0.6374 -0.1083
C17 C 0.6113(3) 0.59334(11) 0.0057(2)
H10 H 0.5461 0.6241 0.0335
C18 C 0.6225(3) 0.54001(9) 0.05176(18)
C19 C 0.5370(3) 0.52938(10) 0.13752(18)
H11 H 0.4651 0.5588 0.1650
C20 C 0.5544(3) 0.47805(9) 0.18223(17)
H12 H 0.4954 0.4724 0.2402
C21 C 0.6598(3) 0.43299(9) 0.14298(16)
C22 C 0.6826(3) 0.37715(9) 0.19211(16)
C23 C 0.6889(3) 0.32612(9) 0.14191(18)
H13 H 0.6761 0.3273 0.0764
C24 C 0.6569(3) 0.16656(10) 0.16879(19)
H14 H 0.6036 0.1664 0.2289
C25 C 0.6692(3) 0.11665(11) 0.12058(18)
H15 H 0.6256 0.0819 0.1472
C26 C 0.9125(5) 0.11571(16) -0.1442(2)
H16 H 0.9709 0.1153 -0.2031
C27 C 0.8947(4) 0.16664(14) -0.0962(2)
H17 H 0.9383 0.2014 -0.1225
C28 C 0.8100(4) 0.30765(16) 0.7301(2)
H18 H 0.7605 0.2763 0.7640
C29 C 0.7839(3) 0.31042(12) 0.63140(19)
C30 C 0.6937(4) 0.26795(12) 0.58189(19)
H19 H 0.6445 0.2359 0.6141
C31 C 0.6739(3) 0.27119(10) 0.4873(2)
H20 H 0.6110 0.2415 0.4552
C32 C 0.7003(3) 0.37427(9) 0.28812(16)
H21 H 0.6950 0.4086 0.3235
C33 C 0.7396(3) 0.44159(10) 0.05832(16)
H22 H 0.8076 0.4112 0.0310
C34 C 0.7240(3) 0.49465(10) 0.00982(16)
C35 C 0.8063(3) 0.50383(12) -0.07675(19)
H23 H 0.8734 0.4738 -0.1055
C36 C 0.7903(4) 0.55619(13) -0.1202(2)
H24 H 0.8456 0.5620 -0.1791
loop_
_geom_bond_atom_site_label_1
_geom_bond_atom_site_label_2
_geom_bond_site_symmetry_1
_geom_bond_site_symmetry_2
C1 H1 1_555 1_555
C2 C1 1_555 1_555
H2 C2 1_555 1_555
C3 C2 1_555 1_555
H3 C3 1_555 1_555
C4 C3 1_555 1_555
C5 C4 1_555 1_555
H4 C5 1_555 1_555
C6 C5 1_555 1_555
C7 C6 1_555 1_555
C8 C7 1_555 1_555
H5 C8 1_555 1_555
C9 C8 1_555 1_555
C10 C9 1_555 1_555
C11 C10 1_555 1_555
H6 C11 1_555 1_555
C12 C11 1_555 1_555
C13 C12 1_555 1_555
C14 C13 1_555 1_555
H7 C14 1_555 1_555
C15 C14 1_555 1_555
H8 C15 1_555 1_555
C16 H9 1_555 1_555
C17 C16 1_555 1_555
H10 C17 1_555 1_555
C18 C17 1_555 1_555
C19 C18 1_555 1_555
H11 C19 1_555 1_555
C20 C19 1_555 1_555
H12 C20 1_555 1_555
C21 C20 1_555 1_555
C22 C21 1_555 1_555
C23 C9 1_555 1_555
H13 C23 1_555 1_555
C24 C10 1_555 1_555
H14 C24 1_555 1_555
C25 C13 1_555 1_555
H15 C25 1_555 1_555
C26 C15 1_555 1_555
H16 C26 1_555 1_555
C27 C12 1_555 1_555
H17 C27 1_555 1_555
C28 C1 1_555 1_555
H18 C28 1_555 1_555
C29 C4 1_555 1_555
C30 C29 1_555 1_555
H19 C30 1_555 1_555
C31 C6 1_555 1_555
H20 C31 1_555 1_555
C32 C7 1_555 1_555
H21 C32 1_555 1_555
C33 C21 1_555 1_555
H22 C33 1_555 1_555
C34 C18 1_555 1_555
C35 C34 1_555 1_555
H23 C35 1_555 1_555
C36 C16 1_555 1_555
H24 C36 1_555 1_555
C22 C23 1_555 1_555
C22 C32 1_555 1_555
C24 C25 1_555 1_555
C26 C27 1_555 1_555
C28 C29 1_555 1_555
C30 C31 1_555 1_555
C33 C34 1_555 1_555
C35 C36 1_555 1_555

#END
