
#######################################################################
#
#                 Cambridge Crystallographic Data Centre
#                                CCDC 
#
#######################################################################
#
# If this CIF has been generated from an entry in the Cambridge 
# Structural Database, then it will include bibliographic, chemical, 
# crystal, experimental, refinement or atomic coordinate data resulting 
# from the CCDC's data processing and validation procedures.
#
#######################################################################

data_NOBHAP
_chemical_formula_moiety         'C42 H76 Mg4 O14,C4 H10 O1'
_chemical_name_systematic        
'bis(\m~3~-2-methoxyethanolato)-tetrakis(\m~2~-2-methoxyethanolato)-bis(2,6-di-isopropylphenolaro)-tetra-magnesium diethyl ether solvate'
_symmetry_cell_setting           triclinic
_symmetry_space_group_name_H-M   'P -1'
_symmetry_Int_Tables_number      2
_space_group_name_Hall           '-P 1'
loop_
_symmetry_equiv_pos_site_id
_symmetry_equiv_pos_as_xyz
1 x,y,z
2 -x,-y,-z
_cell_length_a                   10.4677(16)
_cell_length_b                   10.9528(18)
_cell_length_c                   13.4461(17)
_cell_angle_alpha                109.035(13)
_cell_angle_beta                 104.169(12)
_cell_angle_gamma                105.590(14)
_cell_volume                     1306.8
_exptl_crystal_colour            'light colorless'
_exptl_crystal_description       block
_cell_formula_units_Z            1
loop_
_atom_site_label
_atom_site_type_symbol
_atom_site_fract_x
_atom_site_fract_y
_atom_site_fract_z
Mg1 Mg 0.68718(8) 0.72176(7) 0.18468(6)
Mg2 Mg 0.37994(7) 0.55311(7) 0.01633(6)
O1 O 0.78747(19) 0.91150(17) 0.22555(15)
O2 O 0.75544(17) 0.56750(16) 0.14076(13)
O3 O 0.7965(3) 0.7281(2) 0.34746(15)
O4 O 0.58090(15) 0.62735(14) 0.00766(12)
O5 O 0.37932(17) 0.73309(16) -0.01853(15)
O6 O 0.49312(17) 0.66582(17) 0.18321(13)
O7 O 0.21630(17) 0.52828(17) 0.08649(14)
C1 C 0.8536(2) 1.0476(2) 0.26664(18)
C2 C 0.9776(2) 1.1047(2) 0.24523(18)
C3 C 1.0433(3) 1.2484(2) 0.2851(2)
H1 H 1.1229 1.2849 0.2691
C4 C 0.9934(3) 1.3389(2) 0.3483(2)
H2 H 1.0386 1.4350 0.3744
C5 C 0.8749(3) 1.2833(3) 0.3718(2)
H3 H 0.8413 1.3436 0.4144
C6 C 0.8049(3) 1.1405(3) 0.33390(19)
C7 C 1.0345(3) 1.0052(2) 0.18040(19)
H4 H 0.9529 0.9277 0.1169
C8 C 1.1066(3) 0.9437(3) 0.2545(2)
H5 H 1.1909 1.0163 0.3149
H6 H 1.1320 0.8729 0.2094
H7 H 1.0420 0.9033 0.2854
C9 C 1.1371(3) 1.0700(3) 0.1314(2)
H8 H 1.0961 1.1178 0.0925
H9 H 1.1541 0.9978 0.0795
H10 H 1.2255 1.1352 0.1915
C10 C 0.6767(3) 1.0831(3) 0.3626(2)
H11 H 0.6546 0.9829 0.3398
C11 C 0.7061(4) 1.1486(4) 0.4887(3)
H12 H 0.7920 1.1432 0.5296
H13 H 0.6279 1.0993 0.5040
H14 H 0.7170 1.2447 0.5120
C12 C 0.5459(3) 1.0989(4) 0.2966(3)
H15 H 0.5658 1.1960 0.3144
H16 H 0.4670 1.0619 0.3168
H17 H 0.5226 1.0488 0.2171
C13 C 0.8273(4) 0.5386(4) 0.2266(2)
H18 H 0.7692 0.4476 0.2180
H19 H 0.9150 0.5332 0.2175
C14 C 0.8604(6) 0.6353(4) 0.3352(3)
H20 H 0.8374 0.5844 0.3796
H21 H 0.9626 0.6872 0.3678
C15 C 0.8295(5) 0.8335(4) 0.4520(2)
H22 H 0.8759 0.8108 0.5105
H23 H 0.7436 0.8428 0.4601
H24 H 0.8918 0.9198 0.4578
C16 C 0.5799(3) 0.7040(3) -0.0586(2)
H25 H 0.5276 0.6406 -0.1376
H26 H 0.6768 0.7533 -0.0499
C17 C 0.5111(3) 0.8076(3) -0.0230(2)
H27 H 0.5726 0.8825 0.0506
H28 H 0.4944 0.8477 -0.0771
C18 C 0.2869(3) 0.8074(3) -0.0147(3)
H29 H 0.3356 0.8978 0.0477
H30 H 0.2039 0.7565 -0.0053
H31 H 0.2588 0.8181 -0.0839
C19 C 0.4124(3) 0.7021(3) 0.2473(2)
H32 H 0.3911 0.7803 0.2396
H33 H 0.4655 0.7301 0.3264
C20 C 0.2758(3) 0.5786(3) 0.2071(2)
H34 H 0.2947 0.5064 0.2276
H35 H 0.2104 0.6065 0.2407
C21 C 0.0913(3) 0.4026(3) 0.0356(3)
H36 H 0.1128 0.3335 0.0580
H37 H 0.0603 0.3683 -0.0452
H38 H 0.0170 0.4218 0.0599
Mg1A Mg 0.31282(8) 0.27824(7) -0.18468(6)
Mg2A Mg 0.62006(7) 0.44689(7) -0.01633(6)
O1A O 0.21253(19) 0.08850(17) -0.22555(15)
O2A O 0.24456(17) 0.43250(16) -0.14076(13)
O3A O 0.2035(3) 0.2719(2) -0.34746(15)
O4A O 0.41910(15) 0.37265(14) -0.00766(12)
O5A O 0.62068(17) 0.26691(16) 0.01853(15)
O6A O 0.50688(17) 0.33418(17) -0.18321(13)
O7A O 0.78370(17) 0.47172(17) -0.08649(14)
C1A C 0.1464(2) -0.0476(2) -0.26664(18)
C2A C 0.0224(2) -0.1047(2) -0.24523(18)
C3A C -0.0433(3) -0.2484(2) -0.2851(2)
H1A H -0.1229 -0.2849 -0.2691
C4A C 0.0066(3) -0.3389(2) -0.3483(2)
H2A H -0.0386 -0.4350 -0.3744
C5A C 0.1251(3) -0.2833(3) -0.3718(2)
H3A H 0.1587 -0.3436 -0.4144
C6A C 0.1951(3) -0.1405(3) -0.33390(19)
C7A C -0.0345(3) -0.0052(2) -0.18040(19)
H4A H 0.0471 0.0723 -0.1169
C8A C -0.1066(3) 0.0563(3) -0.2545(2)
H5A H -0.1909 -0.0163 -0.3149
H6A H -0.1320 0.1271 -0.2094
H7A H -0.0420 0.0967 -0.2854
C9A C -0.1371(3) -0.0700(3) -0.1314(2)
H8A H -0.0961 -0.1178 -0.0925
H9A H -0.1541 0.0022 -0.0795
H10A H -0.2255 -0.1352 -0.1915
C10A C 0.3233(3) -0.0831(3) -0.3626(2)
H11A H 0.3454 0.0171 -0.3398
C11A C 0.2939(4) -0.1486(4) -0.4887(3)
H12A H 0.2080 -0.1432 -0.5296
H13A H 0.3721 -0.0993 -0.5040
H14A H 0.2830 -0.2447 -0.5120
C12A C 0.4541(3) -0.0989(4) -0.2966(3)
H15A H 0.4342 -0.1960 -0.3144
H16A H 0.5330 -0.0619 -0.3168
H17A H 0.4774 -0.0488 -0.2171
C13A C 0.1727(4) 0.4614(4) -0.2266(2)
H18A H 0.2308 0.5524 -0.2180
H19A H 0.0850 0.4668 -0.2175
C14A C 0.1396(6) 0.3647(4) -0.3352(3)
H20A H 0.1626 0.4156 -0.3796
H21A H 0.0374 0.3128 -0.3678
C15A C 0.1705(5) 0.1665(4) -0.4520(2)
H22A H 0.1241 0.1892 -0.5105
H23A H 0.2564 0.1572 -0.4601
H24A H 0.1082 0.0802 -0.4578
C16A C 0.4201(3) 0.2960(3) 0.0586(2)
H25A H 0.4724 0.3594 0.1376
H26A H 0.3232 0.2467 0.0499
C17A C 0.4889(3) 0.1924(3) 0.0230(2)
H27A H 0.4274 0.1175 -0.0506
H28A H 0.5056 0.1523 0.0771
C18A C 0.7131(3) 0.1926(3) 0.0147(3)
H29A H 0.6644 0.1022 -0.0477
H30A H 0.7961 0.2435 0.0053
H31A H 0.7412 0.1819 0.0839
C19A C 0.5876(3) 0.2979(3) -0.2473(2)
H32A H 0.6089 0.2197 -0.2396
H33A H 0.5345 0.2699 -0.3264
C20A C 0.7242(3) 0.4214(3) -0.2071(2)
H34A H 0.7053 0.4936 -0.2276
H35A H 0.7896 0.3935 -0.2407
C21A C 0.9087(3) 0.5974(3) -0.0356(3)
H36A H 0.8872 0.6665 -0.0580
H37A H 0.9397 0.6317 0.0452
H38A H 0.9830 0.5782 -0.0599
O8? O 0.4420(9) 0.4096(9) 0.3750(7)
C22? C 0.5704(10) 0.4946(8) 0.4436(12)
C23? C 0.5710(9) 0.6188(8) 0.5270(7)
loop_
_geom_bond_atom_site_label_1
_geom_bond_atom_site_label_2
_geom_bond_site_symmetry_1
_geom_bond_site_symmetry_2
Mg1 O1 1_555 1_555
Mg2 O4 1_555 1_555
O1 C1 1_555 1_555
O2 Mg1 1_555 1_555
O3 Mg1 1_555 1_555
O4 Mg1 1_555 1_555
O5 Mg2 1_555 1_555
O6 Mg1 1_555 1_555
O7 Mg2 1_555 1_555
C1 C2 1_555 1_555
C2 C3 1_555 1_555
C3 H1 1_555 1_555
C4 C3 1_555 1_555
H2 C4 1_555 1_555
C5 C4 1_555 1_555
H3 C5 1_555 1_555
C6 C1 1_555 1_555
C7 C2 1_555 1_555
H4 C7 1_555 1_555
C8 C7 1_555 1_555
H5 C8 1_555 1_555
H6 C8 1_555 1_555
H7 C8 1_555 1_555
C9 C7 1_555 1_555
H8 C9 1_555 1_555
H9 C9 1_555 1_555
H10 C9 1_555 1_555
C10 C6 1_555 1_555
H11 C10 1_555 1_555
C11 C10 1_555 1_555
H12 C11 1_555 1_555
H13 C11 1_555 1_555
H14 C11 1_555 1_555
C12 C10 1_555 1_555
H15 C12 1_555 1_555
H16 C12 1_555 1_555
H17 C12 1_555 1_555
C13 O2 1_555 1_555
H18 C13 1_555 1_555
H19 C13 1_555 1_555
C14 O3 1_555 1_555
H20 C14 1_555 1_555
H21 C14 1_555 1_555
C15 O3 1_555 1_555
H22 C15 1_555 1_555
H23 C15 1_555 1_555
H24 C15 1_555 1_555
C16 O4 1_555 1_555
H25 C16 1_555 1_555
H26 C16 1_555 1_555
C17 O5 1_555 1_555
H27 C17 1_555 1_555
H28 C17 1_555 1_555
C18 O5 1_555 1_555
H29 C18 1_555 1_555
H30 C18 1_555 1_555
H31 C18 1_555 1_555
C19 O6 1_555 1_555
H32 C19 1_555 1_555
H33 C19 1_555 1_555
C20 O7 1_555 1_555
H34 C20 1_555 1_555
H35 C20 1_555 1_555
C21 O7 1_555 1_555
H36 C21 1_555 1_555
H37 C21 1_555 1_555
H38 C21 1_555 1_555
Mg1A O1A 1_555 1_555
Mg2A O2 1_555 1_555
O1A C1A 1_555 1_555
O2A Mg2 1_555 1_555
O3A Mg1A 1_555 1_555
O4A Mg2 1_555 1_555
O5A Mg2A 1_555 1_555
O6A Mg1A 1_555 1_555
O7A Mg2A 1_555 1_555
C1A C2A 1_555 1_555
C2A C3A 1_555 1_555
C3A H1A 1_555 1_555
C4A C3A 1_555 1_555
H2A C4A 1_555 1_555
C5A C4A 1_555 1_555
H3A C5A 1_555 1_555
C6A C1A 1_555 1_555
C7A C2A 1_555 1_555
H4A C7A 1_555 1_555
C8A C7A 1_555 1_555
H5A C8A 1_555 1_555
H6A C8A 1_555 1_555
H7A C8A 1_555 1_555
C9A C7A 1_555 1_555
H8A C9A 1_555 1_555
H9A C9A 1_555 1_555
H10A C9A 1_555 1_555
C10A C6A 1_555 1_555
H11A C10A 1_555 1_555
C11A C10A 1_555 1_555
H12A C11A 1_555 1_555
H13A C11A 1_555 1_555
H14A C11A 1_555 1_555
C12A C10A 1_555 1_555
H15A C12A 1_555 1_555
H16A C12A 1_555 1_555
H17A C12A 1_555 1_555
C13A O2A 1_555 1_555
H18A C13A 1_555 1_555
H19A C13A 1_555 1_555
C14A O3A 1_555 1_555
H20A C14A 1_555 1_555
H21A C14A 1_555 1_555
C15A O3A 1_555 1_555
H22A C15A 1_555 1_555
H23A C15A 1_555 1_555
H24A C15A 1_555 1_555
C16A O4A 1_555 1_555
H25A C16A 1_555 1_555
H26A C16A 1_555 1_555
C17A O5A 1_555 1_555
H27A C17A 1_555 1_555
H28A C17A 1_555 1_555
C18A O5A 1_555 1_555
H29A C18A 1_555 1_555
H30A C18A 1_555 1_555
H31A C18A 1_555 1_555
C19A O6A 1_555 1_555
H32A C19A 1_555 1_555
H33A C19A 1_555 1_555
C20A O7A 1_555 1_555
H34A C20A 1_555 1_555
H35A C20A 1_555 1_555
C21A O7A 1_555 1_555
H36A C21A 1_555 1_555
H37A C21A 1_555 1_555
H38A C21A 1_555 1_555
Mg2 O6 1_555 1_555
O4 Mg2A 1_555 1_555
C5 C6 1_555 1_555
C13 C14 1_555 1_555
C16 C17 1_555 1_555
C19 C20 1_555 1_555
Mg1A O2A 1_555 1_555
Mg1A O4A 1_555 1_555
Mg2A O4A 1_555 1_555
Mg2A O6A 1_555 1_555
C5A C6A 1_555 1_555
C13A C14A 1_555 1_555
C16A C17A 1_555 1_555
C19A C20A 1_555 1_555

#END
