
#######################################################################
#
#                 Cambridge Crystallographic Data Centre
#                                CCDC 
#
#######################################################################
#
# If this CIF has been generated from an entry in the Cambridge 
# Structural Database, then it will include bibliographic, chemical, 
# crystal, experimental, refinement or atomic coordinate data resulting 
# from the CCDC's data processing and validation procedures.
#
#######################################################################

data_NOBSUU
_chemical_formula_moiety         'C16 H15 Br1 O2'
_chemical_name_systematic        
2-(1-(4-Bromophenyl)prop-2-yn-1-yl)-2-methylcyclohexane-1,3-dione
_symmetry_cell_setting           tetragonal
_symmetry_space_group_name_H-M   'P 41'
_symmetry_Int_Tables_number      76
_space_group_name_Hall           'P 4w'
loop_
_symmetry_equiv_pos_site_id
_symmetry_equiv_pos_as_xyz
1 x,y,z
2 -x,-y,1/2+z
3 -y,x,1/4+z
4 y,-x,3/4+z
_cell_length_a                   7.3072(10)
_cell_length_b                   7.3072(10)
_cell_length_c                   25.958(5)
_cell_angle_alpha                90
_cell_angle_beta                 90
_cell_angle_gamma                90
_cell_volume                     1386.03
_exptl_crystal_colour            colorless
_exptl_crystal_description       block
_cell_formula_units_Z            4
_exptl_crystal_recrystallization_method propan-2-ol
loop_
_atom_site_label
_atom_site_type_symbol
_atom_site_fract_x
_atom_site_fract_y
_atom_site_fract_z
Br1 Br 1.03654(4) -0.23503(3) 0.500350(14)
O1 O 0.6156(3) 0.2454(3) 0.69613(7)
O2 O 0.6009(3) 0.6690(3) 0.55878(8)
C1 C 0.5714(4) 0.2924(4) 0.65356(10)
C2 C 0.4536(5) 0.1700(5) 0.62064(14)
H1 H 0.5151 0.0498 0.6177
H2 H 0.3364 0.1497 0.6389
C3 C 0.4111(4) 0.2369(4) 0.56738(11)
H3 H 0.3036 0.1703 0.5537
H4 H 0.5164 0.2122 0.5444
C4 C 0.3712(4) 0.4408(5) 0.56802(11)
H5 H 0.3305 0.4810 0.5334
H6 H 0.2719 0.4672 0.5929
C5 C 0.5399(4) 0.5421(4) 0.58306(9)
C6 C 0.6379(3) 0.4792(4) 0.63282(9)
C7 C 0.5924(4) 0.6279(4) 0.67290(11)
H7 H 0.6434 0.7453 0.6616
H8 H 0.6456 0.5942 0.7062
H9 H 0.4593 0.6389 0.6764
C8 C 0.8490(4) 0.4701(3) 0.62211(9)
H10 H 0.8783 0.5749 0.5987
C9 C 0.9619(4) 0.4944(4) 0.66864(9)
C10 C 1.0591(4) 0.5178(4) 0.70448(10)
H11 H 1.1371 0.5365 0.7333
C11 C 0.9001(3) 0.2956(3) 0.59295(9)
C12 C 0.9523(3) 0.1370(4) 0.61845(9)
H12 H 0.9611 0.1374 0.6550
C13 C 0.9918(4) -0.0217(4) 0.59157(10)
H13 H 1.0280 -0.1296 0.6093
C14 C 0.9774(4) -0.0201(4) 0.53844(10)
C15 C 0.9277(3) 0.1353(4) 0.51173(8)
H14 H 0.9200 0.1343 0.4752
C16 C 0.8891(3) 0.2933(4) 0.53943(9)
H15 H 0.8547 0.4014 0.5216
loop_
_geom_bond_atom_site_label_1
_geom_bond_atom_site_label_2
_geom_bond_site_symmetry_1
_geom_bond_site_symmetry_2
Br1 C14 1_555 1_555
O1 C1 1_555 1_555
O2 C5 1_555 1_555
C1 C2 1_555 1_555
C2 H1 1_555 1_555
H2 C2 1_555 1_555
C3 C2 1_555 1_555
H3 C3 1_555 1_555
H4 C3 1_555 1_555
C4 C3 1_555 1_555
H5 C4 1_555 1_555
H6 C4 1_555 1_555
C5 C4 1_555 1_555
C6 C1 1_555 1_555
C7 C6 1_555 1_555
H7 C7 1_555 1_555
H8 C7 1_555 1_555
H9 C7 1_555 1_555
C8 C6 1_555 1_555
H10 C8 1_555 1_555
C9 C8 1_555 1_555
C10 C9 1_555 1_555
H11 C10 1_555 1_555
C11 C8 1_555 1_555
C12 C11 1_555 1_555
H12 C12 1_555 1_555
C13 C12 1_555 1_555
H13 C13 1_555 1_555
C14 C13 1_555 1_555
C15 C14 1_555 1_555
H14 C15 1_555 1_555
C16 C11 1_555 1_555
H15 C16 1_555 1_555
C5 C6 1_555 1_555
C15 C16 1_555 1_555

#END
