
#######################################################################
#
#                 Cambridge Crystallographic Data Centre
#                                CCDC 
#
#######################################################################
#
# If this CIF has been generated from an entry in the Cambridge 
# Structural Database, then it will include bibliographic, chemical, 
# crystal, experimental, refinement or atomic coordinate data resulting 
# from the CCDC's data processing and validation procedures.
#
#######################################################################

data_NOBVIJ
_chemical_formula_moiety         'C9 H12 Cl1 N3 O4'
_chemical_name_systematic        
(S)-(-)-1-(3-Chloro-2-acetoxypropyl)-2-methyl-4-nitroimidazole
_symmetry_cell_setting           tetragonal
_symmetry_space_group_name_H-M   'P 43'
_symmetry_Int_Tables_number      78
_space_group_name_Hall           'P 4cw'
loop_
_symmetry_equiv_pos_site_id
_symmetry_equiv_pos_as_xyz
1 x,y,z
2 -x,-y,1/2+z
3 -y,x,3/4+z
4 y,-x,1/4+z
_cell_length_a                   8.384(1)
_cell_length_b                   8.384(1)
_cell_length_c                   35.096(3)
_cell_angle_alpha                90
_cell_angle_beta                 90
_cell_angle_gamma                90
_cell_volume                     2466.95
_exptl_crystal_colour            colorless
_exptl_crystal_description       block
_chemical_melting_point          88deg.C
_cell_formula_units_Z            8
loop_
_atom_site_label
_atom_site_type_symbol
_atom_site_fract_x
_atom_site_fract_y
_atom_site_fract_z
N1 N -0.1336(3) 0.0110(3) 0.20664(8)
C1 C -0.1663(4) -0.0665(4) 0.24056(10)
N2 N -0.3165(3) -0.1092(3) 0.24249(8)
C2 C -0.3802(4) -0.0581(4) 0.20898(10)
C3 C -0.2723(4) 0.0175(4) 0.18649(9)
H1 H -0.2894(4) 0.0638(4) 0.16245(9)
C4 C 0.0190(4) 0.0806(4) 0.19522(10)
H2 H 0.0297(4) 0.0736(4) 0.16747(10)
H3 H 0.1060(4) 0.0188(4) 0.20664(10)
C5 C 0.0341(4) 0.2532(4) 0.20733(10)
H4 H 0.0057(4) 0.2645(4) 0.23458(10)
C6 C 0.2011(5) 0.3176(5) 0.20044(13)
H5 H 0.1993(5) 0.4345(5) 0.20022(13)
H6 H 0.2409(5) 0.2805(5) 0.17572(13)
Cl1 Cl 0.32832(14) 0.24755(13) 0.23788(4)
O1 O -0.0790(3) 0.3403(3) 0.18389(7)
C7 C -0.1312(5) 0.4814(5) 0.19782(12)
O2 O -0.0783(4) 0.5401(4) 0.22639(10)
C8 C -0.2599(7) 0.5484(6) 0.1735(2)
H7 H -0.3556(19) 0.4845(36) 0.1763(11)
H8 H -0.2261(24) 0.5472(55) 0.1471(2)
H9 H -0.2820(43) 0.6572(21) 0.1813(10)
N3 N -0.5438(3) -0.0860(4) 0.19980(9)
O3 O -0.6265(3) -0.1623(4) 0.22183(8)
O4 O -0.5945(3) -0.0279(4) 0.16993(8)
C9 C -0.0440(5) -0.0972(6) 0.26998(12)
H10 H -0.0079(29) 0.0034(6) 0.2806(7)
H11 H 0.0457(18) -0.1527(35) 0.2586(2)
H12 H -0.0894(12) -0.1623(34) 0.2901(5)
N4 N -0.6240(3) -0.2739(3) 0.31137(8)
C10 C -0.7623(4) -0.2920(4) 0.33193(10)
N5 N -0.8120(3) -0.1556(3) 0.34591(8)
C11 C -0.7008(3) -0.0485(3) 0.33366(9)
C12 C -0.5833(4) -0.1163(3) 0.31239(9)
H13 H -0.4949(4) -0.0664(3) 0.30105(9)
C13 C -0.5289(4) -0.3986(4) 0.29338(10)
H14 H -0.4713(4) -0.3535(4) 0.27159(10)
H15 H -0.5998(4) -0.4824(4) 0.28380(10)
C14 C -0.4099(4) -0.4714(3) 0.32100(10)
H16 H -0.4664(4) -0.5235(3) 0.34239(10)
C15 C -0.3089(4) -0.5912(4) 0.29986(13)
H17 H -0.2416(4) -0.5348(4) 0.28143(13)
H18 H -0.3788(4) -0.6635(4) 0.28563(13)
Cl2 Cl -0.18532(12) -0.70522(12) 0.33080(5)
O5 O -0.3074(3) -0.3459(2) 0.33506(7)
C16 C -0.3377(4) -0.2887(4) 0.37037(11)
O6 O -0.4328(4) -0.3461(4) 0.39154(9)
C17 C -0.2392(5) -0.1429(5) 0.37790(13)
H19 H -0.2808(25) -0.0542(11) 0.3632(7)
H20 H -0.1295(9) -0.1631(14) 0.3705(9)
H21 H -0.2435(32) -0.1171(23) 0.4048(2)
N6 N -0.7163(3) 0.1170(3) 0.34162(8)
O7 O -0.8371(3) 0.1653(3) 0.35760(8)
O8 O -0.6044(3) 0.2044(3) 0.33187(9)
C18 C -0.8453(5) -0.4474(4) 0.3361(2)
H22 H -0.7844(24) -0.5160(17) 0.3529(9)
H23 H -0.8550(40) -0.4977(21) 0.3113(2)
H24 H -0.9507(18) -0.4302(6) 0.3467(10)
loop_
_geom_bond_atom_site_label_1
_geom_bond_atom_site_label_2
_geom_bond_site_symmetry_1
_geom_bond_site_symmetry_2
N1 C1 1_555 1_555
C1 N2 1_555 1_555
N2 C2 1_555 1_555
C2 C3 1_555 1_555
C3 N1 1_555 1_555
H1 C3 1_555 1_555
C4 N1 1_555 1_555
H2 C4 1_555 1_555
H3 C4 1_555 1_555
C5 C4 1_555 1_555
H4 C5 1_555 1_555
C6 C5 1_555 1_555
H5 C6 1_555 1_555
H6 C6 1_555 1_555
Cl1 C6 1_555 1_555
O1 C5 1_555 1_555
C7 O1 1_555 1_555
O2 C7 1_555 1_555
C8 C7 1_555 1_555
H7 C8 1_555 1_555
H8 C8 1_555 1_555
H9 C8 1_555 1_555
N3 C2 1_555 1_555
O3 N3 1_555 1_555
O4 N3 1_555 1_555
C9 C1 1_555 1_555
H10 C9 1_555 1_555
H11 C9 1_555 1_555
H12 C9 1_555 1_555
N4 C10 1_555 1_555
C10 N5 1_555 1_555
N5 C11 1_555 1_555
C11 C12 1_555 1_555
C12 N4 1_555 1_555
H13 C12 1_555 1_555
C13 N4 1_555 1_555
H14 C13 1_555 1_555
H15 C13 1_555 1_555
C14 C13 1_555 1_555
H16 C14 1_555 1_555
C15 C14 1_555 1_555
H17 C15 1_555 1_555
H18 C15 1_555 1_555
Cl2 C15 1_555 1_555
O5 C14 1_555 1_555
C16 O5 1_555 1_555
O6 C16 1_555 1_555
C17 C16 1_555 1_555
H19 C17 1_555 1_555
H20 C17 1_555 1_555
H21 C17 1_555 1_555
N6 C11 1_555 1_555
O7 N6 1_555 1_555
O8 N6 1_555 1_555
C18 C10 1_555 1_555
H22 C18 1_555 1_555
H23 C18 1_555 1_555
H24 C18 1_555 1_555

#END
