
#######################################################################
#
#                 Cambridge Crystallographic Data Centre
#                                CCDC 
#
#######################################################################
#
# If this CIF has been generated from an entry in the Cambridge 
# Structural Database, then it will include bibliographic, chemical, 
# crystal, experimental, refinement or atomic coordinate data resulting 
# from the CCDC's data processing and validation procedures.
#
#######################################################################

data_NOCPOL
_chemical_formula_moiety         'C22 H22 N2'
_chemical_name_systematic        
2,5-diphenyl-3a,6a-(tetramethylene)-3,6-dihydropyrrolo[3,2-b]pyrrole
_symmetry_cell_setting           triclinic
_symmetry_space_group_name_H-M   'P -1'
_symmetry_Int_Tables_number      2
_space_group_name_Hall           '-P 1'
loop_
_symmetry_equiv_pos_site_id
_symmetry_equiv_pos_as_xyz
1 x,y,z
2 -x,-y,-z
_cell_length_a                   7.1497(14)
_cell_length_b                   11.594(2)
_cell_length_c                   22.913(5)
_cell_angle_alpha                80.08(3)
_cell_angle_beta                 87.58(3)
_cell_angle_gamma                72.09(3)
_cell_volume                     1780.16
_exptl_crystal_colour            colorless
_exptl_crystal_description       Block
_chemical_melting_point          '182-183 deg.C'
_cell_formula_units_Z            4
loop_
_atom_site_label
_atom_site_type_symbol
_atom_site_fract_x
_atom_site_fract_y
_atom_site_fract_z
N1 N 0.5926(3) 0.00983(16) 0.32838(8)
N2 N 0.4978(3) 0.17708(15) 0.42078(8)
C1 C 0.6901(3) 0.08915(19) 0.40846(9)
C2 C 0.8551(3) 0.1236(2) 0.43514(10)
H1 H 0.8217 0.2125 0.4298
H2 H 0.8649 0.0926 0.4774
C3 C 1.0534(3) 0.0724(2) 0.40708(10)
H3 H 1.0942 -0.0168 0.4156
H4 H 1.1513 0.1001 0.4237
C4 C 1.0384(3) 0.1158(2) 0.34006(10)
H5 H 0.9924 0.2049 0.3317
H6 H 1.1674 0.0885 0.3227
C5 C 0.8980(3) 0.0653(2) 0.31241(10)
H7 H 0.9520 -0.0234 0.3172
H8 H 0.8862 0.0974 0.2703
C6 C 0.6933(3) 0.09863(19) 0.33990(9)
C7 C 0.5594(3) 0.22902(19) 0.31907(9)
H9 H 0.6337 0.2872 0.3105
H10 H 0.4830 0.2335 0.2843
C8 C 0.4302(3) 0.25108(19) 0.37270(9)
C9 C 0.2391(3) 0.3496(2) 0.37087(10)
C10 C 0.1608(4) 0.4204(2) 0.31715(11)
H11 H 0.2305 0.4083 0.2824
C11 C -0.0211(4) 0.5093(3) 0.31542(14)
H12 H -0.0736 0.5562 0.2794
C12 C -0.1240(4) 0.5283(3) 0.36635(16)
H13 H -0.2459 0.5881 0.3647
C13 C -0.0481(4) 0.4596(2) 0.41996(14)
H14 H -0.1185 0.4730 0.4545
C14 C 0.1328(4) 0.3704(2) 0.42236(11)
H15 H 0.1839 0.3240 0.4586
C15 C 0.6818(3) -0.04154(19) 0.42949(9)
H16 H 0.8122 -0.0994 0.4377
H17 H 0.6018 -0.0462 0.4646
C16 C 0.5877(3) -0.06418(19) 0.37657(9)
C17 C 0.4957(3) -0.16305(19) 0.37921(10)
C18 C 0.4727(4) -0.2329(2) 0.43322(11)
H18 H 0.5206 -0.2197 0.4678
C19 C 0.3793(4) -0.3216(2) 0.43593(13)
H19 H 0.3645 -0.3681 0.4722
C20 C 0.3085(4) -0.3412(3) 0.38518(15)
H20 H 0.2446 -0.4005 0.3871
C21 C 0.3310(4) -0.2739(3) 0.33139(13)
H21 H 0.2846 -0.2886 0.2970
C22 C 0.4226(4) -0.1847(2) 0.32857(11)
H22 H 0.4355 -0.1382 0.2921
N3 N 0.3949(3) 0.19477(17) 0.07720(8)
N4 N 0.2857(3) 0.36158(17) 0.17045(8)
C23 C 0.1871(3) 0.2738(2) 0.15576(10)
C24 C -0.0214(3) 0.3094(2) 0.18054(10)
H23 H -0.0162 0.2786 0.2228
H24 H -0.0746 0.3983 0.1749
C25 C -0.1568(4) 0.2583(2) 0.15069(10)
H25 H -0.2882 0.2849 0.1666
H26 H -0.1100 0.1692 0.1587
C26 C -0.1627(4) 0.3031(3) 0.08422(11)
H27 H -0.2044 0.3923 0.0764
H28 H -0.2572 0.2756 0.0657
C27 C 0.0402(4) 0.2537(2) 0.05772(10)
H29 H 0.0734 0.1651 0.0612
H30 H 0.0354 0.2879 0.0159
C28 C 0.2006(3) 0.2844(2) 0.08767(9)
C29 C 0.2139(4) 0.4151(2) 0.06818(10)
H31 H 0.3007 0.4191 0.0347
H32 H 0.0854 0.4739 0.0580
C30 C 0.2978(3) 0.4367(2) 0.12320(10)
C31 C 0.3903(3) 0.5339(2) 0.12334(10)
C32 C 0.4107(4) 0.6106(2) 0.07153(11)
H33 H 0.3604 0.6026 0.0362
C33 C 0.5044(4) 0.6987(2) 0.07142(13)
H34 H 0.5169 0.7492 0.0362
C34 C 0.5787(4) 0.7117(2) 0.12317(13)
H35 H 0.6430 0.7703 0.1232
C35 C 0.5577(4) 0.6371(3) 0.17555(12)
H36 H 0.6059 0.6470 0.2108
C36 C 0.4664(4) 0.5487(2) 0.17604(11)
H37 H 0.4550 0.4984 0.2114
C37 C 0.3167(3) 0.1431(2) 0.17791(9)
H38 H 0.3881 0.1385 0.2138
H39 H 0.2405 0.0859 0.1851
C38 C 0.4539(3) 0.1193(2) 0.12604(10)
C39 C 0.6440(4) 0.0217(2) 0.12976(11)
C40 C 0.7214(4) -0.0449(2) 0.18462(11)
H40 H 0.6501 -0.0302 0.2189
C41 C 0.9048(4) -0.1329(3) 0.18803(14)
H41 H 0.9550 -0.1774 0.2247
C42 C 1.0124(5) -0.1550(3) 0.13832(15)
H42 H 1.1363 -0.2131 0.1414
C43 C 0.9374(4) -0.0910(3) 0.08327(14)
H43 H 1.0099 -0.1068 0.0493
C44 C 0.7546(4) -0.0036(2) 0.07911(12)
H44 H 0.7043 0.0391 0.0421
loop_
_geom_bond_atom_site_label_1
_geom_bond_atom_site_label_2
_geom_bond_site_symmetry_1
_geom_bond_site_symmetry_2
N1 C6 1_555 1_555
N2 C1 1_555 1_555
C1 C2 1_555 1_555
C2 H1 1_555 1_555
H2 C2 1_555 1_555
C3 C2 1_555 1_555
H3 C3 1_555 1_555
H4 C3 1_555 1_555
C4 C3 1_555 1_555
H5 C4 1_555 1_555
H6 C4 1_555 1_555
C5 C4 1_555 1_555
H7 C5 1_555 1_555
H8 C5 1_555 1_555
C6 C1 1_555 1_555
C7 C6 1_555 1_555
H9 C7 1_555 1_555
H10 C7 1_555 1_555
C8 N2 1_555 1_555
C9 C8 1_555 1_555
C10 C9 1_555 1_555
H11 C10 1_555 1_555
C11 C10 1_555 1_555
H12 C11 1_555 1_555
C12 C11 1_555 1_555
H13 C12 1_555 1_555
C13 C12 1_555 1_555
H14 C13 1_555 1_555
C14 C9 1_555 1_555
H15 C14 1_555 1_555
C15 C1 1_555 1_555
H16 C15 1_555 1_555
H17 C15 1_555 1_555
C16 N1 1_555 1_555
C17 C16 1_555 1_555
C18 C17 1_555 1_555
H18 C18 1_555 1_555
C19 C18 1_555 1_555
H19 C19 1_555 1_555
C20 C19 1_555 1_555
H20 C20 1_555 1_555
C21 C20 1_555 1_555
H21 C21 1_555 1_555
C22 C17 1_555 1_555
H22 C22 1_555 1_555
N3 C28 1_555 1_555
N4 C23 1_555 1_555
C23 C24 1_555 1_555
C24 H23 1_555 1_555
H24 C24 1_555 1_555
C25 C24 1_555 1_555
H25 C25 1_555 1_555
H26 C25 1_555 1_555
C26 C25 1_555 1_555
H27 C26 1_555 1_555
H28 C26 1_555 1_555
C27 C26 1_555 1_555
H29 C27 1_555 1_555
H30 C27 1_555 1_555
C28 C23 1_555 1_555
C29 C28 1_555 1_555
H31 C29 1_555 1_555
H32 C29 1_555 1_555
C30 N4 1_555 1_555
C31 C30 1_555 1_555
C32 C31 1_555 1_555
H33 C32 1_555 1_555
C33 C32 1_555 1_555
H34 C33 1_555 1_555
C34 C33 1_555 1_555
H35 C34 1_555 1_555
C35 C34 1_555 1_555
H36 C35 1_555 1_555
C36 C31 1_555 1_555
H37 C36 1_555 1_555
C37 C23 1_555 1_555
H38 C37 1_555 1_555
H39 C37 1_555 1_555
C38 N3 1_555 1_555
C39 C38 1_555 1_555
C40 C39 1_555 1_555
H40 C40 1_555 1_555
C41 C40 1_555 1_555
H41 C41 1_555 1_555
C42 C41 1_555 1_555
H42 C42 1_555 1_555
C43 C42 1_555 1_555
H43 C43 1_555 1_555
C44 C39 1_555 1_555
H44 C44 1_555 1_555
C5 C6 1_555 1_555
C7 C8 1_555 1_555
C13 C14 1_555 1_555
C15 C16 1_555 1_555
C21 C22 1_555 1_555
C27 C28 1_555 1_555
C29 C30 1_555 1_555
C35 C36 1_555 1_555
C37 C38 1_555 1_555
C43 C44 1_555 1_555

#END
