
#######################################################################
#
#                 Cambridge Crystallographic Data Centre
#                                CCDC 
#
#######################################################################
#
# If this CIF has been generated from an entry in the Cambridge 
# Structural Database, then it will include bibliographic, chemical, 
# crystal, experimental, refinement or atomic coordinate data resulting 
# from the CCDC's data processing and validation procedures.
#
#######################################################################

data_NODDIT
_chemical_formula_moiety         'C17 H22 O6'
_chemical_name_systematic        
endo-4,6-O-Benzylidene-exo-3,5-ethylidene-1,2-di-O-methyl-myo-inositol
_symmetry_cell_setting           orthorhombic
_symmetry_space_group_name_H-M   'P b c a'
_symmetry_Int_Tables_number      61
_space_group_name_Hall           '-P 2ac 2ab'
loop_
_symmetry_equiv_pos_site_id
_symmetry_equiv_pos_as_xyz
1 x,y,z
2 1/2-x,1/2+y,z
3 x,1/2-y,1/2+z
4 1/2+x,y,1/2-z
5 -x,-y,-z
6 1/2+x,1/2-y,-z
7 -x,1/2+y,1/2-z
8 1/2-x,-y,1/2+z
_cell_length_a                   6.8221(15)
_cell_length_b                   22.021(6)
_cell_length_c                   21.941(6)
_cell_angle_alpha                90
_cell_angle_beta                 90
_cell_angle_gamma                90
_cell_volume                     3296.18
_chemical_melting_point          118-119deg.C
_cell_formula_units_Z            8
loop_
_atom_site_label
_atom_site_type_symbol
_atom_site_fract_x
_atom_site_fract_y
_atom_site_fract_z
C1 C 0.4924(10) 0.6128(3) 0.9345(3)
C2 C 0.6304(9) 0.6535(3) 0.8952(3)
C3 C 0.5630(9) 0.6684(3) 0.8306(3)
C4 C 0.4804(9) 0.6126(3) 0.8010(3)
C5 C 0.2961(9) 0.5948(3) 0.8368(3)
C6 C 0.3645(9) 0.5702(3) 0.8967(3)
C7 C 0.2410(10) 0.7029(3) 0.8556(3)
C8 C 0.0949(9) 0.7495(3) 0.8369(3)
C9 C 0.5476(9) 0.5086(3) 0.8249(3)
C10 C 0.7085(10) 0.4628(3) 0.8281(3)
C11 C 0.6754(11) 0.4046(4) 0.8097(3)
C12 C 0.8166(16) 0.3603(3) 0.8155(4)
C13 C 0.9951(14) 0.3757(4) 0.8420(4)
C14 C 1.0307(11) 0.4336(4) 0.8584(4)
C15 C 0.8879(11) 0.4775(3) 0.8523(4)
C16 C 0.3294(14) 0.6202(5) 1.0288(4)
C17 C 0.8054(12) 0.6997(4) 0.9750(4)
O1 O 0.3769(7) 0.64929(20) 0.97362(19)
O2 O 0.6823(6) 0.70794(20) 0.92388(22)
O3 O 0.4194(6) 0.71502(18) 0.82385(20)
O4 O 0.6232(6) 0.56418(18) 0.80461(18)
O5 O 0.1634(6) 0.64515(19) 0.83869(19)
O6 O 0.4721(6) 0.51528(18) 0.88544(20)
H1 H 0.577 0.587 0.960
H2 H 0.751 0.630 0.890
H3 H 0.678 0.680 0.807
H4 H 0.444 0.621 0.759
H5 H 0.234 0.562 0.815
H6 H 0.247 0.561 0.921
H7 H 0.260 0.706 0.900
H8 H -0.028 0.745 0.857
H9 H 0.141 0.790 0.844
H10 H 0.072 0.746 0.793
H11 H 0.444 0.494 0.797
H12 H 0.548 0.394 0.791
H13 H 0.788 0.317 0.803
H14 H 1.095 0.344 0.848
H15 H 1.160 0.444 0.875
H16 H 0.916 0.519 0.865
H17 H 0.249 0.645 1.055
H18 H 0.256 0.583 1.022
H19 H 0.444 0.609 1.052
H20 H 0.837 0.737 0.995
H21 H 0.740 0.674 1.006
H22 H 0.925 0.679 0.966
loop_
_geom_bond_atom_site_label_1
_geom_bond_atom_site_label_2
_geom_bond_site_symmetry_1
_geom_bond_site_symmetry_2
C1 C2 1_555 1_555
C2 C3 1_555 1_555
C3 C4 1_555 1_555
C4 C5 1_555 1_555
C5 C6 1_555 1_555
C6 C1 1_555 1_555
C7 C8 1_555 1_555
C8 H8 1_555 1_555
C9 C10 1_555 1_555
C10 C11 1_555 1_555
C11 C12 1_555 1_555
C12 C13 1_555 1_555
C13 C14 1_555 1_555
C14 C15 1_555 1_555
C15 C10 1_555 1_555
C16 O1 1_555 1_555
C17 O2 1_555 1_555
O1 C1 1_555 1_555
O2 C2 1_555 1_555
O3 C3 1_555 1_555
O4 C4 1_555 1_555
O5 C5 1_555 1_555
O6 C6 1_555 1_555
H1 C1 1_555 1_555
H2 C2 1_555 1_555
H3 C3 1_555 1_555
H4 C4 1_555 1_555
H5 C5 1_555 1_555
H6 C6 1_555 1_555
H7 C7 1_555 1_555
H9 C8 1_555 1_555
H10 C8 1_555 1_555
H11 C9 1_555 1_555
H12 C11 1_555 1_555
H13 C12 1_555 1_555
H14 C13 1_555 1_555
H15 C14 1_555 1_555
H16 C15 1_555 1_555
H17 C16 1_555 1_555
H18 C16 1_555 1_555
H19 C16 1_555 1_555
H20 C17 1_555 1_555
H21 C17 1_555 1_555
H22 C17 1_555 1_555
C7 O5 1_555 1_555
C7 O3 1_555 1_555
C9 O6 1_555 1_555
C9 O4 1_555 1_555

#END
