
#######################################################################
#
#                 Cambridge Crystallographic Data Centre
#                                CCDC 
#
#######################################################################
#
# If this CIF has been generated from an entry in the Cambridge 
# Structural Database, then it will include bibliographic, chemical, 
# crystal, experimental, refinement or atomic coordinate data resulting 
# from the CCDC's data processing and validation procedures.
#
#######################################################################

data_NODQON
_chemical_formula_moiety         'C31 H28 B1 N1 O2'
_chemical_name_systematic        
(R)-5-(9-Anthrylmethyl)-1-methoxy-4-phenyl-3,4,5,6-tetrahydro-1H-2,5,1-benzoxazaborocine
_symmetry_cell_setting           orthorhombic
_symmetry_space_group_name_H-M   'P 21 21 21'
_symmetry_Int_Tables_number      19
_space_group_name_Hall           'P 2ac 2ab'
loop_
_symmetry_equiv_pos_site_id
_symmetry_equiv_pos_as_xyz
1 x,y,z
2 1/2-x,-y,1/2+z
3 -x,1/2+y,1/2-z
4 1/2+x,1/2-y,-z
_cell_length_a                   10.677(2)
_cell_length_b                   10.959(2)
_cell_length_c                   21.188(5)
_cell_angle_alpha                90
_cell_angle_beta                 90
_cell_angle_gamma                90
_cell_volume                     2479.19
_exptl_crystal_colour            colorless
_cell_formula_units_Z            4
_exptl_crystal_recrystallization_method dichloromethane
_exptl_crystal_preparation       fluorescent
loop_
_atom_site_label
_atom_site_type_symbol
_atom_site_fract_x
_atom_site_fract_y
_atom_site_fract_z
O1 O 0.0468(2) 0.2720(2) 0.23786(12)
N1 N -0.1165(2) 0.3876(3) 0.32125(14)
O2 O 0.0680(3) 0.4365(2) 0.16933(13)
C1 C -0.3841(3) 0.7333(4) 0.3249(2)
C2 C -0.3965(3) 0.7484(4) 0.2608(2)
H1 H -0.4293 0.8216 0.2459
C3 C -0.0834(3) 0.2572(3) 0.33026(18)
H2 H -0.1453 0.2107 0.3060
C4 C -0.2995(3) 0.5276(4) 0.3053(2)
C5 C -0.3627(3) 0.6604(4) 0.2176(2)
C6 C 0.1314(3) 0.4778(3) 0.28011(18)
C7 C -0.3356(3) 0.6195(4) 0.3485(2)
B1 B 0.0733(4) 0.3915(4) 0.2288(2)
C8 C 0.0849(3) 0.5042(3) 0.33978(18)
C9 C -0.3099(3) 0.5469(4) 0.2403(2)
C10 C -0.0928(4) 0.2104(3) 0.39755(19)
C11 C 0.2501(3) 0.5247(4) 0.2647(2)
H3 H 0.2827 0.5094 0.2248
C12 C -0.4208(4) 0.8259(5) 0.3680(3)
H4 H -0.4516 0.8994 0.3525
C13 C -0.2731(4) 0.4608(4) 0.1944(2)
H5 H -0.2377 0.3878 0.2078
C14 C -0.2535(3) 0.4051(4) 0.3283(2)
H6 H -0.2755 0.3961 0.3724
H7 H -0.2964 0.3414 0.3050
C15 C -0.3290(4) 0.6085(5) 0.4149(2)
H8 H -0.2988 0.5363 0.4322
C16 C 0.0428(3) 0.2284(4) 0.30054(17)
H9 H 0.1090 0.2663 0.3250
H10 H 0.0564 0.1408 0.3008
C17 C 0.0054(5) 0.2182(4) 0.4398(2)
H11 H 0.0793 0.2562 0.4275
C18 C 0.1556(4) 0.5722(4) 0.3820(2)
H12 H 0.1235 0.5891 0.4219
C19 C 0.2728(5) 0.6151(5) 0.3657(3)
H13 H 0.3200 0.6593 0.3947
C20 C -0.0482(3) 0.4747(4) 0.36019(18)
H14 H -0.0453 0.4433 0.4030
H15 H -0.0955 0.5503 0.3613
C21 C -0.2871(4) 0.4798(6) 0.1320(3)
H16 H -0.2615 0.4206 0.1033
C22 C -0.2018(5) 0.1522(4) 0.4179(2)
H17 H -0.2695 0.1441 0.3906
C23 C -0.3758(4) 0.6756(5) 0.1520(3)
H18 H -0.4100 0.7481 0.1371
C24 C -0.3651(5) 0.6998(6) 0.4543(3)
H19 H -0.3586 0.6892 0.4977
C25 C -0.4118(5) 0.8096(6) 0.4302(3)
H20 H -0.4367 0.8713 0.4576
C26 C 0.3194(4) 0.5921(4) 0.3064(3)
H21 H 0.3974 0.6221 0.2947
C27 C -0.3413(5) 0.5908(6) 0.1101(3)
H22 H -0.3525 0.6041 0.0671
C28 C -0.0043(6) 0.1711(5) 0.4993(2)
H23 H 0.0630 0.1777 0.5270
C29 C -0.2094(6) 0.1066(5) 0.4787(3)
H24 H -0.2832 0.0699 0.4921
C30 C -0.1117(8) 0.1145(5) 0.5187(3)
H25 H -0.1173 0.0817 0.5591
C31 C 0.0396(5) 0.3618(4) 0.1167(2)
H26 H 0.0411 0.4102 0.0789
H27 H -0.0421 0.3268 0.1220
H28 H 0.1007 0.2978 0.1134
loop_
_geom_bond_atom_site_label_1
_geom_bond_atom_site_label_2
_geom_bond_site_symmetry_1
_geom_bond_site_symmetry_2
O1 B1 1_555 1_555
N1 C3 1_555 1_555
O2 B1 1_555 1_555
C1 C2 1_555 1_555
C2 H1 1_555 1_555
C3 H2 1_555 1_555
C4 C7 1_555 1_555
C5 C2 1_555 1_555
C6 B1 1_555 1_555
C7 C1 1_555 1_555
C8 C6 1_555 1_555
C9 C4 1_555 1_555
C10 C3 1_555 1_555
C11 C6 1_555 1_555
H3 C11 1_555 1_555
C12 C1 1_555 1_555
H4 C12 1_555 1_555
C13 C9 1_555 1_555
H5 C13 1_555 1_555
C14 N1 1_555 1_555
H6 C14 1_555 1_555
H7 C14 1_555 1_555
C15 C7 1_555 1_555
H8 C15 1_555 1_555
C16 O1 1_555 1_555
H9 C16 1_555 1_555
H10 C16 1_555 1_555
C17 C10 1_555 1_555
H11 C17 1_555 1_555
C18 C8 1_555 1_555
H12 C18 1_555 1_555
C19 C18 1_555 1_555
H13 C19 1_555 1_555
C20 N1 1_555 1_555
H14 C20 1_555 1_555
H15 C20 1_555 1_555
C21 C13 1_555 1_555
H16 C21 1_555 1_555
C22 C10 1_555 1_555
H17 C22 1_555 1_555
C23 C5 1_555 1_555
H18 C23 1_555 1_555
C24 C15 1_555 1_555
H19 C24 1_555 1_555
C25 C12 1_555 1_555
H20 C25 1_555 1_555
C26 C11 1_555 1_555
H21 C26 1_555 1_555
C27 C21 1_555 1_555
H22 C27 1_555 1_555
C28 C17 1_555 1_555
H23 C28 1_555 1_555
C29 C22 1_555 1_555
H24 C29 1_555 1_555
C30 C28 1_555 1_555
H25 C30 1_555 1_555
C31 O2 1_555 1_555
H26 C31 1_555 1_555
H27 C31 1_555 1_555
H28 C31 1_555 1_555
C3 C16 1_555 1_555
C4 C14 1_555 1_555
C5 C9 1_555 1_555
C8 C20 1_555 1_555
C19 C26 1_555 1_555
C23 C27 1_555 1_555
C24 C25 1_555 1_555
C29 C30 1_555 1_555

#END
