
#######################################################################
#
#                 Cambridge Crystallographic Data Centre
#                                CCDC 
#
#######################################################################
#
# If this CIF has been generated from an entry in the Cambridge 
# Structural Database, then it will include bibliographic, chemical, 
# crystal, experimental, refinement or atomic coordinate data resulting 
# from the CCDC's data processing and validation procedures.
#
#######################################################################

data_NODQAZ
_chemical_formula_moiety         'C22 H22 N2 S1'
_chemical_name_systematic        5,6-Dipropyldi-indolo(3,2-b:4,5-b')thiophene
_symmetry_cell_setting           monoclinic
_symmetry_space_group_name_H-M   'P 21/c'
_symmetry_Int_Tables_number      14
_space_group_name_Hall           '-P 2ybc'
loop_
_symmetry_equiv_pos_site_id
_symmetry_equiv_pos_as_xyz
1 x,y,z
2 -x,1/2+y,1/2-z
3 -x,-y,-z
4 x,1/2-y,1/2+z
_cell_length_a                   32.651(7)
_cell_length_b                   10.460(2)
_cell_length_c                   15.613(3)
_cell_angle_alpha                90
_cell_angle_beta                 96.34(3)
_cell_angle_gamma                90
_cell_volume                     5299.69
_exptl_crystal_colour            colorless
_exptl_crystal_description       block
_cell_formula_units_Z            12
_exptl_crystal_recrystallization_method hexane/sublimation
loop_
_atom_site_label
_atom_site_type_symbol
_atom_site_fract_x
_atom_site_fract_y
_atom_site_fract_z
S1 S 0.317748(15) 0.09485(4) 0.46312(3)
N1 N 0.37661(5) 0.41532(15) 0.47085(10)
N2 N 0.27186(5) 0.42375(14) 0.51144(10)
C1 C 0.30118(6) 0.33675(17) 0.48982(11)
C2 C 0.23571(6) 0.35679(18) 0.51893(12)
C3 C 0.34332(6) 0.33331(17) 0.47355(11)
C4 C 0.41071(6) 0.34201(18) 0.45752(11)
C5 C 0.37738(6) 0.55500(18) 0.47008(12)
H1 H 0.3489 0.5869 0.4555
H2 H 0.3939 0.5838 0.4242
C6 C 0.19815(6) 0.40243(19) 0.54181(13)
H3 H 0.1943 0.4906 0.5533
C7 C 0.28355(6) 0.21557(17) 0.48449(12)
C8 C 0.39520(6) 0.61440(18) 0.55541(12)
H4 H 0.3764 0.5980 0.5997
H5 H 0.4221 0.5740 0.5748
C9 C 0.39940(6) 0.21073(18) 0.45208(12)
C10 C 0.45074(6) 0.3816(2) 0.44740(12)
H6 H 0.4581 0.4695 0.4505
C11 C 0.42932(6) 0.1190(2) 0.43907(13)
H7 H 0.4225 0.0307 0.4367
C12 C 0.24165(6) 0.22528(17) 0.50163(11)
C13 C 0.46898(7) 0.1589(2) 0.42967(13)
H8 H 0.4895 0.0973 0.4210
C14 C 0.27644(6) 0.56026(17) 0.52910(12)
H9 H 0.3057 0.5785 0.5487
H10 H 0.2601 0.5828 0.5767
C15 C 0.47928(6) 0.2892(2) 0.43284(13)
H11 H 0.5066 0.3143 0.4248
C16 C 0.35634(6) 0.20902(17) 0.46078(12)
C17 C 0.26275(6) 0.64467(18) 0.45161(12)
H12 H 0.2807 0.6287 0.4056
H13 H 0.2341 0.6225 0.4288
C18 C 0.20883(6) 0.13972(18) 0.50631(12)
H14 H 0.2120 0.0516 0.4939
C19 C 0.40108(7) 0.75762(19) 0.54607(14)
H15 H 0.4186 0.7741 0.5002
H16 H 0.4142 0.7927 0.6005
H17 H 0.3742 0.7985 0.5314
C20 C 0.17186(6) 0.1856(2) 0.52928(13)
H18 H 0.1496 0.1282 0.5330
C21 C 0.16685(6) 0.3152(2) 0.54709(13)
H19 H 0.1412 0.3440 0.5633
C22 C 0.26491(8) 0.78539(19) 0.47634(14)
H20 H 0.2465 0.8018 0.5206
H21 H 0.2564 0.8377 0.4254
H22 H 0.2932 0.8073 0.4990
S2 S 0.359272(15) 0.88089(4) 0.30858(3)
N3 N 0.28961(5) 0.61418(15) 0.20109(10)
N4 N 0.39758(5) 0.55556(14) 0.23227(10)
C23 C 0.36947(6) 0.65047(17) 0.24693(11)
C24 C 0.39070(6) 0.75353(18) 0.28704(12)
C25 C 0.43334(6) 0.72321(18) 0.29976(12)
C26 C 0.43656(6) 0.59931(18) 0.26406(12)
C27 C 0.32603(6) 0.67348(17) 0.23514(11)
C28 C 0.27334(6) 0.81458(18) 0.24759(12)
C29 C 0.27707(6) 0.40325(18) 0.26648(12)
H23 H 0.2541 0.4407 0.2946
H24 H 0.3025 0.4101 0.3072
C30 C 0.31673(6) 0.79515(18) 0.26394(12)
C31 C 0.39092(6) 0.43823(17) 0.18198(12)
H25 H 0.4136 0.4280 0.1454
H26 H 0.3649 0.4460 0.1434
C32 C 0.38881(6) 0.31974(18) 0.23757(12)
H27 H 0.3675 0.3322 0.2772
H28 H 0.4156 0.3078 0.2730
C33 C 0.50643(6) 0.7213(2) 0.34006(13)
H29 H 0.5307 0.7609 0.3671
C34 C 0.24639(7) 0.9157(2) 0.25923(13)
H30 H 0.2566 0.9943 0.2835
C35 C 0.50910(6) 0.6005(2) 0.30164(13)
H31 H 0.5353 0.5610 0.3016
C36 C 0.25753(6) 0.69866(18) 0.21008(12)
C37 C 0.47444(6) 0.53793(19) 0.26398(12)
H32 H 0.4764 0.4557 0.2389
C38 C 0.46903(6) 0.78339(19) 0.33897(13)
H33 H 0.4675 0.8655 0.3644
C39 C 0.28256(6) 0.47805(18) 0.18524(12)
H34 H 0.3062 0.4422 0.1586
H35 H 0.2576 0.4673 0.1437
C40 C 0.20472(7) 0.8991(2) 0.23476(14)
H36 H 0.1861 0.9670 0.2423
C41 C 0.26798(7) 0.26314(19) 0.24680(14)
H37 H 0.2423 0.2559 0.2081
H38 H 0.2651 0.2174 0.3005
H39 H 0.2907 0.2258 0.2191
C42 C 0.37873(7) 0.20044(19) 0.18372(13)
H40 H 0.3514 0.2096 0.1514
H41 H 0.3789 0.1258 0.2217
H42 H 0.3994 0.1890 0.1434
C43 C 0.18953(7) 0.7832(2) 0.19905(14)
H43 H 0.1607 0.7738 0.1834
C44 C 0.21557(6) 0.6821(2) 0.18605(13)
H44 H 0.2051 0.6040 0.1615
S3 S 0.018215(15) 0.44829(4) 0.10596(3)
N5 N -0.03606(5) 0.12160(15) 0.11784(10)
C45 C -0.00383(6) 0.20918(17) 0.12875(11)
C46 C 0.03810(6) 0.21893(17) 0.16625(12)
N6 N 0.06824(5) 0.14632(15) 0.21425(10)
C47 C -0.06055(6) 0.31449(18) 0.06289(12)
C48 C -0.03739(7) -0.01481(17) 0.13863(12)
H45 H -0.0627 -0.0324 0.1661
H46 H -0.0135 -0.0358 0.1809
C49 C 0.06629(6) 0.01254(18) 0.23919(12)
H47 H 0.0387 -0.0055 0.2569
H48 H 0.0868 -0.0031 0.2896
C50 C -0.03676(7) -0.10157(18) 0.06033(13)
H49 H -0.0571 -0.0702 0.0132
H50 H -0.0091 -0.0984 0.0399
C51 C 0.07443(7) -0.07879(19) 0.16715(13)
H51 H 0.0546 -0.0613 0.1159
H52 H 0.1025 -0.0636 0.1511
C52 C -0.01812(6) 0.32651(17) 0.09477(12)
C53 C 0.12307(6) 0.4462(2) 0.21945(12)
H53 H 0.1183 0.5291 0.1955
C54 C 0.10203(6) 0.22473(19) 0.23646(12)
C55 C 0.05354(6) 0.34156(17) 0.15737(12)
C56 C 0.09407(6) 0.34860(18) 0.20110(12)
C57 C -0.09128(6) 0.39736(19) 0.02659(13)
H54 H -0.0852 0.4842 0.0155
C58 C 0.15870(6) 0.4201(2) 0.27296(13)
H55 H 0.1784 0.4859 0.2862
C59 C -0.11060(6) 0.13821(19) 0.05895(13)
H56 H -0.1172 0.0515 0.0695
C60 C 0.13834(6) 0.1990(2) 0.29000(12)
H57 H 0.1438 0.1161 0.3134
C61 C 0.07056(7) -0.2178(2) 0.19346(15)
H58 H 0.0912 -0.2368 0.2422
H59 H 0.0750 -0.2734 0.1448
H60 H 0.0429 -0.2330 0.2103
C62 C -0.14024(7) 0.2226(2) 0.02323(15)
H61 H -0.1677 0.1933 0.0093
C63 C -0.07053(6) 0.18500(18) 0.07906(12)
C64 C -0.04694(7) -0.23901(19) 0.08161(14)
H62 H -0.0276 -0.2691 0.1299
H63 H -0.0447 -0.2932 0.0311
H64 H -0.0751 -0.2434 0.0976
C65 C 0.16604(7) 0.2979(2) 0.30779(13)
H65 H 0.1907 0.2825 0.3446
C66 C -0.13081(7) 0.3502(2) 0.00709(14)
H66 H -0.1519 0.4055 -0.0177
loop_
_geom_bond_atom_site_label_1
_geom_bond_atom_site_label_2
_geom_bond_site_symmetry_1
_geom_bond_site_symmetry_2
S1 C7 1_555 1_555
N1 C3 1_555 1_555
N2 C1 1_555 1_555
C1 C3 1_555 1_555
C2 N2 1_555 1_555
C3 C16 1_555 1_555
C4 N1 1_555 1_555
C5 N1 1_555 1_555
H1 C5 1_555 1_555
H2 C5 1_555 1_555
C6 C2 1_555 1_555
H3 C6 1_555 1_555
C7 C1 1_555 1_555
C8 C5 1_555 1_555
H4 C8 1_555 1_555
H5 C8 1_555 1_555
C9 C4 1_555 1_555
C10 C4 1_555 1_555
H6 C10 1_555 1_555
C11 C9 1_555 1_555
H7 C11 1_555 1_555
C12 C2 1_555 1_555
C13 C11 1_555 1_555
H8 C13 1_555 1_555
C14 N2 1_555 1_555
H9 C14 1_555 1_555
H10 C14 1_555 1_555
C15 C10 1_555 1_555
H11 C15 1_555 1_555
C16 S1 1_555 1_555
C17 C14 1_555 1_555
H12 C17 1_555 1_555
H13 C17 1_555 1_555
C18 C12 1_555 1_555
H14 C18 1_555 1_555
C19 C8 1_555 1_555
H15 C19 1_555 1_555
H16 C19 1_555 1_555
H17 C19 1_555 1_555
C20 C18 1_555 1_555
H18 C20 1_555 1_555
C21 C6 1_555 1_555
H19 C21 1_555 1_555
C22 C17 1_555 1_555
H20 C22 1_555 1_555
H21 C22 1_555 1_555
H22 C22 1_555 1_555
S2 C24 1_555 1_555
N3 C27 1_555 1_555
N4 C23 1_555 1_555
C23 C24 1_555 1_555
C24 C25 1_555 1_555
C25 C26 1_555 1_555
C26 N4 1_555 1_555
C27 C23 1_555 1_555
C28 C30 1_555 1_555
C29 H23 1_555 1_555
H24 C29 1_555 1_555
C30 S2 1_555 1_555
C31 N4 1_555 1_555
H25 C31 1_555 1_555
H26 C31 1_555 1_555
C32 C31 1_555 1_555
H27 C32 1_555 1_555
H28 C32 1_555 1_555
C33 H29 1_555 1_555
C34 C28 1_555 1_555
H30 C34 1_555 1_555
C35 C33 1_555 1_555
H31 C35 1_555 1_555
C36 N3 1_555 1_555
C37 C26 1_555 1_555
H32 C37 1_555 1_555
C38 C25 1_555 1_555
H33 C38 1_555 1_555
C39 N3 1_555 1_555
H34 C39 1_555 1_555
H35 C39 1_555 1_555
C40 C34 1_555 1_555
H36 C40 1_555 1_555
C41 C29 1_555 1_555
H37 C41 1_555 1_555
H38 C41 1_555 1_555
H39 C41 1_555 1_555
C42 C32 1_555 1_555
H40 C42 1_555 1_555
H41 C42 1_555 1_555
H42 C42 1_555 1_555
C43 C40 1_555 1_555
H43 C43 1_555 1_555
C44 C36 1_555 1_555
H44 C44 1_555 1_555
S3 C52 1_555 1_555
N5 C45 1_555 1_555
C45 C46 1_555 1_555
C46 N6 1_555 1_555
N6 C49 1_555 1_555
C47 C52 1_555 1_555
C48 N5 1_555 1_555
H45 C48 1_555 1_555
H46 C48 1_555 1_555
C49 H47 1_555 1_555
H48 C49 1_555 1_555
C50 C48 1_555 1_555
H49 C50 1_555 1_555
H50 C50 1_555 1_555
C51 C49 1_555 1_555
H51 C51 1_555 1_555
H52 C51 1_555 1_555
C52 C45 1_555 1_555
C53 H53 1_555 1_555
C54 N6 1_555 1_555
C55 S3 1_555 1_555
C56 C53 1_555 1_555
C57 C47 1_555 1_555
H54 C57 1_555 1_555
C58 C53 1_555 1_555
H55 C58 1_555 1_555
C59 H56 1_555 1_555
C60 C54 1_555 1_555
H57 C60 1_555 1_555
C61 C51 1_555 1_555
H58 C61 1_555 1_555
H59 C61 1_555 1_555
H60 C61 1_555 1_555
C62 C59 1_555 1_555
H61 C62 1_555 1_555
C63 N5 1_555 1_555
C64 C50 1_555 1_555
H62 C64 1_555 1_555
H63 C64 1_555 1_555
H64 C64 1_555 1_555
C65 C58 1_555 1_555
H65 C65 1_555 1_555
C66 C57 1_555 1_555
H66 C66 1_555 1_555
C7 C12 1_555 1_555
C9 C16 1_555 1_555
C13 C15 1_555 1_555
C20 C21 1_555 1_555
C27 C30 1_555 1_555
C28 C36 1_555 1_555
C29 C39 1_555 1_555
C33 C38 1_555 1_555
C35 C37 1_555 1_555
C43 C44 1_555 1_555
C46 C55 1_555 1_555
C47 C63 1_555 1_555
C54 C56 1_555 1_555
C55 C56 1_555 1_555
C59 C63 1_555 1_555
C60 C65 1_555 1_555
C62 C66 1_555 1_555

#END
