
#######################################################################
#
#                 Cambridge Crystallographic Data Centre
#                                CCDC 
#
#######################################################################
#
# If this CIF has been generated from an entry in the Cambridge 
# Structural Database, then it will include bibliographic, chemical, 
# crystal, experimental, refinement or atomic coordinate data resulting 
# from the CCDC's data processing and validation procedures.
#
#######################################################################

data_NODVIN
_chemical_formula_moiety         'C72 H84 N12,3(C4 H10 O1),C1 H2 Cl2'
_chemical_name_systematic        
'5,12,20,27,35,42,50,57,62,69,74,81-dodecaazatridecacyclo[29.29.10.10^16,46^.1^3,59^.1^14,18^.1^29,33^.1^44,48^.0^6,11^.0^21,26^.0^36,41^.0^51,56^.0^63,68^.0^75,80^]tetraoctaconta-1,3(71),4,12,14(84),15,17,19,27,29(83),30,32,34,42,44(72),45,47,49,57,59,61,69,73,81-tetracosaene dichloromethane diethyl ether solvate'
_symmetry_cell_setting           rhombohedral
_symmetry_space_group_name_H-M   'R 3'
_symmetry_Int_Tables_number      146
_space_group_name_Hall           'R 3'
loop_
_symmetry_equiv_pos_site_id
_symmetry_equiv_pos_as_xyz
1 x,y,z
2 -y,x-y,z
3 -x+y,-x,z
4 2/3+x,1/3+y,1/3+z
5 2/3-y,1/3+x-y,1/3+z
6 2/3-x+y,1/3-x,1/3+z
7 1/3+x,2/3+y,2/3+z
8 1/3-y,2/3+x-y,2/3+z
9 1/3-x+y,2/3-x,2/3+z
_cell_length_a                   25.629(3)
_cell_length_b                   25.629(3)
_cell_length_c                   11.1848(15)
_cell_angle_alpha                90
_cell_angle_beta                 90
_cell_angle_gamma                120
_cell_volume                     6362.42
_exptl_crystal_colour            colorless
_exptl_crystal_description       needle
_cell_formula_units_Z            3
loop_
_atom_site_label
_atom_site_type_symbol
_atom_site_fract_x
_atom_site_fract_y
_atom_site_fract_z
Cl1 Cl 0.6338(8) 0.3459(8) 0.7214(9)
C1 C 0.6608(13) 0.3712(7) 0.8643(10)
H1 H 0.6339 0.3832 0.9042
H2 H 0.7012 0.4075 0.8582
Cl2B Cl 0.6520(35) 0.334(3) 0.9525(10)
Cl2 Cl 0.666(3) 0.3180(18) 0.9525(10)
Cl1A Cl 0.6541(8) 0.2879(11) 0.7214(9)
C1A C 0.6288(7) 0.2896(15) 0.8643(10)
H1A H 0.6168 0.2507 0.9042
H2A H 0.5925 0.2937 0.8582
Cl2A Cl 0.6820(18) 0.3480(35) 0.9525(10)
Cl1B Cl 0.7121(11) 0.3662(8) 0.7214(9)
C1B C 0.7104(15) 0.3392(13) 0.8643(10)
H1B H 0.7493 0.3661 0.9042
H2B H 0.7063 0.2988 0.8582
O1 O 0.6175(4) 0.5141(3) 0.7322(8)
C2 C 0.6014(9) 0.4172(5) 0.7126(15)
H3 H 0.6238 0.3983 0.6823
H4 H 0.5581 0.3900 0.6998
H5 H 0.6092 0.4252 0.7983
C3 C 0.6208(3) 0.4744(3) 0.6486(7)
H6 H 0.6625 0.4911 0.6187
H7 H 0.5939 0.4678 0.5797
C4 C 0.6499(6) 0.5679(4) 0.6639(9)
H8 H 0.6300 0.5672 0.5877
H9 H 0.6926 0.5796 0.6501
C5 C 0.6421(4) 0.6031(4) 0.7573(9)
H10 H 0.6353 0.6339 0.7206
H11 H 0.6783 0.6226 0.8072
H12 H 0.6073 0.5764 0.8070
N1 N 0.5022(3) 0.2794(3) 0.4418(6)
N2 N 0.4366(3) 0.2352(3) 0.6675(7)
N3 N 0.5220(3) 0.4029(3) 1.1346(6)
N4 N 0.6448(3) 0.4994(3) 1.1534(7)
C6 C 0.6316(3) 0.3607(3) 0.4258(8)
H13 H 0.6074 0.3792 0.4260
C7 C 0.6028(3) 0.2970(3) 0.4256(7)
C8 C 0.5380(4) 0.2591(4) 0.4299(7)
H14 H 0.5213 0.2167 0.4233
C9 C 0.4383(3) 0.2373(3) 0.4464(8)
H15 H 0.4315 0.1953 0.4432
C10 C 0.4099(3) 0.2445(4) 0.5594(8)
H16 H 0.4178 0.2869 0.5612
C11 C 0.3420(4) 0.2029(5) 0.5602(9)
H17 H 0.3250 0.2099 0.6339
H18 H 0.3329 0.1605 0.5610
C12 C 0.3124(4) 0.2130(6) 0.4518(9)
H19 H 0.2686 0.1838 0.4530
H20 H 0.3180 0.2541 0.4550
C13 C 0.3397(4) 0.2055(5) 0.3370(8)
H21 H 0.3218 0.2149 0.2675
H22 H 0.3303 0.1632 0.3295
C14 C 0.4084(4) 0.2477(4) 0.3371(9)
H23 H 0.4175 0.2900 0.3368
H24 H 0.4256 0.2409 0.2633
C15 C 0.4528(4) 0.2736(4) 0.7448(9)
H25 H 0.4499 0.3084 0.7284
C16 C 0.4773(3) 0.2695(3) 0.8653(8)
C17 C 0.4808(3) 0.2183(4) 0.8949(8)
H26 H 0.4717 0.1878 0.8371
C18 C 0.4977(3) 0.2130(3) 1.0090(8)
C19 C 0.5148(3) 0.2593(3) 1.0911(8)
H27 H 0.5280 0.2558 1.1685
C20 C 0.5129(3) 0.3105(3) 1.0610(8)
C21 C 0.4941(3) 0.3153(3) 0.9467(8)
H28 H 0.4930 0.3505 0.9248
C22 C 0.5306(3) 0.3594(4) 1.1500(7)
H29 H 0.5493 0.3576 1.2219
C23 C 0.5418(3) 0.4463(3) 1.2287(8)
H30 H 0.5559 0.4319 1.2979
C24 C 0.5936(3) 0.5071(4) 1.1838(8)
H31 H 0.5802 0.5198 1.1110
C25 C 0.6127(4) 0.5546(4) 1.2772(8)
H32 H 0.6460 0.5928 1.2452
H33 H 0.6284 0.5430 1.3469
C26 C 0.5620(5) 0.5651(4) 1.3188(9)
H34 H 0.5489 0.5813 1.2521
H35 H 0.5763 0.5947 1.3850
C27 C 0.5095(4) 0.5050(4) 1.3611(9)
H36 H 0.5221 0.4921 1.4339
H37 H 0.4755 0.5110 1.3833
C28 C 0.4880(4) 0.4554(4) 1.2692(9)
H38 H 0.4715 0.4659 1.1991
H39 H 0.4555 0.4174 1.3037
C29 C 0.6597(3) 0.5049(3) 1.0445(8)
H40 H 0.6363 0.5107 0.9857
N1A N 0.7206(3) 0.2228(4) 0.4418(6)
N2A N 0.7648(3) 0.2014(4) 0.6675(7)
N3A N 0.5971(3) 0.1191(4) 1.1346(6)
N4A N 0.5006(3) 0.1454(4) 1.1534(7)
C6A C 0.6393(3) 0.2709(4) 0.4258(8)
H13A H 0.6208 0.2282 0.4260
C7A C 0.7030(3) 0.3058(4) 0.4256(7)
C8A C 0.7409(4) 0.2789(6) 0.4299(7)
H14A H 0.7833 0.3046 0.4233
C9A C 0.7627(3) 0.2010(4) 0.4464(8)
H15A H 0.8047 0.2362 0.4432
C10A C 0.7555(4) 0.1654(5) 0.5594(8)
H16A H 0.7131 0.1309 0.5612
C11A C 0.7971(5) 0.1391(6) 0.5602(9)
H17A H 0.7901 0.1151 0.6339
H18A H 0.8395 0.1724 0.5610
C12A C 0.7870(6) 0.0994(7) 0.4518(9)
H19A H 0.8162 0.0848 0.4530
H20A H 0.7459 0.0639 0.4550
C13A C 0.7945(5) 0.1342(6) 0.3370(8)
H21A H 0.7851 0.1069 0.2675
H22A H 0.8368 0.1671 0.3295
C14A C 0.7523(4) 0.1607(6) 0.3371(9)
H23A H 0.7100 0.1275 0.3368
H24A H 0.7591 0.1847 0.2633
C15A C 0.7264(4) 0.1792(6) 0.7448(9)
H25A H 0.6916 0.1415 0.7284
C16A C 0.7305(3) 0.2078(4) 0.8653(8)
C17A C 0.7817(4) 0.2625(5) 0.8949(8)
H26A H 0.8122 0.2839 0.8371
C18A C 0.7870(3) 0.2847(4) 1.0090(8)
C19A C 0.7407(3) 0.2555(4) 1.0911(8)
H27A H 0.7442 0.2722 1.1685
C20A C 0.6895(3) 0.2024(4) 1.0610(8)
C21A C 0.6847(3) 0.1788(4) 0.9467(8)
H28A H 0.6495 0.1425 0.9248
C22A C 0.6406(4) 0.1712(5) 1.1500(7)
H29A H 0.6424 0.1917 1.2219
C23A C 0.5537(3) 0.0955(4) 1.2287(8)
H30A H 0.5681 0.1240 1.2979
C24A C 0.4929(4) 0.0865(5) 1.1838(8)
H31A H 0.4802 0.0604 1.1110
C25A C 0.4454(4) 0.0581(6) 1.2772(8)
H32A H 0.4072 0.0532 1.2452
H33A H 0.4570 0.0854 1.3469
C26A C 0.4349(4) -0.0031(6) 1.3188(9)
H34A H 0.4187 -0.0324 1.2521
H35A H 0.4053 -0.0184 1.3850
C27A C 0.4950(4) 0.0045(6) 1.3611(9)
H36A H 0.5079 0.0300 1.4339
H37A H 0.4890 -0.0355 1.3833
C28A C 0.5446(4) 0.0326(6) 1.2692(9)
H38A H 0.5341 0.0056 1.1991
H39A H 0.5826 0.0381 1.3037
C29A C 0.4951(3) 0.1548(4) 1.0445(8)
H40A H 0.4893 0.1256 0.9857
N1B N 0.7772(4) 0.4978(3) 0.4418(6)
N2B N 0.7986(4) 0.5634(3) 0.6675(7)
N3B N 0.8809(4) 0.4780(3) 1.1346(6)
N4B N 0.8546(4) 0.3552(3) 1.1534(7)
C6B C 0.7291(4) 0.3684(3) 0.4258(8)
H13B H 0.7718 0.3926 0.4260
C7B C 0.6942(4) 0.3972(3) 0.4256(7)
C8B C 0.7211(6) 0.4620(4) 0.4299(7)
H14B H 0.6954 0.4787 0.4233
C9B C 0.7990(4) 0.5617(3) 0.4464(8)
H15B H 0.7638 0.5685 0.4432
C10B C 0.8346(5) 0.5901(3) 0.5594(8)
H16B H 0.8691 0.5822 0.5612
C11B C 0.8609(6) 0.6580(4) 0.5602(9)
H17B H 0.8849 0.6750 0.6339
H18B H 0.8276 0.6671 0.5610
C12B C 0.9006(7) 0.6876(4) 0.4518(9)
H19B H 0.9152 0.7314 0.4530
H20B H 0.9361 0.6820 0.4550
C13B C 0.8658(6) 0.6603(4) 0.3370(8)
H21B H 0.8931 0.6782 0.2675
H22B H 0.8329 0.6697 0.3295
C14B C 0.8393(6) 0.5916(4) 0.3371(9)
H23B H 0.8725 0.5825 0.3368
H24B H 0.8153 0.5744 0.2633
C15B C 0.8208(6) 0.5472(4) 0.7448(9)
H25B H 0.8585 0.5501 0.7284
C16B C 0.7922(4) 0.5227(3) 0.8653(8)
C17B C 0.7375(5) 0.5192(3) 0.8949(8)
H26B H 0.7161 0.5283 0.8371
C18B C 0.7153(4) 0.5023(3) 1.0090(8)
C19B C 0.7445(4) 0.4852(3) 1.0911(8)
H27B H 0.7278 0.4720 1.1685
C20B C 0.7976(4) 0.4871(3) 1.0610(8)
C21B C 0.8212(4) 0.5059(3) 0.9467(8)
H28B H 0.8575 0.5070 0.9248
C22B C 0.8288(5) 0.4694(3) 1.1500(7)
H29B H 0.8083 0.4507 1.2219
C23B C 0.9045(4) 0.4582(3) 1.2287(8)
H30B H 0.8760 0.4441 1.2979
C24B C 0.9135(5) 0.4064(3) 1.1838(8)
H31B H 0.9396 0.4198 1.1110
C25B C 0.9419(6) 0.3873(4) 1.2772(8)
H32B H 0.9468 0.3540 1.2452
H33B H 0.9146 0.3716 1.3469
C26B C 1.0031(6) 0.4380(5) 1.3188(9)
H34B H 1.0324 0.4511 1.2521
H35B H 1.0184 0.4237 1.3850
C27B C 0.9955(6) 0.4905(4) 1.3611(9)
H36B H 0.9700 0.4779 1.4339
H37B H 1.0355 0.5245 1.3833
C28B C 0.9674(6) 0.5120(4) 1.2692(9)
H38B H 0.9944 0.5285 1.1991
H39B H 0.9619 0.5445 1.3037
C29B C 0.8452(4) 0.3403(3) 1.0445(8)
H40B H 0.8744 0.3637 0.9857
C30? C 0.666(3) 0.3180(18) 0.9525(10)
Cl3? Cl 0.6667 0.3333 1.1051(9)
Cl4? Cl 0.6608(13) 0.3712(7) 0.8643(10)
H41? H 0.7029 0.3173 0.9317
H42? H 0.6310 0.2777 0.9353
loop_
_geom_bond_atom_site_label_1
_geom_bond_atom_site_label_2
_geom_bond_site_symmetry_1
_geom_bond_site_symmetry_2
Cl1 C1 1_555 1_555
C1 H1 1_555 1_555
H2 C1 1_555 1_555
Cl2 C1A 1_555 1_555
O1 C3 1_555 1_555
C2 H3 1_555 1_555
H4 C2 1_555 1_555
H5 C2 1_555 1_555
C3 C2 1_555 1_555
H6 C3 1_555 1_555
H7 C3 1_555 1_555
C4 O1 1_555 1_555
H8 C4 1_555 1_555
H9 C4 1_555 1_555
C5 C4 1_555 1_555
H10 C5 1_555 1_555
H11 C5 1_555 1_555
H12 C5 1_555 1_555
N1 C8 1_555 1_555
N2 C10 1_555 1_555
N3 C22 1_555 1_555
N4 C24 1_555 1_555
C6 H13 1_555 1_555
C7 C6 1_555 1_555
C8 C7 1_555 1_555
H14 C8 1_555 1_555
C9 N1 1_555 1_555
H15 C9 1_555 1_555
C10 C9 1_555 1_555
H16 C10 1_555 1_555
C11 C10 1_555 1_555
H17 C11 1_555 1_555
H18 C11 1_555 1_555
C12 C11 1_555 1_555
H19 C12 1_555 1_555
H20 C12 1_555 1_555
C13 C12 1_555 1_555
H21 C13 1_555 1_555
H22 C13 1_555 1_555
C14 C9 1_555 1_555
H23 C14 1_555 1_555
H24 C14 1_555 1_555
C15 N2 1_555 1_555
H25 C15 1_555 1_555
C16 C15 1_555 1_555
C17 C16 1_555 1_555
H26 C17 1_555 1_555
C18 C17 1_555 1_555
C19 C18 1_555 1_555
H27 C19 1_555 1_555
C20 C19 1_555 1_555
C21 C16 1_555 1_555
H28 C21 1_555 1_555
C22 C20 1_555 1_555
H29 C22 1_555 1_555
C23 N3 1_555 1_555
H30 C23 1_555 1_555
C24 C23 1_555 1_555
H31 C24 1_555 1_555
C25 C24 1_555 1_555
H32 C25 1_555 1_555
H33 C25 1_555 1_555
C26 C25 1_555 1_555
H34 C26 1_555 1_555
H35 C26 1_555 1_555
C27 C26 1_555 1_555
H36 C27 1_555 1_555
H37 C27 1_555 1_555
C28 C23 1_555 1_555
H38 C28 1_555 1_555
H39 C28 1_555 1_555
C29 N4 1_555 1_555
H40 C29 1_555 1_555
Cl2B C1 1_555 1_555
Cl1A C1A 1_555 1_555
C1A H1A 1_555 1_555
H2A C1A 1_555 1_555
Cl2A C1B 1_555 1_555
Cl1B C1B 1_555 1_555
C1B H1B 1_555 1_555
H2B C1B 1_555 1_555
N1A C8A 1_555 1_555
N2A C10A 1_555 1_555
N3A C22A 1_555 1_555
N4A C24A 1_555 1_555
C6A C7 1_555 1_555
H13A C6A 1_555 1_555
C7A C6A 1_555 1_555
C8A C7A 1_555 1_555
H14A C8A 1_555 1_555
C9A N1A 1_555 1_555
H15A C9A 1_555 1_555
C10A C9A 1_555 1_555
H16A C10A 1_555 1_555
C11A C10A 1_555 1_555
H17A C11A 1_555 1_555
H18A C11A 1_555 1_555
C12A C11A 1_555 1_555
H19A C12A 1_555 1_555
H20A C12A 1_555 1_555
C13A C12A 1_555 1_555
H21A C13A 1_555 1_555
H22A C13A 1_555 1_555
C14A C9A 1_555 1_555
H23A C14A 1_555 1_555
H24A C14A 1_555 1_555
C15A N2A 1_555 1_555
H25A C15A 1_555 1_555
C16A C15A 1_555 1_555
C17A C16A 1_555 1_555
H26A C17A 1_555 1_555
C18A C17A 1_555 1_555
C19A C18A 1_555 1_555
H27A C19A 1_555 1_555
C20A C19A 1_555 1_555
C21A C16A 1_555 1_555
H28A C21A 1_555 1_555
C22A C20A 1_555 1_555
H29A C22A 1_555 1_555
C23A N3A 1_555 1_555
H30A C23A 1_555 1_555
C24A C23A 1_555 1_555
H31A C24A 1_555 1_555
C25A C24A 1_555 1_555
H32A C25A 1_555 1_555
H33A C25A 1_555 1_555
C26A C25A 1_555 1_555
H34A C26A 1_555 1_555
H35A C26A 1_555 1_555
C27A C26A 1_555 1_555
H36A C27A 1_555 1_555
H37A C27A 1_555 1_555
C28A C23A 1_555 1_555
H38A C28A 1_555 1_555
H39A C28A 1_555 1_555
C29A C18 1_555 1_555
H40A C29A 1_555 1_555
N1B C8B 1_555 1_555
N2B C10B 1_555 1_555
N3B C22B 1_555 1_555
N4B C24B 1_555 1_555
C6B C7A 1_555 1_555
H13B C6B 1_555 1_555
C7B C6 1_555 1_555
C8B C7B 1_555 1_555
H14B C8B 1_555 1_555
C9B N1B 1_555 1_555
H15B C9B 1_555 1_555
C10B C9B 1_555 1_555
H16B C10B 1_555 1_555
C11B C10B 1_555 1_555
H17B C11B 1_555 1_555
H18B C11B 1_555 1_555
C12B C11B 1_555 1_555
H19B C12B 1_555 1_555
H20B C12B 1_555 1_555
C13B C12B 1_555 1_555
H21B C13B 1_555 1_555
H22B C13B 1_555 1_555
C14B C9B 1_555 1_555
H23B C14B 1_555 1_555
H24B C14B 1_555 1_555
C15B N2B 1_555 1_555
H25B C15B 1_555 1_555
C16B C15B 1_555 1_555
C17B C16B 1_555 1_555
H26B C17B 1_555 1_555
C18B C29 1_555 1_555
C19B C18B 1_555 1_555
H27B C19B 1_555 1_555
C20B C19B 1_555 1_555
C21B C16B 1_555 1_555
H28B C21B 1_555 1_555
C22B C20B 1_555 1_555
H29B C22B 1_555 1_555
C23B N3B 1_555 1_555
H30B C23B 1_555 1_555
C24B C23B 1_555 1_555
H31B C24B 1_555 1_555
C25B C24B 1_555 1_555
H32B C25B 1_555 1_555
H33B C25B 1_555 1_555
C26B C25B 1_555 1_555
H34B C26B 1_555 1_555
H35B C26B 1_555 1_555
C27B C26B 1_555 1_555
H36B C27B 1_555 1_555
H37B C27B 1_555 1_555
C28B C23B 1_555 1_555
H38B C28B 1_555 1_555
H39B C28B 1_555 1_555
C29B C18A 1_555 1_555
H40B C29B 1_555 1_555
C13 C14 1_555 1_555
C20 C21 1_555 1_555
C27 C28 1_555 1_555
N4A C29A 1_555 1_555
C13A C14A 1_555 1_555
C20A C21A 1_555 1_555
C27A C28A 1_555 1_555
N4B C29B 1_555 1_555
C6B C7B 1_555 1_555
C13B C14B 1_555 1_555
C17B C18B 1_555 1_555
C20B C21B 1_555 1_555
C27B C28B 1_555 1_555

#END
