
#######################################################################
#
#                 Cambridge Crystallographic Data Centre
#                                CCDC 
#
#######################################################################
#
# If this CIF has been generated from an entry in the Cambridge 
# Structural Database, then it will include bibliographic, chemical, 
# crystal, experimental, refinement or atomic coordinate data resulting 
# from the CCDC's data processing and validation procedures.
#
#######################################################################

data_NODYEL
_chemical_formula_moiety         'C23 H21 N1 O3 S1'
_chemical_name_systematic        
4-Methyl-N-(5,6,6a,11a-tetrahydrobenzo[b]naphtho[2,1-d]furan-8-yl)benzenesulfonamide
_symmetry_cell_setting           triclinic
_symmetry_space_group_name_H-M   'P -1'
_symmetry_Int_Tables_number      2
_space_group_name_Hall           '-P 1'
loop_
_symmetry_equiv_pos_site_id
_symmetry_equiv_pos_as_xyz
1 x,y,z
2 -x,-y,-z
_cell_length_a                   9.083(5)
_cell_length_b                   10.532(6)
_cell_length_c                   11.017(6)
_cell_angle_alpha                82.656(6)
_cell_angle_beta                 71.114(7)
_cell_angle_gamma                80.381(6)
_cell_volume                     980.076
_exptl_crystal_description       prism
_cell_formula_units_Z            2
_exptl_crystal_recrystallization_method 'hexane/ethyl acetate'
loop_
_atom_site_label
_atom_site_type_symbol
_atom_site_fract_x
_atom_site_fract_y
_atom_site_fract_z
S1 S 1.04648(6) 0.57643(5) 0.79008(5)
O1 O 1.12870(19) 0.47451(17) 0.85237(16)
O2 O 1.13165(19) 0.64812(17) 0.67903(15)
O3 O 0.52091(17) 1.06954(13) 0.79040(14)
N1 N 0.9542(2) 0.6766(2) 0.9011(2)
H1 H 0.926(3) 0.632(2) 0.971(2)
C1 C 0.9014(2) 0.51423(19) 0.75022(19)
C2 C 0.8637(3) 0.5648(2) 0.6408(2)
H2 H 0.9190 0.6275 0.5860
C3 C 0.7444(3) 0.5224(2) 0.6128(2)
H3 H 0.7211 0.5561 0.5379
C4 C 0.6579(3) 0.4313(2) 0.6927(2)
C5 C 0.6980(3) 0.3821(2) 0.8025(2)
H4 H 0.6423 0.3198 0.8576
C6 C 0.8177(3) 0.4226(2) 0.8323(2)
H5 H 0.8419 0.3887 0.9068
C7 C 0.5261(4) 0.3871(3) 0.6611(3)
H6 H 0.5402 0.4050 0.5707
H7 H 0.4277 0.4324 0.7091
H8 H 0.5265 0.2960 0.6833
C8 C 0.8425(2) 0.7803(2) 0.87283(19)
C9 C 0.6860(2) 0.7636(2) 0.90245(19)
H9 H 0.6521 0.6854 0.9413
C10 C 0.5818(2) 0.86418(19) 0.87359(17)
C11 C 0.4093(2) 0.87270(19) 0.88682(19)
H10 H 0.3491 0.8570 0.9776
C12 C 0.3783(3) 0.7768(2) 0.8070(2)
H11 H 0.4385 0.6934 0.8179
H12 H 0.2679 0.7661 0.8379
C13 C 0.4230(3) 0.8234(2) 0.6654(2)
H13 H 0.5330 0.8352 0.6341
H14 H 0.4071 0.7594 0.6164
C14 C 0.3234(2) 0.9487(2) 0.64794(19)
C15 C 0.2546(3) 0.9762(2) 0.5506(2)
H15 H 0.2743 0.9164 0.4900
C16 C 0.1573(3) 1.0902(3) 0.5414(2)
H16 H 0.1130 1.1069 0.4749
C17 C 0.1261(3) 1.1791(2) 0.6304(2)
H17 H 0.0603 1.2559 0.6247
C18 C 0.1932(3) 1.1536(2) 0.7285(2)
H18 H 0.1713 1.2132 0.7895
C19 C 0.2927(2) 1.0402(2) 0.73715(19)
C20 C 0.3699(2) 1.0158(2) 0.84099(19)
H19 H 0.3027 1.0620 0.9154
C21 C 0.6341(2) 0.97954(19) 0.81620(18)
C22 C 0.7890(3) 0.9984(2) 0.7862(2)
H20 H 0.8227 1.0766 0.7473
C23 C 0.8924(2) 0.8966(2) 0.8162(2)
H21 H 0.9973 0.9068 0.7979
loop_
_geom_bond_atom_site_label_1
_geom_bond_atom_site_label_2
_geom_bond_site_symmetry_1
_geom_bond_site_symmetry_2
S1 O1 1_555 1_555
O2 S1 1_555 1_555
O3 C20 1_555 1_555
N1 S1 1_555 1_555
H1 N1 1_555 1_555
C1 S1 1_555 1_555
C2 C1 1_555 1_555
H2 C2 1_555 1_555
C3 C2 1_555 1_555
H3 C3 1_555 1_555
C4 C3 1_555 1_555
C5 C4 1_555 1_555
H4 C5 1_555 1_555
C6 C1 1_555 1_555
H5 C6 1_555 1_555
C7 C4 1_555 1_555
H6 C7 1_555 1_555
H7 C7 1_555 1_555
H8 C7 1_555 1_555
C8 N1 1_555 1_555
C9 C8 1_555 1_555
H9 C9 1_555 1_555
C10 C9 1_555 1_555
C11 C10 1_555 1_555
H10 C11 1_555 1_555
C12 C11 1_555 1_555
H11 C12 1_555 1_555
H12 C12 1_555 1_555
C13 C12 1_555 1_555
H13 C13 1_555 1_555
H14 C13 1_555 1_555
C14 C13 1_555 1_555
C15 C14 1_555 1_555
H15 C15 1_555 1_555
C16 C15 1_555 1_555
H16 C16 1_555 1_555
C17 C16 1_555 1_555
H17 C17 1_555 1_555
C18 C17 1_555 1_555
H18 C18 1_555 1_555
C19 C14 1_555 1_555
C20 C11 1_555 1_555
H19 C20 1_555 1_555
C21 O3 1_555 1_555
C22 C21 1_555 1_555
H20 C22 1_555 1_555
C23 C8 1_555 1_555
H21 C23 1_555 1_555
C5 C6 1_555 1_555
C10 C21 1_555 1_555
C18 C19 1_555 1_555
C19 C20 1_555 1_555
C22 C23 1_555 1_555

#END
