
#######################################################################
#
#                 Cambridge Crystallographic Data Centre
#                                CCDC 
#
#######################################################################
#
# If this CIF has been generated from an entry in the Cambridge 
# Structural Database, then it will include bibliographic, chemical, 
# crystal, experimental, refinement or atomic coordinate data resulting 
# from the CCDC's data processing and validation procedures.
#
#######################################################################

data_NOFCER
_chemical_formula_moiety         'C23 H20 Br1 N1'
_chemical_name_systematic        
1-(4-Bromophenyl)-3-methylene-2,5-diphenylpyrrolidine
_symmetry_cell_setting           orthorhombic
_symmetry_space_group_name_H-M   'P b c a'
_symmetry_Int_Tables_number      61
_space_group_name_Hall           '-P 2ac 2ab'
loop_
_symmetry_equiv_pos_site_id
_symmetry_equiv_pos_as_xyz
1 x,y,z
2 1/2+x,1/2-y,-z
3 -x,1/2+y,1/2-z
4 1/2-x,-y,1/2+z
5 -x,-y,-z
6 1/2-x,1/2+y,z
7 x,1/2-y,1/2+z
8 1/2+x,y,1/2-z
_cell_length_a                   8.2414(4)
_cell_length_b                   18.2298(8)
_cell_length_c                   25.0459(13)
_cell_angle_alpha                90
_cell_angle_beta                 90
_cell_angle_gamma                90
_cell_volume                     3762.87
_exptl_crystal_colour            colorless
_exptl_crystal_description       prism
_chemical_melting_point          166.5-168.0deg.C
_cell_formula_units_Z            8
loop_
_atom_site_label
_atom_site_type_symbol
_atom_site_fract_x
_atom_site_fract_y
_atom_site_fract_z
Br1 Br 0.68086(5) 0.12632(2) -0.01154(2)
N1 N 0.0913(3) 0.11449(16) 0.13377(14)
C1 C 0.1176(5) 0.2438(2) 0.20262(17)
C2 C 0.1474(7) 0.3089(3) 0.2291(2)
C3 C 0.0782(9) 0.3724(3) 0.2122(2)
C4 C -0.0195(7) 0.3721(2) 0.1693(2)
C5 C -0.0524(5) 0.3077(2) 0.14295(18)
C6 C 0.0157(4) 0.2429(2) 0.15956(15)
C7 C -0.0340(4) 0.1712(2) 0.13290(17)
C8 C -0.1666(5) 0.1301(3) 0.1643(2)
C9 C -0.3160(9) 0.1468(3) 0.1623(2)
C10 C -0.1044(6) 0.0726(2) 0.2001(2)
C11 C 0.0439(5) 0.0484(2) 0.16247(16)
C12 C 0.0003(4) -0.01619(19) 0.12757(15)
C13 C -0.0774(4) -0.00796(19) 0.07898(15)
C14 C -0.1199(4) -0.0678(2) 0.04842(16)
C15 C -0.0826(4) -0.1368(2) 0.06608(19)
C16 C -0.0040(5) -0.1460(2) 0.1136(2)
C17 C 0.0375(4) -0.0862(2) 0.14441(16)
C18 C 0.2250(4) 0.11730(18) 0.10060(17)
C19 C 0.3330(4) 0.05837(18) 0.09687(16)
C20 C 0.4667(4) 0.06124(18) 0.06369(15)
C21 C 0.4957(4) 0.12233(18) 0.03362(15)
C22 C 0.3930(4) 0.18140(18) 0.03633(15)
C23 C 0.2592(4) 0.17926(19) 0.06968(15)
H1 H 0.1687 0.1988 0.2146
H2 H 0.2185 0.3093 0.2599
H3 H 0.0992 0.4178 0.2311
H4 H -0.0670 0.4177 0.1568
H5 H -0.1245 0.3081 0.1123
H6 H -0.0697 0.1802 0.0966
H7 H -0.3945 0.1191 0.1829
H8 H -0.3517 0.1873 0.1401
H9 H -0.0688 0.0917 0.2343
H10 H -0.1820 0.0334 0.2058
H11 H 0.1336 0.0340 0.1852
H12 H -0.1024 0.0410 0.0661
H13 H -0.1758 -0.0611 0.0147
H14 H -0.1120 -0.1793 0.0448
H15 H 0.0230 -0.1950 0.1258
H16 H 0.0931 -0.0935 0.1781
H17 H 0.3136 0.0146 0.1180
H18 H 0.5402 0.0198 0.0618
H19 H 0.4141 0.2247 0.0149
H20 H 0.1879 0.2215 0.0716
loop_
_geom_bond_atom_site_label_1
_geom_bond_atom_site_label_2
_geom_bond_site_symmetry_1
_geom_bond_site_symmetry_2
Br1 C21 1_555 1_555
N1 C7 1_555 1_555
C1 C2 1_555 1_555
C2 C3 1_555 1_555
C3 C4 1_555 1_555
C4 C5 1_555 1_555
C5 C6 1_555 1_555
C6 C1 1_555 1_555
C7 C6 1_555 1_555
C8 C7 1_555 1_555
C9 C8 1_555 1_555
C10 C8 1_555 1_555
C11 N1 1_555 1_555
C12 C11 1_555 1_555
C13 C12 1_555 1_555
C14 C13 1_555 1_555
C15 C14 1_555 1_555
C16 C15 1_555 1_555
C17 C12 1_555 1_555
C18 N1 1_555 1_555
C19 C18 1_555 1_555
C20 C19 1_555 1_555
C21 C20 1_555 1_555
C22 C21 1_555 1_555
C23 C18 1_555 1_555
H1 C1 1_555 1_555
H2 C2 1_555 1_555
H3 C3 1_555 1_555
H4 C4 1_555 1_555
H5 C5 1_555 1_555
H6 C7 1_555 1_555
H7 C9 1_555 1_555
H8 C9 1_555 1_555
H9 C10 1_555 1_555
H10 C10 1_555 1_555
H11 C11 1_555 1_555
H12 C13 1_555 1_555
H13 C14 1_555 1_555
H14 C15 1_555 1_555
H15 C16 1_555 1_555
H16 C17 1_555 1_555
H17 C19 1_555 1_555
H18 C20 1_555 1_555
H19 C22 1_555 1_555
H20 C23 1_555 1_555
C10 C11 1_555 1_555
C16 C17 1_555 1_555
C22 C23 1_555 1_555

#END
