
#######################################################################
#
#                 Cambridge Crystallographic Data Centre
#                                CCDC 
#
#######################################################################
#
# If this CIF has been generated from an entry in the Cambridge 
# Structural Database, then it will include bibliographic, chemical, 
# crystal, experimental, refinement or atomic coordinate data resulting 
# from the CCDC's data processing and validation procedures.
#
#######################################################################

data_NOFVUZ
_chemical_formula_moiety         'C14 H13 N1 O4 S1'
_chemical_name_systematic        (2,6-Dimethylphenyl)-(4-nitrophenyl)sulfone
_symmetry_cell_setting           monoclinic
_symmetry_space_group_name_H-M   'P 21/n'
_symmetry_Int_Tables_number      14
_space_group_name_Hall           '-P 2yn'
loop_
_symmetry_equiv_pos_site_id
_symmetry_equiv_pos_as_xyz
1 x,y,z
2 1/2-x,1/2+y,1/2-z
3 -x,-y,-z
4 1/2+x,1/2-y,1/2+z
_cell_length_a                   11.598(1)
_cell_length_b                   10.959(1)
_cell_length_c                   12.148(1)
_cell_angle_alpha                90
_cell_angle_beta                 117.41(1)
_cell_angle_gamma                90
_cell_volume                     1370.7
_exptl_crystal_colour            white
_exptl_crystal_description       tabular
_cell_formula_units_Z            4
loop_
_atom_site_label
_atom_site_type_symbol
_atom_site_fract_x
_atom_site_fract_y
_atom_site_fract_z
H1 H 0.0812(28) 0.2257(27) -0.5757(27)
H2 H 0.3154(29) 0.1835(26) -0.4782(27)
H3 H 0.4168(30) 0.0744(28) -0.2885(28)
H4 H -0.1160(28) 0.2426(27) -0.4508(27)
H5 H -0.1596(29) 0.1098(27) -0.5174(28)
H6 H -0.1092(29) 0.2276(27) -0.5766(28)
H7 H 0.3107(30) 0.0200(26) -0.0799(30)
H8 H 0.3011(30) -0.0933(27) -0.1596(29)
H9 H 0.4204(30) -0.0148(27) -0.1250(29)
H10 H 0.0020(29) 0.2859(27) -0.2069(28)
H11 H 0.0597(29) 0.4202(27) -0.0308(28)
H12 H 0.2174(29) 0.1127(28) 0.2014(27)
H13 H 0.1595(31) -0.0173(27) 0.0218(29)
S1 S 0.02620(5) 0.03255(5) -0.24034(5)
N1 N 0.1645(2) 0.3465(2) 0.2057(2)
O1 O -0.10992(14) 0.0590(2) -0.3137(2)
O2 O 0.0625(2) -0.09121(14) -0.2005(2)
O3 O 0.1170(2) 0.4493(2) 0.1877(2)
O4 O 0.2333(2) 0.3031(2) 0.3090(2)
C1 C 0.1153(2) 0.0851(2) -0.3186(2)
C2 C 0.0530(2) 0.1492(2) -0.4316(2)
C3 C 0.1288(3) 0.1830(2) -0.4885(2)
C4 C 0.2592(3) 0.1576(3) -0.4361(3)
C5 C 0.3192(2) 0.0968(3) -0.3251(3)
C6 C 0.2501(2) 0.0575(2) -0.2631(2)
C7 C -0.0895(3) 0.1839(2) -0.4986(2)
C8 C 0.3242(3) -0.0124(3) -0.1449(3)
C9 C 0.0795(2) 0.1271(2) -0.1058(2)
C10 C 0.0504(2) 0.2512(2) -0.1216(2)
C11 C 0.0800(2) 0.3237(2) -0.0190(2)
C12 C 0.1375(2) 0.2694(2) 0.0965(2)
C13 C 0.1691(2) 0.1476(2) 0.1145(2)
C14 C 0.1389(2) 0.0746(2) 0.0111(2)
loop_
_geom_bond_atom_site_label_1
_geom_bond_atom_site_label_2
_geom_bond_site_symmetry_1
_geom_bond_site_symmetry_2
H1 C3 1_555 1_555
H2 C4 1_555 1_555
H3 C5 1_555 1_555
H4 C7 1_555 1_555
H5 C7 1_555 1_555
H6 C7 1_555 1_555
H7 C8 1_555 1_555
H8 C8 1_555 1_555
H9 C8 1_555 1_555
H10 C10 1_555 1_555
H11 C11 1_555 1_555
H12 C13 1_555 1_555
H13 C14 1_555 1_555
S1 O1 1_555 1_555
N1 O3 1_555 1_555
O2 S1 1_555 1_555
O4 N1 1_555 1_555
C1 S1 1_555 1_555
C2 C1 1_555 1_555
C3 C2 1_555 1_555
C4 C3 1_555 1_555
C5 C4 1_555 1_555
C6 C1 1_555 1_555
C7 C2 1_555 1_555
C8 C6 1_555 1_555
C9 S1 1_555 1_555
C10 C9 1_555 1_555
C11 C10 1_555 1_555
C12 N1 1_555 1_555
C13 C12 1_555 1_555
C14 C9 1_555 1_555
C5 C6 1_555 1_555
C11 C12 1_555 1_555
C13 C14 1_555 1_555

#END
