
#######################################################################
#
#                 Cambridge Crystallographic Data Centre
#                                CCDC 
#
#######################################################################
#
# If this CIF has been generated from an entry in the Cambridge 
# Structural Database, then it will include bibliographic, chemical, 
# crystal, experimental, refinement or atomic coordinate data resulting 
# from the CCDC's data processing and validation procedures.
#
#######################################################################

data_NOFWAG
_chemical_formula_moiety         'C15 H16 O2 S1'
_chemical_name_systematic        (2,6-Dimethylphenyl)-(4-methylphenyl)sulfone
_symmetry_cell_setting           monoclinic
_symmetry_space_group_name_H-M   'C 2/c'
_symmetry_Int_Tables_number      15
_space_group_name_Hall           '-C 2yn'
loop_
_symmetry_equiv_pos_site_id
_symmetry_equiv_pos_as_xyz
1 x,y,z
2 1/2+x,1/2+y,z
3 -x,y,1/2-z
4 1/2-x,1/2+y,1/2-z
5 -x,-y,-z
6 1/2-x,1/2-y,-z
7 x,-y,1/2+z
8 1/2+x,1/2-y,1/2+z
_cell_length_a                   20.339(7)
_cell_length_b                   11.024(4)
_cell_length_c                   15.220(7)
_cell_angle_alpha                90
_cell_angle_beta                 126.80(2)
_cell_angle_gamma                90
_cell_volume                     2732.56
_exptl_crystal_colour            colorless
_exptl_crystal_description       tabular
_cell_formula_units_Z            8
loop_
_atom_site_label
_atom_site_type_symbol
_atom_site_fract_x
_atom_site_fract_y
_atom_site_fract_z
H1 H 0.3297(21) 0.0912(31) 0.4313(27)
H2 H 0.3986(24) 0.2849(35) 0.4951(31)
H3 H 0.4191(20) 0.3682(32) 0.6534(28)
H4 H 0.4147(23) 0.3724(33) 0.7887(30)
H5 H 0.3308(24) 0.3224(35) 0.7659(30)
H6 H 0.4136(21) 0.2523(32) 0.8417(28)
H7 H 0.2879(20) -0.2128(31) 0.7082(25)
H8 H 0.3777(17) -0.3763(25) 0.7837(22)
H9 H 0.5635(20) -0.1381(30) 0.9404(26)
H10 H 0.4741(20) 0.0238(29) 0.8655(26)
H11 H 0.2671(15) -0.0771(23) 0.4422(20)
H12 H 0.2200(16) -0.0438(22) 0.4826(20)
H13 H 0.2971(16) -0.1182(23) 0.5521(20)
S1 S 0.30030(4) 0.04141(6) 0.71623(5)
O1 O 0.21858(11) -0.0059(2) 0.6400(2)
O2 O 0.31565(13) 0.1129(2) 0.8055(2)
C1 C 0.32964(14) 0.1236(2) 0.6440(2)
C2 C 0.3139(2) 0.0682(3) 0.5494(2)
C3 C 0.3403(2) 0.1294(4) 0.4954(3)
C4 C 0.3770(2) 0.2400(5) 0.5295(3)
C5 C 0.3905(2) 0.2934(3) 0.6203(4)
C6 C 0.3678(2) 0.2376(3) 0.6809(2)
C7 C 0.2723(2) -0.0512(4) 0.5027(3)
C8 C 0.3860(3) 0.3058(3) 0.7794(4)
C9 C 0.36975(15) -0.0822(2) 0.7740(2)
C10 C 0.3417(2) -0.1994(2) 0.7515(2)
C11 C 0.3968(2) -0.2944(2) 0.7993(3)
C12 C 0.4807(2) -0.2735(3) 0.8704(2)
C13 C 0.5077(2) -0.1546(3) 0.8939(3)
C14 C 0.4530(2) -0.0580(3) 0.8470(3)
C15 C 0.5411(2) -0.3774(3) 0.9209(3)
H14 H 0.5118(2) -0.4530(3) 0.8958(3)
H15 H 0.5730(2) -0.3732(3) 0.9994(3)
H16 H 0.5770(2) -0.3722(3) 0.8997(3)
loop_
_geom_bond_atom_site_label_1
_geom_bond_atom_site_label_2
_geom_bond_site_symmetry_1
_geom_bond_site_symmetry_2
H1 C3 1_555 1_555
H2 C4 1_555 1_555
H3 C5 1_555 1_555
H4 C8 1_555 1_555
H5 C8 1_555 1_555
H6 C8 1_555 1_555
H7 C10 1_555 1_555
H8 C11 1_555 1_555
H9 C13 1_555 1_555
H10 C14 1_555 1_555
H11 C7 1_555 1_555
H12 C7 1_555 1_555
H13 C7 1_555 1_555
S1 O1 1_555 1_555
O2 S1 1_555 1_555
C1 S1 1_555 1_555
C2 C1 1_555 1_555
C3 C2 1_555 1_555
C4 C3 1_555 1_555
C5 C4 1_555 1_555
C6 C1 1_555 1_555
C7 C2 1_555 1_555
C8 C6 1_555 1_555
C9 S1 1_555 1_555
C10 C9 1_555 1_555
C11 C10 1_555 1_555
C12 C11 1_555 1_555
C13 C12 1_555 1_555
C14 C9 1_555 1_555
C15 C12 1_555 1_555
H14 C15 1_555 1_555
H15 C15 1_555 1_555
H16 C15 1_555 1_555
C5 C6 1_555 1_555
C13 C14 1_555 1_555

#END
