
#######################################################################
#
#                 Cambridge Crystallographic Data Centre
#                                CCDC 
#
#######################################################################
#
# If this CIF has been generated from an entry in the Cambridge 
# Structural Database, then it will include bibliographic, chemical, 
# crystal, experimental, refinement or atomic coordinate data resulting 
# from the CCDC's data processing and validation procedures.
#
#######################################################################

data_NOGBIU
_chemical_formula_moiety         'C43 H32 N2 O3'
_chemical_name_systematic        
'7-Benzoyl-2,3,4a,6-tetraphenyl-4a,5,6,7-tetrahydro-1H-(1,3)oxazino(3,2-a) (1,5)benzodiazepin-1-one'
_symmetry_cell_setting           triclinic
_symmetry_space_group_name_H-M   'P -1'
_symmetry_Int_Tables_number      2
_space_group_name_Hall           '-P 1'
loop_
_symmetry_equiv_pos_site_id
_symmetry_equiv_pos_as_xyz
1 x,y,z
2 -x,-y,-z
_cell_length_a                   9.346(1)
_cell_length_b                   14.441(1)
_cell_length_c                   24.524(2)
_cell_angle_alpha                90.00(1)
_cell_angle_beta                 97.13(1)
_cell_angle_gamma                94.55(1)
_cell_volume                     3273.79
_exptl_crystal_colour            colorless
_exptl_crystal_description       plate
_chemical_melting_point          201-202deg.C
_cell_formula_units_Z            4
loop_
_atom_site_label
_atom_site_type_symbol
_atom_site_fract_x
_atom_site_fract_y
_atom_site_fract_z
O1 O 0.3123(3) 0.6226(2) 0.13362(11)
O2 O -0.0637(3) 0.5741(2) 0.32048(10)
O3 O 0.0249(3) 0.8427(2) 0.28696(10)
N1 N 0.0968(3) 0.6560(2) 0.15793(11)
N2 N -0.0056(3) 0.6863(2) 0.25907(11)
C1 C -0.0509(4) 0.6288(2) 0.16362(15)
C2 C -0.1451(4) 0.5885(3) 0.1202(2)
H1 H -0.1110 0.5793 0.0854
C3 C -0.2861(4) 0.5618(3) 0.1269(2)
H2 H -0.3495 0.5313 0.0974
C4 C -0.3368(4) 0.5783(3) 0.1764(2)
H3 H -0.4361 0.5611 0.1806
C5 C -0.2455(4) 0.6200(3) 0.2191(2)
H4 H -0.2818 0.6325 0.2531
C6 C -0.1013(4) 0.6445(2) 0.2136(2)
C7 C 0.1414(4) 0.7573(2) 0.15623(14)
H5 H 0.2435 0.7650 0.16818
C8 C 0.0667(4) 0.8108(2) 0.19708(14)
H6 H -0.0343 0.8085 0.18337
H7 H 0.1043 0.8747 0.19834
C9 C 0.0817(4) 0.7722(2) 0.25500(14)
C10 C -0.0235(4) 0.6547(3) 0.3120(2)
C11 C 0.0038(4) 0.7270(3) 0.35533(14)
C12 C 0.0083(4) 0.8167(3) 0.33960(15)
C13 C 0.0098(4) 0.6990(3) 0.41360(15)
C14 C 0.1242(5) 0.7341(3) 0.4511(2)
H8 H 0.1974 0.7766 0.4387
C15 C 0.1342(6) 0.7076(3) 0.5061(2)
H9 H 0.2120 0.7341 0.5320
C16 C 0.0329(6) 0.6457(3) 0.5234(2)
H10 H 0.0415 0.6265 0.5610
C17 C -0.0806(5) 0.6089(3) 0.4868(2)
H11 H -0.1526 0.5654 0.4992
C18 C -0.0929(4) 0.6350(3) 0.4318(2)
H12 H -0.1709 0.6092 0.4057
C19 C -0.0073(4) 0.8990(3) 0.37405(14)
C20 C -0.1221(4) 0.8995(3) 0.4043(2)
H13 H -0.1882 0.8451 0.4043
C21 C -0.1397(5) 0.9768(3) 0.4347(2)
H14 H -0.2219 0.9772 0.4546
C22 C -0.0425(6) 1.0523(3) 0.4364(2)
H15 H -0.0559 1.1052 0.4583
C23 C 0.0735(5) 1.0523(3) 0.4072(2)
H16 H 0.1426 1.1054 0.4090
C24 C 0.0893(5) 0.9760(3) 0.3752(2)
H17 H 0.1688 0.9763 0.3539
C25 C 0.2402(4) 0.7641(3) 0.27845(14)
C26 C 0.2999(4) 0.6792(3) 0.28420(15)
H18 H 0.2400 0.6235 0.27354
C27 C 0.4440(5) 0.6734(3) 0.3047(2)
H19 H 0.4851 0.6146 0.3088
C28 C 0.5278(5) 0.7547(4) 0.3205(2)
H20 H 0.6275 0.7523 0.3353
C29 C 0.4713(5) 0.8396(4) 0.3144(2)
H21 H 0.5320 0.8950 0.3250
C30 C 0.3278(5) 0.8452(3) 0.2931(2)
H22 H 0.2887 0.9045 0.2882
C31 C 0.1159(4) 0.7950(2) 0.09840(14)
C32 C -0.0179(4) 0.8136(3) 0.0737(2)
H23 H -0.1001 0.8012 0.0932
C33 C -0.0360(5) 0.8484(3) 0.0207(2)
H24 H -0.1304 0.8622 0.0041
C34 C 0.0787(5) 0.8637(3) -0.0082(2)
H25 H 0.0671 0.8886 -0.0447
C35 C 0.2114(5) 0.8440(3) 0.0160(2)
H26 H 0.2928 0.8525 -0.0043
C36 C 0.2313(4) 0.8108(3) 0.0693(2)
H27 H 0.3262 0.7986 0.0861
C37 C 0.1913(4) 0.5946(3) 0.14458(15)
C38 C 0.1450(4) 0.4941(3) 0.1434(2)
C39 C 0.1477(5) 0.4462(3) 0.0948(2)
H28 H 0.1816 0.4789 0.0643
C40 C 0.1051(5) 0.3533(4) 0.0902(2)
H29 H 0.1032 0.3220 0.0555
C41 C 0.0643(5) 0.3055(3) 0.1344(3)
H30 H 0.0356 0.2403 0.1310
C42 C 0.0626(5) 0.3518(3) 0.1837(2)
H31 H 0.0353 0.3181 0.2150
C43 C 0.1021(4) 0.4465(3) 0.1876(2)
H32 H 0.0985 0.4800 0.2212
O4 O 0.7792(3) 0.1414(2) 0.13211(12)
O5 O 0.3705(3) 0.0798(2) 0.31679(11)
O6 O 0.4468(3) 0.3464(2) 0.27903(10)
N3 N 0.5585(3) 0.1607(2) 0.15626(12)
N4 N 0.4279(3) 0.1889(2) 0.25419(12)
C44 C 0.4120(4) 0.1260(2) 0.15998(15)
C45 C 0.3297(4) 0.0804(3) 0.1150(2)
H33 H 0.3724 0.0722 0.0818
C46 C 0.1894(5) 0.0463(3) 0.1176(2)
H34 H 0.1345 0.0136 0.0869
C47 C 0.1268(4) 0.0608(3) 0.1649(2)
H35 H 0.0296 0.0359 0.1677
C48 C 0.2046(4) 0.1083(3) 0.2087(2)
H36 H 0.1593 0.1220 0.2405
C49 C 0.3483(4) 0.1398(2) 0.20714(15)
C50 C 0.5938(4) 0.2633(2) 0.15464(14)
H37 H 0.6928 0.2749 0.17046
C51 C 0.5018(4) 0.3130(2) 0.19098(14)
H38 H 0.4029 0.3057 0.17445
H39 H 0.5319 0.3781 0.19260
C52 C 0.5116(4) 0.2770(2) 0.24947(14)
C53 C 0.4115(4) 0.1600(3) 0.3069(2)
C54 C 0.4342(4) 0.2346(3) 0.34921(15)
C55 C 0.4349(4) 0.3226(3) 0.3326(2)
C56 C 0.4428(4) 0.2070(3) 0.4083(2)
C57 C 0.3599(4) 0.2454(3) 0.4447(2)
H40 H 0.2899 0.2876 0.4311
C58 C 0.3776(5) 0.2201(3) 0.4999(2)
H41 H 0.3247 0.2493 0.5254
C59 C 0.4725(5) 0.1576(3) 0.5187(2)
H42 H 0.4818 0.1398 0.5566
C60 C 0.5524(5) 0.1185(3) 0.4828(2)
H43 H 0.6192 0.0738 0.4956
C61 C 0.5362(5) 0.1429(3) 0.4279(2)
H44 H 0.5916 0.1151 0.4028
C62 C 0.4216(4) 0.4068(2) 0.36633(15)
C63 C 0.2906(4) 0.4457(3) 0.3625(2)
H45 H 0.2114 0.4195 0.3371
C64 C 0.2755(5) 0.5221(3) 0.3951(2)
H46 H 0.1841 0.5487 0.3931
C65 C 0.3900(6) 0.5594(3) 0.4301(2)
H47 H 0.3790 0.6114 0.4532
C66 C 0.5204(5) 0.5229(3) 0.4325(2)
H48 H 0.6027 0.5516 0.4555
C67 C 0.5379(4) 0.4456(3) 0.4010(2)
H49 H 0.6284 0.4177 0.4039
C68 C 0.6679(4) 0.2720(3) 0.27563(14)
C69 C 0.7535(4) 0.3530(3) 0.2915(2)
H50 H 0.7138 0.4120 0.2856
C70 C 0.8950(5) 0.3494(3) 0.3150(2)
H51 H 0.9519 0.4059 0.3265
C71 C 0.9530(5) 0.2658(4) 0.3224(2)
H52 H 1.0511 0.2645 0.3393
C72 C 0.8728(5) 0.1845(3) 0.3059(2)
H53 H 0.9157 0.1264 0.3108
C73 C 0.7302(5) 0.1878(3) 0.2827(2)
H54 H 0.6734 0.1313 0.2711
C74 C 0.5804(4) 0.3003(3) 0.09654(15)
C75 C 0.4477(5) 0.3013(3) 0.0642(2)
H55 H 0.3626 0.2754 0.0787
C76 C 0.4401(5) 0.3378(3) 0.0115(2)
H56 H 0.3481 0.3385 -0.0107
C77 C 0.5622(5) 0.3723(3) -0.0091(2)
H57 H 0.5573 0.3984 -0.0452
C78 C 0.6915(5) 0.3708(3) 0.0225(2)
H58 H 0.7783 0.3942 0.0082
C79 C 0.7001(5) 0.3361(3) 0.0752(2)
H59 H 0.7927 0.3364 0.0971
C80 C 0.6608(5) 0.1064(3) 0.1423(2)
C81 C 0.6312(4) 0.0031(3) 0.1401(2)
C82 C 0.5957(5) -0.0494(3) 0.1832(2)
H60 H 0.5824 -0.0196 0.2170
C83 C 0.5820(5) -0.1460(3) 0.1788(2)
H61 H 0.5583 -0.1831 0.2094
C84 C 0.5967(5) -0.1880(3) 0.1303(2)
H62 H 0.5880 -0.2546 0.1274
C85 C 0.6268(5) -0.1356(3) 0.0862(2)
H63 H 0.6340 -0.1644 0.0515
C86 C 0.6465(5) -0.0416(3) 0.0911(2)
H64 H 0.6707 -0.0044 0.0606
loop_
_geom_bond_atom_site_label_1
_geom_bond_atom_site_label_2
_geom_bond_site_symmetry_1
_geom_bond_site_symmetry_2
O1 C37 1_555 1_555
O2 C10 1_555 1_555
O3 C9 1_555 1_555
N1 C1 1_555 1_555
N2 C6 1_555 1_555
C1 C2 1_555 1_555
C2 H1 1_555 1_555
C3 C2 1_555 1_555
H2 C3 1_555 1_555
C4 C3 1_555 1_555
H3 C4 1_555 1_555
C5 C4 1_555 1_555
H4 C5 1_555 1_555
C6 C1 1_555 1_555
C7 N1 1_555 1_555
H5 C7 1_555 1_555
C8 C7 1_555 1_555
H6 C8 1_555 1_555
H7 C8 1_555 1_555
C9 N2 1_555 1_555
C10 N2 1_555 1_555
C11 C10 1_555 1_555
C12 O3 1_555 1_555
C13 C11 1_555 1_555
C14 C13 1_555 1_555
H8 C14 1_555 1_555
C15 C14 1_555 1_555
H9 C15 1_555 1_555
C16 C15 1_555 1_555
H10 C16 1_555 1_555
C17 C16 1_555 1_555
H11 C17 1_555 1_555
C18 C13 1_555 1_555
H12 C18 1_555 1_555
C19 C12 1_555 1_555
C20 C19 1_555 1_555
H13 C20 1_555 1_555
C21 C20 1_555 1_555
H14 C21 1_555 1_555
C22 C21 1_555 1_555
H15 C22 1_555 1_555
C23 C22 1_555 1_555
H16 C23 1_555 1_555
C24 C19 1_555 1_555
H17 C24 1_555 1_555
C25 C9 1_555 1_555
C26 C25 1_555 1_555
H18 C26 1_555 1_555
C27 C26 1_555 1_555
H19 C27 1_555 1_555
C28 C27 1_555 1_555
H20 C28 1_555 1_555
C29 C28 1_555 1_555
H21 C29 1_555 1_555
C30 C25 1_555 1_555
H22 C30 1_555 1_555
C31 C7 1_555 1_555
C32 C31 1_555 1_555
H23 C32 1_555 1_555
C33 C32 1_555 1_555
H24 C33 1_555 1_555
C34 C33 1_555 1_555
H25 C34 1_555 1_555
C35 C34 1_555 1_555
H26 C35 1_555 1_555
C36 C31 1_555 1_555
H27 C36 1_555 1_555
C37 N1 1_555 1_555
C38 C37 1_555 1_555
C39 C38 1_555 1_555
H28 C39 1_555 1_555
C40 C39 1_555 1_555
H29 C40 1_555 1_555
C41 C40 1_555 1_555
H30 C41 1_555 1_555
C42 C41 1_555 1_555
H31 C42 1_555 1_555
C43 C38 1_555 1_555
H32 C43 1_555 1_555
O4 C80 1_555 1_555
O5 C53 1_555 1_555
O6 C52 1_555 1_555
N3 C44 1_555 1_555
N4 C49 1_555 1_555
C44 C45 1_555 1_555
C45 H33 1_555 1_555
C46 C45 1_555 1_555
H34 C46 1_555 1_555
C47 C46 1_555 1_555
H35 C47 1_555 1_555
C48 C47 1_555 1_555
H36 C48 1_555 1_555
C49 C44 1_555 1_555
C50 N3 1_555 1_555
H37 C50 1_555 1_555
C51 C50 1_555 1_555
H38 C51 1_555 1_555
H39 C51 1_555 1_555
C52 N4 1_555 1_555
C53 N4 1_555 1_555
C54 C53 1_555 1_555
C55 O6 1_555 1_555
C56 C54 1_555 1_555
C57 C56 1_555 1_555
H40 C57 1_555 1_555
C58 C57 1_555 1_555
H41 C58 1_555 1_555
C59 C58 1_555 1_555
H42 C59 1_555 1_555
C60 C59 1_555 1_555
H43 C60 1_555 1_555
C61 C56 1_555 1_555
H44 C61 1_555 1_555
C62 C55 1_555 1_555
C63 C62 1_555 1_555
H45 C63 1_555 1_555
C64 C63 1_555 1_555
H46 C64 1_555 1_555
C65 C64 1_555 1_555
H47 C65 1_555 1_555
C66 C65 1_555 1_555
H48 C66 1_555 1_555
C67 C62 1_555 1_555
H49 C67 1_555 1_555
C68 C52 1_555 1_555
C69 C68 1_555 1_555
H50 C69 1_555 1_555
C70 C69 1_555 1_555
H51 C70 1_555 1_555
C71 C70 1_555 1_555
H52 C71 1_555 1_555
C72 C71 1_555 1_555
H53 C72 1_555 1_555
C73 C68 1_555 1_555
H54 C73 1_555 1_555
C74 C50 1_555 1_555
C75 C74 1_555 1_555
H55 C75 1_555 1_555
C76 C75 1_555 1_555
H56 C76 1_555 1_555
C77 C76 1_555 1_555
H57 C77 1_555 1_555
C78 C77 1_555 1_555
H58 C78 1_555 1_555
C79 C74 1_555 1_555
H59 C79 1_555 1_555
C80 N3 1_555 1_555
C81 C80 1_555 1_555
C82 C81 1_555 1_555
H60 C82 1_555 1_555
C83 C82 1_555 1_555
H61 C83 1_555 1_555
C84 C83 1_555 1_555
H62 C84 1_555 1_555
C85 C84 1_555 1_555
H63 C85 1_555 1_555
C86 C81 1_555 1_555
H64 C86 1_555 1_555
C5 C6 1_555 1_555
C8 C9 1_555 1_555
C11 C12 1_555 1_555
C17 C18 1_555 1_555
C23 C24 1_555 1_555
C29 C30 1_555 1_555
C35 C36 1_555 1_555
C42 C43 1_555 1_555
C48 C49 1_555 1_555
C51 C52 1_555 1_555
C54 C55 1_555 1_555
C60 C61 1_555 1_555
C66 C67 1_555 1_555
C72 C73 1_555 1_555
C78 C79 1_555 1_555
C85 C86 1_555 1_555

#END
