
#######################################################################
#
#                 Cambridge Crystallographic Data Centre
#                                CCDC 
#
#######################################################################
#
# If this CIF has been generated from an entry in the Cambridge 
# Structural Database, then it will include bibliographic, chemical, 
# crystal, experimental, refinement or atomic coordinate data resulting 
# from the CCDC's data processing and validation procedures.
#
#######################################################################

data_NOGCOD
_chemical_formula_moiety         'C30 H32 N4 O8'
_chemical_name_systematic        
'Diethyl 2,5-bis(4-cyanophenyl)-1-(1,3-diethoxy-1,3-dioxopropan-2-yl)imidazolidine-4,4-dicarboxylate'
_symmetry_cell_setting           monoclinic
_symmetry_space_group_name_H-M   'C 2'
_symmetry_Int_Tables_number      5
_space_group_name_Hall           'C 2y'
loop_
_symmetry_equiv_pos_site_id
_symmetry_equiv_pos_as_xyz
1 x,y,z
2 -x,y,-z
3 1/2+x,1/2+y,z
4 1/2-x,1/2+y,-z
_cell_length_a                   24.9208(8)
_cell_length_b                   7.8192(3)
_cell_length_c                   17.2370(6)
_cell_angle_alpha                90
_cell_angle_beta                 115.164(2)
_cell_angle_gamma                90
_cell_volume                     3040.04
_exptl_crystal_colour            colorless
_exptl_crystal_description       block
_cell_formula_units_Z            4
loop_
_atom_site_label
_atom_site_type_symbol
_atom_site_fract_x
_atom_site_fract_y
_atom_site_fract_z
O1 O 0.0222(2) 0.3063(5) 0.4018(2)
O2 O -0.03827(17) 0.0854(6) 0.3374(3)
O3 O 0.03273(19) -0.2033(5) 0.2837(2)
O4 O 0.07259(16) -0.1338(5) 0.4236(2)
O5 O 0.11986(19) -0.1000(6) 0.1916(3)
N1 N 0.11191(18) 0.1684(6) 0.3762(2)
H1 H 0.1279 0.1885 0.4317
N2 N 0.08922(18) 0.2285(6) 0.2333(2)
N3 N 0.3169(2) 0.9153(7) 0.4498(3)
N4 N -0.2224(3) 0.5889(13) 0.0205(5)
C1 C 0.1393(2) 0.2015(7) 0.3181(3)
H2 H 0.1625 0.0990 0.3157
C2 C 0.03644(19) 0.1361(6) 0.2298(3)
H3 H 0.0325 0.0260 0.1983
C3 C 0.0532(2) 0.0959(6) 0.3263(3)
C4 C 0.0109(2) 0.1780(7) 0.3601(3)
C5 C -0.0825(3) 0.1537(11) 0.3646(5)
H4 H -0.1069 0.0584 0.3699
H5 H -0.0619 0.2076 0.4217
C6 C -0.1203(4) 0.2766(17) 0.3054(5)
H6 H -0.1492 0.3186 0.3255
H7 H -0.1412 0.2232 0.2490
H8 H -0.0964 0.3725 0.3010
C7 C 0.0514(2) -0.0990(6) 0.3400(3)
C8 C 0.0675(3) -0.3115(7) 0.4450(4)
H9 H 0.0967 -0.3831 0.4350
H10 H 0.0272 -0.3554 0.4090
C9 C 0.0792(3) -0.3171(9) 0.5374(4)
H11 H 0.0763 -0.4355 0.5540
H12 H 0.0498 -0.2465 0.5465
H13 H 0.1190 -0.2731 0.5724
C10 C -0.0197(2) 0.2411(7) 0.1837(3)
C11 C -0.0212(2) 0.4144(7) 0.1985(3)
H14 H 0.0135 0.4703 0.2380
C12 C -0.0732(3) 0.5080(9) 0.1559(4)
H15 H -0.0740 0.6273 0.1656
C13 C -0.1245(2) 0.4227(10) 0.0985(3)
C14 C -0.1231(2) 0.2518(10) 0.0831(4)
H16 H -0.1577 0.1957 0.0435
C15 C -0.0706(2) 0.1596(9) 0.1254(3)
H17 H -0.0697 0.0408 0.1146
C16 C -0.1787(3) 0.5162(12) 0.0554(4)
C17 C 0.1799(2) 0.3561(7) 0.3468(3)
C18 C 0.2396(2) 0.3354(7) 0.4005(3)
H18 H 0.2553 0.2238 0.4173
C19 C 0.2765(2) 0.4767(7) 0.4300(3)
H19 H 0.3173 0.4620 0.4668
C20 C 0.2532(2) 0.6402(7) 0.4053(3)
C21 C 0.1932(2) 0.6609(7) 0.3514(3)
H20 H 0.1773 0.7725 0.3348
C22 C 0.1566(2) 0.5196(7) 0.3222(3)
H21 H 0.1158 0.5339 0.2854
C23 C 0.2891(2) 0.7911(7) 0.4315(3)
C24 C 0.1028(2) 0.2041(9) 0.1606(4)
C25 C 0.1223(2) 0.0222(10) 0.1508(3)
O6 O 0.1534(5) 0.0540(16) 0.1029(7)
C26 C 0.1785(7) -0.105(2) 0.0891(8)
H22 H 0.1834 -0.0979 0.0351
H23 H 0.1513 -0.2012 0.0839
C27 C 0.2389(8) -0.137(3) 0.1648(13)
H24 H 0.2557 -0.2443 0.1554
H25 H 0.2337 -0.1454 0.2179
H26 H 0.2658 -0.0424 0.1692
O7 O 0.0192(3) 0.1827(11) 0.0296(5)
O8 O 0.0515(3) 0.4484(10) 0.0785(5)
C28 C 0.0547(4) 0.2782(14) 0.0844(6)
C29 C 0.0000 0.5198(12) 0.0000
H27 H -0.0365 0.4789 -0.0005
H28 H 0.0025 0.4789 -0.0509
C30 C 0.0000 0.7064(18) 0.0000
H29 H -0.0338 0.7482 -0.0511
H30 H 0.0369 0.7482 -0.0004
H31 H -0.0032 0.7482 0.0515
O9 O 0.1382(4) 0.4420(13) 0.1146(5)
O10 O 0.2026(3) 0.2435(12) 0.1926(5)
C31 C 0.1480(4) 0.3070(16) 0.1508(6)
C32 C 0.2507(5) 0.3658(19) 0.2039(8)
H32 H 0.2537 0.4473 0.2471
H33 H 0.2445 0.4252 0.1520
C33 C 0.3066(6) 0.251(2) 0.2373(10)
H34 H 0.3417 0.3217 0.2491
H35 H 0.3028 0.1651 0.1939
H36 H 0.3108 0.1938 0.2901
O1A O -0.0222(2) 0.3063(5) -0.4018(2)
O2A O 0.03827(17) 0.0854(6) -0.3374(3)
O3A O -0.03273(19) -0.2033(5) -0.2837(2)
O4A O -0.07259(16) -0.1338(5) -0.4236(2)
O5A O -0.11986(19) -0.1000(6) -0.1916(3)
N1A N -0.11191(18) 0.1684(6) -0.3762(2)
H1A H -0.1279 0.1885 -0.4317
N2A N -0.08922(18) 0.2285(6) -0.2333(2)
N3A N -0.3169(2) 0.9153(7) -0.4498(3)
N4A N 0.2224(3) 0.5889(13) -0.0205(5)
C1A C -0.1393(2) 0.2015(7) -0.3181(3)
H2A H -0.1625 0.0990 -0.3157
C2A C -0.03644(19) 0.1361(6) -0.2298(3)
H3A H -0.0325 0.0260 -0.1983
C3A C -0.0532(2) 0.0959(6) -0.3263(3)
C4A C -0.0109(2) 0.1780(7) -0.3601(3)
C5A C 0.0825(3) 0.1537(11) -0.3646(5)
H4A H 0.1069 0.0584 -0.3699
H5A H 0.0619 0.2076 -0.4217
C6A C 0.1203(4) 0.2766(17) -0.3054(5)
H6A H 0.1492 0.3186 -0.3255
H7A H 0.1412 0.2232 -0.2490
H8A H 0.0964 0.3725 -0.3010
C7A C -0.0514(2) -0.0990(6) -0.3400(3)
C8A C -0.0675(3) -0.3115(7) -0.4450(4)
H9A H -0.0967 -0.3831 -0.4350
H10A H -0.0272 -0.3554 -0.4090
C9A C -0.0792(3) -0.3171(9) -0.5374(4)
H11A H -0.0763 -0.4355 -0.5540
H12A H -0.0498 -0.2465 -0.5465
H13A H -0.1190 -0.2731 -0.5724
C10A C 0.0197(2) 0.2411(7) -0.1837(3)
C11A C 0.0212(2) 0.4144(7) -0.1985(3)
H14A H -0.0135 0.4703 -0.2380
C12A C 0.0732(3) 0.5080(9) -0.1559(4)
H15A H 0.0740 0.6273 -0.1656
C13A C 0.1245(2) 0.4227(10) -0.0985(3)
C14A C 0.1231(2) 0.2518(10) -0.0831(4)
H16A H 0.1577 0.1957 -0.0435
C15A C 0.0706(2) 0.1596(9) -0.1254(3)
H17A H 0.0697 0.0408 -0.1146
C16A C 0.1787(3) 0.5162(12) -0.0554(4)
C17A C -0.1799(2) 0.3561(7) -0.3468(3)
C18A C -0.2396(2) 0.3354(7) -0.4005(3)
H18A H -0.2553 0.2238 -0.4173
C19A C -0.2765(2) 0.4767(7) -0.4300(3)
H19A H -0.3173 0.4620 -0.4668
C20A C -0.2532(2) 0.6402(7) -0.4053(3)
C21A C -0.1932(2) 0.6609(7) -0.3514(3)
H20A H -0.1773 0.7725 -0.3348
C22A C -0.1566(2) 0.5196(7) -0.3222(3)
H21A H -0.1158 0.5339 -0.2854
C23A C -0.2891(2) 0.7911(7) -0.4315(3)
C24A C -0.1028(2) 0.2041(9) -0.1606(4)
C25A C -0.1223(2) 0.0222(10) -0.1508(3)
O6A O -0.1534(5) 0.0540(16) -0.1029(7)
C26A C -0.1785(7) -0.105(2) -0.0891(8)
H22A H -0.1834 -0.0979 -0.0351
H23A H -0.1513 -0.2012 -0.0839
C27A C -0.2389(8) -0.137(3) -0.1648(13)
H24A H -0.2557 -0.2443 -0.1554
H25A H -0.2337 -0.1454 -0.2179
H26A H -0.2658 -0.0424 -0.1692
O7A O -0.0192(3) 0.1827(11) -0.0296(5)
O8A O -0.0515(3) 0.4484(10) -0.0785(5)
C28A C -0.0547(4) 0.2782(14) -0.0844(6)
H27A H 0.0365 0.4789 0.0005
H28A H -0.0025 0.4789 0.0509
H29A H 0.0338 0.7482 0.0511
H30A H -0.0369 0.7482 0.0004
H31A H 0.0032 0.7482 -0.0515
O9A O -0.1382(4) 0.4420(13) -0.1146(5)
O10A O -0.2026(3) 0.2435(12) -0.1926(5)
C31A C -0.1480(4) 0.3070(16) -0.1508(6)
C32A C -0.2507(5) 0.3658(19) -0.2039(8)
H32A H -0.2537 0.4473 -0.2471
H33A H -0.2445 0.4252 -0.1520
C33A C -0.3066(6) 0.251(2) -0.2373(10)
H34A H -0.3417 0.3217 -0.2491
H35A H -0.3028 0.1651 -0.1939
H36A H -0.3108 0.1938 -0.2901
O11? O 0.1304(5) -0.0158(16) 0.0797(6)
C34? C 0.1553(6) -0.180(2) 0.0715(9)
H37? H 0.1537 -0.1914 0.0133
H38? H 0.1321 -0.2746 0.0804
C35? C 0.2197(6) -0.189(3) 0.1388(10)
H39? H 0.2370 -0.2989 0.1344
H40? H 0.2209 -0.1773 0.1962
H41? H 0.2425 -0.0957 0.1291
loop_
_geom_bond_atom_site_label_1
_geom_bond_atom_site_label_2
_geom_bond_site_symmetry_1
_geom_bond_site_symmetry_2
O1 C4 1_555 1_555
O2 C4 1_555 1_555
O3 C7 1_555 1_555
O4 C7 1_555 1_555
O5 C25 1_555 1_555
N1 H1 1_555 1_555
N2 C1 1_555 1_555
N3 C23 1_555 1_555
N4 C16 1_555 1_555
C1 N1 1_555 1_555
H2 C1 1_555 1_555
C2 N2 1_555 1_555
H3 C2 1_555 1_555
C3 N1 1_555 1_555
C4 C3 1_555 1_555
C5 O2 1_555 1_555
H4 C5 1_555 1_555
H5 C5 1_555 1_555
C6 C5 1_555 1_555
H6 C6 1_555 1_555
H7 C6 1_555 1_555
H8 C6 1_555 1_555
C7 C3 1_555 1_555
C8 O4 1_555 1_555
H9 C8 1_555 1_555
H10 C8 1_555 1_555
C9 C8 1_555 1_555
H11 C9 1_555 1_555
H12 C9 1_555 1_555
H13 C9 1_555 1_555
C10 C2 1_555 1_555
C11 C10 1_555 1_555
H14 C11 1_555 1_555
C12 C11 1_555 1_555
H15 C12 1_555 1_555
C13 C12 1_555 1_555
C14 C13 1_555 1_555
H16 C14 1_555 1_555
C15 C10 1_555 1_555
H17 C15 1_555 1_555
C16 C13 1_555 1_555
C17 C1 1_555 1_555
C18 C17 1_555 1_555
H18 C18 1_555 1_555
C19 C18 1_555 1_555
H19 C19 1_555 1_555
C20 C19 1_555 1_555
C21 C20 1_555 1_555
H20 C21 1_555 1_555
C22 C17 1_555 1_555
H21 C22 1_555 1_555
C23 C20 1_555 1_555
C24 N2 1_555 1_555
C25 C24 1_555 1_555
O6 C25 1_555 1_555
C26 O6 1_555 1_555
H22 C26 1_555 1_555
H23 C26 1_555 1_555
C27 C26 1_555 1_555
H24 C27 1_555 1_555
H25 C27 1_555 1_555
H26 C27 1_555 1_555
O7 C28 1_555 1_555
O8 C28 1_555 1_555
C28 C24 1_555 1_555
C29 O8 1_555 1_555
H27 C29 1_555 1_555
H28 C29 1_555 1_555
C30 C29 1_555 1_555
H29 C30 1_555 1_555
H30 C30 1_555 1_555
H31 C30 1_555 1_555
O9 C31 1_555 1_555
O10 C31 1_555 1_555
C31 C24 1_555 1_555
C32 O10 1_555 1_555
H32 C32 1_555 1_555
H33 C32 1_555 1_555
C33 C32 1_555 1_555
H34 C33 1_555 1_555
H35 C33 1_555 1_555
H36 C33 1_555 1_555
O1A C4A 1_555 1_555
O2A C4A 1_555 1_555
O3A C7A 1_555 1_555
O4A C7A 1_555 1_555
O5A C25A 1_555 1_555
N1A H1A 1_555 1_555
N2A C1A 1_555 1_555
N3A C23A 1_555 1_555
N4A C16A 1_555 1_555
C1A N1A 1_555 1_555
H2A C1A 1_555 1_555
C2A N2A 1_555 1_555
H3A C2A 1_555 1_555
C3A N1A 1_555 1_555
C4A C3A 1_555 1_555
C5A O2A 1_555 1_555
H4A C5A 1_555 1_555
H5A C5A 1_555 1_555
C6A C5A 1_555 1_555
H6A C6A 1_555 1_555
H7A C6A 1_555 1_555
H8A C6A 1_555 1_555
C7A C3A 1_555 1_555
C8A O4A 1_555 1_555
H9A C8A 1_555 1_555
H10A C8A 1_555 1_555
C9A C8A 1_555 1_555
H11A C9A 1_555 1_555
H12A C9A 1_555 1_555
H13A C9A 1_555 1_555
C10A C2A 1_555 1_555
C11A C10A 1_555 1_555
H14A C11A 1_555 1_555
C12A C11A 1_555 1_555
H15A C12A 1_555 1_555
C13A C12A 1_555 1_555
C14A C13A 1_555 1_555
H16A C14A 1_555 1_555
C15A C10A 1_555 1_555
H17A C15A 1_555 1_555
C16A C13A 1_555 1_555
C17A C1A 1_555 1_555
C18A C17A 1_555 1_555
H18A C18A 1_555 1_555
C19A C18A 1_555 1_555
H19A C19A 1_555 1_555
C20A C19A 1_555 1_555
C21A C20A 1_555 1_555
H20A C21A 1_555 1_555
C22A C17A 1_555 1_555
H21A C22A 1_555 1_555
C23A C20A 1_555 1_555
C24A N2A 1_555 1_555
C25A C24A 1_555 1_555
O6A C25A 1_555 1_555
C26A O6A 1_555 1_555
H22A C26A 1_555 1_555
H23A C26A 1_555 1_555
C27A C26A 1_555 1_555
H24A C27A 1_555 1_555
H25A C27A 1_555 1_555
H26A C27A 1_555 1_555
O7A O7 1_555 1_555
O8A C29 1_555 1_555
C28A C24A 1_555 1_555
H27A O8 1_555 1_555
H28A O8 1_555 1_555
H29A C30 1_555 1_555
H30A C30 1_555 1_555
H31A C30 1_555 1_555
O9A C31A 1_555 1_555
O10A C31A 1_555 1_555
C31A C24A 1_555 1_555
C32A O10A 1_555 1_555
H32A C32A 1_555 1_555
H33A C32A 1_555 1_555
C33A C32A 1_555 1_555
H34A C33A 1_555 1_555
H35A C33A 1_555 1_555
H36A C33A 1_555 1_555
C2 C3 1_555 1_555
C14 C15 1_555 1_555
C21 C22 1_555 1_555
C29 H27A 1_555 1_555
C29 H28A 1_555 1_555
H27 O8A 1_555 1_555
H28 O8A 1_555 1_555
C2A C3A 1_555 1_555
C14A C15A 1_555 1_555
C21A C22A 1_555 1_555
O7A C28A 1_555 1_555
O8A C28A 1_555 1_555

#END
