
#######################################################################
#
#                 Cambridge Crystallographic Data Centre
#                                CCDC 
#
#######################################################################
#
# If this CIF has been generated from an entry in the Cambridge 
# Structural Database, then it will include bibliographic, chemical, 
# crystal, experimental, refinement or atomic coordinate data resulting 
# from the CCDC's data processing and validation procedures.
#
#######################################################################

data_NOGDOE
_chemical_formula_moiety         'C14 H14 Cl1 N3 O3,H2 O1'
_chemical_name_systematic        
'1-(2-(2-(2-Chlorophenyl)vinyl)-5-nitro-1H-imidazol-1-yl)propan-2-ol monohydrate'
_symmetry_cell_setting           monoclinic
_symmetry_space_group_name_H-M   'P 21/c'
_symmetry_Int_Tables_number      14
_space_group_name_Hall           '-P 2ybc'
loop_
_symmetry_equiv_pos_site_id
_symmetry_equiv_pos_as_xyz
1 x,y,z
2 -x,1/2+y,1/2-z
3 -x,-y,-z
4 x,1/2-y,1/2+z
_cell_length_a                   11.4854(17)
_cell_length_b                   15.508(2)
_cell_length_c                   8.7486(13)
_cell_angle_alpha                90
_cell_angle_beta                 100.007(5)
_cell_angle_gamma                90
_cell_volume                     1534.56
_exptl_crystal_colour            yellow
_chemical_melting_point          '84-87 deg.C'
_cell_formula_units_Z            4
_chemical_properties_physical    Heat-sensitive
loop_
_atom_site_label
_atom_site_type_symbol
_atom_site_fract_x
_atom_site_fract_y
_atom_site_fract_z
Cl1 Cl -0.30465(7) 1.00969(5) 0.02663(10)
O1 O 0.19804(14) 0.75996(10) 0.4535(2)
H1 H 0.1603 0.7848 0.5117
N1 N 0.07773(17) 1.03651(12) 0.3677(2)
N2 N 0.22924(15) 0.94512(11) 0.3869(2)
C1 C -0.13738(18) 0.88865(14) 0.0051(2)
O2 O 0.43790(16) 0.96067(12) 0.6124(2)
C2 C 0.31080(18) 0.79960(14) 0.4634(3)
H2 H 0.3356 0.8219 0.5688
C3 C 0.04835(19) 0.91117(14) 0.1956(3)
H3 H 0.0808 0.8603 0.1654
C4 C -0.05931(19) 0.93362(15) 0.1272(3)
H4 H -0.0885 0.9846 0.1618
C5 C 0.11685(18) 0.96287(14) 0.3152(3)
C6 C -0.2527(2) 0.91654(15) -0.0496(3)
C7 C 0.2597(2) 1.01192(14) 0.4894(3)
N3 N 0.36928(18) 1.02098(14) 0.5909(2)
C8 C 0.30438(18) 0.87392(15) 0.3500(2)
H5 H 0.3836 0.8956 0.3501
H6 H 0.2737 0.8529 0.2464
C9 C 0.1666(2) 1.06612(15) 0.4741(3)
H7 H 0.1644 1.1170 0.5298
C10 C -0.1022(2) 0.81464(16) -0.0666(3)
H8 H -0.0265 0.7930 -0.0342
C11 C 0.3992(2) 0.73376(16) 0.4310(3)
H9 H 0.4082 0.6903 0.5103
H10 H 0.4739 0.7613 0.4303
H11 H 0.3720 0.7076 0.3318
O3 O 0.38969(19) 1.09042(13) 0.6553(3)
C12 C -0.1763(3) 0.77343(18) -0.1828(3)
H12 H -0.1485 0.7258 -0.2300
C13 C -0.3273(2) 0.8739(2) -0.1650(3)
H13 H -0.4034 0.8947 -0.1986
C14 C -0.28954(17) 0.80011(13) -0.2314(2)
H14 H -0.3402 0.7697 -0.3071
O4 O 0.10985(17) 0.66376(13) 0.1788(2)
H15 H 0.078(2) 0.6334(15) 0.175(3)
H16 H 0.136(5) 0.680(4) 0.297(7)
H17? H 0.3625 1.1292 0.5959
loop_
_geom_bond_atom_site_label_1
_geom_bond_atom_site_label_2
_geom_bond_site_symmetry_1
_geom_bond_site_symmetry_2
Cl1 C6 1_555 1_555
O1 H1 1_555 1_555
N1 C5 1_555 1_555
N2 C5 1_555 1_555
C1 C4 1_555 1_555
O2 N3 1_555 1_555
C2 O1 1_555 1_555
H2 C2 1_555 1_555
C3 H3 1_555 1_555
C4 C3 1_555 1_555
H4 C4 1_555 1_555
C5 C3 1_555 1_555
C6 C1 1_555 1_555
C7 N2 1_555 1_555
N3 C7 1_555 1_555
C8 N2 1_555 1_555
H5 C8 1_555 1_555
H6 C8 1_555 1_555
C9 N1 1_555 1_555
H7 C9 1_555 1_555
C10 C1 1_555 1_555
H8 C10 1_555 1_555
C11 C2 1_555 1_555
H9 C11 1_555 1_555
H10 C11 1_555 1_555
H11 C11 1_555 1_555
O3 N3 1_555 1_555
C12 C10 1_555 1_555
H12 C12 1_555 1_555
C13 C6 1_555 1_555
H13 C13 1_555 1_555
C14 C12 1_555 1_555
H14 C14 1_555 1_555
O4 H15 1_555 1_555
H16 O4 1_555 1_555
C2 C8 1_555 1_555
C7 C9 1_555 1_555
C13 C14 1_555 1_555

#END
