
#######################################################################
#
#                 Cambridge Crystallographic Data Centre
#                                CCDC 
#
#######################################################################
#
# If this CIF has been generated from an entry in the Cambridge 
# Structural Database, then it will include bibliographic, chemical, 
# crystal, experimental, refinement or atomic coordinate data resulting 
# from the CCDC's data processing and validation procedures.
#
#######################################################################

data_NOGDUK
_chemical_name_common            '18-O-t-butyldiphenylsilyl vibsanin B'
_chemical_formula_moiety         'C41 H54 O5 Si1'
_chemical_name_systematic        
'7-(((t-Butyl(diphenyl)silyl)oxy)methyl)-11-hydroxy-4,11-dimethyl-4-(4-methylpent-3-en-1-yl)-8-oxocycloundeca-2,6,9-trien-1-yl 3-methylbut-2-enoate'
_chemical_properties_biological  'antiproliferative activity'
_symmetry_cell_setting           orthorhombic
_symmetry_space_group_name_H-M   'P 21 21 21'
_symmetry_Int_Tables_number      19
_space_group_name_Hall           'P 2ac 2ab'
loop_
_symmetry_equiv_pos_site_id
_symmetry_equiv_pos_as_xyz
1 x,y,z
2 1/2+x,1/2-y,-z
3 -x,1/2+y,1/2-z
4 1/2-x,-y,1/2+z
_cell_length_a                   9.6301(6)
_cell_length_b                   18.7701(12)
_cell_length_c                   20.8292(14)
_cell_angle_alpha                90
_cell_angle_beta                 90
_cell_angle_gamma                90
_cell_volume                     3765.04
_exptl_crystal_colour            colorless
_exptl_crystal_description       block
_cell_formula_units_Z            4
loop_
_atom_site_label
_atom_site_type_symbol
_atom_site_fract_x
_atom_site_fract_y
_atom_site_fract_z
Si1 Si 0.56951(4) 1.14562(2) 0.913198(18)
O1 O 0.49466(11) 1.08794(5) 0.86397(5)
C1 C 0.61937(16) 0.86928(8) 1.03367(7)
O2 O 0.66043(12) 0.80911(6) 1.04335(5)
O3 O 0.28124(12) 0.79398(6) 0.88053(5)
H1 H 0.2451 0.7634 0.9048
O4 O 0.36507(12) 0.97861(6) 0.71461(5)
C2 C 1.0404(2) 1.08459(16) 0.91532(11)
H2 H 1.1348 1.0699 0.9144
C3 C 1.00441(19) 1.15180(15) 0.89562(9)
H3 H 1.0744 1.1838 0.8814
C4 C 0.86644(17) 1.17345(11) 0.89627(8)
H4 H 0.8434 1.2206 0.8837
C5 C 0.76094(16) 1.12668(9) 0.91523(7)
C6 C 0.54493(16) 1.07580(8) 0.80002(7)
H5 H 0.6387 1.0967 0.7953
H6 H 0.4825 1.0991 0.7687
C7 C 0.55086(15) 0.99646(8) 0.78679(6)
C8 C 0.41541(16) 0.96287(8) 0.76637(7)
C9 C 0.35105(16) 0.90961(8) 0.80946(7)
H7 H 0.2882 0.8757 0.7921
C10 C 0.37932(15) 0.90830(8) 0.87195(7)
H8 H 0.4319 0.9468 0.8889
C11 C 0.33480(15) 0.85082(8) 0.91794(7)
C12 C 0.66978(17) 0.93597(8) 1.06220(7)
H9 H 0.6064 0.9746 1.0647
C13 C 0.79796(16) 0.94643(9) 1.08486(7)
C14 C 0.91052(19) 0.89118(10) 1.08735(9)
H10 H 0.9148 0.8707 1.1306
H11 H 0.9999 0.9133 1.0769
H12 H 0.8904 0.8535 1.0562
C15 C 0.38310(19) 1.09260(10) 1.11536(8)
H13 H 0.3439 1.0830 1.1563
C16 C 0.32976(19) 1.06050(9) 1.06132(9)
H14 H 0.2547 1.0279 1.0652
C17 C 0.38491(17) 1.07538(8) 1.00120(8)
H15 H 0.3469 1.0527 0.9644
C18 C 0.49515(16) 1.12301(8) 0.99384(7)
C19 C 0.52358(16) 1.23958(8) 0.88837(7)
C20 C 0.36406(18) 1.24404(10) 0.88604(9)
H16 H 0.3259 1.2319 0.9283
H17 H 0.3287 1.2105 0.8539
H18 H 0.3360 1.2926 0.8745
C21 C 0.57947(19) 1.25921(9) 0.82143(7)
H19 H 0.5527 1.3082 0.8110
H20 H 0.5404 1.2267 0.7894
H21 H 0.6809 1.2552 0.8213
C22 C 0.5778(2) 1.29395(9) 0.93765(8)
H22 H 0.6791 1.2902 0.9407
H23 H 0.5364 1.2841 0.9797
H24 H 0.5525 1.3422 0.9239
C23 C 0.67074(16) 0.96141(8) 0.78825(7)
H25 H 0.7499 0.9882 0.8008
C24 C 0.69599(16) 0.88421(8) 0.77238(7)
H26 H 0.7525 0.8819 0.7327
H27 H 0.6054 0.8615 0.7629
C25 C 0.77049(16) 0.83957(8) 0.82554(7)
C26 C 0.91658(16) 0.86999(9) 0.83723(8)
H28 H 0.9091 0.9197 0.8512
H29 H 0.9705 0.8676 0.7974
H30 H 0.9633 0.8420 0.8706
C27 C 0.78176(17) 0.76225(8) 0.80169(7)
H31 H 0.6874 0.7450 0.7911
H32 H 0.8367 0.7619 0.7615
C28 C 0.84837(19) 0.70966(9) 0.84905(8)
H33 H 0.9404 0.7280 0.8623
H34 H 0.7895 0.7061 0.8879
C29 C 0.86571(17) 0.63683(9) 0.82023(8)
H35 H 0.7884 0.6055 0.8225
C30 C 0.97994(17) 0.61233(8) 0.79173(7)
C31 C 0.9846(2) 0.53897(9) 0.76315(8)
H36 H 0.8928 0.5168 0.7666
H37 H 1.0528 0.5100 0.7864
H38 H 1.0114 0.5422 0.7179
C32 C 1.11208(18) 0.65425(10) 0.78460(8)
H39 H 1.1031 0.6997 0.8074
H40 H 1.1297 0.6633 0.7390
H41 H 1.1895 0.6271 0.8028
C33 C 0.68181(15) 0.84693(8) 0.88525(7)
H42 H 0.7040 0.8850 0.9135
C34 C 0.57666(16) 0.80566(8) 0.90190(7)
H43 H 0.5680 0.7610 0.8809
C35 C 0.8396(2) 1.01880(10) 1.10921(8)
H44 H 0.9098 1.0393 1.0806
H45 H 0.8783 1.0143 1.1526
H46 H 0.7580 1.0500 1.1104
C36 C 0.22840(17) 0.87703(9) 0.96708(7)
H47 H 0.1442 0.8927 0.9448
H48 H 0.2676 0.9170 0.9913
H49 H 0.2052 0.8382 0.9966
C37 C 0.46977(16) 0.82433(8) 0.95171(7)
H50 H 0.4490 0.7819 0.9791
C38 C 0.9386(2) 1.03823(13) 0.93653(9)
H51 H 0.9635 0.9922 0.9516
C39 C 0.8005(2) 1.05875(10) 0.93584(8)
H52 H 0.7313 1.0261 0.9496
C40 C 0.54943(17) 1.15384(9) 1.04962(7)
H53 H 0.6258 1.1857 1.0464
C41 C 0.49377(19) 1.13872(10) 1.10963(8)
H54 H 0.5322 1.1603 1.1469
O5 O 0.51619(11) 0.88320(5) 0.99135(5)
loop_
_geom_bond_atom_site_label_1
_geom_bond_atom_site_label_2
_geom_bond_site_symmetry_1
_geom_bond_site_symmetry_2
Si1 O1 1_555 1_555
O1 C6 1_555 1_555
C1 O2 1_555 1_555
O3 H1 1_555 1_555
O4 C8 1_555 1_555
C2 H2 1_555 1_555
C3 C2 1_555 1_555
H3 C3 1_555 1_555
C4 C3 1_555 1_555
H4 C4 1_555 1_555
C5 Si1 1_555 1_555
C6 H5 1_555 1_555
H6 C6 1_555 1_555
C7 C6 1_555 1_555
C8 C7 1_555 1_555
C9 C8 1_555 1_555
H7 C9 1_555 1_555
C10 C9 1_555 1_555
H8 C10 1_555 1_555
C11 O3 1_555 1_555
C12 C1 1_555 1_555
H9 C12 1_555 1_555
C13 C12 1_555 1_555
C14 C13 1_555 1_555
H10 C14 1_555 1_555
H11 C14 1_555 1_555
H12 C14 1_555 1_555
C15 H13 1_555 1_555
C16 C15 1_555 1_555
H14 C16 1_555 1_555
C17 C16 1_555 1_555
H15 C17 1_555 1_555
C18 Si1 1_555 1_555
C19 Si1 1_555 1_555
C20 C19 1_555 1_555
H16 C20 1_555 1_555
H17 C20 1_555 1_555
H18 C20 1_555 1_555
C21 C19 1_555 1_555
H19 C21 1_555 1_555
H20 C21 1_555 1_555
H21 C21 1_555 1_555
C22 C19 1_555 1_555
H22 C22 1_555 1_555
H23 C22 1_555 1_555
H24 C22 1_555 1_555
C23 C7 1_555 1_555
H25 C23 1_555 1_555
C24 C23 1_555 1_555
H26 C24 1_555 1_555
H27 C24 1_555 1_555
C25 C24 1_555 1_555
C26 C25 1_555 1_555
H28 C26 1_555 1_555
H29 C26 1_555 1_555
H30 C26 1_555 1_555
C27 C25 1_555 1_555
H31 C27 1_555 1_555
H32 C27 1_555 1_555
C28 C27 1_555 1_555
H33 C28 1_555 1_555
H34 C28 1_555 1_555
C29 C28 1_555 1_555
H35 C29 1_555 1_555
C30 C29 1_555 1_555
C31 C30 1_555 1_555
H36 C31 1_555 1_555
H37 C31 1_555 1_555
H38 C31 1_555 1_555
C32 C30 1_555 1_555
H39 C32 1_555 1_555
H40 C32 1_555 1_555
H41 C32 1_555 1_555
C33 C25 1_555 1_555
H42 C33 1_555 1_555
C34 C33 1_555 1_555
H43 C34 1_555 1_555
C35 C13 1_555 1_555
H44 C35 1_555 1_555
H45 C35 1_555 1_555
H46 C35 1_555 1_555
C36 C11 1_555 1_555
H47 C36 1_555 1_555
H48 C36 1_555 1_555
H49 C36 1_555 1_555
C37 C11 1_555 1_555
H50 C37 1_555 1_555
C38 C2 1_555 1_555
H51 C38 1_555 1_555
C39 C5 1_555 1_555
H52 C39 1_555 1_555
C40 C18 1_555 1_555
H53 C40 1_555 1_555
C41 C15 1_555 1_555
H54 C41 1_555 1_555
O5 C1 1_555 1_555
C4 C5 1_555 1_555
C10 C11 1_555 1_555
C17 C18 1_555 1_555
C34 C37 1_555 1_555
C37 O5 1_555 1_555
C38 C39 1_555 1_555
C40 C41 1_555 1_555

#END
