
#######################################################################
#
#                 Cambridge Crystallographic Data Centre
#                                CCDC 
#
#######################################################################
#
# If this CIF has been generated from an entry in the Cambridge 
# Structural Database, then it will include bibliographic, chemical, 
# crystal, experimental, refinement or atomic coordinate data resulting 
# from the CCDC's data processing and validation procedures.
#
#######################################################################

data_NOGHUO
_chemical_formula_moiety         'C14 H17 N3 O1'
_chemical_name_systematic        2-cyano-3-(4-(diethylamino)phenyl)acrylamide
_symmetry_cell_setting           triclinic
_symmetry_space_group_name_H-M   'P -1'
_symmetry_Int_Tables_number      2
_space_group_name_Hall           '-P 1'
loop_
_symmetry_equiv_pos_site_id
_symmetry_equiv_pos_as_xyz
1 x,y,z
2 -x,-y,-z
_cell_length_a                   10.2256(4)
_cell_length_b                   10.7918(8)
_cell_length_c                   12.9944(6)
_cell_angle_alpha                98.603(5)
_cell_angle_beta                 90.505(4)
_cell_angle_gamma                106.070(5)
_cell_volume                     1360.52
_cell_formula_units_Z            4
loop_
_atom_site_label
_atom_site_type_symbol
_atom_site_fract_x
_atom_site_fract_y
_atom_site_fract_z
H1 H 1.431(2) 1.216(3) 0.0803(18)
H2 H 1.511(3) 1.119(2) 0.0310(18)
O1 O 1.32672(15) 0.91897(16) 0.02258(15)
C1 C 0.95681(17) 0.94045(18) 0.14220(13)
C2 C 1.08827(18) 0.95449(19) 0.09996(14)
H3 H 1.0958 0.8796 0.0575
C3 C 0.91819(19) 1.03688(19) 0.20919(15)
H4 H 0.9792 1.1197 0.2254
C4 C 1.20289(18) 1.0546(2) 0.10954(15)
C5 C 0.85927(19) 0.8193(2) 0.11857(15)
H5 H 0.8803 0.7535 0.0728
C6 C 0.73412(19) 0.7938(2) 0.16011(15)
H6 H 0.6724 0.7117 0.1419
C7 C 0.69708(18) 0.8895(2) 0.22987(16)
N1 N 0.57466(17) 0.86368(19) 0.27573(15)
C8 C 0.79355(19) 1.0130(2) 0.25154(17)
H7 H 0.7719 1.0799 0.2957
C9 C 0.5395(2) 0.9583(2) 0.35701(18)
H8 H 0.6222 1.0126 0.3957
H9 H 0.4813 0.9112 0.4054
C10 C 0.4690(2) 0.7405(3) 0.2453(2)
H10 H 0.4759 0.7093 0.1721
H11 H 0.3805 0.7563 0.2532
C11 C 0.4771(3) 0.6363(3) 0.3068(3)
H12 H 0.5610 0.6143 0.2945
H13 H 0.4017 0.5602 0.2859
H14 H 0.4739 0.6674 0.3797
C12 C 0.4689(3) 1.0425(3) 0.3131(3)
H15 H 0.5273 1.0916 0.2671
H16 H 0.4468 1.1014 0.3687
H17 H 0.3867 0.9892 0.2751
N2 N 1.43409(19) 1.1337(2) 0.05960(17)
C13 C 1.3269(2) 1.0308(2) 0.05922(17)
C14 C 1.2152(2) 1.1814(2) 0.16451(19)
N3 N 1.2303(2) 1.2850(2) 0.2075(2)
H18 H 0.635(2) 0.515(2) -0.0494(18)
H19 H 0.783(2) 0.506(2) -0.0293(15)
O2 O 0.53692(13) 0.42807(14) 0.09841(11)
N4 N 0.6976(2) 0.48943(17) -0.01465(13)
C15 C 0.93877(18) 0.36418(18) 0.31906(15)
H20 H 0.9872 0.3845 0.2607
C16 C 0.65475(18) 0.44196(17) 0.07132(14)
C17 C 0.80204(18) 0.36461(18) 0.32034(14)
C18 C 0.75551(17) 0.40679(17) 0.13754(14)
C19 C 1.00338(18) 0.33492(19) 0.40066(14)
H21 H 1.0950 0.3380 0.3972
C20 C 0.72553(18) 0.39027(18) 0.23658(14)
H22 H 0.6393 0.3967 0.2538
C21 C 0.73674(19) 0.3371(2) 0.41204(15)
H23 H 0.6473 0.3410 0.4176
N5 N 0.99624(17) 0.26230(19) 0.56835(13)
C22 C 0.93450(19) 0.30010(19) 0.49006(14)
C23 C 0.7985(2) 0.3051(2) 0.49335(15)
H24 H 0.7500 0.2862 0.5520
C24 C 0.9193(2) 0.2063(2) 0.65420(16)
H25 H 0.9612 0.1443 0.6776
H26 H 0.8269 0.1593 0.6284
C25 C 1.1412(2) 0.2708(2) 0.56980(18)
H27 H 1.1751 0.2816 0.6415
H28 H 1.1898 0.3477 0.5411
N6 N 0.97673(18) 0.3816(2) 0.05610(14)
C26 C 0.87865(19) 0.39264(19) 0.09287(14)
C27 C 0.9148(2) 0.3086(2) 0.74495(18)
H29 H 1.0060 0.3558 0.7707
H30 H 0.8659 0.2676 0.7993
H31 H 0.8696 0.3680 0.7230
C28 C 1.1717(3) 0.1525(3) 0.5088(2)
H32 H 1.1274 0.0764 0.5387
H33 H 1.2683 0.1645 0.5113
H34 H 1.1386 0.1412 0.4377
loop_
_geom_bond_atom_site_label_1
_geom_bond_atom_site_label_2
_geom_bond_site_symmetry_1
_geom_bond_site_symmetry_2
H1 N2 1_555 1_555
H2 N2 1_555 1_555
O1 C13 1_555 1_555
C1 C2 1_555 1_555
C2 H3 1_555 1_555
C3 C1 1_555 1_555
H4 C3 1_555 1_555
C4 C2 1_555 1_555
C5 C1 1_555 1_555
H5 C5 1_555 1_555
C6 C5 1_555 1_555
H6 C6 1_555 1_555
C7 C6 1_555 1_555
N1 C7 1_555 1_555
C8 C3 1_555 1_555
H7 C8 1_555 1_555
C9 N1 1_555 1_555
H8 C9 1_555 1_555
H9 C9 1_555 1_555
C10 N1 1_555 1_555
H10 C10 1_555 1_555
H11 C10 1_555 1_555
C11 C10 1_555 1_555
H12 C11 1_555 1_555
H13 C11 1_555 1_555
H14 C11 1_555 1_555
C12 C9 1_555 1_555
H15 C12 1_555 1_555
H16 C12 1_555 1_555
H17 C12 1_555 1_555
N2 C13 1_555 1_555
C13 C4 1_555 1_555
C14 C4 1_555 1_555
N3 C14 1_555 1_555
H18 N4 1_555 1_555
H19 N4 1_555 1_555
O2 C16 1_555 1_555
N4 C16 1_555 1_555
C15 H20 1_555 1_555
C16 C18 1_555 1_555
C17 C15 1_555 1_555
C18 C20 1_555 1_555
C19 C15 1_555 1_555
H21 C19 1_555 1_555
C20 C17 1_555 1_555
H22 C20 1_555 1_555
C21 C17 1_555 1_555
H23 C21 1_555 1_555
N5 C22 1_555 1_555
C22 C19 1_555 1_555
C23 C21 1_555 1_555
H24 C23 1_555 1_555
C24 N5 1_555 1_555
H25 C24 1_555 1_555
H26 C24 1_555 1_555
C25 N5 1_555 1_555
H27 C25 1_555 1_555
H28 C25 1_555 1_555
N6 C26 1_555 1_555
C26 C18 1_555 1_555
C27 C24 1_555 1_555
H29 C27 1_555 1_555
H30 C27 1_555 1_555
H31 C27 1_555 1_555
C28 C25 1_555 1_555
H32 C28 1_555 1_555
H33 C28 1_555 1_555
H34 C28 1_555 1_555
C7 C8 1_555 1_555
C22 C23 1_555 1_555

#END
