
#######################################################################
#
#                 Cambridge Crystallographic Data Centre
#                                CCDC 
#
#######################################################################
#
# If this CIF has been generated from an entry in the Cambridge 
# Structural Database, then it will include bibliographic, chemical, 
# crystal, experimental, refinement or atomic coordinate data resulting 
# from the CCDC's data processing and validation procedures.
#
#######################################################################

data_NOGJUO
_chemical_formula_moiety         'C1 H6 N3 1+,C6 H4 N1 O5 S1 1-'
_chemical_name_systematic        'Guanidinium 2-nitrobenzenesulfonate'
_symmetry_cell_setting           triclinic
_symmetry_space_group_name_H-M   'P -1'
_symmetry_Int_Tables_number      2
_space_group_name_Hall           '-P 1'
loop_
_symmetry_equiv_pos_site_id
_symmetry_equiv_pos_as_xyz
1 x,y,z
2 -x,-y,-z
_cell_length_a                   7.2416(8)
_cell_length_b                   7.5908(9)
_cell_length_c                   12.1475(14)
_cell_angle_alpha                88.257(2)
_cell_angle_beta                 78.135(2)
_cell_angle_gamma                62.150(1)
_cell_volume                     576.122
_exptl_crystal_colour            colorless
_chemical_melting_point          129-135deg.C
_cell_formula_units_Z            2
loop_
_atom_site_label
_atom_site_type_symbol
_atom_site_fract_x
_atom_site_fract_y
_atom_site_fract_z
C1 C 0.3065(4) 0.2497(4) 0.3885(2)
N1 N 0.5119(3) 0.1490(4) 0.3914(2)
N2 N 0.2131(4) 0.4455(3) 0.3852(2)
N3 N 0.1932(4) 0.1537(4) 0.3918(2)
H1 H 0.5776(43) 0.2118(41) 0.3869(22)
H2 H 0.2830(46) 0.5050(43) 0.3811(23)
H3 H 0.0838(51) 0.5062(44) 0.3778(23)
H4 H 0.0612(49) 0.2174(42) 0.3885(23)
H5 H 0.2616(43) 0.0253(45) 0.3829(22)
H6 H 0.5723(46) 0.0174(48) 0.3801(23)
S1 S 0.3349(1) 0.4168(1) 0.6876(1)
O1 O 0.5660(2) 0.2936(2) 0.6565(1)
O2 O 0.2602(3) 0.6094(2) 0.6388(2)
O3 O 0.2183(3) 0.3133(2) 0.6686(1)
C2 C 0.2770(3) 0.4769(3) 0.8358(2)
C3 C 0.3713(4) 0.3407(3) 0.9119(2)
C4 C 0.3310(5) 0.3916(4) 1.0257(2)
C5 C 0.1823(5) 0.5852(4) 1.0672(2)
C6 C 0.0843(4) 0.7221(4) 0.9946(2)
C7 C 0.1330(4) 0.6709(4) 0.8800(2)
N4 N 0.5138(4) 0.1290(3) 0.8758(2)
O4 O 0.6914(4) 0.0546(3) 0.8930(3)
O5 O 0.4431(4) 0.0365(3) 0.8351(2)
H7 H 0.4025(45) 0.2634(44) 1.0770(25)
H8 H 0.1452(46) 0.6262(42) 1.1501(25)
H9 H -0.0114(49) 0.8565(48) 1.0242(25)
H10 H 0.0710(44) 0.7589(43) 0.8303(23)
loop_
_geom_bond_atom_site_label_1
_geom_bond_atom_site_label_2
_geom_bond_site_symmetry_1
_geom_bond_site_symmetry_2
C1 N1 1_555 1_555
N1 H1 1_555 1_555
N2 C1 1_555 1_555
N3 C1 1_555 1_555
S1 O1 1_555 1_555
O2 S1 1_555 1_555
O3 S1 1_555 1_555
C2 S1 1_555 1_555
C3 C2 1_555 1_555
C4 C3 1_555 1_555
C5 C4 1_555 1_555
C6 C5 1_555 1_555
C7 C2 1_555 1_555
N4 C3 1_555 1_555
O4 N4 1_555 1_555
O5 N4 1_555 1_555
H2 N2 1_555 1_555
H3 N2 1_555 1_555
H4 N3 1_555 1_555
H5 N3 1_555 1_555
H6 N1 1_555 1_555
H7 C4 1_555 1_555
H8 C5 1_555 1_555
H9 C6 1_555 1_555
H10 C7 1_555 1_555
C6 C7 1_555 1_555

#END
