
#######################################################################
#
#                 Cambridge Crystallographic Data Centre
#                                CCDC 
#
#######################################################################
#
# If this CIF has been generated from an entry in the Cambridge 
# Structural Database, then it will include bibliographic, chemical, 
# crystal, experimental, refinement or atomic coordinate data resulting 
# from the CCDC's data processing and validation procedures.
#
#######################################################################

data_NOGJIC
_chemical_formula_moiety         'C1 H6 N3 1+,C7 H7 O3 S1 1-'
_chemical_name_systematic        'Guanidinium toluene-3-sulfonate'
_symmetry_cell_setting           orthorhombic
_symmetry_space_group_name_H-M   'P n m a'
_symmetry_Int_Tables_number      62
_space_group_name_Hall           '-P 2ac 2n'
loop_
_symmetry_equiv_pos_site_id
_symmetry_equiv_pos_as_xyz
1 x,y,z
2 1/2-x,-y,1/2+z
3 1/2+x,1/2-y,1/2-z
4 -x,1/2+y,-z
5 -x,-y,-z
6 1/2+x,y,1/2-z
7 1/2-x,1/2+y,1/2+z
8 x,1/2-y,z
_cell_length_a                   17.410(8)
_cell_length_b                   7.595(6)
_cell_length_c                   8.613(4)
_cell_angle_alpha                90
_cell_angle_beta                 90
_cell_angle_gamma                90
_cell_volume                     1138.89
_chemical_melting_point          218-219deg.C
_cell_formula_units_Z            4
loop_
_atom_site_label
_atom_site_type_symbol
_atom_site_fract_x
_atom_site_fract_y
_atom_site_fract_z
S1 S 0.36907(8) 0.2500 0.6255
O1 O 0.3748(2) 0.0910(4) 0.5279(4)
O2 O 0.3005(2) 0.2500 0.7194(5)
C2 C 0.4493(3) 0.2500 0.7456(7)
C3 C 0.4404(3) 0.2500 0.9056(8)
C4 C 0.5021(4) 0.2500 1.0041(8)
C5 C 0.5761(4) 0.2500 0.935(1)
C6 C 0.5842(4) 0.2500 0.778(1)
C7 C 0.5222(4) 0.2500 0.6812(8)
C8 C 0.4931(5) 0.2500 1.1781(9)
H5 H 0.5289 0.2500 0.5717
H6 H 0.6344 0.2500 0.7344
H7 H 0.6205 0.2500 0.9988
H8 H 0.3899 0.2500 0.9473
O1G O 0.3748(2) 0.4090(4) 0.5279(4)
N1 N 0.2704(2) 0.4000(5) 0.2598(6)
N2 N 0.1830(3) 0.2500 0.1138(7)
C1 C 0.2403(3) 0.2500 0.2121(8)
H1 H 0.2515 0.5079 0.2242
H2 H 0.1627 0.3583 0.0763
H3 H 0.1613 0.1417 0.0797
H4 H 0.3126 0.3964 0.3318
N1G N 0.2704(2) 0.1000(5) 0.2598(6)
H1G H 0.2515 -0.0079 0.2242
H4G H 0.3126 0.1036 0.3318
H9? H 0.5379 0.2020 1.2245
H10? H 0.4858 0.3673 1.2133
H11? H 0.4498 0.1807 1.2056
loop_
_geom_bond_atom_site_label_1
_geom_bond_atom_site_label_2
_geom_bond_site_symmetry_1
_geom_bond_site_symmetry_2
S1 O1 1_555 1_555
O2 S1 1_555 1_555
N1 C1 1_555 1_555
N2 C1 1_555 1_555
C1 N1G 1_555 1_555
C2 S1 1_555 1_555
C3 C2 1_555 1_555
C4 C3 1_555 1_555
C5 C4 1_555 1_555
C6 C5 1_555 1_555
C7 C2 1_555 1_555
C8 C4 1_555 1_555
H1 N1 1_555 1_555
H2 N2 1_555 1_555
H3 N2 1_555 1_555
H4 N1 1_555 1_555
H5 C7 1_555 1_555
H6 C6 1_555 1_555
H7 C5 1_555 1_555
H8 C3 1_555 1_555
O1G S1 1_555 1_555
N1G H1G 1_555 1_555
H4G N1G 1_555 1_555
C6 C7 1_555 1_555

#END
