
#######################################################################
#
#                 Cambridge Crystallographic Data Centre
#                                CCDC 
#
#######################################################################
#
# If this CIF has been generated from an entry in the Cambridge 
# Structural Database, then it will include bibliographic, chemical, 
# crystal, experimental, refinement or atomic coordinate data resulting 
# from the CCDC's data processing and validation procedures.
#
#######################################################################

data_NOGKEZ
_chemical_formula_moiety         'C1 H6 N3 1+,C6 H3 N2 O7 S1 1-'
_chemical_name_systematic        'Guanidinium 2,4-dinitrobenzenesulfonate'
_symmetry_cell_setting           triclinic
_symmetry_space_group_name_H-M   'P -1'
_symmetry_Int_Tables_number      2
_space_group_name_Hall           '-P 1'
loop_
_symmetry_equiv_pos_site_id
_symmetry_equiv_pos_as_xyz
1 x,y,z
2 -x,-y,-z
_cell_length_a                   7.761(3)
_cell_length_b                   7.842(4)
_cell_length_c                   11.591(3)
_cell_angle_alpha                97.87(3)
_cell_angle_beta                 95.33(3)
_cell_angle_gamma                118.32(4)
_cell_volume                     605.003
_exptl_crystal_colour            'light tan'
_exptl_crystal_description       needles
_cell_formula_units_Z            2
loop_
_atom_site_label
_atom_site_type_symbol
_atom_site_fract_x
_atom_site_fract_y
_atom_site_fract_z
S1 S 0.7924(1) 0.2564(1) 0.21134(6)
O1 O 0.9637(3) 0.2350(3) 0.1978(2)
O2 O 0.6107(3) 0.0992(3) 0.1373(2)
O3 O 0.8262(3) 0.4538(3) 0.2084(2)
O4 O 0.4910(4) 0.3884(4) 0.3180(2)
O5 O 0.7204(4) 0.6375(3) 0.4458(2)
O6 O 0.8317(4) 0.0829(4) 0.7547(2)
O7 O 0.7013(4) 0.2712(4) 0.7809(2)
N1 N 0.6356(4) 0.4647(4) 0.3958(2)
N2 N 0.7638(4) 0.1814(4) 0.7196(2)
C1 C 0.7633(4) 0.2274(4) 0.3605(2)
C2 C 0.7081(4) 0.3372(4) 0.4377(2)
C3 C 0.7096(4) 0.3280(4) 0.5558(2)
C4 C 0.7597(4) 0.1955(4) 0.5944(2)
C5 C 0.8053(4) 0.0775(4) 0.5203(2)
C6 C 0.8096(4) 0.0957(4) 0.4039(2)
H1 H 0.6778 0.4089 0.6080
H2 H 0.8336 -0.0161 0.5488
H3 H 0.8450 0.0167 0.3528
N3 N 0.6463(4) 0.7161(4) 0.1115(2)
N4 N 0.7362(4) 0.8431(4) -0.0545(2)
N5 N 0.8447(4) 0.6427(4) 0.0069(2)
C7 C 0.7421(4) 0.7341(4) 0.0211(2)
H4 H 0.6523 0.6369 0.1652
H5 H 0.5719 0.7825 0.1226
H6 H 0.6624 0.9105 -0.0447
H7 H 0.8058 0.8543 -0.1188
H8 H 0.8501 0.5641 0.0611
H9 H 0.9137 0.6548 -0.0577
loop_
_geom_bond_atom_site_label_1
_geom_bond_atom_site_label_2
_geom_bond_site_symmetry_1
_geom_bond_site_symmetry_2
S1 O1 1_555 1_555
O2 S1 1_555 1_555
O3 S1 1_555 1_555
O4 N1 1_555 1_555
O5 N1 1_555 1_555
O6 N2 1_555 1_555
O7 N2 1_555 1_555
N1 C2 1_555 1_555
N2 C4 1_555 1_555
C1 S1 1_555 1_555
C2 C1 1_555 1_555
C3 C2 1_555 1_555
C4 C3 1_555 1_555
C5 C4 1_555 1_555
C6 C1 1_555 1_555
N3 C7 1_555 1_555
N4 C7 1_555 1_555
N5 C7 1_555 1_555
H1 C3 1_555 1_555
H2 C5 1_555 1_555
H3 C6 1_555 1_555
H4 N3 1_555 1_555
H5 N3 1_555 1_555
H6 N4 1_555 1_555
H7 N4 1_555 1_555
H8 N5 1_555 1_555
H9 N5 1_555 1_555
C5 C6 1_555 1_555

#END
