
#######################################################################
#
#                 Cambridge Crystallographic Data Centre
#                                CCDC 
#
#######################################################################
#
# If this CIF has been generated from an entry in the Cambridge 
# Structural Database, then it will include bibliographic, chemical, 
# crystal, experimental, refinement or atomic coordinate data resulting 
# from the CCDC's data processing and validation procedures.
#
#######################################################################

data_NOGKID
_chemical_formula_moiety         'C1 H6 N3 1+,C6 H3 N2 O7 S1 1-,H2 O1'
_chemical_name_systematic        
'Guanidinium 2,4-dinitrobenzenesulfonate monohydrate'
_symmetry_cell_setting           triclinic
_symmetry_space_group_name_H-M   'P -1'
_symmetry_Int_Tables_number      2
_space_group_name_Hall           '-P 1'
loop_
_symmetry_equiv_pos_site_id
_symmetry_equiv_pos_as_xyz
1 x,y,z
2 -x,-y,-z
_cell_length_a                   7.715(2)
_cell_length_b                   8.314(4)
_cell_length_c                   10.987(5)
_cell_angle_alpha                82.73(4)
_cell_angle_beta                 72.25(3)
_cell_angle_gamma                77.88(2)
_cell_volume                     654.743
_cell_formula_units_Z            2
loop_
_atom_site_label
_atom_site_type_symbol
_atom_site_fract_x
_atom_site_fract_y
_atom_site_fract_z
N1 N 0.7290(6) 0.7125(5) 0.9186(4)
N2 N 0.8395(6) 0.9522(5) 0.8592(4)
N3 N 0.5584(6) 0.9334(5) 0.8369(4)
C1 C 0.7073(7) 0.8666(5) 0.8725(4)
H1 H 0.6328 0.6501 0.9297
H2 H 0.4664 0.8717 0.8446
H3 H 0.5464 1.0454 0.8028
H4 H 0.8248 1.0637 0.8252
H5 H 0.9470 0.9029 0.8835
H6 H 0.8354 0.6631 0.9441
S1 S 0.6149(2) 0.3954(1) 0.7573(1)
O1 O 0.5028(4) 0.5411(4) 0.8192(3)
O2 O 0.7672(4) 0.3264(4) 0.8088(3)
O3 O 0.5099(4) 0.2752(3) 0.7484(3)
O4 O 0.8524(5) 0.1149(4) 0.5855(3)
O5 O 0.7078(6) 0.1319(4) 0.4426(4)
O6 O 0.8566(5) 0.8217(4) 0.1935(3)
O7 O 0.9159(5) 0.5766(4) 0.1276(3)
N4 N 0.7754(6) 0.1906(5) 0.5084(4)
N5 N 0.8680(5) 0.6731(5) 0.2120(4)
C2 C 0.7096(5) 0.4691(5) 0.5944(4)
C3 C 0.7676(6) 0.3720(5) 0.4906(4)
C4 C 0.8213(6) 0.4341(5) 0.3655(4)
C5 C 0.8186(6) 0.6033(5) 0.3463(4)
C6 C 0.7688(7) 0.7042(5) 0.4426(5)
C7 C 0.7117(6) 0.6370(5) 0.5683(4)
H7 H 0.8589 0.3653 0.2960
H8 H 0.7721 0.8186 0.4255
H9 H 0.6738 0.7072 0.6370
O8 O 0.1924(5) 0.7789(5) 0.9171(4)
H10 H 0.256(8) 0.698(7) 0.888(6)
loop_
_geom_bond_atom_site_label_1
_geom_bond_atom_site_label_2
_geom_bond_site_symmetry_1
_geom_bond_site_symmetry_2
N1 C1 1_555 1_555
N2 C1 1_555 1_555
N3 C1 1_555 1_555
H1 N1 1_555 1_555
H2 N3 1_555 1_555
H3 N3 1_555 1_555
H4 N2 1_555 1_555
H5 N2 1_555 1_555
H6 N1 1_555 1_555
S1 O1 1_555 1_555
O2 S1 1_555 1_555
O3 S1 1_555 1_555
O4 N4 1_555 1_555
O5 N4 1_555 1_555
O6 N5 1_555 1_555
O7 N5 1_555 1_555
N4 C3 1_555 1_555
N5 C5 1_555 1_555
C2 S1 1_555 1_555
C3 C2 1_555 1_555
C4 C3 1_555 1_555
C5 C4 1_555 1_555
C6 C5 1_555 1_555
C7 C2 1_555 1_555
H7 C4 1_555 1_555
H8 C6 1_555 1_555
H9 C7 1_555 1_555
O8 H10 1_555 1_555
C6 C7 1_555 1_555

#END
