
#######################################################################
#
#                 Cambridge Crystallographic Data Centre
#                                CCDC 
#
#######################################################################
#
# If this CIF has been generated from an entry in the Cambridge 
# Structural Database, then it will include bibliographic, chemical, 
# crystal, experimental, refinement or atomic coordinate data resulting 
# from the CCDC's data processing and validation procedures.
#
#######################################################################

data_NOGPEE
_chemical_formula_moiety         'C18 H21 F2 N1 Si1'
_chemical_name_systematic        N-t-Butyl-difluoro-dibenzosilazocine
_symmetry_cell_setting           orthorhombic
_symmetry_space_group_name_H-M   'P b c a'
_symmetry_Int_Tables_number      61
_space_group_name_Hall           '-P 2ac 2ab'
loop_
_symmetry_equiv_pos_site_id
_symmetry_equiv_pos_as_xyz
1 x,y,z
2 1/2-x,-y,1/2+z
3 1/2+x,1/2-y,-z
4 -x,1/2+y,1/2-z
5 -x,-y,-z
6 1/2+x,y,1/2-z
7 1/2-x,1/2+y,z
8 x,1/2-y,1/2+z
_cell_length_a                   24.671(5)
_cell_length_b                   15.159(3)
_cell_length_c                   17.818(4)
_cell_angle_alpha                90
_cell_angle_beta                 90
_cell_angle_gamma                90
_cell_volume                     6663.71
_exptl_crystal_colour            colorless
_exptl_crystal_description       needles
_cell_formula_units_Z            16
loop_
_atom_site_label
_atom_site_type_symbol
_atom_site_fract_x
_atom_site_fract_y
_atom_site_fract_z
Si1 Si 0.6556(1) 0.2940(2) 0.9646(1)
F1 F 0.6236(2) 0.2040(3) 0.9766(3)
F2 F 0.6075(2) 0.3581(3) 0.9937(3)
N1 N 0.7287(2) 0.2029(4) 0.9209(4)
C1 C 0.6619(3) 0.3335(5) 0.8666(4)
C2 C 0.6972(3) 0.2930(6) 0.8155(5)
C3 C 0.7057(4) 0.3300(6) 0.7456(5)
C4 C 0.6774(4) 0.4051(6) 0.7249(6)
C5 C 0.6426(3) 0.4437(6) 0.7720(5)
C6 C 0.6337(3) 0.4096(6) 0.8435(5)
C7 C 0.7247(3) 0.2082(5) 0.8376(4)
C8 C 0.7084(3) 0.3218(5) 1.0345(5)
C9 C 0.7617(3) 0.3013(5) 1.0200(5)
C10 C 0.8033(4) 0.3234(6) 1.0702(6)
C11 C 0.7883(4) 0.3690(6) 1.1361(6)
C12 C 0.7367(4) 0.3903(6) 1.1500(5)
C13 C 0.6953(4) 0.3684(6) 1.1017(5)
C14 C 0.7745(3) 0.2582(5) 0.9463(5)
C15 C 0.7343(4) 0.1063(6) 0.9459(5)
C16 C 0.7858(4) 0.0658(7) 0.9128(6)
C17 C 0.6862(4) 0.0507(6) 0.9211(6)
C18 C 0.7382(4) 0.1037(6) 1.0317(5)
H1 H 0.7342 0.3003 0.7072
H2 H 0.6836 0.4328 0.6697
H3 H 0.6210 0.5022 0.7544
H4 H 0.6054 0.4412 0.8811
H5 H 0.7648 0.2064 0.8134
H6 H 0.7013 0.1531 0.8168
H7 H 0.8450 0.3062 1.0590
H8 H 0.8193 0.3872 1.1760
H9 H 0.7271 0.4259 1.2009
H10 H 0.6538 0.3861 1.1143
H11 H 0.8100 0.2173 0.9526
H12 H 0.7822 0.3086 0.9048
H13 H 0.8249 0.0935 0.9267
H14 H 0.7818 0.0617 0.8525
H15 H 0.7824 0.0006 0.9367
H16 H 0.6462 0.0789 0.9270
H17 H 0.6875 -0.0124 0.9492
H18 H 0.6952 0.0417 0.8623
H19 H 0.7732 0.1389 1.0524
H20 H 0.7398 0.0360 1.0505
H21 H 0.7017 0.1345 1.0528
Si2 Si 0.4099(1) 0.2251(2) 1.2365(2)
F3 F 0.3945(2) 0.3270(3) 1.2337(3)
F4 F 0.3502(2) 0.1883(4) 1.2164(3)
N2 N 0.5012(2) 0.2791(4) 1.2671(4)
C19 C 0.4482(3) 0.1821(5) 1.1562(5)
C20 C 0.5043(3) 0.1776(5) 1.1598(5)
C21 C 0.5354(4) 0.1431(5) 1.1010(5)
C22 C 0.5083(4) 0.1114(6) 1.0373(5)
C23 C 0.4532(4) 0.1134(6) 1.0331(6)
C24 C 0.4223(4) 0.1480(5) 1.0916(5)
C25 C 0.5321(3) 0.2076(5) 1.2307(4)
C26 C 0.4200(3) 0.1767(5) 1.3302(5)
C27 C 0.4652(3) 0.1965(6) 1.3740(5)
C28 C 0.4733(4) 0.1530(6) 1.4430(6)
C29 C 0.4374(4) 0.0908(6) 1.4679(6)
C30 C 0.3922(4) 0.0712(6) 1.4263(5)
C31 C 0.3832(4) 0.1131(6) 1.3581(5)
C32 C 0.5036(3) 0.2666(5) 1.3496(5)
C33 C 0.5225(4) 0.3697(6) 1.2457(5)
C34 C 0.5819(4) 0.3824(6) 1.2670(6)
C35 C 0.5159(4) 0.3791(7) 1.1602(5)
C36 C 0.4895(4) 0.4420(6) 1.2844(6)
H22 H 0.5791 0.1410 1.1046
H23 H 0.5315 0.0849 0.9911
H24 H 0.4332 0.0880 0.9837
H25 H 0.3786 0.1487 1.0876
H26 H 0.5722 0.2312 1.2171
H27 H 0.5351 0.1525 1.2690
H28 H 0.5084 0.1689 1.4766
H29 H 0.4446 0.0571 1.5204
H30 H 0.3635 0.0230 1.4466
H31 H 0.3475 0.0969 1.3258
H32 H 0.5443 0.2478 1.3654
H33 H 0.4931 0.3278 1.3770
H34 H 0.6106 0.3409 1.2379
H35 H 0.5866 0.3738 1.3268
H36 H 0.5892 0.4505 1.2525
H37 H 0.5275 0.4473 1.1532
H38 H 0.4734 0.3715 1.1471
H39 H 0.5397 0.3384 1.1130
H40 H 0.4462 0.4318 1.2851
H41 H 0.4989 0.4992 1.2507
H42 H 0.5039 0.4521 1.3410
loop_
_geom_bond_atom_site_label_1
_geom_bond_atom_site_label_2
_geom_bond_site_symmetry_1
_geom_bond_site_symmetry_2
Si1 F1 1_555 1_555
F2 Si1 1_555 1_555
N1 Si1 1_555 1_555
C1 Si1 1_555 1_555
C2 C1 1_555 1_555
C3 C2 1_555 1_555
C4 C3 1_555 1_555
C5 C4 1_555 1_555
C6 C1 1_555 1_555
C7 N1 1_555 1_555
C8 Si1 1_555 1_555
C9 C8 1_555 1_555
C10 C9 1_555 1_555
C11 C10 1_555 1_555
C12 C11 1_555 1_555
C13 C8 1_555 1_555
C14 N1 1_555 1_555
C15 N1 1_555 1_555
C16 C15 1_555 1_555
C17 C15 1_555 1_555
C18 C15 1_555 1_555
H1 C3 1_555 1_555
H2 C4 1_555 1_555
H3 C5 1_555 1_555
H4 C6 1_555 1_555
H5 C7 1_555 1_555
H6 C7 1_555 1_555
H7 C10 1_555 1_555
H8 C11 1_555 1_555
H9 C12 1_555 1_555
H10 C13 1_555 1_555
H11 C14 1_555 1_555
H12 C14 1_555 1_555
H13 C16 1_555 1_555
H14 C16 1_555 1_555
H15 C16 1_555 1_555
H16 C17 1_555 1_555
H17 C17 1_555 1_555
H18 C17 1_555 1_555
H19 C18 1_555 1_555
H20 C18 1_555 1_555
H21 C18 1_555 1_555
Si2 F3 1_555 1_555
F4 Si2 1_555 1_555
N2 Si2 1_555 1_555
C19 Si2 1_555 1_555
C20 C19 1_555 1_555
C21 C20 1_555 1_555
C22 C21 1_555 1_555
C23 C22 1_555 1_555
C24 C19 1_555 1_555
C25 N2 1_555 1_555
C26 Si2 1_555 1_555
C27 C26 1_555 1_555
C28 C27 1_555 1_555
C29 C28 1_555 1_555
C30 C29 1_555 1_555
C31 C26 1_555 1_555
C32 N2 1_555 1_555
C33 N2 1_555 1_555
C34 C33 1_555 1_555
C35 C33 1_555 1_555
C36 C33 1_555 1_555
H22 C21 1_555 1_555
H23 C22 1_555 1_555
H24 C23 1_555 1_555
H25 C24 1_555 1_555
H26 C25 1_555 1_555
H27 C25 1_555 1_555
H28 C28 1_555 1_555
H29 C29 1_555 1_555
H30 C30 1_555 1_555
H31 C31 1_555 1_555
H32 C32 1_555 1_555
H33 C32 1_555 1_555
H34 C34 1_555 1_555
H35 C34 1_555 1_555
H36 C34 1_555 1_555
H37 C35 1_555 1_555
H38 C35 1_555 1_555
H39 C35 1_555 1_555
H40 C36 1_555 1_555
H41 C36 1_555 1_555
H42 C36 1_555 1_555
C2 C7 1_555 1_555
C5 C6 1_555 1_555
C9 C14 1_555 1_555
C12 C13 1_555 1_555
C20 C25 1_555 1_555
C23 C24 1_555 1_555
C27 C32 1_555 1_555
C30 C31 1_555 1_555

#END
