
#######################################################################
#
#                 Cambridge Crystallographic Data Centre
#                                CCDC 
#
#######################################################################
#
# If this CIF has been generated from an entry in the Cambridge 
# Structural Database, then it will include bibliographic, chemical, 
# crystal, experimental, refinement or atomic coordinate data resulting 
# from the CCDC's data processing and validation procedures.
#
#######################################################################

data_NOGSAF
_chemical_formula_moiety         'C64 H40 N4 O4'
_chemical_name_systematic        
'6,13,31,38-Tetraoxa-25,50,57,68-tetra-azaundecacyclo[41.7.7.7^18,26^.2^2,5^.2^14,17^.2^27,30^.2^39,42^.0^19,24^.0^44,49^.0^51,56^.0^62,67^]doheptaconta-1(50),2,4,14,16,18(68),19,21,23,25,27,29,39,41,43(57),44,46,48,51,53,55,58,60,62,64,66,69,71-octacosaene-8,10,33,35-tetrayne unknown solvate'
_symmetry_cell_setting           monoclinic
_symmetry_space_group_name_H-M   'C 2/c'
_symmetry_Int_Tables_number      15
_space_group_name_Hall           '-C 2yn'
loop_
_symmetry_equiv_pos_site_id
_symmetry_equiv_pos_as_xyz
1 x,y,z
2 -x,y,1/2-z
3 1/2+x,1/2+y,z
4 1/2-x,1/2+y,1/2-z
5 -x,-y,-z
6 x,-y,1/2+z
7 1/2-x,1/2-y,-z
8 1/2+x,1/2-y,1/2+z
_cell_length_a                   42.803(4)
_cell_length_b                   22.569(2)
_cell_length_c                   16.0958(18)
_cell_angle_alpha                90
_cell_angle_beta                 102.924(2)
_cell_angle_gamma                90
_cell_volume                     15155
_cell_formula_units_Z            8
loop_
_atom_site_label
_atom_site_type_symbol
_atom_site_fract_x
_atom_site_fract_y
_atom_site_fract_z
C1 C 0.11552(9) 0.08069(19) 0.3095(2)
C2 C 0.09542(9) 0.07630(17) 0.1504(3)
H1 H 0.1160 0.0625 0.1462
C3 C 0.07171(10) 0.08175(18) 0.0774(2)
H2 H 0.0758 0.0717 0.0235
C4 C 0.04199(10) 0.10193(19) 0.0832(3)
H3 H 0.0254 0.1057 0.0332
C5 C 0.03617(9) 0.11664(18) 0.1611(2)
H4 H 0.0157 0.1315 0.1643
C6 C 0.05255(8) 0.0932(2) 0.3719(2)
C7 C 0.03133(9) -0.0122(2) 0.3572(2)
H5 H 0.0110 0.0022 0.3622
C8 C 0.03541(10) -0.0711(2) 0.3454(2)
H6 H 0.0176 -0.0971 0.3399
C9 C 0.06476(11) -0.0934(2) 0.3414(2)
H7 H 0.0676 -0.1346 0.3343
C10 C 0.08993(10) -0.0548(2) 0.3478(2)
H8 H 0.1105 -0.0701 0.3464
C11 C 0.09015(9) 0.09039(17) 0.2302(2)
C12 C 0.05979(9) 0.11013(16) 0.2353(2)
C13 C 0.08648(9) 0.0048(2) 0.3563(2)
C14 C 0.05701(9) 0.02761(19) 0.3621(2)
C15 C 0.20354(13) 0.1760(3) 0.3451(4)
C16 C 0.17856(14) 0.1919(2) 0.2798(4)
H9 H 0.1811 0.2229 0.2421
C17 C 0.14966(11) 0.1624(2) 0.2692(3)
H10 H 0.1322 0.1747 0.2251
C18 C 0.14544(10) 0.1160(2) 0.3203(3)
C19 C 0.17156(11) 0.1010(2) 0.3838(3)
H11 H 0.1696 0.0690 0.4206
C20 C 0.20056(11) 0.1308(2) 0.3962(3)
H12 H 0.2181 0.1192 0.4406
C21 C 0.25793(14) 0.1928(3) 0.4197(4)
H13 H 0.2522 0.2012 0.4747
H14 H 0.2632 0.1502 0.4178
C22 C 0.28537(14) 0.2290(3) 0.4109(4)
C23 C 0.30723(14) 0.2580(3) 0.4013(4)
C24 C 0.03823(9) 0.1607(3) 0.6082(3)
C25 C 0.03689(10) 0.1984(2) 0.5399(3)
H15 H 0.0333 0.2396 0.5451
C26 C 0.04094(9) 0.1747(2) 0.4634(3)
H16 H 0.0398 0.2003 0.4160
C27 C 0.04648(8) 0.1154(2) 0.4538(3)
C28 C 0.04730(8) 0.0792(2) 0.5244(3)
H17 H 0.0511 0.0380 0.5198
C29 C 0.04282(9) 0.1014(2) 0.6006(3)
H18 H 0.0429 0.0757 0.6473
C30 C 0.03611(14) 0.2415(3) 0.7038(3)
H19 H 0.0307 0.2478 0.7599
H20 H 0.0194 0.2615 0.6604
C31 C 0.0679(2) 0.2713(3) 0.7052(4)
C32 C 0.0930(2) 0.2954(3) 0.7041(5)
C33 C 0.30323(12) 0.5821(2) 0.4174(3)
C34 C 0.34520(14) 0.6554(3) 0.4882(4)
H21 H 0.3525 0.6569 0.4367
C35 C 0.36029(13) 0.6875(3) 0.5555(4)
H22 H 0.3778 0.7125 0.5516
C36 C 0.34989(16) 0.6834(3) 0.6302(4)
H23 H 0.3604 0.7065 0.6776
C37 C 0.32443(14) 0.6466(3) 0.6393(4)
H24 H 0.3181 0.6434 0.6920
C38 C 0.25716(15) 0.5793(3) 0.5426(3)
C39 C 0.22411(13) 0.6680(3) 0.5021(3)
H25 H 0.2174 0.6639 0.5542
C40 C 0.21303(13) 0.7160(3) 0.4481(4)
H26 H 0.1991 0.7447 0.4632
C41 C 0.22324(14) 0.7206(3) 0.3701(4)
H27 H 0.2157 0.7523 0.3321
C42 C 0.24315(13) 0.6809(3) 0.3501(4)
H28 H 0.2493 0.6846 0.2972
C43 C 0.31869(13) 0.6194(2) 0.4931(3)
C44 C 0.30900(13) 0.6151(2) 0.5684(3)
C45 C 0.25539(12) 0.6341(3) 0.4036(3)
C46 C 0.24479(12) 0.6265(3) 0.4798(4)
C47 C 0.35468(12) 0.4439(2) 0.3376(3)
C48 C 0.35951(11) 0.4587(2) 0.4224(3)
H29 H 0.3744 0.4368 0.4637
C49 C 0.34322(11) 0.5042(2) 0.4473(3)
H30 H 0.3466 0.5135 0.5062
C50 C 0.32204(11) 0.5369(2) 0.3898(3)
C51 C 0.31766(10) 0.5211(2) 0.3033(3)
H31 H 0.3025 0.5419 0.2614
C52 C 0.33484(12) 0.4766(3) 0.2791(3)
H32 H 0.3328 0.4684 0.2203
C53 C 0.38115(11) 0.3524(2) 0.3590(3)
H33 H 0.3946 0.3668 0.4135
H34 H 0.3945 0.3261 0.3320
C54 C 0.35372(13) 0.3178(2) 0.3768(3)
C55 C 0.33182(14) 0.2908(3) 0.3870(4)
C56 C 0.18942(18) 0.4538(4) 0.6029(5)
C57 C 0.21996(18) 0.4593(3) 0.6552(4)
H35 H 0.2262 0.4364 0.7057
C58 C 0.24168(14) 0.5002(3) 0.6308(4)
H36 H 0.2628 0.5029 0.6649
C59 C 0.23323(15) 0.5358(3) 0.5599(3)
C60 C 0.20349(16) 0.5303(3) 0.5122(4)
H37 H 0.1972 0.5550 0.4636
C61 C 0.18118(16) 0.4896(4) 0.5310(4)
H38 H 0.1605 0.4865 0.4946
C62 C 0.17133(19) 0.3833(4) 0.7043(6)
H39 H 0.1899 0.3562 0.7101
H40 H 0.1759 0.4119 0.7522
C63 C 0.1441(2) 0.3514(4) 0.7064(6)
C64 C 0.1223(2) 0.3254(3) 0.7074(5)
N1 N 0.11350(7) 0.04250(15) 0.36590(19)
N2 N 0.05340(7) 0.13022(14) 0.3137(2)
N3 N 0.27404(11) 0.59141(18) 0.3770(2)
N4 N 0.28627(12) 0.5746(2) 0.5826(2)
O1 O 0.23121(9) 0.20797(18) 0.3487(3)
O2 O 0.03473(7) 0.18007(16) 0.68619(18)
O3 O 0.37105(8) 0.40048(17) 0.3058(2)
O4 O 0.16628(11) 0.4150(2) 0.6232(4)
loop_
_geom_bond_atom_site_label_1
_geom_bond_atom_site_label_2
_geom_bond_site_symmetry_1
_geom_bond_site_symmetry_2
C1 C11 1_555 1_555
C2 H1 1_555 1_555
C3 C2 1_555 1_555
H2 C3 1_555 1_555
C4 C3 1_555 1_555
H3 C4 1_555 1_555
C5 C4 1_555 1_555
H4 C5 1_555 1_555
C6 C14 1_555 1_555
C7 H5 1_555 1_555
C8 C7 1_555 1_555
H6 C8 1_555 1_555
C9 C8 1_555 1_555
H7 C9 1_555 1_555
C10 C9 1_555 1_555
H8 C10 1_555 1_555
C11 C2 1_555 1_555
C12 C5 1_555 1_555
C13 C10 1_555 1_555
C14 C7 1_555 1_555
C15 C16 1_555 1_555
C16 H9 1_555 1_555
C17 C16 1_555 1_555
H10 C17 1_555 1_555
C18 C1 1_555 1_555
C19 C18 1_555 1_555
H11 C19 1_555 1_555
C20 C15 1_555 1_555
H12 C20 1_555 1_555
C21 H13 1_555 1_555
H14 C21 1_555 1_555
C22 C21 1_555 1_555
C23 C22 1_555 1_555
C24 C25 1_555 1_555
C25 H15 1_555 1_555
C26 C25 1_555 1_555
H16 C26 1_555 1_555
C27 C6 1_555 1_555
C28 C27 1_555 1_555
H17 C28 1_555 1_555
C29 C24 1_555 1_555
H18 C29 1_555 1_555
C30 H19 1_555 1_555
H20 C30 1_555 1_555
C31 C30 1_555 1_555
C32 C31 1_555 1_555
C33 C43 1_555 1_555
C34 H21 1_555 1_555
C35 C34 1_555 1_555
H22 C35 1_555 1_555
C36 C35 1_555 1_555
H23 C36 1_555 1_555
C37 C36 1_555 1_555
H24 C37 1_555 1_555
C38 C46 1_555 1_555
C39 H25 1_555 1_555
C40 C39 1_555 1_555
H26 C40 1_555 1_555
C41 C40 1_555 1_555
H27 C41 1_555 1_555
C42 C41 1_555 1_555
H28 C42 1_555 1_555
C43 C34 1_555 1_555
C44 C37 1_555 1_555
C45 C42 1_555 1_555
C46 C39 1_555 1_555
C47 C48 1_555 1_555
C48 H29 1_555 1_555
C49 C48 1_555 1_555
H30 C49 1_555 1_555
C50 C33 1_555 1_555
C51 C50 1_555 1_555
H31 C51 1_555 1_555
C52 C47 1_555 1_555
H32 C52 1_555 1_555
C53 H33 1_555 1_555
H34 C53 1_555 1_555
C54 C53 1_555 1_555
C55 C23 1_555 1_555
C56 C57 1_555 1_555
C57 H35 1_555 1_555
C58 C57 1_555 1_555
H36 C58 1_555 1_555
C59 C38 1_555 1_555
C60 C59 1_555 1_555
H37 C60 1_555 1_555
C61 C56 1_555 1_555
H38 C61 1_555 1_555
C62 H39 1_555 1_555
H40 C62 1_555 1_555
C63 C62 1_555 1_555
C64 C32 1_555 1_555
N1 C1 1_555 1_555
N2 C6 1_555 1_555
N3 C33 1_555 1_555
N4 C38 1_555 1_555
O1 C15 1_555 1_555
O2 C24 1_555 1_555
O3 C47 1_555 1_555
O4 C56 1_555 1_555
C11 C12 1_555 1_555
C12 N2 1_555 1_555
C13 C14 1_555 1_555
C13 N1 1_555 1_555
C17 C18 1_555 1_555
C19 C20 1_555 1_555
C21 O1 1_555 1_555
C26 C27 1_555 1_555
C28 C29 1_555 1_555
C30 O2 1_555 1_555
C43 C44 1_555 1_555
C44 N4 1_555 1_555
C45 C46 1_555 1_555
C45 N3 1_555 1_555
C49 C50 1_555 1_555
C51 C52 1_555 1_555
C53 O3 1_555 1_555
C54 C55 1_555 1_555
C58 C59 1_555 1_555
C60 C61 1_555 1_555
C62 O4 1_555 1_555
C63 C64 1_555 1_555

#END
