
#######################################################################
#
#                 Cambridge Crystallographic Data Centre
#                                CCDC 
#
#######################################################################
#
# If this CIF has been generated from an entry in the Cambridge 
# Structural Database, then it will include bibliographic, chemical, 
# crystal, experimental, refinement or atomic coordinate data resulting 
# from the CCDC's data processing and validation procedures.
#
#######################################################################

data_NOGVAI
_chemical_formula_moiety         'C23 H16 O2'
_chemical_name_systematic        
17-Phenyltetracyclo[7.7.1.0^2,7^.0^10,15^]heptadeca-2,4,6,10,12,14-hexaene-8,16-dione
_symmetry_cell_setting           tetragonal
_symmetry_space_group_name_H-M   'I 41 c d'
_symmetry_Int_Tables_number      110
_space_group_name_Hall           'I 4bw -2c'
loop_
_symmetry_equiv_pos_site_id
_symmetry_equiv_pos_as_xyz
1 x,y,z
2 1/2-x,1/2-y,1/2+z
3 -y,1/2+x,1/4+z
4 1/2+y,-x,3/4+z
5 x,-y,1/2+z
6 1/2-x,1/2+y,z
7 -y,1/2-x,3/4+z
8 1/2+y,x,1/4+z
9 1/2+x,1/2+y,1/2+z
10 -x,-y,z
11 1/2-y,x,3/4+z
12 y,1/2-x,1/4+z
13 1/2+x,1/2-y,z
14 -x,y,1/2+z
15 1/2-y,-x,1/4+z
16 y,1/2+x,3/4+z
_cell_length_a                   21.608(4)
_cell_length_b                   21.608(4)
_cell_length_c                   14.186(2)
_cell_angle_alpha                90
_cell_angle_beta                 90
_cell_angle_gamma                90
_cell_volume                     6623.52
_exptl_crystal_colour            colorless
_exptl_crystal_description       prism
_cell_formula_units_Z            16
loop_
_atom_site_label
_atom_site_type_symbol
_atom_site_fract_x
_atom_site_fract_y
_atom_site_fract_z
O1 O 0.67981(9) 0.56163(9) 0.94160(13)
O2 O 0.57246(10) 0.57662(11) 0.55651(15)
C1 C 0.62209(12) 0.47731(10) 0.74227(18)
H1 H 0.5835 0.4562 0.7253
C2 C 0.60936(11) 0.51703(11) 0.82956(16)
H2 H 0.5962 0.4905 0.8819
C3 C 0.66719(11) 0.55293(11) 0.85793(18)
C4 C 0.70596(11) 0.57758(11) 0.78088(17)
C5 C 0.75561(11) 0.61694(12) 0.8021(2)
H3 H 0.7643 0.6268 0.8645
C6 C 0.79161(13) 0.64112(15) 0.7308(2)
H4 H 0.8239 0.6681 0.7449
C7 C 0.77960(13) 0.62523(14) 0.6388(2)
H5 H 0.8043 0.6412 0.5910
C8 C 0.73134(12) 0.58590(12) 0.6164(2)
H6 H 0.7239 0.5755 0.5538
C9 C 0.69375(11) 0.56182(11) 0.68735(17)
C10 C 0.63902(11) 0.52131(11) 0.66139(17)
H7 H 0.6494 0.4969 0.6053
C11 C 0.58515(12) 0.56374(13) 0.63879(19)
C12 C 0.54986(11) 0.58919(12) 0.71933(18)
C13 C 0.50678(13) 0.63666(12) 0.7044(2)
H8 H 0.5006 0.6521 0.6440
C14 C 0.47381(13) 0.66036(13) 0.7784(2)
H9 H 0.4463 0.6928 0.7685
C15 C 0.48138(13) 0.63612(13) 0.8679(3)
H10 H 0.4578 0.6513 0.9176
C16 C 0.52401(12) 0.58930(13) 0.8839(2)
H11 H 0.5291 0.5735 0.9444
C17 C 0.55938(11) 0.56575(11) 0.80974(19)
C18 C 0.67197(12) 0.42804(11) 0.75558(18)
C19 C 0.69898(16) 0.41483(14) 0.8411(2)
H12 H 0.6860 0.4359 0.8947
C20 C 0.74517(17) 0.37080(15) 0.8487(3)
H13 H 0.7625 0.3627 0.9074
C21 C 0.76569(16) 0.33924(15) 0.7724(2)
H14 H 0.7974 0.3104 0.7778
C22 C 0.73860(17) 0.35087(17) 0.6869(3)
H15 H 0.7514 0.3291 0.6338
C23 C 0.69224(16) 0.39491(15) 0.6789(2)
H16 H 0.6744 0.4022 0.6203
loop_
_geom_bond_atom_site_label_1
_geom_bond_atom_site_label_2
_geom_bond_site_symmetry_1
_geom_bond_site_symmetry_2
O1 C3 1_555 1_555
O2 C11 1_555 1_555
C1 H1 1_555 1_555
C2 C1 1_555 1_555
H2 C2 1_555 1_555
C3 C2 1_555 1_555
C4 C3 1_555 1_555
C5 C4 1_555 1_555
H3 C5 1_555 1_555
C6 C5 1_555 1_555
H4 C6 1_555 1_555
C7 C6 1_555 1_555
H5 C7 1_555 1_555
C8 C7 1_555 1_555
H6 C8 1_555 1_555
C9 C4 1_555 1_555
C10 C1 1_555 1_555
H7 C10 1_555 1_555
C11 C10 1_555 1_555
C12 C11 1_555 1_555
C13 C12 1_555 1_555
H8 C13 1_555 1_555
C14 C13 1_555 1_555
H9 C14 1_555 1_555
C15 C14 1_555 1_555
H10 C15 1_555 1_555
C16 C15 1_555 1_555
H11 C16 1_555 1_555
C17 C2 1_555 1_555
C18 C1 1_555 1_555
C19 C18 1_555 1_555
H12 C19 1_555 1_555
C20 C19 1_555 1_555
H13 C20 1_555 1_555
C21 C20 1_555 1_555
H14 C21 1_555 1_555
C22 C21 1_555 1_555
H15 C22 1_555 1_555
C23 C18 1_555 1_555
H16 C23 1_555 1_555
C8 C9 1_555 1_555
C9 C10 1_555 1_555
C12 C17 1_555 1_555
C16 C17 1_555 1_555
C22 C23 1_555 1_555

#END
