
#######################################################################
#
#                 Cambridge Crystallographic Data Centre
#                                CCDC 
#
#######################################################################
#
# If this CIF has been generated from an entry in the Cambridge 
# Structural Database, then it will include bibliographic, chemical, 
# crystal, experimental, refinement or atomic coordinate data resulting 
# from the CCDC's data processing and validation procedures.
#
#######################################################################

data_NOHMOM
_chemical_formula_moiety         'C20 H16 O2'
_chemical_name_systematic        
cis-4,7-Diphenyl-1,3,4,7-tetrahydroisobenzofuranone
_symmetry_cell_setting           monoclinic
_symmetry_space_group_name_H-M   'P 21/c'
_symmetry_Int_Tables_number      14
_space_group_name_Hall           '-P 2ybc'
loop_
_symmetry_equiv_pos_site_id
_symmetry_equiv_pos_as_xyz
1 x,y,z
2 -x,1/2+y,1/2-z
3 -x,-y,-z
4 x,1/2-y,1/2+z
_cell_length_a                   9.128(7)
_cell_length_b                   14.800(2)
_cell_length_c                   11.803(2)
_cell_angle_alpha                90
_cell_angle_beta                 106.52(2)
_cell_angle_gamma                90
_cell_volume                     1528.7
_exptl_crystal_colour            colorless
_exptl_crystal_description       needles
_chemical_melting_point          120-122deg.C
_cell_formula_units_Z            4
loop_
_atom_site_label
_atom_site_type_symbol
_atom_site_fract_x
_atom_site_fract_y
_atom_site_fract_z
O1 O 0.5433(2) 0.2857(1) 0.6669(1)
O2 O 0.4653(2) 0.2142(1) 0.8059(1)
C1 C 0.4791(3) 0.2892(2) 0.7433(2)
C2 C 0.3933(3) 0.2391(2) 0.8956(2)
C3 C 0.3654(3) 0.3380(2) 0.8788(2)
C4 C 0.2996(3) 0.3967(2) 0.9543(2)
C5 C 0.2866(3) 0.4920(2) 0.9073(3)
C6 C 0.3277(3) 0.5192(2) 0.8144(3)
C7 C 0.3955(3) 0.4597(2) 0.7392(2)
C8 C 0.4101(3) 0.3657(2) 0.7874(2)
C9 C 0.3030(3) 0.4645(2) 0.6094(2)
C10 C 0.3353(3) 0.5289(2) 0.5352(3)
C11 C 0.2495(4) 0.5353(2) 0.4184(3)
C12 C 0.1295(3) 0.4788(2) 0.3740(2)
C13 C 0.0940(3) 0.4154(2) 0.4462(2)
C14 C 0.1800(3) 0.4082(2) 0.5628(2)
C15 C 0.1491(3) 0.3622(2) 0.9685(2)
C16 C 0.1280(3) 0.3499(2) 1.0788(2)
C17 C -0.0080(5) 0.3177(2) 1.0909(3)
C18 C -0.1247(4) 0.2972(2) 0.9929(4)
C19 C -0.1066(3) 0.3099(2) 0.8826(3)
C20 C 0.0292(3) 0.3425(2) 0.8706(2)
H1 H 0.3021 0.2075 0.8869
H2 H 0.4619 0.2281 0.9728
H3 H 0.3719 0.3981 1.0310
H4 H 0.2469 0.5370 0.9477
H5 H 0.3110 0.5814 0.7927
H6 H 0.4941 0.4824 0.7460
H7 H 0.4186 0.5689 0.5652
H8 H 0.2739 0.5800 0.3682
H9 H 0.0712 0.4828 0.2928
H10 H 0.0095 0.3763 0.4166
H11 H 0.1533 0.3642 0.6126
H12 H 0.2085 0.3641 1.1478
H13 H -0.0202 0.3101 1.1690
H14 H -0.2184 0.2742 1.0021
H15 H -0.1890 0.2956 0.8147
H16 H 0.0407 0.3514 0.7934
loop_
_geom_bond_atom_site_label_1
_geom_bond_atom_site_label_2
_geom_bond_site_symmetry_1
_geom_bond_site_symmetry_2
O1 C1 1_555 1_555
O2 C1 1_555 1_555
C1 C8 1_555 1_555
C2 O2 1_555 1_555
C3 C2 1_555 1_555
C4 C3 1_555 1_555
C5 C4 1_555 1_555
C6 C5 1_555 1_555
C7 C6 1_555 1_555
C8 C3 1_555 1_555
C9 C7 1_555 1_555
C10 C9 1_555 1_555
C11 C10 1_555 1_555
C12 C11 1_555 1_555
C13 C12 1_555 1_555
C14 C9 1_555 1_555
C15 C4 1_555 1_555
C16 C15 1_555 1_555
C17 C16 1_555 1_555
C18 C17 1_555 1_555
C19 C18 1_555 1_555
C20 C15 1_555 1_555
H1 C2 1_555 1_555
H2 C2 1_555 1_555
H3 C4 1_555 1_555
H4 C5 1_555 1_555
H5 C6 1_555 1_555
H6 C7 1_555 1_555
H7 C10 1_555 1_555
H8 C11 1_555 1_555
H9 C12 1_555 1_555
H10 C13 1_555 1_555
H11 C14 1_555 1_555
H12 C16 1_555 1_555
H13 C17 1_555 1_555
H14 C18 1_555 1_555
H15 C19 1_555 1_555
H16 C20 1_555 1_555
C7 C8 1_555 1_555
C13 C14 1_555 1_555
C19 C20 1_555 1_555

#END
