
#######################################################################
#
#                 Cambridge Crystallographic Data Centre
#                                CCDC 
#
#######################################################################
#
# If this CIF has been generated from an entry in the Cambridge 
# Structural Database, then it will include bibliographic, chemical, 
# crystal, experimental, refinement or atomic coordinate data resulting 
# from the CCDC's data processing and validation procedures.
#
#######################################################################

data_NOHMUS
_chemical_formula_moiety         'C20 H16 O2'
_chemical_name_systematic        
trans-4,7-Diphenyl-1,3,4,7-tetrahydroisobenzofuranone
_symmetry_cell_setting           triclinic
_symmetry_space_group_name_H-M   'P -1'
_symmetry_Int_Tables_number      2
_space_group_name_Hall           '-P 1'
loop_
_symmetry_equiv_pos_site_id
_symmetry_equiv_pos_as_xyz
1 x,y,z
2 -x,-y,-z
_cell_length_a                   8.830(1)
_cell_length_b                   14.071(2)
_cell_length_c                   6.2948(6)
_cell_angle_alpha                102.927(8)
_cell_angle_beta                 97.01(1)
_cell_angle_gamma                102.506(9)
_cell_volume                     732.159
_exptl_crystal_colour            colorless
_exptl_crystal_description       prism
_chemical_melting_point          150-152deg.C
_cell_formula_units_Z            2
loop_
_atom_site_label
_atom_site_type_symbol
_atom_site_fract_x
_atom_site_fract_y
_atom_site_fract_z
O1 O 0.7043(2) 0.3731(1) 0.2470(3)
O2 O 0.6709(2) 0.4612(1) 0.5737(3)
C1 C 0.6512(3) 0.3739(2) 0.4150(4)
C2 C 0.5878(3) 0.4397(2) 0.7493(4)
C3 C 0.5145(2) 0.3291(2) 0.6748(3)
C4 C 0.4136(2) 0.2698(2) 0.7982(3)
C5 C 0.3680(3) 0.1592(2) 0.6729(4)
C6 C 0.4103(3) 0.1221(2) 0.4848(4)
C7 C 0.5129(2) 0.1822(2) 0.3607(3)
C8 C 0.5545(2) 0.2913(2) 0.4837(3)
C9 C 0.6607(2) 0.1448(1) 0.3291(4)
C10 C 0.7701(3) 0.1502(2) 0.5114(4)
C11 C 0.9067(3) 0.1191(2) 0.4854(5)
C12 C 0.9336(3) 0.0819(2) 0.2755(6)
C13 C 0.8255(4) 0.0753(2) 0.0941(5)
C14 C 0.6876(3) 0.1060(2) 0.1184(4)
C15 C 0.2673(2) 0.3070(2) 0.8424(3)
C16 C 0.2001(3) 0.2913(2) 1.0245(4)
C17 C 0.0649(3) 0.3217(2) 1.0652(4)
C18 C -0.0029(3) 0.3694(2) 0.9254(5)
C19 C 0.0621(3) 0.3865(2) 0.7453(4)
C20 C 0.1965(3) 0.3544(2) 0.7021(4)
H1 H 0.5135 0.4852 0.7659
H2 H 0.6754 0.4621 0.8941
H3 H 0.4797 0.2745 0.9467
H4 H 0.2937 0.1122 0.7445
H5 H 0.3703 0.0465 0.4079
H6 H 0.4482 0.1721 0.2042
H7 H 0.7516 0.1776 0.6668
H8 H 0.9867 0.1286 0.6234
H9 H 1.0401 0.0646 0.2591
H10 H 0.8571 0.0589 -0.0701
H11 H 0.6096 0.1092 -0.0233
H12 H 0.2594 0.2634 1.1382
H13 H 0.0234 0.3090 1.2205
H14 H -0.1022 0.3970 0.9521
H15 H 0.0003 0.4031 0.6099
H16 H 0.2347 0.3611 0.5469
loop_
_geom_bond_atom_site_label_1
_geom_bond_atom_site_label_2
_geom_bond_site_symmetry_1
_geom_bond_site_symmetry_2
O1 C1 1_555 1_555
O2 C1 1_555 1_555
C1 C8 1_555 1_555
C2 O2 1_555 1_555
C3 C2 1_555 1_555
C4 C3 1_555 1_555
C5 C4 1_555 1_555
C6 C5 1_555 1_555
C7 C6 1_555 1_555
C8 C3 1_555 1_555
C9 C7 1_555 1_555
C10 C9 1_555 1_555
C11 C10 1_555 1_555
C12 C11 1_555 1_555
C13 C12 1_555 1_555
C14 C9 1_555 1_555
C15 C4 1_555 1_555
C16 C15 1_555 1_555
C17 C16 1_555 1_555
C18 C17 1_555 1_555
C19 C18 1_555 1_555
C20 C15 1_555 1_555
H1 C2 1_555 1_555
H2 C2 1_555 1_555
H3 C4 1_555 1_555
H4 C5 1_555 1_555
H5 C6 1_555 1_555
H6 C7 1_555 1_555
H7 C10 1_555 1_555
H8 C11 1_555 1_555
H9 C12 1_555 1_555
H10 C13 1_555 1_555
H11 C14 1_555 1_555
H12 C16 1_555 1_555
H13 C17 1_555 1_555
H14 C18 1_555 1_555
H15 C19 1_555 1_555
H16 C20 1_555 1_555
C7 C8 1_555 1_555
C13 C14 1_555 1_555
C19 C20 1_555 1_555

#END
