
#######################################################################
#
#                 Cambridge Crystallographic Data Centre
#                                CCDC 
#
#######################################################################
#
# If this CIF has been generated from an entry in the Cambridge 
# Structural Database, then it will include bibliographic, chemical, 
# crystal, experimental, refinement or atomic coordinate data resulting 
# from the CCDC's data processing and validation procedures.
#
#######################################################################

data_NOHNEF
_chemical_formula_moiety         'C21 H21 N1 O6'
_chemical_name_systematic        
'1-benzyl 4-methyl N-formyl-3-hydroxy-3-(2-phenylvinyl)aspartate'
_symmetry_cell_setting           triclinic
_symmetry_space_group_name_H-M   'P -1'
_symmetry_Int_Tables_number      2
_space_group_name_Hall           '-P 1'
loop_
_symmetry_equiv_pos_site_id
_symmetry_equiv_pos_as_xyz
1 x,y,z
2 -x,-y,-z
_cell_length_a                   9.8168(12)
_cell_length_b                   10.4249(13)
_cell_length_c                   11.3673(14)
_cell_angle_alpha                100.432(2)
_cell_angle_beta                 111.719(2)
_cell_angle_gamma                106.850(2)
_cell_volume                     978.438
_exptl_crystal_colour            colorless
_exptl_crystal_description       block
_cell_formula_units_Z            2
loop_
_atom_site_label
_atom_site_type_symbol
_atom_site_fract_x
_atom_site_fract_y
_atom_site_fract_z
C1 C 0.7407(2) 0.10559(17) 0.25990(17)
N1 N 0.63727(17) 0.49793(15) 0.18113(15)
H1 H 0.5624 0.4556 0.0994
O1 O 0.78302(14) 0.37549(12) 0.03184(11)
H2 H 0.8248 0.4195 -0.0081
C2 C 0.8227(2) 0.1378(2) 0.39728(19)
H3 H 0.8953 0.2310 0.4504
O2 O 1.10375(15) 0.50102(14) 0.13751(12)
C3 C 0.7991(3) 0.0351(2) 0.4569(2)
H4 H 0.8552 0.0587 0.5502
O3 O 1.12557(14) 0.59896(14) 0.33950(12)
C4 C 0.6931(3) -0.1029(2) 0.3801(3)
H5 H 0.6774 -0.1730 0.4210
O4 O 0.6887(2) 0.54890(18) 0.39919(18)
C5 C 0.6111(3) -0.1366(2) 0.2440(2)
H6 H 0.5382 -0.2298 0.1914
O5 O 0.68848(16) 0.65926(16) 0.02741(15)
C6 C 0.6356(2) -0.03346(18) 0.1842(2)
H7 H 0.5802 -0.0578 0.0907
O6 O 0.95272(14) 0.72824(12) 0.13951(12)
C7 C 0.76389(19) 0.21123(17) 0.19119(16)
H8 H 0.7163 0.1766 0.0972
C8 C 0.8445(2) 0.34940(17) 0.24785(16)
H9 H 0.8911 0.3870 0.3417
C9 C 0.86585(19) 0.45037(16) 0.16984(15)
C10 C 1.0449(2) 0.52035(17) 0.21187(16)
C11 C 1.2959(2) 0.6671(3) 0.3893(2)
H10 H 1.3437 0.7222 0.4833
H11 H 1.3189 0.7293 0.3391
H12 H 1.3395 0.5958 0.3790
C12 C 1.10160(19) 0.96095(17) 0.15048(16)
C13 C 1.2596(2) 1.0047(2) 0.1752(2)
H13 H 1.2936 0.9430 0.1334
C14 C 1.3679(2) 1.1389(2) 0.2613(2)
H14 H 1.4746 1.1686 0.2762
C15 C 1.3199(2) 1.2285(2) 0.32468(19)
H15 H 1.3940 1.3189 0.3843
C16 C 1.1648(2) 1.18661(19) 0.30130(19)
H16 H 1.1319 1.2482 0.3447
C17 C 1.0560(2) 1.05401(19) 0.21400(19)
H17 H 0.9489 1.0266 0.1975
C18 C 0.9826(2) 0.81687(18) 0.05760(18)
H18 H 0.8835 0.8228 -0.0003
H19 H 1.0242 0.7757 0.0009
C19 C 0.8036(2) 0.65605(17) 0.11243(17)
C20 C 0.7988(2) 0.56477(17) 0.20226(16)
H20 H 0.8660 0.6256 0.2969
C21 C 0.5972(3) 0.4980(2) 0.2816(2)
H21 H 0.4884 0.4547 0.2585
loop_
_geom_bond_atom_site_label_1
_geom_bond_atom_site_label_2
_geom_bond_site_symmetry_1
_geom_bond_site_symmetry_2
C1 C2 1_555 1_555
N1 H1 1_555 1_555
O1 H2 1_555 1_555
C2 H3 1_555 1_555
O2 C10 1_555 1_555
C3 C2 1_555 1_555
H4 C3 1_555 1_555
O3 C10 1_555 1_555
C4 C3 1_555 1_555
H5 C4 1_555 1_555
O4 C21 1_555 1_555
C5 C4 1_555 1_555
H6 C5 1_555 1_555
O5 C19 1_555 1_555
C6 C1 1_555 1_555
H7 C6 1_555 1_555
O6 C18 1_555 1_555
C7 C1 1_555 1_555
H8 C7 1_555 1_555
C8 C7 1_555 1_555
H9 C8 1_555 1_555
C9 O1 1_555 1_555
C10 C9 1_555 1_555
C11 O3 1_555 1_555
H10 C11 1_555 1_555
H11 C11 1_555 1_555
H12 C11 1_555 1_555
C12 C13 1_555 1_555
C13 H13 1_555 1_555
C14 C13 1_555 1_555
H14 C14 1_555 1_555
C15 C14 1_555 1_555
H15 C15 1_555 1_555
C16 C15 1_555 1_555
H16 C16 1_555 1_555
C17 C12 1_555 1_555
H17 C17 1_555 1_555
C18 C12 1_555 1_555
H18 C18 1_555 1_555
H19 C18 1_555 1_555
C19 O6 1_555 1_555
C20 N1 1_555 1_555
H20 C20 1_555 1_555
C21 N1 1_555 1_555
H21 C21 1_555 1_555
C5 C6 1_555 1_555
C8 C9 1_555 1_555
C9 C20 1_555 1_555
C16 C17 1_555 1_555
C19 C20 1_555 1_555

#END
