
#######################################################################
#
#                 Cambridge Crystallographic Data Centre
#                                CCDC 
#
#######################################################################
#
# If this CIF has been generated from an entry in the Cambridge 
# Structural Database, then it will include bibliographic, chemical, 
# crystal, experimental, refinement or atomic coordinate data resulting 
# from the CCDC's data processing and validation procedures.
#
#######################################################################

data_NOHNIJ
_chemical_formula_moiety         'C21 H21 N1 O6'
_chemical_name_systematic        
'1-benzyl 4-methyl N-formyl-3-hydroxy-3-(2-phenylvinyl)aspartate'
_symmetry_cell_setting           monoclinic
_symmetry_space_group_name_H-M   'P 21/c'
_symmetry_Int_Tables_number      14
_space_group_name_Hall           '-P 2ybc'
loop_
_symmetry_equiv_pos_site_id
_symmetry_equiv_pos_as_xyz
1 x,y,z
2 -x,1/2+y,1/2-z
3 -x,-y,-z
4 x,1/2-y,1/2+z
_cell_length_a                   19.30(2)
_cell_length_b                   7.863(10)
_cell_length_c                   12.965(16)
_cell_angle_alpha                90
_cell_angle_beta                 95.21(2)
_cell_angle_gamma                90
_cell_volume                     1959.39
_exptl_crystal_colour            colorless
_exptl_crystal_description       needle
_cell_formula_units_Z            4
loop_
_atom_site_label
_atom_site_type_symbol
_atom_site_fract_x
_atom_site_fract_y
_atom_site_fract_z
C1 C 0.1871(4) 0.8575(8) -0.1431(5)
C2 C 0.1339(4) 0.7656(9) -0.1012(6)
H1 H 0.1438 0.7062 -0.0378
C3 C 0.0666(4) 0.7598(11) -0.1514(7)
H2 H 0.0315 0.6963 -0.1218
C4 C 0.0507(5) 0.8461(13) -0.2439(8)
H3 H 0.0052 0.8402 -0.2785
C5 C 0.1027(5) 0.9422(13) -0.2855(7)
H4 H 0.0920 1.0044 -0.3477
C6 C 0.1698(4) 0.9470(10) -0.2364(5)
H5 H 0.2046 1.0115 -0.2661
C7 C 0.2605(4) 0.8627(8) -0.0956(5)
H6 H 0.2903 0.9463 -0.1205
C8 C 0.2876(3) 0.7591(7) -0.0208(5)
H7 H 0.2577 0.6788 0.0073
C9 C 0.3641(3) 0.7624(7) 0.0222(5)
C10 C 0.3987(3) 0.6011(7) -0.0194(5)
C11 C 0.3966(4) 0.2993(8) -0.0221(5)
H8 H 0.3739 0.2038 0.0099
H9 H 0.4471 0.2915 -0.0057
H10 H 0.3857 0.2954 -0.0974
C12 C 0.1842(4) 1.1104(8) 0.1245(5)
C13 C 0.1162(4) 1.0773(9) 0.0857(6)
H11 H 0.0897 0.9957 0.1193
C14 C 0.0860(4) 1.1618(9) -0.0018(6)
H12 H 0.0391 1.1399 -0.0270
C15 C 0.1260(4) 1.2793(9) -0.0518(6)
H13 H 0.1063 1.3344 -0.1127
C16 C 0.1935(4) 1.3165(9) -0.0141(6)
H14 H 0.2195 1.3984 -0.0483
C17 C 0.2239(3) 1.2334(8) 0.0747(5)
H15 H 0.2702 1.2589 0.1012
C18 C 0.2190(4) 1.0152(9) 0.2176(5)
H16 H 0.2470 1.0960 0.2627
H17 H 0.1829 0.9663 0.2583
C19 C 0.3322(3) 0.9153(8) 0.1834(4)
C20 C 0.3720(3) 0.7618(7) 0.1441(5)
H18 H 0.3517 0.6544 0.1696
C21 C 0.4759(3) 0.6641(8) 0.2526(5)
H19 H 0.5238 0.6811 0.2742
N1 N 0.4463(3) 0.7690(6) 0.1799(4)
H20 H 0.4724 0.8453 0.1525
O1 O 0.4002(2) 0.9082(5) -0.0072(3)
H21 H 0.4091 0.8984 -0.0691
O2 O 0.4419(3) 0.6051(5) -0.0823(3)
O3 O 0.3713(2) 0.4598(5) 0.0181(3)
O4 O 0.4452(2) 0.5452(5) 0.2941(3)
O5 O 0.3594(2) 1.0499(5) 0.2077(4)
O6 O 0.2642(2) 0.8782(5) 0.1858(3)
loop_
_geom_bond_atom_site_label_1
_geom_bond_atom_site_label_2
_geom_bond_site_symmetry_1
_geom_bond_site_symmetry_2
C1 C2 1_555 1_555
C2 H1 1_555 1_555
C3 C2 1_555 1_555
H2 C3 1_555 1_555
C4 C3 1_555 1_555
H3 C4 1_555 1_555
C5 C4 1_555 1_555
H4 C5 1_555 1_555
C6 C1 1_555 1_555
H5 C6 1_555 1_555
C7 C1 1_555 1_555
H6 C7 1_555 1_555
C8 C7 1_555 1_555
H7 C8 1_555 1_555
C9 C8 1_555 1_555
C10 C9 1_555 1_555
C11 H8 1_555 1_555
H9 C11 1_555 1_555
H10 C11 1_555 1_555
C12 C13 1_555 1_555
C13 H11 1_555 1_555
C14 C13 1_555 1_555
H12 C14 1_555 1_555
C15 C14 1_555 1_555
H13 C15 1_555 1_555
C16 C15 1_555 1_555
H14 C16 1_555 1_555
C17 C12 1_555 1_555
H15 C17 1_555 1_555
C18 C12 1_555 1_555
H16 C18 1_555 1_555
H17 C18 1_555 1_555
C19 C20 1_555 1_555
C20 C9 1_555 1_555
H18 C20 1_555 1_555
C21 H19 1_555 1_555
N1 C20 1_555 1_555
H20 N1 1_555 1_555
O1 C9 1_555 1_555
H21 O1 1_555 1_555
O2 C10 1_555 1_555
O3 C10 1_555 1_555
O4 C21 1_555 1_555
O5 C19 1_555 1_555
O6 C18 1_555 1_555
C5 C6 1_555 1_555
C11 O3 1_555 1_555
C16 C17 1_555 1_555
C19 O6 1_555 1_555
C21 N1 1_555 1_555

#END
