
#######################################################################
#
#                 Cambridge Crystallographic Data Centre
#                                CCDC 
#
#######################################################################
#
# If this CIF has been generated from an entry in the Cambridge 
# Structural Database, then it will include bibliographic, chemical, 
# crystal, experimental, refinement or atomic coordinate data resulting 
# from the CCDC's data processing and validation procedures.
#
#######################################################################

data_NOHSIO
_chemical_formula_moiety         'C15 H21 F3 N4 O3 S1'
_chemical_name_systematic        
2-Azido-1-(10,10-dimethyl-3,3-dioxido-3-thia-4-azatricyclo[5.2.1.0^1,5^]dec-4-yl)-4,4,4-trifluoro-2-methylbutan-1-one
_symmetry_cell_setting           monoclinic
_symmetry_space_group_name_H-M   'P 21'
_symmetry_Int_Tables_number      4
_space_group_name_Hall           'P 2yb'
loop_
_symmetry_equiv_pos_site_id
_symmetry_equiv_pos_as_xyz
1 x,y,z
2 -x,1/2+y,-z
_cell_length_a                   7.514(2)
_cell_length_b                   9.688(3)
_cell_length_c                   12.157(3)
_cell_angle_alpha                90
_cell_angle_beta                 99.885(5)
_cell_angle_gamma                90
_cell_volume                     871.838
_exptl_crystal_colour            colorless
_exptl_crystal_description       prismatic
_cell_formula_units_Z            2
loop_
_atom_site_label
_atom_site_type_symbol
_atom_site_fract_x
_atom_site_fract_y
_atom_site_fract_z
S1 S 0.54398(15) 0.69359(11) 0.92005(8)
F1 F 0.8755(7) 0.2621(6) 0.7008(5)
F2 F 0.8637(7) 0.4709(6) 0.6480(3)
F3 F 1.1050(6) 0.3552(7) 0.6554(5)
N1 N 0.6760(5) 0.6922(5) 0.8189(3)
N2 N 0.7343(6) 0.4069(5) 0.8916(4)
N3 N 0.6242(6) 0.3921(4) 0.8050(4)
N4 N 0.5111(9) 0.3704(6) 0.7382(6)
O1 O 0.9680(5) 0.6987(5) 0.8051(3)
O2 O 0.4256(5) 0.5801(4) 0.9087(4)
O3 O 0.6560(6) 0.7114(5) 1.0241(3)
C1 C 0.8918(7) 0.4931(5) 0.8856(4)
C2 C 0.9857(10) 0.5118(7) 1.0053(5)
H1 H 0.9089 0.5632 1.0459
H2 H 1.0969 0.5610 1.0064
H3 H 1.0107 0.4230 1.0395
C3 C 0.8505(7) 0.6371(5) 0.8349(4)
C4 C 1.0307(8) 0.4226(6) 0.8239(5)
H4 H 1.1309 0.4859 0.8243
H5 H 1.0776 0.3422 0.8669
C5 C 0.9692(8) 0.3780(8) 0.7079(7)
C6 C 0.4237(8) 0.8454(5) 0.8746(4)
H6 H 0.2947 0.8284 0.8647
H7 H 0.4535 0.9181 0.9296
C7 C 0.4754(7) 0.8873(5) 0.7672(4)
C8 C 0.6593(6) 0.8252(5) 0.7591(4)
H8 H 0.7550 0.8878 0.7939
C9 C 0.6597(7) 0.8179(6) 0.6331(4)
H9 H 0.7669 0.8607 0.6137
H10 H 0.6513 0.7234 0.6063
C10 C 0.4918(7) 0.8989(6) 0.5879(4)
H11 H 0.4530 0.8886 0.5071
C11 C 0.5162(10) 1.0477(6) 0.6256(5)
H12 H 0.6342 1.0821 0.6169
H13 H 0.4239 1.1063 0.5837
C12 C 0.4977(10) 1.0416(6) 0.7471(5)
H14 H 0.3928 1.0931 0.7607
H15 H 0.6046 1.0778 0.7945
C13 C 0.3546(7) 0.8435(6) 0.6567(4)
C14 C 0.3145(7) 0.6923(7) 0.6426(4)
H16 H 0.2454 0.6628 0.6978
H17 H 0.4258 0.6416 0.6515
H18 H 0.2466 0.6758 0.5694
C15 C 0.1724(8) 0.9194(9) 0.6366(6)
H19 H 0.1093 0.8989 0.5628
H20 H 0.1927 1.0170 0.6437
H21 H 0.1012 0.8896 0.6906
loop_
_geom_bond_atom_site_label_1
_geom_bond_atom_site_label_2
_geom_bond_site_symmetry_1
_geom_bond_site_symmetry_2
S1 N1 1_555 1_555
F1 C5 1_555 1_555
F2 C5 1_555 1_555
F3 C5 1_555 1_555
N1 C3 1_555 1_555
N2 N3 1_555 1_555
N3 N4 1_555 1_555
O1 C3 1_555 1_555
O2 S1 1_555 1_555
O3 S1 1_555 1_555
C1 N2 1_555 1_555
C2 C1 1_555 1_555
H1 C2 1_555 1_555
H2 C2 1_555 1_555
H3 C2 1_555 1_555
C3 C1 1_555 1_555
C4 C1 1_555 1_555
H4 C4 1_555 1_555
H5 C4 1_555 1_555
C5 C4 1_555 1_555
C6 S1 1_555 1_555
H6 C6 1_555 1_555
H7 C6 1_555 1_555
C7 C6 1_555 1_555
C8 N1 1_555 1_555
H8 C8 1_555 1_555
C9 C8 1_555 1_555
H9 C9 1_555 1_555
H10 C9 1_555 1_555
C10 C9 1_555 1_555
H11 C10 1_555 1_555
C11 C10 1_555 1_555
H12 C11 1_555 1_555
H13 C11 1_555 1_555
C12 C7 1_555 1_555
H14 C12 1_555 1_555
H15 C12 1_555 1_555
C13 C7 1_555 1_555
C14 C13 1_555 1_555
H16 C14 1_555 1_555
H17 C14 1_555 1_555
H18 C14 1_555 1_555
C15 C13 1_555 1_555
H19 C15 1_555 1_555
H20 C15 1_555 1_555
H21 C15 1_555 1_555
C7 C8 1_555 1_555
C10 C13 1_555 1_555
C11 C12 1_555 1_555

#END
