
#######################################################################
#
#                 Cambridge Crystallographic Data Centre
#                                CCDC 
#
#######################################################################
#
# If this CIF has been generated from an entry in the Cambridge 
# Structural Database, then it will include bibliographic, chemical, 
# crystal, experimental, refinement or atomic coordinate data resulting 
# from the CCDC's data processing and validation procedures.
#
#######################################################################

data_NOHSAG
_chemical_formula_moiety         'C24 H34 F3 N3 O3'
_chemical_name_systematic        
'5-Azido-20-oxo-6-(trifluoromethyl)pregnan-3-yl acetate'
_symmetry_cell_setting           orthorhombic
_symmetry_space_group_name_H-M   'P 21 21 21'
_symmetry_Int_Tables_number      19
_space_group_name_Hall           'P 2ac 2ab'
loop_
_symmetry_equiv_pos_site_id
_symmetry_equiv_pos_as_xyz
1 x,y,z
2 1/2-x,-y,1/2+z
3 -x,1/2+y,1/2-z
4 1/2+x,1/2-y,-z
_cell_length_a                   11.3239(9)
_cell_length_b                   13.0636(10)
_cell_length_c                   15.9685(12)
_cell_angle_alpha                90
_cell_angle_beta                 90
_cell_angle_gamma                90
_cell_volume                     2362.23
_exptl_crystal_colour            colorless
_exptl_crystal_description       prismatic
_cell_formula_units_Z            4
loop_
_atom_site_label
_atom_site_type_symbol
_atom_site_fract_x
_atom_site_fract_y
_atom_site_fract_z
F1 F 1.0903(2) 0.31697(14) 0.10490(11)
F2 F 0.97144(15) 0.38846(11) 0.18843(15)
F3 F 1.13892(17) 0.34316(13) 0.22942(14)
N1 N 0.85645(19) 0.08139(14) 0.24047(12)
N2 N 0.8336(2) 0.09757(15) 0.31357(13)
N3 N 0.8086(3) 0.1015(2) 0.38195(17)
O1 O 0.4395(3) 0.2122(2) 0.2476(2)
O2 O 0.58401(15) 0.29920(15) 0.19080(12)
O3 O 1.4155(2) -0.17229(19) -0.08219(15)
C1 C 0.7461(2) 0.08027(19) 0.08574(16)
H1 H 0.7369 0.0521 0.0299
H2 H 0.7373 0.0246 0.1254
C2 C 0.6483(2) 0.1591(2) 0.10114(17)
H3 H 0.6515 0.2112 0.0579
H4 H 0.5720 0.1256 0.0976
C3 C 0.6602(2) 0.20947(18) 0.18579(16)
H5 H 0.6398 0.1607 0.2301
C4 C 0.7826(2) 0.25177(16) 0.20032(15)
H6 H 0.7885 0.2757 0.2577
H7 H 0.7949 0.3101 0.1637
C5 C 0.87990(18) 0.17231(14) 0.18422(13)
C6 C 1.00485(19) 0.20929(16) 0.21109(13)
H8 H 1.0008 0.2146 0.2722
C7 C 1.09819(19) 0.12581(17) 0.19438(13)
H9 H 1.1761 0.1550 0.2027
H10 H 1.0881 0.0714 0.2351
C8 C 1.09233(17) 0.07953(15) 0.10645(12)
H11 H 1.1141 0.1323 0.0656
C9 C 0.96645(18) 0.04031(15) 0.08578(12)
H12 H 0.9474 -0.0118 0.1278
C10 C 0.87166(18) 0.12570(16) 0.09428(13)
C11 C 0.9650(2) -0.01338(18) 0.00070(14)
H13 H 0.9804 0.0367 -0.0428
H14 H 0.8869 -0.0415 -0.0090
C12 C 1.0564(2) -0.09986(17) -0.00607(15)
H15 H 1.0368 -0.1537 0.0334
H16 H 1.0541 -0.1288 -0.0620
C13 C 1.17991(19) -0.06035(15) 0.01204(12)
C14 C 1.1789(2) -0.00992(16) 0.09872(13)
H17 H 1.1512 -0.0624 0.1379
C15 C 1.3086(2) 0.0077(2) 0.11918(19)
H18 H 1.3215 0.0088 0.1792
H19 H 1.3364 0.0716 0.0954
C16 C 1.3711(3) -0.0853(3) 0.0781(2)
H20 H 1.4340 -0.0623 0.0414
H21 H 1.4048 -0.1294 0.1207
C17 C 1.2772(2) -0.14279(19) 0.02814(14)
H22 H 1.2434 -0.1955 0.0646
C18 C 1.2214(2) 0.01122(18) -0.05796(16)
H23 H 1.2098 -0.0214 -0.1112
H24 H 1.3037 0.0263 -0.0505
H25 H 1.1768 0.0736 -0.0560
C19 C 0.8874(2) 0.20716(19) 0.02503(13)
H26 H 0.8510 0.1836 -0.0257
H27 H 0.9701 0.2185 0.0154
H28 H 0.8510 0.2700 0.0424
C20 C 1.3225(3) -0.19492(19) -0.05001(16)
C21 C 1.2464(3) -0.2772(2) -0.0866(2)
H29 H 1.1968 -0.2485 -0.1293
H30 H 1.1982 -0.3065 -0.0434
H31 H 1.2955 -0.3294 -0.1106
C22 C 1.0489(2) 0.31343(18) 0.18217(16)
C23 C 0.4802(2) 0.2925(2) 0.22502(16)
C24 C 0.4199(3) 0.3936(3) 0.22848(19)
H32 H 0.3541 0.3936 0.1906
H33 H 0.4745 0.4464 0.2127
H34 H 0.3923 0.4059 0.2844
loop_
_geom_bond_atom_site_label_1
_geom_bond_atom_site_label_2
_geom_bond_site_symmetry_1
_geom_bond_site_symmetry_2
F1 C22 1_555 1_555
F2 C22 1_555 1_555
F3 C22 1_555 1_555
N1 N2 1_555 1_555
N2 N3 1_555 1_555
O1 C23 1_555 1_555
O2 C3 1_555 1_555
O3 C20 1_555 1_555
C1 H1 1_555 1_555
H2 C1 1_555 1_555
C2 C1 1_555 1_555
H3 C2 1_555 1_555
H4 C2 1_555 1_555
C3 C2 1_555 1_555
H5 C3 1_555 1_555
C4 C3 1_555 1_555
H6 C4 1_555 1_555
H7 C4 1_555 1_555
C5 N1 1_555 1_555
C6 C5 1_555 1_555
H8 C6 1_555 1_555
C7 C6 1_555 1_555
H9 C7 1_555 1_555
H10 C7 1_555 1_555
C8 C7 1_555 1_555
H11 C8 1_555 1_555
C9 C8 1_555 1_555
H12 C9 1_555 1_555
C10 C1 1_555 1_555
C11 C9 1_555 1_555
H13 C11 1_555 1_555
H14 C11 1_555 1_555
C12 C11 1_555 1_555
H15 C12 1_555 1_555
H16 C12 1_555 1_555
C13 C12 1_555 1_555
C14 C8 1_555 1_555
H17 C14 1_555 1_555
C15 C14 1_555 1_555
H18 C15 1_555 1_555
H19 C15 1_555 1_555
C16 C15 1_555 1_555
H20 C16 1_555 1_555
H21 C16 1_555 1_555
C17 C13 1_555 1_555
H22 C17 1_555 1_555
C18 C13 1_555 1_555
H23 C18 1_555 1_555
H24 C18 1_555 1_555
H25 C18 1_555 1_555
C19 C10 1_555 1_555
H26 C19 1_555 1_555
H27 C19 1_555 1_555
H28 C19 1_555 1_555
C20 C17 1_555 1_555
C21 C20 1_555 1_555
H29 C21 1_555 1_555
H30 C21 1_555 1_555
H31 C21 1_555 1_555
C22 C6 1_555 1_555
C23 O2 1_555 1_555
C24 C23 1_555 1_555
H32 C24 1_555 1_555
H33 C24 1_555 1_555
H34 C24 1_555 1_555
C4 C5 1_555 1_555
C5 C10 1_555 1_555
C9 C10 1_555 1_555
C13 C14 1_555 1_555
C16 C17 1_555 1_555

#END
