
#######################################################################
#
#                 Cambridge Crystallographic Data Centre
#                                CCDC 
#
#######################################################################
#
# If this CIF has been generated from an entry in the Cambridge 
# Structural Database, then it will include bibliographic, chemical, 
# crystal, experimental, refinement or atomic coordinate data resulting 
# from the CCDC's data processing and validation procedures.
#
#######################################################################

data_NOHTIP
_chemical_formula_moiety         'C14 H19 N1 O3'
_chemical_name_systematic        
4-((benzyloxy)methyl)-5-methylpyrrolidinium-2-carboxylate
_symmetry_cell_setting           orthorhombic
_symmetry_space_group_name_H-M   'P 21 21 21'
_symmetry_Int_Tables_number      19
_space_group_name_Hall           'P 2ac 2ab'
loop_
_symmetry_equiv_pos_site_id
_symmetry_equiv_pos_as_xyz
1 x,y,z
2 1/2-x,-y,1/2+z
3 1/2+x,1/2-y,-z
4 -x,1/2+y,1/2-z
_cell_length_a                   5.3260(2)
_cell_length_b                   9.2254(4)
_cell_length_c                   25.8171(11)
_cell_angle_alpha                90
_cell_angle_beta                 90
_cell_angle_gamma                90
_cell_volume                     1268.51
_exptl_crystal_colour            colorless
_exptl_crystal_description       rod
_cell_formula_units_Z            4
loop_
_atom_site_label
_atom_site_type_symbol
_atom_site_fract_x
_atom_site_fract_y
_atom_site_fract_z
C1 C 0.5938(3) 0.58674(18) 0.50427(5)
H1 H 0.5665 0.6868 0.4916
H2 H 0.4279 0.5435 0.5121
C2 C 0.7237(3) 0.49873(14) 0.46301(5)
C3 C 0.9302(3) 0.41222(17) 0.47333(6)
H3 H 0.9934 0.4057 0.5077
C4 C 1.0453(3) 0.33495(18) 0.43367(6)
H4 H 1.1853 0.2748 0.4412
C5 C 0.9575(3) 0.34495(17) 0.38328(6)
H5 H 1.0392 0.2940 0.3561
C6 C 0.7493(3) 0.43006(14) 0.37299(5)
H6 H 0.6859 0.4365 0.3387
C7 C 0.6336(3) 0.50571(15) 0.41253(5)
H7 H 0.4902 0.5634 0.4051
C8 C 0.6393(3) 0.68449(15) 0.58769(5)
H8 H 0.4635 0.6568 0.5953
H9 H 0.6401 0.7854 0.5746
C9 C 0.7966(2) 0.67381(13) 0.63640(5)
H10 H 0.9763 0.6920 0.6273
C10 C 0.7135(3) 0.78519(13) 0.67782(5)
H11 H 0.8475 0.8578 0.6837
H12 H 0.5596 0.8363 0.6665
C11 C 0.6631(2) 0.69901(13) 0.72756(5)
H13 H 0.7389 0.7504 0.7578
C12 C 0.3812(2) 0.67470(14) 0.73713(5)
C13 C 0.7751(2) 0.52471(13) 0.66236(5)
H14 H 0.6044 0.4844 0.6551
C14 C 0.9697(3) 0.41373(15) 0.64628(5)
H15 H 0.9459 0.3246 0.6663
H16 H 1.1382 0.4524 0.6528
H17 H 0.9511 0.3924 0.6093
N1 N 0.7936(2) 0.55778(11) 0.71928(4)
H18 H 0.723(3) 0.4835(18) 0.7381(6)
H19 H 0.955(4) 0.5635(19) 0.7295(6)
O1 O 0.74163(19) 0.58997(10) 0.54983(3)
O2 O 0.30380(17) 0.54713(9) 0.74024(4)
O3 O 0.24936(18) 0.78578(10) 0.74068(4)
loop_
_geom_bond_atom_site_label_1
_geom_bond_atom_site_label_2
_geom_bond_site_symmetry_1
_geom_bond_site_symmetry_2
C1 H1 1_555 1_555
H2 C1 1_555 1_555
C2 C1 1_555 1_555
C3 C2 1_555 1_555
H3 C3 1_555 1_555
C4 C3 1_555 1_555
H4 C4 1_555 1_555
C5 C4 1_555 1_555
H5 C5 1_555 1_555
C6 C5 1_555 1_555
H6 C6 1_555 1_555
C7 C2 1_555 1_555
H7 C7 1_555 1_555
C8 H8 1_555 1_555
H9 C8 1_555 1_555
C9 C8 1_555 1_555
H10 C9 1_555 1_555
C10 C9 1_555 1_555
H11 C10 1_555 1_555
H12 C10 1_555 1_555
C11 C10 1_555 1_555
H13 C11 1_555 1_555
C12 C11 1_555 1_555
C13 C9 1_555 1_555
H14 C13 1_555 1_555
C14 C13 1_555 1_555
H15 C14 1_555 1_555
H16 C14 1_555 1_555
H17 C14 1_555 1_555
N1 C11 1_555 1_555
H18 N1 1_555 1_555
H19 N1 1_555 1_555
O1 C1 1_555 1_555
O2 C12 1_555 1_555
O3 C12 1_555 1_555
C6 C7 1_555 1_555
C8 O1 1_555 1_555
C13 N1 1_555 1_555

#END
