
#######################################################################
#
#                 Cambridge Crystallographic Data Centre
#                                CCDC 
#
#######################################################################
#
# If this CIF has been generated from an entry in the Cambridge 
# Structural Database, then it will include bibliographic, chemical, 
# crystal, experimental, refinement or atomic coordinate data resulting 
# from the CCDC's data processing and validation procedures.
#
#######################################################################

data_NOHTAG
_chemical_name_common            
N,N'-di(diethoxythiophosphoryl)-1,4-phenylenediamine
_chemical_formula_moiety         'C14 H26 N2 O4 P2 S2'
_chemical_name_systematic        
"O,O,O',O'-Tetraethyl 1,4-phenylenebis(phosphoramidothioate)"
_symmetry_cell_setting           orthorhombic
_symmetry_space_group_name_H-M   'P b c a'
_symmetry_Int_Tables_number      61
_space_group_name_Hall           '-P 2ac 2ab'
loop_
_symmetry_equiv_pos_site_id
_symmetry_equiv_pos_as_xyz
1 x,y,z
2 1/2-x,-y,1/2+z
3 -x,1/2+y,1/2-z
4 1/2+x,1/2-y,-z
5 -x,-y,-z
6 1/2+x,y,1/2-z
7 x,1/2-y,1/2+z
8 1/2-x,1/2+y,z
_cell_length_a                   8.6936(16)
_cell_length_b                   12.787(2)
_cell_length_c                   18.897(3)
_cell_angle_alpha                90
_cell_angle_beta                 90
_cell_angle_gamma                90
_cell_volume                     2100.69
_exptl_crystal_colour            colorless
_exptl_crystal_description       needle
_chemical_melting_point          '184.8-186.5 deg.C'
_cell_formula_units_Z            4
_exptl_crystal_recrystallization_method acetone
loop_
_atom_site_label
_atom_site_type_symbol
_atom_site_fract_x
_atom_site_fract_y
_atom_site_fract_z
P1 P 0.22703(12) 0.44436(10) 0.32888(5)
S1 S 0.22907(14) 0.38171(11) 0.23585(6)
O1 O 0.1881(4) 0.5664(3) 0.33231(18)
O2 O 0.1059(4) 0.4018(2) 0.38227(17)
N1 N 0.3973(4) 0.4396(3) 0.36457(17)
H1 H 0.463(4) 0.422(4) 0.336(2)
C1 C 0.0475(7) 0.6086(5) 0.3048(3)
H2 H -0.0033 0.5559 0.2762
H3 H 0.0710 0.6676 0.2744
C2 C -0.0564(9) 0.6426(6) 0.3608(4)
H4 H -0.0910 0.5828 0.3871
H5 H -0.1433 0.6776 0.3403
H6 H -0.0032 0.6897 0.3919
C3 C 0.0944(9) 0.2894(4) 0.3932(4)
H7 H 0.1841 0.2642 0.4185
H8 H 0.0895 0.2538 0.3479
C4 C -0.0447(8) 0.2677(5) 0.4341(4)
H9 H -0.0488 0.3135 0.4743
H10 H -0.0432 0.1964 0.4499
H11 H -0.1336 0.2790 0.4049
C5 C 0.4458(4) 0.4712(3) 0.43278(18)
C6 C 0.5999(4) 0.4645(3) 0.4498(2)
H12 H 0.6688 0.4402 0.4159
C7 C 0.3456(4) 0.5070(3) 0.48457(19)
H13 H 0.2410 0.5119 0.4749
P1D P 0.77297(12) 0.55564(10) 0.67112(5)
S1D S 0.77093(14) 0.61829(11) 0.76415(6)
O1D O 0.8119(4) 0.4336(3) 0.66769(18)
O2D O 0.8941(4) 0.5982(2) 0.61773(17)
N1D N 0.6027(4) 0.5604(3) 0.63543(17)
H1D H 0.537(4) 0.578(4) 0.664(2)
C1D C 0.9525(7) 0.3914(5) 0.6952(3)
H2D H 1.0033 0.4441 0.7238
H3D H 0.9290 0.3324 0.7256
C2D C 1.0564(9) 0.3574(6) 0.6392(4)
H4D H 1.0910 0.4172 0.6129
H5D H 1.1433 0.3224 0.6597
H6D H 1.0032 0.3103 0.6081
C3D C 0.9056(9) 0.7106(4) 0.6068(4)
H7D H 0.8159 0.7358 0.5815
H8D H 0.9105 0.7462 0.6521
C4D C 1.0447(8) 0.7323(5) 0.5659(4)
H9D H 1.0488 0.6865 0.5257
H10D H 1.0432 0.8036 0.5501
H11D H 1.1336 0.7210 0.5951
C5D C 0.5542(4) 0.5288(3) 0.56722(18)
C6D C 0.4001(4) 0.5355(3) 0.5502(2)
H12D H 0.3312 0.5598 0.5841
C7D C 0.6544(4) 0.4930(3) 0.51543(19)
H13D H 0.7590 0.4881 0.5251
loop_
_geom_bond_atom_site_label_1
_geom_bond_atom_site_label_2
_geom_bond_site_symmetry_1
_geom_bond_site_symmetry_2
P1 S1 1_555 1_555
O1 P1 1_555 1_555
O2 P1 1_555 1_555
N1 P1 1_555 1_555
H1 N1 1_555 1_555
C1 O1 1_555 1_555
H2 C1 1_555 1_555
H3 C1 1_555 1_555
C2 C1 1_555 1_555
H4 C2 1_555 1_555
H5 C2 1_555 1_555
H6 C2 1_555 1_555
C3 O2 1_555 1_555
H7 C3 1_555 1_555
H8 C3 1_555 1_555
C4 C3 1_555 1_555
H9 C4 1_555 1_555
H10 C4 1_555 1_555
H11 C4 1_555 1_555
C5 N1 1_555 1_555
C6 C5 1_555 1_555
H12 C6 1_555 1_555
C7 C5 1_555 1_555
H13 C7 1_555 1_555
P1D S1D 1_555 1_555
O1D P1D 1_555 1_555
O2D P1D 1_555 1_555
N1D P1D 1_555 1_555
H1D N1D 1_555 1_555
C1D O1D 1_555 1_555
H2D C1D 1_555 1_555
H3D C1D 1_555 1_555
C2D C1D 1_555 1_555
H4D C2D 1_555 1_555
H5D C2D 1_555 1_555
H6D C2D 1_555 1_555
C3D O2D 1_555 1_555
H7D C3D 1_555 1_555
H8D C3D 1_555 1_555
C4D C3D 1_555 1_555
H9D C4D 1_555 1_555
H10D C4D 1_555 1_555
H11D C4D 1_555 1_555
C5D N1D 1_555 1_555
C6D C7 1_555 1_555
H12D C6D 1_555 1_555
C7D C6 1_555 1_555
H13D C7D 1_555 1_555
C5D C6D 1_555 1_555
C5D C7D 1_555 1_555

#END
