
#######################################################################
#
#                 Cambridge Crystallographic Data Centre
#                                CCDC 
#
#######################################################################
#
# If this CIF has been generated from an entry in the Cambridge 
# Structural Database, then it will include bibliographic, chemical, 
# crystal, experimental, refinement or atomic coordinate data resulting 
# from the CCDC's data processing and validation procedures.
#
#######################################################################

data_NOHWOX
_chemical_compound_source        'leaves of Viburnum cylindrium'
_chemical_name_common            'Cylindrictone C'
_chemical_formula_moiety         'C28 H46 O4'
_chemical_name_systematic        
(5\a,12\b,17\b)-12-hydroxy-17-((2S,5S)-5-methoxy-2-methyltetrahydrofuran-2-yl)-4,4,8,10,14-pentamethylgonan-3-one
_chemical_properties_biological  
'no activity against human promyelocytic leukaemia HL60 cell'
_symmetry_cell_setting           orthorhombic
_symmetry_space_group_name_H-M   'P 21 21 21'
_symmetry_Int_Tables_number      19
_space_group_name_Hall           'P 2ac 2ab'
loop_
_symmetry_equiv_pos_site_id
_symmetry_equiv_pos_as_xyz
1 x,y,z
2 1/2-x,-y,1/2+z
3 -x,1/2+y,1/2-z
4 1/2+x,1/2-y,-z
_cell_length_a                   7.6228(8)
_cell_length_b                   11.1482(11)
_cell_length_c                   30.037(3)
_cell_angle_alpha                90
_cell_angle_beta                 90
_cell_angle_gamma                90
_cell_volume                     2552.56
_exptl_crystal_colour            colorless
_exptl_crystal_description       block
_chemical_melting_point          '178-179 deg.C'
_cell_formula_units_Z            4
_exptl_crystal_recrystallization_method methanol
loop_
_atom_site_label
_atom_site_type_symbol
_atom_site_fract_x
_atom_site_fract_y
_atom_site_fract_z
O1 O 0.5726(6) 0.5859(6) 0.41123(13)
O2 O 0.4032(4) 0.5179(4) 0.13341(10)
H1 H 0.4232 0.5166 0.1066
O3 O 0.5114(4) 0.5320(3) 0.04818(9)
O4 O 0.4295(6) 0.4276(4) -0.01560(11)
C1 C 0.4643(6) 0.6824(7) 0.34729(15)
H2 H 0.4725 0.7693 0.3472
H3 H 0.3518 0.6611 0.3601
C2 C 0.6062(7) 0.6336(5) 0.37621(14)
C3 C 0.7919(5) 0.6467(4) 0.35993(12)
C4 C 0.7924(5) 0.6640(4) 0.30810(11)
H4 H 0.7618 0.7484 0.3033
C5 C 0.6516(5) 0.5919(4) 0.28275(12)
C6 C 0.4700(5) 0.6374(5) 0.29909(14)
H5 H 0.4325 0.7021 0.2797
H6 H 0.3859 0.5727 0.2960
C7 C 0.8605(7) 0.7630(4) 0.38214(13)
H7 H 0.8445 0.7578 0.4138
H8 H 0.7965 0.8306 0.3708
H9 H 0.9829 0.7726 0.3756
C8 C 0.9067(7) 0.5449(4) 0.37687(14)
H10 H 0.9057 0.5446 0.4088
H11 H 1.0247 0.5562 0.3665
H12 H 0.8623 0.4699 0.3660
C9 C 0.6619(7) 0.4566(4) 0.29293(14)
H13 H 0.7809 0.4297 0.2896
H14 H 0.5879 0.4136 0.2726
H15 H 0.6234 0.4423 0.3229
C10 C 0.6660(4) 0.6224(3) 0.23185(11)
H16 H 0.6329 0.7071 0.2298
C11 C 0.8522(4) 0.6161(3) 0.21028(11)
C12 C 0.9229(6) 0.4867(4) 0.20686(13)
H17 H 1.0271 0.4861 0.1889
H18 H 0.8356 0.4363 0.1934
H19 H 0.9499 0.4573 0.2361
C13 C 0.9801(5) 0.6879(4) 0.23942(11)
H20 H 1.0981 0.6777 0.2280
H21 H 0.9508 0.7724 0.2374
C14 C 0.9759(5) 0.6496(4) 0.28824(12)
H22 H 1.0585 0.6978 0.3051
H23 H 1.0119 0.5664 0.2906
C15 C 0.5308(5) 0.5569(4) 0.20288(13)
H24 H 0.5579 0.4719 0.2031
H25 H 0.4159 0.5669 0.2162
C16 C 0.5220(5) 0.5988(4) 0.15474(12)
H26 H 0.4734 0.6802 0.1537
C17 C 0.7034(5) 0.5990(4) 0.13384(11)
H27 H 0.7447 0.5157 0.1340
C18 C 0.8360(5) 0.6729(3) 0.16265(11)
C19 C 0.7771(6) 0.8066(4) 0.16467(13)
H28 H 0.8672 0.8537 0.1785
H29 H 0.6708 0.8128 0.1817
H30 H 0.7568 0.8357 0.1350
C20 C 0.9994(5) 0.6697(4) 0.13356(12)
H31 H 1.0598 0.5935 0.1365
H32 H 1.0795 0.7339 0.1415
C21 C 0.7335(5) 0.6477(4) 0.08609(12)
H33 H 0.6623 0.7203 0.0828
C22 C 0.9295(6) 0.6865(6) 0.08599(14)
H34 H 0.9959 0.6376 0.0653
H35 H 0.9400 0.7698 0.0770
C23 C 0.6948(6) 0.5664(4) 0.04596(14)
C24 C 0.7217(9) 0.6359(6) 0.00280(16)
H36 H 0.7057 0.5831 -0.0221
H37 H 0.8384 0.6683 0.0022
H38 H 0.6381 0.7001 0.0012
C25 C 0.7893(9) 0.4457(6) 0.04547(18)
H39 H 0.8904 0.4488 0.0259
H40 H 0.8289 0.4248 0.0752
C26 C 0.6617(15) 0.3572(7) 0.0293(4)
H41 H 0.6591 0.2881 0.0488
H42 H 0.6932 0.3305 -0.0004
C27 C 0.4863(10) 0.4177(6) 0.02862(18)
H43 H 0.4015 0.3711 0.0460
C28 C 0.2640(11) 0.4835(9) -0.0212(3)
H44 H 0.1757 0.4376 -0.0060
H45 H 0.2362 0.4878 -0.0523
H46 H 0.2679 0.5631 -0.0090
loop_
_geom_bond_atom_site_label_1
_geom_bond_atom_site_label_2
_geom_bond_site_symmetry_1
_geom_bond_site_symmetry_2
O1 C2 1_555 1_555
O2 H1 1_555 1_555
O3 C23 1_555 1_555
O4 C27 1_555 1_555
C1 H2 1_555 1_555
H3 C1 1_555 1_555
C2 C1 1_555 1_555
C3 C2 1_555 1_555
C4 C3 1_555 1_555
H4 C4 1_555 1_555
C5 C4 1_555 1_555
C6 C1 1_555 1_555
H5 C6 1_555 1_555
H6 C6 1_555 1_555
C7 C3 1_555 1_555
H7 C7 1_555 1_555
H8 C7 1_555 1_555
H9 C7 1_555 1_555
C8 C3 1_555 1_555
H10 C8 1_555 1_555
H11 C8 1_555 1_555
H12 C8 1_555 1_555
C9 C5 1_555 1_555
H13 C9 1_555 1_555
H14 C9 1_555 1_555
H15 C9 1_555 1_555
C10 C5 1_555 1_555
H16 C10 1_555 1_555
C11 C10 1_555 1_555
C12 C11 1_555 1_555
H17 C12 1_555 1_555
H18 C12 1_555 1_555
H19 C12 1_555 1_555
C13 C11 1_555 1_555
H20 C13 1_555 1_555
H21 C13 1_555 1_555
C14 C4 1_555 1_555
H22 C14 1_555 1_555
H23 C14 1_555 1_555
C15 C10 1_555 1_555
H24 C15 1_555 1_555
H25 C15 1_555 1_555
C16 O2 1_555 1_555
H26 C16 1_555 1_555
C17 C16 1_555 1_555
H27 C17 1_555 1_555
C18 C11 1_555 1_555
C19 C18 1_555 1_555
H28 C19 1_555 1_555
H29 C19 1_555 1_555
H30 C19 1_555 1_555
C20 C18 1_555 1_555
H31 C20 1_555 1_555
H32 C20 1_555 1_555
C21 C17 1_555 1_555
H33 C21 1_555 1_555
C22 C20 1_555 1_555
H34 C22 1_555 1_555
H35 C22 1_555 1_555
C23 C21 1_555 1_555
C24 C23 1_555 1_555
H36 C24 1_555 1_555
H37 C24 1_555 1_555
H38 C24 1_555 1_555
C25 C23 1_555 1_555
H39 C25 1_555 1_555
H40 C25 1_555 1_555
C26 C25 1_555 1_555
H41 C26 1_555 1_555
H42 C26 1_555 1_555
C27 O3 1_555 1_555
H43 C27 1_555 1_555
C28 O4 1_555 1_555
H44 C28 1_555 1_555
H45 C28 1_555 1_555
H46 C28 1_555 1_555
C5 C6 1_555 1_555
C13 C14 1_555 1_555
C15 C16 1_555 1_555
C17 C18 1_555 1_555
C21 C22 1_555 1_555
C26 C27 1_555 1_555

#END
