
#######################################################################
#
#                 Cambridge Crystallographic Data Centre
#                                CCDC 
#
#######################################################################
#
# If this CIF has been generated from an entry in the Cambridge 
# Structural Database, then it will include bibliographic, chemical, 
# crystal, experimental, refinement or atomic coordinate data resulting 
# from the CCDC's data processing and validation procedures.
#
#######################################################################

data_NOJBIY
_chemical_formula_moiety         'C8 H18 N1 1+,H4 B5 O10 1-'
_chemical_name_systematic        
'Cyclohexyldimethylammonium tetrahydroxypentaborate'
_symmetry_cell_setting           triclinic
_symmetry_space_group_name_H-M   'P -1'
_symmetry_Int_Tables_number      2
_space_group_name_Hall           '-P 1'
loop_
_symmetry_equiv_pos_site_id
_symmetry_equiv_pos_as_xyz
1 x,y,z
2 -x,-y,-z
_cell_length_a                   8.6971(4)
_cell_length_b                   9.8990(2)
_cell_length_c                   10.2300(3)
_cell_angle_alpha                74.591(3)
_cell_angle_beta                 74.442(2)
_cell_angle_gamma                82.190(5)
_cell_volume                     815.975
_exptl_crystal_colour            colorless
_exptl_crystal_description       block
_cell_formula_units_Z            2
loop_
_atom_site_label
_atom_site_type_symbol
_atom_site_fract_x
_atom_site_fract_y
_atom_site_fract_z
B1 B 0.3071(2) 1.10774(18) 0.59941(19)
B2 B 0.1056(2) 1.1184(2) 0.8073(2)
B3 B 0.3133(2) 0.92080(17) 0.81503(17)
B4 B 0.3702(2) 0.66200(18) 0.88838(18)
B5 B 0.5114(2) 0.81317(18) 0.95617(18)
O1 O 0.35979(15) 1.16205(12) 0.46086(12)
H1 H 0.4376 1.1133 0.4291
O2 O 0.17524(14) 1.17636(12) 0.66942(12)
O3 O -0.02096(16) 1.18988(13) 0.87215(13)
H2 H -0.0641 1.1391 0.9470
O4 O 0.16229(13) 0.99089(11) 0.87271(11)
O5 O 0.37677(12) 0.98883(11) 0.66764(10)
O6 O 0.42790(13) 0.92583(10) 0.89591(11)
O7 O 0.28642(13) 0.77398(10) 0.82604(11)
O8 O 0.61961(15) 0.82028(12) 1.02584(13)
H3 H 0.6045 0.8953 1.0486
O9 O 0.48965(13) 0.67959(11) 0.94784(12)
O10 O 0.33377(15) 0.53291(11) 0.89197(13)
H4 H 0.3859 0.4736 0.9386
C1 C 0.2698(4) 0.5351(3) 0.4335(3)
H5 H 0.3327 0.4461 0.4360
H6 H 0.1854 0.5349 0.3880
C2 C 0.3752(4) 0.6525(3) 0.3495(3)
H7 H 0.4659 0.6475 0.3892
H8 H 0.4156 0.6425 0.2542
C3 C 0.1958(3) 0.5485(2) 0.5814(2)
H9 H 0.1248 0.4738 0.6301
H10 H 0.2793 0.5392 0.6304
C4 C 0.2836(3) 0.7915(3) 0.3491(2)
H11 H 0.2010 0.8008 0.2990
H12 H 0.3552 0.8659 0.3005
C5 C 0.2074(3) 0.8069(2) 0.4963(2)
H13 H 0.2908 0.8097 0.5421
H14 H 0.1428 0.8952 0.4922
C6 C 0.1036(2) 0.6880(2) 0.58154(18)
H15 H 0.0141 0.6920 0.5391
C7 C -0.0497(3) 0.5880(3) 0.8280(3)
H16 H -0.0881 0.6078 0.9185
H17 H 0.0219 0.5050 0.8341
H18 H -0.1386 0.5732 0.7956
C8 C -0.0711(3) 0.8397(3) 0.7322(3)
H19 H -0.1092 0.8485 0.8270
H20 H -0.1603 0.8354 0.6953
H21 H -0.0124 0.9194 0.6767
N1 N 0.03619(19) 0.70824(19) 0.72858(16)
H22 H 0.1208 0.7174 0.7614
loop_
_geom_bond_atom_site_label_1
_geom_bond_atom_site_label_2
_geom_bond_site_symmetry_1
_geom_bond_site_symmetry_2
B1 O1 1_555 1_555
B2 O2 1_555 1_555
B3 O4 1_555 1_555
B4 O7 1_555 1_555
B5 O6 1_555 1_555
O1 H1 1_555 1_555
O2 B1 1_555 1_555
O3 B2 1_555 1_555
H2 O3 1_555 1_555
O4 B2 1_555 1_555
O5 B1 1_555 1_555
O6 B3 1_555 1_555
O7 B3 1_555 1_555
O8 B5 1_555 1_555
H3 O8 1_555 1_555
O9 B4 1_555 1_555
O10 B4 1_555 1_555
H4 O10 1_555 1_555
C1 H5 1_555 1_555
H6 C1 1_555 1_555
C2 C1 1_555 1_555
H7 C2 1_555 1_555
H8 C2 1_555 1_555
C3 C1 1_555 1_555
H9 C3 1_555 1_555
H10 C3 1_555 1_555
C4 C2 1_555 1_555
H11 C4 1_555 1_555
H12 C4 1_555 1_555
C5 C4 1_555 1_555
H13 C5 1_555 1_555
H14 C5 1_555 1_555
C6 C3 1_555 1_555
H15 C6 1_555 1_555
C7 H16 1_555 1_555
H17 C7 1_555 1_555
H18 C7 1_555 1_555
C8 H19 1_555 1_555
H20 C8 1_555 1_555
H21 C8 1_555 1_555
N1 C6 1_555 1_555
H22 N1 1_555 1_555
B3 O5 1_555 1_555
B5 O9 1_555 1_555
C5 C6 1_555 1_555
C7 N1 1_555 1_555
C8 N1 1_555 1_555

#END
