
#######################################################################
#
#                 Cambridge Crystallographic Data Centre
#                                CCDC 
#
#######################################################################
#
# If this CIF has been generated from an entry in the Cambridge 
# Structural Database, then it will include bibliographic, chemical, 
# crystal, experimental, refinement or atomic coordinate data resulting 
# from the CCDC's data processing and validation procedures.
#
#######################################################################

data_NOJHEZ
_chemical_formula_moiety         'C12 H11 N3 O2 S1'
_chemical_name_systematic        
5-Nitro-2-thiophenecarboxaldehyde-4-methylphenylhydrazone
_symmetry_cell_setting           monoclinic
_symmetry_space_group_name_H-M   'P 21/n'
_symmetry_Int_Tables_number      14
_space_group_name_Hall           '-P 2yn'
loop_
_symmetry_equiv_pos_site_id
_symmetry_equiv_pos_as_xyz
1 x,y,z
2 1/2-x,1/2+y,1/2-z
3 -x,-y,-z
4 1/2+x,1/2-y,1/2+z
_cell_length_a                   16.136(3)
_cell_length_b                   7.760(2)
_cell_length_c                   20.723(4)
_cell_angle_alpha                90
_cell_angle_beta                 104.53(3)
_cell_angle_gamma                90
_cell_volume                     2511.85
_exptl_crystal_colour            green-red
_exptl_crystal_description       plate
_chemical_melting_point          152deg.C
_cell_formula_units_Z            8
loop_
_atom_site_label
_atom_site_type_symbol
_atom_site_fract_x
_atom_site_fract_y
_atom_site_fract_z
N1 N 0.3339(3) 0.3523(6) 0.5497(2)
N2 N 0.3913(2) 0.3279(6) 0.5130(2)
C1 C 0.3717(3) 0.3898(7) 0.4542(3)
C2 C 0.4303(3) 0.3696(7) 0.4110(2)
S1 S 0.5236(1) 0.2553(2) 0.4367(1)
C3 C 0.5470(3) 0.2997(6) 0.3619(2)
C4 C 0.4871(3) 0.3978(7) 0.3208(3)
C5 C 0.4202(3) 0.4389(7) 0.3495(3)
N3 N 0.6246(3) 0.2414(6) 0.3493(2)
O1 O 0.6780(2) 0.1790(6) 0.3957(2)
O2 O 0.6339(2) 0.2589(5) 0.2930(2)
C6 C 0.3517(3) 0.2985(7) 0.6149(3)
C7 C 0.2941(3) 0.3460(8) 0.6535(3)
C8 C 0.3116(4) 0.2969(8) 0.7191(3)
C9 C 0.3832(4) 0.2042(7) 0.7509(3)
C10 C 0.4391(4) 0.1606(7) 0.7114(3)
C11 C 0.4235(3) 0.2074(7) 0.6466(3)
C12 C 0.4016(5) 0.1534(12) 0.8226(3)
N4 N 0.2760(2) -0.5012(6) 1.0208(2)
N5 N 0.3436(2) -0.4199(5) 1.0074(2)
C13 C 0.3513(3) -0.4268(6) 0.9475(2)
C14 C 0.4258(3) -0.3442(6) 0.9334(2)
S2 S 0.4982(1) -0.2443(2) 0.9938(1)
C15 C 0.5570(3) -0.1983(7) 0.9368(2)
C16 C 0.5238(3) -0.2590(7) 0.8774(3)
C17 C 0.4456(3) -0.3457(7) 0.8726(2)
N6 N 0.6354(3) -0.1071(6) 0.9602(3)
O3 O 0.6614(2) -0.0719(5) 1.0189(2)
O4 O 0.6740(3) -0.0671(6) 0.9180(2)
C18 C 0.2589(3) -0.4799(7) 1.0835(2)
C19 C 0.1837(3) -0.5527(7) 1.0933(2)
C20 C 0.1625(3) -0.5253(7) 1.1532(2)
C21 C 0.2122(3) -0.4302(6) 1.2030(2)
C22 C 0.2876(3) -0.3637(6) 1.1925(2)
C23 C 0.3107(3) -0.3874(6) 1.1324(2)
C24 C 0.1864(4) -0.3934(8) 1.2673(3)
loop_
_geom_bond_atom_site_label_1
_geom_bond_atom_site_label_2
_geom_bond_site_symmetry_1
_geom_bond_site_symmetry_2
N1 N2 1_555 1_555
N2 C1 1_555 1_555
C1 C2 1_555 1_555
C2 S1 1_555 1_555
S1 C3 1_555 1_555
C3 C4 1_555 1_555
C4 C5 1_555 1_555
C5 C2 1_555 1_555
N3 C3 1_555 1_555
O1 N3 1_555 1_555
O2 N3 1_555 1_555
C6 N1 1_555 1_555
C7 C6 1_555 1_555
C8 C7 1_555 1_555
C9 C8 1_555 1_555
C10 C9 1_555 1_555
C11 C6 1_555 1_555
C12 C9 1_555 1_555
N4 N5 1_555 1_555
N5 C13 1_555 1_555
C13 C14 1_555 1_555
C14 S2 1_555 1_555
S2 C15 1_555 1_555
C15 C16 1_555 1_555
C16 C17 1_555 1_555
C17 C14 1_555 1_555
N6 C15 1_555 1_555
O3 N6 1_555 1_555
O4 N6 1_555 1_555
C18 N4 1_555 1_555
C19 C18 1_555 1_555
C20 C19 1_555 1_555
C21 C20 1_555 1_555
C22 C21 1_555 1_555
C23 C18 1_555 1_555
C24 C21 1_555 1_555
C10 C11 1_555 1_555
C22 C23 1_555 1_555

#END
