
#######################################################################
#
#                 Cambridge Crystallographic Data Centre
#                                CCDC 
#
#######################################################################
#
# If this CIF has been generated from an entry in the Cambridge 
# Structural Database, then it will include bibliographic, chemical, 
# crystal, experimental, refinement or atomic coordinate data resulting 
# from the CCDC's data processing and validation procedures.
#
#######################################################################

data_NOJLOO
_chemical_name_common            
(3,5,10,12-Tetrakis(2-methyl-2-propanyl)-3,4,10,11-tetradecatetraene-1,6,8,13-tetrayne-1,14-diyl)bis(tri-2-propanylsilane)
_chemical_formula_moiety         'C48 H78 Si2'
_chemical_name_systematic        
(M,M)-3,5,10,12-tetra-t-butyl-1,14-bis(triisopropylsilyl)tetradeca-3,4,10,11-tetraene-1,6,8,13-tetrayne
_symmetry_cell_setting           monoclinic
_symmetry_space_group_name_H-M   'P 21'
_symmetry_Int_Tables_number      4
_space_group_name_Hall           'P 2yb'
loop_
_symmetry_equiv_pos_site_id
_symmetry_equiv_pos_as_xyz
1 x,y,z
2 -x,1/2+y,-z
_cell_length_a                   9.1043(14)
_cell_length_b                   10.8512(15)
_cell_length_c                   24.843(2)
_cell_angle_alpha                90
_cell_angle_beta                 91.481(12)
_cell_angle_gamma                90
_cell_volume                     2453.48
_exptl_crystal_colour            colorless
_cell_formula_units_Z            2
_exptl_crystal_recrystallization_method methanol/hexane
loop_
_atom_site_label
_atom_site_type_symbol
_atom_site_fract_x
_atom_site_fract_y
_atom_site_fract_z
Si1 Si 0.18311(14) 0.75870(12) -0.19041(5)
Si2 Si 0.32282(14) 1.19770(13) 0.44688(4)
C1 C 0.1857(5) 0.8853(5) -0.14108(18)
C2 C 0.1726(5) 0.9687(4) -0.10927(16)
C3 C 0.1450(5) 1.0692(4) -0.07293(15)
C4 C 0.2370(5) 1.0946(4) -0.03264(16)
C5 C 0.3265(4) 1.1283(4) 0.00670(15)
C6 C 0.3136(4) 1.0725(4) 0.05857(16)
C7 C 0.3140(5) 1.0261(4) 0.10263(17)
C8 C 0.3194(4) 0.9659(4) 0.15190(16)
C9 C 0.3279(4) 0.9139(4) 0.19450(16)
C10 C 0.3494(5) 0.8492(4) 0.24405(15)
C11 C 0.2732(5) 0.8783(4) 0.28632(16)
C12 C 0.1959(5) 0.9005(4) 0.32937(15)
C13 C 0.2434(5) 0.9966(5) 0.36631(18)
C14 C 0.2741(5) 1.0763(5) 0.39820(17)
C15 C 0.3854(6) 1.1152(6) 0.51015(18)
H1 H 0.4608 1.0536 0.4993
C16 C 0.4612(9) 1.2011(8) 0.5521(2)
H2 H 0.3891 1.2595 0.5659
H3 H 0.5406 1.2466 0.5350
H4 H 0.5019 1.1517 0.5819
C17 C 0.2617(7) 1.0427(7) 0.5356(3)
H5 H 0.2998 0.9995 0.5676
H6 H 0.2221 0.9826 0.5095
H7 H 0.1835 1.0995 0.5459
C18 C 0.1533(6) 1.2948(5) 0.4587(2)
H8 H 0.0937 1.2474 0.4849
C19 C 0.1882(7) 1.4172(6) 0.4857(2)
H9 H 0.2418 1.4699 0.4609
H10 H 0.2489 1.4029 0.5183
H11 H 0.0966 1.4579 0.4954
C20 C 0.0547(7) 1.3130(7) 0.4094(3)
H12 H -0.0305 1.3630 0.4190
H13 H 0.0211 1.2327 0.3960
H14 H 0.1094 1.3553 0.3814
C21 C 0.4775(6) 1.2874(5) 0.41792(19)
H15 H 0.5062 1.3521 0.4448
C22 C 0.6124(6) 1.2068(7) 0.4097(2)
H16 H 0.5876 1.1409 0.3840
H17 H 0.6442 1.1706 0.4442
H18 H 0.6919 1.2572 0.3955
C23 C 0.4323(7) 1.3543(6) 0.3655(2)
H19 H 0.5179 1.3965 0.3510
H20 H 0.3555 1.4148 0.3729
H21 H 0.3947 1.2942 0.3391
C24 C 0.0577(5) 0.8288(5) 0.34398(17)
C25 C 0.0106(6) 0.7422(5) 0.29789(19)
H22 H -0.0050 0.7901 0.2648
H23 H -0.0809 0.7005 0.3070
H24 H 0.0877 0.6808 0.2924
C26 C -0.0668(5) 0.9181(6) 0.3552(2)
H25 H -0.0377 0.9722 0.3852
H26 H -0.1547 0.8716 0.3647
H27 H -0.0880 0.9679 0.3231
C27 C 0.0936(6) 0.7528(6) 0.39449(19)
H28 H 0.1700 0.6923 0.3866
H29 H 0.0049 0.7097 0.4058
H30 H 0.1287 0.8075 0.4234
C28 C 0.4657(5) 0.7438(4) 0.24483(15)
C29 C 0.4097(6) 0.6422(5) 0.2068(2)
H31 H 0.4817 0.5751 0.2062
H32 H 0.3957 0.6759 0.1705
H33 H 0.3159 0.6106 0.2195
C30 C 0.4877(7) 0.6943(6) 0.30140(19)
H34 H 0.3949 0.6602 0.3139
H35 H 0.5199 0.7612 0.3254
H36 H 0.5626 0.6295 0.3015
C31 C 0.6115(6) 0.7932(5) 0.2243(2)
H37 H 0.6451 0.8617 0.2472
H38 H 0.5975 0.8221 0.1872
H39 H 0.6851 0.7273 0.2255
C32 C 0.4438(4) 1.2286(4) 0.00034(15)
C33 C 0.5891(5) 1.1877(5) 0.02642(19)
H40 H 0.5759 1.1737 0.0650
H41 H 0.6632 1.2520 0.0216
H42 H 0.6217 1.1112 0.0095
C34 C 0.3915(6) 1.3444(5) 0.0288(2)
H43 H 0.3002 1.3735 0.0113
H44 H 0.4669 1.4085 0.0266
H45 H 0.3739 1.3255 0.0666
C35 C 0.4656(6) 1.2534(6) -0.05928(18)
H46 H 0.5011 1.1783 -0.0766
H47 H 0.5378 1.3195 -0.0633
H48 H 0.3718 1.2782 -0.0763
C36 C 0.0041(5) 1.1441(5) -0.08417(16)
C37 C 0.0087(5) 1.1962(5) -0.14136(17)
H49 H 0.0937 1.2510 -0.1443
H50 H -0.0816 1.2427 -0.1493
H51 H 0.0170 1.1284 -0.1671
C38 C -0.0088(5) 1.2489(5) -0.04412(18)
H52 H -0.0091 1.2155 -0.0075
H53 H -0.1005 1.2940 -0.0514
H54 H 0.0748 1.3050 -0.0476
C39 C -0.1273(5) 1.0566(6) -0.0792(2)
H55 H -0.1177 0.9883 -0.1046
H56 H -0.2185 1.1016 -0.0873
H57 H -0.1296 1.0241 -0.0424
C40 C 0.3747(5) 0.6965(5) -0.19975(19)
H58 H 0.3886 0.6282 -0.1730
C41 C 0.3956(6) 0.6399(5) -0.25508(19)
H59 H 0.3827 0.7037 -0.2827
H60 H 0.3227 0.5746 -0.2612
H61 H 0.4946 0.6051 -0.2569
C42 C 0.4977(6) 0.7896(5) -0.1881(2)
H62 H 0.5927 0.7471 -0.1874
H63 H 0.4824 0.8287 -0.1531
H64 H 0.4967 0.8528 -0.2163
C43 C 0.0574(6) 0.6343(5) -0.1640(2)
H65 H -0.0422 0.6722 -0.1609
C44 C 0.1013(7) 0.5858(6) -0.1084(2)
H66 H 0.0268 0.5276 -0.0963
H67 H 0.1091 0.6547 -0.0830
H68 H 0.1964 0.5438 -0.1102
C45 C 0.0415(7) 0.5289(5) -0.2037(2)
H69 H 0.1363 0.4872 -0.2069
H70 H 0.0095 0.5611 -0.2389
H71 H -0.0316 0.4702 -0.1908
C46 C 0.0960(5) 0.8237(5) -0.25466(18)
H72 H 0.0994 0.7578 -0.2827
C47 C 0.1829(7) 0.9337(6) -0.2752(2)
H73 H 0.1429 0.9588 -0.3105
H74 H 0.2863 0.9104 -0.2784
H75 H 0.1752 1.0024 -0.2498
C48 C -0.0654(6) 0.8573(7) -0.2473(2)
H76 H -0.0724 0.9231 -0.2205
H77 H -0.1190 0.7846 -0.2351
H78 H -0.1083 0.8856 -0.2817
loop_
_geom_bond_atom_site_label_1
_geom_bond_atom_site_label_2
_geom_bond_site_symmetry_1
_geom_bond_site_symmetry_2
Si1 C1 1_555 1_555
Si2 C14 1_555 1_555
C1 C2 1_555 1_555
C2 C3 1_555 1_555
C3 C4 1_555 1_555
C4 C5 1_555 1_555
C5 C6 1_555 1_555
C6 C7 1_555 1_555
C7 C8 1_555 1_555
C8 C9 1_555 1_555
C9 C10 1_555 1_555
C10 C11 1_555 1_555
C11 C12 1_555 1_555
C12 C13 1_555 1_555
C13 C14 1_555 1_555
C15 Si2 1_555 1_555
H1 C15 1_555 1_555
C16 C15 1_555 1_555
H2 C16 1_555 1_555
H3 C16 1_555 1_555
H4 C16 1_555 1_555
C17 C15 1_555 1_555
H5 C17 1_555 1_555
H6 C17 1_555 1_555
H7 C17 1_555 1_555
C18 Si2 1_555 1_555
H8 C18 1_555 1_555
C19 C18 1_555 1_555
H9 C19 1_555 1_555
H10 C19 1_555 1_555
H11 C19 1_555 1_555
C20 C18 1_555 1_555
H12 C20 1_555 1_555
H13 C20 1_555 1_555
H14 C20 1_555 1_555
C21 Si2 1_555 1_555
H15 C21 1_555 1_555
C22 C21 1_555 1_555
H16 C22 1_555 1_555
H17 C22 1_555 1_555
H18 C22 1_555 1_555
C23 C21 1_555 1_555
H19 C23 1_555 1_555
H20 C23 1_555 1_555
H21 C23 1_555 1_555
C24 C12 1_555 1_555
C25 C24 1_555 1_555
H22 C25 1_555 1_555
H23 C25 1_555 1_555
H24 C25 1_555 1_555
C26 C24 1_555 1_555
H25 C26 1_555 1_555
H26 C26 1_555 1_555
H27 C26 1_555 1_555
C27 C24 1_555 1_555
H28 C27 1_555 1_555
H29 C27 1_555 1_555
H30 C27 1_555 1_555
C28 C10 1_555 1_555
C29 C28 1_555 1_555
H31 C29 1_555 1_555
H32 C29 1_555 1_555
H33 C29 1_555 1_555
C30 C28 1_555 1_555
H34 C30 1_555 1_555
H35 C30 1_555 1_555
H36 C30 1_555 1_555
C31 C28 1_555 1_555
H37 C31 1_555 1_555
H38 C31 1_555 1_555
H39 C31 1_555 1_555
C32 C5 1_555 1_555
C33 C32 1_555 1_555
H40 C33 1_555 1_555
H41 C33 1_555 1_555
H42 C33 1_555 1_555
C34 C32 1_555 1_555
H43 C34 1_555 1_555
H44 C34 1_555 1_555
H45 C34 1_555 1_555
C35 C32 1_555 1_555
H46 C35 1_555 1_555
H47 C35 1_555 1_555
H48 C35 1_555 1_555
C36 C3 1_555 1_555
C37 C36 1_555 1_555
H49 C37 1_555 1_555
H50 C37 1_555 1_555
H51 C37 1_555 1_555
C38 C36 1_555 1_555
H52 C38 1_555 1_555
H53 C38 1_555 1_555
H54 C38 1_555 1_555
C39 C36 1_555 1_555
H55 C39 1_555 1_555
H56 C39 1_555 1_555
H57 C39 1_555 1_555
C40 Si1 1_555 1_555
H58 C40 1_555 1_555
C41 C40 1_555 1_555
H59 C41 1_555 1_555
H60 C41 1_555 1_555
H61 C41 1_555 1_555
C42 C40 1_555 1_555
H62 C42 1_555 1_555
H63 C42 1_555 1_555
H64 C42 1_555 1_555
C43 Si1 1_555 1_555
H65 C43 1_555 1_555
C44 C43 1_555 1_555
H66 C44 1_555 1_555
H67 C44 1_555 1_555
H68 C44 1_555 1_555
C45 C43 1_555 1_555
H69 C45 1_555 1_555
H70 C45 1_555 1_555
H71 C45 1_555 1_555
C46 Si1 1_555 1_555
H72 C46 1_555 1_555
C47 C46 1_555 1_555
H73 C47 1_555 1_555
H74 C47 1_555 1_555
H75 C47 1_555 1_555
C48 C46 1_555 1_555
H76 C48 1_555 1_555
H77 C48 1_555 1_555
H78 C48 1_555 1_555

#END
