
#######################################################################
#
#                 Cambridge Crystallographic Data Centre
#                                CCDC 
#
#######################################################################
#
# If this CIF has been generated from an entry in the Cambridge 
# Structural Database, then it will include bibliographic, chemical, 
# crystal, experimental, refinement or atomic coordinate data resulting 
# from the CCDC's data processing and validation procedures.
#
#######################################################################

data_NOJLUT
_chemical_formula_moiety         'C16 H11 Br1 Cl1 N7 S1'
_chemical_name_systematic        
2-(3'-Bromoanilino)-5-(5'-amino-1'-(4''-chlorophenyl)-1',2',3'-triazol-4'-yl)-1,3,4-thiadiazole
_symmetry_cell_setting           triclinic
_symmetry_space_group_name_H-M   'P -1'
_symmetry_Int_Tables_number      2
_space_group_name_Hall           '-P 1'
loop_
_symmetry_equiv_pos_site_id
_symmetry_equiv_pos_as_xyz
1 x,y,z
2 -x,-y,-z
_cell_length_a                   11.784(2)
_cell_length_b                   14.455(2)
_cell_length_c                   11.353(1)
_cell_angle_alpha                100.68(1)
_cell_angle_beta                 109.50(1)
_cell_angle_gamma                79.89(1)
_cell_volume                     1777.8
_chemical_melting_point          259-260deg.C
_cell_formula_units_Z            4
loop_
_atom_site_label
_atom_site_type_symbol
_atom_site_fract_x
_atom_site_fract_y
_atom_site_fract_z
Br1 Br 0.27373 0.11784 0.89963
C1 C 0.21299 0.24816 0.89425
Cl1 Cl 0.20260 1.39218 1.25948
S1 S 0.20344 0.63831 1.03269
N1 N 0.33900 0.47162 0.96995
C2 C 0.25135 0.41009 0.93238
C3 C 0.33211 0.56509 1.00903
N2 N 0.40453 0.70509 1.08155
N3 N 0.11573 0.93952 1.16997
N4 N 0.41085 0.91848 1.13455
N5 N 0.07244 -0.61523 0.51120
C4 C 0.16707 -0.57487 0.57931
N6 N 0.36789 -0.87201 0.62775
C5 C 0.24899 -0.84333 0.56008
N7 N 0.28147 -0.99592 0.52390
C6 C 0.27868 -1.09446 0.48044
C7 C 0.04830 0.36931 0.84464
C8 C 0.24734 0.82525 1.12133
C9 C 0.21961 1.07644 1.19695
C10 C 0.31549 1.21612 1.29717
C11 C 0.10945 1.22859 1.15628
C12 C 0.29034 -0.26277 0.75605
C13 C 0.45528 -0.37867 0.74344
C14 C 0.25096 -0.42068 0.66648
C15 C 0.18824 -1.23626 0.43649
C16 C 0.38678 -1.23961 0.41465
loop_
_geom_bond_atom_site_label_1
_geom_bond_atom_site_label_2
_geom_bond_site_symmetry_1
_geom_bond_site_symmetry_2
Br1 C1 1_555 1_555
S1 C3 1_555 1_555
N1 C2 1_555 1_555
C3 N1 1_555 1_555
N5 C4 1_555 1_555
N6 C5 1_555 1_555
N7 C6 1_555 1_555

#END
