
#######################################################################
#
#                 Cambridge Crystallographic Data Centre
#                                CCDC 
#
#######################################################################
#
# If this CIF has been generated from an entry in the Cambridge 
# Structural Database, then it will include bibliographic, chemical, 
# crystal, experimental, refinement or atomic coordinate data resulting 
# from the CCDC's data processing and validation procedures.
#
#######################################################################

data_NOJNOR
_chemical_formula_moiety         'C15 H9 F4 N1 O1 S1'
_chemical_name_systematic        
3-(4-fluorophenyl)-3-((trifluoromethyl)sulfanyl)-1,3-dihydro-2H-indol-2-one
_symmetry_cell_setting           trigonal
_symmetry_space_group_name_H-M   'P 31'
_symmetry_Int_Tables_number      144
_space_group_name_Hall           'P 31'
loop_
_symmetry_equiv_pos_site_id
_symmetry_equiv_pos_as_xyz
1 x,y,z
2 -y,x-y,1/3+z
3 -x+y,-x,2/3+z
_cell_length_a                   10.4248(6)
_cell_length_b                   10.4248(6)
_cell_length_c                   11.2219(7)
_cell_angle_alpha                90
_cell_angle_beta                 90
_cell_angle_gamma                120
_cell_volume                     1056.17
_exptl_crystal_colour            colorless
_exptl_crystal_description       prism
_cell_formula_units_Z            3
loop_
_atom_site_label
_atom_site_type_symbol
_atom_site_fract_x
_atom_site_fract_y
_atom_site_fract_z
C1 C 0.0617(9) 0.5802(6) 0.1827(6)
C2 C 0.2156(5) 0.8684(5) 0.2855(4)
C3 C 0.3152(5) 1.0307(5) 0.2486(4)
C4 C 0.4528(5) 1.0749(5) 0.1982(5)
H1 H 0.4827 1.0053 0.1869
C5 C 0.5463(6) 1.2206(6) 0.1645(6)
H2 H 0.6387 1.2495 0.1317
C6 C 0.5000(6) 1.3201(5) 0.1805(5)
C7 C 0.3619(6) 1.2789(5) 0.2249(5)
H3 H 0.3304 1.3478 0.2310
C8 C 0.2709(6) 1.1348(5) 0.2601(4)
H4 H 0.1782 1.1069 0.2920
C9 C 0.3004(5) 0.8175(4) 0.3709(4)
C10 C 0.0946(5) 0.7864(4) 0.4695(4)
C11 C 0.0812(5) 0.8350(5) 0.3579(4)
C12 C -0.0463(5) 0.8402(6) 0.3299(6)
H5 H -0.0579 0.8716 0.2552
C13 C -0.1547(6) 0.7978(7) 0.4155(7)
H6 H -0.2405 0.8005 0.3976
C14 C -0.1394(6) 0.7514(6) 0.5271(7)
H7 H -0.2134 0.7258 0.5838
C15 C -0.0141(5) 0.7426(5) 0.5552(5)
H8 H -0.0040 0.7084 0.6291
F1 F 0.0428(6) 0.5005(4) 0.0850(4)
F2 F -0.0713(7) 0.5455(5) 0.2153(7)
F3 F 0.1169(8) 0.5342(4) 0.2631(5)
F4 F 0.5897(4) 1.4627(3) 0.1494(4)
N1 N 0.2267(4) 0.7816(4) 0.4767(4)
H9 H 0.240(6) 0.729(5) 0.527(4)
O1 O 0.4111(4) 0.8112(4) 0.3479(3)
S1 S 0.17681(15) 0.77121(12) 0.14263(11)
loop_
_geom_bond_atom_site_label_1
_geom_bond_atom_site_label_2
_geom_bond_site_symmetry_1
_geom_bond_site_symmetry_2
C1 F1 1_555 1_555
C2 C3 1_555 1_555
C3 C4 1_555 1_555
C4 H1 1_555 1_555
C5 C4 1_555 1_555
H2 C5 1_555 1_555
C6 C5 1_555 1_555
C7 C6 1_555 1_555
H3 C7 1_555 1_555
C8 C3 1_555 1_555
H4 C8 1_555 1_555
C9 C2 1_555 1_555
C10 C11 1_555 1_555
C11 C2 1_555 1_555
C12 C11 1_555 1_555
H5 C12 1_555 1_555
C13 C12 1_555 1_555
H6 C13 1_555 1_555
C14 C13 1_555 1_555
H7 C14 1_555 1_555
C15 C10 1_555 1_555
H8 C15 1_555 1_555
F2 C1 1_555 1_555
F3 C1 1_555 1_555
F4 C6 1_555 1_555
N1 C9 1_555 1_555
H9 N1 1_555 1_555
O1 C9 1_555 1_555
S1 C1 1_555 1_555
C2 S1 1_555 1_555
C7 C8 1_555 1_555
C10 N1 1_555 1_555
C14 C15 1_555 1_555

#END
