
#######################################################################
#
#                 Cambridge Crystallographic Data Centre
#                                CCDC 
#
#######################################################################
#
# If this CIF has been generated from an entry in the Cambridge 
# Structural Database, then it will include bibliographic, chemical, 
# crystal, experimental, refinement or atomic coordinate data resulting 
# from the CCDC's data processing and validation procedures.
#
#######################################################################

data_NOJTIP
_chemical_formula_moiety         'C34 H30 N2 O2 S3'
_chemical_name_systematic        
2,4-bis(p-Methoxyphenyl)-3,5-bis(N-p-methylthiobenzamido)thiophene
_symmetry_cell_setting           monoclinic
_symmetry_space_group_name_H-M   'P 21/c'
_symmetry_Int_Tables_number      14
_space_group_name_Hall           '-P 2ybc'
loop_
_symmetry_equiv_pos_site_id
_symmetry_equiv_pos_as_xyz
1 x,y,z
2 -x,1/2+y,1/2-z
3 -x,-y,-z
4 x,1/2-y,1/2+z
_cell_length_a                   11.351(3)
_cell_length_b                   20.804(7)
_cell_length_c                   14.162(5)
_cell_angle_alpha                90
_cell_angle_beta                 111.68(2)
_cell_angle_gamma                90
_cell_volume                     3107.73
_exptl_crystal_colour            orange-yellow
_exptl_crystal_description       chunk
_chemical_melting_point          219-222deg.C
_cell_formula_units_Z            4
_exptl_crystal_recrystallization_method benzene
loop_
_atom_site_label
_atom_site_type_symbol
_atom_site_fract_x
_atom_site_fract_y
_atom_site_fract_z
S1 S 0.0037(1) -0.0040(1) 0.3537(1)
S2 S 0.2066(1) -0.1184(1) 0.4140(1)
S3 S 0.0835(1) 0.2277(1) 0.3265(1)
N1 N 0.2460(3) -0.0049(2) 0.5059(2)
N2 N -0.0480(3) 0.1752(2) 0.4255(2)
O1 O -0.5830(3) 0.0811(2) 0.0575(3)
O2 O 0.4955(3) 0.2020(2) 0.8110(3)
C1 C -0.0805(4) 0.0675(2) 0.3439(3)
C2 C -0.0069(4) 0.1121(2) 0.4119(3)
C3 C 0.1174(3) 0.0903(2) 0.4720(3)
C4 C 0.1354(3) 0.0283(2) 0.4492(3)
C5 C -0.4111(5) 0.0230(3) 0.1658(4)
C6 C -0.2887(4) 0.0184(2) 0.2361(3)
C7 C -0.2119(4) 0.0726(2) 0.2685(3)
C8 C -0.2631(4) 0.1314(2) 0.2260(3)
C9 C -0.3864(4) 0.1361(3) 0.1549(3)
C10 C -0.4612(4) 0.0816(3) 0.1251(3)
C11 C -0.6383(5) 0.1396(4) 0.0125(4)
C12 C 0.2849(4) 0.1754(2) 0.7215(3)
C13 C 0.1891(4) 0.1497(2) 0.6391(3)
C14 C 0.2134(3) 0.1269(2) 0.5547(3)
C15 C 0.3348(4) 0.1351(2) 0.5550(3)
C16 C 0.4319(4) 0.1608(2) 0.6385(4)
C17 C 0.4069(4) 0.1795(2) 0.7223(4)
C18 C 0.6225(5) 0.1984(3) 0.8238(5)
C19 C -0.0051(4) 0.2295(2) 0.3969(3)
C20 C -0.0438(3) 0.2907(2) 0.4308(3)
C21 C -0.0628(4) 0.2956(2) 0.5227(3)
C22 C -0.0993(4) 0.3531(2) 0.5512(3)
C23 C -0.1206(4) 0.4074(2) 0.4913(4)
C24 C -0.1009(4) 0.4031(2) 0.4001(3)
C25 C -0.0613(4) 0.3461(2) 0.3712(3)
C26 C -0.1651(5) 0.4698(3) 0.5223(4)
C27 C 0.2903(4) -0.0641(2) 0.4995(3)
C28 C 0.4209(4) -0.0753(2) 0.5752(3)
C29 C 0.4640(4) -0.1368(2) 0.6090(3)
C30 C 0.5838(5) -0.1463(2) 0.6804(3)
C31 C 0.6667(4) -0.0958(3) 0.7207(3)
C32 C 0.6257(4) -0.0347(2) 0.6857(3)
C33 C 0.5050(4) -0.0241(2) 0.6145(3)
C34 C 0.7978(4) -0.1064(3) 0.7989(4)
loop_
_geom_bond_atom_site_label_1
_geom_bond_atom_site_label_2
_geom_bond_site_symmetry_1
_geom_bond_site_symmetry_2
S1 C1 1_555 1_555
S2 C27 1_555 1_555
S3 C19 1_555 1_555
N1 C4 1_555 1_555
N2 C2 1_555 1_555
O1 C10 1_555 1_555
O2 C17 1_555 1_555
C1 C2 1_555 1_555
C2 C3 1_555 1_555
C3 C4 1_555 1_555
C4 S1 1_555 1_555
C5 C6 1_555 1_555
C6 C7 1_555 1_555
C7 C1 1_555 1_555
C8 C7 1_555 1_555
C9 C8 1_555 1_555
C10 C5 1_555 1_555
C11 O1 1_555 1_555
C12 C13 1_555 1_555
C13 C14 1_555 1_555
C14 C3 1_555 1_555
C15 C14 1_555 1_555
C16 C15 1_555 1_555
C17 C12 1_555 1_555
C18 O2 1_555 1_555
C19 N2 1_555 1_555
C20 C19 1_555 1_555
C21 C20 1_555 1_555
C22 C21 1_555 1_555
C23 C22 1_555 1_555
C24 C23 1_555 1_555
C25 C20 1_555 1_555
C26 C23 1_555 1_555
C27 N1 1_555 1_555
C28 C27 1_555 1_555
C29 C28 1_555 1_555
C30 C29 1_555 1_555
C31 C30 1_555 1_555
C32 C31 1_555 1_555
C33 C28 1_555 1_555
C34 C31 1_555 1_555
C9 C10 1_555 1_555
C16 C17 1_555 1_555
C24 C25 1_555 1_555
C32 C33 1_555 1_555

#END
