
#######################################################################
#
#                 Cambridge Crystallographic Data Centre
#                                CCDC 
#
#######################################################################
#
# If this CIF has been generated from an entry in the Cambridge 
# Structural Database, then it will include bibliographic, chemical, 
# crystal, experimental, refinement or atomic coordinate data resulting 
# from the CCDC's data processing and validation procedures.
#
#######################################################################

data_NOJTUC
_chemical_formula_moiety         'C28 H22 N4 O6'
_chemical_name_systematic        
(S,S)-N,N'-(2-Hydroxybenzylidene)-1,2-bis(4-nitrophenyl)ethane-1,2-diamine
_symmetry_cell_setting           monoclinic
_symmetry_space_group_name_H-M   'P 21/n'
_symmetry_Int_Tables_number      14
_space_group_name_Hall           '-P 2yn'
loop_
_symmetry_equiv_pos_site_id
_symmetry_equiv_pos_as_xyz
1 x,y,z
2 1/2-x,1/2+y,1/2-z
3 -x,-y,-z
4 1/2+x,1/2-y,1/2+z
_cell_length_a                   16.4941(7)
_cell_length_b                   8.9269(5)
_cell_length_c                   17.8748(9)
_cell_angle_alpha                90
_cell_angle_beta                 106.919(3)
_cell_angle_gamma                90
_cell_volume                     2517.99
_exptl_crystal_colour            colorless
_exptl_crystal_description       block
_cell_formula_units_Z            4
loop_
_atom_site_label
_atom_site_type_symbol
_atom_site_fract_x
_atom_site_fract_y
_atom_site_fract_z
O1 O 0.31332(13) 0.1368(2) 0.26074(11)
O2 O 0.02520(12) 0.1491(2) -0.02306(11)
O3 O 0.01856(16) -0.2325(3) 0.54251(14)
O4 O 0.1502(2) -0.1872(6) 0.57969(17)
O5 O -0.37135(15) 0.0390(3) 0.12503(18)
O6 O -0.34987(14) 0.1571(3) 0.23428(15)
N1 N 0.15819(13) 0.0354(2) 0.21773(12)
N2 N 0.03489(13) 0.2098(2) 0.12201(12)
N3 N 0.0822(2) -0.1876(4) 0.53044(18)
N4 N -0.32490(17) 0.1052(3) 0.18122(18)
C1 C 0.07216(15) 0.0192(3) 0.22336(15)
H1 H 0.0425 -0.0600 0.1857
C2 C 0.02559(16) 0.1710(3) 0.19867(15)
H2 H 0.0524 0.2503 0.2375
C3 C 0.07391(16) -0.0285(3) 0.30565(15)
C4 C 0.1472(2) -0.0199(4) 0.36702(18)
H3 H 0.1965 0.0230 0.3586
C5 C 0.1505(2) -0.0724(5) 0.44066(19)
H4 H 0.2019 -0.0698 0.4821
C6 C 0.0780(2) -0.1280(4) 0.45244(17)
C7 C 0.00471(18) -0.1381(3) 0.39405(16)
H5 H -0.0447 -0.1781 0.4036
C8 C 0.00295(17) -0.0894(3) 0.32029(16)
H6 H -0.0481 -0.0979 0.2787
C9 C -0.06755(16) 0.1589(3) 0.19246(15)
C10 C -0.09992(17) 0.2274(3) 0.24749(16)
H7 H -0.0636 0.2858 0.2880
C11 C -0.18440(18) 0.2117(3) 0.24388(17)
H8 H -0.2066 0.2593 0.2812
C12 C -0.23565(17) 0.1252(3) 0.18489(17)
C13 C -0.20594(17) 0.0550(3) 0.12887(16)
H9 H -0.2425 -0.0039 0.0888
C14 C -0.12129(16) 0.0734(3) 0.13319(16)
H10 H -0.0995 0.0271 0.0952
C15 C 0.17681(16) -0.0367(3) 0.16290(15)
H11 H 0.1348 -0.0982 0.1291
C16 C 0.26007(16) -0.0274(3) 0.15083(15)
C17 C 0.32580(16) 0.0577(3) 0.19983(15)
C18 C 0.40452(17) 0.0606(3) 0.18733(17)
H12 H 0.4492 0.1165 0.2214
C19 C 0.41860(18) -0.0169(4) 0.12585(18)
H13 H 0.4727 -0.0123 0.1171
C20 C 0.35486(19) -0.1016(4) 0.07645(19)
H14 H 0.3649 -0.1556 0.0342
C21 C 0.27639(18) -0.1064(4) 0.08957(18)
H15 H 0.2326 -0.1649 0.0560
C22 C 0.07147(15) 0.3340(3) 0.11488(15)
H16 H 0.0894 0.3988 0.1587
C23 C 0.08605(15) 0.3778(3) 0.04175(15)
C24 C 0.06353(16) 0.2851(3) -0.02448(15)
C25 C 0.08005(17) 0.3286(3) -0.09300(16)
H17 H 0.0658 0.2641 -0.1372
C26 C 0.11733(17) 0.4657(3) -0.09703(17)
H18 H 0.1284 0.4955 -0.1442
C27 C 0.13860(16) 0.5597(3) -0.03310(17)
H19 H 0.1638 0.6543 -0.0363
C28 C 0.12322(15) 0.5161(3) 0.03575(16)
H20 H 0.1382 0.5813 0.0797
H21 H 0.258(2) 0.119(4) 0.2589(19)
H22 H 0.029(2) 0.139(4) 0.032(2)
loop_
_geom_bond_atom_site_label_1
_geom_bond_atom_site_label_2
_geom_bond_site_symmetry_1
_geom_bond_site_symmetry_2
O1 C17 1_555 1_555
O2 C24 1_555 1_555
O3 N3 1_555 1_555
O4 N3 1_555 1_555
O5 N4 1_555 1_555
O6 N4 1_555 1_555
N1 C1 1_555 1_555
N2 C2 1_555 1_555
N3 C6 1_555 1_555
N4 C12 1_555 1_555
C1 H1 1_555 1_555
C2 C1 1_555 1_555
H2 C2 1_555 1_555
C3 C1 1_555 1_555
C4 C3 1_555 1_555
H3 C4 1_555 1_555
C5 C4 1_555 1_555
H4 C5 1_555 1_555
C6 C5 1_555 1_555
C7 C6 1_555 1_555
H5 C7 1_555 1_555
C8 C3 1_555 1_555
H6 C8 1_555 1_555
C9 C2 1_555 1_555
C10 C9 1_555 1_555
H7 C10 1_555 1_555
C11 C10 1_555 1_555
H8 C11 1_555 1_555
C12 C11 1_555 1_555
C13 C12 1_555 1_555
H9 C13 1_555 1_555
C14 C9 1_555 1_555
H10 C14 1_555 1_555
C15 N1 1_555 1_555
H11 C15 1_555 1_555
C16 C15 1_555 1_555
C17 C16 1_555 1_555
C18 C17 1_555 1_555
H12 C18 1_555 1_555
C19 C18 1_555 1_555
H13 C19 1_555 1_555
C20 C19 1_555 1_555
H14 C20 1_555 1_555
C21 C16 1_555 1_555
H15 C21 1_555 1_555
C22 N2 1_555 1_555
H16 C22 1_555 1_555
C23 C22 1_555 1_555
C24 C23 1_555 1_555
C25 C24 1_555 1_555
H17 C25 1_555 1_555
C26 C25 1_555 1_555
H18 C26 1_555 1_555
C27 C26 1_555 1_555
H19 C27 1_555 1_555
C28 C23 1_555 1_555
H20 C28 1_555 1_555
H21 O1 1_555 1_555
H22 O2 1_555 1_555
C7 C8 1_555 1_555
C13 C14 1_555 1_555
C20 C21 1_555 1_555
C27 C28 1_555 1_555

#END
