
#######################################################################
#
#                 Cambridge Crystallographic Data Centre
#                                CCDC 
#
#######################################################################
#
# If this CIF has been generated from an entry in the Cambridge 
# Structural Database, then it will include bibliographic, chemical, 
# crystal, experimental, refinement or atomic coordinate data resulting 
# from the CCDC's data processing and validation procedures.
#
#######################################################################

data_NOJVAK
_chemical_formula_moiety         'C16 H22 N2 2+,2(Cl1 1-),1.13(H2 O1)'
_chemical_name_systematic        
'(S,S)-1,2-bis(2-Methylphenyl)ethane-1,2-diammonium dichloride hydrate'
_symmetry_cell_setting           monoclinic
_symmetry_space_group_name_H-M   'C 2'
_symmetry_Int_Tables_number      5
_space_group_name_Hall           'C 2y'
loop_
_symmetry_equiv_pos_site_id
_symmetry_equiv_pos_as_xyz
1 x,y,z
2 -x,y,-z
3 1/2+x,1/2+y,z
4 1/2-x,1/2+y,-z
_cell_length_a                   30.0290(11)
_cell_length_b                   15.9190(7)
_cell_length_c                   19.3815(6)
_cell_angle_alpha                90
_cell_angle_beta                 127.4090(17)
_cell_angle_gamma                90
_cell_volume                     7359.34
_exptl_crystal_colour            colorless
_exptl_crystal_description       block
_cell_formula_units_Z            16
loop_
_atom_site_label
_atom_site_type_symbol
_atom_site_fract_x
_atom_site_fract_y
_atom_site_fract_z
Cl1 Cl 0.19009(7) 0.42412(13) 0.44626(11)
Cl2 Cl 0.11658(8) 0.43641(13) 0.19148(12)
Cl3 Cl 0.09421(7) 0.81399(12) 0.24693(12)
Cl4 Cl 0.57535(11) 1.3284(2) -0.00781(14)
Cl5 Cl 0.64930(8) 0.52685(12) 0.30617(12)
Cl6 Cl 0.41518(11) 0.5774(2) -0.07268(16)
Cl7 Cl 0.70362(7) 1.15194(11) 0.28847(11)
Cl8 Cl 0.69383(8) 1.23730(12) 0.48974(11)
N1 N 0.2263(2) 0.8417(4) 0.3631(3)
H1 H 0.2229 0.7862 0.3493
H2 H 0.1924 0.8623 0.3444
H3 H 0.2514 0.8480 0.4217
N2 N 0.1518(2) 0.8975(5) 0.1747(3)
H4 H 0.1339 0.8671 0.1909
H5 H 0.1335 0.8915 0.1166
H6 H 0.1521 0.9527 0.1873
C1 C 0.2465(3) 0.8885(5) 0.3202(4)
H7 H 0.2425 0.9500 0.3258
C2 C 0.2106(3) 0.8668(5) 0.2227(4)
H8 H 0.2096 0.8043 0.2167
C3 C 0.3075(3) 0.8701(5) 0.3654(4)
C4 C 0.3236(3) 0.7878(6) 0.3680(5)
H9 H 0.2954 0.7457 0.3401
C5 C 0.3787(4) 0.7641(8) 0.4093(6)
H10 H 0.3891 0.7075 0.4105
C6 C 0.4181(4) 0.8291(15) 0.4492(7)
H11 H 0.4564 0.8162 0.4771
C7 C 0.4030(4) 0.9137(10) 0.4497(6)
H12 H 0.4310 0.9560 0.4793
C8 C 0.3484(3) 0.9327(6) 0.4072(5)
C9 C 0.3351(5) 1.0241(7) 0.4114(6)
H13 H 0.2945 1.0310 0.3779
H14 H 0.3488 1.0602 0.3869
H15 H 0.3535 1.0398 0.4720
C10 C 0.2359(3) 0.9039(5) 0.1810(4)
C11 C 0.2433(4) 0.9889(6) 0.1828(6)
H16 H 0.2310 1.0244 0.2076
C12 C 0.2688(6) 1.0245(9) 0.1486(7)
H17 H 0.2745 1.0835 0.1510
C13 C 0.2852(5) 0.9739(10) 0.1122(8)
H18 H 0.3041 0.9979 0.0916
C14 C 0.2758(4) 0.8903(9) 0.1038(6)
H19 H 0.2861 0.8571 0.0748
C15 C 0.2504(4) 0.8520(6) 0.1384(5)
C16 C 0.2407(7) 0.7595(6) 0.1284(8)
H20 H 0.2583 0.7340 0.1855
H21 H 0.2571 0.7355 0.1019
H22 H 0.2003 0.7482 0.0911
N3 N 0.2199(2) 0.3215(4) 0.3220(3)
H23 H 0.1898 0.3550 0.2854
H24 H 0.2276 0.3211 0.3752
H25 H 0.2122 0.2683 0.3004
N4 N 0.2681(2) 0.4860(4) 0.3992(4)
H26 H 0.2338 0.4761 0.3859
H27 H 0.2746 0.5423 0.4040
H28 H 0.2950 0.4606 0.4505
C17 C 0.2706(3) 0.3551(4) 0.3302(4)
H29 H 0.3056 0.3357 0.3867
C18 C 0.2696(3) 0.4513(4) 0.3288(4)
H30 H 0.2355 0.4706 0.2713
C19 C 0.2697(3) 0.3205(5) 0.2571(5)
C20 C 0.2217(4) 0.3351(5) 0.1701(5)
H31 H 0.1908 0.3661 0.1587
C21 C 0.2203(5) 0.3034(7) 0.1016(6)
H32 H 0.1880 0.3122 0.0434
C22 C 0.2646(6) 0.2601(7) 0.1174(8)
H33 H 0.2639 0.2407 0.0705
C23 C 0.3111(5) 0.2441(6) 0.2028(8)
H34 H 0.3417 0.2132 0.2131
C24 C 0.3138(4) 0.2720(5) 0.2730(6)
C25 C 0.3634(4) 0.2514(6) 0.3625(7)
H35 H 0.3821 0.3034 0.3943
H36 H 0.3896 0.2170 0.3601
H37 H 0.3515 0.2201 0.3922
C26 C 0.3220(3) 0.4860(4) 0.3413(4)
C27 C 0.3734(3) 0.4727(5) 0.4204(5)
H38 H 0.3752 0.4433 0.4647
C28 C 0.4222(3) 0.5014(6) 0.4363(6)
H39 H 0.4574 0.4912 0.4908
C29 C 0.4195(4) 0.5448(6) 0.3728(6)
H40 H 0.4528 0.5653 0.3831
C30 C 0.3687(4) 0.5583(5) 0.2947(5)
H41 H 0.3672 0.5894 0.2516
C31 C 0.3186(3) 0.5282(5) 0.2757(4)
C32 C 0.2646(3) 0.5421(5) 0.1862(5)
H42 H 0.2725 0.5699 0.1496
H43 H 0.2396 0.5776 0.1903
H44 H 0.2464 0.4879 0.1605
N5 N 0.5160(4) 0.4793(8) 0.1322(7)
H45 H 0.4929 0.4383 0.0944
H46 H 0.5459 0.4556 0.1820
H47 H 0.5282 0.5114 0.1078
N6 N 0.5486(5) 0.6608(7) 0.1882(7)
H48 H 0.5691 0.7017 0.2286
H49 H 0.5223 0.6849 0.1358
H50 H 0.5717 0.6281 0.1839
C33 C 0.4841(5) 0.5343(7) 0.1531(7)
H51 H 0.4511 0.5590 0.0975
C34 C 0.5200(5) 0.6072(7) 0.2153(9)
H52 H 0.5503 0.5813 0.2724
C35 C 0.4623(3) 0.4800(6) 0.1910(6)
C36 C 0.5023(3) 0.4422(7) 0.2706(6)
H53 H 0.5410 0.4513 0.2984
C37 C 0.4856(4) 0.3912(7) 0.3094(6)
H54 H 0.5130 0.3654 0.3637
C38 C 0.4289(4) 0.3780(7) 0.2686(7)
H55 H 0.4175 0.3431 0.2951
C39 C 0.3889(3) 0.4157(7) 0.1890(7)
H56 H 0.3502 0.4067 0.1611
C40 C 0.4056(3) 0.4667(7) 0.1502(5)
C41 C 0.3596(6) 0.4992(12) 0.0625(9)
H57 H 0.3234 0.4811 0.0470
H58 H 0.3641 0.4772 0.0198
H59 H 0.3611 0.5607 0.0628
C42 C 0.4854(4) 0.6616(6) 0.2309(6)
C43 C 0.4370(4) 0.6990(7) 0.1597(5)
H60 H 0.4274 0.6924 0.1033
C44 C 0.4028(4) 0.7460(7) 0.1709(6)
H61 H 0.3698 0.7715 0.1222
C45 C 0.4169(4) 0.7556(7) 0.2533(7)
H62 H 0.3936 0.7877 0.2609
C46 C 0.4653(4) 0.7182(7) 0.3245(6)
H63 H 0.4749 0.7247 0.3809
C47 C 0.4995(4) 0.6712(6) 0.3133(5)
C48 C 0.5510(6) 0.6336(11) 0.3919(10)
H64 H 0.5538 0.6492 0.4433
H65 H 0.5839 0.6545 0.3981
H66 H 0.5492 0.5723 0.3861
N7 N 0.6309(2) 1.0954(4) 0.3487(3)
H67 H 0.6471 1.0984 0.3215
H68 H 0.6499 1.0576 0.3930
H69 H 0.6321 1.1468 0.3703
N8 N 0.5686(2) 1.1259(4) 0.1630(3)
H70 H 0.6023 1.1517 0.2003
H71 H 0.5475 1.1555 0.1125
H72 H 0.5741 1.0729 0.1518
C49 C 0.5708(3) 1.0677(5) 0.2848(4)
H73 H 0.5708 1.0086 0.2674
C50 C 0.5390(3) 1.1218(5) 0.2028(4)
H74 H 0.5366 1.1801 0.2195
C51 C 0.5425(3) 1.0685(5) 0.3271(4)
C52 C 0.5431(3) 1.1427(6) 0.3673(5)
H75 H 0.5646 1.1896 0.3728
C53 C 0.5122(4) 1.1473(7) 0.3991(5)
H76 H 0.5129 1.1969 0.4270
C54 C 0.4807(4) 1.0794(9) 0.3898(7)
H77 H 0.4587 1.0831 0.4098
C55 C 0.4805(4) 1.0072(7) 0.3524(6)
H78 H 0.4585 0.9614 0.3475
C56 C 0.5116(3) 0.9976(6) 0.3207(5)
C57 C 0.5131(4) 0.9164(6) 0.2852(7)
H79 H 0.5010 0.9247 0.2260
H80 H 0.4878 0.8766 0.2841
H81 H 0.5513 0.8941 0.3218
C58 C 0.4797(3) 1.0891(5) 0.1374(5)
C59 C 0.4739(3) 1.0134(6) 0.0908(5)
H82 H 0.5060 0.9874 0.1015
C60 C 0.4213(5) 0.9797(8) 0.0308(7)
H83 H 0.4171 0.9305 -0.0004
C61 C 0.3751(4) 1.0167(8) 0.0159(7)
H84 H 0.3393 0.9917 -0.0243
C62 C 0.3791(4) 1.0901(7) 0.0583(6)
H85 H 0.3464 1.1155 0.0462
C63 C 0.4331(3) 1.1273(6) 0.1204(5)
C64 C 0.4345(4) 1.2046(7) 0.1637(6)
H86 H 0.4610 1.2446 0.1682
H87 H 0.4465 1.1909 0.2220
H88 H 0.3970 1.2297 0.1297
O1 O 0.6467(2) 1.4217(4) 0.4390(3)
H89 H 0.6473 1.4496 0.4041
H90 H 0.6589 1.3736 0.4524
O2 O 0.5000 1.2050(5) 0.0000
O3 O 0.7938(3) 1.1298(4) 0.5194(3)
H91 H 0.7680 1.1576 0.5116
H92 H 0.8087 1.1030 0.5646
O4 O 0.1963(3) 0.1631(4) 0.2490(4)
H93 H 0.1821 0.1268 0.2602
H94 H 0.1662 0.1837 0.2090
O5 O 0.6327(3) 0.7491(5) 0.3515(7)
H95 H 0.6539 0.7148 0.3893
H96 H 0.6472 0.7938 0.3761
N9? N 0.5015(6) 0.4421(11) 0.1211(10)
H97? H 0.4816 0.3939 0.0963
H98? H 0.5363 0.4294 0.1701
H99? H 0.5048 0.4693 0.0830
N10? N 0.5155(6) 0.6288(9) 0.1325(9)
H100? H 0.5336 0.6776 0.1597
H101? H 0.4832 0.6405 0.0791
H102? H 0.5379 0.5961 0.1267
C65? C 0.4715(7) 0.4982(10) 0.1440(9)
H103? H 0.4335 0.5112 0.0892
C66? C 0.5018(7) 0.5823(8) 0.1861(11)
H104? H 0.5381 0.5692 0.2438
C67? C 0.4638(4) 0.4516(9) 0.2036(7)
C68? C 0.5111(3) 0.4232(8) 0.2830(7)
H105? H 0.5473 0.4344 0.2992
C69? C 0.5053(4) 0.3785(8) 0.3387(6)
H106? H 0.5376 0.3592 0.3930
C70? C 0.4522(5) 0.3622(8) 0.3151(8)
H107? H 0.4482 0.3316 0.3532
C71? C 0.4049(4) 0.3905(9) 0.2357(9)
H108? H 0.3686 0.3793 0.2196
C72? C 0.4107(4) 0.4352(9) 0.1800(7)
C73? C 0.3570(7) 0.4559(17) 0.0943(11)
H109? H 0.3255 0.4367 0.0930
H110? H 0.3558 0.4279 0.0481
H111? H 0.3544 0.5168 0.0853
C74? C 0.4684(5) 0.6392(7) 0.2023(7)
C75? C 0.4177(5) 0.6686(9) 0.1287(6)
H112? H 0.4054 0.6516 0.0726
C76? C 0.3849(4) 0.7228(9) 0.1370(7)
H113? H 0.3503 0.7428 0.0867
C77? C 0.4028(4) 0.7476(7) 0.2190(8)
H114? H 0.3805 0.7846 0.2247
C78? C 0.4535(4) 0.7182(7) 0.2926(7)
H115? H 0.4658 0.7352 0.3487
C79? C 0.4863(4) 0.6641(7) 0.2843(7)
C80? C 0.5395(9) 0.634(2) 0.3661(14)
H116? H 0.5436 0.6593 0.4160
H117? H 0.5712 0.6510 0.3669
H118? H 0.5386 0.5729 0.3694
H119? H 0.5257 1.2389 0.0202
H120? H 0.4854 1.1745 0.0153
loop_
_geom_bond_atom_site_label_1
_geom_bond_atom_site_label_2
_geom_bond_site_symmetry_1
_geom_bond_site_symmetry_2
N1 H1 1_555 1_555
H2 N1 1_555 1_555
H3 N1 1_555 1_555
N2 H4 1_555 1_555
H5 N2 1_555 1_555
H6 N2 1_555 1_555
C1 N1 1_555 1_555
H7 C1 1_555 1_555
C2 N2 1_555 1_555
H8 C2 1_555 1_555
C3 C1 1_555 1_555
C4 C3 1_555 1_555
H9 C4 1_555 1_555
C5 C4 1_555 1_555
H10 C5 1_555 1_555
C6 C5 1_555 1_555
H11 C6 1_555 1_555
C7 C6 1_555 1_555
H12 C7 1_555 1_555
C8 C3 1_555 1_555
C9 C8 1_555 1_555
H13 C9 1_555 1_555
H14 C9 1_555 1_555
H15 C9 1_555 1_555
C10 C2 1_555 1_555
C11 C10 1_555 1_555
H16 C11 1_555 1_555
C12 C11 1_555 1_555
H17 C12 1_555 1_555
C13 C12 1_555 1_555
H18 C13 1_555 1_555
C14 C13 1_555 1_555
H19 C14 1_555 1_555
C15 C10 1_555 1_555
C16 C15 1_555 1_555
H20 C16 1_555 1_555
H21 C16 1_555 1_555
H22 C16 1_555 1_555
N3 H23 1_555 1_555
H24 N3 1_555 1_555
H25 N3 1_555 1_555
N4 H26 1_555 1_555
H27 N4 1_555 1_555
H28 N4 1_555 1_555
C17 N3 1_555 1_555
H29 C17 1_555 1_555
C18 N4 1_555 1_555
H30 C18 1_555 1_555
C19 C17 1_555 1_555
C20 C19 1_555 1_555
H31 C20 1_555 1_555
C21 C20 1_555 1_555
H32 C21 1_555 1_555
C22 C21 1_555 1_555
H33 C22 1_555 1_555
C23 C22 1_555 1_555
H34 C23 1_555 1_555
C24 C19 1_555 1_555
C25 C24 1_555 1_555
H35 C25 1_555 1_555
H36 C25 1_555 1_555
H37 C25 1_555 1_555
C26 C18 1_555 1_555
C27 C26 1_555 1_555
H38 C27 1_555 1_555
C28 C27 1_555 1_555
H39 C28 1_555 1_555
C29 C28 1_555 1_555
H40 C29 1_555 1_555
C30 C29 1_555 1_555
H41 C30 1_555 1_555
C31 C26 1_555 1_555
C32 C31 1_555 1_555
H42 C32 1_555 1_555
H43 C32 1_555 1_555
H44 C32 1_555 1_555
N5 H45 1_555 1_555
H46 N5 1_555 1_555
H47 N5 1_555 1_555
N6 H48 1_555 1_555
H49 N6 1_555 1_555
H50 N6 1_555 1_555
C33 N5 1_555 1_555
H51 C33 1_555 1_555
C34 N6 1_555 1_555
H52 C34 1_555 1_555
C35 C33 1_555 1_555
C36 C35 1_555 1_555
H53 C36 1_555 1_555
C37 C36 1_555 1_555
H54 C37 1_555 1_555
C38 C37 1_555 1_555
H55 C38 1_555 1_555
C39 C38 1_555 1_555
H56 C39 1_555 1_555
C40 C35 1_555 1_555
C41 C40 1_555 1_555
H57 C41 1_555 1_555
H58 C41 1_555 1_555
H59 C41 1_555 1_555
C42 C34 1_555 1_555
C43 C42 1_555 1_555
H60 C43 1_555 1_555
C44 C43 1_555 1_555
H61 C44 1_555 1_555
C45 C44 1_555 1_555
H62 C45 1_555 1_555
C46 C45 1_555 1_555
H63 C46 1_555 1_555
C47 C42 1_555 1_555
C48 C47 1_555 1_555
H64 C48 1_555 1_555
H65 C48 1_555 1_555
H66 C48 1_555 1_555
N7 H67 1_555 1_555
H68 N7 1_555 1_555
H69 N7 1_555 1_555
N8 H70 1_555 1_555
H71 N8 1_555 1_555
H72 N8 1_555 1_555
C49 N7 1_555 1_555
H73 C49 1_555 1_555
C50 N8 1_555 1_555
H74 C50 1_555 1_555
C51 C49 1_555 1_555
C52 C51 1_555 1_555
H75 C52 1_555 1_555
C53 C52 1_555 1_555
H76 C53 1_555 1_555
C54 C53 1_555 1_555
H77 C54 1_555 1_555
C55 C54 1_555 1_555
H78 C55 1_555 1_555
C56 C51 1_555 1_555
C57 C56 1_555 1_555
H79 C57 1_555 1_555
H80 C57 1_555 1_555
H81 C57 1_555 1_555
C58 C50 1_555 1_555
C59 C58 1_555 1_555
H82 C59 1_555 1_555
C60 C59 1_555 1_555
H83 C60 1_555 1_555
C61 C60 1_555 1_555
H84 C61 1_555 1_555
C62 C61 1_555 1_555
H85 C62 1_555 1_555
C63 C58 1_555 1_555
C64 C63 1_555 1_555
H86 C64 1_555 1_555
H87 C64 1_555 1_555
H88 C64 1_555 1_555
O1 H89 1_555 1_555
H90 O1 1_555 1_555
O3 H91 1_555 1_555
H92 O3 1_555 1_555
O4 H93 1_555 1_555
H94 O4 1_555 1_555
O5 H95 1_555 1_555
H96 O5 1_555 1_555
C1 C2 1_555 1_555
C7 C8 1_555 1_555
C14 C15 1_555 1_555
C17 C18 1_555 1_555
C23 C24 1_555 1_555
C30 C31 1_555 1_555
C33 C34 1_555 1_555
C39 C40 1_555 1_555
C46 C47 1_555 1_555
C49 C50 1_555 1_555
C55 C56 1_555 1_555
C62 C63 1_555 1_555

#END
