
#######################################################################
#
#                 Cambridge Crystallographic Data Centre
#                                CCDC 
#
#######################################################################
#
# If this CIF has been generated from an entry in the Cambridge 
# Structural Database, then it will include bibliographic, chemical, 
# crystal, experimental, refinement or atomic coordinate data resulting 
# from the CCDC's data processing and validation procedures.
#
#######################################################################

data_NOJWIU
_chemical_formula_moiety         'C19 H19 N3 O3'
_chemical_name_systematic        
7-(diethylamino)-3-((pyridin-4-ylamino)methylene)-2H-chromene-2,4(3H)-dione
_symmetry_cell_setting           triclinic
_symmetry_space_group_name_H-M   'P -1'
_symmetry_Int_Tables_number      2
_space_group_name_Hall           '-P 1'
loop_
_symmetry_equiv_pos_site_id
_symmetry_equiv_pos_as_xyz
1 x,y,z
2 -x,-y,-z
_cell_length_a                   5.0790(4)
_cell_length_b                   12.8141(10)
_cell_length_c                   13.2671(9)
_cell_angle_alpha                70.308(5)
_cell_angle_beta                 80.767(5)
_cell_angle_gamma                88.005(5)
_cell_volume                     802.258
_exptl_crystal_colour            yellow
_exptl_crystal_description       lath
_cell_formula_units_Z            2
loop_
_atom_site_label
_atom_site_type_symbol
_atom_site_fract_x
_atom_site_fract_y
_atom_site_fract_z
O1 O 0.5386(3) 0.61811(11) 0.59765(10)
O2 O 0.2451(3) 0.56753(12) 0.51698(11)
O3 O 0.3942(3) 0.33335(12) 0.86339(11)
N1 N 0.0529(4) 0.27177(15) 0.76225(15)
H1 H 0.134(5) 0.258(2) 0.817(2)
N2 N -0.5013(4) 0.02793(15) 0.77850(16)
N3 N 1.1587(5) 0.75856(16) 0.75483(15)
C1 C 0.3523(4) 0.54285(17) 0.59646(16)
C2 C 0.3029(4) 0.44117(17) 0.68960(16)
C3 C 0.4358(4) 0.42014(17) 0.78321(16)
C4 C 0.6218(4) 0.50614(17) 0.77762(16)
C5 C 0.6688(4) 0.60091(17) 0.68585(16)
C6 C 0.8441(4) 0.68418(17) 0.67643(16)
H2 H 0.8707 0.7470 0.6121
C7 C 0.9843(5) 0.67681(17) 0.76172(16)
C8 C 0.9382(4) 0.58062(17) 0.85588(16)
H3 H 1.0300 0.5729 0.9149
C9 C 0.7633(4) 0.49910(17) 0.86228(16)
H4 H 0.7365 0.4356 0.9260
C10 C 0.1190(4) 0.36805(17) 0.68350(16)
H5 H 0.0358 0.3870 0.6206
C11 C -0.1308(4) 0.19165(17) 0.76406(17)
C12 C -0.2766(5) 0.20437(18) 0.68084(18)
H6 H -0.2537 0.2684 0.6176
C13 C -0.4566(5) 0.12070(18) 0.69297(18)
H7 H -0.5563 0.1301 0.6358
C14 C -0.3548(5) 0.01738(18) 0.85654(18)
H8 H -0.3799 -0.0481 0.9183
C15 C -0.1694(5) 0.09530(18) 0.85344(18)
H9 H -0.0705 0.0831 0.9113
C16 C 1.2553(11) 0.8462(4) 0.6506(4)
H10 H 1.2515 0.8190 0.5893
H11 H 1.4405 0.8693 0.6488
C17 C 1.0688(10) 0.9425(5) 0.6433(4)
H12 H 1.1265 1.0035 0.5757
H13 H 1.0724 0.9676 0.7051
H14 H 0.8869 0.9187 0.6442
C18 C 1.3080(5) 0.75110(18) 0.84227(16)
H15 H 1.4702 0.7990 0.8117
H16 H 1.3661 0.6738 0.8729
C19 C 1.1499(5) 0.78513(18) 0.93317(18)
H17 H 1.1125 0.8644 0.9058
H18 H 1.2539 0.7704 0.9925
H19 H 0.9815 0.7425 0.9598
C20? C 1.1112(13) 0.8769(6) 0.6809(4)
H20? H 0.9255 0.8840 0.6659
H21? H 1.1438 0.9316 0.7156
C21? C 1.3075(11) 0.8956(5) 0.5768(5)
H22? H 1.2867 0.9704 0.5264
H23? H 1.2724 0.8408 0.5436
H24? H 1.4900 0.8876 0.5932
loop_
_geom_bond_atom_site_label_1
_geom_bond_atom_site_label_2
_geom_bond_site_symmetry_1
_geom_bond_site_symmetry_2
O1 C1 1_555 1_555
O2 C1 1_555 1_555
O3 C3 1_555 1_555
N1 H1 1_555 1_555
N2 C13 1_555 1_555
N3 C7 1_555 1_555
C1 C2 1_555 1_555
C2 C3 1_555 1_555
C3 C4 1_555 1_555
C4 C5 1_555 1_555
C5 O1 1_555 1_555
C6 C5 1_555 1_555
H2 C6 1_555 1_555
C7 C6 1_555 1_555
C8 C7 1_555 1_555
H3 C8 1_555 1_555
C9 C4 1_555 1_555
H4 C9 1_555 1_555
C10 N1 1_555 1_555
H5 C10 1_555 1_555
C11 N1 1_555 1_555
C12 C11 1_555 1_555
H6 C12 1_555 1_555
C13 C12 1_555 1_555
H7 C13 1_555 1_555
C14 N2 1_555 1_555
H8 C14 1_555 1_555
C15 C11 1_555 1_555
H9 C15 1_555 1_555
C16 N3 1_555 1_555
H10 C16 1_555 1_555
H11 C16 1_555 1_555
C17 C16 1_555 1_555
H12 C17 1_555 1_555
H13 C17 1_555 1_555
H14 C17 1_555 1_555
C18 N3 1_555 1_555
H15 C18 1_555 1_555
H16 C18 1_555 1_555
C19 C18 1_555 1_555
H17 C19 1_555 1_555
H18 C19 1_555 1_555
H19 C19 1_555 1_555
C2 C10 1_555 1_555
C8 C9 1_555 1_555
C14 C15 1_555 1_555

#END
