
#######################################################################
#
#                 Cambridge Crystallographic Data Centre
#                                CCDC 
#
#######################################################################
#
# If this CIF has been generated from an entry in the Cambridge 
# Structural Database, then it will include bibliographic, chemical, 
# crystal, experimental, refinement or atomic coordinate data resulting 
# from the CCDC's data processing and validation procedures.
#
#######################################################################

data_NOKBOG
_chemical_formula_moiety         'C19 H24 B1 N1 O2'
_chemical_name_systematic        
8'-Ethyl-4,4,5,5-tetramethyl-2H-spiro[1,3,2-dioxaborolane-2,6'-pyrido[1,2-b][2,1]benzazaborole]
_symmetry_cell_setting           monoclinic
_symmetry_space_group_name_H-M   'P 21/c'
_symmetry_Int_Tables_number      14
_space_group_name_Hall           '-P 2ybc'
loop_
_symmetry_equiv_pos_site_id
_symmetry_equiv_pos_as_xyz
1 x,y,z
2 -x,1/2+y,1/2-z
3 -x,-y,-z
4 x,1/2-y,1/2+z
_cell_length_a                   10.0448(9)
_cell_length_b                   13.1778(10)
_cell_length_c                   13.6491(12)
_cell_angle_alpha                90
_cell_angle_beta                 96.075(2)
_cell_angle_gamma                90
_cell_volume                     1796.56
_exptl_crystal_colour            colorless
_exptl_crystal_description       block
_cell_formula_units_Z            4
loop_
_atom_site_label
_atom_site_type_symbol
_atom_site_fract_x
_atom_site_fract_y
_atom_site_fract_z
N1 N 0.87911(11) 0.02290(8) 0.30948(7)
C1 C 1.00520(13) 0.01585(10) 0.35497(9)
C2 C 1.08853(15) -0.06289(10) 0.33284(11)
H1 H 1.1767 -0.0680 0.3653
C3 C 1.04216(18) -0.13362(12) 0.26331(11)
H2 H 1.0984 -0.1879 0.2475
C4 C 0.91403(18) -0.12559(12) 0.21672(11)
H3 H 0.8812 -0.1736 0.1681
C5 C 0.83445(17) -0.04675(12) 0.24190(10)
H4 H 0.7456 -0.0414 0.2107
C6 C 1.03314(13) 0.10065(10) 0.42419(9)
C7 C 0.92203(14) 0.16415(10) 0.42470(9)
C8 C 0.93709(15) 0.24918(11) 0.48626(9)
H5 H 0.8637 0.2944 0.4880
C9 C 1.05574(16) 0.26978(11) 0.54495(9)
C10 C 1.16262(15) 0.20246(11) 0.54300(10)
H6 H 1.2439 0.2154 0.5833
C11 C 1.15245(14) 0.11728(10) 0.48355(10)
H7 H 1.2252 0.0712 0.4832
O1 O 0.7460(17) 0.1844(11) 0.2726(13)
O2 O 0.6790(2) 0.07313(14) 0.38674(13)
C12 C 0.6033(2) 0.18320(17) 0.25661(19)
C13 C 0.5669(8) 0.1308(5) 0.3557(4)
C14 C 0.5594(2) 0.12066(19) 0.16453(17)
H8 H 0.5780 0.0487 0.1781
H9 H 0.6087 0.1431 0.1102
H10 H 0.4631 0.1300 0.1462
C15 C 0.5553(3) 0.2924(2) 0.2392(2)
H11 H 0.4575 0.2948 0.2368
H12 H 0.5826 0.3169 0.1765
H13 H 0.5951 0.3356 0.2930
C16 C 0.4425(4) 0.0644(5) 0.3409(4)
H14 H 0.4246 0.0352 0.4042
H15 H 0.4569 0.0097 0.2946
H16 H 0.3658 0.1056 0.3144
C17 C 0.5459(3) 0.2108(2) 0.4343(2)
H17 H 0.5379 0.1771 0.4974
H18 H 0.4639 0.2491 0.4143
H19 H 0.6225 0.2572 0.4414
C18 C 1.0710(2) 0.36304(12) 0.60985(12)
H20 H 1.1097 0.3428 0.6767
H21 H 0.9814 0.3924 0.6154
C19 C 1.1596(2) 0.44337(13) 0.57057(15)
H22 H 1.1664 0.5018 0.6152
H23 H 1.1207 0.4651 0.5050
H24 H 1.2490 0.4151 0.5660
B1 B 0.79527(16) 0.12217(12) 0.35247(11)
O3? O 0.733(5) 0.195(3) 0.277(3)
O4? O 0.6949(5) 0.1050(3) 0.4239(3)
C20? C 0.5986(5) 0.2216(4) 0.3072(4)
C21? C 0.557(2) 0.1451(15) 0.3762(14)
C22? C 0.6128(6) 0.3259(3) 0.3573(4)
H25? H 0.5239 0.3519 0.3674
H26? H 0.6566 0.3730 0.3153
H27? H 0.6669 0.3194 0.4210
C23? C 0.5045(7) 0.2332(7) 0.2141(5)
H28? H 0.4147 0.2498 0.2311
H29? H 0.5013 0.1695 0.1768
H30? H 0.5365 0.2878 0.1738
C24? C 0.4924(10) 0.0460(9) 0.3252(9)
H31? H 0.4985 -0.0099 0.3729
H32? H 0.5405 0.0276 0.2689
H33? H 0.3982 0.0590 0.3024
C25? C 0.4815(7) 0.1722(5) 0.4604(5)
H34? H 0.4575 0.1101 0.4941
H35? H 0.3998 0.2089 0.4359
H36? H 0.5372 0.2153 0.5067
loop_
_geom_bond_atom_site_label_1
_geom_bond_atom_site_label_2
_geom_bond_site_symmetry_1
_geom_bond_site_symmetry_2
N1 C1 1_555 1_555
C1 C2 1_555 1_555
C2 H1 1_555 1_555
C3 C2 1_555 1_555
H2 C3 1_555 1_555
C4 C3 1_555 1_555
H3 C4 1_555 1_555
C5 N1 1_555 1_555
H4 C5 1_555 1_555
C6 C1 1_555 1_555
C7 C6 1_555 1_555
C8 C7 1_555 1_555
H5 C8 1_555 1_555
C9 C8 1_555 1_555
C10 C9 1_555 1_555
H6 C10 1_555 1_555
C11 C6 1_555 1_555
H7 C11 1_555 1_555
O1 C12 1_555 1_555
O2 C13 1_555 1_555
C12 C13 1_555 1_555
C13 C16 1_555 1_555
C14 C12 1_555 1_555
H8 C14 1_555 1_555
H9 C14 1_555 1_555
H10 C14 1_555 1_555
C15 C12 1_555 1_555
H11 C15 1_555 1_555
H12 C15 1_555 1_555
H13 C15 1_555 1_555
C16 H14 1_555 1_555
H15 C16 1_555 1_555
H16 C16 1_555 1_555
C17 C13 1_555 1_555
H17 C17 1_555 1_555
H18 C17 1_555 1_555
H19 C17 1_555 1_555
C18 C9 1_555 1_555
H20 C18 1_555 1_555
H21 C18 1_555 1_555
C19 C18 1_555 1_555
H22 C19 1_555 1_555
H23 C19 1_555 1_555
H24 C19 1_555 1_555
B1 N1 1_555 1_555
C4 C5 1_555 1_555
C7 B1 1_555 1_555
C10 C11 1_555 1_555
O1 B1 1_555 1_555
O2 B1 1_555 1_555

#END
