
#######################################################################
#
#                 Cambridge Crystallographic Data Centre
#                                CCDC 
#
#######################################################################
#
# If this CIF has been generated from an entry in the Cambridge 
# Structural Database, then it will include bibliographic, chemical, 
# crystal, experimental, refinement or atomic coordinate data resulting 
# from the CCDC's data processing and validation procedures.
#
#######################################################################

data_NOKLEF
_chemical_formula_moiety         'C19 H17 N1 O1'
_chemical_name_systematic        2-Methoxy-6,7-dimethyl-7H-benzo[c]carbazole
_symmetry_cell_setting           monoclinic
_symmetry_space_group_name_H-M   'P 21/c'
_symmetry_Int_Tables_number      14
_space_group_name_Hall           '-P 2ybc'
loop_
_symmetry_equiv_pos_site_id
_symmetry_equiv_pos_as_xyz
1 x,y,z
2 -x,1/2+y,1/2-z
3 -x,-y,-z
4 x,1/2-y,1/2+z
_cell_length_a                   11.209(3)
_cell_length_b                   7.292(2)
_cell_length_c                   18.864(4)
_cell_angle_alpha                90
_cell_angle_beta                 114.178(13)
_cell_angle_gamma                90
_cell_volume                     1406.61
_cell_formula_units_Z            4
_exptl_crystal_recrystallization_method acetone/hexane
loop_
_atom_site_label
_atom_site_type_symbol
_atom_site_fract_x
_atom_site_fract_y
_atom_site_fract_z
C1 C 0.7354(2) 0.0684(3) 0.31684(14)
H1 H 0.7442 0.0413 0.2711
C2 C 0.61322(19) 0.0968(3) 0.31517(11)
H2 H 0.5397 0.0864 0.2686
C3 C 0.59928(17) 0.1412(2) 0.38297(11)
C4 C 0.71374(18) 0.1567(3) 0.45233(11)
C5 C 0.83649(19) 0.1237(3) 0.45352(14)
H3 H 0.9111 0.1317 0.4997
C6 C 0.8455(2) 0.0797(3) 0.38620(14)
H4 H 0.9273 0.0565 0.3865
C7 C 0.54501(18) 0.2228(2) 0.48256(10)
C8 C 0.49276(17) 0.1817(2) 0.40363(10)
C9 C 0.35466(16) 0.1875(2) 0.35899(10)
C10 C 0.29380(18) 0.1423(3) 0.27987(11)
H5 H 0.3439 0.1036 0.2537
C11 C 0.16075(19) 0.1550(3) 0.24109(12)
C12 C 0.08436(19) 0.2122(3) 0.27904(13)
H6 H -0.0059 0.2214 0.2520
C13 C 0.1413(2) 0.2544(3) 0.35536(14)
H7 H 0.0891 0.2919 0.3803
C14 C 0.27743(18) 0.2431(3) 0.39816(11)
C15 C 0.3363(2) 0.2843(3) 0.47773(12)
H8 H 0.2822 0.3203 0.5017
C16 C 0.4673(2) 0.2753(3) 0.52236(11)
C17 C 0.5184(3) 0.3219(3) 0.60681(12)
H9 H 0.4467 0.3531 0.6199
H10 H 0.5770 0.4243 0.6176
H11 H 0.5642 0.2182 0.6371
C18 C 0.7760(2) 0.2353(3) 0.59038(12)
H12 H 0.7600 0.1515 0.6247
H13 H 0.7694 0.3590 0.6059
H14 H 0.8621 0.2150 0.5927
C19 C 0.1668(2) 0.0801(4) 0.12032(13)
H15 H 0.2188 -0.0278 0.1404
H16 H 0.2229 0.1822 0.1238
H17 H 0.1086 0.0603 0.0670
N1 N 0.67992(15) 0.2060(2) 0.51146(9)
O1 O 0.09365(14) 0.1175(2) 0.16386(8)
loop_
_geom_bond_atom_site_label_1
_geom_bond_atom_site_label_2
_geom_bond_site_symmetry_1
_geom_bond_site_symmetry_2
C1 H1 1_555 1_555
C2 C1 1_555 1_555
H2 C2 1_555 1_555
C3 C2 1_555 1_555
C4 C3 1_555 1_555
C5 C4 1_555 1_555
H3 C5 1_555 1_555
C6 C1 1_555 1_555
H4 C6 1_555 1_555
C7 C8 1_555 1_555
C8 C3 1_555 1_555
C9 C8 1_555 1_555
C10 C9 1_555 1_555
H5 C10 1_555 1_555
C11 C10 1_555 1_555
C12 C11 1_555 1_555
H6 C12 1_555 1_555
C13 C12 1_555 1_555
H7 C13 1_555 1_555
C14 C9 1_555 1_555
C15 C14 1_555 1_555
H8 C15 1_555 1_555
C16 C7 1_555 1_555
C17 C16 1_555 1_555
H9 C17 1_555 1_555
H10 C17 1_555 1_555
H11 C17 1_555 1_555
C18 H12 1_555 1_555
H13 C18 1_555 1_555
H14 C18 1_555 1_555
C19 H15 1_555 1_555
H16 C19 1_555 1_555
H17 C19 1_555 1_555
N1 C4 1_555 1_555
O1 C11 1_555 1_555
C5 C6 1_555 1_555
C7 N1 1_555 1_555
C13 C14 1_555 1_555
C15 C16 1_555 1_555
C18 N1 1_555 1_555
C19 O1 1_555 1_555

#END
