
#######################################################################
#
#                 Cambridge Crystallographic Data Centre
#                                CCDC 
#
#######################################################################
#
# If this CIF has been generated from an entry in the Cambridge 
# Structural Database, then it will include bibliographic, chemical, 
# crystal, experimental, refinement or atomic coordinate data resulting 
# from the CCDC's data processing and validation procedures.
#
#######################################################################

data_NOKSAJ
_chemical_formula_moiety         'C26 H31 N3 O5'
_chemical_name_systematic        
'di-t-butyl 6-benzylidene-4-hydroxy-5-phenyl-3,6-dihydro-1,2,4\l^5^-triazine-1,2-dicarboxylate'
_symmetry_cell_setting           triclinic
_symmetry_space_group_name_H-M   'P -1'
_symmetry_Int_Tables_number      2
_space_group_name_Hall           '-P 1'
loop_
_symmetry_equiv_pos_site_id
_symmetry_equiv_pos_as_xyz
1 x,y,z
2 -x,-y,-z
_cell_length_a                   6.7701(15)
_cell_length_b                   11.166(3)
_cell_length_c                   17.891(4)
_cell_angle_alpha                74.170(5)
_cell_angle_beta                 82.524(6)
_cell_angle_gamma                85.510(6)
_cell_volume                     1288.82
_exptl_crystal_colour            colorless
_exptl_crystal_description       prism
_cell_formula_units_Z            2
loop_
_atom_site_label
_atom_site_type_symbol
_atom_site_fract_x
_atom_site_fract_y
_atom_site_fract_z
O1 O 0.6127(2) 0.07558(14) 0.10149(8)
O2 O 0.3464(2) 0.18577(13) 0.04699(8)
O3 O -0.0403(2) -0.24099(14) 0.22622(9)
O4 O 0.16107(19) 0.23669(13) 0.20742(9)
O5 O -0.1599(2) 0.17889(14) 0.22199(9)
N1 N 0.0953(3) 0.07664(16) 0.16345(10)
N2 N 0.0628(3) -0.14618(16) 0.22128(10)
N3 N 0.2991(3) 0.04653(16) 0.16281(10)
C1 C 0.4370(3) 0.10280(18) 0.10229(12)
C2 C 0.2249(3) -0.14991(19) 0.25582(11)
C3 C 0.4661(3) -0.00445(19) 0.27878(12)
C4 C 0.2974(3) -0.27013(19) 0.30659(12)
C5 C 0.4992(3) -0.3040(2) 0.29771(13)
C6 C 0.3415(3) -0.03679(18) 0.23575(11)
C7 C 0.5011(3) -0.06574(18) 0.36007(12)
C8 C 0.0166(3) 0.1678(2) 0.20135(12)
C9 C -0.0150(3) -0.02992(19) 0.16693(13)
C10 C 0.4675(4) 0.2661(2) -0.02064(12)
C11 C 0.5738(4) -0.4128(2) 0.34651(14)
C12 C 0.3437(4) -0.1053(2) 0.41753(13)
C13 C 0.1689(4) -0.3470(2) 0.36391(13)
C14 C 0.5663(4) -0.1727(3) 0.51551(14)
C15 C 0.1167(4) 0.3440(2) 0.24208(13)
C16 C 0.6925(4) -0.0782(3) 0.38303(13)
C17 C 0.3766(4) -0.1590(3) 0.49424(14)
C18 C 0.2460(4) -0.4546(3) 0.41267(14)
C19 C 0.4482(5) -0.4873(3) 0.40395(15)
C20 C 0.7241(4) -0.1326(3) 0.45958(14)
C21 C 0.6082(4) 0.3374(3) 0.00823(15)
C22 C 0.0241(4) 0.2989(3) 0.32588(15)
C23 C 0.5770(4) 0.1875(3) -0.07086(14)
C24 C 0.3238(4) 0.3904(3) 0.23772(16)
C25 C 0.3084(4) 0.3514(3) -0.06304(15)
C26 C -0.0131(4) 0.4411(3) 0.19204(16)
H1 H 0.5410 0.0669 0.2536
H2 H 0.5866 -0.2527 0.2581
H3 H -0.0073 -0.0422 0.1139
H4 H -0.1569 -0.0141 0.1847
H5 H 0.7119 -0.4356 0.3402
H6 H 0.2114 -0.0951 0.4038
H7 H 0.0301 -0.3259 0.3695
H8 H 0.5886 -0.2095 0.5684
H9 H 0.8023 -0.0487 0.3453
H10 H 0.2672 -0.1868 0.5326
H11 H 0.1597 -0.5064 0.4524
H12 H 0.4996 -0.5611 0.4376
H13 H 0.8559 -0.1426 0.4739
H14 H 0.7087 0.2793 0.0351
H15 H 0.5330 0.3804 0.0446
H16 H 0.6743 0.3986 -0.0363
H17 H -0.1090 0.2693 0.3268
H18 H 0.0133 0.3675 0.3508
H19 H 0.1080 0.2305 0.3544
H20 H 0.6785 0.1331 -0.0422
H21 H 0.6414 0.2419 -0.1191
H22 H 0.4822 0.1364 -0.0839
H23 H 0.3804 0.4183 0.1829
H24 H 0.4095 0.3228 0.2659
H25 H 0.3154 0.4602 0.2616
H26 H 0.2405 0.4018 -0.0295
H27 H 0.2114 0.3012 -0.0755
H28 H 0.3706 0.4064 -0.1115
H29 H 0.0538 0.4669 0.1386
H30 H -0.0363 0.5136 0.2135
H31 H -0.1410 0.4061 0.1915
loop_
_geom_bond_atom_site_label_1
_geom_bond_atom_site_label_2
_geom_bond_site_symmetry_1
_geom_bond_site_symmetry_2
O1 C1 1_555 1_555
O2 C1 1_555 1_555
O3 N2 1_555 1_555
O4 C8 1_555 1_555
O5 C8 1_555 1_555
N1 N3 1_555 1_555
N2 C2 1_555 1_555
N3 C1 1_555 1_555
C2 C4 1_555 1_555
C3 C6 1_555 1_555
C4 C5 1_555 1_555
C5 C11 1_555 1_555
C6 N3 1_555 1_555
C7 C3 1_555 1_555
C8 N1 1_555 1_555
C9 N1 1_555 1_555
C10 O2 1_555 1_555
C11 C19 1_555 1_555
C12 C7 1_555 1_555
C13 C4 1_555 1_555
C14 C17 1_555 1_555
C15 O4 1_555 1_555
C16 C7 1_555 1_555
C17 C12 1_555 1_555
C18 C13 1_555 1_555
C19 C18 1_555 1_555
C20 C14 1_555 1_555
C21 C10 1_555 1_555
C22 C15 1_555 1_555
C23 C10 1_555 1_555
C24 C15 1_555 1_555
C25 C10 1_555 1_555
C26 C15 1_555 1_555
H1 C3 1_555 1_555
H2 C5 1_555 1_555
H3 C9 1_555 1_555
H4 C9 1_555 1_555
H5 C11 1_555 1_555
H6 C12 1_555 1_555
H7 C13 1_555 1_555
H8 C14 1_555 1_555
H9 C16 1_555 1_555
H10 C17 1_555 1_555
H11 C18 1_555 1_555
H12 C19 1_555 1_555
H13 C20 1_555 1_555
H14 C21 1_555 1_555
H15 C21 1_555 1_555
H16 C21 1_555 1_555
H17 C22 1_555 1_555
H18 C22 1_555 1_555
H19 C22 1_555 1_555
H20 C23 1_555 1_555
H21 C23 1_555 1_555
H22 C23 1_555 1_555
H23 C24 1_555 1_555
H24 C24 1_555 1_555
H25 C24 1_555 1_555
H26 C25 1_555 1_555
H27 C25 1_555 1_555
H28 C25 1_555 1_555
H29 C26 1_555 1_555
H30 C26 1_555 1_555
H31 C26 1_555 1_555
N2 C9 1_555 1_555
C2 C6 1_555 1_555
C16 C20 1_555 1_555

#END
