
#######################################################################
#
#                 Cambridge Crystallographic Data Centre
#                                CCDC 
#
#######################################################################
#
# If this CIF has been generated from an entry in the Cambridge 
# Structural Database, then it will include bibliographic, chemical, 
# crystal, experimental, refinement or atomic coordinate data resulting 
# from the CCDC's data processing and validation procedures.
#
#######################################################################

data_NOKWIT
_chemical_formula_moiety         'C16 H10 O2'
_chemical_name_systematic        Indeno(1,2-c)isocoumarin
_symmetry_cell_setting           monoclinic
_symmetry_space_group_name_H-M   'P 21/c'
_symmetry_Int_Tables_number      14
_space_group_name_Hall           '-P 2ybc'
loop_
_symmetry_equiv_pos_site_id
_symmetry_equiv_pos_as_xyz
1 x,y,z
2 -x,1/2+y,1/2-z
3 -x,-y,-z
4 x,1/2-y,1/2+z
_cell_length_a                   10.390(2)
_cell_length_b                   15.036(2)
_cell_length_c                   7.172(2)
_cell_angle_alpha                90
_cell_angle_beta                 91.12(2)
_cell_angle_gamma                90
_cell_volume                     1120.22
_exptl_crystal_colour            colorless
_exptl_crystal_description       prismatic
_chemical_melting_point          172-173deg.C
_cell_formula_units_Z            4
loop_
_atom_site_label
_atom_site_type_symbol
_atom_site_fract_x
_atom_site_fract_y
_atom_site_fract_z
O1 O 0.6594(2) -0.4771(2) 0.2859(3)
O2 O 0.8658(2) -0.4420(1) 0.2967(3)
C1 C 0.6117(3) -0.4014(2) 0.6417(5)
C2 C 0.7322(3) -0.4016(2) 0.5610(4)
C3 C 0.8390(3) -0.3643(2) 0.6559(4)
C4 C 0.8205(3) -0.3266(2) 0.8318(4)
C5 C 0.7007(4) -0.3268(2) 0.9104(5)
C6 C 0.5962(4) -0.3630(2) 0.8142(5)
C7 C 1.0949(3) -0.3980(2) 0.3166(4)
C8 C 1.1706(3) -0.3538(2) 0.4513(4)
C9 C 1.2987(3) -0.3372(2) 0.4181(5)
C10 C 1.3495(3) -0.3663(2) 0.2503(5)
C11 C 1.2749(3) -0.4099(2) 0.1183(5)
C12 C 1.1460(3) -0.4264(2) 0.1488(5)
C13 C 0.7443(3) -0.4429(2) 0.3762(4)
C14 C 0.9589(3) -0.3669(2) 0.5622(4)
C15 C 1.0897(3) -0.3312(2) 0.6182(5)
C16 C 0.9667(3) -0.4038(2) 0.3930(4)
H1 H 0.538(2) -0.429(2) 0.573(4)
H2 H 0.514(3) -0.365(2) 0.868(4)
H3 H 0.691(3) -0.296(2) 1.034(4)
H4 H 0.895(2) -0.300(2) 0.899(3)
H5 H 1.123(2) -0.358(2) 0.736(4)
H6 H 1.089(2) -0.266(2) 0.646(3)
H7 H 1.352(2) -0.304(2) 0.516(3)
H8 H 1.442(2) -0.355(2) 0.235(3)
H9 H 1.316(2) -0.433(2) -0.003(4)
H10 H 1.094(2) -0.457(2) 0.052(3)
loop_
_geom_bond_atom_site_label_1
_geom_bond_atom_site_label_2
_geom_bond_site_symmetry_1
_geom_bond_site_symmetry_2
O1 C13 1_555 1_555
O2 C13 1_555 1_555
C1 C2 1_555 1_555
C2 C3 1_555 1_555
C3 C4 1_555 1_555
C4 C5 1_555 1_555
C5 C6 1_555 1_555
C6 C1 1_555 1_555
C7 C8 1_555 1_555
C8 C9 1_555 1_555
C9 C10 1_555 1_555
C10 C11 1_555 1_555
C11 C12 1_555 1_555
C12 C7 1_555 1_555
C13 C2 1_555 1_555
C14 C3 1_555 1_555
C15 C8 1_555 1_555
C16 O2 1_555 1_555
H1 C1 1_555 1_555
H2 C6 1_555 1_555
H3 C5 1_555 1_555
H4 C4 1_555 1_555
H5 C15 1_555 1_555
H6 C15 1_555 1_555
H7 C9 1_555 1_555
H8 C10 1_555 1_555
H9 C11 1_555 1_555
H10 C12 1_555 1_555
C7 C16 1_555 1_555
C14 C15 1_555 1_555
C14 C16 1_555 1_555

#END
