
#######################################################################
#
#                 Cambridge Crystallographic Data Centre
#                                CCDC 
#
#######################################################################
#
# If this CIF has been generated from an entry in the Cambridge 
# Structural Database, then it will include bibliographic, chemical, 
# crystal, experimental, refinement or atomic coordinate data resulting 
# from the CCDC's data processing and validation procedures.
#
#######################################################################

data_NOKZES
_chemical_formula_moiety         'C18 H16 O2 S1'
_chemical_name_systematic        
3,4-Dihydro-1-(2-methoxyphenyl)-1H-(1)benzothieno(3,2-c)pyran
_symmetry_cell_setting           monoclinic
_symmetry_space_group_name_H-M   'P 21/n'
_symmetry_Int_Tables_number      14
_space_group_name_Hall           '-P 2yn'
loop_
_symmetry_equiv_pos_site_id
_symmetry_equiv_pos_as_xyz
1 x,y,z
2 1/2-x,1/2+y,1/2-z
3 -x,-y,-z
4 1/2+x,1/2-y,1/2+z
_cell_length_a                   13.489(12)
_cell_length_b                   7.994(9)
_cell_length_c                   14.753(14)
_cell_angle_alpha                90
_cell_angle_beta                 112.47(1)
_cell_angle_gamma                90
_cell_volume                     1470.06
_exptl_crystal_colour            colorless
_chemical_melting_point          '122-124 deg.C'
_cell_formula_units_Z            4
_exptl_crystal_recrystallization_method 't-butyl methyl ether'
loop_
_atom_site_label
_atom_site_type_symbol
_atom_site_fract_x
_atom_site_fract_y
_atom_site_fract_z
C1 C 1.0774(2) 0.4861(4) 0.2817(2)
O1 O 1.1872(2) 0.4616(3) 0.2987(1)
C2 C 1.2139(2) 0.4998(5) 0.2166(2)
C3 C 1.1643(3) 0.3772(4) 0.1346(2)
C4 C 1.0514(2) 0.3543(3) 0.1225(2)
S1 S 0.9599(1) 0.2547(1) 0.0232(1)
C5 C 0.8612(2) 0.2839(4) 0.0692(2)
C6 C 0.7571(3) 0.2300(4) 0.0287(2)
C7 C 0.6919(3) 0.2592(5) 0.0785(3)
C8 C 0.7269(3) 0.3435(5) 0.1657(3)
C9 C 0.8292(2) 0.3999(4) 0.2054(2)
C10 C 0.8989(2) 0.3701(3) 0.1582(2)
C11 C 1.0098(2) 0.4076(3) 0.1874(2)
C12 C 1.0538(2) 0.6671(3) 0.2917(2)
C13 C 1.0000(2) 0.7667(4) 0.2128(2)
C14 C 0.9832(3) 0.9351(4) 0.2228(2)
C15 C 1.0185(3) 1.0036(4) 0.3132(3)
C16 C 1.0718(3) 0.9086(4) 0.3940(2)
C17 C 1.0888(2) 0.7425(4) 0.3834(2)
O2 O 1.1402(2) 0.6383(3) 0.4590(1)
C18 C 1.1867(3) 0.7099(6) 0.5527(2)
H1 H 1.0637(2) 0.4254(4) 0.3334(2)
H2 H 1.2912(2) 0.4980(5) 0.2366(2)
H3 H 1.1890(2) 0.6117(5) 0.1935(2)
H4 H 1.1681(3) 0.4197(4) 0.0745(2)
H5 H 1.2022(3) 0.2713(4) 0.1504(2)
H6 H 0.7314(3) 0.1747(4) -0.0313(2)
H7 H 0.6216(3) 0.2206(5) 0.0523(3)
H8 H 0.6804(3) 0.3622(5) 0.1978(3)
H9 H 0.8527(2) 0.4586(4) 0.2643(2)
H10 H 0.9739(2) 0.7197(4) 0.1504(2)
H11 H 0.9478(3) 1.0006(4) 0.1678(2)
H12 H 1.0064(3) 1.1164(4) 0.3204(3)
H13 H 1.0964(3) 0.9567(4) 0.4561(2)
H14 H 1.2329(16) 0.8003(21) 0.5512(5)
H15 H 1.2278(17) 0.6268(10) 0.5987(4)
H16 H 1.1312(4) 0.7516(28) 0.5724(8)
loop_
_geom_bond_atom_site_label_1
_geom_bond_atom_site_label_2
_geom_bond_site_symmetry_1
_geom_bond_site_symmetry_2
C1 O1 1_555 1_555
O1 C2 1_555 1_555
C2 C3 1_555 1_555
C3 C4 1_555 1_555
C4 S1 1_555 1_555
S1 C5 1_555 1_555
C5 C6 1_555 1_555
C6 C7 1_555 1_555
C7 C8 1_555 1_555
C8 C9 1_555 1_555
C9 C10 1_555 1_555
C10 C5 1_555 1_555
C11 C1 1_555 1_555
C12 C1 1_555 1_555
C13 C12 1_555 1_555
C14 C13 1_555 1_555
C15 C14 1_555 1_555
C16 C15 1_555 1_555
C17 C12 1_555 1_555
O2 C17 1_555 1_555
C18 O2 1_555 1_555
H1 C1 1_555 1_555
H2 C2 1_555 1_555
H3 C2 1_555 1_555
H4 C3 1_555 1_555
H5 C3 1_555 1_555
H6 C6 1_555 1_555
H7 C7 1_555 1_555
H8 C8 1_555 1_555
H9 C9 1_555 1_555
H10 C13 1_555 1_555
H11 C14 1_555 1_555
H12 C15 1_555 1_555
H13 C16 1_555 1_555
H14 C18 1_555 1_555
H15 C18 1_555 1_555
H16 C18 1_555 1_555
C4 C11 1_555 1_555
C10 C11 1_555 1_555
C16 C17 1_555 1_555

#END
