
#######################################################################
#
#                 Cambridge Crystallographic Data Centre
#                                CCDC 
#
#######################################################################
#
# If this CIF has been generated from an entry in the Cambridge 
# Structural Database, then it will include bibliographic, chemical, 
# crystal, experimental, refinement or atomic coordinate data resulting 
# from the CCDC's data processing and validation procedures.
#
#######################################################################

data_NOLBIA
_chemical_formula_moiety         'C14 H13 N1 O2 S1'
_chemical_name_systematic        
'S-Ethyl 2-oxo-1-phenyl-1,2-dihydro-3-pyridinecarbothioate'
_symmetry_cell_setting           monoclinic
_symmetry_space_group_name_H-M   'P 21'
_symmetry_Int_Tables_number      4
_space_group_name_Hall           'P 2yb'
loop_
_symmetry_equiv_pos_site_id
_symmetry_equiv_pos_as_xyz
1 x,y,z
2 -x,1/2+y,-z
_cell_length_a                   5.6429(13)
_cell_length_b                   12.163(3)
_cell_length_c                   9.504(2)
_cell_angle_alpha                90
_cell_angle_beta                 90.00
_cell_angle_gamma                90
_cell_volume                     652.303
_exptl_crystal_colour            colorless
_chemical_melting_point          '146.0-148.0 deg.C'
_cell_formula_units_Z            2
loop_
_atom_site_label
_atom_site_type_symbol
_atom_site_fract_x
_atom_site_fract_y
_atom_site_fract_z
C1 C 0.2491(5) 0.7799(2) 0.7080(3)
C2 C 0.2337(5) 0.8692(2) 0.6073(3)
C3 C 0.3893(5) 0.8753(3) 0.4972(3)
H1 H 0.3734 0.9318 0.4320
C4 C 0.5709(6) 0.7989(3) 0.4804(3)
H2 H 0.6787 0.8058 0.4069
C5 C 0.5880(5) 0.7149(2) 0.5720(3)
H3 H 0.7082 0.6633 0.5608
C6 C 0.4561(5) 0.6099(2) 0.7740(3)
C7 C 0.6567(5) 0.6001(3) 0.8546(3)
H4 H 0.7734 0.6540 0.8532
C8 C 0.6805(7) 0.5071(4) 0.9384(4)
H5 H 0.8158 0.4988 0.9932
C9 C 0.5113(7) 0.4287(3) 0.9420(3)
H6 H 0.5306 0.3671 0.9989
C10 C 0.3109(6) 0.4400(3) 0.8616(3)
H7 H 0.1937 0.3862 0.8647
C11 C 0.2822(5) 0.5311(2) 0.7756(3)
H8 H 0.1475 0.5387 0.7200
C12 C 0.0527(5) 0.9577(3) 0.6211(3)
C13 C -0.2916(7) 1.0832(3) 0.7396(4)
H9 H -0.3151 1.0937 0.6394
H10 H -0.4465 1.0795 0.7835
C14 C -0.1593(10) 1.1799(4) 0.7977(6)
H11 H -0.2478 1.2459 0.7802
H12 H -0.0072 1.1851 0.7529
H13 H -0.1381 1.1707 0.8972
N1 N 0.4327(4) 0.70392(19) 0.6809(2)
O1 O 0.1230(4) 0.76738(16) 0.8112(2)
O2 O 0.0381(4) 1.02953(19) 0.5324(2)
S1 S -0.13755(12) 0.95431(6) 0.76819(7)
loop_
_geom_bond_atom_site_label_1
_geom_bond_atom_site_label_2
_geom_bond_site_symmetry_1
_geom_bond_site_symmetry_2
C1 C2 1_555 1_555
C2 C3 1_555 1_555
C3 H1 1_555 1_555
C4 C3 1_555 1_555
H2 C4 1_555 1_555
C5 C4 1_555 1_555
H3 C5 1_555 1_555
C6 C7 1_555 1_555
C7 H4 1_555 1_555
C8 C7 1_555 1_555
H5 C8 1_555 1_555
C9 C8 1_555 1_555
H6 C9 1_555 1_555
C10 C9 1_555 1_555
H7 C10 1_555 1_555
C11 C6 1_555 1_555
H8 C11 1_555 1_555
C12 C2 1_555 1_555
C13 H9 1_555 1_555
H10 C13 1_555 1_555
C14 C13 1_555 1_555
H11 C14 1_555 1_555
H12 C14 1_555 1_555
H13 C14 1_555 1_555
N1 C1 1_555 1_555
O1 C1 1_555 1_555
O2 C12 1_555 1_555
S1 C12 1_555 1_555
C5 N1 1_555 1_555
C6 N1 1_555 1_555
C10 C11 1_555 1_555
C13 S1 1_555 1_555

#END
