
#######################################################################
#
#                 Cambridge Crystallographic Data Centre
#                                CCDC 
#
#######################################################################
#
# If this CIF has been generated from an entry in the Cambridge 
# Structural Database, then it will include bibliographic, chemical, 
# crystal, experimental, refinement or atomic coordinate data resulting 
# from the CCDC's data processing and validation procedures.
#
#######################################################################

data_NOLCEW
_chemical_formula_moiety         'C7 H13 N1 O5'
_chemical_name_systematic        
'(R,R)-(+)-Tartaric acid N,N-dimethylamide methyl ester'
_symmetry_cell_setting           monoclinic
_symmetry_space_group_name_H-M   'P 21'
_symmetry_Int_Tables_number      4
_space_group_name_Hall           'P 2yb'
loop_
_symmetry_equiv_pos_site_id
_symmetry_equiv_pos_as_xyz
1 x,y,z
2 -x,1/2+y,-z
_cell_length_a                   5.849(4)
_cell_length_b                   16.245(9)
_cell_length_c                   9.653(7)
_cell_angle_alpha                90
_cell_angle_beta                 90.09(6)
_cell_angle_gamma                90
_cell_volume                     917.198
_chemical_melting_point          '48-51 deg.C'
_cell_formula_units_Z            4
_exptl_crystal_recrystallization_method 'ethyl acetate/diethyl ether'
loop_
_atom_site_label
_atom_site_type_symbol
_atom_site_fract_x
_atom_site_fract_y
_atom_site_fract_z
C1 C 0.1893(6) -0.8510(3) -0.5599(4)
C2 C 0.1023(6) -0.8449(3) -0.7074(4)
C3 C 0.0276(6) -0.9307(3) -0.7576(3)
C4 C -0.1236(6) -0.9255(3) -0.8890(3)
C5 C 0.4830(8) -0.9006(4) -0.4159(4)
C6 C -0.1881(7) -0.8928(3) -1.1279(4)
C7 C 0.2025(7) -0.8790(3) -1.0326(4)
N1 N -0.0360(5) -0.9012(3) -1.0087(3)
O1 O 0.0908(5) -0.8225(3) -0.4628(3)
O2 O -0.0770(5) -0.7874 -0.7147(3)
O3 O -0.1063(6) -0.9676(2) -0.6533(3)
O4 O -0.3263(5) -0.9457(2) -0.8755(3)
O5 O 0.3857(5) -0.8928(3) -0.5533(3)
H1 H 0.2246(6) -0.8257(3) -0.7651(4)
H2 H 0.1598(6) -0.9640(3) -0.7757(3)
H3 H 0.6447(8) -0.9178(4) -0.4191(4)
H4 H 0.3967(8) -0.9404(4) -0.3644(4)
H5 H 0.4715(8) -0.8488(4) -0.3687(4)
H6 H -0.1003(7) -0.8867(3) -1.2112(4)
H7 H -0.2835(7) -0.9407(3) -1.1349(4)
H8 H -0.2850(7) -0.8457(3) -1.1156(4)
H9 H 0.2189(7) -0.8203(3) -1.0376(4)
H10 H 0.2533(7) -0.9034(3) -1.1178(4)
H11 H 0.2959(7) -0.9002(3) -0.9588(4)
H12 H -0.1434(78) -0.7795(31) -0.6375(52)
H13 H -0.2321(82) -0.9673(31) -0.6940(48)
C8 C -0.6026(6) -0.6613(3) -0.7476(4)
C9 C -0.5337(6) -0.6752(3) -0.8982(3)
C10 C -0.3968(6) -0.5990(3) -0.9472(3)
C11 C -0.2397(6) -0.6223(3) -1.0698(4)
C12 C -0.8522(8) -0.5884(4) -0.6028(4)
C13 C -0.1737(7) -0.6649(4) -1.3054(4)
C14 C -0.5725(6) -0.6439(3) -1.2234(4)
N2 N -0.3298(5) -0.6404(3) -1.1931(3)
O6 O -0.5290(5) -0.6991(3) -0.6503(3)
O7 O -0.4118(5) -0.7490(2) -0.9120(3)
O8 O -0.2534(5) -0.5700(2) -0.8386(3)
O9 O -0.0337(4) -0.6217(3) -1.0486(3)
O10 O -0.7609(5) -0.6027(3) -0.7393(3)
H14 H -0.6701(6) -0.6795(3) -0.9532(3)
H15 H -0.5011(6) -0.5563(3) -0.9746(3)
H16 H -0.9542(8) -0.5421(4) -0.6004(4)
H17 H -0.7287(8) -0.5791(4) -0.5391(4)
H18 H -0.9328(8) -0.6367(4) -0.5729(4)
H19 H -0.2489(7) -0.6575(4) -1.3930(4)
H20 H -0.1308(7) -0.7216(4) -1.2942(4)
H21 H -0.0375(7) -0.6320(4) -1.3021(4)
H22 H -0.6537(6) -0.6083(3) -1.1612(4)
H23 H -0.6266(6) -0.6994(3) -1.2132(4)
H24 H -0.5992(6) -0.6270(3) -1.3173(4)
H25 H -0.3022(93) -0.7362(35) -0.8516(56)
H26 H -0.114(11) -0.5969(42) -0.8565(64)
loop_
_geom_bond_atom_site_label_1
_geom_bond_atom_site_label_2
_geom_bond_site_symmetry_1
_geom_bond_site_symmetry_2
C1 C2 1_555 1_555
C2 C3 1_555 1_555
C3 C4 1_555 1_555
C4 N1 1_555 1_555
C5 O5 1_555 1_555
C6 N1 1_555 1_555
C7 N1 1_555 1_555
O1 C1 1_555 1_555
O2 C2 1_555 1_555
O3 C3 1_555 1_555
O4 C4 1_555 1_555
O5 C1 1_555 1_555
C8 C9 1_555 1_555
C9 C10 1_555 1_555
C10 C11 1_555 1_555
C11 N2 1_555 1_555
C12 O10 1_555 1_555
C13 N2 1_555 1_555
C14 N2 1_555 1_555
O6 C8 1_555 1_555
O7 C9 1_555 1_555
O8 C10 1_555 1_555
O9 C11 1_555 1_555
O10 C8 1_555 1_555
H1 C2 1_555 1_555
H2 C3 1_555 1_555
H3 C5 1_555 1_555
H4 C5 1_555 1_555
H5 C5 1_555 1_555
H6 C6 1_555 1_555
H7 C6 1_555 1_555
H8 C6 1_555 1_555
H9 C7 1_555 1_555
H10 C7 1_555 1_555
H11 C7 1_555 1_555
H12 O2 1_555 1_555
H13 O3 1_555 1_555
H14 C9 1_555 1_555
H15 C10 1_555 1_555
H16 C12 1_555 1_555
H17 C12 1_555 1_555
H18 C12 1_555 1_555
H19 C13 1_555 1_555
H20 C13 1_555 1_555
H21 C13 1_555 1_555
H22 C14 1_555 1_555
H23 C14 1_555 1_555
H24 C14 1_555 1_555
H25 O7 1_555 1_555
H26 O8 1_555 1_555

#END
