
#######################################################################
#
#                 Cambridge Crystallographic Data Centre
#                                CCDC 
#
#######################################################################
#
# If this CIF has been generated from an entry in the Cambridge 
# Structural Database, then it will include bibliographic, chemical, 
# crystal, experimental, refinement or atomic coordinate data resulting 
# from the CCDC's data processing and validation procedures.
#
#######################################################################

data_NOLDOJ01
_chemical_formula_moiety         'C3 H6 N6'
_chemical_name_systematic        
5,6,7,8-Tetrahydrotetrazolo[1,5-b][1,2,4]triazine
_symmetry_cell_setting           monoclinic
_symmetry_space_group_name_H-M   'P 21/n'
_symmetry_Int_Tables_number      14
_space_group_name_Hall           '-P 2yn'
loop_
_symmetry_equiv_pos_site_id
_symmetry_equiv_pos_as_xyz
1 x,y,z
2 1/2-x,1/2+y,1/2-z
3 -x,-y,-z
4 1/2+x,1/2-y,1/2+z
_cell_length_a                   5.3988(3)
_cell_length_b                   8.8180(7)
_cell_length_c                   11.1574(5)
_cell_angle_alpha                90
_cell_angle_beta                 97.666(5)
_cell_angle_gamma                90
_cell_volume                     526.419
_exptl_crystal_description       monoclinic
_cell_formula_units_Z            4
loop_
_atom_site_label
_atom_site_type_symbol
_atom_site_fract_x
_atom_site_fract_y
_atom_site_fract_z
N1 N 0.2050(2) 0.84677(15) 0.51238(11)
H1 H 0.3048 0.8904 0.5712
N2 N 0.0345(2) 0.83516(14) 0.30863(11)
N3 N -0.1465(2) 0.72253(15) 0.31941(11)
H2 H -0.0699 0.6292 0.3075
C1 C 0.1992(3) 0.89258(17) 0.39740(13)
N4 N 0.0572(2) 0.90756(16) 0.20289(11)
C2 C 0.0401(3) 0.72203(18) 0.53700(14)
H3 H -0.0025 0.7310 0.6203
H4 H 0.1261 0.6239 0.5301
N5 N 0.3316(2) 0.99910(15) 0.35000(12)
N6 N 0.2376(2) 1.00333(15) 0.22922(12)
C3 C -0.1973(3) 0.72773(18) 0.44654(13)
H5 H -0.3055 0.6410 0.4615
H6 H -0.2895 0.8221 0.4594
loop_
_geom_bond_atom_site_label_1
_geom_bond_atom_site_label_2
_geom_bond_site_symmetry_1
_geom_bond_site_symmetry_2
N1 H1 1_555 1_555
N2 N3 1_555 1_555
N3 H2 1_555 1_555
C1 N1 1_555 1_555
N4 N2 1_555 1_555
C2 N1 1_555 1_555
H3 C2 1_555 1_555
H4 C2 1_555 1_555
N5 C1 1_555 1_555
N6 N4 1_555 1_555
C3 N3 1_555 1_555
H5 C3 1_555 1_555
H6 C3 1_555 1_555
N2 C1 1_555 1_555
C2 C3 1_555 1_555
N5 N6 1_555 1_555

#END
