
#######################################################################
#
#                 Cambridge Crystallographic Data Centre
#                                CCDC 
#
#######################################################################
#
# If this CIF has been generated from an entry in the Cambridge 
# Structural Database, then it will include bibliographic, chemical, 
# crystal, experimental, refinement or atomic coordinate data resulting 
# from the CCDC's data processing and validation procedures.
#
#######################################################################

data_NOLDUP
_chemical_formula_moiety         'C6 H2 N3 O8 1-,C3 H7 N6 1+'
_chemical_name_systematic        
'1,5,6,7-tetrahydrotetrazolo[1,5-b][1,2,4]triazin-8-ium 3-hydroxy-2,4,6-trinitrophenolate'
_symmetry_cell_setting           monoclinic
_symmetry_space_group_name_H-M   'P 21/n'
_symmetry_Int_Tables_number      14
_space_group_name_Hall           '-P 2yn'
loop_
_symmetry_equiv_pos_site_id
_symmetry_equiv_pos_as_xyz
1 x,y,z
2 1/2-x,1/2+y,1/2-z
3 -x,-y,-z
4 1/2+x,1/2-y,1/2+z
_cell_length_a                   7.5274(19)
_cell_length_b                   21.829(5)
_cell_length_c                   9.158(2)
_cell_angle_alpha                90
_cell_angle_beta                 112.998(3)
_cell_angle_gamma                90
_cell_volume                     1385.2
_exptl_crystal_colour            orange
_exptl_crystal_description       block
_cell_formula_units_Z            4
loop_
_atom_site_label
_atom_site_type_symbol
_atom_site_fract_x
_atom_site_fract_y
_atom_site_fract_z
O1 O 0.05446(16) 0.55034(5) -0.16560(13)
O2 O 0.07434(18) 0.65200(5) 0.11331(17)
O3 O 0.27169(17) 0.67074(5) 0.00019(14)
O4 O 0.47373(16) 0.60599(5) 0.34161(13)
O5 O 0.72080(17) 0.51912(5) 0.51707(13)
O6 O 0.7231(2) 0.43141(6) 0.41068(15)
O7 O 0.30089(17) 0.37614(5) -0.09324(14)
O8 O 0.10336(16) 0.44053(5) -0.25734(13)
N1 N 0.19677(18) 0.63640(6) 0.06501(15)
N2 N 0.65583(19) 0.48252(6) 0.40618(15)
N3 N 0.22530(18) 0.42691(6) -0.12148(15)
C1 C 0.1946(2) 0.53167(7) -0.03057(17)
C2 C 0.2671(2) 0.57298(6) 0.09204(17)
C3 C 0.4190(2) 0.56283(7) 0.24421(17)
C4 C 0.4949(2) 0.50102(7) 0.26282(17)
C5 C 0.4239(2) 0.45818(7) 0.14387(18)
H1 H 0.4764 0.4180 0.1614
C6 C 0.2780(2) 0.47213(6) -0.00057(17)
H2 H 0.026(3) 0.5208(9) -0.226(3)
N4 N 0.76190(19) 0.65330(6) 0.57748(16)
N5 N 0.72871(19) 0.67951(6) 0.70024(17)
N6 N 0.86044(19) 0.71925(6) 0.76716(16)
N7 N 0.97523(17) 0.72018(5) 0.68353(14)
N8 N 1.14148(18) 0.75649(6) 0.72541(16)
N9 N 1.00485(18) 0.66965(6) 0.46904(15)
C7 C 0.9160(2) 0.67899(6) 0.56589(17)
C8 C 1.2739(2) 0.72572(7) 0.66590(18)
H3 H 1.3289 0.6892 0.7321
H4 H 1.3818 0.7538 0.6776
C9 C 1.1782(2) 0.70596(7) 0.49305(18)
H5 H 1.1424 0.7426 0.4238
H6 H 1.2698 0.6812 0.4641
H7 H 1.111(2) 0.7910(8) 0.678(2)
H8 H 0.974(3) 0.6378(8) 0.403(2)
H9 H 0.666(3) 0.6308(9) 0.504(3)
loop_
_geom_bond_atom_site_label_1
_geom_bond_atom_site_label_2
_geom_bond_site_symmetry_1
_geom_bond_site_symmetry_2
O1 C1 1_555 1_555
O2 N1 1_555 1_555
O3 N1 1_555 1_555
O4 C3 1_555 1_555
O5 N2 1_555 1_555
O6 N2 1_555 1_555
O7 N3 1_555 1_555
O8 N3 1_555 1_555
N1 C2 1_555 1_555
N2 C4 1_555 1_555
N3 C6 1_555 1_555
C1 C2 1_555 1_555
C2 C3 1_555 1_555
C3 C4 1_555 1_555
C4 C5 1_555 1_555
C5 H1 1_555 1_555
C6 C1 1_555 1_555
H2 O1 1_555 1_555
N4 N5 1_555 1_555
N5 N6 1_555 1_555
N6 N7 1_555 1_555
N7 N8 1_555 1_555
N8 C8 1_555 1_555
N9 C7 1_555 1_555
C7 N4 1_555 1_555
C8 H3 1_555 1_555
H4 C8 1_555 1_555
C9 N9 1_555 1_555
H5 C9 1_555 1_555
H6 C9 1_555 1_555
H7 N8 1_555 1_555
H8 N9 1_555 1_555
H9 N4 1_555 1_555
C5 C6 1_555 1_555
N7 C7 1_555 1_555
C8 C9 1_555 1_555

#END
