
#######################################################################
#
#                 Cambridge Crystallographic Data Centre
#                                CCDC 
#
#######################################################################
#
# If this CIF has been generated from an entry in the Cambridge 
# Structural Database, then it will include bibliographic, chemical, 
# crystal, experimental, refinement or atomic coordinate data resulting 
# from the CCDC's data processing and validation procedures.
#
#######################################################################

data_NOLFEA
_chemical_formula_moiety         'C17 H19 Br1 O4'
_chemical_name_systematic        
'(R)-methyl 4-(4-bromophenyl)-2-hydroxy-2-((S)-2-oxocyclohexyl)but-(E)-3-enoate'
_symmetry_cell_setting           orthorhombic
_symmetry_space_group_name_H-M   'P 21 21 21'
_symmetry_Int_Tables_number      19
_space_group_name_Hall           'P 2ac 2ab'
loop_
_symmetry_equiv_pos_site_id
_symmetry_equiv_pos_as_xyz
1 x,y,z
2 1/2-x,-y,1/2+z
3 -x,1/2+y,1/2-z
4 1/2+x,1/2-y,-z
_cell_length_a                   5.6130(7)
_cell_length_b                   10.7903(14)
_cell_length_c                   27.566(4)
_cell_angle_alpha                90
_cell_angle_beta                 90
_cell_angle_gamma                90
_cell_volume                     1669.56
_exptl_crystal_colour            colorless
_exptl_crystal_description       prism
_chemical_melting_point          '124.0-125.0 deg.C'
_cell_formula_units_Z            4
loop_
_atom_site_label
_atom_site_type_symbol
_atom_site_fract_x
_atom_site_fract_y
_atom_site_fract_z
H1 H 1.502(6) -0.039(6) 0.122(2)
Br1 Br 0.41614(9) 0.57201(4) 0.240801(18)
O1 O 1.4029(9) -0.1917(3) 0.04943(13)
O2 O 1.3673(6) -0.0179(3) 0.13051(12)
O3 O 1.4595(7) 0.0975(3) 0.04683(14)
O4 O 1.1046(6) 0.0478(3) 0.01634(10)
C1 C 1.2119(11) -0.2216(4) 0.06507(16)
C2 C 1.1184(13) -0.3517(4) 0.06117(19)
H2 H 1.2404 -0.4051 0.0476
H3 H 0.9817 -0.3533 0.0397
C3 C 1.0469(12) -0.3988(4) 0.11076(19)
H4 H 1.1861 -0.4027 0.1316
H5 H 0.9820 -0.4818 0.1079
C4 C 0.8622(12) -0.3138(5) 0.1333(2)
H6 H 0.8156 -0.3455 0.1648
H7 H 0.7216 -0.3110 0.1128
C5 C 0.9651(10) -0.1842(4) 0.13871(17)
H8 H 1.0974 -0.1869 0.1613
H9 H 0.8443 -0.1301 0.1523
C6 C 1.0513(8) -0.1302(3) 0.09060(14)
H10 H 0.9113 -0.1169 0.0700
C7 C 1.1737(7) -0.0042(4) 0.09795(15)
C8 C 1.0030(7) 0.0904(4) 0.11746(15)
H11 H 0.8606 0.1017 0.1008
C9 C 1.0392(8) 0.1586(3) 0.15635(14)
H12 H 1.1791 0.1437 0.1734
C10 C 0.8834(8) 0.2550(3) 0.17551(13)
C11 C 0.9479(8) 0.3162(3) 0.21829(14)
H13 H 1.0872 0.2930 0.2341
C12 C 0.8119(8) 0.4091(4) 0.23740(16)
H14 H 0.8593 0.4494 0.2656
C13 C 0.6061(8) 0.4422(3) 0.21467(14)
C14 C 0.5323(8) 0.3823(4) 0.17303(14)
H15 H 0.3904 0.4047 0.1580
C15 C 0.6706(8) 0.2897(4) 0.15424(15)
H16 H 0.6200 0.2489 0.1264
C16 C 1.2694(10) 0.0510(4) 0.05098(18)
C17 C 1.1638(12) 0.1116(5) -0.02790(18)
H17 H 1.1452 0.1992 -0.0233
H18 H 1.0598 0.0843 -0.0534
H19 H 1.3259 0.0938 -0.0365
loop_
_geom_bond_atom_site_label_1
_geom_bond_atom_site_label_2
_geom_bond_site_symmetry_1
_geom_bond_site_symmetry_2
H1 O2 1_555 1_555
Br1 C13 1_555 1_555
O1 C1 1_555 1_555
O2 C7 1_555 1_555
O3 C16 1_555 1_555
O4 C16 1_555 1_555
C1 C2 1_555 1_555
C2 H2 1_555 1_555
H3 C2 1_555 1_555
C3 C2 1_555 1_555
H4 C3 1_555 1_555
H5 C3 1_555 1_555
C4 C3 1_555 1_555
H6 C4 1_555 1_555
H7 C4 1_555 1_555
C5 C4 1_555 1_555
H8 C5 1_555 1_555
H9 C5 1_555 1_555
C6 C1 1_555 1_555
H10 C6 1_555 1_555
C7 C6 1_555 1_555
C8 C7 1_555 1_555
H11 C8 1_555 1_555
C9 C8 1_555 1_555
H12 C9 1_555 1_555
C10 C9 1_555 1_555
C11 C10 1_555 1_555
H13 C11 1_555 1_555
C12 C11 1_555 1_555
H14 C12 1_555 1_555
C13 C12 1_555 1_555
C14 C13 1_555 1_555
H15 C14 1_555 1_555
C15 C10 1_555 1_555
H16 C15 1_555 1_555
C16 C7 1_555 1_555
C17 O4 1_555 1_555
H17 C17 1_555 1_555
H18 C17 1_555 1_555
H19 C17 1_555 1_555
C5 C6 1_555 1_555
C14 C15 1_555 1_555

#END
