
#######################################################################
#
#                 Cambridge Crystallographic Data Centre
#                                CCDC 
#
#######################################################################
#
# If this CIF has been generated from an entry in the Cambridge 
# Structural Database, then it will include bibliographic, chemical, 
# crystal, experimental, refinement or atomic coordinate data resulting 
# from the CCDC's data processing and validation procedures.
#
#######################################################################

data_NOLHIG
_chemical_formula_moiety         'C17 H14 N2 O4'
_chemical_name_systematic        
'Methyl 3-methyl-2-(4-nitrophenyl)-2H-isoindole-1-carboxylate'
_symmetry_cell_setting           triclinic
_symmetry_space_group_name_H-M   'P -1'
_symmetry_Int_Tables_number      2
_space_group_name_Hall           '-P 1'
loop_
_symmetry_equiv_pos_site_id
_symmetry_equiv_pos_as_xyz
1 x,y,z
2 -x,-y,-z
_cell_length_a                   8.1962(16)
_cell_length_b                   9.6318(19)
_cell_length_c                   10.097(2)
_cell_angle_alpha                82.74(3)
_cell_angle_beta                 76.51(3)
_cell_angle_gamma                76.50(3)
_cell_volume                     751.508
_exptl_crystal_colour            colorless
_exptl_crystal_description       block
_cell_formula_units_Z            2
loop_
_atom_site_label
_atom_site_type_symbol
_atom_site_fract_x
_atom_site_fract_y
_atom_site_fract_z
O1 O 0.8052(2) 0.84476(19) 0.49297(18)
O2 O 0.5828(2) 0.7383(2) 0.54996(19)
O3 O 0.0302(3) 0.4254(2) 0.8581(2)
O4 O -0.1693(3) 0.6024(3) 0.8104(3)
N1 N 0.4198(2) 0.92752(19) 0.75862(18)
N2 N -0.0221(3) 0.5507(3) 0.8221(2)
C1 C 0.5768(3) 0.9325(2) 0.6691(2)
C2 C 0.6282(3) 1.0495(2) 0.7020(2)
C3 C 0.7732(3) 1.1101(3) 0.6483(3)
H1 H 0.8566 1.0726 0.5748
C4 C 0.7874(3) 1.2245(3) 0.7071(3)
H2 H 0.8829 1.2648 0.6728
C5 C 0.6628(3) 1.2851(3) 0.8186(3)
H3 H 0.6779 1.3638 0.8555
C6 C 0.5227(3) 1.2301(2) 0.8720(3)
H4 H 0.4406 1.2699 0.9451
C7 C 0.5034(3) 1.1100(2) 0.8140(2)
C8 C 0.3732(3) 1.0350(2) 0.8453(2)
C9 C 0.3143(3) 0.8268(2) 0.7653(2)
C10 C 0.1580(3) 0.8745(3) 0.7267(3)
H5 H 0.1276 0.9679 0.6897
C11 C 0.0481(3) 0.7821(3) 0.7435(3)
H6 H -0.0577 0.8116 0.7185
C12 C 0.0988(3) 0.6462(3) 0.7979(2)
C13 C 0.2563(3) 0.5967(3) 0.8335(3)
H7 H 0.2875 0.5023 0.8679
C14 C 0.3652(3) 0.6876(3) 0.8177(3)
H8 H 0.4715 0.6568 0.8417
C15 C 0.2127(3) 1.0604(3) 0.9520(3)
H9 H 0.1165 1.0972 0.9094
H10 H 0.2191 1.1285 1.0113
H11 H 0.1987 0.9719 1.0043
C16 C 0.6653(3) 0.8370(3) 0.5636(2)
C17 C 0.6714(4) 0.6343(3) 0.4518(3)
H12 H 0.7120 0.6830 0.3656
H13 H 0.5940 0.5778 0.4406
H14 H 0.7671 0.5731 0.4838
loop_
_geom_bond_atom_site_label_1
_geom_bond_atom_site_label_2
_geom_bond_site_symmetry_1
_geom_bond_site_symmetry_2
O1 C16 1_555 1_555
O2 C16 1_555 1_555
O3 N2 1_555 1_555
O4 N2 1_555 1_555
N1 C1 1_555 1_555
N2 C12 1_555 1_555
C1 C2 1_555 1_555
C2 C3 1_555 1_555
C3 H1 1_555 1_555
C4 C3 1_555 1_555
H2 C4 1_555 1_555
C5 C4 1_555 1_555
H3 C5 1_555 1_555
C6 C5 1_555 1_555
H4 C6 1_555 1_555
C7 C2 1_555 1_555
C8 N1 1_555 1_555
C9 N1 1_555 1_555
C10 C9 1_555 1_555
H5 C10 1_555 1_555
C11 C10 1_555 1_555
H6 C11 1_555 1_555
C12 C11 1_555 1_555
C13 C12 1_555 1_555
H7 C13 1_555 1_555
C14 C9 1_555 1_555
H8 C14 1_555 1_555
C15 C8 1_555 1_555
H9 C15 1_555 1_555
H10 C15 1_555 1_555
H11 C15 1_555 1_555
C16 C1 1_555 1_555
C17 O2 1_555 1_555
H12 C17 1_555 1_555
H13 C17 1_555 1_555
H14 C17 1_555 1_555
C6 C7 1_555 1_555
C7 C8 1_555 1_555
C13 C14 1_555 1_555

#END
