
#######################################################################
#
#                 Cambridge Crystallographic Data Centre
#                                CCDC 
#
#######################################################################
#
# If this CIF has been generated from an entry in the Cambridge 
# Structural Database, then it will include bibliographic, chemical, 
# crystal, experimental, refinement or atomic coordinate data resulting 
# from the CCDC's data processing and validation procedures.
#
#######################################################################

data_NOLNAF
_chemical_formula_moiety         'C24 H21 Cl2 N1 O4'
_chemical_name_systematic        
3,3'-(((2-phenylethyl)imino)bis(methylene))bis(5-chloro-2-hydroxybenzaldehyde)
_symmetry_cell_setting           triclinic
_symmetry_space_group_name_H-M   'P -1'
_symmetry_Int_Tables_number      2
_space_group_name_Hall           '-P 1'
loop_
_symmetry_equiv_pos_site_id
_symmetry_equiv_pos_as_xyz
1 x,y,z
2 -x,-y,-z
_cell_length_a                   7.6476(7)
_cell_length_b                   8.6254(7)
_cell_length_c                   17.2914(15)
_cell_angle_alpha                88.685(2)
_cell_angle_beta                 81.900(2)
_cell_angle_gamma                84.966(2)
_cell_volume                     1124.8
_exptl_crystal_colour            yellow
_exptl_crystal_description       block
_cell_formula_units_Z            2
loop_
_atom_site_label
_atom_site_type_symbol
_atom_site_fract_x
_atom_site_fract_y
_atom_site_fract_z
C1 C 0.2947(3) 0.3834(3) 0.55117(16)
C2 C 0.2568(3) 0.5009(3) 0.49721(16)
C3 C 0.1989(3) 0.4632(3) 0.42871(17)
H1 H 0.1735 0.5413 0.3930
C4 C 0.1785(4) 0.3117(3) 0.41266(16)
C5 C 0.2155(4) 0.1930(3) 0.46579(16)
H2 H 0.1992 0.0907 0.4548
C6 C 0.2760(3) 0.2266(3) 0.53416(16)
C7 C 0.2755(4) 0.6654(3) 0.5144(2)
H3 H 0.3116 0.6879 0.5617
C8 C 0.3293(4) 0.0975(3) 0.58830(16)
H4 H 0.3885 0.0029 0.5714
C9 C 0.0811(4) 0.1480(3) 0.69293(16)
H5 H 0.0412 0.0442 0.6940
H6 H 0.0262 0.2086 0.6535
C10 C 0.0242(3) 0.2224(3) 0.77179(16)
C11 C -0.0526(4) 0.1381(3) 0.83539(18)
C12 C -0.1069(4) 0.2119(4) 0.90841(18)
C13 C -0.0808(4) 0.3674(4) 0.9159(2)
H7 H -0.1144 0.4161 0.9638
C14 C -0.0066(4) 0.4483(3) 0.85396(19)
C15 C 0.0464(4) 0.3783(3) 0.78209(17)
H8 H 0.0974 0.4365 0.7403
C16 C -0.1863(5) 0.1223(5) 0.9739(2)
H9 H -0.2188 0.1730 1.0213
C17 C 0.3650(4) 0.0241(3) 0.72190(19)
H10 H 0.3877 -0.0750 0.6954
H11 H 0.2867 0.0090 0.7702
C18 C 0.5388(5) 0.0760(5) 0.7408(2)
H12 H 0.6017 -0.0097 0.7655
H13 H 0.6118 0.1022 0.6926
C19 C 0.5128(4) 0.2140(5) 0.7939(2)
C20 C 0.4353(4) 0.1988(5) 0.8707(2)
H14 H 0.4012 0.1024 0.8892
C21 C 0.4085(5) 0.3227(6) 0.9192(2)
H15 H 0.3542 0.3102 0.9703
C22 C 0.4599(6) 0.4648(6) 0.8944(3)
H16 H 0.4436 0.5484 0.9284
C23 C 0.5353(6) 0.4824(6) 0.8190(3)
H17 H 0.5681 0.5796 0.8011
C24 C 0.5640(4) 0.3569(5) 0.7685(2)
H18 H 0.6179 0.3700 0.7173
Cl1 Cl 0.10319(14) 0.26509(10) 0.32655(5)
Cl2 Cl 0.02076(15) 0.64567(9) 0.86269(6)
N1 N 0.2763(3) 0.1384(2) 0.67206(13)
O1 O 0.3519(3) 0.4208(2) 0.61792(11)
H19 H 0.3449 0.3470 0.6486
O2 O 0.2466(3) 0.7719(2) 0.47022(14)
O3 O -0.0735(3) -0.0108(2) 0.82546(14)
H20 H -0.1283 -0.0457 0.8653
O4 O -0.2139(3) -0.0149(3) 0.97158(15)
loop_
_geom_bond_atom_site_label_1
_geom_bond_atom_site_label_2
_geom_bond_site_symmetry_1
_geom_bond_site_symmetry_2
C1 C2 1_555 1_555
C2 C3 1_555 1_555
C3 H1 1_555 1_555
C4 C3 1_555 1_555
C5 C4 1_555 1_555
H2 C5 1_555 1_555
C6 C1 1_555 1_555
C7 C2 1_555 1_555
H3 C7 1_555 1_555
C8 C6 1_555 1_555
H4 C8 1_555 1_555
C9 H5 1_555 1_555
H6 C9 1_555 1_555
C10 C9 1_555 1_555
C11 C10 1_555 1_555
C12 C11 1_555 1_555
C13 C12 1_555 1_555
H7 C13 1_555 1_555
C14 C13 1_555 1_555
C15 C10 1_555 1_555
H8 C15 1_555 1_555
C16 C12 1_555 1_555
H9 C16 1_555 1_555
C17 H10 1_555 1_555
H11 C17 1_555 1_555
C18 C17 1_555 1_555
H12 C18 1_555 1_555
H13 C18 1_555 1_555
C19 C18 1_555 1_555
C20 C19 1_555 1_555
H14 C20 1_555 1_555
C21 C20 1_555 1_555
H15 C21 1_555 1_555
C22 C21 1_555 1_555
H16 C22 1_555 1_555
C23 C22 1_555 1_555
H17 C23 1_555 1_555
C24 C19 1_555 1_555
H18 C24 1_555 1_555
Cl1 C4 1_555 1_555
Cl2 C14 1_555 1_555
N1 C8 1_555 1_555
O1 C1 1_555 1_555
H19 O1 1_555 1_555
O2 C7 1_555 1_555
O3 C11 1_555 1_555
H20 O3 1_555 1_555
O4 C16 1_555 1_555
C5 C6 1_555 1_555
C9 N1 1_555 1_555
C14 C15 1_555 1_555
C17 N1 1_555 1_555
C23 C24 1_555 1_555

#END
