
#######################################################################
#
#                 Cambridge Crystallographic Data Centre
#                                CCDC 
#
#######################################################################
#
# If this CIF has been generated from an entry in the Cambridge 
# Structural Database, then it will include bibliographic, chemical, 
# crystal, experimental, refinement or atomic coordinate data resulting 
# from the CCDC's data processing and validation procedures.
#
#######################################################################

data_NOLSIS
_chemical_formula_moiety         'C72 H84 N12,1.2(C8 H10 O1)'
_chemical_name_systematic        
'(R)-5,12,20,27,35,42,50,57,62,69,74,81-Dodecaazatridecacyclo[29.29.10.10^16,46^.1^3,59^.1^14,18^.1^29,33^.1^44,48^.0^6,11^.0^21,26^.0^36,41^.0^51,56^.0^63,68^.0^75,80^]tetraoctaconta-1,3(71),4,12,14(84),15,17,19,27,29(83),30,32,34,42,44(72),45,47,49,57,59,61,69,73,81-tetracosaene (S)-1-phenylethanol'
_symmetry_cell_setting           cubic
_symmetry_space_group_name_H-M   'F 41 3 2'
_symmetry_Int_Tables_number      210
_space_group_name_Hall           'F 4d 2 3'
loop_
_symmetry_equiv_pos_site_id
_symmetry_equiv_pos_as_xyz
1 x,y,z
2 1/4-y,1/4+x,1/4+z
3 -x,-y,z
4 1/4+y,1/4-x,1/4+z
5 1/4+x,1/4-z,1/4+y
6 x,-y,-z
7 1/4+x,1/4+z,1/4-y
8 1/4+z,1/4+y,1/4-x
9 -x,y,-z
10 1/4-z,1/4+y,1/4+x
11 z,x,y
12 y,z,x
13 -y,-z,x
14 z,-x,-y
15 -y,z,-x
16 -z,-x,y
17 -z,x,-y
18 y,-z,-x
19 1/4+y,1/4+x,1/4-z
20 1/4-y,1/4-x,1/4-z
21 1/4-x,1/4+z,1/4+y
22 1/4-x,1/4-z,1/4-y
23 1/4+z,1/4-y,1/4+x
24 1/4-z,1/4-y,1/4-x
25 x,1/2+y,1/2+z
26 1/4-y,3/4+x,3/4+z
27 -x,1/2-y,1/2+z
28 1/4+y,3/4-x,3/4+z
29 1/4+x,3/4-z,3/4+y
30 x,1/2-y,1/2-z
31 1/4+x,3/4+z,3/4-y
32 1/4+z,3/4+y,3/4-x
33 -x,1/2+y,1/2-z
34 1/4-z,3/4+y,3/4+x
35 z,1/2+x,1/2+y
36 y,1/2+z,1/2+x
37 -y,1/2-z,1/2+x
38 z,1/2-x,1/2-y
39 -y,1/2+z,1/2-x
40 -z,1/2-x,1/2+y
41 -z,1/2+x,1/2-y
42 y,1/2-z,1/2-x
43 1/4+y,3/4+x,3/4-z
44 1/4-y,3/4-x,3/4-z
45 1/4-x,3/4+z,3/4+y
46 1/4-x,3/4-z,3/4-y
47 1/4+z,3/4-y,3/4+x
48 1/4-z,3/4-y,3/4-x
49 1/2+x,y,1/2+z
50 3/4-y,1/4+x,3/4+z
51 1/2-x,-y,1/2+z
52 3/4+y,1/4-x,3/4+z
53 3/4+x,1/4-z,3/4+y
54 1/2+x,-y,1/2-z
55 3/4+x,1/4+z,3/4-y
56 3/4+z,1/4+y,3/4-x
57 1/2-x,y,1/2-z
58 3/4-z,1/4+y,3/4+x
59 1/2+z,x,1/2+y
60 1/2+y,z,1/2+x
61 1/2-y,-z,1/2+x
62 1/2+z,-x,1/2-y
63 1/2-y,z,1/2-x
64 1/2-z,-x,1/2+y
65 1/2-z,x,1/2-y
66 1/2+y,-z,1/2-x
67 3/4+y,1/4+x,3/4-z
68 3/4-y,1/4-x,3/4-z
69 3/4-x,1/4+z,3/4+y
70 3/4-x,1/4-z,3/4-y
71 3/4+z,1/4-y,3/4+x
72 3/4-z,1/4-y,3/4-x
73 1/2+x,1/2+y,z
74 3/4-y,3/4+x,1/4+z
75 1/2-x,1/2-y,z
76 3/4+y,3/4-x,1/4+z
77 3/4+x,3/4-z,1/4+y
78 1/2+x,1/2-y,-z
79 3/4+x,3/4+z,1/4-y
80 3/4+z,3/4+y,1/4-x
81 1/2-x,1/2+y,-z
82 3/4-z,3/4+y,1/4+x
83 1/2+z,1/2+x,y
84 1/2+y,1/2+z,x
85 1/2-y,1/2-z,x
86 1/2+z,1/2-x,-y
87 1/2-y,1/2+z,-x
88 1/2-z,1/2-x,y
89 1/2-z,1/2+x,-y
90 1/2+y,1/2-z,-x
91 3/4+y,3/4+x,1/4-z
92 3/4-y,3/4-x,1/4-z
93 3/4-x,3/4+z,1/4+y
94 3/4-x,3/4-z,1/4-y
95 3/4+z,3/4-y,1/4+x
96 3/4-z,3/4-y,1/4-x
_cell_length_a                   24.880(12)
_cell_length_b                   24.880(12)
_cell_length_c                   24.880(12)
_cell_angle_alpha                90
_cell_angle_beta                 90
_cell_angle_gamma                90
_cell_volume                     15401.1
_exptl_crystal_colour            colorless
_exptl_crystal_description       prism
_cell_formula_units_Z            8
loop_
_atom_site_label
_atom_site_type_symbol
_atom_site_fract_x
_atom_site_fract_y
_atom_site_fract_z
N1 N 0.22415(11) 0.46530(14) 0.54590(14)
C1 C 0.13317(15) 0.44201(19) 0.61543(16)
H1 H 0.1542 0.4716 0.6243
C2 C 0.14581(17) 0.41057(18) 0.57112(19)
C3 C 0.19282(18) 0.42609(18) 0.5374(2)
H2 H 0.1998 0.4050 0.5074
C4 C 0.26972(13) 0.47234(18) 0.51108(19)
H3 H 0.2684 0.4461 0.4817
C5 C 0.31979(19) 0.4643(3) 0.5435(3)
H4 H 0.3198 0.4282 0.5583
H5 H 0.3199 0.4895 0.5733
C6 C 0.37106(18) 0.4725(3) 0.5100(4)
H6 H 0.4026 0.4662 0.5320
H7 H 0.3717 0.4474 0.4801
N1E N 0.22415(11) 0.53470(14) 0.45410(14)
C1E C 0.13317(15) 0.55799(19) 0.38457(16)
H1E H 0.1542 0.5284 0.3757
C2E C 0.14581(17) 0.58943(18) 0.42888(19)
C3E C 0.19282(18) 0.57391(18) 0.4626(2)
H2E H 0.1998 0.5950 0.4926
C4E C 0.26972(13) 0.52766(18) 0.48892(19)
H3E H 0.2684 0.5539 0.5183
C5E C 0.31979(19) 0.5357(3) 0.4565(3)
H4E H 0.3198 0.5718 0.4417
H5E H 0.3199 0.5105 0.4267
C6E C 0.37106(18) 0.5275(3) 0.4900(4)
H6E H 0.4026 0.5338 0.4680
H7E H 0.3717 0.5526 0.5199
N1HB N 0.03470(14) 0.45410(14) 0.72415(11)
C1HB C 0.05799(19) 0.38457(16) 0.63317(15)
H1HB H 0.0284 0.3757 0.6542
C2HB C 0.08943(18) 0.42888(19) 0.64581(17)
C3HB C 0.07391(18) 0.4626(2) 0.69282(18)
H2HB H 0.0950 0.4926 0.6998
C4HB C 0.02766(18) 0.48892(19) 0.76972(13)
H3HB H 0.0539 0.5183 0.7684
C5HB C 0.0357(3) 0.4565(3) 0.81979(19)
H4HB H 0.0718 0.4417 0.8198
H5HB H 0.0105 0.4267 0.8199
C6HB C 0.0275(3) 0.4900(4) 0.87106(18)
H6HB H 0.0338 0.4680 0.9026
H7HB H 0.0526 0.5199 0.8717
N1GC N 0.04590(14) 0.27585(11) 0.53470(14)
C1GC C 0.11543(16) 0.36683(15) 0.55799(19)
H1GC H 0.1243 0.3458 0.5284
C2GC C 0.07112(19) 0.35419(17) 0.58943(18)
C3GC C 0.0374(2) 0.30718(18) 0.57391(18)
H2GC H 0.0074 0.3002 0.5950
C4GC C 0.01108(19) 0.23028(13) 0.52766(18)
H3GC H -0.0183 0.2316 0.5539
C5GC C 0.0435(3) 0.18021(19) 0.5357(3)
H4GC H 0.0583 0.1802 0.5718
H5GC H 0.0733 0.1801 0.5105
C6GC C 0.0100(4) 0.12894(18) 0.5275(3)
H6GC H 0.0320 0.0974 0.5338
H7GC H -0.0199 0.1283 0.5526
N1GB N -0.03470(14) 0.54590(14) 0.72415(11)
C1GB C -0.05799(19) 0.61543(16) 0.63317(15)
H1GB H -0.0284 0.6243 0.6542
C2GB C -0.08943(18) 0.57112(19) 0.64581(17)
C3GB C -0.07391(18) 0.5374(2) 0.69282(18)
H2GB H -0.0950 0.5074 0.6998
C4GB C -0.02766(18) 0.51108(19) 0.76972(13)
H3GB H -0.0539 0.4817 0.7684
C5GB C -0.0357(3) 0.5435(3) 0.81979(19)
H4GB H -0.0718 0.5583 0.8198
H5GB H -0.0105 0.5733 0.8199
C6GB C -0.0275(3) 0.5100(4) 0.87106(18)
H6GB H -0.0338 0.5320 0.9026
H7GB H -0.0526 0.4801 0.8717
N1JB N 0.03470(14) 0.54590(14) 0.27585(11)
C1JB C 0.05799(19) 0.61543(16) 0.36683(15)
H1JB H 0.0284 0.6243 0.3458
C2JB C 0.08943(18) 0.57112(19) 0.35419(17)
C3JB C 0.07391(18) 0.5374(2) 0.30718(18)
H2JB H 0.0950 0.5074 0.3002
C4JB C 0.02766(18) 0.51108(19) 0.23028(13)
H3JB H 0.0539 0.4817 0.2316
C5JB C 0.0357(3) 0.5435(3) 0.18021(19)
H4JB H 0.0718 0.5583 0.1802
H5JB H 0.0105 0.5733 0.1801
C6JB C 0.0275(3) 0.5100(4) 0.12894(18)
H6JB H 0.0338 0.5320 0.0974
H7JB H 0.0526 0.4801 0.1283
N1MB N -0.03470(14) 0.45410(14) 0.27585(11)
C1MB C -0.05799(19) 0.38457(16) 0.36683(15)
H1MB H -0.0284 0.3757 0.3458
C2MB C -0.08943(18) 0.42888(19) 0.35419(17)
C3MB C -0.07391(18) 0.4626(2) 0.30718(18)
H2MB H -0.0950 0.4926 0.3002
C4MB C -0.02766(18) 0.48892(19) 0.23028(13)
H3MB H -0.0539 0.5183 0.2316
C5MB C -0.0357(3) 0.4565(3) 0.18021(19)
H4MB H -0.0718 0.4417 0.1802
H5MB H -0.0105 0.4267 0.1801
C6MB C -0.0275(3) 0.4900(4) 0.12894(18)
H6MB H -0.0338 0.4680 0.0974
H7MB H -0.0526 0.5199 0.1283
N1DC N 0.04590(14) 0.72415(11) 0.46530(14)
C1DC C 0.11543(16) 0.63317(15) 0.44201(19)
H1DC H 0.1243 0.6542 0.4716
C2DC C 0.07112(19) 0.64581(17) 0.41057(18)
C3DC C 0.0374(2) 0.69282(18) 0.42609(18)
H2DC H 0.0074 0.6998 0.4050
C4DC C 0.01108(19) 0.76972(13) 0.47234(18)
H3DC H -0.0183 0.7684 0.4461
C5DC C 0.0435(3) 0.81979(19) 0.4643(3)
H4DC H 0.0583 0.8198 0.4282
H5DC H 0.0733 0.8199 0.4895
C6DC C 0.0100(4) 0.87106(18) 0.4725(3)
H6DC H 0.0320 0.9026 0.4662
H7DC H -0.0199 0.8717 0.4474
N1IC N -0.04590(14) 0.27585(11) 0.46530(14)
C1IC C -0.11543(16) 0.36683(15) 0.44201(19)
H1IC H -0.1243 0.3458 0.4716
C2IC C -0.07112(19) 0.35419(17) 0.41057(18)
C3IC C -0.0374(2) 0.30718(18) 0.42609(18)
H2IC H -0.0074 0.3002 0.4050
C4IC C -0.01108(19) 0.23028(13) 0.47234(18)
H3IC H 0.0183 0.2316 0.4461
C5IC C -0.0435(3) 0.18021(19) 0.4643(3)
H4IC H -0.0583 0.1802 0.4282
H5IC H -0.0733 0.1801 0.4895
C6IC C -0.0100(4) 0.12894(18) 0.4725(3)
H6IC H -0.0320 0.0974 0.4662
H7IC H 0.0199 0.1283 0.4474
N1JC N -0.04590(14) 0.72415(11) 0.53470(14)
C1JC C -0.11543(16) 0.63317(15) 0.55799(19)
H1JC H -0.1243 0.6542 0.5284
C2JC C -0.07112(19) 0.64581(17) 0.58943(18)
C3JC C -0.0374(2) 0.69282(18) 0.57391(18)
H2JC H -0.0074 0.6998 0.5950
C4JC C -0.01108(19) 0.76972(13) 0.52766(18)
H3JC H 0.0183 0.7684 0.5539
C5JC C -0.0435(3) 0.81979(19) 0.5357(3)
H4JC H -0.0583 0.8198 0.5718
H5JC H -0.0733 0.8199 0.5105
C6JC C -0.0100(4) 0.87106(18) 0.5275(3)
H6JC H -0.0320 0.9026 0.5338
H7JC H 0.0199 0.8717 0.5526
N1B N -0.22415(11) 0.53470(14) 0.54590(14)
C1B C -0.13317(15) 0.55799(19) 0.61543(16)
H1B H -0.1542 0.5284 0.6243
C2B C -0.14581(17) 0.58943(18) 0.57112(19)
C3B C -0.19282(18) 0.57391(18) 0.5374(2)
H2B H -0.1998 0.5950 0.5074
C4B C -0.26972(13) 0.52766(18) 0.51108(19)
H3B H -0.2684 0.5539 0.4817
C5B C -0.31979(19) 0.5357(3) 0.5435(3)
H4B H -0.3198 0.5718 0.5583
H5B H -0.3199 0.5105 0.5733
C6B C -0.37106(18) 0.5275(3) 0.5100(4)
H6B H -0.4026 0.5338 0.5320
H7B H -0.3717 0.5526 0.4801
N1H N -0.22415(11) 0.46530(14) 0.45410(14)
C1H C -0.13317(15) 0.44201(19) 0.38457(16)
H1H H -0.1542 0.4716 0.3757
C2H C -0.14581(17) 0.41057(18) 0.42888(19)
C3H C -0.19282(18) 0.42609(18) 0.4626(2)
H2H H -0.1998 0.4050 0.4926
C4H C -0.26972(13) 0.47234(18) 0.48892(19)
H3H H -0.2684 0.4461 0.5183
C5H C -0.31979(19) 0.4643(3) 0.4565(3)
H4H H -0.3198 0.4282 0.4417
H5H H -0.3199 0.4895 0.4267
C6H C -0.37106(18) 0.4725(3) 0.4900(4)
H6H H -0.4026 0.4662 0.4680
H7H H -0.3717 0.4474 0.5199
loop_
_geom_bond_atom_site_label_1
_geom_bond_atom_site_label_2
_geom_bond_site_symmetry_1
_geom_bond_site_symmetry_2
N1 C3 1_555 1_555
C1 H1 1_555 1_555
C2 C1 1_555 1_555
C3 C2 1_555 1_555
H2 C3 1_555 1_555
C4 N1 1_555 1_555
H3 C4 1_555 1_555
C5 C4 1_555 1_555
H4 C5 1_555 1_555
H5 C5 1_555 1_555
C6 C5 1_555 1_555
H6 C6 1_555 1_555
H7 C6 1_555 1_555
N1E C3E 1_555 1_555
C1E H1E 1_555 1_555
C2E C1E 1_555 1_555
C3E C2E 1_555 1_555
H2E C3E 1_555 1_555
C4E C4 1_555 1_555
H3E C4E 1_555 1_555
C5E C4E 1_555 1_555
H4E C5E 1_555 1_555
H5E C5E 1_555 1_555
C6E C6 1_555 1_555
H6E C6E 1_555 1_555
H7E C6E 1_555 1_555
N1HB C3HB 1_555 1_555
C1HB H1HB 1_555 1_555
C2HB C1 1_555 1_555
C3HB C2HB 1_555 1_555
H2HB C3HB 1_555 1_555
C4HB N1HB 1_555 1_555
H3HB C4HB 1_555 1_555
C5HB C4HB 1_555 1_555
H4HB C5HB 1_555 1_555
H5HB C5HB 1_555 1_555
C6HB C5HB 1_555 1_555
H6HB C6HB 1_555 1_555
H7HB C6HB 1_555 1_555
N1GC C3GC 1_555 1_555
C1GC C2 1_555 1_555
H1GC C1GC 1_555 1_555
C2GC C1HB 1_555 1_555
C3GC C2GC 1_555 1_555
H2GC C3GC 1_555 1_555
C4GC N1GC 1_555 1_555
H3GC C4GC 1_555 1_555
C5GC C4GC 1_555 1_555
H4GC C5GC 1_555 1_555
H5GC C5GC 1_555 1_555
C6GC C5GC 1_555 1_555
H6GC C6GC 1_555 1_555
H7GC C6GC 1_555 1_555
N1GB C3GB 1_555 1_555
C1GB H1GB 1_555 1_555
C2GB C1GB 1_555 1_555
C3GB C2GB 1_555 1_555
H2GB C3GB 1_555 1_555
C4GB C4HB 1_555 1_555
H3GB C4GB 1_555 1_555
C5GB C4GB 1_555 1_555
H4GB C5GB 1_555 1_555
H5GB C5GB 1_555 1_555
C6GB C6HB 1_555 1_555
H6GB C6GB 1_555 1_555
H7GB C6GB 1_555 1_555
N1JB C3JB 1_555 1_555
C1JB H1JB 1_555 1_555
C2JB C1E 1_555 1_555
C3JB C2JB 1_555 1_555
H2JB C3JB 1_555 1_555
C4JB N1JB 1_555 1_555
H3JB C4JB 1_555 1_555
C5JB C4JB 1_555 1_555
H4JB C5JB 1_555 1_555
H5JB C5JB 1_555 1_555
C6JB C5JB 1_555 1_555
H6JB C6JB 1_555 1_555
H7JB C6JB 1_555 1_555
N1MB C3MB 1_555 1_555
C1MB H1MB 1_555 1_555
C2MB C1MB 1_555 1_555
C3MB C2MB 1_555 1_555
H2MB C3MB 1_555 1_555
C4MB C4JB 1_555 1_555
H3MB C4MB 1_555 1_555
C5MB C4MB 1_555 1_555
H4MB C5MB 1_555 1_555
H5MB C5MB 1_555 1_555
C6MB C6JB 1_555 1_555
H6MB C6MB 1_555 1_555
H7MB C6MB 1_555 1_555
N1DC C3DC 1_555 1_555
C1DC C2E 1_555 1_555
H1DC C1DC 1_555 1_555
C2DC C1JB 1_555 1_555
C3DC C2DC 1_555 1_555
H2DC C3DC 1_555 1_555
C4DC N1DC 1_555 1_555
H3DC C4DC 1_555 1_555
C5DC C4DC 1_555 1_555
H4DC C5DC 1_555 1_555
H5DC C5DC 1_555 1_555
C6DC C5DC 1_555 1_555
H6DC C6DC 1_555 1_555
H7DC C6DC 1_555 1_555
N1IC C3IC 1_555 1_555
C1IC H1IC 1_555 1_555
C2IC C1MB 1_555 1_555
C3IC C2IC 1_555 1_555
H2IC C3IC 1_555 1_555
C4IC C4GC 1_555 1_555
H3IC C4IC 1_555 1_555
C5IC C4IC 1_555 1_555
H4IC C5IC 1_555 1_555
H5IC C5IC 1_555 1_555
C6IC C6GC 1_555 1_555
H6IC C6IC 1_555 1_555
H7IC C6IC 1_555 1_555
N1JC C3JC 1_555 1_555
C1JC H1JC 1_555 1_555
C2JC C1GB 1_555 1_555
C3JC C2JC 1_555 1_555
H2JC C3JC 1_555 1_555
C4JC C4DC 1_555 1_555
H3JC C4JC 1_555 1_555
C5JC C4JC 1_555 1_555
H4JC C5JC 1_555 1_555
H5JC C5JC 1_555 1_555
C6JC C6DC 1_555 1_555
H6JC C6JC 1_555 1_555
H7JC C6JC 1_555 1_555
N1B C3B 1_555 1_555
C1B C2GB 1_555 1_555
H1B C1B 1_555 1_555
C2B C1JC 1_555 1_555
C3B C2B 1_555 1_555
H2B C3B 1_555 1_555
C4B N1B 1_555 1_555
H3B C4B 1_555 1_555
C5B C4B 1_555 1_555
H4B C5B 1_555 1_555
H5B C5B 1_555 1_555
C6B C5B 1_555 1_555
H6B C6B 1_555 1_555
H7B C6B 1_555 1_555
N1H C3H 1_555 1_555
C1H C2MB 1_555 1_555
H1H C1H 1_555 1_555
C2H C1IC 1_555 1_555
C3H C2H 1_555 1_555
H2H C3H 1_555 1_555
C4H C4B 1_555 1_555
H3H C4H 1_555 1_555
C5H C4H 1_555 1_555
H4H C5H 1_555 1_555
H5H C5H 1_555 1_555
C6H C6B 1_555 1_555
H6H C6H 1_555 1_555
H7H C6H 1_555 1_555
N1E C4E 1_555 1_555
C5E C6E 1_555 1_555
C1HB C2HB 1_555 1_555
C1GC C2GC 1_555 1_555
N1GB C4GB 1_555 1_555
C5GB C6GB 1_555 1_555
C1JB C2JB 1_555 1_555
N1MB C4MB 1_555 1_555
C5MB C6MB 1_555 1_555
C1DC C2DC 1_555 1_555
N1IC C4IC 1_555 1_555
C1IC C2IC 1_555 1_555
C5IC C6IC 1_555 1_555
N1JC C4JC 1_555 1_555
C1JC C2JC 1_555 1_555
C5JC C6JC 1_555 1_555
C1B C2B 1_555 1_555
N1H C4H 1_555 1_555
C1H C2H 1_555 1_555
C5H C6H 1_555 1_555

#END
