
#######################################################################
#
#                 Cambridge Crystallographic Data Centre
#                                CCDC 
#
#######################################################################
#
# If this CIF has been generated from an entry in the Cambridge 
# Structural Database, then it will include bibliographic, chemical, 
# crystal, experimental, refinement or atomic coordinate data resulting 
# from the CCDC's data processing and validation procedures.
#
#######################################################################

data_NOLSUE
_chemical_formula_moiety         'C72 H84 N12,1.25(C8 H10 O1)'
_chemical_name_systematic        
'(R)-5,12,20,27,35,42,50,57,62,69,74,81-Dodecaazatridecacyclo[29.29.10.10^16,46^.1^3,59^.1^14,18^.1^29,33^.1^44,48^.0^6,11^.0^21,26^.0^36,41^.0^51,56^.0^63,68^.0^75,80^]tetraoctaconta-1,3(71),4,12,14(84),15,17,19,27,29(83),30,32,34,42,44(72),45,47,49,57,59,61,69,73,81-tetracosaene (S)-1-phenylethanol'
_symmetry_cell_setting           cubic
_symmetry_space_group_name_H-M   'F 41 3 2'
_symmetry_Int_Tables_number      210
_space_group_name_Hall           'F 4d 2 3'
loop_
_symmetry_equiv_pos_site_id
_symmetry_equiv_pos_as_xyz
1 x,y,z
2 1/4-y,1/4+x,1/4+z
3 -x,-y,z
4 1/4+y,1/4-x,1/4+z
5 1/4+x,1/4-z,1/4+y
6 x,-y,-z
7 1/4+x,1/4+z,1/4-y
8 1/4+z,1/4+y,1/4-x
9 -x,y,-z
10 1/4-z,1/4+y,1/4+x
11 z,x,y
12 y,z,x
13 -y,-z,x
14 z,-x,-y
15 -y,z,-x
16 -z,-x,y
17 -z,x,-y
18 y,-z,-x
19 1/4+y,1/4+x,1/4-z
20 1/4-y,1/4-x,1/4-z
21 1/4-x,1/4+z,1/4+y
22 1/4-x,1/4-z,1/4-y
23 1/4+z,1/4-y,1/4+x
24 1/4-z,1/4-y,1/4-x
25 x,1/2+y,1/2+z
26 1/4-y,3/4+x,3/4+z
27 -x,1/2-y,1/2+z
28 1/4+y,3/4-x,3/4+z
29 1/4+x,3/4-z,3/4+y
30 x,1/2-y,1/2-z
31 1/4+x,3/4+z,3/4-y
32 1/4+z,3/4+y,3/4-x
33 -x,1/2+y,1/2-z
34 1/4-z,3/4+y,3/4+x
35 z,1/2+x,1/2+y
36 y,1/2+z,1/2+x
37 -y,1/2-z,1/2+x
38 z,1/2-x,1/2-y
39 -y,1/2+z,1/2-x
40 -z,1/2-x,1/2+y
41 -z,1/2+x,1/2-y
42 y,1/2-z,1/2-x
43 1/4+y,3/4+x,3/4-z
44 1/4-y,3/4-x,3/4-z
45 1/4-x,3/4+z,3/4+y
46 1/4-x,3/4-z,3/4-y
47 1/4+z,3/4-y,3/4+x
48 1/4-z,3/4-y,3/4-x
49 1/2+x,y,1/2+z
50 3/4-y,1/4+x,3/4+z
51 1/2-x,-y,1/2+z
52 3/4+y,1/4-x,3/4+z
53 3/4+x,1/4-z,3/4+y
54 1/2+x,-y,1/2-z
55 3/4+x,1/4+z,3/4-y
56 3/4+z,1/4+y,3/4-x
57 1/2-x,y,1/2-z
58 3/4-z,1/4+y,3/4+x
59 1/2+z,x,1/2+y
60 1/2+y,z,1/2+x
61 1/2-y,-z,1/2+x
62 1/2+z,-x,1/2-y
63 1/2-y,z,1/2-x
64 1/2-z,-x,1/2+y
65 1/2-z,x,1/2-y
66 1/2+y,-z,1/2-x
67 3/4+y,1/4+x,3/4-z
68 3/4-y,1/4-x,3/4-z
69 3/4-x,1/4+z,3/4+y
70 3/4-x,1/4-z,3/4-y
71 3/4+z,1/4-y,3/4+x
72 3/4-z,1/4-y,3/4-x
73 1/2+x,1/2+y,z
74 3/4-y,3/4+x,1/4+z
75 1/2-x,1/2-y,z
76 3/4+y,3/4-x,1/4+z
77 3/4+x,3/4-z,1/4+y
78 1/2+x,1/2-y,-z
79 3/4+x,3/4+z,1/4-y
80 3/4+z,3/4+y,1/4-x
81 1/2-x,1/2+y,-z
82 3/4-z,3/4+y,1/4+x
83 1/2+z,1/2+x,y
84 1/2+y,1/2+z,x
85 1/2-y,1/2-z,x
86 1/2+z,1/2-x,-y
87 1/2-y,1/2+z,-x
88 1/2-z,1/2-x,y
89 1/2-z,1/2+x,-y
90 1/2+y,1/2-z,-x
91 3/4+y,3/4+x,1/4-z
92 3/4-y,3/4-x,1/4-z
93 3/4-x,3/4+z,1/4+y
94 3/4-x,3/4-z,1/4-y
95 3/4+z,3/4-y,1/4+x
96 3/4-z,3/4-y,1/4-x
_cell_length_a                   24.923(6)
_cell_length_b                   24.923(6)
_cell_length_c                   24.923(6)
_cell_angle_alpha                90
_cell_angle_beta                 90
_cell_angle_gamma                90
_cell_volume                     15481.1
_exptl_crystal_colour            colorless
_exptl_crystal_description       prism
_cell_formula_units_Z            8
loop_
_atom_site_label
_atom_site_type_symbol
_atom_site_fract_x
_atom_site_fract_y
_atom_site_fract_z
N1 N 0.5448(2) 0.7237(2) 0.4672(3)
C1 C 0.5691(3) 0.6435(3) 0.4121(2)
C2 C 0.5588(3) 0.6138(3) 0.3668(2)
H1 H 0.5312 0.6245 0.3428
C3 C 0.5120(3) 0.7705(2) 0.4728(3)
H2 H 0.4827 0.7695 0.4454
C4 C 0.5370(3) 0.6903(3) 0.4262(3)
H3 H 0.5073 0.6978 0.4036
C5 C 0.5440(4) 0.8200(3) 0.4652(6)
H4 H 0.5595 0.8197 0.4287
H5 H 0.5741 0.8198 0.4911
C6 C 0.5122(6) 0.8714(3) 0.4726(4)
H6 H 0.5361 0.9029 0.4684
H7 H 0.4837 0.8738 0.4451
N1H N 0.4552(2) 0.7237(2) 0.5328(3)
C1H C 0.4309(3) 0.6435(3) 0.5879(2)
C2H C 0.4412(3) 0.6138(3) 0.6332(2)
H1H H 0.4688 0.6245 0.6572
C3H C 0.4880(3) 0.7705(2) 0.5272(3)
H2H H 0.5173 0.7695 0.5546
C4H C 0.4630(3) 0.6903(3) 0.5738(3)
H3H H 0.4927 0.6978 0.5964
C5H C 0.4560(4) 0.8200(3) 0.5348(6)
H4H H 0.4405 0.8197 0.5713
H5H H 0.4259 0.8198 0.5089
C6H C 0.4878(6) 0.8714(3) 0.5274(4)
H6H H 0.4639 0.9029 0.5316
H7H H 0.5163 0.8738 0.5549
N1P N 0.5328(3) 0.5448(2) 0.2763(2)
C1P C 0.5879(2) 0.5691(3) 0.3565(3)
C2P C 0.6332(2) 0.5588(3) 0.3862(3)
H1P H 0.6572 0.5312 0.3755
C3P C 0.5272(3) 0.5120(3) 0.2295(2)
H2P H 0.5546 0.4827 0.2305
C4P C 0.5738(3) 0.5370(3) 0.3097(3)
H3P H 0.5964 0.5073 0.3022
C5P C 0.5348(6) 0.5440(4) 0.1800(3)
H4P H 0.5713 0.5595 0.1803
H5P H 0.5089 0.5741 0.1802
C6P C 0.5274(4) 0.5122(6) 0.1286(3)
H6P H 0.5316 0.5361 0.0971
H7P H 0.5549 0.4837 0.1262
N1Q N 0.7237(2) 0.5328(3) 0.4552(2)
C1Q C 0.6435(3) 0.5879(2) 0.4309(3)
C2Q C 0.6138(3) 0.6332(2) 0.4412(3)
H1Q H 0.6245 0.6572 0.4688
C3Q C 0.7705(2) 0.5272(3) 0.4880(3)
H2Q H 0.7695 0.5546 0.5173
C4Q C 0.6903(3) 0.5738(3) 0.4630(3)
H3Q H 0.6978 0.5964 0.4927
C5Q C 0.8200(3) 0.5348(6) 0.4560(4)
H4Q H 0.8197 0.5713 0.4405
H5Q H 0.8198 0.5089 0.4259
C6Q C 0.8714(3) 0.5274(4) 0.4878(6)
H6Q H 0.9029 0.5316 0.4639
H7Q H 0.8738 0.5549 0.5163
N1J N 0.4672(3) 0.5448(2) 0.7237(2)
C1J C 0.4121(2) 0.5691(3) 0.6435(3)
C2J C 0.3668(2) 0.5588(3) 0.6138(3)
H1J H 0.3428 0.5312 0.6245
C3J C 0.4728(3) 0.5120(3) 0.7705(2)
H2J H 0.4454 0.4827 0.7695
C4J C 0.4262(3) 0.5370(3) 0.6903(3)
H3J H 0.4036 0.5073 0.6978
C5J C 0.4652(6) 0.5440(4) 0.8200(3)
H4J H 0.4287 0.5595 0.8197
H5J H 0.4911 0.5741 0.8198
C6J C 0.4726(4) 0.5122(6) 0.8714(3)
H6J H 0.4684 0.5361 0.9029
H7J H 0.4451 0.4837 0.8738
N1K N 0.7237(2) 0.4672(3) 0.5448(2)
C1K C 0.6435(3) 0.4121(2) 0.5691(3)
C2K C 0.6138(3) 0.3668(2) 0.5588(3)
H1K H 0.6245 0.3428 0.5312
C3K C 0.7705(2) 0.4728(3) 0.5120(3)
H2K H 0.7695 0.4454 0.4827
C4K C 0.6903(3) 0.4262(3) 0.5370(3)
H3K H 0.6978 0.4036 0.5073
C5K C 0.8200(3) 0.4652(6) 0.5440(4)
H4K H 0.8197 0.4287 0.5595
H5K H 0.8198 0.4911 0.5741
C6K C 0.8714(3) 0.4726(4) 0.5122(6)
H6K H 0.9029 0.4684 0.5361
H7K H 0.8738 0.4451 0.4837
N1L N 0.2763(2) 0.5328(3) 0.5448(2)
C1L C 0.3565(3) 0.5879(2) 0.5691(3)
C2L C 0.3862(3) 0.6332(2) 0.5588(3)
H1L H 0.3755 0.6572 0.5312
C3L C 0.2295(2) 0.5272(3) 0.5120(3)
H2L H 0.2305 0.5546 0.4827
C4L C 0.3097(3) 0.5738(3) 0.5370(3)
H3L H 0.3022 0.5964 0.5073
C5L C 0.1800(3) 0.5348(6) 0.5440(4)
H4L H 0.1803 0.5713 0.5595
H5L H 0.1802 0.5089 0.5741
C6L C 0.1286(3) 0.5274(4) 0.5122(6)
H6L H 0.0971 0.5316 0.5361
H7L H 0.1262 0.5549 0.4837
N1M N 0.4672(3) 0.4552(2) 0.2763(2)
C1M C 0.4121(2) 0.4309(3) 0.3565(3)
C2M C 0.3668(2) 0.4412(3) 0.3862(3)
H1M H 0.3428 0.4688 0.3755
C3M C 0.4728(3) 0.4880(3) 0.2295(2)
H2M H 0.4454 0.5173 0.2305
C4M C 0.4262(3) 0.4630(3) 0.3097(3)
H3M H 0.4036 0.4927 0.3022
C5M C 0.4652(6) 0.4560(4) 0.1800(3)
H4M H 0.4287 0.4405 0.1803
H5M H 0.4911 0.4259 0.1802
C6M C 0.4726(4) 0.4878(6) 0.1286(3)
H6M H 0.4684 0.4639 0.0971
H7M H 0.4451 0.5163 0.1262
N1N N 0.2763(2) 0.4672(3) 0.4552(2)
C1N C 0.3565(3) 0.4121(2) 0.4309(3)
C2N C 0.3862(3) 0.3668(2) 0.4412(3)
H1N H 0.3755 0.3428 0.4688
C3N C 0.2295(2) 0.4728(3) 0.4880(3)
H2N H 0.2305 0.4454 0.5173
C4N C 0.3097(3) 0.4262(3) 0.4630(3)
H3N H 0.3022 0.4036 0.4927
C5N C 0.1800(3) 0.4652(6) 0.4560(4)
H4N H 0.1803 0.4287 0.4405
H5N H 0.1802 0.4911 0.4259
C6N C 0.1286(3) 0.4726(4) 0.4878(6)
H6N H 0.0971 0.4684 0.4639
H7N H 0.1262 0.4451 0.5163
N1O N 0.5328(3) 0.4552(2) 0.7237(2)
C1O C 0.5879(2) 0.4309(3) 0.6435(3)
C2O C 0.6332(2) 0.4412(3) 0.6138(3)
H1O H 0.6572 0.4688 0.6245
C3O C 0.5272(3) 0.4880(3) 0.7705(2)
H2O H 0.5546 0.5173 0.7695
C4O C 0.5738(3) 0.4630(3) 0.6903(3)
H3O H 0.5964 0.4927 0.6978
C5O C 0.5348(6) 0.4560(4) 0.8200(3)
H4O H 0.5713 0.4405 0.8197
H5O H 0.5089 0.4259 0.8198
C6O C 0.5274(4) 0.4878(6) 0.8714(3)
H6O H 0.5316 0.4639 0.9029
H7O H 0.5549 0.5163 0.8738
N1B N 0.4552(2) 0.2763(2) 0.4672(3)
C1B C 0.4309(3) 0.3565(3) 0.4121(2)
C2B C 0.4412(3) 0.3862(3) 0.3668(2)
H1B H 0.4688 0.3755 0.3428
C3B C 0.4880(3) 0.2295(2) 0.4728(3)
H2B H 0.5173 0.2305 0.4454
C4B C 0.4630(3) 0.3097(3) 0.4262(3)
H3B H 0.4927 0.3022 0.4036
C5B C 0.4560(4) 0.1800(3) 0.4652(6)
H4B H 0.4405 0.1803 0.4287
H5B H 0.4259 0.1802 0.4911
C6B C 0.4878(6) 0.1286(3) 0.4726(4)
H6B H 0.4639 0.0971 0.4684
H7B H 0.5163 0.1262 0.4451
N1E N 0.5448(2) 0.2763(2) 0.5328(3)
C1E C 0.5691(3) 0.3565(3) 0.5879(2)
C2E C 0.5588(3) 0.3862(3) 0.6332(2)
H1E H 0.5312 0.3755 0.6572
C3E C 0.5120(3) 0.2295(2) 0.5272(3)
H2E H 0.4827 0.2305 0.5546
C4E C 0.5370(3) 0.3097(3) 0.5738(3)
H3E H 0.5073 0.3022 0.5964
C5E C 0.5440(4) 0.1800(3) 0.5348(6)
H4E H 0.5595 0.1803 0.5713
H5E H 0.5741 0.1802 0.5089
C6E C 0.5122(6) 0.1286(3) 0.5274(4)
H6E H 0.5361 0.0971 0.5316
H7E H 0.4837 0.1262 0.5549
loop_
_geom_bond_atom_site_label_1
_geom_bond_atom_site_label_2
_geom_bond_site_symmetry_1
_geom_bond_site_symmetry_2
N1 C3 1_555 1_555
C1 C2 1_555 1_555
C2 H1 1_555 1_555
C3 H2 1_555 1_555
C4 N1 1_555 1_555
H3 C4 1_555 1_555
C5 C3 1_555 1_555
H4 C5 1_555 1_555
H5 C5 1_555 1_555
C6 C5 1_555 1_555
H6 C6 1_555 1_555
H7 C6 1_555 1_555
N1H C3H 1_555 1_555
C1H C2H 1_555 1_555
C2H H1H 1_555 1_555
C3H C3 1_555 1_555
H2H C3H 1_555 1_555
C4H N1H 1_555 1_555
H3H C4H 1_555 1_555
C5H C3H 1_555 1_555
H4H C5H 1_555 1_555
H5H C5H 1_555 1_555
C6H C6 1_555 1_555
H6H C6H 1_555 1_555
H7H C6H 1_555 1_555
N1P C3P 1_555 1_555
C1P C2 1_555 1_555
C2P C1P 1_555 1_555
H1P C2P 1_555 1_555
C3P H2P 1_555 1_555
C4P N1P 1_555 1_555
H3P C4P 1_555 1_555
C5P C3P 1_555 1_555
H4P C5P 1_555 1_555
H5P C5P 1_555 1_555
C6P C5P 1_555 1_555
H6P C6P 1_555 1_555
H7P C6P 1_555 1_555
N1Q C3Q 1_555 1_555
C1Q C2P 1_555 1_555
C2Q C1 1_555 1_555
H1Q C2Q 1_555 1_555
C3Q H2Q 1_555 1_555
C4Q N1Q 1_555 1_555
H3Q C4Q 1_555 1_555
C5Q C3Q 1_555 1_555
H4Q C5Q 1_555 1_555
H5Q C5Q 1_555 1_555
C6Q C5Q 1_555 1_555
H6Q C6Q 1_555 1_555
H7Q C6Q 1_555 1_555
N1J C3J 1_555 1_555
C1J C2H 1_555 1_555
C2J C1J 1_555 1_555
H1J C2J 1_555 1_555
C3J H2J 1_555 1_555
C4J N1J 1_555 1_555
H3J C4J 1_555 1_555
C5J C3J 1_555 1_555
H4J C5J 1_555 1_555
H5J C5J 1_555 1_555
C6J C5J 1_555 1_555
H6J C6J 1_555 1_555
H7J C6J 1_555 1_555
N1K C3K 1_555 1_555
C1K C2K 1_555 1_555
C2K H1K 1_555 1_555
C3K C3Q 1_555 1_555
H2K C3K 1_555 1_555
C4K N1K 1_555 1_555
H3K C4K 1_555 1_555
C5K C3K 1_555 1_555
H4K C5K 1_555 1_555
H5K C5K 1_555 1_555
C6K C6Q 1_555 1_555
H6K C6K 1_555 1_555
H7K C6K 1_555 1_555
N1L C3L 1_555 1_555
C1L C2J 1_555 1_555
C2L C1H 1_555 1_555
H1L C2L 1_555 1_555
C3L H2L 1_555 1_555
C4L N1L 1_555 1_555
H3L C4L 1_555 1_555
C5L C3L 1_555 1_555
H4L C5L 1_555 1_555
H5L C5L 1_555 1_555
C6L C5L 1_555 1_555
H6L C6L 1_555 1_555
H7L C6L 1_555 1_555
N1M C3M 1_555 1_555
C1M C2M 1_555 1_555
C2M H1M 1_555 1_555
C3M C3P 1_555 1_555
H2M C3M 1_555 1_555
C4M N1M 1_555 1_555
H3M C4M 1_555 1_555
C5M C3M 1_555 1_555
H4M C5M 1_555 1_555
H5M C5M 1_555 1_555
C6M C6P 1_555 1_555
H6M C6M 1_555 1_555
H7M C6M 1_555 1_555
N1N C3N 1_555 1_555
C1N C2M 1_555 1_555
C2N C1N 1_555 1_555
H1N C2N 1_555 1_555
C3N C3L 1_555 1_555
H2N C3N 1_555 1_555
C4N N1N 1_555 1_555
H3N C4N 1_555 1_555
C5N C3N 1_555 1_555
H4N C5N 1_555 1_555
H5N C5N 1_555 1_555
C6N C6L 1_555 1_555
H6N C6N 1_555 1_555
H7N C6N 1_555 1_555
N1O C3O 1_555 1_555
C1O C2O 1_555 1_555
C2O C1K 1_555 1_555
H1O C2O 1_555 1_555
C3O C3J 1_555 1_555
H2O C3O 1_555 1_555
C4O N1O 1_555 1_555
H3O C4O 1_555 1_555
C5O C3O 1_555 1_555
H4O C5O 1_555 1_555
H5O C5O 1_555 1_555
C6O C6J 1_555 1_555
H6O C6O 1_555 1_555
H7O C6O 1_555 1_555
N1B C3B 1_555 1_555
C1B C2N 1_555 1_555
C2B C1M 1_555 1_555
H1B C2B 1_555 1_555
C3B H2B 1_555 1_555
C4B N1B 1_555 1_555
H3B C4B 1_555 1_555
C5B C3B 1_555 1_555
H4B C5B 1_555 1_555
H5B C5B 1_555 1_555
C6B C5B 1_555 1_555
H6B C6B 1_555 1_555
H7B C6B 1_555 1_555
N1E C3E 1_555 1_555
C1E C2K 1_555 1_555
C2E C1O 1_555 1_555
H1E C2E 1_555 1_555
C3E C3B 1_555 1_555
H2E C3E 1_555 1_555
C4E N1E 1_555 1_555
H3E C4E 1_555 1_555
C5E C3E 1_555 1_555
H4E C5E 1_555 1_555
H5E C5E 1_555 1_555
C6E C6B 1_555 1_555
H6E C6E 1_555 1_555
H7E C6E 1_555 1_555
C1 C4 1_555 1_555
C1H C4H 1_555 1_555
C5H C6H 1_555 1_555
C1P C4P 1_555 1_555
C1Q C2Q 1_555 1_555
C1Q C4Q 1_555 1_555
C1J C4J 1_555 1_555
C1K C4K 1_555 1_555
C5K C6K 1_555 1_555
C1L C2L 1_555 1_555
C1L C4L 1_555 1_555
C1M C4M 1_555 1_555
C5M C6M 1_555 1_555
C1N C4N 1_555 1_555
C5N C6N 1_555 1_555
C1O C4O 1_555 1_555
C5O C6O 1_555 1_555
C1B C2B 1_555 1_555
C1B C4B 1_555 1_555
C1E C2E 1_555 1_555
C1E C4E 1_555 1_555
C5E C6E 1_555 1_555

#END
