
#######################################################################
#
#                 Cambridge Crystallographic Data Centre
#                                CCDC 
#
#######################################################################
#
# If this CIF has been generated from an entry in the Cambridge 
# Structural Database, then it will include bibliographic, chemical, 
# crystal, experimental, refinement or atomic coordinate data resulting 
# from the CCDC's data processing and validation procedures.
#
#######################################################################

data_NOLTIT
_chemical_formula_moiety         'C18 H14 B1 F2 N1 O2'
_chemical_name_systematic        
difluoro(1-(4-methoxyphenyl)-2-(quinolin-2-yl)ethenolato)borate
_symmetry_cell_setting           monoclinic
_symmetry_space_group_name_H-M   'P 21'
_symmetry_Int_Tables_number      4
_space_group_name_Hall           'P 2yb'
loop_
_symmetry_equiv_pos_site_id
_symmetry_equiv_pos_as_xyz
1 x,y,z
2 -x,1/2+y,-z
_cell_length_a                   8.33240(10)
_cell_length_b                   12.3542(2)
_cell_length_c                   14.6062(2)
_cell_angle_alpha                90
_cell_angle_beta                 103.868(2)
_cell_angle_gamma                90
_cell_volume                     1459.74
_exptl_crystal_colour            yellow
_exptl_crystal_description       plate
_cell_formula_units_Z            4
loop_
_atom_site_label
_atom_site_type_symbol
_atom_site_fract_x
_atom_site_fract_y
_atom_site_fract_z
F1 F 0.47069(10) 0.87184(7) 0.39744(6)
F2 F 0.65008(10) 0.95477(7) 0.51964(6)
O1 O 0.44341(12) 0.84702(8) 0.55067(7)
O2 O -0.10601(12) 0.75165(9) 0.77183(7)
N1 N 0.68095(14) 0.76242(9) 0.49876(8)
B1 B 0.55814(19) 0.86189(13) 0.49108(11)
C1 C 0.65962(17) 0.67430(11) 0.54998(9)
C2 C 0.77008(17) 0.58483(11) 0.55879(10)
H1 H 0.7520 0.5223 0.5928
C3 C 0.90073(16) 0.58844(12) 0.51887(10)
H2 H 0.9768 0.5299 0.5276
C4 C 1.05747(18) 0.68451(13) 0.41996(10)
H3 H 1.1362 0.6275 0.4290
C5 C 1.07448(18) 0.77081(13) 0.36420(10)
H4 H 1.1649 0.7741 0.3352
C6 C 0.95666(17) 0.85444(13) 0.35039(10)
H5 H 0.9664 0.9132 0.3101
C7 C 0.82739(17) 0.85301(12) 0.39404(10)
H6 H 0.7500 0.9109 0.3845
C8 C 0.81002(17) 0.76555(11) 0.45291(9)
C9 C 0.92492(17) 0.67922(12) 0.46397(9)
C10 C 0.52732(16) 0.67040(11) 0.59552(10)
H7 H 0.5101 0.6059 0.6273
C11 C 0.42405(17) 0.75607(11) 0.59520(9)
C12 C 0.28815(16) 0.75743(12) 0.64312(9)
C13 C 0.18120(17) 0.84588(12) 0.63269(10)
H8 H 0.2003 0.9062 0.5963
C14 C 0.04735(17) 0.84810(11) 0.67418(10)
H9 H -0.0248 0.9087 0.6657
C15 C 0.02061(16) 0.76010(12) 0.72841(10)
C16 C 0.12767(17) 0.67136(12) 0.74041(10)
H10 H 0.1095 0.6117 0.7777
C17 C 0.25939(17) 0.66986(12) 0.69854(10)
H11 H 0.3314 0.6091 0.7072
C18 C -0.21460(17) 0.84251(12) 0.76582(10)
H12 H -0.2997 0.8264 0.8000
H13 H -0.2673 0.8573 0.6995
H14 H -0.1512 0.9061 0.7939
F3 F 0.80232(10) 0.83222(7) 1.01091(7)
F4 F 0.97284(10) 0.91369(8) 1.13682(6)
O3 O 1.00864(12) 0.94491(8) 0.98675(7)
O4 O 1.54335(13) 1.02037(9) 0.75778(7)
N2 N 0.76182(14) 1.02315(9) 1.03442(8)
B2 B 0.88945(18) 0.92588(13) 1.04305(11)
C19 C 0.77897(16) 1.11064(11) 0.98177(9)
C20 C 0.66249(17) 1.19642(12) 0.96984(10)
H15 H 0.6764 1.2579 0.9334
C21 C 0.53210(17) 1.19173(12) 1.00962(10)
H16 H 0.4529 1.2485 0.9993
C22 C 0.38054(16) 1.09569(13) 1.11117(10)
H17 H 0.2999 1.1516 1.1015
C23 C 0.36670(17) 1.00935(14) 1.16813(10)
H18 H 0.2774 1.0054 1.1980
C24 C 0.48647(17) 0.92707(13) 1.18161(10)
H19 H 0.4779 0.8680 1.2218
C25 C 0.61592(18) 0.92982(12) 1.13815(10)
H20 H 0.6944 0.8727 1.1478
C26 C 0.63171(16) 1.01769(12) 1.07927(9)
C27 C 0.51339(17) 1.10212(12) 1.06684(10)
C28 C 0.91114(17) 1.11735(12) 0.93631(10)
H21 H 0.9243 1.1817 0.9033
C29 C 1.01977(16) 1.03446(11) 0.93851(9)
C30 C 1.15255(16) 1.03355(11) 0.88871(9)
C31 C 1.26162(17) 0.94563(12) 0.89948(10)
H22 H 1.2471 0.8864 0.9382
C32 C 1.38945(18) 0.94358(12) 0.85483(10)
H23 H 1.4627 0.8835 0.8632
C33 C 1.41164(16) 1.02937(11) 0.79740(9)
C34 C 1.30328(17) 1.11696(12) 0.78395(10)
H24 H 1.3164 1.1749 0.7435
C35 C 1.17614(16) 1.11873(11) 0.83018(9)
H25 H 1.1034 1.1791 0.8219
C36 C 1.5668(2) 1.10248(13) 0.69448(12)
H26 H 1.6652 1.0860 0.6714
H27 H 1.5815 1.1724 0.7272
H28 H 1.4698 1.1059 0.6411
loop_
_geom_bond_atom_site_label_1
_geom_bond_atom_site_label_2
_geom_bond_site_symmetry_1
_geom_bond_site_symmetry_2
F1 B1 1_555 1_555
F2 B1 1_555 1_555
O1 B1 1_555 1_555
O2 C15 1_555 1_555
N1 B1 1_555 1_555
C1 N1 1_555 1_555
C2 C1 1_555 1_555
H1 C2 1_555 1_555
C3 C2 1_555 1_555
H2 C3 1_555 1_555
C4 H3 1_555 1_555
C5 C4 1_555 1_555
H4 C5 1_555 1_555
C6 C5 1_555 1_555
H5 C6 1_555 1_555
C7 C6 1_555 1_555
H6 C7 1_555 1_555
C8 N1 1_555 1_555
C9 C3 1_555 1_555
C10 C1 1_555 1_555
H7 C10 1_555 1_555
C11 O1 1_555 1_555
C12 C11 1_555 1_555
C13 C12 1_555 1_555
H8 C13 1_555 1_555
C14 C13 1_555 1_555
H9 C14 1_555 1_555
C15 C14 1_555 1_555
C16 C15 1_555 1_555
H10 C16 1_555 1_555
C17 C12 1_555 1_555
H11 C17 1_555 1_555
C18 O2 1_555 1_555
H12 C18 1_555 1_555
H13 C18 1_555 1_555
H14 C18 1_555 1_555
F3 B2 1_555 1_555
F4 B2 1_555 1_555
O3 B2 1_555 1_555
O4 C33 1_555 1_555
N2 B2 1_555 1_555
C19 N2 1_555 1_555
C20 C19 1_555 1_555
H15 C20 1_555 1_555
C21 C20 1_555 1_555
H16 C21 1_555 1_555
C22 H17 1_555 1_555
C23 C22 1_555 1_555
H18 C23 1_555 1_555
C24 C23 1_555 1_555
H19 C24 1_555 1_555
C25 C24 1_555 1_555
H20 C25 1_555 1_555
C26 N2 1_555 1_555
C27 C21 1_555 1_555
C28 C19 1_555 1_555
H21 C28 1_555 1_555
C29 O3 1_555 1_555
C30 C29 1_555 1_555
C31 C30 1_555 1_555
H22 C31 1_555 1_555
C32 C31 1_555 1_555
H23 C32 1_555 1_555
C33 C32 1_555 1_555
C34 C33 1_555 1_555
H24 C34 1_555 1_555
C35 C30 1_555 1_555
H25 C35 1_555 1_555
C36 O4 1_555 1_555
H26 C36 1_555 1_555
H27 C36 1_555 1_555
H28 C36 1_555 1_555
C4 C9 1_555 1_555
C7 C8 1_555 1_555
C8 C9 1_555 1_555
C10 C11 1_555 1_555
C16 C17 1_555 1_555
C22 C27 1_555 1_555
C25 C26 1_555 1_555
C26 C27 1_555 1_555
C28 C29 1_555 1_555
C34 C35 1_555 1_555

#END
