
#######################################################################
#
#                 Cambridge Crystallographic Data Centre
#                                CCDC 
#
#######################################################################
#
# If this CIF has been generated from an entry in the Cambridge 
# Structural Database, then it will include bibliographic, chemical, 
# crystal, experimental, refinement or atomic coordinate data resulting 
# from the CCDC's data processing and validation procedures.
#
#######################################################################

data_NOLTIS
_chemical_formula_moiety         'C28 H22 N6'
_chemical_name_systematic        
1,5-bis(3-(2-Pyridyl)-1-pyrazolylmethyl)naphthalene
_symmetry_cell_setting           triclinic
_symmetry_space_group_name_H-M   'P -1'
_symmetry_Int_Tables_number      2
_space_group_name_Hall           '-P 1'
loop_
_symmetry_equiv_pos_site_id
_symmetry_equiv_pos_as_xyz
1 x,y,z
2 -x,-y,-z
_cell_length_a                   9.8274(12)
_cell_length_b                   10.3168(12)
_cell_length_c                   17.424(2)
_cell_angle_alpha                82.862(9)
_cell_angle_beta                 77.587(8)
_cell_angle_gamma                75.293(8)
_cell_volume                     1664.2
_exptl_crystal_colour            colorless
_exptl_crystal_description       block
_cell_formula_units_Z            3
_exptl_crystal_preparation       fluorescent
loop_
_atom_site_label
_atom_site_type_symbol
_atom_site_fract_x
_atom_site_fract_y
_atom_site_fract_z
N1 N 0.6967(4) -0.1821(3) 0.4737(2)
C1 C 0.6810(4) -0.0764(4) 0.4201(2)
C2 C 0.6942(5) 0.0487(4) 0.4337(2)
H1 H 0.6828 0.1197 0.3954
C3 C 0.7242(5) 0.0670(5) 0.5042(3)
H2 H 0.7310 0.1510 0.5149
C4 C 0.7441(5) -0.0404(6) 0.5586(3)
H3 H 0.7683 -0.0318 0.6062
C5 C 0.7277(5) -0.1594(6) 0.5416(3)
H4 H 0.7387 -0.2308 0.5797
N2 N 0.6128(3) -0.0727(3) 0.22862(18)
N3 N 0.6559(3) -0.0170(3) 0.28304(18)
C6 C 0.6450(4) -0.1037(4) 0.3469(2)
C7 C 0.5950(5) -0.2117(4) 0.3327(2)
H5 H 0.5784 -0.2843 0.3677
C8 C 0.5756(5) -0.1884(4) 0.2569(3)
H6 H 0.5427 -0.2426 0.2297
C9 C 0.6031(4) -0.0026(4) 0.1517(2)
H7 H 0.5992 -0.0659 0.1159
H8 H 0.6895 0.0297 0.1317
N4 N 0.1159(4) 0.7017(3) -0.31495(19)
C10 C 0.1238(4) 0.5971(4) -0.2613(2)
C11 C 0.0939(5) 0.4786(4) -0.2735(3)
H9 H 0.0993 0.4076 -0.2349
C12 C 0.0559(5) 0.4663(5) -0.3435(3)
H10 H 0.0369 0.3866 -0.3531
C13 C 0.0465(5) 0.5727(6) -0.3982(3)
H11 H 0.0197 0.5681 -0.4457
C14 C 0.0773(5) 0.6857(5) -0.3816(3)
H12 H 0.0712 0.7577 -0.4195
N5 N 0.1959(3) 0.5793(3) -0.06978(18)
N6 N 0.1464(3) 0.5309(3) -0.12401(18)
C15 C 0.1638(4) 0.6162(4) -0.1882(2)
C16 C 0.2239(4) 0.7178(4) -0.1743(2)
H13 H 0.2456 0.7889 -0.2091
C17 C 0.2440(4) 0.6896(4) -0.0981(2)
H14 H 0.2838 0.7381 -0.0710
C18 C 0.2035(4) 0.5078(4) 0.0071(2)
H15 H 0.1150 0.4790 0.0271
H16 H 0.2107 0.5694 0.0430
C19 C 0.4752(4) 0.1143(4) 0.1519(2)
C20 C 0.3790(4) 0.1505(4) 0.2191(2)
H17 H 0.3904 0.1004 0.2664
C21 C 0.2635(4) 0.2621(4) 0.2177(2)
H18 H 0.1986 0.2843 0.2642
C22 C 0.2442(4) 0.3387(4) 0.1498(2)
H19 H 0.1665 0.4123 0.1502
C23 C 0.3421(4) 0.3065(4) 0.0786(2)
C24 C 0.4567(4) 0.1918(4) 0.0790(2)
C25 C 0.3266(4) 0.3877(4) 0.0070(2)
C26 C 0.4267(4) 0.3546(4) -0.0602(2)
H20 H 0.4191 0.4090 -0.1065
C27 C 0.5395(4) 0.2407(4) -0.0602(2)
H21 H 0.6056 0.2199 -0.1065
C28 C 0.5538(4) 0.1596(4) 0.0071(2)
H22 H 0.6278 0.0826 0.0059
N7 N 1.2625(4) 0.6246(3) 0.4185(2)
C29 C 1.2771(4) 0.6486(4) 0.3403(2)
C30 C 1.3726(5) 0.5604(4) 0.2894(3)
H23 H 1.3784 0.5768 0.2353
C31 C 1.4598(5) 0.4472(5) 0.3202(3)
H24 H 1.5273 0.3882 0.2869
C32 C 1.4451(5) 0.4235(5) 0.3999(3)
H25 H 1.5017 0.3479 0.4222
C33 C 1.3472(6) 0.5118(5) 0.4451(3)
H26 H 1.3368 0.4936 0.4994
N8 N 1.1154(4) 0.9361(3) 0.23208(19)
N9 N 1.2159(4) 0.8212(3) 0.23671(18)
C34 C 1.1871(4) 0.7743(4) 0.3119(2)
C35 C 1.0657(5) 0.8571(4) 0.3540(2)
H27 H 1.0235 0.8448 0.4067
C36 C 1.0225(5) 0.9599(4) 0.3008(2)
H28 H 0.9441 1.0325 0.3102
C37 C 1.1089(5) 1.0152(4) 0.1569(2)
H29 H 1.2053 1.0203 0.1308
H30 H 1.0540 1.1059 0.1669
C38 C 1.0421(4) 0.9581(4) 0.1024(2)
C39 C 0.9894(4) 0.8455(4) 0.1240(2)
H31 H 0.9946 0.8024 0.1738
C40 C 1.0306(4) 1.0265(4) 0.0263(2)
C41 C 1.0729(4) 1.2068(4) -0.0725(2)
H32 H 1.1069 1.2841 -0.0882
C42 C 1.0830(4) 1.1436(4) 0.0005(2)
H33 H 1.1251 1.1781 0.0339
N7A N 0.7375(4) 1.3754(3) -0.4185(2)
C29A C 0.7229(4) 1.3514(4) -0.3403(2)
C30A C 0.6274(5) 1.4396(4) -0.2894(3)
H23A H 0.6216 1.4232 -0.2353
C31A C 0.5402(5) 1.5528(5) -0.3202(3)
H24A H 0.4727 1.6118 -0.2869
C32A C 0.5549(5) 1.5765(5) -0.3999(3)
H25A H 0.4983 1.6521 -0.4222
C33A C 0.6528(6) 1.4882(5) -0.4451(3)
H26A H 0.6632 1.5064 -0.4994
N8A N 0.8846(4) 1.0639(3) -0.23208(19)
N9A N 0.7841(4) 1.1788(3) -0.23671(18)
C34A C 0.8129(4) 1.2257(4) -0.3119(2)
C35A C 0.9343(5) 1.1429(4) -0.3540(2)
H27A H 0.9765 1.1552 -0.4067
C36A C 0.9775(5) 1.0401(4) -0.3008(2)
H28A H 1.0559 0.9675 -0.3102
C37A C 0.8911(5) 0.9848(4) -0.1569(2)
H29A H 0.7947 0.9797 -0.1308
H30A H 0.9460 0.8941 -0.1669
C38A C 0.9579(4) 1.0419(4) -0.1024(2)
C39A C 1.0106(4) 1.1545(4) -0.1240(2)
H31A H 1.0054 1.1976 -0.1738
C40A C 0.9694(4) 0.9735(4) -0.0263(2)
C41A C 0.9271(4) 0.7932(4) 0.0725(2)
H32A H 0.8931 0.7159 0.0882
C42A C 0.9170(4) 0.8564(4) -0.0005(2)
H33A H 0.8749 0.8219 -0.0339
loop_
_geom_bond_atom_site_label_1
_geom_bond_atom_site_label_2
_geom_bond_site_symmetry_1
_geom_bond_site_symmetry_2
N1 C1 1_555 1_555
C1 C2 1_555 1_555
C2 H1 1_555 1_555
C3 C2 1_555 1_555
H2 C3 1_555 1_555
C4 C3 1_555 1_555
H3 C4 1_555 1_555
C5 N1 1_555 1_555
H4 C5 1_555 1_555
N2 N3 1_555 1_555
N3 C6 1_555 1_555
C6 C1 1_555 1_555
C7 C6 1_555 1_555
H5 C7 1_555 1_555
C8 N2 1_555 1_555
H6 C8 1_555 1_555
C9 N2 1_555 1_555
H7 C9 1_555 1_555
H8 C9 1_555 1_555
N4 C10 1_555 1_555
C10 C11 1_555 1_555
C11 H9 1_555 1_555
C12 C11 1_555 1_555
H10 C12 1_555 1_555
C13 C12 1_555 1_555
H11 C13 1_555 1_555
C14 N4 1_555 1_555
H12 C14 1_555 1_555
N5 N6 1_555 1_555
N6 C15 1_555 1_555
C15 C10 1_555 1_555
C16 C15 1_555 1_555
H13 C16 1_555 1_555
C17 N5 1_555 1_555
H14 C17 1_555 1_555
C18 N5 1_555 1_555
H15 C18 1_555 1_555
H16 C18 1_555 1_555
C19 C9 1_555 1_555
C20 C19 1_555 1_555
H17 C20 1_555 1_555
C21 C20 1_555 1_555
H18 C21 1_555 1_555
C22 C21 1_555 1_555
H19 C22 1_555 1_555
C23 C22 1_555 1_555
C24 C19 1_555 1_555
C25 C18 1_555 1_555
C26 C25 1_555 1_555
H20 C26 1_555 1_555
C27 C26 1_555 1_555
H21 C27 1_555 1_555
C28 C24 1_555 1_555
H22 C28 1_555 1_555
N7 C29 1_555 1_555
C29 C30 1_555 1_555
C30 H23 1_555 1_555
C31 C30 1_555 1_555
H24 C31 1_555 1_555
C32 C31 1_555 1_555
H25 C32 1_555 1_555
C33 N7 1_555 1_555
H26 C33 1_555 1_555
N8 N9 1_555 1_555
N9 C34 1_555 1_555
C34 C29 1_555 1_555
C35 C34 1_555 1_555
H27 C35 1_555 1_555
C36 N8 1_555 1_555
H28 C36 1_555 1_555
C37 N8 1_555 1_555
H29 C37 1_555 1_555
H30 C37 1_555 1_555
C38 C37 1_555 1_555
C39 C38 1_555 1_555
H31 C39 1_555 1_555
C40 C38 1_555 1_555
C41 H32 1_555 1_555
C42 C40 1_555 1_555
H33 C42 1_555 1_555
N7A C29A 1_555 1_555
C29A C30A 1_555 1_555
C30A H23A 1_555 1_555
C31A C30A 1_555 1_555
H24A C31A 1_555 1_555
C32A C31A 1_555 1_555
H25A C32A 1_555 1_555
C33A N7A 1_555 1_555
H26A C33A 1_555 1_555
N8A N9A 1_555 1_555
N9A C34A 1_555 1_555
C34A C29A 1_555 1_555
C35A C34A 1_555 1_555
H27A C35A 1_555 1_555
C36A N8A 1_555 1_555
H28A C36A 1_555 1_555
C37A N8A 1_555 1_555
H29A C37A 1_555 1_555
H30A C37A 1_555 1_555
C38A C37A 1_555 1_555
C39A C41 1_555 1_555
H31A C39A 1_555 1_555
C40A C40 1_555 1_555
C41A C39 1_555 1_555
H32A C41A 1_555 1_555
C42A C40A 1_555 1_555
H33A C42A 1_555 1_555
C4 C5 1_555 1_555
C7 C8 1_555 1_555
C13 C14 1_555 1_555
C16 C17 1_555 1_555
C23 C24 1_555 1_555
C23 C25 1_555 1_555
C27 C28 1_555 1_555
C32 C33 1_555 1_555
C35 C36 1_555 1_555
C41 C42 1_555 1_555
C32A C33A 1_555 1_555
C35A C36A 1_555 1_555
C38A C39A 1_555 1_555
C38A C40A 1_555 1_555
C41A C42A 1_555 1_555

#END
