
#######################################################################
#
#                 Cambridge Crystallographic Data Centre
#                                CCDC 
#
#######################################################################
#
# If this CIF has been generated from an entry in the Cambridge 
# Structural Database, then it will include bibliographic, chemical, 
# crystal, experimental, refinement or atomic coordinate data resulting 
# from the CCDC's data processing and validation procedures.
#
#######################################################################

data_NOLTOY
_chemical_formula_moiety         'C32 H24 N6'
_chemical_name_systematic        
9,10-bis(3-(2-Pyridyl)-1-pyrazolylmethyl)anthracene
_symmetry_cell_setting           orthorhombic
_symmetry_space_group_name_H-M   'P b c a'
_symmetry_Int_Tables_number      61
_space_group_name_Hall           '-P 2ac 2ab'
loop_
_symmetry_equiv_pos_site_id
_symmetry_equiv_pos_as_xyz
1 x,y,z
2 1/2-x,-y,1/2+z
3 -x,1/2+y,1/2-z
4 1/2+x,1/2-y,-z
5 -x,-y,-z
6 1/2+x,y,1/2-z
7 x,1/2-y,1/2+z
8 1/2-x,1/2+y,z
_cell_length_a                   10.7709(15)
_cell_length_b                   11.1673(18)
_cell_length_c                   19.954(4)
_cell_angle_alpha                90
_cell_angle_beta                 90
_cell_angle_gamma                90
_cell_volume                     2400.1
_exptl_crystal_colour            colorless
_exptl_crystal_description       plate
_cell_formula_units_Z            4
loop_
_atom_site_label
_atom_site_type_symbol
_atom_site_fract_x
_atom_site_fract_y
_atom_site_fract_z
N1 N -0.06431(13) 0.75329(13) 0.19946(7)
C1 C 0.03434(15) 0.80611(14) 0.17029(9)
C2 C 0.07905(16) 0.91706(15) 0.19124(9)
H1 H 0.1478 0.9531 0.1693
C3 C 0.02186(16) 0.97393(16) 0.24447(10)
H2 H 0.0509 1.0494 0.2598
C4 C -0.07869(16) 0.91884(16) 0.27506(9)
H3 H -0.1192 0.9553 0.3121
C5 C -0.11815(16) 0.81100(15) 0.25071(10)
H4 H -0.1881 0.7746 0.2714
N2 N 0.22200(12) 0.69086(12) 0.03905(7)
N3 N 0.19576(12) 0.77684(12) 0.08503(7)
C6 C 0.09167(14) 0.73759(15) 0.11537(9)
C7 C 0.05278(16) 0.62751(15) 0.08827(9)
H5 H -0.0178 0.5817 0.1009
C8 C 0.13830(15) 0.60053(14) 0.03991(9)
H6 H 0.1388 0.5314 0.0122
C9 C 0.32925(15) 0.70533(14) -0.00564(9)
H7 H 0.3751 0.7787 0.0071
H8 H 0.2995 0.7155 -0.0522
C10 C 0.30993(15) 0.50245(15) -0.09967(9)
H9 H 0.2528 0.5671 -0.1021
C11 C 0.29946(16) 0.41089(16) -0.14403(9)
H10 H 0.2348 0.4116 -0.1764
C12 C 0.38470(16) 0.31403(16) -0.14230(9)
H11 H 0.3775 0.2507 -0.1739
C13 C 0.47626(16) 0.31150(15) -0.09580(9)
H12 H 0.5329 0.2463 -0.0957
C14 C 0.49011(15) 0.40436(14) -0.04670(9)
C15 C 0.40482(15) 0.50439(15) -0.04925(8)
C16 C 0.41683(15) 0.59885(14) -0.00265(9)
N1D N 1.06431(13) 0.24671(13) -0.19946(7)
C1D C 0.96566(15) 0.19389(14) -0.17029(9)
C2D C 0.92095(16) 0.08294(15) -0.19124(9)
H1D H 0.8522 0.0469 -0.1693
C3D C 0.97814(16) 0.02607(16) -0.24447(10)
H2D H 0.9491 -0.0494 -0.2598
C4D C 1.07869(16) 0.08116(16) -0.27506(9)
H3D H 1.1192 0.0447 -0.3121
C5D C 1.11815(16) 0.18900(15) -0.25071(10)
H4D H 1.1881 0.2254 -0.2714
N2D N 0.77800(12) 0.30914(12) -0.03905(7)
N3D N 0.80424(12) 0.22316(12) -0.08503(7)
C6D C 0.90833(14) 0.26241(15) -0.11537(9)
C7D C 0.94722(16) 0.37249(15) -0.08827(9)
H5D H 1.0178 0.4183 -0.1009
C8D C 0.86170(15) 0.39947(14) -0.03991(9)
H6D H 0.8612 0.4686 -0.0122
C9D C 0.67075(15) 0.29467(14) 0.00564(9)
H7D H 0.6249 0.2213 -0.0071
H8D H 0.7005 0.2845 0.0522
C10D C 0.69007(15) 0.49755(15) 0.09967(9)
H9D H 0.7472 0.4329 0.1021
C11D C 0.70054(16) 0.58911(16) 0.14403(9)
H10D H 0.7652 0.5884 0.1764
C12D C 0.61530(16) 0.68597(16) 0.14230(9)
H11D H 0.6225 0.7493 0.1739
C13D C 0.52374(16) 0.68850(15) 0.09580(9)
H12D H 0.4671 0.7537 0.0957
C14D C 0.50989(15) 0.59564(14) 0.04670(9)
C15D C 0.59518(15) 0.49561(15) 0.04925(8)
C16D C 0.58317(15) 0.40115(14) 0.00265(9)
loop_
_geom_bond_atom_site_label_1
_geom_bond_atom_site_label_2
_geom_bond_site_symmetry_1
_geom_bond_site_symmetry_2
N1 C1 1_555 1_555
C1 C2 1_555 1_555
C2 H1 1_555 1_555
C3 C2 1_555 1_555
H2 C3 1_555 1_555
C4 C3 1_555 1_555
H3 C4 1_555 1_555
C5 N1 1_555 1_555
H4 C5 1_555 1_555
N2 N3 1_555 1_555
N3 C6 1_555 1_555
C6 C1 1_555 1_555
C7 C6 1_555 1_555
H5 C7 1_555 1_555
C8 N2 1_555 1_555
H6 C8 1_555 1_555
C9 N2 1_555 1_555
H7 C9 1_555 1_555
H8 C9 1_555 1_555
C10 H9 1_555 1_555
C11 C10 1_555 1_555
H10 C11 1_555 1_555
C12 C11 1_555 1_555
H11 C12 1_555 1_555
C13 C12 1_555 1_555
H12 C13 1_555 1_555
C14 C13 1_555 1_555
C15 C10 1_555 1_555
C16 C9 1_555 1_555
N1D C1D 1_555 1_555
C1D C2D 1_555 1_555
C2D H1D 1_555 1_555
C3D C2D 1_555 1_555
H2D C3D 1_555 1_555
C4D C3D 1_555 1_555
H3D C4D 1_555 1_555
C5D N1D 1_555 1_555
H4D C5D 1_555 1_555
N2D N3D 1_555 1_555
N3D C6D 1_555 1_555
C6D C1D 1_555 1_555
C7D C6D 1_555 1_555
H5D C7D 1_555 1_555
C8D N2D 1_555 1_555
H6D C8D 1_555 1_555
C9D N2D 1_555 1_555
H7D C9D 1_555 1_555
H8D C9D 1_555 1_555
C10D H9D 1_555 1_555
C11D C10D 1_555 1_555
H10D C11D 1_555 1_555
C12D C11D 1_555 1_555
H11D C12D 1_555 1_555
C13D C12D 1_555 1_555
H12D C13D 1_555 1_555
C14D C16 1_555 1_555
C15D C10D 1_555 1_555
C16D C14 1_555 1_555
C4 C5 1_555 1_555
C7 C8 1_555 1_555
C14 C15 1_555 1_555
C15 C16 1_555 1_555
C4D C5D 1_555 1_555
C7D C8D 1_555 1_555
C9D C16D 1_555 1_555
C13D C14D 1_555 1_555
C14D C15D 1_555 1_555
C15D C16D 1_555 1_555

#END
