
#######################################################################
#
#                 Cambridge Crystallographic Data Centre
#                                CCDC 
#
#######################################################################
#
# If this CIF has been generated from an entry in the Cambridge 
# Structural Database, then it will include bibliographic, chemical, 
# crystal, experimental, refinement or atomic coordinate data resulting 
# from the CCDC's data processing and validation procedures.
#
#######################################################################

data_NOLWIV
_chemical_formula_moiety         'C54 H72 N4 P2'
_chemical_name_systematic        
trans-P,P'-bis(1,3-bis(2,6-Diisopropylphenyl)imidazol-2-ylidene)diphosphorus
_symmetry_cell_setting           triclinic
_symmetry_space_group_name_H-M   'P -1'
_symmetry_Int_Tables_number      2
_space_group_name_Hall           '-P 1'
loop_
_symmetry_equiv_pos_site_id
_symmetry_equiv_pos_as_xyz
1 x,y,z
2 -x,-y,-z
_cell_length_a                   10.9170(16)
_cell_length_b                   10.9711(16)
_cell_length_c                   12.6490(19)
_cell_angle_alpha                96.687(2)
_cell_angle_beta                 112.794(2)
_cell_angle_gamma                108.936(2)
_cell_volume                     1269.12
_exptl_crystal_colour            red
_exptl_crystal_description       plate
_chemical_melting_point          '208 deg.C (dec.)'
_cell_formula_units_Z            1
_chemical_properties_physical    'air- and moisture-sensitive'
_exptl_crystal_recrystallization_method THF
loop_
_atom_site_label
_atom_site_type_symbol
_atom_site_fract_x
_atom_site_fract_y
_atom_site_fract_z
P1 P 0.56468(6) 0.54164(5) 0.09762(4)
N1 N 0.67753(16) 0.79752(14) 0.23535(12)
N2 N 0.55625(17) 0.79490(14) 0.05142(13)
C1 C 0.59464(18) 0.71135(16) 0.12010(14)
C2 C 0.6866(2) 0.92618(18) 0.23571(18)
H1 H 0.7351 1.0001 0.3024
C3 C 0.6135(3) 0.92510(19) 0.12368(18)
H2 H 0.6025 0.9986 0.0978
C4 C 0.4697(2) 0.75748(18) -0.07589(16)
C5 C 0.3198(3) 0.7091(2) -0.1216(2)
C6 C 0.2404(3) 0.6694(3) -0.2460(2)
H3 H 0.1396 0.6361 -0.2807
C7 C 0.3076(5) 0.6784(4) -0.3173(3)
H4 H 0.2524 0.6478 -0.3998
C8 C 0.4541(5) 0.7316(3) -0.2693(3)
H5 H 0.4977 0.7391 -0.3198
C9 C 0.5415(3) 0.7752(2) -0.1468(2)
C10 C 0.7044(4) 0.8386(3) -0.0943(3)
H6 H 0.7406 0.8955 -0.0139
C11 C 0.7581(6) 0.9287(5) -0.1630(4)
H7 H 0.8623 0.9664 -0.1256
H8 H 0.7246 0.9996 -0.1634
H9 H 0.7213 0.8771 -0.2436
C12 C 0.7692(4) 0.7381(4) -0.0809(5)
H10 H 0.8729 0.7831 -0.0466
H11 H 0.7330 0.6779 -0.1578
H12 H 0.7434 0.6882 -0.0297
C13 C 0.2467(6) 0.7187(7) -0.0436(6)
H13 H 0.3174 0.7919 0.0289
C14 C 0.2079(8) 0.5940(9) -0.0069(6)
H14 H 0.1623 0.6016 0.0434
H15 H 0.2942 0.5802 0.0361
H16 H 0.1421 0.5194 -0.0765
C15 C 0.1147(6) 0.7505(6) -0.1002(6)
H17 H 0.1412 0.8308 -0.1245
H18 H 0.0788 0.7635 -0.0433
H19 H 0.0404 0.6775 -0.1686
C16 C 0.7310(2) 0.75548(17) 0.34136(15)
C17 C 0.6429(2) 0.72036(19) 0.39789(17)
C18 C 0.6988(3) 0.6851(3) 0.5029(2)
H20 H 0.6430 0.6617 0.5432
C19 C 0.8340(3) 0.6844(3) 0.5480(2)
H21 H 0.8694 0.6609 0.6186
C20 C 0.9180(3) 0.7178(3) 0.4903(2)
H22 H 1.0096 0.7160 0.5221
C21 C 0.8692(2) 0.7545(2) 0.38474(18)
C22 C 0.9592(11) 0.7970(10) 0.3186(11)
H23 H 0.8937 0.7648 0.2327
C23 C 1.0684(12) 0.7317(16) 0.3446(12)
H24 H 1.0170 0.6360 0.3140
H25 H 1.1274 0.7551 0.4293
H26 H 1.1291 0.7630 0.3069
C24 C 1.0353(12) 0.9474(8) 0.3518(10)
H27 H 0.9650 0.9847 0.3199
H28 H 1.1034 0.9710 0.3194
H29 H 1.0860 0.9823 0.4371
C25 C 0.4938(2) 0.7235(2) 0.3496(2)
H30 H 0.4645 0.7264 0.2665
C26 C 0.3798(3) 0.5979(3) 0.3501(3)
H31 H 0.2871 0.6035 0.3186
H32 H 0.4072 0.5914 0.4304
H33 H 0.3737 0.5199 0.3016
C27 C 0.4962(4) 0.8485(3) 0.4185(3)
H34 H 0.4007 0.8482 0.3851
H35 H 0.5628 0.9270 0.4130
H36 H 0.5267 0.8492 0.5007
P1A P 0.43532(6) 0.45836(5) -0.09762(4)
N1A N 0.32247(16) 0.20248(14) -0.23535(12)
N2A N 0.44375(17) 0.20510(14) -0.05142(13)
C1A C 0.40536(18) 0.28865(16) -0.12010(14)
C2A C 0.3134(2) 0.07382(18) -0.23571(18)
H1A H 0.2649 -0.0001 -0.3024
C3A C 0.3865(3) 0.07490(19) -0.12368(18)
H2A H 0.3975 0.0014 -0.0978
C4A C 0.5303(2) 0.24252(18) 0.07589(16)
C5A C 0.6802(3) 0.2909(2) 0.1216(2)
C6A C 0.7596(3) 0.3306(3) 0.2460(2)
H3A H 0.8604 0.3639 0.2807
C7A C 0.6924(5) 0.3216(4) 0.3173(3)
H4A H 0.7476 0.3522 0.3998
C8A C 0.5459(5) 0.2684(3) 0.2693(3)
H5A H 0.5023 0.2609 0.3198
C9A C 0.4585(3) 0.2248(2) 0.1468(2)
C10A C 0.2956(4) 0.1614(3) 0.0943(3)
H6A H 0.2594 0.1045 0.0139
C11A C 0.2419(6) 0.0713(5) 0.1630(4)
H7A H 0.1377 0.0336 0.1256
H8A H 0.2754 0.0004 0.1634
H9A H 0.2787 0.1229 0.2436
C12A C 0.2308(4) 0.2619(4) 0.0809(5)
H10A H 0.1271 0.2169 0.0466
H11A H 0.2670 0.3221 0.1578
H12A H 0.2566 0.3118 0.0297
C13A C 0.7533(6) 0.2813(7) 0.0436(6)
H13A H 0.6826 0.2081 -0.0289
C14A C 0.7921(8) 0.4060(9) 0.0069(6)
H14A H 0.8377 0.3984 -0.0434
H15A H 0.7058 0.4198 -0.0361
H16A H 0.8579 0.4806 0.0765
C15A C 0.8853(6) 0.2495(6) 0.1002(6)
H17A H 0.8588 0.1692 0.1245
H18A H 0.9212 0.2365 0.0433
H19A H 0.9596 0.3225 0.1686
C16A C 0.2690(2) 0.24452(17) -0.34136(15)
C17A C 0.3571(2) 0.27964(19) -0.39789(17)
C18A C 0.3012(3) 0.3149(3) -0.5029(2)
H20A H 0.3570 0.3383 -0.5432
C19A C 0.1660(3) 0.3156(3) -0.5480(2)
H21A H 0.1306 0.3391 -0.6186
C20A C 0.0820(3) 0.2822(3) -0.4903(2)
H22A H -0.0096 0.2840 -0.5221
C21A C 0.1308(2) 0.2455(2) -0.38474(18)
C22A C 0.0408(11) 0.2030(10) -0.3186(11)
H23A H 0.1063 0.2352 -0.2327
C23A C -0.0684(12) 0.2683(16) -0.3446(12)
H24A H -0.0170 0.3640 -0.3140
H25A H -0.1274 0.2449 -0.4293
H26A H -0.1291 0.2370 -0.3069
C24A C -0.0353(12) 0.0526(8) -0.3518(10)
H27A H 0.0350 0.0153 -0.3199
H28A H -0.1034 0.0290 -0.3194
H29A H -0.0860 0.0177 -0.4371
C25A C 0.5062(2) 0.2765(2) -0.3496(2)
H30A H 0.5355 0.2736 -0.2665
C26A C 0.6202(3) 0.4021(3) -0.3501(3)
H31A H 0.7129 0.3965 -0.3186
H32A H 0.5928 0.4086 -0.4304
H33A H 0.6263 0.4801 -0.3016
C27A C 0.5038(4) 0.1515(3) -0.4185(3)
H34A H 0.5993 0.1518 -0.3851
H35A H 0.4372 0.0730 -0.4130
H36A H 0.4733 0.1508 -0.5007
C28? C 0.2505(14) 0.6687(10) -0.0350(13)
C29? C 0.1079(10) 0.5417(10) -0.0846(12)
C30? C 0.2300(13) 0.7942(10) 0.0170(11)
C31? C 0.968(2) 0.7887(16) 0.326(2)
C32? C 1.016(2) 0.6809(16) 0.291(2)
C33? C 1.099(3) 0.9218(16) 0.395(2)
H37? H 0.3231 0.6547 0.0322
H38? H 0.1217 0.4658 -0.1157
H39? H 0.0319 0.5540 -0.1471
H40? H 0.0815 0.5263 -0.0217
H41? H 0.3159 0.8738 0.0404
H42? H 0.2135 0.7833 0.0851
H43? H 0.1482 0.8022 -0.0430
H44? H 0.9107 0.8028 0.2507
H45? H 1.0750 0.7131 0.2519
H46? H 0.9316 0.6016 0.2370
H47? H 1.0705 0.6600 0.3608
H48? H 1.1568 0.9395 0.3528
H49? H 1.1563 0.9173 0.4729
H50? H 1.0665 0.9924 0.4020
loop_
_geom_bond_atom_site_label_1
_geom_bond_atom_site_label_2
_geom_bond_site_symmetry_1
_geom_bond_site_symmetry_2
P1 C1 1_555 1_555
N1 C1 1_555 1_555
N2 C1 1_555 1_555
C2 N1 1_555 1_555
H1 C2 1_555 1_555
C3 N2 1_555 1_555
H2 C3 1_555 1_555
C4 N2 1_555 1_555
C5 C4 1_555 1_555
C6 C5 1_555 1_555
H3 C6 1_555 1_555
C7 C6 1_555 1_555
H4 C7 1_555 1_555
C8 C7 1_555 1_555
H5 C8 1_555 1_555
C9 C4 1_555 1_555
C10 C9 1_555 1_555
H6 C10 1_555 1_555
C11 C10 1_555 1_555
H7 C11 1_555 1_555
H8 C11 1_555 1_555
H9 C11 1_555 1_555
C12 C10 1_555 1_555
H10 C12 1_555 1_555
H11 C12 1_555 1_555
H12 C12 1_555 1_555
C13 C5 1_555 1_555
H13 C13 1_555 1_555
C14 C13 1_555 1_555
H14 C14 1_555 1_555
H15 C14 1_555 1_555
H16 C14 1_555 1_555
C15 C13 1_555 1_555
H17 C15 1_555 1_555
H18 C15 1_555 1_555
H19 C15 1_555 1_555
C16 N1 1_555 1_555
C17 C16 1_555 1_555
C18 C17 1_555 1_555
H20 C18 1_555 1_555
C19 C18 1_555 1_555
H21 C19 1_555 1_555
C20 C19 1_555 1_555
H22 C20 1_555 1_555
C21 C16 1_555 1_555
C22 C21 1_555 1_555
H23 C22 1_555 1_555
C23 C22 1_555 1_555
H24 C23 1_555 1_555
H25 C23 1_555 1_555
H26 C23 1_555 1_555
C24 C22 1_555 1_555
H27 C24 1_555 1_555
H28 C24 1_555 1_555
H29 C24 1_555 1_555
C25 C17 1_555 1_555
H30 C25 1_555 1_555
C26 C25 1_555 1_555
H31 C26 1_555 1_555
H32 C26 1_555 1_555
H33 C26 1_555 1_555
C27 C25 1_555 1_555
H34 C27 1_555 1_555
H35 C27 1_555 1_555
H36 C27 1_555 1_555
P1A P1 1_555 1_555
N1A C1A 1_555 1_555
N2A C1A 1_555 1_555
C1A P1A 1_555 1_555
C2A N1A 1_555 1_555
H1A C2A 1_555 1_555
C3A N2A 1_555 1_555
H2A C3A 1_555 1_555
C4A N2A 1_555 1_555
C5A C4A 1_555 1_555
C6A C5A 1_555 1_555
H3A C6A 1_555 1_555
C7A C6A 1_555 1_555
H4A C7A 1_555 1_555
C8A C7A 1_555 1_555
H5A C8A 1_555 1_555
C9A C4A 1_555 1_555
C10A C9A 1_555 1_555
H6A C10A 1_555 1_555
C11A C10A 1_555 1_555
H7A C11A 1_555 1_555
H8A C11A 1_555 1_555
H9A C11A 1_555 1_555
C12A C10A 1_555 1_555
H10A C12A 1_555 1_555
H11A C12A 1_555 1_555
H12A C12A 1_555 1_555
C13A C5A 1_555 1_555
H13A C13A 1_555 1_555
C14A C13A 1_555 1_555
H14A C14A 1_555 1_555
H15A C14A 1_555 1_555
H16A C14A 1_555 1_555
C15A C13A 1_555 1_555
H17A C15A 1_555 1_555
H18A C15A 1_555 1_555
H19A C15A 1_555 1_555
C16A N1A 1_555 1_555
C17A C16A 1_555 1_555
C18A C17A 1_555 1_555
H20A C18A 1_555 1_555
C19A C18A 1_555 1_555
H21A C19A 1_555 1_555
C20A C19A 1_555 1_555
H22A C20A 1_555 1_555
C21A C16A 1_555 1_555
C22A C21A 1_555 1_555
H23A C22A 1_555 1_555
C23A C22A 1_555 1_555
H24A C23A 1_555 1_555
H25A C23A 1_555 1_555
H26A C23A 1_555 1_555
C24A C22A 1_555 1_555
H27A C24A 1_555 1_555
H28A C24A 1_555 1_555
H29A C24A 1_555 1_555
C25A C17A 1_555 1_555
H30A C25A 1_555 1_555
C26A C25A 1_555 1_555
H31A C26A 1_555 1_555
H32A C26A 1_555 1_555
H33A C26A 1_555 1_555
C27A C25A 1_555 1_555
H34A C27A 1_555 1_555
H35A C27A 1_555 1_555
H36A C27A 1_555 1_555
C2 C3 1_555 1_555
C8 C9 1_555 1_555
C20 C21 1_555 1_555
C2A C3A 1_555 1_555
C8A C9A 1_555 1_555
C20A C21A 1_555 1_555

#END
