
#######################################################################
#
#                 Cambridge Crystallographic Data Centre
#                                CCDC 
#
#######################################################################
#
# If this CIF has been generated from an entry in the Cambridge 
# Structural Database, then it will include bibliographic, chemical, 
# crystal, experimental, refinement or atomic coordinate data resulting 
# from the CCDC's data processing and validation procedures.
#
#######################################################################

data_NOLWOB
_chemical_formula_moiety         'C42 H48 N4 P2'
_chemical_name_systematic        
trans-P,P'-bis(1,3-Dimesitylimidazol-2-ylidene)diphosphorus
_symmetry_cell_setting           monoclinic
_symmetry_space_group_name_H-M   'C 2/c'
_symmetry_Int_Tables_number      15
_space_group_name_Hall           '-C 2yn'
loop_
_symmetry_equiv_pos_site_id
_symmetry_equiv_pos_as_xyz
1 x,y,z
2 -x,y,1/2-z
3 1/2+x,1/2+y,z
4 1/2-x,1/2+y,1/2-z
5 -x,-y,-z
6 x,-y,1/2+z
7 1/2-x,1/2-y,-z
8 1/2+x,1/2-y,1/2+z
_cell_length_a                   28.490(2)
_cell_length_b                   17.0000(13)
_cell_length_c                   20.129(3)
_cell_angle_alpha                90
_cell_angle_beta                 127.102(1)
_cell_angle_gamma                90
_cell_volume                     7775.5
_exptl_crystal_colour            red
_exptl_crystal_description       plate
_chemical_melting_point          '162 deg.C (dec.)'
_cell_formula_units_Z            8
_chemical_properties_physical    'air- and moisture-sensitive'
loop_
_atom_site_label
_atom_site_type_symbol
_atom_site_fract_x
_atom_site_fract_y
_atom_site_fract_z
P1 P 0.19098(3) 0.45239(5) 0.58362(5)
P2 P 0.12885(3) 0.37814(5) 0.58519(5)
N1 N 0.10348(10) 0.44130(15) 0.40344(14)
N2 N 0.18626(10) 0.49791(15) 0.44980(14)
N3 N 0.15062(11) 0.24695(16) 0.67750(16)
N4 N 0.23470(10) 0.29768(16) 0.72135(15)
C1 C 0.15731(11) 0.46119(17) 0.47680(17)
C2 C 0.10146(14) 0.4641(2) 0.33550(19)
H1 H 0.0701 0.4562 0.2798
C3 C 0.15171(15) 0.4990(2) 0.36354(19)
H2 H 0.1620 0.5203 0.3314
C4 C 0.24523(13) 0.5284(2) 0.50433(19)
C5 C 0.29164(15) 0.4815(2) 0.5262(2)
C6 C 0.34873(16) 0.5141(3) 0.5801(2)
H3 H 0.3811 0.4837 0.5960
C7 C 0.3573(2) 0.5904(4) 0.6094(3)
C8 C 0.3099(2) 0.6342(3) 0.5855(3)
H4 H 0.3158 0.6854 0.6052
C9 C 0.25286(17) 0.6056(2) 0.5326(2)
C10 C 0.2013(2) 0.6553(3) 0.5084(3)
H5 H 0.2149 0.7063 0.5335
H6 H 0.1810 0.6307 0.5274
H7 H 0.1750 0.6606 0.4489
C11 C 0.4203(2) 0.6222(4) 0.6695(3)
H8 H 0.4477 0.5828 0.6783
H9 H 0.4282 0.6353 0.7217
H10 H 0.4245 0.6684 0.6460
C12 C 0.28200(19) 0.3998(3) 0.4944(3)
H11 H 0.2406 0.3884 0.4591
H12 H 0.3019 0.3637 0.5404
H13 H 0.2972 0.3944 0.4631
C13 C 0.05124(11) 0.41785(18) 0.39405(16)
C14 C 0.03169(13) 0.34091(19) 0.37126(17)
C15 C -0.01992(14) 0.3212(2) 0.3601(2)
H14 H -0.0340 0.2700 0.3448
C16 C -0.05082(14) 0.3747(3) 0.3707(2)
C17 C -0.03037(13) 0.4509(2) 0.39287(18)
H15 H -0.0513 0.4874 0.4000
C18 C 0.02099(12) 0.47412(19) 0.40465(17)
C19 C 0.04259(16) 0.5568(2) 0.4280(2)
H16 H 0.0783 0.5622 0.4336
H17 H 0.0499 0.5695 0.4800
H18 H 0.0134 0.5919 0.3855
C20 C -0.10744(17) 0.3517(3) 0.3581(3)
H19 H -0.1155 0.2970 0.3434
H20 H -0.1395 0.3828 0.3142
H21 H -0.1030 0.3606 0.4087
C21 C 0.06625(16) 0.2812(2) 0.3618(2)
H22 H 0.0463 0.2315 0.3461
H23 H 0.1048 0.2757 0.4137
H24 H 0.0697 0.2984 0.3195
C22 C 0.17477(12) 0.30873(18) 0.66270(18)
C23 C 0.19470(15) 0.2000(2) 0.7423(2)
H25 H 0.1893 0.1551 0.7633
C24 C 0.24539(15) 0.2310(2) 0.7682(2)
H26 H 0.2823 0.2114 0.8109
C25 C 0.28194(11) 0.34763(19) 0.74021(17)
C26 C 0.29649(16) 0.4124(2) 0.7907(2)
C27 C 0.3457(2) 0.4546(3) 0.8132(3)
H27 H 0.3565 0.4987 0.8469
C28 C 0.37954(18) 0.4340(3) 0.7880(3)
C29 C 0.36288(16) 0.3703(3) 0.7379(3)
H28 H 0.3852 0.3561 0.7201
C30 C 0.31400(13) 0.3256(2) 0.7121(2)
C31 C 0.29468(19) 0.2575(3) 0.6535(3)
H29 H 0.2601 0.2341 0.6430
H30 H 0.3256 0.2191 0.6779
H31 H 0.2860 0.2758 0.6020
C32 C 0.4343(2) 0.4806(4) 0.8167(4)
H32 H 0.4520 0.4584 0.7929
H33 H 0.4618 0.4786 0.8764
H34 H 0.4237 0.5344 0.7991
C33 C 0.2609(2) 0.4350(3) 0.8196(3)
H35 H 0.2777 0.4808 0.8544
H36 H 0.2607 0.3924 0.8508
H37 H 0.2212 0.4463 0.7723
C34 C 0.08886(13) 0.23064(19) 0.63044(19)
C35 C 0.05792(13) 0.26259(18) 0.65662(19)
C36 C -0.00200(14) 0.2443(2) 0.6100(2)
H38 H -0.0237 0.2649 0.6264
C37 C -0.02982(15) 0.1969(2) 0.5408(2)
C38 C 0.00277(18) 0.1671(3) 0.5168(2)
H39 H -0.0158 0.1354 0.4697
C39 C 0.06233(17) 0.1825(2) 0.5607(2)
C40 C 0.0971(2) 0.1495(3) 0.5334(3)
H40 H 0.1373 0.1665 0.5712
H41 H 0.0807 0.1679 0.4783
H42 H 0.0955 0.0931 0.5333
C41 C -0.09561(17) 0.1801(3) 0.4901(3)
H43 H -0.1111 0.2055 0.5158
H44 H -0.1018 0.1244 0.4881
H45 H -0.1154 0.1999 0.4345
C42 C 0.08640(16) 0.3169(2) 0.7295(2)
H46 H 0.1274 0.3223 0.7537
H47 H 0.0825 0.2957 0.7702
H48 H 0.0677 0.3674 0.7115
loop_
_geom_bond_atom_site_label_1
_geom_bond_atom_site_label_2
_geom_bond_site_symmetry_1
_geom_bond_site_symmetry_2
P1 P2 1_555 1_555
P2 C22 1_555 1_555
N1 C1 1_555 1_555
N2 C1 1_555 1_555
N3 C22 1_555 1_555
N4 C22 1_555 1_555
C1 P1 1_555 1_555
C2 N1 1_555 1_555
H1 C2 1_555 1_555
C3 N2 1_555 1_555
H2 C3 1_555 1_555
C4 N2 1_555 1_555
C5 C4 1_555 1_555
C6 C5 1_555 1_555
H3 C6 1_555 1_555
C7 C6 1_555 1_555
C8 C7 1_555 1_555
H4 C8 1_555 1_555
C9 C4 1_555 1_555
C10 C9 1_555 1_555
H5 C10 1_555 1_555
H6 C10 1_555 1_555
H7 C10 1_555 1_555
C11 C7 1_555 1_555
H8 C11 1_555 1_555
H9 C11 1_555 1_555
H10 C11 1_555 1_555
C12 C5 1_555 1_555
H11 C12 1_555 1_555
H12 C12 1_555 1_555
H13 C12 1_555 1_555
C13 N1 1_555 1_555
C14 C13 1_555 1_555
C15 C14 1_555 1_555
H14 C15 1_555 1_555
C16 C15 1_555 1_555
C17 C16 1_555 1_555
H15 C17 1_555 1_555
C18 C13 1_555 1_555
C19 C18 1_555 1_555
H16 C19 1_555 1_555
H17 C19 1_555 1_555
H18 C19 1_555 1_555
C20 C16 1_555 1_555
H19 C20 1_555 1_555
H20 C20 1_555 1_555
H21 C20 1_555 1_555
C21 C14 1_555 1_555
H22 C21 1_555 1_555
H23 C21 1_555 1_555
H24 C21 1_555 1_555
C23 N3 1_555 1_555
H25 C23 1_555 1_555
C24 N4 1_555 1_555
H26 C24 1_555 1_555
C25 N4 1_555 1_555
C26 C25 1_555 1_555
C27 C26 1_555 1_555
H27 C27 1_555 1_555
C28 C27 1_555 1_555
C29 C28 1_555 1_555
H28 C29 1_555 1_555
C30 C25 1_555 1_555
C31 C30 1_555 1_555
H29 C31 1_555 1_555
H30 C31 1_555 1_555
H31 C31 1_555 1_555
C32 C28 1_555 1_555
H32 C32 1_555 1_555
H33 C32 1_555 1_555
H34 C32 1_555 1_555
C33 C26 1_555 1_555
H35 C33 1_555 1_555
H36 C33 1_555 1_555
H37 C33 1_555 1_555
C34 N3 1_555 1_555
C35 C34 1_555 1_555
C36 C35 1_555 1_555
H38 C36 1_555 1_555
C37 C36 1_555 1_555
C38 C37 1_555 1_555
H39 C38 1_555 1_555
C39 C34 1_555 1_555
C40 C39 1_555 1_555
H40 C40 1_555 1_555
H41 C40 1_555 1_555
H42 C40 1_555 1_555
C41 C37 1_555 1_555
H43 C41 1_555 1_555
H44 C41 1_555 1_555
H45 C41 1_555 1_555
C42 C35 1_555 1_555
H46 C42 1_555 1_555
H47 C42 1_555 1_555
H48 C42 1_555 1_555
C2 C3 1_555 1_555
C8 C9 1_555 1_555
C17 C18 1_555 1_555
C23 C24 1_555 1_555
C29 C30 1_555 1_555
C38 C39 1_555 1_555

#END
