
#######################################################################
#
#                 Cambridge Crystallographic Data Centre
#                                CCDC 
#
#######################################################################
#
# If this CIF has been generated from an entry in the Cambridge 
# Structural Database, then it will include bibliographic, chemical, 
# crystal, experimental, refinement or atomic coordinate data resulting 
# from the CCDC's data processing and validation procedures.
#
#######################################################################

data_NOLYUI
_chemical_formula_moiety         'C22 H16 O4 S1'
_chemical_name_systematic        
2,5-bis((Z)-2',3'-Dihydro-1',4'-benzodioxin-2-ylidenemethyl)thiophene
_symmetry_cell_setting           monoclinic
_symmetry_space_group_name_H-M   'P 21/c'
_symmetry_Int_Tables_number      14
_space_group_name_Hall           '-P 2ybc'
loop_
_symmetry_equiv_pos_site_id
_symmetry_equiv_pos_as_xyz
1 x,y,z
2 x,1/2-y,1/2+z
3 -x,-y,-z
4 -x,1/2+y,1/2-z
_cell_length_a                   9.244(3)
_cell_length_b                   16.073(9)
_cell_length_c                   12.578(5)
_cell_angle_alpha                90
_cell_angle_beta                 104.63(3)
_cell_angle_gamma                90
_cell_volume                     1808.23
_exptl_crystal_colour            colorless
_exptl_crystal_description       prism
_chemical_melting_point          419-421K
_cell_formula_units_Z            4
loop_
_atom_site_label
_atom_site_type_symbol
_atom_site_fract_x
_atom_site_fract_y
_atom_site_fract_z
S1 S 0.58099(6) 0.08282(4) 0.09198(4)
O1 O 0.5277(2) -0.14375(11) 0.4102(2)
O2 O 0.5001(2) 0.00153(10) 0.27956(12)
O3 O 0.2837(2) 0.27087(11) -0.26556(12)
O4 O 0.3779(2) 0.19745(10) -0.05617(12)
C1 C 0.3843(3) -0.02660(14) 0.3218(2)
C2 C 0.2526(3) 0.0173(2) 0.2963(2)
C3 C 0.1344(3) -0.0096(2) 0.3354(2)
C4 C 0.1466(4) -0.0810(2) 0.3975(3)
C5 C 0.2788(3) -0.1246(2) 0.4229(3)
C6 C 0.3980(3) -0.0982(2) 0.3853(2)
C7 C 0.6550(3) -0.0933(2) 0.4096(2)
C8 C 0.6308(3) -0.04384(14) 0.3061(2)
C9 C 0.7262(3) -0.03866(15) 0.2442(2)
C10 C 0.7189(2) 0.01059(14) 0.1462(2)
C11 C 0.8193(3) 0.0063(2) 0.0838(2)
C12 C 0.7868(3) 0.0602(2) -0.0064(2)
C13 C 0.6609(2) 0.10641(14) -0.0147(2)
C14 C 0.6029(3) 0.16741(15) -0.0998(2)
C15 C 0.4771(3) 0.21003(14) -0.1199(2)
C16 C 0.4367(3) 0.2779(2) -0.2029(2)
C17 C 0.1871(3) 0.26242(15) -0.1994(2)
C18 C 0.0404(3) 0.2890(2) -0.2367(2)
C19 C -0.0568(3) 0.2803(2) -0.1717(3)
C20 C -0.0088(3) 0.2457(2) -0.0682(2)
C21 C 0.1361(3) 0.2189(2) -0.0307(2)
C22 C 0.2345(2) 0.22738(13) -0.0956(2)
H1 H 0.2480(25) 0.0671(15) 0.2520(20)
H2 H 0.0470(32) 0.0223(19) 0.3223(23)
H3 H 0.0664(33) -0.0982(19) 0.4305(25)
H4 H 0.2921(32) -0.1724(20) 0.4626(25)
H5 H 0.6752(27) -0.0540(16) 0.4761(23)
H6 H 0.7391(31) -0.1259(18) 0.4184(22)
H7 H 0.8107(25) -0.0739(14) 0.2653(18)
H8 H 0.8994(26) -0.0315(15) 0.1009(19)
H9 H 0.8441(27) 0.0637(15) -0.0537(20)
H10 H 0.6661(24) 0.1766(13) -0.1478(18)
H11 H 0.4511(28) 0.3333(18) -0.1605(21)
H12 H 0.4960(27) 0.2755(16) -0.2550(21)
H13 H 0.0121(28) 0.3142(17) -0.3081(22)
H14 H -0.1595(33) 0.2983(18) -0.1953(23)
H15 H -0.0740(27) 0.2400(15) -0.0217(20)
H16 H 0.1738(25) 0.1946(14) 0.0391(20)
loop_
_geom_bond_atom_site_label_1
_geom_bond_atom_site_label_2
_geom_bond_site_symmetry_1
_geom_bond_site_symmetry_2
S1 C10 1_555 1_555
O1 C6 1_555 1_555
O2 C1 1_555 1_555
O3 C16 1_555 1_555
O4 C15 1_555 1_555
C1 C2 1_555 1_555
C2 C3 1_555 1_555
C3 C4 1_555 1_555
C4 C5 1_555 1_555
C5 C6 1_555 1_555
C6 C1 1_555 1_555
C7 O1 1_555 1_555
C8 O2 1_555 1_555
C9 C8 1_555 1_555
C10 C9 1_555 1_555
C11 C10 1_555 1_555
C12 C11 1_555 1_555
C13 S1 1_555 1_555
C14 C13 1_555 1_555
C15 C14 1_555 1_555
C16 C15 1_555 1_555
C17 O3 1_555 1_555
C18 C17 1_555 1_555
C19 C18 1_555 1_555
C20 C19 1_555 1_555
C21 C20 1_555 1_555
C22 O4 1_555 1_555
H1 C2 1_555 1_555
H2 C3 1_555 1_555
H3 C4 1_555 1_555
H4 C5 1_555 1_555
H5 C7 1_555 1_555
H6 C7 1_555 1_555
H7 C9 1_555 1_555
H8 C11 1_555 1_555
H9 C12 1_555 1_555
H10 C14 1_555 1_555
H11 C16 1_555 1_555
H12 C16 1_555 1_555
H13 C18 1_555 1_555
H14 C19 1_555 1_555
H15 C20 1_555 1_555
H16 C21 1_555 1_555
C7 C8 1_555 1_555
C12 C13 1_555 1_555
C17 C22 1_555 1_555
C21 C22 1_555 1_555

#END
