
#######################################################################
#
#                 Cambridge Crystallographic Data Centre
#                                CCDC 
#
#######################################################################
#
# If this CIF has been generated from an entry in the Cambridge 
# Structural Database, then it will include bibliographic, chemical, 
# crystal, experimental, refinement or atomic coordinate data resulting 
# from the CCDC's data processing and validation procedures.
#
#######################################################################

data_NOMQUD
_chemical_formula_moiety         'C17 H14 N2 O1 S1'
_chemical_name_systematic        
N-(3-methyl-4-phenyl-1,3-thiazol-2(3H)-ylidene)benzamide
_symmetry_cell_setting           monoclinic
_symmetry_space_group_name_H-M   'P 21/c'
_symmetry_Int_Tables_number      14
_space_group_name_Hall           '-P 2ybc'
loop_
_symmetry_equiv_pos_site_id
_symmetry_equiv_pos_as_xyz
1 x,y,z
2 -x,1/2+y,1/2-z
3 -x,-y,-z
4 x,1/2-y,1/2+z
_cell_length_a                   12.564(2)
_cell_length_b                   8.2144(17)
_cell_length_c                   14.439(3)
_cell_angle_alpha                90
_cell_angle_beta                 93.742(7)
_cell_angle_gamma                90
_cell_volume                     1487.01
_cell_formula_units_Z            4
loop_
_atom_site_label
_atom_site_type_symbol
_atom_site_fract_x
_atom_site_fract_y
_atom_site_fract_z
S1 S 0.50484(7) 0.50239(11) 0.24149(7)
O1 O 0.33641(17) 0.4640(3) 0.1539(2)
N1 N 0.60203(17) 0.3364(3) 0.1186(2)
N2 N 0.44508(18) 0.3206(3) 0.0654(2)
C1 C 0.5121(2) 0.3798(4) 0.1306(3)
C2 C 0.6651(2) 0.3958(4) 0.1981(3)
C3 C 0.6227(3) 0.4852(4) 0.2699(3)
C4 C 0.7661(2) 0.3593(4) 0.2025(3)
C5 C 0.8201(3) 0.4000(5) 0.1194(4)
C6 C 0.9152(3) 0.3739(5) 0.1291(4)
C7 C 0.9559(3) 0.3076(7) 0.2185(4)
C8 C 0.9030(3) 0.2624(7) 0.2998(4)
C9 C 0.8084(3) 0.2868(5) 0.2915(3)
C10 C 0.3565(2) 0.3604(4) 0.0869(3)
C11 C 0.2825(2) 0.2676(4) 0.0245(3)
C12 C 0.1959(3) 0.2510(5) 0.0661(3)
C13 C 0.1285(3) 0.1595(6) 0.0139(4)
C14 C 0.1432(3) 0.0861(5) -0.0823(4)
C15 C 0.2283(3) 0.1061(5) -0.1244(3)
C16 C 0.2981(3) 0.1940(4) -0.0708(3)
C17 C 0.6244(2) 0.2255(4) 0.0340(3)
H1 H 0.6590 0.5253 0.3233
H2 H 0.7858 0.4411 0.0654
H3 H 0.9601 0.3951 0.0818
H4 H 1.0294 0.2919 0.2236
H5 H 0.9379 0.2191 0.3530
H6 H 0.7640 0.2615 0.3386
H7 H 0.1826 0.2957 0.1234
H8 H 0.0637 0.1369 0.0389
H9 H 0.5771 0.1336 0.0325
H10 H 0.6969 0.1882 0.0400
H11 H 0.6128 0.2866 0.0224
H12? H 0.0881 0.0248 0.1107
H13? H 0.2400 0.0661 0.1832
H14? H 0.3641 0.2122 0.0947
loop_
_geom_bond_atom_site_label_1
_geom_bond_atom_site_label_2
_geom_bond_site_symmetry_1
_geom_bond_site_symmetry_2
S1 C1 1_555 1_555
O1 C10 1_555 1_555
N1 C1 1_555 1_555
N2 C1 1_555 1_555
C2 N1 1_555 1_555
C3 S1 1_555 1_555
C4 C2 1_555 1_555
C5 C4 1_555 1_555
C6 C5 1_555 1_555
C7 C6 1_555 1_555
C8 C7 1_555 1_555
C9 C4 1_555 1_555
C10 N2 1_555 1_555
C11 C10 1_555 1_555
C12 C11 1_555 1_555
C13 C12 1_555 1_555
C14 C13 1_555 1_555
C15 C14 1_555 1_555
C16 C11 1_555 1_555
C17 N1 1_555 1_555
H1 C3 1_555 1_555
H2 C5 1_555 1_555
H3 C6 1_555 1_555
H4 C7 1_555 1_555
H5 C8 1_555 1_555
H6 C9 1_555 1_555
H7 C12 1_555 1_555
H8 C13 1_555 1_555
H9 C17 1_555 1_555
H10 C17 1_555 1_555
H11 C17 1_555 1_555
C2 C3 1_555 1_555
C8 C9 1_555 1_555
C15 C16 1_555 1_555

#END
