
#######################################################################
#
#                 Cambridge Crystallographic Data Centre
#                                CCDC 
#
#######################################################################
#
# If this CIF has been generated from an entry in the Cambridge 
# Structural Database, then it will include bibliographic, chemical, 
# crystal, experimental, refinement or atomic coordinate data resulting 
# from the CCDC's data processing and validation procedures.
#
#######################################################################

data_NOMYEU
_chemical_formula_moiety         'C15 H14 N6 O8,C3 H6 O1'
_chemical_name_systematic        
'2-((4-((E)-(2,4-dinitrophenyl)diazenyl)-2-nitrophenyl)amino)propane-1,3-diol acetone solvate'
_symmetry_cell_setting           triclinic
_symmetry_space_group_name_H-M   'P -1'
_symmetry_Int_Tables_number      2
_space_group_name_Hall           '-P 1'
loop_
_symmetry_equiv_pos_site_id
_symmetry_equiv_pos_as_xyz
1 x,y,z
2 -x,-y,-z
_cell_length_a                   6.780(1)
_cell_length_b                   8.0970(8)
_cell_length_c                   19.7070(16)
_cell_angle_alpha                95.732(8)
_cell_angle_beta                 96.607(9)
_cell_angle_gamma                92.151(6)
_cell_volume                     1067.99
_exptl_crystal_colour            orange-red
_exptl_crystal_description       plate
_chemical_melting_point          '190 deg.C'
_cell_formula_units_Z            2
_exptl_crystal_recrystallization_method n-hexane/acetone
loop_
_atom_site_label
_atom_site_type_symbol
_atom_site_fract_x
_atom_site_fract_y
_atom_site_fract_z
C1 C 0.5635(2) -0.1970(2) -0.15076(8)
C2 C 0.5772(2) -0.3025(2) -0.09936(8)
H1 H 0.5379 -0.4145 -0.1085
C3 C 0.6515(2) -0.2345(2) -0.03406(8)
C4 C 0.7141(2) -0.0663(2) -0.01873(8)
C5 C 0.6991(2) 0.0340(2) -0.07244(8)
H2 H 0.7404 0.1457 -0.0638
C6 C 0.6239(2) -0.0299(2) -0.13817(9)
H3 H 0.6138 0.0381 -0.1736
C7 C 0.9166(2) 0.2056(2) 0.12528(8)
C8 C 0.9327(2) 0.1135(2) 0.18247(8)
H4 H 0.8939 0.0011 0.1767
C9 C 1.0046(2) 0.1874(2) 0.24607(8)
H5 H 1.0105 0.1245 0.2832
C10 C 1.0714(2) 0.3589(2) 0.25756(8)
C11 C 1.0556(2) 0.4476(2) 0.19832(8)
C12 C 0.9774(2) 0.3716(2) 0.13420(8)
H6 H 0.9659 0.4334 0.0967
C13 C 0.9506(3) 0.3663(3) 0.41120(9)
H7 H 0.9278 0.4830 0.4222
H8 H 0.8462 0.3204 0.3758
C14 C 1.1510(3) 0.3502(2) 0.38407(9)
H9 H 1.1758 0.2321 0.3749
C15 C 1.3234(3) 0.4346(3) 0.43313(10)
H10 H 1.3180 0.3990 0.4785
H11 H 1.4479 0.4009 0.4176
N1 N 0.4864(2) -0.26624(19) -0.22087(7)
N2 N 0.6698(2) -0.34903(19) 0.01946(7)
N3 N 0.79718(19) -0.01120(17) 0.04986(7)
N4 N 0.83865(19) 0.14342(18) 0.05812(7)
N5 N 1.1471(2) 0.4274(2) 0.32031(7)
N6 N 1.1209(2) 0.62100(19) 0.20173(7)
O1 O 0.43270(18) -0.41410(16) -0.23062(6)
O2 O 0.48047(18) -0.17350(16) -0.26668(6)
O3 O 0.61733(18) -0.30595(16) 0.07572(6)
O4 O 0.73335(18) -0.48589(16) 0.00320(6)
O5 O 0.9419(3) 0.2820(2) 0.47098(7)
O6 O 1.3175(2) 0.61064(18) 0.43720(7)
O7 O 1.1908(2) 0.69697(16) 0.25747(6)
O8 O 1.1035(2) 0.68971(17) 0.14878(7)
H18 H 1.180(3) 0.529(3) 0.3233(10)
H19 H 0.926(4) 0.171(4) 0.4557(14)
H20 H 1.235(4) 0.654(4) 0.4671(15)
C16 C 0.7074(4) -0.2295(3) 0.31866(14)
H12 H 0.8362 -0.2540 0.3057
H13 H 0.6241 -0.1985 0.2797
H14 H 0.6487 -0.3261 0.3345
C17 C 0.7279(4) -0.0902(3) 0.37456(11)
C18 C 0.5402(4) -0.0365(3) 0.40168(13)
H15 H 0.5710 0.0533 0.4375
H16 H 0.4779 -0.1283 0.4198
H17 H 0.4515 -0.0002 0.3652
O9 O 0.8900(3) -0.0229(2) 0.39564(8)
loop_
_geom_bond_atom_site_label_1
_geom_bond_atom_site_label_2
_geom_bond_site_symmetry_1
_geom_bond_site_symmetry_2
C1 C2 1_555 1_555
C2 H1 1_555 1_555
C3 C2 1_555 1_555
C4 C3 1_555 1_555
C5 C4 1_555 1_555
H2 C5 1_555 1_555
C6 C1 1_555 1_555
H3 C6 1_555 1_555
C7 C8 1_555 1_555
C8 H4 1_555 1_555
C9 C8 1_555 1_555
H5 C9 1_555 1_555
C10 C9 1_555 1_555
C11 C10 1_555 1_555
C12 C7 1_555 1_555
H6 C12 1_555 1_555
C13 H7 1_555 1_555
H8 C13 1_555 1_555
C14 C13 1_555 1_555
H9 C14 1_555 1_555
C15 C14 1_555 1_555
H10 C15 1_555 1_555
H11 C15 1_555 1_555
C16 H12 1_555 1_555
H13 C16 1_555 1_555
H14 C16 1_555 1_555
C17 C16 1_555 1_555
C18 C17 1_555 1_555
H15 C18 1_555 1_555
H16 C18 1_555 1_555
H17 C18 1_555 1_555
N1 C1 1_555 1_555
N2 C3 1_555 1_555
N3 C4 1_555 1_555
N4 C7 1_555 1_555
N5 C10 1_555 1_555
N6 C11 1_555 1_555
O1 N1 1_555 1_555
O2 N1 1_555 1_555
O3 N2 1_555 1_555
O4 N2 1_555 1_555
O5 C13 1_555 1_555
O6 C15 1_555 1_555
O7 N6 1_555 1_555
O8 N6 1_555 1_555
O9 C17 1_555 1_555
H18 N5 1_555 1_555
H19 O5 1_555 1_555
H20 O6 1_555 1_555
C5 C6 1_555 1_555
C11 C12 1_555 1_555
C14 N5 1_555 1_555
N3 N4 1_555 1_555

#END
