
#######################################################################
#
#                 Cambridge Crystallographic Data Centre
#                                CCDC 
#
#######################################################################
#
# If this CIF has been generated from an entry in the Cambridge 
# Structural Database, then it will include bibliographic, chemical, 
# crystal, experimental, refinement or atomic coordinate data resulting 
# from the CCDC's data processing and validation procedures.
#
#######################################################################

data_NONACT01
_chemical_name_common            Nonactin
_chemical_formula_moiety         'C40 H64 O12'
_chemical_name_systematic        
2,5,11,14,20,23,29,32-Octamethyl-4,13,22,31,37,38,39,40-octaoxapentacyclo[32.2.1.1^7,10^.1^16,19^.1^25,28^]tetracontane-3,12,21,30-tetrone
_chemical_properties_biological  'macrotetrolide antibiotic'
_symmetry_cell_setting           monoclinic
_symmetry_space_group_name_H-M   'P 2/n'
_symmetry_Int_Tables_number      13
_space_group_name_Hall           '-P 2yac'
loop_
_symmetry_equiv_pos_site_id
_symmetry_equiv_pos_as_xyz
1 x,y,z
2 1/2-x,y,1/2-z
3 -x,-y,-z
4 1/2+x,-y,1/2+z
_cell_length_a                   28.252(10)
_cell_length_b                   5.569(2)
_cell_length_c                   28.270(11)
_cell_angle_alpha                90
_cell_angle_beta                 113.120(19)
_cell_angle_gamma                90
_cell_volume                     4090.64
_exptl_crystal_colour            colorless
_exptl_crystal_description       needle
_cell_formula_units_Z            4
_exptl_crystal_recrystallization_method acetone
loop_
_atom_site_label
_atom_site_type_symbol
_atom_site_fract_x
_atom_site_fract_y
_atom_site_fract_z
O1 O 0.91863(5) 0.1503(2) 0.28283(5)
O2 O 0.92528(5) 0.1093(2) 0.41695(5)
O3 O 0.95057(5) 0.4845(2) 0.44662(5)
O4 O 0.78146(5) 0.3410(2) 0.41400(5)
O5 O 0.64137(4) 0.3756(2) 0.36927(4)
O6 O 0.61674(5) 0.0159(2) 0.38889(5)
C1 C 0.88622(7) 0.1343(3) 0.22891(7)
H1 H 0.8607 0.2686 0.2194
C2 C 0.85763(8) -0.1066(4) 0.22133(7)
H2 H 0.8210 -0.0815 0.2153
H3 H 0.8595 -0.1961 0.1919
C3 C 0.88576(8) -0.2402(3) 0.27151(7)
H4 H 0.9148 -0.3356 0.2702
H5 H 0.8622 -0.3477 0.2799
C4 C 0.90483(7) -0.0358(3) 0.31008(7)
H6 H 0.8764 0.0210 0.3200
C5 C 0.95173(7) -0.0989(3) 0.35795(7)
H7 H 0.9810 -0.1304 0.3478
H8 H 0.9446 -0.2495 0.3725
C6 C 0.96790(6) 0.0922(3) 0.39968(7)
H9 H 0.9727 0.2495 0.3851
C7 C 1.01712(7) 0.0223(4) 0.44479(7)
H10 H 1.0254 0.1451 0.4717
H11 H 1.0454 0.0096 0.4331
H12 H 1.0122 -0.1327 0.4586
C8 C 0.92139(6) 0.3170(3) 0.43956(6)
C9 C 0.87431(7) 0.3154(3) 0.45280(7)
H13 H 0.8712 0.1527 0.4662
C10 C 0.87958(8) 0.5005(4) 0.49439(8)
H14 H 0.8841 0.6606 0.4824
H15 H 0.9096 0.4611 0.5257
H16 H 0.8485 0.4986 0.5018
C11 C 0.82678(7) 0.3585(3) 0.40234(7)
H17 H 0.8254 0.2304 0.3770
C12 C 0.82469(7) 0.6053(3) 0.37733(8)
H18 H 0.8581 0.6896 0.3932
H19 H 0.8158 0.5891 0.3399
C13 C 0.78249(7) 0.7391(3) 0.38769(8)
H20 H 0.7968 0.8277 0.4207
H21 H 0.7640 0.8529 0.3596
C14 C 0.74738(7) 0.5364(3) 0.38995(7)
H22 H 0.7239 0.4896 0.3542
C15 C 0.71592(7) 0.5946(3) 0.42108(7)
H23 H 0.6960 0.7427 0.4070
H24 H 0.7398 0.6293 0.4569
C16 C 0.67895(7) 0.4004(3) 0.42231(7)
H25 H 0.6979 0.2457 0.4343
C17 C 0.65115(7) 0.4687(4) 0.45664(7)
H26 H 0.6350 0.6265 0.4464
H27 H 0.6759 0.4750 0.4925
H28 H 0.6246 0.3487 0.4532
C18 C 0.61346(6) 0.1723(3) 0.35814(7)
C19 C 0.57883(7) 0.1604(3) 0.30121(7)
H29 H 0.5600 0.3165 0.2912
C20 C 0.53906(7) -0.0397(4) 0.29040(7)
H30 H 0.5567 -0.1938 0.3015
H31 H 0.5178 -0.0457 0.2535
H32 H 0.5171 -0.0082 0.3093
O1A O 0.58137(5) 0.1503(2) 0.21717(5)
O2A O 0.57472(5) 0.1093(2) 0.08305(5)
O3A O 0.54943(5) 0.4845(2) 0.05338(5)
O4A O 0.71854(5) 0.3410(2) 0.08600(5)
O5A O 0.85863(4) 0.3756(2) 0.13073(4)
O6A O 0.88326(5) 0.0159(2) 0.11111(5)
C1A C 0.61378(7) 0.1343(3) 0.27109(7)
H1A H 0.6393 0.2686 0.2806
C2A C 0.64237(8) -0.1066(4) 0.27867(7)
H2A H 0.6790 -0.0815 0.2847
H3A H 0.6405 -0.1961 0.3081
C3A C 0.61424(8) -0.2402(3) 0.22849(7)
H4A H 0.5852 -0.3356 0.2298
H5A H 0.6378 -0.3477 0.2201
C4A C 0.59517(7) -0.0358(3) 0.18992(7)
H6A H 0.6236 0.0210 0.1800
C5A C 0.54827(7) -0.0989(3) 0.14205(7)
H7A H 0.5190 -0.1304 0.1522
H8A H 0.5554 -0.2495 0.1275
C6A C 0.53210(6) 0.0922(3) 0.10032(7)
H9A H 0.5273 0.2495 0.1149
C7A C 0.48288(7) 0.0223(4) 0.05521(7)
H10A H 0.4746 0.1451 0.0283
H11A H 0.4546 0.0096 0.0669
H12A H 0.4878 -0.1327 0.0414
C8A C 0.57861(6) 0.3170(3) 0.06044(6)
C9A C 0.62569(7) 0.3154(3) 0.04720(7)
H13A H 0.6288 0.1527 0.0338
C10A C 0.62042(8) 0.5005(4) 0.00561(8)
H14A H 0.6159 0.6606 0.0176
H15A H 0.5904 0.4611 -0.0257
H16A H 0.6515 0.4986 -0.0018
C11A C 0.67322(7) 0.3585(3) 0.09766(7)
H17A H 0.6746 0.2304 0.1230
C12A C 0.67531(7) 0.6053(3) 0.12267(8)
H18A H 0.6419 0.6896 0.1068
H19A H 0.6842 0.5891 0.1601
C13A C 0.71751(7) 0.7391(3) 0.11231(8)
H20A H 0.7032 0.8277 0.0793
H21A H 0.7360 0.8529 0.1404
C14A C 0.75262(7) 0.5364(3) 0.11005(7)
H22A H 0.7761 0.4896 0.1458
C15A C 0.78408(7) 0.5946(3) 0.07892(7)
H23A H 0.8040 0.7427 0.0930
H24A H 0.7602 0.6293 0.0431
C16A C 0.82105(7) 0.4004(3) 0.07769(7)
H25A H 0.8021 0.2457 0.0657
C17A C 0.84885(7) 0.4687(4) 0.04336(7)
H26A H 0.8650 0.6265 0.0536
H27A H 0.8241 0.4750 0.0075
H28A H 0.8754 0.3487 0.0468
C18A C 0.88654(6) 0.1723(3) 0.14186(7)
C19A C 0.92117(7) 0.1604(3) 0.19879(7)
H29A H 0.9400 0.3165 0.2088
C20A C 0.96094(7) -0.0397(4) 0.20960(7)
H30A H 0.9433 -0.1938 0.1985
H31A H 0.9822 -0.0457 0.2465
H32A H 0.9829 -0.0082 0.1907
O7 O 0.91541(5) 0.3740(2) 0.78040(5)
O8 O 0.86769(4) 0.4332(2) 0.64024(5)
O9 O 0.88767(5) 0.0839(2) 0.61238(6)
O10 O 0.71629(5) 0.1861(2) 0.58421(5)
O11 O 0.58226(5) 0.1216(2) 0.57723(5)
O12 O 0.55184(5) 0.4938(2) 0.55089(5)
C21 C 0.90376(7) 0.3781(3) 0.82568(7)
H33 H 0.8787 0.2471 0.8232
C22 C 0.87834(8) 0.6229(3) 0.82567(7)
H34 H 0.8412 0.6035 0.8179
H35 H 0.8950 0.7038 0.8594
C23 C 0.88651(7) 0.7646(3) 0.78358(7)
H36 H 0.9188 0.8588 0.7976
H37 H 0.8573 0.8746 0.7660
C24 C 0.88956(7) 0.5692(3) 0.74732(7)
H38 H 0.8541 0.5187 0.7239
C25 C 0.92012(7) 0.6434(3) 0.71600(7)
H39 H 0.9055 0.7951 0.6979
H40 H 0.9559 0.6772 0.7400
C26 C 0.92160(6) 0.4630(3) 0.67665(7)
H41 H 0.9355 0.3064 0.6938
C27 C 0.95391(7) 0.5527(4) 0.64827(8)
H42 H 0.9540 0.4321 0.6231
H43 H 0.9892 0.5808 0.6729
H44 H 0.9393 0.7031 0.6305
C28 C 0.85651(7) 0.2350(3) 0.61117(6)
C29 C 0.79892(7) 0.2188(3) 0.57855(7)
H45 H 0.7875 0.3769 0.5610
C30 C 0.78742(8) 0.0264(4) 0.53726(8)
H46 H 0.8016 -0.1275 0.5534
H47 H 0.8031 0.0716 0.5132
H48 H 0.7501 0.0115 0.5186
C31 C 0.77060(7) 0.1788(3) 0.61467(7)
H49 H 0.7797 0.3122 0.6404
C32 C 0.78186(7) -0.0625(4) 0.64343(8)
H50 H 0.8113 -0.1452 0.6398
H51 H 0.7895 -0.0396 0.6804
C33 C 0.73172(7) -0.2048(3) 0.61685(8)
H52 H 0.7326 -0.2992 0.5875
H53 H 0.7254 -0.3145 0.6413
C34 C 0.69111(7) -0.0075(3) 0.59860(7)
H54 H 0.6814 0.0439 0.6275
C35 C 0.64347(7) -0.0792(3) 0.55253(7)
H55 H 0.6300 -0.2307 0.5608
H56 H 0.6536 -0.1124 0.5234
C36 C 0.60043(7) 0.1045(3) 0.53535(7)
H57 H 0.6140 0.2637 0.5300
C37 C 0.55628(7) 0.0271(4) 0.48618(7)
H58 H 0.5430 -0.1284 0.4917
H59 H 0.5686 0.0126 0.4584
H60 H 0.5287 0.1472 0.4768
C38 C 0.55914(6) 0.3282(3) 0.58030(7)
C39 C 0.54583(7) 0.3310(3) 0.62747(7)
H61 H 0.5329 0.1681 0.6314
C40 C 0.50345(7) 0.5138(4) 0.62136(8)
H62 H 0.5162 0.6760 0.6198
H63 H 0.4935 0.5021 0.6508
H64 H 0.4735 0.4805 0.5896
O7A O 0.58459(5) 0.3740(2) 0.71960(5)
O8A O 0.63231(4) 0.4332(2) 0.85976(5)
O9A O 0.61233(5) 0.0839(2) 0.88762(6)
O10A O 0.78371(5) 0.1861(2) 0.91579(5)
O11A O 0.91774(5) 0.1216(2) 0.92277(5)
O12A O 0.94816(5) 0.4938(2) 0.94911(5)
C21A C 0.59624(7) 0.3781(3) 0.67432(7)
H33A H 0.6213 0.2471 0.6768
C22A C 0.62166(8) 0.6229(3) 0.67433(7)
H34A H 0.6588 0.6035 0.6821
H35A H 0.6050 0.7038 0.6406
C23A C 0.61349(7) 0.7646(3) 0.71642(7)
H36A H 0.5812 0.8588 0.7024
H37A H 0.6427 0.8746 0.7340
C24A C 0.61044(7) 0.5692(3) 0.75268(7)
H38A H 0.6459 0.5187 0.7761
C25A C 0.57988(7) 0.6434(3) 0.78400(7)
H39A H 0.5945 0.7951 0.8021
H40A H 0.5441 0.6772 0.7600
C26A C 0.57840(6) 0.4630(3) 0.82335(7)
H41A H 0.5645 0.3064 0.8062
C27A C 0.54609(7) 0.5527(4) 0.85173(8)
H42A H 0.5460 0.4321 0.8769
H43A H 0.5108 0.5808 0.8271
H44A H 0.5607 0.7031 0.8695
C28A C 0.64349(7) 0.2350(3) 0.88883(6)
C29A C 0.70108(7) 0.2188(3) 0.92145(7)
H45A H 0.7125 0.3769 0.9390
C30A C 0.71258(8) 0.0264(4) 0.96274(8)
H46A H 0.6984 -0.1275 0.9466
H47A H 0.6969 0.0716 0.9868
H48A H 0.7499 0.0115 0.9814
C31A C 0.72940(7) 0.1788(3) 0.88533(7)
H49A H 0.7203 0.3122 0.8596
C32A C 0.71814(7) -0.0625(4) 0.85657(8)
H50A H 0.6887 -0.1452 0.8602
H51A H 0.7105 -0.0396 0.8196
C33A C 0.76828(7) -0.2048(3) 0.88315(8)
H52A H 0.7674 -0.2992 0.9125
H53A H 0.7746 -0.3145 0.8587
C34A C 0.80889(7) -0.0075(3) 0.90140(7)
H54A H 0.8186 0.0439 0.8725
C35A C 0.85653(7) -0.0792(3) 0.94747(7)
H55A H 0.8700 -0.2307 0.9392
H56A H 0.8464 -0.1124 0.9766
C36A C 0.89957(7) 0.1045(3) 0.96465(7)
H57A H 0.8860 0.2637 0.9700
C37A C 0.94372(7) 0.0271(4) 1.01382(7)
H58A H 0.9570 -0.1284 1.0083
H59A H 0.9314 0.0126 1.0416
H60A H 0.9713 0.1472 1.0232
C38A C 0.94086(6) 0.3282(3) 0.91970(7)
C39A C 0.95417(7) 0.3310(3) 0.87253(7)
H61A H 0.9671 0.1681 0.8686
C40A C 0.99655(7) 0.5138(4) 0.87864(8)
H62A H 0.9838 0.6760 0.8802
H63A H 1.0065 0.5021 0.8492
H64A H 1.0265 0.4805 0.9104
loop_
_geom_bond_atom_site_label_1
_geom_bond_atom_site_label_2
_geom_bond_site_symmetry_1
_geom_bond_site_symmetry_2
O1 C1 1_555 1_555
O2 C6 1_555 1_555
O3 C8 1_555 1_555
O4 C11 1_555 1_555
O5 C16 1_555 1_555
O6 C18 1_555 1_555
C1 H1 1_555 1_555
C2 C1 1_555 1_555
H2 C2 1_555 1_555
H3 C2 1_555 1_555
C3 C2 1_555 1_555
H4 C3 1_555 1_555
H5 C3 1_555 1_555
C4 O1 1_555 1_555
H6 C4 1_555 1_555
C5 C4 1_555 1_555
H7 C5 1_555 1_555
H8 C5 1_555 1_555
C6 C5 1_555 1_555
H9 C6 1_555 1_555
C7 C6 1_555 1_555
H10 C7 1_555 1_555
H11 C7 1_555 1_555
H12 C7 1_555 1_555
C8 O2 1_555 1_555
C9 C8 1_555 1_555
H13 C9 1_555 1_555
C10 C9 1_555 1_555
H14 C10 1_555 1_555
H15 C10 1_555 1_555
H16 C10 1_555 1_555
C11 C9 1_555 1_555
H17 C11 1_555 1_555
C12 C11 1_555 1_555
H18 C12 1_555 1_555
H19 C12 1_555 1_555
C13 C12 1_555 1_555
H20 C13 1_555 1_555
H21 C13 1_555 1_555
C14 O4 1_555 1_555
H22 C14 1_555 1_555
C15 C14 1_555 1_555
H23 C15 1_555 1_555
H24 C15 1_555 1_555
C16 C15 1_555 1_555
H25 C16 1_555 1_555
C17 C16 1_555 1_555
H26 C17 1_555 1_555
H27 C17 1_555 1_555
H28 C17 1_555 1_555
C18 O5 1_555 1_555
C19 C18 1_555 1_555
H29 C19 1_555 1_555
C20 C19 1_555 1_555
H30 C20 1_555 1_555
H31 C20 1_555 1_555
H32 C20 1_555 1_555
O7 C21 1_555 1_555
O8 C26 1_555 1_555
O9 C28 1_555 1_555
O10 C31 1_555 1_555
O11 C36 1_555 1_555
O12 C38 1_555 1_555
C21 H33 1_555 1_555
C22 C21 1_555 1_555
H34 C22 1_555 1_555
H35 C22 1_555 1_555
C23 C22 1_555 1_555
H36 C23 1_555 1_555
H37 C23 1_555 1_555
C24 O7 1_555 1_555
H38 C24 1_555 1_555
C25 C24 1_555 1_555
H39 C25 1_555 1_555
H40 C25 1_555 1_555
C26 C25 1_555 1_555
H41 C26 1_555 1_555
C27 C26 1_555 1_555
H42 C27 1_555 1_555
H43 C27 1_555 1_555
H44 C27 1_555 1_555
C28 O8 1_555 1_555
C29 C28 1_555 1_555
H45 C29 1_555 1_555
C30 C29 1_555 1_555
H46 C30 1_555 1_555
H47 C30 1_555 1_555
H48 C30 1_555 1_555
C31 C29 1_555 1_555
H49 C31 1_555 1_555
C32 C31 1_555 1_555
H50 C32 1_555 1_555
H51 C32 1_555 1_555
C33 C32 1_555 1_555
H52 C33 1_555 1_555
H53 C33 1_555 1_555
C34 O10 1_555 1_555
H54 C34 1_555 1_555
C35 C34 1_555 1_555
H55 C35 1_555 1_555
H56 C35 1_555 1_555
C36 C35 1_555 1_555
H57 C36 1_555 1_555
C37 C36 1_555 1_555
H58 C37 1_555 1_555
H59 C37 1_555 1_555
H60 C37 1_555 1_555
C38 O11 1_555 1_555
C39 C38 1_555 1_555
H61 C39 1_555 1_555
C40 C39 1_555 1_555
H62 C40 1_555 1_555
H63 C40 1_555 1_555
H64 C40 1_555 1_555
O1A C1A 1_555 1_555
O2A C6A 1_555 1_555
O3A C8A 1_555 1_555
O4A C11A 1_555 1_555
O5A C16A 1_555 1_555
O6A C18A 1_555 1_555
C1A C19 1_555 1_555
H1A C1A 1_555 1_555
C2A C1A 1_555 1_555
H2A C2A 1_555 1_555
H3A C2A 1_555 1_555
C3A C2A 1_555 1_555
H4A C3A 1_555 1_555
H5A C3A 1_555 1_555
C4A O1A 1_555 1_555
H6A C4A 1_555 1_555
C5A C4A 1_555 1_555
H7A C5A 1_555 1_555
H8A C5A 1_555 1_555
C6A C5A 1_555 1_555
H9A C6A 1_555 1_555
C7A C6A 1_555 1_555
H10A C7A 1_555 1_555
H11A C7A 1_555 1_555
H12A C7A 1_555 1_555
C8A O2A 1_555 1_555
C9A C8A 1_555 1_555
H13A C9A 1_555 1_555
C10A C9A 1_555 1_555
H14A C10A 1_555 1_555
H15A C10A 1_555 1_555
H16A C10A 1_555 1_555
C11A C9A 1_555 1_555
H17A C11A 1_555 1_555
C12A C11A 1_555 1_555
H18A C12A 1_555 1_555
H19A C12A 1_555 1_555
C13A C12A 1_555 1_555
H20A C13A 1_555 1_555
H21A C13A 1_555 1_555
C14A O4A 1_555 1_555
H22A C14A 1_555 1_555
C15A C14A 1_555 1_555
H23A C15A 1_555 1_555
H24A C15A 1_555 1_555
C16A C15A 1_555 1_555
H25A C16A 1_555 1_555
C17A C16A 1_555 1_555
H26A C17A 1_555 1_555
H27A C17A 1_555 1_555
H28A C17A 1_555 1_555
C18A O5A 1_555 1_555
C19A C1 1_555 1_555
H29A C19A 1_555 1_555
C20A C19A 1_555 1_555
H30A C20A 1_555 1_555
H31A C20A 1_555 1_555
H32A C20A 1_555 1_555
O7A C21A 1_555 1_555
O8A C26A 1_555 1_555
O9A C28A 1_555 1_555
O10A C31A 1_555 1_555
O11A C36A 1_555 1_555
O12A C38A 1_555 1_555
C21A C39 1_555 1_555
H33A C21A 1_555 1_555
C22A C21A 1_555 1_555
H34A C22A 1_555 1_555
H35A C22A 1_555 1_555
C23A C22A 1_555 1_555
H36A C23A 1_555 1_555
H37A C23A 1_555 1_555
C24A O7A 1_555 1_555
H38A C24A 1_555 1_555
C25A C24A 1_555 1_555
H39A C25A 1_555 1_555
H40A C25A 1_555 1_555
C26A C25A 1_555 1_555
H41A C26A 1_555 1_555
C27A C26A 1_555 1_555
H42A C27A 1_555 1_555
H43A C27A 1_555 1_555
H44A C27A 1_555 1_555
C28A O8A 1_555 1_555
C29A C28A 1_555 1_555
H45A C29A 1_555 1_555
C30A C29A 1_555 1_555
H46A C30A 1_555 1_555
H47A C30A 1_555 1_555
H48A C30A 1_555 1_555
C31A C29A 1_555 1_555
H49A C31A 1_555 1_555
C32A C31A 1_555 1_555
H50A C32A 1_555 1_555
H51A C32A 1_555 1_555
C33A C32A 1_555 1_555
H52A C33A 1_555 1_555
H53A C33A 1_555 1_555
C34A O10A 1_555 1_555
H54A C34A 1_555 1_555
C35A C34A 1_555 1_555
H55A C35A 1_555 1_555
H56A C35A 1_555 1_555
C36A C35A 1_555 1_555
H57A C36A 1_555 1_555
C37A C36A 1_555 1_555
H58A C37A 1_555 1_555
H59A C37A 1_555 1_555
H60A C37A 1_555 1_555
C38A O11A 1_555 1_555
C39A C21 1_555 1_555
H61A C39A 1_555 1_555
C40A C39A 1_555 1_555
H62A C40A 1_555 1_555
H63A C40A 1_555 1_555
H64A C40A 1_555 1_555
C3 C4 1_555 1_555
C13 C14 1_555 1_555
C23 C24 1_555 1_555
C33 C34 1_555 1_555
C3A C4A 1_555 1_555
C13A C14A 1_555 1_555
C18A C19A 1_555 1_555
C23A C24A 1_555 1_555
C33A C34A 1_555 1_555
C38A C39A 1_555 1_555

#END
