
#######################################################################
#
#                 Cambridge Crystallographic Data Centre
#                                CCDC 
#
#######################################################################
#
# If this CIF has been generated from an entry in the Cambridge 
# Structural Database, then it will include bibliographic, chemical, 
# crystal, experimental, refinement or atomic coordinate data resulting 
# from the CCDC's data processing and validation procedures.
#
#######################################################################

data_NONDIE
_chemical_formula_moiety         'C46 H38 F12 P1 1+,Br1 1-,H2 O1'
_chemical_name_systematic        
"(S)-2,6-bis(3,5-bis(trifluoromethyl)phenyl)-4,4-dibutyl-4,5-dihydro-3H-dinaphtho[2,1-c:1',2'-e]phosphepinium bromide monohydrate"
_symmetry_cell_setting           monoclinic
_symmetry_space_group_name_H-M   'P 21'
_symmetry_Int_Tables_number      4
_space_group_name_Hall           'P 2yb'
loop_
_symmetry_equiv_pos_site_id
_symmetry_equiv_pos_as_xyz
1 x,y,z
2 -x,1/2+y,-z
_cell_length_a                   8.3150(3)
_cell_length_b                   18.6786(10)
_cell_length_c                   13.5790(6)
_cell_angle_alpha                90
_cell_angle_beta                 92.441(2)
_cell_angle_gamma                90
_cell_volume                     2107.08
_cell_formula_units_Z            2
loop_
_atom_site_label
_atom_site_type_symbol
_atom_site_fract_x
_atom_site_fract_y
_atom_site_fract_z
Br1 Br 1.36385(13) 0.36645(7) 0.16528(8)
P1 P 0.8435(2) 0.33763(11) 0.07357(13)
F1 F 0.9361(7) 0.6055(3) 0.4908(5)
F2 F 1.3745(8) 0.2639(5) -0.2379(5)
F3 F 0.7577(6) 0.2035(3) -0.4974(3)
F4 F 0.4021(5) 0.3703(3) 0.4426(3)
F5 F 0.5941(6) 0.1627(2) -0.3953(3)
F6 F 1.1068(6) 0.5668(2) 0.3897(4)
F7 F 0.6150(5) 0.2766(2) -0.4154(3)
F8 F 0.4022(6) 0.4798(3) 0.3987(5)
F9 F 1.3058(8) 0.2426(5) -0.3851(5)
F10 F 1.1291(6) 0.5318(3) 0.5384(4)
F11 F 1.2628(9) 0.3377(4) -0.3317(8)
F12 F 0.4579(7) 0.4511(4) 0.5490(4)
C1 C 0.8938(7) 0.1649(4) -0.0617(4)
C2 C 0.8075(8) 0.0636(4) 0.0360(5)
C3 C 0.9624(8) 0.3003(3) 0.3321(5)
C4 C 0.8828(7) 0.3658(4) 0.3731(4)
C5 C 0.7194(7) 0.3678(4) 0.3936(4)
C6 C 0.9214(8) 0.1960(4) -0.1610(4)
C7 C 1.1942(8) 0.2201(4) 0.3421(4)
C8 C 0.8292(8) 0.0982(4) -0.0576(5)
C9 C 0.9111(8) 0.4847(4) 0.4387(5)
C10 C 1.1368(8) 0.1822(4) 0.2560(4)
C11 C 0.6532(8) 0.4285(4) 0.4342(5)
C12 C 0.9767(8) 0.4244(4) 0.3972(4)
C13 C 0.8000(8) 0.1939(4) -0.2351(5)
C14 C 1.0747(8) 0.2209(4) -0.1834(5)
C15 C 0.8273(8) 0.2180(4) -0.3276(5)
C16 C 0.8592(8) 0.0990(4) 0.1234(5)
C17 C 0.9860(7) 0.2058(4) 0.2081(4)
C18 C 0.7479(8) 0.4875(4) 0.4590(5)
C19 C 0.9429(7) 0.2024(4) 0.0272(5)
C20 C 0.9793(9) 0.2439(4) -0.3494(5)
C21 C 1.1011(9) 0.2459(4) -0.2784(5)
C22 C 0.8380(9) 0.0628(4) 0.2159(5)
C23 C 0.9051(8) 0.2647(4) 0.2431(5)
C24 C 0.7712(11) -0.0039(4) 0.2175(6)
C25 C 0.9256(8) 0.1678(4) 0.1171(5)
C26 C 0.7636(8) 0.2930(4) 0.1793(4)
C27 C 1.1057(8) 0.2761(4) 0.3769(4)
C28 C 0.4775(10) 0.4330(5) 0.4555(6)
C29 C 1.3485(9) 0.1993(4) 0.3836(5)
C30 C 0.7247(9) -0.0404(4) 0.1300(5)
C31 C 0.9991(8) 0.2797(4) 0.0297(5)
C32 C 0.9310(9) 0.4214(4) 0.1134(6)
C33 C 1.2314(9) 0.1270(5) 0.2161(6)
C34 C 0.7389(9) -0.0066(4) 0.0393(5)
C35 C 1.0174(10) 0.5472(5) 0.4656(6)
C36 C 0.6917(11) 0.3489(5) -0.0239(4)
C37 C 1.4365(10) 0.1461(5) 0.3433(6)
C38 C 0.6993(9) 0.2134(4) -0.4082(5)
C39 C 0.7205(11) 0.5252(5) 0.0956(7)
C40 C 0.8183(12) 0.4751(5) 0.1613(6)
C41 C 1.3789(10) 0.1093(4) 0.2609(6)
C42 C 0.6084(12) 0.5756(5) 0.1505(8)
C43 C 1.2580(10) 0.2719(5) -0.3058(6)
C44 C 0.7849(14) 0.4268(6) -0.2819(7)
C45 C 0.6876(17) 0.3985(8) -0.1966(9)
C46 C 0.779(2) 0.3872(9) -0.1141(7)
H1 H 0.6533 0.3272 0.3797
H2 H 0.7980 0.0740 -0.1169
H3 H 1.0884 0.4234 0.3850
H4 H 0.6970 0.1755 -0.2209
H5 H 1.1598 0.2208 -0.1345
H6 H 0.7032 0.5285 0.4890
H7 H 0.9983 0.2603 -0.4141
H8 H 0.8707 0.0856 0.2760
H9 H 0.7556 -0.0263 0.2792
H10 H 0.6997 0.3271 0.2176
H11 H 0.6927 0.2530 0.1575
H12 H 1.1447 0.2997 0.4351
H13 H 1.3906 0.2233 0.4408
H14 H 0.6838 -0.0878 0.1328
H15 H 1.0274 0.2948 -0.0373
H16 H 1.0968 0.2840 0.0736
H17 H 1.0214 0.4109 0.1611
H18 H 0.9771 0.4448 0.0556
H19 H 1.1937 0.1021 0.1586
H20 H 0.7033 -0.0300 -0.0198
H21 H 0.6473 0.3019 -0.0449
H22 H 0.6026 0.3791 -0.0013
H23 H 1.5389 0.1342 0.3723
H24 H 0.6545 0.4963 0.0480
H25 H 0.7950 0.5546 0.0575
H26 H 0.7425 0.4475 0.2008
H27 H 0.8845 0.5047 0.2080
H28 H 1.4410 0.0717 0.2348
H29 H 0.5498 0.6064 0.1028
H30 H 0.6725 0.6053 0.1968
H31 H 0.5314 0.5472 0.1867
H32 H 0.7137 0.4323 -0.3408
H33 H 0.8709 0.3928 -0.2956
H34 H 0.8321 0.4732 -0.2637
H35 H 0.6021 0.4335 -0.1824
H36 H 0.6346 0.3531 -0.2170
H37 H 0.8216 0.4339 -0.0906
H38 H 0.8721 0.3574 -0.1314
O1 O 1.4012(11) 0.2226(5) 0.0253(7)
loop_
_geom_bond_atom_site_label_1
_geom_bond_atom_site_label_2
_geom_bond_site_symmetry_1
_geom_bond_site_symmetry_2
P1 C26 1_555 1_555
F1 C35 1_555 1_555
F2 C43 1_555 1_555
F3 C38 1_555 1_555
F4 C28 1_555 1_555
F5 C38 1_555 1_555
F6 C35 1_555 1_555
F7 C38 1_555 1_555
F8 C28 1_555 1_555
F9 C43 1_555 1_555
F10 C35 1_555 1_555
F11 C43 1_555 1_555
F12 C28 1_555 1_555
C1 C6 1_555 1_555
C2 C8 1_555 1_555
C3 C4 1_555 1_555
C4 C5 1_555 1_555
C5 C11 1_555 1_555
C6 C13 1_555 1_555
C7 C10 1_555 1_555
C8 C1 1_555 1_555
C9 C12 1_555 1_555
C10 C17 1_555 1_555
C11 C18 1_555 1_555
C12 C4 1_555 1_555
C13 C15 1_555 1_555
C14 C6 1_555 1_555
C15 C20 1_555 1_555
C16 C2 1_555 1_555
C17 C23 1_555 1_555
C18 C9 1_555 1_555
C19 C1 1_555 1_555
C20 C21 1_555 1_555
C21 C14 1_555 1_555
C22 C16 1_555 1_555
C23 C3 1_555 1_555
C24 C22 1_555 1_555
C25 C16 1_555 1_555
C26 C23 1_555 1_555
C27 C3 1_555 1_555
C28 C11 1_555 1_555
C29 C7 1_555 1_555
C30 C24 1_555 1_555
C31 P1 1_555 1_555
C32 P1 1_555 1_555
C33 C10 1_555 1_555
C34 C2 1_555 1_555
C35 C9 1_555 1_555
C36 P1 1_555 1_555
C37 C29 1_555 1_555
C38 C15 1_555 1_555
C39 C40 1_555 1_555
C40 C32 1_555 1_555
C41 C33 1_555 1_555
C42 C39 1_555 1_555
C43 C21 1_555 1_555
C44 C45 1_555 1_555
C45 C46 1_555 1_555
C46 C36 1_555 1_555
H1 C5 1_555 1_555
H2 C8 1_555 1_555
H3 C12 1_555 1_555
H4 C13 1_555 1_555
H5 C14 1_555 1_555
H6 C18 1_555 1_555
H7 C20 1_555 1_555
H8 C22 1_555 1_555
H9 C24 1_555 1_555
H10 C26 1_555 1_555
H11 C26 1_555 1_555
H12 C27 1_555 1_555
H13 C29 1_555 1_555
H14 C30 1_555 1_555
H15 C31 1_555 1_555
H16 C31 1_555 1_555
H17 C32 1_555 1_555
H18 C32 1_555 1_555
H19 C33 1_555 1_555
H20 C34 1_555 1_555
H21 C36 1_555 1_555
H22 C36 1_555 1_555
H23 C37 1_555 1_555
H24 C39 1_555 1_555
H25 C39 1_555 1_555
H26 C40 1_555 1_555
H27 C40 1_555 1_555
H28 C41 1_555 1_555
H29 C42 1_555 1_555
H30 C42 1_555 1_555
H31 C42 1_555 1_555
H32 C44 1_555 1_555
H33 C44 1_555 1_555
H34 C44 1_555 1_555
H35 C45 1_555 1_555
H36 C45 1_555 1_555
H37 C46 1_555 1_555
H38 C46 1_555 1_555
C7 C27 1_555 1_555
C17 C25 1_555 1_555
C19 C25 1_555 1_555
C19 C31 1_555 1_555
C30 C34 1_555 1_555
C37 C41 1_555 1_555

#END
