
#######################################################################
#
#                 Cambridge Crystallographic Data Centre
#                                CCDC 
#
#######################################################################
#
# If this CIF has been generated from an entry in the Cambridge 
# Structural Database, then it will include bibliographic, chemical, 
# crystal, experimental, refinement or atomic coordinate data resulting 
# from the CCDC's data processing and validation procedures.
#
#######################################################################

data_NONDEA
_chemical_formula_moiety         'C3 H10 N1 1+,C5 H20 B11 O1 1-'
_chemical_name_systematic        
'trimethylammonium 1-methyl-2-(1-methoxyethyl)-1-carba-closo-dodecaborane'
_symmetry_cell_setting           monoclinic
_symmetry_space_group_name_H-M   'P 21/n'
_symmetry_Int_Tables_number      14
_space_group_name_Hall           '-P 2yn'
loop_
_symmetry_equiv_pos_site_id
_symmetry_equiv_pos_as_xyz
1 x,y,z
2 1/2-x,1/2+y,1/2-z
3 -x,-y,-z
4 1/2+x,1/2-y,1/2+z
_cell_length_a                   7.966(3)
_cell_length_b                   11.576(4)
_cell_length_c                   19.451(7)
_cell_angle_alpha                90
_cell_angle_beta                 94.581(6)
_cell_angle_gamma                90
_cell_volume                     1787.93
_exptl_crystal_colour            colorless
_exptl_crystal_description       block
_cell_formula_units_Z            4
_exptl_crystal_recrystallization_method acetone
loop_
_atom_site_label
_atom_site_type_symbol
_atom_site_fract_x
_atom_site_fract_y
_atom_site_fract_z
O1 O 0.1720(3) 0.3212(2) 0.24442(11)
C1 C 0.0656(4) 0.1883(3) 0.39227(14)
C2 C 0.2353(4) 0.1321(3) 0.38541(19)
H1 H 0.2708 0.1470 0.3402
H2 H 0.2261 0.0502 0.3921
H3 H 0.3165 0.1634 0.4195
C3 C 0.1630(4) 0.3785(3) 0.31067(16)
H4 H 0.2722 0.3692 0.3371
C4 C 0.1319(6) 0.5076(3) 0.2997(2)
H5 H 0.2194 0.5396 0.2743
H6 H 0.1318 0.5454 0.3436
H7 H 0.0249 0.5189 0.2742
C5 C 0.3325(4) 0.3301(4) 0.2179(2)
H8 H 0.3304 0.2908 0.1744
H9 H 0.4161 0.2956 0.2497
H10 H 0.3594 0.4101 0.2116
B1 B 0.0234(4) 0.3192(3) 0.35306(17)
B2 B -0.0806(4) 0.1908(3) 0.32260(17)
H20 H -0.0599 0.1545 0.2717
B3 B -0.1067(5) 0.1015(4) 0.39344(18)
H21 H -0.1022 0.0069 0.3889
B4 B -0.0240(5) 0.1729(4) 0.46847(19)
H22 H 0.0339 0.1247 0.5130
B5 B 0.0565(5) 0.3067(3) 0.44401(18)
H23 H 0.1668 0.3465 0.4724
B6 B -0.1970(5) 0.3179(3) 0.3322(2)
H24 H -0.2540 0.3659 0.2874
B7 B -0.2787(5) 0.1838(4) 0.3564(2)
H25 H -0.3884 0.1443 0.3275
B8 B -0.2430(6) 0.1714(4) 0.4473(2)
H26 H -0.3299 0.1228 0.4776
B9 B -0.1394(5) 0.2984(4) 0.4794(2)
H27 H -0.1580 0.3331 0.5308
B10 B -0.1122(5) 0.3898(4) 0.4071(2)
H28 H -0.1142 0.4846 0.4112
B11 B -0.2985(5) 0.3056(4) 0.4105(2)
H29 H -0.4214 0.3454 0.4174
N1 N -0.5860(3) 0.2493(2) 0.63925(14)
C6 C -0.5214(6) 0.3551(4) 0.6083(3)
H11 H -0.4038 0.3457 0.6020
H12 H -0.5362 0.4195 0.6383
H13 H -0.5821 0.3689 0.5644
C7 C -0.5586(6) 0.1456(4) 0.5970(2)
H14 H -0.6023 0.0788 0.6188
H15 H -0.4402 0.1356 0.5929
H16 H -0.6157 0.1551 0.5520
C8 C -0.7666(5) 0.2636(4) 0.64890(19)
H17 H -0.8090 0.1941 0.6682
H18 H -0.8270 0.2789 0.6052
H19 H -0.7812 0.3270 0.6796
H30 H -0.524(5) 0.237(3) 0.689(2)
loop_
_geom_bond_atom_site_label_1
_geom_bond_atom_site_label_2
_geom_bond_site_symmetry_1
_geom_bond_site_symmetry_2
O1 C3 1_555 1_555
N1 C6 1_555 1_555
C1 C2 1_555 1_555
C2 H1 1_555 1_555
H2 C2 1_555 1_555
H3 C2 1_555 1_555
C3 H4 1_555 1_555
C4 C3 1_555 1_555
H5 C4 1_555 1_555
H6 C4 1_555 1_555
H7 C4 1_555 1_555
C5 O1 1_555 1_555
H8 C5 1_555 1_555
H9 C5 1_555 1_555
H10 C5 1_555 1_555
C6 H11 1_555 1_555
H12 C6 1_555 1_555
H13 C6 1_555 1_555
C7 N1 1_555 1_555
H14 C7 1_555 1_555
H15 C7 1_555 1_555
H16 C7 1_555 1_555
C8 N1 1_555 1_555
H17 C8 1_555 1_555
H18 C8 1_555 1_555
H19 C8 1_555 1_555
B1 C1 1_555 1_555
B2 C1 1_555 1_555
H20 B2 1_555 1_555
B3 C1 1_555 1_555
H21 B3 1_555 1_555
B4 C1 1_555 1_555
H22 B4 1_555 1_555
B5 C1 1_555 1_555
H23 B5 1_555 1_555
B6 B1 1_555 1_555
H24 B6 1_555 1_555
B7 B2 1_555 1_555
H25 B7 1_555 1_555
B8 B3 1_555 1_555
H26 B8 1_555 1_555
B9 B4 1_555 1_555
H27 B9 1_555 1_555
B10 B1 1_555 1_555
H28 B10 1_555 1_555
B11 B6 1_555 1_555
H29 B11 1_555 1_555
H30 N1 1_555 1_555
C3 B1 1_555 1_555
B1 B2 1_555 1_555
B1 B5 1_555 1_555
B2 B3 1_555 1_555
B2 B6 1_555 1_555
B3 B4 1_555 1_555
B3 B7 1_555 1_555
B4 B5 1_555 1_555
B4 B8 1_555 1_555
B5 B9 1_555 1_555
B5 B10 1_555 1_555
B6 B7 1_555 1_555
B6 B10 1_555 1_555
B7 B8 1_555 1_555
B7 B11 1_555 1_555
B8 B9 1_555 1_555
B8 B11 1_555 1_555
B9 B10 1_555 1_555
B9 B11 1_555 1_555
B10 B11 1_555 1_555

#END
