
#######################################################################
#
#                 Cambridge Crystallographic Data Centre
#                                CCDC 
#
#######################################################################
#
# If this CIF has been generated from an entry in the Cambridge 
# Structural Database, then it will include bibliographic, chemical, 
# crystal, experimental, refinement or atomic coordinate data resulting 
# from the CCDC's data processing and validation procedures.
#
#######################################################################

data_NONDAW
_chemical_formula_moiety         'C23 H32 B11 P1,C1 H2 Cl2'
_chemical_name_systematic        
'1,2-(4-(triphenylphosphonio)butylene)-1-carba-closo-dodecaborane dichloromethane solvate'
_symmetry_cell_setting           orthorhombic
_symmetry_space_group_name_H-M   'P 21 21 21'
_symmetry_Int_Tables_number      19
_space_group_name_Hall           'P 2ac 2ab'
loop_
_symmetry_equiv_pos_site_id
_symmetry_equiv_pos_as_xyz
1 x,y,z
2 1/2-x,-y,1/2+z
3 -x,1/2+y,1/2-z
4 1/2+x,1/2-y,-z
_cell_length_a                   10.6285(5)
_cell_length_b                   12.9424(6)
_cell_length_c                   21.7636(10)
_cell_angle_alpha                90
_cell_angle_beta                 90
_cell_angle_gamma                90
_cell_volume                     2993.76
_exptl_crystal_colour            colorless
_exptl_crystal_description       block
_cell_formula_units_Z            4
_exptl_crystal_recrystallization_method dichloromethane
loop_
_atom_site_label
_atom_site_type_symbol
_atom_site_fract_x
_atom_site_fract_y
_atom_site_fract_z
P1 P 0.19061(7) 0.54263(5) 0.12773(3)
C1 C 0.3012(3) 0.8128(2) 0.23743(11)
C2 C 0.2410(4) 0.7765(3) 0.29679(13)
H1 H 0.1557 0.8029 0.2989
H2 H 0.2874 0.8051 0.3312
C3 C 0.2375(4) 0.6586(3) 0.30297(13)
H3 H 0.3226 0.6329 0.3078
H4 H 0.1906 0.6403 0.3396
C4 C 0.1770(3) 0.6068(2) 0.24748(13)
H5 H 0.0986 0.6415 0.2377
H6 H 0.1579 0.5354 0.2573
C5 C 0.2662(3) 0.6106(2) 0.19061(12)
H7 H 0.3411 0.5704 0.2015
C6 C 0.1656(3) 0.4087(2) 0.14879(13)
C7 C 0.2288(3) 0.3609(3) 0.19649(17)
H8 H 0.2845 0.3985 0.2207
C8 C 0.2092(4) 0.2580(3) 0.20807(19)
H9 H 0.2515 0.2264 0.2404
C9 C 0.1292(4) 0.2018(3) 0.17315(19)
H10 H 0.1152 0.1326 0.1823
C10 C 0.0687(4) 0.2465(2) 0.12434(18)
H11 H 0.0163 0.2072 0.0994
C11 C 0.0861(3) 0.3504(2) 0.11247(15)
H12 H 0.0439 0.3813 0.0798
C12 C 0.0381(3) 0.5962(2) 0.11045(12)
C13 C -0.0665(3) 0.5637(3) 0.14399(14)
H13 H -0.0578 0.5123 0.1736
C14 C -0.1825(4) 0.6074(3) 0.13342(18)
H14 H -0.2519 0.5864 0.1562
C15 C -0.1954(4) 0.6823(3) 0.08895(16)
H15 H -0.2742 0.7109 0.0816
C16 C -0.0951(3) 0.7150(2) 0.05570(15)
H16 H -0.1056 0.7658 0.0259
C17 C 0.0225(3) 0.6732(2) 0.06598(13)
H17 H 0.0913 0.6961 0.0434
C18 C 0.2862(3) 0.5355(2) 0.05934(13)
C19 C 0.2306(3) 0.5286(2) 0.00130(13)
H18 H 0.1436 0.5327 -0.0024
C20 C 0.3037(4) 0.5158(3) -0.05060(16)
H19 H 0.2666 0.5121 -0.0892
C21 C 0.4326(5) 0.5085(3) -0.04447(19)
H20 H 0.4825 0.4999 -0.0792
C22 C 0.4872(4) 0.5137(3) 0.0118(2)
H21 H 0.5742 0.5080 0.0150
C23 C 0.4164(3) 0.5271(3) 0.06429(17)
H22 H 0.4552 0.5306 0.1025
B1 B 0.3142(3) 0.7276(2) 0.17688(13)
B2 B 0.2063(3) 0.8315(2) 0.17443(13)
H23 H 0.1043 0.8174 0.1738
B3 B 0.2724(4) 0.9373(3) 0.21479(15)
H24 H 0.2128 0.9916 0.2406
B4 B 0.4230(4) 0.9008(3) 0.24202(16)
H25 H 0.4617 0.9314 0.2852
B5 B 0.4484(3) 0.7715(3) 0.21915(16)
H26 H 0.5037 0.7182 0.2477
B6 B 0.3031(3) 0.8058(2) 0.11026(13)
H27 H 0.2646 0.7754 0.0670
B7 B 0.2755(3) 0.9354(2) 0.13376(16)
H28 H 0.2187 0.9890 0.1061
B8 B 0.4097(4) 0.9780(3) 0.17549(17)
H29 H 0.4400 1.0592 0.1749
B9 B 0.5189(4) 0.8749(3) 0.17790(18)
H30 H 0.6210 0.8888 0.1788
B10 B 0.4532(3) 0.7678(3) 0.13771(16)
H31 H 0.5124 0.7122 0.1127
B11 B 0.4291(4) 0.8959(3) 0.11110(15)
H32 H 0.4727 0.9238 0.0684
Cl1 Cl 0.0308(2) 0.2805(2) -0.05556(9)
Cl2 Cl -0.1893(2) 0.3341(3) 0.01165(11)
C24 C -0.1214(7) 0.3058(8) -0.0559(3)
H33 H -0.1645 0.2464 -0.0731
H34 H -0.1356 0.3634 -0.0835
loop_
_geom_bond_atom_site_label_1
_geom_bond_atom_site_label_2
_geom_bond_site_symmetry_1
_geom_bond_site_symmetry_2
P1 C5 1_555 1_555
C1 C2 1_555 1_555
C2 H1 1_555 1_555
H2 C2 1_555 1_555
C3 C2 1_555 1_555
H3 C3 1_555 1_555
H4 C3 1_555 1_555
C4 C3 1_555 1_555
H5 C4 1_555 1_555
H6 C4 1_555 1_555
C5 C4 1_555 1_555
H7 C5 1_555 1_555
C6 P1 1_555 1_555
C7 C6 1_555 1_555
H8 C7 1_555 1_555
C8 C7 1_555 1_555
H9 C8 1_555 1_555
C9 C8 1_555 1_555
H10 C9 1_555 1_555
C10 C9 1_555 1_555
H11 C10 1_555 1_555
C11 C6 1_555 1_555
H12 C11 1_555 1_555
C12 P1 1_555 1_555
C13 C12 1_555 1_555
H13 C13 1_555 1_555
C14 C13 1_555 1_555
H14 C14 1_555 1_555
C15 C14 1_555 1_555
H15 C15 1_555 1_555
C16 C15 1_555 1_555
H16 C16 1_555 1_555
C17 C12 1_555 1_555
H17 C17 1_555 1_555
C18 P1 1_555 1_555
C19 C18 1_555 1_555
H18 C19 1_555 1_555
C20 C19 1_555 1_555
H19 C20 1_555 1_555
C21 C20 1_555 1_555
H20 C21 1_555 1_555
C22 C21 1_555 1_555
H21 C22 1_555 1_555
C23 C18 1_555 1_555
H22 C23 1_555 1_555
B1 C1 1_555 1_555
B2 C1 1_555 1_555
H23 B2 1_555 1_555
B3 C1 1_555 1_555
H24 B3 1_555 1_555
B4 C1 1_555 1_555
H25 B4 1_555 1_555
B5 C1 1_555 1_555
H26 B5 1_555 1_555
B6 B1 1_555 1_555
H27 B6 1_555 1_555
B7 B2 1_555 1_555
H28 B7 1_555 1_555
B8 B3 1_555 1_555
H29 B8 1_555 1_555
B9 B4 1_555 1_555
H30 B9 1_555 1_555
B10 B1 1_555 1_555
H31 B10 1_555 1_555
B11 B6 1_555 1_555
H32 B11 1_555 1_555
Cl1 C24 1_555 1_555
Cl2 C24 1_555 1_555
C24 H33 1_555 1_555
H34 C24 1_555 1_555
C5 B1 1_555 1_555
C10 C11 1_555 1_555
C16 C17 1_555 1_555
C22 C23 1_555 1_555
B1 B2 1_555 1_555
B1 B5 1_555 1_555
B2 B3 1_555 1_555
B2 B6 1_555 1_555
B3 B4 1_555 1_555
B3 B7 1_555 1_555
B4 B5 1_555 1_555
B4 B8 1_555 1_555
B5 B9 1_555 1_555
B5 B10 1_555 1_555
B6 B7 1_555 1_555
B6 B10 1_555 1_555
B7 B8 1_555 1_555
B7 B11 1_555 1_555
B8 B9 1_555 1_555
B8 B11 1_555 1_555
B9 B10 1_555 1_555
B9 B11 1_555 1_555
B10 B11 1_555 1_555

#END
