
#######################################################################
#
#                 Cambridge Crystallographic Data Centre
#                                CCDC 
#
#######################################################################
#
# If this CIF has been generated from an entry in the Cambridge 
# Structural Database, then it will include bibliographic, chemical, 
# crystal, experimental, refinement or atomic coordinate data resulting 
# from the CCDC's data processing and validation procedures.
#
#######################################################################

data_NONQUC
_chemical_formula_moiety         'C23 H32 Li1 N1 O1 Si1'
_chemical_name_systematic        
(\h^2^-9-((Isopropylamino)dimethylsilylmethyl)fluorenyl)-tetrahydrofuran-lithium
_symmetry_cell_setting           orthorhombic
_symmetry_space_group_name_H-M   'P b c a'
_symmetry_Int_Tables_number      61
_space_group_name_Hall           '-P 2ac 2ab'
loop_
_symmetry_equiv_pos_site_id
_symmetry_equiv_pos_as_xyz
1 x,y,z
2 1/2-x,-y,1/2+z
3 1/2+x,1/2-y,-z
4 -x,1/2+y,1/2-z
5 -x,-y,-z
6 1/2+x,y,1/2-z
7 1/2-x,1/2+y,z
8 x,1/2-y,1/2+z
_cell_length_a                   8.538(2)
_cell_length_b                   15.665(3)
_cell_length_c                   32.392(4)
_cell_angle_alpha                90
_cell_angle_beta                 90
_cell_angle_gamma                90
_cell_volume                     4332.36
_exptl_crystal_colour            red
_chemical_melting_point          85-89deg.C
_cell_formula_units_Z            8
_chemical_properties_physical    Air-sensitive
_exptl_crystal_recrystallization_method toluene/hexane/tetrahydrofuran
loop_
_atom_site_label
_atom_site_type_symbol
_atom_site_fract_x
_atom_site_fract_y
_atom_site_fract_z
Li1 Li 0.3777(9) 0.1553(4) 0.3658(2)
N1 N 0.2920(4) 0.2622(2) 0.4006(1)
Si1 Si 0.1026(1) 0.2289(1) 0.4143(1)
C1 C 0.2264(5) 0.0629(2) 0.4027(1)
C2 C 0.1915(4) 0.0312(2) 0.3629(1)
C3 C 0.0520(5) 0.0309(2) 0.3391(1)
C4 C 0.0513(5) -0.0036(2) 0.3003(1)
C5 C 0.1873(5) -0.0392(2) 0.2830(1)
C6 C 0.3238(5) -0.0428(2) 0.3053(1)
C7 C 0.3294(4) -0.0083(2) 0.3455(1)
C8 C 0.4503(4) -0.0020(2) 0.3759(1)
C9 C 0.6088(5) -0.0267(2) 0.3762(1)
C10 C 0.6989(5) -0.0119(2) 0.4107(1)
C11 C 0.6331(5) 0.0267(2) 0.4458(1)
C12 C 0.4804(5) 0.0526(2) 0.4465(1)
C13 C 0.3841(5) 0.0405(2) 0.4112(1)
C14 C 0.1204(4) 0.1141(2) 0.4304(1)
C15 C -0.0133(5) 0.2419(2) 0.3663(1)
C16 C 0.0115(5) 0.2904(2) 0.4569(1)
C17 C 0.4084(5) 0.2817(2) 0.4338(1)
C18 C 0.3897(5) 0.3721(2) 0.4508(1)
C19 C 0.5741(5) 0.2678(3) 0.4187(1)
O1 O 0.5008(3) 0.1856(2) 0.3196(1)
C20 C 0.6019(5) 0.1302(2) 0.2968(1)
C21 C 0.6780(7) 0.1815(3) 0.2645(2)
C22 C 0.6166(8) 0.2668(3) 0.2678(2)
C23 C 0.5144(6) 0.2706(2) 0.3031(1)
H1 H -0.0393(5) 0.0542(2) 0.3499(1)
H2 H -0.0410(5) -0.0034(2) 0.2850(1)
H3 H 0.1849(5) -0.0605(2) 0.2563(1)
H4 H 0.4125(5) -0.0679(2) 0.2939(1)
H5 H 0.6526(5) -0.0528(2) 0.3531(1)
H6 H 0.8039(5) -0.0276(2) 0.4108(1)
H7 H 0.6951(5) 0.0348(2) 0.4691(1)
H8 H 0.4395(5) 0.0782(2) 0.4701(1)
H9 H 0.1605(4) 0.1117(2) 0.4584(1)
H10 H 0.0171(4) 0.0883(2) 0.4304(1)
H11 H 0.0388(14) 0.2133(12) 0.3439(2)
H12 H -0.0232(23) 0.3015(2) 0.3599(4)
H13 H -0.1155(10) 0.2176(13) 0.3701(3)
H14 H 0.0792(14) 0.2895(13) 0.4806(3)
H15 H -0.0874(14) 0.2652(10) 0.4640(5)
H16 H -0.0045(27) 0.3483(5) 0.4482(3)
H17 H 0.3897(5) 0.2417(2) 0.4565(1)
H18 H 0.2858(11) 0.3790(6) 0.4617(7)
H19 H 0.4067(31) 0.4127(2) 0.4291(2)
H20 H 0.4648(21) 0.3813(6) 0.4724(6)
H21 H 0.5867(9) 0.2094(5) 0.4103(7)
H22 H 0.6464(5) 0.2805(15) 0.4405(3)
H23 H 0.5944(11) 0.3046(12) 0.3956(5)
H24 H 0.5420(5) 0.0843(2) 0.2844(1)
H25 H 0.6801(5) 0.1055(2) 0.3149(1)
H26 H 0.7906(7) 0.1817(3) 0.2684(2)
H27 H 0.6552(7) 0.1580(3) 0.2374(2)
H28 H 0.7017(8) 0.3073(3) 0.2710(2)
H29 H 0.5590(8) 0.2815(3) 0.2430(2)
H30 H 0.5574(6) 0.3088(2) 0.3238(1)
H31 H 0.4121(6) 0.2918(2) 0.2950(1)
H32 H 0.2865(45) 0.3030(22) 0.3854(11)
loop_
_geom_bond_atom_site_label_1
_geom_bond_atom_site_label_2
_geom_bond_site_symmetry_1
_geom_bond_site_symmetry_2
Li1 N1 1_555 1_555
N1 Si1 1_555 1_555
Si1 C14 1_555 1_555
C1 Li1 1_555 1_555
C2 C1 1_555 1_555
C3 C2 1_555 1_555
C4 C3 1_555 1_555
C5 C4 1_555 1_555
C6 C5 1_555 1_555
C7 C2 1_555 1_555
C8 C7 1_555 1_555
C9 C8 1_555 1_555
C10 C9 1_555 1_555
C11 C10 1_555 1_555
C12 C11 1_555 1_555
C13 Li1 1_555 1_555
C14 C1 1_555 1_555
C15 Si1 1_555 1_555
C16 Si1 1_555 1_555
C17 N1 1_555 1_555
C18 C17 1_555 1_555
C19 C17 1_555 1_555
O1 Li1 1_555 1_555
C20 O1 1_555 1_555
C21 C20 1_555 1_555
C22 C21 1_555 1_555
C23 O1 1_555 1_555
H1 C3 1_555 1_555
H2 C4 1_555 1_555
H3 C5 1_555 1_555
H4 C6 1_555 1_555
H5 C9 1_555 1_555
H6 C10 1_555 1_555
H7 C11 1_555 1_555
H8 C12 1_555 1_555
H9 C14 1_555 1_555
H10 C14 1_555 1_555
H11 C15 1_555 1_555
H12 C15 1_555 1_555
H13 C15 1_555 1_555
H14 C16 1_555 1_555
H15 C16 1_555 1_555
H16 C16 1_555 1_555
H17 C17 1_555 1_555
H18 C18 1_555 1_555
H19 C18 1_555 1_555
H20 C18 1_555 1_555
H21 C19 1_555 1_555
H22 C19 1_555 1_555
H23 C19 1_555 1_555
H24 C20 1_555 1_555
H25 C20 1_555 1_555
H26 C21 1_555 1_555
H27 C21 1_555 1_555
H28 C22 1_555 1_555
H29 C22 1_555 1_555
H30 C23 1_555 1_555
H31 C23 1_555 1_555
H32 N1 1_555 1_555
C1 C13 1_555 1_555
C6 C7 1_555 1_555
C8 C13 1_555 1_555
C12 C13 1_555 1_555
C22 C23 1_555 1_555

#END
