
#######################################################################
#
#                 Cambridge Crystallographic Data Centre
#                                CCDC 
#
#######################################################################
#
# If this CIF has been generated from an entry in the Cambridge 
# Structural Database, then it will include bibliographic, chemical, 
# crystal, experimental, refinement or atomic coordinate data resulting 
# from the CCDC's data processing and validation procedures.
#
#######################################################################

data_NOPFOO
_chemical_name_common            
'Pyridine-2-carboxaldehyde-4-aminoantipyrinium perchlorate'
_chemical_formula_moiety         'C17 H17 N4 O1 1+,Cl1 O4 1-'
_chemical_name_systematic        
'1,5-Dimethyl-2-phenyl-4-((pyridinium-4-ylmethylidene)amino)-1,2-dihydro-3H-pyrazol-3-one perchlorate'
_symmetry_cell_setting           monoclinic
_symmetry_space_group_name_H-M   'P 21/c'
_symmetry_Int_Tables_number      14
_space_group_name_Hall           '-P 2ybc'
loop_
_symmetry_equiv_pos_site_id
_symmetry_equiv_pos_as_xyz
1 x,y,z
2 -x,1/2+y,1/2-z
3 -x,-y,-z
4 x,1/2-y,1/2+z
_cell_length_a                   5.930(2)
_cell_length_b                   20.347(7)
_cell_length_c                   14.663(6)
_cell_angle_alpha                90
_cell_angle_beta                 90.200(9)
_cell_angle_gamma                90
_cell_volume                     1769.19
_exptl_crystal_colour            colorless
_exptl_crystal_description       needle
_cell_formula_units_Z            4
loop_
_atom_site_label
_atom_site_type_symbol
_atom_site_fract_x
_atom_site_fract_y
_atom_site_fract_z
O1 O 0.46183(15) 0.68858(4) 0.81184(6)
N1 N 1.23268(18) 0.74758(5) 0.44545(8)
H1 H 1.3340 0.7598 0.4072
N2 N 0.58972(19) 0.64692(5) 0.61083(7)
N3 N 0.17898(18) 0.61116(6) 0.78513(7)
N4 N 0.12570(18) 0.56820(6) 0.71472(8)
C1 C 0.9091(2) 0.70945(6) 0.56842(9)
C2 C 0.9011(2) 0.68836(7) 0.47763(9)
H2 H 0.7859 0.6607 0.4581
C3 C 1.0646(3) 0.70879(7) 0.41708(11)
H3 H 1.0578 0.6955 0.3564
C4 C 1.2466(2) 0.76773(7) 0.53155(10)
H4 H 1.3653 0.7948 0.5493
C5 C 1.0889(2) 0.74927(7) 0.59443(10)
H5 H 1.1019 0.7633 0.6546
C6 C 0.7334(2) 0.69034(7) 0.63370(10)
H6 H 0.7274 0.7098 0.6910
C7 C 0.4185(2) 0.62680(7) 0.66965(9)
C8 C 0.3702(2) 0.64784(7) 0.76089(9)
C9 C 0.2653(2) 0.57857(7) 0.64502(10)
C10 C 0.2465(3) 0.54295(8) 0.55698(10)
H7 H 0.2590 0.4965 0.5676
H8 H 0.3651 0.5569 0.5170
H9 H 0.1030 0.5524 0.5294
C11 C -0.0645(2) 0.52344(7) 0.72113(10)
H10 H -0.1149 0.5119 0.6609
H11 H -0.1851 0.5444 0.7535
H12 H -0.0191 0.4845 0.7532
C12 C 0.1114(2) 0.59966(7) 0.87822(9)
C13 C 0.2639(2) 0.56949(7) 0.93623(10)
H13 H 0.4010 0.5540 0.9144
C14 C 0.2089(2) 0.56284(7) 1.02736(10)
H14 H 0.3116 0.5437 1.0674
C15 C 0.0034(3) 0.58426(7) 1.05944(10)
H15 H -0.0321 0.5800 1.1209
C16 C -0.1477(2) 0.61180(7) 1.00022(10)
H16 H -0.2885 0.6245 1.0216
C17 C -0.0960(2) 0.62140(7) 0.90811(10)
H17 H -0.1974 0.6416 0.8686
Cl1 Cl 0.46082(7) 0.38765(2) 0.73837(3)
O2 O 0.5008(4) 0.40035(11) 0.64440(13)
O3 O 0.6556(3) 0.35492(10) 0.77275(16)
O4 O 0.2638(3) 0.35055(10) 0.75125(16)
O5 O 0.4351(3) 0.44977(8) 0.78395(13)
O6? O 0.5702(5) 0.37760(15) 0.65446(15)
O7? O 0.5241(5) 0.34312(12) 0.80549(18)
O8? O 0.2299(4) 0.37750(18) 0.7189(2)
O9? O 0.4817(5) 0.45330(11) 0.7704(2)
loop_
_geom_bond_atom_site_label_1
_geom_bond_atom_site_label_2
_geom_bond_site_symmetry_1
_geom_bond_site_symmetry_2
O1 C8 1_555 1_555
N1 H1 1_555 1_555
N2 C6 1_555 1_555
N3 N4 1_555 1_555
N4 C9 1_555 1_555
C1 C2 1_555 1_555
C2 H2 1_555 1_555
C3 N1 1_555 1_555
H3 C3 1_555 1_555
C4 N1 1_555 1_555
H4 C4 1_555 1_555
C5 C1 1_555 1_555
H5 C5 1_555 1_555
C6 C1 1_555 1_555
H6 C6 1_555 1_555
C7 N2 1_555 1_555
C8 N3 1_555 1_555
C9 C7 1_555 1_555
C10 C9 1_555 1_555
H7 C10 1_555 1_555
H8 C10 1_555 1_555
H9 C10 1_555 1_555
C11 N4 1_555 1_555
H10 C11 1_555 1_555
H11 C11 1_555 1_555
H12 C11 1_555 1_555
C12 N3 1_555 1_555
C13 C12 1_555 1_555
H13 C13 1_555 1_555
C14 C13 1_555 1_555
H14 C14 1_555 1_555
C15 C14 1_555 1_555
H15 C15 1_555 1_555
C16 C15 1_555 1_555
H16 C16 1_555 1_555
C17 C12 1_555 1_555
H17 C17 1_555 1_555
Cl1 O2 1_555 1_555
O3 Cl1 1_555 1_555
O4 Cl1 1_555 1_555
O5 Cl1 1_555 1_555
C2 C3 1_555 1_555
C4 C5 1_555 1_555
C7 C8 1_555 1_555
C16 C17 1_555 1_555

#END
