
#######################################################################
#
#                 Cambridge Crystallographic Data Centre
#                                CCDC 
#
#######################################################################
#
# If this CIF has been generated from an entry in the Cambridge 
# Structural Database, then it will include bibliographic, chemical, 
# crystal, experimental, refinement or atomic coordinate data resulting 
# from the CCDC's data processing and validation procedures.
#
#######################################################################

data_NOPYOI
_chemical_formula_moiety         'C23 H37 N5 O1 2+,2(B1 F4 1-)'
_chemical_name_systematic        
"1,4-bis(Dimethylamino)-2-((dimethylamino)methylene)-N,N,N',N'-tetramethyl-3-(2-oxo-2-phenylethylidene)butane-1,4-di-iminium bis(tetrafluoroborate)"
_symmetry_cell_setting           monoclinic
_symmetry_space_group_name_H-M   'P 21/a'
_symmetry_Int_Tables_number      14
_space_group_name_Hall           '-P 2yab'
loop_
_symmetry_equiv_pos_site_id
_symmetry_equiv_pos_as_xyz
1 x,y,z
2 1/2-x,1/2+y,-z
3 -x,-y,-z
4 1/2+x,1/2-y,z
_cell_length_a                   15.1401(3)
_cell_length_b                   9.9531(4)
_cell_length_c                   19.4927(5)
_cell_angle_alpha                90
_cell_angle_beta                 91.686(2)
_cell_angle_gamma                90
_cell_volume                     2936.1
_exptl_crystal_colour            yellow
_exptl_crystal_description       prism
_cell_formula_units_Z            4
loop_
_atom_site_label
_atom_site_type_symbol
_atom_site_fract_x
_atom_site_fract_y
_atom_site_fract_z
C1 C 0.5128(2) -0.0699(4) 0.81600(16)
C2 C 0.58156(18) 0.0061(3) 0.77633(15)
C3 C 0.6255(2) 0.1070(3) 0.80909(16)
H1 H 0.6712 0.1481 0.7861
C4 C 0.6066(2) 0.1560(3) 0.87752(16)
C5 C 0.6695(2) 0.2545(4) 0.91044(16)
C6 C 0.6361(3) 0.3526(4) 0.95335(18)
H2 H 0.5756 0.3564 0.9603
C7 C 0.6910(3) 0.4438(5) 0.9855(2)
H3 H 0.6678 0.5117 1.0124
C8 C 0.7815(3) 0.4337(5) 0.9775(2)
H4 H 0.8193 0.4930 1.0008
C9 C 0.8161(3) 0.3371(5) 0.9356(2)
H5 H 0.8769 0.3318 0.9304
C10 C 0.7600(2) 0.2469(4) 0.90103(17)
H6 H 0.7829 0.1825 0.8720
C11 C 0.59631(18) -0.0368(3) 0.70699(15)
C12 C 0.56230(19) -0.1594(3) 0.68331(16)
H7 H 0.5320 -0.2080 0.7159
C13 C 0.5952(3) -0.1522(5) 0.56056(19)
H8 H 0.5895 -0.0566 0.5651
H9 H 0.5594 -0.1825 0.5221
H10 H 0.6558 -0.1749 0.5534
C14 C 0.5303(3) -0.3524(4) 0.6124(2)
H11 H 0.5215 -0.3948 0.6559
H12 H 0.5713 -0.4043 0.5866
H13 H 0.4749 -0.3468 0.5873
C15 C 0.6580(2) 0.0437(4) 0.66741(15)
C16 C 0.5454(3) 0.2106(6) 0.6395(3)
H14 H 0.5076 0.1331 0.6389
H15 H 0.5379 0.2585 0.5970
H16 H 0.5304 0.2682 0.6769
C17 C 0.7029(4) 0.2756(6) 0.6422(3)
H17 H 0.7603 0.2410 0.6547
H18 H 0.6886 0.3482 0.6723
H19 H 0.7029 0.3075 0.5957
C18 C 0.7922(3) 0.0363(7) 0.5983(3)
H20 H 0.7574 0.0912 0.5674
H21 H 0.8129 -0.0413 0.5744
H22 H 0.8418 0.0871 0.6158
C19 C 0.7709(3) -0.1242(5) 0.6922(3)
H23 H 0.7513 -0.1219 0.7386
H24 H 0.8344 -0.1243 0.6924
H25 H 0.7490 -0.2040 0.6699
C20 C 0.4033(2) 0.0861(4) 0.7699(2)
H26 H 0.4542 0.1435 0.7686
H27 H 0.3583 0.1287 0.7959
H28 H 0.3813 0.0700 0.7239
C21 C 0.3553(3) -0.1333(5) 0.8134(2)
H29 H 0.3782 -0.2223 0.8207
H30 H 0.3157 -0.1332 0.7740
H31 H 0.3240 -0.1053 0.8531
C22 C 0.4890(3) -0.2054(5) 0.9190(2)
H32 H 0.4483 -0.1355 0.9304
H33 H 0.5289 -0.2214 0.9572
H34 H 0.4568 -0.2863 0.9083
C23 C 0.6272(3) -0.2236(5) 0.8575(2)
H35 H 0.6559 -0.1954 0.8167
H36 H 0.6222 -0.3197 0.8578
H37 H 0.6613 -0.1949 0.8971
N1 N 0.42787(17) -0.0410(3) 0.80200(15)
N2 N 0.5394(2) -0.1641(3) 0.85902(14)
N3 N 0.6367(2) 0.1681(3) 0.64807(16)
N4 N 0.73786(18) -0.0066(4) 0.65550(16)
N5 N 0.56560(17) -0.2176(3) 0.62346(14)
O1 O 0.54154(15) 0.1193(3) 0.90828(12)
B1 B 0.4531(5) 0.4626(6) 0.7957(3)
F1 F 0.5333(5) 0.3955(6) 0.7947(4)
F2 F 0.4718(2) 0.5909(3) 0.77592(18)
F3 F 0.4322(7) 0.4572(10) 0.8571(3)
F4 F 0.4009(3) 0.3996(4) 0.7495(3)
B2 B 0.3311(3) -0.0787(6) 0.5814(3)
F5 F 0.2460(2) -0.0827(6) 0.5839(3)
F6 F 0.3583(3) 0.0508(4) 0.5748(2)
F7 F 0.3727(2) -0.1254(4) 0.64117(17)
F8 F 0.3637(4) -0.1533(6) 0.5302(2)
loop_
_geom_bond_atom_site_label_1
_geom_bond_atom_site_label_2
_geom_bond_site_symmetry_1
_geom_bond_site_symmetry_2
C1 C2 1_555 1_555
C2 C3 1_555 1_555
C3 H1 1_555 1_555
C4 C3 1_555 1_555
C5 C4 1_555 1_555
C6 C5 1_555 1_555
H2 C6 1_555 1_555
C7 C6 1_555 1_555
H3 C7 1_555 1_555
C8 C7 1_555 1_555
H4 C8 1_555 1_555
C9 C8 1_555 1_555
H5 C9 1_555 1_555
C10 C5 1_555 1_555
H6 C10 1_555 1_555
C11 C2 1_555 1_555
C12 C11 1_555 1_555
H7 C12 1_555 1_555
C13 H8 1_555 1_555
H9 C13 1_555 1_555
H10 C13 1_555 1_555
C14 H11 1_555 1_555
H12 C14 1_555 1_555
H13 C14 1_555 1_555
C15 C11 1_555 1_555
C16 H14 1_555 1_555
H15 C16 1_555 1_555
H16 C16 1_555 1_555
C17 H17 1_555 1_555
H18 C17 1_555 1_555
H19 C17 1_555 1_555
C18 H20 1_555 1_555
H21 C18 1_555 1_555
H22 C18 1_555 1_555
C19 H23 1_555 1_555
H24 C19 1_555 1_555
H25 C19 1_555 1_555
C20 H26 1_555 1_555
H27 C20 1_555 1_555
H28 C20 1_555 1_555
C21 H29 1_555 1_555
H30 C21 1_555 1_555
H31 C21 1_555 1_555
C22 H32 1_555 1_555
H33 C22 1_555 1_555
H34 C22 1_555 1_555
C23 H35 1_555 1_555
H36 C23 1_555 1_555
H37 C23 1_555 1_555
N1 C1 1_555 1_555
N2 C1 1_555 1_555
N3 C15 1_555 1_555
N4 C15 1_555 1_555
N5 C12 1_555 1_555
O1 C4 1_555 1_555
B1 F1 1_555 1_555
F2 B1 1_555 1_555
F3 B1 1_555 1_555
F4 B1 1_555 1_555
B2 F5 1_555 1_555
F6 B2 1_555 1_555
F7 B2 1_555 1_555
F8 B2 1_555 1_555
C9 C10 1_555 1_555
C13 N5 1_555 1_555
C14 N5 1_555 1_555
C16 N3 1_555 1_555
C17 N3 1_555 1_555
C18 N4 1_555 1_555
C19 N4 1_555 1_555
C20 N1 1_555 1_555
C21 N1 1_555 1_555
C22 N2 1_555 1_555
C23 N2 1_555 1_555

#END
