
#######################################################################
#
#                 Cambridge Crystallographic Data Centre
#                                CCDC 
#
#######################################################################
#
# If this CIF has been generated from an entry in the Cambridge 
# Structural Database, then it will include bibliographic, chemical, 
# crystal, experimental, refinement or atomic coordinate data resulting 
# from the CCDC's data processing and validation procedures.
#
#######################################################################

data_NOPYUO
_chemical_formula_moiety         'C22 H16 N2 S1'
_chemical_name_systematic        
1-Phenyl-1-(4-phenyl-6-(3-thienyl)pyridin-3-yl)methanimine
_symmetry_cell_setting           monoclinic
_symmetry_space_group_name_H-M   'P 21'
_symmetry_Int_Tables_number      4
_space_group_name_Hall           'P 2yb'
loop_
_symmetry_equiv_pos_site_id
_symmetry_equiv_pos_as_xyz
1 x,y,z
2 -x,1/2+y,-z
_cell_length_a                   5.9669(2)
_cell_length_b                   17.1251(5)
_cell_length_c                   8.522(5)
_cell_angle_alpha                90
_cell_angle_beta                 94.473(2)
_cell_angle_gamma                90
_cell_volume                     868.158
_exptl_crystal_colour            colorless
_exptl_crystal_description       prism
_cell_formula_units_Z            2
loop_
_atom_site_label
_atom_site_type_symbol
_atom_site_fract_x
_atom_site_fract_y
_atom_site_fract_z
C1 C -0.5805(4) -0.03946(15) -0.3293(3)
H1 H -0.5740 -0.0678 -0.4219
C2 C -0.4378(4) -0.06197(13) -0.2005(3)
C3 C -0.4511(4) -0.02027(13) -0.0597(3)
C4 C -0.6019(4) 0.04117(14) -0.0593(3)
H2 H -0.6127 0.0702 0.0321
C5 C -0.7375(4) 0.05993(13) -0.1946(3)
C6 C -0.2712(4) -0.12641(14) -0.2171(3)
C7 C -0.3537(4) -0.20425(14) -0.2699(3)
C8 C -0.2135(5) -0.25372(15) -0.3473(3)
H3 H -0.0726 -0.2361 -0.3710
C9 C -0.2805(6) -0.32870(16) -0.3895(3)
H4 H -0.1878 -0.3608 -0.4442
C10 C -0.4912(6) -0.35580(18) -0.3484(4)
H5 H -0.5356 -0.4069 -0.3713
C11 C -0.6306(5) -0.30658(17) -0.2744(4)
H6 H -0.7710 -0.3243 -0.2498
C12 C -0.5654(4) -0.23105(16) -0.2358(3)
H7 H -0.6626 -0.1981 -0.1871
C13 C -0.3209(4) -0.04335(14) 0.0889(3)
C14 C -0.3814(7) -0.1094(2) 0.1682(4)
H8 H -0.4989 -0.1405 0.1261
C15 C -0.2672(7) -0.1296(2) 0.3112(4)
H9 H -0.3129 -0.1732 0.3654
C16 C -0.0911(6) -0.0869(2) 0.3726(3)
H10 H -0.0141 -0.1017 0.4670
C17 C -0.0272(6) -0.0218(2) 0.2951(4)
H11 H 0.0937 0.0078 0.3371
C18 C -0.1409(5) 0.00065(18) 0.1539(4)
H12 H -0.0966 0.0453 0.1025
C19 C -0.9039(4) 0.12299(14) -0.1937(3)
C20 C -0.8951(5) 0.18570(18) -0.0863(4)
H13 H -0.7795 0.1937 -0.0083
C21 C -1.1015(6) 0.23916(16) -0.1148(3)
H14 H -1.1328 0.2831 -0.0562
C22 C -1.0940(5) 0.12682(18) -0.2971(4)
H15 H -1.1310 0.0905 -0.3761
N1 N -0.7260(4) 0.01970(11) -0.3302(2)
N2 N -0.0596(4) -0.11689(17) -0.1868(3)
S1 S -1.25041(16) 0.20640(7) -0.26090(13)
H16 H -0.047(7) -0.076(3) -0.142(5)
loop_
_geom_bond_atom_site_label_1
_geom_bond_atom_site_label_2
_geom_bond_site_symmetry_1
_geom_bond_site_symmetry_2
C1 H1 1_555 1_555
C2 C1 1_555 1_555
C3 C2 1_555 1_555
C4 C3 1_555 1_555
H2 C4 1_555 1_555
C5 C4 1_555 1_555
C6 C2 1_555 1_555
C7 C6 1_555 1_555
C8 C7 1_555 1_555
H3 C8 1_555 1_555
C9 C8 1_555 1_555
H4 C9 1_555 1_555
C10 C9 1_555 1_555
H5 C10 1_555 1_555
C11 C10 1_555 1_555
H6 C11 1_555 1_555
C12 C7 1_555 1_555
H7 C12 1_555 1_555
C13 C3 1_555 1_555
C14 C13 1_555 1_555
H8 C14 1_555 1_555
C15 C14 1_555 1_555
H9 C15 1_555 1_555
C16 C15 1_555 1_555
H10 C16 1_555 1_555
C17 C16 1_555 1_555
H11 C17 1_555 1_555
C18 C13 1_555 1_555
H12 C18 1_555 1_555
C19 C5 1_555 1_555
C20 C19 1_555 1_555
H13 C20 1_555 1_555
C21 C20 1_555 1_555
H14 C21 1_555 1_555
C22 C19 1_555 1_555
H15 C22 1_555 1_555
N1 C1 1_555 1_555
N2 C6 1_555 1_555
S1 C21 1_555 1_555
H16 N2 1_555 1_555
C5 N1 1_555 1_555
C11 C12 1_555 1_555
C17 C18 1_555 1_555
C22 S1 1_555 1_555

#END
