
#######################################################################
#
#                 Cambridge Crystallographic Data Centre
#                                CCDC 
#
#######################################################################
#
# If this CIF has been generated from an entry in the Cambridge 
# Structural Database, then it will include bibliographic, chemical, 
# crystal, experimental, refinement or atomic coordinate data resulting 
# from the CCDC's data processing and validation procedures.
#
#######################################################################

data_NOQCIH
_chemical_formula_moiety         'C14 H14 N2 O4 S1'
_chemical_name_systematic        
4-methyl-N-(4-methyl-2-nitrophenyl)benzenesulfonamide
_symmetry_cell_setting           triclinic
_symmetry_space_group_name_H-M   'P -1'
_symmetry_Int_Tables_number      2
_space_group_name_Hall           '-P 1'
loop_
_symmetry_equiv_pos_site_id
_symmetry_equiv_pos_as_xyz
1 x,y,z
2 -x,-y,-z
_cell_length_a                   7.277(2)
_cell_length_b                   9.1288(18)
_cell_length_c                   11.6854(14)
_cell_angle_alpha                92.665(13)
_cell_angle_beta                 97.218(15)
_cell_angle_gamma                107.79(2)
_cell_volume                     730.321
_exptl_crystal_colour            'light yellow'
_exptl_crystal_description       block
_cell_formula_units_Z            2
loop_
_atom_site_label
_atom_site_type_symbol
_atom_site_fract_x
_atom_site_fract_y
_atom_site_fract_z
S1 S 0.61785(10) 0.77831(8) 0.23310(5)
O1 O 0.8609(4) 0.7134(2) 0.70824(16)
O2 O 0.8274(4) 0.8585(2) 0.57670(16)
O3 O 0.6092(3) 0.9322(2) 0.24904(16)
O4 O 0.4454(3) 0.6536(2) 0.18832(17)
N1 N 0.8218(3) 0.7318(2) 0.60756(17)
N2 N 0.6991(3) 0.7456(2) 0.36366(16)
H1 H 0.7404 0.8250 0.4135
C1 C 0.7685(3) 0.5979(2) 0.52286(18)
C2 C 0.7777(3) 0.4603(3) 0.5650(2)
H2 H 0.8159 0.4582 0.6437
C3 C 0.7318(3) 0.3275(3) 0.4930(2)
C4 C 0.6749(4) 0.3370(3) 0.3762(2)
H3 H 0.6424 0.2486 0.3253
C5 C 0.6648(4) 0.4720(3) 0.3332(2)
H4 H 0.6264 0.4727 0.2543
C6 C 0.7109(3) 0.6084(3) 0.40535(18)
C7 C 0.7419(7) 0.1784(4) 0.5382(4)
C8 C 0.7984(4) 0.7765(3) 0.14851(19)
C9 C 0.9786(4) 0.8916(3) 0.1701(2)
H5 H 1.0034 0.9686 0.2302
C10 C 1.1192(4) 0.8909(3) 0.1027(2)
H6 H 1.2397 0.9675 0.1185
C11 C 1.0866(4) 0.7791(3) 0.0116(2)
C12 C 0.9065(5) 0.6677(3) -0.0095(2)
H7 H 0.8805 0.5920 -0.0707
C13 C 0.7641(4) 0.6657(3) 0.0578(2)
H8 H 0.6438 0.5889 0.0418
C14 C 1.2412(5) 0.7791(4) -0.0626(3)
H9 H 1.2628 0.6805 -0.0638
H10 H 1.3603 0.8584 -0.0313
H11 H 1.1992 0.7984 -0.1400
H12 H 0.815(7) 0.194(5) 0.615(5)
H13 H 0.629(7) 0.119(5) 0.541(3)
H14 H 0.817(7) 0.142(6) 0.506(4)
loop_
_geom_bond_atom_site_label_1
_geom_bond_atom_site_label_2
_geom_bond_site_symmetry_1
_geom_bond_site_symmetry_2
S1 O3 1_555 1_555
O1 N1 1_555 1_555
O2 N1 1_555 1_555
O4 S1 1_555 1_555
N1 C1 1_555 1_555
N2 S1 1_555 1_555
H1 N2 1_555 1_555
C1 C2 1_555 1_555
C2 H2 1_555 1_555
C3 C2 1_555 1_555
C4 C3 1_555 1_555
H3 C4 1_555 1_555
C5 C4 1_555 1_555
H4 C5 1_555 1_555
C6 N2 1_555 1_555
C7 C3 1_555 1_555
C8 S1 1_555 1_555
C9 C8 1_555 1_555
H5 C9 1_555 1_555
C10 C9 1_555 1_555
H6 C10 1_555 1_555
C11 C10 1_555 1_555
C12 C11 1_555 1_555
H7 C12 1_555 1_555
C13 C8 1_555 1_555
H8 C13 1_555 1_555
C14 C11 1_555 1_555
H9 C14 1_555 1_555
H10 C14 1_555 1_555
H11 C14 1_555 1_555
H12 C7 1_555 1_555
H13 C7 1_555 1_555
H14 C7 1_555 1_555
C1 C6 1_555 1_555
C5 C6 1_555 1_555
C12 C13 1_555 1_555

#END
