
#######################################################################
#
#                 Cambridge Crystallographic Data Centre
#                                CCDC 
#
#######################################################################
#
# If this CIF has been generated from an entry in the Cambridge 
# Structural Database, then it will include bibliographic, chemical, 
# crystal, experimental, refinement or atomic coordinate data resulting 
# from the CCDC's data processing and validation procedures.
#
#######################################################################

data_NOQCOL
_chemical_formula_moiety         'C21 H17 N4 1+,F6 P1 1-'
_chemical_name_systematic        
"1-Methyl-2,2':3',2'':6'',2'''-tripyridine-pyridinium hexafluorophosphate"
_symmetry_cell_setting           monoclinic
_symmetry_space_group_name_H-M   'P 21/c'
_symmetry_Int_Tables_number      14
_space_group_name_Hall           '-P 2ybc'
loop_
_symmetry_equiv_pos_site_id
_symmetry_equiv_pos_as_xyz
1 x,y,z
2 -x,1/2+y,1/2-z
3 -x,-y,-z
4 x,1/2-y,1/2+z
_cell_length_a                   9.719(2)
_cell_length_b                   20.775(3)
_cell_length_c                   11.062(2)
_cell_angle_alpha                90
_cell_angle_beta                 112.406(11)
_cell_angle_gamma                90
_cell_volume                     2064.93
_exptl_crystal_description       block-like
_cell_formula_units_Z            4
loop_
_atom_site_label
_atom_site_type_symbol
_atom_site_fract_x
_atom_site_fract_y
_atom_site_fract_z
C1 C 0.4742(3) 0.6726(1) 0.0521(3)
N1 N 0.3145(2) 0.6844(1) -0.0129(2)
C2 C 0.2352(2) 0.6532(1) -0.1256(2)
C3 C 0.0836(2) 0.6631(1) -0.1845(2)
C4 C 0.0141(3) 0.7049(1) -0.1292(3)
C5 C 0.0966(3) 0.7357(1) -0.0150(3)
C6 C 0.2457(3) 0.7248(1) 0.0425(3)
N2 N 0.3768(2) 0.6548(1) -0.2560(2)
C7 C 0.4554(3) 0.6280(1) -0.3186(2)
C8 C 0.4792(3) 0.5625(1) -0.3185(2)
C9 C 0.4197(2) 0.5232(1) -0.2516(2)
C10 C 0.3375(2) 0.5491(1) -0.1832(2)
C11 C 0.3206(2) 0.6161(1) -0.1894(2)
N3 N 0.2604(2) 0.5331(1) -0.0023(2)
C12 C 0.2749(2) 0.5072(1) -0.1084(2)
C13 C 0.2339(2) 0.4439(1) -0.1473(2)
C14 C 0.1798(3) 0.4061(1) -0.0736(3)
C15 C 0.1647(3) 0.4320(1) 0.0345(3)
C16 C 0.2044(2) 0.4958(1) 0.0676(2)
N4 N 0.1209(2) 0.4888(1) 0.2455(2)
C17 C 0.1890(2) 0.5253(1) 0.1846(2)
C18 C 0.2432(3) 0.5857(1) 0.2277(2)
C19 C 0.2246(3) 0.6106(2) 0.3357(3)
C20 C 0.1521(3) 0.5748(2) 0.3975(3)
C21 C 0.1050(3) 0.5143(2) 0.3507(3)
H1 H 0.5135(3) 0.6982(1) 0.1300(3)
H2 H 0.5231(3) 0.6840(1) -0.0057(3)
H3 H 0.4910(3) 0.6279(1) 0.0746(3)
H4 H 0.0289(16) 0.6418(6) -0.2609(22)
H5 H -0.0875(31) 0.7120(2) -0.1688(12)
H6 H 0.0481(15) 0.7657(9) 0.0255(12)
H7 H 0.2976(19) 0.7440(7) 0.1157(26)
H8 H 0.4988(12) 0.6565(8) -0.3678(14)
H9 H 0.5322(17) 0.5462(5) -0.3610(14)
H10 H 0.4341(5) 0.4786(12) -0.2516(2)
H11 H 0.2423(4) 0.4288(5) -0.2165(21)
H12 H 0.1548(8) 0.3650(13) -0.0959(7)
H13 H 0.1291(11) 0.4077(7) 0.0840(15)
H14 H 0.2891(15) 0.6080(7) 0.1869(13)
H15 H 0.2602(13) 0.6508(14) 0.3660(11)
H16 H 0.1352(6) 0.5915(6) 0.4705(24)
H17 H 0.0549(15) 0.4869(8) 0.3989(14)
P1 P 0.2864(1) 0.3249(1) 0.5394(1)
F1 F 0.2925(8) 0.2865(6) 0.6643(5)
F2 F 0.3714(9) 0.3816(4) 0.6287(10)
F3 F 0.2059(8) 0.2643(4) 0.4579(6)
F4 F 0.2797(10) 0.3582(4) 0.4128(8)
F5 F 0.4484(2) 0.2983(1) 0.5683(2)
F6 F 0.1221(2) 0.3539(1) 0.5043(2)
F7? F 0.2811(11) 0.3229(4) 0.6794(6)
F8? F 0.3428(11) 0.3978(4) 0.5620(13)
F9? F 0.2269(12) 0.2551(6) 0.5130(16)
F10? F 0.2802(16) 0.3316(8) 0.3979(9)
loop_
_geom_bond_atom_site_label_1
_geom_bond_atom_site_label_2
_geom_bond_site_symmetry_1
_geom_bond_site_symmetry_2
C1 N1 1_555 1_555
N1 C2 1_555 1_555
C2 C3 1_555 1_555
C3 C4 1_555 1_555
C4 C5 1_555 1_555
C5 C6 1_555 1_555
C6 N1 1_555 1_555
N2 C7 1_555 1_555
C7 C8 1_555 1_555
C8 C9 1_555 1_555
C9 C10 1_555 1_555
C10 C11 1_555 1_555
C11 C2 1_555 1_555
N3 C12 1_555 1_555
C12 C10 1_555 1_555
C13 C12 1_555 1_555
C14 C13 1_555 1_555
C15 C14 1_555 1_555
C16 N3 1_555 1_555
N4 C17 1_555 1_555
C17 C16 1_555 1_555
C18 C17 1_555 1_555
C19 C18 1_555 1_555
C20 C19 1_555 1_555
C21 N4 1_555 1_555
P1 F1 1_555 1_555
F2 P1 1_555 1_555
F3 P1 1_555 1_555
F4 P1 1_555 1_555
F5 P1 1_555 1_555
F6 P1 1_555 1_555
H1 C1 1_555 1_555
H2 C1 1_555 1_555
H3 C1 1_555 1_555
H4 C3 1_555 1_555
H5 C4 1_555 1_555
H6 C5 1_555 1_555
H7 C6 1_555 1_555
H8 C7 1_555 1_555
H9 C8 1_555 1_555
H10 C9 1_555 1_555
H11 C13 1_555 1_555
H12 C14 1_555 1_555
H13 C15 1_555 1_555
H14 C18 1_555 1_555
H15 C19 1_555 1_555
H16 C20 1_555 1_555
H17 C21 1_555 1_555
N2 C11 1_555 1_555
C15 C16 1_555 1_555
C20 C21 1_555 1_555

#END
