
#######################################################################
#
#                 Cambridge Crystallographic Data Centre
#                                CCDC 
#
#######################################################################
#
# If this CIF has been generated from an entry in the Cambridge 
# Structural Database, then it will include bibliographic, chemical, 
# crystal, experimental, refinement or atomic coordinate data resulting 
# from the CCDC's data processing and validation procedures.
#
#######################################################################

data_NOQJUZ
_chemical_formula_moiety         'C22 H22 N2 O3'
_chemical_name_systematic        
2-((2-Acetyl-2-phenylcyclohexyl)amino)-1H-isoindole-1,3(2H)-dione
_symmetry_cell_setting           monoclinic
_symmetry_space_group_name_H-M   'P 21/c'
_symmetry_Int_Tables_number      14
_space_group_name_Hall           '-P 2ybc'
loop_
_symmetry_equiv_pos_site_id
_symmetry_equiv_pos_as_xyz
1 x,y,z
2 -x,1/2+y,1/2-z
3 -x,-y,-z
4 x,1/2-y,1/2+z
_cell_length_a                   16.511(3)
_cell_length_b                   9.2793(17)
_cell_length_c                   12.404(2)
_cell_angle_alpha                90
_cell_angle_beta                 96.993(3)
_cell_angle_gamma                90
_cell_volume                     1886.29
_cell_formula_units_Z            4
loop_
_atom_site_label
_atom_site_type_symbol
_atom_site_fract_x
_atom_site_fract_y
_atom_site_fract_z
C1 C 0.09830(14) 0.7754(3) 0.64496(18)
C2 C 0.07403(15) 0.8217(3) 0.7417(2)
H1 H 0.1125 0.8604 0.7948
C3 C -0.00641(17) 0.8117(4) 0.7610(2)
H2 H -0.0215 0.8467 0.8259
C4 C -0.06380(17) 0.7515(4) 0.6867(3)
H3 H -0.1177 0.7445 0.7008
C5 C -0.04122(17) 0.7014(3) 0.5912(3)
H4 H -0.0797 0.6587 0.5401
C6 C 0.03804(16) 0.7142(3) 0.5709(2)
H5 H 0.0522 0.6807 0.5050
C7 C 0.51020(13) 0.8756(2) 0.87407(17)
C8 C 0.58199(14) 0.9423(3) 0.9134(2)
H6 H 0.6009 1.0222 0.8787
C9 C 0.62533(15) 0.8863(3) 1.0069(2)
H7 H 0.6741 0.9293 1.0354
C10 C 0.59731(16) 0.7682(3) 1.0580(2)
H8 H 0.6272 0.7332 1.1210
C11 C 0.52527(14) 0.7003(2) 1.01747(19)
H9 H 0.5065 0.6201 1.0519
C12 C 0.48249(13) 0.7554(2) 0.92476(17)
C13 C 0.45227(14) 0.9068(2) 0.77688(18)
C14 C 0.40727(13) 0.7031(2) 0.85996(19)
C15 C 0.24958(13) 0.8332(2) 0.70939(18)
H10 H 0.2373 0.7894 0.7775
C16 C 0.24791(17) 0.9969(3) 0.7225(2)
H11 H 0.1983 1.0239 0.7521
H12 H 0.2938 1.0260 0.7743
C17 C 0.2516(2) 1.0773(3) 0.6168(3)
H13 H 0.2463 1.1800 0.6289
H14 H 0.3040 1.0603 0.5911
C18 C 0.1839(2) 1.0273(4) 0.5322(3)
H15 H 0.1314 1.0476 0.5566
H16 H 0.1867 1.0790 0.4648
C19 C 0.19172(18) 0.8676(4) 0.5131(2)
H17 H 0.2436 0.8487 0.4867
H18 H 0.1488 0.8374 0.4573
C20 C 0.18638(14) 0.7777(3) 0.61651(17)
C21 C 0.20440(14) 0.6194(3) 0.5939(3)
C22 C 0.20738(17) 0.5150(3) 0.6860(3)
H19 H 0.2039 0.4184 0.6580
H20 H 0.1624 0.5327 0.7265
H21 H 0.2577 0.5267 0.7327
N1 N 0.33053(11) 0.78064(19) 0.68671(15)
H22 H 0.3390 0.7417 0.6262
N2 N 0.39209(10) 0.80081(18) 0.77407(15)
O1 O 0.45318(11) 1.00007(17) 0.70883(13)
O2 O 0.36500(10) 0.60048(17) 0.87442(15)
O3 O 0.21179(13) 0.5786(3) 0.5028(2)
loop_
_geom_bond_atom_site_label_1
_geom_bond_atom_site_label_2
_geom_bond_site_symmetry_1
_geom_bond_site_symmetry_2
C1 C2 1_555 1_555
C2 H1 1_555 1_555
C3 C2 1_555 1_555
H2 C3 1_555 1_555
C4 C3 1_555 1_555
H3 C4 1_555 1_555
C5 C4 1_555 1_555
H4 C5 1_555 1_555
C6 C1 1_555 1_555
H5 C6 1_555 1_555
C7 C8 1_555 1_555
C8 H6 1_555 1_555
C9 C8 1_555 1_555
H7 C9 1_555 1_555
C10 C9 1_555 1_555
H8 C10 1_555 1_555
C11 C10 1_555 1_555
H9 C11 1_555 1_555
C12 C7 1_555 1_555
C13 C7 1_555 1_555
C14 C12 1_555 1_555
C15 H10 1_555 1_555
C16 C15 1_555 1_555
H11 C16 1_555 1_555
H12 C16 1_555 1_555
C17 C16 1_555 1_555
H13 C17 1_555 1_555
H14 C17 1_555 1_555
C18 C17 1_555 1_555
H15 C18 1_555 1_555
H16 C18 1_555 1_555
C19 C18 1_555 1_555
H17 C19 1_555 1_555
H18 C19 1_555 1_555
C20 C1 1_555 1_555
C21 C20 1_555 1_555
C22 C21 1_555 1_555
H19 C22 1_555 1_555
H20 C22 1_555 1_555
H21 C22 1_555 1_555
N1 C15 1_555 1_555
H22 N1 1_555 1_555
N2 C13 1_555 1_555
O1 C13 1_555 1_555
O2 C14 1_555 1_555
O3 C21 1_555 1_555
C5 C6 1_555 1_555
C11 C12 1_555 1_555
C14 N2 1_555 1_555
C15 C20 1_555 1_555
C19 C20 1_555 1_555
N1 N2 1_555 1_555

#END
