
#######################################################################
#
#                 Cambridge Crystallographic Data Centre
#                                CCDC 
#
#######################################################################
#
# If this CIF has been generated from an entry in the Cambridge 
# Structural Database, then it will include bibliographic, chemical, 
# crystal, experimental, refinement or atomic coordinate data resulting 
# from the CCDC's data processing and validation procedures.
#
#######################################################################

data_NOQNAK
_chemical_formula_moiety         'C42 H60 N24 O18 Rb2 2+,2(Cl1 1-),14(H2 O1)'
_chemical_name_systematic        
'(\m-meta-hexa-methylcucurbit[6]uril)-hexaaqua-di-rubidium dichloride tetradecahydrate'
_symmetry_cell_setting           triclinic
_symmetry_space_group_name_H-M   'P -1'
_symmetry_Int_Tables_number      2
_space_group_name_Hall           '-P 1'
loop_
_symmetry_equiv_pos_site_id
_symmetry_equiv_pos_as_xyz
1 x,y,z
2 -x,-y,-z
_cell_length_a                   12.3881(8)
_cell_length_b                   16.4101(11)
_cell_length_c                   18.5835(12)
_cell_angle_alpha                69.367(2)
_cell_angle_beta                 87.115(2)
_cell_angle_gamma                85.051(2)
_cell_volume                     3521.53
_exptl_crystal_colour            colorless
_exptl_crystal_description       prism
_cell_formula_units_Z            2
loop_
_atom_site_label
_atom_site_type_symbol
_atom_site_fract_x
_atom_site_fract_y
_atom_site_fract_z
Cl3 Cl 0.9178(3) -0.3243(2) 0.9730(2)
Cl4 Cl 0.9834(4) 0.4417(4) 0.8655(4)
O1 O 0.3361(3) 0.1983(2) 0.6185(2)
O2 O 0.2178(3) 0.2879(4) 0.7811(3)
O3 O 0.5962(4) 0.1662(4) 0.6594(3)
O4 O 1.1129(3) 0.2308(2) 0.6069(2)
O5 O 0.7876(5) 0.1144(6) 0.7507(5)
Rb1 Rb 0.42538(4) 0.22235(5) 0.74899(3)
Rb2 Rb 1.02575(5) 0.09464(4) 0.72929(3)
C1 C 0.6041(3) 0.0995(3) 0.9283(2)
C2 C 0.7489(3) 0.0040(3) 0.9952(2)
C3 C 0.7631(3) 0.1015(3) 0.9922(2)
C4 C 0.9092(3) 0.0530(3) 0.9261(2)
C5 C 0.6270(3) 0.2381(3) 0.9461(3)
H1 H 0.5476 0.2440 0.9463
H2 H 0.6508 0.2519 0.9897
C6 C 0.9121(3) 0.2046(3) 0.9191(3)
H3 H 0.9881 0.1943 0.9050
H4 H 0.9113 0.2239 0.9634
C7 C 0.6025(3) 0.3483(3) 0.8158(3)
C8 C 0.7747(3) 0.3332(3) 0.8683(3)
H5 H 0.7900 0.3518 0.9118
C9 C 0.7699(3) 0.4108(3) 0.7904(3)
H6 H 0.7794 0.4670 0.7969
C10 C 0.9128(3) 0.3092(3) 0.7860(3)
C11 C 0.6192(3) 0.4740(3) 0.6940(3)
H7 H 0.5404 0.4709 0.6955
H8 H 0.6333 0.5318 0.6941
C12 C 0.9059(3) 0.4526(3) 0.6790(3)
H9 H 0.8967 0.5089 0.6867
H10 H 0.9838 0.4373 0.6764
C13 C 0.6088(3) 0.4218(3) 0.5869(3)
C14 C 0.7548(3) 0.5083(3) 0.5784(3)
C15 C 0.7463(3) 0.4915(3) 0.4996(3)
C16 C 0.9119(3) 0.4283(3) 0.5563(3)
C17 C 0.6014(3) 0.4129(3) 0.4584(3)
H11 H 0.5242 0.4074 0.4720
H12 H 0.6070 0.4595 0.4082
C18 C 0.8860(3) 0.4134(3) 0.4319(3)
H13 H 0.8632 0.4587 0.3834
H14 H 0.9654 0.4070 0.4311
C19 C 0.5881(3) 0.2606(3) 0.4673(3)
C20 C 0.7437(3) 0.3272(3) 0.4034(3)
H15 H 0.7358 0.3694 0.3503
C21 C 0.7475(3) 0.2324(3) 0.4064(3)
H16 H 0.7542 0.2288 0.3543
C22 C 0.9051(3) 0.2558(3) 0.4587(3)
C23 C 0.6056(3) 0.1193(3) 0.4461(3)
H17 H 0.5263 0.1251 0.4497
H18 H 0.6256 0.1106 0.3975
C24 C 0.8913(3) 0.1054(3) 0.4605(3)
H19 H 0.8856 0.0953 0.4120
H20 H 0.9685 0.1018 0.4715
C25 C 0.5864(3) 0.0147(3) 0.5759(3)
C26 C 0.7481(3) -0.0078(3) 0.5100(3)
C27 C 0.7411(3) -0.0859(3) 0.5896(3)
C28 C 0.8883(3) -0.0042(3) 0.5903(3)
C29 C 0.5922(3) -0.1095(3) 0.6978(3)
H21 H 0.5147 -0.0914 0.6980
H22 H 0.5988 -0.1716 0.7042
C30 C 0.8798(3) -0.1418(3) 0.6986(3)
H23 H 0.9588 -0.1402 0.6969
H24 H 0.8637 -0.2000 0.7006
C31 C 0.5851(3) -0.0584(3) 0.8079(3)
C32 C 0.7315(3) -0.1559(3) 0.8024(3)
H25 H 0.7228 -0.2178 0.8099
C33 C 0.7311(3) -0.1405(3) 0.8800(3)
H26 H 0.7202 -0.1948 0.9242
C34 C 0.8983(3) -0.1074(3) 0.8168(3)
C35 C 0.5987(3) -0.0528(3) 0.9372(3)
H27 H 0.6051 -0.1051 0.9837
H28 H 0.5213 -0.0348 0.9294
C36 C 0.8803(3) -0.0997(3) 0.9474(3)
H29 H 0.9596 -0.1064 0.9440
H30 H 0.8568 -0.1471 0.9931
C37 C 0.7343(4) -0.0633(3) 1.0767(3)
H31 H 0.6677 -0.0476 1.1000
H32 H 0.7952 -0.0638 1.1077
H33 H 0.7308 -0.1208 1.0736
C38 C 0.7794(4) 0.1113(3) 1.0690(3)
H34 H 0.8466 0.0795 1.0909
H35 H 0.7194 0.0882 1.1037
H36 H 0.7826 0.1727 1.0616
C39 C 0.7527(4) 0.6048(3) 0.5713(3)
H37 H 0.6832 0.6342 0.5519
H38 H 0.8100 0.6327 0.5360
H39 H 0.7637 0.6083 0.6214
C40 C 0.7301(4) 0.5734(3) 0.4280(3)
H40 H 0.7927 0.6076 0.4199
H41 H 0.6657 0.6080 0.4351
H42 H 0.7218 0.5566 0.3836
C41 C 0.7642(4) -0.0346(3) 0.4393(3)
H43 H 0.8331 -0.0684 0.4422
H44 H 0.7637 0.0172 0.3933
H45 H 0.7060 -0.0697 0.4373
C42 C 0.7381(4) -0.1763(3) 0.5848(3)
H46 H 0.6736 -0.1784 0.5581
H47 H 0.7367 -0.2195 0.6363
H48 H 0.8020 -0.1887 0.5570
N1 N 0.6521(3) 0.0167(2) 0.9498(2)
N2 N 0.6638(3) 0.1473(2) 0.9564(2)
N3 N 0.8481(3) -0.0161(2) 0.9574(2)
N4 N 0.8604(3) 0.1232(2) 0.9414(2)
N5 N 0.6676(3) 0.3006(2) 0.8753(2)
N6 N 0.6634(3) 0.4087(2) 0.7627(2)
N7 N 0.8608(3) 0.2741(2) 0.8550(2)
N8 N 0.8586(3) 0.3867(2) 0.7452(2)
N9 N 0.6621(3) 0.4655(2) 0.6233(2)
N10 N 0.6524(3) 0.4380(2) 0.5148(2)
N11 N 0.8596(3) 0.4623(2) 0.6068(2)
N12 N 0.8485(3) 0.4425(2) 0.4961(2)
N13 N 0.6475(3) 0.3322(2) 0.4519(2)
N14 N 0.6473(3) 0.2003(2) 0.4445(2)
N15 N 0.8457(3) 0.3327(2) 0.4362(2)
N16 N 0.8442(3) 0.1926(3) 0.4515(2)
N17 N 0.6443(3) 0.0432(2) 0.5083(2)
N18 N 0.6387(3) -0.0608(3) 0.6238(2)
N19 N 0.8397(3) 0.0380(2) 0.5212(2)
N20 N 0.8369(3) -0.0783(3) 0.6291(2)
N21 N 0.6406(3) -0.0990(2) 0.7627(2)
N22 N 0.6413(3) -0.0749(3) 0.8730(2)
N23 N 0.8374(3) -0.1289(3) 0.7686(2)
N24 N 0.8369(3) -0.1089(2) 0.8808(2)
O6 O 0.5197(2) 0.1250(2) 0.89311(19)
O7 O 0.5063(2) 0.3400(2) 0.81040(18)
O8 O 0.5305(2) 0.3788(2) 0.61380(19)
O9 O 0.4957(2) 0.2541(2) 0.4957(2)
O10 O 0.4994(2) 0.0479(2) 0.5907(2)
O11 O 0.4992(2) -0.0126(2) 0.7908(2)
O12 O 0.9957(2) 0.0532(2) 0.89008(18)
O13 O 0.9947(2) 0.2763(2) 0.76276(19)
O14 O 1.0048(2) 0.3919(2) 0.56487(19)
O15 O 0.9989(2) 0.2427(2) 0.4814(2)
O16 O 0.9684(2) 0.0190(2) 0.61207(19)
O17 O 0.9944(2) -0.0899(2) 0.80661(19)
O18 O 1.2844(3) 0.0447(3) 0.7369(2)
Cl1 Cl 0.6689(2) 0.64466(15) 0.76788(15)
Cl2? Cl 0.761(2) 0.6454(13) 0.7510(15)
loop_
_geom_bond_atom_site_label_1
_geom_bond_atom_site_label_2
_geom_bond_site_symmetry_1
_geom_bond_site_symmetry_2
O1 Rb1 1_555 1_555
O2 Rb1 1_555 1_555
O3 Rb1 1_555 1_555
O4 Rb2 1_555 1_555
O5 Rb2 1_555 1_555
Rb1 O6 1_555 1_555
Rb2 O12 1_555 1_555
C1 N1 1_555 1_555
C2 C3 1_555 1_555
C3 C38 1_555 1_555
C4 N3 1_555 1_555
C5 H1 1_555 1_555
H2 C5 1_555 1_555
C6 H3 1_555 1_555
H4 C6 1_555 1_555
C7 N5 1_555 1_555
C8 H5 1_555 1_555
C9 C8 1_555 1_555
H6 C9 1_555 1_555
C10 N7 1_555 1_555
C11 H7 1_555 1_555
H8 C11 1_555 1_555
C12 H9 1_555 1_555
H10 C12 1_555 1_555
C13 N9 1_555 1_555
C14 C15 1_555 1_555
C15 C40 1_555 1_555
C16 N11 1_555 1_555
C17 H11 1_555 1_555
H12 C17 1_555 1_555
C18 H13 1_555 1_555
H14 C18 1_555 1_555
C19 N13 1_555 1_555
C20 H15 1_555 1_555
C21 C20 1_555 1_555
H16 C21 1_555 1_555
C22 N15 1_555 1_555
C23 H17 1_555 1_555
H18 C23 1_555 1_555
C24 H19 1_555 1_555
H20 C24 1_555 1_555
C25 N17 1_555 1_555
C26 C27 1_555 1_555
C27 C42 1_555 1_555
C28 N19 1_555 1_555
C29 H21 1_555 1_555
H22 C29 1_555 1_555
C30 H23 1_555 1_555
H24 C30 1_555 1_555
C31 N21 1_555 1_555
C32 H25 1_555 1_555
C33 C32 1_555 1_555
H26 C33 1_555 1_555
C34 N23 1_555 1_555
C35 H27 1_555 1_555
H28 C35 1_555 1_555
C36 H29 1_555 1_555
H30 C36 1_555 1_555
C37 C2 1_555 1_555
H31 C37 1_555 1_555
H32 C37 1_555 1_555
H33 C37 1_555 1_555
C38 H34 1_555 1_555
H35 C38 1_555 1_555
H36 C38 1_555 1_555
C39 C14 1_555 1_555
H37 C39 1_555 1_555
H38 C39 1_555 1_555
H39 C39 1_555 1_555
C40 H40 1_555 1_555
H41 C40 1_555 1_555
H42 C40 1_555 1_555
C41 C26 1_555 1_555
H43 C41 1_555 1_555
H44 C41 1_555 1_555
H45 C41 1_555 1_555
C42 H46 1_555 1_555
H47 C42 1_555 1_555
H48 C42 1_555 1_555
N1 C2 1_555 1_555
N2 C1 1_555 1_555
N3 C2 1_555 1_555
N4 C3 1_555 1_555
N5 C5 1_555 1_555
N6 C7 1_555 1_555
N7 C6 1_555 1_555
N8 C9 1_555 1_555
N9 C11 1_555 1_555
N10 C13 1_555 1_555
N11 C12 1_555 1_555
N12 C15 1_555 1_555
N13 C17 1_555 1_555
N14 C19 1_555 1_555
N15 C18 1_555 1_555
N16 C21 1_555 1_555
N17 C23 1_555 1_555
N18 C25 1_555 1_555
N19 C24 1_555 1_555
N20 C27 1_555 1_555
N21 C29 1_555 1_555
N22 C31 1_555 1_555
N23 C30 1_555 1_555
N24 C33 1_555 1_555
O6 C1 1_555 1_555
O7 Rb1 1_555 1_555
O8 Rb1 1_555 1_555
O9 C19 1_555 1_555
O10 C25 1_555 1_555
O11 C31 1_555 1_555
O12 C4 1_555 1_555
O13 Rb2 1_555 1_555
O14 C16 1_555 1_555
O15 C22 1_555 1_555
O16 Rb2 1_555 1_555
O17 Rb2 1_555 1_555
O18 Rb2 1_555 1_555
C3 N2 1_555 1_555
C4 N4 1_555 1_555
C5 N2 1_555 1_555
C6 N4 1_555 1_555
C7 O7 1_555 1_555
C8 N5 1_555 1_555
C8 N7 1_555 1_555
C9 N6 1_555 1_555
C10 N8 1_555 1_555
C10 O13 1_555 1_555
C11 N6 1_555 1_555
C12 N8 1_555 1_555
C13 O8 1_555 1_555
C14 N9 1_555 1_555
C14 N11 1_555 1_555
C15 N10 1_555 1_555
C16 N12 1_555 1_555
C17 N10 1_555 1_555
C18 N12 1_555 1_555
C20 N13 1_555 1_555
C20 N15 1_555 1_555
C21 N14 1_555 1_555
C22 N16 1_555 1_555
C23 N14 1_555 1_555
C24 N16 1_555 1_555
C26 N17 1_555 1_555
C26 N19 1_555 1_555
C27 N18 1_555 1_555
C28 N20 1_555 1_555
C28 O16 1_555 1_555
C29 N18 1_555 1_555
C30 N20 1_555 1_555
C32 N21 1_555 1_555
C32 N23 1_555 1_555
C33 N22 1_555 1_555
C34 N24 1_555 1_555
C34 O17 1_555 1_555
C35 N1 1_555 1_555
C35 N22 1_555 1_555
C36 N3 1_555 1_555
C36 N24 1_555 1_555

#END
