
#######################################################################
#
#                 Cambridge Crystallographic Data Centre
#                                CCDC 
#
#######################################################################
#
# If this CIF has been generated from an entry in the Cambridge 
# Structural Database, then it will include bibliographic, chemical, 
# crystal, experimental, refinement or atomic coordinate data resulting 
# from the CCDC's data processing and validation procedures.
#
#######################################################################

data_NOQWIA
_chemical_formula_moiety         'C20 H18 N4 O2'
_chemical_name_systematic        
(E)-2-(4-Methoxyphenyl)-N-(2-pyridyl)-3-(2-pyridylamino)acrylamide
_symmetry_cell_setting           monoclinic
_symmetry_space_group_name_H-M   'P 21/c'
_symmetry_Int_Tables_number      14
_space_group_name_Hall           '-P 2ybc'
loop_
_symmetry_equiv_pos_site_id
_symmetry_equiv_pos_as_xyz
1 x,y,z
2 -x,1/2+y,1/2-z
3 -x,-y,-z
4 x,1/2-y,1/2+z
_cell_length_a                   11.546(2)
_cell_length_b                   12.148(2)
_cell_length_c                   14.006(3)
_cell_angle_alpha                90
_cell_angle_beta                 113.74(3)
_cell_angle_gamma                90
_cell_volume                     1798.26
_exptl_crystal_colour            colorless
_exptl_crystal_description       block
_cell_formula_units_Z            4
loop_
_atom_site_label
_atom_site_type_symbol
_atom_site_fract_x
_atom_site_fract_y
_atom_site_fract_z
N1 N 0.8670(3) 0.3253(3) 0.3474(3)
H1 H 0.9483 0.3244 0.3725
O1 O 1.3868(3) 0.5123(3) 0.3652(3)
C1 C 1.4551(5) 0.4266(5) 0.3437(5)
H2 H 1.5434 0.4450 0.3718
H3 H 1.4251 0.4168 0.2696
H4 H 1.4432 0.3596 0.3750
O2 O 0.6560(2) 0.5617(3) 0.1480(2)
N2 N 0.6813(3) 0.2469(3) 0.3418(3)
C2 C 1.2592(4) 0.5024(5) 0.3320(4)
N3 N 0.8252(3) 0.6425(3) 0.1344(2)
H5 H 0.9063 0.6471 0.1648
C3 C 1.1876(4) 0.4216(4) 0.2676(4)
H6 H 1.2254 0.3682 0.2420
N4 N 0.8483(3) 0.7805(3) 0.0328(3)
C4 C 1.0576(4) 0.4195(3) 0.2404(3)
H7 H 1.0096 0.3645 0.1958
C5 C 0.9974(4) 0.4961(3) 0.2771(3)
C6 C 1.0728(4) 0.5774(4) 0.3409(3)
H8 H 1.0356 0.6313 0.3665
C7 C 1.2003(4) 0.5811(4) 0.3678(4)
H9 H 1.2479 0.6373 0.4107
C8 C 0.8599(3) 0.4900(3) 0.2477(3)
C9 C 0.8061(4) 0.4077(3) 0.2814(3)
H10 H 0.7183 0.4081 0.2566
C10 C 0.8054(4) 0.2412(3) 0.3773(3)
C11 C 0.8757(4) 0.1591(4) 0.4414(4)
H11 H 0.9634 0.1585 0.4652
C12 C 0.8136(5) 0.0787(4) 0.4691(4)
H12 H 0.8588 0.0216 0.5122
C13 C 0.6855(5) 0.0816(4) 0.4340(4)
H13 H 0.6416 0.0268 0.4518
C14 C 0.6240(5) 0.1666(4) 0.3725(4)
H14 H 0.5365 0.1697 0.3499
C15 C 0.7711(4) 0.5672(3) 0.1737(3)
C16 C 0.7672(4) 0.7143(3) 0.0506(3)
C17 C 0.6370(4) 0.7165(4) -0.0105(3)
H15 H 0.5812 0.6716 0.0045
C18 C 0.5952(5) 0.7878(4) -0.0932(4)
H16 H 0.5094 0.7909 -0.1362
C19 C 0.6782(5) 0.8542(4) -0.1129(4)
H17 H 0.6505 0.9018 -0.1697
C20 C 0.8027(4) 0.8489(4) -0.0471(4)
H18 H 0.8588 0.8961 -0.0591
loop_
_geom_bond_atom_site_label_1
_geom_bond_atom_site_label_2
_geom_bond_site_symmetry_1
_geom_bond_site_symmetry_2
N1 H1 1_555 1_555
O1 C1 1_555 1_555
C1 H2 1_555 1_555
H3 C1 1_555 1_555
H4 C1 1_555 1_555
O2 C15 1_555 1_555
N2 C10 1_555 1_555
C2 O1 1_555 1_555
N3 H5 1_555 1_555
C3 C2 1_555 1_555
H6 C3 1_555 1_555
N4 C16 1_555 1_555
C4 C3 1_555 1_555
H7 C4 1_555 1_555
C5 C4 1_555 1_555
C6 C5 1_555 1_555
H8 C6 1_555 1_555
C7 C2 1_555 1_555
H9 C7 1_555 1_555
C8 C5 1_555 1_555
C9 N1 1_555 1_555
H10 C9 1_555 1_555
C10 N1 1_555 1_555
C11 C10 1_555 1_555
H11 C11 1_555 1_555
C12 C11 1_555 1_555
H12 C12 1_555 1_555
C13 C12 1_555 1_555
H13 C13 1_555 1_555
C14 N2 1_555 1_555
H14 C14 1_555 1_555
C15 N3 1_555 1_555
C16 N3 1_555 1_555
C17 C16 1_555 1_555
H15 C17 1_555 1_555
C18 C17 1_555 1_555
H16 C18 1_555 1_555
C19 C18 1_555 1_555
H17 C19 1_555 1_555
C20 N4 1_555 1_555
H18 C20 1_555 1_555
C6 C7 1_555 1_555
C8 C9 1_555 1_555
C8 C15 1_555 1_555
C13 C14 1_555 1_555
C19 C20 1_555 1_555

#END
