
#######################################################################
#
#                 Cambridge Crystallographic Data Centre
#                                CCDC 
#
#######################################################################
#
# If this CIF has been generated from an entry in the Cambridge 
# Structural Database, then it will include bibliographic, chemical, 
# crystal, experimental, refinement or atomic coordinate data resulting 
# from the CCDC's data processing and validation procedures.
#
#######################################################################

data_NOQWOG
_chemical_name_common            Chlorphoxim
_chemical_formula_moiety         'C12 H14 Cl1 N2 O3 P1 S1'
_chemical_name_systematic        
"O,O'-Diethyl ((Z)-((2-chlorophenyl)(cyano)methylene)amino-oxy)thiophosphonate"
_chemical_properties_biological  
'previously reported to exhibit anti-insecticidal activity against adult mosquitoes and other agricultural insects'
_symmetry_cell_setting           monoclinic
_symmetry_space_group_name_H-M   'P 21/c'
_symmetry_Int_Tables_number      14
_space_group_name_Hall           '-P 2ybc'
loop_
_symmetry_equiv_pos_site_id
_symmetry_equiv_pos_as_xyz
1 x,y,z
2 -x,1/2+y,1/2-z
3 -x,-y,-z
4 x,1/2-y,1/2+z
_cell_length_a                   10.518(2)
_cell_length_b                   20.215(4)
_cell_length_c                   7.9650(16)
_cell_angle_alpha                90
_cell_angle_beta                 110.11(3)
_cell_angle_gamma                90
_cell_volume                     1590.28
_exptl_crystal_colour            colorless
_exptl_crystal_description       block
_chemical_melting_point          '341.5 K'
_cell_formula_units_Z            4
_exptl_crystal_recrystallization_method acetone
loop_
_atom_site_label
_atom_site_type_symbol
_atom_site_fract_x
_atom_site_fract_y
_atom_site_fract_z
Cl1 Cl 0.9833(2) 0.10567(10) 1.4318(2)
S1 S 0.44401(12) 0.05415(6) 0.77933(17)
P1 P 0.49482(11) 0.14026(6) 0.73194(14)
O1 O 0.3963(3) 0.19852(15) 0.7185(4)
O2 O 0.5248(4) 0.15378(16) 0.5556(4)
O3 O 0.6273(3) 0.16956(14) 0.8892(4)
N1 N 0.7388(3) 0.12634(16) 0.9243(4)
N2 N 0.8474(5) 0.2615(3) 1.2012(8)
C1 C 0.2127(6) 0.2550(3) 0.7678(8)
H1 H 0.1664 0.2624 0.8511
H2 H 0.1501 0.2376 0.6583
H3 H 0.2493 0.2960 0.7441
C2 C 0.3231(5) 0.2074(3) 0.8440(7)
H4 H 0.3843 0.2236 0.9575
H5 H 0.2864 0.1653 0.8645
C3 C 0.5814(7) 0.1315(3) 0.2996(7)
H6 H 0.6215 0.0996 0.2437
H7 H 0.6290 0.1727 0.3118
H8 H 0.4881 0.1379 0.2273
C4 C 0.5897(7) 0.1079(3) 0.4736(8)
H9 H 0.5460 0.0650 0.4623
H10 H 0.6839 0.1027 0.5482
C5 C 0.8423(4) 0.2119(2) 1.1322(6)
C6 C 0.8431(4) 0.14942(19) 1.0451(5)
C7 C 0.9702(4) 0.1113(2) 1.0871(6)
C8 C 1.0192(5) 0.0965(2) 0.9514(7)
H11 H 0.9715 0.1105 0.8356
C9 C 1.1372(5) 0.0612(3) 0.9845(9)
H12 H 1.1686 0.0512 0.8917
C10 C 1.2084(5) 0.0411(3) 1.1563(10)
H13 H 1.2885 0.0174 1.1797
C11 C 1.1627(6) 0.0554(3) 1.2906(9)
H14 H 1.2118 0.0420 1.4065
C12 C 1.0435(5) 0.0899(2) 1.2575(6)
loop_
_geom_bond_atom_site_label_1
_geom_bond_atom_site_label_2
_geom_bond_site_symmetry_1
_geom_bond_site_symmetry_2
Cl1 C12 1_555 1_555
S1 P1 1_555 1_555
P1 O1 1_555 1_555
O1 C2 1_555 1_555
O2 P1 1_555 1_555
O3 P1 1_555 1_555
N1 O3 1_555 1_555
N2 C5 1_555 1_555
C1 H1 1_555 1_555
H2 C1 1_555 1_555
H3 C1 1_555 1_555
C2 C1 1_555 1_555
H4 C2 1_555 1_555
H5 C2 1_555 1_555
C3 H6 1_555 1_555
H7 C3 1_555 1_555
H8 C3 1_555 1_555
C4 O2 1_555 1_555
H9 C4 1_555 1_555
H10 C4 1_555 1_555
C5 C6 1_555 1_555
C6 N1 1_555 1_555
C7 C6 1_555 1_555
C8 C7 1_555 1_555
H11 C8 1_555 1_555
C9 C8 1_555 1_555
H12 C9 1_555 1_555
C10 C9 1_555 1_555
H13 C10 1_555 1_555
C11 C10 1_555 1_555
H14 C11 1_555 1_555
C12 C7 1_555 1_555
C3 C4 1_555 1_555
C11 C12 1_555 1_555

#END
