
#######################################################################
#
#                 Cambridge Crystallographic Data Centre
#                                CCDC 
#
#######################################################################
#
# If this CIF has been generated from an entry in the Cambridge 
# Structural Database, then it will include bibliographic, chemical, 
# crystal, experimental, refinement or atomic coordinate data resulting 
# from the CCDC's data processing and validation procedures.
#
#######################################################################

data_NOQZAV
_chemical_formula_moiety         'C14 H9 Br3 N2 O2,C1 H4 O1'
_chemical_name_systematic        
"3-Bromo-N'-(3,5-dibromo-2-hydroxybenzylidene)benzohydrazide methanol solvate"
_symmetry_cell_setting           triclinic
_symmetry_space_group_name_H-M   'P -1'
_symmetry_Int_Tables_number      2
_space_group_name_Hall           '-P 1'
loop_
_symmetry_equiv_pos_site_id
_symmetry_equiv_pos_as_xyz
1 x,y,z
2 -x,-y,-z
_cell_length_a                   8.9000(10)
_cell_length_b                   9.3660(10)
_cell_length_c                   11.392(2)
_cell_angle_alpha                95.043(2)
_cell_angle_beta                 111.048(2)
_cell_angle_gamma                99.584(2)
_cell_volume                     862.551
_exptl_crystal_colour            colorless
_exptl_crystal_description       block
_cell_formula_units_Z            2
loop_
_atom_site_label
_atom_site_type_symbol
_atom_site_fract_x
_atom_site_fract_y
_atom_site_fract_z
Br1 Br 0.70334(5) 1.00574(5) -0.37638(4)
Br2 Br 1.39490(6) 1.16831(6) -0.18075(5)
Br3 Br 1.13101(5) 0.31103(4) 0.49994(3)
O1 O 0.7708(3) 0.8094(3) -0.1804(2)
H1 H 0.7891 0.7546 -0.1269
O2 O 0.6880(3) 0.5145(3) -0.0140(2)
N1 N 0.9495(3) 0.7027(3) 0.0069(2)
N2 N 0.9553(4) 0.6172(3) 0.0991(3)
C1 C 1.0672(4) 0.8813(3) -0.0850(3)
C2 C 0.9137(4) 0.8887(4) -0.1748(3)
C3 C 0.9096(4) 0.9860(4) -0.2607(3)
C4 C 1.0505(4) 1.0671(4) -0.2633(3)
H3 H 1.0450 1.1288 -0.3236
C5 C 1.2002(4) 1.0569(4) -0.1762(3)
C6 C 1.2101(4) 0.9668(4) -0.0856(3)
H4 H 1.3121 0.9632 -0.0251
C7 C 1.0795(4) 0.7865(3) 0.0117(3)
H5 H 1.1807 0.7877 0.0755
C8 C 0.8112(4) 0.5247(4) 0.0818(3)
C9 C 0.8101(4) 0.4374(3) 0.1852(3)
C10 C 0.6573(4) 0.3690(4) 0.1800(3)
H6 H 0.5620 0.3809 0.1160
C11 C 0.6468(5) 0.2827(5) 0.2705(4)
H7 H 0.5442 0.2361 0.2670
C12 C 0.7878(5) 0.2654(4) 0.3657(4)
H8 H 0.7811 0.2077 0.4268
C13 C 0.9373(4) 0.3341(4) 0.3692(3)
C14 C 0.9518(4) 0.4212(3) 0.2807(3)
H9 H 1.0550 0.4679 0.2853
H13 H 1.054(3) 0.617(5) 0.159(3)
O3 O 0.7124(3) 0.4000(3) 0.7628(2)
H2 H 0.6886 0.4388 0.8192
C15 C 0.5947(6) 0.4070(6) 0.6437(4)
H10 H 0.5748 0.5045 0.6420
H11 H 0.4939 0.3389 0.6291
H12 H 0.6346 0.3822 0.5784
loop_
_geom_bond_atom_site_label_1
_geom_bond_atom_site_label_2
_geom_bond_site_symmetry_1
_geom_bond_site_symmetry_2
Br1 C3 1_555 1_555
Br2 C5 1_555 1_555
Br3 C13 1_555 1_555
O1 H1 1_555 1_555
O2 C8 1_555 1_555
O3 H2 1_555 1_555
N1 N2 1_555 1_555
N2 C8 1_555 1_555
C1 C2 1_555 1_555
C2 O1 1_555 1_555
C3 C2 1_555 1_555
C4 C3 1_555 1_555
H3 C4 1_555 1_555
C5 C4 1_555 1_555
C6 C1 1_555 1_555
H4 C6 1_555 1_555
C7 N1 1_555 1_555
H5 C7 1_555 1_555
C8 C9 1_555 1_555
C9 C10 1_555 1_555
C10 H6 1_555 1_555
C11 C10 1_555 1_555
H7 C11 1_555 1_555
C12 C11 1_555 1_555
H8 C12 1_555 1_555
C13 C12 1_555 1_555
C14 C9 1_555 1_555
H9 C14 1_555 1_555
C15 O3 1_555 1_555
H10 C15 1_555 1_555
H11 C15 1_555 1_555
H12 C15 1_555 1_555
H13 N2 1_555 1_555
C1 C7 1_555 1_555
C5 C6 1_555 1_555
C13 C14 1_555 1_555

#END
