
#######################################################################
#
#                 Cambridge Crystallographic Data Centre
#                                CCDC 
#
#######################################################################
#
# If this CIF has been generated from an entry in the Cambridge 
# Structural Database, then it will include bibliographic, chemical, 
# crystal, experimental, refinement or atomic coordinate data resulting 
# from the CCDC's data processing and validation procedures.
#
#######################################################################

data_NOQZID
_chemical_name_common            
"1,1'-(1,4-Phenylenebis(methylene))bis-1H-pyrazole dihydrate"
_chemical_formula_moiety         'C14 H14 N4,2(H2 O1)'
_chemical_name_systematic        
'1,4-bis[(1H-Pyrazol-1-yl)methyl]benzene dihydrate'
_symmetry_cell_setting           monoclinic
_symmetry_space_group_name_H-M   'P 21/c'
_symmetry_Int_Tables_number      14
_space_group_name_Hall           '-P 2ybc'
loop_
_symmetry_equiv_pos_site_id
_symmetry_equiv_pos_as_xyz
1 x,y,z
2 -x,1/2+y,1/2-z
3 -x,-y,-z
4 x,1/2-y,1/2+z
_cell_length_a                   4.680(2)
_cell_length_b                   18.640(8)
_cell_length_c                   16.974(10)
_cell_angle_alpha                90
_cell_angle_beta                 91.15(2)
_cell_angle_gamma                90
_cell_volume                     1480.43
_exptl_crystal_colour            colorless
_exptl_crystal_description       block
_cell_formula_units_Z            4
loop_
_atom_site_label
_atom_site_type_symbol
_atom_site_fract_x
_atom_site_fract_y
_atom_site_fract_z
C1 C 0.8625(5) 0.35411(10) 0.69781(13)
H1 H 0.7584 0.3209 0.6680
C2 C 1.0682(5) 0.33893(11) 0.75233(13)
H2 H 1.1345 0.2939 0.7677
C3 C 1.1572(4) 0.40427(12) 0.77993(12)
H3 H 1.2983 0.4104 0.8187
C4 C 0.6675(4) 0.46818(11) 0.63845(12)
H4 H 0.6093 0.5124 0.6635
H5 H 0.4963 0.4419 0.6231
C5 C 0.8366(3) 0.48549(9) 0.56601(11)
C6 C 0.8351(4) 0.43987(10) 0.50232(12)
H6 H 0.7232 0.3987 0.5034
C7 C 1.0049(4) 0.54625(9) 0.56293(11)
H7 H 1.0099 0.5779 0.6053
N1 N 0.8358(3) 0.42535(8) 0.69450(8)
N2 N 1.0191(3) 0.45779(8) 0.74505(9)
C1B C 1.1375(5) 0.64589(10) 0.30219(13)
H1B H 1.2416 0.6791 0.3320
C2B C 0.9318(5) 0.66107(11) 0.24767(13)
H2B H 0.8655 0.7061 0.2323
C3B C 0.8428(4) 0.59573(12) 0.22007(12)
H3B H 0.7017 0.5896 0.1813
C4B C 1.3325(4) 0.53182(11) 0.36155(12)
H4B H 1.3907 0.4876 0.3365
H5B H 1.5037 0.5581 0.3769
C5B C 1.1634(3) 0.51451(9) 0.43399(11)
C6B C 1.1649(4) 0.56013(10) 0.49768(12)
H6B H 1.2768 0.6013 0.4966
C7B C 0.9951(4) 0.45375(9) 0.43707(11)
H7B H 0.9901 0.4221 0.3947
N1B N 1.1642(3) 0.57465(8) 0.30550(8)
N2B N 0.9809(3) 0.54221(8) 0.25495(9)
C8 C 0.5827(4) 0.27680(10) -0.07594(13)
H8 H 0.6642 0.2909 -0.1230
C9 C 0.3835(5) 0.22438(10) -0.06711(15)
H9 H 0.3016 0.1955 -0.1061
C10 C 0.3302(4) 0.22347(9) 0.01191(14)
H10 H 0.2015 0.1925 0.0354
C11 C 0.8187(4) 0.36625(9) 0.01523(13)
H11 H 0.9808 0.3674 -0.0195
H12 H 0.8916 0.3612 0.0688
C12 C 0.6550(3) 0.43624(8) 0.00771(11)
C13 C 0.6725(4) 0.47764(9) -0.05894(11)
H13 H 0.7898 0.4630 -0.0995
C14 C 0.4809(4) 0.45945(9) 0.06678(11)
H14 H 0.4663 0.4324 0.1126
N3 N 0.6401(3) 0.30445(7) -0.00459(10)
N4 N 0.4843(3) 0.27223(7) 0.05120(10)
C8B C 0.4173(4) 0.72320(10) 0.07594(13)
H8B H 0.3358 0.7091 0.1230
C9B C 0.6165(5) 0.77562(10) 0.06711(15)
H9B H 0.6984 0.8045 0.1061
C10B C 0.6698(4) 0.77653(9) -0.01191(14)
H10B H 0.7985 0.8075 -0.0354
C11B C 0.1813(4) 0.63375(9) -0.01523(13)
H11B H 0.0192 0.6326 0.0195
H12B H 0.1084 0.6388 -0.0688
C12B C 0.3450(3) 0.56376(8) -0.00771(11)
C13B C 0.3275(4) 0.52236(9) 0.05894(11)
H13B H 0.2102 0.5370 0.0995
C14B C 0.5191(4) 0.54055(9) -0.06678(11)
H14B H 0.5337 0.5676 -0.1126
N3B N 0.3599(3) 0.69555(7) 0.00459(10)
N4B N 0.5157(3) 0.72777(7) -0.05120(10)
O1 O 0.4928(3) 0.31462(7) 0.21740(9)
H15 H 0.4939 0.3031 0.1690
H16 H 0.3374 0.3373 0.2238
O2 O 0.9966(3) 0.38581(8) 0.24291(10)
H17 H 0.9746 0.4311 0.2421
H18 H 0.8329 0.3663 0.2386
loop_
_geom_bond_atom_site_label_1
_geom_bond_atom_site_label_2
_geom_bond_site_symmetry_1
_geom_bond_site_symmetry_2
C1 H1 1_555 1_555
C2 C1 1_555 1_555
H2 C2 1_555 1_555
C3 C2 1_555 1_555
H3 C3 1_555 1_555
C4 H4 1_555 1_555
H5 C4 1_555 1_555
C5 C4 1_555 1_555
C6 C5 1_555 1_555
H6 C6 1_555 1_555
C7 C5 1_555 1_555
H7 C7 1_555 1_555
C8 H8 1_555 1_555
C9 C8 1_555 1_555
H9 C9 1_555 1_555
C10 C9 1_555 1_555
H10 C10 1_555 1_555
C11 H11 1_555 1_555
H12 C11 1_555 1_555
C12 C11 1_555 1_555
C13 C12 1_555 1_555
H13 C13 1_555 1_555
C14 C12 1_555 1_555
H14 C14 1_555 1_555
N1 C1 1_555 1_555
N2 C3 1_555 1_555
N3 C8 1_555 1_555
N4 C10 1_555 1_555
O1 H15 1_555 1_555
H16 O1 1_555 1_555
O2 H17 1_555 1_555
H18 O2 1_555 1_555
C1B H1B 1_555 1_555
C2B C1B 1_555 1_555
H2B C2B 1_555 1_555
C3B C2B 1_555 1_555
H3B C3B 1_555 1_555
C4B H4B 1_555 1_555
H5B C4B 1_555 1_555
C5B C4B 1_555 1_555
C6B C7 1_555 1_555
H6B C6B 1_555 1_555
C7B C6 1_555 1_555
H7B C7B 1_555 1_555
C8B H8B 1_555 1_555
C9B C8B 1_555 1_555
H9B C9B 1_555 1_555
C10B C9B 1_555 1_555
H10B C10B 1_555 1_555
C11B H11B 1_555 1_555
H12B C11B 1_555 1_555
C12B C11B 1_555 1_555
C13B C14 1_555 1_555
H13B C13B 1_555 1_555
C14B C13 1_555 1_555
H14B C14B 1_555 1_555
N1B C1B 1_555 1_555
N2B C3B 1_555 1_555
N3B C8B 1_555 1_555
N4B C10B 1_555 1_555
C4 N1 1_555 1_555
C11 N3 1_555 1_555
N1 N2 1_555 1_555
N3 N4 1_555 1_555
C4B N1B 1_555 1_555
C5B C6B 1_555 1_555
C5B C7B 1_555 1_555
C11B N3B 1_555 1_555
C12B C13B 1_555 1_555
C12B C14B 1_555 1_555
N1B N2B 1_555 1_555
N3B N4B 1_555 1_555

#END
