
#######################################################################
#
#                 Cambridge Crystallographic Data Centre
#                                CCDC 
#
#######################################################################
#
# If this CIF has been generated from an entry in the Cambridge 
# Structural Database, then it will include bibliographic, chemical, 
# crystal, experimental, refinement or atomic coordinate data resulting 
# from the CCDC's data processing and validation procedures.
#
#######################################################################

data_NORFOQ01
_chemical_formula_moiety         'C14 H11 Cl1 N2 O4,H2 O1'
_chemical_name_systematic        
"N'-(5-Chloro-2-hydroxybenzylidene)-3,5-dihydroxybenzohydrazide monohydrate"
_symmetry_cell_setting           monoclinic
_symmetry_space_group_name_H-M   'P 21/c'
_symmetry_Int_Tables_number      14
_space_group_name_Hall           '-P 2ybc'
loop_
_symmetry_equiv_pos_site_id
_symmetry_equiv_pos_as_xyz
1 x,y,z
2 -x,1/2+y,1/2-z
3 -x,-y,-z
4 x,1/2-y,1/2+z
_cell_length_a                   14.124(10)
_cell_length_b                   8.022(5)
_cell_length_c                   13.138(9)
_cell_angle_alpha                90
_cell_angle_beta                 108.199(5)
_cell_angle_gamma                90
_cell_volume                     1414.11
_exptl_crystal_colour            yellow
_exptl_crystal_description       block
_cell_formula_units_Z            4
loop_
_atom_site_label
_atom_site_type_symbol
_atom_site_fract_x
_atom_site_fract_y
_atom_site_fract_z
Cl1 Cl 1.04896(4) 1.22611(9) 0.58703(5)
O1 O 0.47702(10) 0.8240(2) 0.64285(10)
N1 N 0.64777(11) 0.8953(2) 0.60289(12)
N2 N 0.56990(12) 0.8098(2) 0.53093(13)
O2 O 0.75853(11) 1.0100(2) 0.79547(11)
H1 H 0.7118 0.9594 0.7540
C1 C 0.48664(14) 0.7784(3) 0.55635(15)
C2 C 0.33792(14) 0.6022(3) 0.51392(15)
H2 H 0.3437 0.6063 0.5864
C3 C 0.32086(14) 0.5884(3) 0.29920(15)
O3 O 0.19247(12) 0.4287(2) 0.47752(12)
H3 H 0.2057 0.4399 0.5425
C4 C 0.82243(14) 1.0605(3) 0.74265(16)
C5 C 0.80595(13) 1.0271(2) 0.63457(15)
C6 C 0.39772(14) 0.6788(3) 0.36749(15)
H4 H 0.4431 0.7348 0.3415
C7 C 0.71920(14) 0.9382(3) 0.56798(16)
H5 H 0.7154 0.9116 0.4979
C8 C 0.25207(14) 0.5053(3) 0.33598(16)
H6 H 0.2006 0.4449 0.2889
C9 C 0.40636(13) 0.6849(2) 0.47594(14)
C10 C 0.87691(14) 1.0820(3) 0.58750(16)
H7 H 0.8669 1.0621 0.5152
C11 C 0.26089(14) 0.5134(3) 0.44342(16)
C12 C 0.90750(16) 1.1450(3) 0.80179(17)
H8 H 0.9179 1.1666 0.8740
C13 C 0.96068(15) 1.1645(3) 0.64702(17)
C14 C 0.97653(16) 1.1970(3) 0.75446(18)
H9 H 1.0335 1.2537 0.7944
O4 O 0.30889(11) 0.5757(2) 0.19157(11)
H10 H 0.3565 0.6191 0.1788
H11 H 0.5774(17) 0.779(3) 0.4685(11)
O5 O 0.62210(12) 0.7568(2) 0.83529(12)
H12 H 0.5835(14) 0.788(3) 0.7735(11)
H13 H 0.6431(17) 0.6639(19) 0.8177(19)
loop_
_geom_bond_atom_site_label_1
_geom_bond_atom_site_label_2
_geom_bond_site_symmetry_1
_geom_bond_site_symmetry_2
Cl1 C13 1_555 1_555
O1 C1 1_555 1_555
N1 N2 1_555 1_555
N2 C1 1_555 1_555
O2 H1 1_555 1_555
C1 C9 1_555 1_555
C2 H2 1_555 1_555
C3 C6 1_555 1_555
O3 H3 1_555 1_555
C4 O2 1_555 1_555
C5 C4 1_555 1_555
C6 H4 1_555 1_555
C7 N1 1_555 1_555
H5 C7 1_555 1_555
C8 C3 1_555 1_555
H6 C8 1_555 1_555
C9 C2 1_555 1_555
C10 C5 1_555 1_555
H7 C10 1_555 1_555
C11 C2 1_555 1_555
C12 C4 1_555 1_555
H8 C12 1_555 1_555
C13 C10 1_555 1_555
C14 C12 1_555 1_555
H9 C14 1_555 1_555
O4 C3 1_555 1_555
H10 O4 1_555 1_555
H11 N2 1_555 1_555
O5 H12 1_555 1_555
H13 O5 1_555 1_555
O3 C11 1_555 1_555
C5 C7 1_555 1_555
C6 C9 1_555 1_555
C8 C11 1_555 1_555
C13 C14 1_555 1_555

#END
