
#######################################################################
#
#                 Cambridge Crystallographic Data Centre
#                                CCDC 
#
#######################################################################
#
# If this CIF has been generated from an entry in the Cambridge 
# Structural Database, then it will include bibliographic, chemical, 
# crystal, experimental, refinement or atomic coordinate data resulting 
# from the CCDC's data processing and validation procedures.
#
#######################################################################

data_NORGIM
_chemical_formula_moiety         'C22 H14 F6 O1 S1'
_chemical_name_systematic        
4-(3,3,4,4,5,5-hexafluoro-2-(2-methyl-1-naphthyl)cyclopent-1-en-1-yl)-5-methylthiophene-2-carbaldehyde
_symmetry_cell_setting           monoclinic
_symmetry_space_group_name_H-M   'P 21/c'
_symmetry_Int_Tables_number      14
_space_group_name_Hall           '-P 2ybc'
loop_
_symmetry_equiv_pos_site_id
_symmetry_equiv_pos_as_xyz
1 x,y,z
2 -x,1/2+y,1/2-z
3 -x,-y,-z
4 x,1/2-y,1/2+z
_cell_length_a                   15.240(7)
_cell_length_b                   7.914(4)
_cell_length_c                   17.103(8)
_cell_angle_alpha                90
_cell_angle_beta                 111.709(6)
_cell_angle_gamma                90
_cell_volume                     1916.48
_exptl_crystal_colour            yellow
_exptl_crystal_description       block
_cell_formula_units_Z            4
loop_
_atom_site_label
_atom_site_type_symbol
_atom_site_fract_x
_atom_site_fract_y
_atom_site_fract_z
C1 C 0.2170(13) 0.0057(12) -0.1783(6)
H1 H 0.2157 -0.0869 -0.2122
C2 C 0.3043(8) 0.2231(10) -0.0808(5)
C3 C 0.2186(7) 0.2791(10) -0.0788(5)
C4 C 0.3888(12) 0.0247(14) -0.1365(8)
H2 H 0.3890 -0.0675 -0.1701
C5 C 0.3063(9) 0.0804(11) -0.1335(6)
C6 C 0.1353(12) 0.0571(14) -0.1758(7)
H3 H 0.0795 0.0017 -0.2071
C7 C 0.3919(9) 0.2980(13) -0.0355(6)
H4 H 0.3937 0.3911 -0.0018
C8 C 0.1339(9) 0.2024(11) -0.1230(5)
C9 C 0.4728(9) 0.2409(16) -0.0390(7)
H5 H 0.5295 0.2929 -0.0072
C10 C 0.0409(9) 0.2513(17) -0.1236(8)
H6 H 0.0320 0.3705 -0.1339
H7 H 0.0372 0.2249 -0.0702
H8 H -0.0073 0.1906 -0.1672
C11 C 0.4725(12) 0.1031(17) -0.0904(9)
H9 H 0.5289 0.0646 -0.0933
C12 C 0.2369(5) 0.4313(8) 0.0582(4)
C13 C 0.2217(6) 0.4274(8) -0.0237(4)
C14 C 0.2354(6) 0.6079(9) 0.0881(5)
C15 C 0.2164(6) 0.7219(9) 0.0123(5)
C16 C 0.2090(7) 0.6054(9) -0.0599(5)
C17 C 0.3518(5) 0.0965(9) 0.2123(5)
C18 C 0.2581(5) 0.2879(8) 0.1169(4)
C19 C 0.3486(5) 0.2247(9) 0.1585(4)
H10 H 0.4016 0.2661 0.1503
C20 C 0.1913(6) 0.2065(9) 0.1397(5)
O1 O 0.4352(5) -0.1147(8) 0.3095(4)
C21 C 0.4340(6) 0.0040(12) 0.2651(5)
H11 H 0.4920 0.0398 0.2647
C22 C 0.0879(6) 0.2369(13) 0.1118(6)
H12 H 0.0695 0.3219 0.0687
H13 H 0.0729 0.2745 0.1588
H14 H 0.0545 0.1340 0.0899
S1 S 0.24286(15) 0.0514(2) 0.21280(13)
F1 F 0.2746(5) 0.6426(6) -0.0919(3)
F2 F 0.1698(6) 0.6296(7) 0.1201(5)
F3 F 0.1266(5) 0.6231(6) -0.1242(3)
F4 F 0.3146(6) 0.6488(7) 0.1488(4)
F5 F 0.2796(7) 0.8352(10) 0.0251(4)
F6 F 0.1393(6) 0.8095(10) -0.0041(4)
loop_
_geom_bond_atom_site_label_1
_geom_bond_atom_site_label_2
_geom_bond_site_symmetry_1
_geom_bond_site_symmetry_2
C1 H1 1_555 1_555
C2 C3 1_555 1_555
C3 C8 1_555 1_555
C4 H2 1_555 1_555
C5 C1 1_555 1_555
C6 C1 1_555 1_555
H3 C6 1_555 1_555
C7 C2 1_555 1_555
H4 C7 1_555 1_555
C8 C6 1_555 1_555
C9 C7 1_555 1_555
H5 C9 1_555 1_555
C10 C8 1_555 1_555
H6 C10 1_555 1_555
H7 C10 1_555 1_555
H8 C10 1_555 1_555
C11 C4 1_555 1_555
H9 C11 1_555 1_555
C12 C13 1_555 1_555
C13 C3 1_555 1_555
C14 C12 1_555 1_555
C15 C14 1_555 1_555
C16 C13 1_555 1_555
C17 C19 1_555 1_555
C18 C12 1_555 1_555
C19 C18 1_555 1_555
H10 C19 1_555 1_555
C20 C18 1_555 1_555
O1 C21 1_555 1_555
C21 C17 1_555 1_555
H11 C21 1_555 1_555
C22 C20 1_555 1_555
H12 C22 1_555 1_555
H13 C22 1_555 1_555
H14 C22 1_555 1_555
S1 C17 1_555 1_555
F1 C16 1_555 1_555
F2 C14 1_555 1_555
F3 C16 1_555 1_555
F4 C14 1_555 1_555
F5 C15 1_555 1_555
F6 C15 1_555 1_555
C2 C5 1_555 1_555
C4 C5 1_555 1_555
C9 C11 1_555 1_555
C15 C16 1_555 1_555
C20 S1 1_555 1_555

#END
