
#######################################################################
#
#                 Cambridge Crystallographic Data Centre
#                                CCDC 
#
#######################################################################
#
# If this CIF has been generated from an entry in the Cambridge 
# Structural Database, then it will include bibliographic, chemical, 
# crystal, experimental, refinement or atomic coordinate data resulting 
# from the CCDC's data processing and validation procedures.
#
#######################################################################

data_NORGEI
_chemical_formula_moiety         'C22 H16 F6 S1'
_chemical_name_systematic        
3-(3,3,4,4,5,5-hexafluoro-2-(2-methyl-1-naphthyl)cyclopent-1-en-1-yl)-2,5-dimethylthiophene
_symmetry_cell_setting           monoclinic
_symmetry_space_group_name_H-M   'P 21/c'
_symmetry_Int_Tables_number      14
_space_group_name_Hall           '-P 2ybc'
loop_
_symmetry_equiv_pos_site_id
_symmetry_equiv_pos_as_xyz
1 x,y,z
2 -x,1/2+y,1/2-z
3 -x,-y,-z
4 x,1/2-y,1/2+z
_cell_length_a                   12.5447(16)
_cell_length_b                   14.5294(18)
_cell_length_c                   11.5769(14)
_cell_angle_alpha                90
_cell_angle_beta                 111.817(5)
_cell_angle_gamma                90
_cell_volume                     1958.95
_exptl_crystal_colour            colorless
_exptl_crystal_description       block
_cell_formula_units_Z            4
loop_
_atom_site_label
_atom_site_type_symbol
_atom_site_fract_x
_atom_site_fract_y
_atom_site_fract_z
S1 S 0.38836(5) 0.22207(4) 0.73118(5)
C1 C 0.19900(14) 0.50745(13) 0.80133(15)
C2 C 0.26205(15) 0.47118(14) 0.74163(16)
C3 C 0.31666(15) 0.38055(14) 0.76020(17)
C4 C 0.43720(16) 0.26502(15) 0.87970(17)
C5 C 0.39080(16) 0.34902(15) 0.88067(17)
H1 H 0.4057 0.3832 0.9529
C6 C 0.30787(15) 0.31762(15) 0.66983(17)
C7 C 0.16099(18) 0.60305(15) 0.75521(19)
C8 C 0.2317(2) 0.62766(17) 0.6791(2)
C9 C 0.5196(2) 0.21069(17) 0.9850(2)
H2 H 0.5951 0.2147 0.9824
H3 H 0.4958 0.1475 0.9775
H4 H 0.5209 0.2350 1.0625
C10 C 0.2747(3) 0.54039(19) 0.6518(3)
C11 C 0.23808(19) 0.32034(17) 0.53122(18)
H5 H 0.1638 0.3461 0.5170
H6 H 0.2293 0.2590 0.4981
H7 H 0.2769 0.3577 0.4907
C12 C 0.15776(15) 0.46187(13) 0.89231(16)
C13 C 0.20983(15) 0.48658(13) 1.02150(16)
C14 C 0.16279(17) 0.44972(15) 1.10596(19)
C15 C 0.30663(17) 0.54412(15) 1.06941(18)
H8 H 0.3397 0.5676 1.0158
C16 C 0.06795(16) 0.40155(15) 0.85158(19)
C17 C 0.02437(18) 0.36524(16) 0.9394(2)
H9 H -0.0368 0.3241 0.9128
C18 C 0.07018(19) 0.38938(17) 1.0607(2)
H10 H 0.0390 0.3650 1.1155
C19 C 0.2126(2) 0.47497(19) 1.2328(2)
H11 H 0.1817 0.4520 1.2886
C20 C 0.01246(18) 0.37124(18) 0.71756(19)
H12 H 0.0172 0.4201 0.6639
H13 H -0.0667 0.3564 0.6995
H14 H 0.0516 0.3179 0.7041
C21 C 0.3531(2) 0.56634(18) 1.1932(2)
H15 H 0.4173 0.6043 1.2230
C22 C 0.3040(3) 0.5317(2) 1.2743(2)
H16 H 0.3346 0.5480 1.3580
F1 F 0.17504(12) 0.66513(9) 0.84651(12)
F2 F 0.04822(11) 0.60627(10) 0.68409(13)
F3 F 0.3714(2) 0.53593(16) 0.6329(3)
F4 F 0.1842(2) 0.68475(15) 0.58540(19)
F5 F 0.1925(2) 0.51788(14) 0.52542(14)
F6 F 0.33003(18) 0.67146(16) 0.7574(2)
F7? F 0.1342(7) 0.6118(8) 0.5529(7)
F8? F 0.2563(8) 0.7103(6) 0.6757(10)
F9? F 0.3060(8) 0.5287(6) 0.5845(8)
F10? F 0.4110(5) 0.5836(4) 0.7550(5)
loop_
_geom_bond_atom_site_label_1
_geom_bond_atom_site_label_2
_geom_bond_site_symmetry_1
_geom_bond_site_symmetry_2
S1 C4 1_555 1_555
C1 C2 1_555 1_555
C2 C3 1_555 1_555
C3 C5 1_555 1_555
C4 C5 1_555 1_555
C5 H1 1_555 1_555
C6 S1 1_555 1_555
C7 C1 1_555 1_555
C8 C7 1_555 1_555
C9 C4 1_555 1_555
H2 C9 1_555 1_555
H3 C9 1_555 1_555
H4 C9 1_555 1_555
C10 C2 1_555 1_555
C11 C6 1_555 1_555
H5 C11 1_555 1_555
H6 C11 1_555 1_555
H7 C11 1_555 1_555
C12 C1 1_555 1_555
C13 C12 1_555 1_555
C14 C13 1_555 1_555
C15 C13 1_555 1_555
H8 C15 1_555 1_555
C16 C12 1_555 1_555
C17 C16 1_555 1_555
H9 C17 1_555 1_555
C18 C14 1_555 1_555
H10 C18 1_555 1_555
C19 C14 1_555 1_555
H11 C19 1_555 1_555
C20 C16 1_555 1_555
H12 C20 1_555 1_555
H13 C20 1_555 1_555
H14 C20 1_555 1_555
C21 C15 1_555 1_555
H15 C21 1_555 1_555
C22 C19 1_555 1_555
H16 C22 1_555 1_555
F1 C7 1_555 1_555
F2 C7 1_555 1_555
F3 C10 1_555 1_555
F4 C8 1_555 1_555
F5 C10 1_555 1_555
F6 C8 1_555 1_555
C3 C6 1_555 1_555
C8 C10 1_555 1_555
C17 C18 1_555 1_555
C21 C22 1_555 1_555

#END
