
#######################################################################
#
#                 Cambridge Crystallographic Data Centre
#                                CCDC 
#
#######################################################################
#
# If this CIF has been generated from an entry in the Cambridge 
# Structural Database, then it will include bibliographic, chemical, 
# crystal, experimental, refinement or atomic coordinate data resulting 
# from the CCDC's data processing and validation procedures.
#
#######################################################################

data_NORHOT
_chemical_formula_moiety         'C15 H12 Br2 N2 O2'
_chemical_name_systematic        
2-(3,5-dibromo-2-hydroxyphenyl)-4-methyl-1,2-dihydro-3\l^5^-quinazolin-3-ol
_symmetry_cell_setting           monoclinic
_symmetry_space_group_name_H-M   'P 21/c'
_symmetry_Int_Tables_number      14
_space_group_name_Hall           '-P 2ybc'
loop_
_symmetry_equiv_pos_site_id
_symmetry_equiv_pos_as_xyz
1 x,y,z
2 -x,1/2+y,1/2-z
3 -x,-y,-z
4 x,1/2-y,1/2+z
_cell_length_a                   10.826(7)
_cell_length_b                   14.822(9)
_cell_length_c                   9.992(6)
_cell_angle_alpha                90
_cell_angle_beta                 117.445(6)
_cell_angle_gamma                90
_cell_volume                     1422.9
_exptl_crystal_colour            colorless
_cell_formula_units_Z            4
loop_
_atom_site_label
_atom_site_type_symbol
_atom_site_fract_x
_atom_site_fract_y
_atom_site_fract_z
Br1 Br -0.12186(2) -0.122164(14) 0.79948(3)
Br2 Br 0.20896(2) -0.203393(15) 0.51379(3)
O1 O 0.19254(15) 0.18135(10) 0.94292(17)
O2 O -0.00184(15) 0.06119(10) 0.81830(17)
H1 H 0.0144 0.0410 0.9012
N1 N 0.27022(16) 0.15200(10) 0.88085(18)
N2 N 0.27584(17) 0.15055(11) 0.64428(19)
H2 H 0.2422 0.1787 0.5595
C1 C 0.0048(2) -0.08516(13) 0.7294(2)
C2 C 0.04963(19) 0.00483(12) 0.7513(2)
C3 C 0.14338(18) 0.03174(12) 0.69799(19)
C4 C 0.18817(19) -0.02999(13) 0.6250(2)
H3 H 0.2479 -0.0117 0.5868
C5 C 0.1439(2) -0.11879(13) 0.6091(2)
C6 C 0.0523(2) -0.14767(13) 0.6611(2)
H4 H 0.0234 -0.2075 0.6503
C7 C 0.4145(2) 0.12353(12) 0.7162(2)
C8 C 0.4903(2) 0.10924(15) 0.6367(3)
H5 H 0.4489 0.1184 0.5330
C9 C 0.6279(3) 0.08132(17) 0.7136(3)
H6 H 0.6784 0.0720 0.6606
C10 C 0.6911(2) 0.06714(16) 0.8677(3)
H7 H 0.7828 0.0471 0.9173
C11 C 0.6183(2) 0.08265(13) 0.9475(3)
H8 H 0.6617 0.0741 1.0514
C12 C 0.47871(19) 0.11128(12) 0.8736(2)
C13 C 0.4040(2) 0.13733(12) 0.9565(2)
C14 C 0.4745(2) 0.14976(15) 1.1236(2)
H9 H 0.5413 0.1977 1.1503
H10 H 0.5211 0.0949 1.1715
H11 H 0.4065 0.1646 1.1565
C15 C 0.19127(19) 0.13029(12) 0.7151(2)
H12 H 0.1084 0.1688 0.6703
loop_
_geom_bond_atom_site_label_1
_geom_bond_atom_site_label_2
_geom_bond_site_symmetry_1
_geom_bond_site_symmetry_2
Br1 C1 1_555 1_555
Br2 C5 1_555 1_555
O1 N1 1_555 1_555
O2 H1 1_555 1_555
N1 C13 1_555 1_555
N2 H2 1_555 1_555
C1 C2 1_555 1_555
C2 O2 1_555 1_555
C3 C2 1_555 1_555
C4 C3 1_555 1_555
H3 C4 1_555 1_555
C5 C4 1_555 1_555
C6 C1 1_555 1_555
H4 C6 1_555 1_555
C7 N2 1_555 1_555
C8 C7 1_555 1_555
H5 C8 1_555 1_555
C9 C8 1_555 1_555
H6 C9 1_555 1_555
C10 C9 1_555 1_555
H7 C10 1_555 1_555
C11 C10 1_555 1_555
H8 C11 1_555 1_555
C12 C7 1_555 1_555
C13 C12 1_555 1_555
C14 C13 1_555 1_555
H9 C14 1_555 1_555
H10 C14 1_555 1_555
H11 C14 1_555 1_555
C15 N1 1_555 1_555
H12 C15 1_555 1_555
N2 C15 1_555 1_555
C3 C15 1_555 1_555
C5 C6 1_555 1_555
C11 C12 1_555 1_555

#END
