
#######################################################################
#
#                 Cambridge Crystallographic Data Centre
#                                CCDC 
#
#######################################################################
#
# If this CIF has been generated from an entry in the Cambridge 
# Structural Database, then it will include bibliographic, chemical, 
# crystal, experimental, refinement or atomic coordinate data resulting 
# from the CCDC's data processing and validation procedures.
#
#######################################################################

data_NORJEK
_chemical_formula_moiety         'C12 H15 N1 O3'
_chemical_name_systematic        4-(4-Ethoxybenzyl)-1,3-oxazolidin-2-one
_symmetry_cell_setting           orthorhombic
_symmetry_space_group_name_H-M   'P 21 21 21'
_symmetry_Int_Tables_number      19
_space_group_name_Hall           'P 2ac 2ab'
loop_
_symmetry_equiv_pos_site_id
_symmetry_equiv_pos_as_xyz
1 x,y,z
2 1/2-x,-y,1/2+z
3 -x,1/2+y,1/2-z
4 1/2+x,1/2-y,-z
_cell_length_a                   5.7960(12)
_cell_length_b                   9.924(2)
_cell_length_c                   20.209(4)
_cell_angle_alpha                90
_cell_angle_beta                 90
_cell_angle_gamma                90
_cell_volume                     1162.41
_exptl_crystal_colour            colorless
_exptl_crystal_description       needle
_cell_formula_units_Z            4
_exptl_crystal_recrystallization_method methanol
loop_
_atom_site_label
_atom_site_type_symbol
_atom_site_fract_x
_atom_site_fract_y
_atom_site_fract_z
N1 N -0.1179(6) 0.5921(3) 1.00790(17)
H1 H -0.1581 0.6728 1.0182
O1 O 0.4026(6) 0.3182(3) 1.25901(14)
O2 O 0.0990(5) 0.4271(3) 0.97230(16)
O3 O 0.2494(5) 0.6348(3) 0.97241(19)
C1 C 0.7072(9) 0.3538(5) 1.3348(2)
H2 H 0.7873 0.4207 1.3603
H3 H 0.8134 0.3107 1.3051
H4 H 0.6415 0.2878 1.3639
C2 C 0.5179(9) 0.4202(4) 1.2955(2)
H5 H 0.4105 0.4650 1.3250
H6 H 0.5824 0.4869 1.2657
C3 C 0.2251(8) 0.3587(4) 1.21793(19)
C4 C 0.1675(9) 0.4911(4) 1.2056(2)
H7 H 0.2504 0.5608 1.2252
C5 C -0.0159(8) 0.5190(4) 1.1637(2)
H8 H -0.0542 0.6086 1.1559
C6 C -0.1449(8) 0.4190(4) 1.13291(19)
C7 C -0.0758(10) 0.2863(4) 1.1469(2)
H9 H -0.1548 0.2156 1.1270
C8 C 0.1011(10) 0.2573(4) 1.1883(2)
H10 H 0.1391 0.1679 1.1967
C9 C -0.3390(7) 0.4521(4) 1.0869(2)
H11 H -0.4173 0.5317 1.1033
H12 H -0.4490 0.3784 1.0877
C10 C -0.2686(7) 0.4773(4) 1.0154(2)
H13 H -0.4074 0.4910 0.9885
C11 C -0.1210(7) 0.3682(4) 0.9839(2)
H14 H -0.1071 0.2914 1.0134
H15 H -0.1892 0.3381 0.9427
C12 C 0.0875(7) 0.5618(4) 0.9838(2)
loop_
_geom_bond_atom_site_label_1
_geom_bond_atom_site_label_2
_geom_bond_site_symmetry_1
_geom_bond_site_symmetry_2
N1 H1 1_555 1_555
O1 C2 1_555 1_555
O2 C11 1_555 1_555
O3 C12 1_555 1_555
C1 H2 1_555 1_555
H3 C1 1_555 1_555
H4 C1 1_555 1_555
C2 C1 1_555 1_555
H5 C2 1_555 1_555
H6 C2 1_555 1_555
C3 O1 1_555 1_555
C4 C3 1_555 1_555
H7 C4 1_555 1_555
C5 C4 1_555 1_555
H8 C5 1_555 1_555
C6 C5 1_555 1_555
C7 C6 1_555 1_555
H9 C7 1_555 1_555
C8 C3 1_555 1_555
H10 C8 1_555 1_555
C9 C6 1_555 1_555
H11 C9 1_555 1_555
H12 C9 1_555 1_555
C10 N1 1_555 1_555
H13 C10 1_555 1_555
C11 C10 1_555 1_555
H14 C11 1_555 1_555
H15 C11 1_555 1_555
C12 N1 1_555 1_555
O2 C12 1_555 1_555
C7 C8 1_555 1_555
C9 C10 1_555 1_555

#END
