
#######################################################################
#
#                 Cambridge Crystallographic Data Centre
#                                CCDC 
#
#######################################################################
#
# If this CIF has been generated from an entry in the Cambridge 
# Structural Database, then it will include bibliographic, chemical, 
# crystal, experimental, refinement or atomic coordinate data resulting 
# from the CCDC's data processing and validation procedures.
#
#######################################################################

data_NORKAI
_chemical_formula_moiety         'C12 H20 Ca1 N4 O6 2+,H2 O1,2(Cl1 1-)'
_chemical_name_systematic        
'tetra-aqua-bis(pyridine-2-carboxamide)-calcium dichloride monohydrate'
_symmetry_cell_setting           triclinic
_symmetry_space_group_name_H-M   'P -1'
_symmetry_Int_Tables_number      2
_space_group_name_Hall           '-P 1'
loop_
_symmetry_equiv_pos_site_id
_symmetry_equiv_pos_as_xyz
1 x,y,z
2 -x,-y,-z
_cell_length_a                   8.7706(18)
_cell_length_b                   10.206(2)
_cell_length_c                   12.242(2)
_cell_angle_alpha                91.87(3)
_cell_angle_beta                 109.82(3)
_cell_angle_gamma                90.82(3)
_cell_volume                     1029.98
_exptl_crystal_colour            colorless
_exptl_crystal_description       block
_cell_formula_units_Z            2
loop_
_atom_site_label
_atom_site_type_symbol
_atom_site_fract_x
_atom_site_fract_y
_atom_site_fract_z
Ca1 Ca 0.38478(5) 0.25284(4) 0.71127(4)
O1 O 0.4701(2) 0.40413(18) 0.87348(16)
H1 H 0.5629 0.4338 0.9037
H2 H 0.4086 0.4224 0.9091
O2 O 0.6794(2) 0.26301(18) 0.76459(16)
H3 H 0.7446 0.2770 0.8324
H4 H 0.7282 0.2203 0.7274
O3 O 0.4423(2) 0.15039(17) 0.54467(16)
H5 H 0.5371 0.1273 0.5531
H6 H 0.3774 0.0934 0.5018
O4 O 0.1489(2) 0.13575(19) 0.58210(17)
H7 H 0.1566 0.0698 0.5416
H8 H 0.0619 0.1318 0.5964
O5 O 0.4062(2) 0.42964(17) 0.59447(16)
O6 O 0.2440(2) 0.18292(16) 0.83753(16)
N1 N 0.1605(2) 0.42919(19) 0.67457(17)
N2 N 0.3589(3) 0.6307(2) 0.5254(2)
H9 H 0.4402 0.6270 0.4987
H10 H 0.2999 0.7012 0.5159
N3 N 0.4550(3) 0.0226(2) 0.79440(19)
N4 N 0.1328(3) 0.0273(2) 0.9137(2)
H11 H 0.0640 0.0824 0.9268
H12 H 0.1315 -0.0550 0.9327
C1 C 0.3254(3) 0.5300(2) 0.5799(2)
C2 C 0.1854(3) 0.5391(2) 0.6247(2)
C3 C 0.0904(3) 0.6474(3) 0.6144(2)
H13 H 0.1125 0.7235 0.5791
C4 C -0.0376(3) 0.6438(3) 0.6561(3)
H14 H -0.1048 0.7173 0.6501
C5 C -0.0658(3) 0.5314(3) 0.7066(2)
H15 H -0.1533 0.5258 0.7356
C6 C 0.0357(3) 0.4271(3) 0.7144(2)
H16 H 0.0162 0.3502 0.7498
C7 C 0.2384(3) 0.0684(2) 0.8654(2)
C8 C 0.3550(3) -0.0287(2) 0.8453(2)
C9 C 0.3638(4) -0.1568(3) 0.8788(3)
H17 H 0.2918 -0.1902 0.9149
C10 C 0.4796(4) -0.2358(3) 0.8590(3)
H18 H 0.4870 -0.3249 0.8800
C11 C 0.5832(4) -0.1837(3) 0.8087(3)
H19 H 0.6651 -0.2353 0.7956
C12 C 0.5663(3) -0.0552(3) 0.7777(3)
H20 H 0.6381 -0.0198 0.7424
Cl1 Cl 0.95803(7) 0.27018(6) 1.00999(5)
Cl2 Cl 0.19713(7) -0.08666(6) 0.41044(6)
O7 O 0.7575(2) 0.52892(17) 1.00874(16)
H21 H 0.8090 0.4615 1.0151
H22 H 0.8190 0.5887 1.0055
loop_
_geom_bond_atom_site_label_1
_geom_bond_atom_site_label_2
_geom_bond_site_symmetry_1
_geom_bond_site_symmetry_2
Ca1 O1 1_555 1_555
O1 H1 1_555 1_555
H2 O1 1_555 1_555
O2 Ca1 1_555 1_555
H3 O2 1_555 1_555
H4 O2 1_555 1_555
O3 Ca1 1_555 1_555
H5 O3 1_555 1_555
H6 O3 1_555 1_555
O4 Ca1 1_555 1_555
H7 O4 1_555 1_555
H8 O4 1_555 1_555
O5 Ca1 1_555 1_555
O6 Ca1 1_555 1_555
N1 Ca1 1_555 1_555
N2 H9 1_555 1_555
H10 N2 1_555 1_555
N3 Ca1 1_555 1_555
N4 H11 1_555 1_555
H12 N4 1_555 1_555
C1 O5 1_555 1_555
C2 N1 1_555 1_555
C3 C2 1_555 1_555
H13 C3 1_555 1_555
C4 C3 1_555 1_555
H14 C4 1_555 1_555
C5 C4 1_555 1_555
H15 C5 1_555 1_555
C6 N1 1_555 1_555
H16 C6 1_555 1_555
C7 O6 1_555 1_555
C8 N3 1_555 1_555
C9 C8 1_555 1_555
H17 C9 1_555 1_555
C10 C9 1_555 1_555
H18 C10 1_555 1_555
C11 C10 1_555 1_555
H19 C11 1_555 1_555
C12 N3 1_555 1_555
H20 C12 1_555 1_555
O7 H21 1_555 1_555
H22 O7 1_555 1_555
N2 C1 1_555 1_555
N4 C7 1_555 1_555
C1 C2 1_555 1_555
C5 C6 1_555 1_555
C7 C8 1_555 1_555
C11 C12 1_555 1_555

#END
