
#######################################################################
#
#                 Cambridge Crystallographic Data Centre
#                                CCDC 
#
#######################################################################
#
# If this CIF has been generated from an entry in the Cambridge 
# Structural Database, then it will include bibliographic, chemical, 
# crystal, experimental, refinement or atomic coordinate data resulting 
# from the CCDC's data processing and validation procedures.
#
#######################################################################

data_NORRUI
_chemical_name_common            
'(2R,3S)-Methyl 3-(p-bromophenyl)-2-((diphenylmethylene)amino)-3-(p-toluenesulfonylamino)propanoate'
_chemical_formula_moiety         'C30 H27 Br1 N2 O4 S1'
_chemical_name_systematic        
'(R,S)-Methyl 4-bromo-N-(diphenylmethylene)-\b-(((4-methylphenyl)sulfonyl)amino)phenylalaninate'
_symmetry_cell_setting           orthorhombic
_symmetry_space_group_name_H-M   'P 21 21 21'
_symmetry_Int_Tables_number      19
_space_group_name_Hall           'P 2ac 2ab'
loop_
_symmetry_equiv_pos_site_id
_symmetry_equiv_pos_as_xyz
1 x,y,z
2 1/2-x,-y,1/2+z
3 -x,1/2+y,1/2-z
4 1/2+x,1/2-y,-z
_cell_length_a                   9.517(3)
_cell_length_b                   10.707(3)
_cell_length_c                   27.359(7)
_cell_angle_alpha                90
_cell_angle_beta                 90
_cell_angle_gamma                90
_cell_volume                     2787.84
_exptl_crystal_colour            colorless
_exptl_crystal_description       prismatic
_chemical_melting_point          198-200deg.C
_cell_formula_units_Z            4
loop_
_atom_site_label
_atom_site_type_symbol
_atom_site_fract_x
_atom_site_fract_y
_atom_site_fract_z
Br1 Br 0.27818(6) 0.90933(4) 0.02033(2)
S1 S 0.30030(10) 0.24029(8) -0.01470(4)
O1 O 0.1637(4) 0.1482(3) 0.14087(18)
O2 O 0.3932(4) 0.1179(3) 0.14570(15)
O3 O 0.1585(3) 0.1932(2) -0.01035(12)
O4 O 0.4056(3) 0.1618(2) -0.03554(11)
N1 N 0.4599(4) 0.3510(3) 0.13270(14)
N2 N 0.3537(4) 0.2716(3) 0.04006(13)
C1 C 0.2699(5) 0.3490(4) 0.07308(17)
C2 C 0.3123(5) 0.3220(4) 0.12587(17)
C3 C 0.2787(6) 0.1877(4) 0.13808(16)
C4 C 0.3651(7) -0.0130(4) 0.1556(2)
H1 H 0.3025 -0.0198 0.1830
H2 H 0.4516 -0.0551 0.1629
H3 H 0.3225 -0.0507 0.1274
C5 C 0.2755(5) 0.4886(3) 0.06235(15)
C6 C 0.1573(5) 0.5610(4) 0.06831(17)
H4 H 0.0752 0.5244 0.0799
C7 C 0.1582(5) 0.6871(4) 0.05744(19)
H5 H 0.0780 0.7357 0.0615
C8 C 0.2807(5) 0.7383(3) 0.04058(18)
C9 C 0.4002(5) 0.6709(4) 0.03606(18)
H6 H 0.4824 0.7087 0.0252
C10 C 0.3990(5) 0.5465(4) 0.04763(17)
H7 H 0.4816 0.5004 0.0456
C11 C 0.4969(5) 0.4253(4) 0.16716(18)
C12 C 0.3996(5) 0.4903(5) 0.2009(2)
C13 C 0.3508(7) 0.6104(5) 0.1903(3)
H8 H 0.3741 0.6492 0.1610
C14 C 0.2673(9) 0.6699(7) 0.2243(5)
H9 H 0.2392 0.7517 0.2183
C15 C 0.2261(9) 0.6146(13) 0.2648(5)
H10 H 0.1701 0.6579 0.2869
C16 C 0.2646(9) 0.4956(12) 0.2745(3)
H11 H 0.2292 0.4542 0.3017
C17 C 0.3556(6) 0.4378(7) 0.2439(2)
H12 H 0.3895 0.3593 0.2524
C18 C 0.6500(5) 0.4449(4) 0.17524(17)
C19 C 0.7011(6) 0.5250(5) 0.21076(19)
H13 H 0.6387 0.5714 0.2296
C20 C 0.8451(6) 0.5366(6) 0.2186(2)
H14 H 0.8784 0.5906 0.2426
C21 C 0.9353(6) 0.4704(6) 0.1918(2)
H15 H 1.0312 0.4778 0.1976
C22 C 0.8895(6) 0.3928(7) 0.1563(2)
H16 H 0.9542 0.3487 0.1376
C23 C 0.7484(5) 0.3786(5) 0.14765(19)
H17 H 0.7181 0.3245 0.1232
C24 C 0.2922(5) 0.3804(3) -0.04857(15)
C25 C 0.1710(5) 0.4494(4) -0.04880(18)
H18 H 0.0910 0.4196 -0.0332
C26 C 0.1683(5) 0.5624(4) -0.0722(2)
H19 H 0.0853 0.6082 -0.0729
C27 C 0.2865(7) 0.6093(4) -0.09473(18)
C28 C 0.4074(6) 0.5376(4) -0.09512(19)
H20 H 0.4873 0.5663 -0.1112
C29 C 0.4094(5) 0.4237(4) -0.07176(17)
H21 H 0.4910 0.3760 -0.0718
C30 C 0.2847(8) 0.7376(5) -0.1189(3)
H22 H 0.3718 0.7510 -0.1358
H23 H 0.2726 0.8008 -0.0944
H24 H 0.2084 0.7417 -0.1418
H25 H 0.175(2) 0.323(4) 0.0705(16)
H26 H 0.266(4) 0.365(3) 0.1504(11)
H27 H 0.425(4) 0.310(5) 0.031(2)
loop_
_geom_bond_atom_site_label_1
_geom_bond_atom_site_label_2
_geom_bond_site_symmetry_1
_geom_bond_site_symmetry_2
Br1 C8 1_555 1_555
S1 O3 1_555 1_555
O1 C3 1_555 1_555
O2 C3 1_555 1_555
O4 S1 1_555 1_555
N1 C2 1_555 1_555
N2 S1 1_555 1_555
C1 N2 1_555 1_555
C2 C1 1_555 1_555
C3 C2 1_555 1_555
C4 O2 1_555 1_555
H1 C4 1_555 1_555
H2 C4 1_555 1_555
H3 C4 1_555 1_555
C5 C1 1_555 1_555
C6 C5 1_555 1_555
H4 C6 1_555 1_555
C7 C6 1_555 1_555
H5 C7 1_555 1_555
C8 C7 1_555 1_555
C9 C8 1_555 1_555
H6 C9 1_555 1_555
C10 C5 1_555 1_555
H7 C10 1_555 1_555
C11 N1 1_555 1_555
C12 C11 1_555 1_555
C13 C12 1_555 1_555
H8 C13 1_555 1_555
C14 C13 1_555 1_555
H9 C14 1_555 1_555
C15 C14 1_555 1_555
H10 C15 1_555 1_555
C16 C15 1_555 1_555
H11 C16 1_555 1_555
C17 C12 1_555 1_555
H12 C17 1_555 1_555
C18 C11 1_555 1_555
C19 C18 1_555 1_555
H13 C19 1_555 1_555
C20 C19 1_555 1_555
H14 C20 1_555 1_555
C21 C20 1_555 1_555
H15 C21 1_555 1_555
C22 C21 1_555 1_555
H16 C22 1_555 1_555
C23 C18 1_555 1_555
H17 C23 1_555 1_555
C24 S1 1_555 1_555
C25 C24 1_555 1_555
H18 C25 1_555 1_555
C26 C25 1_555 1_555
H19 C26 1_555 1_555
C27 C26 1_555 1_555
C28 C27 1_555 1_555
H20 C28 1_555 1_555
C29 C24 1_555 1_555
H21 C29 1_555 1_555
C30 C27 1_555 1_555
H22 C30 1_555 1_555
H23 C30 1_555 1_555
H24 C30 1_555 1_555
H25 C1 1_555 1_555
H26 C2 1_555 1_555
H27 N2 1_555 1_555
C9 C10 1_555 1_555
C16 C17 1_555 1_555
C22 C23 1_555 1_555
C28 C29 1_555 1_555

#END
