
#######################################################################
#
#                 Cambridge Crystallographic Data Centre
#                                CCDC 
#
#######################################################################
#
# If this CIF has been generated from an entry in the Cambridge 
# Structural Database, then it will include bibliographic, chemical, 
# crystal, experimental, refinement or atomic coordinate data resulting 
# from the CCDC's data processing and validation procedures.
#
#######################################################################

data_NORVEX01
_chemical_formula_moiety         'C25 H22 N2'
_chemical_name_systematic        
(3-(2-(Biphenyl-4-yl)vinyl)-5,5-dimethylcyclohex-2-en-1-ylidene)malononitrile
_symmetry_cell_setting           monoclinic
_symmetry_space_group_name_H-M   'P 21'
_symmetry_Int_Tables_number      4
_space_group_name_Hall           'P 2yb'
loop_
_symmetry_equiv_pos_site_id
_symmetry_equiv_pos_as_xyz
1 x,y,z
2 -x,1/2+y,-z
_cell_length_a                   5.9539(12)
_cell_length_b                   7.3758(15)
_cell_length_c                   22.019(5)
_cell_angle_alpha                90
_cell_angle_beta                 91.787(3)
_cell_angle_gamma                90
_cell_volume                     966.489
_exptl_crystal_colour            orange
_exptl_crystal_description       Platelet
_cell_formula_units_Z            2
loop_
_atom_site_label
_atom_site_type_symbol
_atom_site_fract_x
_atom_site_fract_y
_atom_site_fract_z
N1 N 1.0541(4) 0.7032(3) 0.78110(9)
N2 N 1.1016(3) 0.5257(4) 0.96871(8)
C1 C -0.5260(3) 0.1294(3) 0.45674(8)
H1 H -0.6050 0.0785 0.4895
C2 C -0.6242(3) 0.1266(3) 0.39869(8)
H2 H -0.7687 0.0742 0.3922
C3 C -0.5116(3) 0.2001(3) 0.35013(8)
H3 H -0.5786 0.1985 0.3104
C4 C -0.3010(3) 0.2757(3) 0.36016(8)
H4 H -0.2226 0.3254 0.3271
C5 C -0.2042(3) 0.2792(3) 0.41824(8)
H5 H -0.0602 0.3329 0.4245
C6 C -0.3137(3) 0.2053(2) 0.46809(7)
C7 C -0.2056(3) 0.2058(2) 0.53013(7)
C8 C 0.0024(3) 0.2911(2) 0.54136(8)
H6 H 0.0737 0.3505 0.5089
C9 C 0.1063(3) 0.2910(3) 0.59829(8)
H7 H 0.2466 0.3507 0.6042
C10 C 0.0081(3) 0.2041(2) 0.64768(7)
C11 C -0.2002(3) 0.1206(3) 0.63677(8)
H8 H -0.2718 0.0621 0.6694
C12 C -0.3050(3) 0.1209(3) 0.57970(8)
H9 H -0.4465 0.0626 0.5740
C13 C 0.1167(3) 0.1946(3) 0.70806(8)
H10 H 0.0456 0.1235 0.7379
C14 C 0.3094(3) 0.2786(3) 0.72464(8)
H11 H 0.3799 0.3498 0.6947
C15 C 0.4183(3) 0.2698(2) 0.78434(8)
C16 C 0.6023(3) 0.3759(3) 0.79575(8)
H12 H 0.6600 0.4456 0.7635
C17 C 0.7122(3) 0.3866(3) 0.85456(8)
C18 C 0.6159(3) 0.2794(3) 0.90528(8)
H13 H 0.5051 0.3553 0.9262
H14 H 0.7379 0.2490 0.9351
C19 C 0.5009(3) 0.1036(3) 0.88379(8)
C20 C 0.3287(3) 0.1485(3) 0.83269(8)
H15 H 0.2761 0.0340 0.8136
H16 H 0.1972 0.2080 0.8506
C21 C 0.6755(4) -0.0306(3) 0.86088(10)
H17 H 0.6008 -0.1442 0.8490
H18 H 0.7881 -0.0548 0.8933
H19 H 0.7492 0.0212 0.8257
C22 C 0.3787(4) 0.0190(4) 0.93682(9)
H20 H 0.4882 -0.0131 0.9692
H21 H 0.2992 -0.0903 0.9229
H22 H 0.2705 0.1062 0.9524
C23 C 0.8940(3) 0.4981(3) 0.86431(8)
C24 C 0.9827(3) 0.6106(3) 0.81766(9)
C25 C 1.0071(3) 0.5129(3) 0.92275(9)
loop_
_geom_bond_atom_site_label_1
_geom_bond_atom_site_label_2
_geom_bond_site_symmetry_1
_geom_bond_site_symmetry_2
N1 C24 1_555 1_555
N2 C25 1_555 1_555
C1 H1 1_555 1_555
C2 C1 1_555 1_555
H2 C2 1_555 1_555
C3 C2 1_555 1_555
H3 C3 1_555 1_555
C4 C3 1_555 1_555
H4 C4 1_555 1_555
C5 C4 1_555 1_555
H5 C5 1_555 1_555
C6 C1 1_555 1_555
C7 C6 1_555 1_555
C8 C7 1_555 1_555
H6 C8 1_555 1_555
C9 C8 1_555 1_555
H7 C9 1_555 1_555
C10 C9 1_555 1_555
C11 C10 1_555 1_555
H8 C11 1_555 1_555
C12 C7 1_555 1_555
H9 C12 1_555 1_555
C13 C10 1_555 1_555
H10 C13 1_555 1_555
C14 C13 1_555 1_555
H11 C14 1_555 1_555
C15 C14 1_555 1_555
C16 C15 1_555 1_555
H12 C16 1_555 1_555
C17 C16 1_555 1_555
C18 C17 1_555 1_555
H13 C18 1_555 1_555
H14 C18 1_555 1_555
C19 C18 1_555 1_555
C20 C15 1_555 1_555
H15 C20 1_555 1_555
H16 C20 1_555 1_555
C21 C19 1_555 1_555
H17 C21 1_555 1_555
H18 C21 1_555 1_555
H19 C21 1_555 1_555
C22 C19 1_555 1_555
H20 C22 1_555 1_555
H21 C22 1_555 1_555
H22 C22 1_555 1_555
C23 C17 1_555 1_555
C24 C23 1_555 1_555
C25 C23 1_555 1_555
C5 C6 1_555 1_555
C11 C12 1_555 1_555
C19 C20 1_555 1_555

#END
