
#######################################################################
#
#                 Cambridge Crystallographic Data Centre
#                                CCDC 
#
#######################################################################
#
# If this CIF has been generated from an entry in the Cambridge 
# Structural Database, then it will include bibliographic, chemical, 
# crystal, experimental, refinement or atomic coordinate data resulting 
# from the CCDC's data processing and validation procedures.
#
#######################################################################

data_NORWIC
_chemical_name_common            
'TVBox octakis(hexafluorophosphate) acetonitrile toluene solvate'
_chemical_formula_moiety         
'C68 H56 N8 8+,8(F6 P1 1-),4(C2 H3 N1),4(C7 H8)'
_chemical_name_systematic        
'1,4,9,12(1,4)-2,5,10,13(4,1)-Octapyridina-3,7,11,15(1,4)-tetrabenzenacyclohexadecaphane octakis(hexafluorophosphate) acetonitrile toluene solvate'
_symmetry_cell_setting           monoclinic
_symmetry_space_group_name_H-M   'P 21/c'
_symmetry_Int_Tables_number      14
_space_group_name_Hall           '-P 2ybc'
loop_
_symmetry_equiv_pos_site_id
_symmetry_equiv_pos_as_xyz
1 x,y,z
2 -x,1/2+y,1/2-z
3 -x,-y,-z
4 x,1/2-y,1/2+z
_cell_length_a                   13.978(8)
_cell_length_b                   16.440(10)
_cell_length_c                   27.093(19)
_cell_angle_alpha                90
_cell_angle_beta                 102.00(3)
_cell_angle_gamma                90
_cell_volume                     6089.87
_exptl_crystal_colour            yellow
_exptl_crystal_description       needle
_cell_formula_units_Z            2
_exptl_crystal_recrystallization_method 'di-isopropyl ether/acetonitrile'
loop_
_atom_site_label
_atom_site_type_symbol
_atom_site_fract_x
_atom_site_fract_y
_atom_site_fract_z
N1 N 0.8498(11) 0.9756(10) 0.2179(6)
N2 N 0.7717(8) 0.6424(8) 0.0585(5)
N3 N 0.7234(8) 0.3697(9) -0.0679(5)
N4 N 0.6733(10) 0.0320(10) -0.2258(6)
C1 C 0.8964(14) 1.0480(13) 0.2533(8)
H1 H 0.8699 1.1001 0.2378
H2 H 0.8767 1.0429 0.2862
C2 C 0.8494(13) 0.9875(12) 0.1701(8)
H3 H 0.8664 1.0380 0.1573
C3 C 0.8221(12) 0.9204(11) 0.1399(7)
H4 H 0.8101 0.9298 0.1046
C4 C 0.8106(11) 0.8449(11) 0.1540(6)
C5 C 0.8158(12) 0.8439(12) 0.2073(7)
H5 H 0.8020 0.7944 0.2225
C6 C 0.8384(13) 0.9073(13) 0.2359(7)
H6 H 0.8466 0.9015 0.2714
C7 C 0.7941(10) 0.7756(10) 0.1207(6)
C8 C 0.7992(11) 0.7830(11) 0.0706(6)
H7 H 0.8114 0.8342 0.0569
C9 C 0.7860(11) 0.7141(11) 0.0412(6)
H8 H 0.7875 0.7192 0.0064
C10 C 0.7650(10) 0.6344(11) 0.1068(6)
H9 H 0.7515 0.5824 0.1190
C11 C 0.7764(11) 0.6957(10) 0.1372(6)
H10 H 0.7729 0.6874 0.1715
C12 C 0.7611(10) 0.5713(10) 0.0265(6)
C13 C 0.6901(10) 0.5753(11) -0.0185(6)
H11 H 0.6511 0.6224 -0.0274
C14 C 0.6796(10) 0.5058(10) -0.0500(6)
H12 H 0.6344 0.5055 -0.0815
C15 C 0.7364(10) 0.4386(10) -0.0339(6)
C16 C 0.8088(10) 0.4336(11) 0.0096(6)
H13 H 0.8485 0.3867 0.0178
C17 C 0.8191(10) 0.5014(10) 0.0400(6)
H14 H 0.8663 0.5010 0.0708
C18 C 0.7083(10) 0.2951(11) -0.0480(6)
H15 H 0.7069 0.2900 -0.0133
C19 C 0.6954(10) 0.2283(11) -0.0787(6)
H16 H 0.6863 0.1770 -0.0642
C20 C 0.6950(10) 0.2317(11) -0.1301(6)
C21 C 0.7213(11) 0.3107(11) -0.1478(7)
H17 H 0.7329 0.3160 -0.1809
C22 C 0.7291(11) 0.3744(12) -0.1182(6)
H18 H 0.7390 0.4261 -0.1319
C23 C 0.6834(11) 0.1656(11) -0.1636(6)
C24 C 0.7039(12) 0.0866(11) -0.1448(7)
H19 H 0.7237 0.0789 -0.1094
C25 C 0.6960(13) 0.0179(12) -0.1769(7)
H20 H 0.7065 -0.0358 -0.1638
C26 C 0.6471(12) 0.1068(13) -0.2454(7)
H21 H 0.6235 0.1141 -0.2806
C27 C 0.6553(11) 0.1676(12) -0.2145(6)
H22 H 0.6399 0.2197 -0.2293
C28 C 0.6867(12) -0.0387(13) -0.2595(8)
H23 H 0.6447 -0.0307 -0.2934
H24 H 0.6663 -0.0897 -0.2452
C29 C 0.7976(13) -0.0460(15) -0.2644(8)
C30 C 0.8521(14) -0.1051(15) -0.2301(8)
H25 H 0.8220 -0.1395 -0.2096
C31 C 0.9462(14) -0.1077(15) -0.2294(9)
H26 H 0.9862 -0.1459 -0.2083
C32 C 0.9922(14) -0.0502(15) -0.2621(9)
C33 C 0.9376(13) 0.0025(15) -0.2864(8)
H27 H 0.9663 0.0398 -0.3058
C34 C 0.8388(13) 0.0111(15) -0.2875(8)
H28 H 0.8024 0.0558 -0.3039
N1B N 1.1502(11) 0.0244(10) -0.2179(6)
N2B N 1.2283(8) 0.3576(8) -0.0585(5)
N3B N 1.2766(8) 0.6303(9) 0.0679(5)
N4B N 1.3267(10) 0.9680(10) 0.2258(6)
C1B C 1.1036(14) -0.0480(13) -0.2533(8)
H1B H 1.1301 -0.1001 -0.2378
H2B H 1.1233 -0.0429 -0.2862
C2B C 1.1506(13) 0.0125(12) -0.1701(8)
H3B H 1.1336 -0.0380 -0.1573
C3B C 1.1779(12) 0.0796(11) -0.1399(7)
H4B H 1.1899 0.0702 -0.1046
C4B C 1.1894(11) 0.1551(11) -0.1540(6)
C5B C 1.1842(12) 0.1561(12) -0.2073(7)
H5B H 1.1980 0.2056 -0.2225
C6B C 1.1616(13) 0.0927(13) -0.2359(7)
H6B H 1.1534 0.0985 -0.2714
C7B C 1.2059(10) 0.2244(10) -0.1207(6)
C8B C 1.2008(11) 0.2170(11) -0.0706(6)
H7B H 1.1886 0.1658 -0.0569
C9B C 1.2140(11) 0.2859(11) -0.0412(6)
H8B H 1.2125 0.2808 -0.0064
C10B C 1.2350(10) 0.3656(11) -0.1068(6)
H9B H 1.2485 0.4176 -0.1190
C11B C 1.2236(11) 0.3043(10) -0.1372(6)
H10B H 1.2271 0.3126 -0.1715
C12B C 1.2389(10) 0.4287(10) -0.0265(6)
C13B C 1.3099(10) 0.4247(11) 0.0185(6)
H11B H 1.3489 0.3776 0.0274
C14B C 1.3204(10) 0.4942(10) 0.0500(6)
H12B H 1.3656 0.4945 0.0815
C15B C 1.2636(10) 0.5614(10) 0.0339(6)
C16B C 1.1912(10) 0.5664(11) -0.0096(6)
H13B H 1.1515 0.6133 -0.0178
C17B C 1.1809(10) 0.4986(10) -0.0400(6)
H14B H 1.1337 0.4990 -0.0708
C18B C 1.2917(10) 0.7049(11) 0.0480(6)
H15B H 1.2931 0.7100 0.0133
C19B C 1.3046(10) 0.7717(11) 0.0787(6)
H16B H 1.3137 0.8230 0.0642
C20B C 1.3050(10) 0.7683(11) 0.1301(6)
C21B C 1.2787(11) 0.6893(11) 0.1478(7)
H17B H 1.2671 0.6840 0.1809
C22B C 1.2709(11) 0.6256(12) 0.1182(6)
H18B H 1.2610 0.5739 0.1319
C23B C 1.3166(11) 0.8344(11) 0.1636(6)
C24B C 1.2961(12) 0.9134(11) 0.1448(7)
H19B H 1.2763 0.9211 0.1094
C25B C 1.3040(13) 0.9821(12) 0.1769(7)
H20B H 1.2935 1.0358 0.1638
C26B C 1.3529(12) 0.8932(13) 0.2454(7)
H21B H 1.3765 0.8859 0.2806
C27B C 1.3447(11) 0.8324(12) 0.2145(6)
H22B H 1.3601 0.7803 0.2293
C28B C 1.3133(12) 1.0387(13) 0.2595(8)
H23B H 1.3553 1.0307 0.2934
H24B H 1.3337 1.0897 0.2452
C29B C 1.2024(13) 1.0460(15) 0.2644(8)
C30B C 1.1479(14) 1.1051(15) 0.2301(8)
H25B H 1.1780 1.1395 0.2096
C31B C 1.0538(14) 1.1077(15) 0.2294(9)
H26B H 1.0138 1.1459 0.2083
C32B C 1.0078(14) 1.0502(15) 0.2621(9)
C33B C 1.0624(13) 0.9975(15) 0.2864(8)
H27B H 1.0337 0.9602 0.3058
C34B C 1.1612(13) 0.9889(15) 0.2875(8)
H28B H 1.1976 0.9442 0.3039
P1 P 0.5928(3) 0.3913(3) 0.09377(18)
F1 F 0.6288(7) 0.3305(7) 0.1389(3)
F2 F 0.5574(8) 0.4552(7) 0.0489(4)
F3 F 0.5276(8) 0.4366(7) 0.1269(4)
F4 F 0.5048(7) 0.3324(7) 0.0727(4)
F5 F 0.6550(8) 0.3416(8) 0.0589(4)
F6 F 0.6853(9) 0.4472(8) 0.1141(4)
P2 P 0.4079(4) -0.0419(4) -0.2351(2)
F7 F 0.3516(8) -0.0353(10) -0.1912(5)
F8 F 0.4665(8) -0.0450(11) -0.2782(5)
F9 F 0.5063(8) -0.0537(10) -0.1948(5)
F10 F 0.3915(12) -0.1341(10) -0.2358(6)
F11 F 0.3118(7) -0.0314(8) -0.2749(4)
F12 F 0.4280(12) 0.0545(10) -0.2324(6)
P3 P 0.9106(4) 0.6127(4) -0.09813(19)
F13 F 0.9234(8) 0.5520(8) -0.0534(5)
F14 F 0.8977(8) 0.6747(8) -0.1459(4)
F15 F 0.8332(8) 0.6657(9) -0.0748(5)
F16 F 0.9944(7) 0.6705(8) -0.0680(4)
F17 F 0.9981(11) 0.5706(9) -0.1181(5)
F18 F 0.8299(11) 0.5580(9) -0.1299(5)
P4 P 0.7703(7) 0.0673(7) 0.0223(3)
F19 F 0.7130(14) 0.0467(15) 0.0616(8)
F20 F 0.8285(14) 0.0757(14) -0.0186(8)
F21 F 0.8600(12) 0.0797(14) 0.0630(7)
F22 F 0.7901(19) -0.0228(9) 0.0239(7)
F23 F 0.6790(12) 0.0587(13) -0.0185(7)
F24 F 0.7460(19) 0.1557(9) 0.0272(8)
C35 C 0.9496(14) 0.2020(17) -0.1415(10)
C36 C 0.9634(13) 0.2837(16) -0.1507(9)
H29 H 0.9664 0.2971 -0.1844
C37 C 0.9733(13) 0.3468(15) -0.1180(8)
H30 H 0.9815 0.4005 -0.1294
C38 C 0.9715(13) 0.3326(15) -0.0680(9)
H31 H 0.9799 0.3751 -0.0438
C39 C 0.9559(13) 0.2485(14) -0.0546(9)
H32 H 0.9518 0.2362 -0.0208
C40 C 0.9462(13) 0.1814(16) -0.0920(9)
H33 H 0.9381 0.1266 -0.0825
C41 C 0.933(2) 0.1408(19) -0.1810(11)
H34 H 0.8808 0.1592 -0.2088
H35 H 0.9133 0.0896 -0.1674
H36 H 0.9931 0.1323 -0.1934
C42 C 0.4544(12) 0.1881(14) -0.0876(8)
C43 C 0.4480(11) 0.2115(14) -0.1397(8)
H37 H 0.4322 0.1725 -0.1660
C44 C 0.4641(12) 0.2869(14) -0.1497(8)
H38 H 0.4688 0.2998 -0.1833
C45 C 0.4747(11) 0.3480(13) -0.1159(7)
H39 H 0.4821 0.4023 -0.1266
C46 C 0.4749(10) 0.3333(13) -0.0682(7)
H40 H 0.4824 0.3769 -0.0447
C47 C 0.4637(11) 0.2519(13) -0.0516(8)
H41 H 0.4625 0.2409 -0.0173
C48 C 0.4426(16) 0.1097(15) -0.0737(11)
H42 H 0.4941 0.0958 -0.0445
H43 H 0.4468 0.0733 -0.1018
H44 H 0.3785 0.1037 -0.0649
N5 N 0.835(2) 0.262(2) -0.2790(11)
C49 C 0.846(3) 0.240(3) -0.3159(15)
C50 C 0.847(3) 0.252(3) -0.3717(12)
H45 H 0.7826 0.2714 -0.3896
H46 H 0.8622 0.2005 -0.3863
H47 H 0.8968 0.2927 -0.3750
N6 N 0.3239(13) 0.2614(15) -0.2685(8)
C51 C 0.3456(17) 0.230(2) -0.3004(11)
C52 C 0.3817(19) 0.191(2) -0.3393(10)
H48 H 0.3903 0.2310 -0.3648
H49 H 0.3350 0.1493 -0.3550
H50 H 0.4447 0.1654 -0.3251
P5? P 0.7839(17) -0.0981(11) -0.0535(6)
F25? F 0.803(3) -0.0726(18) 0.0008(7)
F26? F 0.767(3) -0.1237(19) -0.1079(7)
F27? F 0.835(3) -0.0229(17) -0.0661(11)
F28? F 0.879(2) -0.144(2) -0.0434(10)
F29? F 0.732(2) -0.1726(16) -0.0410(12)
F30? F 0.688(2) -0.0530(19) -0.0644(12)
loop_
_geom_bond_atom_site_label_1
_geom_bond_atom_site_label_2
_geom_bond_site_symmetry_1
_geom_bond_site_symmetry_2
N1 C1 1_555 1_555
N2 C9 1_555 1_555
N3 C15 1_555 1_555
N4 C25 1_555 1_555
C1 H1 1_555 1_555
H2 C1 1_555 1_555
C2 N1 1_555 1_555
H3 C2 1_555 1_555
C3 C2 1_555 1_555
H4 C3 1_555 1_555
C4 C3 1_555 1_555
C5 C4 1_555 1_555
H5 C5 1_555 1_555
C6 N1 1_555 1_555
H6 C6 1_555 1_555
C7 C4 1_555 1_555
C8 C7 1_555 1_555
H7 C8 1_555 1_555
C9 C8 1_555 1_555
H8 C9 1_555 1_555
C10 N2 1_555 1_555
H9 C10 1_555 1_555
C11 C7 1_555 1_555
H10 C11 1_555 1_555
C12 N2 1_555 1_555
C13 C12 1_555 1_555
H11 C13 1_555 1_555
C14 C13 1_555 1_555
H12 C14 1_555 1_555
C15 C14 1_555 1_555
C16 C15 1_555 1_555
H13 C16 1_555 1_555
C17 C12 1_555 1_555
H14 C17 1_555 1_555
C18 N3 1_555 1_555
H15 C18 1_555 1_555
C19 C18 1_555 1_555
H16 C19 1_555 1_555
C20 C19 1_555 1_555
C21 C20 1_555 1_555
H17 C21 1_555 1_555
C22 N3 1_555 1_555
H18 C22 1_555 1_555
C23 C20 1_555 1_555
C24 C23 1_555 1_555
H19 C24 1_555 1_555
C25 C24 1_555 1_555
H20 C25 1_555 1_555
C26 N4 1_555 1_555
H21 C26 1_555 1_555
C27 C23 1_555 1_555
H22 C27 1_555 1_555
C28 N4 1_555 1_555
H23 C28 1_555 1_555
H24 C28 1_555 1_555
C29 C28 1_555 1_555
C30 C29 1_555 1_555
H25 C30 1_555 1_555
C31 C30 1_555 1_555
H26 C31 1_555 1_555
C32 C31 1_555 1_555
C33 C32 1_555 1_555
H27 C33 1_555 1_555
C34 C29 1_555 1_555
H28 C34 1_555 1_555
P1 F1 1_555 1_555
F2 P1 1_555 1_555
F3 P1 1_555 1_555
F4 P1 1_555 1_555
F5 P1 1_555 1_555
F6 P1 1_555 1_555
P2 F7 1_555 1_555
F8 P2 1_555 1_555
F9 P2 1_555 1_555
F10 P2 1_555 1_555
F11 P2 1_555 1_555
F12 P2 1_555 1_555
P3 F13 1_555 1_555
F14 P3 1_555 1_555
F15 P3 1_555 1_555
F16 P3 1_555 1_555
F17 P3 1_555 1_555
F18 P3 1_555 1_555
P4 F19 1_555 1_555
F20 P4 1_555 1_555
F21 P4 1_555 1_555
F22 P4 1_555 1_555
F23 P4 1_555 1_555
F24 P4 1_555 1_555
C35 C36 1_555 1_555
C36 H29 1_555 1_555
C37 C36 1_555 1_555
H30 C37 1_555 1_555
C38 C37 1_555 1_555
H31 C38 1_555 1_555
C39 C38 1_555 1_555
H32 C39 1_555 1_555
C40 C35 1_555 1_555
H33 C40 1_555 1_555
C41 C35 1_555 1_555
H34 C41 1_555 1_555
H35 C41 1_555 1_555
H36 C41 1_555 1_555
C42 C43 1_555 1_555
C43 H37 1_555 1_555
C44 C43 1_555 1_555
H38 C44 1_555 1_555
C45 C44 1_555 1_555
H39 C45 1_555 1_555
C46 C45 1_555 1_555
H40 C46 1_555 1_555
C47 C42 1_555 1_555
H41 C47 1_555 1_555
C48 C42 1_555 1_555
H42 C48 1_555 1_555
H43 C48 1_555 1_555
H44 C48 1_555 1_555
N5 C49 1_555 1_555
C49 C50 1_555 1_555
C50 H45 1_555 1_555
H46 C50 1_555 1_555
H47 C50 1_555 1_555
N6 C51 1_555 1_555
C51 C52 1_555 1_555
C52 H48 1_555 1_555
H49 C52 1_555 1_555
H50 C52 1_555 1_555
N1B C1B 1_555 1_555
N2B C9B 1_555 1_555
N3B C15B 1_555 1_555
N4B C25B 1_555 1_555
C1B C32 1_555 1_555
H1B C1B 1_555 1_555
H2B C1B 1_555 1_555
C2B N1B 1_555 1_555
H3B C2B 1_555 1_555
C3B C2B 1_555 1_555
H4B C3B 1_555 1_555
C4B C3B 1_555 1_555
C5B C4B 1_555 1_555
H5B C5B 1_555 1_555
C6B N1B 1_555 1_555
H6B C6B 1_555 1_555
C7B C4B 1_555 1_555
C8B C7B 1_555 1_555
H7B C8B 1_555 1_555
C9B C8B 1_555 1_555
H8B C9B 1_555 1_555
C10B N2B 1_555 1_555
H9B C10B 1_555 1_555
C11B C7B 1_555 1_555
H10B C11B 1_555 1_555
C12B N2B 1_555 1_555
C13B C12B 1_555 1_555
H11B C13B 1_555 1_555
C14B C13B 1_555 1_555
H12B C14B 1_555 1_555
C15B C14B 1_555 1_555
C16B C15B 1_555 1_555
H13B C16B 1_555 1_555
C17B C12B 1_555 1_555
H14B C17B 1_555 1_555
C18B N3B 1_555 1_555
H15B C18B 1_555 1_555
C19B C18B 1_555 1_555
H16B C19B 1_555 1_555
C20B C19B 1_555 1_555
C21B C20B 1_555 1_555
H17B C21B 1_555 1_555
C22B N3B 1_555 1_555
H18B C22B 1_555 1_555
C23B C20B 1_555 1_555
C24B C23B 1_555 1_555
H19B C24B 1_555 1_555
C25B C24B 1_555 1_555
H20B C25B 1_555 1_555
C26B N4B 1_555 1_555
H21B C26B 1_555 1_555
C27B C23B 1_555 1_555
H22B C27B 1_555 1_555
C28B N4B 1_555 1_555
H23B C28B 1_555 1_555
H24B C28B 1_555 1_555
C29B C28B 1_555 1_555
C30B C29B 1_555 1_555
H25B C30B 1_555 1_555
C31B C30B 1_555 1_555
H26B C31B 1_555 1_555
C32B C1 1_555 1_555
C33B C32B 1_555 1_555
H27B C33B 1_555 1_555
C34B C29B 1_555 1_555
H28B C34B 1_555 1_555
C5 C6 1_555 1_555
C10 C11 1_555 1_555
C16 C17 1_555 1_555
C21 C22 1_555 1_555
C26 C27 1_555 1_555
C33 C34 1_555 1_555
C39 C40 1_555 1_555
C46 C47 1_555 1_555
C5B C6B 1_555 1_555
C10B C11B 1_555 1_555
C16B C17B 1_555 1_555
C21B C22B 1_555 1_555
C26B C27B 1_555 1_555
C31B C32B 1_555 1_555
C33B C34B 1_555 1_555

#END
