
#######################################################################
#
#                 Cambridge Crystallographic Data Centre
#                                CCDC 
#
#######################################################################
#
# If this CIF has been generated from an entry in the Cambridge 
# Structural Database, then it will include bibliographic, chemical, 
# crystal, experimental, refinement or atomic coordinate data resulting 
# from the CCDC's data processing and validation procedures.
#
#######################################################################

data_NORWUO
_chemical_formula_moiety         
'C88 H94 N8 O4 4+,4(Br1 1-),8(C1 H4 O1),10(H2 O1)'
_chemical_name_systematic        
'5,10,15,20-tetrakis(1-(2-Adamantan-1-yl-2-oxoethyl)pyridin-1-ium-4-yl)porphyrin tetrabromide methanol solvate decahydrate'
_symmetry_cell_setting           monoclinic
_symmetry_space_group_name_H-M   'P 21/c'
_symmetry_Int_Tables_number      14
_space_group_name_Hall           '-P 2ybc'
loop_
_symmetry_equiv_pos_site_id
_symmetry_equiv_pos_as_xyz
1 x,y,z
2 -x,1/2+y,1/2-z
3 -x,-y,-z
4 x,1/2-y,1/2+z
_cell_length_a                   10.8583(4)
_cell_length_b                   18.3496(9)
_cell_length_c                   22.4335(9)
_cell_angle_alpha                90
_cell_angle_beta                 91.8340(10)
_cell_angle_gamma                90
_cell_volume                     4467.48
_exptl_crystal_colour            brown
_exptl_crystal_description       block
_cell_formula_units_Z            2
loop_
_atom_site_label
_atom_site_type_symbol
_atom_site_fract_x
_atom_site_fract_y
_atom_site_fract_z
Br2 Br 0.34492(4) 0.42316(3) 0.045153(19)
N1 N 0.4770(3) 0.09901(16) -0.04044(12)
N2 N 0.5833(3) 0.05183(16) 0.07290(12)
N3 N 0.6907(3) 0.39451(17) 0.07629(13)
N4 N 0.8089(3) -0.13697(17) 0.29276(13)
O1 O 0.9370(3) 0.41636(15) 0.07587(14)
O2 O 0.6872(3) -0.25193(16) 0.33246(12)
C1 C 0.4146(3) 0.1123(2) -0.09374(15)
C2 C 0.4105(4) 0.1904(2) -0.10556(16)
H1 H 0.3729 0.2136 -0.1393
C3 C 0.4700(4) 0.2233(2) -0.05951(16)
H2 H 0.4825 0.2743 -0.0546
C4 C 0.5117(3) 0.1661(2) -0.01864(15)
C5 C 0.5755(3) 0.17864(19) 0.03617(15)
C6 C 0.6130(3) 0.2547(2) 0.05012(15)
C7 C 0.6851(4) 0.2934(2) 0.01126(17)
H3 H 0.7095 0.2713 -0.0248
C8 C 0.7216(4) 0.3633(2) 0.02453(17)
H4 H 0.7689 0.3898 -0.0030
C9 C 0.6202(3) 0.3592(2) 0.11453(17)
H5 H 0.5989 0.3824 0.1506
C10 C 0.5782(3) 0.29017(19) 0.10266(16)
H6 H 0.5259 0.2664 0.1297
C11 C 0.7398(4) 0.4674(2) 0.09053(17)
H7 H 0.7086 0.4835 0.1294
H8 H 0.7101 0.5024 0.0597
C12 C 0.8795(4) 0.4677(2) 0.09346(18)
C13 C 0.9414(3) 0.5361(2) 0.11949(16)
C14 C 0.9487(5) 0.5251(3) 0.18714(19)
H9 H 0.9947 0.4799 0.1970
H10 H 0.8647 0.5206 0.2027
C15 C 1.0153(5) 0.5915(3) 0.21591(19)
H11 H 1.0217 0.5857 0.2602
C16 C 0.9418(5) 0.6602(3) 0.1995(2)
H12 H 0.8572 0.6554 0.2141
H13 H 0.9808 0.7028 0.2195
C17 C 0.9357(5) 0.6731(3) 0.1336(2)
H14 H 0.8891 0.7189 0.1240
C18 C 1.0627(5) 0.6757(3) 0.1073(3)
H15 H 1.0537 0.6784 0.0633
H16 H 1.1056 0.7204 0.1213
C19 C 1.1397(4) 0.6107(3) 0.12408(19)
H17 H 1.2248 0.6156 0.1089
C20 C 1.0724(4) 0.5430(3) 0.09540(19)
H18 H 1.0675 0.5486 0.0515
H19 H 1.1199 0.4982 0.1049
C21 C 0.8672(5) 0.6052(2) 0.1054(2)
H20 H 0.7840 0.6009 0.1218
H21 H 0.8578 0.6114 0.0616
C22 C 1.1432(4) 0.5975(3) 0.19023(19)
H22 H 1.1883 0.6380 0.2103
H23 H 1.1892 0.5520 0.1989
C23 C 0.6074(3) 0.12551(19) 0.07865(15)
C24 C 0.6746(3) 0.1367(2) 0.13424(15)
H24 H 0.7026 0.1821 0.1498
C25 C 0.6906(4) 0.0703(2) 0.16034(15)
H25 H 0.7317 0.0613 0.1976
C26 C 0.6352(3) 0.0165(2) 0.12228(14)
C27 C 0.6357(3) -0.0588(2) 0.13178(15)
C28 C 0.6981(4) -0.08500(19) 0.18842(15)
C29 C 0.6431(4) -0.0753(2) 0.24345(16)
H26 H 0.5673 -0.0498 0.2456
C30 C 0.6993(4) -0.1027(2) 0.29443(16)
H27 H 0.6602 -0.0975 0.3315
C31 C 0.8662(4) -0.1448(2) 0.24065(15)
H28 H 0.9442 -0.1681 0.2400
C32 C 0.8121(4) -0.1192(2) 0.18854(16)
H29 H 0.8533 -0.1249 0.1521
C33 C 0.8592(4) -0.1729(2) 0.34683(15)
H30 H 0.8532 -0.1398 0.3815
H31 H 0.9472 -0.1848 0.3418
C34 C 0.7863(4) -0.2426(2) 0.35777(16)
C35 C 0.8445(4) -0.2980(2) 0.40055(16)
C36 C 0.9116(4) -0.2626(2) 0.45456(16)
H32 H 0.8526 -0.2342 0.4779
H33 H 0.9763 -0.2290 0.4409
C37 C 0.9704(4) -0.3233(2) 0.49377(18)
H34 H 1.0148 -0.3009 0.5289
C38 C 1.0625(4) -0.3657(3) 0.45648(19)
H35 H 1.1261 -0.3320 0.4419
H36 H 1.1041 -0.4033 0.4815
C39 C 0.9957(4) -0.4014(2) 0.40403(19)
H37 H 1.0555 -0.4302 0.3805
C40 C 0.8953(4) -0.4520(2) 0.4264(2)
H38 H 0.8514 -0.4751 0.3919
H39 H 0.9334 -0.4911 0.4512
C41 C 0.8050(5) -0.4099(3) 0.4626(2)
H40 H 0.7404 -0.4436 0.4774
C42 C 0.7434(4) -0.3493(3) 0.4229(2)
H41 H 0.6982 -0.3717 0.3885
H42 H 0.6838 -0.3213 0.4464
C43 C 0.9368(4) -0.3422(2) 0.36442(17)
H43 H 0.8936 -0.3649 0.3296
H44 H 1.0014 -0.3095 0.3496
C44 C 0.8712(5) -0.3730(3) 0.51505(19)
H45 H 0.8113 -0.3445 0.5379
H46 H 0.9081 -0.4104 0.5419
N1B N 0.5230(3) -0.09901(16) 0.04044(12)
N2B N 0.4167(3) -0.05183(16) -0.07290(12)
N3B N 0.3093(3) -0.39451(17) -0.07629(13)
N4B N 0.1911(3) 0.13697(17) -0.29276(13)
O1B O 0.0630(3) -0.41636(15) -0.07587(14)
O2B O 0.3128(3) 0.25193(16) -0.33246(12)
C1B C 0.5854(3) -0.1123(2) 0.09374(15)
C2B C 0.5895(4) -0.1904(2) 0.10556(16)
H1B H 0.6271 -0.2136 0.1393
C3B C 0.5300(4) -0.2233(2) 0.05951(16)
H2B H 0.5175 -0.2743 0.0546
C4B C 0.4883(3) -0.1661(2) 0.01864(15)
C5B C 0.4245(3) -0.17864(19) -0.03617(15)
C6B C 0.3870(3) -0.2547(2) -0.05012(15)
C7B C 0.3149(4) -0.2934(2) -0.01126(17)
H3B H 0.2905 -0.2713 0.0248
C8B C 0.2784(4) -0.3633(2) -0.02453(17)
H4B H 0.2311 -0.3898 0.0030
C9B C 0.3798(3) -0.3592(2) -0.11453(17)
H5B H 0.4011 -0.3824 -0.1506
C10B C 0.4218(3) -0.29017(19) -0.10266(16)
H6B H 0.4741 -0.2664 -0.1297
C11B C 0.2602(4) -0.4674(2) -0.09053(17)
H7B H 0.2914 -0.4835 -0.1294
H8B H 0.2899 -0.5024 -0.0597
C12B C 0.1205(4) -0.4677(2) -0.09346(18)
C13B C 0.0586(3) -0.5361(2) -0.11949(16)
C14B C 0.0513(5) -0.5251(3) -0.18714(19)
H9B H 0.0053 -0.4799 -0.1970
H10B H 0.1353 -0.5206 -0.2027
C15B C -0.0153(5) -0.5915(3) -0.21591(19)
H11B H -0.0217 -0.5857 -0.2602
C16B C 0.0582(5) -0.6602(3) -0.1995(2)
H12B H 0.1428 -0.6554 -0.2141
H13B H 0.0192 -0.7028 -0.2195
C17B C 0.0643(5) -0.6731(3) -0.1336(2)
H14B H 0.1109 -0.7189 -0.1240
C18B C -0.0627(5) -0.6757(3) -0.1073(3)
H15B H -0.0537 -0.6784 -0.0633
H16B H -0.1056 -0.7204 -0.1213
C19B C -0.1397(4) -0.6107(3) -0.12408(19)
H17B H -0.2248 -0.6156 -0.1089
C20B C -0.0724(4) -0.5430(3) -0.09540(19)
H18B H -0.0675 -0.5486 -0.0515
H19B H -0.1199 -0.4982 -0.1049
C21B C 0.1328(5) -0.6052(2) -0.1054(2)
H20B H 0.2160 -0.6009 -0.1218
H21B H 0.1422 -0.6114 -0.0616
C22B C -0.1432(4) -0.5975(3) -0.19023(19)
H22B H -0.1883 -0.6380 -0.2103
H23B H -0.1892 -0.5520 -0.1989
C23B C 0.3926(3) -0.12551(19) -0.07865(15)
C24B C 0.3254(3) -0.1367(2) -0.13424(15)
H24B H 0.2974 -0.1821 -0.1498
C25B C 0.3094(4) -0.0703(2) -0.16034(15)
H25B H 0.2683 -0.0613 -0.1976
C26B C 0.3648(3) -0.0165(2) -0.12228(14)
C27B C 0.3643(3) 0.0588(2) -0.13178(15)
C28B C 0.3019(4) 0.08500(19) -0.18842(15)
C29B C 0.3569(4) 0.0753(2) -0.24345(16)
H26B H 0.4327 0.0498 -0.2456
C30B C 0.3007(4) 0.1027(2) -0.29443(16)
H27B H 0.3398 0.0975 -0.3315
C31B C 0.1338(4) 0.1448(2) -0.24065(15)
H28B H 0.0558 0.1681 -0.2400
C32B C 0.1879(4) 0.1192(2) -0.18854(16)
H29B H 0.1467 0.1249 -0.1521
C33B C 0.1408(4) 0.1729(2) -0.34683(15)
H30B H 0.1468 0.1398 -0.3815
H31B H 0.0528 0.1848 -0.3418
C34B C 0.2137(4) 0.2426(2) -0.35777(16)
C35B C 0.1555(4) 0.2980(2) -0.40055(16)
C36B C 0.0884(4) 0.2626(2) -0.45456(16)
H32B H 0.1474 0.2342 -0.4779
H33B H 0.0237 0.2290 -0.4409
C37B C 0.0296(4) 0.3233(2) -0.49377(18)
H34B H -0.0148 0.3009 -0.5289
C38B C -0.0625(4) 0.3657(3) -0.45648(19)
H35B H -0.1261 0.3320 -0.4419
H36B H -0.1041 0.4033 -0.4815
C39B C 0.0043(4) 0.4014(2) -0.40403(19)
H37B H -0.0555 0.4302 -0.3805
C40B C 0.1047(4) 0.4520(2) -0.4264(2)
H38B H 0.1486 0.4751 -0.3919
H39B H 0.0666 0.4911 -0.4512
C41B C 0.1950(5) 0.4099(3) -0.4626(2)
H40B H 0.2596 0.4436 -0.4774
C42B C 0.2566(4) 0.3493(3) -0.4229(2)
H41B H 0.3018 0.3717 -0.3885
H42B H 0.3162 0.3213 -0.4464
C43B C 0.0632(4) 0.3422(2) -0.36442(17)
H43B H 0.1064 0.3649 -0.3296
H44B H -0.0014 0.3095 -0.3496
C44B C 0.1288(5) 0.3730(3) -0.51505(19)
H45B H 0.1887 0.3445 -0.5379
H46B H 0.0919 0.4104 -0.5419
Br1 Br 0.82395(4) 0.30232(3) 0.21677(2)
loop_
_geom_bond_atom_site_label_1
_geom_bond_atom_site_label_2
_geom_bond_site_symmetry_1
_geom_bond_site_symmetry_2
N1 C1 1_555 1_555
N2 C23 1_555 1_555
N3 C8 1_555 1_555
N4 C30 1_555 1_555
O1 C12 1_555 1_555
O2 C34 1_555 1_555
C1 C2 1_555 1_555
C2 H1 1_555 1_555
C3 C2 1_555 1_555
H2 C3 1_555 1_555
C4 N1 1_555 1_555
C5 C4 1_555 1_555
C6 C5 1_555 1_555
C7 C6 1_555 1_555
H3 C7 1_555 1_555
C8 C7 1_555 1_555
H4 C8 1_555 1_555
C9 N3 1_555 1_555
H5 C9 1_555 1_555
C10 C6 1_555 1_555
H6 C10 1_555 1_555
C11 N3 1_555 1_555
H7 C11 1_555 1_555
H8 C11 1_555 1_555
C12 C11 1_555 1_555
C13 C12 1_555 1_555
C14 C13 1_555 1_555
H9 C14 1_555 1_555
H10 C14 1_555 1_555
C15 C14 1_555 1_555
H11 C15 1_555 1_555
C16 C15 1_555 1_555
H12 C16 1_555 1_555
H13 C16 1_555 1_555
C17 C16 1_555 1_555
H14 C17 1_555 1_555
C18 C17 1_555 1_555
H15 C18 1_555 1_555
H16 C18 1_555 1_555
C19 C18 1_555 1_555
H17 C19 1_555 1_555
C20 C13 1_555 1_555
H18 C20 1_555 1_555
H19 C20 1_555 1_555
C21 C13 1_555 1_555
H20 C21 1_555 1_555
H21 C21 1_555 1_555
C22 C15 1_555 1_555
H22 C22 1_555 1_555
H23 C22 1_555 1_555
C23 C5 1_555 1_555
C24 C23 1_555 1_555
H24 C24 1_555 1_555
C25 C24 1_555 1_555
H25 C25 1_555 1_555
C26 N2 1_555 1_555
C27 C26 1_555 1_555
C28 C27 1_555 1_555
C29 C28 1_555 1_555
H26 C29 1_555 1_555
C30 C29 1_555 1_555
H27 C30 1_555 1_555
C31 N4 1_555 1_555
H28 C31 1_555 1_555
C32 C28 1_555 1_555
H29 C32 1_555 1_555
C33 N4 1_555 1_555
H30 C33 1_555 1_555
H31 C33 1_555 1_555
C34 C33 1_555 1_555
C35 C34 1_555 1_555
C36 C35 1_555 1_555
H32 C36 1_555 1_555
H33 C36 1_555 1_555
C37 C36 1_555 1_555
H34 C37 1_555 1_555
C38 C37 1_555 1_555
H35 C38 1_555 1_555
H36 C38 1_555 1_555
C39 C38 1_555 1_555
H37 C39 1_555 1_555
C40 C39 1_555 1_555
H38 C40 1_555 1_555
H39 C40 1_555 1_555
C41 C40 1_555 1_555
H40 C41 1_555 1_555
C42 C35 1_555 1_555
H41 C42 1_555 1_555
H42 C42 1_555 1_555
C43 C35 1_555 1_555
H43 C43 1_555 1_555
H44 C43 1_555 1_555
C44 C37 1_555 1_555
H45 C44 1_555 1_555
H46 C44 1_555 1_555
N1B C1B 1_555 1_555
N2B C23B 1_555 1_555
N3B C8B 1_555 1_555
N4B C30B 1_555 1_555
O1B C12B 1_555 1_555
O2B C34B 1_555 1_555
C1B C27 1_555 1_555
C2B C1B 1_555 1_555
H1B C2B 1_555 1_555
C3B C2B 1_555 1_555
H2B C3B 1_555 1_555
C4B N1B 1_555 1_555
C5B C4B 1_555 1_555
C6B C5B 1_555 1_555
C7B C6B 1_555 1_555
H3B C7B 1_555 1_555
C8B C7B 1_555 1_555
H4B C8B 1_555 1_555
C9B N3B 1_555 1_555
H5B C9B 1_555 1_555
C10B C6B 1_555 1_555
H6B C10B 1_555 1_555
C11B N3B 1_555 1_555
H7B C11B 1_555 1_555
H8B C11B 1_555 1_555
C12B C11B 1_555 1_555
C13B C12B 1_555 1_555
C14B C13B 1_555 1_555
H9B C14B 1_555 1_555
H10B C14B 1_555 1_555
C15B C14B 1_555 1_555
H11B C15B 1_555 1_555
C16B C15B 1_555 1_555
H12B C16B 1_555 1_555
H13B C16B 1_555 1_555
C17B C16B 1_555 1_555
H14B C17B 1_555 1_555
C18B C17B 1_555 1_555
H15B C18B 1_555 1_555
H16B C18B 1_555 1_555
C19B C18B 1_555 1_555
H17B C19B 1_555 1_555
C20B C13B 1_555 1_555
H18B C20B 1_555 1_555
H19B C20B 1_555 1_555
C21B C13B 1_555 1_555
H20B C21B 1_555 1_555
H21B C21B 1_555 1_555
C22B C15B 1_555 1_555
H22B C22B 1_555 1_555
H23B C22B 1_555 1_555
C23B C5B 1_555 1_555
C24B C23B 1_555 1_555
H24B C24B 1_555 1_555
C25B C24B 1_555 1_555
H25B C25B 1_555 1_555
C26B N2B 1_555 1_555
C27B C1 1_555 1_555
C28B C27B 1_555 1_555
C29B C28B 1_555 1_555
H26B C29B 1_555 1_555
C30B C29B 1_555 1_555
H27B C30B 1_555 1_555
C31B N4B 1_555 1_555
H28B C31B 1_555 1_555
C32B C28B 1_555 1_555
H29B C32B 1_555 1_555
C33B N4B 1_555 1_555
H30B C33B 1_555 1_555
H31B C33B 1_555 1_555
C34B C33B 1_555 1_555
C35B C34B 1_555 1_555
C36B C35B 1_555 1_555
H32B C36B 1_555 1_555
H33B C36B 1_555 1_555
C37B C36B 1_555 1_555
H34B C37B 1_555 1_555
C38B C37B 1_555 1_555
H35B C38B 1_555 1_555
H36B C38B 1_555 1_555
C39B C38B 1_555 1_555
H37B C39B 1_555 1_555
C40B C39B 1_555 1_555
H38B C40B 1_555 1_555
H39B C40B 1_555 1_555
C41B C40B 1_555 1_555
H40B C41B 1_555 1_555
C42B C35B 1_555 1_555
H41B C42B 1_555 1_555
H42B C42B 1_555 1_555
C43B C35B 1_555 1_555
H43B C43B 1_555 1_555
H44B C43B 1_555 1_555
C44B C37B 1_555 1_555
H45B C44B 1_555 1_555
H46B C44B 1_555 1_555
C3 C4 1_555 1_555
C9 C10 1_555 1_555
C17 C21 1_555 1_555
C19 C20 1_555 1_555
C19 C22 1_555 1_555
C25 C26 1_555 1_555
C31 C32 1_555 1_555
C39 C43 1_555 1_555
C41 C42 1_555 1_555
C41 C44 1_555 1_555
C3B C4B 1_555 1_555
C9B C10B 1_555 1_555
C17B C21B 1_555 1_555
C19B C20B 1_555 1_555
C19B C22B 1_555 1_555
C25B C26B 1_555 1_555
C26B C27B 1_555 1_555
C31B C32B 1_555 1_555
C39B C43B 1_555 1_555
C41B C42B 1_555 1_555
C41B C44B 1_555 1_555

#END
