
#######################################################################
#
#                 Cambridge Crystallographic Data Centre
#                                CCDC 
#
#######################################################################
#
# If this CIF has been generated from an entry in the Cambridge 
# Structural Database, then it will include bibliographic, chemical, 
# crystal, experimental, refinement or atomic coordinate data resulting 
# from the CCDC's data processing and validation procedures.
#
#######################################################################

data_NOSDOQ
_chemical_formula_moiety         'C23 H26 N2'
_chemical_name_systematic        
(3-(2-(4-t-Butylphenyl)vinyl)-5,5-dimethylcyclohex-2-en-1-ylidene)malononitrile
_symmetry_cell_setting           triclinic
_symmetry_space_group_name_H-M   'P -1'
_symmetry_Int_Tables_number      2
_space_group_name_Hall           '-P 1'
loop_
_symmetry_equiv_pos_site_id
_symmetry_equiv_pos_as_xyz
1 x,y,z
2 -x,-y,-z
_cell_length_a                   8.7434(13)
_cell_length_b                   13.538(2)
_cell_length_c                   17.321(3)
_cell_angle_alpha                88.079(5)
_cell_angle_beta                 84.857(5)
_cell_angle_gamma                77.108(5)
_cell_volume                     1990.33
_exptl_crystal_colour            red
_exptl_crystal_description       Prism
_cell_formula_units_Z            4
loop_
_atom_site_label
_atom_site_type_symbol
_atom_site_fract_x
_atom_site_fract_y
_atom_site_fract_z
N1 N 1.15562(18) 0.38008(13) 1.02421(11)
N2 N 1.1217(2) 0.06449(12) 1.07028(11)
C1 C 0.31379(19) 0.83601(12) 0.78415(9)
C2 C 0.47028(19) 0.79491(12) 0.80004(10)
H1 H 0.5463 0.8352 0.7904
C3 C 0.51645(18) 0.69800(12) 0.82914(9)
H2 H 0.6236 0.6725 0.8386
C4 C 0.40799(17) 0.63612(11) 0.84513(9)
C5 C 0.25289(18) 0.67616(12) 0.82842(9)
H3 H 0.1771 0.6357 0.8374
C6 C 0.20708(18) 0.77397(12) 0.79894(9)
H4 H 0.1003 0.7991 0.7886
C7 C 0.45207(17) 0.53351(12) 0.87780(9)
H5 H 0.3745 0.4939 0.8822
C8 C 0.59414(17) 0.49119(11) 0.90203(9)
H6 H 0.6697 0.5322 0.8982
C9 C 0.64393(17) 0.39008(11) 0.93322(9)
C10 C 0.79100(17) 0.36214(11) 0.95790(9)
H7 H 0.8548 0.4107 0.9553
C11 C 0.85386(17) 0.26322(11) 0.98750(9)
C12 C 0.75353(18) 0.18645(12) 0.99253(9)
H8 H 0.7020 0.1862 1.0458
H9 H 0.8222 0.1185 0.9832
C13 C 0.62602(18) 0.20542(12) 0.93489(9)
C14 C 0.53749(18) 0.31674(12) 0.93965(10)
H10 H 0.4658 0.3315 0.8976
H11 H 0.4720 0.3272 0.9896
C15 C 0.7006(2) 0.18117(13) 0.85234(10)
H12 H 0.7574 0.1101 0.8501
H13 H 0.7742 0.2250 0.8378
H14 H 0.6179 0.1929 0.8163
C16 C 0.5108(2) 0.13740(13) 0.95770(11)
H15 H 0.4664 0.1512 1.0112
H16 H 0.5664 0.0662 0.9535
H17 H 0.4258 0.1512 0.9230
C17 C 1.00053(18) 0.24068(12) 1.01437(9)
C18 C 1.08892(18) 0.31680(13) 1.01964(10)
C19 C 1.06814(19) 0.14261(13) 1.04500(10)
C20 C 0.2671(2) 0.94541(13) 0.75455(10)
C21 C 0.1039(2) 0.96941(15) 0.72466(13)
H18 H 0.1007 0.9221 0.6835
H19 H 0.0810 1.0389 0.7040
H20 H 0.0251 0.9626 0.7673
C22 C 0.3840(3) 0.96422(17) 0.68766(13)
H21 H 0.4871 0.9604 0.7071
H22 H 0.3464 1.0316 0.6650
H23 H 0.3936 0.9127 0.6480
C23 C 0.2669(3) 1.01536(15) 0.82180(13)
H24 H 0.1911 1.0027 0.8641
H25 H 0.2372 1.0861 0.8043
H26 H 0.3724 1.0023 0.8403
N3 N -0.1515(2) 0.75986(17) 0.73429(11)
N4 N -0.33441(19) 0.85368(14) 0.50707(11)
C24 C 1.00967(18) 0.43828(12) 0.69224(9)
C25 C 0.85750(19) 0.44768(13) 0.72727(10)
H27 H 0.8432 0.4166 0.7766
C26 C 0.72636(19) 0.50068(13) 0.69275(10)
H28 H 0.6246 0.5051 0.7186
C27 C 0.74153(18) 0.54774(12) 0.62038(9)
C28 C 0.89351(19) 0.53883(13) 0.58533(10)
H29 H 0.9080 0.5697 0.5360
C29 C 1.02382(19) 0.48620(14) 0.62044(10)
H30 H 1.1257 0.4826 0.5949
C30 C 0.60947(19) 0.60435(13) 0.57942(10)
H31 H 0.6331 0.6196 0.5264
C31 C 0.45931(19) 0.63745(13) 0.60729(10)
H32 H 0.4330 0.6259 0.6607
C32 C 0.33418(18) 0.68977(12) 0.56135(9)
C33 C 0.18415(19) 0.71343(13) 0.59453(10)
H33 H 0.1656 0.6999 0.6483
C34 C 0.05242(19) 0.75814(13) 0.55137(10)
C35 C 0.08269(19) 0.76937(14) 0.46532(10)
H34 H -0.0020 0.8232 0.4459
H35 H 0.0800 0.7051 0.4404
C36 C 0.24220(19) 0.79624(13) 0.44267(10)
C37 C 0.37059(19) 0.71522(13) 0.47741(9)
H36 H 0.3875 0.6526 0.4469
H37 H 0.4702 0.7390 0.4722
C38 C 0.2736(2) 0.79640(16) 0.35443(10)
H38 H 0.3779 0.8102 0.3402
H39 H 0.1932 0.8490 0.3319
H40 H 0.2697 0.7301 0.3347
C39 C 0.2413(2) 0.90144(14) 0.47277(11)
H41 H 0.2181 0.9023 0.5292
H42 H 0.1606 0.9522 0.4487
H43 H 0.3448 0.9172 0.4597
C40 C -0.09674(19) 0.78511(14) 0.58714(11)
C41 C -0.1287(2) 0.77111(17) 0.66860(13)
C42 C -0.2297(2) 0.82411(15) 0.54313(12)
C43 C 1.15517(19) 0.37461(13) 0.72698(10)
C44 C 1.2961(2) 0.42476(15) 0.71317(11)
H44 H 1.3246 0.4293 0.6574
H45 H 1.3857 0.3841 0.7384
H46 H 1.2682 0.4930 0.7349
C45 C 1.1260(2) 0.3576(2) 0.81398(12)
H47 H 1.0915 0.4232 0.8397
H48 H 1.2236 0.3201 0.8345
H49 H 1.0443 0.3185 0.8238
C46 C 1.1995(2) 0.27168(14) 0.68642(14)
H50 H 1.1129 0.2366 0.6961
H51 H 1.2947 0.2305 0.7068
H52 H 1.2193 0.2824 0.6305
loop_
_geom_bond_atom_site_label_1
_geom_bond_atom_site_label_2
_geom_bond_site_symmetry_1
_geom_bond_site_symmetry_2
N1 C18 1_555 1_555
N2 C19 1_555 1_555
C1 C2 1_555 1_555
C2 H1 1_555 1_555
C3 C2 1_555 1_555
H2 C3 1_555 1_555
C4 C3 1_555 1_555
C5 C4 1_555 1_555
H3 C5 1_555 1_555
C6 C1 1_555 1_555
H4 C6 1_555 1_555
C7 C4 1_555 1_555
H5 C7 1_555 1_555
C8 C7 1_555 1_555
H6 C8 1_555 1_555
C9 C8 1_555 1_555
C10 C9 1_555 1_555
H7 C10 1_555 1_555
C11 C10 1_555 1_555
C12 C11 1_555 1_555
H8 C12 1_555 1_555
H9 C12 1_555 1_555
C13 C12 1_555 1_555
C14 C9 1_555 1_555
H10 C14 1_555 1_555
H11 C14 1_555 1_555
C15 C13 1_555 1_555
H12 C15 1_555 1_555
H13 C15 1_555 1_555
H14 C15 1_555 1_555
C16 C13 1_555 1_555
H15 C16 1_555 1_555
H16 C16 1_555 1_555
H17 C16 1_555 1_555
C17 C11 1_555 1_555
C18 C17 1_555 1_555
C19 C17 1_555 1_555
C20 C1 1_555 1_555
C21 C20 1_555 1_555
H18 C21 1_555 1_555
H19 C21 1_555 1_555
H20 C21 1_555 1_555
C22 C20 1_555 1_555
H21 C22 1_555 1_555
H22 C22 1_555 1_555
H23 C22 1_555 1_555
C23 C20 1_555 1_555
H24 C23 1_555 1_555
H25 C23 1_555 1_555
H26 C23 1_555 1_555
N3 C41 1_555 1_555
N4 C42 1_555 1_555
C24 C25 1_555 1_555
C25 H27 1_555 1_555
C26 C25 1_555 1_555
H28 C26 1_555 1_555
C27 C26 1_555 1_555
C28 C27 1_555 1_555
H29 C28 1_555 1_555
C29 C24 1_555 1_555
H30 C29 1_555 1_555
C30 C27 1_555 1_555
H31 C30 1_555 1_555
C31 C30 1_555 1_555
H32 C31 1_555 1_555
C32 C31 1_555 1_555
C33 C32 1_555 1_555
H33 C33 1_555 1_555
C34 C33 1_555 1_555
C35 C34 1_555 1_555
H34 C35 1_555 1_555
H35 C35 1_555 1_555
C36 C35 1_555 1_555
C37 C32 1_555 1_555
H36 C37 1_555 1_555
H37 C37 1_555 1_555
C38 C36 1_555 1_555
H38 C38 1_555 1_555
H39 C38 1_555 1_555
H40 C38 1_555 1_555
C39 C36 1_555 1_555
H41 C39 1_555 1_555
H42 C39 1_555 1_555
H43 C39 1_555 1_555
C40 C34 1_555 1_555
C41 C40 1_555 1_555
C42 C40 1_555 1_555
C43 C24 1_555 1_555
C44 C43 1_555 1_555
H44 C44 1_555 1_555
H45 C44 1_555 1_555
H46 C44 1_555 1_555
C45 C43 1_555 1_555
H47 C45 1_555 1_555
H48 C45 1_555 1_555
H49 C45 1_555 1_555
C46 C43 1_555 1_555
H50 C46 1_555 1_555
H51 C46 1_555 1_555
H52 C46 1_555 1_555
C5 C6 1_555 1_555
C13 C14 1_555 1_555
C28 C29 1_555 1_555
C36 C37 1_555 1_555

#END
