
#######################################################################
#
#                 Cambridge Crystallographic Data Centre
#                                CCDC 
#
#######################################################################
#
# If this CIF has been generated from an entry in the Cambridge 
# Structural Database, then it will include bibliographic, chemical, 
# crystal, experimental, refinement or atomic coordinate data resulting 
# from the CCDC's data processing and validation procedures.
#
#######################################################################

data_NOSXOK
_chemical_formula_moiety         'C14 H9 Cl1 N4 O2'
_chemical_name_systematic        
5-(4-Chlorophenyl)-4-nitro-1-phenyl-1H-1,2,3-triazole
_symmetry_cell_setting           triclinic
_symmetry_space_group_name_H-M   'P -1'
_symmetry_Int_Tables_number      2
_space_group_name_Hall           '-P 1'
loop_
_symmetry_equiv_pos_site_id
_symmetry_equiv_pos_as_xyz
1 x,y,z
2 -x,-y,-z
_cell_length_a                   11.310(3)
_cell_length_b                   13.792(3)
_cell_length_c                   13.982(3)
_cell_angle_alpha                93.902(3)
_cell_angle_beta                 90.560(3)
_cell_angle_gamma                112.233(3)
_cell_volume                     2012.69
_cell_formula_units_Z            6
loop_
_atom_site_label
_atom_site_type_symbol
_atom_site_fract_x
_atom_site_fract_y
_atom_site_fract_z
Cl1 Cl 0.65433(10) 0.74938(7) 0.49747(6)
O1 O 0.9914(3) 1.01485(19) 0.16259(18)
C1 C 0.7362(3) 0.9642(2) 0.2582(2)
N1 N 0.6587(3) 1.0683(2) 0.15466(19)
C2 C 0.7521(3) 1.0353(2) 0.1810(2)
N2 N 0.9682(3) 1.0739(2) 0.11082(19)
C3 C 0.7876(4) 1.0038(3) 0.3498(2)
H1 H 0.8371 1.0750 0.3617
C4 C 0.6899(3) 0.8320(3) 0.4052(2)
C5 C 0.7652(4) 0.9375(3) 0.4236(2)
H2 H 0.8005 0.9636 0.4848
C6 C 0.8455(3) 1.0823(2) 0.1190(2)
N3 N 0.6954(3) 1.1321(2) 0.0814(2)
C7 C 0.6640(3) 0.8580(3) 0.2408(2)
H3 H 0.6301 0.8313 0.1793
N4 N 0.8099(3) 1.1412(2) 0.0601(2)
C8 C 0.6416(3) 0.7910(2) 0.3140(2)
H4 H 0.5946 0.7194 0.3017
O2 O 1.0405(3) 1.1252(2) 0.0526(2)
C9 C 0.5343(3) 1.0457(3) 0.1931(2)
C10 C 0.5245(4) 1.0876(3) 0.2833(3)
H5 H 0.5975 1.1264 0.3211
C11 C 0.3084(5) 0.9669(6) 0.1736(4)
H6 H 0.2355 0.9249 0.1372
C12 C 0.4047(4) 1.0712(3) 0.3167(4)
H7 H 0.3968 1.1004 0.3771
C13 C 0.2974(4) 1.0122(4) 0.2619(4)
H8 H 0.2170 1.0028 0.2844
C14 C 0.4286(5) 0.9840(5) 0.1385(3)
H9 H 0.4369 0.9538 0.0787
Cl2 Cl 1.00219(9) 0.79491(7) 0.46489(5)
N5 N 0.8358(2) 0.63616(19) -0.00510(16)
C15 C 0.9424(3) 0.6509(2) 0.0487(2)
C16 C 0.9810(3) 0.6246(2) 0.2186(2)
H10 H 0.9880 0.5614 0.1985
C17 C 0.9573(3) 0.6858(2) 0.15198(19)
N6 N 0.9610(3) 0.6028(2) -0.10563(18)
C18 C 0.7172(3) 0.6414(2) 0.0236(2)
O3 O 1.1970(2) 0.6054(2) -0.07026(19)
C19 C 1.0192(3) 0.6289(2) -0.0177(2)
C20 C 0.9608(3) 0.8143(3) 0.2780(2)
H11 H 0.9543 0.8777 0.2983
N7 N 0.8490(3) 0.6074(2) -0.09873(17)
O4 O 1.1996(2) 0.6702(2) 0.07583(17)
C21 C 0.9944(3) 0.6581(2) 0.3155(2)
H12 H 1.0099 0.6177 0.3609
N8 N 1.1478(2) 0.6350(2) -0.00355(19)
C22 C 0.9468(3) 0.7800(2) 0.1812(2)
H13 H 0.9305 0.8203 0.1361
C23 C 0.9843(3) 0.7528(3) 0.3433(2)
C24 C 0.6736(3) 0.7099(3) -0.0204(2)
H14 H 0.7224 0.7544 -0.0646
C25 C 0.6476(3) 0.5757(3) 0.0906(2)
H15 H 0.6792 0.5311 0.1192
C26 C 0.4834(3) 0.6436(3) 0.0703(2)
H16 H 0.4035 0.6436 0.0854
C27 C 0.5306(3) 0.5776(3) 0.1142(2)
H17 H 0.4829 0.5345 0.1597
C28 C 0.5552(3) 0.7094(3) 0.0041(2)
H18 H 0.5234 0.7540 -0.0244
Cl3 Cl 0.37878(10) 0.86188(7) 0.44585(8)
N9 N 0.2535(2) 0.34765(19) 0.30995(17)
C29 C 0.1776(3) 0.4021(2) 0.32947(19)
N10 N 0.0623(3) 0.2312(2) 0.28776(19)
O5 O -0.0609(2) 0.42248(18) 0.35165(19)
N11 N -0.0622(2) 0.3364(2) 0.32241(18)
C30 C 0.2230(3) 0.5163(2) 0.3567(2)
N12 N 0.1818(2) 0.24399(19) 0.28479(18)
C31 C 0.3906(3) 0.3814(2) 0.3092(2)
O6 O -0.1601(2) 0.25983(19) 0.3004(2)
C32 C 0.2207(3) 0.5516(2) 0.4524(2)
H19 H 0.1863 0.5032 0.4978
C33 C 0.3172(3) 0.7288(2) 0.4105(2)
C34 C 0.4405(3) 0.3214(3) 0.2516(2)
H20 H 0.3864 0.2615 0.2156
C35 C 0.2683(3) 0.5882(2) 0.2884(2)
H21 H 0.2674 0.5648 0.2243
C36 C 0.0581(3) 0.3252(2) 0.3150(2)
C37 C 0.4703(3) 0.4707(3) 0.3638(2)
H22 H 0.4362 0.5098 0.4033
C38 C 0.2691(3) 0.6575(3) 0.4799(2)
H23 H 0.2697 0.6811 0.5439
C39 C 0.6020(3) 0.5005(3) 0.3582(2)
H24 H 0.6566 0.5605 0.3937
C40 C 0.5725(3) 0.3519(3) 0.2484(2)
H25 H 0.6073 0.3118 0.2109
C41 C 0.3148(3) 0.6950(3) 0.3152(2)
H26 H 0.3442 0.7435 0.2692
C42 C 0.6519(3) 0.4419(3) 0.3008(2)
H27 H 0.7401 0.4630 0.2973
loop_
_geom_bond_atom_site_label_1
_geom_bond_atom_site_label_2
_geom_bond_site_symmetry_1
_geom_bond_site_symmetry_2
Cl1 C4 1_555 1_555
O1 N2 1_555 1_555
C1 C2 1_555 1_555
N1 C2 1_555 1_555
C2 C6 1_555 1_555
N2 C6 1_555 1_555
C3 C1 1_555 1_555
H1 C3 1_555 1_555
C4 C5 1_555 1_555
C5 C3 1_555 1_555
H2 C5 1_555 1_555
C6 N4 1_555 1_555
N3 N1 1_555 1_555
C7 C1 1_555 1_555
H3 C7 1_555 1_555
N4 N3 1_555 1_555
C8 C4 1_555 1_555
H4 C8 1_555 1_555
O2 N2 1_555 1_555
C9 N1 1_555 1_555
C10 C9 1_555 1_555
H5 C10 1_555 1_555
C11 H6 1_555 1_555
C12 C10 1_555 1_555
H7 C12 1_555 1_555
C13 C11 1_555 1_555
H8 C13 1_555 1_555
C14 C9 1_555 1_555
H9 C14 1_555 1_555
Cl2 C23 1_555 1_555
N5 C15 1_555 1_555
C15 C17 1_555 1_555
C16 H10 1_555 1_555
C17 C16 1_555 1_555
N6 C19 1_555 1_555
C18 N5 1_555 1_555
O3 N8 1_555 1_555
C19 C15 1_555 1_555
C20 H11 1_555 1_555
N7 N5 1_555 1_555
O4 N8 1_555 1_555
C21 C16 1_555 1_555
H12 C21 1_555 1_555
N8 C19 1_555 1_555
C22 C17 1_555 1_555
H13 C22 1_555 1_555
C23 C20 1_555 1_555
C24 C18 1_555 1_555
H14 C24 1_555 1_555
C25 C18 1_555 1_555
H15 C25 1_555 1_555
C26 H16 1_555 1_555
C27 C25 1_555 1_555
H17 C27 1_555 1_555
C28 C24 1_555 1_555
H18 C28 1_555 1_555
Cl3 C33 1_555 1_555
N9 C29 1_555 1_555
C29 C30 1_555 1_555
N10 N12 1_555 1_555
O5 N11 1_555 1_555
N11 O6 1_555 1_555
C30 C32 1_555 1_555
N12 N9 1_555 1_555
C31 N9 1_555 1_555
C32 H19 1_555 1_555
C33 C38 1_555 1_555
C34 C31 1_555 1_555
H20 C34 1_555 1_555
C35 C30 1_555 1_555
H21 C35 1_555 1_555
C36 C29 1_555 1_555
C37 C31 1_555 1_555
H22 C37 1_555 1_555
C38 C32 1_555 1_555
H23 C38 1_555 1_555
C39 C37 1_555 1_555
H24 C39 1_555 1_555
C40 C34 1_555 1_555
H25 C40 1_555 1_555
C41 C33 1_555 1_555
H26 C41 1_555 1_555
C42 C39 1_555 1_555
H27 C42 1_555 1_555
C7 C8 1_555 1_555
C11 C14 1_555 1_555
C12 C13 1_555 1_555
N6 N7 1_555 1_555
C20 C22 1_555 1_555
C21 C23 1_555 1_555
C26 C27 1_555 1_555
C26 C28 1_555 1_555
N10 C36 1_555 1_555
N11 C36 1_555 1_555
C35 C41 1_555 1_555
C40 C42 1_555 1_555

#END
