
#######################################################################
#
#                 Cambridge Crystallographic Data Centre
#                                CCDC 
#
#######################################################################
#
# If this CIF has been generated from an entry in the Cambridge 
# Structural Database, then it will include bibliographic, chemical, 
# crystal, experimental, refinement or atomic coordinate data resulting 
# from the CCDC's data processing and validation procedures.
#
#######################################################################

data_NOTCEG
_chemical_formula_moiety         'C32 H32 Cl1 N3 O2'
_chemical_name_systematic        
5-Chloro-1',1''-dimethyl-5''-(4-methylbenzylidene)-4'-(4-methylphenyl)-4''H-dispiro[indole-3,2'-pyrrolidine-3',3''-piperidine]-2,4''(1H)-dione
_symmetry_cell_setting           monoclinic
_symmetry_space_group_name_H-M   'P 21/n'
_symmetry_Int_Tables_number      14
_space_group_name_Hall           '-P 2yn'
loop_
_symmetry_equiv_pos_site_id
_symmetry_equiv_pos_as_xyz
1 x,y,z
2 1/2-x,1/2+y,1/2-z
3 -x,-y,-z
4 1/2+x,1/2-y,1/2+z
_cell_length_a                   11.6216(6)
_cell_length_b                   20.8276(9)
_cell_length_c                   11.8949(7)
_cell_angle_alpha                90
_cell_angle_beta                 96.3419(17)
_cell_angle_gamma                90
_cell_volume                     2861.54
_exptl_crystal_colour            colorless
_exptl_crystal_description       Needle
_chemical_melting_point          '240-242 deg.C'
_cell_formula_units_Z            4
_exptl_crystal_recrystallization_method n-butanol
loop_
_atom_site_label
_atom_site_type_symbol
_atom_site_fract_x
_atom_site_fract_y
_atom_site_fract_z
Cl1 Cl 0.5089(2) 0.66945(18) 1.0707(2)
O1 O 0.8105(4) 0.7080(3) 0.8197(5)
O2 O 0.6575(4) 0.5103(3) 0.5373(5)
N1 N 0.6542(5) 0.6560(3) 0.5111(5)
N2 N 0.5064(6) 0.5481(3) 0.6295(5)
N3 N 0.7687(7) 0.5266(4) 0.7785(5)
C1 C 0.9036(7) 0.5995(4) 0.7277(7)
C2 C 1.0073(7) 0.6195(5) 0.6711(9)
C3 C 1.0644(10) 0.6743(5) 0.7130(7)
C4 C 1.1611(11) 0.6957(5) 0.6655(12)
C5 C 1.2054(9) 0.6638(7) 0.5794(12)
C6 C 1.1509(11) 0.6089(7) 0.5386(7)
C7 C 1.0519(10) 0.5880(4) 0.5852(9)
C8 C 1.3144(8) 0.6854(5) 0.5309(8)
C9 C 0.8803(7) 0.5274(4) 0.7330(7)
C10 C 0.7177(7) 0.4626(5) 0.7938(8)
C11 C 0.6943(7) 0.5730(4) 0.7142(7)
C12 C 0.6008(8) 0.5962(3) 0.7839(7)
C13 C 0.6059(8) 0.6232(4) 0.8900(8)
C14 C 0.5052(11) 0.6350(3) 0.9370(7)
C15 C 0.3977(8) 0.6212(3) 0.8815(8)
C16 C 0.3911(7) 0.5925(3) 0.7761(8)
C17 C 0.4926(9) 0.5803(3) 0.7309(7)
C18 C 0.6208(8) 0.5412(4) 0.6122(7)
C19 C 0.7824(6) 0.6257(4) 0.6790(6)
C20 C 0.7585(7) 0.6915(4) 0.7286(7)
C21 C 0.6702(6) 0.7335(4) 0.6676(6)
C22 C 0.6226(6) 0.7780(4) 0.7282(7)
C23 C 0.5366(6) 0.8275(4) 0.6921(8)
C24 C 0.5213(7) 0.8554(4) 0.5860(8)
C25 C 0.4394(9) 0.9031(4) 0.5626(8)
C26 C 0.3715(7) 0.9244(4) 0.6384(12)
C27 C 0.3869(7) 0.8982(5) 0.7442(10)
C28 C 0.4681(8) 0.8508(4) 0.7705(7)
C29 C 0.2855(8) 0.9797(5) 0.6098(8)
C30 C 0.6396(5) 0.7224(4) 0.5434(6)
C31 C 0.7719(6) 0.6348(4) 0.5500(6)
C32 C 0.6225(6) 0.6466(4) 0.3909(6)
H1 H 0.769(3) 0.4380(15) 0.847(4)
H2 H 0.644(3) 0.4668(13) 0.821(4)
H3 H 0.709(4) 0.4406(15) 0.722(2)
H4 H 0.5664(15) 0.8422(9) 0.5303(18)
H5 H 0.4309(18) 0.9208(9) 0.4903(18)
H6 H 0.281(5) 0.989(2) 0.531(2)
H7 H 0.310(4) 1.0169(15) 0.653(5)
H8 H 0.210(2) 0.9667(18) 0.628(5)
H9 H 0.3422(16) 0.9129(10) 0.799(2)
H10 H 0.4779(17) 0.8340(9) 0.8439(17)
H11 H 0.6482(14) 0.7781(9) 0.8053(17)
H12 H 0.689(2) 0.7496(12) 0.501(2)
H13 H 0.5586(18) 0.7348(13) 0.525(2)
H14 H 0.545(2) 0.6618(19) 0.370(2)
H15 H 0.675(3) 0.6698(17) 0.349(2)
H16 H 0.627(3) 0.6012(10) 0.374(2)
H17 H 0.828(2) 0.6667(12) 0.532(2)
H18 H 0.787(2) 0.5940(11) 0.513(2)
H19 H 1.037(2) 0.6967(11) 0.7730(15)
H20 H 1.197(2) 0.7338(9) 0.693(2)
H21 H 1.316(3) 0.7314(10) 0.528(5)
H22 H 1.381(2) 0.670(3) 0.578(4)
H23 H 1.314(4) 0.668(3) 0.455(3)
H24 H 1.179(2) 0.5857(12) 0.4803(14)
H25 H 1.015(2) 0.5511(9) 0.5562(18)
H26 H 0.916(2) 0.6155(12) 0.8054(18)
H27 H 0.939(2) 0.5056(13) 0.783(2)
H28 H 0.876(2) 0.5081(13) 0.6582(19)
H29 H 0.4515 0.5271 0.5913
H30 H 0.3306(19) 0.6313(6) 0.9139(19)
H31 H 0.3196(18) 0.5812(6) 0.7375(19)
H32 H 0.6770(19) 0.6340(6) 0.9300(19)
loop_
_geom_bond_atom_site_label_1
_geom_bond_atom_site_label_2
_geom_bond_site_symmetry_1
_geom_bond_site_symmetry_2
Cl1 C14 1_555 1_555
O1 C20 1_555 1_555
O2 C18 1_555 1_555
N1 C30 1_555 1_555
N2 C17 1_555 1_555
N3 C9 1_555 1_555
C1 C2 1_555 1_555
C2 C3 1_555 1_555
C3 C4 1_555 1_555
C4 C5 1_555 1_555
C5 C6 1_555 1_555
C6 C7 1_555 1_555
C7 C2 1_555 1_555
C8 C5 1_555 1_555
C9 C1 1_555 1_555
C10 N3 1_555 1_555
C11 N3 1_555 1_555
C12 C11 1_555 1_555
C13 C12 1_555 1_555
C14 C13 1_555 1_555
C15 C14 1_555 1_555
C16 C15 1_555 1_555
C17 C12 1_555 1_555
C18 N2 1_555 1_555
C19 C1 1_555 1_555
C20 C19 1_555 1_555
C21 C20 1_555 1_555
C22 C21 1_555 1_555
C23 C22 1_555 1_555
C24 C23 1_555 1_555
C25 C24 1_555 1_555
C26 C25 1_555 1_555
C27 C26 1_555 1_555
C28 C23 1_555 1_555
C29 C26 1_555 1_555
C30 C21 1_555 1_555
C31 N1 1_555 1_555
C32 N1 1_555 1_555
H1 C10 1_555 1_555
H2 C10 1_555 1_555
H3 C10 1_555 1_555
H4 C24 1_555 1_555
H5 C25 1_555 1_555
H6 C29 1_555 1_555
H7 C29 1_555 1_555
H8 C29 1_555 1_555
H9 C27 1_555 1_555
H10 C28 1_555 1_555
H11 C22 1_555 1_555
H12 C30 1_555 1_555
H13 C30 1_555 1_555
H14 C32 1_555 1_555
H15 C32 1_555 1_555
H16 C32 1_555 1_555
H17 C31 1_555 1_555
H18 C31 1_555 1_555
H19 C3 1_555 1_555
H20 C4 1_555 1_555
H21 C8 1_555 1_555
H22 C8 1_555 1_555
H23 C8 1_555 1_555
H24 C6 1_555 1_555
H25 C7 1_555 1_555
H26 C1 1_555 1_555
H27 C9 1_555 1_555
H28 C9 1_555 1_555
H29 N2 1_555 1_555
H30 C15 1_555 1_555
H31 C16 1_555 1_555
H32 C13 1_555 1_555
C11 C18 1_555 1_555
C11 C19 1_555 1_555
C16 C17 1_555 1_555
C19 C31 1_555 1_555
C27 C28 1_555 1_555

#END
