
#######################################################################
#
#                 Cambridge Crystallographic Data Centre
#                                CCDC 
#
#######################################################################
#
# If this CIF has been generated from an entry in the Cambridge 
# Structural Database, then it will include bibliographic, chemical, 
# crystal, experimental, refinement or atomic coordinate data resulting 
# from the CCDC's data processing and validation procedures.
#
#######################################################################

data_NOTDEH
_chemical_formula_moiety         'C28 H23 N1'
_chemical_name_systematic        
(P)-(S)-trans-10-Methyl-N-(1-(1-naphthyl)ethyl)-5H-dibenzo[a,d][7]annulen-5-imine
_symmetry_cell_setting           monoclinic
_symmetry_space_group_name_H-M   'P 21'
_symmetry_Int_Tables_number      4
_space_group_name_Hall           'P 2yb'
loop_
_symmetry_equiv_pos_site_id
_symmetry_equiv_pos_as_xyz
1 x,y,z
2 -x,1/2+y,-z
_cell_length_a                   8.7272(7)
_cell_length_b                   10.3611(10)
_cell_length_c                   11.8900(7)
_cell_angle_alpha                90
_cell_angle_beta                 102.912(4)
_cell_angle_gamma                90
_cell_volume                     1047.95
_exptl_crystal_colour            colorless
_exptl_crystal_description       block
_cell_formula_units_Z            2
_exptl_crystal_recrystallization_method acetonitrile
loop_
_atom_site_label
_atom_site_type_symbol
_atom_site_fract_x
_atom_site_fract_y
_atom_site_fract_z
C1 C 0.8140(5) 0.1999(5) 0.1899(3)
C2 C 0.7175(5) 0.1406(5) 0.0813(4)
C3 C 0.6128(5) 0.0436(5) 0.0949(4)
H1 H 0.6047 0.0195 0.1704
C4 C 0.5204(6) -0.0185(6) 0.0012(5)
H2 H 0.4521 -0.0865 0.0120
C5 C 0.5287(7) 0.0195(7) -0.1083(5)
H3 H 0.4648 -0.0215 -0.1737
C6 C 0.6282(7) 0.1158(7) -0.1227(4)
H4 H 0.6310 0.1413 -0.1990
C7 C 0.7277(5) 0.1797(5) -0.0291(4)
C8 C 0.8290(7) 0.2860(5) -0.0517(4)
C9 C 0.9684(6) 0.3170(5) 0.0133(4)
H5 H 1.0177 0.3901 -0.0115
C10 C 1.0569(5) 0.2535(5) 0.1186(4)
C11 C 1.2216(6) 0.2542(5) 0.1389(4)
H6 H 1.2702 0.2938 0.0837
C12 C 1.3145(6) 0.2000(6) 0.2352(5)
H7 H 1.4257 0.2023 0.2464
C13 C 1.2455(5) 0.1417(6) 0.3165(4)
H8 H 1.3089 0.1030 0.3834
C14 C 1.0826(5) 0.1404(5) 0.2992(4)
H9 H 1.0351 0.0999 0.3546
C15 C 0.9874(4) 0.1976(4) 0.2019(3)
C16 C 0.7806(12) 0.3604(10) -0.1635(7)
H10 H 0.8362 0.4432 -0.1562
H11 H 0.6670 0.3759 -0.1802
H12 H 0.8072 0.3103 -0.2264
C17 C 0.8222(5) 0.2885(4) 0.3781(3)
H13 H 0.9324 0.3119 0.3752
C18 C 0.7347(6) 0.4079(5) 0.4035(4)
H14 H 0.7388 0.4744 0.3456
H15 H 0.7840 0.4408 0.4803
H16 H 0.6249 0.3856 0.4010
C19 C 0.8237(5) 0.1880(5) 0.4711(3)
C20 C 0.7100(5) 0.0939(5) 0.4584(4)
H17 H 0.6322 0.0901 0.3885
C21 C 0.7049(6) 0.0041(6) 0.5443(5)
H18 H 0.6250 -0.0600 0.5320
C22 C 0.8140(7) 0.0075(6) 0.6462(5)
H19 H 0.8089 -0.0535 0.7049
C23 C 0.9350(6) 0.1018(5) 0.6649(4)
C24 C 1.0491(8) 0.1065(7) 0.7701(4)
H20 H 1.0450 0.0458 0.8292
C25 C 1.1646(8) 0.1972(8) 0.7872(5)
H21 H 1.2402 0.2002 0.8583
C26 C 1.1717(7) 0.2856(7) 0.7003(5)
H22 H 1.2534 0.3481 0.7127
C27 C 1.0631(6) 0.2841(5) 0.5973(4)
H23 H 1.0711 0.3452 0.5394
C28 C 0.9400(5) 0.1933(5) 0.5761(3)
N1 N 0.7381(4) 0.2365(4) 0.2645(3)
loop_
_geom_bond_atom_site_label_1
_geom_bond_atom_site_label_2
_geom_bond_site_symmetry_1
_geom_bond_site_symmetry_2
C1 C2 1_555 1_555
C2 C3 1_555 1_555
C3 H1 1_555 1_555
C4 C3 1_555 1_555
H2 C4 1_555 1_555
C5 C4 1_555 1_555
H3 C5 1_555 1_555
C6 C5 1_555 1_555
H4 C6 1_555 1_555
C7 C2 1_555 1_555
C8 C7 1_555 1_555
C9 C8 1_555 1_555
H5 C9 1_555 1_555
C10 C9 1_555 1_555
C11 C10 1_555 1_555
H6 C11 1_555 1_555
C12 C11 1_555 1_555
H7 C12 1_555 1_555
C13 C12 1_555 1_555
H8 C13 1_555 1_555
C14 C13 1_555 1_555
H9 C14 1_555 1_555
C15 C1 1_555 1_555
C16 C8 1_555 1_555
H10 C16 1_555 1_555
H11 C16 1_555 1_555
H12 C16 1_555 1_555
C17 H13 1_555 1_555
C18 C17 1_555 1_555
H14 C18 1_555 1_555
H15 C18 1_555 1_555
H16 C18 1_555 1_555
C19 C17 1_555 1_555
C20 C19 1_555 1_555
H17 C20 1_555 1_555
C21 C20 1_555 1_555
H18 C21 1_555 1_555
C22 C21 1_555 1_555
H19 C22 1_555 1_555
C23 C22 1_555 1_555
C24 C23 1_555 1_555
H20 C24 1_555 1_555
C25 C24 1_555 1_555
H21 C25 1_555 1_555
C26 C25 1_555 1_555
H22 C26 1_555 1_555
C27 C26 1_555 1_555
H23 C27 1_555 1_555
C28 C19 1_555 1_555
N1 C1 1_555 1_555
C6 C7 1_555 1_555
C10 C15 1_555 1_555
C14 C15 1_555 1_555
C17 N1 1_555 1_555
C23 C28 1_555 1_555
C27 C28 1_555 1_555

#END
