
#######################################################################
#
#                 Cambridge Crystallographic Data Centre
#                                CCDC 
#
#######################################################################
#
# If this CIF has been generated from an entry in the Cambridge 
# Structural Database, then it will include bibliographic, chemical, 
# crystal, experimental, refinement or atomic coordinate data resulting 
# from the CCDC's data processing and validation procedures.
#
#######################################################################

data_NOTHIP
_chemical_formula_moiety         'C25 H25 N3 O3'
_chemical_name_systematic        
4-Benzoyl-8-hydroxy-3-oxo-1-((2-phenylethyl)amino)-4,4a,5,6,7,8-hexahydroisoquinoline-8a(3H)-carbonitrile
_symmetry_cell_setting           monoclinic
_symmetry_space_group_name_H-M   'P 21/c'
_symmetry_Int_Tables_number      14
_space_group_name_Hall           '-P 2ybc'
loop_
_symmetry_equiv_pos_site_id
_symmetry_equiv_pos_as_xyz
1 x,y,z
2 -x,1/2+y,1/2-z
3 -x,-y,-z
4 x,1/2-y,1/2+z
_cell_length_a                   18.9871(17)
_cell_length_b                   18.0668(16)
_cell_length_c                   12.5460(11)
_cell_angle_alpha                90
_cell_angle_beta                 94.4380(10)
_cell_angle_gamma                90
_cell_volume                     4290.83
_chemical_melting_point          '176-178 deg.C'
_cell_formula_units_Z            8
loop_
_atom_site_label
_atom_site_type_symbol
_atom_site_fract_x
_atom_site_fract_y
_atom_site_fract_z
N1 N 0.46272(14) 0.21906(13) 0.50557(19)
N2 N 0.51208(14) 0.26495(14) 0.36025(19)
H1 H 0.5184 0.2601 0.2935
N3 N 0.53088(18) 0.03798(17) 0.3748(2)
O1 O 0.41936(13) 0.16345(12) 0.64720(17)
O2 O 0.51111(12) 0.18600(12) 0.17875(15)
H2 H 0.5077 0.2094 0.1226
O3 O 0.27107(14) 0.18862(15) 0.5020(2)
C1 C 0.4201(2) 0.16740(19) 0.5498(3)
C2 C 0.37192(18) 0.11668(17) 0.4811(2)
H3 H 0.3864 0.0653 0.4949
C3 C 0.37238(17) 0.13209(17) 0.3614(2)
H4 H 0.3432 0.1762 0.3461
C4 C 0.33856(17) 0.06865(18) 0.2949(2)
H5 H 0.3644 0.0233 0.3115
H6 H 0.2903 0.0616 0.3133
C5 C 0.33868(19) 0.08466(19) 0.1754(2)
H7 H 0.3220 0.0413 0.1353
H8 H 0.3065 0.1251 0.1567
C6 C 0.41152(18) 0.10467(17) 0.1450(2)
H9 H 0.4425 0.0622 0.1559
H10 H 0.4093 0.1176 0.0697
C7 C 0.44142(18) 0.16855(17) 0.2101(2)
H11 H 0.4107 0.2117 0.1972
C8 C 0.44707(18) 0.15032(17) 0.3306(2)
C9 C 0.47427(17) 0.21433(17) 0.4034(2)
C10 C 0.2972(2) 0.1273(2) 0.5156(3)
C11 C 0.2575(2) 0.0668(3) 0.5617(3)
C12 C 0.1911(2) 0.0809(2) 0.5925(3)
H12 H 0.1720 0.1280 0.5830
C13 C 0.1520(3) 0.0262(3) 0.6376(4)
H13 H 0.1068 0.0365 0.6569
C14 C 0.1793(3) -0.0421(3) 0.6534(4)
H14 H 0.1536 -0.0784 0.6859
C15 C 0.2444(3) -0.0576(3) 0.6217(3)
H15 H 0.2625 -0.1053 0.6296
C16 C 0.2841(2) -0.0025(3) 0.5776(3)
H16 H 0.3294 -0.0131 0.5587
C17 C 0.4946(2) 0.0870(2) 0.3547(3)
C18 C 0.54449(19) 0.32879(17) 0.4150(2)
H17 H 0.5838 0.3128 0.4635
H18 H 0.5103 0.3532 0.4566
C19 C 0.57033(18) 0.38233(16) 0.3338(3)
H19 H 0.5295 0.4060 0.2970
H20 H 0.5978 0.4206 0.3719
C20 C 0.6140(2) 0.34964(19) 0.2521(3)
C21 C 0.6661(2) 0.2978(2) 0.2771(3)
H21 H 0.6751 0.2829 0.3478
C22 C 0.7051(2) 0.2676(2) 0.2000(4)
H22 H 0.7396 0.2323 0.2188
C23 C 0.6931(2) 0.2894(2) 0.0958(4)
H23 H 0.7198 0.2695 0.0436
C24 C 0.6418(3) 0.3403(2) 0.0690(3)
H24 H 0.6336 0.3551 -0.0019
C25 C 0.6021(2) 0.37009(18) 0.1454(3)
H25 H 0.5669 0.4043 0.1255
N4 N 0.08141(14) 0.71599(13) 0.49103(19)
N5 N 0.03013(14) 0.76255(14) 0.63466(18)
H26 H 0.0209 0.7573 0.7003
N6 N -0.02173(17) 0.54905(16) 0.6247(2)
O4 O 0.12710(12) 0.66507(11) 0.34891(16)
O5 O 0.03039(11) 0.68897(12) 0.81910(15)
H27 H 0.0398 0.7142 0.8726
O6 O 0.26714(13) 0.63778(14) 0.49677(19)
C26 C 0.11896(18) 0.66185(19) 0.4444(3)
C27 C 0.15109(17) 0.59624(16) 0.5079(2)
H28 H 0.1239 0.5515 0.4882
C28 C 0.15269(16) 0.60739(16) 0.6288(2)
H29 H 0.1903 0.6432 0.6481
C29 C 0.17143(16) 0.53702(16) 0.6908(2)
H30 H 0.2155 0.5175 0.6684
H31 H 0.1349 0.5003 0.6745
C30 C 0.17890(17) 0.55075(17) 0.8109(2)
H32 H 0.1850 0.5039 0.8482
H33 H 0.2204 0.5808 0.8290
C31 C 0.11423(18) 0.58971(17) 0.8463(2)
H34 H 0.1227 0.6028 0.9212
H35 H 0.0747 0.5555 0.8400
C32 C 0.09403(17) 0.65900(17) 0.7833(2)
H36 H 0.1319 0.6956 0.7952
C33 C 0.08346(17) 0.64142(16) 0.6624(2)
C34 C 0.06547(17) 0.70981(17) 0.5907(3)
C35 C 0.2271(2) 0.5866(2) 0.4762(2)
C36 C 0.2525(2) 0.5179(2) 0.4291(2)
C37 C 0.2147(2) 0.4536(2) 0.4254(3)
H37 H 0.1696 0.4523 0.4495
C38 C 0.2442(3) 0.3898(2) 0.3852(3)
H38 H 0.2198 0.3451 0.3850
C39 C 0.3090(3) 0.3933(3) 0.3463(3)
H39 H 0.3282 0.3507 0.3186
C40 C 0.3465(3) 0.4573(3) 0.3468(3)
H40 H 0.3905 0.4590 0.3190
C41 C 0.3179(2) 0.5199(2) 0.3895(3)
H41 H 0.3432 0.5641 0.3915
C42 C 0.0240(2) 0.5892(2) 0.6414(2)
C43 C 0.00569(19) 0.82952(17) 0.5785(2)
H42 H -0.0319 0.8171 0.5247
H43 H 0.0442 0.8510 0.5425
C44 C -0.02117(19) 0.88555(17) 0.6555(3)
H44 H 0.0188 0.9052 0.6993
H45 H -0.0428 0.9263 0.6146
C45 C -0.0739(2) 0.85540(19) 0.7276(3)
C46 C -0.0609(2) 0.86111(18) 0.8369(3)
H46 H -0.0200 0.8846 0.8651
C47 C -0.1076(3) 0.8325(3) 0.9049(3)
H47 H -0.0985 0.8376 0.9785
C48 C -0.1660(3) 0.7974(2) 0.8657(5)
H48 H -0.1965 0.7769 0.9122
C49 C -0.1812(3) 0.7916(2) 0.7578(5)
H49 H -0.2226 0.7687 0.7304
C50 C -0.1339(3) 0.8206(2) 0.6898(3)
H50 H -0.1436 0.8159 0.6163
loop_
_geom_bond_atom_site_label_1
_geom_bond_atom_site_label_2
_geom_bond_site_symmetry_1
_geom_bond_site_symmetry_2
N1 C1 1_555 1_555
N2 H1 1_555 1_555
N3 C17 1_555 1_555
O1 C1 1_555 1_555
O2 H2 1_555 1_555
O3 C10 1_555 1_555
C1 C2 1_555 1_555
C2 H3 1_555 1_555
C3 C2 1_555 1_555
H4 C3 1_555 1_555
C4 C3 1_555 1_555
H5 C4 1_555 1_555
H6 C4 1_555 1_555
C5 C4 1_555 1_555
H7 C5 1_555 1_555
H8 C5 1_555 1_555
C6 C5 1_555 1_555
H9 C6 1_555 1_555
H10 C6 1_555 1_555
C7 O2 1_555 1_555
H11 C7 1_555 1_555
C8 C3 1_555 1_555
C9 N1 1_555 1_555
C10 C2 1_555 1_555
C11 C10 1_555 1_555
C12 C11 1_555 1_555
H12 C12 1_555 1_555
C13 C12 1_555 1_555
H13 C13 1_555 1_555
C14 C13 1_555 1_555
H14 C14 1_555 1_555
C15 C14 1_555 1_555
H15 C15 1_555 1_555
C16 C11 1_555 1_555
H16 C16 1_555 1_555
C17 C8 1_555 1_555
C18 N2 1_555 1_555
H17 C18 1_555 1_555
H18 C18 1_555 1_555
C19 C18 1_555 1_555
H19 C19 1_555 1_555
H20 C19 1_555 1_555
C20 C19 1_555 1_555
C21 C20 1_555 1_555
H21 C21 1_555 1_555
C22 C21 1_555 1_555
H22 C22 1_555 1_555
C23 C22 1_555 1_555
H23 C23 1_555 1_555
C24 C23 1_555 1_555
H24 C24 1_555 1_555
C25 C20 1_555 1_555
H25 C25 1_555 1_555
N4 C26 1_555 1_555
N5 H26 1_555 1_555
N6 C42 1_555 1_555
O4 C26 1_555 1_555
O5 H27 1_555 1_555
O6 C35 1_555 1_555
C26 C27 1_555 1_555
C27 H28 1_555 1_555
C28 C27 1_555 1_555
H29 C28 1_555 1_555
C29 C28 1_555 1_555
H30 C29 1_555 1_555
H31 C29 1_555 1_555
C30 C29 1_555 1_555
H32 C30 1_555 1_555
H33 C30 1_555 1_555
C31 C30 1_555 1_555
H34 C31 1_555 1_555
H35 C31 1_555 1_555
C32 O5 1_555 1_555
H36 C32 1_555 1_555
C33 C28 1_555 1_555
C34 N4 1_555 1_555
C35 C27 1_555 1_555
C36 C35 1_555 1_555
C37 C36 1_555 1_555
H37 C37 1_555 1_555
C38 C37 1_555 1_555
H38 C38 1_555 1_555
C39 C38 1_555 1_555
H39 C39 1_555 1_555
C40 C39 1_555 1_555
H40 C40 1_555 1_555
C41 C36 1_555 1_555
H41 C41 1_555 1_555
C42 C33 1_555 1_555
C43 N5 1_555 1_555
H42 C43 1_555 1_555
H43 C43 1_555 1_555
C44 C43 1_555 1_555
H44 C44 1_555 1_555
H45 C44 1_555 1_555
C45 C44 1_555 1_555
C46 C45 1_555 1_555
H46 C46 1_555 1_555
C47 C46 1_555 1_555
H47 C47 1_555 1_555
C48 C47 1_555 1_555
H48 C48 1_555 1_555
C49 C48 1_555 1_555
H49 C49 1_555 1_555
C50 C45 1_555 1_555
H50 C50 1_555 1_555
N2 C9 1_555 1_555
C6 C7 1_555 1_555
C7 C8 1_555 1_555
C8 C9 1_555 1_555
C15 C16 1_555 1_555
C24 C25 1_555 1_555
N5 C34 1_555 1_555
C31 C32 1_555 1_555
C32 C33 1_555 1_555
C33 C34 1_555 1_555
C40 C41 1_555 1_555
C49 C50 1_555 1_555

#END
