
#######################################################################
#
#                 Cambridge Crystallographic Data Centre
#                                CCDC 
#
#######################################################################
#
# If this CIF has been generated from an entry in the Cambridge 
# Structural Database, then it will include bibliographic, chemical, 
# crystal, experimental, refinement or atomic coordinate data resulting 
# from the CCDC's data processing and validation procedures.
#
#######################################################################

data_NOTHEL
_chemical_formula_moiety         'C24 H23 N3 O4'
_chemical_name_systematic        
(Z)-4-Benzoyl-8-hydroxy-1-((4-methoxyphenyl)imino)-3-oxooctahydroisoquinoline-8a(1H)-carbonitrile
_symmetry_cell_setting           monoclinic
_symmetry_space_group_name_H-M   'P 21'
_symmetry_Int_Tables_number      4
_space_group_name_Hall           'P 2yb'
loop_
_symmetry_equiv_pos_site_id
_symmetry_equiv_pos_as_xyz
1 x,y,z
2 -x,1/2+y,-z
_cell_length_a                   6.8289(7)
_cell_length_b                   13.5136(12)
_cell_length_c                   12.1421(11)
_cell_angle_alpha                90
_cell_angle_beta                 106.143(2)
_cell_angle_gamma                90
_cell_volume                     1076.33
_chemical_melting_point          '204-205 deg.C'
_cell_formula_units_Z            2
loop_
_atom_site_label
_atom_site_type_symbol
_atom_site_fract_x
_atom_site_fract_y
_atom_site_fract_z
N1 N 0.8470(6) 0.5799(2) 0.4712(3)
H1 H 0.9413 0.5445 0.5154
N2 N 1.0089(6) 0.7265(2) 0.5573(3)
N3 N 0.8395(7) 0.7397(3) 0.1994(4)
O1 O 0.6844(5) 0.4390(2) 0.3956(3)
O2 O 0.9123(5) 0.9010(2) 0.4386(3)
H2 H 1.0018 0.8715 0.4865
O3 O 0.2352(5) 0.5536(2) 0.3975(3)
O4 O 1.5294(6) 0.5609(3) 0.9514(3)
C1 C 0.6867(8) 0.5299(3) 0.3995(4)
C2 C 0.5140(7) 0.5905(3) 0.3248(3)
H3 H 0.5305 0.5910 0.2472
C3 C 0.5094(6) 0.6984(3) 0.3628(4)
H4 H 0.4687 0.6986 0.4341
C4 C 0.3539(7) 0.7598(3) 0.2749(4)
H5 H 0.2198 0.7304 0.2617
H6 H 0.3890 0.7598 0.2027
C5 C 0.3493(8) 0.8663(3) 0.3170(4)
H7 H 0.2533 0.9049 0.2591
H8 H 0.3047 0.8668 0.3862
C6 C 0.5607(8) 0.9121(3) 0.3415(4)
H9 H 0.5990 0.9164 0.2705
H10 H 0.5564 0.9788 0.3703
C7 C 0.7201(7) 0.8537(3) 0.4274(4)
H11 H 0.6894 0.8554 0.5015
C8 C 0.7248(7) 0.7446(3) 0.3889(3)
C9 C 0.8727(7) 0.6833(3) 0.4797(4)
C10 C 0.3120(7) 0.5367(3) 0.3192(4)
C11 C 0.2229(7) 0.4646(3) 0.2285(4)
C12 C 0.0453(8) 0.4142(3) 0.2321(4)
H12 H -0.0077 0.4243 0.2939
C13 C -0.0532(9) 0.3496(4) 0.1454(5)
H13 H -0.1735 0.3186 0.1479
C14 C 0.0292(10) 0.3319(4) 0.0558(5)
H14 H -0.0350 0.2876 -0.0016
C15 C 0.2057(10) 0.3789(4) 0.0499(4)
H15 H 0.2597 0.3667 -0.0112
C16 C 0.3016(8) 0.4445(4) 0.1358(4)
H16 H 0.4207 0.4759 0.1319
C17 C 0.7946(7) 0.7425(3) 0.2831(4)
C18 C 1.1406(8) 0.6774(3) 0.6538(4)
C19 C 1.3451(8) 0.7049(3) 0.6858(4)
H17 H 1.3921 0.7497 0.6408
C20 C 1.4802(8) 0.6664(3) 0.7840(4)
H18 H 1.6173 0.6838 0.8032
C21 C 1.4105(9) 0.6025(3) 0.8526(4)
C22 C 1.2069(8) 0.5779(4) 0.8241(4)
H19 H 1.1590 0.5364 0.8720
C23 C 1.0732(8) 0.6139(3) 0.7254(4)
H20 H 0.9366 0.5956 0.7065
C24 C 1.7441(9) 0.5738(4) 0.9783(4)
H21 H 1.7935 0.5450 0.9188
H22 H 1.8080 0.5418 1.0499
H23 H 1.7757 0.6431 0.9843
loop_
_geom_bond_atom_site_label_1
_geom_bond_atom_site_label_2
_geom_bond_site_symmetry_1
_geom_bond_site_symmetry_2
N1 H1 1_555 1_555
N2 C9 1_555 1_555
N3 C17 1_555 1_555
O1 C1 1_555 1_555
O2 H2 1_555 1_555
O3 C10 1_555 1_555
O4 C21 1_555 1_555
C1 N1 1_555 1_555
C2 C1 1_555 1_555
H3 C2 1_555 1_555
C3 C2 1_555 1_555
H4 C3 1_555 1_555
C4 C3 1_555 1_555
H5 C4 1_555 1_555
H6 C4 1_555 1_555
C5 C4 1_555 1_555
H7 C5 1_555 1_555
H8 C5 1_555 1_555
C6 C5 1_555 1_555
H9 C6 1_555 1_555
H10 C6 1_555 1_555
C7 O2 1_555 1_555
H11 C7 1_555 1_555
C8 C3 1_555 1_555
C9 N1 1_555 1_555
C10 C2 1_555 1_555
C11 C10 1_555 1_555
C12 C11 1_555 1_555
H12 C12 1_555 1_555
C13 C12 1_555 1_555
H13 C13 1_555 1_555
C14 C13 1_555 1_555
H14 C14 1_555 1_555
C15 C14 1_555 1_555
H15 C15 1_555 1_555
C16 C11 1_555 1_555
H16 C16 1_555 1_555
C17 C8 1_555 1_555
C18 N2 1_555 1_555
C19 C18 1_555 1_555
H17 C19 1_555 1_555
C20 C19 1_555 1_555
H18 C20 1_555 1_555
C21 C20 1_555 1_555
C22 C21 1_555 1_555
H19 C22 1_555 1_555
C23 C18 1_555 1_555
H20 C23 1_555 1_555
C24 O4 1_555 1_555
H21 C24 1_555 1_555
H22 C24 1_555 1_555
H23 C24 1_555 1_555
C6 C7 1_555 1_555
C7 C8 1_555 1_555
C8 C9 1_555 1_555
C15 C16 1_555 1_555
C22 C23 1_555 1_555

#END
