
#######################################################################
#
#                 Cambridge Crystallographic Data Centre
#                                CCDC 
#
#######################################################################
#
# If this CIF has been generated from an entry in the Cambridge 
# Structural Database, then it will include bibliographic, chemical, 
# crystal, experimental, refinement or atomic coordinate data resulting 
# from the CCDC's data processing and validation procedures.
#
#######################################################################

data_NOTLIT
_chemical_formula_moiety         'C22 H20 N2 S1'
_chemical_name_systematic        
N-Cyclohexyl-3-phenyl-2H-thieno[2,3-b]indol-2-imine
_symmetry_cell_setting           monoclinic
_symmetry_space_group_name_H-M   'P 21/c'
_symmetry_Int_Tables_number      14
_space_group_name_Hall           '-P 2ybc'
loop_
_symmetry_equiv_pos_site_id
_symmetry_equiv_pos_as_xyz
1 x,y,z
2 -x,1/2+y,1/2-z
3 -x,-y,-z
4 x,1/2-y,1/2+z
_cell_length_a                   11.0749(8)
_cell_length_b                   10.0104(7)
_cell_length_c                   16.7021(11)
_cell_angle_alpha                90
_cell_angle_beta                 106.251(3)
_cell_angle_gamma                90
_cell_volume                     1777.68
_exptl_crystal_colour            red
_exptl_crystal_description       block
_cell_formula_units_Z            4
loop_
_atom_site_label
_atom_site_type_symbol
_atom_site_fract_x
_atom_site_fract_y
_atom_site_fract_z
S1 S 0.16416(4) 0.62257(4) 0.42083(2)
N1 N 0.38733(12) 0.70045(13) 0.53357(8)
N2 N 0.04572(12) 0.37909(13) 0.38807(8)
C1 C 0.47832(14) 0.62835(15) 0.59670(9)
C2 C 0.57916(15) 0.68365(18) 0.65567(10)
H1 H 0.5961 0.7747 0.6558
C3 C 0.65474(16) 0.59873(19) 0.71500(11)
H2 H 0.7229 0.6337 0.7555
C4 C 0.63012(16) 0.46304(18) 0.71463(11)
H3 H 0.6825 0.4086 0.7547
C5 C 0.52858(14) 0.40643(16) 0.65549(10)
H4 H 0.5127 0.3152 0.6555
C6 C 0.45172(13) 0.49028(15) 0.59651(9)
C7 C 0.33502(13) 0.47376(14) 0.53004(9)
C8 C 0.30715(13) 0.61007(15) 0.49736(9)
C9 C 0.13885(14) 0.44420(15) 0.43108(9)
C10 C 0.24440(13) 0.38350(14) 0.49702(9)
C11 C 0.24306(13) 0.24218(14) 0.52103(8)
C12 C 0.13794(14) 0.18652(16) 0.53832(9)
H5 H 0.0662 0.2379 0.5330
C13 C 0.14055(15) 0.05411(16) 0.56350(9)
H6 H 0.0715 0.0181 0.5772
C14 C 0.24473(16) -0.02467(16) 0.56837(9)
H7 H 0.2445 -0.1142 0.5832
C15 C 0.34950(15) 0.03001(15) 0.55113(9)
H8 H 0.4199 -0.0227 0.5546
C16 C 0.34942(14) 0.16325(15) 0.52871(9)
H9 H 0.4208 0.2003 0.5187
C17 C -0.05458(14) 0.44656(16) 0.32505(9)
H10 H -0.0572 0.5407 0.3406
C18 C -0.03129(15) 0.4384(3) 0.23968(11)
H11 H -0.0235 0.3455 0.2253
H12 H 0.0469 0.4833 0.2412
C19 C -0.13978(17) 0.5036(3) 0.17315(12)
H13 H -0.1422 0.5984 0.1847
H14 H -0.1252 0.4936 0.1188
C20 C -0.26500(15) 0.4412(2) 0.17143(10)
H15 H -0.3320 0.4884 0.1315
H16 H -0.2662 0.3489 0.1535
C21 C -0.28753(15) 0.44654(19) 0.25645(10)
H17 H -0.3655 0.4007 0.2545
H18 H -0.2960 0.5389 0.2716
C22 C -0.17952(15) 0.38146(18) 0.32247(10)
H19 H -0.1948 0.3897 0.3767
H20 H -0.1759 0.2871 0.3101
loop_
_geom_bond_atom_site_label_1
_geom_bond_atom_site_label_2
_geom_bond_site_symmetry_1
_geom_bond_site_symmetry_2
S1 C8 1_555 1_555
N1 C1 1_555 1_555
N2 C9 1_555 1_555
C1 C2 1_555 1_555
C2 H1 1_555 1_555
C3 C2 1_555 1_555
H2 C3 1_555 1_555
C4 C3 1_555 1_555
H3 C4 1_555 1_555
C5 C4 1_555 1_555
H4 C5 1_555 1_555
C6 C1 1_555 1_555
C7 C6 1_555 1_555
C8 N1 1_555 1_555
C9 S1 1_555 1_555
C10 C7 1_555 1_555
C11 C10 1_555 1_555
C12 C11 1_555 1_555
H5 C12 1_555 1_555
C13 C12 1_555 1_555
H6 C13 1_555 1_555
C14 C13 1_555 1_555
H7 C14 1_555 1_555
C15 C14 1_555 1_555
H8 C15 1_555 1_555
C16 C11 1_555 1_555
H9 C16 1_555 1_555
C17 N2 1_555 1_555
H10 C17 1_555 1_555
C18 C17 1_555 1_555
H11 C18 1_555 1_555
H12 C18 1_555 1_555
C19 C18 1_555 1_555
H13 C19 1_555 1_555
H14 C19 1_555 1_555
C20 C19 1_555 1_555
H15 C20 1_555 1_555
H16 C20 1_555 1_555
C21 C20 1_555 1_555
H17 C21 1_555 1_555
H18 C21 1_555 1_555
C22 C17 1_555 1_555
H19 C22 1_555 1_555
H20 C22 1_555 1_555
C5 C6 1_555 1_555
C7 C8 1_555 1_555
C9 C10 1_555 1_555
C15 C16 1_555 1_555
C21 C22 1_555 1_555

#END
