
#######################################################################
#
#                 Cambridge Crystallographic Data Centre
#                                CCDC 
#
#######################################################################
#
# If this CIF has been generated from an entry in the Cambridge 
# Structural Database, then it will include bibliographic, chemical, 
# crystal, experimental, refinement or atomic coordinate data resulting 
# from the CCDC's data processing and validation procedures.
#
#######################################################################

data_NOTMIS
_chemical_formula_moiety         'C23 H42 N2 O7 Si2'
_chemical_name_systematic        
6-(1-Hydroxyethyl)-3',5'-O-(tetraisopropyldisiloxan-1,3-diyl)-2'-deoxyuridine
_symmetry_cell_setting           triclinic
_symmetry_space_group_name_H-M   'P 1'
_symmetry_Int_Tables_number      1
_space_group_name_Hall           'P 1'
loop_
_symmetry_equiv_pos_site_id
_symmetry_equiv_pos_as_xyz
1 x,y,z
_cell_length_a                   14.005(2)
_cell_length_b                   15.039(3)
_cell_length_c                   7.878(1)
_cell_angle_alpha                103.73(2)
_cell_angle_beta                 105.18(1)
_cell_angle_gamma                109.53(1)
_cell_volume                     1409.69
_exptl_crystal_colour            colorless
_exptl_crystal_description       prism
_cell_formula_units_Z            2
loop_
_atom_site_label
_atom_site_type_symbol
_atom_site_fract_x
_atom_site_fract_y
_atom_site_fract_z
Si1 Si -0.8213 -0.0213 -0.3980
Si2 Si -0.8353(4) -0.2255(3) -0.6507(6)
O1 O -0.7348(6) -0.0107(7) -0.201(1)
O2 O -0.8501(7) -0.1241(6) -0.561(1)
O3 O -0.7472(8) -0.2415(7) -0.495(1)
O7 O -0.3883(6) 0.0692(7) -0.124(1)
O8 O -0.0451(7) 0.1805(7) 0.296(1)
O11 O -0.5285(6) -0.0943(6) -0.057(1)
O13 O -0.4220(7) 0.0550(7) 0.505(1)
N1 N -0.3709(7) 0.0473(7) 0.157(1)
N2 N -0.2183(7) 0.1225(7) 0.085(1)
C1 C -0.6351(10) -0.1730(10) -0.383(2)
C2 C -0.6288(9) -0.1115(8) -0.191(1)
C3 C -0.6290(8) -0.0077(8) -0.171(1)
C4 C -0.5511(9) 0.0585(9) 0.034(1)
C5 C -0.4913(9) -0.0024(9) 0.097(2)
C6 C -0.3300(9) 0.0792(8) 0.030(2)
C7 C -0.1428(10) 0.1392(9) 0.259(2)
C8 C -0.1921(9) 0.1010(8) 0.382(1)
C9 C -0.3000(9) 0.0582(8) 0.335(1)
C10 C -0.3460(9) 0.0172(9) 0.472(2)
C20 C -0.947(1) -0.035(1) -0.340(2)
C21 C -1.047(1) -0.061(2) -0.525(3)
C22 C -0.968(1) -0.342(1) -0.720(2)
C23 C -1.014(2) -0.336(2) -0.578(3)
C24 C -0.951(2) -0.441(1) -0.772(3)
C36 C -0.390(1) -0.0992(9) 0.402(2)
C38 C -0.930(2) 0.054(2) -0.180(3)
C39 C -0.759(1) 0.089(1) -0.473(3)
C40 C -0.797(1) -0.214(1) -0.864(2)
C41 C -0.886(2) -0.204(2) -1.007(2)
C42 C -0.753(2) -0.289(2) -0.934(3)
C44 C -0.723(3) 0.186(2) -0.321(5)
C46 C -0.791(5) 0.083(2) -0.644(5)
H12 H -0.1403 0.1220 0.5335
H13 H -0.2823 0.0434 0.5965
H14 H -0.3960 -0.1138 0.5330
H15 H -0.5889 -0.2083 -0.3664
H16 H -0.5002 0.1223 0.0412
H17 H -0.1887 0.1441 -0.0036
H18 H -0.5109 -0.0195 0.1978
H19 H -0.5915 0.0724 0.1100
H20 H -0.6892 -0.1517 -0.1628
H21 H -0.6004 0.0180 -0.2575
H22 H -0.6057 -0.1268 -0.4441
Si3 Si -0.3714(3) 0.6235(3) 0.7926(6)
Si4 Si -0.3533(4) 0.4193(3) 0.6926(6)
O4 O -0.4552(6) 0.6031(6) 0.582(1)
O5 O -0.3241(7) 0.5388(6) 0.785(1)
O6 O -0.4860(7) 0.3597(7) 0.563(1)
O9 O -0.7772(6) 0.3571(7) 0.327(1)
O10 O -1.1106(7) 0.2026(7) -0.141(1)
O12 O -0.6168(6) 0.4027(7) 0.149(1)
O14 O -0.7334(7) 0.4146(8) -0.275(1)
N3 N -0.7940(7) 0.3974(7) 0.062(1)
N4 N -0.9439(8) 0.2813(8) 0.091(1)
C11 C -0.5478(10) 0.3419(9) 0.375(2)
C12 C -0.5366(8) 0.4367(9) 0.334(1)
C13 C -0.5542(8) 0.5158(8) 0.469(1)
C14 C -0.6320(9) 0.5448(8) 0.338(2)
C15 C -0.6735(8) 0.4648(9) 0.142(2)
C16 C -0.8343(9) 0.3468(9) 0.169(2)
C17 C -1.0144(9) 0.2627(9) -0.086(1)
C18 C -0.9667(9) 0.3201(10) -0.188(1)
C19 C -0.8607(9) 0.3832(8) -0.119(1)
C25 C -0.4488(10) 0.6147(9) 0.955(2)
C26 C -0.523(1) 0.6707(10) 0.939(2)
C27 C -0.362(1) 0.657(1) 1.169(2)
C28 C -0.2544(10) 0.7494(10) 0.860(2)
C29 C -0.200(1) 0.745(1) 0.713(2)
C30 C -0.284(1) 0.841(1) 0.896(3)
C31 C -0.269(1) 0.410(1) 0.549(2)
C32 C -0.148(1) 0.476(1) 0.656(3)
C33 C -0.286(1) 0.299(1) 0.456(2)
C34 C -0.344(2) 0.354(2) 0.871(3)
C35 C -0.8111(9) 0.4481(9) -0.228(2)
C37 C -0.892(1) 0.444(1) -0.395(2)
C43 C -0.424(2) 0.361(2) 0.969(3)
C45 C -0.250(3) 0.365(3) 0.974(4)
H1 H -0.7493 0.5295 -0.1184
H2 H -0.6629 0.5050 0.0500
H3 H -0.9795 0.2440 0.1721
H4 H -0.6911 0.5444 0.3778
H5 H -0.5030 0.5298 0.9393
H6 H -1.0134 0.3122 -0.3110
H7 H -0.5927 0.6117 0.3424
H8 H -0.5889 0.4863 0.5458
H9 H -0.4651 0.4692 0.3311
H10 H -0.5255 0.3022 0.2915
H11 H -0.6239 0.3020 0.3471
loop_
_geom_bond_atom_site_label_1
_geom_bond_atom_site_label_2
_geom_bond_site_symmetry_1
_geom_bond_site_symmetry_2
Si1 O1 1_555 1_555
Si2 O2 1_555 1_555
Si3 O4 1_555 1_555
Si4 O5 1_555 1_555
O1 C3 1_555 1_555
O2 Si1 1_555 1_555
O3 Si2 1_555 1_555
O4 C13 1_555 1_555
O5 Si3 1_555 1_555
O6 Si4 1_555 1_555
O7 C6 1_555 1_555
O8 C7 1_555 1_555
O9 C16 1_555 1_555
O10 C17 1_555 1_555
O11 C2 1_555 1_555
O12 C12 1_555 1_555
O13 C10 1_555 1_555
O14 C35 1_555 1_555
N1 C5 1_555 1_555
N2 C6 1_555 1_555
N3 C15 1_555 1_555
N4 C16 1_555 1_555
C1 O3 1_555 1_555
C2 C1 1_555 1_555
C3 C2 1_555 1_555
C4 C3 1_555 1_555
C5 O11 1_555 1_555
C6 N1 1_555 1_555
C7 N2 1_555 1_555
C8 C7 1_555 1_555
C9 N1 1_555 1_555
C10 C9 1_555 1_555
C11 O6 1_555 1_555
C12 C11 1_555 1_555
C13 C12 1_555 1_555
C14 C13 1_555 1_555
C15 O12 1_555 1_555
C16 N3 1_555 1_555
C17 N4 1_555 1_555
C18 C17 1_555 1_555
C19 N3 1_555 1_555
C20 Si1 1_555 1_555
C21 C20 1_555 1_555
C22 Si2 1_555 1_555
C23 C22 1_555 1_555
C24 C22 1_555 1_555
C25 Si3 1_555 1_555
C26 C25 1_555 1_555
C27 C25 1_555 1_555
C28 Si3 1_555 1_555
C29 C28 1_555 1_555
C30 C28 1_555 1_555
C31 Si4 1_555 1_555
C32 C31 1_555 1_555
C33 C31 1_555 1_555
C34 Si4 1_555 1_555
C35 C19 1_555 1_555
C36 C10 1_555 1_555
C37 C35 1_555 1_555
C38 C20 1_555 1_555
C39 Si1 1_555 1_555
C40 Si2 1_555 1_555
C41 C40 1_555 1_555
C42 C40 1_555 1_555
C43 C34 1_555 1_555
C44 C39 1_555 1_555
C45 C34 1_555 1_555
C46 C39 1_555 1_555
H1 C35 1_555 1_555
H2 C15 1_555 1_555
H3 N4 1_555 1_555
H4 C14 1_555 1_555
H5 C25 1_555 1_555
H6 C18 1_555 1_555
H7 C14 1_555 1_555
H8 C13 1_555 1_555
H9 C12 1_555 1_555
H10 C11 1_555 1_555
H11 C11 1_555 1_555
H12 C8 1_555 1_555
H13 C10 1_555 1_555
H14 C36 1_555 1_555
H15 C1 1_555 1_555
H16 C4 1_555 1_555
H17 N2 1_555 1_555
H18 C5 1_555 1_555
H19 C4 1_555 1_555
H20 C2 1_555 1_555
H21 C3 1_555 1_555
H22 C1 1_555 1_555
C4 C5 1_555 1_555
C8 C9 1_555 1_555
C14 C15 1_555 1_555
C18 C19 1_555 1_555

#END
