
#######################################################################
#
#                 Cambridge Crystallographic Data Centre
#                                CCDC 
#
#######################################################################
#
# If this CIF has been generated from an entry in the Cambridge 
# Structural Database, then it will include bibliographic, chemical, 
# crystal, experimental, refinement or atomic coordinate data resulting 
# from the CCDC's data processing and validation procedures.
#
#######################################################################

data_NOTZED
_chemical_formula_moiety         'C40 H22 Cl2 O4'
_chemical_name_systematic        
'8-(9-(4-Chlorobenzoyl)-8-((4-chlorophenyl)(hydroxy)methylene)-8H-cyclopenta[a]acenaphthylen-7-yl)-1-naphthoic acid'
_symmetry_cell_setting           triclinic
_symmetry_space_group_name_H-M   'P -1'
_symmetry_Int_Tables_number      2
_space_group_name_Hall           '-P 1'
loop_
_symmetry_equiv_pos_site_id
_symmetry_equiv_pos_as_xyz
1 x,y,z
2 -x,-y,-z
_cell_length_a                   9.1617(6)
_cell_length_b                   12.5518(8)
_cell_length_c                   13.9305(8)
_cell_angle_alpha                84.669(3)
_cell_angle_beta                 88.468(3)
_cell_angle_gamma                72.364(3)
_cell_volume                     1520.05
_exptl_crystal_colour            red
_exptl_crystal_description       block
_cell_formula_units_Z            2
loop_
_atom_site_label
_atom_site_type_symbol
_atom_site_fract_x
_atom_site_fract_y
_atom_site_fract_z
C1 C 0.3711(3) -0.0056(2) 1.14119(18)
H1 H 0.4151 -0.0105 1.0802
C2 C 0.4574(3) -0.0622(2) 1.2200(2)
H2 H 0.5583 -0.1061 1.2129
C3 C 0.3905(4) -0.0522(2) 1.3095(2)
C4 C 0.2397(3) 0.0086(2) 1.32181(19)
H3 H 0.1964 0.0130 1.3830
C5 C 0.1536(3) 0.0630(2) 1.24211(17)
H4 H 0.0509 0.1028 1.2492
C6 C 0.2204(3) 0.0584(2) 1.15108(16)
C7 C 0.1282(3) 0.1185(2) 1.06663(17)
C8 C 0.1805(3) 0.1836(2) 0.99403(16)
C9 C 0.1172(3) 0.2173(2) 0.89503(16)
C10 C -0.0152(3) 0.1980(2) 0.85796(18)
C11 C -0.0373(3) 0.2000(2) 0.75185(17)
C12 C -0.1801(3) 0.2557(2) 0.71138(19)
H5 H -0.2595 0.2939 0.7501
C13 C -0.2052(3) 0.2547(3) 0.6143(2)
H6 H -0.2998 0.2939 0.5868
C14 C -0.0878(3) 0.1946(2) 0.55892(18)
C15 C 0.0539(3) 0.1368(2) 0.5975(2)
H7 H 0.1315 0.0959 0.5591
C16 C 0.0789(3) 0.1406(2) 0.69457(19)
H8 H 0.1746 0.1029 0.7214
C17 C 0.3070(3) 0.2282(2) 1.00152(16)
C18 C 0.3213(3) 0.2850(2) 0.91320(16)
C19 C 0.2079(3) 0.2775(2) 0.84761(16)
C20 C 0.2215(3) 0.3469(2) 0.75730(17)
C21 C 0.1484(4) 0.3782(2) 0.66919(18)
H9 H 0.0675 0.3521 0.6547
C22 C 0.1987(4) 0.4506(2) 0.6012(2)
H10 H 0.1511 0.4697 0.5412
C23 C 0.3132(4) 0.4933(3) 0.6199(2)
H11 H 0.3424 0.5404 0.5728
C24 C 0.3891(4) 0.4669(2) 0.7103(2)
C25 C 0.5023(4) 0.5104(3) 0.7431(2)
H12 H 0.5373 0.5603 0.7023
C26 C 0.5605(4) 0.4798(3) 0.8341(2)
H13 H 0.6341 0.5103 0.8541
C27 C 0.5130(3) 0.4036(2) 0.8988(2)
H14 H 0.5551 0.3837 0.9604
C28 C 0.4040(3) 0.3594(2) 0.86954(17)
C29 C 0.3415(3) 0.3925(2) 0.77551(17)
C30 C 0.4026(3) 0.2228(2) 1.08743(16)
C31 C 0.5582(3) 0.1748(2) 1.0823(2)
H15 H 0.6034 0.1591 1.0226
C32 C 0.6509(3) 0.1487(3) 1.1651(2)
H16 H 0.7565 0.1187 1.1596
C33 C 0.5862(3) 0.1671(3) 1.2529(2)
H17 H 0.6467 0.1433 1.3080
C34 C 0.4281(3) 0.2222(2) 1.26196(18)
C35 C 0.3590(4) 0.2439(3) 1.35318(19)
H18 H 0.4189 0.2198 1.4085
C36 C 0.2084(4) 0.2988(3) 1.36180(19)
H19 H 0.1640 0.3076 1.4225
C37 C 0.1190(4) 0.3425(2) 1.27884(19)
H20 H 0.0163 0.3830 1.2849
C38 C 0.1817(3) 0.3261(2) 1.18879(17)
C39 C 0.3359(3) 0.25818(19) 1.17762(16)
C40 C 0.0952(3) 0.3994(2) 1.10647(18)
O1 O -0.1212(2) 0.1783(2) 0.90946(14)
O2 O -0.0069(2) 0.10550(19) 1.06623(14)
O3 O 0.1576(2) 0.45385(16) 1.05156(13)
O4 O -0.0494(2) 0.40609(19) 1.10218(16)
Cl1 Cl -0.12237(11) 0.18919(9) 0.43777(5)
Cl2 Cl 0.50109(13) -0.11783(11) 1.40952(7)
H21 H -0.082(5) 0.451(3) 1.053(2)
loop_
_geom_bond_atom_site_label_1
_geom_bond_atom_site_label_2
_geom_bond_site_symmetry_1
_geom_bond_site_symmetry_2
C1 H1 1_555 1_555
C2 C1 1_555 1_555
H2 C2 1_555 1_555
C3 C2 1_555 1_555
C4 C3 1_555 1_555
H3 C4 1_555 1_555
C5 C4 1_555 1_555
H4 C5 1_555 1_555
C6 C1 1_555 1_555
C7 C6 1_555 1_555
C8 C7 1_555 1_555
C9 C8 1_555 1_555
C10 C9 1_555 1_555
C11 C10 1_555 1_555
C12 C11 1_555 1_555
H5 C12 1_555 1_555
C13 C12 1_555 1_555
H6 C13 1_555 1_555
C14 C13 1_555 1_555
C15 C14 1_555 1_555
H7 C15 1_555 1_555
C16 C11 1_555 1_555
H8 C16 1_555 1_555
C17 C8 1_555 1_555
C18 C17 1_555 1_555
C19 C9 1_555 1_555
C20 C19 1_555 1_555
C21 C20 1_555 1_555
H9 C21 1_555 1_555
C22 C21 1_555 1_555
H10 C22 1_555 1_555
C23 C22 1_555 1_555
H11 C23 1_555 1_555
C24 C23 1_555 1_555
C25 C24 1_555 1_555
H12 C25 1_555 1_555
C26 C25 1_555 1_555
H13 C26 1_555 1_555
C27 C26 1_555 1_555
H14 C27 1_555 1_555
C28 C18 1_555 1_555
C29 C20 1_555 1_555
C30 C17 1_555 1_555
C31 C30 1_555 1_555
H15 C31 1_555 1_555
C32 C31 1_555 1_555
H16 C32 1_555 1_555
C33 C32 1_555 1_555
H17 C33 1_555 1_555
C34 C33 1_555 1_555
C35 C34 1_555 1_555
H18 C35 1_555 1_555
C36 C35 1_555 1_555
H19 C36 1_555 1_555
C37 C36 1_555 1_555
H20 C37 1_555 1_555
C38 C37 1_555 1_555
C39 C30 1_555 1_555
C40 C38 1_555 1_555
O1 C10 1_555 1_555
O2 C7 1_555 1_555
O3 C40 1_555 1_555
O4 C40 1_555 1_555
Cl1 C14 1_555 1_555
Cl2 C3 1_555 1_555
H21 O4 1_555 1_555
C5 C6 1_555 1_555
C15 C16 1_555 1_555
C18 C19 1_555 1_555
C24 C29 1_555 1_555
C27 C28 1_555 1_555
C28 C29 1_555 1_555
C34 C39 1_555 1_555
C38 C39 1_555 1_555

#END
