
#######################################################################
#
#                 Cambridge Crystallographic Data Centre
#                                CCDC 
#
#######################################################################
#
# If this CIF has been generated from an entry in the Cambridge 
# Structural Database, then it will include bibliographic, chemical, 
# crystal, experimental, refinement or atomic coordinate data resulting 
# from the CCDC's data processing and validation procedures.
#
#######################################################################

data_NOVDAF
_chemical_formula_moiety         'C14 H10 Br1 N1 O1'
_chemical_name_systematic        5-Bromo-1-phenyl-1,3-dihydro-2H-indol-2-one
_symmetry_cell_setting           monoclinic
_symmetry_space_group_name_H-M   'P 21/c'
_symmetry_Int_Tables_number      14
_space_group_name_Hall           '-P 2ybc'
loop_
_symmetry_equiv_pos_site_id
_symmetry_equiv_pos_as_xyz
1 x,y,z
2 -x,1/2+y,1/2-z
3 -x,-y,-z
4 x,1/2-y,1/2+z
_cell_length_a                   3.95810(10)
_cell_length_b                   21.5740(7)
_cell_length_c                   13.2045(4)
_cell_angle_alpha                90
_cell_angle_beta                 95.287(2)
_cell_angle_gamma                90
_cell_volume                     1122.76
_exptl_crystal_colour            colorless
_exptl_crystal_description       bar
_cell_formula_units_Z            4
loop_
_atom_site_label
_atom_site_type_symbol
_atom_site_fract_x
_atom_site_fract_y
_atom_site_fract_z
Br1 Br 0.37477(4) 0.494214(7) 0.768791(14)
C1 C 0.9050(4) 0.16924(8) 1.05243(12)
O1 O 1.3208(3) 0.27438(6) 1.15503(9)
C2 C 0.5615(4) 0.42292(7) 0.83804(12)
C3 C 0.5340(4) 0.36616(7) 0.78970(12)
C4 C 0.6758(4) 0.31344(7) 0.83820(11)
C5 C 0.8377(4) 0.32013(7) 0.93496(11)
N1 N 0.9999(3) 0.27481(6) 0.99938(9)
C6 C 1.0081(4) 0.20973(7) 0.97955(11)
C7 C 1.1206(4) 0.18732(8) 0.88999(12)
C8 C 1.1338(5) 0.12373(8) 0.87464(13)
C9 C 1.0362(5) 0.08316(8) 0.94771(15)
C10 C 1.1453(4) 0.30112(7) 1.08848(12)
C11 C 1.0482(4) 0.36947(7) 1.08668(12)
C12 C 0.8620(4) 0.37773(7) 0.98350(11)
C13 C 0.7246(4) 0.42993(7) 0.93550(12)
C14 C 0.9206(5) 0.10593(8) 1.03598(14)
H1 H 0.737(5) 0.4683(10) 0.9667(15)
H2 H 0.657(5) 0.2743(9) 0.8035(14)
H3 H 0.422(5) 0.3607(9) 0.7230(16)
H4 H 1.182(5) 0.2152(9) 0.8382(14)
H5 H 0.812(5) 0.1878(9) 1.1141(15)
H6 H 0.845(5) 0.0771(9) 1.0878(16)
H7 H 1.050(5) 0.0401(11) 0.9387(16)
H8 H 1.207(5) 0.1086(9) 0.8123(15)
H9 H 1.256(5) 0.3938(9) 1.1002(15)
H10 H 0.912(5) 0.3760(9) 1.1410(15)
loop_
_geom_bond_atom_site_label_1
_geom_bond_atom_site_label_2
_geom_bond_site_symmetry_1
_geom_bond_site_symmetry_2
Br1 C2 1_555 1_555
C1 C6 1_555 1_555
O1 C10 1_555 1_555
C2 C3 1_555 1_555
C3 C4 1_555 1_555
C4 C5 1_555 1_555
C5 N1 1_555 1_555
N1 C6 1_555 1_555
C6 C7 1_555 1_555
C7 C8 1_555 1_555
C8 C9 1_555 1_555
C9 C14 1_555 1_555
C10 N1 1_555 1_555
C11 C10 1_555 1_555
C12 C5 1_555 1_555
C13 C2 1_555 1_555
C14 C1 1_555 1_555
H1 C13 1_555 1_555
H2 C4 1_555 1_555
H3 C3 1_555 1_555
H4 C7 1_555 1_555
H5 C1 1_555 1_555
H6 C14 1_555 1_555
H7 C9 1_555 1_555
H8 C8 1_555 1_555
H9 C11 1_555 1_555
H10 C11 1_555 1_555
C11 C12 1_555 1_555
C12 C13 1_555 1_555

#END
