
#######################################################################
#
#                 Cambridge Crystallographic Data Centre
#                                CCDC 
#
#######################################################################
#
# If this CIF has been generated from an entry in the Cambridge 
# Structural Database, then it will include bibliographic, chemical, 
# crystal, experimental, refinement or atomic coordinate data resulting 
# from the CCDC's data processing and validation procedures.
#
#######################################################################

data_NOVTOJ
_chemical_formula_moiety         'C27 H28 N2 O6 S1,C3 H8 O1'
_chemical_name_systematic        
'N-(Benzylsulfonyl)-N-(2-(((9H-fluoren-9-ylmethoxy)carbonyl)amino)propyl)glycine isopropanol solvate'
_symmetry_cell_setting           monoclinic
_symmetry_space_group_name_H-M   'P 21'
_symmetry_Int_Tables_number      4
_space_group_name_Hall           'P 2yb'
loop_
_symmetry_equiv_pos_site_id
_symmetry_equiv_pos_as_xyz
1 x,y,z
2 -x,1/2+y,-z
_cell_length_a                   5.0381(2)
_cell_length_b                   22.7047(9)
_cell_length_c                   12.7281(5)
_cell_angle_alpha                90
_cell_angle_beta                 98.445(3)
_cell_angle_gamma                90
_cell_volume                     1440.16
_exptl_crystal_colour            colorless
_exptl_crystal_description       needle
_cell_formula_units_Z            2
_exptl_crystal_recrystallization_method dichloromethane/isopropanol
loop_
_atom_site_label
_atom_site_type_symbol
_atom_site_fract_x
_atom_site_fract_y
_atom_site_fract_z
S1 S 1.0215(3) 0.67903(9) 0.83449(11)
O1 O 0.8979(7) 0.57561(19) 0.4196(3)
O2 O 1.2119(8) 0.7194(2) 0.8039(4)
O3 O 0.9830(9) 0.5564(2) 0.6685(4)
H1 H 1.0493 0.5225 0.6666
N1 N 0.7952(9) 0.6576(2) 0.4995(4)
H2 H 0.6285 0.6455 0.4828
C1 C 0.9942(12) 0.6246(3) 0.4709(5)
O4 O 1.1116(9) 0.6242(2) 0.8818(4)
O5 O 1.2322(7) 0.6369(2) 0.4887(4)
O6 O 0.6669(9) 0.5080(2) 0.7397(4)
C2 C 1.3364(13) 0.4086(3) 0.3606(5)
H3 H 1.3590 0.4139 0.4354
C3 C 1.1005(12) 0.5364(3) 0.3878(5)
H4 H 1.2138 0.5200 0.4512
H5 H 1.2172 0.5580 0.3449
C4 C 1.1457(12) 0.4407(3) 0.2929(5)
C5 C 0.9513(12) 0.4875(3) 0.3228(5)
H6 H 0.8203 0.4688 0.3645
N2 N 0.8070(10) 0.6638(2) 0.7287(4)
C6 C 0.6398(12) 0.6123(3) 0.7351(5)
H7 H 0.4745 0.6170 0.6832
H8 H 0.5857 0.6111 0.8068
C7 C 0.8450(11) 0.7123(3) 0.5567(5)
H9 H 1.0432 0.7163 0.5782
C8 C 0.8083(12) 0.5055(3) 0.2148(5)
C9 C 1.1127(12) 0.4329(3) 0.1830(5)
C10 C 0.7138(11) 0.7123(3) 0.6572(5)
H10 H 0.7535 0.7501 0.6951
H11 H 0.5168 0.7094 0.6373
C11 C 1.003(2) 0.7214(5) 1.0321(5)
C12 C 0.933(2) 0.6808(5) 1.1050(7)
H12 H 0.7878 0.6545 1.0851
C13 C 1.075(3) 0.6788(5) 1.2072(6)
H13 H 1.0271 0.6511 1.2571
C14 C 1.288(2) 0.7174(7) 1.2364(5)
H14 H 1.3847 0.7160 1.3062
C15 C 1.3579(19) 0.7579(7) 1.1634(8)
H15 H 1.5030 0.7842 1.1834
C16 C 1.216(2) 0.7599(5) 1.0612(6)
H16 H 1.2638 0.7876 1.0114
C17 C 0.9004(12) 0.4731(3) 0.1340(5)
C18 C 0.7907(14) 0.4805(3) 0.0294(5)
H17 H 0.8550 0.4582 -0.0248
C19 C 1.2733(13) 0.3932(3) 0.1381(6)
H18 H 1.2537 0.3882 0.0633
C20 C 1.4635(13) 0.3607(3) 0.2045(6)
H19 H 1.5736 0.3331 0.1748
C21 C 0.7485(14) 0.7649(3) 0.4886(5)
H20 H 0.8344 0.7649 0.4243
H21 H 0.7952 0.8012 0.5286
H22 H 0.5533 0.7627 0.4686
C22 C 0.4936(13) 0.5549(3) 0.0845(5)
H23 H 0.3557 0.5833 0.0669
C23 C 0.6047(12) 0.5470(3) 0.1892(5)
H24 H 0.5430 0.5697 0.2436
C24 C 1.4929(12) 0.3682(3) 0.3132(6)
H25 H 1.6228 0.3453 0.3572
C25 C 0.7671(13) 0.5539(3) 0.7147(5)
C26 C 0.5817(13) 0.5215(3) 0.0038(5)
H26 H 0.5009 0.5265 -0.0679
C27 C 0.8456(18) 0.7218(8) 0.9223(7)
H27 H 0.8231 0.7628 0.8961
H28 H 0.6652 0.7048 0.9240
O7 O 0.2200(9) 0.4556(2) 0.6371(4)
H36 H 0.3839 0.4623 0.6567
C35 C 0.1497(18) 0.3997(4) 0.7931(7)
H37 H 0.3181 0.4167 0.8286
H38 H 0.1308 0.3594 0.8188
H39 H -0.0014 0.4237 0.8088
C36 C 0.1523(13) 0.3986(3) 0.6750(6)
H40 H 0.2893 0.3694 0.6590
C37 C -0.1165(14) 0.3826(3) 0.6118(8)
H41 H -0.2497 0.4125 0.6233
H42 H -0.1738 0.3441 0.6351
H43 H -0.0999 0.3809 0.5361
C28? C 0.822(2) 0.7068(14) 0.9308(10)
H29? H 0.7133 0.7407 0.9005
H30? H 0.6985 0.6757 0.9487
C29? C 1.004(3) 0.7257(7) 1.0293(8)
C30? C 1.037(3) 0.6885(6) 1.1170(10)
H31? H 0.9346 0.6533 1.1160
C31? C 1.219(4) 0.7028(7) 1.2061(9)
H32? H 1.2417 0.6774 1.2661
C32? C 1.369(3) 0.7543(9) 1.2076(12)
H33? H 1.4934 0.7641 1.2685
C33? C 1.336(2) 0.7915(7) 1.1199(14)
H34? H 1.4379 0.8267 1.1209
C34? C 1.153(3) 0.7772(6) 1.0308(10)
H35? H 1.1307 0.8026 0.9709
loop_
_geom_bond_atom_site_label_1
_geom_bond_atom_site_label_2
_geom_bond_site_symmetry_1
_geom_bond_site_symmetry_2
S1 O2 1_555 1_555
O1 C1 1_555 1_555
O3 H1 1_555 1_555
N1 H2 1_555 1_555
C1 N1 1_555 1_555
O4 S1 1_555 1_555
O5 C1 1_555 1_555
O6 C25 1_555 1_555
C2 H3 1_555 1_555
C3 O1 1_555 1_555
H4 C3 1_555 1_555
H5 C3 1_555 1_555
C4 C2 1_555 1_555
C5 C3 1_555 1_555
H6 C5 1_555 1_555
N2 S1 1_555 1_555
C6 N2 1_555 1_555
H7 C6 1_555 1_555
H8 C6 1_555 1_555
C7 N1 1_555 1_555
H9 C7 1_555 1_555
C8 C5 1_555 1_555
C9 C4 1_555 1_555
C10 N2 1_555 1_555
H10 C10 1_555 1_555
H11 C10 1_555 1_555
C11 C12 1_555 1_555
C12 H12 1_555 1_555
C13 C12 1_555 1_555
H13 C13 1_555 1_555
C14 C13 1_555 1_555
H14 C14 1_555 1_555
C15 C14 1_555 1_555
H15 C15 1_555 1_555
C16 C11 1_555 1_555
H16 C16 1_555 1_555
C17 C8 1_555 1_555
C18 C17 1_555 1_555
H17 C18 1_555 1_555
C19 C9 1_555 1_555
H18 C19 1_555 1_555
C20 C19 1_555 1_555
H19 C20 1_555 1_555
C21 C7 1_555 1_555
H20 C21 1_555 1_555
H21 C21 1_555 1_555
H22 C21 1_555 1_555
C22 H23 1_555 1_555
C23 C8 1_555 1_555
H24 C23 1_555 1_555
C24 C2 1_555 1_555
H25 C24 1_555 1_555
C25 O3 1_555 1_555
C26 C18 1_555 1_555
H26 C26 1_555 1_555
C27 S1 1_555 1_555
H27 C27 1_555 1_555
H28 C27 1_555 1_555
O7 H36 1_555 1_555
C35 H37 1_555 1_555
H38 C35 1_555 1_555
H39 C35 1_555 1_555
C36 O7 1_555 1_555
H40 C36 1_555 1_555
C37 C36 1_555 1_555
H41 C37 1_555 1_555
H42 C37 1_555 1_555
H43 C37 1_555 1_555
C4 C5 1_555 1_555
C6 C25 1_555 1_555
C7 C10 1_555 1_555
C9 C17 1_555 1_555
C11 C27 1_555 1_555
C15 C16 1_555 1_555
C20 C24 1_555 1_555
C22 C23 1_555 1_555
C22 C26 1_555 1_555
C35 C36 1_555 1_555

#END
