
#######################################################################
#
#                 Cambridge Crystallographic Data Centre
#                                CCDC 
#
#######################################################################
#
# If this CIF has been generated from an entry in the Cambridge 
# Structural Database, then it will include bibliographic, chemical, 
# crystal, experimental, refinement or atomic coordinate data resulting 
# from the CCDC's data processing and validation procedures.
#
#######################################################################

data_NOXJIV
_chemical_name_common            
'((40,46,52,58,63-Penta-t-butyl-67,69-dihydroxy-3,6,9,30,33,36-hexaoxaundecacyclo[36.21.7.1$44,48!.1$50,54!.1$61,65!.0$2,56!.0$10,19!.0$13,18!.0$20,29!.0$21,26!.0$37,42!]nonahexaconta-1,10(19),11,13,15,17,20(29),21,23,25,27,37,39,41,44(69),45,47,50(68),51,53,56,58,61(67),62,64-pentacosaen-68-yl)oxy)acetic acid methanol solvate'
_chemical_formula_moiety         'C85 H98 O11,6(C1 H4 O1)'
_chemical_name_systematic        
"5,11,17,23,29-Penta-t-butyl-31,33-dihydroxy-32,34-(2,2'-(1,1'-binaphthalene-2,2'-diylbis(oxyethane-2,1-diyloxy))diethoxy)-35-((carboxymethyl)oxy)calix(5)arene methanol solvate"
_symmetry_cell_setting           triclinic
_symmetry_space_group_name_H-M   'P -1'
_symmetry_Int_Tables_number      2
_space_group_name_Hall           '-P 1'
loop_
_symmetry_equiv_pos_site_id
_symmetry_equiv_pos_as_xyz
1 x,y,z
2 -x,-y,-z
_cell_length_a                   13.3819(13)
_cell_length_b                   18.3902(18)
_cell_length_c                   18.8153(18)
_cell_angle_alpha                101.911(2)
_cell_angle_beta                 95.272(2)
_cell_angle_gamma                108.824(2)
_cell_volume                     4225.09
_cell_formula_units_Z            2
_exptl_crystal_recrystallization_method dichloromethane/methanol
loop_
_atom_site_label
_atom_site_type_symbol
_atom_site_fract_x
_atom_site_fract_y
_atom_site_fract_z
C1 C 0.44809(18) 0.49720(14) 0.21553(12)
C2 C 0.45167(18) 0.52252(13) 0.14995(12)
C3 C 0.36334(19) 0.48356(14) 0.09367(12)
H1 H 0.3644 0.4991 0.0485
C4 C 0.27300(19) 0.42239(14) 0.10099(13)
C5 C 0.27445(19) 0.39890(14) 0.16683(13)
H2 H 0.2146 0.3568 0.1725
C6 C 0.36115(19) 0.43544(14) 0.22450(12)
C7 C 0.1777(2) 0.38198(15) 0.03716(13)
C8 C 0.1447(2) 0.44541(18) 0.00884(16)
H3 H 0.2035 0.4770 -0.0118
H4 H 0.1290 0.4802 0.0498
H5 H 0.0808 0.4193 -0.0295
C9 C 0.2093(2) 0.33120(18) -0.02522(15)
H6 H 0.2277 0.2898 -0.0076
H7 H 0.2713 0.3646 -0.0417
H8 H 0.1491 0.3065 -0.0665
C10 C 0.0787(2) 0.32900(18) 0.06031(15)
H9 H 0.0180 0.3095 0.0196
H10 H 0.0613 0.3597 0.1034
H11 H 0.0933 0.2838 0.0728
C11 C 0.54952(19) 0.58865(14) 0.14113(13)
H12 H 0.6003 0.6103 0.1884
H13 H 0.5857 0.5659 0.1035
C12 C 0.52378(18) 0.65606(14) 0.11865(13)
C13 C 0.53075(18) 0.72453(14) 0.17121(12)
C14 C 0.50138(18) 0.78479(13) 0.15011(13)
C15 C 0.47128(19) 0.77620(14) 0.07535(13)
H14 H 0.4525 0.8171 0.0605
C16 C 0.46722(19) 0.71005(14) 0.02067(13)
C17 C 0.49334(18) 0.65095(14) 0.04490(13)
H15 H 0.4902 0.6050 0.0093
C18 C 0.4363(2) 0.70627(15) -0.06065(14)
C19 C 0.3252(3) 0.7127(2) -0.07395(17)
H16 H 0.3046 0.7085 -0.1264
H17 H 0.3270 0.7639 -0.0447
H18 H 0.2729 0.6697 -0.0592
C20 C 0.5180(3) 0.77697(19) -0.08096(16)
H19 H 0.5897 0.7737 -0.0730
H20 H 0.5183 0.8269 -0.0499
H21 H 0.4977 0.7751 -0.1329
C21 C 0.4345(3) 0.6305(2) -0.11193(16)
H22 H 0.5054 0.6259 -0.1045
H23 H 0.4156 0.6317 -0.1631
H24 H 0.3813 0.5849 -0.1013
C22 C 0.5168(2) 0.71785(15) 0.29767(13)
H25 H 0.4969 0.6607 0.2960
H26 H 0.4503 0.7297 0.2886
C23 C 0.5818(2) 0.76740(17) 0.37189(14)
C24 C 0.50478(19) 0.85954(14) 0.20607(13)
H27 H 0.5394 0.8602 0.2551
H28 H 0.5497 0.9068 0.1917
C25 C 0.39462(18) 0.86541(13) 0.21212(13)
C26 C 0.34654(19) 0.85370(13) 0.27415(13)
C27 C 0.24330(19) 0.85631(14) 0.27739(13)
C28 C 0.19060(19) 0.87317(14) 0.21895(13)
H29 H 0.1211 0.8755 0.2216
C29 C 0.23558(19) 0.88673(13) 0.15673(13)
C30 C 0.33846(19) 0.88334(13) 0.15579(13)
H30 H 0.3719 0.8938 0.1147
C31 C 0.1781(2) 0.90626(15) 0.09258(14)
C32 C 0.0585(2) 0.88723(19) 0.09511(16)
H31 H 0.0242 0.8983 0.0523
H32 H 0.0496 0.9202 0.1404
H33 H 0.0251 0.8311 0.0943
C33 C 0.2288(2) 0.99490(16) 0.09756(16)
H34 H 0.3047 1.0078 0.0934
H35 H 0.2224 1.0256 0.1450
H36 H 0.1919 1.0082 0.0574
C34 C 0.1891(2) 0.85871(17) 0.01842(14)
H37 H 0.1602 0.8019 0.0161
H38 H 0.2650 0.8739 0.0136
H39 H 0.1493 0.8699 -0.0218
C35 C 0.1877(2) 0.83899(15) 0.34203(13)
H40 H 0.1242 0.8554 0.3402
H41 H 0.2371 0.8708 0.3886
C36 C 0.15244(19) 0.75133(15) 0.34174(13)
C37 C 0.20815(18) 0.72458(14) 0.39059(12)
C38 C 0.17946(18) 0.64426(14) 0.38956(13)
C39 C 0.09305(19) 0.59106(15) 0.33715(13)
H42 H 0.0734 0.5361 0.3350
C40 C 0.03368(19) 0.61484(15) 0.28740(13)
C41 C 0.06538(19) 0.69571(15) 0.29069(13)
H43 H 0.0267 0.7134 0.2573
C42 C -0.0593(2) 0.55160(15) 0.22968(13)
C43 C -0.0125(2) 0.5150(2) 0.16613(16)
H44 H 0.0269 0.5564 0.1433
H45 H -0.0707 0.4741 0.1293
H46 H 0.0364 0.4909 0.1852
C44 C -0.1221(2) 0.48565(17) 0.26423(16)
H47 H -0.1850 0.4487 0.2285
H48 H -0.1453 0.5093 0.3084
H49 H -0.0760 0.4570 0.2778
C45 C -0.1369(2) 0.58787(17) 0.19925(16)
H50 H -0.0987 0.6282 0.1748
H51 H -0.1656 0.6125 0.2398
H52 H -0.1958 0.5462 0.1636
C46 C 0.24041(19) 0.61686(15) 0.44492(13)
H53 H 0.3174 0.6500 0.4541
H54 H 0.2137 0.6248 0.4922
C47 C 0.22849(18) 0.53109(14) 0.41856(12)
C48 C 0.29856(18) 0.50994(14) 0.37464(12)
C49 C 0.28142(18) 0.43067(14) 0.34241(12)
C50 C 0.19378(18) 0.37215(14) 0.35609(13)
H55 H 0.1811 0.3180 0.3336
C51 C 0.12442(18) 0.39084(15) 0.40176(13)
C52 C 0.14389(18) 0.47109(15) 0.43213(13)
H56 H 0.0975 0.4852 0.4632
C53 C 0.35769(19) 0.40756(14) 0.29548(12)
H57 H 0.3365 0.3490 0.2826
H58 H 0.4307 0.4299 0.3251
C54 C 0.0284(2) 0.32762(16) 0.41780(15)
C55 C 0.0258(3) 0.24388(18) 0.38624(19)
H59 H 0.0180 0.2333 0.3324
H60 H -0.0349 0.2058 0.3997
H61 H 0.0927 0.2386 0.4062
C56 C -0.0746(2) 0.3362(2) 0.38345(18)
H62 H -0.0771 0.3288 0.3301
H63 H -0.0753 0.3892 0.4053
H64 H -0.1370 0.2960 0.3930
C57 C 0.0313(2) 0.34027(18) 0.50139(15)
H65 H -0.0323 0.3012 0.5110
H66 H 0.0324 0.3939 0.5226
H67 H 0.0959 0.3337 0.5239
C58 C 0.61247(18) 0.50846(15) 0.28880(13)
H68 H 0.6573 0.5123 0.2498
H69 H 0.5812 0.4521 0.2899
C59 C 0.6780(2) 0.55821(16) 0.36258(13)
H70 H 0.7348 0.5377 0.3768
H71 H 0.7124 0.6139 0.3602
C60 C 0.6497(2) 0.61876(16) 0.47846(13)
H72 H 0.6755 0.6695 0.4639
H73 H 0.7105 0.6134 0.5085
C61 C 0.56063(19) 0.61721(14) 0.52191(12)
H74 H 0.4958 0.6148 0.4901
H75 H 0.5422 0.5707 0.5433
C62 C 0.53074(19) 0.71059(14) 0.62007(12)
C63 C 0.56862(19) 0.78617(13) 0.66603(12)
C64 C 0.49996(19) 0.81220(14) 0.70962(12)
C65 C 0.5318(2) 0.89113(14) 0.75551(13)
H76 H 0.6019 0.9275 0.7583
C66 C 0.4625(2) 0.91472(15) 0.79524(14)
H77 H 0.4849 0.9675 0.8250
C67 C 0.3582(2) 0.86225(16) 0.79297(14)
H78 H 0.3111 0.8794 0.8213
C68 C 0.3253(2) 0.78675(16) 0.74987(13)
H79 H 0.2550 0.7515 0.7487
C69 C 0.39368(19) 0.75972(14) 0.70669(12)
C70 C 0.35973(19) 0.68212(14) 0.65979(13)
H80 H 0.2898 0.6461 0.6582
C71 C 0.42579(19) 0.65819(14) 0.61680(12)
H81 H 0.4012 0.6064 0.5848
C72 C 0.68173(19) 0.83889(14) 0.66965(13)
C73 C 0.7104(2) 0.87780(15) 0.61573(14)
C74 C 0.8184(2) 0.92524(17) 0.61778(15)
H82 H 0.8365 0.9515 0.5798
C75 C 0.8959(2) 0.93324(17) 0.67371(16)
H83 H 0.9679 0.9650 0.6742
C76 C 0.8712(2) 0.89483(16) 0.73172(15)
C77 C 0.9508(2) 0.90264(18) 0.79051(17)
H84 H 1.0233 0.9339 0.7917
C78 C 0.9247(2) 0.86568(18) 0.84565(17)
H85 H 0.9790 0.8712 0.8848
C79 C 0.8173(2) 0.81922(16) 0.84473(15)
H86 H 0.7994 0.7941 0.8835
C80 C 0.7387(2) 0.81023(15) 0.78817(14)
H87 H 0.6667 0.7788 0.7882
C81 C 0.76298(19) 0.84701(14) 0.72954(13)
C82 C 0.6236(2) 0.93963(17) 0.53985(16)
H88 H 0.6045 0.9301 0.4858
H89 H 0.6942 0.9828 0.5561
C83 C 0.5406(2) 0.96589(17) 0.57661(16)
H90 H 0.5459 0.9594 0.6276
H91 H 0.5565 1.0230 0.5795
C84 C 0.3837(2) 0.85248(15) 0.56097(14)
H92 H 0.3730 0.8665 0.6127
H93 H 0.4292 0.8192 0.5580
C85 C 0.2788(2) 0.80802(16) 0.51195(13)
H94 H 0.2377 0.7628 0.5307
H95 H 0.2364 0.8431 0.5103
O1 O 0.52966(13) 0.54009(9) 0.27565(8)
O2 O 0.60782(13) 0.55422(10) 0.41504(9)
O3 O 0.60114(13) 0.68961(10) 0.57899(9)
O4 O 0.63214(15) 0.86758(10) 0.55677(9)
O5 O 0.43438(16) 0.92232(11) 0.53844(11)
O6 O 0.29877(13) 0.77953(10) 0.43915(9)
O7 O 0.58071(14) 0.73680(10) 0.24347(9)
O8 O 0.53149(15) 0.75201(11) 0.42722(10)
H96 H 0.5705 0.7811 0.4672
O9 O 0.66960(18) 0.81645(17) 0.38003(12)
O10 O 0.40484(13) 0.84004(10) 0.33082(9)
H97 H 0.3689 0.8338 0.3648
O11 O 0.38293(12) 0.57081(10) 0.36482(9)
H98 H 0.4198 0.5523 0.3376
C86 C 0.7605(4) 0.0316(3) 0.3259(3)
H99 H 0.8153 0.0438 0.3693
H100 H 0.6927 -0.0052 0.3327
H101 H 0.7508 0.0807 0.3198
O12 O 0.7947(2) -0.00496(16) 0.26017(17)
H102 H 0.7950 -0.0499 0.2629
C87 C 0.7559(3) 0.9191(3) 0.0812(2)
H103 H 0.8343 0.9381 0.0876
H104 H 0.7258 0.9011 0.0284
H105 H 0.7308 0.8748 0.1043
O13 O 0.7228(3) 0.98042(19) 0.11409(19)
H106 H 0.7379 0.9897 0.1601
C88 C 0.8261(3) 0.8004(2) 0.2247(3)
H107 H 0.8923 0.8271 0.2079
H108 H 0.7662 0.7798 0.1833
H109 H 0.8337 0.7564 0.2438
O14 O 0.8061(2) 0.85488(15) 0.28088(15)
H110 H 0.7467 0.8331 0.2928
C89 C 0.1874(8) 0.6697(6) 0.1143(7)
H111 H 0.2488 0.7062 0.0999
H112 H 0.1697 0.6160 0.0831
H113 H 0.2054 0.6697 0.1660
O15 O 0.1057(6) 0.6923(5) 0.1063(3)
H114 H 0.1218 0.7391 0.1316
C90 C 0.9588(11) 0.8638(7) 0.4531(8)
H115 H 1.0263 0.8803 0.4874
H116 H 0.9476 0.8128 0.4188
H117 H 0.8994 0.8582 0.4809
O16 O 0.9629(6) 0.9198(5) 0.4143(4)
H118 H 0.9791 0.9645 0.4438
C91? C 0.505(3) 0.0104(11) 0.0077(12)
H119? H 0.5264 0.0623 0.0429
H120? H 0.4295 -0.0052 -0.0152
H121? H 0.5498 0.0134 -0.0304
O17? O 0.5158(3) -0.0462(2) 0.0448(2)
H122? H 0.5807 -0.0345 0.0619
O18? O 1.0855(6) 0.9521(6) 0.5040(5)
H123? H 1.0682 0.9904 0.5242
C92? C 0.9948(16) 0.8899(11) 0.4648(13)
H124? H 0.9479 0.8705 0.4990
H125? H 1.0158 0.8469 0.4383
H126? H 0.9566 0.9084 0.4295
C93? C 0.9169(19) 0.8054(12) 0.4176(13)
H127? H 0.9808 0.8040 0.4463
H128? H 0.8833 0.7556 0.3795
H129? H 0.8660 0.8124 0.4504
O19? O 0.9459(14) 0.8681(10) 0.3846(10)
H130? H 1.0112 0.8951 0.3996
C94? C 0.2534(8) 0.6185(7) 0.1957(6)
H131? H 0.3005 0.6564 0.2401
H132? H 0.2874 0.5808 0.1751
H133? H 0.1849 0.5896 0.2085
O20? O 0.2361(10) 0.6582(7) 0.1450(7)
H134? H 0.1859 0.6749 0.1535
C95? C 0.1187(17) 0.6960(13) 0.1271(9)
H135? H 0.0884 0.6616 0.1589
H136? H 0.0620 0.7098 0.1025
H137? H 0.1749 0.7446 0.1570
O21? O 0.1601(10) 0.6584(8) 0.0769(7)
H138? H 0.1113 0.6198 0.0478
loop_
_geom_bond_atom_site_label_1
_geom_bond_atom_site_label_2
_geom_bond_site_symmetry_1
_geom_bond_site_symmetry_2
C1 C2 1_555 1_555
C2 C3 1_555 1_555
C3 H1 1_555 1_555
C4 C3 1_555 1_555
C5 C4 1_555 1_555
H2 C5 1_555 1_555
C6 C1 1_555 1_555
C7 C4 1_555 1_555
C8 C7 1_555 1_555
H3 C8 1_555 1_555
H4 C8 1_555 1_555
H5 C8 1_555 1_555
C9 C7 1_555 1_555
H6 C9 1_555 1_555
H7 C9 1_555 1_555
H8 C9 1_555 1_555
C10 C7 1_555 1_555
H9 C10 1_555 1_555
H10 C10 1_555 1_555
H11 C10 1_555 1_555
C11 C2 1_555 1_555
H12 C11 1_555 1_555
H13 C11 1_555 1_555
C12 C11 1_555 1_555
C13 C12 1_555 1_555
C14 C13 1_555 1_555
C15 C14 1_555 1_555
H14 C15 1_555 1_555
C16 C15 1_555 1_555
C17 C12 1_555 1_555
H15 C17 1_555 1_555
C18 C16 1_555 1_555
C19 C18 1_555 1_555
H16 C19 1_555 1_555
H17 C19 1_555 1_555
H18 C19 1_555 1_555
C20 C18 1_555 1_555
H19 C20 1_555 1_555
H20 C20 1_555 1_555
H21 C20 1_555 1_555
C21 C18 1_555 1_555
H22 C21 1_555 1_555
H23 C21 1_555 1_555
H24 C21 1_555 1_555
C22 H25 1_555 1_555
H26 C22 1_555 1_555
C23 C22 1_555 1_555
C24 C14 1_555 1_555
H27 C24 1_555 1_555
H28 C24 1_555 1_555
C25 C24 1_555 1_555
C26 C25 1_555 1_555
C27 C26 1_555 1_555
C28 C27 1_555 1_555
H29 C28 1_555 1_555
C29 C28 1_555 1_555
C30 C25 1_555 1_555
H30 C30 1_555 1_555
C31 C29 1_555 1_555
C32 C31 1_555 1_555
H31 C32 1_555 1_555
H32 C32 1_555 1_555
H33 C32 1_555 1_555
C33 C31 1_555 1_555
H34 C33 1_555 1_555
H35 C33 1_555 1_555
H36 C33 1_555 1_555
C34 C31 1_555 1_555
H37 C34 1_555 1_555
H38 C34 1_555 1_555
H39 C34 1_555 1_555
C35 C27 1_555 1_555
H40 C35 1_555 1_555
H41 C35 1_555 1_555
C36 C35 1_555 1_555
C37 C36 1_555 1_555
C38 C37 1_555 1_555
C39 C38 1_555 1_555
H42 C39 1_555 1_555
C40 C39 1_555 1_555
C41 C36 1_555 1_555
H43 C41 1_555 1_555
C42 C40 1_555 1_555
C43 C42 1_555 1_555
H44 C43 1_555 1_555
H45 C43 1_555 1_555
H46 C43 1_555 1_555
C44 C42 1_555 1_555
H47 C44 1_555 1_555
H48 C44 1_555 1_555
H49 C44 1_555 1_555
C45 C42 1_555 1_555
H50 C45 1_555 1_555
H51 C45 1_555 1_555
H52 C45 1_555 1_555
C46 C38 1_555 1_555
H53 C46 1_555 1_555
H54 C46 1_555 1_555
C47 C46 1_555 1_555
C48 C47 1_555 1_555
C49 C48 1_555 1_555
C50 C49 1_555 1_555
H55 C50 1_555 1_555
C51 C50 1_555 1_555
C52 C47 1_555 1_555
H56 C52 1_555 1_555
C53 C6 1_555 1_555
H57 C53 1_555 1_555
H58 C53 1_555 1_555
C54 C51 1_555 1_555
C55 C54 1_555 1_555
H59 C55 1_555 1_555
H60 C55 1_555 1_555
H61 C55 1_555 1_555
C56 C54 1_555 1_555
H62 C56 1_555 1_555
H63 C56 1_555 1_555
H64 C56 1_555 1_555
C57 C54 1_555 1_555
H65 C57 1_555 1_555
H66 C57 1_555 1_555
H67 C57 1_555 1_555
C58 H68 1_555 1_555
H69 C58 1_555 1_555
C59 C58 1_555 1_555
H70 C59 1_555 1_555
H71 C59 1_555 1_555
C60 H72 1_555 1_555
H73 C60 1_555 1_555
C61 C60 1_555 1_555
H74 C61 1_555 1_555
H75 C61 1_555 1_555
C62 C63 1_555 1_555
C63 C64 1_555 1_555
C64 C65 1_555 1_555
C65 H76 1_555 1_555
C66 C65 1_555 1_555
H77 C66 1_555 1_555
C67 C66 1_555 1_555
H78 C67 1_555 1_555
C68 C67 1_555 1_555
H79 C68 1_555 1_555
C69 C64 1_555 1_555
C70 C69 1_555 1_555
H80 C70 1_555 1_555
C71 C62 1_555 1_555
H81 C71 1_555 1_555
C72 C63 1_555 1_555
C73 C72 1_555 1_555
C74 C73 1_555 1_555
H82 C74 1_555 1_555
C75 C74 1_555 1_555
H83 C75 1_555 1_555
C76 C75 1_555 1_555
C77 C76 1_555 1_555
H84 C77 1_555 1_555
C78 C77 1_555 1_555
H85 C78 1_555 1_555
C79 C78 1_555 1_555
H86 C79 1_555 1_555
C80 C79 1_555 1_555
H87 C80 1_555 1_555
C81 C72 1_555 1_555
C82 H88 1_555 1_555
H89 C82 1_555 1_555
C83 C82 1_555 1_555
H90 C83 1_555 1_555
H91 C83 1_555 1_555
C84 H92 1_555 1_555
H93 C84 1_555 1_555
C85 C84 1_555 1_555
H94 C85 1_555 1_555
H95 C85 1_555 1_555
O1 C1 1_555 1_555
O2 C59 1_555 1_555
O3 C61 1_555 1_555
O4 C73 1_555 1_555
O5 C83 1_555 1_555
O6 C37 1_555 1_555
O7 C13 1_555 1_555
O8 C23 1_555 1_555
H96 O8 1_555 1_555
O9 C23 1_555 1_555
O10 C26 1_555 1_555
H97 O10 1_555 1_555
O11 C48 1_555 1_555
H98 O11 1_555 1_555
C86 H99 1_555 1_555
H100 C86 1_555 1_555
H101 C86 1_555 1_555
O12 C86 1_555 1_555
H102 O12 1_555 1_555
C87 H103 1_555 1_555
H104 C87 1_555 1_555
H105 C87 1_555 1_555
O13 C87 1_555 1_555
H106 O13 1_555 1_555
C88 H107 1_555 1_555
H108 C88 1_555 1_555
H109 C88 1_555 1_555
O14 C88 1_555 1_555
H110 O14 1_555 1_555
C89 H111 1_555 1_555
H112 C89 1_555 1_555
H113 C89 1_555 1_555
O15 C89 1_555 1_555
H114 O15 1_555 1_555
C90 H115 1_555 1_555
H116 C90 1_555 1_555
H117 C90 1_555 1_555
O16 C90 1_555 1_555
H118 O16 1_555 1_555
C5 C6 1_555 1_555
C16 C17 1_555 1_555
C22 O7 1_555 1_555
C29 C30 1_555 1_555
C40 C41 1_555 1_555
C49 C53 1_555 1_555
C51 C52 1_555 1_555
C58 O1 1_555 1_555
C60 O2 1_555 1_555
C62 O3 1_555 1_555
C68 C69 1_555 1_555
C70 C71 1_555 1_555
C76 C81 1_555 1_555
C80 C81 1_555 1_555
C82 O4 1_555 1_555
C84 O5 1_555 1_555
C85 O6 1_555 1_555

#END
