
#######################################################################
#
#                 Cambridge Crystallographic Data Centre
#                                CCDC 
#
#######################################################################
#
# If this CIF has been generated from an entry in the Cambridge 
# Structural Database, then it will include bibliographic, chemical, 
# crystal, experimental, refinement or atomic coordinate data resulting 
# from the CCDC's data processing and validation procedures.
#
#######################################################################

data_NOZBUZ
_chemical_formula_moiety         'C16 H22 N2 O6 S1'
_chemical_name_systematic        
2,3-Aziridino-2,3-dideoxy-5,6-O-isopropylidene-N-tosyl-D-gluconamide
_symmetry_cell_setting           orthorhombic
_symmetry_space_group_name_H-M   'P 21 21 21'
_symmetry_Int_Tables_number      19
_space_group_name_Hall           'P 2ac 2ab'
loop_
_symmetry_equiv_pos_site_id
_symmetry_equiv_pos_as_xyz
1 x,y,z
2 1/2-x,-y,1/2+z
3 1/2+x,1/2-y,-z
4 -x,1/2+y,1/2-z
_cell_length_a                   6.760(4)
_cell_length_b                   12.248(4)
_cell_length_c                   21.732(4)
_cell_angle_alpha                90
_cell_angle_beta                 90
_cell_angle_gamma                90
_cell_volume                     1799.33
_chemical_melting_point          157-158deg.C
_cell_formula_units_Z            4
loop_
_atom_site_label
_atom_site_type_symbol
_atom_site_fract_x
_atom_site_fract_y
_atom_site_fract_z
N1 N 0.5522(7) 0.4895(4) 0.2919(3)
O1 O 0.2709(6) 0.5838(3) 0.2713(2)
C1 C 0.3656(8) 0.4976(4) 0.2735(3)
C2 C 0.2686(7) 0.3913(4) 0.2575(3)
C3 C 0.0499(8) 0.3811(4) 0.2666(3)
C4 C -0.0391(7) 0.2771(4) 0.2912(3)
O2 O -0.2490(5) 0.2795(3) 0.2792(2)
C5 C -0.0101(8) 0.2682(4) 0.3594(3)
O3 O 0.1922(5) 0.2834(3) 0.3760(2)
C6 C -0.0620(9) 0.1544(4) 0.3854(3)
O4 O 0.0937(5) 0.1337(3) 0.4287(2)
C7 C 0.2650(8) 0.1853(4) 0.4043(3)
C8 C 0.3649(10) 0.1134(5) 0.3566(3)
C9 C 0.3990(9) 0.2194(6) 0.4566(3)
N2 N 0.1332(7) 0.3952(3) 0.2036(2)
S1 S 0.1376(2) 0.28920(9) 0.15557(7)
O5 O -0.0613(6) 0.2744(3) 0.1349(2)
O6 O 0.2398(6) 0.1975(3) 0.1824(2)
C10 C 0.2837(9) 0.3391(4) 0.0956(3)
C11 C 0.4816(9) 0.3056(5) 0.0905(3)
C12 C 0.5929(10) 0.3430(5) 0.0413(3)
C13 C 0.5155(10) 0.4132(4) -0.0020(3)
C14 C 0.3165(11) 0.4456(4) 0.0037(3)
C15 C 0.2009(10) 0.4088(5) 0.0524(3)
C16 C 0.6445(16) 0.4549(6) -0.0538(4)
H1 H 0.3512(98) 0.3218(50) 0.2641(30)
H2 H -0.0164(99) 0.4470(54) 0.2815(29)
H3 H 0.0190(85) 0.2139(48) 0.2684(26)
H4 H -0.0865(88) 0.3312(46) 0.3836(26)
H5 H -0.0715(74) 0.0952(43) 0.3486(25)
H6 H -0.173(10) 0.1553(49) 0.4073(30)
H7 H 0.273(14) 0.0907(64) 0.3195(39)
H8 H 0.4689(97) 0.1511(52) 0.3353(30)
H9 H 0.4089(89) 0.0553(50) 0.3830(28)
H10 H 0.5024(90) 0.2660(48) 0.4402(27)
H11 H 0.323(12) 0.2653(68) 0.4842(37)
H12 H 0.449(11) 0.1563(60) 0.4792(32)
H13 H 0.531(11) 0.2592(63) 0.1214(35)
H14 H 0.744(13) 0.3124(61) 0.0364(35)
H15 H 0.272(12) 0.4963(63) -0.0250(34)
H16 H 0.059(10) 0.4320(54) 0.0584(32)
H17 H 0.733(18) 0.3893(82) -0.0751(48)
H18 H 0.545(14) 0.4713(73) -0.0809(44)
H19 H 0.686(16) 0.5199(90) -0.0393(45)
H20 H 0.615(11) 0.4256(60) 0.2901(31)
H21 H 0.618(11) 0.5508(60) 0.3038(33)
H22 H -0.268(15) 0.2214(78) 0.2551(50)
loop_
_geom_bond_atom_site_label_1
_geom_bond_atom_site_label_2
_geom_bond_site_symmetry_1
_geom_bond_site_symmetry_2
N1 C1 1_555 1_555
O1 C1 1_555 1_555
C1 C2 1_555 1_555
C2 C3 1_555 1_555
C3 C4 1_555 1_555
C4 O2 1_555 1_555
O2 H22 1_555 1_555
C5 C4 1_555 1_555
O3 C5 1_555 1_555
C6 C5 1_555 1_555
O4 C6 1_555 1_555
C7 O3 1_555 1_555
C8 C7 1_555 1_555
C9 C7 1_555 1_555
N2 C2 1_555 1_555
S1 N2 1_555 1_555
O5 S1 1_555 1_555
O6 S1 1_555 1_555
C10 S1 1_555 1_555
C11 C10 1_555 1_555
C12 C11 1_555 1_555
C13 C12 1_555 1_555
C14 C13 1_555 1_555
C15 C10 1_555 1_555
C16 C13 1_555 1_555
H1 C2 1_555 1_555
H2 C3 1_555 1_555
H3 C4 1_555 1_555
H4 C5 1_555 1_555
H5 C6 1_555 1_555
H6 C6 1_555 1_555
H7 C8 1_555 1_555
H8 C8 1_555 1_555
H9 C8 1_555 1_555
H10 C9 1_555 1_555
H11 C9 1_555 1_555
H12 C9 1_555 1_555
H13 C11 1_555 1_555
H14 C12 1_555 1_555
H15 C14 1_555 1_555
H16 C15 1_555 1_555
H17 C16 1_555 1_555
H18 C16 1_555 1_555
H19 C16 1_555 1_555
H20 N1 1_555 1_555
H21 N1 1_555 1_555
C3 N2 1_555 1_555
O4 C7 1_555 1_555
C14 C15 1_555 1_555

#END
