
#######################################################################
#
#                 Cambridge Crystallographic Data Centre
#                                CCDC 
#
#######################################################################
#
# If this CIF has been generated from an entry in the Cambridge 
# Structural Database, then it will include bibliographic, chemical, 
# crystal, experimental, refinement or atomic coordinate data resulting 
# from the CCDC's data processing and validation procedures.
#
#######################################################################

data_NOZSUQ
_chemical_formula_moiety         'C20 H20 Br2 N2 O4'
_chemical_name_systematic        
5,5'-Dibromo-2,2'-dihydroxy-3,3'-(piperazine-1,4-diyldimethylene)dibenzaldehyde
_symmetry_cell_setting           monoclinic
_symmetry_space_group_name_H-M   'P 21/c'
_symmetry_Int_Tables_number      14
_space_group_name_Hall           '-P 2ybc'
loop_
_symmetry_equiv_pos_site_id
_symmetry_equiv_pos_as_xyz
1 x,y,z
2 -x,1/2+y,1/2-z
3 -x,-y,-z
4 x,1/2-y,1/2+z
_cell_length_a                   8.825(2)
_cell_length_b                   16.518(2)
_cell_length_c                   7.368(2)
_cell_angle_alpha                90
_cell_angle_beta                 111.39(2)
_cell_angle_gamma                90
_cell_volume                     1000.06
_exptl_crystal_colour            yellow
_exptl_crystal_description       'rectangular block'
_chemical_melting_point          '438 K'
_cell_formula_units_Z            2
_exptl_crystal_recrystallization_method ethanol
loop_
_atom_site_label
_atom_site_type_symbol
_atom_site_fract_x
_atom_site_fract_y
_atom_site_fract_z
Br1 Br 0.34855(4) 0.19202(2) 0.05819(5)
N1 N -0.3465(3) 0.03300(15) -0.4854(4)
O1 O -0.1376(3) 0.40214(14) -0.3496(4)
O2 O -0.3255(2) 0.18691(15) -0.5518(3)
C1 C 0.1347(3) 0.1897(2) -0.1312(5)
C2 C 0.0541(4) 0.2603(2) -0.1952(5)
C3 C -0.1033(3) 0.2597(2) -0.3340(4)
C4 C -0.1759(3) 0.1854(2) -0.4100(4)
C5 C -0.0941(3) 0.1130(2) -0.3419(4)
C6 C 0.0607(3) 0.1157(2) -0.2015(5)
C7 C -0.1916(4) 0.3360(2) -0.3993(5)
C8 C -0.1685(4) 0.0332(2) -0.4306(6)
C9 C -0.3949(4) 0.0270(2) -0.3167(5)
C10 C -0.4241(4) -0.0322(2) -0.6242(6)
H1 H 0.0978(40) 0.3085(18) -0.1470(50)
H2 H 0.1005(34) 0.0717(18) -0.1531(43)
H3 H -0.2790(49) 0.3319(24) -0.4757(61)
H4 H -0.1225(36) -0.0021(20) -0.3461(45)
H5 H -0.1489(38) 0.0236(22) -0.5557(49)
H6 H -0.3414(39) 0.0698(21) -0.2304(48)
H7 H -0.3572(35) -0.0254(21) -0.2484(44)
H8 H -0.3976(45) -0.0218(24) -0.7312(55)
H9 H -0.3810(34) -0.0803(21) -0.5631(41)
H10 H -0.3579(35) 0.1422(23) -0.5635(46)
C10B C -0.5759(4) 0.0322(2) -0.3758(6)
N1B N -0.6535(3) -0.03300(15) -0.5146(4)
C8B C -0.8315(4) -0.0332(2) -0.5694(6)
C5B C -0.9059(3) -0.1130(2) -0.6581(4)
C4B C -0.8241(3) -0.1854(2) -0.5900(4)
O2B O -0.6745(2) -0.18691(15) -0.4482(3)
H10B H -0.6421(35) -0.1422(23) -0.4365(46)
C3B C -0.8967(3) -0.2597(2) -0.6660(4)
C2B C -1.0541(4) -0.2603(2) -0.8048(5)
C1B C -1.1347(3) -0.1897(2) -0.8688(5)
Br1B Br -1.34855(4) -0.19202(2) -1.05819(5)
C6B C -1.0607(3) -0.1157(2) -0.7985(5)
H2B H -1.1005(34) -0.0717(18) -0.8469(43)
H1B H -1.0978(40) -0.3085(18) -0.8530(50)
C7B C -0.8084(4) -0.3360(2) -0.6007(5)
O1B O -0.8624(3) -0.40214(14) -0.6504(4)
H3B H -0.7210(49) -0.3319(24) -0.5243(61)
H4B H -0.8775(36) 0.0021(20) -0.6539(45)
H5B H -0.8511(38) -0.0236(22) -0.4443(49)
C9B C -0.6051(4) -0.0270(2) -0.6833(5)
H6B H -0.6586(39) -0.0698(21) -0.7696(48)
H7B H -0.6428(35) 0.0254(21) -0.7516(44)
H8B H -0.6024(45) 0.0218(24) -0.2688(55)
H9B H -0.6190(34) 0.0803(21) -0.4369(41)
loop_
_geom_bond_atom_site_label_1
_geom_bond_atom_site_label_2
_geom_bond_site_symmetry_1
_geom_bond_site_symmetry_2
Br1 C1 1_555 1_555
N1 C8 1_555 1_555
O1 C7 1_555 1_555
O2 C4 1_555 1_555
C1 C2 1_555 1_555
C2 C3 1_555 1_555
C3 C4 1_555 1_555
C4 C5 1_555 1_555
C5 C6 1_555 1_555
C6 C1 1_555 1_555
C7 C3 1_555 1_555
C8 C5 1_555 1_555
C9 N1 1_555 1_555
C10 N1 1_555 1_555
H1 C2 1_555 1_555
H2 C6 1_555 1_555
H3 C7 1_555 1_555
H4 C8 1_555 1_555
H5 C8 1_555 1_555
H6 C9 1_555 1_555
H7 C9 1_555 1_555
H8 C10 1_555 1_555
H9 C10 1_555 1_555
H10 O2 1_555 1_555
C10B C9 1_555 1_555
N1B C10B 1_555 1_555
C8B N1B 1_555 1_555
C5B C8B 1_555 1_555
C4B C5B 1_555 1_555
O2B C4B 1_555 1_555
H10B O2B 1_555 1_555
C3B C4B 1_555 1_555
C2B C3B 1_555 1_555
C1B C2B 1_555 1_555
Br1B C1B 1_555 1_555
C6B C5B 1_555 1_555
H2B C6B 1_555 1_555
H1B C2B 1_555 1_555
C7B C3B 1_555 1_555
O1B C7B 1_555 1_555
H3B C7B 1_555 1_555
H4B C8B 1_555 1_555
H5B C8B 1_555 1_555
C9B C10 1_555 1_555
H6B C9B 1_555 1_555
H7B C9B 1_555 1_555
H8B C10B 1_555 1_555
H9B C10B 1_555 1_555
N1B C9B 1_555 1_555
C1B C6B 1_555 1_555

#END
