
#######################################################################
#
#                 Cambridge Crystallographic Data Centre
#                                CCDC 
#
#######################################################################
#
# If this CIF has been generated from an entry in the Cambridge 
# Structural Database, then it will include bibliographic, chemical, 
# crystal, experimental, refinement or atomic coordinate data resulting 
# from the CCDC's data processing and validation procedures.
#
#######################################################################

data_NUBCES
_chemical_formula_moiety         'C18 H12 Br1 N5'
_chemical_name_systematic        
4-p-Bromophenyl-3,5-bis(2-pyridyl)-4H-1,2,4-triazole
_symmetry_cell_setting           orthorhombic
_symmetry_space_group_name_H-M   'P b c a'
_symmetry_Int_Tables_number      61
_space_group_name_Hall           '-P 2ac 2ab'
loop_
_symmetry_equiv_pos_site_id
_symmetry_equiv_pos_as_xyz
1 x,y,z
2 1/2-x,-y,1/2+z
3 -x,1/2+y,1/2-z
4 1/2+x,1/2-y,-z
5 -x,-y,-z
6 1/2+x,y,1/2-z
7 x,1/2-y,1/2+z
8 1/2-x,1/2+y,z
_cell_length_a                   18.4645(9)
_cell_length_b                   8.0647(6)
_cell_length_c                   21.9392(9)
_cell_angle_alpha                90
_cell_angle_beta                 90
_cell_angle_gamma                90
_cell_volume                     3266.98
_exptl_crystal_colour            colorless
_exptl_crystal_description       needles
_cell_formula_units_Z            8
_exptl_crystal_recrystallization_method ethanol
loop_
_atom_site_label
_atom_site_type_symbol
_atom_site_fract_x
_atom_site_fract_y
_atom_site_fract_z
Br1 Br 0.82137(3) 0.21023(8) 0.62866(2)
N1 N 0.9940(2) 0.4149(5) 0.4129(2)
N2 N 0.9073(2) 0.3924(6) 0.2721(2)
N3 N 0.8493(2) 0.3425(5) 0.3577(2)
N4 N 0.8336(2) 0.4024(6) 0.2611(2)
N5 N 0.6924(2) 0.2670(5) 0.3603(2)
C1 C 1.0569(3) 0.3957(8) 0.4410(3)
C2 C 1.1128(3) 0.3004(8) 0.4180(3)
C3 C 1.1044(3) 0.2244(8) 0.3643(3)
C4 C 1.0392(3) 0.2397(7) 0.3338(3)
C5 C 0.9862(3) 0.3361(6) 0.3600(2)
C6 C 0.9153(3) 0.3570(6) 0.3290(2)
C7 C 0.8709(3) 0.1695(6) 0.4461(2)
C8 C 0.8660(3) 0.1421(7) 0.5076(2)
C9 C 0.8267(3) 0.2465(6) 0.5437(2)
C10 C 0.7916(3) 0.3812(7) 0.5180(2)
C11 C 0.7985(3) 0.4116(7) 0.4569(2)
C12 C 0.8384(2) 0.3074(6) 0.4212(2)
C13 C 0.7999(3) 0.3729(6) 0.3122(2)
C14 C 0.7205(3) 0.3668(6) 0.3178(2)
C15 C 0.6792(4) 0.4597(7) 0.2781(3)
C16 C 0.6050(4) 0.4476(9) 0.2828(3)
C17 C 0.5756(4) 0.3469(9) 0.3259(3)
C18 C 0.6199(3) 0.2580(7) 0.3635(3)
H1 H 1.0617(21) 0.4540(54) 0.4795(19)
H2 H 1.1554(34) 0.2777(75) 0.4426(28)
H3 H 1.1370(27) 0.1532(65) 0.3483(21)
H4 H 1.0300(25) 0.1963(58) 0.2981(19)
H5 H 0.8940(21) 0.0994(53) 0.4226(17)
H6 H 0.8859(23) 0.0515(57) 0.5266(18)
H7 H 0.7655(24) 0.4498(56) 0.5430(18)
H8 H 0.7806(22) 0.4961(51) 0.4425(17)
H9 H 0.6998(24) 0.5234(56) 0.2535(20)
H10 H 0.5789(25) 0.5013(58) 0.2578(20)
H11 H 0.5313(26) 0.3376(55) 0.3265(18)
H12 H 0.6015(26) 0.1844(61) 0.3995(22)
loop_
_geom_bond_atom_site_label_1
_geom_bond_atom_site_label_2
_geom_bond_site_symmetry_1
_geom_bond_site_symmetry_2
Br1 C9 1_555 1_555
N1 C1 1_555 1_555
N2 N4 1_555 1_555
N3 C6 1_555 1_555
N4 C13 1_555 1_555
N5 C14 1_555 1_555
C1 C2 1_555 1_555
C2 C3 1_555 1_555
C3 C4 1_555 1_555
C4 C5 1_555 1_555
C5 N1 1_555 1_555
C6 N2 1_555 1_555
C7 C8 1_555 1_555
C8 C9 1_555 1_555
C9 C10 1_555 1_555
C10 C11 1_555 1_555
C11 C12 1_555 1_555
C12 N3 1_555 1_555
C13 N3 1_555 1_555
C14 C13 1_555 1_555
C15 C14 1_555 1_555
C16 C15 1_555 1_555
C17 C16 1_555 1_555
C18 N5 1_555 1_555
H1 C1 1_555 1_555
H2 C2 1_555 1_555
H3 C3 1_555 1_555
H4 C4 1_555 1_555
H5 C7 1_555 1_555
H6 C8 1_555 1_555
H7 C10 1_555 1_555
H8 C11 1_555 1_555
H9 C15 1_555 1_555
H10 C16 1_555 1_555
H11 C17 1_555 1_555
H12 C18 1_555 1_555
C5 C6 1_555 1_555
C7 C12 1_555 1_555
C17 C18 1_555 1_555

#END
