
#######################################################################
#
#                 Cambridge Crystallographic Data Centre
#                                CCDC 
#
#######################################################################
#
# If this CIF has been generated from an entry in the Cambridge 
# Structural Database, then it will include bibliographic, chemical, 
# crystal, experimental, refinement or atomic coordinate data resulting 
# from the CCDC's data processing and validation procedures.
#
#######################################################################

data_NUBFOF
_chemical_formula_moiety         'C22 H25 N1 O3'
_chemical_name_systematic        
'Ethyl 3,5-dimethyl-4-oxo-cis-2,6-diphenylpiperidine-1-carboxylate'
_symmetry_cell_setting           monoclinic
_symmetry_space_group_name_H-M   'P 21/n'
_symmetry_Int_Tables_number      14
_space_group_name_Hall           '-P 2yn'
loop_
_symmetry_equiv_pos_site_id
_symmetry_equiv_pos_as_xyz
1 x,y,z
2 1/2-x,1/2+y,1/2-z
3 -x,-y,-z
4 1/2+x,1/2-y,1/2+z
_cell_length_a                   10.404(2)
_cell_length_b                   9.743(2)
_cell_length_c                   19.096(3)
_cell_angle_alpha                90
_cell_angle_beta                 95.70(2)
_cell_angle_gamma                90
_cell_volume                     1926.12
_exptl_crystal_colour            colorless
_exptl_crystal_description       'thick plate'
_chemical_melting_point          67deg.C
_cell_formula_units_Z            4
loop_
_atom_site_label
_atom_site_type_symbol
_atom_site_fract_x
_atom_site_fract_y
_atom_site_fract_z
N1 N 0.7325(2) 0.3027(2) 0.59282(9)
C1 C 0.7062(2) 0.3038(2) 0.66789(10)
H1 H 0.7121(2) 0.2090(2) 0.68499(10)
C2 C 0.8085(2) 0.3888(2) 0.71297(10)
H2 H 0.7950(2) 0.4852(2) 0.69964(10)
C3 C 0.9450(2) 0.3515(3) 0.69875(12)
C4 C 0.9658(2) 0.3088(2) 0.62480(12)
H3 H 1.0464(2) 0.3501(2) 0.61256(12)
C5 C 0.8557(2) 0.3591(2) 0.57223(11)
H4 H 0.8692(2) 0.3177(2) 0.52676(11)
C6 C 0.8470(2) 0.5143(2) 0.56030(11)
C7 C 0.9389(2) 0.6059(3) 0.58980(12)
H5 H 1.0099(2) 0.5730(3) 0.61829(12)
C8 C 0.9264(3) 0.7460(3) 0.57743(15)
H6 H 0.9889(3) 0.8058(3) 0.59791(15)
C9 C 0.8237(3) 0.7968(3) 0.53566(15)
H7 H 0.8150(3) 0.8909(3) 0.52836(15)
C10 C 0.7329(3) 0.7077(3) 0.5044(2)
H8 H 0.6634(3) 0.7412(3) 0.4749(2)
C11 C 0.7450(3) 0.5679(3) 0.51681(13)
H9 H 0.6830(3) 0.5087(3) 0.49537(13)
C12 C 0.5712(2) 0.3554(2) 0.67672(10)
C13 C 0.4846(2) 0.2737(3) 0.70866(13)
H10 H 0.5086(2) 0.1854(3) 0.72305(13)
C14 C 0.3631(3) 0.3217(4) 0.7194(2)
H11 H 0.3062(3) 0.2652(4) 0.7406(2)
C15 C 0.3260(3) 0.4505(4) 0.6993(2)
H12 H 0.2446(3) 0.4827(4) 0.7072(2)
C16 C 0.4093(3) 0.5327(3) 0.6672(2)
H13 H 0.3838(3) 0.6207(3) 0.6529(2)
C17 C 0.5324(2) 0.4855(3) 0.65557(13)
H14 H 0.5881(2) 0.5420(3) 0.63356(13)
C18 C 0.6602(2) 0.2099(2) 0.55217(11)
O1 O 0.5783(2) 0.1383(2) 0.57364(8)
O2 O 0.6921(2) 0.2078(2) 0.48566(8)
C19 C 0.6220(3) 0.1096(3) 0.43870(14)
H15 H 0.5464(3) 0.1529(3) 0.41431(14)
H16 H 0.5937(3) 0.0327(3) 0.46551(14)
C20 C 0.7082(3) 0.0618(3) 0.38795(13)
H17 H 0.6631(7) -0.0021(16) 0.3561(7)
H18 H 0.7818(10) 0.0173(19) 0.4124(2)
H19 H 0.7365(15) 0.1386(4) 0.3620(7)
C21 C 0.7903(3) 0.3772(3) 0.79114(12)
H20 H 0.7061(7) 0.4104(18) 0.7991(2)
H21 H 0.8549(11) 0.4309(16) 0.81800(14)
H22 H 0.7983(18) 0.2828(4) 0.8054(3)
C22 C 0.9803(3) 0.1523(3) 0.6233(2)
H23 H 0.9985(21) 0.1239(4) 0.5771(4)
H24 H 0.9015(8) 0.1101(3) 0.6345(11)
H25 H 1.0499(14) 0.1249(3) 0.6571(8)
O3 O 1.0337(2) 0.3558(3) 0.74452(11)
loop_
_geom_bond_atom_site_label_1
_geom_bond_atom_site_label_2
_geom_bond_site_symmetry_1
_geom_bond_site_symmetry_2
N1 C1 1_555 1_555
C1 H1 1_555 1_555
C2 C1 1_555 1_555
H2 C2 1_555 1_555
C3 C2 1_555 1_555
C4 C3 1_555 1_555
H3 C4 1_555 1_555
C5 N1 1_555 1_555
H4 C5 1_555 1_555
C6 C5 1_555 1_555
C7 C6 1_555 1_555
H5 C7 1_555 1_555
C8 C7 1_555 1_555
H6 C8 1_555 1_555
C9 C8 1_555 1_555
H7 C9 1_555 1_555
C10 C9 1_555 1_555
H8 C10 1_555 1_555
C11 C6 1_555 1_555
H9 C11 1_555 1_555
C12 C1 1_555 1_555
C13 C12 1_555 1_555
H10 C13 1_555 1_555
C14 C13 1_555 1_555
H11 C14 1_555 1_555
C15 C14 1_555 1_555
H12 C15 1_555 1_555
C16 C15 1_555 1_555
H13 C16 1_555 1_555
C17 C12 1_555 1_555
H14 C17 1_555 1_555
C18 N1 1_555 1_555
O1 C18 1_555 1_555
O2 C18 1_555 1_555
C19 O2 1_555 1_555
H15 C19 1_555 1_555
H16 C19 1_555 1_555
C20 C19 1_555 1_555
H17 C20 1_555 1_555
H18 C20 1_555 1_555
H19 C20 1_555 1_555
C21 C2 1_555 1_555
H20 C21 1_555 1_555
H21 C21 1_555 1_555
H22 C21 1_555 1_555
C22 C4 1_555 1_555
H23 C22 1_555 1_555
H24 C22 1_555 1_555
H25 C22 1_555 1_555
O3 C3 1_555 1_555
C4 C5 1_555 1_555
C10 C11 1_555 1_555
C16 C17 1_555 1_555

#END
