
#######################################################################
#
#                 Cambridge Crystallographic Data Centre
#                                CCDC 
#
#######################################################################
#
# If this CIF has been generated from an entry in the Cambridge 
# Structural Database, then it will include bibliographic, chemical, 
# crystal, experimental, refinement or atomic coordinate data resulting 
# from the CCDC's data processing and validation procedures.
#
#######################################################################

data_NUBXUE
_chemical_formula_moiety         'C30 H20 O2,C4 H10 O1'
_chemical_name_systematic        
'(11-Hydroxy-11-phenyl-11H-benzo[a]fluoren-6-yl)(phenyl)methanone diethyl ether solvate'
_symmetry_cell_setting           monoclinic
_symmetry_space_group_name_H-M   'P 21/c'
_symmetry_Int_Tables_number      14
_space_group_name_Hall           '-P 2ybc'
loop_
_symmetry_equiv_pos_site_id
_symmetry_equiv_pos_as_xyz
1 x,y,z
2 -x,1/2+y,1/2-z
3 -x,-y,-z
4 x,1/2-y,1/2+z
_cell_length_a                   19.3641(9)
_cell_length_b                   9.2298(4)
_cell_length_c                   15.8024(7)
_cell_angle_alpha                90
_cell_angle_beta                 106.739(1)
_cell_angle_gamma                90
_cell_volume                     2704.64
_exptl_crystal_colour            colorless
_exptl_crystal_description       block
_chemical_melting_point          '173-175 deg.C'
_cell_formula_units_Z            4
loop_
_atom_site_label
_atom_site_type_symbol
_atom_site_fract_x
_atom_site_fract_y
_atom_site_fract_z
O1 O 0.34869(7) 0.41607(16) 0.19453(9)
H1 H 0.3306 0.4317 0.2346
O2 O 0.07677(9) 0.8279(2) 0.03787(12)
C1 C 0.19599(10) 0.8102(2) 0.12897(13)
C2 C 0.24610(11) 0.9187(2) 0.15226(13)
H2 H 0.2310 1.0107 0.1630
C3 C 0.32012(10) 0.8962(2) 0.16059(12)
C4 C 0.34440(9) 0.7538(2) 0.15005(12)
C5 C 0.29235(9) 0.6422(2) 0.12857(11)
C6 C 0.21979(9) 0.6687(2) 0.11637(12)
C7 C 0.17993(10) 0.5310(2) 0.09285(12)
C8 C 0.22893(10) 0.4233(2) 0.08860(13)
C9 C 0.30576(10) 0.4820(2) 0.11511(12)
C10 C 0.20703(12) 0.2836(2) 0.06379(15)
H3 H 0.2401 0.2135 0.0588
C11 C 0.13427(13) 0.2500(3) 0.04634(17)
H4 H 0.1184 0.1565 0.0292
C12 C 0.08558(12) 0.3537(3) 0.05417(17)
H5 H 0.0374 0.3285 0.0446
C13 C 0.10719(11) 0.4955(3) 0.07612(15)
H6 H 0.0737 0.5657 0.0796
C14 C 0.41893(10) 0.7322(2) 0.16143(13)
H7 H 0.4361 0.6395 0.1561
C15 C 0.46560(11) 0.8454(3) 0.18008(15)
H8 H 0.5144 0.8293 0.1877
C16 C 0.44108(12) 0.9860(3) 0.18795(16)
H9 H 0.4735 1.0628 0.1996
C17 C 0.37023(12) 1.0108(2) 0.17873(14)
H10 H 0.3546 1.1046 0.1845
C18 C 0.34263(10) 0.4555(2) 0.04352(13)
C19 C 0.40170(13) 0.3670(3) 0.05686(18)
H11 H 0.4205 0.3213 0.1111
C20 C 0.43350(17) 0.3457(4) -0.0108(2)
H12 H 0.4737 0.2859 -0.0012
C21 C 0.40699(17) 0.4104(4) -0.0898(2)
H13 H 0.4286 0.3955 -0.1346
C22 C 0.34808(16) 0.4979(4) -0.10359(18)
H14 H 0.3293 0.5425 -0.1582
C23 C 0.31617(13) 0.5209(3) -0.03717(16)
H15 H 0.2762 0.5814 -0.0473
C24 C 0.11799(11) 0.8498(2) 0.11064(15)
C25 C 0.09352(11) 0.9218(3) 0.18056(16)
C26 C 0.03168(13) 1.0070(3) 0.1564(2)
H16 H 0.0060 1.0168 0.0971
C27 C 0.00839(19) 1.0770(5) 0.2204(3)
H17 H -0.0322 1.1362 0.2040
C28 C 0.0449(2) 1.0594(7) 0.3078(3)
H18 H 0.0285 1.1053 0.3507
C29 C 0.10534(19) 0.9748(6) 0.3326(2)
H19 H 0.1297 0.9625 0.3922
C30 C 0.13013(14) 0.9077(4) 0.26880(19)
H20 H 0.1720 0.8523 0.2857
O3 O 0.28781(13) 0.4675(3) 0.33291(15)
C31 C 0.2239(4) 0.3428(10) 0.3270(5)
H21 H 0.2091 0.2922 0.2708
H22 H 0.2356 0.2749 0.3759
C32 C 0.1777(6) 0.4479(12) 0.3347(6)
H23 H 0.1321 0.4054 0.3331
H24 H 0.1712 0.5153 0.2868
H25 H 0.1969 0.4978 0.3898
C33 C 0.3218(3) 0.5362(9) 0.4075(4)
H26 H 0.3243 0.4717 0.4567
H27 H 0.2930 0.6193 0.4137
C34 C 0.3926(3) 0.5851(6) 0.4139(3)
H28 H 0.4140 0.6247 0.4717
H29 H 0.3905 0.6584 0.3701
H30 H 0.4211 0.5052 0.4042
loop_
_geom_bond_atom_site_label_1
_geom_bond_atom_site_label_2
_geom_bond_site_symmetry_1
_geom_bond_site_symmetry_2
O1 H1 1_555 1_555
O2 C24 1_555 1_555
C1 C2 1_555 1_555
C2 H2 1_555 1_555
C3 C2 1_555 1_555
C4 C3 1_555 1_555
C5 C4 1_555 1_555
C6 C1 1_555 1_555
C7 C6 1_555 1_555
C8 C7 1_555 1_555
C9 O1 1_555 1_555
C10 C8 1_555 1_555
H3 C10 1_555 1_555
C11 C10 1_555 1_555
H4 C11 1_555 1_555
C12 C11 1_555 1_555
H5 C12 1_555 1_555
C13 C7 1_555 1_555
H6 C13 1_555 1_555
C14 C4 1_555 1_555
H7 C14 1_555 1_555
C15 C14 1_555 1_555
H8 C15 1_555 1_555
C16 C15 1_555 1_555
H9 C16 1_555 1_555
C17 C3 1_555 1_555
H10 C17 1_555 1_555
C18 C9 1_555 1_555
C19 C18 1_555 1_555
H11 C19 1_555 1_555
C20 C19 1_555 1_555
H12 C20 1_555 1_555
C21 C20 1_555 1_555
H13 C21 1_555 1_555
C22 C21 1_555 1_555
H14 C22 1_555 1_555
C23 C18 1_555 1_555
H15 C23 1_555 1_555
C24 C1 1_555 1_555
C25 C24 1_555 1_555
C26 C25 1_555 1_555
H16 C26 1_555 1_555
C27 C26 1_555 1_555
H17 C27 1_555 1_555
C28 C27 1_555 1_555
H18 C28 1_555 1_555
C29 C28 1_555 1_555
H19 C29 1_555 1_555
C30 C25 1_555 1_555
H20 C30 1_555 1_555
O3 C31 1_555 1_555
C31 H21 1_555 1_555
H22 C31 1_555 1_555
C32 C31 1_555 1_555
H23 C32 1_555 1_555
H24 C32 1_555 1_555
H25 C32 1_555 1_555
C33 O3 1_555 1_555
H26 C33 1_555 1_555
H27 C33 1_555 1_555
C34 C33 1_555 1_555
H28 C34 1_555 1_555
H29 C34 1_555 1_555
H30 C34 1_555 1_555
C5 C6 1_555 1_555
C5 C9 1_555 1_555
C8 C9 1_555 1_555
C12 C13 1_555 1_555
C16 C17 1_555 1_555
C22 C23 1_555 1_555
C29 C30 1_555 1_555

#END
