
#######################################################################
#
#                 Cambridge Crystallographic Data Centre
#                                CCDC 
#
#######################################################################
#
# If this CIF has been generated from an entry in the Cambridge 
# Structural Database, then it will include bibliographic, chemical, 
# crystal, experimental, refinement or atomic coordinate data resulting 
# from the CCDC's data processing and validation procedures.
#
#######################################################################

data_NUBYUF
_chemical_formula_moiety         'C34 H22 O2'
_chemical_name_systematic        
(11-Hydroxy-11-(1-naphthyl)-11H-benzo[a]fluoren-6-yl)(phenyl)methanone
_symmetry_cell_setting           monoclinic
_symmetry_space_group_name_H-M   'P 21/n'
_symmetry_Int_Tables_number      14
_space_group_name_Hall           '-P 2yn'
loop_
_symmetry_equiv_pos_site_id
_symmetry_equiv_pos_as_xyz
1 x,y,z
2 1/2-x,1/2+y,1/2-z
3 -x,-y,-z
4 1/2+x,1/2-y,1/2+z
_cell_length_a                   13.5927(4)
_cell_length_b                   10.3790(3)
_cell_length_c                   17.4214(5)
_cell_angle_alpha                90
_cell_angle_beta                 100.4150(10)
_cell_angle_gamma                90
_cell_volume                     2417.29
_exptl_crystal_colour            'light yellow'
_exptl_crystal_description       block
_chemical_melting_point          '208-210 deg.C'
_cell_formula_units_Z            4
loop_
_atom_site_label
_atom_site_type_symbol
_atom_site_fract_x
_atom_site_fract_y
_atom_site_fract_z
C1 C 0.39747(17) 0.5363(2) 0.21042(14)
C2 C 0.40402(19) 0.4859(2) 0.28610(16)
H1 H 0.4608 0.4399 0.3084
C3 C 0.3286(2) 0.5030(3) 0.32783(19)
H2 H 0.3338 0.4684 0.3776
C4 C 0.2428(2) 0.5739(4) 0.2942(3)
H3 H 0.1913 0.5859 0.3222
C5 C 0.2348(2) 0.6242(4) 0.2225(2)
H4 H 0.1781 0.6717 0.2020
C6 C 0.30882(18) 0.6073(2) 0.17785(18)
C7 C 0.2994(2) 0.6574(3) 0.1015(2)
H5 H 0.2421 0.7033 0.0803
C8 C 0.3707(2) 0.6405(3) 0.05923(18)
H6 H 0.3626 0.6729 0.0087
C9 C 0.4574(2) 0.5740(2) 0.09099(15)
H7 H 0.5071 0.5647 0.0611
C10 C 0.47292(16) 0.5217(2) 0.16443(13)
C11 C 0.57376(16) 0.45401(19) 0.19497(12)
C12 C 0.56875(15) 0.31603(19) 0.22380(12)
C13 C 0.52744(15) 0.20856(19) 0.18030(12)
C14 C 0.47663(16) 0.2143(2) 0.10204(13)
H8 H 0.4657 0.2938 0.0773
C15 C 0.44375(19) 0.1057(3) 0.06279(15)
H9 H 0.4113 0.1111 0.0111
C16 C 0.4581(2) -0.0144(3) 0.09921(17)
H10 H 0.4351 -0.0884 0.0715
C17 C 0.50512(19) -0.0243(2) 0.17415(15)
H11 H 0.5135 -0.1051 0.1975
C18 C 0.54164(16) 0.0851(2) 0.21744(13)
C19 C 0.59233(17) 0.0772(2) 0.29527(13)
H12 H 0.5994 -0.0029 0.3195
C20 C 0.63163(16) 0.1831(2) 0.33649(12)
C21 C 0.62083(15) 0.30422(19) 0.29888(12)
C22 C 0.66114(16) 0.4312(2) 0.32691(13)
C23 C 0.63393(15) 0.5191(2) 0.26707(13)
C24 C 0.66328(18) 0.6466(2) 0.27514(17)
H13 H 0.6449 0.7051 0.2347
C25 C 0.72158(19) 0.6850(3) 0.3462(2)
H14 H 0.7432 0.7699 0.3530
C26 C 0.7467(2) 0.5985(3) 0.4051(2)
H15 H 0.7846 0.6259 0.4521
C27 C 0.71736(18) 0.4709(3) 0.39720(16)
H16 H 0.7350 0.4131 0.4382
C28 C 0.68557(18) 0.1672(2) 0.41888(13)
C29 C 0.63006(19) 0.1808(2) 0.48342(13)
C30 C 0.5328(2) 0.2234(4) 0.47085(17)
H17 H 0.5000 0.2411 0.4203
C31 C 0.4835(3) 0.2400(5) 0.5326(2)
H18 H 0.4184 0.2714 0.5238
C32 C 0.5297(3) 0.2108(4) 0.6062(2)
H19 H 0.4955 0.2199 0.6475
C33 C 0.6260(3) 0.1681(3) 0.61971(17)
H20 H 0.6573 0.1478 0.6702
C34 C 0.6771(2) 0.1549(3) 0.55880(15)
H21 H 0.7435 0.1284 0.5685
O1 O 0.77579(15) 0.1432(2) 0.43136(10)
O2 O 0.63157(12) 0.44532(15) 0.13420(9)
H22 H 0.6512 0.5173 0.1247
loop_
_geom_bond_atom_site_label_1
_geom_bond_atom_site_label_2
_geom_bond_site_symmetry_1
_geom_bond_site_symmetry_2
C1 C2 1_555 1_555
C2 H1 1_555 1_555
C3 C2 1_555 1_555
H2 C3 1_555 1_555
C4 C3 1_555 1_555
H3 C4 1_555 1_555
C5 C4 1_555 1_555
H4 C5 1_555 1_555
C6 C1 1_555 1_555
C7 C6 1_555 1_555
H5 C7 1_555 1_555
C8 C7 1_555 1_555
H6 C8 1_555 1_555
C9 C8 1_555 1_555
H7 C9 1_555 1_555
C10 C1 1_555 1_555
C11 C10 1_555 1_555
C12 C11 1_555 1_555
C13 C12 1_555 1_555
C14 C13 1_555 1_555
H8 C14 1_555 1_555
C15 C14 1_555 1_555
H9 C15 1_555 1_555
C16 C15 1_555 1_555
H10 C16 1_555 1_555
C17 C16 1_555 1_555
H11 C17 1_555 1_555
C18 C13 1_555 1_555
C19 C18 1_555 1_555
H12 C19 1_555 1_555
C20 C19 1_555 1_555
C21 C12 1_555 1_555
C22 C21 1_555 1_555
C23 C11 1_555 1_555
C24 C23 1_555 1_555
H13 C24 1_555 1_555
C25 C24 1_555 1_555
H14 C25 1_555 1_555
C26 C25 1_555 1_555
H15 C26 1_555 1_555
C27 C22 1_555 1_555
H16 C27 1_555 1_555
C28 C20 1_555 1_555
C29 C28 1_555 1_555
C30 C29 1_555 1_555
H17 C30 1_555 1_555
C31 C30 1_555 1_555
H18 C31 1_555 1_555
C32 C31 1_555 1_555
H19 C32 1_555 1_555
C33 C32 1_555 1_555
H20 C33 1_555 1_555
C34 C29 1_555 1_555
H21 C34 1_555 1_555
O1 C28 1_555 1_555
O2 C11 1_555 1_555
H22 O2 1_555 1_555
C5 C6 1_555 1_555
C9 C10 1_555 1_555
C17 C18 1_555 1_555
C20 C21 1_555 1_555
C22 C23 1_555 1_555
C26 C27 1_555 1_555
C33 C34 1_555 1_555

#END
