
#######################################################################
#
#                 Cambridge Crystallographic Data Centre
#                                CCDC 
#
#######################################################################
#
# If this CIF has been generated from an entry in the Cambridge 
# Structural Database, then it will include bibliographic, chemical, 
# crystal, experimental, refinement or atomic coordinate data resulting 
# from the CCDC's data processing and validation procedures.
#
#######################################################################

data_NUBYEP
_chemical_formula_moiety         'C27 H20 O2'
_chemical_name_systematic        
1-(3-Benzoyl-2-phenylnaphthalen-1-yl)cyclopropanecarbaldehyde
_symmetry_cell_setting           monoclinic
_symmetry_space_group_name_H-M   'P 21/c'
_symmetry_Int_Tables_number      14
_space_group_name_Hall           '-P 2ybc'
loop_
_symmetry_equiv_pos_site_id
_symmetry_equiv_pos_as_xyz
1 x,y,z
2 -x,1/2+y,1/2-z
3 -x,-y,-z
4 x,1/2-y,1/2+z
_cell_length_a                   11.4879(3)
_cell_length_b                   21.6336(6)
_cell_length_c                   8.6222(2)
_cell_angle_alpha                90
_cell_angle_beta                 107.536(1)
_cell_angle_gamma                90
_cell_volume                     2043.25
_exptl_crystal_colour            'light yellow'
_exptl_crystal_description       block
_chemical_melting_point          '160-162 deg.C'
_cell_formula_units_Z            4
loop_
_atom_site_label
_atom_site_type_symbol
_atom_site_fract_x
_atom_site_fract_y
_atom_site_fract_z
O1 O 0.67313(11) 0.49414(5) 0.93086(16)
O2 O 0.54610(13) 0.76115(5) 0.49808(14)
C1 C 0.70418(14) 0.52861(7) 0.5492(2)
H1 H 0.6561 0.4972 0.5710
C2 C 0.80139(17) 0.51384(10) 0.4939(3)
H2 H 0.8189 0.4727 0.4795
C3 C 0.87227(18) 0.55980(12) 0.4602(3)
H3 H 0.9371 0.5499 0.4211
C4 C 0.84723(17) 0.62052(10) 0.4844(3)
H4 H 0.8957 0.6517 0.4622
C5 C 0.75090(14) 0.63561(8) 0.5412(2)
H5 H 0.7353 0.6768 0.5584
C6 C 0.67716(12) 0.58975(6) 0.57282(16)
C7 C 0.89639(15) 0.55748(9) 1.0407(3)
H6 H 0.9005 0.5146 1.0454
C8 C 0.99989(17) 0.59199(12) 1.1102(3)
H7 H 1.0736 0.5722 1.1598
C9 C 0.99467(18) 0.65463(11) 1.1066(3)
H8 H 1.0649 0.6778 1.1521
C10 C 0.88692(19) 0.68322(9) 1.0367(3)
H9 H 0.8830 0.7262 1.0370
C11 C 0.78264(16) 0.64939(8) 0.9648(2)
H10 H 0.7093 0.6697 0.9164
C12 C 0.78679(13) 0.58614(7) 0.96440(17)
C13 C 0.26740(13) 0.68544(7) 0.50824(18)
H11 H 0.2686 0.7057 0.4137
C14 C 0.16958(15) 0.69265(9) 0.5651(2)
H12 H 0.1054 0.7181 0.5092
C15 C 0.16445(15) 0.66236(9) 0.7061(2)
H13 H 0.0965 0.6672 0.7424
C16 C 0.25840(14) 0.62603(8) 0.78988(19)
H14 H 0.2544 0.6059 0.8835
C17 C 0.36247(12) 0.61833(6) 0.73658(16)
C18 C 0.36715(12) 0.64748(6) 0.59114(15)
C19 C 0.47062(12) 0.63757(6) 0.53438(15)
C20 C 0.56906(12) 0.60398(6) 0.62782(15)
C21 C 0.56535(12) 0.57828(6) 0.77928(15)
C22 C 0.46362(13) 0.58347(6) 0.82768(16)
H15 H 0.4607 0.5637 0.9223
C23 C 0.47086(13) 0.66533(6) 0.37481(15)
C24 C 0.37237(16) 0.64782(8) 0.21744(18)
H16 H 0.3123 0.6173 0.2243
H17 H 0.3414 0.6802 0.1378
C25 C 0.51096(15) 0.72986(7) 0.37862(18)
H18 H 0.5089 0.7479 0.2800
C26 C 0.49767(16) 0.62661(7) 0.24227(18)
H19 H 0.5437 0.6459 0.1777
H20 H 0.5145 0.5830 0.2641
C27 C 0.67600(13) 0.54780(6) 0.89275(16)
loop_
_geom_bond_atom_site_label_1
_geom_bond_atom_site_label_2
_geom_bond_site_symmetry_1
_geom_bond_site_symmetry_2
O1 C27 1_555 1_555
O2 C25 1_555 1_555
C1 H1 1_555 1_555
C2 C1 1_555 1_555
H2 C2 1_555 1_555
C3 C2 1_555 1_555
H3 C3 1_555 1_555
C4 C3 1_555 1_555
H4 C4 1_555 1_555
C5 C4 1_555 1_555
H5 C5 1_555 1_555
C6 C1 1_555 1_555
C7 H6 1_555 1_555
C8 C7 1_555 1_555
H7 C8 1_555 1_555
C9 C8 1_555 1_555
H8 C9 1_555 1_555
C10 C9 1_555 1_555
H9 C10 1_555 1_555
C11 C10 1_555 1_555
H10 C11 1_555 1_555
C12 C7 1_555 1_555
C13 H11 1_555 1_555
C14 C13 1_555 1_555
H12 C14 1_555 1_555
C15 C14 1_555 1_555
H13 C15 1_555 1_555
C16 C15 1_555 1_555
H14 C16 1_555 1_555
C17 C16 1_555 1_555
C18 C13 1_555 1_555
C19 C18 1_555 1_555
C20 C6 1_555 1_555
C21 C20 1_555 1_555
C22 C17 1_555 1_555
H15 C22 1_555 1_555
C23 C19 1_555 1_555
C24 C23 1_555 1_555
H16 C24 1_555 1_555
H17 C24 1_555 1_555
C25 C23 1_555 1_555
H18 C25 1_555 1_555
C26 C23 1_555 1_555
H19 C26 1_555 1_555
H20 C26 1_555 1_555
C27 C12 1_555 1_555
C5 C6 1_555 1_555
C11 C12 1_555 1_555
C17 C18 1_555 1_555
C19 C20 1_555 1_555
C21 C22 1_555 1_555
C21 C27 1_555 1_555
C24 C26 1_555 1_555

#END
