
#######################################################################
#
#                 Cambridge Crystallographic Data Centre
#                                CCDC 
#
#######################################################################
#
# If this CIF has been generated from an entry in the Cambridge 
# Structural Database, then it will include bibliographic, chemical, 
# crystal, experimental, refinement or atomic coordinate data resulting 
# from the CCDC's data processing and validation procedures.
#
#######################################################################

data_NUCNOQ
_chemical_formula_moiety         'C24 H31 F1 O8'
_chemical_name_systematic        
'methyl 5,12-diacetoxy-6-fluoro-6,11-dimethyl-16-oxo-15-oxapentacyclo[9.3.2.1^5,8^.0^1,10^.0^2,8^]heptadecane-9-carboxylate'
_symmetry_cell_setting           orthorhombic
_symmetry_space_group_name_H-M   'P 21 21 21'
_symmetry_Int_Tables_number      19
_space_group_name_Hall           'P 2ac 2ab'
loop_
_symmetry_equiv_pos_site_id
_symmetry_equiv_pos_as_xyz
1 x,y,z
2 1/2-x,-y,1/2+z
3 -x,1/2+y,1/2-z
4 1/2+x,1/2-y,-z
_cell_length_a                   8.7359(17)
_cell_length_b                   12.804(3)
_cell_length_c                   20.625(4)
_cell_angle_alpha                90
_cell_angle_beta                 90
_cell_angle_gamma                90
_cell_volume                     2307
_cell_formula_units_Z            4
loop_
_atom_site_label
_atom_site_type_symbol
_atom_site_fract_x
_atom_site_fract_y
_atom_site_fract_z
F1 F 0.1920(2) 0.42042(13) 1.02264(8)
O1 O -0.0492(2) 0.59610(16) 0.54309(9)
O2 O 0.0455(2) 0.54257(14) 0.63939(9)
O3 O 0.1516(3) 0.83502(16) 0.75705(10)
O4 O -0.0119(2) 0.72485(14) 0.80639(9)
O5 O 0.4251(2) 0.48636(15) 0.87087(9)
O6 O 0.3104(2) 0.39984(15) 0.78957(9)
O7 O 0.0268(2) 0.57128(16) 1.06735(9)
O8 O -0.0239(3) 0.74193(16) 1.05313(11)
C1 C 0.0305(4) 0.4177(2) 0.55825(14)
H1 H 0.0095 0.4092 0.5119
H2 H -0.0377 0.3722 0.5832
H3 H 0.1372 0.3989 0.5671
C2 C 0.0040(3) 0.5276(2) 0.57708(13)
C3 C 0.0275(4) 0.6466(2) 0.66568(13)
H4 H 0.0588 0.6993 0.6325
C4 C -0.1373(4) 0.6667(2) 0.68618(14)
H5 H -0.2064 0.6457 0.6504
H6 H -0.1512 0.7425 0.6935
C5 C -0.1837(3) 0.6077(2) 0.74798(13)
H7 H -0.2776 0.6393 0.7663
H8 H -0.2062 0.5339 0.7372
C6 C -0.0559(3) 0.6124(2) 0.79768(12)
C7 C 0.0923(3) 0.5662(2) 0.77215(12)
H9 H 0.0746 0.4972 0.7507
C8 C 0.1412(3) 0.6493(2) 0.72320(13)
C9 C 0.0985(4) 0.7484(2) 0.76222(14)
C10 C 0.3060(4) 0.6488(2) 0.70067(13)
H10 H 0.3741 0.6496 0.7384
H11 H 0.3254 0.7108 0.6740
H12 H 0.3254 0.5859 0.6750
C11 C 0.1921(3) 0.5549(2) 0.83319(12)
H13 H 0.2436 0.6234 0.8415
C12 C 0.0789(3) 0.5330(2) 0.89055(12)
C13 C 0.1121(3) 0.5991(2) 0.95148(12)
H14 H 0.2199 0.5923 0.9657
H15 H 0.0874 0.6737 0.9447
C14 C 0.0016(3) 0.5472(2) 0.99905(12)
C15 C -0.1658(3) 0.5686(2) 0.97981(13)
H16 H -0.2131 0.6149 1.0126
H17 H -0.2231 0.5019 0.9798
C16 C -0.1803(3) 0.6199(2) 0.91246(13)
H18 H -0.2888 0.6192 0.8986
H19 H -0.1464 0.6936 0.9149
C17 C -0.0829(3) 0.5615(2) 0.86279(12)
H20 H -0.1363 0.4938 0.8540
C18 C 0.3140(3) 0.4724(2) 0.82721(12)
C19 C 0.5380(3) 0.4035(2) 0.87355(15)
H21 H 0.4859 0.3358 0.8758
H22 H 0.6022 0.4126 0.9121
H23 H 0.6021 0.4061 0.8346
C20 C 0.0766(3) 0.4200(2) 0.91877(12)
H24 H -0.0047 0.3780 0.8978
H25 H 0.1762 0.3851 0.9114
C21 C 0.0451(3) 0.4311(2) 0.99141(13)
C22 C -0.0544(4) 0.3489(2) 1.02226(15)
H26 H -0.0104 0.2797 1.0142
H27 H -0.1575 0.3522 1.0036
H28 H -0.0602 0.3612 1.0691
C23 C 0.0081(4) 0.6695(3) 1.08875(14)
C24 C 0.0314(4) 0.6757(3) 1.16010(14)
H29 H 0.0255 0.7487 1.1740
H30 H 0.1322 0.6473 1.1712
H31 H -0.0482 0.6351 1.1821
loop_
_geom_bond_atom_site_label_1
_geom_bond_atom_site_label_2
_geom_bond_site_symmetry_1
_geom_bond_site_symmetry_2
F1 C21 1_555 1_555
O1 C2 1_555 1_555
O2 C2 1_555 1_555
O3 C9 1_555 1_555
O4 C6 1_555 1_555
O5 C18 1_555 1_555
O6 C18 1_555 1_555
O7 C14 1_555 1_555
O8 C23 1_555 1_555
C1 H1 1_555 1_555
H2 C1 1_555 1_555
H3 C1 1_555 1_555
C2 C1 1_555 1_555
C3 O2 1_555 1_555
H4 C3 1_555 1_555
C4 C3 1_555 1_555
H5 C4 1_555 1_555
H6 C4 1_555 1_555
C5 C4 1_555 1_555
H7 C5 1_555 1_555
H8 C5 1_555 1_555
C6 C5 1_555 1_555
C7 C6 1_555 1_555
H9 C7 1_555 1_555
C8 C3 1_555 1_555
C9 O4 1_555 1_555
C10 C8 1_555 1_555
H10 C10 1_555 1_555
H11 C10 1_555 1_555
H12 C10 1_555 1_555
C11 C7 1_555 1_555
H13 C11 1_555 1_555
C12 C11 1_555 1_555
C13 C12 1_555 1_555
H14 C13 1_555 1_555
H15 C13 1_555 1_555
C14 C13 1_555 1_555
C15 C14 1_555 1_555
H16 C15 1_555 1_555
H17 C15 1_555 1_555
C16 C15 1_555 1_555
H18 C16 1_555 1_555
H19 C16 1_555 1_555
C17 C6 1_555 1_555
H20 C17 1_555 1_555
C18 C11 1_555 1_555
C19 O5 1_555 1_555
H21 C19 1_555 1_555
H22 C19 1_555 1_555
H23 C19 1_555 1_555
C20 C12 1_555 1_555
H24 C20 1_555 1_555
H25 C20 1_555 1_555
C21 C14 1_555 1_555
C22 C21 1_555 1_555
H26 C22 1_555 1_555
H27 C22 1_555 1_555
H28 C22 1_555 1_555
C23 O7 1_555 1_555
C24 C23 1_555 1_555
H29 C24 1_555 1_555
H30 C24 1_555 1_555
H31 C24 1_555 1_555
C7 C8 1_555 1_555
C8 C9 1_555 1_555
C12 C17 1_555 1_555
C16 C17 1_555 1_555
C20 C21 1_555 1_555

#END
