
#######################################################################
#
#                 Cambridge Crystallographic Data Centre
#                                CCDC 
#
#######################################################################
#
# If this CIF has been generated from an entry in the Cambridge 
# Structural Database, then it will include bibliographic, chemical, 
# crystal, experimental, refinement or atomic coordinate data resulting 
# from the CCDC's data processing and validation procedures.
#
#######################################################################

data_NUDCEV
_chemical_formula_moiety         'C21 H16 Br1 N3 2+,H3 O1 1+,3(H2 O1),3(Cl1 1-)'
_chemical_name_systematic        
"4'-(4-Bromophenyl)-2,2':6',2''-terpyridinium oxonium trichloride trihydrate"
_symmetry_cell_setting           monoclinic
_symmetry_space_group_name_H-M   'P 21/n'
_symmetry_Int_Tables_number      14
_space_group_name_Hall           '-P 2yn'
loop_
_symmetry_equiv_pos_site_id
_symmetry_equiv_pos_as_xyz
1 x,y,z
2 1/2-x,1/2+y,1/2-z
3 -x,-y,-z
4 1/2+x,1/2-y,1/2+z
_cell_length_a                   7.3916(2)
_cell_length_b                   28.4550(10)
_cell_length_c                   12.1415(3)
_cell_angle_alpha                90
_cell_angle_beta                 93.905(2)
_cell_angle_gamma                90
_cell_volume                     2547.77
_exptl_crystal_colour            colorless
_exptl_crystal_description       plate
_cell_formula_units_Z            4
loop_
_atom_site_label
_atom_site_type_symbol
_atom_site_fract_x
_atom_site_fract_y
_atom_site_fract_z
Br1 Br -0.51601(3) 0.400721(10) 0.53535(2)
N1 N 0.4680(2) 0.60720(6) 0.15424(16)
N2 N 0.4071(2) 0.51500(6) 0.17570(15)
N3 N 0.6693(2) 0.46163(6) 0.10640(15)
C1 C 0.5072(3) 0.65146(9) 0.1284(2)
C2 C 0.3840(4) 0.68666(9) 0.1414(2)
C3 C 0.2203(4) 0.67497(9) 0.1824(2)
C4 C 0.1823(3) 0.62889(8) 0.2089(2)
C5 C 0.3100(3) 0.59435(8) 0.19389(17)
C6 C 0.2852(3) 0.54379(8) 0.21659(18)
C7 C 0.1446(3) 0.52803(8) 0.27736(18)
C8 C 0.1229(3) 0.47976(8) 0.29413(17)
C9 C 0.2470(3) 0.44972(8) 0.24898(18)
C10 C 0.3870(3) 0.46881(8) 0.19266(17)
C11 C 0.5321(3) 0.43890(8) 0.15126(17)
C12 C 0.5425(3) 0.39075(8) 0.1601(2)
C13 C 0.6924(4) 0.36733(9) 0.1256(2)
C14 C 0.8322(3) 0.39211(9) 0.0822(2)
C15 C 0.8157(3) 0.43983(9) 0.07227(19)
C16 C -0.0273(3) 0.46166(8) 0.35652(17)
C17 C -0.0150(3) 0.41820(9) 0.4095(2)
C18 C -0.1577(3) 0.40054(9) 0.4649(2)
C19 C -0.3163(3) 0.42624(8) 0.46571(18)
C20 C -0.3317(3) 0.46984(8) 0.41610(17)
C21 C -0.1874(3) 0.48745(8) 0.36191(18)
H1 H 0.5459 0.5859 0.1440
H2 H 0.6630 0.4911 0.0998
H3 H 0.6178 0.6575 0.1012
H4 H 0.4136 0.7174 0.1227
H5 H 0.1325 0.6982 0.1924
H6 H 0.0721 0.6210 0.2345
H7 H 0.0664 0.5494 0.3077
H8 H 0.2361 0.4168 0.2567
H9 H 0.4500 0.3738 0.1899
H10 H 0.6999 0.3349 0.1323
H11 H 0.9331 0.3770 0.0605
H12 H 0.9056 0.4574 0.0426
H13 H 0.0911 0.4004 0.4083
H14 H -0.1480 0.3711 0.5002
H15 H -0.4378 0.4878 0.4187
H16 H -0.1992 0.5167 0.3287
Cl1 Cl 0.80577(7) 0.56139(2) 0.07610(5)
Cl2 Cl 0.17467(10) 0.31452(3) 0.23040(7)
Cl3 Cl 0.17192(9) 0.32403(3) 0.64808(6)
O1 O 0.3536(3) 0.28056(7) 0.45029(18)
H17 H 0.3108 0.2925 0.5049
H18 H 0.3023 0.2933 0.3972
O2 O 0.6880(3) 0.28693(9) 0.4394(2)
H19 H 0.7189 0.2808 0.3764
H20 H 0.5858 0.2754 0.4420
O3 O 0.7994(3) 0.26925(8) 0.25303(17)
H21 H 0.8949 0.2829 0.2427
H22 H 0.7959 0.2441 0.2187
O4 O 0.8989(3) 0.24229(9) 0.57245(18)
H23 H 0.9730 0.2599 0.6066
H24 H 0.8308 0.2630 0.5452
H25 H 0.8420 0.2286 0.6191
loop_
_geom_bond_atom_site_label_1
_geom_bond_atom_site_label_2
_geom_bond_site_symmetry_1
_geom_bond_site_symmetry_2
Br1 C19 1_555 1_555
N1 C1 1_555 1_555
N2 C6 1_555 1_555
N3 C11 1_555 1_555
C1 C2 1_555 1_555
C2 C3 1_555 1_555
C3 C4 1_555 1_555
C4 C5 1_555 1_555
C5 N1 1_555 1_555
C6 C5 1_555 1_555
C7 C6 1_555 1_555
C8 C7 1_555 1_555
C9 C8 1_555 1_555
C10 N2 1_555 1_555
C11 C10 1_555 1_555
C12 C11 1_555 1_555
C13 C12 1_555 1_555
C14 C13 1_555 1_555
C15 N3 1_555 1_555
C16 C8 1_555 1_555
C17 C16 1_555 1_555
C18 C17 1_555 1_555
C19 C18 1_555 1_555
C20 C19 1_555 1_555
C21 C16 1_555 1_555
H1 N1 1_555 1_555
H2 N3 1_555 1_555
H3 C1 1_555 1_555
H4 C2 1_555 1_555
H5 C3 1_555 1_555
H6 C4 1_555 1_555
H7 C7 1_555 1_555
H8 C9 1_555 1_555
H9 C12 1_555 1_555
H10 C13 1_555 1_555
H11 C14 1_555 1_555
H12 C15 1_555 1_555
H13 C17 1_555 1_555
H14 C18 1_555 1_555
H15 C20 1_555 1_555
H16 C21 1_555 1_555
O1 H17 1_555 1_555
H18 O1 1_555 1_555
O2 H19 1_555 1_555
H20 O2 1_555 1_555
O3 H21 1_555 1_555
H22 O3 1_555 1_555
O4 H23 1_555 1_555
H24 O4 1_555 1_555
H25 O4 1_555 1_555
C9 C10 1_555 1_555
C14 C15 1_555 1_555
C20 C21 1_555 1_555

#END
