
#######################################################################
#
#                 Cambridge Crystallographic Data Centre
#                                CCDC 
#
#######################################################################
#
# If this CIF has been generated from an entry in the Cambridge 
# Structural Database, then it will include bibliographic, chemical, 
# crystal, experimental, refinement or atomic coordinate data resulting 
# from the CCDC's data processing and validation procedures.
#
#######################################################################

data_NUDCAS01
_chemical_formula_moiety         'C18 H20 N2 O4'
_chemical_name_systematic        
2,2'-(Hydrazine-1,2-diylidenedimethylylidene)bis(6-ethoxyphenol)
_symmetry_cell_setting           triclinic
_symmetry_space_group_name_H-M   'P -1'
_symmetry_Int_Tables_number      2
_space_group_name_Hall           '-P 1'
loop_
_symmetry_equiv_pos_site_id
_symmetry_equiv_pos_as_xyz
1 x,y,z
2 -x,-y,-z
_cell_length_a                   5.0070(6)
_cell_length_b                   6.9065(8)
_cell_length_c                   12.2702(13)
_cell_angle_alpha                99.914(3)
_cell_angle_beta                 94.960(3)
_cell_angle_gamma                105.579(3)
_cell_volume                     398.665
_exptl_crystal_colour            yellow
_exptl_crystal_description       block
_cell_formula_units_Z            1
loop_
_atom_site_label
_atom_site_type_symbol
_atom_site_fract_x
_atom_site_fract_y
_atom_site_fract_z
O1 O 1.0461(2) 0.02182(18) 0.17484(10)
H1 H 0.894(3) -0.019(3) 0.1297(14)
O2 O 1.4986(2) 0.21514(17) 0.31558(10)
N1 N 0.6236(3) 0.0361(2) 0.03758(11)
C1 C 0.7174(3) 0.2331(3) 0.06208(14)
H2 H 0.6169 0.3121 0.0292
C2 C 0.9733(3) 0.3379(3) 0.13880(14)
C3 C 1.0642(4) 0.5536(3) 0.16257(15)
H3 H 0.9605 0.6276 0.1270
C4 C 1.3024(4) 0.6589(3) 0.23697(15)
H4 H 1.3631 0.8047 0.2524
C5 C 1.4541(3) 0.5492(3) 0.28966(14)
H5 H 1.6185 0.6214 0.3408
C6 C 1.3670(3) 0.3367(3) 0.26797(14)
C7 C 1.1253(3) 0.2290(3) 0.19188(14)
C8 C 1.7345(3) 0.3167(3) 0.40049(14)
H6 H 1.6764 0.3965 0.4644
H7 H 1.8810 0.4119 0.3703
C9 C 1.8446(4) 0.1532(3) 0.43729(15)
H8 H 2.0062 0.2170 0.4956
H9 H 1.9018 0.0757 0.3734
H10 H 1.6977 0.0600 0.4669
O1A O -0.0461(2) -0.02182(18) -0.17484(10)
H1A H 0.106(3) 0.019(3) -0.1297(14)
O2A O -0.4986(2) -0.21514(17) -0.31558(10)
N1A N 0.3764(3) -0.0361(2) -0.03758(11)
C1A C 0.2826(3) -0.2331(3) -0.06208(14)
H2A H 0.3831 -0.3121 -0.0292
C2A C 0.0267(3) -0.3379(3) -0.13880(14)
C3A C -0.0642(4) -0.5536(3) -0.16257(15)
H3A H 0.0395 -0.6276 -0.1270
C4A C -0.3024(4) -0.6589(3) -0.23697(15)
H4A H -0.3631 -0.8047 -0.2524
C5A C -0.4541(3) -0.5492(3) -0.28966(14)
H5A H -0.6185 -0.6214 -0.3408
C6A C -0.3670(3) -0.3367(3) -0.26797(14)
C7A C -0.1253(3) -0.2290(3) -0.19188(14)
C8A C -0.7345(3) -0.3167(3) -0.40049(14)
H6A H -0.6764 -0.3965 -0.4644
H7A H -0.8810 -0.4119 -0.3703
C9A C -0.8446(4) -0.1532(3) -0.43729(15)
H8A H -1.0062 -0.2170 -0.4956
H9A H -0.9018 -0.0757 -0.3734
H10A H -0.6977 -0.0600 -0.4669
loop_
_geom_bond_atom_site_label_1
_geom_bond_atom_site_label_2
_geom_bond_site_symmetry_1
_geom_bond_site_symmetry_2
O1 H1 1_555 1_555
O2 C6 1_555 1_555
N1 C1 1_555 1_555
C1 H2 1_555 1_555
C2 C1 1_555 1_555
C3 C2 1_555 1_555
H3 C3 1_555 1_555
C4 C3 1_555 1_555
H4 C4 1_555 1_555
C5 C4 1_555 1_555
H5 C5 1_555 1_555
C6 C5 1_555 1_555
C7 O1 1_555 1_555
C8 O2 1_555 1_555
H6 C8 1_555 1_555
H7 C8 1_555 1_555
C9 C8 1_555 1_555
H8 C9 1_555 1_555
H9 C9 1_555 1_555
H10 C9 1_555 1_555
O1A H1A 1_555 1_555
O2A C6A 1_555 1_555
N1A N1 1_555 1_555
C1A N1A 1_555 1_555
H2A C1A 1_555 1_555
C2A C1A 1_555 1_555
C3A C2A 1_555 1_555
H3A C3A 1_555 1_555
C4A C3A 1_555 1_555
H4A C4A 1_555 1_555
C5A C4A 1_555 1_555
H5A C5A 1_555 1_555
C6A C5A 1_555 1_555
C7A O1A 1_555 1_555
C8A O2A 1_555 1_555
H6A C8A 1_555 1_555
H7A C8A 1_555 1_555
C9A C8A 1_555 1_555
H8A C9A 1_555 1_555
H9A C9A 1_555 1_555
H10A C9A 1_555 1_555
C2 C7 1_555 1_555
C6 C7 1_555 1_555
C2A C7A 1_555 1_555
C6A C7A 1_555 1_555

#END
