
#######################################################################
#
#                 Cambridge Crystallographic Data Centre
#                                CCDC 
#
#######################################################################
#
# If this CIF has been generated from an entry in the Cambridge 
# Structural Database, then it will include bibliographic, chemical, 
# crystal, experimental, refinement or atomic coordinate data resulting 
# from the CCDC's data processing and validation procedures.
#
#######################################################################

data_NUDNUX
_chemical_formula_moiety         'C24 H22 Br1 N1 O3'
_chemical_name_systematic        
2-(4-Bromophenyl)-5-methyl-5-(2-(3-oxocyclohex-1-en-1-yl)-1-phenylethyl)-1,3-oxazol-4(5H)-one
_symmetry_cell_setting           orthorhombic
_symmetry_space_group_name_H-M   'P 21 21 21'
_symmetry_Int_Tables_number      19
_space_group_name_Hall           'P 2ac 2ab'
loop_
_symmetry_equiv_pos_site_id
_symmetry_equiv_pos_as_xyz
1 x,y,z
2 1/2-x,-y,1/2+z
3 -x,1/2+y,1/2-z
4 1/2+x,1/2-y,-z
_cell_length_a                   7.018(3)
_cell_length_b                   12.785(6)
_cell_length_c                   24.076(11)
_cell_angle_alpha                90
_cell_angle_beta                 90
_cell_angle_gamma                90
_cell_volume                     2160.22
_exptl_crystal_colour            colorless
_exptl_crystal_description       prism
_cell_formula_units_Z            4
loop_
_atom_site_label
_atom_site_type_symbol
_atom_site_fract_x
_atom_site_fract_y
_atom_site_fract_z
Br1 Br -0.22070(8) 1.11467(6) 0.78352(2)
N1 N 0.4891(5) 1.0541(3) 0.58603(14)
O1 O 0.7062(5) 1.0282(3) 0.51423(12)
O2 O 0.2310(3) 1.0977(2) 0.53455(9)
O3 O -0.1620(7) 0.6781(3) 0.3725(2)
C1 C -0.0546(6) 1.1034(3) 0.72183(16)
C2 C -0.1307(6) 1.1067(4) 0.66978(16)
H1 H -0.2613 1.1146 0.6647
C3 C -0.0100(6) 1.0980(3) 0.62462(15)
H2 H -0.0600 1.1000 0.5889
C4 C 0.1814(5) 1.0865(3) 0.63195(15)
C5 C 0.2557(6) 1.0828(4) 0.68544(15)
H3 H 0.3860 1.0739 0.6908
C6 C 0.1365(6) 1.0922(4) 0.73011(16)
H4 H 0.1856 1.0909 0.7660
C7 C 0.3101(6) 1.0773(3) 0.58419(15)
C8 C 0.5472(7) 1.0521(3) 0.53046(17)
C9 C 0.3842(5) 1.0888(3) 0.49400(15)
C10 C 0.3327(5) 1.0078(3) 0.44907(15)
H5 H 0.4527 0.9865 0.4316
C11 C 0.2455(7) 0.9084(3) 0.47519(15)
H6 H 0.3288 0.8836 0.5045
H7 H 0.1237 0.9260 0.4918
C12 C 0.2168(7) 0.8224(3) 0.43343(16)
C13 C 0.0417(8) 0.7885(4) 0.4219(2)
H8 H -0.0598 0.8176 0.4413
C14 C 0.0006(10) 0.7086(4) 0.3809(3)
C15 C 0.1664(11) 0.6745(5) 0.3467(2)
H9 H 0.1791 0.7210 0.3151
H10 H 0.1420 0.6047 0.3326
C16 C 0.3500(10) 0.6737(5) 0.3783(3)
H11 H 0.4538 0.6570 0.3532
H12 H 0.3451 0.6197 0.4066
C17 C 0.3884(7) 0.7795(4) 0.4058(2)
H13 H 0.4892 0.7716 0.4330
H14 H 0.4320 0.8286 0.3778
C18 C 0.4281(7) 1.1971(4) 0.47221(18)
H15 H 0.3195 1.2236 0.4525
H16 H 0.5355 1.1937 0.4476
H17 H 0.4572 1.2427 0.5028
C19 C 0.2092(6) 1.0539(3) 0.40337(14)
C20 C 0.2884(7) 1.0774(3) 0.35221(14)
H18 H 0.4154 1.0612 0.3453
C21 C 0.1797(10) 1.1250(4) 0.31114(19)
H19 H 0.2352 1.1411 0.2771
C22 C -0.0049(11) 1.1481(5) 0.3200(2)
H20 H -0.0770 1.1793 0.2922
C23 C -0.0858(8) 1.1254(5) 0.3702(2)
H21 H -0.2131 1.1417 0.3766
C24 C 0.0214(7) 1.0783(4) 0.41173(18)
H22 H -0.0351 1.0631 0.4457
loop_
_geom_bond_atom_site_label_1
_geom_bond_atom_site_label_2
_geom_bond_site_symmetry_1
_geom_bond_site_symmetry_2
Br1 C1 1_555 1_555
N1 C7 1_555 1_555
O1 C8 1_555 1_555
O2 C7 1_555 1_555
O3 C14 1_555 1_555
C1 C2 1_555 1_555
C2 H1 1_555 1_555
C3 C2 1_555 1_555
H2 C3 1_555 1_555
C4 C3 1_555 1_555
C5 C4 1_555 1_555
H3 C5 1_555 1_555
C6 C1 1_555 1_555
H4 C6 1_555 1_555
C7 C4 1_555 1_555
C8 N1 1_555 1_555
C9 O2 1_555 1_555
C10 C9 1_555 1_555
H5 C10 1_555 1_555
C11 C10 1_555 1_555
H6 C11 1_555 1_555
H7 C11 1_555 1_555
C12 C11 1_555 1_555
C13 C12 1_555 1_555
H8 C13 1_555 1_555
C14 C13 1_555 1_555
C15 C14 1_555 1_555
H9 C15 1_555 1_555
H10 C15 1_555 1_555
C16 C15 1_555 1_555
H11 C16 1_555 1_555
H12 C16 1_555 1_555
C17 C12 1_555 1_555
H13 C17 1_555 1_555
H14 C17 1_555 1_555
C18 C9 1_555 1_555
H15 C18 1_555 1_555
H16 C18 1_555 1_555
H17 C18 1_555 1_555
C19 C10 1_555 1_555
C20 C19 1_555 1_555
H18 C20 1_555 1_555
C21 C20 1_555 1_555
H19 C21 1_555 1_555
C22 C21 1_555 1_555
H20 C22 1_555 1_555
C23 C22 1_555 1_555
H21 C23 1_555 1_555
C24 C19 1_555 1_555
H22 C24 1_555 1_555
C5 C6 1_555 1_555
C8 C9 1_555 1_555
C16 C17 1_555 1_555
C23 C24 1_555 1_555

#END
