
#######################################################################
#
#                 Cambridge Crystallographic Data Centre
#                                CCDC 
#
#######################################################################
#
# If this CIF has been generated from an entry in the Cambridge 
# Structural Database, then it will include bibliographic, chemical, 
# crystal, experimental, refinement or atomic coordinate data resulting 
# from the CCDC's data processing and validation procedures.
#
#######################################################################

data_NUDPIM
_chemical_formula_moiety         'C20 H18 N2 O3'
_chemical_name_systematic        
8-Hydroxy-2-(4-phenylpiperazin-1-yl)-1,4-naphthoquinone
_chemical_properties_biological  'antitumour activity'
_symmetry_cell_setting           triclinic
_symmetry_space_group_name_H-M   'P -1'
_symmetry_Int_Tables_number      2
_space_group_name_Hall           '-P 1'
loop_
_symmetry_equiv_pos_site_id
_symmetry_equiv_pos_as_xyz
1 x,y,z
2 -x,-y,-z
_cell_length_a                   8.7493(4)
_cell_length_b                   9.8829(7)
_cell_length_c                   10.6499(4)
_cell_angle_alpha                78.992(2)
_cell_angle_beta                 89.132(4)
_cell_angle_gamma                63.767(3)
_cell_volume                     808.323
_cell_formula_units_Z            2
loop_
_atom_site_label
_atom_site_type_symbol
_atom_site_fract_x
_atom_site_fract_y
_atom_site_fract_z
O1 O 0.47254(12) 0.54338(12) 0.26200(11)
O2 O 1.01755(13) 0.22151(13) 0.02347(11)
O3 O 0.30292(13) 0.41685(12) 0.18400(11)
H1 H 0.3328 0.4864 0.2278
N1 N 0.75747(14) 0.59249(13) 0.28199(10)
N2 N 0.80854(14) 0.78049(12) 0.43561(10)
C1 C 0.59908(16) 0.46523(14) 0.21004(12)
C2 C 0.75945(17) 0.48528(15) 0.21606(12)
C3 C 0.88942(17) 0.40840(17) 0.14642(13)
H2 H 0.9834 0.4291 0.1438
C4 C 0.89057(17) 0.29645(16) 0.07615(13)
C5 C 0.7289(2) 0.16835(17) 0.00406(14)
H3 H 0.8231 0.1115 -0.0375
C6 C 0.5807(2) 0.14982(19) -0.00223(16)
H4 H 0.5769 0.0802 -0.0483
C7 C 0.4403(2) 0.23201(18) 0.05814(15)
H5 H 0.3422 0.2184 0.0527
C8 C 0.44498(17) 0.33635(15) 0.12793(13)
C9 C 0.59362(16) 0.35616(14) 0.13667(11)
C10 C 0.73533(17) 0.27110(15) 0.07195(12)
C11 C 0.71779(19) 0.58211(17) 0.41751(13)
H6 H 0.8159 0.5003 0.4711
H7 H 0.6227 0.5566 0.4289
C12 C 0.67289(19) 0.73155(17) 0.45874(14)
H8 H 0.5673 0.8107 0.4119
H9 H 0.6545 0.7195 0.5494
C13 C 0.79051(16) 0.90427(15) 0.49318(13)
C14 C 0.78286(18) 0.88770(16) 0.62576(14)
H10 H 0.7838 0.7983 0.6740
C15 C 0.7739(2) 1.00221(19) 0.68641(16)
H11 H 0.7685 0.9892 0.7749
C16 C 0.77275(19) 1.13572(18) 0.61728(18)
H12 H 0.7664 1.2128 0.6584
C17 C 0.7811(2) 1.15285(17) 0.48668(18)
H13 H 0.7820 1.2419 0.4394
C18 C 0.78830(19) 1.03951(16) 0.42420(15)
H14 H 0.7917 1.0541 0.3355
C19 C 0.8397(2) 0.79440(18) 0.30001(13)
H15 H 0.9291 0.8269 0.2844
H16 H 0.7367 0.8722 0.2491
C20 C 0.8923(2) 0.64273(19) 0.26006(14)
H17 H 0.9134 0.6536 0.1699
H18 H 0.9974 0.5656 0.3090
loop_
_geom_bond_atom_site_label_1
_geom_bond_atom_site_label_2
_geom_bond_site_symmetry_1
_geom_bond_site_symmetry_2
O1 C1 1_555 1_555
O2 C4 1_555 1_555
O3 H1 1_555 1_555
N1 C2 1_555 1_555
N2 C12 1_555 1_555
C1 C2 1_555 1_555
C2 C3 1_555 1_555
C3 H2 1_555 1_555
C4 C3 1_555 1_555
C5 H3 1_555 1_555
C6 C5 1_555 1_555
H4 C6 1_555 1_555
C7 C6 1_555 1_555
H5 C7 1_555 1_555
C8 O3 1_555 1_555
C9 C1 1_555 1_555
C10 C4 1_555 1_555
C11 N1 1_555 1_555
H6 C11 1_555 1_555
H7 C11 1_555 1_555
C12 C11 1_555 1_555
H8 C12 1_555 1_555
H9 C12 1_555 1_555
C13 N2 1_555 1_555
C14 C13 1_555 1_555
H10 C14 1_555 1_555
C15 C14 1_555 1_555
H11 C15 1_555 1_555
C16 C15 1_555 1_555
H12 C16 1_555 1_555
C17 C16 1_555 1_555
H13 C17 1_555 1_555
C18 C13 1_555 1_555
H14 C18 1_555 1_555
C19 N2 1_555 1_555
H15 C19 1_555 1_555
H16 C19 1_555 1_555
C20 N1 1_555 1_555
H17 C20 1_555 1_555
H18 C20 1_555 1_555
C5 C10 1_555 1_555
C7 C8 1_555 1_555
C8 C9 1_555 1_555
C9 C10 1_555 1_555
C17 C18 1_555 1_555
C19 C20 1_555 1_555

#END
