
#######################################################################
#
#                 Cambridge Crystallographic Data Centre
#                                CCDC 
#
#######################################################################
#
# If this CIF has been generated from an entry in the Cambridge 
# Structural Database, then it will include bibliographic, chemical, 
# crystal, experimental, refinement or atomic coordinate data resulting 
# from the CCDC's data processing and validation procedures.
#
#######################################################################

data_NUDRIO
_chemical_formula_moiety         'C18 H6 S5'
_chemical_name_systematic        
"[1,2]Dithiino[3',4',5',6':4,5]thieno[2',3',4',5':8,9]-triphenyleno[1,12-cde][1,2]dithiine"
_symmetry_cell_setting           orthorhombic
_symmetry_space_group_name_H-M   'P n m a'
_symmetry_Int_Tables_number      62
_space_group_name_Hall           '-P 2ac 2n'
loop_
_symmetry_equiv_pos_site_id
_symmetry_equiv_pos_as_xyz
1 x,y,z
2 1/2-x,-y,1/2+z
3 -x,1/2+y,-z
4 1/2+x,1/2-y,1/2-z
5 -x,-y,-z
6 1/2+x,y,1/2-z
7 x,1/2-y,z
8 1/2-x,1/2+y,1/2+z
_cell_length_a                   6.9134(5)
_cell_length_b                   19.5698(14)
_cell_length_c                   10.8775(8)
_cell_angle_alpha                90
_cell_angle_beta                 90
_cell_angle_gamma                90
_cell_volume                     1471.66
_exptl_crystal_colour            yellow
_exptl_crystal_description       block
_chemical_melting_point          'above 300deg.C'
_cell_formula_units_Z            4
_exptl_crystal_recrystallization_method 'ethyl acetate/hexane'
loop_
_atom_site_label
_atom_site_type_symbol
_atom_site_fract_x
_atom_site_fract_y
_atom_site_fract_z
S1 S 0.16891(14) 0.7500 0.58329(7)
S2 S 0.26294(14) 0.55496(4) 1.03421(8)
S3 S 0.05875(14) 0.59122(4) 1.15363(8)
C1 C 0.1695(3) 0.68567(13) 0.6952(2)
C2 C 0.1936(4) 0.61605(15) 0.6831(3)
H1 H 0.1989 0.5957 0.6058
C3 C 0.2098(4) 0.57713(14) 0.7893(3)
H2 H 0.2275 0.5302 0.7819
C4 C 0.2006(4) 0.60554(13) 0.9063(2)
C5 C 0.1672(3) 0.67603(13) 0.9213(2)
C6 C 0.1566(3) 0.71391(12) 0.8134(2)
C7 C 0.1481(3) 0.71364(13) 1.0376(2)
C8 C 0.1123(4) 0.67924(14) 1.1496(2)
C9 C 0.0891(4) 0.71474(15) 1.2583(2)
H3 H 0.0733 0.6911 1.3317
S2F S 0.26294(14) 0.94504(4) 1.03421(8)
S3F S 0.05875(14) 0.90878(4) 1.15363(8)
C1F C 0.1695(3) 0.81433(13) 0.6952(2)
C2F C 0.1936(4) 0.88395(15) 0.6831(3)
H1F H 0.1989 0.9043 0.6058
C3F C 0.2098(4) 0.92287(14) 0.7893(3)
H2F H 0.2275 0.9698 0.7819
C4F C 0.2006(4) 0.89446(13) 0.9063(2)
C5F C 0.1672(3) 0.82397(13) 0.9213(2)
C6F C 0.1566(3) 0.78609(12) 0.8134(2)
C7F C 0.1481(3) 0.78636(13) 1.0376(2)
C8F C 0.1123(4) 0.82076(14) 1.1496(2)
C9F C 0.0891(4) 0.78526(15) 1.2583(2)
H3F H 0.0733 0.8089 1.3317
loop_
_geom_bond_atom_site_label_1
_geom_bond_atom_site_label_2
_geom_bond_site_symmetry_1
_geom_bond_site_symmetry_2
S1 C1 1_555 1_555
S2 S3 1_555 1_555
S3 C8 1_555 1_555
C1 C2 1_555 1_555
C2 H1 1_555 1_555
C3 C2 1_555 1_555
H2 C3 1_555 1_555
C4 S2 1_555 1_555
C5 C4 1_555 1_555
C6 C1 1_555 1_555
C7 C5 1_555 1_555
C8 C7 1_555 1_555
C9 C8 1_555 1_555
H3 C9 1_555 1_555
S2F S3F 1_555 1_555
S3F C8F 1_555 1_555
C1F S1 1_555 1_555
C2F C1F 1_555 1_555
H1F C2F 1_555 1_555
C3F C2F 1_555 1_555
H2F C3F 1_555 1_555
C4F S2F 1_555 1_555
C5F C4F 1_555 1_555
C6F C6 1_555 1_555
C7F C7 1_555 1_555
C8F C7F 1_555 1_555
C9F C9 1_555 1_555
H3F C9F 1_555 1_555
C3 C4 1_555 1_555
C5 C6 1_555 1_555
C1F C6F 1_555 1_555
C3F C4F 1_555 1_555
C5F C6F 1_555 1_555
C5F C7F 1_555 1_555
C8F C9F 1_555 1_555

#END
