
#######################################################################
#
#                 Cambridge Crystallographic Data Centre
#                                CCDC 
#
#######################################################################
#
# If this CIF has been generated from an entry in the Cambridge 
# Structural Database, then it will include bibliographic, chemical, 
# crystal, experimental, refinement or atomic coordinate data resulting 
# from the CCDC's data processing and validation procedures.
#
#######################################################################

data_NUDROV
_chemical_formula_moiety         'C20 H20 N1 P1 Se1'
_chemical_name_systematic        
'(R)-P,P-diphenyl-N-(1-phenylethyl)phosphinoselenoic amide'
_symmetry_cell_setting           triclinic
_symmetry_space_group_name_H-M   'P 1'
_symmetry_Int_Tables_number      1
_space_group_name_Hall           'P 1'
loop_
_symmetry_equiv_pos_site_id
_symmetry_equiv_pos_as_xyz
1 x,y,z
_cell_length_a                   6.0159(11)
_cell_length_b                   9.3867(17)
_cell_length_c                   9.5866(17)
_cell_angle_alpha                106.872(16)
_cell_angle_beta                 107.869(16)
_cell_angle_gamma                103.345(15)
_cell_volume                     461.65
_exptl_crystal_colour            colorless
_exptl_crystal_description       plates
_cell_formula_units_Z            1
loop_
_atom_site_label
_atom_site_type_symbol
_atom_site_fract_x
_atom_site_fract_y
_atom_site_fract_z
Se1 Se 0.4647 0.8027 0.6016
P1 P 0.6400(3) 0.82209(16) 0.44331(17)
C1 C 0.8858(11) 1.0133(7) 0.5188(8)
N1 N 0.7801(9) 0.6911(6) 0.3995(6)
H1 H 0.9219 0.7221 0.3937
C2 C 0.6651(12) 0.5253(7) 0.3709(8)
H2 H 0.4859 0.5026 0.3417
C3 C 0.5852(17) 0.1421(9) 0.0535(10)
H3 H 0.4845 0.0356 0.0109
C4 C 0.6984(12) 0.4124(7) 0.2358(7)
C5 C 0.5487(15) 0.2520(8) 0.1677(9)
H4 H 0.4220 0.2184 0.1999
C6 C 0.7671(18) 0.1882(10) 0.0024(10)
H5 H 0.7906 0.1139 -0.0749
C7 C 1.0482(15) 1.0833(9) 0.6774(10)
H6 H 1.0309 1.0327 0.7457
C8 C 1.1043(18) 1.2338(10) 0.4770(12)
H7 H 1.1227 1.2850 0.4094
C9 C 0.9137(14) 1.0882(9) 0.4169(9)
H8 H 0.8063 1.0416 0.3097
C10 C 1.2648(16) 1.3029(9) 0.6332(12)
H9 H 1.3929 1.3997 0.6710
C11 C 0.4169(11) 0.7995(7) 0.2534(7)
C12 C 0.2469(13) 0.8771(9) 0.2510(10)
H10 H 0.2460 0.9392 0.3459
C13 C 0.0782(16) 0.8620(13) 0.1070(12)
H11 H -0.0329 0.9165 0.1063
C14 C 0.0722(19) 0.7692(12) -0.0330(12)
H12 H -0.0460 0.7578 -0.1287
C15 C 0.4182(16) 0.7060(9) 0.1112(9)
H13 H 0.5330 0.6544 0.1122
C16 C 0.8805(14) 0.4584(8) 0.1824(9)
H14 H 0.9809 0.5648 0.2235
C17 C 1.2371(17) 1.2291(11) 0.7349(11)
H15 H 1.3447 1.2769 0.8419
C18 C 0.9148(17) 0.3452(11) 0.0663(11)
H16 H 1.0396 0.3773 0.0322
C19 C 0.771(2) 0.4945(10) 0.5241(10)
H17 H 0.9479 0.5196 0.5572
H18 H 0.6931 0.3847 0.5031
H19 H 0.7378 0.5602 0.6070
C20 C 0.243(2) 0.6909(11) -0.0339(10)
H20 H 0.2412 0.6290 -0.1299
loop_
_geom_bond_atom_site_label_1
_geom_bond_atom_site_label_2
_geom_bond_site_symmetry_1
_geom_bond_site_symmetry_2
Se1 P1 1_555 1_555
P1 C1 1_555 1_555
C1 C7 1_555 1_555
N1 P1 1_555 1_555
H1 N1 1_555 1_555
C2 N1 1_555 1_555
H2 C2 1_555 1_555
C3 H3 1_555 1_555
C4 C2 1_555 1_555
C5 C3 1_555 1_555
H4 C5 1_555 1_555
C6 C3 1_555 1_555
H5 C6 1_555 1_555
C7 H6 1_555 1_555
C8 H7 1_555 1_555
C9 C1 1_555 1_555
H8 C9 1_555 1_555
C10 C8 1_555 1_555
H9 C10 1_555 1_555
C11 P1 1_555 1_555
C12 C11 1_555 1_555
H10 C12 1_555 1_555
C13 C12 1_555 1_555
H11 C13 1_555 1_555
C14 C13 1_555 1_555
H12 C14 1_555 1_555
C15 C11 1_555 1_555
H13 C15 1_555 1_555
C16 C4 1_555 1_555
H14 C16 1_555 1_555
C17 C7 1_555 1_555
H15 C17 1_555 1_555
C18 C6 1_555 1_555
H16 C18 1_555 1_555
C19 C2 1_555 1_555
H17 C19 1_555 1_555
H18 C19 1_555 1_555
H19 C19 1_555 1_555
C20 C14 1_555 1_555
H20 C20 1_555 1_555
C4 C5 1_555 1_555
C8 C9 1_555 1_555
C10 C17 1_555 1_555
C15 C20 1_555 1_555
C16 C18 1_555 1_555

#END
