
#######################################################################
#
#                 Cambridge Crystallographic Data Centre
#                                CCDC 
#
#######################################################################
#
# If this CIF has been generated from an entry in the Cambridge 
# Structural Database, then it will include bibliographic, chemical, 
# crystal, experimental, refinement or atomic coordinate data resulting 
# from the CCDC's data processing and validation procedures.
#
#######################################################################

data_NUDSEL
_chemical_formula_moiety         'C19 H17 Br1 O3 S2'
_chemical_name_systematic        
(5-(2-Bromophenoxy)methyl)-3-methyl-2-(phenylsulfonylmethyl)thiophene
_symmetry_cell_setting           monoclinic
_symmetry_space_group_name_H-M   'P 21/n'
_symmetry_Int_Tables_number      14
_space_group_name_Hall           '-P 2yn'
loop_
_symmetry_equiv_pos_site_id
_symmetry_equiv_pos_as_xyz
1 x,y,z
2 1/2-x,1/2+y,1/2-z
3 -x,-y,-z
4 1/2+x,1/2-y,1/2+z
_cell_length_a                   5.4744(4)
_cell_length_b                   24.9708(17)
_cell_length_c                   13.4472(11)
_cell_angle_alpha                90
_cell_angle_beta                 91.662(2)
_cell_angle_gamma                90
_cell_volume                     1837.46
_exptl_crystal_colour            colorless
_exptl_crystal_description       platelet
_chemical_melting_point          141-142deg.C
_cell_formula_units_Z            4
loop_
_atom_site_label
_atom_site_type_symbol
_atom_site_fract_x
_atom_site_fract_y
_atom_site_fract_z
Br1 Br 0.69397(11) 0.55909(2) 0.99621(4)
S1 S 0.2819(2) 0.47346(5) 0.57490(9)
S2 S 0.1061(2) 0.33165(5) 0.56798(9)
O1 O 0.5714(5) 0.56487(11) 0.7825(2)
O2 O 0.3572(5) 0.34476(12) 0.5468(2)
O3 O -0.0227(5) 0.29455(12) 0.5040(2)
C1 C 0.8475(7) 0.60126(16) 0.8999(3)
C2 C 1.0442(8) 0.63248(19) 0.9269(3)
C3 C 1.1581(8) 0.6631(2) 0.8565(4)
C4 C 1.0731(8) 0.66223(18) 0.7601(4)
C5 C 0.8745(8) 0.63031(17) 0.7317(3)
C6 C 0.7612(7) 0.59914(17) 0.8024(3)
C7 C 0.5014(7) 0.55692(17) 0.6813(3)
C8 C 0.3120(7) 0.51306(16) 0.6782(3)
C9 C 0.1552(7) 0.49791(17) 0.7485(3)
C10 C 0.0025(7) 0.45410(16) 0.7192(3)
C11 C 0.0500(6) 0.43712(16) 0.6257(2)
C12 C -0.1888(7) 0.43063(17) 0.7852(3)
C13 C -0.0650(7) 0.39278(16) 0.5667(3)
C14 C 0.0935(7) 0.30887(16) 0.6908(3)
C15 C 0.2748(8) 0.32267(17) 0.7595(4)
C16 C 0.2623(9) 0.3048(2) 0.8558(4)
C17 C 0.0696(10) 0.2737(2) 0.8839(4)
C18 C -0.1109(9) 0.2606(2) 0.8168(4)
C19 C -0.1003(8) 0.27720(18) 0.7195(3)
H1 H 1.1010 0.6330 0.9928
H2 H 1.2920 0.6843 0.8746
H3 H 1.1487 0.6832 0.7128
H4 H 0.8182 0.6299 0.6658
H5 H 0.1475 0.5145 0.8103
H6 H 0.3848 0.3139 0.9022
H7 H 0.0626 0.2615 0.9491
H8 H -0.2428 0.2402 0.8369
H9 H -0.2219 0.2673 0.6734
H10 H 0.4049 0.3440 0.7406
H11 H 0.6420 0.5463 0.6436
H12 H 0.4328 0.5897 0.6535
H13 H -0.2330 0.4566 0.8341
H14 H -0.1243 0.3993 0.8179
H15 H -0.3307 0.4211 0.7455
H16 H -0.0845 0.4046 0.4982
H17 H -0.2242 0.3855 0.5934
loop_
_geom_bond_atom_site_label_1
_geom_bond_atom_site_label_2
_geom_bond_site_symmetry_1
_geom_bond_site_symmetry_2
Br1 C1 1_555 1_555
S1 C8 1_555 1_555
S2 O2 1_555 1_555
O1 C6 1_555 1_555
O3 S2 1_555 1_555
C1 C2 1_555 1_555
C2 C3 1_555 1_555
C3 C4 1_555 1_555
C4 C5 1_555 1_555
C5 C6 1_555 1_555
C6 C1 1_555 1_555
C7 O1 1_555 1_555
C8 C7 1_555 1_555
C9 C8 1_555 1_555
C10 C9 1_555 1_555
C11 S1 1_555 1_555
C12 C10 1_555 1_555
C13 S2 1_555 1_555
C14 S2 1_555 1_555
C15 C14 1_555 1_555
C16 C15 1_555 1_555
C17 C16 1_555 1_555
C18 C17 1_555 1_555
C19 C14 1_555 1_555
H1 C2 1_555 1_555
H2 C3 1_555 1_555
H3 C4 1_555 1_555
H4 C5 1_555 1_555
H5 C9 1_555 1_555
H6 C16 1_555 1_555
H7 C17 1_555 1_555
H8 C18 1_555 1_555
H9 C19 1_555 1_555
H10 C15 1_555 1_555
H11 C7 1_555 1_555
H12 C7 1_555 1_555
H13 C12 1_555 1_555
H14 C12 1_555 1_555
H15 C12 1_555 1_555
H16 C13 1_555 1_555
H17 C13 1_555 1_555
C10 C11 1_555 1_555
C11 C13 1_555 1_555
C18 C19 1_555 1_555

#END
