
#######################################################################
#
#                 Cambridge Crystallographic Data Centre
#                                CCDC 
#
#######################################################################
#
# If this CIF has been generated from an entry in the Cambridge 
# Structural Database, then it will include bibliographic, chemical, 
# crystal, experimental, refinement or atomic coordinate data resulting 
# from the CCDC's data processing and validation procedures.
#
#######################################################################

data_NUDSEM
_chemical_formula_moiety         'C48 H54 N2 O2 P2 Se2 Sr1'
_chemical_name_systematic        
'bis((R)-P,P-diphenyl-N-(1-phenylethyl)phosphinoselenoic amidato)-bis(tetrahydrofuran)-strontium'
_symmetry_cell_setting           monoclinic
_symmetry_space_group_name_H-M   'P 21'
_symmetry_Int_Tables_number      4
_space_group_name_Hall           'P 2yb'
loop_
_symmetry_equiv_pos_site_id
_symmetry_equiv_pos_as_xyz
1 x,y,z
2 -x,1/2+y,-z
_cell_length_a                   12.5000(7)
_cell_length_b                   14.6217(4)
_cell_length_c                   13.9074(8)
_cell_angle_alpha                90
_cell_angle_beta                 115.038(7)
_cell_angle_gamma                90
_cell_volume                     2303.01
_exptl_crystal_colour            colorless
_exptl_crystal_description       plates
_cell_formula_units_Z            2
loop_
_atom_site_label
_atom_site_type_symbol
_atom_site_fract_x
_atom_site_fract_y
_atom_site_fract_z
Sr1 Sr 0.70371(6) 0.75054(4) 0.29714(5)
Se1 Se 0.87423(8) 0.61050(6) 0.25674(7)
Se2 Se 0.53887(7) 0.86014(6) 0.38315(7)
P1 P 0.85898(17) 0.71688(14) 0.14501(15)
P2 P 0.70957(17) 0.92149(14) 0.47014(16)
O1 O 0.6942(6) 0.6151(4) 0.4120(5)
O2 O 0.5081(5) 0.6758(5) 0.1765(5)
N1 N 0.7755(6) 0.7964(5) 0.1559(6)
N2 N 0.8055(6) 0.8647(5) 0.4460(5)
C1 C 0.7509(7) 0.8787(6) 0.0864(6)
H1 H 0.7655 0.8628 0.0246
C2 C 0.8357(9) 0.9576(6) 0.1465(8)
H2 H 0.8148 1.0117 0.1034
H3 H 0.9153 0.9405 0.1615
H4 H 0.8295 0.9694 0.2119
C3 C 0.6242(8) 0.9042(6) 0.0482(7)
C4 C 0.5785(9) 0.9278(6) 0.1212(8)
H5 H 0.6283 0.9294 0.1933
C5 C 0.4590(11) 0.9489(7) 0.0869(11)
H6 H 0.4306 0.9657 0.1363
C6 C 0.3829(10) 0.9452(8) -0.0189(11)
H7 H 0.3031 0.9582 -0.0417
C7 C 0.4276(10) 0.9220(8) -0.0894(10)
H8 H 0.3769 0.9197 -0.1612
C8 C 0.5457(9) 0.9016(7) -0.0578(8)
H9 H 0.5727 0.8859 -0.1086
C9 C 0.8000(7) 0.6711(6) 0.0100(7)
C10 C 0.6815(9) 0.6839(7) -0.0544(7)
H10 H 0.6355 0.7165 -0.0284
C11 C 0.6289(10) 0.6491(8) -0.1576(8)
H11 H 0.5488 0.6573 -0.1999
C12 C 0.7006(10) 0.6016(8) -0.1954(8)
H12 H 0.6679 0.5785 -0.2642
C13 C 0.8170(10) 0.5887(7) -0.1329(9)
H13 H 0.8632 0.5573 -0.1598
C14 C 0.8683(8) 0.6214(7) -0.0301(7)
H14 H 0.9478 0.6105 0.0124
C15 C 1.0056(7) 0.7594(6) 0.1657(7)
C16 C 1.0988(8) 0.7574(6) 0.2657(7)
H15 H 1.0895 0.7276 0.3208
C17 C 1.2052(8) 0.7989(7) 0.2850(8)
H16 H 1.2680 0.7955 0.3519
C18 C 1.2174(9) 0.8459(8) 0.2027(9)
H17 H 1.2877 0.8762 0.2159
C19 C 1.1269(9) 0.8479(7) 0.1028(8)
H18 H 1.1365 0.8783 0.0482
C20 C 1.0203(8) 0.8043(7) 0.0833(7)
H19 H 0.9590 0.8052 0.0155
C21 C 0.9333(7) 0.8773(6) 0.5170(7)
H20 H 0.9471 0.9411 0.5405
C22 C 1.0052(8) 0.8555(8) 0.4527(7)
H21 H 0.9920 0.7931 0.4293
H22 H 1.0877 0.8646 0.4968
H23 H 0.9807 0.8953 0.3923
C23 C 0.9732(7) 0.8151(6) 0.6142(7)
C24 C 1.0375(9) 0.8469(8) 0.7144(7)
H24 H 1.0584 0.9084 0.7228
C25 C 1.0735(11) 0.7926(9) 0.8048(9)
H25 H 1.1183 0.8169 0.8718
C26 C 1.0414(10) 0.7029(10) 0.7925(10)
H26 H 1.0623 0.6657 0.8519
C27 C 0.9781(10) 0.6667(9) 0.6928(11)
H27 H 0.9579 0.6050 0.6852
C28 C 0.9444(9) 0.7223(7) 0.6036(9)
H28 H 0.9024 0.6975 0.5364
C29 C 0.7000(8) 1.0422(6) 0.4310(6)
C30 C 0.6269(8) 1.1024(6) 0.4535(7)
H29 H 0.5855 1.0818 0.4912
C31 C 0.6155(9) 1.1935(7) 0.4197(8)
H30 H 0.5669 1.2335 0.4349
C32 C 0.6766(10) 1.2226(7) 0.3643(8)
H31 H 0.6687 1.2829 0.3407
C33 C 0.7497(9) 1.1642(7) 0.3428(8)
H32 H 0.7908 1.1854 0.3050
C34 C 0.7630(8) 1.0734(7) 0.3770(8)
H33 H 0.8138 1.0344 0.3635
C35 C 0.7453(7) 0.9309(6) 0.6123(6)
C36 C 0.8136(8) 1.0018(6) 0.6713(7)
H34 H 0.8355 1.0484 0.6378
C37 C 0.8496(9) 1.0048(7) 0.7788(7)
H35 H 0.8951 1.0539 0.8170
C38 C 0.8205(10) 0.9376(7) 0.8312(8)
H36 H 0.8453 0.9406 0.9043
C39 C 0.7528(10) 0.8643(7) 0.7733(8)
H37 H 0.7333 0.8173 0.8080
C40 C 0.7139(9) 0.8610(7) 0.6633(8)
H38 H 0.6674 0.8125 0.6244
C41 C 0.6562(10) 0.6179(6) 0.4971(8)
H39 H 0.5745 0.6370 0.4707
H40 H 0.7049 0.6595 0.5527
C42 C 0.6711(11) 0.5213(7) 0.5373(10)
H41 H 0.7506 0.5114 0.5913
H42 H 0.6155 0.5079 0.5674
C43 C 0.6479(17) 0.4638(9) 0.4444(12)
H43 H 0.5639 0.4563 0.4010
H44 H 0.6847 0.4042 0.4643
C44 C 0.7074(17) 0.5227(8) 0.3879(13)
H45 H 0.7903 0.5071 0.4135
H46 H 0.6693 0.5127 0.3118
C45 C 0.4132(10) 0.6433(9) 0.2010(9)
H47 H 0.3978 0.6868 0.2463
H48 H 0.4341 0.5851 0.2377
C46 C 0.3076(10) 0.6329(9) 0.0993(9)
H49 H 0.2373 0.6552 0.1049
H50 H 0.2957 0.5695 0.0766
C47 C 0.3364(10) 0.6900(9) 0.0253(10)
H51 H 0.3160 0.7536 0.0286
H52 H 0.2951 0.6685 -0.0472
C48 C 0.4662(10) 0.6786(9) 0.0641(9)
H53 H 0.4848 0.6223 0.0375
H54 H 0.5005 0.7296 0.0424
loop_
_geom_bond_atom_site_label_1
_geom_bond_atom_site_label_2
_geom_bond_site_symmetry_1
_geom_bond_site_symmetry_2
Sr1 Se1 1_555 1_555
Se1 P1 1_555 1_555
Se2 Sr1 1_555 1_555
P1 N1 1_555 1_555
P2 Se2 1_555 1_555
O1 Sr1 1_555 1_555
O2 Sr1 1_555 1_555
N1 Sr1 1_555 1_555
N2 Sr1 1_555 1_555
C1 N1 1_555 1_555
H1 C1 1_555 1_555
C2 C1 1_555 1_555
H2 C2 1_555 1_555
H3 C2 1_555 1_555
H4 C2 1_555 1_555
C3 C1 1_555 1_555
C4 C3 1_555 1_555
H5 C4 1_555 1_555
C5 C4 1_555 1_555
H6 C5 1_555 1_555
C6 C5 1_555 1_555
H7 C6 1_555 1_555
C7 C6 1_555 1_555
H8 C7 1_555 1_555
C8 C3 1_555 1_555
H9 C8 1_555 1_555
C9 P1 1_555 1_555
C10 C9 1_555 1_555
H10 C10 1_555 1_555
C11 C10 1_555 1_555
H11 C11 1_555 1_555
C12 C11 1_555 1_555
H12 C12 1_555 1_555
C13 C12 1_555 1_555
H13 C13 1_555 1_555
C14 C9 1_555 1_555
H14 C14 1_555 1_555
C15 P1 1_555 1_555
C16 C15 1_555 1_555
H15 C16 1_555 1_555
C17 C16 1_555 1_555
H16 C17 1_555 1_555
C18 C17 1_555 1_555
H17 C18 1_555 1_555
C19 C18 1_555 1_555
H18 C19 1_555 1_555
C20 C15 1_555 1_555
H19 C20 1_555 1_555
C21 N2 1_555 1_555
H20 C21 1_555 1_555
C22 C21 1_555 1_555
H21 C22 1_555 1_555
H22 C22 1_555 1_555
H23 C22 1_555 1_555
C23 C21 1_555 1_555
C24 C23 1_555 1_555
H24 C24 1_555 1_555
C25 C24 1_555 1_555
H25 C25 1_555 1_555
C26 C25 1_555 1_555
H26 C26 1_555 1_555
C27 C26 1_555 1_555
H27 C27 1_555 1_555
C28 C23 1_555 1_555
H28 C28 1_555 1_555
C29 P2 1_555 1_555
C30 C29 1_555 1_555
H29 C30 1_555 1_555
C31 C30 1_555 1_555
H30 C31 1_555 1_555
C32 C31 1_555 1_555
H31 C32 1_555 1_555
C33 C32 1_555 1_555
H32 C33 1_555 1_555
C34 C29 1_555 1_555
H33 C34 1_555 1_555
C35 P2 1_555 1_555
C36 C35 1_555 1_555
H34 C36 1_555 1_555
C37 C36 1_555 1_555
H35 C37 1_555 1_555
C38 C37 1_555 1_555
H36 C38 1_555 1_555
C39 C38 1_555 1_555
H37 C39 1_555 1_555
C40 C35 1_555 1_555
H38 C40 1_555 1_555
C41 O1 1_555 1_555
H39 C41 1_555 1_555
H40 C41 1_555 1_555
C42 C41 1_555 1_555
H41 C42 1_555 1_555
H42 C42 1_555 1_555
C43 C42 1_555 1_555
H43 C43 1_555 1_555
H44 C43 1_555 1_555
C44 O1 1_555 1_555
H45 C44 1_555 1_555
H46 C44 1_555 1_555
C45 O2 1_555 1_555
H47 C45 1_555 1_555
H48 C45 1_555 1_555
C46 C45 1_555 1_555
H49 C46 1_555 1_555
H50 C46 1_555 1_555
C47 C46 1_555 1_555
H51 C47 1_555 1_555
H52 C47 1_555 1_555
C48 O2 1_555 1_555
H53 C48 1_555 1_555
H54 C48 1_555 1_555
P2 N2 1_555 1_555
C7 C8 1_555 1_555
C13 C14 1_555 1_555
C19 C20 1_555 1_555
C27 C28 1_555 1_555
C33 C34 1_555 1_555
C39 C40 1_555 1_555
C43 C44 1_555 1_555
C47 C48 1_555 1_555

#END
