
#######################################################################
#
#                 Cambridge Crystallographic Data Centre
#                                CCDC 
#
#######################################################################
#
# If this CIF has been generated from an entry in the Cambridge 
# Structural Database, then it will include bibliographic, chemical, 
# crystal, experimental, refinement or atomic coordinate data resulting 
# from the CCDC's data processing and validation procedures.
#
#######################################################################

data_NUDTIR
_chemical_formula_moiety         'C48 H60 B2 Ba1 N2 O2 P2'
_chemical_name_systematic        
bis((R)-N-(borane(diphenyl)phosphoranyl)-1-phenylethanamido)-bis(tetrahydrofuran)-barium
_symmetry_cell_setting           monoclinic
_symmetry_space_group_name_H-M   'P 21'
_symmetry_Int_Tables_number      4
_space_group_name_Hall           'P 2yb'
loop_
_symmetry_equiv_pos_site_id
_symmetry_equiv_pos_as_xyz
1 x,y,z
2 -x,1/2+y,-z
_cell_length_a                   13.1696(9)
_cell_length_b                   14.8039(4)
_cell_length_c                   13.7579(9)
_cell_angle_alpha                90
_cell_angle_beta                 117.394(9)
_cell_angle_gamma                90
_cell_volume                     2381.48
_exptl_crystal_colour            colorless
_exptl_crystal_description       block
_cell_formula_units_Z            2
loop_
_atom_site_label
_atom_site_type_symbol
_atom_site_fract_x
_atom_site_fract_y
_atom_site_fract_z
Ba1 Ba 0.913012(19) 0.42941(2) 0.711836(19)
P1 P 0.74825(10) 0.24938(8) 0.54909(10)
P2 P 1.20617(10) 0.47799(8) 0.82506(9)
O1 O 0.7751(4) 0.5717(3) 0.5959(4)
O2 O 0.8663(4) 0.4936(3) 0.8704(3)
N1 N 0.8478(3) 0.3112(3) 0.5470(3)
N2 N 1.1358(3) 0.3943(3) 0.8379(3)
B1 B 1.1035(5) 0.5633(4) 0.7206(5)
B2 B 0.6958(5) 0.2989(4) 0.6478(5)
C1 C 0.8787(4) 0.2999(3) 0.4568(4)
H1 H 0.8664 0.2366 0.4333
C2 C 1.0054(5) 0.3220(4) 0.4998(5)
H2 H 1.0207 0.3811 0.5322
H3 H 1.0245 0.3206 0.4403
H4 H 1.0506 0.2781 0.5538
C3 C 0.8056(5) 0.3592(4) 0.3589(4)
C4 C 0.7558(5) 0.3250(4) 0.2543(4)
H5 H 0.7693 0.2652 0.2429
C5 C 0.6852(7) 0.3787(6) 0.1646(6)
H6 H 0.6512 0.3539 0.0946
C6 C 0.6658(7) 0.4677(5) 0.1793(6)
H7 H 0.6189 0.5033 0.1197
C7 C 0.7171(6) 0.5036(4) 0.2840(5)
H8 H 0.7055 0.5640 0.2950
C8 C 0.7860(5) 0.4494(3) 0.3727(4)
H9 H 0.8196 0.4741 0.4427
C9 C 0.6277(4) 0.2365(3) 0.4127(4)
C10 C 0.6057(4) 0.1561(3) 0.3534(4)
H10 H 0.6505 0.1054 0.3853
C11 C 0.5174(5) 0.1511(4) 0.2470(4)
H11 H 0.5024 0.0969 0.2088
C12 C 0.4518(5) 0.2264(4) 0.1978(5)
H12 H 0.3939 0.2233 0.1261
C13 C 0.4728(5) 0.3069(4) 0.2559(5)
H13 H 0.4283 0.3575 0.2235
C14 C 0.5602(5) 0.3114(4) 0.3625(4)
H14 H 0.5739 0.3655 0.4009
C15 C 0.7959(4) 0.1336(3) 0.5913(4)
C16 C 0.7257(5) 0.0709(3) 0.6094(4)
H15 H 0.6513 0.0866 0.5936
C17 C 0.7678(6) -0.0146(4) 0.6508(5)
H16 H 0.7216 -0.0556 0.6633
C18 C 0.8782(6) -0.0389(4) 0.6736(5)
H17 H 0.9058 -0.0960 0.7013
C19 C 0.9468(5) 0.0211(4) 0.6552(5)
H18 H 1.0207 0.0045 0.6704
C20 C 0.9064(5) 0.1071(4) 0.6139(4)
H19 H 0.9535 0.1472 0.6013
C21 C 1.1950(4) 0.3150(3) 0.9071(4)
H20 H 1.2669 0.3353 0.9681
C22 C 1.2218(5) 0.2428(3) 0.8423(5)
H21 H 1.1521 0.2239 0.7808
H22 H 1.2574 0.1918 0.8888
H23 H 1.2727 0.2674 0.8168
C23 C 1.1184(4) 0.2781(3) 0.9527(4)
C24 C 1.0149(5) 0.2361(4) 0.8853(5)
H24 H 0.9934 0.2301 0.8111
C25 C 0.9429(6) 0.2030(4) 0.9250(6)
H25 H 0.8734 0.1770 0.8771
C26 C 0.9733(7) 0.2084(5) 1.0345(6)
H26 H 0.9257 0.1848 1.0614
C27 C 1.0760(6) 0.2495(5) 1.1049(5)
H27 H 1.0968 0.2543 1.1791
C28 C 1.1483(5) 0.2837(4) 1.0642(4)
H28 H 1.2172 0.3105 1.1120
C29 C 1.2898(4) 0.5388(3) 0.9543(4)
C30 C 1.2694(5) 0.5242(4) 1.0432(4)
H29 H 1.2161 0.4811 1.0390
C31 C 1.3287(6) 0.5743(4) 1.1392(5)
H30 H 1.3156 0.5641 1.1992
C32 C 1.4074(6) 0.6393(4) 1.1447(5)
H31 H 1.4470 0.6727 1.2085
C33 C 1.4268(5) 0.6544(4) 1.0559(5)
H32 H 1.4794 0.6979 1.0598
C34 C 1.3682(5) 0.6050(4) 0.9610(5)
H33 H 1.3811 0.6160 0.9010
C35 C 1.4258(4) 0.4137(3) 0.8695(4)
H34 H 1.4430 0.4147 0.9431
C36 C 1.5057(5) 0.3823(4) 0.8393(5)
H35 H 1.5761 0.3616 0.8925
C37 C 1.4819(5) 0.3815(4) 0.7297(5)
H36 H 1.5364 0.3608 0.7097
C38 C 1.3769(5) 0.4115(4) 0.6508(4)
H37 H 1.3612 0.4113 0.5776
C39 C 1.2944(4) 0.4420(4) 0.6793(4)
H38 H 1.2235 0.4609 0.6253
C40 C 1.3186(4) 0.4441(3) 0.7901(4)
C41 C 0.6531(6) 0.5766(6) 0.5456(8)
H39 H 0.6252 0.5522 0.5943
H40 H 0.6201 0.5419 0.4782
C42 C 0.6220(9) 0.6697(8) 0.5231(15)
H41 H 0.5616 0.6765 0.4488
H42 H 0.5942 0.6922 0.5728
C43 C 0.7198(9) 0.7189(7) 0.5371(14)
H43 H 0.7372 0.7651 0.5925
H44 H 0.7056 0.7481 0.4689
C44 C 0.8163(7) 0.6559(5) 0.5707(7)
H45 H 0.8367 0.6470 0.5121
H46 H 0.8826 0.6785 0.6347
C45 C 0.7589(5) 0.5326(5) 0.8553(5)
H47 H 0.6949 0.4974 0.8033
H48 H 0.7513 0.5941 0.8285
C46 C 0.7629(5) 0.5309(4) 0.9655(5)
H49 H 0.6877 0.5191 0.9593
H50 H 0.7910 0.5878 1.0034
C47 C 0.8448(5) 0.4543(6) 1.0250(5)
H51 H 0.8797 0.4620 1.1038
H52 H 0.8071 0.3960 1.0054
C48 C 0.9315(5) 0.4653(5) 0.9820(5)
H53 H 0.9883 0.5104 1.0240
H54 H 0.9701 0.4085 0.9860
H55 H 0.629(5) 0.249(4) 0.646(4)
H56 H 1.052(5) 0.529(4) 0.638(5)
H57 H 0.766(5) 0.310(4) 0.723(5)
H58 H 0.656(6) 0.358(5) 0.606(5)
H59 H 1.048(6) 0.586(5) 0.753(6)
H60 H 1.157(6) 0.619(5) 0.705(6)
loop_
_geom_bond_atom_site_label_1
_geom_bond_atom_site_label_2
_geom_bond_site_symmetry_1
_geom_bond_site_symmetry_2
Ba1 O1 1_555 1_555
P1 N1 1_555 1_555
P2 N2 1_555 1_555
O1 C41 1_555 1_555
O2 Ba1 1_555 1_555
N1 Ba1 1_555 1_555
N2 Ba1 1_555 1_555
B1 P2 1_555 1_555
B2 P1 1_555 1_555
C1 N1 1_555 1_555
H1 C1 1_555 1_555
C2 C1 1_555 1_555
H2 C2 1_555 1_555
H3 C2 1_555 1_555
H4 C2 1_555 1_555
C3 C1 1_555 1_555
C4 C3 1_555 1_555
H5 C4 1_555 1_555
C5 C4 1_555 1_555
H6 C5 1_555 1_555
C6 C5 1_555 1_555
H7 C6 1_555 1_555
C7 C6 1_555 1_555
H8 C7 1_555 1_555
C8 C3 1_555 1_555
H9 C8 1_555 1_555
C9 P1 1_555 1_555
C10 C9 1_555 1_555
H10 C10 1_555 1_555
C11 C10 1_555 1_555
H11 C11 1_555 1_555
C12 C11 1_555 1_555
H12 C12 1_555 1_555
C13 C12 1_555 1_555
H13 C13 1_555 1_555
C14 C9 1_555 1_555
H14 C14 1_555 1_555
C15 P1 1_555 1_555
C16 C15 1_555 1_555
H15 C16 1_555 1_555
C17 C16 1_555 1_555
H16 C17 1_555 1_555
C18 C17 1_555 1_555
H17 C18 1_555 1_555
C19 C18 1_555 1_555
H18 C19 1_555 1_555
C20 C15 1_555 1_555
H19 C20 1_555 1_555
C21 N2 1_555 1_555
H20 C21 1_555 1_555
C22 C21 1_555 1_555
H21 C22 1_555 1_555
H22 C22 1_555 1_555
H23 C22 1_555 1_555
C23 C21 1_555 1_555
C24 C23 1_555 1_555
H24 C24 1_555 1_555
C25 C24 1_555 1_555
H25 C25 1_555 1_555
C26 C25 1_555 1_555
H26 C26 1_555 1_555
C27 C26 1_555 1_555
H27 C27 1_555 1_555
C28 C23 1_555 1_555
H28 C28 1_555 1_555
C29 P2 1_555 1_555
C30 C29 1_555 1_555
H29 C30 1_555 1_555
C31 C30 1_555 1_555
H30 C31 1_555 1_555
C32 C31 1_555 1_555
H31 C32 1_555 1_555
C33 C32 1_555 1_555
H32 C33 1_555 1_555
C34 C29 1_555 1_555
H33 C34 1_555 1_555
C35 H34 1_555 1_555
C36 C35 1_555 1_555
H35 C36 1_555 1_555
C37 C36 1_555 1_555
H36 C37 1_555 1_555
C38 C37 1_555 1_555
H37 C38 1_555 1_555
C39 C38 1_555 1_555
H38 C39 1_555 1_555
C40 P2 1_555 1_555
C41 H39 1_555 1_555
H40 C41 1_555 1_555
C42 C41 1_555 1_555
H41 C42 1_555 1_555
H42 C42 1_555 1_555
C43 C42 1_555 1_555
H43 C43 1_555 1_555
H44 C43 1_555 1_555
C44 O1 1_555 1_555
H45 C44 1_555 1_555
H46 C44 1_555 1_555
C45 O2 1_555 1_555
H47 C45 1_555 1_555
H48 C45 1_555 1_555
C46 C45 1_555 1_555
H49 C46 1_555 1_555
H50 C46 1_555 1_555
C47 C46 1_555 1_555
H51 C47 1_555 1_555
H52 C47 1_555 1_555
C48 O2 1_555 1_555
H53 C48 1_555 1_555
H54 C48 1_555 1_555
H55 B2 1_555 1_555
H56 B1 1_555 1_555
H57 Ba1 1_555 1_555
H58 B2 1_555 1_555
H59 Ba1 1_555 1_555
H60 B1 1_555 1_555
B1 H59 1_555 1_555
B2 H57 1_555 1_555
C7 C8 1_555 1_555
C13 C14 1_555 1_555
C19 C20 1_555 1_555
C27 C28 1_555 1_555
C33 C34 1_555 1_555
C35 C40 1_555 1_555
C39 C40 1_555 1_555
C43 C44 1_555 1_555
C47 C48 1_555 1_555

#END
