
#######################################################################
#
#                 Cambridge Crystallographic Data Centre
#                                CCDC 
#
#######################################################################
#
# If this CIF has been generated from an entry in the Cambridge 
# Structural Database, then it will include bibliographic, chemical, 
# crystal, experimental, refinement or atomic coordinate data resulting 
# from the CCDC's data processing and validation procedures.
#
#######################################################################

data_NUDTOX
_chemical_formula_moiety         'C48 H60 B2 Ba1 N2 O2 P2'
_chemical_name_systematic        
bis((S)-N-(borane(diphenyl)phosphoranyl)-1-phenylethanamido)-bis(tetrahydrofuran)-barium
_symmetry_cell_setting           monoclinic
_symmetry_space_group_name_H-M   'P 21'
_symmetry_Int_Tables_number      4
_space_group_name_Hall           'P 2yb'
loop_
_symmetry_equiv_pos_site_id
_symmetry_equiv_pos_as_xyz
1 x,y,z
2 -x,1/2+y,-z
_cell_length_a                   13.1465(5)
_cell_length_b                   14.7929(3)
_cell_length_c                   13.7413(7)
_cell_angle_alpha                90
_cell_angle_beta                 117.316(5)
_cell_angle_gamma                90
_cell_volume                     2374.34
_exptl_crystal_colour            colorless
_exptl_crystal_description       plates
_cell_formula_units_Z            2
loop_
_atom_site_label
_atom_site_type_symbol
_atom_site_fract_x
_atom_site_fract_y
_atom_site_fract_z
Ba1 Ba 0.087276(16) 0.60138(2) 0.788701(16)
P1 P 0.25275(9) 0.78133(8) 0.95184(9)
P2 P -0.20602(9) 0.55291(7) 0.67499(8)
O1 O 0.1343(3) 0.5373(3) 0.6302(3)
O2 O 0.2253(3) 0.4573(3) 0.9043(3)
N1 N 0.1527(3) 0.7199(3) 0.9537(3)
N2 N -0.1354(3) 0.6367(2) 0.6620(3)
B1 B 0.3060(5) 0.7317(4) 0.8543(5)
B2 B -0.1038(5) 0.4675(4) 0.7792(4)
C1 C 0.1218(4) 0.7309(3) 1.0437(3)
H1 H 0.1340 0.7942 1.0676
C2 C -0.0058(4) 0.7085(4) 0.9994(4)
H2 H -0.0508 0.7529 0.9460
H3 H -0.0255 0.7089 1.0586
H4 H -0.0208 0.6498 0.9660
C3 C 0.1938(4) 0.6711(3) 1.1411(4)
C4 C 0.2149(5) 0.5809(3) 1.1285(4)
H5 H 0.1826 0.5559 1.0586
C5 C 0.2827(5) 0.5275(4) 1.2173(5)
H6 H 0.2941 0.4671 1.2062
C6 C 0.3333(6) 0.5620(5) 1.3212(5)
H7 H 0.3799 0.5260 1.3806
C7 C 0.3139(7) 0.6508(5) 1.3358(5)
H8 H 0.3472 0.6752 1.4060
C8 C 0.2447(5) 0.7054(4) 1.2467(4)
H9 H 0.2328 0.7655 1.2585
C9 C 0.3729(3) 0.7946(3) 1.0880(3)
C10 C 0.4399(4) 0.7191(4) 1.1377(4)
H10 H 0.4263 0.6651 1.0990
C11 C 0.5279(4) 0.7237(4) 1.2457(4)
H11 H 0.5723 0.6731 1.2788
C12 C 0.5481(4) 0.8045(4) 1.3026(4)
H12 H 0.6061 0.8080 1.3743
C13 C 0.4827(4) 0.8796(4) 1.2537(4)
H13 H 0.4976 0.9339 1.2920
C14 C 0.3945(4) 0.8747(3) 1.1474(4)
H14 H 0.3495 0.9254 1.1156
C15 C 0.2052(4) 0.8979(3) 0.9095(3)
C16 C 0.2746(5) 0.9602(4) 0.8912(4)
H15 H 0.3489 0.9445 0.9065
C17 C 0.2328(5) 1.0455(4) 0.8503(4)
H16 H 0.2792 1.0867 0.8382
C18 C 0.1232(5) 1.0694(4) 0.8276(4)
H17 H 0.0953 1.1264 0.7994
C19 C 0.0550(5) 1.0094(4) 0.8464(4)
H18 H -0.0186 1.0262 0.8324
C20 C 0.0949(4) 0.9243(4) 0.8859(4)
H19 H 0.0471 0.8838 0.8971
C21 C -0.1946(4) 0.7155(3) 0.5935(4)
H20 H -0.2665 0.6950 0.5326
C22 C -0.2218(5) 0.7887(3) 0.6574(4)
H21 H -0.2723 0.7643 0.6837
H22 H -0.2579 0.8391 0.6102
H23 H -0.1521 0.8084 0.7184
C23 C -0.1181(4) 0.7529(3) 0.5470(3)
C24 C -0.0144(4) 0.7942(3) 0.6151(4)
H24 H 0.0068 0.8007 0.6892
C25 C 0.0583(5) 0.8261(4) 0.5745(5)
H25 H 0.1288 0.8508 0.6222
C26 C 0.0266(6) 0.8214(5) 0.4644(6)
H26 H 0.0738 0.8450 0.4369
C27 C -0.0760(5) 0.7809(4) 0.3954(5)
H27 H -0.0973 0.7762 0.3210
C28 C -0.1479(5) 0.7473(4) 0.4357(4)
H28 H -0.2170 0.7206 0.3879
C29 C -0.3182(3) 0.5872(2) 0.7099(3)
C30 C -0.2952(4) 0.5889(3) 0.8198(3)
H29 H -0.2245 0.5693 0.8738
C31 C -0.3774(5) 0.6195(4) 0.8485(4)
H30 H -0.3618 0.6194 0.9217
C32 C -0.4819(5) 0.6501(3) 0.7699(5)
H31 H -0.5362 0.6712 0.7901
C33 C -0.5058(4) 0.6493(3) 0.6605(4)
H32 H -0.5761 0.6701 0.6072
C34 C -0.4250(4) 0.6177(3) 0.6307(3)
H33 H -0.4419 0.6167 0.5572
C35 C -0.2896(4) 0.4923(3) 0.5453(3)
C36 C -0.3683(4) 0.4261(4) 0.5387(4)
H34 H -0.3818 0.4159 0.5986
C37 C -0.4263(5) 0.3758(4) 0.4448(4)
H35 H -0.4778 0.3314 0.4414
C38 C -0.4068(5) 0.3925(4) 0.3547(4)
H36 H -0.4472 0.3603 0.2900
C39 C -0.3282(5) 0.4560(4) 0.3616(4)
H37 H -0.3141 0.4655 0.3019
C40 C -0.2687(4) 0.5068(4) 0.4570(4)
H38 H -0.2155 0.5499 0.4609
C41 C 0.0683(5) 0.5653(5) 0.5177(5)
H39 H 0.0298 0.6222 0.5134
H40 H 0.0114 0.5200 0.4763
C42 C 0.1537(5) 0.5754(6) 0.4749(5)
H41 H 0.1904 0.6342 0.4928
H42 H 0.1185 0.5666 0.3962
C43 C 0.2382(5) 0.4997(4) 0.5356(4)
H43 H 0.2115 0.4422 0.4988
H44 H 0.3133 0.5125 0.5418
C44 C 0.2410(4) 0.4994(4) 0.6448(4)
H45 H 0.2496 0.4382 0.6728
H46 H 0.3047 0.5355 0.6962
C45 C 0.1836(6) 0.3731(5) 0.9289(6)
H47 H 0.1619 0.3819 0.9868
H48 H 0.1184 0.3498 0.8645
C46 C 0.2813(8) 0.3127(6) 0.9638(14)
H49 H 0.2936 0.2821 1.0308
H50 H 0.2665 0.2674 0.9080
C47 C 0.3770(8) 0.3614(8) 0.9814(13)
H51 H 0.4102 0.3371 0.9368
H52 H 0.4334 0.3566 1.0577
C48 C 0.3472(6) 0.4534(6) 0.9541(7)
H53 H 0.3748 0.4745 0.9037
H54 H 0.3804 0.4908 1.0194
H55 H 0.230(4) 0.724(3) 0.773(4)
H56 H 0.365(5) 0.775(4) 0.855(4)
H57 H 0.346(4) 0.667(4) 0.881(4)
H58 H -0.043(4) 0.435(4) 0.743(4)
H59 H -0.149(5) 0.425(4) 0.791(5)
H60 H -0.046(5) 0.512(4) 0.860(4)
loop_
_geom_bond_atom_site_label_1
_geom_bond_atom_site_label_2
_geom_bond_site_symmetry_1
_geom_bond_site_symmetry_2
Ba1 O1 1_555 1_555
P1 N1 1_555 1_555
P2 N2 1_555 1_555
O1 C41 1_555 1_555
O2 Ba1 1_555 1_555
N1 Ba1 1_555 1_555
N2 Ba1 1_555 1_555
B1 P1 1_555 1_555
B2 P2 1_555 1_555
C1 N1 1_555 1_555
H1 C1 1_555 1_555
C2 C1 1_555 1_555
H2 C2 1_555 1_555
H3 C2 1_555 1_555
H4 C2 1_555 1_555
C3 C1 1_555 1_555
C4 C3 1_555 1_555
H5 C4 1_555 1_555
C5 C4 1_555 1_555
H6 C5 1_555 1_555
C6 C5 1_555 1_555
H7 C6 1_555 1_555
C7 C6 1_555 1_555
H8 C7 1_555 1_555
C8 C3 1_555 1_555
H9 C8 1_555 1_555
C9 P1 1_555 1_555
C10 C9 1_555 1_555
H10 C10 1_555 1_555
C11 C10 1_555 1_555
H11 C11 1_555 1_555
C12 C11 1_555 1_555
H12 C12 1_555 1_555
C13 C12 1_555 1_555
H13 C13 1_555 1_555
C14 C9 1_555 1_555
H14 C14 1_555 1_555
C15 P1 1_555 1_555
C16 C15 1_555 1_555
H15 C16 1_555 1_555
C17 C16 1_555 1_555
H16 C17 1_555 1_555
C18 C17 1_555 1_555
H17 C18 1_555 1_555
C19 C18 1_555 1_555
H18 C19 1_555 1_555
C20 C15 1_555 1_555
H19 C20 1_555 1_555
C21 N2 1_555 1_555
H20 C21 1_555 1_555
C22 C21 1_555 1_555
H21 C22 1_555 1_555
H22 C22 1_555 1_555
H23 C22 1_555 1_555
C23 C21 1_555 1_555
C24 C23 1_555 1_555
H24 C24 1_555 1_555
C25 C24 1_555 1_555
H25 C25 1_555 1_555
C26 C25 1_555 1_555
H26 C26 1_555 1_555
C27 C26 1_555 1_555
H27 C27 1_555 1_555
C28 C23 1_555 1_555
H28 C28 1_555 1_555
C29 P2 1_555 1_555
C30 C29 1_555 1_555
H29 C30 1_555 1_555
C31 C30 1_555 1_555
H30 C31 1_555 1_555
C32 C31 1_555 1_555
H31 C32 1_555 1_555
C33 C32 1_555 1_555
H32 C33 1_555 1_555
C34 C29 1_555 1_555
H33 C34 1_555 1_555
C35 P2 1_555 1_555
C36 C35 1_555 1_555
H34 C36 1_555 1_555
C37 C36 1_555 1_555
H35 C37 1_555 1_555
C38 C37 1_555 1_555
H36 C38 1_555 1_555
C39 C38 1_555 1_555
H37 C39 1_555 1_555
C40 C35 1_555 1_555
H38 C40 1_555 1_555
C41 H39 1_555 1_555
H40 C41 1_555 1_555
C42 C41 1_555 1_555
H41 C42 1_555 1_555
H42 C42 1_555 1_555
C43 C42 1_555 1_555
H43 C43 1_555 1_555
H44 C43 1_555 1_555
C44 O1 1_555 1_555
H45 C44 1_555 1_555
H46 C44 1_555 1_555
C45 O2 1_555 1_555
H47 C45 1_555 1_555
H48 C45 1_555 1_555
C46 C45 1_555 1_555
H49 C46 1_555 1_555
H50 C46 1_555 1_555
C47 C46 1_555 1_555
H51 C47 1_555 1_555
H52 C47 1_555 1_555
C48 O2 1_555 1_555
H53 C48 1_555 1_555
H54 C48 1_555 1_555
H55 Ba1 1_555 1_555
H56 B1 1_555 1_555
H57 B1 1_555 1_555
H58 B2 1_555 1_555
H59 B2 1_555 1_555
H60 Ba1 1_555 1_555
B1 H55 1_555 1_555
B2 H60 1_555 1_555
C7 C8 1_555 1_555
C13 C14 1_555 1_555
C19 C20 1_555 1_555
C27 C28 1_555 1_555
C33 C34 1_555 1_555
C39 C40 1_555 1_555
C43 C44 1_555 1_555
C47 C48 1_555 1_555

#END
