
#######################################################################
#
#                 Cambridge Crystallographic Data Centre
#                                CCDC 
#
#######################################################################
#
# If this CIF has been generated from an entry in the Cambridge 
# Structural Database, then it will include bibliographic, chemical, 
# crystal, experimental, refinement or atomic coordinate data resulting 
# from the CCDC's data processing and validation procedures.
#
#######################################################################

data_NUDWOZ
_chemical_formula_moiety         'C25 H22 O9'
_chemical_name_systematic        
7,11-bis(1,3-Benzodioxol-5-yl)-3,3-dimethyl-2,4-dioxaspiro[5.5]undecane-1,5,9-trione
_symmetry_cell_setting           monoclinic
_symmetry_space_group_name_H-M   'P 21/c'
_symmetry_Int_Tables_number      14
_space_group_name_Hall           '-P 2ybc'
loop_
_symmetry_equiv_pos_site_id
_symmetry_equiv_pos_as_xyz
1 x,y,z
2 -x,1/2+y,1/2-z
3 -x,-y,-z
4 x,1/2-y,1/2+z
_cell_length_a                   6.8061(8)
_cell_length_b                   22.230(3)
_cell_length_c                   14.9656(16)
_cell_angle_alpha                90
_cell_angle_beta                 99.243(2)
_cell_angle_gamma                90
_cell_volume                     2234.89
_cell_formula_units_Z            4
loop_
_atom_site_label
_atom_site_type_symbol
_atom_site_fract_x
_atom_site_fract_y
_atom_site_fract_z
O1 O 0.0718(7) 0.6207(3) 0.7673(3)
O2 O 0.3483(10) 0.5555(3) 0.7770(4)
O3 O 0.158(3) 0.7248(8) 0.7922(14)
O4 O 0.6480(16) 0.5700(5) 0.8171(7)
O5 O 0.7268(9) 0.8220(3) 0.8259(4)
O6 O 0.0137(10) 0.6728(2) 1.1060(4)
O7 O 0.1819(9) 0.5932(3) 1.1848(3)
O8 O 0.6138(10) 0.5650(3) 0.4665(6)
O9 O 0.2856(11) 0.5763(3) 0.3894(4)
C1 C 0.1828(16) 0.6695(5) 0.7844(5)
C2 C 0.4121(14) 0.6639(4) 0.8016(5)
C3 C 0.4782(16) 0.5971(5) 0.8031(5)
C4 C 0.1442(12) 0.5597(3) 0.7819(6)
C5 C 0.1036(10) 0.5394(3) 0.8727(5)
H1 H 0.1527 0.4992 0.8841
H2 H -0.0372 0.5401 0.8733
H3 H 0.1693 0.5658 0.9187
C6 C 0.0438(14) 0.5244(4) 0.7046(6)
H4 H 0.0615 0.5438 0.6491
H5 H -0.0957 0.5217 0.7077
H6 H 0.1001 0.4848 0.7065
C7 C 0.536(4) 0.6794(12) 0.8962(15)
H7 H 0.6663 0.6594 0.9050
C8 C 0.558(9) 0.748(4) 0.900(6)
H8 H 0.4290 0.7655 0.9022
H9 H 0.6458 0.7586 0.9551
C9 C 0.6403(13) 0.7749(4) 0.8199(6)
C10 C 0.537(7) 0.750(3) 0.731(5)
H10 H 0.6014 0.7661 0.6826
H11 H 0.3999 0.7644 0.7207
C11 C 0.538(4) 0.6816(12) 0.7276(17)
H12 H 0.6739 0.6654 0.7407
C12 C 0.4219(17) 0.6659(5) 0.9747(6)
C13 C 0.2424(16) 0.6862(4) 0.9963(6)
H13 H 0.1712 0.7169 0.9635
C14 C 0.1733(17) 0.6591(5) 1.0685(7)
C15 C 0.2695(16) 0.6131(5) 1.1163(6)
C16 C 0.4451(15) 0.5895(5) 1.0977(6)
H14 H 0.5130 0.5581 1.1303
C17 C 0.5129(15) 0.6185(5) 1.0219(7)
H15 H 0.6281 0.6037 1.0039
C18 C 0.0290(15) 0.6370(5) 1.1881(6)
H16 H 0.0628 0.6624 1.2411
H17 H -0.0968 0.6172 1.1914
C19 C 0.4331(18) 0.6647(4) 0.6309(6)
C20 C 0.5683(14) 0.6282(4) 0.5948(6)
H18 H 0.6971 0.6227 0.6255
C21 C 0.5066(18) 0.6007(4) 0.5133(7)
C22 C 0.3167(18) 0.6083(4) 0.4683(6)
C23 C 0.1716(16) 0.6434(4) 0.4979(7)
H19 H 0.0436 0.6492 0.4664
C24 C 0.2470(17) 0.6692(3) 0.5832(7)
H20 H 0.1574 0.6920 0.6097
C25 C 0.482(2) 0.5523(4) 0.3817(7)
H21 H 0.4741 0.5093 0.3709
H22 H 0.5325 0.5713 0.3316
C26? C 0.622(9) 0.739(4) 0.731(7)
C27? C 0.427(6) 0.7034(16) 0.716(2)
C28? C 0.428(6) 0.7048(17) 0.888(2)
C29? C 0.625(14) 0.739(6) 0.902(8)
H23? H 0.6248 0.7667 0.6810
H24? H 0.7342 0.7120 0.7336
H25? H 0.3142 0.7312 0.7052
H26? H 0.3176 0.7335 0.8802
H27? H 0.6313 0.7657 0.9539
H28? H 0.7355 0.7111 0.9137
O10? O 0.048(3) 0.7099(8) 0.7738(14)
O11? O 0.657(2) 0.6131(7) 0.8201(10)
loop_
_geom_bond_atom_site_label_1
_geom_bond_atom_site_label_2
_geom_bond_site_symmetry_1
_geom_bond_site_symmetry_2
O1 C1 1_555 1_555
O2 C3 1_555 1_555
O3 C1 1_555 1_555
O4 C3 1_555 1_555
O5 C9 1_555 1_555
O6 C14 1_555 1_555
O7 C15 1_555 1_555
O8 C21 1_555 1_555
O9 C22 1_555 1_555
C1 C2 1_555 1_555
C2 C3 1_555 1_555
C4 O1 1_555 1_555
C5 C4 1_555 1_555
H1 C5 1_555 1_555
H2 C5 1_555 1_555
H3 C5 1_555 1_555
C6 C4 1_555 1_555
H4 C6 1_555 1_555
H5 C6 1_555 1_555
H6 C6 1_555 1_555
C7 C2 1_555 1_555
H7 C7 1_555 1_555
C8 C7 1_555 1_555
H8 C8 1_555 1_555
H9 C8 1_555 1_555
C9 C8 1_555 1_555
C10 C9 1_555 1_555
H10 C10 1_555 1_555
H11 C10 1_555 1_555
C11 C2 1_555 1_555
H12 C11 1_555 1_555
C12 C7 1_555 1_555
C13 C12 1_555 1_555
H13 C13 1_555 1_555
C14 C13 1_555 1_555
C15 C14 1_555 1_555
C16 C15 1_555 1_555
H14 C16 1_555 1_555
C17 C12 1_555 1_555
H15 C17 1_555 1_555
C18 O6 1_555 1_555
H16 C18 1_555 1_555
H17 C18 1_555 1_555
C19 C11 1_555 1_555
C20 C19 1_555 1_555
H18 C20 1_555 1_555
C21 C20 1_555 1_555
C22 C21 1_555 1_555
C23 C22 1_555 1_555
H19 C23 1_555 1_555
C24 C19 1_555 1_555
H20 C24 1_555 1_555
C25 O8 1_555 1_555
H21 C25 1_555 1_555
H22 C25 1_555 1_555
O2 C4 1_555 1_555
O7 C18 1_555 1_555
O9 C25 1_555 1_555
C10 C11 1_555 1_555
C16 C17 1_555 1_555
C23 C24 1_555 1_555

#END
