
#######################################################################
#
#                 Cambridge Crystallographic Data Centre
#                                CCDC 
#
#######################################################################
#
# If this CIF has been generated from an entry in the Cambridge 
# Structural Database, then it will include bibliographic, chemical, 
# crystal, experimental, refinement or atomic coordinate data resulting 
# from the CCDC's data processing and validation procedures.
#
#######################################################################

data_NUDYIV
_chemical_formula_moiety         'C20 H12 N2 S2,C1 H1 Cl3'
_chemical_name_systematic        
'3,8-bis(2-Thienyl)-1,10-phenanthroline chloroform solvate'
_symmetry_cell_setting           triclinic
_symmetry_space_group_name_H-M   'P -1'
_symmetry_Int_Tables_number      2
_space_group_name_Hall           '-P 1'
loop_
_symmetry_equiv_pos_site_id
_symmetry_equiv_pos_as_xyz
1 x,y,z
2 -x,-y,-z
_cell_length_a                   6.1555(12)
_cell_length_b                   10.669(2)
_cell_length_c                   15.351(3)
_cell_angle_alpha                85.60(3)
_cell_angle_beta                 88.08(2)
_cell_angle_gamma                75.64(3)
_cell_volume                     973.661
_exptl_crystal_colour            yellow
_exptl_crystal_description       needle
_cell_formula_units_Z            2
_exptl_crystal_recrystallization_method chloroform/acetone
loop_
_atom_site_label
_atom_site_type_symbol
_atom_site_fract_x
_atom_site_fract_y
_atom_site_fract_z
C1 C -0.0264(8) 0.3588(5) 0.8396(3)
H1 H -0.1214 0.4401 0.8527
C2 C -0.0909(8) 0.2468(5) 0.8721(3)
C3 C 0.0458(8) 0.1289(5) 0.8514(3)
H2 H 0.0069 0.0504 0.8707
C4 C 0.2421(8) 0.1256(5) 0.8015(3)
C5 C 0.3862(8) 0.0055(5) 0.7767(3)
H3 H 0.3489 -0.0740 0.7943
C6 C 0.5752(8) 0.0046(5) 0.7284(3)
H4 H 0.6700 -0.0758 0.7132
C7 C 0.6337(8) 0.1231(5) 0.6998(3)
C8 C 0.8261(8) 0.1247(5) 0.6484(3)
H5 H 0.9218 0.0458 0.6314
C9 C 0.8755(8) 0.2411(5) 0.6228(3)
C10 C 0.7283(8) 0.3538(5) 0.6514(3)
H6 H 0.7636 0.4342 0.6349
C11 C 0.4947(8) 0.2424(5) 0.7227(3)
C12 C 0.2911(8) 0.2439(5) 0.7734(3)
C13 C -0.2953(8) 0.2576(5) 0.9260(3)
C14 C -0.4659(8) 0.3649(5) 0.9386(3)
H7 H -0.4689 0.4489 0.9123
C15 C -0.6396(8) 0.3370(5) 0.9957(3)
H8 H -0.7706 0.4001 1.0112
C16 C -0.5952(8) 0.2100(5) 1.0252(3)
H9 H -0.6912 0.1741 1.0639
C17 C 1.0732(8) 0.2503(5) 0.5679(3)
C18 C 1.1672(8) 0.3530(5) 0.5523(3)
H10 H 1.1118 0.4342 0.5768
C19 C 1.3582(8) 0.3251(5) 0.4952(3)
H11 H 1.4432 0.3859 0.4773
C20 C 1.4050(8) 0.2032(5) 0.4694(3)
H12 H 1.5269 0.1681 0.4316
N1 N 0.1554(6) 0.3603(4) 0.7923(3)
N2 N 0.5455(7) 0.3572(4) 0.6990(3)
S1 S -0.3472(2) 0.12213(13) 0.98464(9)
S2 S 1.2193(2) 0.11963(13) 0.51252(9)
C21 C 0.7320(8) 0.3689(5) 0.2443(3)
H13 H 0.7166 0.4646 0.2424
Cl1 Cl 0.8806(2) 0.29613(14) 0.33885(9)
Cl2 Cl 0.4604(2) 0.34050(12) 0.24748(8)
Cl3 Cl 0.8784(2) 0.30881(13) 0.14899(9)
loop_
_geom_bond_atom_site_label_1
_geom_bond_atom_site_label_2
_geom_bond_site_symmetry_1
_geom_bond_site_symmetry_2
C1 H1 1_555 1_555
C2 C1 1_555 1_555
C3 C2 1_555 1_555
H2 C3 1_555 1_555
C4 C3 1_555 1_555
C5 C4 1_555 1_555
H3 C5 1_555 1_555
C6 C5 1_555 1_555
H4 C6 1_555 1_555
C7 C6 1_555 1_555
C8 C7 1_555 1_555
H5 C8 1_555 1_555
C9 C8 1_555 1_555
C10 C9 1_555 1_555
H6 C10 1_555 1_555
C11 C7 1_555 1_555
C12 C4 1_555 1_555
C13 C2 1_555 1_555
C14 C13 1_555 1_555
H7 C14 1_555 1_555
C15 C14 1_555 1_555
H8 C15 1_555 1_555
C16 C15 1_555 1_555
H9 C16 1_555 1_555
C17 C9 1_555 1_555
C18 C17 1_555 1_555
H10 C18 1_555 1_555
C19 C18 1_555 1_555
H11 C19 1_555 1_555
C20 C19 1_555 1_555
H12 C20 1_555 1_555
C21 H13 1_555 1_555
Cl1 C21 1_555 1_555
Cl2 C21 1_555 1_555
Cl3 C21 1_555 1_555
N1 C1 1_555 1_555
N2 C10 1_555 1_555
S1 C13 1_555 1_555
S2 C17 1_555 1_555
C11 C12 1_555 1_555
C11 N2 1_555 1_555
C12 N1 1_555 1_555
C16 S1 1_555 1_555
C20 S2 1_555 1_555

#END
