
#######################################################################
#
#                 Cambridge Crystallographic Data Centre
#                                CCDC 
#
#######################################################################
#
# If this CIF has been generated from an entry in the Cambridge 
# Structural Database, then it will include bibliographic, chemical, 
# crystal, experimental, refinement or atomic coordinate data resulting 
# from the CCDC's data processing and validation procedures.
#
#######################################################################

data_NUDZIX
_chemical_formula_moiety         'C16 H11 Cl1 N4 O4'
_chemical_name_systematic        
'2-nitrophenyl 1-(2-chlorophenyl)-5-methyl-1H-1,2,3-triazole-4-carboxylate'
_symmetry_cell_setting           orthorhombic
_symmetry_space_group_name_H-M   'P 21 21 21'
_symmetry_Int_Tables_number      19
_space_group_name_Hall           'P 2ac 2ab'
loop_
_symmetry_equiv_pos_site_id
_symmetry_equiv_pos_as_xyz
1 x,y,z
2 1/2-x,-y,1/2+z
3 -x,1/2+y,1/2-z
4 1/2+x,1/2-y,-z
_cell_length_a                   6.9665(8)
_cell_length_b                   12.8734(13)
_cell_length_c                   17.612(2)
_cell_angle_alpha                90
_cell_angle_beta                 90
_cell_angle_gamma                90
_cell_volume                     1579.49
_exptl_crystal_colour            colorless
_exptl_crystal_description       Prism
_cell_formula_units_Z            4
loop_
_atom_site_label
_atom_site_type_symbol
_atom_site_fract_x
_atom_site_fract_y
_atom_site_fract_z
Cl1 Cl 0.65615(6) 0.32617(3) 0.14209(3)
N1 N 0.22892(18) 0.33043(11) 0.16817(7)
N2 N 0.1699(2) 0.38794(11) 0.22875(8)
N3 N 0.0880(2) 0.47106(11) 0.20159(8)
N4 N -0.3509(3) 0.52234(12) -0.04232(10)
O1 O -0.10368(17) 0.61520(10) 0.10551(7)
O2 O 0.05141(18) 0.54571(9) 0.00518(7)
O3 O -0.2771(3) 0.44571(11) -0.01413(9)
O4 O -0.5195(3) 0.52796(16) -0.05557(18)
C1 C 0.2257(3) 0.32996(13) 0.02593(9)
H1 H 0.3522 0.3529 0.0082
H2 H 0.1274 0.3519 -0.0105
H3 H 0.2245 0.2541 0.0304
C2 C 0.1849(2) 0.37692(12) 0.10115(9)
C3 C 0.0945(2) 0.46743(12) 0.12371(9)
C4 C 0.0017(2) 0.55065(12) 0.07991(9)
C5 C -0.0381(3) 0.61812(13) -0.04258(9)
C6 C -0.2283(2) 0.60910(13) -0.06624(10)
C7 C -0.3083(2) 0.68051(13) -0.11614(9)
H4 H -0.4382 0.6740 -0.1318
C8 C -0.1957(3) 0.76149(13) -0.14270(9)
H5 H -0.2487 0.8110 -0.1767
C9 C -0.0059(3) 0.77058(14) -0.11982(10)
H6 H 0.0709 0.8260 -0.1384
C10 C 0.0717(3) 0.69879(13) -0.06979(10)
H7 H 0.2017 0.7053 -0.0542
C11 C 0.3206(2) 0.23213(12) 0.18026(8)
C12 C 0.5162(2) 0.22027(13) 0.16714(9)
C13 C 0.6017(2) 0.12296(14) 0.17622(9)
H8 H 0.7345 0.1140 0.1660
C14 C 0.4919(3) 0.03985(14) 0.20016(10)
H9 H 0.5489 -0.0268 0.2054
C15 C 0.2991(3) 0.05338(14) 0.21653(10)
H10 H 0.2265 -0.0034 0.2356
C16 C 0.2114(3) 0.14784(13) 0.20551(9)
H11 H 0.0780 0.1558 0.2150
loop_
_geom_bond_atom_site_label_1
_geom_bond_atom_site_label_2
_geom_bond_site_symmetry_1
_geom_bond_site_symmetry_2
Cl1 C12 1_555 1_555
N1 N2 1_555 1_555
N2 N3 1_555 1_555
N3 C3 1_555 1_555
N4 O3 1_555 1_555
O1 C4 1_555 1_555
O2 C4 1_555 1_555
O4 N4 1_555 1_555
C1 H1 1_555 1_555
H2 C1 1_555 1_555
H3 C1 1_555 1_555
C2 N1 1_555 1_555
C3 C2 1_555 1_555
C4 C3 1_555 1_555
C5 O2 1_555 1_555
C6 N4 1_555 1_555
C7 C6 1_555 1_555
H4 C7 1_555 1_555
C8 C7 1_555 1_555
H5 C8 1_555 1_555
C9 C8 1_555 1_555
H6 C9 1_555 1_555
C10 C5 1_555 1_555
H7 C10 1_555 1_555
C11 N1 1_555 1_555
C12 C11 1_555 1_555
C13 C12 1_555 1_555
H8 C13 1_555 1_555
C14 C13 1_555 1_555
H9 C14 1_555 1_555
C15 C14 1_555 1_555
H10 C15 1_555 1_555
C16 C11 1_555 1_555
H11 C16 1_555 1_555
C1 C2 1_555 1_555
C5 C6 1_555 1_555
C9 C10 1_555 1_555
C15 C16 1_555 1_555

#END
