
#######################################################################
#
#                 Cambridge Crystallographic Data Centre
#                                CCDC 
#
#######################################################################
#
# If this CIF has been generated from an entry in the Cambridge 
# Structural Database, then it will include bibliographic, chemical, 
# crystal, experimental, refinement or atomic coordinate data resulting 
# from the CCDC's data processing and validation procedures.
#
#######################################################################

data_NUFCEY
_chemical_formula_moiety         'C28 H23 N1 O2'
_chemical_name_systematic        
'ethyl 2-methyl-1,5-diphenyl-4-(phenylethynyl)-1H-pyrrole-3-carboxylate'
_symmetry_cell_setting           monoclinic
_symmetry_space_group_name_H-M   'P 21/c'
_symmetry_Int_Tables_number      14
_space_group_name_Hall           '-P 2ybc'
loop_
_symmetry_equiv_pos_site_id
_symmetry_equiv_pos_as_xyz
1 x,y,z
2 -x,1/2+y,1/2-z
3 -x,-y,-z
4 x,1/2-y,1/2+z
_cell_length_a                   11.5662(7)
_cell_length_b                   10.3707(7)
_cell_length_c                   18.8464(12)
_cell_angle_alpha                90
_cell_angle_beta                 106.582(7)
_cell_angle_gamma                90
_cell_volume                     2166.6
_exptl_crystal_colour            colorless
_exptl_crystal_description       block
_cell_formula_units_Z            4
loop_
_atom_site_label
_atom_site_type_symbol
_atom_site_fract_x
_atom_site_fract_y
_atom_site_fract_z
O1 O 0.72900(10) 0.74207(15) 0.04206(8)
O2 O 0.59291(10) 0.63837(13) -0.04740(7)
N1 N 0.33340(11) 0.81828(13) 0.03024(7)
C1 C 0.40917(13) 0.88416(16) 0.08965(8)
C2 C 0.52615(13) 0.85739(16) 0.08988(8)
C3 C 0.52049(13) 0.77259(16) 0.02886(8)
C4 C 0.40028(13) 0.75136(16) -0.00703(8)
C5 C 0.36771(14) 0.96003(16) 0.14361(8)
C6 C 0.41307(16) 1.08312(17) 0.16319(9)
H1 H 0.4650 1.1201 0.1393
C7 C 0.38129(19) 1.15098(19) 0.21805(11)
H2 H 0.4127 1.2330 0.2310
C8 C 0.30401(18) 1.0987(2) 0.25357(10)
H3 H 0.2832 1.1448 0.2904
C9 C 0.25782(18) 0.9779(2) 0.23431(10)
H4 H 0.2048 0.9423 0.2579
C10 C 0.28957(15) 0.90851(18) 0.17995(9)
H5 H 0.2581 0.8263 0.1677
C11 C 0.20393(13) 0.83560(16) 0.00164(8)
C12 C 0.16103(15) 0.93021(19) -0.05055(9)
H6 H 0.2142 0.9857 -0.0641
C13 C 0.03738(17) 0.9419(2) -0.08269(10)
H7 H 0.0078 1.0041 -0.1188
C14 C -0.04107(16) 0.8625(2) -0.06148(10)
H8 H -0.1237 0.8708 -0.0831
C15 C 0.00223(16) 0.7704(2) -0.00821(11)
H9 H -0.0513 0.7177 0.0070
C16 C 0.12540(14) 0.75563(18) 0.02291(9)
H10 H 0.1547 0.6918 0.0581
C17 C 0.63149(14) 0.90302(16) 0.14407(8)
C18 C 0.71842(14) 0.94193(17) 0.19000(8)
C19 C 0.82560(13) 0.98665(17) 0.24391(8)
C20 C 0.85548(18) 1.1156(2) 0.24990(11)
H11 H 0.8054 1.1753 0.2190
C21 C 0.9596(2) 1.1568(2) 0.30165(12)
H12 H 0.9790 1.2441 0.3051
C22 C 1.03447(18) 1.0708(3) 0.34776(11)
H13 H 1.1049 1.0987 0.3820
C23 C 1.00422(18) 0.9437(3) 0.34276(12)
H14 H 1.0542 0.8847 0.3743
C24 C 0.90069(16) 0.9011(2) 0.29173(11)
H15 H 0.8812 0.8139 0.2895
C25 C 0.34066(18) 0.6733(3) -0.07410(11)
C26 C 0.62519(13) 0.71887(17) 0.01030(9)
C27 C 0.68688(15) 0.5816(2) -0.07368(10)
H16 H 0.7437 0.5353 -0.0340
H17 H 0.7302 0.6478 -0.0920
C28 C 0.62588(19) 0.4909(2) -0.13476(11)
H18 H 0.5710 0.5382 -0.1740
H19 H 0.5821 0.4270 -0.1161
H20 H 0.6854 0.4493 -0.1534
H21 H 0.361(3) 0.587(3) -0.0679(17)
H22 H 0.261(3) 0.680(3) -0.0855(14)
H23 H 0.367(2) 0.696(2) -0.1166(14)
loop_
_geom_bond_atom_site_label_1
_geom_bond_atom_site_label_2
_geom_bond_site_symmetry_1
_geom_bond_site_symmetry_2
O1 C26 1_555 1_555
O2 C26 1_555 1_555
N1 C1 1_555 1_555
C1 C2 1_555 1_555
C2 C3 1_555 1_555
C3 C4 1_555 1_555
C4 N1 1_555 1_555
C5 C1 1_555 1_555
C6 C5 1_555 1_555
H1 C6 1_555 1_555
C7 C6 1_555 1_555
H2 C7 1_555 1_555
C8 C7 1_555 1_555
H3 C8 1_555 1_555
C9 C8 1_555 1_555
H4 C9 1_555 1_555
C10 C5 1_555 1_555
H5 C10 1_555 1_555
C11 N1 1_555 1_555
C12 C11 1_555 1_555
H6 C12 1_555 1_555
C13 C12 1_555 1_555
H7 C13 1_555 1_555
C14 C13 1_555 1_555
H8 C14 1_555 1_555
C15 C14 1_555 1_555
H9 C15 1_555 1_555
C16 C11 1_555 1_555
H10 C16 1_555 1_555
C17 C2 1_555 1_555
C18 C17 1_555 1_555
C19 C18 1_555 1_555
C20 C19 1_555 1_555
H11 C20 1_555 1_555
C21 C20 1_555 1_555
H12 C21 1_555 1_555
C22 C21 1_555 1_555
H13 C22 1_555 1_555
C23 C22 1_555 1_555
H14 C23 1_555 1_555
C24 C19 1_555 1_555
H15 C24 1_555 1_555
C25 C4 1_555 1_555
C26 C3 1_555 1_555
C27 O2 1_555 1_555
H16 C27 1_555 1_555
H17 C27 1_555 1_555
C28 C27 1_555 1_555
H18 C28 1_555 1_555
H19 C28 1_555 1_555
H20 C28 1_555 1_555
H21 C25 1_555 1_555
H22 C25 1_555 1_555
H23 C25 1_555 1_555
C9 C10 1_555 1_555
C15 C16 1_555 1_555
C23 C24 1_555 1_555

#END
