
#######################################################################
#
#                 Cambridge Crystallographic Data Centre
#                                CCDC 
#
#######################################################################
#
# If this CIF has been generated from an entry in the Cambridge 
# Structural Database, then it will include bibliographic, chemical, 
# crystal, experimental, refinement or atomic coordinate data resulting 
# from the CCDC's data processing and validation procedures.
#
#######################################################################

data_NUFDEY
_chemical_formula_moiety         'C32 H33 N1 O2'
_chemical_name_systematic        
rel-(1R,3S,4S,6S,8S,10R)-1,6-dimethyl-3-(3,5-dimethylphenylamino)-4,10-diphenyltricyclo[4,4,0,0^3,8^]decane-2,7-dione
_symmetry_cell_setting           orthorhombic
_symmetry_space_group_name_H-M   'P c a b'
_symmetry_Int_Tables_number      61
_space_group_name_Hall           '-P 2bc 2ac'
loop_
_symmetry_equiv_pos_site_id
_symmetry_equiv_pos_as_xyz
1 x,y,z
2 -x,1/2-y,1/2+z
3 1/2+x,-y,1/2-z
4 1/2-x,1/2+y,-z
5 -x,-y,-z
6 x,1/2+y,1/2-z
7 1/2-x,y,1/2+z
8 1/2+x,1/2-y,z
_cell_length_a                   12.1928(4)
_cell_length_b                   15.2127(5)
_cell_length_c                   27.2743(9)
_cell_angle_alpha                90
_cell_angle_beta                 90
_cell_angle_gamma                90
_cell_volume                     5058.98
_exptl_crystal_colour            colorless
_exptl_crystal_description       prism
_chemical_melting_point          222-223deg.C
_cell_formula_units_Z            8
loop_
_atom_site_label
_atom_site_type_symbol
_atom_site_fract_x
_atom_site_fract_y
_atom_site_fract_z
O1 O 0.2069(2) 0.0649(2) 0.23937(11)
O2 O 0.6345(2) 0.1548(2) 0.25629(12)
N1 N 0.3235(3) -0.0124(2) 0.31043(13)
H1 H 0.2756 -0.0395 0.2929
C1 C 0.3431(4) -0.0482(3) 0.35662(16)
C2 C 0.4424(4) -0.0398(3) 0.38170(16)
H2 H 0.4977 -0.0045 0.3689
C3 C 0.4590(4) -0.0843(3) 0.42599(16)
C4 C 0.5661(4) -0.0745(4) 0.45300(18)
H3 H 0.6130 -0.0350 0.4353
H4 H 0.6009 -0.1309 0.4557
H5 H 0.5524 -0.0514 0.4852
C5 C 0.3755(5) -0.1369(3) 0.44433(17)
H6 H 0.3868 -0.1674 0.4734
C6 C 0.2748(4) -0.1451(3) 0.42019(17)
C7 C 0.1840(5) -0.2027(4) 0.4400(2)
H7 H 0.2067 -0.2283 0.4705
H8 H 0.1682 -0.2486 0.4168
H9 H 0.1194 -0.1679 0.4451
C8 C 0.2606(4) -0.1000(3) 0.37687(16)
H10 H 0.1938 -0.1043 0.3606
C9 C 0.3726(3) 0.0638(3) 0.28804(16)
C10 C 0.3773(4) 0.1505(3) 0.31978(16)
H11 H 0.4459 0.1483 0.3385
C11 C 0.2858(4) 0.1601(3) 0.35673(16)
C12 C 0.3093(4) 0.1524(3) 0.40673(17)
H12 H 0.3816 0.1446 0.4167
C13 C 0.2277(5) 0.1561(4) 0.44160(19)
H13 H 0.2456 0.1506 0.4746
C14 C 0.1206(4) 0.1677(4) 0.42804(19)
H14 H 0.0657 0.1700 0.4517
C15 C 0.0944(4) 0.1760(4) 0.37880(18)
H15 H 0.0217 0.1829 0.3693
C16 C 0.1767(4) 0.1740(3) 0.34387(17)
H16 H 0.1587 0.1821 0.3110
C17 C 0.3889(4) 0.2276(3) 0.28275(16)
H17 H 0.4301 0.2750 0.2978
H18 H 0.3167 0.2498 0.2744
C18 C 0.4484(3) 0.1971(3) 0.23528(16)
C19 C 0.4924(4) 0.2745(3) 0.20634(17)
H19 H 0.4325 0.3106 0.1956
H20 H 0.5322 0.2534 0.1783
H21 H 0.5405 0.3085 0.2268
C20 C 0.3022(3) 0.0868(3) 0.24368(15)
C21 C 0.3664(3) 0.1367(3) 0.20576(15)
C22 C 0.2921(4) 0.1885(3) 0.17088(16)
H22 H 0.3363 0.2191 0.1473
H23 H 0.2497 0.2301 0.1893
H24 H 0.2437 0.1487 0.1542
C23 C 0.4348(3) 0.0630(3) 0.17843(15)
H25 H 0.4985 0.0924 0.1640
C24 C 0.3781(4) 0.0156(3) 0.13717(17)
C25 C 0.4072(4) 0.0331(4) 0.08886(18)
H26 H 0.4590 0.0764 0.0824
C26 C 0.3605(5) -0.0126(5) 0.0502(2)
H27 H 0.3795 0.0009 0.0180
C27 C 0.2854(6) -0.0785(5) 0.0599(2)
H28 H 0.2559 -0.1110 0.0342
C28 C 0.2546(5) -0.0961(4) 0.1067(2)
H29 H 0.2026 -0.1394 0.1129
C29 C 0.3006(4) -0.0496(3) 0.14533(19)
H30 H 0.2792 -0.0623 0.1773
C30 C 0.4797(4) -0.0003(3) 0.21743(15)
H31 H 0.5508 -0.0224 0.2073
H32 H 0.4305 -0.0500 0.2210
C31 C 0.4907(3) 0.0483(3) 0.26696(16)
H33 H 0.5375 0.0162 0.2901
C32 C 0.5380(3) 0.1358(3) 0.25386(16)
loop_
_geom_bond_atom_site_label_1
_geom_bond_atom_site_label_2
_geom_bond_site_symmetry_1
_geom_bond_site_symmetry_2
O1 C20 1_555 1_555
O2 C32 1_555 1_555
N1 H1 1_555 1_555
C1 N1 1_555 1_555
C2 C1 1_555 1_555
H2 C2 1_555 1_555
C3 C2 1_555 1_555
C4 C3 1_555 1_555
H3 C4 1_555 1_555
H4 C4 1_555 1_555
H5 C4 1_555 1_555
C5 C3 1_555 1_555
H6 C5 1_555 1_555
C6 C5 1_555 1_555
C7 C6 1_555 1_555
H7 C7 1_555 1_555
H8 C7 1_555 1_555
H9 C7 1_555 1_555
C8 C1 1_555 1_555
H10 C8 1_555 1_555
C9 N1 1_555 1_555
C10 C9 1_555 1_555
H11 C10 1_555 1_555
C11 C10 1_555 1_555
C12 C11 1_555 1_555
H12 C12 1_555 1_555
C13 C12 1_555 1_555
H13 C13 1_555 1_555
C14 C13 1_555 1_555
H14 C14 1_555 1_555
C15 C14 1_555 1_555
H15 C15 1_555 1_555
C16 C11 1_555 1_555
H16 C16 1_555 1_555
C17 C10 1_555 1_555
H17 C17 1_555 1_555
H18 C17 1_555 1_555
C18 C17 1_555 1_555
C19 C18 1_555 1_555
H19 C19 1_555 1_555
H20 C19 1_555 1_555
H21 C19 1_555 1_555
C20 C9 1_555 1_555
C21 C18 1_555 1_555
C22 C21 1_555 1_555
H22 C22 1_555 1_555
H23 C22 1_555 1_555
H24 C22 1_555 1_555
C23 C21 1_555 1_555
H25 C23 1_555 1_555
C24 C23 1_555 1_555
C25 C24 1_555 1_555
H26 C25 1_555 1_555
C26 C25 1_555 1_555
H27 C26 1_555 1_555
C27 C26 1_555 1_555
H28 C27 1_555 1_555
C28 C27 1_555 1_555
H29 C28 1_555 1_555
C29 C24 1_555 1_555
H30 C29 1_555 1_555
C30 C23 1_555 1_555
H31 C30 1_555 1_555
H32 C30 1_555 1_555
C31 C9 1_555 1_555
H33 C31 1_555 1_555
C32 C18 1_555 1_555
C6 C8 1_555 1_555
C15 C16 1_555 1_555
C20 C21 1_555 1_555
C28 C29 1_555 1_555
C30 C31 1_555 1_555
C31 C32 1_555 1_555

#END
