
#######################################################################
#
#                 Cambridge Crystallographic Data Centre
#                                CCDC 
#
#######################################################################
#
# If this CIF has been generated from an entry in the Cambridge 
# Structural Database, then it will include bibliographic, chemical, 
# crystal, experimental, refinement or atomic coordinate data resulting 
# from the CCDC's data processing and validation procedures.
#
#######################################################################

data_NUFWIV
_chemical_formula_moiety         'C18 H27 N3'
_chemical_name_systematic        
N-(2-(3-Mesityl-2,3-dihydro-1H-imidazol-1-yl)ethyl)-2-methylpropan-2-amine
_symmetry_cell_setting           triclinic
_symmetry_space_group_name_H-M   'P -1'
_symmetry_Int_Tables_number      2
_space_group_name_Hall           '-P 1'
loop_
_symmetry_equiv_pos_site_id
_symmetry_equiv_pos_as_xyz
1 x,y,z
2 -x,-y,-z
_cell_length_a                   9.3823(3)
_cell_length_b                   9.6495(4)
_cell_length_c                   10.0070(4)
_cell_angle_alpha                83.027(2)
_cell_angle_beta                 88.846(2)
_cell_angle_gamma                74.717(2)
_cell_volume                     867.409
_exptl_crystal_colour            colorless
_exptl_crystal_description       prism
_cell_formula_units_Z            2
loop_
_atom_site_label
_atom_site_type_symbol
_atom_site_fract_x
_atom_site_fract_y
_atom_site_fract_z
C1 C 0.75816(13) 1.04460(13) -0.00550(12)
C2 C 0.75377(14) 1.12109(13) -0.13292(12)
H1 H 0.8229 1.0818 -0.1981
C3 C 0.65155(13) 1.25313(13) -0.16805(11)
C4 C 0.54971(13) 1.30842(12) -0.07225(12)
H2 H 0.4774 1.3973 -0.0959
C5 C 0.55100(13) 1.23688(12) 0.05760(11)
C6 C 0.65845(13) 1.10649(12) 0.08964(11)
C7 C 0.86487(17) 0.89810(15) 0.02790(15)
H3 H 0.9285 0.9005 0.1036
H4 H 0.9259 0.8727 -0.0507
H5 H 0.8097 0.8257 0.0525
C8 C 0.64925(16) 1.33179(15) -0.30824(12)
H6 H 0.5514 1.3984 -0.3278
H7 H 0.6709 1.2614 -0.3737
H8 H 0.7240 1.3866 -0.3143
C9 C 0.43982(15) 1.29841(14) 0.16021(13)
H9 H 0.3863 1.3977 0.1262
H10 H 0.4912 1.2985 0.2445
H11 H 0.3697 1.2390 0.1766
C10 C 0.76749(13) 1.04333(12) 0.31833(11)
C11 C 0.58079(14) 0.94253(14) 0.27146(13)
H12 H 0.5052 0.9201 0.2233
C12 C 0.62509(15) 0.89274(14) 0.39906(13)
H13 H 0.5873 0.8275 0.4593
C13 C 0.81885(14) 0.92257(12) 0.55325(11)
H14 H 0.7485 0.9258 0.6286
H15 H 0.8722 0.9973 0.5605
C14 C 0.92916(14) 0.77433(13) 0.56516(11)
H16 H 0.8783 0.6999 0.5494
H17 H 1.0068 0.7737 0.4966
C15 C 1.08247(13) 0.59116(12) 0.73876(11)
C16 C 0.98294(15) 0.48893(14) 0.73927(13)
H18 H 0.8960 0.5227 0.7943
H19 H 1.0376 0.3912 0.7770
H20 H 0.9513 0.4872 0.6469
C17 C 1.13888(15) 0.58589(14) 0.88177(12)
H21 H 1.0547 0.6132 0.9416
H22 H 1.2005 0.6535 0.8826
H23 H 1.1976 0.4876 0.9129
C18 C 1.21440(15) 0.54333(15) 0.64655(14)
H24 H 1.1785 0.5456 0.5548
H25 H 1.2708 0.4447 0.6796
H26 H 1.2781 0.6092 0.6463
N1 N 0.66767(11) 1.03325(10) 0.22431(9)
N2 N 0.73686(11) 0.95527(10) 0.42566(9)
N3 N 0.99584(11) 0.74171(10) 0.69935(9)
H27 H 1.0538(16) 0.8028(16) 0.7053(14)
loop_
_geom_bond_atom_site_label_1
_geom_bond_atom_site_label_2
_geom_bond_site_symmetry_1
_geom_bond_site_symmetry_2
C1 C2 1_555 1_555
C2 H1 1_555 1_555
C3 C2 1_555 1_555
C4 C3 1_555 1_555
H2 C4 1_555 1_555
C5 C4 1_555 1_555
C6 C1 1_555 1_555
C7 C1 1_555 1_555
H3 C7 1_555 1_555
H4 C7 1_555 1_555
H5 C7 1_555 1_555
C8 C3 1_555 1_555
H6 C8 1_555 1_555
H7 C8 1_555 1_555
H8 C8 1_555 1_555
C9 C5 1_555 1_555
H9 C9 1_555 1_555
H10 C9 1_555 1_555
H11 C9 1_555 1_555
C10 N1 1_555 1_555
C11 H12 1_555 1_555
C12 C11 1_555 1_555
H13 C12 1_555 1_555
C13 H14 1_555 1_555
H15 C13 1_555 1_555
C14 C13 1_555 1_555
H16 C14 1_555 1_555
H17 C14 1_555 1_555
C15 C16 1_555 1_555
C16 H18 1_555 1_555
H19 C16 1_555 1_555
H20 C16 1_555 1_555
C17 C15 1_555 1_555
H21 C17 1_555 1_555
H22 C17 1_555 1_555
H23 C17 1_555 1_555
C18 C15 1_555 1_555
H24 C18 1_555 1_555
H25 C18 1_555 1_555
H26 C18 1_555 1_555
N1 C6 1_555 1_555
N2 C10 1_555 1_555
N3 C14 1_555 1_555
H27 N3 1_555 1_555
C5 C6 1_555 1_555
C11 N1 1_555 1_555
C12 N2 1_555 1_555
C13 N2 1_555 1_555
C15 N3 1_555 1_555

#END
