
#######################################################################
#
#                 Cambridge Crystallographic Data Centre
#                                CCDC 
#
#######################################################################
#
# If this CIF has been generated from an entry in the Cambridge 
# Structural Database, then it will include bibliographic, chemical, 
# crystal, experimental, refinement or atomic coordinate data resulting 
# from the CCDC's data processing and validation procedures.
#
#######################################################################

data_NUFYIY
_chemical_name_common            
'1-((3S,4R)-4-(4-chlorophenyl)-6-phenyl-1-tosyl-1,2,3,4-tetrahydropyridin-3-yl) ethan-1-one'
_chemical_formula_moiety         'C26 H24 Cl1 N1 O3 S1'
_chemical_name_systematic        
1-(4-(4-chlorophenyl)-1-((4-methylphenyl)sulfonyl)-6-phenyl-1,2,3,4-tetrahydropyridin-3-yl)ethanone
_symmetry_cell_setting           monoclinic
_symmetry_space_group_name_H-M   'P 21/c'
_symmetry_Int_Tables_number      14
_space_group_name_Hall           '-P 2ybc'
loop_
_symmetry_equiv_pos_site_id
_symmetry_equiv_pos_as_xyz
1 x,y,z
2 -x,1/2+y,1/2-z
3 -x,-y,-z
4 x,1/2-y,1/2+z
_cell_length_a                   14.9826(17)
_cell_length_b                   12.8462(15)
_cell_length_c                   12.6877(14)
_cell_angle_alpha                90
_cell_angle_beta                 109.084(2)
_cell_angle_gamma                90
_cell_volume                     2307.78
_exptl_crystal_colour            colorless
_exptl_crystal_description       prismatic
_chemical_melting_point          '402.3-403.2 K'
_cell_formula_units_Z            4
loop_
_atom_site_label
_atom_site_type_symbol
_atom_site_fract_x
_atom_site_fract_y
_atom_site_fract_z
S1 S 0.33702(4) 0.52537(5) 0.86166(4)
Cl1 Cl 0.25873(5) 0.58095(5) 0.14398(5)
N1 N 0.23474(12) 0.47387(14) 0.78310(14)
O1 O 0.17173(16) 0.21731(14) 0.51907(18)
O2 O 0.31488(12) 0.61484(14) 0.91450(13)
O3 O 0.38940(12) 0.44120(14) 0.92535(14)
C1 C 0.23642(16) 0.36863(17) 0.73846(17)
H1 H 0.1804 0.3313 0.7392
H2 H 0.2910 0.3316 0.7864
C2 C 0.24038(14) 0.36972(16) 0.61912(16)
H3 H 0.2994 0.4035 0.6205
C3 C 0.15790(14) 0.43231(16) 0.54144(16)
H4 H 0.1043 0.3845 0.5142
C4 C 0.12793(14) 0.51795(17) 0.60261(17)
H5 H 0.0790 0.5604 0.5604
C5 C 0.16367(14) 0.53999(17) 0.71071(17)
C6 C 0.12048(15) 0.6214(2) 0.76292(18)
C7 C 0.09365(17) 0.7162(2) 0.7103(2)
H6 H 0.1075 0.7312 0.6456
C8 C 0.0465(2) 0.7889(3) 0.7530(3)
H7 H 0.0281 0.8524 0.7172
C9 C 0.0270(2) 0.7656(4) 0.8496(4)
H8 H -0.0048 0.8139 0.8788
C10 C 0.0539(2) 0.6723(4) 0.9028(3)
H9 H 0.0404 0.6580 0.9679
C11 C 0.10087(17) 0.5991(3) 0.8607(2)
H10 H 0.1192 0.5359 0.8971
C12 C 0.18074(13) 0.47107(15) 0.44015(15)
C13 C 0.14808(16) 0.41960(17) 0.33884(17)
H11 H 0.1092 0.3618 0.3316
C14 C 0.17247(16) 0.45291(18) 0.24828(18)
H12 H 0.1504 0.4176 0.1807
C15 C 0.22951(15) 0.53861(17) 0.25900(17)
C16 C 0.26232(16) 0.59145(18) 0.35807(17)
H13 H 0.3010 0.6494 0.3647
C17 C 0.23742(15) 0.55779(17) 0.44744(16)
H14 H 0.2591 0.5941 0.5144
C18 C 0.24191(18) 0.25782(18) 0.57975(19)
C19 C 0.3332(2) 0.2000(2) 0.6239(2)
H15 H 0.3386 0.1707 0.6953
H16 H 0.3847 0.2470 0.6317
H17 H 0.3348 0.1453 0.5730
C20 C 0.39711(15) 0.56908(17) 0.77131(18)
C21 C 0.37434(16) 0.66488(18) 0.71980(18)
H18 H 0.3290 0.7064 0.7345
C22 C 0.41868(18) 0.6987(2) 0.6469(2)
H19 H 0.4034 0.7635 0.6131
C23 C 0.48566(18) 0.6377(2) 0.6230(2)
C24 C 0.50807(18) 0.5421(2) 0.6756(2)
H20 H 0.5533 0.5006 0.6606
C25 C 0.46472(16) 0.5068(2) 0.7500(2)
H21 H 0.4807 0.4426 0.7850
C26 C 0.5344(2) 0.6753(3) 0.5425(3)
H22 H 0.4912 0.6715 0.4677
H23 H 0.5883 0.6322 0.5493
H24 H 0.5545 0.7460 0.5597
loop_
_geom_bond_atom_site_label_1
_geom_bond_atom_site_label_2
_geom_bond_site_symmetry_1
_geom_bond_site_symmetry_2
S1 N1 1_555 1_555
Cl1 C15 1_555 1_555
N1 C1 1_555 1_555
O1 C18 1_555 1_555
O2 S1 1_555 1_555
O3 S1 1_555 1_555
C1 H1 1_555 1_555
H2 C1 1_555 1_555
C2 C1 1_555 1_555
H3 C2 1_555 1_555
C3 C2 1_555 1_555
H4 C3 1_555 1_555
C4 C3 1_555 1_555
H5 C4 1_555 1_555
C5 N1 1_555 1_555
C6 C5 1_555 1_555
C7 C6 1_555 1_555
H6 C7 1_555 1_555
C8 C7 1_555 1_555
H7 C8 1_555 1_555
C9 C8 1_555 1_555
H8 C9 1_555 1_555
C10 C9 1_555 1_555
H9 C10 1_555 1_555
C11 C6 1_555 1_555
H10 C11 1_555 1_555
C12 C3 1_555 1_555
C13 C12 1_555 1_555
H11 C13 1_555 1_555
C14 C13 1_555 1_555
H12 C14 1_555 1_555
C15 C14 1_555 1_555
C16 C15 1_555 1_555
H13 C16 1_555 1_555
C17 C12 1_555 1_555
H14 C17 1_555 1_555
C18 C2 1_555 1_555
C19 C18 1_555 1_555
H15 C19 1_555 1_555
H16 C19 1_555 1_555
H17 C19 1_555 1_555
C20 S1 1_555 1_555
C21 C20 1_555 1_555
H18 C21 1_555 1_555
C22 C21 1_555 1_555
H19 C22 1_555 1_555
C23 C22 1_555 1_555
C24 C23 1_555 1_555
H20 C24 1_555 1_555
C25 C20 1_555 1_555
H21 C25 1_555 1_555
C26 C23 1_555 1_555
H22 C26 1_555 1_555
H23 C26 1_555 1_555
H24 C26 1_555 1_555
C4 C5 1_555 1_555
C10 C11 1_555 1_555
C16 C17 1_555 1_555
C24 C25 1_555 1_555

#END
