
#######################################################################
#
#                 Cambridge Crystallographic Data Centre
#                                CCDC 
#
#######################################################################
#
# If this CIF has been generated from an entry in the Cambridge 
# Structural Database, then it will include bibliographic, chemical, 
# crystal, experimental, refinement or atomic coordinate data resulting 
# from the CCDC's data processing and validation procedures.
#
#######################################################################

data_NUGBEW
_chemical_formula_moiety         'C80 H116 O22 Rb2 1+,Cl1 1-,C4 H8 O2,2(H2 O1)'
_chemical_name_systematic        
"(\m~2~-1,4-Dioxane)-bis(4,4'-(bis(t-butylbenzo)benzo-21-crown-7)-1,4-dioxane)-di-rubidium chloride 1,4-dioxane solvate dihydrate"
_symmetry_cell_setting           triclinic
_symmetry_space_group_name_H-M   'P -1'
_symmetry_Int_Tables_number      2
_space_group_name_Hall           '-P 1'
loop_
_symmetry_equiv_pos_site_id
_symmetry_equiv_pos_as_xyz
1 x,y,z
2 -x,-y,-z
_cell_length_a                   11.687(3)
_cell_length_b                   12.800(4)
_cell_length_c                   17.680(3)
_cell_angle_alpha                75.31(2)
_cell_angle_beta                 80.01(2)
_cell_angle_gamma                69.09(2)
_cell_volume                     2379.78
_exptl_crystal_description       plate
_cell_formula_units_Z            1
loop_
_atom_site_label
_atom_site_type_symbol
_atom_site_fract_x
_atom_site_fract_y
_atom_site_fract_z
Rb1 Rb 0.67047(4) 0.65738(4) 0.63165(3)
O1 O 0.7582(22) 0.8212(17) 0.5240(11)
O9 O 0.6207(3) 0.5216(2) 0.5281(2)
O10 O 0.5295(3) 0.7403(2) 0.4908(2)
O11 O 0.4673(3) 0.8836(3) 0.5989(2)
O12 O 0.6192(3) 0.8801(3) 0.6885(2)
O13 O 0.8265(3) 0.6952(3) 0.7361(2)
O14 O 0.8343(3) 0.4745(3) 0.7459(2)
O15 O 0.7035(3) 0.4066(3) 0.6772(2)
C1 C 0.6466(4) 0.5685(4) 0.4515(3)
C2 C 0.5991(4) 0.6885(4) 0.4306(3)
C3 C 0.6214(4) 0.7456(4) 0.3552(3)
H1 H 0.5897(4) 0.8267(4) 0.3416(3)
C4 C 0.6902(4) 0.6837(4) 0.2996(3)
H2 H 0.7059(4) 0.7227(4) 0.2476(3)
C5 C 0.7358(4) 0.5674(4) 0.3183(3)
H3 H 0.7824(4) 0.5260(4) 0.2793(3)
C6 C 0.7144(4) 0.5085(4) 0.3948(3)
H4 H 0.7466(4) 0.4274(4) 0.4077(3)
C7 C 0.4664(4) 0.8609(4) 0.4706(3)
H5 H 0.4151(4) 0.8785(4) 0.4270(3)
H6 H 0.5264(4) 0.9026(4) 0.4537(3)
C8 C 0.3871(4) 0.8963(4) 0.5421(3)
H7 H 0.3331(4) 0.9768(4) 0.5287(3)
H8 H 0.3347(4) 0.8474(4) 0.5633(3)
C9 C 0.4142(4) 0.9273(4) 0.6646(3)
C10 C 0.4989(4) 0.9254(4) 0.7133(3)
C11 C 0.4527(4) 0.9699(4) 0.7796(3)
H9 H 0.5080(4) 0.9724(4) 0.8121(3)
C12 C 0.3265(4) 1.0116(4) 0.8000(3)
H10 H 0.2977(4) 1.0396(4) 0.8471(3)
C13 C 0.2436(4) 1.0132(4) 0.7540(3)
C14 C 0.2894(4) 0.9697(4) 0.6847(3)
H11 H 0.2334(4) 0.9698(4) 0.6516(3)
C15 C 0.7089(4) 0.8861(4) 0.7316(3)
H12 H 0.6885(4) 0.8626(4) 0.7887(3)
H13 H 0.7108(4) 0.9653(4) 0.7205(3)
C16 C 0.8289(4) 0.8085(4) 0.7066(3)
H14 H 0.8430(4) 0.8237(4) 0.6486(3)
H15 H 0.8959(4) 0.8195(4) 0.7278(3)
C17 C 0.9399(4) 0.6081(4) 0.7272(3)
H16 H 1.0065(4) 0.6251(4) 0.7442(3)
H17 H 0.9608(4) 0.6010(4) 0.6716(3)
C18 C 0.9241(4) 0.4999(4) 0.7778(3)
H18 H 1.0034(4) 0.4365(4) 0.7782(3)
H19 H 0.8959(4) 0.5099(4) 0.8325(3)
C19 C 0.7816(4) 0.3975(4) 0.7934(3)
C20 C 0.7088(4) 0.3631(4) 0.7560(2)
C21 C 0.6495(4) 0.2881(4) 0.7985(3)
H20 H 0.5999(4) 0.2654(4) 0.7729(3)
C22 C 0.6611(4) 0.2445(4) 0.8790(3)
C23 C 0.7342(4) 0.2791(4) 0.9141(3)
H21 H 0.7432(4) 0.2509(4) 0.9686(3)
C24 C 0.7946(4) 0.3538(4) 0.8716(3)
H22 H 0.8457(4) 0.3749(4) 0.8971(3)
C25 C 0.6387(4) 0.3649(4) 0.6364(2)
H23 H 0.5489(4) 0.3976(4) 0.6494(2)
H24 H 0.6628(4) 0.2806(4) 0.6523(2)
C26 C 0.6704(4) 0.3998(4) 0.5501(3)
H25 H 0.7609(4) 0.3743(4) 0.5379(3)
H26 H 0.6353(4) 0.3641(4) 0.5205(3)
C27 C 0.1032(5) 1.0572(5) 0.7743(3)
C28 C 0.0469(5) 1.1627(5) 0.7116(4)
H27 H -0.0423(6) 1.1918(20) 0.7240(13)
H28 H 0.0650(31) 1.1418(9) 0.6601(5)
H29 H 0.0822(27) 1.2221(13) 0.7104(16)
C29 C 0.0695(6) 1.0918(6) 0.8539(4)
H30 H 0.1000(35) 1.0244(9) 0.8954(4)
H31 H -0.0201(6) 1.1243(35) 0.8629(12)
H32 H 0.1070(33) 1.1490(27) 0.8544(9)
C30 C 0.0476(5) 0.9648(5) 0.7763(4)
H33 H -0.0416(7) 0.9941(14) 0.7888(25)
H34 H 0.0835(28) 0.8973(14) 0.8164(16)
H35 H 0.0654(33) 0.9439(26) 0.7249(8)
C31 C 0.5998(4) 0.1552(4) 0.9246(3)
C32 C 0.6888(6) 0.0378(5) 0.9168(4)
H36 H 0.7638(17) 0.0231(16) 0.9411(23)
H37 H 0.7095(31) 0.0348(13) 0.8611(4)
H38 H 0.6505(16) -0.0203(5) 0.9433(23)
C33 C 0.5653(6) 0.1639(6) 1.0101(3)
H39 H 0.5196(31) 0.1115(24) 1.0361(6)
H40 H 0.5138(29) 0.2424(9) 1.0132(3)
H41 H 0.6401(6) 0.1433(32) 1.0361(6)
C34 C 0.4810(5) 0.1742(5) 0.8900(3)
H42 H 0.4279(14) 0.2538(9) 0.8871(19)
H43 H 0.4383(17) 0.1232(21) 0.9235(11)
H44 H 0.5008(5) 0.1578(29) 0.8372(9)
O16 O 0.8975(3) 0.5485(4) 0.5489(2)
C35 C 0.9811(6) 0.4363(6) 0.5739(4)
H45 H 0.9361(6) 0.3891(6) 0.6112(4)
H46 H 1.0450(6) 0.4411(6) 0.6019(4)
C36 C 0.9603(6) 0.6182(6) 0.4921(4)
H47 H 0.9004(6) 0.6944(6) 0.4732(4)
H48 H 1.0231(6) 0.6292(6) 0.5175(4)
O19 O 0.4888(3) 0.6347(3) 0.7600(2)
C41 C 0.3577(14) 0.6641(12) 0.7566(9)
H57 H 0.3418(14) 0.6575(12) 0.7051(9)
H58 H 0.3151(14) 0.7440(12) 0.7627(9)
C42 C 0.3103(14) 0.5851(13) 0.8208(10)
H59 H 0.2212(14) 0.6037(13) 0.8178(10)
H60 H 0.3523(14) 0.5056(13) 0.8138(10)
O20 O 0.3298(14) 0.5936(10) 0.8967(6)
C43 C 0.4556(14) 0.5715(10) 0.8990(8)
H61 H 0.5011(14) 0.4915(10) 0.8940(8)
H62 H 0.4694(14) 0.5798(10) 0.9505(8)
C44 C 0.5064(15) 0.6514(12) 0.8340(10)
H63 H 0.4625(15) 0.7319(12) 0.8386(10)
H64 H 0.5949(15) 0.6341(12) 0.8381(10)
C36A C 1.0397(6) 0.3818(6) 0.5079(4)
O16A O 1.1025(3) 0.4515(4) 0.4511(2)
Rb1A Rb 1.32953(4) 0.34262(4) 0.36835(3)
O1A O 1.2418(22) 0.1788(17) 0.4760(11)
O9A O 1.3793(3) 0.4784(2) 0.4719(2)
C1A C 1.3534(4) 0.4315(4) 0.5485(3)
C2A C 1.4009(4) 0.3115(4) 0.5694(3)
O10A O 1.4705(3) 0.2597(2) 0.5092(2)
O11A O 1.5327(3) 0.1164(3) 0.4011(2)
C8A C 1.6129(4) 0.1037(4) 0.4579(3)
C7A C 1.5336(4) 0.1391(4) 0.5294(3)
H5A H 1.5849(4) 0.1215(4) 0.5730(3)
H6A H 1.4736(4) 0.0974(4) 0.5463(3)
H7A H 1.6669(4) 0.0232(4) 0.4713(3)
H8A H 1.6653(4) 0.1526(4) 0.4367(3)
C9A C 1.5858(4) 0.0727(4) 0.3354(3)
C10A C 1.5011(4) 0.0746(4) 0.2867(3)
O12A O 1.3808(3) 0.1199(3) 0.3115(2)
O13A O 1.1735(3) 0.3048(3) 0.2639(2)
C16A C 1.1711(4) 0.1915(4) 0.2934(3)
C15A C 1.2911(4) 0.1139(4) 0.2684(3)
H12A H 1.3115(4) 0.1374(4) 0.2113(3)
H13A H 1.2892(4) 0.0347(4) 0.2795(3)
H14A H 1.1570(4) 0.1763(4) 0.3514(3)
H15A H 1.1041(4) 0.1805(4) 0.2722(3)
C17A C 1.0601(4) 0.3919(4) 0.2728(3)
H16A H 0.9935(4) 0.3749(4) 0.2558(3)
H17A H 1.0392(4) 0.3990(4) 0.3284(3)
C18A C 1.0759(4) 0.5001(4) 0.2222(3)
O14A O 1.1657(3) 0.5255(3) 0.2541(2)
O15A O 1.2965(3) 0.5934(3) 0.3228(2)
C20A C 1.2912(4) 0.6369(4) 0.2440(2)
C19A C 1.2184(4) 0.6025(4) 0.2066(3)
C24A C 1.2054(4) 0.6462(4) 0.1284(3)
C23A C 1.2658(4) 0.7209(4) 0.0859(3)
C22A C 1.3389(4) 0.7555(4) 0.1210(3)
C21A C 1.3505(4) 0.7119(4) 0.2015(3)
H20A H 1.4001(4) 0.7346(4) 0.2271(3)
C31A C 1.4002(4) 0.8448(4) 0.0754(3)
C32A C 1.3112(6) 0.9622(5) 0.0832(4)
H36A H 1.2362(17) 0.9769(16) 0.0589(23)
H37A H 1.2905(31) 0.9652(13) 0.1389(4)
H38A H 1.3495(16) 1.0203(5) 0.0567(23)
C33A C 1.4347(6) 0.8361(6) -0.0101(3)
H39A H 1.4804(31) 0.8885(24) -0.0361(6)
H40A H 1.4862(29) 0.7576(9) -0.0132(3)
H41A H 1.3599(6) 0.8567(32) -0.0361(6)
C34A C 1.5190(5) 0.8258(5) 0.1100(3)
H42A H 1.5721(14) 0.7462(9) 0.1129(19)
H43A H 1.5617(17) 0.8768(21) 0.0765(11)
H44A H 1.4992(5) 0.8422(29) 0.1628(9)
H21A H 1.2568(4) 0.7491(4) 0.0314(3)
H22A H 1.1543(4) 0.6251(4) 0.1029(3)
C25A C 1.3613(4) 0.6351(4) 0.3636(2)
H23A H 1.4511(4) 0.6024(4) 0.3506(2)
H24A H 1.3372(4) 0.7194(4) 0.3477(2)
C26A C 1.3296(4) 0.6002(4) 0.4499(3)
H25A H 1.2391(4) 0.6257(4) 0.4621(3)
H26A H 1.3647(4) 0.6359(4) 0.4795(3)
O19A O 1.5112(3) 0.3653(3) 0.2400(2)
C41A C 1.6423(14) 0.3359(12) 0.2434(9)
H57A H 1.6582(14) 0.3425(12) 0.2949(9)
H58A H 1.6849(14) 0.2560(12) 0.2373(9)
C42A C 1.6897(14) 0.4149(13) 0.1792(10)
H59A H 1.7788(14) 0.3963(13) 0.1822(10)
H60A H 1.6477(14) 0.4944(13) 0.1862(10)
O20A O 1.6702(14) 0.4064(10) 0.1033(6)
C43A C 1.5444(14) 0.4285(10) 0.1010(8)
H61A H 1.4989(14) 0.5085(10) 0.1060(8)
H62A H 1.5306(14) 0.4202(10) 0.0495(8)
C44A C 1.4936(15) 0.3486(12) 0.1660(10)
H63A H 1.5375(15) 0.2681(12) 0.1614(10)
H64A H 1.4051(15) 0.3659(12) 0.1619(10)
H18A H 0.9966(4) 0.5635(4) 0.2218(3)
H19A H 1.1041(4) 0.4901(4) 0.1675(3)
C11A C 1.5473(4) 0.0301(4) 0.2204(3)
H9A H 1.4920(4) 0.0276(4) 0.1879(3)
C12A C 1.6735(4) -0.0116(4) 0.2000(3)
H10A H 1.7023(4) -0.0396(4) 0.1529(3)
C13A C 1.7564(4) -0.0132(4) 0.2460(3)
C14A C 1.7106(4) 0.0303(4) 0.3153(3)
H11A H 1.7666(4) 0.0302(4) 0.3484(3)
C27A C 1.8968(5) -0.0572(5) 0.2257(3)
C28A C 1.9531(5) -0.1627(5) 0.2884(4)
H27A H 2.0423(6) -0.1918(20) 0.2760(13)
H28A H 1.9350(31) -0.1418(9) 0.3399(5)
H29A H 1.9178(27) -0.2221(13) 0.2896(16)
C29A C 1.9305(6) -0.0918(6) 0.1461(4)
H30A H 1.9000(35) -0.0244(9) 0.1046(4)
H31A H 2.0201(6) -0.1243(35) 0.1371(12)
H32A H 1.8930(33) -0.1490(27) 0.1456(9)
C30A C 1.9524(5) 0.0352(5) 0.2237(4)
H33A H 2.0416(7) 0.0059(14) 0.2112(25)
H34A H 1.9165(28) 0.1027(14) 0.1836(16)
H35A H 1.9346(33) 0.0561(26) 0.2751(8)
C3A C 1.3786(4) 0.2544(4) 0.6448(3)
H1A H 1.4103(4) 0.1733(4) 0.6584(3)
C4A C 1.3098(4) 0.3163(4) 0.7004(3)
H2A H 1.2941(4) 0.2773(4) 0.7524(3)
C5A C 1.2642(4) 0.4326(4) 0.6817(3)
H3A H 1.2176(4) 0.4740(4) 0.7207(3)
C6A C 1.2856(4) 0.4915(4) 0.6052(3)
H4A H 1.2534(4) 0.5726(4) 0.5923(3)
C35A C 1.0189(6) 0.5637(6) 0.4261(4)
H45A H 1.0639(6) 0.6109(6) 0.3888(4)
H46A H 0.9550(6) 0.5589(6) 0.3981(4)
H47A H 1.0996(6) 0.3056(6) 0.5268(4)
H48A H 0.9769(6) 0.3708(6) 0.4825(4)
Cl1 Cl 1.1175(17) 0.8073(19) 0.5791(16)
O2 O 1.1989(30) 0.9004(33) 0.3822(17)
O5 O 0.9400(13) 0.9195(15) 0.4602(10)
O17 O 1.0252(4) 0.3708(4) 0.9627(3)
C37 C 1.0370(7) 0.2684(6) 1.0192(4)
H49 H 1.0831(7) 0.2023(6) 0.9943(4)
H50 H 0.9543(7) 0.2631(6) 1.0392(4)
C38 C 1.1016(7) 0.2637(7) 1.0850(4)
H51 H 1.0530(7) 0.3269(7) 1.1121(4)
H52 H 1.1104(7) 0.1906(7) 1.1233(4)
O18 O 1.2210(5) 0.2733(5) 1.0568(3)
C39 C 1.2047(6) 0.3792(6) 1.0041(4)
H53 H 1.2854(6) 0.3897(6) 0.9849(4)
H54 H 1.1540(6) 0.4422(6) 1.0308(4)
C40 C 1.1420(6) 0.3809(7) 0.9366(4)
H55 H 1.1336(6) 0.4534(7) 0.8976(4)
H56 H 1.1925(6) 0.3170(7) 0.9107(4)
Cl2? Cl 1.1260(25) 0.7888(35) 0.5812(20)
Cl3? Cl 1.1022(17) 0.8337(18) 0.6011(11)
Cl4? Cl 1.1769(52) 0.9221(45) 0.4126(32)
O3? O 1.1513(29) 0.9212(41) 0.3949(25)
O4? O 1.1851(52) 0.8841(39) 0.4147(28)
O6? O 0.9072(27) 0.9466(22) 0.4599(17)
O7? O 0.8673(17) 0.9464(18) 0.5107(12)
O8? O 0.8928(29) 0.9077(26) 0.4885(18)
C45? C 0.3960(15) 0.6087(16) 0.7325(11)
H65? H 0.4118(15) 0.5251(16) 0.7461(11)
H66? H 0.3976(15) 0.6338(16) 0.6746(11)
C46? C 0.2772(16) 0.6668(17) 0.7685(11)
H67? H 0.2600(16) 0.7504(17) 0.7518(11)
H68? H 0.2130(16) 0.6479(17) 0.7502(11)
O21? O 0.2717(14) 0.6358(14) 0.8513(12)
C47? C 0.3641(20) 0.6580(21) 0.8761(12)
H69? H 0.3624(20) 0.6329(21) 0.9339(12)
H70? H 0.3479(20) 0.7417(21) 0.8631(12)
C48? C 0.4855(17) 0.6027(18) 0.8417(13)
H71? H 0.5470(17) 0.6249(18) 0.8602(13)
H72? H 0.5062(17) 0.5186(18) 0.8582(13)
loop_
_geom_bond_atom_site_label_1
_geom_bond_atom_site_label_2
_geom_bond_site_symmetry_1
_geom_bond_site_symmetry_2
Rb1 O1 1_555 1_555
O9 Rb1 1_555 1_555
O10 Rb1 1_555 1_555
O11 Rb1 1_555 1_555
O12 Rb1 1_555 1_555
O13 Rb1 1_555 1_555
O14 Rb1 1_555 1_555
O15 Rb1 1_555 1_555
C1 O9 1_555 1_555
C2 O10 1_555 1_555
C3 C2 1_555 1_555
H1 C3 1_555 1_555
C4 C3 1_555 1_555
H2 C4 1_555 1_555
C5 C4 1_555 1_555
H3 C5 1_555 1_555
C6 C1 1_555 1_555
H4 C6 1_555 1_555
C7 O10 1_555 1_555
H5 C7 1_555 1_555
H6 C7 1_555 1_555
C8 O11 1_555 1_555
H7 C8 1_555 1_555
H8 C8 1_555 1_555
C9 O11 1_555 1_555
C10 O12 1_555 1_555
C11 C10 1_555 1_555
H9 C11 1_555 1_555
C12 C11 1_555 1_555
H10 C12 1_555 1_555
C13 C12 1_555 1_555
C14 C9 1_555 1_555
H11 C14 1_555 1_555
C15 O12 1_555 1_555
H12 C15 1_555 1_555
H13 C15 1_555 1_555
C16 O13 1_555 1_555
H14 C16 1_555 1_555
H15 C16 1_555 1_555
C17 O13 1_555 1_555
H16 C17 1_555 1_555
H17 C17 1_555 1_555
C18 O14 1_555 1_555
H18 C18 1_555 1_555
H19 C18 1_555 1_555
C19 O14 1_555 1_555
C20 O15 1_555 1_555
C21 C20 1_555 1_555
H20 C21 1_555 1_555
C22 C21 1_555 1_555
C23 C22 1_555 1_555
H21 C23 1_555 1_555
C24 C19 1_555 1_555
H22 C24 1_555 1_555
C25 O15 1_555 1_555
H23 C25 1_555 1_555
H24 C25 1_555 1_555
C26 O9 1_555 1_555
H25 C26 1_555 1_555
H26 C26 1_555 1_555
C27 C13 1_555 1_555
C28 C27 1_555 1_555
H27 C28 1_555 1_555
H28 C28 1_555 1_555
H29 C28 1_555 1_555
C29 C27 1_555 1_555
H30 C29 1_555 1_555
H31 C29 1_555 1_555
H32 C29 1_555 1_555
C30 C27 1_555 1_555
H33 C30 1_555 1_555
H34 C30 1_555 1_555
H35 C30 1_555 1_555
C31 C22 1_555 1_555
C32 C31 1_555 1_555
H36 C32 1_555 1_555
H37 C32 1_555 1_555
H38 C32 1_555 1_555
C33 C31 1_555 1_555
H39 C33 1_555 1_555
H40 C33 1_555 1_555
H41 C33 1_555 1_555
C34 C31 1_555 1_555
H42 C34 1_555 1_555
H43 C34 1_555 1_555
H44 C34 1_555 1_555
O16 Rb1 1_555 1_555
C35 O16 1_555 1_555
H45 C35 1_555 1_555
H46 C35 1_555 1_555
C36 O16 1_555 1_555
H47 C36 1_555 1_555
H48 C36 1_555 1_555
O17 C37 1_555 1_555
C37 H49 1_555 1_555
H50 C37 1_555 1_555
C38 C37 1_555 1_555
H51 C38 1_555 1_555
H52 C38 1_555 1_555
O18 C38 1_555 1_555
C39 O18 1_555 1_555
H53 C39 1_555 1_555
H54 C39 1_555 1_555
C40 O17 1_555 1_555
H55 C40 1_555 1_555
H56 C40 1_555 1_555
O19 Rb1 1_555 1_555
C41 O19 1_555 1_555
H57 C41 1_555 1_555
H58 C41 1_555 1_555
C42 C41 1_555 1_555
H59 C42 1_555 1_555
H60 C42 1_555 1_555
O20 C42 1_555 1_555
C43 O20 1_555 1_555
H61 C43 1_555 1_555
H62 C43 1_555 1_555
C44 O19 1_555 1_555
H63 C44 1_555 1_555
H64 C44 1_555 1_555
C36A C35 1_555 1_555
O16A C36A 1_555 1_555
Rb1A O16A 1_555 1_555
O1A Rb1A 1_555 1_555
O9A Rb1A 1_555 1_555
C1A O9A 1_555 1_555
C2A C1A 1_555 1_555
O10A Rb1A 1_555 1_555
O11A Rb1A 1_555 1_555
C8A O11A 1_555 1_555
C7A O10A 1_555 1_555
H5A C7A 1_555 1_555
H6A C7A 1_555 1_555
H7A C8A 1_555 1_555
H8A C8A 1_555 1_555
C9A O11A 1_555 1_555
C10A C9A 1_555 1_555
O12A Rb1A 1_555 1_555
O13A Rb1A 1_555 1_555
C16A O13A 1_555 1_555
C15A O12A 1_555 1_555
H12A C15A 1_555 1_555
H13A C15A 1_555 1_555
H14A C16A 1_555 1_555
H15A C16A 1_555 1_555
C17A O13A 1_555 1_555
H16A C17A 1_555 1_555
H17A C17A 1_555 1_555
C18A C17A 1_555 1_555
O14A Rb1A 1_555 1_555
O15A Rb1A 1_555 1_555
C20A O15A 1_555 1_555
C19A O14A 1_555 1_555
C24A C19A 1_555 1_555
C23A C24A 1_555 1_555
C22A C23A 1_555 1_555
C21A C20A 1_555 1_555
H20A C21A 1_555 1_555
C31A C22A 1_555 1_555
C32A C31A 1_555 1_555
H36A C32A 1_555 1_555
H37A C32A 1_555 1_555
H38A C32A 1_555 1_555
C33A C31A 1_555 1_555
H39A C33A 1_555 1_555
H40A C33A 1_555 1_555
H41A C33A 1_555 1_555
C34A C31A 1_555 1_555
H42A C34A 1_555 1_555
H43A C34A 1_555 1_555
H44A C34A 1_555 1_555
H21A C23A 1_555 1_555
H22A C24A 1_555 1_555
C25A O15A 1_555 1_555
H23A C25A 1_555 1_555
H24A C25A 1_555 1_555
C26A O9A 1_555 1_555
H25A C26A 1_555 1_555
H26A C26A 1_555 1_555
O19A Rb1A 1_555 1_555
C41A O19A 1_555 1_555
H57A C41A 1_555 1_555
H58A C41A 1_555 1_555
C42A C41A 1_555 1_555
H59A C42A 1_555 1_555
H60A C42A 1_555 1_555
O20A C42A 1_555 1_555
C43A O20A 1_555 1_555
H61A C43A 1_555 1_555
H62A C43A 1_555 1_555
C44A O19A 1_555 1_555
H63A C44A 1_555 1_555
H64A C44A 1_555 1_555
H18A C18A 1_555 1_555
H19A C18A 1_555 1_555
C11A C10A 1_555 1_555
H9A C11A 1_555 1_555
C12A C11A 1_555 1_555
H10A C12A 1_555 1_555
C13A C12A 1_555 1_555
C14A C9A 1_555 1_555
H11A C14A 1_555 1_555
C27A C13A 1_555 1_555
C28A C27A 1_555 1_555
H27A C28A 1_555 1_555
H28A C28A 1_555 1_555
H29A C28A 1_555 1_555
C29A C27A 1_555 1_555
H30A C29A 1_555 1_555
H31A C29A 1_555 1_555
H32A C29A 1_555 1_555
C30A C27A 1_555 1_555
H33A C30A 1_555 1_555
H34A C30A 1_555 1_555
H35A C30A 1_555 1_555
C3A C2A 1_555 1_555
H1A C3A 1_555 1_555
C4A C3A 1_555 1_555
H2A C4A 1_555 1_555
C5A C4A 1_555 1_555
H3A C5A 1_555 1_555
C6A C1A 1_555 1_555
H4A C6A 1_555 1_555
C35A C36 1_555 1_555
H45A C35A 1_555 1_555
H46A C35A 1_555 1_555
H47A C36A 1_555 1_555
H48A C36A 1_555 1_555
C1 C2 1_555 1_555
C5 C6 1_555 1_555
C7 C8 1_555 1_555
C9 C10 1_555 1_555
C13 C14 1_555 1_555
C15 C16 1_555 1_555
C17 C18 1_555 1_555
C19 C20 1_555 1_555
C23 C24 1_555 1_555
C25 C26 1_555 1_555
C39 C40 1_555 1_555
C43 C44 1_555 1_555
O16A C35A 1_555 1_555
C2A O10A 1_555 1_555
C8A C7A 1_555 1_555
C10A O12A 1_555 1_555
C16A C15A 1_555 1_555
C18A O14A 1_555 1_555
C20A C19A 1_555 1_555
C22A C21A 1_555 1_555
C25A C26A 1_555 1_555
C43A C44A 1_555 1_555
C13A C14A 1_555 1_555
C5A C6A 1_555 1_555

#END
