
#######################################################################
#
#                 Cambridge Crystallographic Data Centre
#                                CCDC 
#
#######################################################################
#
# If this CIF has been generated from an entry in the Cambridge 
# Structural Database, then it will include bibliographic, chemical, 
# crystal, experimental, refinement or atomic coordinate data resulting 
# from the CCDC's data processing and validation procedures.
#
#######################################################################

data_NUGBIA
_chemical_formula_moiety         'C26 H28 Cs1 N1 O10'
_chemical_name_systematic        (Nitrato-O,O')-tribenzo-21-crown-7-cesium
_symmetry_cell_setting           monoclinic
_symmetry_space_group_name_H-M   'P 21/c'
_symmetry_Int_Tables_number      14
_space_group_name_Hall           '-P 2ybc'
loop_
_symmetry_equiv_pos_site_id
_symmetry_equiv_pos_as_xyz
1 x,y,z
2 x,1/2-y,1/2+z
3 -x,-y,-z
4 -x,1/2+y,1/2-z
_cell_length_a                   9.598(2)
_cell_length_b                   23.466(3)
_cell_length_c                   23.972(5)
_cell_angle_alpha                90
_cell_angle_beta                 93.310(11)
_cell_angle_gamma                90
_cell_volume                     5390.13
_exptl_crystal_description       block
_cell_formula_units_Z            8
loop_
_atom_site_label
_atom_site_type_symbol
_atom_site_fract_x
_atom_site_fract_y
_atom_site_fract_z
Cs1 Cs 0.24659(8) 0.47664(4) 0.34974(3)
O1 O -0.0467(7) 0.4077(3) 0.3105(3)
O2 O 0.0355(7) 0.3904(3) 0.4150(3)
O3 O 0.2780(8) 0.4417(4) 0.4720(3)
O4 O 0.5167(7) 0.4416(3) 0.4317(3)
O5 O 0.5710(7) 0.4754(4) 0.3179(4)
O6 O 0.3566(7) 0.4899(3) 0.2277(3)
O7 O 0.0931(7) 0.4840(4) 0.2357(3)
O15 O 0.1339(13) 0.6085(6) 0.3573(5)
O16 O 0.0259(26) 0.5530(10) 0.4030(11)
O17 O -0.0899(20) 0.6249(10) 0.3630(10)
N1 N 0.0222(15) 0.5965(6) 0.3749(5)
C1 C -0.1040(11) 0.3610(5) 0.3357(5)
C2 C -0.0583(12) 0.3519(5) 0.3909(5)
C3 C -0.1124(12) 0.3061(5) 0.4201(5)
H1 H -0.0809(12) 0.2986(5) 0.4567(5)
C4 C -0.2127(13) 0.2722(6) 0.3936(5)
H2 H -0.2516(13) 0.2426(6) 0.4133(5)
C5 C -0.2554(13) 0.2810(5) 0.3404(5)
H3 H -0.3224(13) 0.2571(5) 0.3234(5)
C6 C -0.2009(12) 0.3257(5) 0.3098(5)
H4 H -0.2299(12) 0.3312(5) 0.2725(5)
C7 C 0.0612(12) 0.3890(6) 0.4738(5)
H5 H 0.1154(12) 0.3554(6) 0.4846(5)
H6 H -0.0263(12) 0.3875(6) 0.4920(5)
C8 C 0.1397(12) 0.4415(6) 0.4909(5)
H7 H 0.0897(12) 0.4745(6) 0.4759(5)
H8 H 0.1443(12) 0.4444(6) 0.5313(5)
C9 C 0.3780(12) 0.4100(5) 0.5010(5)
C10 C 0.5071(12) 0.4114(5) 0.4787(5)
C11 C 0.6181(15) 0.3805(6) 0.5054(6)
H9 H 0.7056(15) 0.3798(6) 0.4906(6)
C12 C 0.5935(17) 0.3514(7) 0.5538(6)
H10 H 0.6671(17) 0.3317(7) 0.5720(6)
C13 C 0.4690(15) 0.3501(6) 0.5758(6)
H11 H 0.4562(15) 0.3297(6) 0.6083(6)
C14 C 0.3587(14) 0.3798(6) 0.5492(5)
H12 H 0.2713(14) 0.3793(6) 0.5641(5)
C15 C 0.6502(12) 0.4479(6) 0.4103(5)
H13 H 0.6789(12) 0.4120(6) 0.3944(5)
H14 H 0.7176(12) 0.4580(6) 0.4404(5)
C16 C 0.6464(13) 0.4927(6) 0.3669(6)
H15 H 0.6039(13) 0.5267(6) 0.3813(6)
H16 H 0.7411(13) 0.5021(6) 0.3582(6)
C17 C 0.5649(12) 0.5197(6) 0.2771(6)
H17 H 0.6584(12) 0.5339(6) 0.2723(6)
H18 H 0.5094(12) 0.5510(6) 0.2902(6)
C18 C 0.5037(12) 0.4994(5) 0.2231(5)
H19 H 0.5182(12) 0.5275(5) 0.1944(5)
H20 H 0.5486(12) 0.4642(5) 0.2128(5)
C19 C 0.2807(11) 0.4740(5) 0.1795(4)
C20 C 0.1362(11) 0.4707(5) 0.1838(5)
C21 C 0.0543(13) 0.4541(5) 0.1380(5)
H21 H -0.0419(13) 0.4510(5) 0.1400(5)
C22 C 0.1165(13) 0.4419(6) 0.0885(5)
H22 H 0.0612(13) 0.4306(6) 0.0573(5)
C23 C 0.2568(13) 0.4462(6) 0.0849(6)
H23 H 0.2958(13) 0.4385(6) 0.0511(6)
C24 C 0.3419(12) 0.4618(5) 0.1303(5)
H24 H 0.4381(12) 0.4641(5) 0.1280(5)
C25 C -0.0544(12) 0.4810(6) 0.2433(5)
H25 H -0.1044(12) 0.4944(6) 0.2094(5)
H26 H -0.0765(12) 0.5065(6) 0.2733(5)
C26 C -0.1050(12) 0.4223(6) 0.2565(5)
H27 H -0.2061(12) 0.4218(6) 0.2561(5)
H28 H -0.0754(12) 0.3953(6) 0.2289(5)
Cs2 Cs 0.04079(8) 0.15899(4) 0.42703(3)
O8 O -0.2781(7) 0.1176(3) 0.4028(3)
O9 O -0.1255(7) 0.1284(3) 0.3203(3)
O10 O 0.0937(7) 0.2128(3) 0.3062(3)
O11 O 0.2709(8) 0.2490(3) 0.3851(3)
O12 O 0.2324(8) 0.2424(3) 0.5021(3)
O13 O -0.0160(8) 0.2030(4) 0.5522(3)
O14 O -0.1731(8) 0.1212(4) 0.5161(3)
O20 O 0.2015(11) 0.0674(5) 0.3622(4)
O21 O 0.2920(13) 0.0740(5) 0.4444(5)
O22 O 0.3092(14) -0.0036(5) 0.3896(5)
N2 N 0.2695(11) 0.0439(4) 0.4026(5)
C27 C -0.3481(11) 0.1318(5) 0.3536(5)
C28 C -0.2647(11) 0.1373(4) 0.3079(4)
C29 C -0.3253(12) 0.1518(5) 0.2562(5)
H29 H -0.2712(12) 0.1550(5) 0.2254(5)
C30 C -0.4687(12) 0.1614(5) 0.2508(5)
H30 H -0.5095(12) 0.1718(5) 0.2162(5)
C31 C -0.5490(13) 0.1560(5) 0.2944(5)
H31 H -0.6448(13) 0.1617(5) 0.2897(5)
C32 C -0.4887(12) 0.1418(5) 0.3466(5)
H32 H -0.5441(12) 0.1390(5) 0.3770(5)
C33 C -0.0322(12) 0.1291(5) 0.2766(5)
H33 H -0.0763(12) 0.1105(5) 0.2440(5)
H34 H 0.0505(12) 0.1074(5) 0.2881(5)
C34 C 0.0107(12) 0.1883(6) 0.2607(5)
H35 H 0.0641(12) 0.1868(6) 0.2276(5)
H36 H -0.0715(12) 0.2115(6) 0.2524(5)
C35 C 0.1729(11) 0.2601(5) 0.2944(5)
C36 C 0.2671(11) 0.2776(5) 0.3351(5)
C37 C 0.3586(13) 0.3231(5) 0.3239(5)
H37 H 0.4259(13) 0.3352(5) 0.3508(5)
C38 C 0.3459(14) 0.3490(6) 0.2724(6)
H38 H 0.4064(14) 0.3785(6) 0.2648(6)
C39 C 0.2513(14) 0.3334(6) 0.2338(6)
H39 H 0.2444(14) 0.3523(6) 0.1997(6)
C40 C 0.1598(13) 0.2879(6) 0.2439(5)
H40 H 0.0918(13) 0.2769(6) 0.2168(5)
C41 C 0.3706(13) 0.2670(6) 0.4267(6)
H41 H 0.3544(13) 0.3065(6) 0.4361(6)
H42 H 0.4635(13) 0.2639(6) 0.4131(6)
C42 C 0.3600(12) 0.2308(6) 0.4770(6)
H43 H 0.3636(12) 0.1909(6) 0.4666(6)
H44 H 0.4379(12) 0.2386(6) 0.5035(6)
C43 C 0.2285(14) 0.2191(6) 0.5550(6)
H45 H 0.3062(14) 0.2336(6) 0.5785(6)
H46 H 0.2380(14) 0.1780(6) 0.5527(6)
C44 C 0.0951(16) 0.2334(6) 0.5805(5)
H47 H 0.1010(16) 0.2232(6) 0.6197(5)
H48 H 0.0778(16) 0.2741(6) 0.5776(5)
C45 C -0.1378(12) 0.1964(5) 0.5783(5)
C46 C -0.2223(12) 0.1529(5) 0.5591(5)
C47 C -0.3485(13) 0.1414(6) 0.5830(5)
H49 H -0.4067(13) 0.1121(6) 0.5698(5)
C48 C -0.3842(14) 0.1765(6) 0.6285(6)
H50 H -0.4666(14) 0.1695(6) 0.6459(6)
C49 C -0.3012(14) 0.2197(6) 0.6469(6)
H51 H -0.3278(14) 0.2424(6) 0.6763(6)
C50 C -0.1759(14) 0.2307(6) 0.6223(5)
H52 H -0.1186(14) 0.2605(6) 0.6351(5)
C51 C -0.2574(13) 0.0763(5) 0.4911(5)
H53 H -0.3090(13) 0.0579(5) 0.5197(5)
H54 H -0.1972(13) 0.0480(5) 0.4755(5)
C52 C -0.3565(12) 0.0977(5) 0.4466(5)
H55 H -0.4188(12) 0.0674(5) 0.4334(5)
H56 H -0.4122(12) 0.1284(5) 0.4608(5)
O18? O -0.0207(19) 0.5472(8) 0.3764(9)
O19? O -0.0356(27) 0.6392(9) 0.3889(11)
O23? O 0.2293(53) 0.0541(24) 0.4501(12)
O24? O 0.3659(28) 0.0103(13) 0.4069(12)
loop_
_geom_bond_atom_site_label_1
_geom_bond_atom_site_label_2
_geom_bond_site_symmetry_1
_geom_bond_site_symmetry_2
Cs1 O1 1_555 1_555
Cs2 O8 1_555 1_555
O1 C1 1_555 1_555
O2 Cs1 1_555 1_555
O3 Cs1 1_555 1_555
O4 Cs1 1_555 1_555
O5 Cs1 1_555 1_555
O6 Cs1 1_555 1_555
O7 Cs1 1_555 1_555
O8 C27 1_555 1_555
O9 Cs2 1_555 1_555
O10 Cs2 1_555 1_555
O11 Cs2 1_555 1_555
O12 Cs2 1_555 1_555
O13 Cs2 1_555 1_555
O14 Cs2 1_555 1_555
O15 Cs1 1_555 1_555
O16 Cs1 1_555 1_555
O17 N1 1_555 1_555
O20 Cs2 1_555 1_555
O21 Cs2 1_555 1_555
O22 N2 1_555 1_555
N1 O15 1_555 1_555
N2 O20 1_555 1_555
C1 C2 1_555 1_555
C2 O2 1_555 1_555
C3 C2 1_555 1_555
H1 C3 1_555 1_555
C4 C3 1_555 1_555
H2 C4 1_555 1_555
C5 C4 1_555 1_555
H3 C5 1_555 1_555
C6 C1 1_555 1_555
H4 C6 1_555 1_555
C7 O2 1_555 1_555
H5 C7 1_555 1_555
H6 C7 1_555 1_555
C8 O3 1_555 1_555
H7 C8 1_555 1_555
H8 C8 1_555 1_555
C9 O3 1_555 1_555
C10 O4 1_555 1_555
C11 C10 1_555 1_555
H9 C11 1_555 1_555
C12 C11 1_555 1_555
H10 C12 1_555 1_555
C13 C12 1_555 1_555
H11 C13 1_555 1_555
C14 C9 1_555 1_555
H12 C14 1_555 1_555
C15 O4 1_555 1_555
H13 C15 1_555 1_555
H14 C15 1_555 1_555
C16 O5 1_555 1_555
H15 C16 1_555 1_555
H16 C16 1_555 1_555
C17 O5 1_555 1_555
H17 C17 1_555 1_555
H18 C17 1_555 1_555
C18 O6 1_555 1_555
H19 C18 1_555 1_555
H20 C18 1_555 1_555
C19 O6 1_555 1_555
C20 O7 1_555 1_555
C21 C20 1_555 1_555
H21 C21 1_555 1_555
C22 C21 1_555 1_555
H22 C22 1_555 1_555
C23 C22 1_555 1_555
H23 C23 1_555 1_555
C24 C19 1_555 1_555
H24 C24 1_555 1_555
C25 O7 1_555 1_555
H25 C25 1_555 1_555
H26 C25 1_555 1_555
C26 O1 1_555 1_555
H27 C26 1_555 1_555
H28 C26 1_555 1_555
C27 C28 1_555 1_555
C28 O9 1_555 1_555
C29 C28 1_555 1_555
H29 C29 1_555 1_555
C30 C29 1_555 1_555
H30 C30 1_555 1_555
C31 C30 1_555 1_555
H31 C31 1_555 1_555
C32 C27 1_555 1_555
H32 C32 1_555 1_555
C33 O9 1_555 1_555
H33 C33 1_555 1_555
H34 C33 1_555 1_555
C34 O10 1_555 1_555
H35 C34 1_555 1_555
H36 C34 1_555 1_555
C35 O10 1_555 1_555
C36 O11 1_555 1_555
C37 C36 1_555 1_555
H37 C37 1_555 1_555
C38 C37 1_555 1_555
H38 C38 1_555 1_555
C39 C38 1_555 1_555
H39 C39 1_555 1_555
C40 C35 1_555 1_555
H40 C40 1_555 1_555
C41 O11 1_555 1_555
H41 C41 1_555 1_555
H42 C41 1_555 1_555
C42 O12 1_555 1_555
H43 C42 1_555 1_555
H44 C42 1_555 1_555
C43 O12 1_555 1_555
H45 C43 1_555 1_555
H46 C43 1_555 1_555
C44 O13 1_555 1_555
H47 C44 1_555 1_555
H48 C44 1_555 1_555
C45 O13 1_555 1_555
C46 O14 1_555 1_555
C47 C46 1_555 1_555
H49 C47 1_555 1_555
C48 C47 1_555 1_555
H50 C48 1_555 1_555
C49 C48 1_555 1_555
H51 C49 1_555 1_555
C50 C45 1_555 1_555
H52 C50 1_555 1_555
C51 O14 1_555 1_555
H53 C51 1_555 1_555
H54 C51 1_555 1_555
C52 O8 1_555 1_555
H55 C52 1_555 1_555
H56 C52 1_555 1_555
O16 N1 1_555 1_555
O21 N2 1_555 1_555
C5 C6 1_555 1_555
C7 C8 1_555 1_555
C9 C10 1_555 1_555
C13 C14 1_555 1_555
C15 C16 1_555 1_555
C17 C18 1_555 1_555
C19 C20 1_555 1_555
C23 C24 1_555 1_555
C25 C26 1_555 1_555
C31 C32 1_555 1_555
C33 C34 1_555 1_555
C35 C36 1_555 1_555
C39 C40 1_555 1_555
C41 C42 1_555 1_555
C43 C44 1_555 1_555
C45 C46 1_555 1_555
C49 C50 1_555 1_555
C51 C52 1_555 1_555

#END
