
#######################################################################
#
#                 Cambridge Crystallographic Data Centre
#                                CCDC 
#
#######################################################################
#
# If this CIF has been generated from an entry in the Cambridge 
# Structural Database, then it will include bibliographic, chemical, 
# crystal, experimental, refinement or atomic coordinate data resulting 
# from the CCDC's data processing and validation procedures.
#
#######################################################################

data_NUGCOJ
_chemical_formula_moiety         'C22 H14 N2 O1 S1'
_chemical_name_systematic        
2-(9-phenyl-9H-carbazol-3-yl)-1,3-thiazole-5-carbaldehyde
_symmetry_cell_setting           monoclinic
_symmetry_space_group_name_H-M   'P 21/n'
_symmetry_Int_Tables_number      14
_space_group_name_Hall           '-P 2yn'
loop_
_symmetry_equiv_pos_site_id
_symmetry_equiv_pos_as_xyz
1 x,y,z
2 1/2-x,1/2+y,1/2-z
3 -x,-y,-z
4 1/2+x,1/2-y,1/2+z
_cell_length_a                   8.5063(18)
_cell_length_b                   7.0054(14)
_cell_length_c                   29.677(6)
_cell_angle_alpha                90
_cell_angle_beta                 94.145(4)
_cell_angle_gamma                90
_cell_volume                     1763.83
_exptl_crystal_colour            yellow
_exptl_crystal_description       block
_cell_formula_units_Z            4
loop_
_atom_site_label
_atom_site_type_symbol
_atom_site_fract_x
_atom_site_fract_y
_atom_site_fract_z
C1 C 0.7614(3) -0.3170(3) -0.01340(8)
H1 H 0.8313 -0.4172 -0.0168
C2 C 0.8168(2) -0.1658(3) 0.01680(6)
C3 C 0.86153(18) 0.1089(2) 0.06571(5)
C4 C 0.9512(2) -0.1676(3) 0.04446(6)
H2 H 1.0217 -0.2691 0.0446
C5 C 0.85456(17) 0.2877(2) 0.09096(5)
C6 C 0.72306(17) 0.4060(2) 0.08676(5)
H3 H 0.6377 0.3744 0.0668
C7 C 0.71974(16) 0.5712(2) 0.11245(5)
C8 C 0.85040(18) 0.6166(2) 0.14300(5)
C9 C 0.9819(2) 0.4987(3) 0.14763(6)
H4 H 1.0669 0.5287 0.1679
C10 C 0.9833(2) 0.3372(3) 0.12162(6)
H5 H 1.0713 0.2580 0.1242
C11 C 0.60522(17) 0.7217(2) 0.11617(5)
C12 C 0.66959(17) 0.8517(2) 0.14840(5)
C13 C 0.59282(19) 1.0185(3) 0.15894(6)
H6 H 0.6373 1.1043 0.1801
C14 C 0.4471(2) 1.0517(3) 0.13655(7)
H7 H 0.3931 1.1631 0.1426
C15 C 0.3794(2) 0.9233(3) 0.10537(6)
H8 H 0.2805 0.9492 0.0913
C16 C 0.45614(18) 0.7581(3) 0.09482(6)
H9 H 0.4099 0.6724 0.0739
C17 C 0.91530(18) 0.8715(2) 0.20084(5)
C18 C 0.8552(2) 0.8956(3) 0.24235(6)
H10 H 0.7536 0.8546 0.2470
C19 C 0.9468(2) 0.9809(3) 0.27709(6)
H11 H 0.9067 0.9971 0.3052
C20 C 1.0969(2) 1.0420(3) 0.27030(7)
H12 H 1.1573 1.1020 0.2935
C21 C 1.1575(2) 1.0143(3) 0.22917(8)
H13 H 1.2599 1.0529 0.2249
C22 C 1.0668(2) 0.9292(3) 0.19396(6)
H14 H 1.1077 0.9112 0.1660
N1 N 0.97761(17) -0.0143(2) 0.07191(5)
N2 N 0.81901(15) 0.78591(19) 0.16476(4)
O1 O 0.6417(3) -0.3292(3) -0.03387(9)
S1 S 0.71487(5) 0.04170(7) 0.025409(15)
H15? H 0.6592 -0.2898 -0.0279
O2? O 0.8079(10) -0.4505(10) -0.0232(3)
loop_
_geom_bond_atom_site_label_1
_geom_bond_atom_site_label_2
_geom_bond_site_symmetry_1
_geom_bond_site_symmetry_2
C1 H1 1_555 1_555
C2 C1 1_555 1_555
C3 C5 1_555 1_555
C4 C2 1_555 1_555
H2 C4 1_555 1_555
C5 C6 1_555 1_555
C6 H3 1_555 1_555
C7 C6 1_555 1_555
C8 C7 1_555 1_555
C9 C8 1_555 1_555
H4 C9 1_555 1_555
C10 C5 1_555 1_555
H5 C10 1_555 1_555
C11 C7 1_555 1_555
C12 C11 1_555 1_555
C13 C12 1_555 1_555
H6 C13 1_555 1_555
C14 C13 1_555 1_555
H7 C14 1_555 1_555
C15 C14 1_555 1_555
H8 C15 1_555 1_555
C16 C11 1_555 1_555
H9 C16 1_555 1_555
C17 C18 1_555 1_555
C18 H10 1_555 1_555
C19 C18 1_555 1_555
H11 C19 1_555 1_555
C20 C19 1_555 1_555
H12 C20 1_555 1_555
C21 C20 1_555 1_555
H13 C21 1_555 1_555
C22 C17 1_555 1_555
H14 C22 1_555 1_555
N1 C3 1_555 1_555
N2 C8 1_555 1_555
O1 C1 1_555 1_555
S1 C2 1_555 1_555
C3 S1 1_555 1_555
C4 N1 1_555 1_555
C9 C10 1_555 1_555
C12 N2 1_555 1_555
C15 C16 1_555 1_555
C17 N2 1_555 1_555
C21 C22 1_555 1_555

#END
