
#######################################################################
#
#                 Cambridge Crystallographic Data Centre
#                                CCDC 
#
#######################################################################
#
# If this CIF has been generated from an entry in the Cambridge 
# Structural Database, then it will include bibliographic, chemical, 
# crystal, experimental, refinement or atomic coordinate data resulting 
# from the CCDC's data processing and validation procedures.
#
#######################################################################

data_NUGJAA
_chemical_formula_moiety         'C18 H54 Cl2 N4 P2 Si6'
_chemical_name_systematic        
1,2-bis-(tris(Trimethylsilyl)hydrazino)-1,2-dichlorodiphosphane
_symmetry_cell_setting           triclinic
_symmetry_space_group_name_H-M   'P -1'
_symmetry_Int_Tables_number      2
_space_group_name_Hall           '-P 1'
loop_
_symmetry_equiv_pos_site_id
_symmetry_equiv_pos_as_xyz
1 x,y,z
2 -x,-y,-z
_cell_length_a                   8.838(2)
_cell_length_b                   9.324(2)
_cell_length_c                   12.368(3)
_cell_angle_alpha                77.19(2)
_cell_angle_beta                 83.07(2)
_cell_angle_gamma                63.83(2)
_cell_volume                     891.642
_exptl_crystal_colour            yellowish
_exptl_crystal_description       prism
_cell_formula_units_Z            1
loop_
_atom_site_label
_atom_site_type_symbol
_atom_site_fract_x
_atom_site_fract_y
_atom_site_fract_z
Cl1 Cl 0.38083(9) -0.13786(8) 0.41568(6)
P1 P 0.40022(7) 0.07447(7) 0.43593(5)
N1 N 0.5119(2) 0.1214(2) 0.32577(15)
Si1 Si 0.72154(8) 0.01127(8) 0.27485(6)
C1 C 0.7592(4) -0.1997(4) 0.2711(3)
H1 H 0.7459 -0.2543 0.3447
H2 H 0.8716 -0.2571 0.2434
H3 H 0.6795 -0.1969 0.2235
C2 C 0.7464(4) 0.1173(4) 0.1330(3)
H4 H 0.7264 0.2266 0.1350
H5 H 0.6669 0.1198 0.0853
H6 H 0.8589 0.0605 0.1051
C3 C 0.8872(3) -0.0054(4) 0.3624(3)
H7 H 0.8722 0.1016 0.3669
H8 H 0.9964 -0.0625 0.3301
H9 H 0.8787 -0.0639 0.4355
N2 N 0.4047(2) 0.2736(2) 0.25149(16)
Si2 Si 0.27503(9) 0.26247(9) 0.16002(6)
C4 C 0.0551(4) 0.3328(6) 0.2175(4)
H10 H 0.0158 0.4417 0.2300
H11 H 0.0524 0.2620 0.2864
H12 H -0.0165 0.3309 0.1658
C5 C 0.3449(5) 0.0534(4) 0.1357(3)
H13 H 0.4584 0.0147 0.1061
H14 H 0.2719 0.0540 0.0840
H15 H 0.3406 -0.0168 0.2046
C6 C 0.2814(6) 0.3853(6) 0.0203(3)
H16 H 0.3957 0.3479 -0.0079
H17 H 0.2386 0.4977 0.0256
H18 H 0.2132 0.3736 -0.0289
Si3 Si 0.38198(9) 0.45084(8) 0.29289(6)
C7 C 0.5900(4) 0.4400(4) 0.3158(3)
H19 H 0.6607 0.4175 0.2507
H20 H 0.6417 0.3549 0.3778
H21 H 0.5755 0.5421 0.3309
C8 C 0.2779(4) 0.6293(4) 0.1811(3)
H22 H 0.3441 0.6138 0.1135
H23 H 0.2683 0.7261 0.2021
H24 H 0.1675 0.6400 0.1698
C9 C 0.2457(4) 0.4922(4) 0.4186(3)
H25 H 0.1380 0.4973 0.4064
H26 H 0.2306 0.5940 0.4342
H27 H 0.2978 0.4065 0.4802
P1A P 0.59978(7) -0.07447(7) 0.56407(5)
Cl1A Cl 0.61917(9) 0.13786(8) 0.58432(6)
N1A N 0.4881(2) -0.1214(2) 0.67423(15)
Si1A Si 0.27846(8) -0.01127(8) 0.72515(6)
C1A C 0.2408(4) 0.1997(4) 0.7289(3)
H1A H 0.2541 0.2543 0.6553
H2A H 0.1284 0.2571 0.7566
H3A H 0.3205 0.1969 0.7765
C2A C 0.2536(4) -0.1173(4) 0.8670(3)
H4A H 0.2736 -0.2266 0.8650
H5A H 0.3331 -0.1198 0.9147
H6A H 0.1411 -0.0605 0.8949
C3A C 0.1128(3) 0.0054(4) 0.6376(3)
H7A H 0.1278 -0.1016 0.6331
H8A H 0.0036 0.0625 0.6699
H9A H 0.1213 0.0639 0.5645
N2A N 0.5953(2) -0.2736(2) 0.74851(16)
Si2A Si 0.72497(9) -0.26247(9) 0.83998(6)
C4A C 0.9449(4) -0.3328(6) 0.7825(4)
H10A H 0.9842 -0.4417 0.7700
H11A H 0.9476 -0.2620 0.7136
H12A H 1.0165 -0.3309 0.8342
C5A C 0.6551(5) -0.0534(4) 0.8643(3)
H13A H 0.5416 -0.0147 0.8939
H14A H 0.7281 -0.0540 0.9160
H15A H 0.6594 0.0168 0.7954
C6A C 0.7186(6) -0.3853(6) 0.9797(3)
H16A H 0.6043 -0.3479 1.0079
H17A H 0.7614 -0.4977 0.9744
H18A H 0.7868 -0.3736 1.0289
Si3A Si 0.61802(9) -0.45084(8) 0.70711(6)
C7A C 0.4100(4) -0.4400(4) 0.6842(3)
H19A H 0.3393 -0.4175 0.7493
H20A H 0.3583 -0.3549 0.6222
H21A H 0.4245 -0.5421 0.6691
C8A C 0.7221(4) -0.6293(4) 0.8189(3)
H22A H 0.6559 -0.6138 0.8865
H23A H 0.7317 -0.7261 0.7979
H24A H 0.8325 -0.6400 0.8302
C9A C 0.7543(4) -0.4922(4) 0.5814(3)
H25A H 0.8620 -0.4973 0.5936
H26A H 0.7694 -0.5940 0.5658
H27A H 0.7022 -0.4065 0.5198
loop_
_geom_bond_atom_site_label_1
_geom_bond_atom_site_label_2
_geom_bond_site_symmetry_1
_geom_bond_site_symmetry_2
Cl1 P1 1_555 1_555
P1 N1 1_555 1_555
N1 Si1 1_555 1_555
Si1 C1 1_555 1_555
C1 H1 1_555 1_555
H2 C1 1_555 1_555
H3 C1 1_555 1_555
C2 Si1 1_555 1_555
H4 C2 1_555 1_555
H5 C2 1_555 1_555
H6 C2 1_555 1_555
C3 Si1 1_555 1_555
H7 C3 1_555 1_555
H8 C3 1_555 1_555
H9 C3 1_555 1_555
N2 N1 1_555 1_555
Si2 N2 1_555 1_555
C4 Si2 1_555 1_555
H10 C4 1_555 1_555
H11 C4 1_555 1_555
H12 C4 1_555 1_555
C5 Si2 1_555 1_555
H13 C5 1_555 1_555
H14 C5 1_555 1_555
H15 C5 1_555 1_555
C6 Si2 1_555 1_555
H16 C6 1_555 1_555
H17 C6 1_555 1_555
H18 C6 1_555 1_555
Si3 N2 1_555 1_555
C7 Si3 1_555 1_555
H19 C7 1_555 1_555
H20 C7 1_555 1_555
H21 C7 1_555 1_555
C8 Si3 1_555 1_555
H22 C8 1_555 1_555
H23 C8 1_555 1_555
H24 C8 1_555 1_555
C9 Si3 1_555 1_555
H25 C9 1_555 1_555
H26 C9 1_555 1_555
H27 C9 1_555 1_555
P1A P1 1_555 1_555
Cl1A P1A 1_555 1_555
N1A P1A 1_555 1_555
Si1A N1A 1_555 1_555
C1A Si1A 1_555 1_555
H1A C1A 1_555 1_555
H2A C1A 1_555 1_555
H3A C1A 1_555 1_555
C2A Si1A 1_555 1_555
H4A C2A 1_555 1_555
H5A C2A 1_555 1_555
H6A C2A 1_555 1_555
C3A Si1A 1_555 1_555
H7A C3A 1_555 1_555
H8A C3A 1_555 1_555
H9A C3A 1_555 1_555
N2A N1A 1_555 1_555
Si2A N2A 1_555 1_555
C4A Si2A 1_555 1_555
H10A C4A 1_555 1_555
H11A C4A 1_555 1_555
H12A C4A 1_555 1_555
C5A Si2A 1_555 1_555
H13A C5A 1_555 1_555
H14A C5A 1_555 1_555
H15A C5A 1_555 1_555
C6A Si2A 1_555 1_555
H16A C6A 1_555 1_555
H17A C6A 1_555 1_555
H18A C6A 1_555 1_555
Si3A N2A 1_555 1_555
C7A Si3A 1_555 1_555
H19A C7A 1_555 1_555
H20A C7A 1_555 1_555
H21A C7A 1_555 1_555
C8A Si3A 1_555 1_555
H22A C8A 1_555 1_555
H23A C8A 1_555 1_555
H24A C8A 1_555 1_555
C9A Si3A 1_555 1_555
H25A C9A 1_555 1_555
H26A C9A 1_555 1_555
H27A C9A 1_555 1_555

#END
