
#######################################################################
#
#                 Cambridge Crystallographic Data Centre
#                                CCDC 
#
#######################################################################
#
# If this CIF has been generated from an entry in the Cambridge 
# Structural Database, then it will include bibliographic, chemical, 
# crystal, experimental, refinement or atomic coordinate data resulting 
# from the CCDC's data processing and validation procedures.
#
#######################################################################

data_NUGKIL
_chemical_formula_moiety         'C28 H40 S3'
_chemical_name_systematic        5,5''-Dioctyl-2,2':5',2''-terthiophene
_symmetry_cell_setting           orthorhombic
_symmetry_space_group_name_H-M   'P c a 21'
_symmetry_Int_Tables_number      29
_space_group_name_Hall           'P 2c -2ac'
loop_
_symmetry_equiv_pos_site_id
_symmetry_equiv_pos_as_xyz
1 x,y,z
2 -x,-y,1/2+z
3 1/2+x,-y,z
4 1/2-x,y,1/2+z
_cell_length_a                   63.465(2)
_cell_length_b                   5.5248(2)
_cell_length_c                   29.5109(12)
_cell_angle_alpha                90
_cell_angle_beta                 90
_cell_angle_gamma                90
_cell_volume                     10347.4
_exptl_crystal_colour            'pale yellow'
_exptl_crystal_description       Block
_cell_formula_units_Z            16
_exptl_crystal_recrystallization_method toluene
loop_
_atom_site_label
_atom_site_type_symbol
_atom_site_fract_x
_atom_site_fract_y
_atom_site_fract_z
S1 S 0.772346(13) 0.35679(14) 0.65966(3)
S2 S 0.712363(13) 0.70597(14) 0.62566(3)
S3 S 0.835545(13) 0.59925(14) 0.62017(3)
C1 C 0.73143(5) 0.5123(5) 0.64719(11)
C2 C 0.82148(5) 0.2378(6) 0.66494(11)
H1 H 0.8123 0.1272 0.6798
C3 C 0.79299(5) 0.5296(5) 0.63858(12)
C4 C 0.70012(5) 0.3215(5) 0.66607(11)
H2 H 0.6916 0.1974 0.6787
C5 C 0.75363(5) 0.5631(5) 0.64123(11)
C6 C 0.84357(5) 0.2058(6) 0.66284(11)
H3 H 0.8507 0.0723 0.6760
C7 C 0.69205(5) 0.5197(5) 0.64462(11)
C8 C 0.78573(5) 0.7374(5) 0.61962(10)
H4 H 0.7947 0.8573 0.6069
C9 C 0.81447(5) 0.4437(5) 0.64352(10)
C10 C 0.57974(5) 0.0531(6) 0.65403(13)
H5 H 0.5856 -0.1017 0.6429
H6 H 0.5799 0.0477 0.6876
C11 C 0.65422(5) 0.3878(6) 0.65088(12)
H7 H 0.6587 0.2284 0.6390
H8 H 0.6550 0.3809 0.6844
C12 C 0.59403(5) 0.2603(6) 0.63829(13)
H9 H 0.5937 0.2685 0.6048
H10 H 0.5884 0.4151 0.6501
C13 C 0.61682(5) 0.2317(6) 0.65388(12)
H11 H 0.6171 0.2290 0.6874
H12 H 0.6222 0.0738 0.6430
C14 C 0.63149(5) 0.4313(6) 0.63719(12)
H13 H 0.6306 0.4413 0.6037
H14 H 0.6267 0.5883 0.6497
C15 C 0.66958(5) 0.5817(6) 0.63382(12)
H15 H 0.6680 0.5993 0.6006
H16 H 0.6660 0.7390 0.6479
C16 C 0.55711(5) 0.0741(7) 0.63804(13)
H17 H 0.5570 0.0860 0.6046
H18 H 0.5510 0.2252 0.6503
C17 C 0.54350(6) -0.1381(7) 0.65241(15)
H19 H 0.5431 -0.1473 0.6856
H20 H 0.5494 -0.2884 0.6402
H21 H 0.5292 -0.1158 0.6408
C18 C 0.85348(5) 0.3878(5) 0.63975(12)
C19 C 0.92619(5) 0.0135(6) 0.65060(12)
H22 H 0.9201 -0.1345 0.6370
H23 H 0.9252 -0.0025 0.6839
C20 C 0.88993(5) 0.2086(5) 0.64808(12)
H24 H 0.8843 0.0558 0.6354
H25 H 0.8886 0.2000 0.6815
C21 C 0.91327(5) 0.2297(6) 0.63580(12)
H26 H 0.9146 0.2487 0.6026
H27 H 0.9191 0.3772 0.6501
C22 C 0.87676(5) 0.4182(6) 0.63072(11)
H28 H 0.8817 0.5695 0.6453
H29 H 0.8790 0.4349 0.5977
C23 C 0.98522(5) -0.1766(6) 0.63713(14)
H30 H 0.9863 -0.1379 0.6045
H31 H 0.9916 -0.0411 0.6542
C24 C 0.94934(5) 0.0294(6) 0.63738(12)
H32 H 0.9503 0.0552 0.6043
H33 H 0.9557 0.1717 0.6525
C25 C 0.96194(5) -0.1947(6) 0.64988(12)
H34 H 0.9557 -0.3367 0.6344
H35 H 0.9608 -0.2218 0.6829
C26 C 0.99764(6) -0.4047(7) 0.64654(15)
H36 H 0.9918 -0.5384 0.6286
H37 H 0.9967 -0.4443 0.6788
H38 H 1.0124 -0.3791 0.6383
C27 C 0.72234(5) 0.3185(5) 0.66767(10)
H39 H 0.7302 0.1929 0.6817
C28 C 0.76340(5) 0.7575(5) 0.62073(11)
H40 H 0.7559 0.8917 0.6086
S4 S 0.767186(12) 1.21075(12) 0.28727(3)
S5 S 0.708550(13) 0.83806(13) 0.25167(3)
S6 S 0.644458(12) 1.05741(13) 0.29004(3)
C29 C 0.75857(5) 0.8174(5) 0.24549(11)
H41 H 0.7511 0.6880 0.2316
C30 C 0.69387(5) 1.2121(5) 0.29230(11)
H42 H 0.6846 1.3267 0.3055
C31 C 0.72620(5) 1.0548(6) 0.27047(12)
C32 C 0.66618(5) 0.9077(6) 0.26640(13)
C33 C 0.78106(5) 0.8269(5) 0.24815(11)
H43 H 0.7901 0.7062 0.2359
C34 C 0.60387(5) 0.8629(6) 0.27847(12)
H44 H 0.5982 1.0069 0.2626
H45 H 0.6018 0.8873 0.3114
C35 C 0.78818(5) 1.0289(6) 0.27028(12)
C36 C 0.63751(5) 0.6675(6) 0.24604(12)
H46 H 0.6307 0.5332 0.2322
C37 C 0.68724(5) 1.0034(5) 0.27260(11)
C38 C 0.59142(5) 0.6386(6) 0.26336(12)
H47 H 0.5927 0.6207 0.2301
H48 H 0.5977 0.4930 0.2776
C39 C 0.65975(5) 0.7051(5) 0.24477(11)
H49 H 0.6692 0.5973 0.2300
C40 C 0.52073(5) 0.2036(6) 0.26431(12)
H50 H 0.5270 0.0688 0.2818
H51 H 0.5224 0.1659 0.2317
C41 C 0.71608(5) 1.2423(5) 0.29120(11)
H52 H 0.7231 1.3787 0.3036
C42 C 0.56819(5) 0.6522(6) 0.27589(12)
H53 H 0.5618 0.7947 0.2608
H54 H 0.5669 0.6757 0.3090
C43 C 0.55600(5) 0.4262(6) 0.26229(12)
H55 H 0.5625 0.2838 0.2771
H56 H 0.5572 0.4037 0.2291
C44 C 0.62704(5) 0.8432(5) 0.26900(11)
C45 C 0.53267(5) 0.4358(6) 0.27496(12)
H57 H 0.5314 0.4698 0.3078
H58 H 0.5260 0.5715 0.2585
C46 C 0.74877(5) 1.0131(5) 0.26496(11)
C47 C 0.49724(5) 0.2196(7) 0.27551(13)
H59 H 0.4956 0.2720 0.3074
H60 H 0.4907 0.3442 0.2560
C48 C 0.48572(6) -0.0197(7) 0.26883(15)
H61 H 0.4916 -0.1417 0.2893
H62 H 0.4874 -0.0736 0.2374
H63 H 0.4707 0.0022 0.2755
C49 C 0.81043(5) 1.1014(6) 0.28083(13)
H64 H 0.8120 1.1204 0.3140
H65 H 0.8134 1.2599 0.2666
C50 C 0.86470(5) 0.7881(6) 0.26102(12)
H66 H 0.8644 0.7845 0.2275
H67 H 0.8600 0.6273 0.2719
C51 C 0.84909(5) 0.9772(6) 0.27737(12)
H68 H 0.8529 1.1364 0.2644
H69 H 0.8500 0.9901 0.3108
C52 C 0.90252(5) 0.6312(6) 0.26095(12)
H70 H 0.8972 0.4728 0.2716
H71 H 0.9027 0.6275 0.2274
C53 C 0.93963(6) 0.4617(7) 0.26327(15)
H72 H 0.9406 0.4598 0.2301
H73 H 0.9341 0.3061 0.2739
H74 H 0.9536 0.4890 0.2763
C54 C 0.82638(5) 0.9157(6) 0.26392(13)
H75 H 0.8255 0.9056 0.2305
H76 H 0.8227 0.7548 0.2764
C55 C 0.92490(5) 0.6637(6) 0.27797(13)
H77 H 0.9247 0.6714 0.3115
H78 H 0.9305 0.8198 0.2666
C56 C 0.88734(5) 0.8287(6) 0.27635(12)
H79 H 0.8876 0.8380 0.3098
H80 H 0.8923 0.9862 0.2644
S7 S 0.812214(13) 1.16860(14) 0.53462(3)
S8 S 0.688893(13) 1.15315(14) 0.54203(3)
S9 S 0.750396(13) 0.86139(13) 0.50174(3)
C57 C 0.73946(5) 1.2562(5) 0.54126(11)
H81 H 0.7312 1.3827 0.5540
C58 C 0.77009(5) 1.0582(5) 0.51930(13)
C59 C 0.80010(5) 0.7869(5) 0.49252(10)
H82 H 0.7916 0.6652 0.4790
C60 C 0.83151(5) 0.9693(6) 0.51604(12)
C61 C 0.70904(5) 0.9798(5) 0.51896(11)
C62 C 0.73092(5) 1.0510(5) 0.52236(11)
C63 C 0.76173(5) 1.2597(6) 0.53980(11)
H83 H 0.7700 1.3878 0.5517
C64 C 0.70076(5) 0.7773(6) 0.49829(11)
H84 H 0.7092 0.6590 0.4835
C65 C 0.82259(5) 0.7776(6) 0.49393(11)
H85 H 0.8306 0.6503 0.4808
C66 C 0.79213(5) 0.9890(5) 0.51270(11)
C67 C 0.66977(5) 0.9520(6) 0.52407(11)
C68 C 0.67841(5) 0.7624(5) 0.50122(11)
H86 H 0.6704 0.6340 0.4886
C69 C 0.57235(5) 0.6531(6) 0.52853(12)
H87 H 0.5720 0.6689 0.5619
H88 H 0.5662 0.8023 0.5155
C70 C 0.60933(5) 0.8357(6) 0.52906(12)
H89 H 0.6083 0.8490 0.5624
H90 H 0.6042 0.9896 0.5159
C71 C 0.64683(5) 1.0001(6) 0.53384(11)
H91 H 0.6427 1.1559 0.5198
H92 H 0.6449 1.0155 0.5670
C72 C 0.63244(5) 0.8011(6) 0.51608(12)
H93 H 0.6374 0.6435 0.5280
H94 H 0.6336 0.7954 0.4826
C73 C 0.59524(5) 0.6301(6) 0.51299(12)
H95 H 0.6010 0.4751 0.5244
H96 H 0.5956 0.6244 0.4795
C74 C 0.55888(5) 0.4367(6) 0.51454(13)
H97 H 0.5650 0.2877 0.5278
H98 H 0.5593 0.4202 0.4811
C75 C 0.53585(5) 0.4593(7) 0.52971(13)
H99 H 0.5355 0.4897 0.5628
H100 H 0.5294 0.6006 0.5144
C76 C 0.52282(6) 0.2356(7) 0.51926(15)
H101 H 0.5290 0.0950 0.5345
H102 H 0.5227 0.2077 0.4865
H103 H 0.5084 0.2596 0.5300
C77 C 0.85442(5) 1.0130(6) 0.52667(11)
H104 H 0.8561 1.0360 0.5598
H105 H 0.8591 1.1637 0.5115
C78 C 0.94124(5) 0.4224(6) 0.50963(13)
H106 H 0.9406 0.4052 0.4763
H107 H 0.9349 0.2755 0.5231
C79 C 0.96422(5) 0.4374(7) 0.52408(14)
H108 H 0.9708 0.5789 0.5092
H109 H 0.9649 0.4636 0.5572
C80 C 0.97672(6) 0.2112(7) 0.51222(14)
H110 H 0.9763 0.1849 0.4794
H111 H 0.9706 0.0712 0.5278
H112 H 0.9914 0.2318 0.5219
C81 C 0.92828(5) 0.6414(6) 0.52357(12)
H113 H 0.9345 0.7882 0.5099
H114 H 0.9290 0.6594 0.5569
C82 C 0.90527(5) 0.6239(6) 0.50932(11)
H115 H 0.8993 0.4732 0.5220
H116 H 0.9046 0.6110 0.4759
C83 C 0.89155(5) 0.8362(6) 0.52415(11)
H117 H 0.8970 0.9862 0.5100
H118 H 0.8927 0.8551 0.5574
C84 C 0.86834(5) 0.8061(6) 0.51148(11)
H119 H 0.8672 0.7899 0.4782
H120 H 0.8630 0.6542 0.5251
S10 S 0.731269(13) 0.35425(14) 0.41021(3)
S11 S 0.668623(13) 0.64008(14) 0.37748(3)
S12 S 0.792031(13) 0.66969(14) 0.37062(3)
C85 C 0.78109(5) 0.2888(6) 0.41398(11)
H121 H 0.7730 0.1667 0.4284
C86 C 0.81179(5) 0.4775(6) 0.38933(13)
C87 C 0.71885(5) 0.7469(5) 0.37239(11)
H122 H 0.7102 0.8730 0.3609
C88 C 0.65964(5) 0.2449(6) 0.41835(11)
H123 H 0.6520 0.1133 0.4311
C89 C 0.65007(5) 0.4341(6) 0.39654(11)
C90 C 0.74138(5) 0.7523(6) 0.37029(11)
H124 H 0.7492 0.8807 0.3571
C91 C 0.75038(5) 0.5500(6) 0.38959(11)
C92 C 0.68175(5) 0.2627(6) 0.42020(10)
H125 H 0.6905 0.1459 0.4344
C93 C 0.68938(5) 0.4691(5) 0.39901(11)
C94 C 0.80335(5) 0.2827(6) 0.41114(11)
H126 H 0.8116 0.1550 0.4233
C95 C 0.77247(5) 0.4880(5) 0.39382(11)
C96 C 0.71099(5) 0.5446(5) 0.39240(11)
C97 C 0.62687(5) 0.4679(6) 0.38612(12)
H127 H 0.6251 0.4922 0.3531
H128 H 0.6217 0.6154 0.4016
C98 C 0.59028(5) 0.2763(6) 0.38883(12)
H129 H 0.5845 0.4228 0.4036
H130 H 0.5889 0.2971 0.3556
C99 C 0.54176(5) -0.1568(6) 0.40352(12)
H131 H 0.5481 -0.2987 0.3882
H132 H 0.5431 -0.1827 0.4366
C100 C 0.55427(5) 0.0687(6) 0.39057(12)
H133 H 0.5532 0.0932 0.3574
H134 H 0.5478 0.2110 0.4055
C101 C 0.50652(6) -0.3743(7) 0.40157(15)
H135 H 0.5077 -0.4124 0.4339
H136 H 0.5124 -0.5078 0.3837
H137 H 0.4916 -0.3515 0.3937
C102 C 0.51859(5) -0.1445(7) 0.39143(14)
H138 H 0.5121 -0.0093 0.4084
H139 H 0.5173 -0.1079 0.3587
C103 C 0.57752(5) 0.0569(6) 0.40350(12)
H140 H 0.5786 0.0399 0.4368
H141 H 0.5838 -0.0897 0.3897
C104 C 0.61355(5) 0.2523(6) 0.40106(12)
H142 H 0.6148 0.2334 0.4343
H143 H 0.6192 0.1038 0.3868
C105 C 0.84959(5) 0.3443(6) 0.39796(11)
H144 H 0.8451 0.1825 0.3872
H145 H 0.8486 0.3449 0.4314
C106 C 0.94700(5) 0.0392(6) 0.38420(13)
H146 H 0.9470 0.0600 0.3509
H147 H 0.9533 0.1865 0.3977
C107 C 0.96056(6) -0.1783(7) 0.39634(15)
H148 H 0.9548 -0.3236 0.3819
H149 H 0.9606 -0.2001 0.4293
H150 H 0.9750 -0.1515 0.3857
C108 C 0.87245(5) 0.3868(6) 0.38409(12)
H151 H 0.8733 0.3923 0.3506
H152 H 0.8771 0.5460 0.3958
C109 C 0.92439(5) 0.0127(6) 0.40080(12)
H153 H 0.9244 0.0050 0.4343
H154 H 0.9186 -0.1419 0.3893
C110 C 0.91003(5) 0.2197(6) 0.38571(12)
H155 H 0.9157 0.3740 0.3976
H156 H 0.9102 0.2292 0.3522
C111 C 0.83459(5) 0.5347(6) 0.37897(12)
H157 H 0.8382 0.6945 0.3920
H158 H 0.8365 0.5450 0.3457
C112 C 0.88735(5) 0.1922(6) 0.40155(12)
H159 H 0.8871 0.1946 0.4351
H160 H 0.8821 0.0322 0.3916
loop_
_geom_bond_atom_site_label_1
_geom_bond_atom_site_label_2
_geom_bond_site_symmetry_1
_geom_bond_site_symmetry_2
S1 C3 1_555 1_555
S2 C1 1_555 1_555
S3 C9 1_555 1_555
C1 C5 1_555 1_555
C2 H1 1_555 1_555
C3 C8 1_555 1_555
C4 H2 1_555 1_555
C5 S1 1_555 1_555
C6 C2 1_555 1_555
H3 C6 1_555 1_555
C7 S2 1_555 1_555
C8 H4 1_555 1_555
C9 C2 1_555 1_555
C10 H5 1_555 1_555
H6 C10 1_555 1_555
C11 H7 1_555 1_555
H8 C11 1_555 1_555
C12 C10 1_555 1_555
H9 C12 1_555 1_555
H10 C12 1_555 1_555
C13 C12 1_555 1_555
H11 C13 1_555 1_555
H12 C13 1_555 1_555
C14 C11 1_555 1_555
H13 C14 1_555 1_555
H14 C14 1_555 1_555
C15 C7 1_555 1_555
H15 C15 1_555 1_555
H16 C15 1_555 1_555
C16 C10 1_555 1_555
H17 C16 1_555 1_555
H18 C16 1_555 1_555
C17 C16 1_555 1_555
H19 C17 1_555 1_555
H20 C17 1_555 1_555
H21 C17 1_555 1_555
C18 S3 1_555 1_555
C19 H22 1_555 1_555
H23 C19 1_555 1_555
C20 H24 1_555 1_555
H25 C20 1_555 1_555
C21 C19 1_555 1_555
H26 C21 1_555 1_555
H27 C21 1_555 1_555
C22 C18 1_555 1_555
H28 C22 1_555 1_555
H29 C22 1_555 1_555
C23 H30 1_555 1_555
H31 C23 1_555 1_555
C24 C19 1_555 1_555
H32 C24 1_555 1_555
H33 C24 1_555 1_555
C25 C23 1_555 1_555
H34 C25 1_555 1_555
H35 C25 1_555 1_555
C26 C23 1_555 1_555
H36 C26 1_555 1_555
H37 C26 1_555 1_555
H38 C26 1_555 1_555
C27 C1 1_555 1_555
H39 C27 1_555 1_555
C28 C5 1_555 1_555
H40 C28 1_555 1_555
S4 C35 1_555 1_555
S5 C31 1_555 1_555
S6 C32 1_555 1_555
C29 H41 1_555 1_555
C30 H42 1_555 1_555
C31 C41 1_555 1_555
C32 C37 1_555 1_555
C33 C29 1_555 1_555
H43 C33 1_555 1_555
C34 H44 1_555 1_555
H45 C34 1_555 1_555
C35 C33 1_555 1_555
C36 H46 1_555 1_555
C37 S5 1_555 1_555
C38 C34 1_555 1_555
H47 C38 1_555 1_555
H48 C38 1_555 1_555
C39 C32 1_555 1_555
H49 C39 1_555 1_555
C40 H50 1_555 1_555
H51 C40 1_555 1_555
C41 C30 1_555 1_555
H52 C41 1_555 1_555
C42 C38 1_555 1_555
H53 C42 1_555 1_555
H54 C42 1_555 1_555
C43 C42 1_555 1_555
H55 C43 1_555 1_555
H56 C43 1_555 1_555
C44 S6 1_555 1_555
C45 C40 1_555 1_555
H57 C45 1_555 1_555
H58 C45 1_555 1_555
C46 S4 1_555 1_555
C47 C40 1_555 1_555
H59 C47 1_555 1_555
H60 C47 1_555 1_555
C48 C47 1_555 1_555
H61 C48 1_555 1_555
H62 C48 1_555 1_555
H63 C48 1_555 1_555
C49 C35 1_555 1_555
H64 C49 1_555 1_555
H65 C49 1_555 1_555
C50 H66 1_555 1_555
H67 C50 1_555 1_555
C51 C50 1_555 1_555
H68 C51 1_555 1_555
H69 C51 1_555 1_555
C52 H70 1_555 1_555
H71 C52 1_555 1_555
C53 H72 1_555 1_555
H73 C53 1_555 1_555
H74 C53 1_555 1_555
C54 C49 1_555 1_555
H75 C54 1_555 1_555
H76 C54 1_555 1_555
C55 C52 1_555 1_555
H77 C55 1_555 1_555
H78 C55 1_555 1_555
C56 C50 1_555 1_555
H79 C56 1_555 1_555
H80 C56 1_555 1_555
S7 C60 1_555 1_555
S8 C61 1_555 1_555
S9 C58 1_555 1_555
C57 H81 1_555 1_555
C58 C63 1_555 1_555
C59 H82 1_555 1_555
C60 C65 1_555 1_555
C61 C62 1_555 1_555
C62 S9 1_555 1_555
C63 C57 1_555 1_555
H83 C63 1_555 1_555
C64 C61 1_555 1_555
H84 C64 1_555 1_555
C65 C59 1_555 1_555
H85 C65 1_555 1_555
C66 S7 1_555 1_555
C67 S8 1_555 1_555
C68 C64 1_555 1_555
H86 C68 1_555 1_555
C69 H87 1_555 1_555
H88 C69 1_555 1_555
C70 H89 1_555 1_555
H90 C70 1_555 1_555
C71 C67 1_555 1_555
H91 C71 1_555 1_555
H92 C71 1_555 1_555
C72 C70 1_555 1_555
H93 C72 1_555 1_555
H94 C72 1_555 1_555
C73 C69 1_555 1_555
H95 C73 1_555 1_555
H96 C73 1_555 1_555
C74 C69 1_555 1_555
H97 C74 1_555 1_555
H98 C74 1_555 1_555
C75 C74 1_555 1_555
H99 C75 1_555 1_555
H100 C75 1_555 1_555
C76 C75 1_555 1_555
H101 C76 1_555 1_555
H102 C76 1_555 1_555
H103 C76 1_555 1_555
C77 C60 1_555 1_555
H104 C77 1_555 1_555
H105 C77 1_555 1_555
C78 H106 1_555 1_555
H107 C78 1_555 1_555
C79 C78 1_555 1_555
H108 C79 1_555 1_555
H109 C79 1_555 1_555
C80 C79 1_555 1_555
H110 C80 1_555 1_555
H111 C80 1_555 1_555
H112 C80 1_555 1_555
C81 C78 1_555 1_555
H113 C81 1_555 1_555
H114 C81 1_555 1_555
C82 C81 1_555 1_555
H115 C82 1_555 1_555
H116 C82 1_555 1_555
C83 C82 1_555 1_555
H117 C83 1_555 1_555
H118 C83 1_555 1_555
C84 C77 1_555 1_555
H119 C84 1_555 1_555
H120 C84 1_555 1_555
S10 C91 1_555 1_555
S11 C89 1_555 1_555
S12 C86 1_555 1_555
C85 H121 1_555 1_555
C86 C94 1_555 1_555
C87 H122 1_555 1_555
C88 H123 1_555 1_555
C89 C88 1_555 1_555
C90 C87 1_555 1_555
H124 C90 1_555 1_555
C91 C90 1_555 1_555
C92 C88 1_555 1_555
H125 C92 1_555 1_555
C93 S11 1_555 1_555
C94 C85 1_555 1_555
H126 C94 1_555 1_555
C95 S12 1_555 1_555
C96 S10 1_555 1_555
C97 C89 1_555 1_555
H127 C97 1_555 1_555
H128 C97 1_555 1_555
C98 H129 1_555 1_555
H130 C98 1_555 1_555
C99 H131 1_555 1_555
H132 C99 1_555 1_555
C100 C99 1_555 1_555
H133 C100 1_555 1_555
H134 C100 1_555 1_555
C101 H135 1_555 1_555
H136 C101 1_555 1_555
H137 C101 1_555 1_555
C102 C99 1_555 1_555
H138 C102 1_555 1_555
H139 C102 1_555 1_555
C103 C98 1_555 1_555
H140 C103 1_555 1_555
H141 C103 1_555 1_555
C104 C97 1_555 1_555
H142 C104 1_555 1_555
H143 C104 1_555 1_555
C105 H144 1_555 1_555
H145 C105 1_555 1_555
C106 H146 1_555 1_555
H147 C106 1_555 1_555
C107 C106 1_555 1_555
H148 C107 1_555 1_555
H149 C107 1_555 1_555
H150 C107 1_555 1_555
C108 C105 1_555 1_555
H151 C108 1_555 1_555
H152 C108 1_555 1_555
C109 C106 1_555 1_555
H153 C109 1_555 1_555
H154 C109 1_555 1_555
C110 C109 1_555 1_555
H155 C110 1_555 1_555
H156 C110 1_555 1_555
C111 C86 1_555 1_555
H157 C111 1_555 1_555
H158 C111 1_555 1_555
C112 C108 1_555 1_555
H159 C112 1_555 1_555
H160 C112 1_555 1_555
C3 C9 1_555 1_555
C4 C7 1_555 1_555
C4 C27 1_555 1_555
C6 C18 1_555 1_555
C8 C28 1_555 1_555
C11 C15 1_555 1_555
C13 C14 1_555 1_555
C20 C21 1_555 1_555
C20 C22 1_555 1_555
C24 C25 1_555 1_555
C29 C46 1_555 1_555
C30 C37 1_555 1_555
C31 C46 1_555 1_555
C34 C44 1_555 1_555
C36 C39 1_555 1_555
C36 C44 1_555 1_555
C43 C45 1_555 1_555
C51 C54 1_555 1_555
C52 C56 1_555 1_555
C53 C55 1_555 1_555
C57 C62 1_555 1_555
C58 C66 1_555 1_555
C59 C66 1_555 1_555
C67 C68 1_555 1_555
C70 C73 1_555 1_555
C71 C72 1_555 1_555
C83 C84 1_555 1_555
C85 C95 1_555 1_555
C87 C96 1_555 1_555
C91 C95 1_555 1_555
C92 C93 1_555 1_555
C93 C96 1_555 1_555
C98 C104 1_555 1_555
C100 C103 1_555 1_555
C101 C102 1_555 1_555
C105 C111 1_555 1_555
C110 C112 1_555 1_555

#END
