
#######################################################################
#
#                 Cambridge Crystallographic Data Centre
#                                CCDC 
#
#######################################################################
#
# If this CIF has been generated from an entry in the Cambridge 
# Structural Database, then it will include bibliographic, chemical, 
# crystal, experimental, refinement or atomic coordinate data resulting 
# from the CCDC's data processing and validation procedures.
#
#######################################################################

data_NUGKIL01
_chemical_formula_moiety         'C28 H40 S3'
_chemical_name_systematic        5,5''-Dioctyl-2,2':5',2''-terthiophene
_symmetry_cell_setting           monoclinic
_symmetry_space_group_name_H-M   'P 21/c'
_symmetry_Int_Tables_number      14
_space_group_name_Hall           '-P 2ybc'
loop_
_symmetry_equiv_pos_site_id
_symmetry_equiv_pos_as_xyz
1 x,y,z
2 -x,1/2+y,1/2-z
3 -x,-y,-z
4 x,1/2-y,1/2+z
_cell_length_a                   5.5671(3)
_cell_length_b                   63.113(3)
_cell_length_c                   7.8847(5)
_cell_angle_alpha                90
_cell_angle_beta                 107.604(3)
_cell_angle_gamma                90
_cell_volume                     2640.6
_exptl_crystal_colour            colorless
_exptl_crystal_description       Plate
_cell_formula_units_Z            4
_exptl_crystal_recrystallization_method toluene
loop_
_atom_site_label
_atom_site_type_symbol
_atom_site_fract_x
_atom_site_fract_y
_atom_site_fract_z
S1 S 0.44765(12) 0.336285(10) 0.43783(9)
S2 S 0.66911(13) 0.402825(10) 0.53354(10)
S3 S 0.92521(13) 0.280632(10) 0.62643(10)
C1 C 0.5008(5) 0.37971(4) 0.4656(3)
C2 C 0.7445(5) 0.25817(4) 0.5549(3)
C3 C 0.6759(5) 0.29733(4) 0.5272(3)
C4 C 0.7068(5) 0.15691(4) 0.5435(4)
H1 H 0.7661 0.1555 0.6733
H2 H 0.8518 0.1549 0.4992
C5 C 0.7520(5) 0.51079(4) 0.2611(3)
H3 H 0.5795 0.5163 0.2223
H4 H 0.8259 0.5144 0.3869
C6 C 0.5903(5) 0.47619(4) 0.3500(3)
H5 H 0.4176 0.4817 0.3096
H6 H 0.6627 0.4802 0.4753
C7 C 0.7049(5) 0.32020(4) 0.5387(3)
C8 C 0.7419(5) 0.48679(4) 0.2429(3)
H7 H 0.6678 0.4831 0.1171
H8 H 0.9143 0.4812 0.2819
C9 C 0.4260(5) 0.44224(4) 0.4459(4)
H9 H 0.5002 0.4464 0.5706
H10 H 0.2551 0.4481 0.4050
C10 C 0.6733(5) 0.21866(4) 0.5233(4)
H11 H 0.6137 0.2201 0.3936
H12 H 0.5269 0.2200 0.5672
C11 C 0.6206(5) 0.35918(4) 0.5088(3)
C12 C 0.7893(5) 0.19678(4) 0.5708(4)
H13 H 0.9332 0.1953 0.5245
H14 H 0.8521 0.1954 0.7005
C13 C 0.5812(5) 0.45209(4) 0.3366(3)
H15 H 0.7533 0.4465 0.3782
H16 H 0.5083 0.4480 0.2116
C14 C 0.6021(5) 0.17912(4) 0.4957(4)
H17 H 0.5427 0.1804 0.3658
H18 H 0.4561 0.1810 0.5392
C15 C 0.9028(5) 0.52157(4) 0.1546(3)
H19 H 0.8282 0.5180 0.0286
H20 H 1.0750 0.5160 0.1927
C16 C 0.4086(5) 0.41853(4) 0.4362(3)
C17 C 0.5125(5) 0.13974(4) 0.4661(4)
H21 H 0.3677 0.1419 0.5104
H22 H 0.4529 0.1414 0.3365
C18 C 0.6078(6) 0.11730(4) 0.5096(4)
H23 H 0.6691 0.1156 0.6392
H24 H 0.7504 0.1149 0.4634
C19 C 0.2053(5) 0.40637(4) 0.3567(4)
H25 H 0.0459 0.4120 0.2967
C20 C 0.8569(5) 0.23655(4) 0.6010(4)
H26 H 0.9164 0.2351 0.7308
H27 H 1.0033 0.2352 0.5573
C21 C 0.5079(5) 0.26361(4) 0.4602(4)
H28 H 0.3811 0.2536 0.4096
C22 C 0.9143(5) 0.54555(4) 0.1736(4)
H29 H 0.7423 0.5512 0.1351
H30 H 0.9890 0.5492 0.2995
C23 C 1.0661(6) 0.55611(4) 0.0664(4)
H31 H 1.2367 0.5506 0.1035
H32 H 1.0702 0.5713 0.0863
H33 H 0.9884 0.5532 -0.0591
C24 C 0.8617(5) 0.35427(4) 0.6043(4)
H34 H 0.9850 0.3645 0.6546
C25 C 0.4684(5) 0.28581(4) 0.4440(4)
H35 H 0.3129 0.2919 0.3816
C26 C 0.9088(5) 0.33224(4) 0.6206(4)
H36 H 1.0667 0.3265 0.6823
C27 C 0.2569(5) 0.38431(4) 0.3728(4)
H37 H 0.1349 0.3739 0.3244
C28 C 0.4070(7) 0.10067(5) 0.4322(5)
H38 H 0.2614 0.1034 0.4724
H39 H 0.4739 0.0867 0.4714
H40 H 0.3573 0.1013 0.3033
loop_
_geom_bond_atom_site_label_1
_geom_bond_atom_site_label_2
_geom_bond_site_symmetry_1
_geom_bond_site_symmetry_2
S1 C7 1_555 1_555
S2 C1 1_555 1_555
S3 C2 1_555 1_555
C1 C11 1_555 1_555
C2 C20 1_555 1_555
C3 S3 1_555 1_555
C4 H1 1_555 1_555
H2 C4 1_555 1_555
C5 H3 1_555 1_555
H4 C5 1_555 1_555
C6 H5 1_555 1_555
H6 C6 1_555 1_555
C7 C3 1_555 1_555
C8 C5 1_555 1_555
H7 C8 1_555 1_555
H8 C8 1_555 1_555
C9 H9 1_555 1_555
H10 C9 1_555 1_555
C10 H11 1_555 1_555
H12 C10 1_555 1_555
C11 S1 1_555 1_555
C12 C10 1_555 1_555
H13 C12 1_555 1_555
H14 C12 1_555 1_555
C13 C6 1_555 1_555
H15 C13 1_555 1_555
H16 C13 1_555 1_555
C14 C4 1_555 1_555
H17 C14 1_555 1_555
H18 C14 1_555 1_555
C15 C5 1_555 1_555
H19 C15 1_555 1_555
H20 C15 1_555 1_555
C16 S2 1_555 1_555
C17 C4 1_555 1_555
H21 C17 1_555 1_555
H22 C17 1_555 1_555
C18 C17 1_555 1_555
H23 C18 1_555 1_555
H24 C18 1_555 1_555
C19 C16 1_555 1_555
H25 C19 1_555 1_555
C20 C10 1_555 1_555
H26 C20 1_555 1_555
H27 C20 1_555 1_555
C21 C2 1_555 1_555
H28 C21 1_555 1_555
C22 C15 1_555 1_555
H29 C22 1_555 1_555
H30 C22 1_555 1_555
C23 C22 1_555 1_555
H31 C23 1_555 1_555
H32 C23 1_555 1_555
H33 C23 1_555 1_555
C24 C11 1_555 1_555
H34 C24 1_555 1_555
C25 C3 1_555 1_555
H35 C25 1_555 1_555
C26 C7 1_555 1_555
H36 C26 1_555 1_555
C27 C1 1_555 1_555
H37 C27 1_555 1_555
C28 C18 1_555 1_555
H38 C28 1_555 1_555
H39 C28 1_555 1_555
H40 C28 1_555 1_555
C6 C8 1_555 1_555
C9 C13 1_555 1_555
C9 C16 1_555 1_555
C12 C14 1_555 1_555
C19 C27 1_555 1_555
C21 C25 1_555 1_555
C24 C26 1_555 1_555

#END
