
#######################################################################
#
#                 Cambridge Crystallographic Data Centre
#                                CCDC 
#
#######################################################################
#
# If this CIF has been generated from an entry in the Cambridge 
# Structural Database, then it will include bibliographic, chemical, 
# crystal, experimental, refinement or atomic coordinate data resulting 
# from the CCDC's data processing and validation procedures.
#
#######################################################################

data_NUGPUC
_chemical_formula_moiety         'C64 H42'
_chemical_name_systematic        
3,8-bis(2-(1,1':3',1''-terphenyl-5'-yl)phenyl)pyrene
_symmetry_cell_setting           monoclinic
_symmetry_space_group_name_H-M   'P 21/c'
_symmetry_Int_Tables_number      14
_space_group_name_Hall           '-P 2ybc'
loop_
_symmetry_equiv_pos_site_id
_symmetry_equiv_pos_as_xyz
1 x,y,z
2 -x,1/2+y,1/2-z
3 -x,-y,-z
4 x,1/2-y,1/2+z
_cell_length_a                   9.201(4)
_cell_length_b                   11.487(5)
_cell_length_c                   21.142(10)
_cell_angle_alpha                90
_cell_angle_beta                 94.410(6)
_cell_angle_gamma                90
_cell_volume                     2227.92
_exptl_crystal_colour            yellow
_exptl_crystal_description       block
_cell_formula_units_Z            2
loop_
_atom_site_label
_atom_site_type_symbol
_atom_site_fract_x
_atom_site_fract_y
_atom_site_fract_z
C1 C 0.2358(2) 0.52234(17) 1.06967(9)
H1 H 0.3193 0.5495 1.0926
C2 C 0.2085(2) 0.40719(17) 1.06785(9)
H2 H 0.2728 0.3569 1.0903
C3 C 0.08353(18) 0.36005(15) 1.03241(8)
C4 C 0.05699(19) 0.23994(16) 1.02761(8)
C5 C -0.0646(2) 0.20024(17) 0.99064(9)
H3 H -0.0810 0.1206 0.9866
C6 C -0.1614(2) 0.27700(16) 0.95985(9)
H4 H -0.2432 0.2480 0.9365
C7 C -0.13936(19) 0.39619(16) 0.96294(8)
C8 C -0.01415(18) 0.43935(15) 0.99891(8)
C9 C 0.1589(2) 0.15325(15) 1.06041(8)
C10 C 0.1490(2) 0.12782(18) 1.12431(9)
H5 H 0.0820 0.1678 1.1470
C11 C 0.2369(2) 0.0443(2) 1.15461(10)
H6 H 0.2292 0.0285 1.1974
C12 C 0.3357(2) -0.01541(19) 1.12149(10)
H7 H 0.3951 -0.0717 1.1417
C13 C 0.3465(2) 0.00834(17) 1.05816(9)
H8 H 0.4126 -0.0333 1.0359
C14 C 0.26055(19) 0.09326(15) 1.02692(8)
C15 C 0.27406(19) 0.12087(16) 0.95829(8)
C16 C 0.32199(19) 0.23015(16) 0.94083(9)
H9 H 0.3530 0.2830 0.9723
C17 C 0.32487(19) 0.26258(16) 0.87768(8)
C18 C 0.27924(19) 0.18143(17) 0.83130(9)
H10 H 0.2795 0.2020 0.7888
C19 C 0.2331(2) 0.06986(16) 0.84706(9)
C20 C 0.2326(2) 0.04105(17) 0.91085(9)
H11 H 0.2038 -0.0333 0.9221
C21 C 0.37171(19) 0.38143(16) 0.86071(9)
C22 C 0.3366(2) 0.47631(17) 0.89717(10)
H12 H 0.2827 0.4646 0.9321
C23 C 0.3798(3) 0.58752(19) 0.88288(11)
H13 H 0.3554 0.6498 0.9081
C24 C 0.4589(2) 0.6063(2) 0.83147(11)
H14 H 0.4883 0.6813 0.8217
C25 C 0.4945(2) 0.5144(2) 0.79449(10)
H15 H 0.5478 0.5270 0.7595
C26 C 0.4514(2) 0.40252(18) 0.80895(9)
H16 H 0.4764 0.3407 0.7835
C27 C 0.1814(2) -0.01529(17) 0.79748(9)
C28 C 0.0927(2) 0.0194(2) 0.74492(10)
H17 H 0.0677 0.0975 0.7398
C29 C 0.0407(3) -0.0614(3) 0.69973(11)
H18 H -0.0207 -0.0374 0.6652
C30 C 0.0798(3) -0.1766(3) 0.70604(12)
H19 H 0.0456 -0.2306 0.6756
C31 C 0.1693(3) -0.2115(2) 0.75728(12)
H20 H 0.1969 -0.2892 0.7615
C32 C 0.2186(2) -0.13145(18) 0.80266(10)
H21 H 0.2782 -0.1564 0.8375
C1B C -0.2358(2) 0.47766(17) 0.93033(9)
H1B H -0.3193 0.4505 0.9074
C2B C -0.2085(2) 0.59281(17) 0.93215(9)
H2B H -0.2728 0.6431 0.9097
C3B C -0.08353(18) 0.63995(15) 0.96759(8)
C4B C -0.05699(19) 0.76006(16) 0.97239(8)
C5B C 0.0646(2) 0.79976(17) 1.00936(9)
H3B H 0.0810 0.8794 1.0134
C6B C 0.1614(2) 0.72300(16) 1.04015(9)
H4B H 0.2432 0.7520 1.0635
C7B C 0.13936(19) 0.60381(16) 1.03706(8)
C8B C 0.01415(18) 0.56065(15) 1.00109(8)
C9B C -0.1589(2) 0.84675(15) 0.93959(8)
C10B C -0.1490(2) 0.87218(18) 0.87569(9)
H5B H -0.0820 0.8322 0.8530
C11B C -0.2369(2) 0.9557(2) 0.84539(10)
H6B H -0.2292 0.9715 0.8026
C12B C -0.3357(2) 1.01541(19) 0.87851(10)
H7B H -0.3951 1.0717 0.8583
C13B C -0.3465(2) 0.99166(17) 0.94184(9)
H8B H -0.4126 1.0333 0.9641
C14B C -0.26055(19) 0.90674(15) 0.97308(8)
C15B C -0.27406(19) 0.87913(16) 1.04171(8)
C16B C -0.32199(19) 0.76985(16) 1.05917(9)
H9B H -0.3530 0.7170 1.0277
C17B C -0.32487(19) 0.73742(16) 1.12232(8)
C18B C -0.27924(19) 0.81857(17) 1.16870(9)
H10B H -0.2795 0.7980 1.2112
C19B C -0.2331(2) 0.93014(16) 1.15294(9)
C20B C -0.2326(2) 0.95895(17) 1.08915(9)
H11B H -0.2038 1.0333 1.0779
C21B C -0.37171(19) 0.61857(16) 1.13929(9)
C22B C -0.3366(2) 0.52369(17) 1.10283(10)
H12B H -0.2827 0.5354 1.0679
C23B C -0.3798(3) 0.41248(19) 1.11712(11)
H13B H -0.3554 0.3502 1.0919
C24B C -0.4589(2) 0.3937(2) 1.16853(11)
H14B H -0.4883 0.3187 1.1783
C25B C -0.4945(2) 0.4856(2) 1.20551(10)
H15B H -0.5478 0.4730 1.2405
C26B C -0.4514(2) 0.59748(18) 1.19105(9)
H16B H -0.4764 0.6593 1.2165
C27B C -0.1814(2) 1.01529(17) 1.20252(9)
C28B C -0.0927(2) 0.9806(2) 1.25508(10)
H17B H -0.0677 0.9025 1.2602
C29B C -0.0407(3) 1.0614(3) 1.30027(11)
H18B H 0.0207 1.0374 1.3348
C30B C -0.0798(3) 1.1766(3) 1.29396(12)
H19B H -0.0456 1.2306 1.3244
C31B C -0.1693(3) 1.2115(2) 1.24272(12)
H20B H -0.1969 1.2892 1.2385
C32B C -0.2186(2) 1.13145(18) 1.19734(10)
H21B H -0.2782 1.1564 1.1625
loop_
_geom_bond_atom_site_label_1
_geom_bond_atom_site_label_2
_geom_bond_site_symmetry_1
_geom_bond_site_symmetry_2
C1 H1 1_555 1_555
C2 C1 1_555 1_555
H2 C2 1_555 1_555
C3 C2 1_555 1_555
C4 C3 1_555 1_555
C5 C4 1_555 1_555
H3 C5 1_555 1_555
C6 C5 1_555 1_555
H4 C6 1_555 1_555
C7 C6 1_555 1_555
C8 C3 1_555 1_555
C9 C4 1_555 1_555
C10 C9 1_555 1_555
H5 C10 1_555 1_555
C11 C10 1_555 1_555
H6 C11 1_555 1_555
C12 C11 1_555 1_555
H7 C12 1_555 1_555
C13 C12 1_555 1_555
H8 C13 1_555 1_555
C14 C9 1_555 1_555
C15 C14 1_555 1_555
C16 C15 1_555 1_555
H9 C16 1_555 1_555
C17 C16 1_555 1_555
C18 C17 1_555 1_555
H10 C18 1_555 1_555
C19 C18 1_555 1_555
C20 C15 1_555 1_555
H11 C20 1_555 1_555
C21 C17 1_555 1_555
C22 C21 1_555 1_555
H12 C22 1_555 1_555
C23 C22 1_555 1_555
H13 C23 1_555 1_555
C24 C23 1_555 1_555
H14 C24 1_555 1_555
C25 C24 1_555 1_555
H15 C25 1_555 1_555
C26 C21 1_555 1_555
H16 C26 1_555 1_555
C27 C19 1_555 1_555
C28 C27 1_555 1_555
H17 C28 1_555 1_555
C29 C28 1_555 1_555
H18 C29 1_555 1_555
C30 C29 1_555 1_555
H19 C30 1_555 1_555
C31 C30 1_555 1_555
H20 C31 1_555 1_555
C32 C27 1_555 1_555
H21 C32 1_555 1_555
C1B C7 1_555 1_555
H1B C1B 1_555 1_555
C2B C1B 1_555 1_555
H2B C2B 1_555 1_555
C3B C2B 1_555 1_555
C4B C3B 1_555 1_555
C5B C4B 1_555 1_555
H3B C5B 1_555 1_555
C6B C5B 1_555 1_555
H4B C6B 1_555 1_555
C7B C1 1_555 1_555
C8B C8 1_555 1_555
C9B C4B 1_555 1_555
C10B C9B 1_555 1_555
H5B C10B 1_555 1_555
C11B C10B 1_555 1_555
H6B C11B 1_555 1_555
C12B C11B 1_555 1_555
H7B C12B 1_555 1_555
C13B C12B 1_555 1_555
H8B C13B 1_555 1_555
C14B C9B 1_555 1_555
C15B C14B 1_555 1_555
C16B C15B 1_555 1_555
H9B C16B 1_555 1_555
C17B C16B 1_555 1_555
C18B C17B 1_555 1_555
H10B C18B 1_555 1_555
C19B C18B 1_555 1_555
C20B C15B 1_555 1_555
H11B C20B 1_555 1_555
C21B C17B 1_555 1_555
C22B C21B 1_555 1_555
H12B C22B 1_555 1_555
C23B C22B 1_555 1_555
H13B C23B 1_555 1_555
C24B C23B 1_555 1_555
H14B C24B 1_555 1_555
C25B C24B 1_555 1_555
H15B C25B 1_555 1_555
C26B C21B 1_555 1_555
H16B C26B 1_555 1_555
C27B C19B 1_555 1_555
C28B C27B 1_555 1_555
H17B C28B 1_555 1_555
C29B C28B 1_555 1_555
H18B C29B 1_555 1_555
C30B C29B 1_555 1_555
H19B C30B 1_555 1_555
C31B C30B 1_555 1_555
H20B C31B 1_555 1_555
C32B C27B 1_555 1_555
H21B C32B 1_555 1_555
C7 C8 1_555 1_555
C13 C14 1_555 1_555
C19 C20 1_555 1_555
C25 C26 1_555 1_555
C31 C32 1_555 1_555
C3B C8B 1_555 1_555
C6B C7B 1_555 1_555
C7B C8B 1_555 1_555
C13B C14B 1_555 1_555
C19B C20B 1_555 1_555
C25B C26B 1_555 1_555
C31B C32B 1_555 1_555

#END
