
#######################################################################
#
#                 Cambridge Crystallographic Data Centre
#                                CCDC 
#
#######################################################################
#
# If this CIF has been generated from an entry in the Cambridge 
# Structural Database, then it will include bibliographic, chemical, 
# crystal, experimental, refinement or atomic coordinate data resulting 
# from the CCDC's data processing and validation procedures.
#
#######################################################################

data_NUGSEN01
_chemical_formula_moiety         'C14 H12 Te4,C1 S2'
_chemical_name_systematic        
"2,3,6,7-Tetramethylnaphtho(1,8-cd:4,5-c'd')bis(1,2)ditellurole carbon disulfide solvate"
_symmetry_cell_setting           triclinic
_symmetry_space_group_name_H-M   'P -1'
_symmetry_Int_Tables_number      2
_space_group_name_Hall           '-P 1'
loop_
_symmetry_equiv_pos_site_id
_symmetry_equiv_pos_as_xyz
1 x,y,z
2 -x,-y,-z
_cell_length_a                   10.812(5)
_cell_length_b                   14.588(6)
_cell_length_c                   6.295(3)
_cell_angle_alpha                100.49(4)
_cell_angle_beta                 106.75(4)
_cell_angle_gamma                89.90(4)
_cell_volume                     933.507
_exptl_crystal_colour            black
_exptl_crystal_description       Rod
_cell_formula_units_Z            2
loop_
_atom_site_label
_atom_site_type_symbol
_atom_site_fract_x
_atom_site_fract_y
_atom_site_fract_z
Te1 Te 0.42583(4) 0.24677(3) -0.27046(8)
Te2 Te 0.59501(4) 0.26601(3) 0.14713(8)
C1 C 0.2949(7) 0.3732(5) -0.630(1)
C2 C 0.3675(5) 0.4330(4) -0.4078(9)
C3 C 0.4340(5) 0.3948(4) -0.2255(9)
C4 C 0.5020(5) 0.4497(4) -0.0130(9)
C5 C 0.5729(5) 0.4122(4) 0.1773(10)
C6 C 0.3646(5) 0.5335(4) -0.3809(10)
C7 C 0.2911(7) 0.5763(5) -0.578(1)
H1 H 0.2293 0.3336 -0.6106
H2 H 0.2530 0.4108 -0.7366
H3 H 0.3519 0.3342 -0.6914
H4 H 0.3482 0.6158 -0.6181
H5 H 0.2241 0.6126 -0.5424
H6 H 0.2531 0.5285 -0.7077
Te1A Te 0.57417(4) 0.75323(3) 0.27046(8)
Te2A Te 0.40499(4) 0.73399(3) -0.14713(8)
C1A C 0.7051(7) 0.6268(5) 0.630(1)
C2A C 0.6325(5) 0.5670(4) 0.4078(9)
C3A C 0.5660(5) 0.6052(4) 0.2255(9)
C4A C 0.4980(5) 0.5503(4) 0.0130(9)
C5A C 0.4271(5) 0.5878(4) -0.1773(10)
C6A C 0.6354(5) 0.4665(4) 0.3809(10)
C7A C 0.7089(7) 0.4237(5) 0.578(1)
H1A H 0.7707 0.6664 0.6106
H2A H 0.7470 0.5892 0.7366
H3A H 0.6481 0.6658 0.6914
H4A H 0.6518 0.3842 0.6181
H5A H 0.7759 0.3874 0.5424
H6A H 0.7469 0.4715 0.7077
Te3 Te 0.73895(4) 0.13514(3) 0.68159(8)
Te4 Te 0.64122(4) 0.01787(3) 0.28186(8)
C8 C 0.9981(7) 0.1637(5) 1.089(1)
C9 C 1.0199(6) 0.1029(4) 0.8873(9)
C10 C 0.9209(5) 0.0756(4) 0.6919(10)
C11 C 0.9372(5) 0.0152(4) 0.4978(9)
C12 C 0.8336(5) -0.0156(4) 0.2951(9)
C13 C 1.1466(6) 0.0730(4) 0.8956(10)
C14 C 1.2582(6) 0.1042(5) 1.104(1)
H7 H 1.0775 0.1759 1.2095
H8 H 0.9667 0.2220 1.0538
H9 H 0.9366 0.1341 1.1405
H10 H 1.2974 0.0518 1.1614
H11 H 1.2292 0.1428 1.2177
H12 H 1.3223 0.1396 1.0697
Te3A Te 1.26105(4) -0.13514(3) 0.31841(8)
Te4A Te 1.35878(4) -0.01787(3) 0.71814(8)
C8A C 1.0019(7) -0.1637(5) -0.089(1)
C9A C 0.9801(6) -0.1029(4) 0.1127(9)
C10A C 1.0791(5) -0.0756(4) 0.3081(10)
C11A C 1.0628(5) -0.0152(4) 0.5022(9)
C12A C 1.1664(5) 0.0156(4) 0.7049(9)
C13A C 0.8534(6) -0.0730(4) 0.1044(10)
C14A C 0.7418(6) -0.1042(5) -0.104(1)
H7A H 0.9225 -0.1759 -0.2095
H8A H 1.0333 -0.2220 -0.0538
H9A H 1.0634 -0.1341 -0.1405
H10A H 0.7026 -0.0518 -0.1614
H11A H 0.7708 -0.1428 -0.2177
H12A H 0.6777 -0.1396 -0.0697
S1 S 0.9020(3) 0.4662(3) 0.1869(4)
S2 S 0.9392(3) 0.6807(3) 0.2883(6)
C15 C 0.9206(7) 0.5786(9) 0.241(1)
loop_
_geom_bond_atom_site_label_1
_geom_bond_atom_site_label_2
_geom_bond_site_symmetry_1
_geom_bond_site_symmetry_2
Te1 Te2 1_555 1_555
Te2 C5 1_555 1_555
Te3 Te4 1_555 1_555
Te4 C12 1_555 1_555
S1 C15 1_555 1_555
S2 C15 1_555 1_555
C1 C2 1_555 1_555
C2 C3 1_555 1_555
C3 Te1 1_555 1_555
C4 C3 1_555 1_555
C5 C4 1_555 1_555
C6 C2 1_555 1_555
C7 C6 1_555 1_555
C8 C9 1_555 1_555
C9 C10 1_555 1_555
C10 Te3 1_555 1_555
C11 C10 1_555 1_555
C12 C11 1_555 1_555
C13 C9 1_555 1_555
C14 C13 1_555 1_555
H1 C1 1_555 1_555
H2 C1 1_555 1_555
H3 C1 1_555 1_555
H4 C7 1_555 1_555
H5 C7 1_555 1_555
H6 C7 1_555 1_555
H7 C8 1_555 1_555
H8 C8 1_555 1_555
H9 C8 1_555 1_555
H10 C14 1_555 1_555
H11 C14 1_555 1_555
H12 C14 1_555 1_555
Te1A Te2A 1_555 1_555
Te2A C5A 1_555 1_555
Te3A Te4A 1_555 1_555
Te4A C12A 1_555 1_555
C1A C2A 1_555 1_555
C2A C3A 1_555 1_555
C3A Te1A 1_555 1_555
C4A C4 1_555 1_555
C5A C6 1_555 1_555
C6A C5 1_555 1_555
C7A C6A 1_555 1_555
C8A C9A 1_555 1_555
C9A C10A 1_555 1_555
C10A Te3A 1_555 1_555
C11A C11 1_555 1_555
C12A C13 1_555 1_555
C13A C12 1_555 1_555
C14A C13A 1_555 1_555
H1A C1A 1_555 1_555
H2A C1A 1_555 1_555
H3A C1A 1_555 1_555
H4A C7A 1_555 1_555
H5A C7A 1_555 1_555
H6A C7A 1_555 1_555
H7A C8A 1_555 1_555
H8A C8A 1_555 1_555
H9A C8A 1_555 1_555
H10A C14A 1_555 1_555
H11A C14A 1_555 1_555
H12A C14A 1_555 1_555
C2A C6A 1_555 1_555
C3A C4A 1_555 1_555
C4A C5A 1_555 1_555
C9A C13A 1_555 1_555
C10A C11A 1_555 1_555
C11A C12A 1_555 1_555

#END
