
#######################################################################
#
#                 Cambridge Crystallographic Data Centre
#                                CCDC 
#
#######################################################################
#
# If this CIF has been generated from an entry in the Cambridge 
# Structural Database, then it will include bibliographic, chemical, 
# crystal, experimental, refinement or atomic coordinate data resulting 
# from the CCDC's data processing and validation procedures.
#
#######################################################################

data_NUGTIT
_chemical_formula_moiety         'C31 H21 N3 O2'
_chemical_name_systematic        
4,6-Diphenyl-8,15-dihydro-1H-quino[8',1':2,3,4][1,4]oxazocino[6,7-b]quinoxalin-1-one
_symmetry_cell_setting           triclinic
_symmetry_space_group_name_H-M   'P -1'
_symmetry_Int_Tables_number      2
_space_group_name_Hall           '-P 1'
loop_
_symmetry_equiv_pos_site_id
_symmetry_equiv_pos_as_xyz
1 x,y,z
2 -x,-y,-z
_cell_length_a                   10.841(3)
_cell_length_b                   11.024(3)
_cell_length_c                   11.490(3)
_cell_angle_alpha                77.331(18)
_cell_angle_beta                 69.428(17)
_cell_angle_gamma                61.456(16)
_cell_volume                     1127.14
_chemical_melting_point          '220 deg.C'
_cell_formula_units_Z            2
_exptl_crystal_recrystallization_method chloroform/hexane
loop_
_atom_site_label
_atom_site_type_symbol
_atom_site_fract_x
_atom_site_fract_y
_atom_site_fract_z
N1 N 0.9135(4) 0.8960(4) 0.6968(3)
N2 N 0.7821(5) 0.7356(4) 0.9271(4)
N3 N 0.9717(5) 0.4663(4) 0.8575(4)
O1 O 1.1686(3) 0.6447(3) 0.6392(2)
O2 O 0.7742(4) 1.0909(3) 0.8061(3)
C1 C 0.6829(7) 0.9859(5) 0.1235(5)
H1 H 0.6352 1.0187 0.0619
C2 C 0.8019(6) 1.0032(4) 0.1078(4)
H2 H 0.8346 1.0506 0.0357
C3 C 0.6320(5) 0.9197(6) 0.2309(6)
H3 H 0.5486 0.9088 0.2415
C4 C 0.6982(6) 0.8702(4) 0.3204(4)
H4 H 0.6619 0.8254 0.3926
C5 C 0.8257(5) 0.8873(4) 0.3036(4)
C6 C 0.8761(5) 0.9532(4) 0.1948(5)
H5 H 0.9606 0.9635 0.1807
C7 C 1.2342(5) 0.4020(5) 0.3767(4)
H6 H 1.1431 0.4175 0.3739
C8 C 1.3542(6) 0.2822(5) 0.3350(4)
H7 H 1.3451 0.2173 0.3031
C9 C 1.4891(6) 0.2584(5) 0.3407(4)
H8 H 1.5716 0.1772 0.3125
C10 C 1.5009(5) 0.3552(6) 0.3880(4)
H9 H 1.5916 0.3388 0.3926
C11 C 1.3816(6) 0.4742(5) 0.4281(4)
H10 H 1.3916 0.5390 0.4594
C12 C 1.2456(5) 0.5009(5) 0.4233(4)
C13 C 1.1157(4) 0.6336(4) 0.4578(4)
C14 C 1.0281(5) 0.6986(5) 0.3775(4)
H11 H 1.0497 0.6536 0.3083
C15 C 0.9119(5) 0.8260(5) 0.3972(4)
C16 C 0.8784(5) 0.8931(4) 0.5013(4)
C17 C 0.9562(5) 0.8296(5) 0.5886(4)
C18 C 1.0772(5) 0.7005(5) 0.5630(4)
C19 C 0.7655(5) 1.0314(5) 0.5206(5)
H12 H 0.7113 1.0759 0.4638
C20 C 0.7363(5) 1.0976(5) 0.6166(5)
H13 H 0.6673 1.1898 0.6223
C21 C 0.8076(5) 1.0316(6) 0.7120(5)
C22 C 1.1569(5) 0.5311(4) 0.7220(4)
H14 H 1.2295 0.4958 0.7668
H15 H 1.1790 0.4577 0.6736
C23 C 0.9575(5) 0.8202(4) 0.8087(4)
H16 H 0.9121 0.8835 0.8744
H17 H 1.0630 0.7831 0.7903
C24 C 1.0082(5) 0.5681(5) 0.8144(4)
C25 C 0.9134(6) 0.7041(5) 0.8529(4)
C26 C 0.8367(6) 0.4970(6) 0.9392(4)
C27 C 0.7402(6) 0.6325(6) 0.9723(4)
C28 C 0.5971(6) 0.6617(6) 1.0527(5)
H18 H 0.5304 0.7520 1.0733
C29 C 0.7929(7) 0.3912(6) 0.9878(5)
H19 H 0.8573 0.3005 0.9670
C30 C 0.6573(9) 0.4215(8) 1.0647(6)
H20 H 0.6277 0.3513 1.0962
C31 C 0.5591(7) 0.5580(9) 1.0985(5)
H21 H 0.4665 0.5763 1.1536
loop_
_geom_bond_atom_site_label_1
_geom_bond_atom_site_label_2
_geom_bond_site_symmetry_1
_geom_bond_site_symmetry_2
N1 C17 1_555 1_555
N2 C25 1_555 1_555
N3 C24 1_555 1_555
O1 C18 1_555 1_555
O2 C21 1_555 1_555
C1 H1 1_555 1_555
C2 C1 1_555 1_555
H2 C2 1_555 1_555
C3 C1 1_555 1_555
H3 C3 1_555 1_555
C4 C3 1_555 1_555
H4 C4 1_555 1_555
C5 C4 1_555 1_555
C6 C2 1_555 1_555
H5 C6 1_555 1_555
C7 H6 1_555 1_555
C8 C7 1_555 1_555
H7 C8 1_555 1_555
C9 C8 1_555 1_555
H8 C9 1_555 1_555
C10 C9 1_555 1_555
H9 C10 1_555 1_555
C11 C10 1_555 1_555
H10 C11 1_555 1_555
C12 C7 1_555 1_555
C13 C12 1_555 1_555
C14 C13 1_555 1_555
H11 C14 1_555 1_555
C15 C5 1_555 1_555
C16 C15 1_555 1_555
C17 C16 1_555 1_555
C18 C13 1_555 1_555
C19 C16 1_555 1_555
H12 C19 1_555 1_555
C20 C19 1_555 1_555
H13 C20 1_555 1_555
C21 N1 1_555 1_555
C22 O1 1_555 1_555
H14 C22 1_555 1_555
H15 C22 1_555 1_555
C23 N1 1_555 1_555
H16 C23 1_555 1_555
H17 C23 1_555 1_555
C24 C22 1_555 1_555
C25 C23 1_555 1_555
C26 N3 1_555 1_555
C27 N2 1_555 1_555
C28 C27 1_555 1_555
H18 C28 1_555 1_555
C29 C26 1_555 1_555
H19 C29 1_555 1_555
C30 C29 1_555 1_555
H20 C30 1_555 1_555
C31 C28 1_555 1_555
H21 C31 1_555 1_555
C5 C6 1_555 1_555
C11 C12 1_555 1_555
C14 C15 1_555 1_555
C17 C18 1_555 1_555
C20 C21 1_555 1_555
C24 C25 1_555 1_555
C26 C27 1_555 1_555
C30 C31 1_555 1_555

#END
