
#######################################################################
#
#                 Cambridge Crystallographic Data Centre
#                                CCDC 
#
#######################################################################
#
# If this CIF has been generated from an entry in the Cambridge 
# Structural Database, then it will include bibliographic, chemical, 
# crystal, experimental, refinement or atomic coordinate data resulting 
# from the CCDC's data processing and validation procedures.
#
#######################################################################

data_NUGYOF
_chemical_formula_moiety         'C16 H20 O6 S1'
_chemical_name_systematic        
'Dimethyl 5-hydroxy-2-(4-methoxyphenyl)tetrahydro-4H-thiopyran-4,4-dicarboxylate'
_symmetry_cell_setting           triclinic
_symmetry_space_group_name_H-M   'P -1'
_symmetry_Int_Tables_number      2
_space_group_name_Hall           '-P 1'
loop_
_symmetry_equiv_pos_site_id
_symmetry_equiv_pos_as_xyz
1 x,y,z
2 -x,-y,-z
_cell_length_a                   9.3700(8)
_cell_length_b                   9.3936(6)
_cell_length_c                   10.9444(9)
_cell_angle_alpha                82.884(7)
_cell_angle_beta                 76.527(7)
_cell_angle_gamma                60.437(9)
_cell_volume                     814.791
_exptl_crystal_colour            colorless
_exptl_crystal_description       block
_cell_formula_units_Z            2
loop_
_atom_site_label
_atom_site_type_symbol
_atom_site_fract_x
_atom_site_fract_y
_atom_site_fract_z
S1 S 0.36899(10) 0.40279(9) 0.32182(7)
O1 O -0.2632(3) 1.1360(3) 0.45044(19)
O2 O 0.2058(4) 0.1531(4) 0.1874(2)
O3 O 0.1593(3) 0.2193(3) -0.0049(2)
O4 O 0.4561(3) 0.2190(3) -0.14376(19)
O5 O 0.2746(4) 0.4847(3) -0.1292(2)
O6 O 0.5852(3) 0.2998(3) 0.0471(2)
H1 H 0.5707 0.3682 0.0952
C1 C 0.1052(4) 0.7830(4) 0.2842(3)
H2 H 0.2076 0.7569 0.2305
C2 C 0.0030(4) 0.9423(3) 0.3267(2)
H3 H 0.0372 1.0210 0.3028
C3 C -0.1503(4) 0.9828(3) 0.4048(2)
C4 C -0.1972(4) 0.8629(4) 0.4411(3)
H4 H -0.3001 0.8894 0.4940
C5 C -0.0927(4) 0.7040(4) 0.3995(3)
H5 H -0.1254 0.6246 0.4260
C6 C 0.0600(3) 0.6615(3) 0.3189(2)
C7 C 0.1701(3) 0.4900(3) 0.2695(2)
H6 H 0.1152 0.4239 0.3044
C8 C 0.1983(4) 0.4898(3) 0.1260(2)
H7 H 0.2453 0.5616 0.0926
H8 H 0.0901 0.5365 0.1025
C9 C 0.3133(4) 0.3220(3) 0.0614(2)
C10 C 0.4862(4) 0.2265(3) 0.1013(3)
H9 H 0.5425 0.1159 0.0671
C11 C 0.4735(4) 0.2091(4) 0.2432(3)
H10 H 0.5853 0.1457 0.2609
H11 H 0.4131 0.1489 0.2768
C12 C 0.2232(3) 0.2200(3) 0.0900(3)
C13 C 0.0685(5) 0.1279(5) 0.0123(3)
H12 H 0.0463 0.1188 -0.0669
H13 H -0.0355 0.1839 0.0707
H14 H 0.1345 0.0205 0.0445
C14 C 0.3440(4) 0.3538(4) -0.0811(3)
C15 C 0.4891(5) 0.2317(5) -0.2793(3)
H15 H 0.5957 0.1415 -0.3130
H16 H 0.4907 0.3327 -0.3041
H17 H 0.4029 0.2294 -0.3109
C16 C -0.2232(5) 1.2646(4) 0.4109(3)
H18 H -0.2062 1.2746 0.3210
H19 H -0.1229 1.2404 0.4376
H20 H -0.3136 1.3657 0.4475
loop_
_geom_bond_atom_site_label_1
_geom_bond_atom_site_label_2
_geom_bond_site_symmetry_1
_geom_bond_site_symmetry_2
S1 C7 1_555 1_555
O1 C3 1_555 1_555
O2 C12 1_555 1_555
O3 C12 1_555 1_555
O4 C14 1_555 1_555
O5 C14 1_555 1_555
O6 H1 1_555 1_555
C1 H2 1_555 1_555
C2 C1 1_555 1_555
H3 C2 1_555 1_555
C3 C2 1_555 1_555
C4 C3 1_555 1_555
H4 C4 1_555 1_555
C5 C4 1_555 1_555
H5 C5 1_555 1_555
C6 C1 1_555 1_555
C7 C6 1_555 1_555
H6 C7 1_555 1_555
C8 C7 1_555 1_555
H7 C8 1_555 1_555
H8 C8 1_555 1_555
C9 C8 1_555 1_555
C10 O6 1_555 1_555
H9 C10 1_555 1_555
C11 S1 1_555 1_555
H10 C11 1_555 1_555
H11 C11 1_555 1_555
C12 C9 1_555 1_555
C13 O3 1_555 1_555
H12 C13 1_555 1_555
H13 C13 1_555 1_555
H14 C13 1_555 1_555
C14 C9 1_555 1_555
C15 O4 1_555 1_555
H15 C15 1_555 1_555
H16 C15 1_555 1_555
H17 C15 1_555 1_555
C16 O1 1_555 1_555
H18 C16 1_555 1_555
H19 C16 1_555 1_555
H20 C16 1_555 1_555
C5 C6 1_555 1_555
C9 C10 1_555 1_555
C10 C11 1_555 1_555

#END
