
#######################################################################
#
#                 Cambridge Crystallographic Data Centre
#                                CCDC 
#
#######################################################################
#
# If this CIF has been generated from an entry in the Cambridge 
# Structural Database, then it will include bibliographic, chemical, 
# crystal, experimental, refinement or atomic coordinate data resulting 
# from the CCDC's data processing and validation procedures.
#
#######################################################################

data_NUGYUL
_chemical_formula_moiety         'C22 H36 N1 O5 1+,H2 O1,Cl1 1-'
_chemical_name_systematic        
'8-Hydroxy-6-methoxy-N-octyl-2-phenylhexahydropyrano[3,2-d][1,3]dioxin-7-aminium chloride monohydrate'
_symmetry_cell_setting           orthorhombic
_symmetry_space_group_name_H-M   'P 21 21 21'
_symmetry_Int_Tables_number      19
_space_group_name_Hall           'P 2ac 2ab'
loop_
_symmetry_equiv_pos_site_id
_symmetry_equiv_pos_as_xyz
1 x,y,z
2 1/2-x,-y,1/2+z
3 -x,1/2+y,1/2-z
4 1/2+x,1/2-y,-z
_cell_length_a                   5.1863(10)
_cell_length_b                   14.554(3)
_cell_length_c                   33.212(7)
_cell_angle_alpha                90
_cell_angle_beta                 90
_cell_angle_gamma                90
_cell_volume                     2506.89
_exptl_crystal_colour            colorless
_exptl_crystal_description       prismatic
_cell_formula_units_Z            4
loop_
_atom_site_label
_atom_site_type_symbol
_atom_site_fract_x
_atom_site_fract_y
_atom_site_fract_z
Cl1 Cl 0.12002(11) 0.33089(3) 0.232342(18)
N1 N 0.7520(3) 0.04033(10) 0.24635(5)
O1 O 0.4626(3) -0.05738(8) 0.19550(4)
O2 O 0.3800(3) 0.14201(8) 0.21107(4)
O3 O 0.6813(3) -0.00970(9) 0.13709(4)
O4 O 0.4193(3) 0.22372(8) 0.13520(4)
O5 O 0.2943(4) 0.14674(10) 0.07617(5)
C1 C 0.6953(4) -0.02644(13) 0.17899(6)
H1 H 0.8258 -0.0741 0.1835
C2 C 0.7793(4) 0.06064(12) 0.20238(6)
H2 H 0.9619 0.0721 0.1967
C3 C 0.6249(4) 0.14756(11) 0.19103(6)
H3 H 0.7176 0.2021 0.2005
C4 C 0.5978(4) 0.15189(12) 0.14567(6)
H4 H 0.7663 0.1657 0.1338
C5 C 0.4985(5) 0.06201(13) 0.12838(6)
H5 H 0.3306 0.0469 0.1402
C6 C 0.4727(6) 0.07226(16) 0.08279(7)
H6 H 0.6387 0.0862 0.0708
H7 H 0.4074 0.0159 0.0710
C7 C 0.3987(5) -0.14999(13) 0.18439(8)
H8 H 0.2373 -0.1668 0.1965
H9 H 0.5314 -0.1908 0.1937
H10 H 0.3848 -0.1542 0.1556
C8 C 0.9007(4) 0.10299(12) 0.27380(6)
H11 H 1.0832 0.0899 0.2711
H12 H 0.8727 0.1661 0.2655
C9 C 0.8256(4) 0.09325(13) 0.31720(7)
H13 H 0.8373 0.0292 0.3251
H14 H 0.6484 0.1130 0.3207
C10 C 1.0028(5) 0.15121(14) 0.34399(8)
H15 H 1.1700 0.1215 0.3452
H16 H 1.0269 0.2106 0.3313
C11 C 0.9096(6) 0.1663(2) 0.38581(9)
H17 H 0.9013 0.1076 0.3996
H18 H 0.7364 0.1913 0.3848
C12 C 1.0817(8) 0.2313(3) 0.40982(12)
H19 H 1.2157 0.1937 0.4218
H20 H 1.1663 0.2708 0.3904
C13 C 0.9919(8) 0.2865(2) 0.43927(14)
H21 H 0.9252 0.2464 0.4601
H22 H 0.8445 0.3186 0.4281
C14 C 1.1478(9) 0.3559(3) 0.45973(12)
H23 H 1.2979 0.3255 0.4710
H24 H 1.2092 0.3990 0.4397
C15 C 1.0264(12) 0.4069(3) 0.49106(18)
H25 H 1.1461 0.4508 0.5018
H26 H 0.9724 0.3657 0.5120
H27 H 0.8789 0.4385 0.4804
C16 C 0.3863(6) 0.23038(14) 0.09270(7)
H28 H 0.5503 0.2471 0.0800
C17 C 0.1856(5) 0.30278(14) 0.08365(7)
C18 C 0.1261(6) 0.32058(18) 0.04355(8)
H29 H 0.2134 0.2895 0.0232
C19 C -0.0628(7) 0.38435(18) 0.03365(9)
H30 H -0.0997 0.3969 0.0068
C20 C -0.1950(7) 0.42890(17) 0.06381(9)
H31 H -0.3241 0.4707 0.0573
C21 C -0.1364(6) 0.41172(15) 0.10379(8)
H32 H -0.2240 0.4425 0.1241
C22 C 0.0525(5) 0.34868(14) 0.11326(7)
H33 H 0.0905 0.3370 0.1401
H34 H 0.788(4) -0.0208(15) 0.2500(6)
H35 H 0.582(5) 0.0459(15) 0.2523(7)
H36 H 0.302(5) 0.1996(16) 0.2118(8)
O6 O -0.3683(3) 0.44504(11) 0.20204(5)
H37 H -0.248(7) 0.4086(19) 0.2087(9)
H38 H -0.538(9) 0.401(2) 0.2097(13)
loop_
_geom_bond_atom_site_label_1
_geom_bond_atom_site_label_2
_geom_bond_site_symmetry_1
_geom_bond_site_symmetry_2
N1 C2 1_555 1_555
O1 C1 1_555 1_555
O2 C3 1_555 1_555
O3 C1 1_555 1_555
O4 C4 1_555 1_555
O5 C6 1_555 1_555
C1 H1 1_555 1_555
C2 C1 1_555 1_555
H2 C2 1_555 1_555
C3 C2 1_555 1_555
H3 C3 1_555 1_555
C4 C3 1_555 1_555
H4 C4 1_555 1_555
C5 O3 1_555 1_555
H5 C5 1_555 1_555
C6 C5 1_555 1_555
H6 C6 1_555 1_555
H7 C6 1_555 1_555
C7 O1 1_555 1_555
H8 C7 1_555 1_555
H9 C7 1_555 1_555
H10 C7 1_555 1_555
C8 N1 1_555 1_555
H11 C8 1_555 1_555
H12 C8 1_555 1_555
C9 C8 1_555 1_555
H13 C9 1_555 1_555
H14 C9 1_555 1_555
C10 C9 1_555 1_555
H15 C10 1_555 1_555
H16 C10 1_555 1_555
C11 C10 1_555 1_555
H17 C11 1_555 1_555
H18 C11 1_555 1_555
C12 C11 1_555 1_555
H19 C12 1_555 1_555
H20 C12 1_555 1_555
C13 C12 1_555 1_555
H21 C13 1_555 1_555
H22 C13 1_555 1_555
C14 C13 1_555 1_555
H23 C14 1_555 1_555
H24 C14 1_555 1_555
C15 C14 1_555 1_555
H25 C15 1_555 1_555
H26 C15 1_555 1_555
H27 C15 1_555 1_555
C16 O4 1_555 1_555
H28 C16 1_555 1_555
C17 C16 1_555 1_555
C18 C17 1_555 1_555
H29 C18 1_555 1_555
C19 C18 1_555 1_555
H30 C19 1_555 1_555
C20 C19 1_555 1_555
H31 C20 1_555 1_555
C21 C20 1_555 1_555
H32 C21 1_555 1_555
C22 C17 1_555 1_555
H33 C22 1_555 1_555
H34 N1 1_555 1_555
H35 N1 1_555 1_555
H36 O2 1_555 1_555
O6 H37 1_555 1_555
H38 O6 1_555 1_555
O5 C16 1_555 1_555
C4 C5 1_555 1_555
C21 C22 1_555 1_555

#END
