
#######################################################################
#
#                 Cambridge Crystallographic Data Centre
#                                CCDC 
#
#######################################################################
#
# If this CIF has been generated from an entry in the Cambridge 
# Structural Database, then it will include bibliographic, chemical, 
# crystal, experimental, refinement or atomic coordinate data resulting 
# from the CCDC's data processing and validation procedures.
#
#######################################################################

data_NUGZOF
_chemical_formula_moiety         'C12 H10 N6,C8 H7 N1 O4'
_chemical_name_systematic        
'5-Aminoisophthalic acid 4-amino-3,5-bis(pyridin-4-yl)-1,2,4-triazole'
_symmetry_cell_setting           monoclinic
_symmetry_space_group_name_H-M   'P 21/c'
_symmetry_Int_Tables_number      14
_space_group_name_Hall           '-P 2ybc'
loop_
_symmetry_equiv_pos_site_id
_symmetry_equiv_pos_as_xyz
1 x,y,z
2 -x,1/2+y,1/2-z
3 -x,-y,-z
4 x,1/2-y,1/2+z
_cell_length_a                   17.5638(13)
_cell_length_b                   7.3710(6)
_cell_length_c                   14.4866(11)
_cell_angle_alpha                90
_cell_angle_beta                 93.0100(10)
_cell_angle_gamma                90
_cell_volume                     1872.89
_exptl_crystal_colour            brown
_exptl_crystal_description       block
_cell_formula_units_Z            4
loop_
_atom_site_label
_atom_site_type_symbol
_atom_site_fract_x
_atom_site_fract_y
_atom_site_fract_z
O1 O 0.27304(7) -0.32428(18) 0.00052(9)
O2 O 0.32301(7) -0.06809(17) -0.05254(10)
H1 H 0.3587 -0.1354 -0.0632
O3 O 0.01481(7) -0.31371(18) 0.09825(11)
H2 H -0.0249 -0.3600 0.1142
O4 O -0.03737(8) -0.06270(18) 0.15351(11)
N7 N 0.16817(9) 0.4172(2) 0.10274(12)
H5 H 0.1245 0.4769 0.1120
H6 H 0.1977 0.4747 0.0631
C13 C 0.27107(10) -0.1595(3) -0.01102(12)
C14 C 0.20733(10) -0.0478(2) 0.02357(12)
C15 C 0.14100(10) -0.1352(2) 0.04533(12)
H15 H 0.1349 -0.2579 0.0320
C16 C 0.08377(10) -0.0419(2) 0.08676(13)
C17 C 0.01389(10) -0.1381(3) 0.11610(13)
C18 C 0.09269(10) 0.1416(2) 0.10479(13)
H16 H 0.0545 0.2044 0.1335
C19 C 0.15780(10) 0.2334(2) 0.08062(13)
C20 C 0.21553(10) 0.1365(2) 0.03995(12)
H17 H 0.2596 0.1958 0.0238
N1 N 0.43487(9) 0.7225(2) 0.90969(11)
N2 N 0.58631(8) 0.1668(2) 0.84415(11)
N3 N 0.64609(8) 0.0702(2) 0.81131(11)
N4 N 0.66564(8) 0.35906(19) 0.78559(10)
N5 N 0.69460(8) 0.52526(19) 0.75480(11)
H3 H 0.6994 0.5204 0.6933
H4 H 0.7357 0.5731 0.7854
N6 N 0.89049(9) -0.0187(2) 0.65239(11)
C1 C 0.54470(10) 0.4806(2) 0.85433(12)
C2 C 0.47304(10) 0.4211(3) 0.87930(13)
H7 H 0.4610 0.2983 0.8773
C3 C 0.42070(10) 0.5452(3) 0.90669(13)
H8 H 0.3734 0.5039 0.9239
C4 C 0.50336(11) 0.7804(3) 0.88599(14)
H9 H 0.5135 0.9042 0.8880
C5 C 0.55924(10) 0.6649(3) 0.85883(13)
H10 H 0.6064 0.7101 0.8436
C6 C 0.59868(10) 0.3399(2) 0.82768(12)
C7 C 0.69311(10) 0.1867(2) 0.77642(12)
C8 C 0.76247(10) 0.1262(2) 0.73245(12)
C9 C 0.82442(10) 0.2345(2) 0.71331(13)
H11 H 0.8242 0.3578 0.7271
C10 C 0.88634(11) 0.1567(3) 0.67348(13)
H12 H 0.9273 0.2309 0.6607
C11 C 0.83103(11) -0.1218(3) 0.67087(13)
H13 H 0.8332 -0.2449 0.6572
C12 C 0.76670(10) -0.0560(2) 0.70910(13)
H14 H 0.7261 -0.1332 0.7193
loop_
_geom_bond_atom_site_label_1
_geom_bond_atom_site_label_2
_geom_bond_site_symmetry_1
_geom_bond_site_symmetry_2
O1 C13 1_555 1_555
O2 H1 1_555 1_555
O3 H2 1_555 1_555
O4 C17 1_555 1_555
N1 C3 1_555 1_555
N2 N3 1_555 1_555
N3 C7 1_555 1_555
N4 N5 1_555 1_555
N5 H3 1_555 1_555
H4 N5 1_555 1_555
N6 C10 1_555 1_555
N7 H5 1_555 1_555
H6 N7 1_555 1_555
C1 C2 1_555 1_555
C2 H7 1_555 1_555
C3 C2 1_555 1_555
H8 C3 1_555 1_555
C4 N1 1_555 1_555
H9 C4 1_555 1_555
C5 C1 1_555 1_555
H10 C5 1_555 1_555
C6 N2 1_555 1_555
C7 N4 1_555 1_555
C8 C7 1_555 1_555
C9 C8 1_555 1_555
H11 C9 1_555 1_555
C10 C9 1_555 1_555
H12 C10 1_555 1_555
C11 N6 1_555 1_555
H13 C11 1_555 1_555
C12 C8 1_555 1_555
H14 C12 1_555 1_555
C13 O2 1_555 1_555
C14 C13 1_555 1_555
C15 C14 1_555 1_555
H15 C15 1_555 1_555
C16 C15 1_555 1_555
C17 O3 1_555 1_555
C18 C16 1_555 1_555
H16 C18 1_555 1_555
C19 N7 1_555 1_555
C20 C14 1_555 1_555
H17 C20 1_555 1_555
N4 C6 1_555 1_555
C1 C6 1_555 1_555
C4 C5 1_555 1_555
C11 C12 1_555 1_555
C16 C17 1_555 1_555
C18 C19 1_555 1_555
C19 C20 1_555 1_555

#END
