
#######################################################################
#
#                 Cambridge Crystallographic Data Centre
#                                CCDC 
#
#######################################################################
#
# If this CIF has been generated from an entry in the Cambridge 
# Structural Database, then it will include bibliographic, chemical, 
# crystal, experimental, refinement or atomic coordinate data resulting 
# from the CCDC's data processing and validation procedures.
#
#######################################################################

data_NUGZOG
_chemical_formula_moiety         
'C37 H45 N1 O14,C14 H16 N2 2+,2(F6 P1 1-),C2 H3 N1'
_chemical_name_systematic        
"(2)-((4,4'-Ethene-1,2-diylbis(1-methylpyridinium))-(5,8,11,14,17,25,33,37,40,43,46,49-dodecaoxa-50-azapentacyclo[19.15.13.1^27,31^.0^4,35^.0^18,23^]pentaconta-1,3,18,20,22,27(50),28,30,35-nonaene-26,32-dione)) pseudorotaxane bis(hexafluorophosphate) acetonitrile solvate"
_symmetry_cell_setting           monoclinic
_symmetry_space_group_name_H-M   'C 2/c'
_symmetry_Int_Tables_number      15
_space_group_name_Hall           '-C 2yn'
loop_
_symmetry_equiv_pos_site_id
_symmetry_equiv_pos_as_xyz
1 x,y,z
2 -x,y,1/2-z
3 1/2+x,1/2+y,z
4 1/2-x,1/2+y,1/2-z
5 -x,-y,-z
6 x,-y,1/2+z
7 1/2-x,1/2-y,-z
8 1/2+x,1/2-y,1/2+z
_cell_length_a                   54.999(2)
_cell_length_b                   11.2922(4)
_cell_length_c                   19.9536(9)
_cell_angle_alpha                90
_cell_angle_beta                 98.733(4)
_cell_angle_gamma                90
_cell_volume                     12248.7
_exptl_crystal_colour            yellow
_exptl_crystal_description       platelet
_cell_formula_units_Z            8
loop_
_atom_site_label
_atom_site_type_symbol
_atom_site_fract_x
_atom_site_fract_y
_atom_site_fract_z
O1 O 0.63881(6) 0.0050(3) 0.32948(14)
O2 O 0.62951(5) 0.0169(2) 0.43476(11)
O3 O 0.67679(5) -0.1298(3) 0.48769(14)
O4 O 0.70886(6) 0.0300(2) 0.44141(15)
O5 O 0.71218(5) 0.2767(2) 0.42737(13)
O6 O 0.69836(5) 0.4186(2) 0.53496(15)
O7 O 0.66494(5) 0.4445(2) 0.63081(13)
O8 O 0.61969(5) 0.3887(2) 0.53731(12)
O9 O 0.60644(9) 0.5386(3) 0.46866(17)
O10 O 0.60567(5) 0.2820(2) 0.81157(13)
O11 O 0.56885(5) 0.1343(3) 0.85240(15)
O12 O 0.55335(7) -0.1053(4) 0.8437(2)
O13 O 0.57284(7) -0.2437(3) 0.7423(2)
O14 O 0.61178(5) -0.2632(2) 0.65885(14)
N1 N 0.62679(6) 0.2529(3) 0.42866(14)
C1 C 0.62328(8) 0.3701(3) 0.42119(18)
C2 C 0.62550(9) 0.4309(4) 0.36194(19)
H1 H 0.6228 0.5140 0.3591
C3 C 0.63163(9) 0.3692(4) 0.3075(2)
H2 H 0.6338 0.4089 0.2669
C4 C 0.63451(8) 0.2483(4) 0.31351(19)
H3 H 0.6382 0.2026 0.2764
C5 C 0.63196(6) 0.1941(3) 0.37427(16)
C6 C 0.63419(7) 0.0621(3) 0.37718(17)
C7 C 0.62851(8) -0.1134(3) 0.43720(19)
H4 H 0.6394 -0.1477 0.4071
H5 H 0.6115 -0.1410 0.4214
C8 C 0.63662(7) -0.1525(3) 0.50861(17)
C9 C 0.61961(7) -0.1842(3) 0.54990(18)
H6 H 0.6025 -0.1772 0.5336
C10 C 0.62740(7) -0.2264(3) 0.61531(18)
C11 C 0.65238(7) -0.2343(3) 0.63886(18)
H7 H 0.6578 -0.2623 0.6835
C12 C 0.66959(7) -0.2019(3) 0.59825(19)
H8 H 0.6867 -0.2070 0.6153
C13 C 0.66186(7) -0.1620(3) 0.53252(18)
C14 C 0.70274(7) -0.1377(4) 0.5080(2)
H9 H 0.7076 -0.2209 0.5184
H10 H 0.7078 -0.0892 0.5491
C15 C 0.71469(9) -0.0929(4) 0.4504(3)
H11 H 0.7327 -0.1037 0.4607
H12 H 0.7085 -0.1373 0.4085
C16 C 0.71857(8) 0.0824(4) 0.3864(2)
H13 H 0.7155 0.0305 0.3460
H14 H 0.7366 0.0934 0.3985
C17 C 0.70633(8) 0.1989(4) 0.3714(2)
H15 H 0.7118 0.2341 0.3308
H16 H 0.6883 0.1876 0.3616
C18 C 0.69946(9) 0.3856(4) 0.4172(2)
H17 H 0.6815 0.3709 0.4112
H18 H 0.7034 0.4238 0.3755
C19 C 0.70650(9) 0.4660(4) 0.4760(2)
H19 H 0.7246 0.4757 0.4844
H20 H 0.6990 0.5449 0.4657
C20 C 0.70137(9) 0.4981(4) 0.5902(2)
H21 H 0.6928 0.5734 0.5765
H22 H 0.7191 0.5157 0.6039
C21 C 0.69107(7) 0.4452(4) 0.6490(2)
H23 H 0.6973 0.3635 0.6578
H24 H 0.6959 0.4931 0.6904
C22 C 0.65120(7) 0.4013(3) 0.67692(18)
C23 C 0.66071(7) 0.3513(3) 0.73948(19)
H25 H 0.6780 0.3448 0.7525
C24 C 0.64501(7) 0.3111(3) 0.78252(18)
H26 H 0.6517 0.2768 0.8248
C25 C 0.61982(7) 0.3201(3) 0.76493(18)
C26 C 0.61020(7) 0.3696(3) 0.70259(18)
H27 H 0.5929 0.3762 0.6902
C27 C 0.62572(7) 0.4093(3) 0.65820(17)
C28 C 0.61511(8) 0.4652(3) 0.59293(18)
H28 H 0.5972 0.4767 0.5914
H29 H 0.6228 0.5437 0.5887
C29 C 0.61564(9) 0.4407(3) 0.4777(2)
C30 C 0.58007(7) 0.3078(4) 0.7980(2)
H30 H 0.5727 0.2715 0.7544
H31 H 0.5775 0.3945 0.7946
C31 C 0.56809(8) 0.2589(4) 0.8546(2)
H32 H 0.5768 0.2874 0.8987
H33 H 0.5508 0.2861 0.8499
C32 C 0.55561(10) 0.0799(5) 0.8995(2)
H34 H 0.5378 0.0916 0.8848
H35 H 0.5601 0.1176 0.9445
C33 C 0.56097(11) -0.0465(6) 0.9049(3)
H36 H 0.5789 -0.0579 0.9185
H37 H 0.5525 -0.0812 0.9407
C34 C 0.56032(14) -0.2317(7) 0.8495(4)
H38 H 0.5778 -0.2388 0.8697
H39 H 0.5503 -0.2725 0.8796
C35 C 0.55661(15) -0.2856(6) 0.7854(4)
H40 H 0.5395 -0.2711 0.7636
H41 H 0.5588 -0.3722 0.7911
C36 C 0.57238(10) -0.3179(4) 0.6854(3)
H42 H 0.5551 -0.3316 0.6644
H43 H 0.5797 -0.3955 0.7000
C37 C 0.58636(8) -0.2637(4) 0.6340(2)
H44 H 0.5833 -0.3096 0.5913
H45 H 0.5806 -0.1816 0.6242
N2 N 0.71014(5) 0.1382(3) 0.60663(16)
N3 N 0.54818(6) 0.0805(3) 0.67543(19)
C38 C 0.69037(7) 0.1604(3) 0.55884(19)
H46 H 0.6927 0.1875 0.5152
C39 C 0.66716(7) 0.1442(3) 0.57333(18)
H47 H 0.6534 0.1607 0.5398
C40 C 0.66354(7) 0.1034(3) 0.63678(17)
C41 C 0.68462(7) 0.0818(3) 0.68485(19)
H48 H 0.6829 0.0545 0.7289
C42 C 0.70736(7) 0.0999(3) 0.66845(19)
H49 H 0.7215 0.0852 0.7012
C43 C 0.73498(7) 0.1577(4) 0.5892(2)
H50 H 0.7433 0.0813 0.5869
H51 H 0.7445 0.2072 0.6240
H52 H 0.7336 0.1974 0.5451
C44 C 0.63932(7) 0.0853(3) 0.65595(18)
H53 H 0.6385 0.0540 0.6997
C45 C 0.61823(7) 0.1099(3) 0.61600(19)
H54 H 0.6190 0.1387 0.5716
C46 C 0.59406(7) 0.0949(3) 0.63671(19)
C47 C 0.59043(7) 0.0331(4) 0.6940(2)
H55 H 0.6040 -0.0048 0.7209
C48 C 0.56730(8) 0.0259(4) 0.7126(2)
H56 H 0.5649 -0.0178 0.7518
C49 C 0.55089(8) 0.1407(4) 0.6194(2)
H57 H 0.5371 0.1783 0.5936
C50 C 0.57375(7) 0.1483(4) 0.5989(2)
H58 H 0.5756 0.1904 0.5587
C51 C 0.52390(9) 0.0747(6) 0.6982(3)
H59 H 0.5233 0.0053 0.7274
H60 H 0.5110 0.0682 0.6587
H61 H 0.5213 0.1466 0.7236
P1 P 0.74595(2) 0.30843(12) 0.80906(7)
F1 F 0.75325(10) 0.1779(4) 0.8103(4)
F2 F 0.77388(6) 0.3498(4) 0.8118(2)
F3 F 0.73816(10) 0.4417(4) 0.8075(3)
F4 F 0.71838(6) 0.2680(4) 0.80509(19)
F5 F 0.74251(6) 0.3101(4) 0.72972(17)
F6 F 0.74849(11) 0.3086(7) 0.8883(2)
N4 N 0.4484(3) 0.6449(11) 0.4985(7)
C52 C 0.4598(3) 0.4207(12) 0.4997(7)
H62 H 0.4574 0.3888 0.4535
H63 H 0.4489 0.3798 0.5266
H64 H 0.4770 0.4087 0.5205
C53 C 0.4542(2) 0.5471(9) 0.4975(6)
P2? P 0.48762(5) 0.1613(3) 0.46141(14)
F7? F 0.48395(16) 0.1853(7) 0.3896(4)
F8? F 0.46220(9) 0.1062(6) 0.4459(3)
F9? F 0.47395(18) 0.2780(9) 0.4766(4)
F10? F 0.49277(11) 0.1313(9) 0.5418(3)
F11? F 0.51273(13) 0.2214(8) 0.4681(4)
F12? F 0.50211(14) 0.0420(8) 0.4486(4)
F13? F 0.5111(4) 0.3426(9) 0.7527(10)
P3? P 0.50968(6) 0.4330(3) 0.68412(18)
F14? F 0.53930(15) 0.4030(8) 0.6631(7)
F15? F 0.50232(15) 0.3309(7) 0.6307(4)
F16? F 0.5071(2) 0.5084(10) 0.6204(5)
F17? F 0.48268(16) 0.4599(11) 0.6819(8)
F18? F 0.5171(2) 0.5306(10) 0.7390(6)
loop_
_geom_bond_atom_site_label_1
_geom_bond_atom_site_label_2
_geom_bond_site_symmetry_1
_geom_bond_site_symmetry_2
O1 C6 1_555 1_555
O2 C6 1_555 1_555
O3 C13 1_555 1_555
O4 C15 1_555 1_555
O5 C17 1_555 1_555
O6 C19 1_555 1_555
O7 C21 1_555 1_555
O8 C28 1_555 1_555
O9 C29 1_555 1_555
O10 C25 1_555 1_555
O11 C31 1_555 1_555
O12 C33 1_555 1_555
O13 C35 1_555 1_555
O14 C10 1_555 1_555
N1 C1 1_555 1_555
C1 C2 1_555 1_555
C2 H1 1_555 1_555
C3 C2 1_555 1_555
H2 C3 1_555 1_555
C4 C3 1_555 1_555
H3 C4 1_555 1_555
C5 N1 1_555 1_555
C6 C5 1_555 1_555
C7 O2 1_555 1_555
H4 C7 1_555 1_555
H5 C7 1_555 1_555
C8 C7 1_555 1_555
C9 C8 1_555 1_555
H6 C9 1_555 1_555
C10 C9 1_555 1_555
C11 C10 1_555 1_555
H7 C11 1_555 1_555
C12 C11 1_555 1_555
H8 C12 1_555 1_555
C13 C8 1_555 1_555
C14 O3 1_555 1_555
H9 C14 1_555 1_555
H10 C14 1_555 1_555
C15 C14 1_555 1_555
H11 C15 1_555 1_555
H12 C15 1_555 1_555
C16 O4 1_555 1_555
H13 C16 1_555 1_555
H14 C16 1_555 1_555
C17 C16 1_555 1_555
H15 C17 1_555 1_555
H16 C17 1_555 1_555
C18 O5 1_555 1_555
H17 C18 1_555 1_555
H18 C18 1_555 1_555
C19 C18 1_555 1_555
H19 C19 1_555 1_555
H20 C19 1_555 1_555
C20 O6 1_555 1_555
H21 C20 1_555 1_555
H22 C20 1_555 1_555
C21 C20 1_555 1_555
H23 C21 1_555 1_555
H24 C21 1_555 1_555
C22 O7 1_555 1_555
C23 C22 1_555 1_555
H25 C23 1_555 1_555
C24 C23 1_555 1_555
H26 C24 1_555 1_555
C25 C24 1_555 1_555
C26 C25 1_555 1_555
H27 C26 1_555 1_555
C27 C22 1_555 1_555
C28 C27 1_555 1_555
H28 C28 1_555 1_555
H29 C28 1_555 1_555
C29 O8 1_555 1_555
C30 O10 1_555 1_555
H30 C30 1_555 1_555
H31 C30 1_555 1_555
C31 C30 1_555 1_555
H32 C31 1_555 1_555
H33 C31 1_555 1_555
C32 O11 1_555 1_555
H34 C32 1_555 1_555
H35 C32 1_555 1_555
C33 C32 1_555 1_555
H36 C33 1_555 1_555
H37 C33 1_555 1_555
C34 O12 1_555 1_555
H38 C34 1_555 1_555
H39 C34 1_555 1_555
C35 C34 1_555 1_555
H40 C35 1_555 1_555
H41 C35 1_555 1_555
C36 O13 1_555 1_555
H42 C36 1_555 1_555
H43 C36 1_555 1_555
C37 O14 1_555 1_555
H44 C37 1_555 1_555
H45 C37 1_555 1_555
N2 C38 1_555 1_555
N3 C48 1_555 1_555
C38 H46 1_555 1_555
C39 C38 1_555 1_555
H47 C39 1_555 1_555
C40 C39 1_555 1_555
C41 C40 1_555 1_555
H48 C41 1_555 1_555
C42 N2 1_555 1_555
H49 C42 1_555 1_555
C43 N2 1_555 1_555
H50 C43 1_555 1_555
H51 C43 1_555 1_555
H52 C43 1_555 1_555
C44 C40 1_555 1_555
H53 C44 1_555 1_555
C45 C44 1_555 1_555
H54 C45 1_555 1_555
C46 C45 1_555 1_555
C47 C46 1_555 1_555
H55 C47 1_555 1_555
C48 C47 1_555 1_555
H56 C48 1_555 1_555
C49 N3 1_555 1_555
H57 C49 1_555 1_555
C50 C46 1_555 1_555
H58 C50 1_555 1_555
C51 N3 1_555 1_555
H59 C51 1_555 1_555
H60 C51 1_555 1_555
H61 C51 1_555 1_555
P1 F1 1_555 1_555
F2 P1 1_555 1_555
F3 P1 1_555 1_555
F4 P1 1_555 1_555
F5 P1 1_555 1_555
F6 P1 1_555 1_555
N4 C53 1_555 1_555
C52 H62 1_555 1_555
H63 C52 1_555 1_555
H64 C52 1_555 1_555
C53 C52 1_555 1_555
C1 C29 1_555 1_555
C4 C5 1_555 1_555
C12 C13 1_555 1_555
C26 C27 1_555 1_555
C36 C37 1_555 1_555
C41 C42 1_555 1_555
C49 C50 1_555 1_555

#END
