
#######################################################################
#
#                 Cambridge Crystallographic Data Centre
#                                CCDC 
#
#######################################################################
#
# If this CIF has been generated from an entry in the Cambridge 
# Structural Database, then it will include bibliographic, chemical, 
# crystal, experimental, refinement or atomic coordinate data resulting 
# from the CCDC's data processing and validation procedures.
#
#######################################################################

data_NUHBAU
_chemical_formula_moiety         'C12 H10 N6,C9 H6 O6,2(H2 O1)'
_chemical_name_systematic        
'Benzene-1,3,5-tricarboxylic acid 4-amino-3,5-bis(pyridin-4-yl)-1,2,4-triazole dihydrate'
_symmetry_cell_setting           monoclinic
_symmetry_space_group_name_H-M   'P 21/c'
_symmetry_Int_Tables_number      14
_space_group_name_Hall           '-P 2ybc'
loop_
_symmetry_equiv_pos_site_id
_symmetry_equiv_pos_as_xyz
1 x,y,z
2 -x,1/2+y,1/2-z
3 -x,-y,-z
4 x,1/2-y,1/2+z
_cell_length_a                   7.3454(7)
_cell_length_b                   37.522(3)
_cell_length_c                   8.5441(8)
_cell_angle_alpha                90
_cell_angle_beta                 113.3500(10)
_cell_angle_gamma                90
_cell_volume                     2162.01
_exptl_crystal_colour            colorless
_exptl_crystal_description       block
_cell_formula_units_Z            4
loop_
_atom_site_label
_atom_site_type_symbol
_atom_site_fract_x
_atom_site_fract_y
_atom_site_fract_z
O1 O 0.8761(2) 0.30544(4) 0.54899(18)
O2 O 0.8541(2) 0.24702(3) 0.50116(16)
H1 H 0.9434 0.2464 0.5967
O3 O 0.3271(2) 0.19605(3) 0.02139(16)
H2 H 0.2583 0.1798 -0.0365
O4 O 0.13253(18) 0.22838(3) -0.19684(15)
O5 O 0.1893(2) 0.36005(3) -0.13815(18)
H3 H 0.1538 0.3809 -0.1556
O6 O 0.4586(2) 0.38405(3) 0.05737(19)
C13 C 0.8006(2) 0.28038(5) 0.4588(2)
C14 C 0.6346(2) 0.28376(4) 0.2867(2)
C15 C 0.5760(2) 0.31747(4) 0.2184(2)
H18 H 0.6429 0.3375 0.2779
C16 C 0.4179(3) 0.32154(4) 0.0617(2)
C17 C 0.3586(3) 0.35816(4) -0.0055(2)
C18 C 0.3175(2) 0.29162(4) -0.0277(2)
H19 H 0.2109 0.2942 -0.1321
C19 C 0.3772(2) 0.25790(4) 0.0397(2)
C20 C 0.2676(2) 0.22598(4) -0.0564(2)
C21 C 0.5353(2) 0.25408(4) 0.1964(2)
H20 H 0.5748 0.2314 0.2411
O7 O 0.0617(2) 0.42522(3) 0.78777(19)
H4 H -0.0437 0.4290 0.6999
H5 H 0.1174 0.4432 0.8484
O8 O 0.6630(3) 0.35680(5) 0.6743(3)
H6 H 0.7622 0.3487 0.6579
H7 H 0.5696 0.3423 0.6622
N1 N 1.1236(2) 0.14407(4) 0.8500(2)
N2 N 0.9069(2) 0.01959(4) 0.65458(18)
N3 N 0.7961(2) -0.00610(4) 0.54362(18)
N4 N 0.6933(2) 0.04587(3) 0.42849(16)
N5 N 0.5731(2) 0.07168(4) 0.31397(19)
H8 H 0.5277 0.0860 0.3750
H9 H 0.6536 0.0831 0.2737
N6 N 0.2670(2) -0.05002(4) -0.01042(19)
C1 C 1.0159(3) 0.14579(5) 0.6835(3)
H10 H 1.0053 0.1676 0.6286
C2 C 0.9191(3) 0.11663(5) 0.5884(2)
H11 H 0.8458 0.1187 0.4717
C3 C 0.9329(2) 0.08421(4) 0.6694(2)
C4 C 1.0434(3) 0.08289(5) 0.8442(2)
H12 H 1.0546 0.0617 0.9034
C5 C 1.1356(3) 0.11307(5) 0.9285(2)
H13 H 1.2096 0.1118 1.0454
C6 C 0.8447(2) 0.05070(4) 0.5845(2)
C7 C 0.6675(2) 0.00996(4) 0.4081(2)
C8 C 0.5256(2) -0.00957(4) 0.2612(2)
C9 C 0.3654(3) 0.00601(5) 0.1326(2)
H14 H 0.3408 0.0303 0.1348
C10 C 0.2426(3) -0.01508(5) 0.0011(2)
H15 H 0.1359 -0.0042 -0.0851
C11 C 0.4207(3) -0.06475(5) 0.1149(2)
H16 H 0.4406 -0.0891 0.1103
C12 C 0.5523(3) -0.04585(5) 0.2511(2)
H17 H 0.6579 -0.0574 0.3354
loop_
_geom_bond_atom_site_label_1
_geom_bond_atom_site_label_2
_geom_bond_site_symmetry_1
_geom_bond_site_symmetry_2
O1 C13 1_555 1_555
O2 H1 1_555 1_555
O3 H2 1_555 1_555
O4 C20 1_555 1_555
O5 H3 1_555 1_555
O6 C17 1_555 1_555
O7 H4 1_555 1_555
H5 O7 1_555 1_555
O8 H6 1_555 1_555
H7 O8 1_555 1_555
N1 C1 1_555 1_555
N2 N3 1_555 1_555
N3 C7 1_555 1_555
N4 N5 1_555 1_555
N5 H8 1_555 1_555
H9 N5 1_555 1_555
N6 C10 1_555 1_555
C1 H10 1_555 1_555
C2 C1 1_555 1_555
H11 C2 1_555 1_555
C3 C2 1_555 1_555
C4 C3 1_555 1_555
H12 C4 1_555 1_555
C5 N1 1_555 1_555
H13 C5 1_555 1_555
C6 N2 1_555 1_555
C7 N4 1_555 1_555
C8 C7 1_555 1_555
C9 C8 1_555 1_555
H14 C9 1_555 1_555
C10 C9 1_555 1_555
H15 C10 1_555 1_555
C11 N6 1_555 1_555
H16 C11 1_555 1_555
C12 C8 1_555 1_555
H17 C12 1_555 1_555
C13 O2 1_555 1_555
C14 C13 1_555 1_555
C15 C14 1_555 1_555
H18 C15 1_555 1_555
C16 C15 1_555 1_555
C17 O5 1_555 1_555
C18 C16 1_555 1_555
H19 C18 1_555 1_555
C19 C18 1_555 1_555
C20 O3 1_555 1_555
C21 C14 1_555 1_555
H20 C21 1_555 1_555
N4 C6 1_555 1_555
C3 C6 1_555 1_555
C4 C5 1_555 1_555
C11 C12 1_555 1_555
C16 C17 1_555 1_555
C19 C20 1_555 1_555
C19 C21 1_555 1_555

#END
