
#######################################################################
#
#                 Cambridge Crystallographic Data Centre
#                                CCDC 
#
#######################################################################
#
# If this CIF has been generated from an entry in the Cambridge 
# Structural Database, then it will include bibliographic, chemical, 
# crystal, experimental, refinement or atomic coordinate data resulting 
# from the CCDC's data processing and validation procedures.
#
#######################################################################

data_NUHCUP
_chemical_formula_moiety         '4(C16 H14 O4),C4 H10 O1'
_chemical_name_systematic        
'tetrakis((R,R)-2,3-Diphenylsuccinic acid) diethyl ether clathrate'
_symmetry_cell_setting           tetragonal
_symmetry_space_group_name_H-M   'P 41'
_symmetry_Int_Tables_number      76
_space_group_name_Hall           'P 4w'
loop_
_symmetry_equiv_pos_site_id
_symmetry_equiv_pos_as_xyz
1 x,y,z
2 -x,-y,1/2+z
3 -y,x,1/4+z
4 y,-x,3/4+z
_cell_length_a                   16.249(6)
_cell_length_b                   16.249(6)
_cell_length_c                   22.540(10)
_cell_angle_alpha                90
_cell_angle_beta                 90
_cell_angle_gamma                90
_cell_volume                     5951.24
_exptl_crystal_colour            colorless
_exptl_crystal_description       plate
_cell_formula_units_Z            4
loop_
_atom_site_label
_atom_site_type_symbol
_atom_site_fract_x
_atom_site_fract_y
_atom_site_fract_z
O1 O 0.4874(6) 0.7578(7) -0.0268(5)
H1 H 0.5325 0.7824 -0.0196
O2 O 0.4704(6) 0.7786(6) 0.0699(5)
O3 O 0.3028(6) 0.8790(5) -0.0043(5)
O4 O 0.2819(6) 0.8882(6) 0.0940(5)
H2 H 0.2888 0.9393 0.0876
C1 C 0.4452(9) 0.7516(8) 0.0217(7)
C2 C 0.3596(8) 0.7129(8) 0.0140(7)
H3 H 0.3426 0.7199 -0.0283
C3 C 0.3688(7) 0.6255(4) 0.0256(5)
C4 C 0.3778(8) 0.6022(6) 0.0831(4)
H4 H 0.3715 0.6412 0.1142
C5 C 0.3968(9) 0.5186(7) 0.0964(5)
H5 H 0.4088 0.5000 0.1354
C6 C 0.3963(8) 0.4607(4) 0.0419(6)
H6 H 0.3981 0.4031 0.0492
C7 C 0.3938(7) 0.4837(5) -0.0106(6)
H7 H 0.4055 0.4483 -0.0430
C8 C 0.3728(6) 0.5637(6) -0.0173(4)
H8 H 0.3589 0.5799 -0.0565
C9 C 0.2946(8) 0.8473(8) 0.0452(7)
C10 C 0.2956(8) 0.7547(7) 0.0531(7)
H9 H 0.3111 0.7434 0.0952
C11 C 0.2075(4) 0.7235(5) 0.0446(4)
C12 C 0.1553(6) 0.7038(5) 0.0897(3)
H10 H 0.1769 0.7021 0.1289
C13 C 0.0747(6) 0.6865(5) 0.0823(4)
H11 H 0.0399 0.6809 0.1159
C14 C 0.0448(4) 0.6777(5) 0.0297(5)
H12 H -0.0112 0.6618 0.0254
C15 C 0.0949(6) 0.6914(6) -0.0237(4)
H13 H 0.0730 0.6835 -0.0623
C16 C 0.1741(5) 0.7161(6) -0.0152(4)
H14 H 0.2079 0.7284 -0.0484
O5 O 0.6284(6) 0.7904(6) 0.0938(5)
H15 H 0.5779 0.7829 0.0854
O6 O 0.6397(6) 0.8129(6) -0.0050(5)
O7 O 0.7440(6) 0.9783(6) 0.0700(5)
O8 O 0.7613(6) 0.9985(6) -0.0260(5)
H16 H 0.7322 1.0407 -0.0185
C17 C 0.6702(8) 0.8048(7) 0.0443(7)
C18 C 0.7599(8) 0.8082(7) 0.0528(6)
H17 H 0.7704 0.8235 0.0951
C19 C 0.7939(6) 0.7184(4) 0.0431(5)
C20 C 0.8027(6) 0.6830(5) -0.0146(4)
H18 H 0.7922 0.7168 -0.0481
C21 C 0.8253(6) 0.6031(5) -0.0241(4)
H19 H 0.8307 0.5826 -0.0634
C22 C 0.8397(6) 0.5535(4) 0.0227(5)
H20 H 0.8512 0.4967 0.0172
C23 C 0.8375(7) 0.5869(6) 0.0779(4)
H21 H 0.8546 0.5536 0.1103
C24 C 0.8117(7) 0.6669(6) 0.0901(4)
H22 H 0.8064 0.6856 0.1299
C25 C 0.7658(8) 0.9502(8) 0.0231(7)
C26 C 0.8050(8) 0.8704(8) 0.0137(7)
H23 H 0.7949 0.8544 -0.0285
C27 C 0.8923(5) 0.8806(6) 0.0208(5)
C28 C 0.9509(7) 0.8762(6) -0.0199(4)
H24 H 0.9370 0.8629 -0.0597
C29 C 1.0353(6) 0.8914(7) -0.0045(5)
H25 H 1.0754 0.8848 -0.0349
C30 C 1.0609(5) 0.9131(6) 0.0468(6)
H26 H 1.1169 0.9277 0.0533
C31 C 1.0058(8) 0.9146(7) 0.0914(5)
H27 H 1.0259 0.9249 0.1303
C32 C 0.9227(7) 0.9022(7) 0.0847(4)
H28 H 0.8857 0.9066 0.1172
O9 O 0.7256(6) 0.1349(6) 0.0929(4)
H29 H 0.7449 0.0880 0.0837
O10 O 0.7081(7) 0.1498(6) -0.0050(5)
O11 O 0.5424(6) 0.2521(7) 0.0706(6)
O12 O 0.5211(6) 0.2718(7) -0.0259(5)
H30 H 0.4720 0.2584 -0.0172
C33 C 0.7154(8) 0.1794(8) 0.0443(7)
C34 C 0.7128(8) 0.2732(7) 0.0547(7)
H31 H 0.6979 0.2856 0.0968
C35 C 0.8002(4) 0.3016(5) 0.0414(4)
C36 C 0.8313(5) 0.3045(6) -0.0117(4)
H32 H 0.7974 0.2887 -0.0442
C37 C 0.9120(6) 0.3296(6) -0.0237(4)
H33 H 0.9303 0.3335 -0.0636
C38 C 0.9623(4) 0.3476(6) 0.0191(5)
H34 H 1.0183 0.3604 0.0115
C39 C 0.9295(5) 0.3473(6) 0.0790(4)
H35 H 0.9638 0.3647 0.1107
C40 C 0.8506(6) 0.3228(5) 0.0911(3)
H36 H 0.8304 0.3199 0.1306
C41 C 0.5654(8) 0.2744(9) 0.0226(7)
C42 C 0.6489(8) 0.3117(7) 0.0117(7)
H37 H 0.6662 0.3030 -0.0304
C43 C 0.6375(7) 0.4065(4) 0.0250(5)
C44 C 0.6368(7) 0.4583(6) -0.0225(4)
H38 H 0.6436 0.4400 -0.0623
C45 C 0.6250(7) 0.5423(5) -0.0071(5)
H39 H 0.6286 0.5817 -0.0382
C46 C 0.6086(8) 0.5724(5) 0.0504(6)
H40 H 0.5933 0.6282 0.0566
C47 C 0.6148(8) 0.5220(7) 0.0941(5)
H41 H 0.6087 0.5398 0.1339
C48 C 0.6308(8) 0.4417(6) 0.0805(4)
H42 H 0.6381 0.4057 0.1133
O13 O 0.2466(7) 0.0303(6) -0.0261(5)
H43 H 0.2581 -0.0195 -0.0180
O14 O 0.2696(6) 0.0489(6) 0.0707(5)
O15 O 0.3702(7) 0.2171(7) -0.0041(6)
O16 O 0.3808(6) 0.2364(6) 0.0918(5)
H44 H 0.4315 0.2288 0.0843
C49 C 0.2456(9) 0.0735(9) 0.0225(8)
C50 C 0.2044(8) 0.1591(8) 0.0139(7)
H45 H 0.2097 0.1768 -0.0285
C51 C 0.1118(5) 0.1515(6) 0.0307(5)
C52 C 0.0824(7) 0.1442(6) 0.0824(4)
H46 H 0.1182 0.1446 0.1158
C53 C 0.0032(7) 0.1362(6) 0.0903(4)
H47 H -0.0133 0.1407 0.1306
C54 C -0.0535(5) 0.1242(7) 0.0563(6)
H48 H -0.1086 0.1160 0.0690
C55 C -0.0275(6) 0.1235(7) -0.0090(5)
H49 H -0.0660 0.1131 -0.0398
C56 C 0.0592(6) 0.1394(7) -0.0217(4)
H50 H 0.0802 0.1419 -0.0610
C57 C 0.3365(9) 0.2244(8) 0.0421(8)
C58 C 0.2449(8) 0.2236(7) 0.0549(7)
H51 H 0.2348 0.2091 0.0975
C59 C 0.2125(6) 0.3099(4) 0.0420(4)
C60 C 0.1966(6) 0.3623(5) 0.0908(4)
H52 H 0.2043 0.3412 0.1298
C61 C 0.1701(7) 0.4434(5) 0.0845(4)
H53 H 0.1542 0.4759 0.1177
C62 C 0.1682(6) 0.4746(4) 0.0259(5)
H54 H 0.1554 0.5309 0.0192
C63 C 0.1856(6) 0.4216(6) -0.0235(4)
H55 H 0.1811 0.4412 -0.0630
C64 C 0.2092(6) 0.3409(5) -0.0121(4)
H56 H 0.2236 0.3066 -0.0446
O17 O 0.5290(18) 0.027(2) 0.0234(19)
C65 C 0.524(2) 0.003(2) -0.0648(17)
H57 H 0.4996 0.0074 -0.1044
H58 H 0.5306 -0.0548 -0.0541
H59 H 0.5781 0.0302 -0.0648
C66 C 0.471(2) 0.044(2) -0.0218(15)
H60 H 0.4624 0.1029 -0.0296
H61 H 0.4175 0.0152 -0.0159
C67 C 0.496(3) -0.001(3) 0.0765(14)
H62 H 0.5174 -0.0583 0.0763
H63 H 0.4376 -0.0069 0.0651
C68 C 0.4876(19) 0.012(2) 0.1409(14)
H64 H 0.4923 -0.0403 0.1617
H65 H 0.4336 0.0369 0.1491
H66 H 0.5310 0.0497 0.1545
loop_
_geom_bond_atom_site_label_1
_geom_bond_atom_site_label_2
_geom_bond_site_symmetry_1
_geom_bond_site_symmetry_2
O1 H1 1_555 1_555
O2 C1 1_555 1_555
O3 C9 1_555 1_555
O4 H2 1_555 1_555
C1 O1 1_555 1_555
C2 C1 1_555 1_555
H3 C2 1_555 1_555
C3 C2 1_555 1_555
C4 C3 1_555 1_555
H4 C4 1_555 1_555
C5 C4 1_555 1_555
H5 C5 1_555 1_555
C6 C5 1_555 1_555
H6 C6 1_555 1_555
C7 C6 1_555 1_555
H7 C7 1_555 1_555
C8 C3 1_555 1_555
H8 C8 1_555 1_555
C9 O4 1_555 1_555
C10 C2 1_555 1_555
H9 C10 1_555 1_555
C11 C10 1_555 1_555
C12 C11 1_555 1_555
H10 C12 1_555 1_555
C13 C12 1_555 1_555
H11 C13 1_555 1_555
C14 C13 1_555 1_555
H12 C14 1_555 1_555
C15 C14 1_555 1_555
H13 C15 1_555 1_555
C16 C11 1_555 1_555
H14 C16 1_555 1_555
O5 H15 1_555 1_555
O6 C17 1_555 1_555
O7 C25 1_555 1_555
O8 H16 1_555 1_555
C17 O5 1_555 1_555
C18 C17 1_555 1_555
H17 C18 1_555 1_555
C19 C18 1_555 1_555
C20 C19 1_555 1_555
H18 C20 1_555 1_555
C21 C20 1_555 1_555
H19 C21 1_555 1_555
C22 C21 1_555 1_555
H20 C22 1_555 1_555
C23 C22 1_555 1_555
H21 C23 1_555 1_555
C24 C19 1_555 1_555
H22 C24 1_555 1_555
C25 O8 1_555 1_555
C26 C18 1_555 1_555
H23 C26 1_555 1_555
C27 C26 1_555 1_555
C28 C27 1_555 1_555
H24 C28 1_555 1_555
C29 C28 1_555 1_555
H25 C29 1_555 1_555
C30 C29 1_555 1_555
H26 C30 1_555 1_555
C31 C30 1_555 1_555
H27 C31 1_555 1_555
C32 C27 1_555 1_555
H28 C32 1_555 1_555
O9 H29 1_555 1_555
O10 C33 1_555 1_555
O11 C41 1_555 1_555
O12 H30 1_555 1_555
C33 O9 1_555 1_555
C34 C33 1_555 1_555
H31 C34 1_555 1_555
C35 C34 1_555 1_555
C36 C35 1_555 1_555
H32 C36 1_555 1_555
C37 C36 1_555 1_555
H33 C37 1_555 1_555
C38 C37 1_555 1_555
H34 C38 1_555 1_555
C39 C38 1_555 1_555
H35 C39 1_555 1_555
C40 C35 1_555 1_555
H36 C40 1_555 1_555
C41 O12 1_555 1_555
C42 C34 1_555 1_555
H37 C42 1_555 1_555
C43 C42 1_555 1_555
C44 C43 1_555 1_555
H38 C44 1_555 1_555
C45 C44 1_555 1_555
H39 C45 1_555 1_555
C46 C45 1_555 1_555
H40 C46 1_555 1_555
C47 C46 1_555 1_555
H41 C47 1_555 1_555
C48 C43 1_555 1_555
H42 C48 1_555 1_555
O13 H43 1_555 1_555
O14 C49 1_555 1_555
O15 C57 1_555 1_555
O16 H44 1_555 1_555
C49 O13 1_555 1_555
C50 C49 1_555 1_555
H45 C50 1_555 1_555
C51 C50 1_555 1_555
C52 C51 1_555 1_555
H46 C52 1_555 1_555
C53 C52 1_555 1_555
H47 C53 1_555 1_555
C54 C53 1_555 1_555
H48 C54 1_555 1_555
C55 C54 1_555 1_555
H49 C55 1_555 1_555
C56 C51 1_555 1_555
H50 C56 1_555 1_555
C57 O16 1_555 1_555
C58 C50 1_555 1_555
H51 C58 1_555 1_555
C59 C58 1_555 1_555
C60 C59 1_555 1_555
H52 C60 1_555 1_555
C61 C60 1_555 1_555
H53 C61 1_555 1_555
C62 C61 1_555 1_555
H54 C62 1_555 1_555
C63 C62 1_555 1_555
H55 C63 1_555 1_555
C64 C59 1_555 1_555
H56 C64 1_555 1_555
O17 C66 1_555 1_555
C65 H57 1_555 1_555
H58 C65 1_555 1_555
H59 C65 1_555 1_555
C66 C65 1_555 1_555
H60 C66 1_555 1_555
H61 C66 1_555 1_555
C67 O17 1_555 1_555
H62 C67 1_555 1_555
H63 C67 1_555 1_555
C68 C67 1_555 1_555
H64 C68 1_555 1_555
H65 C68 1_555 1_555
H66 C68 1_555 1_555
C7 C8 1_555 1_555
C9 C10 1_555 1_555
C15 C16 1_555 1_555
C23 C24 1_555 1_555
C25 C26 1_555 1_555
C31 C32 1_555 1_555
C39 C40 1_555 1_555
C41 C42 1_555 1_555
C47 C48 1_555 1_555
C55 C56 1_555 1_555
C57 C58 1_555 1_555
C63 C64 1_555 1_555

#END
