
#######################################################################
#
#                 Cambridge Crystallographic Data Centre
#                                CCDC 
#
#######################################################################
#
# If this CIF has been generated from an entry in the Cambridge 
# Structural Database, then it will include bibliographic, chemical, 
# crystal, experimental, refinement or atomic coordinate data resulting 
# from the CCDC's data processing and validation procedures.
#
#######################################################################

data_NUHHAB
_chemical_formula_moiety         'C11 H9 Cl2 N1 O2'
_chemical_name_systematic        
8,10-dichloro-6,7-dihydro-5H-[1,4]oxazino[2,3,4-ij]quinolin-3(2H)-one
_symmetry_cell_setting           monoclinic
_symmetry_space_group_name_H-M   'P 21/c'
_symmetry_Int_Tables_number      14
_space_group_name_Hall           '-P 2ybc'
loop_
_symmetry_equiv_pos_site_id
_symmetry_equiv_pos_as_xyz
1 x,y,z
2 -x,1/2+y,1/2-z
3 -x,-y,-z
4 x,1/2-y,1/2+z
_cell_length_a                   4.3508(3)
_cell_length_b                   23.501(2)
_cell_length_c                   10.1813(8)
_cell_angle_alpha                90
_cell_angle_beta                 93.946(3)
_cell_angle_gamma                90
_cell_volume                     1038.55
_exptl_crystal_colour            white
_exptl_crystal_description       niddle
_cell_formula_units_Z            4
loop_
_atom_site_label
_atom_site_type_symbol
_atom_site_fract_x
_atom_site_fract_y
_atom_site_fract_z
Cl1 Cl -0.49965(14) 0.75324(2) 0.73861(7)
Cl2 Cl 0.11137(19) 0.62709(3) 1.11207(5)
C1 C 0.0400(4) 0.61689(7) 0.72017(17)
C2 C -0.2612(5) 0.69686(8) 0.7833(2)
C3 C -0.1514(4) 0.66285(8) 0.68560(18)
C4 C 0.1220(4) 0.60408(8) 0.85245(17)
C5 C -0.1796(5) 0.68619(9) 0.9153(2)
H1 H -0.2507 0.7093 0.9808
C6 C 0.0096(5) 0.64036(9) 0.94676(18)
C7 C 0.3228(5) 0.53060(9) 0.6470(2)
H2 H 0.5413 0.5387 0.6466
H3 H 0.2712 0.5026 0.5791
C8 C 0.3071(5) 0.55132(10) 0.8864(2)
H4 H 0.2480 0.5361 0.9696
H5 H 0.5244 0.5609 0.8962
C9 C -0.0171(6) 0.65956(12) 0.4671(2)
H6 H 0.1380 0.6893 0.4710
H7 H -0.1149 0.6593 0.3786
C10 C 0.2531(6) 0.50682(9) 0.7793(2)
H8 H 0.3838 0.4741 0.7996
H9 H 0.0404 0.4943 0.7761
C11 C 0.1387(5) 0.60362(10) 0.49276(19)
N1 N 0.1454(4) 0.58313(7) 0.61800(16)
O1 O -0.2438(4) 0.67330(8) 0.55724(15)
O2 O 0.2636(5) 0.57902(9) 0.40483(18)
loop_
_geom_bond_atom_site_label_1
_geom_bond_atom_site_label_2
_geom_bond_site_symmetry_1
_geom_bond_site_symmetry_2
Cl1 C2 1_555 1_555
Cl2 C6 1_555 1_555
C1 C3 1_555 1_555
C2 C3 1_555 1_555
C3 O1 1_555 1_555
C4 C1 1_555 1_555
C5 C2 1_555 1_555
H1 C5 1_555 1_555
C6 C4 1_555 1_555
C7 H2 1_555 1_555
H3 C7 1_555 1_555
C8 C4 1_555 1_555
H4 C8 1_555 1_555
H5 C8 1_555 1_555
C9 H6 1_555 1_555
H7 C9 1_555 1_555
C10 C7 1_555 1_555
H8 C10 1_555 1_555
H9 C10 1_555 1_555
C11 C9 1_555 1_555
N1 C1 1_555 1_555
O1 C9 1_555 1_555
O2 C11 1_555 1_555
C5 C6 1_555 1_555
C7 N1 1_555 1_555
C8 C10 1_555 1_555
C11 N1 1_555 1_555

#END
