
#######################################################################
#
#                 Cambridge Crystallographic Data Centre
#                                CCDC 
#
#######################################################################
#
# If this CIF has been generated from an entry in the Cambridge 
# Structural Database, then it will include bibliographic, chemical, 
# crystal, experimental, refinement or atomic coordinate data resulting 
# from the CCDC's data processing and validation procedures.
#
#######################################################################

data_NUHKIM
_chemical_name_common            
(E)-6-((2-(4-(trifluoromethyl)phenyl)hydrazono)methyl)quinoxaline
_chemical_formula_moiety         'C16 H11 F3 N4'
_chemical_name_systematic        
(E)-6-((4-(trifluoromethyl)phenyl)carbonohydrazonoyl)quinoxaline
_symmetry_cell_setting           monoclinic
_symmetry_space_group_name_H-M   'P 21/c'
_symmetry_Int_Tables_number      14
_space_group_name_Hall           '-P 2ybc'
loop_
_symmetry_equiv_pos_site_id
_symmetry_equiv_pos_as_xyz
1 x,y,z
2 -x,1/2+y,1/2-z
3 -x,-y,-z
4 x,1/2-y,1/2+z
_cell_length_a                   15.322(4)
_cell_length_b                   8.462(2)
_cell_length_c                   11.824(3)
_cell_angle_alpha                90
_cell_angle_beta                 106.013(9)
_cell_angle_gamma                90
_cell_volume                     1473.55
_exptl_crystal_colour            'light yellow'
_chemical_melting_point          '509-510 K'
_cell_formula_units_Z            4
_exptl_crystal_recrystallization_method methanol
loop_
_atom_site_label
_atom_site_type_symbol
_atom_site_fract_x
_atom_site_fract_y
_atom_site_fract_z
C1 C 0.2210(3) 0.6304(5) -0.0083(4)
H1 H 0.1838 0.6967 0.0207
C2 C 0.2001(3) 0.6061(6) -0.1299(4)
H2 H 0.1495 0.6567 -0.1781
C3 C 0.3211(2) 0.4437(5) -0.1039(3)
C4 C 0.3426(2) 0.4671(4) 0.0188(3)
C5 C 0.4189(2) 0.3909(4) 0.0928(3)
H3 H 0.4332 0.4065 0.1737
C6 C 0.4723(2) 0.2944(4) 0.0473(3)
C7 C 0.4499(3) 0.2717(5) -0.0756(3)
H4 H 0.4859 0.2060 -0.1071
C8 C 0.3774(3) 0.3435(5) -0.1480(3)
H5 H 0.3642 0.3266 -0.2287
C9 C 0.5515(2) 0.2193(5) 0.1263(3)
H6 H 0.5622 0.2312 0.2072
C10 C 0.7461(3) -0.0040(4) 0.1303(3)
C11 C 0.8210(3) -0.0577(6) 0.2163(3)
H7 H 0.8243 -0.0422 0.2952
C12 C 0.8901(3) -0.1332(6) 0.1864(3)
H8 H 0.9395 -0.1704 0.2452
C13 C 0.8875(3) -0.1549(5) 0.0700(3)
C14 C 0.8131(3) -0.1021(5) -0.0154(3)
H9 H 0.8106 -0.1170 -0.0942
C15 C 0.7424(3) -0.0279(5) 0.0131(3)
H10 H 0.6923 0.0063 -0.0459
C16 C 0.9629(3) -0.2363(7) 0.0407(5)
F1 F 0.9792(3) -0.1854(6) -0.0580(4)
F2 F 1.0382(2) -0.2295(8) 0.1136(3)
F3 F 0.9447(3) -0.3804(5) 0.0066(6)
N1 N 0.2907(2) 0.5640(4) 0.0665(3)
N2 N 0.2482(2) 0.5159(5) -0.1781(3)
N3 N 0.6066(2) 0.1369(4) 0.0861(3)
N4 N 0.6788(2) 0.0732(4) 0.1659(3)
H11 H 0.6828 0.0808 0.2397
loop_
_geom_bond_atom_site_label_1
_geom_bond_atom_site_label_2
_geom_bond_site_symmetry_1
_geom_bond_site_symmetry_2
C1 H1 1_555 1_555
C2 C1 1_555 1_555
H2 C2 1_555 1_555
C3 C4 1_555 1_555
C4 C5 1_555 1_555
C5 H3 1_555 1_555
C6 C5 1_555 1_555
C7 C6 1_555 1_555
H4 C7 1_555 1_555
C8 C3 1_555 1_555
H5 C8 1_555 1_555
C9 C6 1_555 1_555
H6 C9 1_555 1_555
C10 C11 1_555 1_555
C11 H7 1_555 1_555
C12 C11 1_555 1_555
H8 C12 1_555 1_555
C13 C12 1_555 1_555
C14 C13 1_555 1_555
H9 C14 1_555 1_555
C15 C10 1_555 1_555
H10 C15 1_555 1_555
C16 C13 1_555 1_555
F1 C16 1_555 1_555
F2 C16 1_555 1_555
F3 C16 1_555 1_555
N1 C1 1_555 1_555
N2 C2 1_555 1_555
N3 C9 1_555 1_555
N4 C10 1_555 1_555
H11 N4 1_555 1_555
C3 N2 1_555 1_555
C4 N1 1_555 1_555
C7 C8 1_555 1_555
C14 C15 1_555 1_555
N3 N4 1_555 1_555

#END
