
#######################################################################
#
#                 Cambridge Crystallographic Data Centre
#                                CCDC 
#
#######################################################################
#
# If this CIF has been generated from an entry in the Cambridge 
# Structural Database, then it will include bibliographic, chemical, 
# crystal, experimental, refinement or atomic coordinate data resulting 
# from the CCDC's data processing and validation procedures.
#
#######################################################################

data_NUHLIN
_chemical_formula_moiety         'C6 H1 N12 O3 1-,H3 O1 1+,3(H2 O1)'
_chemical_name_systematic        
'oxonium 5-(4-((4-(1H-tetrazol-5-yl)-1,2,5-oxadiazol-3-yl)oxy)-1,2,5-oxadiazol-3-yl)tetrazol-1-ide trihydrate'
_symmetry_cell_setting           monoclinic
_symmetry_space_group_name_H-M   'P 21/c'
_symmetry_Int_Tables_number      14
_space_group_name_Hall           '-P 2ybc'
loop_
_symmetry_equiv_pos_site_id
_symmetry_equiv_pos_as_xyz
1 x,y,z
2 -x,1/2+y,1/2-z
3 -x,-y,-z
4 x,1/2-y,1/2+z
_cell_length_a                   9.8802(11)
_cell_length_b                   8.9315(10)
_cell_length_c                   16.7215(19)
_cell_angle_alpha                90
_cell_angle_beta                 91.396(2)
_cell_angle_gamma                90
_cell_volume                     1475.15
_cell_formula_units_Z            4
loop_
_atom_site_label
_atom_site_type_symbol
_atom_site_fract_x
_atom_site_fract_y
_atom_site_fract_z
C1 C 0.97425(16) 0.67562(18) 0.09459(9)
C2 C 1.05742(15) 0.76005(19) 0.14782(9)
C3 C 1.06360(15) 0.92121(19) 0.15537(9)
C4 C 0.78771(15) 0.68372(17) 0.00287(9)
C5 C 0.68650(14) 0.77338(17) -0.03491(9)
C6 C 0.67932(14) 0.93573(17) -0.03616(9)
O1 O 0.89747(12) 0.74656(12) 0.03903(7)
O2 O 1.08394(13) 0.52604(16) 0.16856(8)
O3 O 0.64179(13) 0.53996(14) -0.04829(9)
N1 N 0.59276(13) 1.01565(16) -0.08094(8)
N2 N 0.62041(15) 1.15846(16) -0.06185(8)
N3 N 0.71973(16) 1.16320(15) -0.00802(9)
N4 N 0.75952(13) 1.02274(15) 0.00935(8)
N5 N 0.98266(14) 1.01707(15) 0.11564(8)
N6 N 1.01663(16) 1.15608(16) 0.13782(9)
N7 N 1.11672(17) 1.14272(18) 0.18968(10)
N8 N 1.14815(15) 0.99693(19) 0.20221(9)
N9 N 1.12550(16) 0.66677(19) 0.19268(10)
N10 N 0.98718(16) 0.53353(17) 0.10641(9)
N11 N 0.76268(15) 0.54269(16) -0.00447(9)
N12 N 0.59697(16) 0.68328(18) -0.06648(10)
H1 H 0.906(3) 1.004(3) 0.0784(16)
O4 O 0.74912(15) 0.82730(17) 0.19233(10)
H2 H 0.707(3) 0.915(3) 0.2005(15)
H3 H 0.771(3) 0.806(3) 0.2353(17)
O5 O 0.55166(16) 0.62404(16) 0.15261(9)
H4 H 0.616(3) 0.691(4) 0.1681(18)
H5 H 0.493(3) 0.665(3) 0.1239(17)
O6 O 0.70374(17) 0.34473(18) 0.14611(10)
H6 H 0.660(3) 0.233(4) 0.1694(19)
H7 H 0.636(3) 0.438(3) 0.1376(16)
H8 H 0.789(4) 0.383(4) 0.182(2)
O7 O 0.58702(14) 0.08077(15) 0.20413(9)
H9 H 0.530(3) 0.060(3) 0.1710(18)
H10 H 0.543(3) 0.088(3) 0.2490(18)
loop_
_geom_bond_atom_site_label_1
_geom_bond_atom_site_label_2
_geom_bond_site_symmetry_1
_geom_bond_site_symmetry_2
C1 C2 1_555 1_555
C2 C3 1_555 1_555
C3 N5 1_555 1_555
C4 C5 1_555 1_555
C5 C6 1_555 1_555
C6 N1 1_555 1_555
O1 C1 1_555 1_555
O2 N9 1_555 1_555
O3 N11 1_555 1_555
N1 N2 1_555 1_555
N2 N3 1_555 1_555
N3 N4 1_555 1_555
N4 C6 1_555 1_555
N5 N6 1_555 1_555
N6 N7 1_555 1_555
N7 N8 1_555 1_555
N8 C3 1_555 1_555
N9 C2 1_555 1_555
N10 C1 1_555 1_555
N11 C4 1_555 1_555
N12 C5 1_555 1_555
H1 N5 1_555 1_555
O4 H2 1_555 1_555
H3 O4 1_555 1_555
O5 H4 1_555 1_555
H5 O5 1_555 1_555
O6 H6 1_555 1_555
H7 O6 1_555 1_555
H8 O6 1_555 1_555
O7 H9 1_555 1_555
H10 O7 1_555 1_555
C4 O1 1_555 1_555
O2 N10 1_555 1_555
O3 N12 1_555 1_555

#END
