
#######################################################################
#
#                 Cambridge Crystallographic Data Centre
#                                CCDC 
#
#######################################################################
#
# If this CIF has been generated from an entry in the Cambridge 
# Structural Database, then it will include bibliographic, chemical, 
# crystal, experimental, refinement or atomic coordinate data resulting 
# from the CCDC's data processing and validation procedures.
#
#######################################################################

data_NUHMEI
_chemical_formula_moiety         'C20 H14 N4,C8 H6 O4'
_chemical_name_systematic        
'1,3-bis((2-Aminopyrid-6-yl)ethynyl)benzene isophthalic acid'
_symmetry_cell_setting           triclinic
_symmetry_space_group_name_H-M   'P -1'
_symmetry_Int_Tables_number      2
_space_group_name_Hall           '-P 1'
loop_
_symmetry_equiv_pos_site_id
_symmetry_equiv_pos_as_xyz
1 x,y,z
2 -x,-y,-z
_cell_length_a                   7.6156(10)
_cell_length_b                   11.493(2)
_cell_length_c                   14.462(2)
_cell_angle_alpha                108.586(3)
_cell_angle_beta                 96.039(3)
_cell_angle_gamma                101.298(3)
_cell_volume                     1157.24
_exptl_crystal_colour            colorless
_exptl_crystal_description       columnar
_cell_formula_units_Z            2
loop_
_atom_site_label
_atom_site_type_symbol
_atom_site_fract_x
_atom_site_fract_y
_atom_site_fract_z
N1 N -0.8799(9) 0.3056(7) 0.2718(6)
N2 N -1.0525(9) 0.4012(7) 0.3800(6)
H1 H -0.9667(9) 0.4694(7) 0.4000(6)
H2 H -1.1497(9) 0.3993(7) 0.4053(6)
N3 N 0.3625(8) 0.7217(6) 0.2549(5)
N4 N 0.5229(8) 0.9156(6) 0.3649(5)
H3 H 0.4258(8) 0.9244(6) 0.3890(5)
H4 H 0.6217(8) 0.9744(6) 0.3890(5)
C1 C -1.0346(12) 0.2986(9) 0.3096(7)
C2 C -1.1738(12) 0.1878(10) 0.2747(7)
H5 H -1.2778(12) 0.1839(10) 0.3032(7)
C3 C -1.1584(12) 0.0869(9) 0.2003(8)
H6 H -1.2511(12) 0.0131(9) 0.1776(8)
C4 C -1.0014(12) 0.0931(8) 0.1567(6)
H7 H -0.9888(12) 0.0247(8) 0.1045(6)
C5 C -0.8650(13) 0.2060(9) 0.1950(7)
C6 C -0.7028(13) 0.2194(9) 0.1536(8)
C7 C -0.5726(13) 0.2302(8) 0.1170(7)
C8 C -0.4174(6) 0.2381(5) 0.0674(4)
C9 C -0.2638(7) 0.3379(4) 0.1091(3)
H8 H -0.2604(11) 0.4007(5) 0.1692(4)
C10 C -0.1154(6) 0.3438(4) 0.0610(4)
C11 C -0.1205(7) 0.2500(5) -0.0288(4)
H9 H -0.0212(9) 0.2540(8) -0.0610(5)
C12 C -0.2741(9) 0.1502(4) -0.0705(3)
H10 H -0.2775(13) 0.0874(6) -0.1306(4)
C13 C -0.4225(7) 0.1443(4) -0.0224(4)
H11 H -0.5253(8) 0.0775(5) -0.0503(6)
C14 C 0.0468(12) 0.4440(7) 0.1049(6)
C15 C 0.1839(12) 0.5254(7) 0.1404(6)
C16 C 0.3573(11) 0.6164(7) 0.1775(6)
C17 C 0.5072(11) 0.5934(8) 0.1353(6)
H12 H 0.4990(11) 0.5190(8) 0.0829(6)
C18 C 0.6693(12) 0.6841(8) 0.1729(6)
H13 H 0.7733(12) 0.6703(8) 0.1470(6)
C19 C 0.6774(11) 0.7935(7) 0.2475(6)
H14 H 0.7847(11) 0.8570(7) 0.2709(6)
C20 C 0.5201(11) 0.8093(7) 0.2889(6)
O1 O 0.0600(6) 0.7078(5) 0.3356(4)
H15 H 0.1576(6) 0.7185(5) 0.3165(4)
O2 O 0.2203(7) 0.8664(5) 0.4703(4)
O3 O -0.5648(7) 0.4898(5) 0.3470(5)
H16 H -0.6628(7) 0.4372(5) 0.3274(5)
O4 O -0.7028(7) 0.5794(5) 0.4705(5)
C21 C 0.0769(11) 0.7879(7) 0.4263(7)
C22 C -0.0898(5) 0.7785(5) 0.4696(3)
C23 C -0.0892(5) 0.8774(4) 0.5556(3)
H17 H 0.0142(7) 0.9436(5) 0.5837(5)
C24 C -0.2430(7) 0.8772(4) 0.5995(3)
H18 H -0.2425(10) 0.9433(5) 0.6570(4)
C25 C -0.3974(5) 0.7782(5) 0.5575(4)
H19 H -0.5004(7) 0.7781(7) 0.5869(5)
C26 C -0.3981(5) 0.6794(4) 0.4715(4)
C27 C -0.2443(7) 0.6795(4) 0.4276(3)
H20 H -0.2447(10) 0.6134(5) 0.3701(4)
C28 C -0.5715(12) 0.5783(8) 0.4296(7)
loop_
_geom_bond_atom_site_label_1
_geom_bond_atom_site_label_2
_geom_bond_site_symmetry_1
_geom_bond_site_symmetry_2
N1 C1 1_555 1_555
N2 H1 1_555 1_555
H2 N2 1_555 1_555
N3 C16 1_555 1_555
N4 H3 1_555 1_555
H4 N4 1_555 1_555
C1 N2 1_555 1_555
C2 C1 1_555 1_555
H5 C2 1_555 1_555
C3 C2 1_555 1_555
H6 C3 1_555 1_555
C4 C3 1_555 1_555
H7 C4 1_555 1_555
C5 N1 1_555 1_555
C6 C5 1_555 1_555
C7 C6 1_555 1_555
C8 C7 1_555 1_555
C9 C8 1_555 1_555
H8 C9 1_555 1_555
C10 C9 1_555 1_555
C11 C10 1_555 1_555
H9 C11 1_555 1_555
C12 C11 1_555 1_555
H10 C12 1_555 1_555
C13 C8 1_555 1_555
H11 C13 1_555 1_555
C14 C10 1_555 1_555
C15 C14 1_555 1_555
C16 C15 1_555 1_555
C17 C16 1_555 1_555
H12 C17 1_555 1_555
C18 C17 1_555 1_555
H13 C18 1_555 1_555
C19 C18 1_555 1_555
H14 C19 1_555 1_555
C20 N3 1_555 1_555
O1 H15 1_555 1_555
O2 C21 1_555 1_555
O3 H16 1_555 1_555
O4 C28 1_555 1_555
C21 O1 1_555 1_555
C22 C21 1_555 1_555
C23 C22 1_555 1_555
H17 C23 1_555 1_555
C24 C23 1_555 1_555
H18 C24 1_555 1_555
C25 C24 1_555 1_555
H19 C25 1_555 1_555
C26 C25 1_555 1_555
C27 C22 1_555 1_555
H20 C27 1_555 1_555
C28 O3 1_555 1_555
N4 C20 1_555 1_555
C4 C5 1_555 1_555
C12 C13 1_555 1_555
C19 C20 1_555 1_555
C26 C27 1_555 1_555
C26 C28 1_555 1_555

#END
