
#######################################################################
#
#                 Cambridge Crystallographic Data Centre
#                                CCDC 
#
#######################################################################
#
# If this CIF has been generated from an entry in the Cambridge 
# Structural Database, then it will include bibliographic, chemical, 
# crystal, experimental, refinement or atomic coordinate data resulting 
# from the CCDC's data processing and validation procedures.
#
#######################################################################

data_NUHVET
_chemical_formula_moiety         'C40 H28'
_chemical_name_systematic        
9,10-bis(diphenylmethylene)-9,10-dihydroanthracene
_symmetry_cell_setting           monoclinic
_symmetry_space_group_name_H-M   'P 21/c'
_symmetry_Int_Tables_number      14
_space_group_name_Hall           '-P 2ybc'
loop_
_symmetry_equiv_pos_site_id
_symmetry_equiv_pos_as_xyz
1 x,y,z
2 -x,1/2+y,1/2-z
3 -x,-y,-z
4 x,1/2-y,1/2+z
_cell_length_a                   9.04620(10)
_cell_length_b                   22.0677(2)
_cell_length_c                   14.11020(10)
_cell_angle_alpha                90
_cell_angle_beta                 91.1340(10)
_cell_angle_gamma                90
_cell_volume                     2816.25
_exptl_crystal_colour            colorless
_exptl_crystal_description       block
_cell_formula_units_Z            4
loop_
_atom_site_label
_atom_site_type_symbol
_atom_site_fract_x
_atom_site_fract_y
_atom_site_fract_z
C1 C 0.49689(13) 0.26465(5) 0.50838(8)
C2 C 0.60614(13) 0.23020(5) 0.45215(8)
C3 C 0.69526(14) 0.25638(6) 0.38363(8)
H1 H 0.6887 0.2987 0.3716
C4 C 0.79282(15) 0.22147(6) 0.33312(9)
H2 H 0.8546 0.2400 0.2878
C5 C 0.80085(15) 0.15956(6) 0.34838(9)
H3 H 0.8669 0.1355 0.3128
C6 C 0.71266(14) 0.13277(6) 0.41548(8)
H4 H 0.7180 0.0902 0.4252
C7 C 0.61605(12) 0.16734(5) 0.46913(8)
C8 C 0.51520(12) 0.14100(5) 0.54076(8)
C9 C 0.36462(12) 0.16773(5) 0.53312(8)
C10 C 0.23495(13) 0.13386(5) 0.53692(8)
H5 H 0.2404 0.0914 0.5474
C11 C 0.09866(14) 0.16127(6) 0.52571(9)
H6 H 0.0111 0.1376 0.5273
C12 C 0.08956(14) 0.22343(6) 0.51207(9)
H7 H -0.0043 0.2424 0.5048
C13 C 0.21717(13) 0.25779(6) 0.50906(8)
H8 H 0.2103 0.3004 0.5003
C14 C 0.35582(13) 0.23069(5) 0.51872(8)
C15 C 0.52349(13) 0.31882(5) 0.54992(8)
C16 C 0.42421(13) 0.34377(5) 0.62380(8)
C17 C 0.39432(16) 0.30774(6) 0.70229(9)
H9 H 0.4363 0.2684 0.7066
C18 C 0.30485(18) 0.32811(7) 0.77390(10)
H10 H 0.2849 0.3027 0.8264
C19 C 0.24475(16) 0.38535(7) 0.76900(10)
H11 H 0.1817 0.3993 0.8174
C20 C 0.27652(15) 0.42231(6) 0.69360(10)
H12 H 0.2369 0.4622 0.6910
C21 C 0.36592(14) 0.40202(6) 0.62116(9)
H13 H 0.3873 0.4281 0.5696
C22 C 0.66508(13) 0.35292(5) 0.53769(8)
C23 C 0.78849(14) 0.33662(6) 0.59134(9)
H14 H 0.7817 0.3039 0.6347
C24 C 0.92139(15) 0.36690(7) 0.58322(11)
H15 H 1.0047 0.3551 0.6209
C25 C 0.93251(17) 0.41433(7) 0.52021(11)
H16 H 1.0237 0.4352 0.5138
C26 C 0.81053(18) 0.43132(7) 0.46651(11)
H17 H 0.8182 0.4640 0.4230
C27 C 0.67690(16) 0.40138(6) 0.47524(10)
H18 H 0.5932 0.4140 0.4385
C28 C 0.55622(13) 0.10136(5) 0.60933(8)
C29 C 0.45791(12) 0.08141(5) 0.68772(8)
C30 C 0.39065(14) 0.12321(6) 0.74698(9)
H19 H 0.4003 0.1653 0.7345
C31 C 0.30992(16) 0.10423(8) 0.82391(10)
H20 H 0.2651 0.1334 0.8637
C32 C 0.29419(16) 0.04340(8) 0.84307(11)
H21 H 0.2384 0.0306 0.8957
C33 C 0.35988(15) 0.00130(7) 0.78542(12)
H22 H 0.3489 -0.0407 0.7981
C34 C 0.44219(14) 0.02013(6) 0.70876(11)
H23 H 0.4885 -0.0093 0.6701
C35 C 0.71112(13) 0.07879(5) 0.62444(8)
C36 C 0.80016(14) 0.10767(7) 0.69174(10)
H24 H 0.7649 0.1429 0.7227
C37 C 0.93994(16) 0.08564(8) 0.71414(11)
H25 H 1.0000 0.1059 0.7602
C38 C 0.99226(15) 0.03449(8) 0.66994(11)
H26 H 1.0882 0.0195 0.6853
C39 C 0.90505(15) 0.00542(6) 0.60376(10)
H27 H 0.9410 -0.0298 0.5730
C40 C 0.76518(14) 0.02691(6) 0.58144(9)
H28 H 0.7053 0.0060 0.5361
loop_
_geom_bond_atom_site_label_1
_geom_bond_atom_site_label_2
_geom_bond_site_symmetry_1
_geom_bond_site_symmetry_2
C1 C2 1_555 1_555
C2 C3 1_555 1_555
C3 H1 1_555 1_555
C4 C3 1_555 1_555
H2 C4 1_555 1_555
C5 C4 1_555 1_555
H3 C5 1_555 1_555
C6 C5 1_555 1_555
H4 C6 1_555 1_555
C7 C2 1_555 1_555
C8 C7 1_555 1_555
C9 C8 1_555 1_555
C10 C9 1_555 1_555
H5 C10 1_555 1_555
C11 C10 1_555 1_555
H6 C11 1_555 1_555
C12 C11 1_555 1_555
H7 C12 1_555 1_555
C13 C12 1_555 1_555
H8 C13 1_555 1_555
C14 C1 1_555 1_555
C15 C1 1_555 1_555
C16 C15 1_555 1_555
C17 C16 1_555 1_555
H9 C17 1_555 1_555
C18 C17 1_555 1_555
H10 C18 1_555 1_555
C19 C18 1_555 1_555
H11 C19 1_555 1_555
C20 C19 1_555 1_555
H12 C20 1_555 1_555
C21 C16 1_555 1_555
H13 C21 1_555 1_555
C22 C15 1_555 1_555
C23 C22 1_555 1_555
H14 C23 1_555 1_555
C24 C23 1_555 1_555
H15 C24 1_555 1_555
C25 C24 1_555 1_555
H16 C25 1_555 1_555
C26 C25 1_555 1_555
H17 C26 1_555 1_555
C27 C22 1_555 1_555
H18 C27 1_555 1_555
C28 C8 1_555 1_555
C29 C28 1_555 1_555
C30 C29 1_555 1_555
H19 C30 1_555 1_555
C31 C30 1_555 1_555
H20 C31 1_555 1_555
C32 C31 1_555 1_555
H21 C32 1_555 1_555
C33 C32 1_555 1_555
H22 C33 1_555 1_555
C34 C29 1_555 1_555
H23 C34 1_555 1_555
C35 C28 1_555 1_555
C36 C35 1_555 1_555
H24 C36 1_555 1_555
C37 C36 1_555 1_555
H25 C37 1_555 1_555
C38 C37 1_555 1_555
H26 C38 1_555 1_555
C39 C38 1_555 1_555
H27 C39 1_555 1_555
C40 C35 1_555 1_555
H28 C40 1_555 1_555
C6 C7 1_555 1_555
C9 C14 1_555 1_555
C13 C14 1_555 1_555
C20 C21 1_555 1_555
C26 C27 1_555 1_555
C33 C34 1_555 1_555
C39 C40 1_555 1_555

#END
