
#######################################################################
#
#                 Cambridge Crystallographic Data Centre
#                                CCDC 
#
#######################################################################
#
# If this CIF has been generated from an entry in the Cambridge 
# Structural Database, then it will include bibliographic, chemical, 
# crystal, experimental, refinement or atomic coordinate data resulting 
# from the CCDC's data processing and validation procedures.
#
#######################################################################

data_NUHVUJ
_chemical_formula_moiety         'C48 H32'
_chemical_name_systematic        
6,13-bis(diphenylmethylene)-6,13-dihydropentacene
_symmetry_cell_setting           monoclinic
_symmetry_space_group_name_H-M   'C 2/c'
_symmetry_Int_Tables_number      15
_space_group_name_Hall           '-C 2yn'
loop_
_symmetry_equiv_pos_site_id
_symmetry_equiv_pos_as_xyz
1 x,y,z
2 -x,y,1/2-z
3 1/2+x,1/2+y,z
4 1/2-x,1/2+y,1/2-z
5 -x,-y,-z
6 x,-y,1/2+z
7 1/2-x,1/2-y,-z
8 1/2+x,1/2-y,1/2+z
_cell_length_a                   28.4000(7)
_cell_length_b                   12.0889(2)
_cell_length_c                   20.7374(6)
_cell_angle_alpha                90
_cell_angle_beta                 110.271(3)
_cell_angle_gamma                90
_cell_volume                     6678.7
_exptl_crystal_colour            colorless
_exptl_crystal_description       block
_cell_formula_units_Z            8
loop_
_atom_site_label
_atom_site_type_symbol
_atom_site_fract_x
_atom_site_fract_y
_atom_site_fract_z
C1 C 0.16420(4) 0.69342(8) 0.52494(5)
C2 C 0.15747(4) 0.80709(8) 0.54856(5)
C3 C 0.17490(4) 0.90138(8) 0.52747(5)
H1 H 0.1919 0.8956 0.4954
C4 C 0.16807(4) 1.00703(9) 0.55245(5)
C5 C 0.18499(5) 1.10564(9) 0.53031(6)
H2 H 0.2016 1.1015 0.4978
C6 C 0.17767(5) 1.20626(10) 0.55517(7)
H3 H 0.1891 1.2715 0.5397
C7 C 0.15325(5) 1.21378(9) 0.60363(7)
H4 H 0.1485 1.2841 0.6210
C8 C 0.13627(5) 1.12068(9) 0.62591(6)
H5 H 0.1197 1.1270 0.6585
C9 C 0.14307(4) 1.01461(9) 0.60096(5)
C10 C 0.12556(4) 0.91643(8) 0.62247(5)
H6 H 0.1090 0.9211 0.6551
C11 C 0.13200(4) 0.81469(8) 0.59722(5)
C12 C 0.11650(4) 0.70838(8) 0.62065(5)
C13 C 0.15580(4) 0.62133(8) 0.63250(5)
C14 C 0.17016(4) 0.55307(8) 0.68873(5)
H7 H 0.1541 0.5594 0.7218
C15 C 0.20843(4) 0.47343(8) 0.69855(5)
C16 C 0.22175(4) 0.39898(9) 0.75510(6)
H8 H 0.2045 0.4021 0.7870
C17 C 0.25896(5) 0.32325(10) 0.76397(6)
H9 H 0.2671 0.2728 0.8013
C18 C 0.28558(5) 0.31963(10) 0.71763(6)
H10 H 0.3124 0.2686 0.7252
C19 C 0.27317(4) 0.38859(9) 0.66225(6)
H11 H 0.2912 0.3845 0.6313
C20 C 0.23356(4) 0.46657(8) 0.65027(5)
C21 C 0.21846(4) 0.53812(8) 0.59262(5)
H12 H 0.2350 0.5341 0.5600
C22 C 0.18025(4) 0.61331(8) 0.58302(5)
C23 C 0.15352(4) 0.66434(8) 0.45879(5)
C24 C 0.15119(4) 0.54637(8) 0.43563(5)
C25 C 0.11050(5) 0.48204(10) 0.43504(7)
H13 H 0.0858 0.5123 0.4513
C26 C 0.10554(6) 0.37401(11) 0.41099(8)
H14 H 0.0777 0.3306 0.4111
C27 C 0.14111(6) 0.32970(10) 0.38685(7)
H15 H 0.1376 0.2560 0.3700
C28 C 0.18152(5) 0.39239(11) 0.38727(7)
H16 H 0.2062 0.3615 0.3713
C29 C 0.18646(4) 0.50087(10) 0.41098(6)
H17 H 0.2142 0.5441 0.4103
C30 C 0.13573(4) 0.74566(8) 0.40078(5)
C31 C 0.08590(5) 0.77969(10) 0.37758(6)
H18 H 0.0637 0.7520 0.3990
C32 C 0.06840(5) 0.85367(11) 0.32343(7)
H19 H 0.0343 0.8768 0.3081
C33 C 0.10036(6) 0.89387(10) 0.29165(7)
H20 H 0.0884 0.9452 0.2549
C34 C 0.14973(6) 0.85931(11) 0.31351(7)
H21 H 0.1717 0.8864 0.2914
C35 C 0.16739(5) 0.78523(10) 0.36761(6)
H22 H 0.2013 0.7613 0.3822
C36 C 0.07199(4) 0.68977(8) 0.62858(5)
C37 C 0.05885(4) 0.57639(9) 0.64656(6)
C38 C 0.04751(5) 0.49469(10) 0.59664(7)
H23 H 0.0453 0.5128 0.5511
C39 C 0.03933(6) 0.38641(12) 0.61269(10)
H24 H 0.0317 0.3308 0.5782
C40 C 0.04218(6) 0.35963(14) 0.67824(11)
H25 H 0.0372 0.2853 0.6893
C41 C 0.05227(6) 0.44059(14) 0.72807(9)
H26 H 0.0539 0.4220 0.7733
C42 C 0.06005(5) 0.54890(12) 0.71233(7)
H27 H 0.0662 0.6047 0.7466
C43 C 0.03099(4) 0.77368(9) 0.61310(6)
C44 C 0.01078(5) 0.81912(10) 0.54762(7)
H28 H 0.0241 0.7991 0.5131
C45 C -0.02878(6) 0.89352(12) 0.53257(8)
H29 H -0.0427 0.9232 0.4875
C46 C -0.04797(5) 0.92468(12) 0.58198(9)
H30 H -0.0748 0.9763 0.5714
C47 C -0.02821(6) 0.88079(11) 0.64691(9)
H31 H -0.0414 0.9023 0.6814
C48 C 0.01084(5) 0.80521(10) 0.66239(7)
H32 H 0.0240 0.7746 0.7073
loop_
_geom_bond_atom_site_label_1
_geom_bond_atom_site_label_2
_geom_bond_site_symmetry_1
_geom_bond_site_symmetry_2
C1 C2 1_555 1_555
C2 C3 1_555 1_555
C3 H1 1_555 1_555
C4 C3 1_555 1_555
C5 C4 1_555 1_555
H2 C5 1_555 1_555
C6 C5 1_555 1_555
H3 C6 1_555 1_555
C7 C6 1_555 1_555
H4 C7 1_555 1_555
C8 C7 1_555 1_555
H5 C8 1_555 1_555
C9 C4 1_555 1_555
C10 C9 1_555 1_555
H6 C10 1_555 1_555
C11 C2 1_555 1_555
C12 C11 1_555 1_555
C13 C12 1_555 1_555
C14 C13 1_555 1_555
H7 C14 1_555 1_555
C15 C14 1_555 1_555
C16 C15 1_555 1_555
H8 C16 1_555 1_555
C17 C16 1_555 1_555
H9 C17 1_555 1_555
C18 C17 1_555 1_555
H10 C18 1_555 1_555
C19 C18 1_555 1_555
H11 C19 1_555 1_555
C20 C15 1_555 1_555
C21 C20 1_555 1_555
H12 C21 1_555 1_555
C22 C1 1_555 1_555
C23 C1 1_555 1_555
C24 C23 1_555 1_555
C25 C24 1_555 1_555
H13 C25 1_555 1_555
C26 C25 1_555 1_555
H14 C26 1_555 1_555
C27 C26 1_555 1_555
H15 C27 1_555 1_555
C28 C27 1_555 1_555
H16 C28 1_555 1_555
C29 C24 1_555 1_555
H17 C29 1_555 1_555
C30 C23 1_555 1_555
C31 C30 1_555 1_555
H18 C31 1_555 1_555
C32 C31 1_555 1_555
H19 C32 1_555 1_555
C33 C32 1_555 1_555
H20 C33 1_555 1_555
C34 C33 1_555 1_555
H21 C34 1_555 1_555
C35 C30 1_555 1_555
H22 C35 1_555 1_555
C36 C12 1_555 1_555
C37 C36 1_555 1_555
C38 C37 1_555 1_555
H23 C38 1_555 1_555
C39 C38 1_555 1_555
H24 C39 1_555 1_555
C40 C39 1_555 1_555
H25 C40 1_555 1_555
C41 C40 1_555 1_555
H26 C41 1_555 1_555
C42 C37 1_555 1_555
H27 C42 1_555 1_555
C43 C36 1_555 1_555
C44 C43 1_555 1_555
H28 C44 1_555 1_555
C45 C44 1_555 1_555
H29 C45 1_555 1_555
C46 C45 1_555 1_555
H30 C46 1_555 1_555
C47 C46 1_555 1_555
H31 C47 1_555 1_555
C48 C43 1_555 1_555
H32 C48 1_555 1_555
C8 C9 1_555 1_555
C10 C11 1_555 1_555
C13 C22 1_555 1_555
C19 C20 1_555 1_555
C21 C22 1_555 1_555
C28 C29 1_555 1_555
C34 C35 1_555 1_555
C41 C42 1_555 1_555
C47 C48 1_555 1_555

#END
