
#######################################################################
#
#                 Cambridge Crystallographic Data Centre
#                                CCDC 
#
#######################################################################
#
# If this CIF has been generated from an entry in the Cambridge 
# Structural Database, then it will include bibliographic, chemical, 
# crystal, experimental, refinement or atomic coordinate data resulting 
# from the CCDC's data processing and validation procedures.
#
#######################################################################

data_NUHXET
_chemical_formula_moiety         'C10 H16 Br4'
_chemical_name_systematic        (r-1,t-4)-1,7,8,9-Tetrabromo-p-menthane
_symmetry_cell_setting           triclinic
_symmetry_space_group_name_H-M   'P -1'
_symmetry_Int_Tables_number      2
_space_group_name_Hall           '-P 1'
loop_
_symmetry_equiv_pos_site_id
_symmetry_equiv_pos_as_xyz
1 x,y,z
2 -x,-y,-z
_cell_length_a                   6.966(3)
_cell_length_b                   8.377(3)
_cell_length_c                   11.780(5)
_cell_angle_alpha                77.60(3)
_cell_angle_beta                 87.61(5)
_cell_angle_gamma                88.15(2)
_cell_volume                     670.601
_exptl_crystal_colour            colorless
_exptl_crystal_description       'irregular block'
_chemical_melting_point          75-76deg.C
_cell_formula_units_Z            2
_exptl_crystal_recrystallization_method ethanol/water
loop_
_atom_site_label
_atom_site_type_symbol
_atom_site_fract_x
_atom_site_fract_y
_atom_site_fract_z
Br1 Br 0.2917(2) 0.1955(1) 0.9182(1)
Br2 Br 0.5658(2) 0.1714(1) 0.6582(1)
Br3 Br 0.1812(4) -0.4069(3) 0.6071(2)
C1 C -0.2026(44) -0.2721(48) 0.5934(38)
Br5 Br -0.3328(2) -0.4616(1) 0.8737(1)
C3 C 0.2720(15) 0.0250(10) 0.8264(9)
C4 C 0.2010(15) -0.1319(10) 0.9121(9)
C5 C 0.1485(15) -0.2637(11) 0.8491(10)
C6 C 0.0015(14) -0.2042(9) 0.7550(9)
C7 C 0.0722(14) -0.0485(10) 0.6698(9)
C8 C 0.1148(14) 0.0843(10) 0.7372(9)
C9 C 0.4662(15) -0.0063(11) 0.7773(10)
C10 C -0.0504(15) -0.3394(11) 0.6906(10)
C11 C -0.1147(15) -0.4957(11) 0.7716(10)
H1 H -0.150(68) -0.1774(85) 0.5383(57)
H2 H -0.3220(61) -0.240(12) 0.6301(38)
H3 H -0.229(12) -0.3581(60) 0.5518(70)
H7 H 0.3033(15) -0.1749(10) 0.9672(9)
H8 H 0.0872(15) -0.1035(10) 0.9577(9)
H9 H 0.0953(15) -0.3574(11) 0.9064(10)
H10 H 0.2664(15) -0.3029(11) 0.8127(10)
H11 H -0.1190(14) -0.1731(9) 0.7950(9)
H12 H 0.1902(14) -0.0749(10) 0.6270(9)
H13 H -0.0274(14) -0.0072(10) 0.6125(9)
H14 H -0.0043(14) 0.1125(10) 0.7782(9)
H15 H 0.1577(14) 0.1841(10) 0.6818(9)
H16 H 0.4616(15) -0.1050(11) 0.7441(10)
H17 H 0.5571(15) -0.0304(11) 0.8415(10)
H18 H -0.0058(15) -0.5445(11) 0.8198(10)
H19 H -0.1502(15) -0.5745(11) 0.7248(10)
Br4? Br -0.2538(19) -0.2707(12) 0.5877(10)
C2? C 0.1130(72) -0.4217(84) 0.6184(63)
H4? H 0.235(11) -0.429(28) 0.658(13)
H5? H 0.129(26) -0.355(17) 0.5397(96)
H6? H 0.074(17) -0.532(14) 0.614(18)
loop_
_geom_bond_atom_site_label_1
_geom_bond_atom_site_label_2
_geom_bond_site_symmetry_1
_geom_bond_site_symmetry_2
Br1 C3 1_555 1_555
Br2 C9 1_555 1_555
Br3 C10 1_555 1_555
C1 C10 1_555 1_555
Br5 C11 1_555 1_555
C3 C4 1_555 1_555
C4 C5 1_555 1_555
C5 C6 1_555 1_555
C6 C7 1_555 1_555
C7 C8 1_555 1_555
C8 C3 1_555 1_555
C9 C3 1_555 1_555
C10 C6 1_555 1_555
C11 C10 1_555 1_555
H1 C1 1_555 1_555
H2 C1 1_555 1_555
H3 C1 1_555 1_555
H7 C4 1_555 1_555
H8 C4 1_555 1_555
H9 C5 1_555 1_555
H10 C5 1_555 1_555
H11 C6 1_555 1_555
H12 C7 1_555 1_555
H13 C7 1_555 1_555
H14 C8 1_555 1_555
H15 C8 1_555 1_555
H16 C9 1_555 1_555
H17 C9 1_555 1_555
H18 C11 1_555 1_555
H19 C11 1_555 1_555

#END
