
#######################################################################
#
#                 Cambridge Crystallographic Data Centre
#                                CCDC 
#
#######################################################################
#
# If this CIF has been generated from an entry in the Cambridge 
# Structural Database, then it will include bibliographic, chemical, 
# crystal, experimental, refinement or atomic coordinate data resulting 
# from the CCDC's data processing and validation procedures.
#
#######################################################################

data_NUHXAP
_chemical_formula_moiety         'C12 H21 Br2 N1 O1'
_chemical_name_systematic        (r-1,t-4)-8-Acetamido-1,7-dibromo-p-menthane
_symmetry_cell_setting           triclinic
_symmetry_space_group_name_H-M   'P -1'
_symmetry_Int_Tables_number      2
_space_group_name_Hall           '-P 1'
loop_
_symmetry_equiv_pos_site_id
_symmetry_equiv_pos_as_xyz
1 x,y,z
2 -x,-y,-z
_cell_length_a                   9.417(4)
_cell_length_b                   10.223(5)
_cell_length_c                   15.61(2)
_cell_angle_alpha                95.30(4)
_cell_angle_beta                 90.99(4)
_cell_angle_gamma                101.11(5)
_cell_volume                     1467.36
_exptl_crystal_colour            colorless
_exptl_crystal_description       blocks
_chemical_melting_point          125-126deg.C
_cell_formula_units_Z            4
_exptl_crystal_recrystallization_method ether/petroleum
loop_
_atom_site_label
_atom_site_type_symbol
_atom_site_fract_x
_atom_site_fract_y
_atom_site_fract_z
Br1 Br -0.4202(2) 0.5783(2) 0.3271(1)
Br2 Br -0.1630(2) 0.6269(2) 0.5033(1)
O1 O -0.4824(10) -0.1224(10) 0.2483(6)
N1 N -0.2485(11) -0.0562(10) 0.2915(7)
C1 C -0.3091(15) 0.4453(14) 0.3602(9)
C2 C -0.2868(16) 0.3575(16) 0.2772(10)
C3 C -0.2224(15) 0.2337(14) 0.2952(9)
C4 C -0.3129(15) 0.1515(13) 0.3587(9)
C5 C -0.3266(15) 0.2396(13) 0.4399(10)
C6 C -0.3967(16) 0.3592(15) 0.4222(10)
C7 C -0.1583(15) 0.5226(15) 0.3932(10)
C8 C -0.2604(14) 0.0223(15) 0.3736(9)
C9 C -0.1097(15) 0.0495(15) 0.4173(10)
C10 C -0.3649(15) -0.0658(14) 0.4309(9)
C11 C -0.3519(16) -0.1206(14) 0.2360(9)
C12 C -0.3043(15) -0.1867(15) 0.1556(10)
H1 H -0.1597(11) -0.0613(10) 0.2770(7)
H3 H -0.2212(16) 0.4128(16) 0.2398(10)
H4 H -0.3812(16) 0.3267(16) 0.2456(10)
H5 H -0.2191(15) 0.1771(14) 0.2406(9)
H6 H -0.1220(15) 0.2637(14) 0.3190(9)
H7 H -0.4126(15) 0.1235(13) 0.3318(9)
H8 H -0.2293(15) 0.2735(13) 0.4673(10)
H9 H -0.3860(15) 0.1857(13) 0.4806(10)
H10 H -0.4961(16) 0.3257(15) 0.3977(10)
H11 H -0.4035(16) 0.4142(15) 0.4771(10)
H12 H -0.1174(15) 0.5834(15) 0.3502(10)
H13 H -0.0935(15) 0.4581(15) 0.3991(10)
H14 H -0.0803(39) -0.0358(15) 0.4247(48)
H15 H -0.1120(25) 0.0995(71) 0.4738(24)
H16 H -0.0404(22) 0.1021(70) 0.3816(26)
H17 H -0.3660(63) -0.0178(34) 0.4881(17)
H18 H -0.3318(48) -0.1500(35) 0.4362(41)
H19 H -0.4628(22) -0.0852(64) 0.4045(26)
H20 H -0.3104(81) -0.2822(21) 0.1615(21)
H21 H -0.2041(32) -0.1452(54) 0.1453(28)
H22 H -0.3672(55) -0.1762(69) 0.1070(12)
Br3 Br 0.0559(2) 0.6074(2) 0.1645(1)
Br4 Br 0.3366(2) 0.6166(2) 0.0073(1)
O2 O 0.0332(11) -0.0427(10) 0.2313(6)
N2 N 0.2706(11) -0.0069(10) 0.2056(7)
C13 C 0.1839(16) 0.4730(15) 0.1417(10)
C14 C 0.1064(14) 0.3693(13) 0.0704(9)
C15 C 0.1867(15) 0.2548(14) 0.0564(9)
C16 C 0.1968(16) 0.1843(15) 0.1379(9)
C17 C 0.2696(16) 0.2854(13) 0.2115(9)
C18 C 0.1925(16) 0.4063(14) 0.2251(10)
C19 C 0.3317(16) 0.5508(15) 0.1195(10)
C20 C 0.2656(14) 0.0590(14) 0.1246(9)
C21 C 0.4250(15) 0.0922(15) 0.0969(10)
C22 C 0.1786(16) -0.0465(14) 0.0559(9)
C23 C 0.1586(15) -0.0551(13) 0.2522(9)
C24 C 0.1897(15) -0.1174(14) 0.3284(9)
H2 H 0.3567(11) -0.0149(10) 0.2246(7)
H23 H 0.0061(14) 0.3347(13) 0.0869(9)
H24 H 0.1018(14) 0.4121(13) 0.0164(9)
H25 H 0.2856(15) 0.2897(14) 0.0377(9)
H26 H 0.1362(15) 0.1892(14) 0.0098(9)
H27 H 0.0950(16) 0.1524(15) 0.1549(9)
H28 H 0.3722(16) 0.3178(13) 0.1985(9)
H29 H 0.2676(16) 0.2408(13) 0.2653(9)
H30 H 0.0934(16) 0.3754(14) 0.2450(10)
H31 H 0.2460(16) 0.4727(14) 0.2703(10)
H32 H 0.4035(16) 0.4920(15) 0.1223(10)
H33 H 0.3616(16) 0.6279(15) 0.1635(10)
H34 H 0.4296(19) 0.1383(76) 0.0444(31)
H35 H 0.4617(32) 0.0090(16) 0.0859(52)
H36 H 0.4843(23) 0.1502(67) 0.1430(24)
H37 H 0.1888(69) -0.0124(35) -0.0007(11)
H38 H 0.0762(20) -0.0640(57) 0.0702(28)
H39 H 0.2159(56) -0.1297(29) 0.0549(35)
H40 H 0.2827(44) -0.1464(72) 0.3228(24)
H41 H 0.1129(47) -0.1952(48) 0.3347(29)
H42 H 0.1946(84) -0.0527(28) 0.3793(11)
loop_
_geom_bond_atom_site_label_1
_geom_bond_atom_site_label_2
_geom_bond_site_symmetry_1
_geom_bond_site_symmetry_2
Br1 C1 1_555 1_555
Br2 C7 1_555 1_555
Br3 C13 1_555 1_555
Br4 C19 1_555 1_555
O1 C11 1_555 1_555
O2 C23 1_555 1_555
N1 C8 1_555 1_555
N2 C20 1_555 1_555
C1 C2 1_555 1_555
C2 C3 1_555 1_555
C3 C4 1_555 1_555
C4 C5 1_555 1_555
C5 C6 1_555 1_555
C6 C1 1_555 1_555
C7 C1 1_555 1_555
C8 C4 1_555 1_555
C9 C8 1_555 1_555
C10 C8 1_555 1_555
C11 N1 1_555 1_555
C12 C11 1_555 1_555
C13 C14 1_555 1_555
C14 C15 1_555 1_555
C15 C16 1_555 1_555
C16 C17 1_555 1_555
C17 C18 1_555 1_555
C18 C13 1_555 1_555
C19 C13 1_555 1_555
C20 C16 1_555 1_555
C21 C20 1_555 1_555
C22 C20 1_555 1_555
C23 N2 1_555 1_555
C24 C23 1_555 1_555
H1 N1 1_555 1_555
H2 N2 1_555 1_555
H3 C2 1_555 1_555
H4 C2 1_555 1_555
H5 C3 1_555 1_555
H6 C3 1_555 1_555
H7 C4 1_555 1_555
H8 C5 1_555 1_555
H9 C5 1_555 1_555
H10 C6 1_555 1_555
H11 C6 1_555 1_555
H12 C7 1_555 1_555
H13 C7 1_555 1_555
H14 C9 1_555 1_555
H15 C9 1_555 1_555
H16 C9 1_555 1_555
H17 C10 1_555 1_555
H18 C10 1_555 1_555
H19 C10 1_555 1_555
H20 C12 1_555 1_555
H21 C12 1_555 1_555
H22 C12 1_555 1_555
H23 C14 1_555 1_555
H24 C14 1_555 1_555
H25 C15 1_555 1_555
H26 C15 1_555 1_555
H27 C16 1_555 1_555
H28 C17 1_555 1_555
H29 C17 1_555 1_555
H30 C18 1_555 1_555
H31 C18 1_555 1_555
H32 C19 1_555 1_555
H33 C19 1_555 1_555
H34 C21 1_555 1_555
H35 C21 1_555 1_555
H36 C21 1_555 1_555
H37 C22 1_555 1_555
H38 C22 1_555 1_555
H39 C22 1_555 1_555
H40 C24 1_555 1_555
H41 C24 1_555 1_555
H42 C24 1_555 1_555

#END
