
#######################################################################
#
#                 Cambridge Crystallographic Data Centre
#                                CCDC 
#
#######################################################################
#
# If this CIF has been generated from an entry in the Cambridge 
# Structural Database, then it will include bibliographic, chemical, 
# crystal, experimental, refinement or atomic coordinate data resulting 
# from the CCDC's data processing and validation procedures.
#
#######################################################################

data_NUJDOL
_chemical_formula_moiety         'C16 H16 N2,C6 H6 O2'
_chemical_name_systematic        
'N,N-bis(Benzylidene)ethylenediamine hydroquinone'
_symmetry_cell_setting           orthorhombic
_symmetry_space_group_name_H-M   'P b c a'
_symmetry_Int_Tables_number      61
_space_group_name_Hall           '-P 2ac 2ab'
loop_
_symmetry_equiv_pos_site_id
_symmetry_equiv_pos_as_xyz
1 x,y,z
2 1/2-x,-y,1/2+z
3 1/2+x,1/2-y,-z
4 -x,1/2+y,1/2-z
5 -x,-y,-z
6 1/2+x,y,1/2-z
7 1/2-x,1/2+y,z
8 x,1/2-y,1/2+z
_cell_length_a                   10.384(4)
_cell_length_b                   10.328(3)
_cell_length_c                   18.222(6)
_cell_angle_alpha                90
_cell_angle_beta                 90
_cell_angle_gamma                90
_cell_volume                     1954.24
_exptl_crystal_colour            colorless
_cell_formula_units_Z            4
loop_
_atom_site_label
_atom_site_type_symbol
_atom_site_fract_x
_atom_site_fract_y
_atom_site_fract_z
C1 C 0.7957(3) 0.2904(3) 0.1987(1)
C2 C 0.7400(3) 0.2256(3) 0.2565(1)
C3 C 0.7811(3) 0.2468(3) 0.3273(1)
C4 C 0.8767(3) 0.3339(3) 0.3405(1)
C5 C 0.9341(3) 0.3983(3) 0.2829(1)
C6 C 0.8940(2) 0.3785(2) 0.2112(1)
C7 C 0.9539(2) 0.4533(2) 0.1518(1)
N1 N 0.9151(2) 0.4522(2) 0.0860(1)
C8 C 0.9788(3) 0.5386(3) 0.0328(1)
C8D C 1.0212(3) 0.4614(3) -0.0328(1)
N1D N 1.0849(2) 0.5478(2) -0.0860(1)
C7D C 1.0461(2) 0.5467(2) -0.1518(1)
C6D C 1.1060(2) 0.6215(2) -0.2112(1)
C1D C 1.2043(3) 0.7096(3) -0.1987(1)
C2D C 1.2600(3) 0.7744(3) -0.2565(1)
C3D C 1.2189(3) 0.7532(3) -0.3273(1)
C4D C 1.1233(3) 0.6661(3) -0.3405(1)
C5D C 1.0659(3) 0.6017(3) -0.2829(1)
C9 C 0.5049(2) 0.1137(2) 0.4602(1)
C10 C 0.6073(2) 0.0811(2) 0.5056(1)
C11 C 0.3988(2) 0.0331(2) 0.4546(1)
O1 O 0.7101(2) 0.1656(2) 0.5095(1)
C11D C 0.6012(2) -0.0331(2) 0.5454(1)
C9D C 0.4951(2) -0.1137(2) 0.5398(1)
C10D C 0.3927(2) -0.0811(2) 0.4944(1)
O1D O 0.2899(2) -0.1656(2) 0.4905(1)
loop_
_geom_bond_atom_site_label_1
_geom_bond_atom_site_label_2
_geom_bond_site_symmetry_1
_geom_bond_site_symmetry_2
C1 C2 1_555 1_555
C2 C3 1_555 1_555
C3 C4 1_555 1_555
C4 C5 1_555 1_555
C5 C6 1_555 1_555
C6 C1 1_555 1_555
C7 C6 1_555 1_555
N1 C7 1_555 1_555
C8 N1 1_555 1_555
C9 C10 1_555 1_555
C10 O1 1_555 1_555
C11 C9 1_555 1_555
C8D C8 1_555 1_555
N1D C8D 1_555 1_555
C7D N1D 1_555 1_555
C6D C7D 1_555 1_555
C1D C6D 1_555 1_555
C2D C1D 1_555 1_555
C3D C2D 1_555 1_555
C4D C3D 1_555 1_555
C5D C6D 1_555 1_555
C11D C10 1_555 1_555
C9D C11D 1_555 1_555
C10D C11 1_555 1_555
O1D C10D 1_555 1_555
C4D C5D 1_555 1_555
C9D C10D 1_555 1_555

#END
