
#######################################################################
#
#                 Cambridge Crystallographic Data Centre
#                                CCDC 
#
#######################################################################
#
# If this CIF has been generated from an entry in the Cambridge 
# Structural Database, then it will include bibliographic, chemical, 
# crystal, experimental, refinement or atomic coordinate data resulting 
# from the CCDC's data processing and validation procedures.
#
#######################################################################

data_NUJHOP01
_chemical_formula_moiety         'C7 H7 Cl1 N2 O1'
_chemical_name_systematic        4-Chlorobenzamidoxime
_symmetry_cell_setting           monoclinic
_symmetry_space_group_name_H-M   'P 21/c'
_symmetry_Int_Tables_number      14
_space_group_name_Hall           '-P 2ybc'
loop_
_symmetry_equiv_pos_site_id
_symmetry_equiv_pos_as_xyz
1 x,y,z
2 -x,1/2+y,1/2-z
3 -x,-y,-z
4 x,1/2-y,1/2+z
_cell_length_a                   7.9930(16)
_cell_length_b                   12.806(3)
_cell_length_c                   7.6740(15)
_cell_angle_alpha                90
_cell_angle_beta                 90.96(3)
_cell_angle_gamma                90
_cell_volume                     785.388
_exptl_crystal_colour            colorless
_exptl_crystal_description       block
_cell_formula_units_Z            4
_exptl_crystal_recrystallization_method ethanol/water
loop_
_atom_site_label
_atom_site_type_symbol
_atom_site_fract_x
_atom_site_fract_y
_atom_site_fract_z
Cl1 Cl 0.45717(14) 0.11469(9) 0.18287(15)
O1 O 1.1252(3) 0.09855(19) 0.9789(3)
H1 H 1.1124 0.0652 1.0689
N1 N 1.1427(3) 0.1907(2) 0.6852(4)
H2 H 1.2254 0.1929 0.7582
H3 H 1.1478 0.2242 0.5883
N2 N 0.9851(4) 0.0818(2) 0.8643(4)
C1 C 0.6165(5) 0.1198(3) 0.3401(5)
C2 C 0.7787(4) 0.1202(3) 0.2888(5)
H4 H 0.8045 0.1171 0.1712
C3 C 0.9031(5) 0.1252(3) 0.4131(4)
H5 H 1.0139 0.1254 0.3779
C4 C 0.8697(4) 0.1299(2) 0.5918(4)
C5 C 0.7012(4) 0.1283(3) 0.6391(5)
H6 H 0.6740 0.1308 0.7563
C6 C 0.5760(5) 0.1232(3) 0.5154(5)
H7 H 0.4647 0.1219 0.5486
C7 C 1.0036(4) 0.1342(3) 0.7230(4)
loop_
_geom_bond_atom_site_label_1
_geom_bond_atom_site_label_2
_geom_bond_site_symmetry_1
_geom_bond_site_symmetry_2
Cl1 C1 1_555 1_555
O1 H1 1_555 1_555
N1 H2 1_555 1_555
H3 N1 1_555 1_555
N2 O1 1_555 1_555
C1 C2 1_555 1_555
C2 H4 1_555 1_555
C3 C2 1_555 1_555
H5 C3 1_555 1_555
C4 C3 1_555 1_555
C5 C4 1_555 1_555
H6 C5 1_555 1_555
C6 C1 1_555 1_555
H7 C6 1_555 1_555
C7 N1 1_555 1_555
N2 C7 1_555 1_555
C4 C7 1_555 1_555
C5 C6 1_555 1_555

#END
