
#######################################################################
#
#                 Cambridge Crystallographic Data Centre
#                                CCDC 
#
#######################################################################
#
# If this CIF has been generated from an entry in the Cambridge 
# Structural Database, then it will include bibliographic, chemical, 
# crystal, experimental, refinement or atomic coordinate data resulting 
# from the CCDC's data processing and validation procedures.
#
#######################################################################

data_NUJLUB
_chemical_formula_moiety         'C3 N8 O4 2-,2(H4 N1 1+)'
_chemical_name_systematic        
'bis(ammonium) 5-(4-(nitroazanidyl)-1,2,5-oxadiazol-3-yl)-1H-tetrazol-1-olate'
_symmetry_cell_setting           monoclinic
_symmetry_space_group_name_H-M   'P 21/n'
_symmetry_Int_Tables_number      14
_space_group_name_Hall           '-P 2yn'
loop_
_symmetry_equiv_pos_site_id
_symmetry_equiv_pos_as_xyz
1 x,y,z
2 1/2-x,1/2+y,1/2-z
3 -x,-y,-z
4 1/2+x,1/2-y,1/2+z
_cell_length_a                   7.9740(4)
_cell_length_b                   10.4705(6)
_cell_length_c                   11.4698(5)
_cell_angle_alpha                90
_cell_angle_beta                 93.382(4)
_cell_angle_gamma                90
_cell_volume                     955.966
_exptl_crystal_colour            colorless
_exptl_crystal_description       plate
_cell_formula_units_Z            4
loop_
_atom_site_label
_atom_site_type_symbol
_atom_site_fract_x
_atom_site_fract_y
_atom_site_fract_z
O1 O -0.07440(16) 0.63645(13) 0.80304(10)
O2 O 0.08676(16) 0.71553(13) 0.67504(12)
O3 O 0.32474(15) 0.48831(13) 0.46160(10)
O4 O 0.28627(14) 0.08577(13) 0.49947(10)
N1 N 0.02414(16) 0.62173(14) 0.72217(11)
N2 N 0.05272(17) 0.50179(14) 0.69232(11)
N3 N 0.23848(17) 0.56464(15) 0.53831(12)
N4 N 0.29596(18) 0.36066(16) 0.47933(13)
N5 N 0.02122(18) 0.22396(14) 0.69077(12)
N6 N 0.00242(18) 0.09791(15) 0.70570(12)
N7 N 0.09648(17) 0.03340(15) 0.63648(12)
N8 N 0.17789(16) 0.12026(14) 0.57604(11)
C1 C 0.15797(18) 0.48370(17) 0.60268(13)
C2 C 0.19467(19) 0.35640(17) 0.56471(13)
C3 C 0.13196(19) 0.23697(17) 0.60914(13)
N9 N 0.72075(19) 0.38183(18) 0.76283(13)
H1 H 0.666(3) 0.452(2) 0.7426(18)
H2 H 0.729(3) 0.381(2) 0.840(2)
H3 H 0.669(3) 0.309(3) 0.740(2)
H4 H 0.816(3) 0.387(2) 0.733(2)
N10 N 0.61523(19) 0.16570(17) 0.43745(13)
H5 H 0.663(3) 0.091(2) 0.4639(18)
H6 H 0.523(3) 0.175(2) 0.4732(19)
H7 H 0.681(3) 0.236(2) 0.452(2)
H8 H 0.596(3) 0.156(2) 0.361(2)
loop_
_geom_bond_atom_site_label_1
_geom_bond_atom_site_label_2
_geom_bond_site_symmetry_1
_geom_bond_site_symmetry_2
O1 N1 1_555 1_555
O2 N1 1_555 1_555
O3 N3 1_555 1_555
O4 N8 1_555 1_555
N1 N2 1_555 1_555
N2 C1 1_555 1_555
N3 C1 1_555 1_555
N4 O3 1_555 1_555
N5 N6 1_555 1_555
N6 N7 1_555 1_555
N7 N8 1_555 1_555
N8 C3 1_555 1_555
C1 C2 1_555 1_555
C2 N4 1_555 1_555
C3 N5 1_555 1_555
N9 H1 1_555 1_555
H2 N9 1_555 1_555
H3 N9 1_555 1_555
H4 N9 1_555 1_555
N10 H5 1_555 1_555
H6 N10 1_555 1_555
H7 N10 1_555 1_555
H8 N10 1_555 1_555
C2 C3 1_555 1_555

#END
