
#######################################################################
#
#                 Cambridge Crystallographic Data Centre
#                                CCDC 
#
#######################################################################
#
# If this CIF has been generated from an entry in the Cambridge 
# Structural Database, then it will include bibliographic, chemical, 
# crystal, experimental, refinement or atomic coordinate data resulting 
# from the CCDC's data processing and validation procedures.
#
#######################################################################

data_NUJPUE
_chemical_formula_moiety         'C16 H15 Cl1 N2 O2'
_chemical_name_systematic        
2-((Chloroacetyl)amino)-N-(4-methylphenyl)benzamide
_symmetry_cell_setting           monoclinic
_symmetry_space_group_name_H-M   'P 21/c'
_symmetry_Int_Tables_number      14
_space_group_name_Hall           '-P 2ybc'
loop_
_symmetry_equiv_pos_site_id
_symmetry_equiv_pos_as_xyz
1 x,y,z
2 -x,1/2+y,1/2-z
3 -x,-y,-z
4 x,1/2-y,1/2+z
_cell_length_a                   9.858(2)
_cell_length_b                   10.878(2)
_cell_length_c                   13.932(3)
_cell_angle_alpha                90
_cell_angle_beta                 93.89(3)
_cell_angle_gamma                90
_cell_volume                     1490.56
_exptl_crystal_colour            colorless
_exptl_crystal_description       block
_chemical_melting_point          '168-170 deg.C'
_cell_formula_units_Z            4
_exptl_crystal_recrystallization_method ethanol
loop_
_atom_site_label
_atom_site_type_symbol
_atom_site_fract_x
_atom_site_fract_y
_atom_site_fract_z
Cl1 Cl 0.92065(11) 0.13227(8) 0.05883(7)
O1 O 0.8025(3) 0.0483(2) -0.18610(17)
N1 N 0.7169(3) -0.0459(2) -0.02009(19)
H1 H 0.7512 0.0197 -0.0430
C1 C 0.6403(4) -0.1140(3) -0.1809(3)
N2 N 0.8190(3) -0.1113(3) -0.2900(2)
H2 H 0.7797 -0.1767 -0.3128
C2 C 0.7593(4) -0.0516(3) -0.2194(2)
C3 C 0.9414(4) -0.0749(3) -0.3299(2)
C4 C 0.7583(4) -0.0767(3) 0.0704(2)
C5 C 0.6219(4) -0.1113(3) -0.0813(3)
O2 O 0.7188(3) -0.1659(3) 0.1128(2)
C6 C 0.9685(4) 0.0459(3) -0.3537(3)
H3 H 0.9044 0.1069 -0.3448
C7 C 1.0369(4) -0.1649(3) -0.3457(3)
H4 H 1.0192 -0.2466 -0.3313
C8 C 1.1587(4) -0.1329(3) -0.3832(3)
H5 H 1.2217 -0.1942 -0.3938
C9 C 1.0901(4) 0.0756(4) -0.3905(3)
H6 H 1.1070 0.1570 -0.4062
C10 C 1.1894(4) -0.0135(4) -0.4050(3)
C11 C 0.5106(4) -0.1691(3) -0.0458(3)
H7 H 0.4979 -0.1660 0.0197
C12 C 0.8611(5) 0.0050(4) 0.1232(3)
H8 H 0.8919 -0.0105 0.1866
C13 C 0.4348(4) -0.2349(4) -0.2036(4)
H9 H 0.3718 -0.2762 -0.2445
C14 C 0.5466(4) -0.1764(4) -0.2414(3)
H10 H 0.5577 -0.1795 -0.3071
C15 C 1.3221(5) 0.0221(5) -0.4448(4)
H11 H 1.3773 -0.0499 -0.4506
H12 H 1.3689 0.0798 -0.4022
H13 H 1.3047 0.0590 -0.5070
C16 C 0.4183(5) -0.2314(4) -0.1070(3)
H14 H 0.3447 -0.2711 -0.0824
loop_
_geom_bond_atom_site_label_1
_geom_bond_atom_site_label_2
_geom_bond_site_symmetry_1
_geom_bond_site_symmetry_2
Cl1 C12 1_555 1_555
O1 C2 1_555 1_555
N1 H1 1_555 1_555
C1 C2 1_555 1_555
N2 H2 1_555 1_555
C2 N2 1_555 1_555
C3 N2 1_555 1_555
C4 N1 1_555 1_555
C5 N1 1_555 1_555
O2 C4 1_555 1_555
C6 C3 1_555 1_555
H3 C6 1_555 1_555
C7 C3 1_555 1_555
H4 C7 1_555 1_555
C8 C7 1_555 1_555
H5 C8 1_555 1_555
C9 C6 1_555 1_555
H6 C9 1_555 1_555
C10 C8 1_555 1_555
C11 C5 1_555 1_555
H7 C11 1_555 1_555
C12 C4 1_555 1_555
H8 C12 1_555 1_555
C13 H9 1_555 1_555
C14 C1 1_555 1_555
H10 C14 1_555 1_555
C15 C10 1_555 1_555
H11 C15 1_555 1_555
H12 C15 1_555 1_555
H13 C15 1_555 1_555
C16 C11 1_555 1_555
H14 C16 1_555 1_555
C1 C5 1_555 1_555
C9 C10 1_555 1_555
C13 C14 1_555 1_555
C13 C16 1_555 1_555

#END
