
#######################################################################
#
#                 Cambridge Crystallographic Data Centre
#                                CCDC 
#
#######################################################################
#
# If this CIF has been generated from an entry in the Cambridge 
# Structural Database, then it will include bibliographic, chemical, 
# crystal, experimental, refinement or atomic coordinate data resulting 
# from the CCDC's data processing and validation procedures.
#
#######################################################################

data_NUJQOZ
_chemical_name_common            '2-((t-Butylamino)methyl)pyrrole hydrochloride'
_chemical_formula_moiety         'C9 H17 N2 1+,Cl1 1-'
_chemical_name_systematic        '2-((t-Butylammonio)methyl)pyrrole chloride'
_symmetry_cell_setting           orthorhombic
_symmetry_space_group_name_H-M   'P b c a'
_symmetry_Int_Tables_number      61
_space_group_name_Hall           '-P 2ac 2ab'
loop_
_symmetry_equiv_pos_site_id
_symmetry_equiv_pos_as_xyz
1 x,y,z
2 1/2-x,-y,1/2+z
3 -x,1/2+y,1/2-z
4 1/2+x,1/2-y,-z
5 -x,-y,-z
6 1/2+x,y,1/2-z
7 x,1/2-y,1/2+z
8 1/2-x,1/2+y,z
_cell_length_a                   11.9244(5)
_cell_length_b                   8.8412(4)
_cell_length_c                   20.1217(10)
_cell_angle_alpha                90
_cell_angle_beta                 90
_cell_angle_gamma                90
_cell_volume                     2121.35
_exptl_crystal_colour            pink
_exptl_crystal_description       needle
_cell_formula_units_Z            8
_exptl_crystal_recrystallization_method hexane/tetrahydrofuran
loop_
_atom_site_label
_atom_site_type_symbol
_atom_site_fract_x
_atom_site_fract_y
_atom_site_fract_z
Cl1 Cl 0.39426(4) 0.93470(5) 0.36627(2)
C1 C 0.53702(15) 0.5554(2) 0.32054(10)
H1 H 0.5438 0.6625 0.3271
H2 H 0.5765 0.5268 0.2809
H3 H 0.5686 0.5032 0.3580
C2 C 0.41374(15) 0.5135(2) 0.31361(9)
C3 C 0.38115(17) 0.5327(2) 0.44051(10)
H4 H 0.3682 0.4250 0.4453
H5 H 0.4606 0.5511 0.4468
C4 C 0.36259(17) 0.5832(2) 0.25133(10)
H6 H 0.4018 0.5468 0.2128
H7 H 0.3688 0.6913 0.2535
H8 H 0.2849 0.5553 0.2484
C5 C 0.39856(18) 0.3424(2) 0.31352(12)
H9 H 0.4337 0.3003 0.2748
H10 H 0.3200 0.3186 0.3130
H11 H 0.4324 0.3003 0.3527
C6 C 0.31706(17) 0.6151(2) 0.49249(10)
C7 C 0.16978(19) 0.6753(2) 0.55567(11)
H12 H 0.0974 0.6775 0.5728
C8 C 0.25874(18) 0.7552(3) 0.57896(11)
H13 H 0.2582 0.8219 0.6147
C9 C 0.35227(17) 0.7184(2) 0.53889(10)
H14 H 0.4244 0.7572 0.5432
N1 N 0.34800(13) 0.58099(16) 0.37160(7)
H15 H 0.3540 0.6823 0.3693
H16 H 0.2751 0.5579 0.3658
N2 N 0.20498(16) 0.5911(2) 0.50262(9)
H17 H 0.168(2) 0.538(3) 0.4820(12)
loop_
_geom_bond_atom_site_label_1
_geom_bond_atom_site_label_2
_geom_bond_site_symmetry_1
_geom_bond_site_symmetry_2
C1 H1 1_555 1_555
H2 C1 1_555 1_555
H3 C1 1_555 1_555
C2 C1 1_555 1_555
C3 H4 1_555 1_555
H5 C3 1_555 1_555
C4 C2 1_555 1_555
H6 C4 1_555 1_555
H7 C4 1_555 1_555
H8 C4 1_555 1_555
C5 C2 1_555 1_555
H9 C5 1_555 1_555
H10 C5 1_555 1_555
H11 C5 1_555 1_555
C6 C3 1_555 1_555
C7 H12 1_555 1_555
C8 C7 1_555 1_555
H13 C8 1_555 1_555
C9 C6 1_555 1_555
H14 C9 1_555 1_555
N1 C2 1_555 1_555
H15 N1 1_555 1_555
H16 N1 1_555 1_555
N2 C6 1_555 1_555
H17 N2 1_555 1_555
C3 N1 1_555 1_555
C7 N2 1_555 1_555
C8 C9 1_555 1_555

#END
