
#######################################################################
#
#                 Cambridge Crystallographic Data Centre
#                                CCDC 
#
#######################################################################
#
# If this CIF has been generated from an entry in the Cambridge 
# Structural Database, then it will include bibliographic, chemical, 
# crystal, experimental, refinement or atomic coordinate data resulting 
# from the CCDC's data processing and validation procedures.
#
#######################################################################

data_NUJQAL
_chemical_formula_moiety         'C16 H13 Cl1 N2 O1'
_chemical_name_systematic        
2-(Chloromethyl)-3-(4-methylphenyl)quinazolin-4(3H)-one
_symmetry_cell_setting           triclinic
_symmetry_space_group_name_H-M   'P -1'
_symmetry_Int_Tables_number      2
_space_group_name_Hall           '-P 1'
loop_
_symmetry_equiv_pos_site_id
_symmetry_equiv_pos_as_xyz
1 x,y,z
2 -x,-y,-z
_cell_length_a                   9.5227(19)
_cell_length_b                   10.049(2)
_cell_length_c                   16.745(3)
_cell_angle_alpha                95.86(3)
_cell_angle_beta                 102.20(3)
_cell_angle_gamma                115.86(3)
_cell_volume                     1374.56
_exptl_crystal_colour            colorless
_exptl_crystal_description       block
_chemical_melting_point          '173-175 deg.C'
_cell_formula_units_Z            4
_exptl_crystal_recrystallization_method ethanol
loop_
_atom_site_label
_atom_site_type_symbol
_atom_site_fract_x
_atom_site_fract_y
_atom_site_fract_z
Cl1 Cl 0.92923(10) 1.14643(9) 0.50703(5)
N1 N 1.0935(3) 1.2805(3) 0.34634(14)
N2 N 1.1739(3) 1.4750(3) 0.46493(15)
O1 O 1.2560(3) 1.2906(3) 0.26232(14)
C1 C 1.3580(4) 1.4965(3) 0.37903(18)
C2 C 1.0701(3) 1.3468(3) 0.41588(17)
C3 C 0.9118(4) 1.2652(3) 0.43625(18)
H1 H 0.8255 1.2036 0.3852
H2 H 0.8844 1.3382 0.4618
C4 C 0.7191(4) 0.8618(3) 0.19296(19)
C5 C 1.2375(4) 1.3511(3) 0.32419(18)
C6 C 1.3221(4) 1.5528(3) 0.44788(17)
C7 C 0.9676(3) 1.1376(3) 0.29319(17)
C8 C 0.8691(3) 1.1353(3) 0.21904(17)
H3 H 0.8862 1.2254 0.2024
C9 C 0.8242(4) 0.8668(3) 0.26575(18)
H4 H 0.8117 0.7767 0.2810
C10 C 1.4391(4) 1.6903(4) 0.50176(19)
H5 H 1.4175 1.7280 0.5481
C11 C 0.7446(4) 0.9984(4) 0.16966(19)
H6 H 0.6770 0.9971 0.1203
C12 C 0.9489(4) 1.0047(3) 0.31678(18)
H7 H 1.0180 1.0068 0.3658
C13 C 1.6208(4) 1.7150(4) 0.4179(2)
H8 H 1.7205 1.7707 0.4081
C14 C 1.5092(4) 1.5796(4) 0.3649(2)
H9 H 1.5336 1.5425 0.3195
C15 C 0.5809(4) 0.7135(4) 0.1423(2)
H10 H 0.5204 0.7302 0.0943
H11 H 0.5107 0.6670 0.1759
H12 H 0.6227 0.6482 0.1242
C16 C 1.5860(4) 1.7700(4) 0.4865(2)
H13 H 1.6633 1.8619 0.5225
Cl2 Cl 0.63685(15) 0.15749(14) -0.27563(9)
N3 N 0.6071(3) -0.0973(3) -0.15642(15)
N4 N 0.4299(3) -0.2335(3) -0.29294(15)
O2 O 0.5498(3) -0.1756(3) -0.03867(13)
C17 C 0.3604(4) -0.3255(4) -0.16984(18)
C18 C 0.1841(4) -0.4637(4) -0.3092(2)
H14 H 0.1632 -0.4779 -0.3671
C19 C 0.3277(4) -0.3392(3) -0.25669(19)
C20 C 0.5602(4) -0.1206(4) -0.24348(19)
C21 C 0.9047(4) 0.0263(4) -0.10444(18)
H15 H 0.9044 -0.0525 -0.1389
C22 C 0.7600(4) 0.0270(4) -0.10488(18)
C23 C 0.5096(4) -0.1974(4) -0.11493(19)
C24 C 0.1073(4) -0.5500(4) -0.1885(2)
H16 H 0.0326 -0.6192 -0.1660
C25 C 0.2515(4) -0.4321(4) -0.13624(19)
H17 H 0.2757 -0.4240 -0.0786
C26 C 1.0498(4) 0.1426(4) -0.05279(18)
H18 H 1.1469 0.1418 -0.0532
C27 C 1.0532(4) 0.2605(4) -0.00043(19)
C28 C 0.6676(4) -0.0066(4) -0.2837(2)
H19 H 0.6433 -0.0514 -0.3422
H20 H 0.7806 0.0231 -0.2564
C29 C 0.0750(4) -0.5642(4) -0.2749(2)
H21 H -0.0221 -0.6431 -0.3099
C30 C 0.9054(5) 0.2593(4) -0.0029(2)
H22 H 0.9052 0.3385 0.0310
C31 C 1.2104(5) 0.3827(4) 0.0586(2)
H23 H 1.2985 0.3648 0.0515
H24 H 1.2053 0.3821 0.1153
H25 H 1.2279 0.4794 0.0470
C32 C 0.7599(4) 0.1442(4) -0.0541(2)
H26 H 0.6626 0.1454 -0.0546
loop_
_geom_bond_atom_site_label_1
_geom_bond_atom_site_label_2
_geom_bond_site_symmetry_1
_geom_bond_site_symmetry_2
Cl1 C3 1_555 1_555
N1 C2 1_555 1_555
N2 C2 1_555 1_555
O1 C5 1_555 1_555
C1 C5 1_555 1_555
C2 C3 1_555 1_555
C3 H1 1_555 1_555
H2 C3 1_555 1_555
C4 C9 1_555 1_555
C5 N1 1_555 1_555
C6 N2 1_555 1_555
C7 N1 1_555 1_555
C8 C7 1_555 1_555
H3 C8 1_555 1_555
C9 H4 1_555 1_555
C10 C6 1_555 1_555
H5 C10 1_555 1_555
C11 C4 1_555 1_555
H6 C11 1_555 1_555
C12 C7 1_555 1_555
H7 C12 1_555 1_555
C13 H8 1_555 1_555
C14 C1 1_555 1_555
H9 C14 1_555 1_555
C15 C4 1_555 1_555
H10 C15 1_555 1_555
H11 C15 1_555 1_555
H12 C15 1_555 1_555
C16 C10 1_555 1_555
H13 C16 1_555 1_555
Cl2 C28 1_555 1_555
N3 C20 1_555 1_555
N4 C19 1_555 1_555
O2 C23 1_555 1_555
C17 C19 1_555 1_555
C18 H14 1_555 1_555
C19 C18 1_555 1_555
C20 N4 1_555 1_555
C21 H15 1_555 1_555
C22 N3 1_555 1_555
C23 N3 1_555 1_555
C24 H16 1_555 1_555
C25 C17 1_555 1_555
H17 C25 1_555 1_555
C26 C21 1_555 1_555
H18 C26 1_555 1_555
C27 C26 1_555 1_555
C28 C20 1_555 1_555
H19 C28 1_555 1_555
H20 C28 1_555 1_555
C29 C18 1_555 1_555
H21 C29 1_555 1_555
C30 C27 1_555 1_555
H22 C30 1_555 1_555
C31 C27 1_555 1_555
H23 C31 1_555 1_555
H24 C31 1_555 1_555
H25 C31 1_555 1_555
C32 C22 1_555 1_555
H26 C32 1_555 1_555
C1 C6 1_555 1_555
C8 C11 1_555 1_555
C9 C12 1_555 1_555
C13 C14 1_555 1_555
C13 C16 1_555 1_555
C17 C23 1_555 1_555
C21 C22 1_555 1_555
C24 C25 1_555 1_555
C24 C29 1_555 1_555
C30 C32 1_555 1_555

#END
