
#######################################################################
#
#                 Cambridge Crystallographic Data Centre
#                                CCDC 
#
#######################################################################
#
# If this CIF has been generated from an entry in the Cambridge 
# Structural Database, then it will include bibliographic, chemical, 
# crystal, experimental, refinement or atomic coordinate data resulting 
# from the CCDC's data processing and validation procedures.
#
#######################################################################

data_NUKBUS
_chemical_formula_moiety         'C9 H22 N1 1+,Cl1 O4 1-'
_chemical_name_systematic        'N,N-Di-isopropylpropan-1-aminium perchlorate'
_symmetry_cell_setting           orthorhombic
_symmetry_space_group_name_H-M   'P n a 21'
_symmetry_Int_Tables_number      33
_space_group_name_Hall           'P 2c -2n'
loop_
_symmetry_equiv_pos_site_id
_symmetry_equiv_pos_as_xyz
1 x,y,z
2 -x,-y,1/2+z
3 1/2+x,1/2-y,z
4 1/2-x,1/2+y,1/2+z
_cell_length_a                   16.126(3)
_cell_length_b                   8.7468(17)
_cell_length_c                   9.3691(19)
_cell_angle_alpha                90
_cell_angle_beta                 90
_cell_angle_gamma                90
_cell_volume                     1321.52
_exptl_crystal_colour            colorless
_exptl_crystal_description       needle
_chemical_melting_point          '460-460.5 K'
_cell_formula_units_Z            4
_exptl_crystal_recrystallization_method methanol
_exptl_crystal_preparation       'ferroelectric phase transition'
loop_
_atom_site_label
_atom_site_type_symbol
_atom_site_fract_x
_atom_site_fract_y
_atom_site_fract_z
N1 N 0.84565(13) 0.5994(2) 0.2728(2)
H1 H 0.8474 0.6226 0.1782
C1 C 0.86728(19) 0.7447(3) 0.3467(5)
H2 H 0.8202 0.8133 0.3398
H3 H 0.8758 0.7225 0.4471
C2 C 0.7253(2) 0.5710(5) 0.4498(4)
H4 H 0.7151 0.6780 0.4641
H5 H 0.7664 0.5365 0.5167
H6 H 0.6748 0.5149 0.4641
C3 C 0.9603(2) 0.9684(4) 0.3741(5)
H7 H 0.9755 0.9424 0.4702
H8 H 0.9122 1.0330 0.3753
H9 H 1.0055 1.0213 0.3291
C4 C 0.91219(18) 0.4756(3) 0.2929(3)
H10 H 0.9661 0.5254 0.2799
C5 C 0.9122(3) 0.4076(4) 0.4391(3)
H11 H 0.9588 0.3401 0.4490
H12 H 0.8618 0.3513 0.4535
H13 H 0.9160 0.4878 0.5088
C6 C 0.75629(16) 0.5450(4) 0.2993(3)
H14 H 0.7547 0.4347 0.2812
C7 C 0.9047(2) 0.3570(4) 0.1786(3)
H15 H 0.8559 0.2967 0.1948
H16 H 0.9527 0.2920 0.1804
H17 H 0.9008 0.4061 0.0872
C8 C 0.9414(2) 0.8255(4) 0.2925(4)
H18 H 0.9328 0.8514 0.1930
H19 H 0.9888 0.7574 0.2979
C9 C 0.6992(2) 0.6206(5) 0.1926(4)
H20 H 0.7022 0.7296 0.2035
H21 H 0.6433 0.5872 0.2089
H22 H 0.7158 0.5931 0.0976
Cl1 Cl 0.84413(4) 0.62881(8) -0.16659(9)
O1 O 0.8728(2) 0.7279(3) -0.2756(3)
O2 O 0.75746(13) 0.6179(3) -0.1733(4)
O3 O 0.86823(15) 0.6898(3) -0.0309(2)
O4 O 0.88031(16) 0.4838(3) -0.1855(3)
loop_
_geom_bond_atom_site_label_1
_geom_bond_atom_site_label_2
_geom_bond_site_symmetry_1
_geom_bond_site_symmetry_2
N1 H1 1_555 1_555
C1 N1 1_555 1_555
H2 C1 1_555 1_555
H3 C1 1_555 1_555
C2 H4 1_555 1_555
H5 C2 1_555 1_555
H6 C2 1_555 1_555
C3 H7 1_555 1_555
H8 C3 1_555 1_555
H9 C3 1_555 1_555
C4 N1 1_555 1_555
H10 C4 1_555 1_555
C5 C4 1_555 1_555
H11 C5 1_555 1_555
H12 C5 1_555 1_555
H13 C5 1_555 1_555
C6 N1 1_555 1_555
H14 C6 1_555 1_555
C7 C4 1_555 1_555
H15 C7 1_555 1_555
H16 C7 1_555 1_555
H17 C7 1_555 1_555
C8 C1 1_555 1_555
H18 C8 1_555 1_555
H19 C8 1_555 1_555
C9 C6 1_555 1_555
H20 C9 1_555 1_555
H21 C9 1_555 1_555
H22 C9 1_555 1_555
Cl1 O1 1_555 1_555
O2 Cl1 1_555 1_555
O3 Cl1 1_555 1_555
O4 Cl1 1_555 1_555
C2 C6 1_555 1_555
C3 C8 1_555 1_555

#END
