
#######################################################################
#
#                 Cambridge Crystallographic Data Centre
#                                CCDC 
#
#######################################################################
#
# If this CIF has been generated from an entry in the Cambridge 
# Structural Database, then it will include bibliographic, chemical, 
# crystal, experimental, refinement or atomic coordinate data resulting 
# from the CCDC's data processing and validation procedures.
#
#######################################################################

data_NUKJEK
_chemical_name_common            
(2E/Z)-1,1-dicyano-2-(1-cyano-2-methoxy-2-oxoethylidene)-3-(dicyanomethylidene)-4,4-bis(methyl(phenyl)amino)but-4-ylium-1-ide
_chemical_formula_moiety         'C27 H19 N7 O2'
_chemical_name_systematic        
1,1,3-tricyano-2-(1,1-dicyano-3-(methyl(phenyl)amino)-3-(methyl(phenyl)iminio)prop-1-en-2-yl)-4-methoxy-4-oxobut-2-en-1-ide
_symmetry_cell_setting           orthorhombic
_symmetry_space_group_name_H-M   'P b c a'
_symmetry_Int_Tables_number      61
_space_group_name_Hall           '-P 2ac 2ab'
loop_
_symmetry_equiv_pos_site_id
_symmetry_equiv_pos_as_xyz
1 x,y,z
2 1/2+x,1/2-y,-z
3 -x,1/2+y,1/2-z
4 1/2-x,-y,1/2+z
5 -x,-y,-z
6 1/2-x,1/2+y,z
7 x,1/2-y,1/2+z
8 1/2+x,y,1/2-z
_cell_length_a                   15.236(3)
_cell_length_b                   16.720(4)
_cell_length_c                   18.584(4)
_cell_angle_alpha                90
_cell_angle_beta                 90
_cell_angle_gamma                90
_cell_volume                     4734.2
_exptl_crystal_colour            'metallic black'
_exptl_crystal_description       plate
_cell_formula_units_Z            8
_exptl_crystal_recrystallization_method 'DCM/ hexane/ ethyl acetate'
loop_
_atom_site_label
_atom_site_type_symbol
_atom_site_fract_x
_atom_site_fract_y
_atom_site_fract_z
O1 O 0.76144(6) 0.36314(5) 0.32726(4)
O2 O 0.75612(5) 0.22941(5) 0.34000(4)
N1 N 0.62557(6) 0.10440(5) 0.34196(5)
N2 N 0.67806(7) 0.46097(6) 0.46373(6)
N3 N 0.76734(9) 0.38041(7) 0.61865(7)
N4 N 0.59259(8) 0.18508(7) 0.65159(6)
N5 N 0.78719(8) 0.08803(7) 0.60029(6)
N6 N 0.59667(7) -0.02954(6) 0.46697(6)
N7 N 0.54562(6) 0.21764(5) 0.37574(5)
C1 C 0.74307(7) 0.29588(6) 0.36428(6)
C2 C 0.70821(7) 0.31283(6) 0.43518(6)
C3 C 0.68502(7) 0.25172(7) 0.48376(6)
C4 C 0.65940(7) 0.17089(6) 0.45726(6)
C5 C 0.60801(7) 0.16346(6) 0.38847(6)
C6 C 0.55879(7) 0.07167(6) 0.29486(6)
C7 C 0.57771(8) 0.05876(7) 0.22254(6)
H1 H 0.6331 0.0737 0.2032
C8 C 0.51439(9) 0.02369(7) 0.17898(7)
H2 H 0.5264 0.0148 0.1295
C9 C 0.43372(9) 0.00148(8) 0.20723(7)
H3 H 0.3908 -0.0226 0.1771
C10 C 0.41567(8) 0.01443(7) 0.27934(7)
H4 H 0.3603 -0.0006 0.2985
C11 C 0.47818(8) 0.04938(7) 0.32382(7)
H5 H 0.4660 0.0579 0.3734
C12 C 0.80064(12) 0.35124(8) 0.25754(7)
H6 H 0.7601 0.3212 0.2268
H7 H 0.8554 0.3211 0.2629
H8 H 0.8131 0.4033 0.2355
C13 C 0.69397(7) 0.39450(7) 0.45318(6)
C14 C 0.68067(8) 0.26625(7) 0.55815(6)
C15 C 0.72763(8) 0.33116(8) 0.59015(6)
C16 C 0.63082(8) 0.22012(7) 0.60839(6)
C17 C 0.67801(7) 0.10267(7) 0.49472(6)
C18 C 0.73862(8) 0.09755(7) 0.55407(6)
C19 C 0.63456(8) 0.02819(7) 0.47812(6)
C20 C 0.51646(9) 0.23821(7) 0.30250(7)
H9 H 0.5628 0.2248 0.2680
H10 H 0.5039 0.2956 0.2999
H11 H 0.4633 0.2079 0.2908
C21 C 0.50155(7) 0.25481(7) 0.43554(6)
C22 C 0.49201(8) 0.33761(7) 0.43840(7)
H12 H 0.5121 0.3703 0.3999
C23 C 0.45279(8) 0.37142(7) 0.49826(8)
H13 H 0.4463 0.4278 0.5011
C24 C 0.42280(8) 0.32372(8) 0.55427(8)
H14 H 0.3968 0.3477 0.5955
C25 C 0.43068(8) 0.24124(8) 0.55020(7)
H15 H 0.4095 0.2086 0.5883
C26 C 0.46966(8) 0.20653(7) 0.49016(7)
H16 H 0.4744 0.1500 0.4866
C27 C 0.71327(7) 0.06732(7) 0.33397(6)
H17 H 0.7379 0.0816 0.2870
H18 H 0.7078 0.0090 0.3374
H19 H 0.7521 0.0867 0.3722
loop_
_geom_bond_atom_site_label_1
_geom_bond_atom_site_label_2
_geom_bond_site_symmetry_1
_geom_bond_site_symmetry_2
O1 C1 1_555 1_555
O2 C1 1_555 1_555
N1 C5 1_555 1_555
N2 C13 1_555 1_555
N3 C15 1_555 1_555
N4 C16 1_555 1_555
N5 C18 1_555 1_555
N6 C19 1_555 1_555
N7 C5 1_555 1_555
C1 C2 1_555 1_555
C2 C3 1_555 1_555
C3 C4 1_555 1_555
C4 C5 1_555 1_555
C6 N1 1_555 1_555
C7 C6 1_555 1_555
H1 C7 1_555 1_555
C8 C7 1_555 1_555
H2 C8 1_555 1_555
C9 C8 1_555 1_555
H3 C9 1_555 1_555
C10 C9 1_555 1_555
H4 C10 1_555 1_555
C11 C6 1_555 1_555
H5 C11 1_555 1_555
C12 O1 1_555 1_555
H6 C12 1_555 1_555
H7 C12 1_555 1_555
H8 C12 1_555 1_555
C13 C2 1_555 1_555
C14 C3 1_555 1_555
C15 C14 1_555 1_555
C16 C14 1_555 1_555
C17 C4 1_555 1_555
C18 C17 1_555 1_555
C19 C17 1_555 1_555
C20 N7 1_555 1_555
H9 C20 1_555 1_555
H10 C20 1_555 1_555
H11 C20 1_555 1_555
C21 N7 1_555 1_555
C22 C21 1_555 1_555
H12 C22 1_555 1_555
C23 C22 1_555 1_555
H13 C23 1_555 1_555
C24 C23 1_555 1_555
H14 C24 1_555 1_555
C25 C24 1_555 1_555
H15 C25 1_555 1_555
C26 C21 1_555 1_555
H16 C26 1_555 1_555
C27 N1 1_555 1_555
H17 C27 1_555 1_555
H18 C27 1_555 1_555
H19 C27 1_555 1_555
C10 C11 1_555 1_555
C25 C26 1_555 1_555

#END
