
#######################################################################
#
#                 Cambridge Crystallographic Data Centre
#                                CCDC 
#
#######################################################################
#
# If this CIF has been generated from an entry in the Cambridge 
# Structural Database, then it will include bibliographic, chemical, 
# crystal, experimental, refinement or atomic coordinate data resulting 
# from the CCDC's data processing and validation procedures.
#
#######################################################################

data_NUKJOU
_chemical_formula_moiety         'C22 H20 N4'
_chemical_name_systematic        
2-(3-(isopropyl(phenyl)amino)-3-(methyl(phenyl)amino)propa-1,2-dien-1-ylidene)malononitrile
_symmetry_cell_setting           monoclinic
_symmetry_space_group_name_H-M   'P 21/c'
_symmetry_Int_Tables_number      14
_space_group_name_Hall           '-P 2ybc'
loop_
_symmetry_equiv_pos_site_id
_symmetry_equiv_pos_as_xyz
1 x,y,z
2 -x,1/2+y,1/2-z
3 -x,-y,-z
4 x,1/2-y,1/2+z
_cell_length_a                   8.4286(8)
_cell_length_b                   15.1851(16)
_cell_length_c                   14.8473(18)
_cell_angle_alpha                90
_cell_angle_beta                 98.787(5)
_cell_angle_gamma                90
_cell_volume                     1877.99
_exptl_crystal_colour            yellow
_exptl_crystal_description       needle
_chemical_melting_point          '442 K'
_cell_formula_units_Z            4
_exptl_crystal_recrystallization_method 'DCM/ hexane'
loop_
_atom_site_label
_atom_site_type_symbol
_atom_site_fract_x
_atom_site_fract_y
_atom_site_fract_z
N1 N 0.72946(13) 0.02082(8) 0.77189(8)
N2 N 0.87276(13) 0.13148(7) 0.70884(8)
N3 N 0.54040(15) -0.17202(9) 0.39281(9)
N4 N 0.84096(16) 0.04956(8) 0.32940(9)
C1 C 0.65216(18) 0.17336(10) 0.99688(11)
H1 H 0.6322 0.2072 1.0478
C2 C 0.75528(18) 0.10229(10) 1.00923(11)
H2 H 0.8067 0.0876 1.0688
C3 C 0.78435(17) 0.05241(9) 0.93561(10)
H3 H 0.8563 0.0039 0.9442
C4 C 0.70743(15) 0.07394(9) 0.84929(10)
C5 C 0.78766(15) 0.05602(9) 0.70050(9)
C6 C 0.97228(15) 0.15650(9) 0.79245(9)
C7 C 1.09419(16) 0.10091(9) 0.83041(10)
H4 H 1.1090 0.0454 0.8033
C8 C 1.19423(17) 0.12698(10) 0.90828(10)
H5 H 1.2781 0.0892 0.9351
C9 C 1.17275(17) 0.20795(10) 0.94740(10)
H6 H 1.2414 0.2254 1.0013
C10 C 0.57831(17) 0.19514(10) 0.91052(11)
H7 H 0.5095 0.2450 0.9019
C11 C 0.60362(16) 0.14498(10) 0.83617(11)
H8 H 0.5504 0.1592 0.7769
C12 C 0.91284(18) 0.17443(10) 0.62682(10)
H9 H 1.0068 0.1456 0.6083
H10 H 0.9369 0.2367 0.6398
H11 H 0.8216 0.1697 0.5775
C13 C 1.05218(18) 0.26335(10) 0.90847(10)
H12 H 1.0384 0.3191 0.9353
C14 C 0.95103(16) 0.23814(9) 0.83044(10)
H13 H 0.8681 0.2764 0.8033
C15 C 0.75989(16) 0.01554(9) 0.61548(10)
C16 C 0.73621(15) -0.01071(9) 0.53745(10)
C17 C 0.71310(16) -0.03761(9) 0.44766(9)
C18 C 0.61686(16) -0.11145(10) 0.41790(10)
C19 C 0.78415(16) 0.01044(9) 0.38266(10)
C20 C 0.66623(18) -0.07127(10) 0.76441(10)
H14 H 0.6236 -0.0823 0.6988
C21 C 0.52845(18) -0.08382(11) 0.81793(12)
H15 H 0.5686 -0.0790 0.8833
H16 H 0.4808 -0.1422 0.8048
H17 H 0.4470 -0.0384 0.8003
C22 C 0.8010(2) -0.13616(10) 0.79222(13)
H18 H 0.8895 -0.1238 0.7583
H19 H 0.7616 -0.1962 0.7787
H20 H 0.8391 -0.1306 0.8577
loop_
_geom_bond_atom_site_label_1
_geom_bond_atom_site_label_2
_geom_bond_site_symmetry_1
_geom_bond_site_symmetry_2
N1 C4 1_555 1_555
N2 C5 1_555 1_555
N3 C18 1_555 1_555
N4 C19 1_555 1_555
C1 H1 1_555 1_555
C2 C1 1_555 1_555
H2 C2 1_555 1_555
C3 C2 1_555 1_555
H3 C3 1_555 1_555
C4 C3 1_555 1_555
C5 N1 1_555 1_555
C6 N2 1_555 1_555
C7 C6 1_555 1_555
H4 C7 1_555 1_555
C8 C7 1_555 1_555
H5 C8 1_555 1_555
C9 C8 1_555 1_555
H6 C9 1_555 1_555
C10 C1 1_555 1_555
H7 C10 1_555 1_555
C11 C4 1_555 1_555
H8 C11 1_555 1_555
C12 N2 1_555 1_555
H9 C12 1_555 1_555
H10 C12 1_555 1_555
H11 C12 1_555 1_555
C13 C9 1_555 1_555
H12 C13 1_555 1_555
C14 C6 1_555 1_555
H13 C14 1_555 1_555
C15 C5 1_555 1_555
C16 C15 1_555 1_555
C17 C16 1_555 1_555
C18 C17 1_555 1_555
C19 C17 1_555 1_555
C20 N1 1_555 1_555
H14 C20 1_555 1_555
C21 C20 1_555 1_555
H15 C21 1_555 1_555
H16 C21 1_555 1_555
H17 C21 1_555 1_555
C22 C20 1_555 1_555
H18 C22 1_555 1_555
H19 C22 1_555 1_555
H20 C22 1_555 1_555
C10 C11 1_555 1_555
C13 C14 1_555 1_555

#END
