
#######################################################################
#
#                 Cambridge Crystallographic Data Centre
#                                CCDC 
#
#######################################################################
#
# If this CIF has been generated from an entry in the Cambridge 
# Structural Database, then it will include bibliographic, chemical, 
# crystal, experimental, refinement or atomic coordinate data resulting 
# from the CCDC's data processing and validation procedures.
#
#######################################################################

data_NUKKAH
_chemical_name_common            
1,1-dicyano-2,3-bis(dicyanomethylidene)-4-(methyl(phenyl)amino)-4-(phenyl(propan-2-yl)amino)but-4-ylium-1-ide
_chemical_formula_moiety         'C28 H20 N8'
_chemical_name_systematic        
1,1,4,4-tetracyano-2-(dicyanomethylene)-3-((isopropyl(phenyl)amino)(methyl(phenyl)iminio)methyl)but-3-en-1-ide
_symmetry_cell_setting           monoclinic
_symmetry_space_group_name_H-M   'P 21/c'
_symmetry_Int_Tables_number      14
_space_group_name_Hall           '-P 2ybc'
loop_
_symmetry_equiv_pos_site_id
_symmetry_equiv_pos_as_xyz
1 x,y,z
2 -x,1/2+y,1/2-z
3 -x,-y,-z
4 x,1/2-y,1/2+z
_cell_length_a                   8.5620(4)
_cell_length_b                   12.1844(6)
_cell_length_c                   23.6819(10)
_cell_angle_alpha                90
_cell_angle_beta                 101.263(2)
_cell_angle_gamma                90
_cell_volume                     2422.98
_exptl_crystal_colour            'dark green'
_exptl_crystal_description       plate
_cell_formula_units_Z            4
_exptl_crystal_recrystallization_method 'DCM/ hexane'
loop_
_atom_site_label
_atom_site_type_symbol
_atom_site_fract_x
_atom_site_fract_y
_atom_site_fract_z
C1 C 0.79707(13) 0.77955(9) 0.61577(5)
N1 N 0.74181(12) 0.72601(8) 0.65714(4)
N2 N 1.18403(13) 0.88390(10) 0.65973(5)
N3 N 0.90646(14) 1.17380(9) 0.59547(5)
N4 N 0.54386(15) 0.74541(10) 0.48957(5)
N5 N 0.20454(13) 0.96642(9) 0.52697(5)
N6 N 0.78339(14) 1.09475(10) 0.72740(5)
N7 N 0.32512(14) 1.15014(10) 0.62744(6)
C2 C 1.07318(16) 0.41650(10) 0.59937(5)
H1 H 1.1195 0.3454 0.6040
C3 C 0.93350(16) 0.43346(10) 0.55935(5)
H2 H 0.8838 0.3737 0.5370
C4 C 0.86610(15) 0.53736(10) 0.55182(5)
H3 H 0.7723 0.5500 0.5237
C5 C 0.93878(14) 0.62249(9) 0.58625(5)
N8 N 0.87236(12) 0.73246(8) 0.57812(4)
C6 C 0.70048(14) 0.61003(9) 0.65232(5)
C7 C 0.56528(15) 0.58119(10) 0.61255(5)
H4 H 0.5028 0.6359 0.5901
C8 C 0.52239(16) 0.47136(11) 0.60594(6)
H5 H 0.4316 0.4505 0.5781
C9 C 0.61150(17) 0.39206(11) 0.63971(6)
H6 H 0.5822 0.3169 0.6349
C10 C 1.07780(14) 0.60753(10) 0.62628(5)
H7 H 1.1264 0.6671 0.6490
C11 C 1.14509(15) 0.50317(10) 0.63252(6)
H8 H 1.2410 0.4913 0.6597
C12 C 0.77488(13) 0.90265(9) 0.61153(5)
C13 C 0.90696(14) 0.96640(9) 0.61824(5)
C14 C 1.06269(14) 0.92039(10) 0.63958(5)
C15 C 0.90420(14) 1.08236(10) 0.60609(5)
C16 C 0.61070(13) 0.95019(9) 0.60036(5)
C17 C 0.49649(14) 0.90476(9) 0.55586(5)
C18 C 0.52809(15) 0.81751(10) 0.51942(5)
C19 C 0.33558(14) 0.94159(10) 0.54152(5)
C20 C 0.58216(14) 1.03607(9) 0.63660(5)
C21 C 0.69479(15) 1.06791(10) 0.68665(5)
C22 C 0.43615(15) 1.09634(10) 0.62994(6)
C23 C 0.71912(15) 0.78492(10) 0.71074(5)
H9 H 0.7291 0.8653 0.7036
C24 C 0.85008(18) 0.75476(13) 0.76144(6)
H10 H 0.8300 0.6812 0.7752
H11 H 0.8516 0.8080 0.7926
H12 H 0.9531 0.7556 0.7493
C25 C 0.55429(17) 0.76584(14) 0.72238(7)
H13 H 0.5395 0.8101 0.7555
H14 H 0.5413 0.6880 0.7307
H15 H 0.4749 0.7871 0.6885
C26 C 0.74306(17) 0.42208(10) 0.68046(6)
H16 H 0.8021 0.3676 0.7043
C27 C 0.78983(15) 0.53146(10) 0.68692(5)
H17 H 0.8812 0.5520 0.7145
C28 C 0.90213(16) 0.78454(10) 0.52457(5)
H18 H 1.0171 0.7915 0.5266
H19 H 0.8531 0.8575 0.5204
H20 H 0.8559 0.7390 0.4914
loop_
_geom_bond_atom_site_label_1
_geom_bond_atom_site_label_2
_geom_bond_site_symmetry_1
_geom_bond_site_symmetry_2
C1 N1 1_555 1_555
N1 C6 1_555 1_555
N2 C14 1_555 1_555
N3 C15 1_555 1_555
N4 C18 1_555 1_555
N5 C19 1_555 1_555
N6 C21 1_555 1_555
N7 C22 1_555 1_555
C2 H1 1_555 1_555
C3 C2 1_555 1_555
H2 C3 1_555 1_555
C4 C3 1_555 1_555
H3 C4 1_555 1_555
C5 C4 1_555 1_555
N8 C1 1_555 1_555
C6 C7 1_555 1_555
C7 H4 1_555 1_555
C8 C7 1_555 1_555
H5 C8 1_555 1_555
C9 C8 1_555 1_555
H6 C9 1_555 1_555
C10 C5 1_555 1_555
H7 C10 1_555 1_555
C11 C2 1_555 1_555
H8 C11 1_555 1_555
C12 C1 1_555 1_555
C13 C12 1_555 1_555
C14 C13 1_555 1_555
C15 C13 1_555 1_555
C16 C12 1_555 1_555
C17 C16 1_555 1_555
C18 C17 1_555 1_555
C19 C17 1_555 1_555
C20 C16 1_555 1_555
C21 C20 1_555 1_555
C22 C20 1_555 1_555
C23 N1 1_555 1_555
H9 C23 1_555 1_555
C24 C23 1_555 1_555
H10 C24 1_555 1_555
H11 C24 1_555 1_555
H12 C24 1_555 1_555
C25 C23 1_555 1_555
H13 C25 1_555 1_555
H14 C25 1_555 1_555
H15 C25 1_555 1_555
C26 C9 1_555 1_555
H16 C26 1_555 1_555
C27 C6 1_555 1_555
H17 C27 1_555 1_555
C28 N8 1_555 1_555
H18 C28 1_555 1_555
H19 C28 1_555 1_555
H20 C28 1_555 1_555
C5 N8 1_555 1_555
C10 C11 1_555 1_555
C26 C27 1_555 1_555

#END
