
#######################################################################
#
#                 Cambridge Crystallographic Data Centre
#                                CCDC 
#
#######################################################################
#
# If this CIF has been generated from an entry in the Cambridge 
# Structural Database, then it will include bibliographic, chemical, 
# crystal, experimental, refinement or atomic coordinate data resulting 
# from the CCDC's data processing and validation procedures.
#
#######################################################################

data_NUKKEL
_chemical_name_common            
(2E/Z)-1,1-dicyano-2-(1-cyano-2-methoxy-2-oxoethylidene)-3-(dicyanomethylidene)-4,4-bis(4-(dimethylamino)phenyl)but-4-ylium-1-ide
_chemical_formula_moiety         'C29 H23 N7 O2'
_chemical_name_systematic        
1,1,3-tricyano-2-(1,1-dicyano-3-(4-(dimethylamino)phenyl)-3-(4-(dimethyliminio)cyclohexa-2,5-dien-1-ylidene)prop-1-en-2-yl)-4-methoxy-4-oxobut-2-en-1-ide
_symmetry_cell_setting           triclinic
_symmetry_space_group_name_H-M   'P -1'
_symmetry_Int_Tables_number      2
_space_group_name_Hall           '-P 1'
loop_
_symmetry_equiv_pos_site_id
_symmetry_equiv_pos_as_xyz
1 x,y,z
2 -x,-y,-z
_cell_length_a                   9.1027(8)
_cell_length_b                   9.9594(7)
_cell_length_c                   14.6744(13)
_cell_angle_alpha                94.745(3)
_cell_angle_beta                 103.607(3)
_cell_angle_gamma                100.020(3)
_cell_volume                     1262.61
_exptl_crystal_colour            'dark black'
_exptl_crystal_description       rod
_cell_formula_units_Z            2
_exptl_crystal_recrystallization_method DCM/hexane
loop_
_atom_site_label
_atom_site_type_symbol
_atom_site_fract_x
_atom_site_fract_y
_atom_site_fract_z
C1 C 0.4527(3) 0.6221(2) 0.34839(16)
H1 H 0.5172 0.6943 0.3256
H2 H 0.3467 0.6053 0.3088
H3 H 0.4931 0.5373 0.3452
C2 C 0.9990(2) 0.80577(19) 0.73782(13)
C3 C 0.5858(2) 0.70038(19) 0.51437(14)
C4 C 0.7314(2) 0.6920(2) 0.49680(14)
H4 H 0.7359 0.6602 0.4349
C5 C 0.8639(2) 0.7284(2) 0.56658(14)
H5 H 0.9594 0.7251 0.5517
C6 C 0.8636(2) 0.77134(19) 0.66137(13)
C7 C 1.0627(3) 0.7831(3) 1.18508(15)
H6 H 1.1698 0.7910 1.1811
H7 H 1.0499 0.7408 1.2414
H8 H 1.0375 0.8748 1.1893
C8 C 0.9939(2) 0.77742(19) 0.83048(13)
C9 C 1.0911(2) 0.8599(2) 0.91331(14)
H9 H 1.1664 0.9353 0.9071
C10 C 1.0800(2) 0.8347(2) 1.00100(14)
H10 H 1.1454 0.8939 1.0547
C11 C 0.9719(2) 0.7211(2) 1.01400(13)
C12 C 0.8373(3) 0.5931(2) 1.11529(16)
H11 H 0.7422 0.5900 1.0664
H12 H 0.8200 0.6155 1.1777
H13 H 0.8672 0.5033 1.1115
C13 C 1.5442(3) 1.2839(2) 0.94015(19)
H14 H 1.5216 1.3354 0.8862
H15 H 1.6471 1.3245 0.9806
H16 H 1.4673 1.2878 0.9766
C14 C 1.4000(2) 1.0709(2) 0.85492(14)
C15 C 1.4105(2) 0.92801(19) 0.83117(14)
C16 C 1.5559(2) 0.8968(2) 0.87495(15)
C17 C 1.2921(2) 0.82722(18) 0.77302(13)
C18 C 1.2946(2) 0.68713(19) 0.75675(13)
C19 C 1.4142(2) 0.6231(2) 0.80341(15)
C20 C 1.1720(2) 0.5911(2) 0.69211(14)
C21 C 1.1468(2) 0.86768(19) 0.72028(13)
C22 C 1.1563(2) 0.95718(19) 0.65561(13)
C23 C 1.0324(2) 1.0242(2) 0.61564(13)
C24 C 1.2985(2) 1.0057(2) 0.63114(14)
C25 C 0.8788(2) 0.6336(2) 0.93210(14)
H17 H 0.8095 0.5539 0.9385
C26 C 0.8879(2) 0.66290(19) 0.84433(14)
H18 H 0.8212 0.6049 0.7906
C27 C 0.3060(3) 0.6793(3) 0.46321(19)
H19 H 0.2963 0.6418 0.5217
H20 H 0.2224 0.6289 0.4102
H21 H 0.2996 0.7768 0.4695
C28 C 0.5853(2) 0.7480(2) 0.60814(14)
H22 H 0.4908 0.7587 0.6220
C29 C 0.7183(2) 0.7786(2) 0.67858(14)
H23 H 0.7134 0.8056 0.7412
N1 N 0.9598(2) 0.69784(18) 1.10085(12)
N2 N 1.6754(2) 0.87697(19) 0.91027(14)
N3 N 1.5030(2) 0.56132(19) 0.83695(15)
N4 N 1.0770(2) 0.50885(19) 0.64180(14)
N5 N 0.9425(2) 1.08705(18) 0.58551(12)
N6 N 1.4111(2) 1.04419(19) 0.61120(14)
N7 N 0.4541(2) 0.66542(18) 0.44577(13)
O1 O 1.53935(16) 1.14283(14) 0.90656(11)
O2 O 1.28868(16) 1.12252(14) 0.83479(10)
loop_
_geom_bond_atom_site_label_1
_geom_bond_atom_site_label_2
_geom_bond_site_symmetry_1
_geom_bond_site_symmetry_2
C1 H1 1_555 1_555
H2 C1 1_555 1_555
H3 C1 1_555 1_555
C2 C6 1_555 1_555
C3 C4 1_555 1_555
C4 H4 1_555 1_555
C5 C4 1_555 1_555
H5 C5 1_555 1_555
C6 C5 1_555 1_555
C7 H6 1_555 1_555
H7 C7 1_555 1_555
H8 C7 1_555 1_555
C8 C2 1_555 1_555
C9 C8 1_555 1_555
H9 C9 1_555 1_555
C10 C9 1_555 1_555
H10 C10 1_555 1_555
C11 C10 1_555 1_555
C12 H11 1_555 1_555
H12 C12 1_555 1_555
H13 C12 1_555 1_555
C13 H14 1_555 1_555
H15 C13 1_555 1_555
H16 C13 1_555 1_555
C14 C15 1_555 1_555
C15 C16 1_555 1_555
C16 N2 1_555 1_555
C17 C15 1_555 1_555
C18 C17 1_555 1_555
C19 C18 1_555 1_555
C20 C18 1_555 1_555
C21 C2 1_555 1_555
C22 C21 1_555 1_555
C23 C22 1_555 1_555
C24 C22 1_555 1_555
C25 C11 1_555 1_555
H17 C25 1_555 1_555
C26 C8 1_555 1_555
H18 C26 1_555 1_555
C27 H19 1_555 1_555
H20 C27 1_555 1_555
H21 C27 1_555 1_555
C28 C3 1_555 1_555
H22 C28 1_555 1_555
C29 C6 1_555 1_555
H23 C29 1_555 1_555
N1 C7 1_555 1_555
N3 C19 1_555 1_555
N4 C20 1_555 1_555
N5 C23 1_555 1_555
N6 C24 1_555 1_555
N7 C1 1_555 1_555
O1 C13 1_555 1_555
O2 C14 1_555 1_555
C3 N7 1_555 1_555
C11 N1 1_555 1_555
C12 N1 1_555 1_555
C14 O1 1_555 1_555
C17 C21 1_555 1_555
C25 C26 1_555 1_555
C27 N7 1_555 1_555
C28 C29 1_555 1_555

#END
