
#######################################################################
#
#                 Cambridge Crystallographic Data Centre
#                                CCDC 
#
#######################################################################
#
# If this CIF has been generated from an entry in the Cambridge 
# Structural Database, then it will include bibliographic, chemical, 
# crystal, experimental, refinement or atomic coordinate data resulting 
# from the CCDC's data processing and validation procedures.
#
#######################################################################

data_NUKMEL
_chemical_formula_moiety         'C19 H18 O2'
_chemical_name_systematic        'rac-1-Methylpropyl anthracene-9-carboxylate'
_symmetry_cell_setting           triclinic
_symmetry_space_group_name_H-M   'P -1'
_symmetry_Int_Tables_number      2
_space_group_name_Hall           '-P 1'
loop_
_symmetry_equiv_pos_site_id
_symmetry_equiv_pos_as_xyz
1 x,y,z
2 -x,-y,-z
_cell_length_a                   7.773(2)
_cell_length_b                   10.577(3)
_cell_length_c                   11.148(3)
_cell_angle_alpha                62.98(2)
_cell_angle_beta                 81.88(2)
_cell_angle_gamma                68.88(2)
_cell_volume                     761.368
_exptl_crystal_colour            colorless
_exptl_crystal_description       'hexagonal plates'
_chemical_melting_point          98-101deg.C
_cell_formula_units_Z            2
_exptl_crystal_recrystallization_method cyclohexane
loop_
_atom_site_label
_atom_site_type_symbol
_atom_site_fract_x
_atom_site_fract_y
_atom_site_fract_z
C1 C 0.3400(3) 0.1726(3) 0.6712(3)
C2 C 0.2456(4) 0.3109(3) 0.5786(3)
C3 C 0.1549(4) 0.3302(3) 0.4673(3)
C4 C 0.1584(3) 0.2086(3) 0.4536(3)
C5 C 0.3597(4) -0.3434(3) 0.6184(3)
C6 C 0.4563(4) -0.4832(3) 0.7093(3)
C7 C 0.5523(4) -0.5028(3) 0.8171(3)
C8 C 0.5522(3) -0.3839(3) 0.8332(2)
C9 C 0.4475(3) -0.1064(2) 0.7531(2)
C10 C 0.2591(3) -0.0674(3) 0.5371(2)
C11 C 0.4520(3) -0.2327(2) 0.7402(2)
C12 C 0.3539(3) -0.2121(3) 0.6297(2)
C13 C 0.2541(3) 0.0598(2) 0.5485(2)
C14 C 0.3501(3) 0.0400(2) 0.6602(2)
C15 C 0.5503(3) -0.1274(2) 0.8684(2)
C16 C 0.8365(4) -0.1339(4) 0.9328(3)
C17 C 0.9398(6) -0.3056(5) 1.0163(4)
C18 C 0.9609(4) -0.0479(4) 0.8560(3)
C19 C 0.8601(5) 0.1151(4) 0.7871(4)
O1 O 0.4926(2) -0.1528(2) 0.9793(2)
O2 O 0.7160(2) -0.1152(2) 0.8313(2)
H1 H 0.4030(34) 0.1576(26) 0.7474(23)
H2 H 0.2387(38) 0.4010(30) 0.5833(27)
H3 H 0.0908(35) 0.4290(27) 0.4002(24)
H4 H 0.0950(30) 0.2169(23) 0.3821(22)
H5 H 0.2938(33) -0.3271(26) 0.5398(24)
H6 H 0.4638(38) -0.5749(29) 0.6976(26)
H7 H 0.6098(28) -0.5972(22) 0.8855(20)
H8 H 0.6301(30) -0.4007(25) 0.9076(23)
H9 H 0.1905(27) -0.0537(22) 0.4655(20)
H10 H 0.7605(31) -0.1010(24) 0.9928(23)
H11 H 0.9934(45) -0.3257(33) 1.0872(30)
H12 H 1.0131(40) -0.3310(30) 0.9451(29)
H13 H 0.8509(60) -0.3635(44) 1.0589(41)
H14 H 1.0375(37) -0.1024(28) 0.7905(26)
H15 H 1.0598(37) -0.0920(29) 0.9376(27)
H16 H 0.9534(58) 0.1810(44) 0.7387(41)
H17 H 0.7864(58) 0.1608(41) 0.8584(40)
H18 H 0.7741(45) 0.1454(33) 0.7090(32)
loop_
_geom_bond_atom_site_label_1
_geom_bond_atom_site_label_2
_geom_bond_site_symmetry_1
_geom_bond_site_symmetry_2
C1 C2 1_555 1_555
C2 C3 1_555 1_555
C3 C4 1_555 1_555
C4 C13 1_555 1_555
C5 C6 1_555 1_555
C6 C7 1_555 1_555
C7 C8 1_555 1_555
C8 C11 1_555 1_555
C9 C11 1_555 1_555
C10 C12 1_555 1_555
C11 C12 1_555 1_555
C12 C5 1_555 1_555
C13 C10 1_555 1_555
C14 C1 1_555 1_555
C15 C9 1_555 1_555
C16 C17 1_555 1_555
C17 H11 1_555 1_555
C18 C16 1_555 1_555
C19 C18 1_555 1_555
O1 C15 1_555 1_555
O2 C15 1_555 1_555
H1 C1 1_555 1_555
H2 C2 1_555 1_555
H3 C3 1_555 1_555
H4 C4 1_555 1_555
H5 C5 1_555 1_555
H6 C6 1_555 1_555
H7 C7 1_555 1_555
H8 C8 1_555 1_555
H9 C10 1_555 1_555
H10 C16 1_555 1_555
H12 C17 1_555 1_555
H13 C17 1_555 1_555
H14 C18 1_555 1_555
H15 C18 1_555 1_555
H16 C19 1_555 1_555
H17 C19 1_555 1_555
H18 C19 1_555 1_555
C9 C14 1_555 1_555
C13 C14 1_555 1_555
C16 O2 1_555 1_555

#END
