
#######################################################################
#
#                 Cambridge Crystallographic Data Centre
#                                CCDC 
#
#######################################################################
#
# If this CIF has been generated from an entry in the Cambridge 
# Structural Database, then it will include bibliographic, chemical, 
# crystal, experimental, refinement or atomic coordinate data resulting 
# from the CCDC's data processing and validation procedures.
#
#######################################################################

data_NUKNOW
_chemical_formula_moiety         'C23 H18 O2'
_chemical_name_systematic        'rac-1-Phenylethyl anthracene-9-carboxylate'
_symmetry_cell_setting           triclinic
_symmetry_space_group_name_H-M   'P -1'
_symmetry_Int_Tables_number      2
_space_group_name_Hall           '-P 1'
loop_
_symmetry_equiv_pos_site_id
_symmetry_equiv_pos_as_xyz
1 x,y,z
2 -x,-y,-z
_cell_length_a                   8.938(6)
_cell_length_b                   9.796(7)
_cell_length_c                   10.10(1)
_cell_angle_alpha                106.94(6)
_cell_angle_beta                 89.84(7)
_cell_angle_gamma                90.29(6)
_cell_volume                     845.94
_exptl_crystal_colour            'pale yellow'
_exptl_crystal_description       chunks
_chemical_melting_point          95-100deg.C
_cell_formula_units_Z            2
_exptl_crystal_recrystallization_method cyclohexane
loop_
_atom_site_label
_atom_site_type_symbol
_atom_site_fract_x
_atom_site_fract_y
_atom_site_fract_z
O1 O -0.0224(3) 0.0373(3) 0.1784(3)
O2 O 0.1448(3) 0.2138(3) 0.2029(3)
C1 C 0.0156(5) 0.1594(5) 0.2293(5)
C2 C 0.2500(5) 0.1197(5) 0.1044(5)
C3 C 0.3177(6) 0.2114(5) 0.0259(5)
C4 C 0.3156(5) -0.0676(5) 0.2158(5)
C5 C 0.4076(5) -0.1292(5) 0.2914(5)
C6 C 0.5417(6) -0.0663(6) 0.3397(5)
C7 C 0.5821(6) 0.0567(6) 0.3117(6)
C8 C 0.4900(5) 0.1192(5) 0.2374(5)
C9 C 0.3554(5) 0.0566(5) 0.1877(4)
C10 C -0.0744(4) 0.2701(4) 0.3307(5)
C11 C -0.0597(4) 0.2874(4) 0.4726(5)
C12 C 0.0388(5) 0.2015(5) 0.5261(5)
C13 C 0.0517(5) 0.2228(5) 0.6634(6)
C14 C -0.0290(6) 0.3309(5) 0.7589(5)
C15 C -0.1223(5) 0.4150(5) 0.7124(5)
C16 C -0.1430(5) 0.3939(4) 0.5680(5)
C17 C -0.2420(5) 0.4783(5) 0.5191(5)
C18 C -0.2617(5) 0.4585(5) 0.3784(5)
C19 C -0.3641(5) 0.5418(5) 0.3251(6)
C20 C -0.3783(5) 0.5208(6) 0.1871(6)
C21 C -0.2930(6) 0.4166(5) 0.0930(5)
C22 C -0.1954(5) 0.3359(5) 0.1379(5)
C23 C -0.1753(4) 0.3531(4) 0.2819(5)
H1 H 0.1948 0.0441 0.0414
H2 H 0.2430 0.2436 -0.0260
H3 H 0.3627 0.2923 0.0917
H4 H 0.3931 0.1592 -0.0360
H5 H 0.2221 -0.1125 0.1811
H6 H 0.3777 -0.2165 0.3090
H7 H 0.6059 -0.1075 0.3936
H8 H 0.6764 0.1009 0.3445
H9 H 0.5198 0.2063 0.2192
H10 H 0.0944 0.1270 0.4625
H11 H 0.1192 0.1647 0.6970
H12 H -0.0180 0.3445 0.8564
H13 H -0.1753 0.4903 0.7776
H14 H -0.2978 0.5517 0.5840
H15 H -0.4237 0.6125 0.3889
H16 H -0.4485 0.5772 0.1541
H17 H -0.3029 0.4058 -0.0041
H18 H -0.1388 0.2642 0.0721
loop_
_geom_bond_atom_site_label_1
_geom_bond_atom_site_label_2
_geom_bond_site_symmetry_1
_geom_bond_site_symmetry_2
O1 C1 1_555 1_555
O2 C1 1_555 1_555
C1 C10 1_555 1_555
C2 O2 1_555 1_555
C3 C2 1_555 1_555
C4 C5 1_555 1_555
C5 C6 1_555 1_555
C6 C7 1_555 1_555
C7 C8 1_555 1_555
C8 C9 1_555 1_555
C9 C2 1_555 1_555
C10 C11 1_555 1_555
C11 C12 1_555 1_555
C12 C13 1_555 1_555
C13 C14 1_555 1_555
C14 C15 1_555 1_555
C15 C16 1_555 1_555
C16 C11 1_555 1_555
C17 C16 1_555 1_555
C18 C17 1_555 1_555
C19 C18 1_555 1_555
C20 C19 1_555 1_555
C21 C20 1_555 1_555
C22 C21 1_555 1_555
C23 C10 1_555 1_555
H1 C2 1_555 1_555
H2 C3 1_555 1_555
H3 C3 1_555 1_555
H4 C3 1_555 1_555
H5 C4 1_555 1_555
H6 C5 1_555 1_555
H7 C6 1_555 1_555
H8 C7 1_555 1_555
H9 C8 1_555 1_555
H10 C12 1_555 1_555
H11 C13 1_555 1_555
H12 C14 1_555 1_555
H13 C15 1_555 1_555
H14 C17 1_555 1_555
H15 C19 1_555 1_555
H16 C20 1_555 1_555
H17 C21 1_555 1_555
H18 C22 1_555 1_555
C4 C9 1_555 1_555
C18 C23 1_555 1_555
C22 C23 1_555 1_555

#END
