
#######################################################################
#
#                 Cambridge Crystallographic Data Centre
#                                CCDC 
#
#######################################################################
#
# If this CIF has been generated from an entry in the Cambridge 
# Structural Database, then it will include bibliographic, chemical, 
# crystal, experimental, refinement or atomic coordinate data resulting 
# from the CCDC's data processing and validation procedures.
#
#######################################################################

data_NUKNAI
_chemical_formula_moiety         'C22 H22 O2'
_chemical_name_systematic        
'rac-(E)-2-Methylcyclohexyl anthracene-9-carboxylate'
_symmetry_cell_setting           triclinic
_symmetry_space_group_name_H-M   'P -1'
_symmetry_Int_Tables_number      2
_space_group_name_Hall           '-P 1'
loop_
_symmetry_equiv_pos_site_id
_symmetry_equiv_pos_as_xyz
1 x,y,z
2 -x,-y,-z
_cell_length_a                   8.796(2)
_cell_length_b                   9.850(2)
_cell_length_c                   11.442(3)
_cell_angle_alpha                103.16(2)
_cell_angle_beta                 99.52(2)
_cell_angle_gamma                112.01(2)
_cell_volume                     859.749
_exptl_crystal_colour            yellow
_exptl_crystal_description       rectangular
_chemical_melting_point          136-138deg.C
_cell_formula_units_Z            2
_exptl_crystal_recrystallization_method hexane
loop_
_atom_site_label
_atom_site_type_symbol
_atom_site_fract_x
_atom_site_fract_y
_atom_site_fract_z
O1 O 0.2629(2) 0.6774(2) 0.5848(2)
O2 O 0.1553(2) 0.8008(2) 0.7129(2)
C1 C 0.3253(4) 0.6580(3) 0.8984(3)
C2 C 0.3466(4) 0.6057(4) 0.9963(3)
C3 C 0.5034(4) 0.6778(4) 1.0907(3)
C4 C 0.6356(4) 0.7996(4) 1.0837(3)
C5 C 0.8732(4) 1.1697(4) 0.8618(3)
C6 C 0.8532(4) 1.2283(4) 0.7682(3)
C7 C 0.6933(4) 1.1652(3) 0.6777(3)
C8 C 0.5603(3) 1.0421(3) 0.6831(3)
C9 C 0.4416(3) 0.8467(3) 0.7873(2)
C10 C 0.7526(3) 0.9828(3) 0.9708(3)
C11 C 0.4588(3) 0.7872(3) 0.8866(3)
C12 C 0.6185(4) 0.8586(3) 0.9817(2)
C13 C 0.7364(3) 1.0425(3) 0.8736(3)
C14 C 0.5760(3) 0.9741(3) 0.7790(2)
C15 C 0.2785(3) 0.7644(3) 0.6829(2)
C16 C -0.0119(3) 0.7260(3) 0.6191(2)
C17 C -0.0077(4) 0.8113(4) 0.5246(3)
C18 C -0.1834(4) 0.7423(4) 0.4301(3)
C19 C -0.3161(4) 0.7472(4) 0.4975(3)
C20 C -0.3168(3) 0.6657(4) 0.5944(3)
C21 C -0.1433 0.7290 0.6889
C22 C -0.1521 0.6387 0.7802
H1 H 0.2178 0.6067 0.8351
H2 H 0.2540 0.5188 1.0021
H3 H 0.5164 0.6400 1.1603
H4 H 0.7420 0.8467 1.1479
H5 H 0.9825 1.2149 0.9225
H6 H 0.9482 1.3133 0.7625
H7 H 0.6790 1.2098 0.6127
H8 H 0.4529 0.9997 0.6207
H9 H 0.8604 1.0289 1.0333
H10 H -0.0410 0.6209 0.5733
H11 H 0.0244 0.9180 0.5670
H12 H 0.0746 0.8030 0.4812
H13 H -0.2130 0.6370 0.3844
H14 H -0.1801 0.8007 0.3731
H15 H -0.2905 0.8530 0.5383
H16 H -0.4267 0.6982 0.4380
H17 H -0.3976 0.6764 0.6385
H18 H -0.3514 0.5583 0.5522
H19 H -0.1096 0.8340 0.7378
H20 H -0.0424 0.6805 0.8397
H21 H -0.1845 0.5324 0.7357
H22 H -0.2352 0.6457 0.8233
loop_
_geom_bond_atom_site_label_1
_geom_bond_atom_site_label_2
_geom_bond_site_symmetry_1
_geom_bond_site_symmetry_2
O1 C15 1_555 1_555
O2 C15 1_555 1_555
C1 C2 1_555 1_555
C2 C3 1_555 1_555
C3 C4 1_555 1_555
C4 C12 1_555 1_555
C5 C6 1_555 1_555
C6 C7 1_555 1_555
C7 C8 1_555 1_555
C8 C14 1_555 1_555
C9 C11 1_555 1_555
C10 C12 1_555 1_555
C11 C1 1_555 1_555
C12 C11 1_555 1_555
C13 C5 1_555 1_555
C14 C9 1_555 1_555
C15 C9 1_555 1_555
C16 O2 1_555 1_555
C17 C16 1_555 1_555
C18 C17 1_555 1_555
C19 C18 1_555 1_555
C20 C19 1_555 1_555
C21 C16 1_555 1_555
C22 C21 1_555 1_555
H1 C1 1_555 1_555
H2 C2 1_555 1_555
H3 C3 1_555 1_555
H4 C4 1_555 1_555
H5 C5 1_555 1_555
H6 C6 1_555 1_555
H7 C7 1_555 1_555
H8 C8 1_555 1_555
H9 C10 1_555 1_555
H10 C16 1_555 1_555
H11 C17 1_555 1_555
H12 C17 1_555 1_555
H13 C18 1_555 1_555
H14 C18 1_555 1_555
H15 C19 1_555 1_555
H16 C19 1_555 1_555
H17 C20 1_555 1_555
H18 C20 1_555 1_555
H19 C21 1_555 1_555
H20 C22 1_555 1_555
H21 C22 1_555 1_555
H22 C22 1_555 1_555
C10 C13 1_555 1_555
C13 C14 1_555 1_555
C20 C21 1_555 1_555

#END
