
#######################################################################
#
#                 Cambridge Crystallographic Data Centre
#                                CCDC 
#
#######################################################################
#
# If this CIF has been generated from an entry in the Cambridge 
# Structural Database, then it will include bibliographic, chemical, 
# crystal, experimental, refinement or atomic coordinate data resulting 
# from the CCDC's data processing and validation procedures.
#
#######################################################################

data_NUKNEM
_chemical_formula_moiety         'C25 H28 O2'
_chemical_name_systematic        
'rel-(1R,2S,5R)-Menthyl anthracene-9-carboxylate'
_symmetry_cell_setting           monoclinic
_symmetry_space_group_name_H-M   'P 21/n'
_symmetry_Int_Tables_number      14
_space_group_name_Hall           '-P 2yn'
loop_
_symmetry_equiv_pos_site_id
_symmetry_equiv_pos_as_xyz
1 x,y,z
2 1/2-x,1/2+y,1/2-z
3 -x,-y,-z
4 1/2+x,1/2-y,1/2+z
_cell_length_a                   11.470(4)
_cell_length_b                   9.593(2)
_cell_length_c                   19.737(5)
_cell_angle_alpha                90
_cell_angle_beta                 104.67(3)
_cell_angle_gamma                90
_cell_volume                     2100.9
_exptl_crystal_colour            colorless
_exptl_crystal_description       cubes
_chemical_melting_point          187-188deg.C
_cell_formula_units_Z            4
_exptl_crystal_recrystallization_method ethanol
loop_
_atom_site_label
_atom_site_type_symbol
_atom_site_fract_x
_atom_site_fract_y
_atom_site_fract_z
O1 O 0.0408(5) 0.4435(5) 0.2409(4)
O2 O 0.1410(6) 0.2512(4) 0.2373(2)
C1 C -0.2248(7) 0.0489(7) 0.3477(4)
C2 C -0.1490(10) 0.0746(9) 0.4102(4)
C3 C -0.0434(8) 0.1514(8) 0.4177(4)
C4 C -0.0150(7) 0.2046(6) 0.3590(3)
C5 C -0.0914(6) 0.1798(6) 0.2916(3)
C6 C -0.1979(7) 0.1013(6) 0.2851(3)
C7 C -0.0647(7) 0.2302(6) 0.2307(3)
C8 C -0.1182(8) 0.2529(7) 0.1000(4)
C9 C -0.1964(11) 0.2251(9) 0.0383(4)
C10 C -0.2967(11) 0.1446(10) 0.0350(5)
C11 C -0.3247(7) 0.0945(8) 0.0917(5)
C12 C -0.2472(8) 0.1234(7) 0.1588(4)
C13 C -0.1428(7) 0.2027(6) 0.1637(3)
C14 C -0.2732(6) 0.0749(6) 0.2206(4)
C15 C 0.0429(9) 0.3198(8) 0.2363(3)
C16 C 0.2540(7) 0.3269(6) 0.2453(3)
C17 C 0.3219(7) 0.3158(6) 0.3221(3)
C18 C 0.4462(7) 0.3810(7) 0.3367(3)
C19 C 0.5149(6) 0.3187(7) 0.2860(4)
C20 C 0.4464(8) 0.3273(7) 0.2114(3)
C21 C 0.3232(7) 0.2614(5) 0.1966(3)
C22 C 0.5141(7) 0.3668(8) 0.4125(3)
C23 C 0.2517(7) 0.2647(6) 0.1210(3)
C24 C 0.2216(6) 0.4073(7) 0.0889(3)
C25 C 0.3168(7) 0.1810(7) 0.0739(3)
H1 H -0.2968 -0.0052 0.3433
H2 H -0.1688 0.0387 0.4513
H3 H 0.0087 0.1697 0.4631
H4 H 0.0569 0.2587 0.3633
H5 H -0.0471 0.3076 0.1029
H6 H -0.1790 0.2602 -0.0036
H7 H -0.3505 0.1250 -0.0098
H8 H -0.3959 0.0398 0.0889
H9 H -0.3473 0.0263 0.2182
H10 H 0.2373 0.4230 0.2331
H11 H 0.3298 0.2192 0.3352
H12 H 0.2764 0.3616 0.3503
H13 H 0.4350 0.4780 0.3249
H14 H 0.5286 0.2218 0.2973
H15 H 0.5920 0.3634 0.2931
H16 H 0.4928 0.2867 0.1822
H17 H 0.4355 0.4244 0.1997
H18 H 0.3365 0.1653 0.2100
H19 H 0.4663 0.4095 0.4403
H20 H 0.5276 0.2706 0.4256
H21 H 0.5901 0.4141 0.4204
H22 H 0.1769 0.2180 0.1189
H23 H 0.1783 0.4606 0.1157
H24 H 0.2965 0.4530 0.0897
H25 H 0.1742 0.3999 0.0414
H26 H 0.3349 0.0883 0.0918
H27 H 0.2683 0.1763 0.0265
H28 H 0.3905 0.2294 0.0749
loop_
_geom_bond_atom_site_label_1
_geom_bond_atom_site_label_2
_geom_bond_site_symmetry_1
_geom_bond_site_symmetry_2
O1 C15 1_555 1_555
O2 C15 1_555 1_555
C1 C2 1_555 1_555
C2 C3 1_555 1_555
C3 C4 1_555 1_555
C4 C5 1_555 1_555
C5 C6 1_555 1_555
C6 C1 1_555 1_555
C7 C5 1_555 1_555
C8 C9 1_555 1_555
C9 C10 1_555 1_555
C10 C11 1_555 1_555
C11 C12 1_555 1_555
C12 C13 1_555 1_555
C13 C7 1_555 1_555
C14 C6 1_555 1_555
C15 C7 1_555 1_555
C16 O2 1_555 1_555
C17 C16 1_555 1_555
C18 C17 1_555 1_555
C19 C18 1_555 1_555
C20 C19 1_555 1_555
C21 C16 1_555 1_555
C22 C18 1_555 1_555
C23 C21 1_555 1_555
C24 C23 1_555 1_555
C25 C23 1_555 1_555
H1 C1 1_555 1_555
H2 C2 1_555 1_555
H3 C3 1_555 1_555
H4 C4 1_555 1_555
H5 C8 1_555 1_555
H6 C9 1_555 1_555
H7 C10 1_555 1_555
H8 C11 1_555 1_555
H9 C14 1_555 1_555
H10 C16 1_555 1_555
H11 C17 1_555 1_555
H12 C17 1_555 1_555
H13 C18 1_555 1_555
H14 C19 1_555 1_555
H15 C19 1_555 1_555
H16 C20 1_555 1_555
H17 C20 1_555 1_555
H18 C21 1_555 1_555
H19 C22 1_555 1_555
H20 C22 1_555 1_555
H21 C22 1_555 1_555
H22 C23 1_555 1_555
H23 C24 1_555 1_555
H24 C24 1_555 1_555
H25 C24 1_555 1_555
H26 C25 1_555 1_555
H27 C25 1_555 1_555
H28 C25 1_555 1_555
C8 C13 1_555 1_555
C12 C14 1_555 1_555
C20 C21 1_555 1_555

#END
