
#######################################################################
#
#                 Cambridge Crystallographic Data Centre
#                                CCDC 
#
#######################################################################
#
# If this CIF has been generated from an entry in the Cambridge 
# Structural Database, then it will include bibliographic, chemical, 
# crystal, experimental, refinement or atomic coordinate data resulting 
# from the CCDC's data processing and validation procedures.
#
#######################################################################

data_NUKNIQ
_chemical_name_common            'L-Menthyl anthracene-9-carboxylate'
_chemical_formula_moiety         'C25 H28 O2'
_chemical_name_systematic        '(1R,2S,5R)-Menthyl anthracene-9-carboxylate'
_symmetry_cell_setting           monoclinic
_symmetry_space_group_name_H-M   'P 21'
_symmetry_Int_Tables_number      4
_space_group_name_Hall           'P 2yb'
loop_
_symmetry_equiv_pos_site_id
_symmetry_equiv_pos_as_xyz
1 x,y,z
2 -x,1/2+y,-z
_cell_length_a                   9.972(4)
_cell_length_b                   9.632(3)
_cell_length_c                   11.499(4)
_cell_angle_alpha                90
_cell_angle_beta                 104.79(3)
_cell_angle_gamma                90
_cell_volume                     1067.89
_exptl_crystal_colour            colorless
_exptl_crystal_description       needles
_chemical_melting_point          207-208deg.C
_cell_formula_units_Z            2
_exptl_crystal_recrystallization_method cyclohexane
loop_
_atom_site_label
_atom_site_type_symbol
_atom_site_fract_x
_atom_site_fract_y
_atom_site_fract_z
C1 C 0.1918(7) 0.5000 0.6110(6)
C2 C 0.0717(8) 0.5252(10) 0.5300(7)
C3 C 0.0709(11) 0.6127(12) 0.4310(8)
C4 C 0.1882(11) 0.6688(10) 0.4180(7)
C5 C 0.6965(8) 0.7182(8) 0.5495(7)
C6 C 0.8102(9) 0.6920(10) 0.6259(7)
C7 C 0.8217(7) 0.6056(11) 0.7260(8)
C8 C 0.7015(8) 0.5469(8) 0.7467(6)
C9 C 0.4460(6) 0.5199(6) 0.6836(4)
C10 C 0.4446(7) 0.6873(7) 0.4858(5)
C11 C 0.3225(6) 0.5499(7) 0.6012(4)
C12 C 0.3149(8) 0.6365(7) 0.4969(6)
C13 C 0.5657(7) 0.6582(7) 0.5612(6)
C14 C 0.5705(6) 0.5726(7) 0.6652(5)
C15 C 0.4496(7) 0.4291(8) 0.7849(5)
C16 C 0.4701(6) 0.4244(7) 0.9999(5)
C17 C 0.6202(7) 0.4283(7) 1.0628(5)
C18 C 0.6469(8) 0.3648(9) 1.1849(6)
C19 C 0.5586(11) 0.4343(9) 1.2560(6)
C20 C 0.4087(10) 0.4324(10) 1.1909(7)
C21 C 0.3810(7) 0.4963(7) 1.0709(4)
C22 C 0.2260(8) 0.5025(9) 0.9995(6)
C23 C 0.1378(9) 0.5911(15) 1.0615(9)
C24 C 0.1651(9) 0.3591(12) 0.9703(8)
C25 C 0.8003(10) 0.3693(12) 1.2504(8)
O1 O 0.4518(9) 0.3047(6) 0.7824(4)
O2 O 0.4508(4) 0.4984(4) 0.8830(3)
H1 H 0.1895 0.4449 0.6800
H2 H -0.0129 0.4847 0.5394
H3 H -0.0150 0.6312 0.3727
H4 H 0.1846 0.7324 0.3531
H5 H 0.6964 0.7786 0.4830
H6 H 0.8933 0.7340 0.6146
H7 H 0.9105 0.5866 0.7799
H8 H 0.7070 0.4889 0.8157
H9 H 0.4449 0.7463 0.4186
H10 H 0.4417 0.3290 0.9890
H11 H 0.6718 0.3794 1.0158
H12 H 0.6489 0.5237 1.0708
H13 H 0.6241 0.2679 1.1758
H14 H 0.5882 0.5290 1.2709
H15 H 0.5704 0.3865 1.3311
H16 H 0.3579 0.4826 1.2379
H17 H 0.3773 0.3379 1.1820
H18 H 0.4070 0.5922 1.0832
H19 H 0.2263 0.5489 0.9257
H20 H 0.1786 0.6813 1.0801
H21 H 0.1316 0.5460 1.1343
H22 H 0.0467 0.6006 1.0086
H23 H 0.2212 0.3059 0.9307
H24 H 0.0729 0.3672 0.9198
H25 H 0.1618 0.3134 1.0443
H26 H 0.8528 0.3175 1.2059
H27 H 0.8131 0.3294 1.3290
H28 H 0.8316 0.4639 1.2580
loop_
_geom_bond_atom_site_label_1
_geom_bond_atom_site_label_2
_geom_bond_site_symmetry_1
_geom_bond_site_symmetry_2
C1 C2 1_555 1_555
C2 C3 1_555 1_555
C3 C4 1_555 1_555
C4 C12 1_555 1_555
C5 C6 1_555 1_555
C6 C7 1_555 1_555
C7 C8 1_555 1_555
C8 C14 1_555 1_555
C9 C11 1_555 1_555
C10 C12 1_555 1_555
C11 C1 1_555 1_555
C12 C11 1_555 1_555
C13 C5 1_555 1_555
C14 C9 1_555 1_555
C15 C9 1_555 1_555
C16 C17 1_555 1_555
C17 C18 1_555 1_555
C18 C19 1_555 1_555
C19 C20 1_555 1_555
C20 C21 1_555 1_555
C21 C16 1_555 1_555
C22 C21 1_555 1_555
C23 C22 1_555 1_555
C24 C22 1_555 1_555
C25 C18 1_555 1_555
O1 C15 1_555 1_555
O2 C15 1_555 1_555
H1 C1 1_555 1_555
H2 C2 1_555 1_555
H3 C3 1_555 1_555
H4 C4 1_555 1_555
H5 C5 1_555 1_555
H6 C6 1_555 1_555
H7 C7 1_555 1_555
H8 C8 1_555 1_555
H9 C10 1_555 1_555
H10 C16 1_555 1_555
H11 C17 1_555 1_555
H12 C17 1_555 1_555
H13 C18 1_555 1_555
H14 C19 1_555 1_555
H15 C19 1_555 1_555
H16 C20 1_555 1_555
H17 C20 1_555 1_555
H18 C21 1_555 1_555
H19 C22 1_555 1_555
H20 C23 1_555 1_555
H21 C23 1_555 1_555
H22 C23 1_555 1_555
H23 C24 1_555 1_555
H24 C24 1_555 1_555
H25 C24 1_555 1_555
H26 C25 1_555 1_555
H27 C25 1_555 1_555
H28 C25 1_555 1_555
C10 C13 1_555 1_555
C13 C14 1_555 1_555
C16 O2 1_555 1_555

#END
