
#######################################################################
#
#                 Cambridge Crystallographic Data Centre
#                                CCDC 
#
#######################################################################
#
# If this CIF has been generated from an entry in the Cambridge 
# Structural Database, then it will include bibliographic, chemical, 
# crystal, experimental, refinement or atomic coordinate data resulting 
# from the CCDC's data processing and validation procedures.
#
#######################################################################

data_NUKWOG01
_chemical_formula_moiety         'C7 H6 O2,C4 H5 N3'
_chemical_name_systematic        '2-Aminopyrimidine benzoic acid'
_symmetry_cell_setting           monoclinic
_symmetry_space_group_name_H-M   'P 21/n'
_symmetry_Int_Tables_number      14
_space_group_name_Hall           '-P 2yn'
loop_
_symmetry_equiv_pos_site_id
_symmetry_equiv_pos_as_xyz
1 x,y,z
2 1/2-x,1/2+y,1/2-z
3 -x,-y,-z
4 1/2+x,1/2-y,1/2+z
_cell_length_a                   5.3710(8)
_cell_length_b                   17.522(2)
_cell_length_c                   11.6621(9)
_cell_angle_alpha                90
_cell_angle_beta                 90.736(11)
_cell_angle_gamma                90
_cell_volume                     1097.44
_exptl_crystal_description       block
_cell_formula_units_Z            4
loop_
_atom_site_label
_atom_site_type_symbol
_atom_site_fract_x
_atom_site_fract_y
_atom_site_fract_z
O1 O 0.0404(9) 0.9072(3) 0.1184(3)
H1 H -0.0440 0.9394 0.1510
O2 O 0.1772(9) 0.8849(3) 0.2974(3)
C1 C 0.3516(11) 0.8141(4) 0.1467(5)
C2 C 0.1833(12) 0.8713(4) 0.1947(5)
C3 C 0.5435(12) 0.7843(5) 0.2143(6)
H2 H 0.5619 0.8005 0.2899
C4 C 0.3240(13) 0.7860(5) 0.0352(5)
H3 H 0.1931 0.8032 -0.0109
C5 C 0.4877(14) 0.7334(5) -0.0067(6)
H4 H 0.4693 0.7164 -0.0819
C6 C 0.6789(13) 0.7051(4) 0.0603(6)
H5 H 0.7882 0.6689 0.0315
C7 C 0.7051(13) 0.7319(5) 0.1717(7)
H6 H 0.8345 0.7137 0.2180
N1 N -0.2857(10) 1.0054(3) 0.2117(4)
N2 N -0.5685(10) 1.0452(3) 0.3564(4)
N3 N -0.2296(11) 0.9714(4) 0.4010(4)
H7 H -0.3276 0.9523 0.4513
H8 H -0.1504 0.9352 0.3674
C8 C -0.6978(14) 1.0826(5) 0.2760(5)
H9 H -0.8416 1.1083 0.2971
C9 C -0.3697(13) 1.0094(4) 0.3211(5)
C10 C -0.6276(15) 1.0848(5) 0.1632(6)
H10 H -0.7189 1.1120 0.1086
C11 C -0.4184(12) 1.0453(4) 0.1345(6)
H11 H -0.3663 1.0462 0.0588
loop_
_geom_bond_atom_site_label_1
_geom_bond_atom_site_label_2
_geom_bond_site_symmetry_1
_geom_bond_site_symmetry_2
O1 H1 1_555 1_555
O2 C2 1_555 1_555
C1 C2 1_555 1_555
C2 O1 1_555 1_555
C3 C1 1_555 1_555
H2 C3 1_555 1_555
C4 C1 1_555 1_555
H3 C4 1_555 1_555
C5 C4 1_555 1_555
H4 C5 1_555 1_555
C6 C5 1_555 1_555
H5 C6 1_555 1_555
C7 C3 1_555 1_555
H6 C7 1_555 1_555
N1 C9 1_555 1_555
N2 C8 1_555 1_555
N3 H7 1_555 1_555
H8 N3 1_555 1_555
C8 H9 1_555 1_555
C9 N2 1_555 1_555
C10 C8 1_555 1_555
H10 C10 1_555 1_555
C11 N1 1_555 1_555
H11 C11 1_555 1_555
C6 C7 1_555 1_555
N3 C9 1_555 1_555
C10 C11 1_555 1_555

#END
