
#######################################################################
#
#                 Cambridge Crystallographic Data Centre
#                                CCDC 
#
#######################################################################
#
# If this CIF has been generated from an entry in the Cambridge 
# Structural Database, then it will include bibliographic, chemical, 
# crystal, experimental, refinement or atomic coordinate data resulting 
# from the CCDC's data processing and validation procedures.
#
#######################################################################

data_NUKZAV01
_chemical_name_common            'Nicotinamide suberic acid'
_chemical_formula_moiety         'C6 H6 N2 O1,C8 H14 O4'
_chemical_name_systematic        'Nicotinamide octanedioic acid'
_symmetry_cell_setting           monoclinic
_symmetry_space_group_name_H-M   'P 21/c'
_symmetry_Int_Tables_number      14
_space_group_name_Hall           '-P 2ybc'
loop_
_symmetry_equiv_pos_site_id
_symmetry_equiv_pos_as_xyz
1 x,y,z
2 -x,1/2+y,1/2-z
3 -x,-y,-z
4 x,1/2-y,1/2+z
_cell_length_a                   4.967(5)
_cell_length_b                   35.16(4)
_cell_length_c                   8.880(10)
_cell_angle_alpha                90
_cell_angle_beta                 93.977(14)
_cell_angle_gamma                90
_cell_volume                     1547.07
_exptl_crystal_colour            colorless
_exptl_crystal_description       needle
_cell_formula_units_Z            4
loop_
_atom_site_label
_atom_site_type_symbol
_atom_site_fract_x
_atom_site_fract_y
_atom_site_fract_z
O1 O 0.1404(3) 0.80175(5) 0.0005(2)
N1 N 0.3590(4) 0.69206(5) -0.0899(2)
N2 N 0.4869(4) 0.82715(6) -0.1127(2)
H1 H 0.4440 0.8498 -0.0861
H2 H 0.6250 0.8237 -0.1645
C1 C 0.3412(5) 0.79784(7) -0.0742(3)
C2 C 0.4241(5) 0.75898(6) -0.1189(3)
C3 C 0.2966(5) 0.72796(7) -0.0590(3)
H3 H 0.1608 0.7324 0.0058
C4 C 0.5535(5) 0.68608(7) -0.1826(3)
H4 H 0.5978 0.6611 -0.2055
C5 C 0.6920(5) 0.71508(7) -0.2463(3)
H5 H 0.8281 0.7098 -0.3100
C6 C 0.6266(5) 0.75201(7) -0.2146(3)
H6 H 0.7173 0.7721 -0.2568
O2 O 0.0324(4) 0.36422(5) 0.3855(3)
H7 H -0.0477 0.3467 0.4241
O3 O -0.0957(4) 0.66894(5) 0.1612(2)
O4 O 0.1240(4) 0.63155(5) 0.0122(2)
H8 H 0.1929 0.6518 -0.0103
O5 O -0.3036(4) 0.39759(5) 0.4655(3)
C7 C -0.1047(6) 0.39573(7) 0.3966(3)
C8 C 0.0190(6) 0.42829(7) 0.3199(4)
H9 H 0.0586 0.4204 0.2191
H10 H 0.1891 0.4346 0.3746
C9 C -0.1530(6) 0.46346(7) 0.3078(4)
H11 H -0.2079 0.4700 0.4072
H12 H -0.3148 0.4581 0.2439
C10 C -0.0091(6) 0.49729(7) 0.2434(4)
H13 H 0.1521 0.5026 0.3080
H14 H 0.0479 0.4904 0.1448
C11 C -0.1741(7) 0.53279(7) 0.2280(4)
H15 H -0.2396 0.5389 0.3255
H16 H -0.3300 0.5279 0.1588
C12 C -0.0237(6) 0.56697(7) 0.1719(4)
H17 H 0.1372 0.5711 0.2381
H18 H 0.0334 0.5614 0.0719
C13 C -0.1865(6) 0.60251(8) 0.1647(4)
H19 H -0.2490 0.6072 0.2641
H20 H -0.3448 0.5983 0.0965
C14 C -0.0474(5) 0.63755(7) 0.1148(3)
loop_
_geom_bond_atom_site_label_1
_geom_bond_atom_site_label_2
_geom_bond_site_symmetry_1
_geom_bond_site_symmetry_2
O1 C1 1_555 1_555
N1 C3 1_555 1_555
N2 H1 1_555 1_555
H2 N2 1_555 1_555
C1 N2 1_555 1_555
C2 C1 1_555 1_555
C3 C2 1_555 1_555
H3 C3 1_555 1_555
C4 N1 1_555 1_555
H4 C4 1_555 1_555
C5 C4 1_555 1_555
H5 C5 1_555 1_555
C6 C2 1_555 1_555
H6 C6 1_555 1_555
O2 H7 1_555 1_555
O3 C14 1_555 1_555
O4 H8 1_555 1_555
O5 C7 1_555 1_555
C7 O2 1_555 1_555
C8 C7 1_555 1_555
H9 C8 1_555 1_555
H10 C8 1_555 1_555
C9 C8 1_555 1_555
H11 C9 1_555 1_555
H12 C9 1_555 1_555
C10 C9 1_555 1_555
H13 C10 1_555 1_555
H14 C10 1_555 1_555
C11 C10 1_555 1_555
H15 C11 1_555 1_555
H16 C11 1_555 1_555
C12 C11 1_555 1_555
H17 C12 1_555 1_555
H18 C12 1_555 1_555
C13 C12 1_555 1_555
H19 C13 1_555 1_555
H20 C13 1_555 1_555
C14 O4 1_555 1_555
C5 C6 1_555 1_555
C13 C14 1_555 1_555

#END
