
#######################################################################
#
#                 Cambridge Crystallographic Data Centre
#                                CCDC 
#
#######################################################################
#
# If this CIF has been generated from an entry in the Cambridge 
# Structural Database, then it will include bibliographic, chemical, 
# crystal, experimental, refinement or atomic coordinate data resulting 
# from the CCDC's data processing and validation procedures.
#
#######################################################################

data_NUKZIE
_chemical_formula_moiety         'C24 H24 O5 S1'
_chemical_name_systematic        
5-((4-methoxyphenyl)sulfonyl)-2,6-diphenyltetrahydro-2H-pyran-3-ol
_symmetry_cell_setting           monoclinic
_symmetry_space_group_name_H-M   'P c'
_symmetry_Int_Tables_number      7
_space_group_name_Hall           'P -2yc'
loop_
_symmetry_equiv_pos_site_id
_symmetry_equiv_pos_as_xyz
1 x,y,z
2 x,-y,1/2+z
_cell_length_a                   10.3109(3)
_cell_length_b                   12.0886(3)
_cell_length_c                   8.5131(2)
_cell_angle_alpha                90
_cell_angle_beta                 91.7850(10)
_cell_angle_gamma                90
_cell_volume                     1060.59
_exptl_crystal_colour            colorless
_exptl_crystal_description       tabular
_cell_formula_units_Z            2
loop_
_atom_site_label
_atom_site_type_symbol
_atom_site_fract_x
_atom_site_fract_y
_atom_site_fract_z
S1 S -0.04942(9) 0.16542(7) 0.24310(10)
O1 O -0.5200(3) 0.1269(3) -0.1628(4)
O2 O 0.2329(3) 0.2749(2) 0.1385(3)
O3 O -0.0299(3) 0.2798(2) 0.2855(4)
O4 O -0.0651(3) 0.0856(3) 0.3675(4)
O5 O 0.3567(3) 0.0742(3) 0.4314(4)
H1 H 0.4018 0.0361 0.3752
C1 C -0.5739(5) 0.2204(5) -0.2446(7)
H2 H -0.5923 0.2778 -0.1706
H3 H -0.6526 0.1990 -0.2996
H4 H -0.5129 0.2473 -0.3185
C2 C -0.4090(4) 0.1416(4) -0.0735(5)
C3 C -0.3639(5) 0.0492(4) 0.0085(6)
H5 H -0.4084 -0.0175 -0.0010
C4 C -0.2548(4) 0.0557(4) 0.1026(6)
H6 H -0.2245 -0.0063 0.1570
C5 C -0.1884(4) 0.1568(3) 0.1169(5)
C6 C 0.0847(4) 0.1156(3) 0.1281(4)
H7 H 0.0494 0.0623 0.0513
C7 C 0.1590(4) 0.2055(3) 0.0364(4)
H8 H 0.2209 0.1665 -0.0289
C8 C 0.3303(4) 0.2175(3) 0.2328(5)
H9 H 0.3893 0.1790 0.1633
C9 C 0.4051(4) 0.3036(4) 0.3257(5)
C10 C 0.3414(5) 0.3886(4) 0.4014(6)
H10 H 0.2516 0.3945 0.3914
C11 C 0.4110(6) 0.4644(5) 0.4916(8)
H11 H 0.3678 0.5205 0.5434
C12 C 0.5458(7) 0.4570(5) 0.5050(7)
H12 H 0.5928 0.5083 0.5651
C13 C 0.1839(4) 0.0541(3) 0.2359(5)
H13 H 0.1381 0.0037 0.3034
H14 H 0.2409 0.0105 0.1718
C14 C 0.2646(4) 0.1331(3) 0.3368(5)
H15 H 0.2064 0.1727 0.4063
C15 C 0.0766(4) 0.2774(3) -0.0737(5)
C16 C 0.0133(5) 0.2299(4) -0.2039(5)
H16 H 0.0214 0.1544 -0.2222
C17 C -0.0615(6) 0.2941(5) -0.3065(6)
H17 H -0.1032 0.2618 -0.3934
C18 C -0.0739(6) 0.4049(5) -0.2797(6)
H18 H -0.1242 0.4479 -0.3487
C19 C -0.0126(5) 0.4534(4) -0.1511(7)
H19 H -0.0220 0.5289 -0.1334
C20 C 0.0629(5) 0.3901(3) -0.0484(6)
H20 H 0.1046 0.4232 0.0380
C21 C 0.6082(6) 0.3741(6) 0.4294(7)
H21 H 0.6982 0.3691 0.4379
C22 C 0.5390(4) 0.2976(5) 0.3403(6)
H22 H 0.5829 0.2415 0.2894
C23 C -0.2329(4) 0.2487(4) 0.0367(6)
H23 H -0.1889 0.3156 0.0470
C24 C -0.3439(4) 0.2412(4) -0.0600(6)
H24 H -0.3741 0.3029 -0.1151
loop_
_geom_bond_atom_site_label_1
_geom_bond_atom_site_label_2
_geom_bond_site_symmetry_1
_geom_bond_site_symmetry_2
S1 O3 1_555 1_555
O1 C1 1_555 1_555
O2 C7 1_555 1_555
O4 S1 1_555 1_555
O5 H1 1_555 1_555
C1 H2 1_555 1_555
H3 C1 1_555 1_555
H4 C1 1_555 1_555
C2 O1 1_555 1_555
C3 C2 1_555 1_555
H5 C3 1_555 1_555
C4 C3 1_555 1_555
H6 C4 1_555 1_555
C5 S1 1_555 1_555
C6 S1 1_555 1_555
H7 C6 1_555 1_555
C7 C6 1_555 1_555
H8 C7 1_555 1_555
C8 O2 1_555 1_555
H9 C8 1_555 1_555
C9 C8 1_555 1_555
C10 C9 1_555 1_555
H10 C10 1_555 1_555
C11 C10 1_555 1_555
H11 C11 1_555 1_555
C12 C11 1_555 1_555
H12 C12 1_555 1_555
C13 C6 1_555 1_555
H13 C13 1_555 1_555
H14 C13 1_555 1_555
C14 O5 1_555 1_555
H15 C14 1_555 1_555
C15 C7 1_555 1_555
C16 C15 1_555 1_555
H16 C16 1_555 1_555
C17 C16 1_555 1_555
H17 C17 1_555 1_555
C18 C17 1_555 1_555
H18 C18 1_555 1_555
C19 C18 1_555 1_555
H19 C19 1_555 1_555
C20 C15 1_555 1_555
H20 C20 1_555 1_555
C21 C12 1_555 1_555
H21 C21 1_555 1_555
C22 C9 1_555 1_555
H22 C22 1_555 1_555
C23 C5 1_555 1_555
H23 C23 1_555 1_555
C24 C2 1_555 1_555
H24 C24 1_555 1_555
C4 C5 1_555 1_555
C8 C14 1_555 1_555
C13 C14 1_555 1_555
C19 C20 1_555 1_555
C21 C22 1_555 1_555
C23 C24 1_555 1_555

#END
