
#######################################################################
#
#                 Cambridge Crystallographic Data Centre
#                                CCDC 
#
#######################################################################
#
# If this CIF has been generated from an entry in the Cambridge 
# Structural Database, then it will include bibliographic, chemical, 
# crystal, experimental, refinement or atomic coordinate data resulting 
# from the CCDC's data processing and validation procedures.
#
#######################################################################

data_NULDUT01
_chemical_formula_moiety         'C24 H22 Cl2 N2 O4'
_chemical_name_systematic        
3,4-trans-4,5-trans-2-Amino-3-cyano-1,3-diethoxycarbonyl-4,5-bis(4-chlorophenyl)cyclopentene
_symmetry_cell_setting           monoclinic
_symmetry_space_group_name_H-M   'P 21/c'
_symmetry_Int_Tables_number      14
_space_group_name_Hall           '-P 2ybc'
loop_
_symmetry_equiv_pos_site_id
_symmetry_equiv_pos_as_xyz
1 x,y,z
2 -x,1/2+y,1/2-z
3 -x,-y,-z
4 x,1/2-y,1/2+z
_cell_length_a                   6.923(1)
_cell_length_b                   33.178(5)
_cell_length_c                   10.644(3)
_cell_angle_alpha                90
_cell_angle_beta                 99.86(2)
_cell_angle_gamma                90
_cell_volume                     2408.72
_exptl_crystal_colour            colorless
_chemical_melting_point          176-178deg.C
_cell_formula_units_Z            4
_exptl_crystal_recrystallization_method ethanol
loop_
_atom_site_label
_atom_site_type_symbol
_atom_site_fract_x
_atom_site_fract_y
_atom_site_fract_z
Cl1 Cl 0.0307(2) 0.45825(5) 0.1166(2)
Cl2 Cl 0.6705(3) 0.49486(5) -0.6703(1)
O1 O 0.5658(6) 0.30451(10) -0.5395(3)
O2 O 0.3879(5) 0.28339(10) -0.3956(3)
O3 O 0.7054(4) 0.28533(9) 0.0778(3)
O4 O 0.7347(5) 0.35228(9) 0.1097(2)
N1 N 0.7221(5) 0.26391(10) -0.1830(3)
N2 N 1.0093(7) 0.3372(1) -0.3642(4)
C1 C 0.7463(7) 0.4232(1) -0.3647(4)
C2 C 0.7730(8) 0.4528(1) -0.4538(5)
C3 C 0.633(1) 0.4586(2) -0.5586(5)
C4 C 0.4638(9) 0.4363(2) -0.5783(5)
C5 C 0.4359(7) 0.4066(1) -0.4887(4)
C6 C 0.5789(7) 0.3995(1) -0.3824(4)
C7 C 0.5489(6) 0.3655(1) -0.2934(4)
C8 C 0.6539(6) 0.3248(1) -0.3202(4)
C9 C 0.6736(6) 0.3034(1) -0.1921(3)
C10 C 0.6586(6) 0.3303(1) -0.0981(4)
C11 C 0.6157(6) 0.3728(1) -0.1486(4)
C12 C 0.8533(7) 0.3317(1) -0.3484(4)
C13 C 0.4611(6) 0.3947(1) -0.0895(4)
C14 C 0.2929(7) 0.3759(1) -0.0688(4)
C15 C 0.1560(7) 0.3951(2) -0.0087(5)
C16 C 0.1928(8) 0.4337(2) 0.0329(5)
C17 C 0.3560(10) 0.4537(2) 0.0122(6)
C18 C 0.4914(8) 0.4339(1) -0.0489(6)
C19 C 0.5330(8) 0.3030(1) -0.4332(4)
C20 C 0.2603(8) 0.2605(2) -0.4928(6)
C21 C 0.1811(9) 0.2270(2) -0.4303(9)
C22 C 0.6990(6) 0.3195(1) 0.0354(4)
C23 C 0.770(1) 0.3466(2) 0.2460(5)
C24 C 0.917(2) 0.3668(4) 0.3021(7)
H1 H 0.8715 0.4204 -0.2842
H2 H 0.9251 0.4709 -0.4301
H3 H 0.3332 0.4412 -0.6591
H4 H 0.2913 0.3889 -0.5013
H5 H 0.3825 0.3593 -0.3106
H6 H 0.7561 0.3924 -0.1342
H7 H 0.2543 0.3472 -0.1256
H8 H 0.0223 0.3774 0.0299
H9 H 0.4144 0.4809 0.0656
H10 H 0.6249 0.4492 -0.0626
H11 H 0.6976 0.2467 -0.2668
H12 H 0.7173 0.2497 -0.0967
H13 H 0.1503 0.2768 -0.5368
H14 H 0.3255 0.2502 -0.5590
H15 H 0.0984 0.2098 -0.4835
H16 H 0.2881 0.2116 -0.3822
H17 H 0.1079 0.2376 -0.3652
H18 H 0.8048 0.3190 0.2668
H19 H 0.6552 0.3528 0.2810
H20 H 1.0372 0.3566 0.3034
H21 H 0.9004 0.3743 0.3907
H22 H 0.9121 0.3946 0.2608
loop_
_geom_bond_atom_site_label_1
_geom_bond_atom_site_label_2
_geom_bond_site_symmetry_1
_geom_bond_site_symmetry_2
Cl1 C16 1_555 1_555
Cl2 C3 1_555 1_555
O1 C19 1_555 1_555
O2 C19 1_555 1_555
O3 C22 1_555 1_555
O4 C22 1_555 1_555
N1 C9 1_555 1_555
N2 C12 1_555 1_555
C1 C2 1_555 1_555
C2 C3 1_555 1_555
C3 C4 1_555 1_555
C4 C5 1_555 1_555
C5 C6 1_555 1_555
C6 C1 1_555 1_555
C7 C6 1_555 1_555
C8 C7 1_555 1_555
C9 C8 1_555 1_555
C10 C9 1_555 1_555
C11 C7 1_555 1_555
C12 C8 1_555 1_555
C13 C11 1_555 1_555
C14 C13 1_555 1_555
C15 C14 1_555 1_555
C16 C15 1_555 1_555
C17 C16 1_555 1_555
C18 C13 1_555 1_555
C19 C8 1_555 1_555
C20 O2 1_555 1_555
C21 C20 1_555 1_555
C22 C10 1_555 1_555
C23 O4 1_555 1_555
C24 C23 1_555 1_555
H1 C1 1_555 1_555
H2 C2 1_555 1_555
H3 C4 1_555 1_555
H4 C5 1_555 1_555
H5 C7 1_555 1_555
H6 C11 1_555 1_555
H7 C14 1_555 1_555
H8 C15 1_555 1_555
H9 C17 1_555 1_555
H10 C18 1_555 1_555
H11 N1 1_555 1_555
H12 N1 1_555 1_555
H13 C20 1_555 1_555
H14 C20 1_555 1_555
H15 C21 1_555 1_555
H16 C21 1_555 1_555
H17 C21 1_555 1_555
H18 C23 1_555 1_555
H19 C23 1_555 1_555
H20 C24 1_555 1_555
H21 C24 1_555 1_555
H22 C24 1_555 1_555
C10 C11 1_555 1_555
C17 C18 1_555 1_555

#END
