
#######################################################################
#
#                 Cambridge Crystallographic Data Centre
#                                CCDC 
#
#######################################################################
#
# If this CIF has been generated from an entry in the Cambridge 
# Structural Database, then it will include bibliographic, chemical, 
# crystal, experimental, refinement or atomic coordinate data resulting 
# from the CCDC's data processing and validation procedures.
#
#######################################################################

data_NULDUT03
_chemical_formula_moiety         'C24 H22 Cl2 N2 O4'
_chemical_name_systematic        
'Diethyl 2-amino-r-3-cyano-trans-4,cis-5-bis(4-chlorophenyl)-1,3-cyclopentenedicarboxylate'
_symmetry_cell_setting           monoclinic
_symmetry_space_group_name_H-M   'P 21/c'
_symmetry_Int_Tables_number      14
_space_group_name_Hall           '-P 2ybc'
loop_
_symmetry_equiv_pos_site_id
_symmetry_equiv_pos_as_xyz
1 x,y,z
2 -x,1/2+y,1/2-z
3 -x,-y,-z
4 x,1/2-y,1/2+z
_cell_length_a                   6.924(1)
_cell_length_b                   33.176(8)
_cell_length_c                   10.647(3)
_cell_angle_alpha                90
_cell_angle_beta                 99.93(2)
_cell_angle_gamma                90
_cell_volume                     2409.09
_exptl_crystal_colour            colorless
_exptl_crystal_description       prismatic
_chemical_melting_point          178-180deg.C
_cell_formula_units_Z            4
loop_
_atom_site_label
_atom_site_type_symbol
_atom_site_fract_x
_atom_site_fract_y
_atom_site_fract_z
Cl1 Cl -0.1701(3) 0.49473(4) 1.6704(1)
Cl2 Cl 0.4693(2) 0.45828(4) 0.8833(1)
O1 O -0.0649(5) 0.30440(8) 1.5391(2)
O2 O 0.1122(4) 0.28319(9) 1.3952(2)
O3 O -0.2042(4) 0.28535(8) 0.9219(2)
O4 O -0.2351(4) 0.35226(8) 0.8900(2)
N1 N -0.2221(5) 0.26406(9) 1.1826(2)
N2 N -0.5079(6) 0.3373(1) 1.3640(4)
C1 C -0.1533(5) 0.32478(10) 1.3197(3)
C2 C -0.0502(5) 0.36545(10) 1.2933(3)
C3 C -0.1143(5) 0.37264(10) 1.1485(3)
C4 C -0.1588(5) 0.33029(10) 1.0977(3)
C5 C -0.1737(5) 0.3033(1) 1.1912(3)
C6 C -0.3528(7) 0.3317(1) 1.3478(3)
C7 C -0.0316(7) 0.3031(1) 1.4329(3)
C8 C 0.2402(7) 0.2603(2) 1.4911(5)
C9 C 0.3189(8) 0.2274(2) 1.4286(8)
C10 C -0.1990(5) 0.3195(1) 0.9634(3)
C11 C -0.2708(10) 0.3468(2) 0.7520(4)
C12 C -0.421(2) 0.3664(4) 0.6948(6)
C13 C 0.0385(5) 0.3950(1) 1.0889(3)
C14 C 0.0105(7) 0.4338(1) 1.0493(5)
C15 C 0.1435(9) 0.4534(1) 0.9873(6)
C16 C 0.3075(7) 0.4339(1) 0.9668(4)
C17 C 0.3407(6) 0.3954(1) 1.0075(4)
C18 C 0.2070(6) 0.3759(1) 1.0691(4)
C19 C -0.0788(6) 0.3995(1) 1.3823(3)
C20 C 0.0626(6) 0.4068(1) 1.4889(4)
C21 C 0.0343(8) 0.4364(1) 1.5767(4)
C22 C -0.1327(9) 0.4587(1) 1.5579(4)
C23 C -0.2727(7) 0.4526(1) 1.4535(5)
C24 C -0.2457(6) 0.4232(1) 1.3645(4)
H1 H 0.0908 0.3591 1.3051
H2 H -0.2342 0.3884 1.1345
H3 H 0.3418 0.2771 1.5345
H4 H 0.1658 0.2501 1.5532
H5 H 0.3958 0.2106 1.4897
H6 H 0.2150 0.2123 1.3811
H7 H 0.3991 0.2380 1.3720
H8 H -0.3057 0.3187 0.7346
H9 H -0.1556 0.3523 0.7195
H10 H -0.3784 0.3961 0.7110
H11 H -0.4322 0.3636 0.6063
H12 H -0.5287 0.3627 0.7274
H13 H -0.1186 0.4462 1.0601
H14 H 0.1228 0.4787 0.9625
H15 H 0.4484 0.3821 0.9930
H16 H 0.2287 0.3468 1.1007
H17 H 0.1822 0.3914 1.4999
H18 H 0.1343 0.4408 1.6483
H19 H -0.3985 0.4674 1.4362
H20 H -0.3507 0.4191 1.2984
H21 H -0.2177 0.2522 1.1108
H22 H -0.2037 0.2488 1.2519
loop_
_geom_bond_atom_site_label_1
_geom_bond_atom_site_label_2
_geom_bond_site_symmetry_1
_geom_bond_site_symmetry_2
Cl1 C22 1_555 1_555
Cl2 C16 1_555 1_555
O1 C7 1_555 1_555
O2 C7 1_555 1_555
O3 C10 1_555 1_555
O4 C10 1_555 1_555
N1 C5 1_555 1_555
N2 C6 1_555 1_555
C1 C2 1_555 1_555
C2 C3 1_555 1_555
C3 C4 1_555 1_555
C4 C5 1_555 1_555
C5 C1 1_555 1_555
C6 C1 1_555 1_555
C7 C1 1_555 1_555
C8 O2 1_555 1_555
C9 C8 1_555 1_555
C10 C4 1_555 1_555
C11 O4 1_555 1_555
C12 C11 1_555 1_555
C13 C3 1_555 1_555
C14 C13 1_555 1_555
C15 C14 1_555 1_555
C16 C15 1_555 1_555
C17 C16 1_555 1_555
C18 C13 1_555 1_555
C19 C2 1_555 1_555
C20 C19 1_555 1_555
C21 C20 1_555 1_555
C22 C21 1_555 1_555
C23 C22 1_555 1_555
C24 C19 1_555 1_555
H1 C2 1_555 1_555
H2 C3 1_555 1_555
H3 C8 1_555 1_555
H4 C8 1_555 1_555
H5 C9 1_555 1_555
H6 C9 1_555 1_555
H7 C9 1_555 1_555
H8 C11 1_555 1_555
H9 C11 1_555 1_555
H10 C12 1_555 1_555
H11 C12 1_555 1_555
H12 C12 1_555 1_555
H13 C14 1_555 1_555
H14 C15 1_555 1_555
H15 C17 1_555 1_555
H16 C18 1_555 1_555
H17 C20 1_555 1_555
H18 C21 1_555 1_555
H19 C23 1_555 1_555
H20 C24 1_555 1_555
H21 N1 1_555 1_555
H22 N1 1_555 1_555
C17 C18 1_555 1_555
C23 C24 1_555 1_555

#END
