
#######################################################################
#
#                 Cambridge Crystallographic Data Centre
#                                CCDC 
#
#######################################################################
#
# If this CIF has been generated from an entry in the Cambridge 
# Structural Database, then it will include bibliographic, chemical, 
# crystal, experimental, refinement or atomic coordinate data resulting 
# from the CCDC's data processing and validation procedures.
#
#######################################################################

data_NULGIM
_chemical_formula_moiety         'C20 H34 F2 O4 P2,2(C6 H14)'
_chemical_name_systematic        
'(2,5-difluoro-3,6-dimethoxy-1,4-phenylene)bis(diisopropylphosphine) dioxide 2,2-dimethylbutane solvate'
_symmetry_cell_setting           triclinic
_symmetry_space_group_name_H-M   'P -1'
_symmetry_Int_Tables_number      2
_space_group_name_Hall           '-P 1'
loop_
_symmetry_equiv_pos_site_id
_symmetry_equiv_pos_as_xyz
1 x,y,z
2 -x,-y,-z
_cell_length_a                   8.3768(6)
_cell_length_b                   9.7336(8)
_cell_length_c                   11.0989(9)
_cell_angle_alpha                75.782(4)
_cell_angle_beta                 88.910(4)
_cell_angle_gamma                79.489(4)
_cell_volume                     862.208
_exptl_crystal_colour            colorless
_exptl_crystal_description       block
_cell_formula_units_Z            1
loop_
_atom_site_label
_atom_site_type_symbol
_atom_site_fract_x
_atom_site_fract_y
_atom_site_fract_z
P1 P 0.42305(7) 0.72706(6) 0.21784(6)
F1 F 0.7488(2) 0.95599(17) -0.15171(17)
O1 O 0.4816(2) 0.5884(2) 0.18438(19)
C1 C 0.4655(3) 0.8793(3) 0.0943(2)
C2 C 0.5935(3) 0.8621(2) 0.0137(2)
C3 C 0.6217(3) 0.9804(3) -0.0775(2)
C4 C 0.5214(4) 0.7403(3) 0.3567(3)
H1 H 0.4927 0.6647 0.4251
C5 C 0.2048(3) 0.7495(3) 0.2421(3)
H2 H 0.1699 0.8344 0.2752
C6 C 0.4690(5) 0.8817(4) 0.3930(3)
H3 H 0.4955 0.9591 0.3283
H4 H 0.5243 0.8781 0.4690
H5 H 0.3539 0.8976 0.4047
C7 C 0.6603(5) 0.6555(3) -0.0627(3)
H6 H 0.6598 0.7144 -0.1459
H7 H 0.5555 0.6295 -0.0458
H8 H 0.7412 0.5697 -0.0541
C8 C 0.1760(4) 0.6136(4) 0.3396(4)
H9 H 0.2178 0.5295 0.3103
H10 H 0.0616 0.6191 0.3528
H11 H 0.2306 0.6078 0.4165
C9 C 0.1117(4) 0.7682(5) 0.1230(4)
H12 H 0.1119 0.8630 0.0710
H13 H 0.0018 0.7564 0.1413
H14 H 0.1619 0.6973 0.0805
C10 C 0.7054(4) 0.7064(5) 0.3456(4)
H15 H 0.7388 0.6063 0.3469
H16 H 0.7568 0.7271 0.4140
H17 H 0.7363 0.7646 0.2688
O2 O 0.6966(2) 0.73400(19) 0.02322(18)
P1A P 0.57695(7) 1.27294(6) -0.21784(6)
F1A F 0.2512(2) 1.04401(17) 0.15171(17)
O1A O 0.5184(2) 1.4116(2) -0.18438(19)
C1A C 0.5345(3) 1.1207(3) -0.0943(2)
C2A C 0.4065(3) 1.1379(2) -0.0137(2)
C3A C 0.3783(3) 1.0196(3) 0.0775(2)
C4A C 0.4786(4) 1.2597(3) -0.3567(3)
H1A H 0.5073 1.3353 -0.4251
C5A C 0.7952(3) 1.2505(3) -0.2421(3)
H2A H 0.8301 1.1656 -0.2752
C6A C 0.5310(5) 1.1183(4) -0.3930(3)
H3A H 0.5045 1.0409 -0.3283
H4A H 0.4757 1.1219 -0.4690
H5A H 0.6461 1.1024 -0.4047
C7A C 0.3397(5) 1.3445(3) 0.0627(3)
H6A H 0.3402 1.2856 0.1459
H7A H 0.4445 1.3705 0.0458
H8A H 0.2588 1.4303 0.0541
C8A C 0.8240(4) 1.3864(4) -0.3396(4)
H9A H 0.7822 1.4705 -0.3103
H10A H 0.9384 1.3809 -0.3528
H11A H 0.7694 1.3922 -0.4165
C9A C 0.8883(4) 1.2318(5) -0.1230(4)
H12A H 0.8881 1.1370 -0.0710
H13A H 0.9982 1.2436 -0.1413
H14A H 0.8381 1.3027 -0.0805
C10A C 0.2946(4) 1.2936(5) -0.3456(4)
H15A H 0.2612 1.3937 -0.3469
H16A H 0.2432 1.2729 -0.4140
H17A H 0.2637 1.2354 -0.2688
O2A O 0.3034(2) 1.26600(19) -0.02322(18)
C11 C 0.7321(3) 0.3029(3) 0.3731(3)
H18 H 0.7361 0.2403 0.4562
H19 H 0.7472 0.3971 0.3802
C12 C 0.5765(3) 0.3153(3) 0.3147(3)
H20 H 0.5489 0.4080 0.2571
H21 H 0.4955 0.3052 0.3770
H22 H 0.5813 0.2410 0.2710
C13 C 0.8608(4) 0.2448(4) 0.3009(3)
C14 C 0.8684(6) 0.3490(5) 0.1786(4)
H23 H 0.7690 0.3625 0.1321
H24 H 0.9578 0.3121 0.1331
H25 H 0.8833 0.4397 0.1920
C15 C 0.8350(7) 0.0977(5) 0.2833(6)
H26 H 0.8189 0.0358 0.3627
H27 H 0.9289 0.0540 0.2461
H28 H 0.7413 0.1117 0.2302
C16 C 1.0058(6) 0.2259(6) 0.3850(5)
H29 H 1.0132 0.3167 0.4019
H30 H 1.1026 0.1919 0.3452
H31 H 0.9944 0.1570 0.4616
loop_
_geom_bond_atom_site_label_1
_geom_bond_atom_site_label_2
_geom_bond_site_symmetry_1
_geom_bond_site_symmetry_2
P1 O1 1_555 1_555
F1 C3 1_555 1_555
C1 P1 1_555 1_555
C2 C1 1_555 1_555
C3 C2 1_555 1_555
C4 P1 1_555 1_555
H1 C4 1_555 1_555
C5 P1 1_555 1_555
H2 C5 1_555 1_555
C6 C4 1_555 1_555
H3 C6 1_555 1_555
H4 C6 1_555 1_555
H5 C6 1_555 1_555
C7 H6 1_555 1_555
H7 C7 1_555 1_555
H8 C7 1_555 1_555
C8 C5 1_555 1_555
H9 C8 1_555 1_555
H10 C8 1_555 1_555
H11 C8 1_555 1_555
C9 C5 1_555 1_555
H12 C9 1_555 1_555
H13 C9 1_555 1_555
H14 C9 1_555 1_555
C10 C4 1_555 1_555
H15 C10 1_555 1_555
H16 C10 1_555 1_555
H17 C10 1_555 1_555
O2 C2 1_555 1_555
C11 H18 1_555 1_555
H19 C11 1_555 1_555
C12 C11 1_555 1_555
H20 C12 1_555 1_555
H21 C12 1_555 1_555
H22 C12 1_555 1_555
C13 C11 1_555 1_555
C14 C13 1_555 1_555
H23 C14 1_555 1_555
H24 C14 1_555 1_555
H25 C14 1_555 1_555
C15 C13 1_555 1_555
H26 C15 1_555 1_555
H27 C15 1_555 1_555
H28 C15 1_555 1_555
C16 C13 1_555 1_555
H29 C16 1_555 1_555
H30 C16 1_555 1_555
H31 C16 1_555 1_555
P1A O1A 1_555 1_555
F1A C3A 1_555 1_555
C1A C3 1_555 1_555
C2A C1A 1_555 1_555
C3A C1 1_555 1_555
C4A P1A 1_555 1_555
H1A C4A 1_555 1_555
C5A P1A 1_555 1_555
H2A C5A 1_555 1_555
C6A C4A 1_555 1_555
H3A C6A 1_555 1_555
H4A C6A 1_555 1_555
H5A C6A 1_555 1_555
C7A H6A 1_555 1_555
H7A C7A 1_555 1_555
H8A C7A 1_555 1_555
C8A C5A 1_555 1_555
H9A C8A 1_555 1_555
H10A C8A 1_555 1_555
H11A C8A 1_555 1_555
C9A C5A 1_555 1_555
H12A C9A 1_555 1_555
H13A C9A 1_555 1_555
H14A C9A 1_555 1_555
C10A C4A 1_555 1_555
H15A C10A 1_555 1_555
H16A C10A 1_555 1_555
H17A C10A 1_555 1_555
O2A C2A 1_555 1_555
C7 O2 1_555 1_555
P1A C1A 1_555 1_555
C2A C3A 1_555 1_555
C7A O2A 1_555 1_555

#END
