
#######################################################################
#
#                 Cambridge Crystallographic Data Centre
#                                CCDC 
#
#######################################################################
#
# If this CIF has been generated from an entry in the Cambridge 
# Structural Database, then it will include bibliographic, chemical, 
# crystal, experimental, refinement or atomic coordinate data resulting 
# from the CCDC's data processing and validation procedures.
#
#######################################################################

data_NULNEO
_chemical_formula_moiety         'C54 H78 N2 O4 Si4,2(C4 H8 O2)'
_chemical_name_systematic        
"N,N'-bis(1-Ethylpropyl)-2,5,8,11-tetrakis[2-(trimethylsilyl)ethyl]perylene-3,4:9,10-tetracarboxylic acid bisimide 1,4-dioxane solvate"
_symmetry_cell_setting           triclinic
_symmetry_space_group_name_H-M   'P -1'
_symmetry_Int_Tables_number      2
_space_group_name_Hall           '-P 1'
loop_
_symmetry_equiv_pos_site_id
_symmetry_equiv_pos_as_xyz
1 x,y,z
2 -x,-y,-z
_cell_length_a                   12.193(2)
_cell_length_b                   14.831(3)
_cell_length_c                   18.616(3)
_cell_angle_alpha                70.903(3)
_cell_angle_beta                 72.964(3)
_cell_angle_gamma                81.399(3)
_cell_volume                     3036.18
_exptl_crystal_colour            orange
_exptl_crystal_description       prism
_cell_formula_units_Z            2
_exptl_crystal_recrystallization_method 1,4-dioxane
loop_
_atom_site_label
_atom_site_type_symbol
_atom_site_fract_x
_atom_site_fract_y
_atom_site_fract_z
C1 C 0.19004(18) -0.04641(15) 1.08197(13)
C2 C 0.12362(18) 0.02896(15) 1.04147(13)
C3 C 0.01373(18) 0.05061(15) 1.08264(13)
H1 H -0.0302 0.1023 1.0561
C4 C -0.03640(18) 0.00078(15) 1.16099(13)
C5 C 0.02688(19) -0.07482(15) 1.20080(13)
C6 C 0.14161(18) -0.09934(15) 1.16179(13)
C7 C 0.20722(19) -0.17564(15) 1.20136(13)
C8 C 0.32239(19) -0.19455(15) 1.16469(13)
C9 C 0.36773(19) -0.13983(15) 1.08685(13)
H2 H 0.4462 -0.1519 1.0624
C10 C 0.30497(18) -0.06971(15) 1.04392(13)
C11 C 0.28669(18) 0.05580(15) 0.92019(12)
C12 C 0.35242(18) -0.01958(15) 0.96066(13)
C13 C 0.46127(18) -0.04415(16) 0.91931(13)
H3 H 0.5055 -0.0950 0.9464
C14 C 0.50903(18) 0.00251(16) 0.83957(13)
C15 C 0.44557(18) 0.07776(16) 0.79982(13)
C16 C 0.33393(18) 0.10678(15) 0.84012(13)
C17 C 0.27053(18) 0.18613(16) 0.80094(13)
C18 C 0.15848(18) 0.21042(15) 0.83962(13)
C19 C 0.11274(18) 0.15604(15) 0.91733(13)
H4 H 0.0358 0.1714 0.9427
C20 C 0.17272(18) 0.08173(15) 0.95904(13)
C21 C -0.0218(2) -0.13051(16) 1.28382(14)
C22 C 0.1533(2) -0.23566(16) 1.28146(13)
C23 C 0.49058(19) 0.12746(16) 0.71526(14)
C24 C 0.32386(19) 0.24268(16) 0.71955(13)
C25 C 0.0003(2) -0.25375(17) 1.40583(13)
C26 C -0.0512(2) -0.34516(17) 1.41560(13)
H5 H 0.0103 -0.3885 1.3943
H6 H -0.1085 -0.3300 1.3845
C27 C -0.1091(2) -0.39670(19) 1.50144(15)
H7 H -0.0511 -0.4185 1.5314
H8 H -0.1470 -0.4519 1.5039
H9 H -0.1664 -0.3527 1.5240
C28 C 0.0837(2) -0.2654(2) 1.45435(16)
H10 H 0.1439 -0.3154 1.4435
H11 H 0.0426 -0.2870 1.5109
C29 C 0.1405(3) -0.1726(3) 1.43700(19)
H12 H 0.1913 -0.1564 1.3835
H13 H 0.1855 -0.1812 1.4748
H14 H 0.0811 -0.1209 1.4416
C30 C 0.4719(2) 0.25218(18) 0.59390(13)
C31 C 0.5307(2) 0.33878(19) 0.58326(15)
H15 H 0.5847 0.3205 0.6171
H16 H 0.4724 0.3860 0.6017
C32 C 0.5968(2) 0.38621(19) 0.49914(15)
H17 H 0.6531 0.3395 0.4795
H18 H 0.6367 0.4397 0.4977
H19 H 0.5432 0.4100 0.4659
C33 C 0.3807(2) 0.26427(19) 0.54881(14)
H20 H 0.3152 0.2254 0.5837
H21 H 0.3517 0.3321 0.5349
C34 C 0.4254(2) 0.2351(2) 0.47533(16)
H22 H 0.4900 0.2735 0.4403
H23 H 0.3642 0.2455 0.4487
H24 H 0.4512 0.1673 0.4888
C35 C -0.15501(18) 0.03802(16) 1.19755(13)
H25 H -0.2031 -0.0165 1.2306
H26 H -0.1918 0.0768 1.1554
C36 C -0.14785(19) 0.09944(17) 1.24824(14)
H27 H -0.1184 0.1615 1.2123
H28 H -0.0899 0.0676 1.2777
C37 C -0.3594(2) 0.01325(18) 1.37767(15)
H29 H -0.3068 -0.0361 1.4016
H30 H -0.3869 -0.0090 1.3423
H31 H -0.4250 0.0263 1.4191
C38 C -0.3813(2) 0.21598(18) 1.27232(15)
H32 H -0.4545 0.2209 1.3111
H33 H -0.3950 0.1973 1.2300
H34 H -0.3466 0.2780 1.2503
C39 C -0.2363(2) 0.1708(2) 1.38818(16)
H35 H -0.1974 0.2301 1.3581
H36 H -0.1834 0.1231 1.4135
H37 H -0.3037 0.1834 1.4286
C40 C 0.40074(19) -0.27444(15) 1.19986(13)
H38 H 0.3795 -0.2879 1.2578
H39 H 0.4811 -0.2554 1.1789
C41 C 0.39052(19) -0.36462(15) 1.17943(13)
H40 H 0.4289 -0.3540 1.1228
H41 H 0.3080 -0.3711 1.1867
C42 C 0.3624(2) -0.51566(18) 1.33896(14)
H42 H 0.3944 -0.5763 1.3685
H43 H 0.2832 -0.5230 1.3403
H44 H 0.3632 -0.4659 1.3628
C43 C 0.4419(2) -0.56841(16) 1.18500(15)
H45 H 0.4663 -0.6325 1.2143
H46 H 0.4924 -0.5505 1.1314
H47 H 0.3626 -0.5682 1.1827
C44 C 0.6027(2) -0.47433(19) 1.23344(16)
H48 H 0.6070 -0.4268 1.2586
H49 H 0.6493 -0.4557 1.1787
H50 H 0.6318 -0.5370 1.2620
C45 C 0.62676(18) -0.03597(16) 0.80275(14)
H51 H 0.6673 -0.0682 0.8442
H52 H 0.6722 0.0178 0.7645
C46 C 0.61855(19) -0.10717(16) 0.76050(14)
H53 H 0.5535 -0.0851 0.7361
H54 H 0.6007 -0.1700 0.8004
C47 C 0.7723(3) -0.25046(19) 0.68141(16)
H55 H 0.7049 -0.2681 0.6716
H56 H 0.7822 -0.2920 0.7325
H57 H 0.8408 -0.2579 0.6398
C48 C 0.8797(2) -0.0936(3) 0.70227(18)
H58 H 0.9488 -0.1049 0.6625
H59 H 0.8859 -0.1338 0.7546
H60 H 0.8719 -0.0262 0.7003
C49 C 0.7352(2) -0.04808(19) 0.58394(15)
H61 H 0.8074 -0.0516 0.5439
H62 H 0.7161 0.0183 0.5845
H63 H 0.6735 -0.0708 0.5716
C50 C 0.08338(18) 0.29360(15) 0.80451(13)
H64 H 0.0016 0.2793 0.8289
H65 H 0.0995 0.3033 0.7473
C51 C 0.10561(19) 0.38560(15) 0.81818(13)
H66 H 0.1896 0.3893 0.8071
H67 H 0.0718 0.3807 0.8745
C52 C -0.10303(19) 0.48597(17) 0.75781(15)
H68 H -0.1321 0.5454 0.7247
H69 H -0.1521 0.4723 0.8118
H70 H -0.1036 0.4333 0.7371
C53 C 0.1387(2) 0.53073(17) 0.65467(14)
H71 H 0.1421 0.4784 0.6327
H72 H 0.2164 0.5412 0.6543
H73 H 0.1062 0.5892 0.6228
C54 C 0.0481(2) 0.59706(17) 0.79963(15)
H74 H 0.1269 0.6034 0.7998
H75 H -0.0009 0.5818 0.8537
H76 H 0.0190 0.6573 0.7676
N1 N 0.04774(16) -0.20240(13) 1.32069(11)
N2 N 0.42499(15) 0.20343(13) 0.67947(11)
O1 O -0.11930(15) -0.11536(14) 1.31993(10)
O2 O 0.19611(15) -0.31206(12) 1.31321(10)
O3 O 0.58258(15) 0.10375(13) 0.67637(10)
O4 O 0.28379(13) 0.31985(11) 0.68660(9)
Si1 Si -0.28267(5) 0.12459(5) 1.32074(4)
Si2 Si 0.45034(5) -0.48100(4) 1.23538(4)
Si3 Si 0.75144(6) -0.12406(5) 0.68211(4)
Si4 Si 0.04679(5) 0.49931(4) 0.75744(4)
C55 C 0.6144(2) 0.64230(19) 0.97416(17)
H77 H 0.5565 0.6362 0.9485
H78 H 0.5983 0.5963 1.0278
C56 C 0.7314(2) 0.6189(2) 0.92800(16)
H79 H 0.7360 0.5525 0.9259
H80 H 0.7457 0.6623 0.8734
C57 C 0.8093(2) 0.72314(19) 0.96648(18)
H81 H 0.8252 0.7682 0.9125
H82 H 0.8676 0.7299 0.9916
C58 C 0.6916(2) 0.7470(2) 1.01286(18)
H83 H 0.6779 0.7044 1.0677
H84 H 0.6871 0.8137 1.0141
O5 O 0.81700(14) 0.62851(13) 0.96296(11)
O6 O 0.60531(15) 0.73638(13) 0.97946(12)
C59 C 0.1170(2) 0.62595(18) 0.98546(15)
H85 H 0.0555 0.6184 0.9633
H86 H 0.1095 0.5770 1.0374
C60 C 0.2317(2) 0.6115(2) 0.93168(16)
H87 H 0.2402 0.5462 0.9267
H88 H 0.2371 0.6577 0.8787
C61 C 0.3092(2) 0.71771(19) 0.96897(16)
H89 H 0.3153 0.7658 0.9167
H90 H 0.3713 0.7267 0.9899
C62 C 0.1944(2) 0.73175(19) 1.02375(16)
H91 H 0.1899 0.6855 1.0766
H92 H 0.1858 0.7970 1.0288
O7 O 0.32198(15) 0.62443(14) 0.96121(11)
O8 O 0.10393(14) 0.71854(12) 0.99496(11)
loop_
_geom_bond_atom_site_label_1
_geom_bond_atom_site_label_2
_geom_bond_site_symmetry_1
_geom_bond_site_symmetry_2
C1 C2 1_555 1_555
C2 C3 1_555 1_555
C3 H1 1_555 1_555
C4 C3 1_555 1_555
C5 C4 1_555 1_555
C6 C1 1_555 1_555
C7 C6 1_555 1_555
C8 C7 1_555 1_555
C9 C8 1_555 1_555
H2 C9 1_555 1_555
C10 C1 1_555 1_555
C11 C12 1_555 1_555
C12 C10 1_555 1_555
C13 C12 1_555 1_555
H3 C13 1_555 1_555
C14 C13 1_555 1_555
C15 C14 1_555 1_555
C16 C11 1_555 1_555
C17 C16 1_555 1_555
C18 C17 1_555 1_555
C19 C18 1_555 1_555
H4 C19 1_555 1_555
C20 C2 1_555 1_555
C21 C5 1_555 1_555
C22 C7 1_555 1_555
C23 C15 1_555 1_555
C24 C17 1_555 1_555
C25 C26 1_555 1_555
C26 H5 1_555 1_555
H6 C26 1_555 1_555
C27 C26 1_555 1_555
H7 C27 1_555 1_555
H8 C27 1_555 1_555
H9 C27 1_555 1_555
C28 C25 1_555 1_555
H10 C28 1_555 1_555
H11 C28 1_555 1_555
C29 C28 1_555 1_555
H12 C29 1_555 1_555
H13 C29 1_555 1_555
H14 C29 1_555 1_555
C30 C31 1_555 1_555
C31 H15 1_555 1_555
H16 C31 1_555 1_555
C32 C31 1_555 1_555
H17 C32 1_555 1_555
H18 C32 1_555 1_555
H19 C32 1_555 1_555
C33 C30 1_555 1_555
H20 C33 1_555 1_555
H21 C33 1_555 1_555
C34 C33 1_555 1_555
H22 C34 1_555 1_555
H23 C34 1_555 1_555
H24 C34 1_555 1_555
C35 C4 1_555 1_555
H25 C35 1_555 1_555
H26 C35 1_555 1_555
C36 C35 1_555 1_555
H27 C36 1_555 1_555
H28 C36 1_555 1_555
C37 H29 1_555 1_555
H30 C37 1_555 1_555
H31 C37 1_555 1_555
C38 H32 1_555 1_555
H33 C38 1_555 1_555
H34 C38 1_555 1_555
C39 H35 1_555 1_555
H36 C39 1_555 1_555
H37 C39 1_555 1_555
C40 C8 1_555 1_555
H38 C40 1_555 1_555
H39 C40 1_555 1_555
C41 C40 1_555 1_555
H40 C41 1_555 1_555
H41 C41 1_555 1_555
C42 H42 1_555 1_555
H43 C42 1_555 1_555
H44 C42 1_555 1_555
C43 H45 1_555 1_555
H46 C43 1_555 1_555
H47 C43 1_555 1_555
C44 H48 1_555 1_555
H49 C44 1_555 1_555
H50 C44 1_555 1_555
C45 C14 1_555 1_555
H51 C45 1_555 1_555
H52 C45 1_555 1_555
C46 C45 1_555 1_555
H53 C46 1_555 1_555
H54 C46 1_555 1_555
C47 H55 1_555 1_555
H56 C47 1_555 1_555
H57 C47 1_555 1_555
C48 H58 1_555 1_555
H59 C48 1_555 1_555
H60 C48 1_555 1_555
C49 H61 1_555 1_555
H62 C49 1_555 1_555
H63 C49 1_555 1_555
C50 C18 1_555 1_555
H64 C50 1_555 1_555
H65 C50 1_555 1_555
C51 C50 1_555 1_555
H66 C51 1_555 1_555
H67 C51 1_555 1_555
C52 H68 1_555 1_555
H69 C52 1_555 1_555
H70 C52 1_555 1_555
C53 H71 1_555 1_555
H72 C53 1_555 1_555
H73 C53 1_555 1_555
C54 H74 1_555 1_555
H75 C54 1_555 1_555
H76 C54 1_555 1_555
C55 H77 1_555 1_555
H78 C55 1_555 1_555
C56 C55 1_555 1_555
H79 C56 1_555 1_555
H80 C56 1_555 1_555
C57 H81 1_555 1_555
H82 C57 1_555 1_555
C58 C57 1_555 1_555
H83 C58 1_555 1_555
H84 C58 1_555 1_555
C59 H85 1_555 1_555
H86 C59 1_555 1_555
C60 C59 1_555 1_555
H87 C60 1_555 1_555
H88 C60 1_555 1_555
C61 H89 1_555 1_555
H90 C61 1_555 1_555
C62 C61 1_555 1_555
H91 C62 1_555 1_555
H92 C62 1_555 1_555
N1 C21 1_555 1_555
N2 C23 1_555 1_555
O1 C21 1_555 1_555
O2 C22 1_555 1_555
O3 C23 1_555 1_555
O4 C24 1_555 1_555
O5 C56 1_555 1_555
O6 C55 1_555 1_555
O7 C60 1_555 1_555
O8 C59 1_555 1_555
Si1 C36 1_555 1_555
Si2 C41 1_555 1_555
Si3 C46 1_555 1_555
Si4 C51 1_555 1_555
C5 C6 1_555 1_555
C9 C10 1_555 1_555
C11 C20 1_555 1_555
C15 C16 1_555 1_555
C19 C20 1_555 1_555
C22 N1 1_555 1_555
C24 N2 1_555 1_555
C25 N1 1_555 1_555
C30 N2 1_555 1_555
C37 Si1 1_555 1_555
C38 Si1 1_555 1_555
C39 Si1 1_555 1_555
C42 Si2 1_555 1_555
C43 Si2 1_555 1_555
C44 Si2 1_555 1_555
C47 Si3 1_555 1_555
C48 Si3 1_555 1_555
C49 Si3 1_555 1_555
C52 Si4 1_555 1_555
C53 Si4 1_555 1_555
C54 Si4 1_555 1_555
C57 O5 1_555 1_555
C58 O6 1_555 1_555
C61 O7 1_555 1_555
C62 O8 1_555 1_555

#END
