
#######################################################################
#
#                 Cambridge Crystallographic Data Centre
#                                CCDC 
#
#######################################################################
#
# If this CIF has been generated from an entry in the Cambridge 
# Structural Database, then it will include bibliographic, chemical, 
# crystal, experimental, refinement or atomic coordinate data resulting 
# from the CCDC's data processing and validation procedures.
#
#######################################################################

data_NULNIS
_chemical_formula_moiety         'C66 H86 N2 O4'
_chemical_name_systematic        
"N,N'-bis(1-Ethylpropyl)-2,5,8,11-tetrakis[2-(cyclohexyl)ethyl]perylene-3,4:9,10-tetracarboxylic acid bisimide"
_symmetry_cell_setting           triclinic
_symmetry_space_group_name_H-M   'P -1'
_symmetry_Int_Tables_number      2
_space_group_name_Hall           '-P 1'
loop_
_symmetry_equiv_pos_site_id
_symmetry_equiv_pos_as_xyz
1 x,y,z
2 -x,-y,-z
_cell_length_a                   6.299(3)
_cell_length_b                   10.967(6)
_cell_length_c                   19.506(9)
_cell_angle_alpha                78.896(19)
_cell_angle_beta                 85.019(19)
_cell_angle_gamma                84.60(2)
_cell_volume                     1313.14
_exptl_crystal_colour            orange
_exptl_crystal_description       prism
_cell_formula_units_Z            1
_exptl_crystal_recrystallization_method chloroform/methanol
loop_
_atom_site_label
_atom_site_type_symbol
_atom_site_fract_x
_atom_site_fract_y
_atom_site_fract_z
O1 O 0.6416(2) 0.39954(12) 0.26629(6)
O2 O 1.1585(2) 0.14084(13) 0.18229(6)
N1 N 0.9112(2) 0.27708(14) 0.22377(7)
C1 C 0.7657(3) 0.30756(16) 0.27743(8)
C2 C 0.7709(3) 0.22330(15) 0.34705(8)
C3 C 0.9514(2) 0.13592(14) 0.36099(8)
C4 C 1.0645(3) 0.17583(16) 0.23282(8)
C5 C 1.1071(3) 0.11582(15) 0.30610(8)
C6 C 1.2918(3) 0.03802(15) 0.32078(8)
C7 C 1.4702(3) 0.01277(16) 0.26678(8)
H1 H 1.6080 -0.0017 0.2890
H2 H 1.4786 0.0869 0.2289
C8 C 1.4350(3) -0.10109(16) 0.23508(9)
H3 H 1.4374 -0.1757 0.2728
H4 H 1.2909 -0.0891 0.2170
C9 C 1.3172(3) -0.02163(15) 0.39020(8)
H5 H 1.4462 -0.0715 0.4004
C10 C 1.1643(2) -0.01175(14) 0.44471(8)
C11 C 0.9751(2) 0.06779(14) 0.43021(8)
C12 C 1.1904(2) -0.08088(14) 0.51652(8)
C13 C 0.6055(2) 0.23162(15) 0.39869(8)
C14 C 1.3705(2) -0.15867(15) 0.53415(8)
H6 H 1.4842 -0.1633 0.4992
C15 C 0.3982(3) 0.31144(16) 0.38874(8)
H7 H 0.2814 0.2663 0.4168
H8 H 0.3668 0.3244 0.3389
C16 C 0.4005(3) 0.43821(16) 0.40980(9)
H9 H 0.5164 0.4839 0.3816
H10 H 0.4314 0.4257 0.4597
C17 C 0.1871(3) 0.51703(16) 0.39915(9)
H11 H 0.0698 0.4630 0.4200
C18 C 0.1513(3) 0.5627(2) 0.32199(10)
H12 H 0.1551 0.4900 0.2986
H13 H 0.2690 0.6139 0.2999
C19 C -0.0618(4) 0.6400(2) 0.31099(11)
H14 H -0.1803 0.5860 0.3274
H15 H -0.0729 0.6728 0.2604
C20 C 0.1705(3) 0.62821(17) 0.43638(10)
H16 H 0.2857 0.6832 0.4169
H17 H 0.1896 0.5983 0.4869
C21 C -0.0834(3) 0.74895(19) 0.35063(11)
H18 H 0.0231 0.8090 0.3300
H19 H -0.2276 0.7927 0.3458
C22 C -0.0488(3) 0.70290(18) 0.42734(10)
H20 H -0.1637 0.6492 0.4491
H21 H -0.0559 0.7749 0.4515
C23 C 0.8849(3) 0.35101(17) 0.15148(8)
H22 H 0.7916 0.4276 0.1578
C24 C 1.0928(3) 0.39727(19) 0.11355(10)
H23 H 1.1820 0.3251 0.1002
H24 H 1.0580 0.4555 0.0698
C25 C 1.2222(4) 0.4616(2) 0.15454(11)
H25 H 1.1331 0.5300 0.1709
H26 H 1.3445 0.4950 0.1247
H27 H 1.2737 0.4019 0.1949
C26 C 0.7600(3) 0.2811(2) 0.11117(10)
H28 H 0.6259 0.2587 0.1392
H29 H 0.8444 0.2026 0.1051
C27 C 0.7048(4) 0.3538(2) 0.03959(10)
H30 H 0.6391 0.4367 0.0443
H31 H 0.6044 0.3092 0.0199
H32 H 0.8354 0.3624 0.0084
C28 C 1.5969(14) -0.1260(6) 0.1766(4)
H33 H 1.7420 -0.1272 0.1939
C29 C 1.5825(10) -0.2514(4) 0.1540(3)
H34 H 1.6000 -0.3196 0.1950
H35 H 1.4390 -0.2535 0.1374
C30 C 1.7520(6) -0.2731(3) 0.09603(17)
H36 H 1.7305 -0.3520 0.0810
H37 H 1.8952 -0.2816 0.1145
C31 C 1.5815(5) -0.0216(2) 0.11143(13)
H38 H 1.4393 -0.0184 0.0929
H39 H 1.5954 0.0596 0.1251
C32 C 1.7553(5) -0.0421(3) 0.05397(14)
H40 H 1.7382 0.0257 0.0128
H41 H 1.8975 -0.0391 0.0713
C33 C 1.7434(6) -0.1658(3) 0.03235(16)
H42 H 1.8642 -0.1794 -0.0021
H43 H 1.6088 -0.1649 0.0095
O1A O 1.3584(2) -0.39954(12) 0.73371(6)
O2A O 0.8415(2) -0.14084(13) 0.81771(6)
N1A N 1.0888(2) -0.27708(14) 0.77623(7)
C1A C 1.2343(3) -0.30756(16) 0.72257(8)
C2A C 1.2291(3) -0.22330(15) 0.65295(8)
C3A C 1.0486(2) -0.13592(14) 0.63901(8)
C4A C 0.9355(3) -0.17583(16) 0.76718(8)
C5A C 0.8929(3) -0.11582(15) 0.69390(8)
C6A C 0.7082(3) -0.03802(15) 0.67922(8)
C7A C 0.5298(3) -0.01277(16) 0.73322(8)
H1A H 0.3920 0.0017 0.7110
H2A H 0.5214 -0.0869 0.7711
C8A C 0.5650(3) 0.10109(16) 0.76492(9)
H3A H 0.5626 0.1757 0.7272
H4A H 0.7091 0.0891 0.7830
C9A C 0.6828(3) 0.02163(15) 0.60980(8)
H5A H 0.5538 0.0715 0.5996
C10A C 0.8357(2) 0.01175(14) 0.55529(8)
C11A C 1.0249(2) -0.06779(14) 0.56979(8)
C12A C 0.8096(2) 0.08088(14) 0.48348(8)
C13A C 1.3945(2) -0.23162(15) 0.60131(8)
C14A C 0.6295(2) 0.15867(15) 0.46585(8)
H6A H 0.5158 0.1633 0.5008
C15A C 1.6018(3) -0.31144(16) 0.61126(8)
H7A H 1.7186 -0.2663 0.5832
H8A H 1.6332 -0.3244 0.6611
C16A C 1.5995(3) -0.43821(16) 0.59020(9)
H9A H 1.4836 -0.4839 0.6184
H10A H 1.5686 -0.4257 0.5403
C17A C 1.8129(3) -0.51703(16) 0.60085(9)
H11A H 1.9302 -0.4630 0.5800
C18A C 1.8487(3) -0.5627(2) 0.67801(10)
H12A H 1.8449 -0.4900 0.7014
H13A H 1.7310 -0.6139 0.7001
C19A C 2.0618(4) -0.6400(2) 0.68901(11)
H14A H 2.1803 -0.5860 0.6726
H15A H 2.0729 -0.6728 0.7396
C20A C 1.8295(3) -0.62821(17) 0.56362(10)
H16A H 1.7143 -0.6832 0.5831
H17A H 1.8104 -0.5983 0.5131
C21A C 2.0834(3) -0.74895(19) 0.64937(11)
H18A H 1.9769 -0.8090 0.6700
H19A H 2.2276 -0.7927 0.6542
C22A C 2.0488(3) -0.70290(18) 0.57266(10)
H20A H 2.1637 -0.6492 0.5509
H21A H 2.0559 -0.7749 0.5485
C23A C 1.1151(3) -0.35101(17) 0.84852(8)
H22A H 1.2084 -0.4276 0.8422
C24A C 0.9072(3) -0.39727(19) 0.88645(10)
H23A H 0.8180 -0.3251 0.8998
H24A H 0.9420 -0.4555 0.9302
C25A C 0.7778(4) -0.4616(2) 0.84546(11)
H25A H 0.8669 -0.5300 0.8291
H26A H 0.6555 -0.4950 0.8753
H27A H 0.7263 -0.4019 0.8051
C26A C 1.2400(3) -0.2811(2) 0.88883(10)
H28A H 1.3741 -0.2587 0.8608
H29A H 1.1556 -0.2026 0.8949
C27A C 1.2952(4) -0.3538(2) 0.96041(10)
H30A H 1.3609 -0.4367 0.9557
H31A H 1.3956 -0.3092 0.9801
H32A H 1.1646 -0.3624 0.9916
C28A C 0.4031(14) 0.1260(6) 0.8234(4)
H33A H 0.2580 0.1272 0.8061
C29A C 0.4175(10) 0.2514(4) 0.8460(3)
H34A H 0.4000 0.3196 0.8050
H35A H 0.5610 0.2535 0.8626
C30A C 0.2480(6) 0.2731(3) 0.90397(17)
H36A H 0.2695 0.3520 0.9190
H37A H 0.1048 0.2816 0.8855
C31A C 0.4185(5) 0.0216(2) 0.88857(13)
H38A H 0.5607 0.0184 0.9071
H39A H 0.4046 -0.0596 0.8749
C32A C 0.2447(5) 0.0421(3) 0.94603(14)
H40A H 0.2618 -0.0257 0.9872
H41A H 0.1025 0.0391 0.9287
C33A C 0.2566(6) 0.1658(3) 0.96765(16)
H42A H 0.1358 0.1794 1.0021
H43A H 0.3912 0.1649 0.9905
C34? C 1.587(5) -0.0941(19) 0.1627(12)
C35? C 1.8047(14) -0.0799(9) 0.1685(5)
C36? C 1.9279(16) -0.0802(10) 0.0990(5)
C37? C 1.9152(17) -0.1994(10) 0.0734(6)
C38? C 1.6889(19) -0.2225(13) 0.0678(7)
C39? C 1.547(3) -0.2156(15) 0.1410(11)
H44? H 1.8639 -0.1489 0.2039
H45? H 1.8187 -0.0005 0.1841
H46? H 1.8706 -0.0096 0.0642
H47? H 2.0796 -0.0682 0.1036
H48? H 1.9942 -0.1948 0.0270
H49? H 1.9833 -0.2695 0.1062
H50? H 1.6833 -0.3058 0.0559
H51? H 1.6276 -0.1595 0.0298
H52? H 1.3938 -0.2178 0.1345
H53? H 1.5907 -0.2874 0.1776
H54? H 1.5288 -0.0231 0.1273
loop_
_geom_bond_atom_site_label_1
_geom_bond_atom_site_label_2
_geom_bond_site_symmetry_1
_geom_bond_site_symmetry_2
O1 C1 1_555 1_555
O2 C4 1_555 1_555
N1 C1 1_555 1_555
C1 C2 1_555 1_555
C2 C3 1_555 1_555
C3 C5 1_555 1_555
C4 N1 1_555 1_555
C5 C4 1_555 1_555
C6 C5 1_555 1_555
C7 C6 1_555 1_555
H1 C7 1_555 1_555
H2 C7 1_555 1_555
C8 C7 1_555 1_555
H3 C8 1_555 1_555
H4 C8 1_555 1_555
C9 C6 1_555 1_555
H5 C9 1_555 1_555
C10 C9 1_555 1_555
C11 C3 1_555 1_555
C12 C10 1_555 1_555
C13 C2 1_555 1_555
C14 C12 1_555 1_555
H6 C14 1_555 1_555
C15 C13 1_555 1_555
H7 C15 1_555 1_555
H8 C15 1_555 1_555
C16 C15 1_555 1_555
H9 C16 1_555 1_555
H10 C16 1_555 1_555
C17 C16 1_555 1_555
H11 C17 1_555 1_555
C18 C17 1_555 1_555
H12 C18 1_555 1_555
H13 C18 1_555 1_555
C19 C18 1_555 1_555
H14 C19 1_555 1_555
H15 C19 1_555 1_555
C20 C17 1_555 1_555
H16 C20 1_555 1_555
H17 C20 1_555 1_555
C21 C19 1_555 1_555
H18 C21 1_555 1_555
H19 C21 1_555 1_555
C22 C20 1_555 1_555
H20 C22 1_555 1_555
H21 C22 1_555 1_555
C23 N1 1_555 1_555
H22 C23 1_555 1_555
C24 C23 1_555 1_555
H23 C24 1_555 1_555
H24 C24 1_555 1_555
C25 C24 1_555 1_555
H25 C25 1_555 1_555
H26 C25 1_555 1_555
H27 C25 1_555 1_555
C26 C23 1_555 1_555
H28 C26 1_555 1_555
H29 C26 1_555 1_555
C27 C26 1_555 1_555
H30 C27 1_555 1_555
H31 C27 1_555 1_555
H32 C27 1_555 1_555
C28 C8 1_555 1_555
H33 C28 1_555 1_555
C29 C28 1_555 1_555
H34 C29 1_555 1_555
H35 C29 1_555 1_555
C30 C29 1_555 1_555
H36 C30 1_555 1_555
H37 C30 1_555 1_555
C31 C28 1_555 1_555
H38 C31 1_555 1_555
H39 C31 1_555 1_555
C32 C31 1_555 1_555
H40 C32 1_555 1_555
H41 C32 1_555 1_555
C33 C30 1_555 1_555
H42 C33 1_555 1_555
H43 C33 1_555 1_555
O1A C1A 1_555 1_555
O2A C4A 1_555 1_555
N1A C1A 1_555 1_555
C1A C2A 1_555 1_555
C2A C3A 1_555 1_555
C3A C5A 1_555 1_555
C4A N1A 1_555 1_555
C5A C4A 1_555 1_555
C6A C5A 1_555 1_555
C7A C6A 1_555 1_555
H1A C7A 1_555 1_555
H2A C7A 1_555 1_555
C8A C7A 1_555 1_555
H3A C8A 1_555 1_555
H4A C8A 1_555 1_555
C9A C6A 1_555 1_555
H5A C9A 1_555 1_555
C10A C9A 1_555 1_555
C11A C12 1_555 1_555
C12A C11 1_555 1_555
C13A C14 1_555 1_555
C14A C13 1_555 1_555
H6A C14A 1_555 1_555
C15A C13A 1_555 1_555
H7A C15A 1_555 1_555
H8A C15A 1_555 1_555
C16A C15A 1_555 1_555
H9A C16A 1_555 1_555
H10A C16A 1_555 1_555
C17A C16A 1_555 1_555
H11A C17A 1_555 1_555
C18A C17A 1_555 1_555
H12A C18A 1_555 1_555
H13A C18A 1_555 1_555
C19A C18A 1_555 1_555
H14A C19A 1_555 1_555
H15A C19A 1_555 1_555
C20A C17A 1_555 1_555
H16A C20A 1_555 1_555
H17A C20A 1_555 1_555
C21A C19A 1_555 1_555
H18A C21A 1_555 1_555
H19A C21A 1_555 1_555
C22A C20A 1_555 1_555
H20A C22A 1_555 1_555
H21A C22A 1_555 1_555
C23A N1A 1_555 1_555
H22A C23A 1_555 1_555
C24A C23A 1_555 1_555
H23A C24A 1_555 1_555
H24A C24A 1_555 1_555
C25A C24A 1_555 1_555
H25A C25A 1_555 1_555
H26A C25A 1_555 1_555
H27A C25A 1_555 1_555
C26A C23A 1_555 1_555
H28A C26A 1_555 1_555
H29A C26A 1_555 1_555
C27A C26A 1_555 1_555
H30A C27A 1_555 1_555
H31A C27A 1_555 1_555
H32A C27A 1_555 1_555
C28A C8A 1_555 1_555
H33A C28A 1_555 1_555
C29A C28A 1_555 1_555
H34A C29A 1_555 1_555
H35A C29A 1_555 1_555
C30A C29A 1_555 1_555
H36A C30A 1_555 1_555
H37A C30A 1_555 1_555
C31A C28A 1_555 1_555
H38A C31A 1_555 1_555
H39A C31A 1_555 1_555
C32A C31A 1_555 1_555
H40A C32A 1_555 1_555
H41A C32A 1_555 1_555
C33A C30A 1_555 1_555
H42A C33A 1_555 1_555
H43A C33A 1_555 1_555
C10 C11 1_555 1_555
C21 C22 1_555 1_555
C32 C33 1_555 1_555
C2A C13A 1_555 1_555
C3A C11A 1_555 1_555
C10A C11A 1_555 1_555
C10A C12A 1_555 1_555
C12A C14A 1_555 1_555
C21A C22A 1_555 1_555
C32A C33A 1_555 1_555

#END
