
#######################################################################
#
#                 Cambridge Crystallographic Data Centre
#                                CCDC 
#
#######################################################################
#
# If this CIF has been generated from an entry in the Cambridge 
# Structural Database, then it will include bibliographic, chemical, 
# crystal, experimental, refinement or atomic coordinate data resulting 
# from the CCDC's data processing and validation procedures.
#
#######################################################################

data_NULNAK
_chemical_formula_moiety         'C54 H78 N2 O4 Si4'
_chemical_name_systematic        
"N,N'-bis(1-Ethylpropyl)-2,5,8,11-tetrakis[2-(trimethylsilyl)ethyl]perylene-3,4:9,10-tetracarboxylic acid bisimide"
_symmetry_cell_setting           orthorhombic
_symmetry_space_group_name_H-M   'P c a n'
_symmetry_Int_Tables_number      60
_space_group_name_Hall           '-P 2n 2c'
loop_
_symmetry_equiv_pos_site_id
_symmetry_equiv_pos_as_xyz
1 x,y,z
2 1/2-x,1/2-y,1/2+z
3 x,-y,1/2-z
4 1/2-x,1/2+y,-z
5 -x,-y,-z
6 1/2+x,1/2+y,1/2-z
7 -x,y,1/2+z
8 1/2+x,1/2-y,z
_cell_length_a                   9.905(4)
_cell_length_b                   30.784(12)
_cell_length_c                   35.381(14)
_cell_angle_alpha                90
_cell_angle_beta                 90
_cell_angle_gamma                90
_cell_volume                     10788.2
_exptl_crystal_colour            red
_exptl_crystal_description       prism
_cell_formula_units_Z            8
_exptl_crystal_recrystallization_method dichloromethane/methanol
loop_
_atom_site_label
_atom_site_type_symbol
_atom_site_fract_x
_atom_site_fract_y
_atom_site_fract_z
C1 C 0.090(3) 0.0723(5) 0.3228(6)
H1 H 0.1832 0.0785 0.3312
H2 H 0.0812 0.0808 0.2959
C2 C -0.008(3) 0.0970(6) 0.3462(6)
H3 H 0.0104 0.0931 0.3735
H4 H -0.1021 0.0878 0.3409
C3 C 0.2343(13) 0.3579(4) 0.4084(3)
C4 C 0.1413(15) 0.3799(4) 0.3842(4)
C5 C 0.0589(13) 0.3534(4) 0.3608(3)
H5 H -0.0058 0.3677 0.3454
C6 C 0.0649(14) 0.3091(4) 0.3586(3)
C7 C -0.0196(12) 0.2832(4) 0.3332(3)
C8 C -0.1091(13) 0.3015(4) 0.3079(3)
H6 H -0.1147 0.3323 0.3068
C9 C -0.1928(13) 0.2773(4) 0.2836(3)
C10 C -0.1863(13) 0.2318(4) 0.2852(3)
C11 C -0.0923(13) 0.2106(4) 0.3099(3)
C12 C -0.0815(15) 0.1650(4) 0.3099(3)
C13 C 0.0161(17) 0.1453(4) 0.3338(4)
C14 C 0.0872(19) 0.1708(4) 0.3577(4)
H7 H 0.1427 0.1566 0.3758
C15 C 0.0864(12) 0.2152(4) 0.3582(3)
C16 C 0.1715(12) 0.2420(3) 0.3831(3)
C17 C 0.2628(12) 0.2222(4) 0.4067(3)
H8 H 0.2679 0.1913 0.4067
C18 C 0.3506(13) 0.2458(4) 0.4314(3)
C19 C 0.3386(12) 0.2909(4) 0.4314(3)
C20 C 0.2453(13) 0.3132(4) 0.4072(3)
C21 C 0.1616(14) 0.2872(4) 0.3828(3)
C22 C -0.0095(12) 0.2365(3) 0.3337(3)
C23 C 0.4301(16) 0.3181(4) 0.4550(4)
C24 C 0.3115(15) 0.3841(5) 0.4357(4)
C25 C -0.2790(14) 0.2047(4) 0.2629(3)
C26 C -0.1549(16) 0.1389(4) 0.2809(4)
C27 C 0.1229(15) 0.4279(4) 0.3798(4)
H9 H 0.0927 0.4343 0.3537
H10 H 0.2107 0.4426 0.3837
C28 C 0.0182(15) 0.4464(4) 0.4081(4)
H11 H 0.0337 0.4329 0.4331
H12 H -0.0733 0.4379 0.3996
C29 C 0.025(2) 0.5328(5) 0.3680(5)
H13 H 0.1064 0.5239 0.3541
H14 H 0.0261 0.5644 0.3714
H15 H -0.0551 0.5243 0.3537
C30 C -0.127(2) 0.5230(6) 0.4394(7)
H16 H -0.1289 0.5086 0.4641
H17 H -0.2079 0.5146 0.4250
H18 H -0.1268 0.5545 0.4429
C31 C 0.180(2) 0.5236(5) 0.4442(6)
H19 H 0.2629 0.5154 0.4310
H20 H 0.1758 0.5088 0.4687
H21 H 0.1784 0.5551 0.4481
C32 C -0.2755(13) 0.3025(4) 0.2549(3)
H22 H -0.2809 0.3334 0.2626
H23 H -0.3685 0.2907 0.2540
C33 C -0.2109(13) 0.2993(4) 0.2150(3)
H24 H -0.1999 0.2682 0.2087
H25 H -0.1195 0.3123 0.2163
C34 C -0.4048(15) 0.3730(4) 0.1947(4)
H26 H -0.4723 0.3623 0.2126
H27 H -0.4502 0.3877 0.1736
H28 H -0.3443 0.3934 0.2074
C35 C -0.4191(16) 0.2854(5) 0.1534(4)
H29 H -0.4851 0.2753 0.1721
H30 H -0.3663 0.2607 0.1442
H31 H -0.4664 0.2991 0.1322
C36 C -0.1776(17) 0.3477(6) 0.1420(4)
H32 H -0.2245 0.3623 0.1212
H33 H -0.1232 0.3238 0.1319
H34 H -0.1187 0.3684 0.1550
C37 C -0.081(3) -0.0035(10) 0.2932(8)
H35 H -0.1666 0.0104 0.3000
H36 H -0.0926 -0.0351 0.2928
H37 H -0.0521 0.0065 0.2682
C38 C 0.216(2) -0.0054(8) 0.3298(9)
H38 H 0.2611 0.0074 0.3518
H39 H 0.2611 0.0040 0.3066
H40 H 0.2196 -0.0372 0.3317
C39 C -0.026(4) -0.0193(12) 0.3726(8)
H41 H -0.1221 -0.0118 0.3751
H42 H 0.0220 -0.0105 0.3955
H43 H -0.0171 -0.0507 0.3690
C40 C 0.4390(13) 0.2183(4) 0.4572(3)
H44 H 0.5286 0.2321 0.4603
H45 H 0.4523 0.1891 0.4460
C41 C 0.3663(13) 0.2143(4) 0.4964(3)
H46 H 0.2778 0.2000 0.4927
H47 H 0.3492 0.2439 0.5063
C42 C 0.522(2) 0.1324(6) 0.5081(5)
H48 H 0.5818 0.1399 0.4869
H49 H 0.4439 0.1163 0.4986
H50 H 0.5718 0.1143 0.5262
C43 C 0.601(2) 0.2177(7) 0.5500(5)
H51 H 0.6605 0.2259 0.5291
H52 H 0.6521 0.2018 0.5691
H53 H 0.5618 0.2440 0.5613
C44 C 0.3548(15) 0.1683(5) 0.5708(3)
H54 H 0.4063 0.1518 0.5896
H55 H 0.2803 0.1504 0.5613
H56 H 0.3184 0.1946 0.5826
C45 C 0.463(2) 0.3893(7) 0.4909(4)
C46 C 0.592(3) 0.4011(8) 0.4795(6)
H57 H 0.6123 0.4254 0.4968
H58 H 0.6467 0.3765 0.4891
C47 C 0.661(2) 0.4127(8) 0.4481(6)
H59 H 0.7537 0.4201 0.4549
H60 H 0.6170 0.4379 0.4364
H61 H 0.6610 0.3884 0.4301
C48 C 0.430(2) 0.3677(8) 0.5306(5)
H62 H 0.3359 0.3573 0.5310
H63 H 0.4906 0.3425 0.5349
C49 C 0.450(2) 0.3984(8) 0.5589(5)
H64 H 0.4305 0.3852 0.5835
H65 H 0.3889 0.4230 0.5548
H66 H 0.5435 0.4085 0.5584
C50 C -0.3553(16) 0.1324(4) 0.2392(4)
C51 C -0.2942(15) 0.1207(5) 0.2017(4)
H67 H -0.3592 0.1024 0.1876
H68 H -0.2123 0.1030 0.2062
C52 C -0.2559(14) 0.1593(4) 0.1771(4)
H69 H -0.2140 0.1489 0.1537
H70 H -0.1920 0.1778 0.1908
H71 H -0.3372 0.1761 0.1710
C53 C -0.4119(17) 0.0944(4) 0.2623(4)
H72 H -0.4227 0.1033 0.2890
H73 H -0.3481 0.0697 0.2614
C54 C -0.5495(17) 0.0804(5) 0.2461(4)
H74 H -0.5842 0.0556 0.2605
H75 H -0.5386 0.0720 0.2195
H76 H -0.6133 0.1046 0.2478
N1 N 0.4024(12) 0.3613(3) 0.4583(3)
N2 N -0.2599(11) 0.1608(3) 0.2624(2)
O1 O 0.5256(12) 0.3018(3) 0.4747(3)
O2 O 0.2967(10) 0.4231(3) 0.4405(2)
O3 O -0.3741(9) 0.2197(2) 0.2449(2)
O4 O -0.1312(11) 0.1013(3) 0.2755(3)
Si1 Si 0.0234(5) 0.50655(13) 0.41362(13)
Si2 Si -0.3037(4) 0.32579(12) 0.17593(10)
Si3 Si 0.0498(9) 0.01111(15) 0.32887(18)
Si4 Si 0.4645(4) 0.18314(16) 0.53196(10)
H77 H -0.455(4) 0.138(3) 0.237(3)
C55? C 0.086(4) 0.0993(9) 0.3244(10)
C56? C -0.002(4) 0.0658(8) 0.3470(9)
C57? C 0.117(6) -0.0006(15) 0.3747(9)
C58? C -0.120(3) -0.0084(13) 0.3150(11)
C59? C 0.164(4) -0.0082(11) 0.2904(9)
H78? H 0.0832 0.0931 0.2970
H79? H 0.1810 0.0988 0.3331
H80? H -0.0993 0.0709 0.3425
H81? H 0.0159 0.0681 0.3745
H82? H 0.2087 0.0114 0.3767
H83? H 0.1205 -0.0322 0.3785
H84? H 0.0596 0.0125 0.3941
H85? H -0.1384 0.0001 0.2888
H86? H -0.1881 0.0046 0.3316
H87? H -0.1237 -0.0401 0.3172
H88? H 0.1241 -0.0009 0.2658
H89? H 0.1748 -0.0397 0.2924
H90? H 0.2518 0.0059 0.2929
loop_
_geom_bond_atom_site_label_1
_geom_bond_atom_site_label_2
_geom_bond_site_symmetry_1
_geom_bond_site_symmetry_2
C1 H1 1_555 1_555
H2 C1 1_555 1_555
C2 C1 1_555 1_555
H3 C2 1_555 1_555
H4 C2 1_555 1_555
C3 C4 1_555 1_555
C4 C5 1_555 1_555
C5 H5 1_555 1_555
C6 C5 1_555 1_555
C7 C6 1_555 1_555
C8 C7 1_555 1_555
H6 C8 1_555 1_555
C9 C8 1_555 1_555
C10 C9 1_555 1_555
C11 C10 1_555 1_555
C12 C11 1_555 1_555
C13 C2 1_555 1_555
C14 C13 1_555 1_555
H7 C14 1_555 1_555
C15 C14 1_555 1_555
C16 C15 1_555 1_555
C17 C16 1_555 1_555
H8 C17 1_555 1_555
C18 C17 1_555 1_555
C19 C18 1_555 1_555
C20 C3 1_555 1_555
C21 C6 1_555 1_555
C22 C7 1_555 1_555
C23 C19 1_555 1_555
C24 C3 1_555 1_555
C25 C10 1_555 1_555
C26 C12 1_555 1_555
C27 C4 1_555 1_555
H9 C27 1_555 1_555
H10 C27 1_555 1_555
C28 C27 1_555 1_555
H11 C28 1_555 1_555
H12 C28 1_555 1_555
C29 H13 1_555 1_555
H14 C29 1_555 1_555
H15 C29 1_555 1_555
C30 H16 1_555 1_555
H17 C30 1_555 1_555
H18 C30 1_555 1_555
C31 H19 1_555 1_555
H20 C31 1_555 1_555
H21 C31 1_555 1_555
C32 C9 1_555 1_555
H22 C32 1_555 1_555
H23 C32 1_555 1_555
C33 C32 1_555 1_555
H24 C33 1_555 1_555
H25 C33 1_555 1_555
C34 H26 1_555 1_555
H27 C34 1_555 1_555
H28 C34 1_555 1_555
C35 H29 1_555 1_555
H30 C35 1_555 1_555
H31 C35 1_555 1_555
C36 H32 1_555 1_555
H33 C36 1_555 1_555
H34 C36 1_555 1_555
C37 H35 1_555 1_555
H36 C37 1_555 1_555
H37 C37 1_555 1_555
C38 H38 1_555 1_555
H39 C38 1_555 1_555
H40 C38 1_555 1_555
C39 H41 1_555 1_555
H42 C39 1_555 1_555
H43 C39 1_555 1_555
C40 C18 1_555 1_555
H44 C40 1_555 1_555
H45 C40 1_555 1_555
C41 C40 1_555 1_555
H46 C41 1_555 1_555
H47 C41 1_555 1_555
C42 H48 1_555 1_555
H49 C42 1_555 1_555
H50 C42 1_555 1_555
C43 H51 1_555 1_555
H52 C43 1_555 1_555
H53 C43 1_555 1_555
C44 H54 1_555 1_555
H55 C44 1_555 1_555
H56 C44 1_555 1_555
C45 C46 1_555 1_555
C46 H57 1_555 1_555
H58 C46 1_555 1_555
C47 C46 1_555 1_555
H59 C47 1_555 1_555
H60 C47 1_555 1_555
H61 C47 1_555 1_555
C48 C45 1_555 1_555
H62 C48 1_555 1_555
H63 C48 1_555 1_555
C49 C48 1_555 1_555
H64 C49 1_555 1_555
H65 C49 1_555 1_555
H66 C49 1_555 1_555
C50 C51 1_555 1_555
C51 H67 1_555 1_555
H68 C51 1_555 1_555
C52 C51 1_555 1_555
H69 C52 1_555 1_555
H70 C52 1_555 1_555
H71 C52 1_555 1_555
C53 C50 1_555 1_555
H72 C53 1_555 1_555
H73 C53 1_555 1_555
C54 C53 1_555 1_555
H74 C54 1_555 1_555
H75 C54 1_555 1_555
H76 C54 1_555 1_555
N1 C23 1_555 1_555
N2 C25 1_555 1_555
O1 C23 1_555 1_555
O2 C24 1_555 1_555
O3 C25 1_555 1_555
O4 C26 1_555 1_555
Si1 C28 1_555 1_555
Si2 C33 1_555 1_555
Si3 C1 1_555 1_555
Si4 C41 1_555 1_555
H77 C50 1_555 1_555
C11 C22 1_555 1_555
C12 C13 1_555 1_555
C15 C22 1_555 1_555
C16 C21 1_555 1_555
C19 C20 1_555 1_555
C20 C21 1_555 1_555
C24 N1 1_555 1_555
C26 N2 1_555 1_555
C29 Si1 1_555 1_555
C30 Si1 1_555 1_555
C31 Si1 1_555 1_555
C34 Si2 1_555 1_555
C35 Si2 1_555 1_555
C36 Si2 1_555 1_555
C37 Si3 1_555 1_555
C38 Si3 1_555 1_555
C39 Si3 1_555 1_555
C42 Si4 1_555 1_555
C43 Si4 1_555 1_555
C44 Si4 1_555 1_555
C45 N1 1_555 1_555
C50 N2 1_555 1_555

#END
