
#######################################################################
#
#                 Cambridge Crystallographic Data Centre
#                                CCDC 
#
#######################################################################
#
# If this CIF has been generated from an entry in the Cambridge 
# Structural Database, then it will include bibliographic, chemical, 
# crystal, experimental, refinement or atomic coordinate data resulting 
# from the CCDC's data processing and validation procedures.
#
#######################################################################

data_NULTIY01
_chemical_name_common            N,N-bis(n-Cetyl)quinacridone
_chemical_formula_moiety         'C52 H76 N2 O2'
_chemical_name_systematic        
5,12-Dihexadecyl-5,12-dihydroquino[2,3-b]acridine-7,14-dione
_symmetry_cell_setting           monoclinic
_symmetry_space_group_name_H-M   'P 21/c'
_symmetry_Int_Tables_number      14
_space_group_name_Hall           '-P 2ybc'
loop_
_symmetry_equiv_pos_site_id
_symmetry_equiv_pos_as_xyz
1 x,y,z
2 -x,1/2+y,1/2-z
3 -x,-y,-z
4 x,1/2-y,1/2+z
_cell_length_a                   16.912(3)
_cell_length_b                   9.830(2)
_cell_length_c                   15.129(3)
_cell_angle_alpha                90
_cell_angle_beta                 114.41(3)
_cell_angle_gamma                90
_cell_volume                     2290.3
_exptl_crystal_colour            red
_exptl_crystal_description       block
_cell_formula_units_Z            2
_exptl_crystal_recrystallization_method tetrahydrofuran
loop_
_atom_site_label
_atom_site_type_symbol
_atom_site_fract_x
_atom_site_fract_y
_atom_site_fract_z
C1 C 0.39989(9) -0.22777(13) 0.12135(10)
C2 C 0.35970(10) -0.27395(16) 0.18141(12)
C3 C 0.32944(12) -0.40473(17) 0.17318(13)
C4 C 0.33811(12) -0.49586(18) 0.10716(13)
C5 C 0.37553(11) -0.45266(15) 0.04737(12)
C6 C 0.40542(9) -0.31830(13) 0.05212(10)
C7 C 0.44174(10) -0.27548(14) -0.01559(10)
C8 C 0.47141(9) -0.13366(13) -0.00599(10)
C9 C 0.46589(9) -0.04784(13) 0.06617(9)
C10 C 0.49467(10) 0.08575(13) 0.06948(10)
H1 H 0.4910 0.1447 0.1157
C11 C 0.43527(11) -0.00861(15) 0.21095(11)
C12 C 0.35336(11) 0.07524(16) 0.18602(12)
C13 C 0.35943(11) 0.16458(17) 0.27040(12)
C14 C 0.27497(11) 0.23557(17) 0.25468(13)
C15 C 0.28062(12) 0.32214(18) 0.34005(13)
C16 C 0.19688(13) 0.39557(19) 0.32409(14)
C17 C 0.20025(13) 0.4728(2) 0.41235(14)
C18 C 0.11513(13) 0.5434(2) 0.39510(14)
C19 C 0.11547(14) 0.6205(2) 0.48221(15)
C20 C 0.02974(13) 0.6903(2) 0.46316(15)
C21 C 0.03024(13) 0.7685(2) 0.54941(15)
C22 C -0.05489(13) 0.8375(2) 0.53361(14)
C23 C -0.05010(13) 0.9141(2) 0.62288(14)
C24 C -0.13336(12) 0.9861(2) 0.61121(14)
C25 C -0.12506(13) 1.0643(2) 0.70130(15)
C26 C -0.20723(15) 1.1389(3) 0.6903(2)
H2 H 0.3527(10) -0.2150(14) 0.2293(11)
H3 H 0.3029(11) -0.4327(17) 0.2161(12)
H4 H 0.3161(11) -0.5887(17) 0.1012(12)
H5 H 0.3861(11) -0.5159(16) 0.0002(12)
H6 H 0.4883(9) 0.0533(13) 0.2286(9)
H7 H 0.3429(10) 0.1345(14) 0.1286(11)
H8 H 0.4063(10) 0.2331(14) 0.2833(11)
H9 H 0.2521(11) 0.2924(16) 0.1942(13)
H10 H 0.3295(12) 0.3915(16) 0.3555(12)
H11 H 0.1809(12) 0.458(2) 0.2639(14)
H12 H 0.2134(12) 0.4062(19) 0.4664(14)
H13 H 0.1011(11) 0.6088(16) 0.3382(13)
H14 H 0.1618(12) 0.6896(18) 0.5035(13)
H15 H 0.0137(12) 0.7529(19) 0.4080(14)
H16 H 0.0804(14) 0.838(2) 0.5707(14)
H17 H -0.0722(11) 0.9039(17) 0.4754(13)
H18 H 0.0020(13) 0.9842(19) 0.6406(12)
H19 H -0.1483(12) 1.0515(18) 0.5537(13)
H20 H -0.0753(12) 1.1315(17) 0.7180(12)
H21 H -0.2249(14) 1.203(2) 0.6359(16)
H22 H 0.4441(9) -0.0663(13) 0.2655(10)
H23 H 0.2995(10) 0.0126(14) 0.1667(10)
H24 H 0.3786(11) 0.1106(15) 0.3330(12)
H25 H 0.2298(10) 0.1674(16) 0.2416(11)
H26 H 0.2999(10) 0.2661(15) 0.3975(12)
H27 H 0.1506(12) 0.3305(17) 0.3036(13)
H28 H 0.2494(12) 0.5411(18) 0.4307(12)
H29 H 0.0671(11) 0.4746(17) 0.3760(12)
H30 H 0.1315(13) 0.556(2) 0.5420(15)
H31 H -0.0163(12) 0.6214(18) 0.4467(12)
H32 H 0.0495(12) 0.7066(19) 0.6064(15)
H33 H -0.1016(12) 0.7663(18) 0.5135(13)
H34 H -0.0327(12) 0.8493(18) 0.6799(14)
H35 H -0.1826(12) 0.9195(16) 0.5963(12)
H36 H -0.1072(12) 0.9977(18) 0.7645(14)
H37 H -0.2001(14) 1.193(2) 0.7515(17)
H38 H -0.2585(15) 1.076(2) 0.6757(15)
N1 N 0.43306(8) -0.09664(11) 0.13083(8)
O1 O 0.44620(8) -0.35221(10) -0.07774(8)
C1B C 0.60011(9) 0.22777(13) -0.12135(10)
C2B C 0.64030(10) 0.27395(16) -0.18141(12)
C3B C 0.67056(12) 0.40473(17) -0.17318(13)
C4B C 0.66189(12) 0.49586(18) -0.10716(13)
C5B C 0.62447(11) 0.45266(15) -0.04737(12)
C6B C 0.59458(9) 0.31830(13) -0.05212(10)
C7B C 0.55826(10) 0.27548(14) 0.01559(10)
C8B C 0.52859(9) 0.13366(13) 0.00599(10)
C9B C 0.53411(9) 0.04784(13) -0.06617(9)
C10B C 0.50533(10) -0.08575(13) -0.06948(10)
H1B H 0.5090 -0.1447 -0.1157
C11B C 0.56473(11) 0.00861(15) -0.21095(11)
C12B C 0.64664(11) -0.07524(16) -0.18602(12)
C13B C 0.64057(11) -0.16458(17) -0.27040(12)
C14B C 0.72503(11) -0.23557(17) -0.25468(13)
C15B C 0.71938(12) -0.32214(18) -0.34005(13)
C16B C 0.80312(13) -0.39557(19) -0.32409(14)
C17B C 0.79975(13) -0.4728(2) -0.41235(14)
C18B C 0.88487(13) -0.5434(2) -0.39510(14)
C19B C 0.88453(14) -0.6205(2) -0.48221(15)
C20B C 0.97026(13) -0.6903(2) -0.46316(15)
C21B C 0.96976(13) -0.7685(2) -0.54941(15)
C22B C 1.05489(13) -0.8375(2) -0.53361(14)
C23B C 1.05010(13) -0.9141(2) -0.62288(14)
C24B C 1.13336(12) -0.9861(2) -0.61121(14)
C25B C 1.12506(13) -1.0643(2) -0.70130(15)
C26B C 1.20723(15) -1.1389(3) -0.6903(2)
H2B H 0.6473(10) 0.2150(14) -0.2293(11)
H3B H 0.6971(11) 0.4327(17) -0.2161(12)
H4B H 0.6839(11) 0.5887(17) -0.1012(12)
H5B H 0.6139(11) 0.5159(16) -0.0002(12)
H6B H 0.5117(9) -0.0533(13) -0.2286(9)
H7B H 0.6571(10) -0.1345(14) -0.1286(11)
H8B H 0.5937(10) -0.2331(14) -0.2833(11)
H9B H 0.7479(11) -0.2924(16) -0.1942(13)
H10B H 0.6705(12) -0.3915(16) -0.3555(12)
H11B H 0.8191(12) -0.458(2) -0.2639(14)
H12B H 0.7866(12) -0.4062(19) -0.4664(14)
H13B H 0.8989(11) -0.6088(16) -0.3382(13)
H14B H 0.8382(12) -0.6896(18) -0.5035(13)
H15B H 0.9863(12) -0.7529(19) -0.4080(14)
H16B H 0.9196(14) -0.838(2) -0.5707(14)
H17B H 1.0722(11) -0.9039(17) -0.4754(13)
H18B H 0.9980(13) -0.9842(19) -0.6406(12)
H19B H 1.1483(12) -1.0515(18) -0.5537(13)
H20B H 1.0753(12) -1.1315(17) -0.7180(12)
H21B H 1.2249(14) -1.203(2) -0.6359(16)
H22B H 0.5559(9) 0.0663(13) -0.2655(10)
H23B H 0.7005(10) -0.0126(14) -0.1667(10)
H24B H 0.6214(11) -0.1106(15) -0.3330(12)
H25B H 0.7702(10) -0.1674(16) -0.2416(11)
H26B H 0.7001(10) -0.2661(15) -0.3975(12)
H27B H 0.8494(12) -0.3305(17) -0.3036(13)
H28B H 0.7506(12) -0.5411(18) -0.4307(12)
H29B H 0.9329(11) -0.4746(17) -0.3760(12)
H30B H 0.8685(13) -0.556(2) -0.5420(15)
H31B H 1.0163(12) -0.6214(18) -0.4467(12)
H32B H 0.9505(12) -0.7066(19) -0.6064(15)
H33B H 1.1016(12) -0.7663(18) -0.5135(13)
H34B H 1.0327(12) -0.8493(18) -0.6799(14)
H35B H 1.1826(12) -0.9195(16) -0.5963(12)
H36B H 1.1072(12) -0.9977(18) -0.7645(14)
H37B H 1.2001(14) -1.193(2) -0.7515(17)
H38B H 1.2585(15) -1.076(2) -0.6757(15)
N1B N 0.56694(8) 0.09664(11) -0.13083(8)
O1B O 0.55380(8) 0.35221(10) 0.07774(8)
loop_
_geom_bond_atom_site_label_1
_geom_bond_atom_site_label_2
_geom_bond_site_symmetry_1
_geom_bond_site_symmetry_2
C1 C2 1_555 1_555
C2 C3 1_555 1_555
C3 C4 1_555 1_555
C4 C5 1_555 1_555
C5 C6 1_555 1_555
C6 C1 1_555 1_555
C7 C6 1_555 1_555
C8 C7 1_555 1_555
C9 C8 1_555 1_555
C10 C9 1_555 1_555
H1 C10 1_555 1_555
C11 C12 1_555 1_555
C12 C13 1_555 1_555
C13 C14 1_555 1_555
C14 C15 1_555 1_555
C15 C16 1_555 1_555
C16 C17 1_555 1_555
C17 C18 1_555 1_555
C18 C19 1_555 1_555
C19 C20 1_555 1_555
C20 C21 1_555 1_555
C21 C22 1_555 1_555
C22 C23 1_555 1_555
C23 C24 1_555 1_555
C24 C25 1_555 1_555
C25 C26 1_555 1_555
C26 H21 1_555 1_555
H2 C2 1_555 1_555
H3 C3 1_555 1_555
H4 C4 1_555 1_555
H5 C5 1_555 1_555
H6 C11 1_555 1_555
H7 C12 1_555 1_555
H8 C13 1_555 1_555
H9 C14 1_555 1_555
H10 C15 1_555 1_555
H11 C16 1_555 1_555
H12 C17 1_555 1_555
H13 C18 1_555 1_555
H14 C19 1_555 1_555
H15 C20 1_555 1_555
H16 C21 1_555 1_555
H17 C22 1_555 1_555
H18 C23 1_555 1_555
H19 C24 1_555 1_555
H20 C25 1_555 1_555
H22 C11 1_555 1_555
H23 C12 1_555 1_555
H24 C13 1_555 1_555
H25 C14 1_555 1_555
H26 C15 1_555 1_555
H27 C16 1_555 1_555
H28 C17 1_555 1_555
H29 C18 1_555 1_555
H30 C19 1_555 1_555
H31 C20 1_555 1_555
H32 C21 1_555 1_555
H33 C22 1_555 1_555
H34 C23 1_555 1_555
H35 C24 1_555 1_555
H36 C25 1_555 1_555
H37 C26 1_555 1_555
H38 C26 1_555 1_555
N1 C1 1_555 1_555
O1 C7 1_555 1_555
C1B C2B 1_555 1_555
C2B C3B 1_555 1_555
C3B C4B 1_555 1_555
C4B C5B 1_555 1_555
C5B C6B 1_555 1_555
C6B C1B 1_555 1_555
C7B C6B 1_555 1_555
C8B C10 1_555 1_555
C9B C8B 1_555 1_555
C10B C8 1_555 1_555
H1B C10B 1_555 1_555
C11B C12B 1_555 1_555
C12B C13B 1_555 1_555
C13B C14B 1_555 1_555
C14B C15B 1_555 1_555
C15B C16B 1_555 1_555
C16B C17B 1_555 1_555
C17B C18B 1_555 1_555
C18B C19B 1_555 1_555
C19B C20B 1_555 1_555
C20B C21B 1_555 1_555
C21B C22B 1_555 1_555
C22B C23B 1_555 1_555
C23B C24B 1_555 1_555
C24B C25B 1_555 1_555
C25B C26B 1_555 1_555
C26B H21B 1_555 1_555
H2B C2B 1_555 1_555
H3B C3B 1_555 1_555
H4B C4B 1_555 1_555
H5B C5B 1_555 1_555
H6B C11B 1_555 1_555
H7B C12B 1_555 1_555
H8B C13B 1_555 1_555
H9B C14B 1_555 1_555
H10B C15B 1_555 1_555
H11B C16B 1_555 1_555
H12B C17B 1_555 1_555
H13B C18B 1_555 1_555
H14B C19B 1_555 1_555
H15B C20B 1_555 1_555
H16B C21B 1_555 1_555
H17B C22B 1_555 1_555
H18B C23B 1_555 1_555
H19B C24B 1_555 1_555
H20B C25B 1_555 1_555
H22B C11B 1_555 1_555
H23B C12B 1_555 1_555
H24B C13B 1_555 1_555
H25B C14B 1_555 1_555
H26B C15B 1_555 1_555
H27B C16B 1_555 1_555
H28B C17B 1_555 1_555
H29B C18B 1_555 1_555
H30B C19B 1_555 1_555
H31B C20B 1_555 1_555
H32B C21B 1_555 1_555
H33B C22B 1_555 1_555
H34B C23B 1_555 1_555
H35B C24B 1_555 1_555
H36B C25B 1_555 1_555
H37B C26B 1_555 1_555
H38B C26B 1_555 1_555
N1B C1B 1_555 1_555
O1B C7B 1_555 1_555
C9 N1 1_555 1_555
C11 N1 1_555 1_555
C7B C8B 1_555 1_555
C9B C10B 1_555 1_555
C9B N1B 1_555 1_555
C11B N1B 1_555 1_555

#END
