
#######################################################################
#
#                 Cambridge Crystallographic Data Centre
#                                CCDC 
#
#######################################################################
#
# If this CIF has been generated from an entry in the Cambridge 
# Structural Database, then it will include bibliographic, chemical, 
# crystal, experimental, refinement or atomic coordinate data resulting 
# from the CCDC's data processing and validation procedures.
#
#######################################################################

data_NULTIY
_chemical_name_common            N,N-bis(n-Cetyl)quinacridone
_chemical_formula_moiety         'C52 H76 N2 O2'
_chemical_name_systematic        
5,12-Dihexadecyl-5,12-dihydroquino[2,3-b]acridine-7,14-dione
_symmetry_cell_setting           monoclinic
_symmetry_space_group_name_H-M   'P 21/c'
_symmetry_Int_Tables_number      14
_space_group_name_Hall           '-P 2ybc'
loop_
_symmetry_equiv_pos_site_id
_symmetry_equiv_pos_as_xyz
1 x,y,z
2 -x,1/2+y,1/2-z
3 -x,-y,-z
4 x,1/2-y,1/2+z
_cell_length_a                   21.731(4)
_cell_length_b                   7.2815(15)
_cell_length_c                   14.910(3)
_cell_angle_alpha                90
_cell_angle_beta                 101.49(3)
_cell_angle_gamma                90
_cell_volume                     2311.99
_exptl_crystal_colour            red
_exptl_crystal_description       block
_cell_formula_units_Z            2
_exptl_crystal_recrystallization_method chloroform/methanol
loop_
_atom_site_label
_atom_site_type_symbol
_atom_site_fract_x
_atom_site_fract_y
_atom_site_fract_z
C1 C 0.08894(9) 0.9367(3) 0.02700(12)
C2 C 0.13170(10) 1.0750(3) 0.06414(14)
H1 H 0.1519 1.0684 0.1252
C3 C 0.14387(11) 1.2187(3) 0.01154(16)
H2 H 0.1723 1.3089 0.0373
C4 C 0.11455(12) 1.2325(3) -0.07990(16)
H3 H 0.1226 1.3320 -0.1149
C5 C 0.07391(10) 1.0985(3) -0.11747(14)
H4 H 0.0546 1.1069 -0.1789
C6 C 0.06046(9) 0.9486(3) -0.06613(12)
C7 C 0.01700(9) 0.8082(3) -0.10908(12)
C8 C 0.00916(9) 0.6501(3) -0.05236(11)
C9 C 0.03816(9) 0.6476(3) 0.04138(11)
C10 C 0.02797(9) 0.4942(3) 0.09128(11)
H5 H 0.0467 0.4881 0.1530
C11 C 0.09401(9) 0.8041(3) 0.18091(11)
H6 H 0.0626 0.7414 0.2077
H7 H 0.0939 0.9323 0.1986
C12 C 0.15749(9) 0.7240(3) 0.22124(12)
H8 H 0.1882 0.7663 0.1868
H9 H 0.1556 0.5911 0.2174
C13 C 0.17727(9) 0.7823(3) 0.32057(13)
H10 H 0.1819 0.9148 0.3224
H11 H 0.1436 0.7517 0.3521
C14 C 0.23686(11) 0.6989(3) 0.37251(14)
H12 H 0.2706 0.7274 0.3409
H13 H 0.2321 0.5664 0.3726
C15 C 0.25514(10) 0.7649(3) 0.47060(14)
H14 H 0.2579 0.8979 0.4706
H15 H 0.2222 0.7315 0.5028
C16 C 0.31641(11) 0.6882(4) 0.52192(15)
H16 H 0.3129 0.5556 0.5238
H17 H 0.3489 0.7170 0.4880
C17 C 0.33687(10) 0.7572(4) 0.61777(15)
H18 H 0.3053 0.7237 0.6525
H19 H 0.3388 0.8903 0.6162
C18 C 0.39973(11) 0.6855(4) 0.66732(15)
H20 H 0.3979 0.5524 0.6683
H21 H 0.4313 0.7198 0.6327
C19 C 0.42037(11) 0.7529(4) 0.76368(15)
H22 H 0.3889 0.7177 0.7983
H23 H 0.4217 0.8860 0.7626
C20 C 0.48308(11) 0.6838(4) 0.81352(16)
H24 H 0.4817 0.5507 0.8153
H25 H 0.5146 0.7180 0.7788
C21 C 0.50326(11) 0.7532(3) 0.90903(16)
H26 H 0.4718 0.7176 0.9437
H27 H 0.5038 0.8864 0.9071
C22 C 0.56608(11) 0.6886(4) 0.95998(16)
H28 H 0.5657 0.5555 0.9621
H29 H 0.5977 0.7250 0.9259
C23 C 0.58499(11) 0.7597(4) 1.05574(16)
H30 H 0.5531 0.7234 1.0894
H31 H 0.5850 0.8928 1.0532
C24 C 0.64777(11) 0.6981(4) 1.10913(17)
H32 H 0.6481 0.5650 1.1118
H33 H 0.6799 0.7354 1.0762
C25 C 0.66466(12) 0.7706(4) 1.20416(18)
H34 H 0.6324 0.7333 1.2369
H35 H 0.6642 0.9037 1.2013
C26 C 0.72716(14) 0.7109(4) 1.2585(2)
H36 H 0.7274 0.5798 1.2656
H37 H 0.7343 0.7681 1.3176
H38 H 0.7597 0.7464 1.2269
N1 N 0.07515(7) 0.7927(2) 0.08059(9)
O1 O -0.01081(7) 0.81995(18) -0.18979(8)
C1B C -0.08894(9) 0.0633(3) -0.02700(12)
C2B C -0.13170(10) -0.0750(3) -0.06414(14)
H1B H -0.1519 -0.0684 -0.1252
C3B C -0.14387(11) -0.2187(3) -0.01154(16)
H2B H -0.1723 -0.3089 -0.0373
C4B C -0.11455(12) -0.2325(3) 0.07990(16)
H3B H -0.1226 -0.3320 0.1149
C5B C -0.07391(10) -0.0985(3) 0.11747(14)
H4B H -0.0546 -0.1069 0.1789
C6B C -0.06046(9) 0.0514(3) 0.06613(12)
C7B C -0.01700(9) 0.1918(3) 0.10908(12)
C8B C -0.00916(9) 0.3499(3) 0.05236(11)
C9B C -0.03816(9) 0.3524(3) -0.04138(11)
C10B C -0.02797(9) 0.5058(3) -0.09128(11)
H5B H -0.0467 0.5119 -0.1530
C11B C -0.09401(9) 0.1959(3) -0.18091(11)
H6B H -0.0626 0.2586 -0.2077
H7B H -0.0939 0.0677 -0.1986
C12B C -0.15749(9) 0.2760(3) -0.22124(12)
H8B H -0.1882 0.2337 -0.1868
H9B H -0.1556 0.4089 -0.2174
C13B C -0.17727(9) 0.2177(3) -0.32057(13)
H10B H -0.1819 0.0852 -0.3224
H11B H -0.1436 0.2483 -0.3521
C14B C -0.23686(11) 0.3011(3) -0.37251(14)
H12B H -0.2706 0.2726 -0.3409
H13B H -0.2321 0.4336 -0.3726
C15B C -0.25514(10) 0.2351(3) -0.47060(14)
H14B H -0.2579 0.1021 -0.4706
H15B H -0.2222 0.2685 -0.5028
C16B C -0.31641(11) 0.3118(4) -0.52192(15)
H16B H -0.3129 0.4444 -0.5238
H17B H -0.3489 0.2830 -0.4880
C17B C -0.33687(10) 0.2428(4) -0.61777(15)
H18B H -0.3053 0.2763 -0.6525
H19B H -0.3388 0.1097 -0.6162
C18B C -0.39973(11) 0.3145(4) -0.66732(15)
H20B H -0.3979 0.4476 -0.6683
H21B H -0.4313 0.2802 -0.6327
C19B C -0.42037(11) 0.2471(4) -0.76368(15)
H22B H -0.3889 0.2823 -0.7983
H23B H -0.4217 0.1140 -0.7626
C20B C -0.48308(11) 0.3162(4) -0.81352(16)
H24B H -0.4817 0.4493 -0.8153
H25B H -0.5146 0.2820 -0.7788
C21B C -0.50326(11) 0.2468(3) -0.90903(16)
H26B H -0.4718 0.2824 -0.9437
H27B H -0.5038 0.1136 -0.9071
C22B C -0.56608(11) 0.3114(4) -0.95998(16)
H28B H -0.5657 0.4445 -0.9621
H29B H -0.5977 0.2750 -0.9259
C23B C -0.58499(11) 0.2403(4) -1.05574(16)
H30B H -0.5531 0.2766 -1.0894
H31B H -0.5850 0.1072 -1.0532
C24B C -0.64777(11) 0.3019(4) -1.10913(17)
H32B H -0.6481 0.4350 -1.1118
H33B H -0.6799 0.2646 -1.0762
C25B C -0.66466(12) 0.2294(4) -1.20416(18)
H34B H -0.6324 0.2667 -1.2369
H35B H -0.6642 0.0963 -1.2013
C26B C -0.72716(14) 0.2891(4) -1.2585(2)
H36B H -0.7274 0.4202 -1.2656
H37B H -0.7343 0.2319 -1.3176
H38B H -0.7597 0.2536 -1.2269
N1B N -0.07515(7) 0.2073(2) -0.08059(9)
O1B O 0.01081(7) 0.18005(18) 0.18979(8)
loop_
_geom_bond_atom_site_label_1
_geom_bond_atom_site_label_2
_geom_bond_site_symmetry_1
_geom_bond_site_symmetry_2
C1 C2 1_555 1_555
C2 H1 1_555 1_555
C3 C2 1_555 1_555
H2 C3 1_555 1_555
C4 C3 1_555 1_555
H3 C4 1_555 1_555
C5 C4 1_555 1_555
H4 C5 1_555 1_555
C6 C1 1_555 1_555
C7 C6 1_555 1_555
C8 C7 1_555 1_555
C9 C8 1_555 1_555
C10 C9 1_555 1_555
H5 C10 1_555 1_555
C11 H6 1_555 1_555
H7 C11 1_555 1_555
C12 C11 1_555 1_555
H8 C12 1_555 1_555
H9 C12 1_555 1_555
C13 C12 1_555 1_555
H10 C13 1_555 1_555
H11 C13 1_555 1_555
C14 C13 1_555 1_555
H12 C14 1_555 1_555
H13 C14 1_555 1_555
C15 C14 1_555 1_555
H14 C15 1_555 1_555
H15 C15 1_555 1_555
C16 C15 1_555 1_555
H16 C16 1_555 1_555
H17 C16 1_555 1_555
C17 C16 1_555 1_555
H18 C17 1_555 1_555
H19 C17 1_555 1_555
C18 C17 1_555 1_555
H20 C18 1_555 1_555
H21 C18 1_555 1_555
C19 C18 1_555 1_555
H22 C19 1_555 1_555
H23 C19 1_555 1_555
C20 C19 1_555 1_555
H24 C20 1_555 1_555
H25 C20 1_555 1_555
C21 C20 1_555 1_555
H26 C21 1_555 1_555
H27 C21 1_555 1_555
C22 C21 1_555 1_555
H28 C22 1_555 1_555
H29 C22 1_555 1_555
C23 C22 1_555 1_555
H30 C23 1_555 1_555
H31 C23 1_555 1_555
C24 C23 1_555 1_555
H32 C24 1_555 1_555
H33 C24 1_555 1_555
C25 C24 1_555 1_555
H34 C25 1_555 1_555
H35 C25 1_555 1_555
C26 C25 1_555 1_555
H36 C26 1_555 1_555
H37 C26 1_555 1_555
H38 C26 1_555 1_555
N1 C1 1_555 1_555
O1 C7 1_555 1_555
C1B C2B 1_555 1_555
C2B H1B 1_555 1_555
C3B C2B 1_555 1_555
H2B C3B 1_555 1_555
C4B C3B 1_555 1_555
H3B C4B 1_555 1_555
C5B C4B 1_555 1_555
H4B C5B 1_555 1_555
C6B C1B 1_555 1_555
C7B C6B 1_555 1_555
C8B C10 1_555 1_555
C9B C8B 1_555 1_555
C10B C8 1_555 1_555
H5B C10B 1_555 1_555
C11B H6B 1_555 1_555
H7B C11B 1_555 1_555
C12B C11B 1_555 1_555
H8B C12B 1_555 1_555
H9B C12B 1_555 1_555
C13B C12B 1_555 1_555
H10B C13B 1_555 1_555
H11B C13B 1_555 1_555
C14B C13B 1_555 1_555
H12B C14B 1_555 1_555
H13B C14B 1_555 1_555
C15B C14B 1_555 1_555
H14B C15B 1_555 1_555
H15B C15B 1_555 1_555
C16B C15B 1_555 1_555
H16B C16B 1_555 1_555
H17B C16B 1_555 1_555
C17B C16B 1_555 1_555
H18B C17B 1_555 1_555
H19B C17B 1_555 1_555
C18B C17B 1_555 1_555
H20B C18B 1_555 1_555
H21B C18B 1_555 1_555
C19B C18B 1_555 1_555
H22B C19B 1_555 1_555
H23B C19B 1_555 1_555
C20B C19B 1_555 1_555
H24B C20B 1_555 1_555
H25B C20B 1_555 1_555
C21B C20B 1_555 1_555
H26B C21B 1_555 1_555
H27B C21B 1_555 1_555
C22B C21B 1_555 1_555
H28B C22B 1_555 1_555
H29B C22B 1_555 1_555
C23B C22B 1_555 1_555
H30B C23B 1_555 1_555
H31B C23B 1_555 1_555
C24B C23B 1_555 1_555
H32B C24B 1_555 1_555
H33B C24B 1_555 1_555
C25B C24B 1_555 1_555
H34B C25B 1_555 1_555
H35B C25B 1_555 1_555
C26B C25B 1_555 1_555
H36B C26B 1_555 1_555
H37B C26B 1_555 1_555
H38B C26B 1_555 1_555
N1B C1B 1_555 1_555
O1B C7B 1_555 1_555
C5 C6 1_555 1_555
C9 N1 1_555 1_555
C11 N1 1_555 1_555
C5B C6B 1_555 1_555
C7B C8B 1_555 1_555
C9B C10B 1_555 1_555
C9B N1B 1_555 1_555
C11B N1B 1_555 1_555

#END
