
#######################################################################
#
#                 Cambridge Crystallographic Data Centre
#                                CCDC 
#
#######################################################################
#
# If this CIF has been generated from an entry in the Cambridge 
# Structural Database, then it will include bibliographic, chemical, 
# crystal, experimental, refinement or atomic coordinate data resulting 
# from the CCDC's data processing and validation procedures.
#
#######################################################################

data_NULWIC
_chemical_formula_moiety         'C26 H19 Br1 O2'
_chemical_name_systematic        
'1-benzylidene-2-(prop-1-en-2-yl)-1H-inden-3-yl 4-bromobenzoate'
_symmetry_cell_setting           triclinic
_symmetry_space_group_name_H-M   'P -1'
_symmetry_Int_Tables_number      2
_space_group_name_Hall           '-P 1'
loop_
_symmetry_equiv_pos_site_id
_symmetry_equiv_pos_as_xyz
1 x,y,z
2 -x,-y,-z
_cell_length_a                   9.273(2)
_cell_length_b                   10.859(3)
_cell_length_c                   10.897(3)
_cell_angle_alpha                88.840(3)
_cell_angle_beta                 82.997(3)
_cell_angle_gamma                69.866(3)
_cell_volume                     1022.26
_exptl_crystal_colour            colorless
_exptl_crystal_description       block
_cell_formula_units_Z            2
loop_
_atom_site_label
_atom_site_type_symbol
_atom_site_fract_x
_atom_site_fract_y
_atom_site_fract_z
Br1 Br 1.32440(2) 1.541944(19) -0.11296(2)
C1 C 1.23770(19) 1.43215(15) -0.01518(16)
O1 O 1.03386(15) 1.08695(12) 0.14059(11)
C2 C 1.04241(19) 1.18992(16) 0.20520(15)
C3 C 0.89213(17) 0.85584(15) 0.32011(14)
C4 C 0.75328(18) 0.93820(14) 0.26408(14)
C5 C 1.1219(2) 1.26687(17) -0.00236(16)
H1 H 1.0866 1.2088 -0.0407
C6 C 1.2303(2) 1.43843(17) 0.11220(17)
H2 H 1.2679 1.4952 0.1500
C7 C 0.79695(18) 0.69722(16) 0.45191(15)
C8 C 1.1846(2) 1.34803(17) -0.07336(16)
H3 H 1.1905 1.3455 -0.1591
C9 C 1.1659(2) 1.35862(17) 0.18218(16)
H4 H 1.1586 1.3626 0.2680
O2 O 0.9984(2) 1.20958(16) 0.31274(12)
C10 C 1.11179(17) 1.27217(14) 0.12518(14)
C11 C 0.79658(19) 1.03026(15) 0.18950(14)
C12 C 0.7171(2) 0.5112(2) 0.5044(2)
H5 H 0.7337 0.4221 0.4963
C13 C 1.01809(18) 0.90642(16) 0.27453(15)
C14 C 0.8221(2) 0.56311(18) 0.44261(18)
H6 H 0.9098 0.5083 0.3947
C15 C 0.91372(18) 0.75040(16) 0.39177(15)
H7 H 1.0154 0.7050 0.4052
C16 C 0.95756(19) 1.00952(15) 0.20292(15)
C17 C 0.60723(19) 0.93043(17) 0.26150(16)
H8 H 0.5762 0.8704 0.3100
C18 C 0.5078(2) 1.01399(19) 0.18512(18)
H9 H 0.4098 1.0094 0.1833
C19 C 1.17771(19) 0.85248(17) 0.30880(17)
C20 C 0.6661(2) 0.77645(19) 0.52570(16)
H10 H 0.6477 0.8659 0.5334
C21 C 0.6977(2) 1.11268(17) 0.11344(16)
H11 H 0.7281 1.1727 0.0645
C22 C 0.5888(2) 0.5906(2) 0.57725(18)
H12 H 0.5196 0.5550 0.6195
C23 C 0.5523(2) 1.10347(19) 0.11205(18)
H13 H 0.4842 1.1579 0.0616
C24 C 0.5625(2) 0.7231(2) 0.58802(17)
H14 H 0.4751 0.7769 0.6372
C25 C 1.2902(3) 0.7680(2) 0.2313(2)
H15 H 1.3900 0.7328 0.2530
H16 H 1.2684 0.7446 0.1559
C26 C 1.2049(2) 0.8932(3) 0.4289(2)
H17 H 1.3113 0.8496 0.4409
H18 H 1.1394 0.8701 0.4936
H19 H 1.1818 0.9864 0.4309
loop_
_geom_bond_atom_site_label_1
_geom_bond_atom_site_label_2
_geom_bond_site_symmetry_1
_geom_bond_site_symmetry_2
Br1 C1 1_555 1_555
C1 C6 1_555 1_555
O1 C2 1_555 1_555
C2 O2 1_555 1_555
C3 C4 1_555 1_555
C4 C11 1_555 1_555
C5 H1 1_555 1_555
C6 H2 1_555 1_555
C7 C14 1_555 1_555
C8 C1 1_555 1_555
H3 C8 1_555 1_555
C9 C6 1_555 1_555
H4 C9 1_555 1_555
C10 C2 1_555 1_555
C11 C16 1_555 1_555
C12 H5 1_555 1_555
C13 C3 1_555 1_555
C14 C12 1_555 1_555
H6 C14 1_555 1_555
C15 C3 1_555 1_555
H7 C15 1_555 1_555
C16 O1 1_555 1_555
C17 C4 1_555 1_555
H8 C17 1_555 1_555
C18 C17 1_555 1_555
H9 C18 1_555 1_555
C19 C13 1_555 1_555
C20 C7 1_555 1_555
H10 C20 1_555 1_555
C21 C11 1_555 1_555
H11 C21 1_555 1_555
C22 C12 1_555 1_555
H12 C22 1_555 1_555
C23 C18 1_555 1_555
H13 C23 1_555 1_555
C24 C20 1_555 1_555
H14 C24 1_555 1_555
C25 C19 1_555 1_555
H15 C25 1_555 1_555
H16 C25 1_555 1_555
C26 C19 1_555 1_555
H17 C26 1_555 1_555
H18 C26 1_555 1_555
H19 C26 1_555 1_555
C5 C8 1_555 1_555
C5 C10 1_555 1_555
C7 C15 1_555 1_555
C9 C10 1_555 1_555
C13 C16 1_555 1_555
C21 C23 1_555 1_555
C22 C24 1_555 1_555

#END
