
#######################################################################
#
#                 Cambridge Crystallographic Data Centre
#                                CCDC 
#
#######################################################################
#
# If this CIF has been generated from an entry in the Cambridge 
# Structural Database, then it will include bibliographic, chemical, 
# crystal, experimental, refinement or atomic coordinate data resulting 
# from the CCDC's data processing and validation procedures.
#
#######################################################################

data_NUMBED
_chemical_formula_moiety         'C10 H16 N4 Se2 2+,2(Cl1 1-)'
_chemical_name_systematic        
"2,2'-Diselane-1,2-diylbis(1,3-dimethyl-2,3-dihydro-1H-imidazol-2-ylium) dichloride"
_symmetry_cell_setting           monoclinic
_symmetry_space_group_name_H-M   'P 21'
_symmetry_Int_Tables_number      4
_space_group_name_Hall           'P 2yb'
loop_
_symmetry_equiv_pos_site_id
_symmetry_equiv_pos_as_xyz
1 x,y,z
2 -x,1/2+y,-z
_cell_length_a                   7.8050(3)
_cell_length_b                   11.0797(5)
_cell_length_c                   9.4489(4)
_cell_angle_alpha                90
_cell_angle_beta                 106.013(2)
_cell_angle_gamma                90
_cell_volume                     785.408
_exptl_crystal_colour            white
_exptl_crystal_description       block
_cell_formula_units_Z            2
loop_
_atom_site_label
_atom_site_type_symbol
_atom_site_fract_x
_atom_site_fract_y
_atom_site_fract_z
C1 C 0.3320(3) 0.5776(3) 0.5208(3)
C2 C 0.3210(3) 0.6707(2) 0.8737(3)
C3 C 0.0048(4) 0.6039(4) 0.7738(4)
H1 H -0.0678 0.5418 0.7983
H2 H 0.0120 0.5921 0.6749
H3 H -0.0471 0.6813 0.7814
C4 C 0.6352(3) 0.6941(3) 1.0273(4)
H4 H 0.7079 0.6565 1.1149
H5 H 0.6266 0.7790 1.0443
H6 H 0.6880 0.6819 0.9479
C5 C 0.1280(4) 0.6926(4) 0.3152(4)
H7 H 0.0257 0.6730 0.2354
H8 H 0.2208 0.7237 0.2766
H9 H 0.0958 0.7525 0.3768
C6 C 0.4809(4) 0.4160(3) 0.6945(4)
H10 H 0.4593 0.3319 0.7066
H11 H 0.4782 0.4590 0.7821
H12 H 0.5956 0.4259 0.6772
C7 C 0.2352(4) 0.5249(3) 0.9972(4)
H13 H 0.1643 0.4677 1.0260
C8 C 0.4040(4) 0.5503(3) 1.0658(4)
H14 H 0.4733 0.5134 1.1507
C9 C 0.1144(4) 0.4731(3) 0.3751(4)
H15 H 0.0149 0.4532 0.2985
C10 C 0.2070(4) 0.3977(3) 0.4784(4)
H16 H 0.1841 0.3162 0.4875
N1 N 0.1914(3) 0.5842(2) 0.4017(3)
N2 N 0.3426(3) 0.4640(2) 0.5687(3)
N3 N 0.1847(3) 0.5985(2) 0.8761(3)
N4 N 0.4575(3) 0.6408(2) 0.9890(3)
Se1 Se 0.49107(3) 0.70162(2) 0.60410(3)
Se2 Se 0.31162(3) 0.79817(3) 0.74000(3)
Cl1 Cl 0.70010(10) 0.57484(7) 0.42128(9)
Cl2 Cl 0.15901(10) 0.89036(8) 0.98827(10)
loop_
_geom_bond_atom_site_label_1
_geom_bond_atom_site_label_2
_geom_bond_site_symmetry_1
_geom_bond_site_symmetry_2
C1 N1 1_555 1_555
C2 N3 1_555 1_555
C3 H1 1_555 1_555
H2 C3 1_555 1_555
H3 C3 1_555 1_555
C4 H4 1_555 1_555
H5 C4 1_555 1_555
H6 C4 1_555 1_555
C5 H7 1_555 1_555
H8 C5 1_555 1_555
H9 C5 1_555 1_555
C6 H10 1_555 1_555
H11 C6 1_555 1_555
H12 C6 1_555 1_555
C7 H13 1_555 1_555
C8 C7 1_555 1_555
H14 C8 1_555 1_555
C9 H15 1_555 1_555
C10 C9 1_555 1_555
H16 C10 1_555 1_555
N1 C5 1_555 1_555
N2 C1 1_555 1_555
N3 C3 1_555 1_555
N4 C2 1_555 1_555
Se1 C1 1_555 1_555
Se2 C2 1_555 1_555
C4 N4 1_555 1_555
C6 N2 1_555 1_555
C7 N3 1_555 1_555
C8 N4 1_555 1_555
C9 N1 1_555 1_555
C10 N2 1_555 1_555
Se1 Se2 1_555 1_555

#END
