
#######################################################################
#
#                 Cambridge Crystallographic Data Centre
#                                CCDC 
#
#######################################################################
#
# If this CIF has been generated from an entry in the Cambridge 
# Structural Database, then it will include bibliographic, chemical, 
# crystal, experimental, refinement or atomic coordinate data resulting 
# from the CCDC's data processing and validation procedures.
#
#######################################################################

data_NUMCII
_chemical_formula_moiety         'C26 H14 S2'
_chemical_name_systematic        
2,2'-(Anthracene-9,10-diyldiethyne-2,1-diyl)dithiophene
_symmetry_cell_setting           orthorhombic
_symmetry_space_group_name_H-M   'P b c a'
_symmetry_Int_Tables_number      61
_space_group_name_Hall           '-P 2ac 2ab'
loop_
_symmetry_equiv_pos_site_id
_symmetry_equiv_pos_as_xyz
1 x,y,z
2 1/2-x,-y,1/2+z
3 -x,1/2+y,1/2-z
4 1/2+x,1/2-y,-z
5 -x,-y,-z
6 1/2+x,y,1/2-z
7 x,1/2-y,1/2+z
8 1/2-x,1/2+y,z
_cell_length_a                   16.508(3)
_cell_length_b                   10.367(2)
_cell_length_c                   21.587(4)
_cell_angle_alpha                90
_cell_angle_beta                 90
_cell_angle_gamma                90
_cell_volume                     3694.37
_exptl_crystal_colour            orange
_exptl_crystal_description       plate
_cell_formula_units_Z            8
loop_
_atom_site_label
_atom_site_type_symbol
_atom_site_fract_x
_atom_site_fract_y
_atom_site_fract_z
S2 S 0.63743(15) 0.30605(19) -0.29521(8)
C2 C 0.7034(3) 0.5222(8) -0.2697(2)
H2 H 0.7150 0.6021 -0.2500
S4 S 0.19406(13) 0.66068(19) 0.16206(8)
C4 C 0.1378(6) 0.4317(10) 0.1480(4)
H4 H 0.1278 0.3478 0.1321
C5 C 0.71681(17) 0.3561(3) -0.33611(11)
H5 H 0.7335 0.3046 -0.3702
C6 C 0.74843(16) 0.4730(3) -0.32091(10)
H6 H 0.7939 0.5067 -0.3425
C7 C 0.58094(16) 0.4504(2) -0.20127(11)
C8 C 0.11964(16) 0.6154(3) 0.20666(11)
H7 H 0.1009 0.6744 0.2371
C9 C 0.43973(16) 0.8180(2) -0.01604(11)
H8 H 0.4316 0.8974 0.0050
C10 C 0.50833(15) 0.6983(2) -0.09545(11)
H9 H 0.5469 0.6949 -0.1281
C11 C 0.33498(14) 0.2465(2) -0.02564(10)
H10 H 0.2973 0.2492 0.0076
C12 C 0.49624(16) 0.8111(2) -0.06464(11)
H11 H 0.5262 0.8857 -0.0760
C13 C 0.44424(14) 0.2345(2) -0.12384(10)
H12 H 0.4806 0.2294 -0.1579
C14 C 0.63841(14) 0.4376(2) -0.25097(10)
C15 C 0.39670(15) 0.7123(2) 0.00105(10)
H13 H 0.3591 0.7187 0.0342
C16 C 0.19946(15) 0.5206(2) 0.12550(10)
C17 C 0.40408(15) 0.1265(2) -0.10505(10)
H14 H 0.4136 0.0466 -0.1254
C18 C 0.40685(14) 0.5921(2) -0.02988(9)
C19 C 0.43262(13) 0.3549(2) -0.09332(9)
C20 C 0.25799(15) 0.4994(2) 0.07775(10)
C21 C 0.30581(15) 0.4872(2) 0.03866(10)
C22 C 0.37642(14) 0.3614(2) -0.04323(9)
C23 C 0.46407(13) 0.5850(2) -0.07947(9)
C24 C 0.36364(13) 0.4796(2) -0.01211(9)
C25 C 0.09352(16) 0.4926(3) 0.19922(11)
H15 H 0.0505 0.4581 0.2233
C26 C 0.47606(13) 0.4666(2) -0.11115(9)
C27 C 0.53609(14) 0.4593(2) -0.16218(9)
C28 C 0.34841(15) 0.1328(2) -0.05559(10)
H16 H 0.3201 0.0574 -0.0431
S1? S 0.70596(12) 0.5542(3) -0.26429(9)
C1? C 0.6538(6) 0.3220(8) -0.2923(3)
H1? H 0.6268 0.2412 -0.2899
S3? S 0.13898(17) 0.4086(3) 0.14761(11)
C3? C 0.1831(6) 0.6428(10) 0.1588(4)
H3? H 0.2083 0.7237 0.1512
loop_
_geom_bond_atom_site_label_1
_geom_bond_atom_site_label_2
_geom_bond_site_symmetry_1
_geom_bond_site_symmetry_2
S2 C5 1_555 1_555
C2 H2 1_555 1_555
S4 C8 1_555 1_555
C4 H4 1_555 1_555
C5 H5 1_555 1_555
C6 C2 1_555 1_555
H6 C6 1_555 1_555
C7 C14 1_555 1_555
C8 H7 1_555 1_555
C9 H8 1_555 1_555
C10 H9 1_555 1_555
C11 H10 1_555 1_555
C12 C9 1_555 1_555
H11 C12 1_555 1_555
C13 H12 1_555 1_555
C14 S2 1_555 1_555
C15 C9 1_555 1_555
H13 C15 1_555 1_555
C16 S4 1_555 1_555
C17 C13 1_555 1_555
H14 C17 1_555 1_555
C18 C15 1_555 1_555
C19 C13 1_555 1_555
C20 C16 1_555 1_555
C21 C20 1_555 1_555
C22 C11 1_555 1_555
C23 C10 1_555 1_555
C24 C18 1_555 1_555
C25 C4 1_555 1_555
H15 C25 1_555 1_555
C26 C19 1_555 1_555
C27 C7 1_555 1_555
C28 C11 1_555 1_555
H16 C28 1_555 1_555
C2 C14 1_555 1_555
C4 C16 1_555 1_555
C5 C6 1_555 1_555
C8 C25 1_555 1_555
C10 C12 1_555 1_555
C17 C28 1_555 1_555
C18 C23 1_555 1_555
C19 C22 1_555 1_555
C21 C24 1_555 1_555
C22 C24 1_555 1_555
C23 C26 1_555 1_555
C26 C27 1_555 1_555

#END
