
#######################################################################
#
#                 Cambridge Crystallographic Data Centre
#                                CCDC 
#
#######################################################################
#
# If this CIF has been generated from an entry in the Cambridge 
# Structural Database, then it will include bibliographic, chemical, 
# crystal, experimental, refinement or atomic coordinate data resulting 
# from the CCDC's data processing and validation procedures.
#
#######################################################################

data_NUMCAA
_chemical_formula_moiety         'C38 H22'
_chemical_name_systematic        9,10-bis(2-Naphthylethynyl)anthracene
_symmetry_cell_setting           monoclinic
_symmetry_space_group_name_H-M   'P 21/c'
_symmetry_Int_Tables_number      14
_space_group_name_Hall           '-P 2ybc'
loop_
_symmetry_equiv_pos_site_id
_symmetry_equiv_pos_as_xyz
1 x,y,z
2 -x,1/2+y,1/2-z
3 -x,-y,-z
4 x,1/2-y,1/2+z
_cell_length_a                   11.787(2)
_cell_length_b                   5.9569(12)
_cell_length_c                   18.334(4)
_cell_angle_alpha                90
_cell_angle_beta                 97.17(3)
_cell_angle_gamma                90
_cell_volume                     1277.24
_exptl_crystal_colour            orange
_exptl_crystal_description       plate
_chemical_melting_point          '263 deg.C'
_cell_formula_units_Z            2
_exptl_crystal_recrystallization_method toluene
loop_
_atom_site_label
_atom_site_type_symbol
_atom_site_fract_x
_atom_site_fract_y
_atom_site_fract_z
C1 C 0.42614(17) 0.9248(3) 0.10080(11)
H1 H 0.4100 1.0662 0.0778
C2 C 0.50788(17) 0.7885(3) 0.07708(12)
H2 H 0.5484 0.8365 0.0382
C3 C 0.53180(17) 0.5778(3) 0.11007(11)
H3 H 0.5883 0.4841 0.0932
C4 C 0.47453(15) 0.5068(3) 0.16607(11)
H4 H 0.4912 0.3637 0.1876
C5 C 0.39006(16) 0.6452(3) 0.19249(10)
C6 C 0.32964(15) 0.5777(3) 0.25080(10)
H5 H 0.3461 0.4362 0.2735
C7 C 0.24737(16) 0.7130(3) 0.27535(11)
C8 C 0.22347(17) 0.9253(3) 0.24106(11)
H6 H 0.1671 1.0198 0.2577
C9 C 0.28023(16) 0.9949(3) 0.18478(11)
H7 H 0.2626 1.1368 0.1625
C10 C 0.36556(15) 0.8576(3) 0.15899(11)
C11 C 0.18633(17) 0.6465(3) 0.33474(12)
C12 C 0.13240(16) 0.5976(3) 0.38403(11)
C13 C 0.06622(15) 0.5467(3) 0.44230(10)
C14 C -0.02757(15) 0.6874(3) 0.45302(11)
C15 C -0.05535(17) 0.8809(3) 0.40882(11)
H8 H -0.0115 0.9156 0.3702
C16 C -0.14364(16) 1.0169(3) 0.42106(11)
H9 H -0.1602 1.1462 0.3913
C17 C -0.21100(17) 0.9678(3) 0.47753(12)
H10 H -0.2732 1.0628 0.4850
C18 C 0.09416(16) 0.3608(3) 0.48875(11)
C19 C 0.18735(15) 0.2140(3) 0.47897(11)
H11 H 0.2334 0.2448 0.4412
C1B C -0.42614(17) 0.0752(3) 0.89920(11)
H1B H -0.4100 -0.0662 0.9222
C2B C -0.50788(17) 0.2115(3) 0.92292(12)
H2B H -0.5484 0.1635 0.9618
C3B C -0.53180(17) 0.4222(3) 0.88993(11)
H3B H -0.5883 0.5159 0.9068
C4B C -0.47453(15) 0.4932(3) 0.83393(11)
H4B H -0.4912 0.6363 0.8124
C5B C -0.39006(16) 0.3548(3) 0.80751(10)
C6B C -0.32964(15) 0.4223(3) 0.74920(10)
H5B H -0.3461 0.5638 0.7265
C7B C -0.24737(16) 0.2870(3) 0.72465(11)
C8B C -0.22347(17) 0.0747(3) 0.75894(11)
H6B H -0.1671 -0.0198 0.7423
C9B C -0.28023(16) 0.0051(3) 0.81522(11)
H7B H -0.2626 -0.1368 0.8375
C10B C -0.36556(15) 0.1424(3) 0.84101(11)
C11B C -0.18633(17) 0.3535(3) 0.66526(12)
C12B C -0.13240(16) 0.4024(3) 0.61597(11)
C13B C -0.06622(15) 0.4533(3) 0.55770(10)
C14B C 0.02757(15) 0.3126(3) 0.54698(11)
C15B C 0.05535(17) 0.1191(3) 0.59118(11)
H8B H 0.0115 0.0844 0.6298
C16B C 0.14364(16) -0.0169(3) 0.57894(11)
H9B H 0.1602 -0.1462 0.6087
C17B C 0.21100(17) 0.0322(3) 0.52247(12)
H10B H 0.2732 -0.0628 0.5150
C18B C -0.09416(16) 0.6392(3) 0.51125(11)
C19B C -0.18735(15) 0.7860(3) 0.52103(11)
H11B H -0.2334 0.7552 0.5588
loop_
_geom_bond_atom_site_label_1
_geom_bond_atom_site_label_2
_geom_bond_site_symmetry_1
_geom_bond_site_symmetry_2
C1 H1 1_555 1_555
C2 C1 1_555 1_555
H2 C2 1_555 1_555
C3 C2 1_555 1_555
H3 C3 1_555 1_555
C4 C3 1_555 1_555
H4 C4 1_555 1_555
C5 C4 1_555 1_555
C6 C5 1_555 1_555
H5 C6 1_555 1_555
C7 C6 1_555 1_555
C8 C7 1_555 1_555
H6 C8 1_555 1_555
C9 C8 1_555 1_555
H7 C9 1_555 1_555
C10 C1 1_555 1_555
C11 C7 1_555 1_555
C12 C11 1_555 1_555
C13 C12 1_555 1_555
C14 C13 1_555 1_555
C15 C14 1_555 1_555
H8 C15 1_555 1_555
C16 C15 1_555 1_555
H9 C16 1_555 1_555
C17 C16 1_555 1_555
H10 C17 1_555 1_555
C18 C13 1_555 1_555
C19 C18 1_555 1_555
H11 C19 1_555 1_555
C1B H1B 1_555 1_555
C2B C1B 1_555 1_555
H2B C2B 1_555 1_555
C3B C2B 1_555 1_555
H3B C3B 1_555 1_555
C4B C3B 1_555 1_555
H4B C4B 1_555 1_555
C5B C4B 1_555 1_555
C6B C5B 1_555 1_555
H5B C6B 1_555 1_555
C7B C6B 1_555 1_555
C8B C7B 1_555 1_555
H6B C8B 1_555 1_555
C9B C8B 1_555 1_555
H7B C9B 1_555 1_555
C10B C1B 1_555 1_555
C11B C7B 1_555 1_555
C12B C11B 1_555 1_555
C13B C12B 1_555 1_555
C14B C18 1_555 1_555
C15B C14B 1_555 1_555
H8B C15B 1_555 1_555
C16B C15B 1_555 1_555
H9B C16B 1_555 1_555
C17B C19 1_555 1_555
H10B C17B 1_555 1_555
C18B C14 1_555 1_555
C19B C17 1_555 1_555
H11B C19B 1_555 1_555
C5 C10 1_555 1_555
C9 C10 1_555 1_555
C5B C10B 1_555 1_555
C9B C10B 1_555 1_555
C13B C14B 1_555 1_555
C13B C18B 1_555 1_555
C16B C17B 1_555 1_555
C18B C19B 1_555 1_555

#END
