
#######################################################################
#
#                 Cambridge Crystallographic Data Centre
#                                CCDC 
#
#######################################################################
#
# If this CIF has been generated from an entry in the Cambridge 
# Structural Database, then it will include bibliographic, chemical, 
# crystal, experimental, refinement or atomic coordinate data resulting 
# from the CCDC's data processing and validation procedures.
#
#######################################################################

data_NUMDOQ
_chemical_formula_moiety         'C22 H22 F2 N2 O3 S1'
_chemical_name_systematic        
N-(8a-(2,4-difluorophenyl)-6-(hydroxymethyl)-4-methyl-4,4a,5,6,8,8a-hexahydropyrano[3,4-d][1,3]thiazin-2-yl)benzamide
_symmetry_cell_setting           orthorhombic
_symmetry_space_group_name_H-M   'P 21 21 21'
_symmetry_Int_Tables_number      19
_space_group_name_Hall           'P 2ac 2ab'
loop_
_symmetry_equiv_pos_site_id
_symmetry_equiv_pos_as_xyz
1 x,y,z
2 1/2-x,-y,1/2+z
3 -x,1/2+y,1/2-z
4 1/2+x,1/2-y,-z
_cell_length_a                   11.0412(6)
_cell_length_b                   11.5042(6)
_cell_length_c                   16.8416(9)
_cell_angle_alpha                90
_cell_angle_beta                 90
_cell_angle_gamma                90
_cell_volume                     2139.22
_exptl_crystal_colour            colorless
_exptl_crystal_description       prism
_cell_formula_units_Z            4
loop_
_atom_site_label
_atom_site_type_symbol
_atom_site_fract_x
_atom_site_fract_y
_atom_site_fract_z
S1 S 0.69180(4) 0.60915(4) 0.78017(2)
F1 F 0.58309(11) 0.32659(9) 1.02895(7)
F2 F 0.98768(13) 0.31097(13) 1.10627(8)
N1 N 0.73148(15) 0.80890(12) 0.85852(8)
H1 H 0.730(2) 0.849(2) 0.9073(12)
N2 N 0.64693(13) 0.67030(11) 0.93496(7)
O1 O 0.78834(15) 0.81781(12) 0.72935(7)
O2 O 0.14323(13) 0.63203(12) 0.97147(10)
O3 O 0.40258(11) 0.63465(10) 0.99230(7)
C1 C 0.92430(17) 1.02429(17) 0.77133(12)
H2 H 0.9671 0.9750 0.7377
C2 C 0.9645(2) 1.1361(2) 0.78346(16)
H3 H 1.0352 1.1617 0.7591
C3 C 0.9001(3) 1.20967(19) 0.83158(15)
H4 H 0.9272 1.2853 0.8396
C4 C 0.7970(3) 1.17277(18) 0.86767(14)
H5 H 0.7528 1.2236 0.8994
C5 C 0.75764(19) 1.05979(16) 0.85729(12)
H6 H 0.6882 1.0342 0.8832
C6 C 0.82102(15) 0.98475(13) 0.80869(9)
C7 C 0.77968(14) 0.86321(13) 0.79402(9)
C8 C 0.68623(15) 0.69549(13) 0.86578(9)
C9 C 0.63555(17) 0.47150(14) 0.82008(10)
H7 H 0.7047 0.4288 0.8421
C10 C 0.5870(2) 0.40281(18) 0.74943(11)
H8 H 0.5612 0.3274 0.7669
H9 H 0.6498 0.3944 0.7104
H10 H 0.5196 0.4435 0.7265
C11 C 0.54369(15) 0.48969(13) 0.88671(9)
H11 H 0.5209 0.4124 0.9061
C12 C 0.60276(15) 0.55477(13) 0.95714(8)
C13 C 0.50604(15) 0.57568(15) 1.02186(9)
H12 H 0.4812 0.5014 1.0438
H13 H 0.5415 0.6211 1.0645
C14 C 0.34292(16) 0.56896(16) 0.93173(10)
H14 H 0.3198 0.4931 0.9534
C15 C 0.23040(18) 0.6344(2) 0.90961(12)
H15 H 0.2513 0.7145 0.8978
H16 H 0.1957 0.6005 0.8621
C16 C 0.42703(16) 0.55040(17) 0.86128(9)
H17 H 0.4466 0.6249 0.8376
H18 H 0.3862 0.5037 0.8215
C17 C 0.70801(15) 0.48689(14) 0.99462(9)
C18 C 0.82527(17) 0.53011(16) 0.99678(11)
H19 H 0.8408 0.6017 0.9732
C19 C 0.92015(19) 0.47126(19) 1.03255(12)
H20 H 0.9982 0.5017 1.0320
C20 C 0.89631(19) 0.36774(18) 1.06851(12)
C21 C 0.78417(19) 0.31852(16) 1.06849(10)
H21 H 0.7698 0.2474 1.0930
C22 C 0.69270(17) 0.37864(14) 1.03051(9)
H22 H 0.146(3) 0.7091(16) 0.9928(16)
loop_
_geom_bond_atom_site_label_1
_geom_bond_atom_site_label_2
_geom_bond_site_symmetry_1
_geom_bond_site_symmetry_2
S1 C8 1_555 1_555
F1 C22 1_555 1_555
F2 C20 1_555 1_555
N1 H1 1_555 1_555
N2 C8 1_555 1_555
O1 C7 1_555 1_555
O2 C15 1_555 1_555
O3 C13 1_555 1_555
C1 H2 1_555 1_555
C2 C1 1_555 1_555
H3 C2 1_555 1_555
C3 C2 1_555 1_555
H4 C3 1_555 1_555
C4 C3 1_555 1_555
H5 C4 1_555 1_555
C5 C4 1_555 1_555
H6 C5 1_555 1_555
C6 C1 1_555 1_555
C7 N1 1_555 1_555
C8 N1 1_555 1_555
C9 S1 1_555 1_555
H7 C9 1_555 1_555
C10 C9 1_555 1_555
H8 C10 1_555 1_555
H9 C10 1_555 1_555
H10 C10 1_555 1_555
C11 C9 1_555 1_555
H11 C11 1_555 1_555
C12 N2 1_555 1_555
C13 C12 1_555 1_555
H12 C13 1_555 1_555
H13 C13 1_555 1_555
C14 O3 1_555 1_555
H14 C14 1_555 1_555
C15 C14 1_555 1_555
H15 C15 1_555 1_555
H16 C15 1_555 1_555
C16 C11 1_555 1_555
H17 C16 1_555 1_555
H18 C16 1_555 1_555
C17 C12 1_555 1_555
C18 C17 1_555 1_555
H19 C18 1_555 1_555
C19 C18 1_555 1_555
H20 C19 1_555 1_555
C20 C19 1_555 1_555
C21 C20 1_555 1_555
H21 C21 1_555 1_555
C22 C17 1_555 1_555
H22 O2 1_555 1_555
C5 C6 1_555 1_555
C6 C7 1_555 1_555
C11 C12 1_555 1_555
C14 C16 1_555 1_555
C21 C22 1_555 1_555

#END
