
#######################################################################
#
#                 Cambridge Crystallographic Data Centre
#                                CCDC 
#
#######################################################################
#
# If this CIF has been generated from an entry in the Cambridge 
# Structural Database, then it will include bibliographic, chemical, 
# crystal, experimental, refinement or atomic coordinate data resulting 
# from the CCDC's data processing and validation procedures.
#
#######################################################################

data_NUMWAV
_chemical_compound_source        'Aspergillus ochraceopetaliformis SCSIO 05702'
_chemical_formula_moiety         'C23 H30 O9,0.5(C1 H4 O1),0.5(H2 O1)'
_chemical_name_systematic        
'6,6a,10a-trihydroxy-12-methoxy-3,4,5a,8,8,11-hexamethyl-6,6a,10a,11,11a,12-hexahydro-1H,5aH-benzo[g]pyrano[4,3-b]chromene-1,7,9(8H,10H)-trione methanol solvate hemihydrate'
_chemical_properties_biological  
'tested for antiviral, cytotoxic, antibacterial, and antitubercular activity'
_symmetry_cell_setting           monoclinic
_symmetry_space_group_name_H-M   'P 21'
_symmetry_Int_Tables_number      4
_space_group_name_Hall           'P 2yb'
loop_
_symmetry_equiv_pos_site_id
_symmetry_equiv_pos_as_xyz
1 x,y,z
2 -x,1/2+y,-z
_cell_length_a                   15.1132(12)
_cell_length_b                   7.0509(5)
_cell_length_c                   22.379(2)
_cell_angle_alpha                90
_cell_angle_beta                 102.824(2)
_cell_angle_gamma                90
_cell_volume                     2325.26
_cell_formula_units_Z            4
loop_
_atom_site_label
_atom_site_type_symbol
_atom_site_fract_x
_atom_site_fract_y
_atom_site_fract_z
O1 O 0.9729(4) 0.0031(9) 0.6518(3)
O2 O 1.0800(4) -0.0164(11) 0.7371(3)
O3 O 0.7703(3) 0.0405(8) 0.7426(2)
O4 O 0.9640(4) -0.1772(9) 0.8456(3)
O5 O 0.7345(3) 0.3577(8) 0.7992(2)
H1 H 0.6903 0.3945 0.7736
O6 O 0.6982(3) 0.0284(9) 0.9197(2)
H2 H 0.6641 -0.0358 0.8939
O7 O 0.8328(4) 0.4476(8) 0.9142(3)
H3 H 0.8173 0.4668 0.8772
O8 O 0.5987(4) 0.4260(9) 0.8660(3)
O9 O 0.7280(5) 0.2262(15) 1.0650(3)
C1 C 0.9977(6) -0.0065(14) 0.7145(4)
C2 C 0.9288(5) -0.0016(13) 0.7487(3)
C3 C 0.8420(5) 0.0143(13) 0.7169(3)
C4 C 0.8161(5) 0.0097(12) 0.6513(3)
C5 C 0.8826(5) 0.0092(13) 0.6207(3)
C6 C 0.7850(5) 0.0356(12) 0.8104(3)
C7 C 0.8797(5) 0.1079(12) 0.8400(3)
H4 H 0.8819 0.2389 0.8258
C8 C 0.9544(5) 0.0033(14) 0.8177(4)
H5 H 1.0115 0.0733 0.8308
C9 C 0.7145(5) 0.1772(12) 0.8230(3)
H6 H 0.6533 0.1360 0.8025
C10 C 0.7209(5) 0.1995(12) 0.8919(3)
C11 C 0.8170(6) 0.2504(13) 0.9268(4)
C12 C 0.8912(5) 0.1207(12) 0.9096(3)
H7 H 0.8837 -0.0071 0.9250
C13 C 0.6547(6) 0.3485(14) 0.9066(4)
C14 C 0.6575(6) 0.3842(14) 0.9741(4)
C15 C 0.7355(7) 0.2782(16) 1.0153(4)
C16 C 0.8220(6) 0.2393(15) 0.9963(3)
H8 H 0.8428 0.1135 1.0104
H9 H 0.8672 0.3292 1.0168
C17 C 0.7176(5) 0.0035(15) 0.6183(4)
H10 H 0.6894 -0.1070 0.6309
H11 H 0.7134 -0.0016 0.5749
H12 H 0.6873 0.1151 0.6280
C18 C 0.8766(6) 0.0165(15) 0.5526(3)
H13 H 0.8233 -0.0497 0.5316
H14 H 0.9294 -0.0423 0.5435
H15 H 0.8734 0.1463 0.5393
C19 C 0.7655(5) -0.1702(12) 0.8244(4)
H16 H 0.8001 -0.2533 0.8044
H17 H 0.7019 -0.1959 0.8098
H18 H 0.7821 -0.1908 0.8679
C20 C 1.0456(6) -0.2759(17) 0.8447(4)
H19 H 1.0964 -0.1921 0.8573
H20 H 1.0439 -0.3203 0.8038
H21 H 1.0518 -0.3821 0.8721
C21 C 0.9875(5) 0.1925(16) 0.9417(4)
H22 H 0.9922 0.1991 0.9851
H23 H 0.9973 0.3163 0.9264
H24 H 1.0324 0.1065 0.9332
C22 C 0.5665(6) 0.3228(18) 0.9864(4)
H25 H 0.5637 0.3572 1.0274
H26 H 0.5601 0.1878 0.9816
H27 H 0.5182 0.3846 0.9579
C23 C 0.6720(7) 0.5972(15) 0.9875(4)
H28 H 0.7324 0.6320 0.9850
H29 H 0.6635 0.6239 1.0279
H30 H 0.6289 0.6687 0.9580
O10 O 0.2314(3) -0.0098(8) 0.3625(2)
O11 O 0.3773(3) -0.0331(9) 0.4048(2)
O12 O 0.1593(3) 0.0500(8) 0.5250(2)
O13 O 0.3704(4) -0.2158(9) 0.5498(3)
O14 O 0.1874(3) 0.3539(8) 0.5960(2)
H31 H 0.1790 0.4376 0.6196
O15 O 0.2523(3) 0.0108(9) 0.7229(2)
H32 H 0.2011 -0.0057 0.7286
O16 O 0.3640(4) 0.4107(9) 0.6706(3)
H33 H 0.3182 0.4442 0.6458
O17 O 0.1614(4) 0.4409(10) 0.7111(3)
O18 O 0.3922(4) 0.1396(11) 0.8534(3)
C24 C 0.3012(5) -0.0227(11) 0.4140(3)
C25 C 0.2772(4) -0.0121(12) 0.4724(3)
C26 C 0.1884(5) 0.0188(13) 0.4733(3)
C27 C 0.1179(5) 0.0225(12) 0.4184(3)
C28 C 0.1423(5) 0.0057(12) 0.3650(3)
C29 C 0.2242(4) 0.0273(12) 0.5848(3)
C30 C 0.3206(4) 0.0875(11) 0.5800(3)
H34 H 0.3170 0.2207 0.5672
C31 C 0.3502(5) -0.0267(12) 0.5293(3)
H35 H 0.4055 0.0309 0.5214
C32 C 0.1903(5) 0.1724(12) 0.6259(3)
H36 H 0.1292 0.1374 0.6300
C33 C 0.2547(5) 0.1825(12) 0.6903(3)
C34 C 0.3540(5) 0.2161(12) 0.6879(3)
C35 C 0.3854(4) 0.0780(12) 0.6433(3)
H37 H 0.3842 -0.0511 0.6593
C36 C 0.2269(5) 0.3403(14) 0.7297(4)
C37 C 0.2837(5) 0.3548(14) 0.7943(4)
C38 C 0.3636(5) 0.2215(15) 0.8040(4)
C39 C 0.4128(5) 0.1933(15) 0.7530(3)
H38 H 0.4391 0.0671 0.7567
H39 H 0.4624 0.2835 0.7584
C40 C 0.0198(4) 0.0421(14) 0.4231(4)
H40 H -0.0168 0.0753 0.3837
H41 H 0.0151 0.1395 0.4522
H42 H -0.0009 -0.0761 0.4363
C41 C 0.0826(5) 0.0009(14) 0.3022(3)
H43 H 0.0714 0.1280 0.2871
H44 H 0.0261 -0.0588 0.3038
H45 H 0.1119 -0.0697 0.2754
C42 C 0.2115(5) -0.1740(12) 0.6032(4)
H46 H 0.2197 -0.2582 0.5712
H47 H 0.1514 -0.1893 0.6101
H48 H 0.2553 -0.2031 0.6402
C43 C 0.4412(6) -0.3042(15) 0.5281(4)
H49 H 0.4958 -0.2313 0.5404
H50 H 0.4248 -0.3117 0.4842
H51 H 0.4509 -0.4297 0.5450
C44 C 0.4828(5) 0.1228(15) 0.6379(4)
H52 H 0.5210 0.1366 0.6781
H53 H 0.4831 0.2387 0.6154
H54 H 0.5051 0.0212 0.6167
C45 C 0.3203(7) 0.5596(17) 0.8056(4)
H55 H 0.3577 0.5887 0.7773
H56 H 0.3556 0.5705 0.8468
H57 H 0.2703 0.6468 0.7997
C46 C 0.2220(6) 0.3103(15) 0.8396(4)
H58 H 0.2528 0.3452 0.8804
H59 H 0.2084 0.1771 0.8384
H60 H 0.1666 0.3811 0.8281
O19 O 0.5932(5) 0.5069(13) 0.7147(3)
H61 H 0.6037 0.4874 0.6808
C47 C 0.5474(8) 0.673(2) 0.7138(6)
H62 H 0.5274 0.6871 0.7514
H63 H 0.4957 0.6730 0.6799
H64 H 0.5867 0.7768 0.7094
O20 O 0.5353(4) -0.1268(12) 0.8599(3)
H65 H 0.4932 -0.0933 0.8298
H66 H 0.5199 -0.0550 0.8864
loop_
_geom_bond_atom_site_label_1
_geom_bond_atom_site_label_2
_geom_bond_site_symmetry_1
_geom_bond_site_symmetry_2
O1 C1 1_555 1_555
O2 C1 1_555 1_555
O3 C3 1_555 1_555
O4 C8 1_555 1_555
O5 H1 1_555 1_555
O6 H2 1_555 1_555
O7 H3 1_555 1_555
O8 C13 1_555 1_555
O9 C15 1_555 1_555
C1 C2 1_555 1_555
C2 C3 1_555 1_555
C3 C4 1_555 1_555
C4 C5 1_555 1_555
C5 O1 1_555 1_555
C6 O3 1_555 1_555
C7 C6 1_555 1_555
H4 C7 1_555 1_555
C8 C2 1_555 1_555
H5 C8 1_555 1_555
C9 O5 1_555 1_555
H6 C9 1_555 1_555
C10 O6 1_555 1_555
C11 O7 1_555 1_555
C12 C7 1_555 1_555
H7 C12 1_555 1_555
C13 C10 1_555 1_555
C14 C13 1_555 1_555
C15 C14 1_555 1_555
C16 C11 1_555 1_555
H8 C16 1_555 1_555
H9 C16 1_555 1_555
C17 C4 1_555 1_555
H10 C17 1_555 1_555
H11 C17 1_555 1_555
H12 C17 1_555 1_555
C18 C5 1_555 1_555
H13 C18 1_555 1_555
H14 C18 1_555 1_555
H15 C18 1_555 1_555
C19 C6 1_555 1_555
H16 C19 1_555 1_555
H17 C19 1_555 1_555
H18 C19 1_555 1_555
C20 O4 1_555 1_555
H19 C20 1_555 1_555
H20 C20 1_555 1_555
H21 C20 1_555 1_555
C21 C12 1_555 1_555
H22 C21 1_555 1_555
H23 C21 1_555 1_555
H24 C21 1_555 1_555
C22 C14 1_555 1_555
H25 C22 1_555 1_555
H26 C22 1_555 1_555
H27 C22 1_555 1_555
C23 C14 1_555 1_555
H28 C23 1_555 1_555
H29 C23 1_555 1_555
H30 C23 1_555 1_555
O10 C24 1_555 1_555
O11 C24 1_555 1_555
O12 C26 1_555 1_555
O13 C31 1_555 1_555
O14 H31 1_555 1_555
O15 H32 1_555 1_555
O16 H33 1_555 1_555
O17 C36 1_555 1_555
O18 C38 1_555 1_555
C24 C25 1_555 1_555
C25 C26 1_555 1_555
C26 C27 1_555 1_555
C27 C28 1_555 1_555
C28 O10 1_555 1_555
C29 O12 1_555 1_555
C30 C29 1_555 1_555
H34 C30 1_555 1_555
C31 C25 1_555 1_555
H35 C31 1_555 1_555
C32 O14 1_555 1_555
H36 C32 1_555 1_555
C33 O15 1_555 1_555
C34 O16 1_555 1_555
C35 C30 1_555 1_555
H37 C35 1_555 1_555
C36 C33 1_555 1_555
C37 C36 1_555 1_555
C38 C37 1_555 1_555
C39 C34 1_555 1_555
H38 C39 1_555 1_555
H39 C39 1_555 1_555
C40 C27 1_555 1_555
H40 C40 1_555 1_555
H41 C40 1_555 1_555
H42 C40 1_555 1_555
C41 C28 1_555 1_555
H43 C41 1_555 1_555
H44 C41 1_555 1_555
H45 C41 1_555 1_555
C42 C29 1_555 1_555
H46 C42 1_555 1_555
H47 C42 1_555 1_555
H48 C42 1_555 1_555
C43 O13 1_555 1_555
H49 C43 1_555 1_555
H50 C43 1_555 1_555
H51 C43 1_555 1_555
C44 C35 1_555 1_555
H52 C44 1_555 1_555
H53 C44 1_555 1_555
H54 C44 1_555 1_555
C45 C37 1_555 1_555
H55 C45 1_555 1_555
H56 C45 1_555 1_555
H57 C45 1_555 1_555
C46 C37 1_555 1_555
H58 C46 1_555 1_555
H59 C46 1_555 1_555
H60 C46 1_555 1_555
O19 H61 1_555 1_555
C47 O19 1_555 1_555
H62 C47 1_555 1_555
H63 C47 1_555 1_555
H64 C47 1_555 1_555
O20 H65 1_555 1_555
H66 O20 1_555 1_555
C6 C9 1_555 1_555
C7 C8 1_555 1_555
C9 C10 1_555 1_555
C10 C11 1_555 1_555
C11 C12 1_555 1_555
C15 C16 1_555 1_555
C29 C32 1_555 1_555
C30 C31 1_555 1_555
C32 C33 1_555 1_555
C33 C34 1_555 1_555
C34 C35 1_555 1_555
C38 C39 1_555 1_555

#END
