
#######################################################################
#
#                 Cambridge Crystallographic Data Centre
#                                CCDC 
#
#######################################################################
#
# If this CIF has been generated from an entry in the Cambridge 
# Structural Database, then it will include bibliographic, chemical, 
# crystal, experimental, refinement or atomic coordinate data resulting 
# from the CCDC's data processing and validation procedures.
#
#######################################################################

data_NUMZEC
_chemical_formula_moiety         'C16 H15 Cl1 F1 N1 O2'
_chemical_name_systematic        
2-(3-chloro-4-hydroxyphenyl)-N-(2-(2-fluorophenyl)ethyl)acetamide
_symmetry_cell_setting           monoclinic
_symmetry_space_group_name_H-M   'P 21/c'
_symmetry_Int_Tables_number      14
_space_group_name_Hall           '-P 2ybc'
loop_
_symmetry_equiv_pos_site_id
_symmetry_equiv_pos_as_xyz
1 x,y,z
2 -x,1/2+y,1/2-z
3 -x,-y,-z
4 x,1/2-y,1/2+z
_cell_length_a                   4.8081(2)
_cell_length_b                   11.6221(5)
_cell_length_c                   25.4430(13)
_cell_angle_alpha                90
_cell_angle_beta                 91.278(4)
_cell_angle_gamma                90
_cell_volume                     1421.41
_exptl_crystal_colour            colorless
_exptl_crystal_description       plate
_cell_formula_units_Z            4
loop_
_atom_site_label
_atom_site_type_symbol
_atom_site_fract_x
_atom_site_fract_y
_atom_site_fract_z
Cl1 Cl 0.52251(14) 0.04307(5) 0.85562(3)
F1 F -0.4537(3) -0.13402(12) 0.46745(6)
O1 O 0.6931(3) 0.28042(14) 0.84123(6)
O2 O 0.2388(3) 0.01325(13) 0.65553(6)
N1 N -0.1818(4) 0.01169(16) 0.61492(7)
C1 C 0.0858(4) 0.16965(17) 0.73284(8)
C2 C 0.1894(4) 0.09855(18) 0.77211(9)
C3 C 0.3912(4) 0.13612(18) 0.80758(8)
C4 C 0.4956(4) 0.24789(18) 0.80513(8)
C5 C 0.3922(4) 0.31933(17) 0.76592(9)
C6 C 0.1912(4) 0.28055(17) 0.73010(9)
C7 C -0.1276(4) 0.12660(19) 0.69321(9)
C8 C -0.0071(4) 0.04504(16) 0.65297(8)
C9 C -0.0993(4) -0.05343(18) 0.56878(8)
C10 C -0.2161(5) -0.17540(19) 0.56758(9)
C11 C -0.1314(4) -0.23891(17) 0.51896(8)
C12 C -0.2527(4) -0.21668(18) 0.47028(9)
C13 C -0.1860(5) -0.27240(19) 0.42501(9)
C14 C 0.0189(5) -0.3550(2) 0.42715(10)
C15 C 0.1502(5) -0.3792(2) 0.47453(11)
C16 C 0.0757(5) -0.32247(19) 0.51987(10)
H1 H -0.349(5) 0.0327(19) 0.6183(9)
H2 H 0.12050 0.02220 0.77480
H3 H 0.711(6) 0.355(3) 0.8371(13)
H4 H 0.45950 0.39590 0.76340
H5 H 0.12470 0.33090 0.70320
H6 H -0.21180 0.19330 0.67460
H7 H -0.27740 0.08650 0.71200
H8 H 0.10630 -0.05730 0.56820
H9 H -0.16410 -0.01220 0.53670
H10 H -0.14800 -0.21770 0.59910
H11 H -0.42170 -0.17210 0.56870
H12 H -0.27910 -0.25450 0.39270
H13 H 0.06940 -0.39490 0.39620
H14 H 0.29330 -0.43560 0.47610
H15 H 0.16760 -0.34090 0.55220
loop_
_geom_bond_atom_site_label_1
_geom_bond_atom_site_label_2
_geom_bond_site_symmetry_1
_geom_bond_site_symmetry_2
Cl1 C3 1_555 1_555
F1 C12 1_555 1_555
O1 C4 1_555 1_555
O2 C8 1_555 1_555
N1 C8 1_555 1_555
C1 C2 1_555 1_555
C2 C3 1_555 1_555
C3 C4 1_555 1_555
C4 C5 1_555 1_555
C5 C6 1_555 1_555
C6 C1 1_555 1_555
C7 C1 1_555 1_555
C8 C7 1_555 1_555
C9 N1 1_555 1_555
C10 C9 1_555 1_555
C11 C10 1_555 1_555
C12 C11 1_555 1_555
C13 C12 1_555 1_555
C14 C13 1_555 1_555
C15 C14 1_555 1_555
C16 C11 1_555 1_555
H1 N1 1_555 1_555
H2 C2 1_555 1_555
H3 O1 1_555 1_555
H4 C5 1_555 1_555
H5 C6 1_555 1_555
H6 C7 1_555 1_555
H7 C7 1_555 1_555
H8 C9 1_555 1_555
H9 C9 1_555 1_555
H10 C10 1_555 1_555
H11 C10 1_555 1_555
H12 C13 1_555 1_555
H13 C14 1_555 1_555
H14 C15 1_555 1_555
H15 C16 1_555 1_555
C15 C16 1_555 1_555

#END
