
#######################################################################
#
#                 Cambridge Crystallographic Data Centre
#                                CCDC 
#
#######################################################################
#
# If this CIF has been generated from an entry in the Cambridge 
# Structural Database, then it will include bibliographic, chemical, 
# crystal, experimental, refinement or atomic coordinate data resulting 
# from the CCDC's data processing and validation procedures.
#
#######################################################################

data_NUNBEF
_chemical_compound_source        'Munronia henryi, whole plant'
_chemical_name_common            'Munronin H'
_chemical_formula_moiety         'C30 H36 O9'
_chemical_name_systematic        
"8-(3-furyl)-1,1,5a,7a,10b-pentamethyl-3,11-dioxo-1,3,5a,5b,6,7,7a,8,9,9a,10b,11,12,12a-tetradecahydrooxireno[1',5']cyclopenta[1',2':5,6]naphtho[2,1-c]oxepine-6,7-diyl diacetate"
_symmetry_cell_setting           orthorhombic
_symmetry_space_group_name_H-M   'P 21 21 21'
_symmetry_Int_Tables_number      19
_space_group_name_Hall           'P 2ac 2ab'
loop_
_symmetry_equiv_pos_site_id
_symmetry_equiv_pos_as_xyz
1 x,y,z
2 1/2+x,1/2-y,-z
3 -x,1/2+y,1/2-z
4 1/2-x,-y,1/2+z
_cell_length_a                   7.8619(12)
_cell_length_b                   14.832(2)
_cell_length_c                   23.030(3)
_cell_angle_alpha                90
_cell_angle_beta                 90
_cell_angle_gamma                90
_cell_volume                     2685.48
_exptl_crystal_colour            colorless
_exptl_crystal_description       block
_cell_formula_units_Z            4
_exptl_crystal_recrystallization_method methanol
loop_
_atom_site_label
_atom_site_type_symbol
_atom_site_fract_x
_atom_site_fract_y
_atom_site_fract_z
O1 O 0.6935(6) 0.9687(3) 0.25654(19)
O2 O 1.1372(6) 0.7207(3) 0.1337(3)
O3 O 1.1192(7) 0.7983(4) 0.4200(2)
O4 O 0.7754(6) 0.6195(3) 0.1894(3)
O5 O 1.3804(7) 0.7595(4) 0.3992(3)
C1 C 1.3674(11) 0.6309(7) 0.1084(5)
H1 H 1.4048 0.5877 0.0789
H2 H 1.3839 0.6049 0.1471
H3 H 1.4342 0.6865 0.1050
O6 O 0.6034(6) 0.8015(3) 0.1290(2)
O7 O 1.0955(9) 0.6104(6) 0.0708(4)
C2 C 0.9079(9) 0.8321(4) 0.1396(3)
C3 C 0.7222(9) 0.6536(5) 0.3292(4)
H4 H 0.6880 0.6193 0.2948
H5 H 0.6259 0.6899 0.3428
H6 H 0.7575 0.6120 0.3599
O8 O 0.9608(11) 0.5106(5) 0.1846(4)
C4 C 0.9554(8) 0.7313(4) 0.1419(3)
H7 H 0.8954 0.6996 0.1096
C5 C 1.0320(9) 0.6607(4) 0.3190(4)
H8 H 1.0306 0.6065 0.2970
C6 C 0.6766(11) 0.4736(5) 0.1685(4)
H9 H 0.6522 0.4775 0.1269
H10 H 0.5758 0.4919 0.1906
H11 H 0.7065 0.4113 0.1785
C7 C 0.5304(8) 0.7690(4) 0.2404(3)
H12 H 0.4454 0.8047 0.2194
H13 H 0.5029 0.7688 0.2819
H14 H 0.5300 0.7070 0.2257
C8 C 0.8200(10) 0.5338(4) 0.1829(3)
C9 C 1.0343(9) 0.8987(5) 0.1672(4)
H15 H 0.9976 0.9606 0.1591
H16 H 1.1477 0.8890 0.1507
H17 H 1.0380 0.8891 0.2092
C10 C 0.7326(8) 0.8679(4) 0.3370(3)
H18 H 0.6275 0.8376 0.3504
H19 H 0.7453 0.9244 0.3596
C11 C 0.9322(9) 0.7974(5) 0.4148(3)
C12 C 0.7100(8) 0.8113(4) 0.2312(3)
C13 C 0.8695(10) 0.8644(5) 0.0752(3)
H20 H 0.8135 0.8110 0.0569
C14 C 0.6260(10) 0.8988(5) 0.1322(3)
H21 H 0.5372 0.9371 0.1511
C15 C 0.8736(9) 0.7171(4) 0.3133(4)
C16 C 1.1876(9) 0.6514(4) 0.0998(3)
C17 C 0.7236(11) 0.9339(5) 0.0814(3)
H22 H 0.7685 0.9951 0.0892
H23 H 0.6520 0.9356 0.0461
C18 C 0.7341(8) 0.8382(4) 0.1682(3)
C19 C 0.8866(9) 0.8060(4) 0.3496(3)
H24 H 0.9856 0.8387 0.3323
C20 C 1.2268(10) 0.7470(5) 0.3888(4)
C21 C 1.1728(9) 0.6735(5) 0.3494(4)
H25 H 1.2545 0.6267 0.3452
C22 C 0.8675(8) 0.7499(4) 0.2487(3)
H26 H 0.9645 0.7934 0.2471
C23 C 0.7143(8) 0.8911(4) 0.2735(3)
C24 C 0.8648(11) 0.7146(5) 0.4471(4)
H27 H 0.9163 0.6600 0.4309
H28 H 0.7409 0.7114 0.4429
H29 H 0.8940 0.7193 0.4884
C25 C 0.9125(9) 0.6826(4) 0.1995(4)
H30 H 1.0150 0.6476 0.2118
C26 C 0.8873(11) 0.8816(5) 0.4498(3)
H31 H 0.9346 0.8763 0.4890
H32 H 0.7633 0.8875 0.4522
H33 H 0.9351 0.9349 0.4306
C27 C 1.0142(15) 0.9094(8) 0.0453(7)
C28 C 1.0188(14) 0.9940(7) 0.0228(5)
H34 H 0.9309 1.0373 0.0277
O9 O 1.1647(11) 1.0094(5) -0.0078(4)
C29 C 1.257(2) 0.9322(8) -0.0027(9)
H35 H 1.3677 0.9239 -0.0186
C30 C 1.1711(16) 0.8688(8) 0.0279(8)
H36 H 1.2078 0.8091 0.0362
H37? H 1.0644 0.7599 -0.0011
H38? H 1.3156 0.9855 -0.0230
H39? H 1.0861 1.0189 0.0451
C31? C 1.024(2) 0.8792(12) 0.0393(9)
C32? C 1.0982(19) 0.8212(12) 0.0019(6)
O10? O 1.226(2) 0.8571(9) -0.0313(7)
C33? C 1.233(4) 0.9429(13) -0.0109(13)
C34? C 1.110(3) 0.9618(12) 0.0283(9)
loop_
_geom_bond_atom_site_label_1
_geom_bond_atom_site_label_2
_geom_bond_site_symmetry_1
_geom_bond_site_symmetry_2
O1 C23 1_555 1_555
O2 C4 1_555 1_555
O3 C11 1_555 1_555
O4 C8 1_555 1_555
O5 C20 1_555 1_555
C1 H1 1_555 1_555
H2 C1 1_555 1_555
H3 C1 1_555 1_555
O6 C14 1_555 1_555
O7 C16 1_555 1_555
C2 C4 1_555 1_555
C3 H4 1_555 1_555
H5 C3 1_555 1_555
H6 C3 1_555 1_555
O8 C8 1_555 1_555
C4 H7 1_555 1_555
C5 H8 1_555 1_555
C6 H9 1_555 1_555
H10 C6 1_555 1_555
H11 C6 1_555 1_555
C7 H12 1_555 1_555
H13 C7 1_555 1_555
H14 C7 1_555 1_555
C8 C6 1_555 1_555
C9 C2 1_555 1_555
H15 C9 1_555 1_555
H16 C9 1_555 1_555
H17 C9 1_555 1_555
C10 H18 1_555 1_555
H19 C10 1_555 1_555
C11 C19 1_555 1_555
C12 C7 1_555 1_555
C13 C2 1_555 1_555
H20 C13 1_555 1_555
C14 H21 1_555 1_555
C15 C3 1_555 1_555
C16 O2 1_555 1_555
C17 C13 1_555 1_555
H22 C17 1_555 1_555
H23 C17 1_555 1_555
C18 O6 1_555 1_555
C19 C10 1_555 1_555
H24 C19 1_555 1_555
C20 O3 1_555 1_555
C21 C5 1_555 1_555
H25 C21 1_555 1_555
C22 C12 1_555 1_555
H26 C22 1_555 1_555
C23 C10 1_555 1_555
C24 C11 1_555 1_555
H27 C24 1_555 1_555
H28 C24 1_555 1_555
H29 C24 1_555 1_555
C25 O4 1_555 1_555
H30 C25 1_555 1_555
C26 C11 1_555 1_555
H31 C26 1_555 1_555
H32 C26 1_555 1_555
H33 C26 1_555 1_555
C27 C13 1_555 1_555
C28 C27 1_555 1_555
H34 C28 1_555 1_555
O9 C28 1_555 1_555
C29 O9 1_555 1_555
H35 C29 1_555 1_555
C30 C27 1_555 1_555
H36 C30 1_555 1_555
C1 C16 1_555 1_555
C2 C18 1_555 1_555
C4 C25 1_555 1_555
C5 C15 1_555 1_555
C12 C18 1_555 1_555
C12 C23 1_555 1_555
C14 C17 1_555 1_555
C14 C18 1_555 1_555
C15 C19 1_555 1_555
C15 C22 1_555 1_555
C20 C21 1_555 1_555
C22 C25 1_555 1_555
C29 C30 1_555 1_555

#END
