
#######################################################################
#
#                 Cambridge Crystallographic Data Centre
#                                CCDC 
#
#######################################################################
#
# If this CIF has been generated from an entry in the Cambridge 
# Structural Database, then it will include bibliographic, chemical, 
# crystal, experimental, refinement or atomic coordinate data resulting 
# from the CCDC's data processing and validation procedures.
#
#######################################################################

data_NUNCII
_chemical_name_common            2-Anilinyl-4-toluenesulfonate
_chemical_formula_moiety         'C13 H13 N1 O3 S1'
_chemical_name_systematic        m-(p-Tolylsulfonyloxy)aniline
_chemical_properties_biological  'potential agent which mimics enzyme activity'
_symmetry_cell_setting           monoclinic
_symmetry_space_group_name_H-M   'P 21/c'
_symmetry_Int_Tables_number      14
_space_group_name_Hall           '-P 2ybc'
loop_
_symmetry_equiv_pos_site_id
_symmetry_equiv_pos_as_xyz
1 x,y,z
2 -x,1/2+y,1/2-z
3 -x,-y,-z
4 x,1/2-y,1/2+z
_cell_length_a                   9.9807(7)
_cell_length_b                   7.5585(6)
_cell_length_c                   17.0244(12)
_cell_angle_alpha                90
_cell_angle_beta                 90.196(7)
_cell_angle_gamma                90
_cell_volume                     1284.3
_exptl_crystal_colour            colorless
_exptl_crystal_description       rectangular
_chemical_melting_point          378K
_cell_formula_units_Z            4
loop_
_atom_site_label
_atom_site_type_symbol
_atom_site_fract_x
_atom_site_fract_y
_atom_site_fract_z
S1 S 0.71756(5) 0.03488(8) 0.64542(3)
O1 O 0.67172(13) 0.2341(2) 0.63471(7)
O2 O 0.68457(14) -0.0646(2) 0.57720(8)
O3 O 0.66105(15) -0.0131(3) 0.71904(8)
N1 N 0.5312(2) 0.3700(3) 0.37134(13)
C1 C 0.6215(2) 0.3880(3) 0.43122(11)
C2 C 0.7325(2) 0.4986(3) 0.42357(14)
C3 C 0.8209(2) 0.5187(3) 0.48529(15)
C4 C 0.8048(2) 0.4303(3) 0.55525(14)
C5 C 0.6956(2) 0.3200(3) 0.56121(10)
C6 C 0.6042(2) 0.2967(3) 0.50171(11)
C7 C 0.8926(2) 0.0454(2) 0.65475(9)
C8 C 0.9720(2) -0.0375(3) 0.60045(10)
C9 C 1.1095(2) -0.0340(3) 0.60965(12)
C10 C 1.1692(2) 0.0513(3) 0.67233(12)
C11 C 1.0865(2) 0.1323(3) 0.72666(14)
C12 C 0.9489(2) 0.1297(3) 0.71898(13)
C13 C 1.3198(3) 0.0534(5) 0.6829(3)
H1 H 0.5512(24) 0.4117(33) 0.3291(13)
H2 H 0.4675(25) 0.3101(36) 0.3772(13)
H3 H 0.7427(22) 0.5611(33) 0.3758(12)
H4 H 0.8897(22) 0.5901(31) 0.4770(12)
H5 H 0.8644(22) 0.4422(29) 0.5971(11)
H6 H 0.5322(18) 0.2262(25) 0.5091(9)
H7 H 0.9283(22) -0.0953(29) 0.5575(12)
H8 H 1.1594(23) -0.0904(32) 0.5761(12)
H9 H 1.1202(21) 0.1839(31) 0.7703(12)
H10 H 0.8959(19) 0.1797(30) 0.7546(11)
H11 H 1.3464(51) 0.0673(72) 0.6369(23)
H12 H 1.3599(43) -0.0442(58) 0.7094(23)
H13 H 1.3534(41) 0.1576(64) 0.7063(22)
loop_
_geom_bond_atom_site_label_1
_geom_bond_atom_site_label_2
_geom_bond_site_symmetry_1
_geom_bond_site_symmetry_2
S1 O1 1_555 1_555
O1 C5 1_555 1_555
O2 S1 1_555 1_555
O3 S1 1_555 1_555
N1 C1 1_555 1_555
C1 C2 1_555 1_555
C2 C3 1_555 1_555
C3 C4 1_555 1_555
C4 C5 1_555 1_555
C5 C6 1_555 1_555
C6 C1 1_555 1_555
C7 S1 1_555 1_555
C8 C7 1_555 1_555
C9 C8 1_555 1_555
C10 C9 1_555 1_555
C11 C10 1_555 1_555
C12 C7 1_555 1_555
C13 C10 1_555 1_555
H1 N1 1_555 1_555
H2 N1 1_555 1_555
H3 C2 1_555 1_555
H4 C3 1_555 1_555
H5 C4 1_555 1_555
H6 C6 1_555 1_555
H7 C8 1_555 1_555
H8 C9 1_555 1_555
H9 C11 1_555 1_555
H10 C12 1_555 1_555
H11 C13 1_555 1_555
H12 C13 1_555 1_555
H13 C13 1_555 1_555
C11 C12 1_555 1_555

#END
