
#######################################################################
#
#                 Cambridge Crystallographic Data Centre
#                                CCDC 
#
#######################################################################
#
# If this CIF has been generated from an entry in the Cambridge 
# Structural Database, then it will include bibliographic, chemical, 
# crystal, experimental, refinement or atomic coordinate data resulting 
# from the CCDC's data processing and validation procedures.
#
#######################################################################

data_NUNCAC
_chemical_formula_moiety         'C23 H21 N1 O3 S1'
_chemical_name_systematic        
N-acetyl-N-benzyl-2-(methylsulfanyl)-3-(2-naphthyl)-3-oxopropanamide
_symmetry_cell_setting           monoclinic
_symmetry_space_group_name_H-M   'P 21/n'
_symmetry_Int_Tables_number      14
_space_group_name_Hall           '-P 2yn'
loop_
_symmetry_equiv_pos_site_id
_symmetry_equiv_pos_as_xyz
1 x,y,z
2 1/2-x,1/2+y,1/2-z
3 -x,-y,-z
4 1/2+x,1/2-y,1/2+z
_cell_length_a                   9.7993(6)
_cell_length_b                   25.1148(12)
_cell_length_c                   17.0761(8)
_cell_angle_alpha                90
_cell_angle_beta                 104.997(5)
_cell_angle_gamma                90
_cell_volume                     4059.41
_exptl_crystal_colour            colorless
_exptl_crystal_description       prismatic
_cell_formula_units_Z            8
loop_
_atom_site_label
_atom_site_type_symbol
_atom_site_fract_x
_atom_site_fract_y
_atom_site_fract_z
S1 S 0.40682(7) 0.55232(3) 0.87907(4)
N1 N 0.27886(17) 0.70752(7) 0.84273(9)
O1 O 0.33079(16) 0.64408(7) 1.01410(9)
O2 O 0.17207(17) 0.62736(7) 0.81865(10)
O3 O 0.49688(19) 0.72222(7) 0.92822(11)
C1 C 0.8276(2) 0.61634(7) 1.07800(10)
C2 C 0.9554(2) 0.61988(8) 1.05507(12)
H1 H 0.9533 0.6243 1.0007
C3 C 1.0819(2) 0.61686(9) 1.11143(14)
H2 H 1.1656 0.6201 1.0958
C4 C 1.0856(3) 0.60887(9) 1.19314(14)
H3 H 1.1725 0.6069 1.2313
C5 C 0.9659(2) 0.60395(8) 1.21761(12)
H4 H 0.9713 0.5978 1.2720
C6 C 0.8323(2) 0.60810(7) 1.16111(10)
C7 C 0.7038(2) 0.60532(8) 1.18372(12)
H5 H 0.7054 0.5987 1.2375
C8 C 0.5787(2) 0.61210(8) 1.12856(12)
H6 H 0.4955 0.6109 1.1451
C9 C 0.5722(2) 0.62110(7) 1.04566(10)
C10 C 0.6949(2) 0.62190(7) 1.02148(10)
H7 H 0.6907 0.6262 0.9668
C11 C 0.4316(2) 0.63164(8) 0.98889(11)
C12 C 0.4107(2) 0.62321(8) 0.89853(11)
H8 H 0.4920 0.6384 0.8831
C13 C 0.2778(2) 0.65175(9) 0.85086(12)
C14 C 0.3936(3) 0.73985(9) 0.88080(13)
C15 C 0.3840(3) 0.79772(10) 0.86058(16)
H9 H 0.4669 0.8156 0.8919
H10 H 0.3018 0.8125 0.8729
H11 H 0.3773 0.8023 0.8039
C16 C 0.1492(2) 0.73157(9) 0.78993(12)
H12 H 0.0997 0.7046 0.7527
H13 H 0.1766 0.7595 0.7579
C17 C 0.0488(2) 0.75460(9) 0.83425(12)
C18 C -0.0010(3) 0.72504(10) 0.88882(14)
H14 H 0.0308 0.6903 0.9005
C19 C -0.0972(3) 0.74603(13) 0.92640(16)
H15 H -0.1306 0.7250 0.9623
C20 C -0.1443(3) 0.79685(14) 0.91220(18)
H16 H -0.2092 0.8106 0.9381
C21 C -0.0954(3) 0.82733(14) 0.8596(2)
H17 H -0.1258 0.8624 0.8501
C22 C 0.0000(3) 0.80641(12) 0.81977(18)
H18 H 0.0312 0.8274 0.7831
C23 C 0.2869(3) 0.52709(11) 0.93312(19)
H19 H 0.3293 0.5296 0.9904
H20 H 0.2656 0.4905 0.9186
H21 H 0.2014 0.5476 0.9195
S2 S 0.90641(8) 0.54530(3) 0.84898(4)
N2 N 0.72664(17) 0.67285(6) 0.71141(9)
O4 O 0.66912(17) 0.54841(7) 0.66044(11)
O5 O 0.69306(17) 0.63002(6) 0.82070(8)
O6 O 0.8689(2) 0.64542(7) 0.63247(9)
C24 C 1.1234(2) 0.49218(7) 0.63728(10)
C25 C 1.2706(2) 0.49935(8) 0.65546(12)
H22 H 1.3136 0.5246 0.6938
C26 C 1.3512(3) 0.46968(10) 0.61743(14)
H23 H 1.4484 0.4748 0.6298
C27 C 1.2873(3) 0.43140(10) 0.55965(14)
H24 H 1.3426 0.4116 0.5335
C28 C 1.1460(3) 0.42303(8) 0.54154(12)
H25 H 1.1056 0.3972 0.5037
C29 C 1.0592(2) 0.45307(7) 0.57942(10)
C30 C 0.9119(3) 0.44620(8) 0.56198(11)
H26 H 0.8692 0.4200 0.5253
C31 C 0.8309(2) 0.47673(8) 0.59720(11)
H27 H 0.7337 0.4714 0.5841
C32 C 0.8927(2) 0.51685(7) 0.65406(10)
C33 C 1.0359(2) 0.52352(7) 0.67378(10)
H28 H 1.0770 0.5491 0.7119
C34 C 0.7967(2) 0.55074(8) 0.68740(12)
C35 C 0.8564(2) 0.58653(8) 0.75966(10)
H29 H 0.9420 0.6034 0.7518
C36 C 0.7532(2) 0.63051(8) 0.76731(11)
C37 C 0.7870(2) 0.67765(9) 0.64580(12)
C38 C 0.7455(4) 0.72518(14) 0.5918(2)
H30 H 0.7795 0.7570 0.6217
H31 H 0.6444 0.7267 0.5727
H32 H 0.7859 0.7223 0.5464
C39 C 0.6257(2) 0.71340(8) 0.72515(13)
H33 H 0.6556 0.7481 0.7109
H34 H 0.6295 0.7141 0.7825
C40 C 0.4749(2) 0.70421(7) 0.67775(11)
C41 C 0.4137(3) 0.65411(8) 0.66706(13)
H35 H 0.4676 0.6243 0.6873
C42 C 0.2734(3) 0.64816(9) 0.62657(14)
H36 H 0.2334 0.6144 0.6203
C43 C 0.1921(3) 0.69153(10) 0.59538(13)
H37 H 0.0974 0.6872 0.5681
C44 C 0.2515(3) 0.74116(9) 0.60481(13)
H38 H 0.1974 0.7707 0.5834
C45 C 0.3919(2) 0.74748(8) 0.64607(12)
H39 H 0.4310 0.7814 0.6526
C46 C 0.7472(4) 0.51065(14) 0.8487(3)
H40 H 0.6778 0.5356 0.8568
H41 H 0.7659 0.4848 0.8917
H42 H 0.7123 0.4929 0.7977
loop_
_geom_bond_atom_site_label_1
_geom_bond_atom_site_label_2
_geom_bond_site_symmetry_1
_geom_bond_site_symmetry_2
S1 C12 1_555 1_555
N1 C13 1_555 1_555
O1 C11 1_555 1_555
O2 C13 1_555 1_555
O3 C14 1_555 1_555
C1 C2 1_555 1_555
C2 H1 1_555 1_555
C3 C2 1_555 1_555
H2 C3 1_555 1_555
C4 C3 1_555 1_555
H3 C4 1_555 1_555
C5 C4 1_555 1_555
H4 C5 1_555 1_555
C6 C1 1_555 1_555
C7 C6 1_555 1_555
H5 C7 1_555 1_555
C8 C7 1_555 1_555
H6 C8 1_555 1_555
C9 C8 1_555 1_555
C10 C1 1_555 1_555
H7 C10 1_555 1_555
C11 C9 1_555 1_555
C12 C11 1_555 1_555
H8 C12 1_555 1_555
C13 C12 1_555 1_555
C14 N1 1_555 1_555
C15 C14 1_555 1_555
H9 C15 1_555 1_555
H10 C15 1_555 1_555
H11 C15 1_555 1_555
C16 N1 1_555 1_555
H12 C16 1_555 1_555
H13 C16 1_555 1_555
C17 C16 1_555 1_555
C18 C17 1_555 1_555
H14 C18 1_555 1_555
C19 C18 1_555 1_555
H15 C19 1_555 1_555
C20 C19 1_555 1_555
H16 C20 1_555 1_555
C21 C20 1_555 1_555
H17 C21 1_555 1_555
C22 C17 1_555 1_555
H18 C22 1_555 1_555
C23 S1 1_555 1_555
H19 C23 1_555 1_555
H20 C23 1_555 1_555
H21 C23 1_555 1_555
S2 C35 1_555 1_555
N2 C36 1_555 1_555
O4 C34 1_555 1_555
O5 C36 1_555 1_555
O6 C37 1_555 1_555
C24 C25 1_555 1_555
C25 H22 1_555 1_555
C26 C25 1_555 1_555
H23 C26 1_555 1_555
C27 C26 1_555 1_555
H24 C27 1_555 1_555
C28 C27 1_555 1_555
H25 C28 1_555 1_555
C29 C24 1_555 1_555
C30 C29 1_555 1_555
H26 C30 1_555 1_555
C31 C30 1_555 1_555
H27 C31 1_555 1_555
C32 C31 1_555 1_555
C33 C24 1_555 1_555
H28 C33 1_555 1_555
C34 C32 1_555 1_555
C35 C34 1_555 1_555
H29 C35 1_555 1_555
C36 C35 1_555 1_555
C37 N2 1_555 1_555
C38 C37 1_555 1_555
H30 C38 1_555 1_555
H31 C38 1_555 1_555
H32 C38 1_555 1_555
C39 N2 1_555 1_555
H33 C39 1_555 1_555
H34 C39 1_555 1_555
C40 C39 1_555 1_555
C41 C40 1_555 1_555
H35 C41 1_555 1_555
C42 C41 1_555 1_555
H36 C42 1_555 1_555
C43 C42 1_555 1_555
H37 C43 1_555 1_555
C44 C43 1_555 1_555
H38 C44 1_555 1_555
C45 C40 1_555 1_555
H39 C45 1_555 1_555
C46 S2 1_555 1_555
H40 C46 1_555 1_555
H41 C46 1_555 1_555
H42 C46 1_555 1_555
C5 C6 1_555 1_555
C9 C10 1_555 1_555
C21 C22 1_555 1_555
C28 C29 1_555 1_555
C32 C33 1_555 1_555
C44 C45 1_555 1_555

#END
