
#######################################################################
#
#                 Cambridge Crystallographic Data Centre
#                                CCDC 
#
#######################################################################
#
# If this CIF has been generated from an entry in the Cambridge 
# Structural Database, then it will include bibliographic, chemical, 
# crystal, experimental, refinement or atomic coordinate data resulting 
# from the CCDC's data processing and validation procedures.
#
#######################################################################

data_NUNHIO
_chemical_formula_moiety         'C21 H23 N5 O5 S1'
_chemical_name_systematic        
rac-4-(1'-Benzyl-3,5'-dioxo-1',3a,4,5',6,6a-hexahydro-1H,3H-spiro[cyclopenta[c]furan-5,4'-imidazol]-4-yl)-N,N-dimethyl-1H-imidazole-1-sulfonamide
_symmetry_cell_setting           monoclinic
_symmetry_space_group_name_H-M   'P 21/n'
_symmetry_Int_Tables_number      14
_space_group_name_Hall           '-P 2yn'
loop_
_symmetry_equiv_pos_site_id
_symmetry_equiv_pos_as_xyz
1 x,y,z
2 1/2-x,1/2+y,1/2-z
3 -x,-y,-z
4 1/2+x,1/2-y,1/2+z
_cell_length_a                   10.6504(12)
_cell_length_b                   19.300(2)
_cell_length_c                   11.4094(13)
_cell_angle_alpha                90
_cell_angle_beta                 115.389(2)
_cell_angle_gamma                90
_cell_volume                     2118.73
_exptl_crystal_colour            colorless
_exptl_crystal_description       prism
_chemical_melting_point          '188-190 deg.C'
_cell_formula_units_Z            4
loop_
_atom_site_label
_atom_site_type_symbol
_atom_site_fract_x
_atom_site_fract_y
_atom_site_fract_z
S1 S 0.02092(4) 0.20576(2) 0.29900(4)
O1 O 0.10131(13) -0.12717(7) 0.23534(14)
O2 O 0.08456(14) -0.03443(7) 0.34265(15)
O3 O 0.52154(13) 0.05266(7) 0.14989(14)
O4 O 0.06584(14) 0.25666(7) 0.39927(14)
O5 O -0.02642(14) 0.22420(7) 0.16599(13)
N1 N 0.36152(15) 0.10148(8) 0.45030(15)
N2 N 0.16414(14) 0.15682(7) 0.33299(14)
N3 N -0.09311(15) 0.15704(8) 0.31294(15)
N4 N 0.17959(14) -0.01030(7) 0.07522(14)
N5 N 0.29264(15) 0.06240(8) -0.00343(15)
C1 C 0.15623(19) -0.07112(10) 0.31140(18)
C2 C 0.20349(19) -0.16310(10) 0.2059(2)
H1 H 0.1731 -0.1648 0.1109
H2 H 0.2154 -0.2112 0.2393
C3 C 0.34106(18) -0.12310(9) 0.27149(18)
H3 H 0.4166 -0.1541 0.3312
C4 C 0.38731(18) -0.08583(9) 0.17713(18)
H4 H 0.4899 -0.0850 0.2121
H5 H 0.3488 -0.1092 0.0916
C5 C 0.32918(16) -0.01188(9) 0.16508(17)
C6 C 0.39893(17) 0.03788(9) 0.10836(18)
C7 C 0.16848(18) 0.03157(9) -0.01537(17)
H6 H 0.0817 0.0412 -0.0863
C8 C 0.35477(16) 0.00370(8) 0.30607(16)
H7 H 0.4577 0.0076 0.3574
C9 C 0.31037(17) -0.06539(9) 0.34828(17)
H8 H 0.3650 -0.0729 0.4436
C10 C 0.29366(17) 0.06843(9) 0.33094(17)
C11 C 0.17213(17) 0.10152(9) 0.25778(17)
H9 H 0.1062 0.0894 0.1729
C12 C 0.28114(18) 0.15337(10) 0.44889(18)
H10 H 0.3012 0.1846 0.5190
C13 C 0.3104(2) 0.10956(10) -0.09506(19)
H11 H 0.2852 0.0849 -0.1782
H12 H 0.4097 0.1226 -0.0609
C14 C 0.22443(18) 0.17477(9) -0.12101(18)
C15 C 0.1792(2) 0.20640(9) -0.24182(19)
H13 H 0.2026 0.1866 -0.3061
C16 C 0.1001(2) 0.26661(10) -0.2696(2)
H14 H 0.0706 0.2880 -0.3521
C17 C 0.0645(2) 0.29538(10) -0.1770(2)
H15 H 0.0104 0.3365 -0.1958
C18 C 0.1082(2) 0.26387(10) -0.0566(2)
H16 H 0.0828 0.2832 0.0067
C19 C 0.1885(2) 0.20436(9) -0.02817(19)
H17 H 0.2193 0.1836 0.0551
C20 C -0.1605(2) 0.10372(11) 0.2135(2)
H18 H -0.1050 0.0611 0.2377
H19 H -0.1676 0.1202 0.1296
H20 H -0.2537 0.0942 0.2068
C21 C -0.0710(2) 0.13577(13) 0.4436(2)
H21 H -0.1570 0.1158 0.4404
H22 H -0.0445 0.1762 0.5011
H23 H 0.0032 0.1011 0.4765
loop_
_geom_bond_atom_site_label_1
_geom_bond_atom_site_label_2
_geom_bond_site_symmetry_1
_geom_bond_site_symmetry_2
S1 O4 1_555 1_555
O1 C1 1_555 1_555
O2 C1 1_555 1_555
O3 C6 1_555 1_555
O5 S1 1_555 1_555
N1 C10 1_555 1_555
N2 S1 1_555 1_555
N3 S1 1_555 1_555
N4 C5 1_555 1_555
N5 C6 1_555 1_555
C1 C9 1_555 1_555
C2 O1 1_555 1_555
H1 C2 1_555 1_555
H2 C2 1_555 1_555
C3 C2 1_555 1_555
H3 C3 1_555 1_555
C4 C3 1_555 1_555
H4 C4 1_555 1_555
H5 C4 1_555 1_555
C5 C4 1_555 1_555
C6 C5 1_555 1_555
C7 N4 1_555 1_555
H6 C7 1_555 1_555
C8 C5 1_555 1_555
H7 C8 1_555 1_555
C9 C3 1_555 1_555
H8 C9 1_555 1_555
C10 C8 1_555 1_555
C11 N2 1_555 1_555
H9 C11 1_555 1_555
C12 N1 1_555 1_555
H10 C12 1_555 1_555
C13 N5 1_555 1_555
H11 C13 1_555 1_555
H12 C13 1_555 1_555
C14 C13 1_555 1_555
C15 C14 1_555 1_555
H13 C15 1_555 1_555
C16 C15 1_555 1_555
H14 C16 1_555 1_555
C17 C16 1_555 1_555
H15 C17 1_555 1_555
C18 C17 1_555 1_555
H16 C18 1_555 1_555
C19 C14 1_555 1_555
H17 C19 1_555 1_555
C20 N3 1_555 1_555
H18 C20 1_555 1_555
H19 C20 1_555 1_555
H20 C20 1_555 1_555
C21 N3 1_555 1_555
H21 C21 1_555 1_555
H22 C21 1_555 1_555
H23 C21 1_555 1_555
N2 C12 1_555 1_555
N5 C7 1_555 1_555
C8 C9 1_555 1_555
C10 C11 1_555 1_555
C18 C19 1_555 1_555

#END
