
#######################################################################
#
#                 Cambridge Crystallographic Data Centre
#                                CCDC 
#
#######################################################################
#
# If this CIF has been generated from an entry in the Cambridge 
# Structural Database, then it will include bibliographic, chemical, 
# crystal, experimental, refinement or atomic coordinate data resulting 
# from the CCDC's data processing and validation procedures.
#
#######################################################################

data_NUNHEK
_chemical_formula_moiety         'C26 H24 N4 O3'
_chemical_name_systematic        
rac-1'-Benzyl-6-(1-benzyl-1H-imidazol-4-yl)-3a,4,6,6a-tetrahydro-1H,3H-spiro[cyclopenta[c]furan-5,4'-imidazole]-1,5'(1'H)-dione
_symmetry_cell_setting           monoclinic
_symmetry_space_group_name_H-M   'P 21/n'
_symmetry_Int_Tables_number      14
_space_group_name_Hall           '-P 2yn'
loop_
_symmetry_equiv_pos_site_id
_symmetry_equiv_pos_as_xyz
1 x,y,z
2 1/2-x,1/2+y,1/2-z
3 -x,-y,-z
4 1/2+x,1/2-y,1/2+z
_cell_length_a                   11.5704(8)
_cell_length_b                   14.5997(10)
_cell_length_c                   12.5793(9)
_cell_angle_alpha                90
_cell_angle_beta                 95.664(1)
_cell_angle_gamma                90
_cell_volume                     2114.58
_exptl_crystal_colour            colorless
_exptl_crystal_description       block
_cell_formula_units_Z            4
loop_
_atom_site_label
_atom_site_type_symbol
_atom_site_fract_x
_atom_site_fract_y
_atom_site_fract_z
N1 N 0.65581(10) 0.84168(8) 0.61807(9)
N2 N 0.63567(9) 0.98995(7) 0.56587(8)
N3 N 0.69219(10) 0.85494(8) 0.26607(9)
N4 N 0.86774(10) 0.87753(8) 0.35091(9)
O1 O 0.85490(9) 0.82805(7) 0.65946(8)
O2 O 0.68182(8) 1.12551(7) 0.33791(7)
O3 O 0.67319(8) 1.19661(6) 0.49210(7)
C1 C 0.58454(12) 0.91375(9) 0.57970(10)
H1 H 0.5029 0.9068 0.5647
C2 C 0.76887(12) 0.87240(9) 0.62982(10)
C3 C 0.76038(11) 0.97214(9) 0.59321(10)
C4 C 0.82720(11) 0.98763(9) 0.49387(10)
H2 H 0.9090 0.9682 0.5156
C5 C 0.83022(11) 1.09376(9) 0.48666(10)
H3 H 0.9011 1.1143 0.4539
C6 C 0.72271(11) 1.13686(9) 0.42917(11)
C7 C 0.73406(12) 1.20030(10) 0.59828(11)
H4 H 0.6803 1.1857 0.6525
H5 H 0.7661 1.2624 0.6130
C8 C 0.83291(12) 1.12936(9) 0.60261(11)
H6 H 0.9092 1.1591 0.6253
C9 C 0.81551(12) 1.04365(9) 0.67181(11)
H7 H 0.8908 1.0215 0.7066
H8 H 0.7636 1.0576 0.7277
C10 C 0.61845(13) 0.74762(9) 0.63587(11)
H9 H 0.5444 0.7491 0.6691
H10 H 0.6772 0.7172 0.6866
C11 C 0.60174(12) 0.69163(9) 0.53420(11)
C12 C 0.50067(13) 0.64195(10) 0.50833(13)
H11 H 0.4405 0.6433 0.5546
C13 C 0.48684(13) 0.59021(11) 0.41514(13)
H12 H 0.4169 0.5571 0.3975
C14 C 0.57408(13) 0.58679(10) 0.34829(12)
H13 H 0.5646 0.5511 0.2849
C15 C 0.67542(13) 0.63549(10) 0.37391(12)
H14 H 0.7360 0.6327 0.3283
C16 C 0.68913(12) 0.68837(10) 0.46565(12)
H15 H 0.7585 0.7226 0.4819
C17 C 0.78768(11) 0.93179(9) 0.39708(10)
C18 C 0.80675(12) 0.83341(10) 0.27307(11)
H16 H 0.8394 0.7912 0.2269
C19 C 0.67939(11) 0.91811(9) 0.34473(10)
H17 H 0.6092 0.9468 0.3600
C20 C 0.60019(12) 0.81743(10) 0.19061(11)
H18 H 0.5244 0.8288 0.2186
H19 H 0.6107 0.7503 0.1864
C21 C 0.59657(11) 0.85707(9) 0.07908(11)
C22 C 0.52055(12) 0.81815(9) -0.00140(11)
H20 H 0.4756 0.7662 0.0138
C23 C 0.51024(13) 0.85502(10) -0.10359(12)
H21 H 0.4577 0.8285 -0.1578
C24 C 0.57620(14) 0.93039(10) -0.12697(12)
H22 H 0.5687 0.9557 -0.1969
C25 C 0.65306(13) 0.96851(10) -0.04773(12)
H23 H 0.6990 1.0198 -0.0636
C26 C 0.66327(13) 0.93210(10) 0.05487(11)
H24 H 0.7161 0.9586 0.1088
loop_
_geom_bond_atom_site_label_1
_geom_bond_atom_site_label_2
_geom_bond_site_symmetry_1
_geom_bond_site_symmetry_2
N1 C1 1_555 1_555
N2 C1 1_555 1_555
N3 C18 1_555 1_555
N4 C17 1_555 1_555
O1 C2 1_555 1_555
O2 C6 1_555 1_555
O3 C6 1_555 1_555
C1 H1 1_555 1_555
C2 N1 1_555 1_555
C3 N2 1_555 1_555
C4 C3 1_555 1_555
H2 C4 1_555 1_555
C5 C4 1_555 1_555
H3 C5 1_555 1_555
C6 C5 1_555 1_555
C7 O3 1_555 1_555
H4 C7 1_555 1_555
H5 C7 1_555 1_555
C8 C5 1_555 1_555
H6 C8 1_555 1_555
C9 C3 1_555 1_555
H7 C9 1_555 1_555
H8 C9 1_555 1_555
C10 N1 1_555 1_555
H9 C10 1_555 1_555
H10 C10 1_555 1_555
C11 C10 1_555 1_555
C12 C11 1_555 1_555
H11 C12 1_555 1_555
C13 C12 1_555 1_555
H12 C13 1_555 1_555
C14 C13 1_555 1_555
H13 C14 1_555 1_555
C15 C14 1_555 1_555
H14 C15 1_555 1_555
C16 C11 1_555 1_555
H15 C16 1_555 1_555
C17 C4 1_555 1_555
C18 N4 1_555 1_555
H16 C18 1_555 1_555
C19 N3 1_555 1_555
H17 C19 1_555 1_555
C20 N3 1_555 1_555
H18 C20 1_555 1_555
H19 C20 1_555 1_555
C21 C20 1_555 1_555
C22 C21 1_555 1_555
H20 C22 1_555 1_555
C23 C22 1_555 1_555
H21 C23 1_555 1_555
C24 C23 1_555 1_555
H22 C24 1_555 1_555
C25 C24 1_555 1_555
H23 C25 1_555 1_555
C26 C21 1_555 1_555
H24 C26 1_555 1_555
C2 C3 1_555 1_555
C7 C8 1_555 1_555
C8 C9 1_555 1_555
C15 C16 1_555 1_555
C17 C19 1_555 1_555
C25 C26 1_555 1_555

#END
