
#######################################################################
#
#                 Cambridge Crystallographic Data Centre
#                                CCDC 
#
#######################################################################
#
# If this CIF has been generated from an entry in the Cambridge 
# Structural Database, then it will include bibliographic, chemical, 
# crystal, experimental, refinement or atomic coordinate data resulting 
# from the CCDC's data processing and validation procedures.
#
#######################################################################

data_NUNHOU
_chemical_formula_moiety         'C30 H28 N2 O8 S1 Se1'
_chemical_name_systematic        
'(E)-Dimethyl 1-benzyl-3-(1,2-dimethoxycarbonylvinylthio)-2-methyl-4-phenyl-1,4-dihydroselenopheno[2,3-b]pyrazine-6,7-dicarboxylate'
_symmetry_cell_setting           triclinic
_symmetry_space_group_name_H-M   'P -1'
_symmetry_Int_Tables_number      2
_space_group_name_Hall           '-P 1'
loop_
_symmetry_equiv_pos_site_id
_symmetry_equiv_pos_as_xyz
1 x,y,z
2 -x,-y,-z
_cell_length_a                   8.6334(1)
_cell_length_b                   11.8180(2)
_cell_length_c                   15.3160(2)
_cell_angle_alpha                77.339(1)
_cell_angle_beta                 88.859(1)
_cell_angle_gamma                89.677(1)
_cell_volume                     1524.38
_exptl_crystal_colour            orange
_exptl_crystal_description       column
_chemical_melting_point          '108-109 deg.C'
_cell_formula_units_Z            2
loop_
_atom_site_label
_atom_site_type_symbol
_atom_site_fract_x
_atom_site_fract_y
_atom_site_fract_z
C1 C 0.5914(5) 0.5749(2) 0.3791(2)
H1 H 0.4812 0.5797 0.3723
H2 H 0.6379 0.6471 0.3496
H3 H 0.6151 0.5589 0.4416
C2 C 0.5930(3) 0.37837(18) 0.37356(14)
C3 C 0.6763(2) 0.28604(16) 0.33754(12)
C4 C 0.8152(2) 0.24163(19) 0.36997(13)
C5 C 0.9003(3) 0.2731(2) 0.44267(14)
C6 C 1.1193(4) 0.2265(4) 0.5345(2)
H4 H 1.1535 0.3057 0.5225
H5 H 1.2077 0.1759 0.5416
H6 H 1.0570 0.2105 0.5884
C7 C 0.70632(19) 0.15191(16) 0.24729(12)
C8 C 0.61235(19) 0.23361(15) 0.27191(12)
C9 C 0.4595(2) 0.23995(16) 0.14325(13)
C10 C 0.3417(3) 0.3108(2) 0.08406(18)
H7 H 0.3770 0.3895 0.0660
H8 H 0.2449 0.3088 0.1163
H9 H 0.3278 0.2793 0.0320
C11 C 0.5593(2) 0.16663(16) 0.11683(12)
C12 C 0.7428(2) -0.00033(16) 0.16288(12)
C13 C 0.6665(3) -0.1029(2) 0.19002(18)
H10 H 0.5702 -0.1051 0.2187
C14 C 0.7330(3) -0.2041(2) 0.1747(2)
H11 H 0.6805 -0.2741 0.1925
C15 C 0.8747(3) -0.2015(2) 0.13386(17)
H12 H 0.9190 -0.2696 0.1238
C16 C 0.9515(3) -0.0992(2) 0.10769(18)
H13 H 1.0486 -0.0976 0.0801
C17 C 0.8867(3) 0.0023(2) 0.12176(16)
H14 H 0.9397 0.0721 0.1036
C18 C 0.3307(2) 0.21109(18) 0.29038(15)
H15 H 0.2357 0.2406 0.2608
H16 H 0.3350 0.2382 0.3456
C19 C 0.2490(2) 0.0203(2) 0.25838(17)
H17 H 0.2024 0.0607 0.2065
C20 C 0.2420(3) -0.0997(2) 0.2804(2)
H18 H 0.1885 -0.1387 0.2439
C21 C 0.3123(4) -0.1612(2) 0.3547(2)
H19 H 0.3071 -0.2417 0.3689
C22 C 0.3902(4) -0.1037(3) 0.4079(2)
H20 H 0.4402 -0.1452 0.4581
C23 C 0.3955(3) 0.0167(2) 0.38758(18)
H21 H 0.4477 0.0549 0.4251
C24 C 0.3247(2) 0.08041(18) 0.31279(15)
C25 C 0.6842(2) 0.27303(16) -0.04765(12)
C26 C 0.7867(2) 0.32549(16) 0.01173(13)
C27 C 0.8039(4) 0.4657(2) 0.09763(18)
H22 H 0.8483 0.4068 0.1437
H23 H 0.7364 0.5139 0.1244
H24 H 0.8852 0.5123 0.0643
C28 C 0.6854(2) 0.30729(17) -0.13636(13)
H25 H 0.6186 0.2713 -0.1686
C29 C 0.7874(2) 0.39922(18) -0.18568(14)
C30 C 0.8835(4) 0.4877(3) -0.33039(19)
H26 H 0.8546 0.5646 -0.3254
H27 H 0.8738 0.4808 -0.3913
H28 H 0.9889 0.4729 -0.3124
N1 N 0.67252(18) 0.10552(14) 0.17567(10)
N2 N 0.46485(17) 0.26022(13) 0.23184(11)
O1 O 0.6523(2) 0.48227(13) 0.33956(11)
O2 O 0.4868(2) 0.35991(15) 0.42570(12)
O3 O 1.0284(2) 0.20773(19) 0.46049(12)
O4 O 0.8623(2) 0.34682(16) 0.48114(11)
O5 O 0.71628(18) 0.41161(12) 0.03796(10)
O6 O 0.91259(19) 0.28769(15) 0.03379(12)
O7 O 0.7826(2) 0.40404(15) -0.27306(10)
O8 O 0.8668(2) 0.46090(15) -0.15324(11)
S1 S 0.57241(6) 0.15202(4) 0.00453(3)
Se1 Se 0.88801(2) 0.12606(2) 0.312963(14)
loop_
_geom_bond_atom_site_label_1
_geom_bond_atom_site_label_2
_geom_bond_site_symmetry_1
_geom_bond_site_symmetry_2
C1 H1 1_555 1_555
H2 C1 1_555 1_555
H3 C1 1_555 1_555
C2 C3 1_555 1_555
C3 C4 1_555 1_555
C4 C5 1_555 1_555
C5 O3 1_555 1_555
C6 H4 1_555 1_555
H5 C6 1_555 1_555
H6 C6 1_555 1_555
C7 C8 1_555 1_555
C8 C3 1_555 1_555
C9 C10 1_555 1_555
C10 H7 1_555 1_555
H8 C10 1_555 1_555
H9 C10 1_555 1_555
C11 C9 1_555 1_555
C12 C13 1_555 1_555
C13 H10 1_555 1_555
C14 C13 1_555 1_555
H11 C14 1_555 1_555
C15 C14 1_555 1_555
H12 C15 1_555 1_555
C16 C15 1_555 1_555
H13 C16 1_555 1_555
C17 C12 1_555 1_555
H14 C17 1_555 1_555
C18 H15 1_555 1_555
H16 C18 1_555 1_555
C19 H17 1_555 1_555
C20 C19 1_555 1_555
H18 C20 1_555 1_555
C21 C20 1_555 1_555
H19 C21 1_555 1_555
C22 C21 1_555 1_555
H20 C22 1_555 1_555
C23 C22 1_555 1_555
H21 C23 1_555 1_555
C24 C18 1_555 1_555
C25 C26 1_555 1_555
C26 O5 1_555 1_555
C27 H22 1_555 1_555
H23 C27 1_555 1_555
H24 C27 1_555 1_555
C28 C25 1_555 1_555
H25 C28 1_555 1_555
C29 C28 1_555 1_555
C30 H26 1_555 1_555
H27 C30 1_555 1_555
H28 C30 1_555 1_555
N1 C7 1_555 1_555
N2 C8 1_555 1_555
O1 C1 1_555 1_555
O2 C2 1_555 1_555
O3 C6 1_555 1_555
O4 C5 1_555 1_555
O5 C27 1_555 1_555
O6 C26 1_555 1_555
O7 C29 1_555 1_555
O8 C29 1_555 1_555
S1 C11 1_555 1_555
Se1 C4 1_555 1_555
C2 O1 1_555 1_555
C7 Se1 1_555 1_555
C9 N2 1_555 1_555
C11 N1 1_555 1_555
C12 N1 1_555 1_555
C16 C17 1_555 1_555
C18 N2 1_555 1_555
C19 C24 1_555 1_555
C23 C24 1_555 1_555
C25 S1 1_555 1_555
C30 O7 1_555 1_555

#END
