
#######################################################################
#
#                 Cambridge Crystallographic Data Centre
#                                CCDC 
#
#######################################################################
#
# If this CIF has been generated from an entry in the Cambridge 
# Structural Database, then it will include bibliographic, chemical, 
# crystal, experimental, refinement or atomic coordinate data resulting 
# from the CCDC's data processing and validation procedures.
#
#######################################################################

data_NUNKUC
_chemical_formula_moiety         'C4 H4 Cl2 N4'
_chemical_name_systematic        2,5-Diamino-3,6-dichloropyrazine
_symmetry_cell_setting           monoclinic
_symmetry_space_group_name_H-M   'P 21/n'
_symmetry_Int_Tables_number      14
_space_group_name_Hall           '-P 2yn'
loop_
_symmetry_equiv_pos_site_id
_symmetry_equiv_pos_as_xyz
1 x,y,z
2 1/2-x,1/2+y,1/2-z
3 -x,-y,-z
4 1/2+x,1/2-y,1/2+z
_cell_length_a                   3.7582(4)
_cell_length_b                   14.5505(15)
_cell_length_c                   6.2451(6)
_cell_angle_alpha                90
_cell_angle_beta                 101.162(8)
_cell_angle_gamma                90
_cell_volume                     335.045
_exptl_crystal_colour            yellow
_exptl_crystal_description       block
_chemical_melting_point          453K
_cell_formula_units_Z            2
_exptl_crystal_recrystallization_method 'by sublimation'
loop_
_atom_site_label
_atom_site_type_symbol
_atom_site_fract_x
_atom_site_fract_y
_atom_site_fract_z
Cl1 Cl 0.67959(15) 0.81283(3) 0.06751(10)
N1 N 0.8140(7) 0.89041(14) -0.3591(4)
N2 N 0.9522(5) 0.97172(11) 0.2038(3)
C1 C 0.8998(6) 0.94546(13) -0.1801(4)
C2 C 0.8597(6) 0.91998(12) 0.0281(4)
H1 H 0.819(6) 0.9172(13) -0.491(4)
H2 H 0.658(6) 0.8492(13) -0.354(4)
C1B C 1.1002(6) 1.05454(13) 0.1801(4)
N1B N 1.1860(7) 1.10959(14) 0.3591(4)
H1B H 1.181(6) 1.0828(13) 0.491(4)
H2B H 1.342(6) 1.1508(13) 0.354(4)
C2B C 1.1403(6) 1.08002(12) -0.0281(4)
Cl1B Cl 1.32041(15) 1.18717(3) -0.06751(10)
N2B N 1.0478(5) 1.02828(11) -0.2038(3)
loop_
_geom_bond_atom_site_label_1
_geom_bond_atom_site_label_2
_geom_bond_site_symmetry_1
_geom_bond_site_symmetry_2
Cl1 C2 1_555 1_555
N1 C1 1_555 1_555
N2 C2 1_555 1_555
C1 C2 1_555 1_555
H1 N1 1_555 1_555
H2 N1 1_555 1_555
C1B N2 1_555 1_555
N1B C1B 1_555 1_555
H1B N1B 1_555 1_555
H2B N1B 1_555 1_555
C2B C1B 1_555 1_555
Cl1B C2B 1_555 1_555
N2B C1 1_555 1_555
C2B N2B 1_555 1_555

#END
