
#######################################################################
#
#                 Cambridge Crystallographic Data Centre
#                                CCDC 
#
#######################################################################
#
# If this CIF has been generated from an entry in the Cambridge 
# Structural Database, then it will include bibliographic, chemical, 
# crystal, experimental, refinement or atomic coordinate data resulting 
# from the CCDC's data processing and validation procedures.
#
#######################################################################

data_NUNLUF
_chemical_formula_moiety         'C44 H57 N3 O2'
_chemical_name_systematic        
2,2'-(iminobis((5-methyl-2,1-phenylene)nitrilomethylylidene))bis(4,6-di-t-butylphenol)
_symmetry_cell_setting           triclinic
_symmetry_space_group_name_H-M   'P -1'
_symmetry_Int_Tables_number      2
_space_group_name_Hall           '-P 1'
loop_
_symmetry_equiv_pos_site_id
_symmetry_equiv_pos_as_xyz
1 x,y,z
2 -x,-y,-z
_cell_length_a                   9.9973(3)
_cell_length_b                   14.7313(5)
_cell_length_c                   14.8047(5)
_cell_angle_alpha                101.685(3)
_cell_angle_beta                 109.567(3)
_cell_angle_gamma                95.189(3)
_cell_volume                     1982.03
_exptl_crystal_colour            yellow
_exptl_crystal_description       prism
_cell_formula_units_Z            2
loop_
_atom_site_label
_atom_site_type_symbol
_atom_site_fract_x
_atom_site_fract_y
_atom_site_fract_z
O1 O 0.72955(10) 0.88302(7) 0.40741(7)
H1 H 0.709(3) 0.9242(17) 0.3653(18)
O2 O 0.57639(11) 0.71886(7) 0.12741(7)
H2 H 0.501(2) 0.7549(16) 0.1225(16)
N1 N 0.76015(11) 0.98723(8) 0.28955(8)
N2 N 0.34704(12) 0.77863(8) 0.14359(8)
N3 N 0.47404(12) 0.95869(8) 0.18641(9)
H3 H 0.5204 0.9211 0.2201
C1 C 0.94890(13) 0.91276(9) 0.37841(9)
C2 C 0.86671(13) 0.86843(9) 0.42285(9)
C3 C 0.92489(13) 0.80675(9) 0.48160(9)
C4 C 1.06706(14) 0.79673(9) 0.49616(9)
H4 H 1.1090 0.7574 0.5376
C5 C 1.15308(13) 0.84075(9) 0.45378(9)
C6 C 1.09100(13) 0.89810(9) 0.39463(9)
H5 H 1.1455 0.9284 0.3641
C7 C 0.88933(14) 0.97013(9) 0.31126(10)
H6 H 0.9490 0.9966 0.2816
C8 C 0.83331(14) 0.75044(10) 0.52345(10)
C9 C 0.78254(14) 0.81716(10) 0.59476(10)
H7 H 0.8664 0.8538 0.6513
H8 H 0.7206 0.7803 0.6183
H9 H 0.7283 0.8599 0.5601
C10 C 0.91752(15) 0.68455(11) 0.57991(11)
H10 H 0.9465 0.6391 0.5349
H11 H 0.8563 0.6509 0.6065
H12 H 1.0035 0.7216 0.6345
C11 C 0.70174(15) 0.68836(11) 0.43761(10)
H13 H 0.6435 0.7283 0.4009
H14 H 0.6435 0.6522 0.4642
H15 H 0.7346 0.6451 0.3931
C12 C 1.30668(14) 0.82123(10) 0.47176(10)
C13 C 1.39672(15) 0.85434(13) 0.58251(11)
H16 H 1.4045 0.9226 0.6044
H17 H 1.4932 0.8384 0.5946
H18 H 1.3501 0.8232 0.6194
C14 C 1.30061(17) 0.71485(11) 0.43626(13)
H19 H 1.2636 0.6818 0.4765
H20 H 1.3976 0.7022 0.4430
H21 H 1.2367 0.6928 0.3667
C15 C 1.37920(14) 0.87256(11) 0.41582(11)
H22 H 1.3236 0.8511 0.3446
H23 H 1.4772 0.8590 0.4293
H24 H 1.3832 0.9405 0.4377
C16 C 0.70929(14) 1.04348(9) 0.22210(9)
C17 C 0.55953(14) 1.02830(9) 0.16962(9)
C18 C 0.50670(15) 1.07986(10) 0.09974(10)
H25 H 0.4064 1.0691 0.0620
C19 C 0.59832(16) 1.14643(10) 0.08466(10)
H26 H 0.5597 1.1803 0.0364
C20 C 0.74564(15) 1.16483(10) 0.13857(10)
C21 C 0.79875(15) 1.11201(10) 0.20656(10)
H27 H 0.8993 1.1230 0.2436
C22 C 0.84636(18) 1.23962(11) 0.12538(12)
H28 H 0.8843 1.2912 0.1855
H29 H 0.7938 1.2639 0.0690
H30 H 0.9263 1.2123 0.1131
C23 C 0.41182(14) 0.63326(9) 0.17943(9)
C24 C 0.53887(14) 0.64259(9) 0.15765(9)
C25 C 0.62754(14) 0.57356(9) 0.16815(9)
C26 C 0.58268(16) 0.49704(10) 0.19940(10)
H31 H 0.6410 0.4495 0.2060
C27 C 0.45758(16) 0.48541(10) 0.22171(10)
C28 C 0.37453(15) 0.55509(10) 0.21165(10)
H32 H 0.2896 0.5499 0.2270
C29 C 0.31973(14) 0.70407(10) 0.17157(9)
H33 H 0.2359 0.6951 0.1877
C30 C 0.76877(15) 0.58353(10) 0.14794(10)
C31 C 0.73701(17) 0.58946(11) 0.04029(11)
H34 H 0.6693 0.5334 -0.0049
H35 H 0.8269 0.5931 0.0272
H36 H 0.6946 0.6457 0.0301
C32 C 0.87242(16) 0.67169(12) 0.21998(11)
H37 H 0.8261 0.7271 0.2132
H38 H 0.9603 0.6792 0.2048
H39 H 0.8970 0.6651 0.2879
C33 C 0.8442(2) 0.49860(13) 0.16123(15)
H40 H 0.8676 0.4930 0.2294
H41 H 0.9330 0.5071 0.1473
H42 H 0.7802 0.4413 0.1155
C34 C 0.41616(18) 0.40081(10) 0.25906(11)
C35 C 0.4532(2) 0.43340(14) 0.37018(13)
H43 H 0.5565 0.4584 0.4028
H44 H 0.4288 0.3801 0.3954
H45 H 0.3981 0.4827 0.3840
C36 C 0.4901(4) 0.32002(16) 0.2346(3)
H46 H 0.4772 0.3067 0.1643
H47 H 0.4481 0.2642 0.2486
H48 H 0.5931 0.3364 0.2749
C37 C 0.2531(2) 0.36378(15) 0.21060(16)
H49 H 0.2007 0.4125 0.2305
H50 H 0.2297 0.3076 0.2320
H51 H 0.2249 0.3477 0.1384
C38 C 0.25640(14) 0.84716(10) 0.13701(9)
C39 C 0.32436(14) 0.94068(10) 0.15681(10)
C40 C 0.23973(15) 1.01102(10) 0.15173(10)
H52 H 0.2842 1.0749 0.1681
C41 C 0.09111(15) 0.98865(10) 0.12298(10)
H53 H 0.0353 1.0376 0.1187
C42 C 0.02205(14) 0.89601(10) 0.10028(10)
C43 C 0.10697(14) 0.82617(10) 0.10897(10)
H54 H 0.0623 0.7627 0.0955
C44 C -0.14017(15) 0.87159(12) 0.06420(12)
H55 H -0.1777 0.8392 -0.0063
H56 H -0.1807 0.9294 0.0737
H57 H -0.1674 0.8303 0.1017
loop_
_geom_bond_atom_site_label_1
_geom_bond_atom_site_label_2
_geom_bond_site_symmetry_1
_geom_bond_site_symmetry_2
O1 H1 1_555 1_555
O2 H2 1_555 1_555
N1 C7 1_555 1_555
N2 C29 1_555 1_555
N3 H3 1_555 1_555
C1 C2 1_555 1_555
C2 O1 1_555 1_555
C3 C2 1_555 1_555
C4 C3 1_555 1_555
H4 C4 1_555 1_555
C5 C4 1_555 1_555
C6 C1 1_555 1_555
H5 C6 1_555 1_555
C7 C1 1_555 1_555
H6 C7 1_555 1_555
C8 C3 1_555 1_555
C9 C8 1_555 1_555
H7 C9 1_555 1_555
H8 C9 1_555 1_555
H9 C9 1_555 1_555
C10 C8 1_555 1_555
H10 C10 1_555 1_555
H11 C10 1_555 1_555
H12 C10 1_555 1_555
C11 C8 1_555 1_555
H13 C11 1_555 1_555
H14 C11 1_555 1_555
H15 C11 1_555 1_555
C12 C5 1_555 1_555
C13 C12 1_555 1_555
H16 C13 1_555 1_555
H17 C13 1_555 1_555
H18 C13 1_555 1_555
C14 C12 1_555 1_555
H19 C14 1_555 1_555
H20 C14 1_555 1_555
H21 C14 1_555 1_555
C15 C12 1_555 1_555
H22 C15 1_555 1_555
H23 C15 1_555 1_555
H24 C15 1_555 1_555
C16 N1 1_555 1_555
C17 N3 1_555 1_555
C18 C17 1_555 1_555
H25 C18 1_555 1_555
C19 C18 1_555 1_555
H26 C19 1_555 1_555
C20 C19 1_555 1_555
C21 C16 1_555 1_555
H27 C21 1_555 1_555
C22 C20 1_555 1_555
H28 C22 1_555 1_555
H29 C22 1_555 1_555
H30 C22 1_555 1_555
C23 C24 1_555 1_555
C24 O2 1_555 1_555
C25 C24 1_555 1_555
C26 C25 1_555 1_555
H31 C26 1_555 1_555
C27 C26 1_555 1_555
C28 C23 1_555 1_555
H32 C28 1_555 1_555
C29 C23 1_555 1_555
H33 C29 1_555 1_555
C30 C25 1_555 1_555
C31 C30 1_555 1_555
H34 C31 1_555 1_555
H35 C31 1_555 1_555
H36 C31 1_555 1_555
C32 C30 1_555 1_555
H37 C32 1_555 1_555
H38 C32 1_555 1_555
H39 C32 1_555 1_555
C33 C30 1_555 1_555
H40 C33 1_555 1_555
H41 C33 1_555 1_555
H42 C33 1_555 1_555
C34 C27 1_555 1_555
C35 C34 1_555 1_555
H43 C35 1_555 1_555
H44 C35 1_555 1_555
H45 C35 1_555 1_555
C36 C34 1_555 1_555
H46 C36 1_555 1_555
H47 C36 1_555 1_555
H48 C36 1_555 1_555
C37 C34 1_555 1_555
H49 C37 1_555 1_555
H50 C37 1_555 1_555
H51 C37 1_555 1_555
C38 N2 1_555 1_555
C39 N3 1_555 1_555
C40 C39 1_555 1_555
H52 C40 1_555 1_555
C41 C40 1_555 1_555
H53 C41 1_555 1_555
C42 C41 1_555 1_555
C43 C38 1_555 1_555
H54 C43 1_555 1_555
C44 C42 1_555 1_555
H55 C44 1_555 1_555
H56 C44 1_555 1_555
H57 C44 1_555 1_555
C5 C6 1_555 1_555
C16 C17 1_555 1_555
C20 C21 1_555 1_555
C27 C28 1_555 1_555
C38 C39 1_555 1_555
C42 C43 1_555 1_555

#END
