
#######################################################################
#
#                 Cambridge Crystallographic Data Centre
#                                CCDC 
#
#######################################################################
#
# If this CIF has been generated from an entry in the Cambridge 
# Structural Database, then it will include bibliographic, chemical, 
# crystal, experimental, refinement or atomic coordinate data resulting 
# from the CCDC's data processing and validation procedures.
#
#######################################################################

data_NUNNEP
_chemical_formula_moiety         'C15 H16 B1 F1 N4 O1'
_chemical_name_systematic        
2'-(1-(4-Fluorophenyl)ethyl)isonicotino-N-hydrazide-cyanoborane
_symmetry_cell_setting           triclinic
_symmetry_space_group_name_H-M   'P -1'
_symmetry_Int_Tables_number      2
_space_group_name_Hall           '-P 1'
loop_
_symmetry_equiv_pos_site_id
_symmetry_equiv_pos_as_xyz
1 x,y,z
2 -x,-y,-z
_cell_length_a                   7.049(2)
_cell_length_b                   7.492(4)
_cell_length_c                   15.077(6)
_cell_angle_alpha                91.57(4)
_cell_angle_beta                 92.83(3)
_cell_angle_gamma                99.74(3)
_cell_volume                     783.282
_exptl_crystal_colour            'light yellow'
_exptl_crystal_description       prismatic
_cell_formula_units_Z            2
loop_
_atom_site_label
_atom_site_type_symbol
_atom_site_fract_x
_atom_site_fract_y
_atom_site_fract_z
N1 N 1.2062(5) 0.0789(5) 1.2087(2)
C1 C 1.1309(5) 0.1995(6) 1.2001(2)
B1 B 1.0282(7) 0.3665(6) 1.1852(3)
H1 H 1.1217 0.4703 1.1703
H2 H 0.9700 0.3971 1.2393
N2 N 0.8660(4) 0.3183(3) 1.10637(18)
C2 C 0.9130(5) 0.2669(5) 1.0268(3)
H3 H 1.0413 0.2602 1.0181
C3 C 0.7803(5) 0.2232(5) 0.9565(2)
H4 H 0.8174 0.1855 0.9017
C4 C 0.5896(4) 0.2366(4) 0.9691(2)
C5 C 0.5431(5) 0.2905(5) 1.0504(2)
H5 H 0.4159 0.2994 1.0606
C6 C 0.6833(6) 0.3322(5) 1.1181(2)
H6 H 0.6494 0.3710 1.1733
C7 C 0.4270(5) 0.1906(5) 0.8976(2)
O1 O 0.2659(4) 0.2242(4) 0.91061(17)
N3 N 0.4693(4) 0.1134(4) 0.82332(18)
H7 H 0.5868 0.1036 0.8145
N4 N 0.3216(4) 0.0467(4) 0.7581(2)
H8 H 0.2082 -0.0021 0.7722
C8 C 0.3683(9) 0.0639(9) 0.6715(4)
H9 H 0.4633 -0.0147 0.6606
C9 C 0.4579(14) 0.2525(8) 0.6512(7)
C10 C 0.3539(10) 0.3935(12) 0.6593(5)
H10 H 0.2301 0.3714 0.6798
C11 C 0.4351(15) 0.5676(10) 0.6370(7)
H11 H 0.3655 0.6619 0.6424
C12 C 0.6201(17) 0.6006(10) 0.6064(8)
C13 C 0.7241(11) 0.4595(14) 0.5982(6)
H12 H 0.8479 0.4816 0.5778
C14 C 0.6429(13) 0.2855(11) 0.6206(6)
H13 H 0.7125 0.1911 0.6151
F1 F 0.6910(9) 0.7698(7) 0.5836(3)
C15 C 0.1896(18) -0.0077(13) 0.6130(7)
H14 H 0.1414 -0.1305 0.6273
H15 H 0.2212 -0.0037 0.5518
H16 H 0.0929 0.0657 0.6227
C16? C 0.2837(13) 0.1973(15) 0.6928(6)
H17? H 0.2259 0.2859 0.7266
C17? C 0.4516(17) 0.297(2) 0.6524(9)
C18? C 0.4658(19) 0.483(2) 0.6438(9)
H18? H 0.3710 0.5425 0.6653
C19? C 0.622(3) 0.5799(13) 0.6031(12)
H19? H 0.6312 0.7043 0.5974
C20? C 0.763(2) 0.491(2) 0.5710(10)
C21? C 0.7491(19) 0.305(2) 0.5796(8)
H20? H 0.8439 0.2452 0.5582
C22? C 0.593(2) 0.2079(13) 0.6203(10)
H21? H 0.5838 0.0835 0.6261
F2? F 0.9174(12) 0.5962(13) 0.5365(6)
C23? C 0.134(3) 0.109(3) 0.6240(12)
H22? H 0.0278 0.0418 0.6526
H23? H 0.1895 0.0289 0.5861
H24? H 0.0899 0.2007 0.5890
loop_
_geom_bond_atom_site_label_1
_geom_bond_atom_site_label_2
_geom_bond_site_symmetry_1
_geom_bond_site_symmetry_2
N1 C1 1_555 1_555
C1 B1 1_555 1_555
B1 H1 1_555 1_555
H2 B1 1_555 1_555
N2 B1 1_555 1_555
C2 N2 1_555 1_555
H3 C2 1_555 1_555
C3 C2 1_555 1_555
H4 C3 1_555 1_555
C4 C3 1_555 1_555
C5 C4 1_555 1_555
H5 C5 1_555 1_555
C6 N2 1_555 1_555
H6 C6 1_555 1_555
C7 C4 1_555 1_555
O1 C7 1_555 1_555
N3 C7 1_555 1_555
H7 N3 1_555 1_555
N4 N3 1_555 1_555
H8 N4 1_555 1_555
C8 N4 1_555 1_555
H9 C8 1_555 1_555
C9 C8 1_555 1_555
C10 C9 1_555 1_555
H10 C10 1_555 1_555
C11 C10 1_555 1_555
H11 C11 1_555 1_555
C12 C11 1_555 1_555
C13 C12 1_555 1_555
H12 C13 1_555 1_555
C14 C9 1_555 1_555
H13 C14 1_555 1_555
F1 C12 1_555 1_555
C15 C8 1_555 1_555
H14 C15 1_555 1_555
H15 C15 1_555 1_555
H16 C15 1_555 1_555
C5 C6 1_555 1_555
C13 C14 1_555 1_555

#END
