
#######################################################################
#
#                 Cambridge Crystallographic Data Centre
#                                CCDC 
#
#######################################################################
#
# If this CIF has been generated from an entry in the Cambridge 
# Structural Database, then it will include bibliographic, chemical, 
# crystal, experimental, refinement or atomic coordinate data resulting 
# from the CCDC's data processing and validation procedures.
#
#######################################################################

data_NUPLAM
_chemical_formula_moiety         'C15 H12 Cl1 N3 O1'
_chemical_name_systematic        
2-Chloro-8-methyl-3-((pyrimidin-4-yloxy)methyl)quinoline
_symmetry_cell_setting           monoclinic
_symmetry_space_group_name_H-M   'P 21/n'
_symmetry_Int_Tables_number      14
_space_group_name_Hall           '-P 2yn'
loop_
_symmetry_equiv_pos_site_id
_symmetry_equiv_pos_as_xyz
1 x,y,z
2 1/2-x,1/2+y,1/2-z
3 -x,-y,-z
4 1/2+x,1/2-y,1/2+z
_cell_length_a                   11.9975(2)
_cell_length_b                   8.45037(15)
_cell_length_c                   12.95869(19)
_cell_angle_alpha                90
_cell_angle_beta                 96.7619(16)
_cell_angle_gamma                90
_cell_volume                     1304.66
_exptl_crystal_colour            colorless
_exptl_crystal_description       prism
_cell_formula_units_Z            4
_exptl_crystal_recrystallization_method chloroform
loop_
_atom_site_label
_atom_site_type_symbol
_atom_site_fract_x
_atom_site_fract_y
_atom_site_fract_z
Cl1 Cl 0.52448(3) 0.22861(5) -0.21533(3)
O1 O 0.35909(9) 0.13571(11) 0.06428(7)
N1 N 0.66190(10) 0.38546(12) -0.08362(8)
N2 N 0.22497(11) -0.02532(14) -0.02386(9)
N3 N 0.08616(12) -0.14701(16) 0.06771(13)
C1 C 0.57162(12) 0.30022(16) -0.09125(10)
C2 C 0.50756(12) 0.25855(14) -0.01007(10)
C3 C 0.54805(12) 0.31329(15) 0.08638(10)
C4 C 0.69272(13) 0.46034(15) 0.20041(11)
C5 C 0.78847(14) 0.54796(16) 0.20983(12)
C6 C 0.84248(13) 0.58407(16) 0.12263(12)
C7 C 0.80215(13) 0.53220(16) 0.02491(11)
C8 C 0.70266(12) 0.43947(15) 0.01381(10)
C9 C 0.64712(12) 0.40438(15) 0.10159(10)
C10 C 0.40366(12) 0.16051(16) -0.03229(10)
C11 C 0.26755(13) 0.04265(16) 0.06302(11)
C12 C 0.22415(15) 0.02264(18) 0.15667(12)
C13 C 0.13310(16) -0.0742(2) 0.15376(15)
C14 C 0.13543(15) -0.11672(19) -0.01572(14)
C15 C 0.86040(14) 0.57135(18) -0.06845(13)
H1 H 0.50970 0.29010 0.14280
H2 H 0.65740 0.43730 0.25880
H3 H 0.81850 0.58440 0.27500
H4 H 0.90750 0.64490 0.13120
H5 H 0.34910 0.21490 -0.08100
H6 H 0.42140 0.05980 -0.06240
H7 H 0.25520 0.07210 0.21750
H8 H 0.10170 -0.09080 0.21520
H9 H 0.10390 -0.16500 -0.07680
H10 H 0.92390 0.63810 -0.04780
H11 H 0.80920 0.62550 -0.11900
H12 H 0.88530 0.47550 -0.09820
loop_
_geom_bond_atom_site_label_1
_geom_bond_atom_site_label_2
_geom_bond_site_symmetry_1
_geom_bond_site_symmetry_2
Cl1 C1 1_555 1_555
O1 C10 1_555 1_555
N1 C1 1_555 1_555
N2 C11 1_555 1_555
N3 C13 1_555 1_555
C1 C2 1_555 1_555
C2 C3 1_555 1_555
C3 C9 1_555 1_555
C4 C5 1_555 1_555
C5 C6 1_555 1_555
C6 C7 1_555 1_555
C7 C8 1_555 1_555
C8 N1 1_555 1_555
C9 C4 1_555 1_555
C10 C2 1_555 1_555
C11 O1 1_555 1_555
C12 C11 1_555 1_555
C13 C12 1_555 1_555
C14 N2 1_555 1_555
C15 C7 1_555 1_555
H1 C3 1_555 1_555
H2 C4 1_555 1_555
H3 C5 1_555 1_555
H4 C6 1_555 1_555
H5 C10 1_555 1_555
H6 C10 1_555 1_555
H7 C12 1_555 1_555
H8 C13 1_555 1_555
H9 C14 1_555 1_555
H10 C15 1_555 1_555
H11 C15 1_555 1_555
H12 C15 1_555 1_555
N3 C14 1_555 1_555
C8 C9 1_555 1_555

#END
