
#######################################################################
#
#                 Cambridge Crystallographic Data Centre
#                                CCDC 
#
#######################################################################
#
# If this CIF has been generated from an entry in the Cambridge 
# Structural Database, then it will include bibliographic, chemical, 
# crystal, experimental, refinement or atomic coordinate data resulting 
# from the CCDC's data processing and validation procedures.
#
#######################################################################

data_NUPQEW
_chemical_name_common            'DrugBank: DB06605'
_chemical_formula_moiety         'C25 H25 N5 O4'
_chemical_name_systematic        
1-(4-methoxyphenyl)-7-oxo-6-(4-(2-oxopiperidin-1-yl)phenyl)-4,5,6,7-tetrahydro-1H-pyrazolo[3,4-c]pyridine-3-carboxamide
_symmetry_cell_setting           monoclinic
_symmetry_space_group_name_H-M   'P 21/n'
_symmetry_Int_Tables_number      14
_space_group_name_Hall           '-P 2yn'
loop_
_symmetry_equiv_pos_site_id
_symmetry_equiv_pos_as_xyz
1 x,y,z
2 1/2-x,1/2+y,1/2-z
3 -x,-y,-z
4 1/2+x,1/2-y,1/2+z
_cell_length_a                   10.2208(4)
_cell_length_b                   13.8422(6)
_cell_length_c                   15.7529(6)
_cell_angle_alpha                90
_cell_angle_beta                 92.927(3)
_cell_angle_gamma                90
_cell_volume                     2225.79
_cell_formula_units_Z            4
loop_
_atom_site_label
_atom_site_type_symbol
_atom_site_fract_x
_atom_site_fract_y
_atom_site_fract_z
C1 C 0.7475(2) 0.32445(18) -0.25921(13)
H1 H 0.6810 0.2799 -0.2412
H2 H 0.7041 0.3846 -0.2750
C2 C 0.8069(2) 0.2843(2) -0.33444(14)
H3 H 0.8475 0.3364 -0.3649
H4 H 0.7384 0.2569 -0.3719
C3 C 0.9060(2) 0.2094(2) -0.31411(15)
H5 H 0.9467 0.1902 -0.3658
H6 H 0.8634 0.1530 -0.2915
C4 C 1.00908(19) 0.24428(18) -0.25091(13)
H7 H 1.0707 0.2836 -0.2805
H8 H 1.0566 0.1887 -0.2280
C5 C 0.96104(16) 0.30191(13) -0.17821(11)
C6 C 0.69183(16) 0.36703(14) -0.07234(12)
H9 H 0.6504 0.3090 -0.0867
C7 C 0.79458(16) 0.39895(13) -0.11827(11)
C8 C 0.85374(18) 0.48559(15) -0.09723(13)
H10 H 0.9212 0.5085 -0.1292
C9 C 0.81384(18) 0.53850(15) -0.02937(13)
H11 H 0.8555 0.5964 -0.0150
C10 C 0.71265(16) 0.50613(13) 0.01724(11)
C11 C 0.65022(16) 0.42095(13) -0.00515(12)
H12 H 0.5799 0.3997 0.0251
C12 C 0.70433(19) 0.51268(15) 0.17421(11)
H13 H 0.7936 0.5278 0.1935
H14 H 0.6974 0.4431 0.1681
C13 C 0.65199(16) 0.65561(13) 0.08377(11)
C14 C 0.63780(15) 0.70227(12) 0.16673(11)
C15 C 0.61124(15) 0.65387(13) 0.23941(11)
C16 C 0.61180(18) 0.54633(14) 0.24044(12)
H15 H 0.5242 0.5218 0.2272
H16 H 0.6412 0.5229 0.2962
C17 C 0.58825(15) 0.72605(13) 0.29867(11)
C18 C 0.54913(16) 0.71351(15) 0.38716(11)
C19 C 0.65615(16) 0.87952(12) 0.13062(11)
C20 C 0.75953(16) 0.87607(13) 0.07801(11)
H17 H 0.8138 0.8221 0.0784
C21 C 0.78266(17) 0.95257(13) 0.02481(11)
H18 H 0.8523 0.9502 -0.0108
C22 C 0.70276(18) 1.03238(13) 0.02449(12)
C23 C 0.60148(19) 1.03666(14) 0.07941(13)
H19 H 0.5493 1.0916 0.0806
C24 C 0.57751(18) 0.96060(14) 0.13207(12)
H20 H 0.5088 0.9635 0.1685
C25 C 0.8083(2) 1.10233(18) -0.09096(15)
H21 H 0.8038 1.1588 -0.1264
H22 H 0.7902 1.0460 -0.1251
H23 H 0.8945 1.0972 -0.0641
H24 H 0.535(2) 0.7894(17) 0.4885(16)
H25 H 0.592(2) 0.8407(19) 0.4183(16)
N1 N 0.84098(13) 0.34272(11) -0.18714(9)
N2 N 0.67542(13) 0.55853(10) 0.09087(9)
N3 N 0.63038(13) 0.79880(10) 0.18371(9)
N4 N 0.60148(13) 0.81416(11) 0.26525(9)
N5 N 0.55688(18) 0.79197(16) 0.43586(12)
O1 O 1.03025(12) 0.31213(10) -0.11280(8)
O2 O 0.63559(12) 0.69682(9) 0.01603(8)
O3 O 0.50957(14) 0.63523(11) 0.41035(9)
O4 O 0.71470(14) 1.10979(10) -0.02797(10)
loop_
_geom_bond_atom_site_label_1
_geom_bond_atom_site_label_2
_geom_bond_site_symmetry_1
_geom_bond_site_symmetry_2
C1 H1 1_555 1_555
H2 C1 1_555 1_555
C2 C1 1_555 1_555
H3 C2 1_555 1_555
H4 C2 1_555 1_555
C3 C2 1_555 1_555
H5 C3 1_555 1_555
H6 C3 1_555 1_555
C4 C3 1_555 1_555
H7 C4 1_555 1_555
H8 C4 1_555 1_555
C5 C4 1_555 1_555
C6 H9 1_555 1_555
C7 C6 1_555 1_555
C8 C7 1_555 1_555
H10 C8 1_555 1_555
C9 C8 1_555 1_555
H11 C9 1_555 1_555
C10 C9 1_555 1_555
C11 C6 1_555 1_555
H12 C11 1_555 1_555
C12 H13 1_555 1_555
H14 C12 1_555 1_555
C13 C14 1_555 1_555
C14 C15 1_555 1_555
C15 C16 1_555 1_555
C16 C12 1_555 1_555
H15 C16 1_555 1_555
H16 C16 1_555 1_555
C17 C15 1_555 1_555
C18 C17 1_555 1_555
C19 C20 1_555 1_555
C20 H17 1_555 1_555
C21 C20 1_555 1_555
H18 C21 1_555 1_555
C22 C21 1_555 1_555
C23 C22 1_555 1_555
H19 C23 1_555 1_555
C24 C19 1_555 1_555
H20 C24 1_555 1_555
C25 H21 1_555 1_555
H22 C25 1_555 1_555
H23 C25 1_555 1_555
H24 N5 1_555 1_555
H25 N5 1_555 1_555
N1 C1 1_555 1_555
N2 C10 1_555 1_555
N3 C14 1_555 1_555
N4 C17 1_555 1_555
N5 C18 1_555 1_555
O1 C5 1_555 1_555
O2 C13 1_555 1_555
O3 C18 1_555 1_555
O4 C22 1_555 1_555
C5 N1 1_555 1_555
C7 N1 1_555 1_555
C10 C11 1_555 1_555
C12 N2 1_555 1_555
C13 N2 1_555 1_555
C19 N3 1_555 1_555
C23 C24 1_555 1_555
C25 O4 1_555 1_555
N3 N4 1_555 1_555

#END
