
#######################################################################
#
#                 Cambridge Crystallographic Data Centre
#                                CCDC 
#
#######################################################################
#
# If this CIF has been generated from an entry in the Cambridge 
# Structural Database, then it will include bibliographic, chemical, 
# crystal, experimental, refinement or atomic coordinate data resulting 
# from the CCDC's data processing and validation procedures.
#
#######################################################################

data_NUPSAT
_chemical_formula_moiety         'C18 H16 Br2 O2'
_chemical_name_systematic        
2',10'-Dibromospiro[cyclohexane-1,6'-dibenzo[d,f][1,3]dioxepine]
_symmetry_cell_setting           orthorhombic
_symmetry_space_group_name_H-M   'P b c a'
_symmetry_Int_Tables_number      61
_space_group_name_Hall           '-P 2ac 2ab'
loop_
_symmetry_equiv_pos_site_id
_symmetry_equiv_pos_as_xyz
1 x,y,z
2 1/2-x,-y,1/2+z
3 -x,1/2+y,1/2-z
4 1/2+x,1/2-y,-z
5 -x,-y,-z
6 1/2+x,y,1/2-z
7 x,1/2-y,1/2+z
8 1/2-x,1/2+y,z
_cell_length_a                   17.793(4)
_cell_length_b                   10.143(5)
_cell_length_c                   18.279(5)
_cell_angle_alpha                90
_cell_angle_beta                 90
_cell_angle_gamma                90
_cell_volume                     3298.89
_exptl_crystal_colour            white
_exptl_crystal_description       block
_cell_formula_units_Z            8
loop_
_atom_site_label
_atom_site_type_symbol
_atom_site_fract_x
_atom_site_fract_y
_atom_site_fract_z
Br1 Br 1.04490(3) 0.06701(5) 0.35791(2)
Br2 Br 0.85968(3) 0.22102(6) 0.73751(2)
C1 C 1.0023(2) 0.2318(4) 0.38479(19)
C2 C 1.0211(2) 0.3410(4) 0.3440(2)
H1 H 1.0543 0.3341 0.3049
C3 C 0.9896(2) 0.4612(4) 0.36234(18)
H2 H 1.0008 0.5357 0.3348
C4 C 0.94151(19) 0.4708(4) 0.42156(18)
C5 C 0.92258(19) 0.3603(4) 0.46297(17)
C6 C 0.9533(2) 0.2386(4) 0.44328(18)
H3 H 0.9409 0.1629 0.4693
C7 C 0.8410(2) 0.3224(4) 0.65214(18)
C8 C 0.8863(2) 0.3024(4) 0.59131(18)
H4 H 0.9245 0.2400 0.5928
C9 C 0.87442(18) 0.3757(4) 0.52831(17)
C10 C 0.81592(19) 0.4670(4) 0.52830(17)
C11 C 0.7721(2) 0.4878(4) 0.5897(2)
H5 H 0.7339 0.5504 0.5887
C12 C 0.7850(2) 0.4158(4) 0.65240(19)
H6 H 0.7564 0.4302 0.6942
C13 C 0.84221(18) 0.6288(4) 0.43511(18)
C14 C 0.8204(2) 0.6406(4) 0.35503(17)
H7 H 0.7663 0.6509 0.3512
H8 H 0.8343 0.5603 0.3295
C15 C 0.8591(2) 0.7583(5) 0.3188(2)
H9 H 0.9128 0.7420 0.3163
H10 H 0.8406 0.7681 0.2692
C16 C 0.8450(3) 0.8833(5) 0.3606(2)
H11 H 0.7919 0.9043 0.3588
H12 H 0.8723 0.9551 0.3377
C17 C 0.8696(3) 0.8706(4) 0.4399(2)
H13 H 0.9236 0.8582 0.4420
H14 H 0.8575 0.9511 0.4660
C18 C 0.8310(2) 0.7552(4) 0.4764(2)
H15 H 0.8506 0.7451 0.5256
H16 H 0.7776 0.7735 0.4802
O1 O 0.91933(12) 0.5946(2) 0.44369(12)
O2 O 0.79528(13) 0.5265(3) 0.46336(12)
loop_
_geom_bond_atom_site_label_1
_geom_bond_atom_site_label_2
_geom_bond_site_symmetry_1
_geom_bond_site_symmetry_2
Br1 C1 1_555 1_555
Br2 C7 1_555 1_555
C1 C2 1_555 1_555
C2 H1 1_555 1_555
C3 C2 1_555 1_555
H2 C3 1_555 1_555
C4 C3 1_555 1_555
C5 C4 1_555 1_555
C6 C1 1_555 1_555
H3 C6 1_555 1_555
C7 C8 1_555 1_555
C8 H4 1_555 1_555
C9 C5 1_555 1_555
C10 C9 1_555 1_555
C11 C10 1_555 1_555
H5 C11 1_555 1_555
C12 C7 1_555 1_555
H6 C12 1_555 1_555
C13 C14 1_555 1_555
C14 H7 1_555 1_555
H8 C14 1_555 1_555
C15 C14 1_555 1_555
H9 C15 1_555 1_555
H10 C15 1_555 1_555
C16 C15 1_555 1_555
H11 C16 1_555 1_555
H12 C16 1_555 1_555
C17 C16 1_555 1_555
H13 C17 1_555 1_555
H14 C17 1_555 1_555
C18 C13 1_555 1_555
H15 C18 1_555 1_555
H16 C18 1_555 1_555
O1 C4 1_555 1_555
O2 C10 1_555 1_555
C5 C6 1_555 1_555
C8 C9 1_555 1_555
C11 C12 1_555 1_555
C13 O1 1_555 1_555
C13 O2 1_555 1_555
C17 C18 1_555 1_555

#END
