
#######################################################################
#
#                 Cambridge Crystallographic Data Centre
#                                CCDC 
#
#######################################################################
#
# If this CIF has been generated from an entry in the Cambridge 
# Structural Database, then it will include bibliographic, chemical, 
# crystal, experimental, refinement or atomic coordinate data resulting 
# from the CCDC's data processing and validation procedures.
#
#######################################################################

data_NUPYIG
_chemical_formula_moiety         'C21 H39 Li1 N2'
_chemical_name_systematic        
(\h^5^-Neomenthylcyclopentadienyl)-(N,N,N',N'-tetramethylethane-1,2-diamine)-lithium
_symmetry_cell_setting           monoclinic
_symmetry_space_group_name_H-M   'P 21'
_symmetry_Int_Tables_number      4
_space_group_name_Hall           'P 2yb'
loop_
_symmetry_equiv_pos_site_id
_symmetry_equiv_pos_as_xyz
1 x,y,z
2 -x,1/2+y,-z
_cell_length_a                   8.477(2)
_cell_length_b                   9.667(2)
_cell_length_c                   14.084(3)
_cell_angle_alpha                90
_cell_angle_beta                 106.98(3)
_cell_angle_gamma                90
_cell_volume                     1103.83
_exptl_crystal_colour            colorless
_exptl_crystal_description       plate
_chemical_melting_point          '85 deg.C'
_cell_formula_units_Z            2
_exptl_crystal_recrystallization_method hexane
loop_
_atom_site_label
_atom_site_type_symbol
_atom_site_fract_x
_atom_site_fract_y
_atom_site_fract_z
Li1 Li 0.7756(2) 0.2603 0.7340(2)
C1 C 0.5945(2) 0.1082(2) 0.7654(2)
C2 C 0.6011(2) 0.2267(2) 0.8242(2)
C3 C 0.5482(2) 0.3410(2) 0.7638(2)
C4 C 0.5019(2) 0.2970(2) 0.6643(2)
C5 C 0.5303(2) 0.1534(2) 0.6661(2)
C6 C 0.6469(2) -0.0344(2) 0.8066(2)
C7 C 0.5053(2) -0.1342(2) 0.8089(2)
C8 C 0.4236(2) -0.1889(2) 0.7033(2)
C9 C 0.5553(2) -0.2599(2) 0.6606(2)
C10 C 0.6931(2) -0.1665(2) 0.6615(2)
C11 C 0.7679(2) -0.1047(2) 0.7637(2)
C12 C 0.8261(2) -0.2426(2) 0.6236(2)
C13 C 0.3791(2) -0.0799(2) 0.8561(2)
C14 C 0.4586(2) -0.0348(2) 0.9612(2)
C15 C 0.2411(2) -0.1820(2) 0.8544(2)
N1 N 1.0027(2) 0.3317(2) 0.8410(2)
N2 N 0.9219(2) 0.2674(2) 0.6329(2)
C16 C 0.9780(2) 0.4606(2) 0.8867(2)
C17 C 1.0576(2) 0.2261(2) 0.9211(2)
C18 C 1.1191(2) 0.3483(2) 0.7907(2)
C19 C 1.0698(2) 0.3063(2) 0.6942(2)
C20 C 0.9228(2) 0.1431(2) 0.5799(2)
C21 C 0.8502(2) 0.3699(2) 0.5587(2)
H1 H 0.6308 0.2269 0.8954
H2 H 0.5341 0.4331 0.7854
H3 H 0.4528 0.3519 0.6063
H4 H 0.5072 0.0932 0.6094
H5 H 0.7047 -0.0178 0.8751
H6 H 0.5533 -0.2138 0.8474
H7 H 0.3800 -0.1106 0.6621
H8 H 0.3342 -0.2504 0.7022
H9 H 0.5034 -0.2930 0.5946
H10 H 0.5973 -0.3384 0.7020
H11 H 0.6502 -0.0910 0.6172
H12 H 0.8191 -0.1785 0.8074
H13 H 0.8526 -0.0403 0.7607
H14 H 0.7805 -0.2810 0.5584
H15 H 0.9090 -0.1757 0.6221
H16 H 0.8747 -0.3152 0.6693
H17 H 0.3308 0.0010 0.8196
H18 H 0.5434 0.0316 0.9625
H19 H 0.3808 0.0045 0.9912
H20 H 0.5073 -0.1159 0.9974
H21 H 0.1852 -0.2069 0.7869
H22 H 0.2899 -0.2630 0.8906
H23 H 0.1634 -0.1426 0.8845
H24 H 1.0800 0.4892 0.9332
H25 H 0.9402 0.5310 0.8372
H26 H 0.8968 0.4462 0.9212
H27 H 1.1567 0.2554 0.9698
H28 H 0.9722 0.2121 0.9523
H29 H 1.0779 0.1410 0.8915
H30 H 1.2137 0.2950 0.8259
H31 H 1.1531 0.4433 0.7936
H32 H 1.1037 0.3806 0.6593
H33 H 1.1409 0.2299 0.6920
H34 H 0.9895 0.1519 0.5356
H35 H 0.9660 0.0707 0.6269
H36 H 0.8116 0.1212 0.5425
H37 H 0.9119 0.3764 0.5115
H38 H 0.7383 0.3449 0.5249
H39 H 0.8520 0.4576 0.5909
loop_
_geom_bond_atom_site_label_1
_geom_bond_atom_site_label_2
_geom_bond_site_symmetry_1
_geom_bond_site_symmetry_2
Li1 C1 1_555 1_555
C1 C2 1_555 1_555
C2 Li1 1_555 1_555
C3 Li1 1_555 1_555
C4 Li1 1_555 1_555
C5 Li1 1_555 1_555
C6 C1 1_555 1_555
C7 C6 1_555 1_555
C8 C7 1_555 1_555
C9 C8 1_555 1_555
C10 C9 1_555 1_555
C11 C6 1_555 1_555
C12 C10 1_555 1_555
C13 C7 1_555 1_555
C14 C13 1_555 1_555
C15 C13 1_555 1_555
N1 Li1 1_555 1_555
N2 Li1 1_555 1_555
C16 N1 1_555 1_555
C17 N1 1_555 1_555
C18 N1 1_555 1_555
C19 N2 1_555 1_555
C20 N2 1_555 1_555
C21 N2 1_555 1_555
H1 C2 1_555 1_555
H2 C3 1_555 1_555
H3 C4 1_555 1_555
H4 C5 1_555 1_555
H5 C6 1_555 1_555
H6 C7 1_555 1_555
H7 C8 1_555 1_555
H8 C8 1_555 1_555
H9 C9 1_555 1_555
H10 C9 1_555 1_555
H11 C10 1_555 1_555
H12 C11 1_555 1_555
H13 C11 1_555 1_555
H14 C12 1_555 1_555
H15 C12 1_555 1_555
H16 C12 1_555 1_555
H17 C13 1_555 1_555
H18 C14 1_555 1_555
H19 C14 1_555 1_555
H20 C14 1_555 1_555
H21 C15 1_555 1_555
H22 C15 1_555 1_555
H23 C15 1_555 1_555
H24 C16 1_555 1_555
H25 C16 1_555 1_555
H26 C16 1_555 1_555
H27 C17 1_555 1_555
H28 C17 1_555 1_555
H29 C17 1_555 1_555
H30 C18 1_555 1_555
H31 C18 1_555 1_555
H32 C19 1_555 1_555
H33 C19 1_555 1_555
H34 C20 1_555 1_555
H35 C20 1_555 1_555
H36 C20 1_555 1_555
H37 C21 1_555 1_555
H38 C21 1_555 1_555
H39 C21 1_555 1_555
C1 C5 1_555 1_555
C2 C3 1_555 1_555
C3 C4 1_555 1_555
C4 C5 1_555 1_555
C10 C11 1_555 1_555
C18 C19 1_555 1_555

#END
