
#######################################################################
#
#                 Cambridge Crystallographic Data Centre
#                                CCDC 
#
#######################################################################
#
# If this CIF has been generated from an entry in the Cambridge 
# Structural Database, then it will include bibliographic, chemical, 
# crystal, experimental, refinement or atomic coordinate data resulting 
# from the CCDC's data processing and validation procedures.
#
#######################################################################

data_NUPZII
_chemical_formula_moiety         'C22 H42 N6,2(C1 H4 O1)'
_chemical_name_systematic        
"3,3'-(5,5,7,12,12,14-Hexamethyl-1,4,8,11-tetraazacyclotetradecane-1,8-diyl)dipropanonitrile methanol solvate"
_symmetry_cell_setting           monoclinic
_symmetry_space_group_name_H-M   'P 21/n'
_symmetry_Int_Tables_number      14
_space_group_name_Hall           '-P 2yn'
loop_
_symmetry_equiv_pos_site_id
_symmetry_equiv_pos_as_xyz
1 x,y,z
2 1/2-x,1/2+y,1/2-z
3 -x,-y,-z
4 1/2+x,1/2-y,1/2+z
_cell_length_a                   11.8705(16)
_cell_length_b                   8.4448(11)
_cell_length_c                   13.4942(18)
_cell_angle_alpha                90
_cell_angle_beta                 94.097(2)
_cell_angle_gamma                90
_cell_volume                     1349.26
_exptl_crystal_colour            colorless
_exptl_crystal_description       block
_cell_formula_units_Z            2
loop_
_atom_site_label
_atom_site_type_symbol
_atom_site_fract_x
_atom_site_fract_y
_atom_site_fract_z
C1 C 0.37856(9) 0.07773(12) 0.85259(8)
H1 H 0.3428 0.1592 0.8079
H2 H 0.4073 0.1303 0.9149
C2 C 0.56583(9) 0.10757(12) 0.77704(7)
C3 C 0.64934(10) -0.00010(15) 0.72852(9)
H3 H 0.6763 -0.0821 0.7758
H4 H 0.7135 0.0628 0.7090
H5 H 0.6118 -0.0501 0.6695
C4 C 0.51883(10) 0.22792(14) 0.69961(8)
H6 H 0.4756 0.1722 0.6457
H7 H 0.5815 0.2855 0.6726
H8 H 0.4694 0.3029 0.7310
C5 C 0.62179(8) 0.20068(12) 0.86592(7)
H9 H 0.6724 0.2813 0.8397
H10 H 0.5618 0.2580 0.8985
C6 C 0.69062(8) 0.10371(12) 0.94599(7)
H11 H 0.6658 -0.0091 0.9388
C7 C 0.81748(9) 0.10933(15) 0.92898(9)
H12 H 0.8448 0.2184 0.9366
H13 H 0.8292 0.0719 0.8618
H14 H 0.8591 0.0413 0.9777
C8 C 0.70816(8) 0.04726(12) 1.12482(8)
H15 H 0.7295 0.1080 1.1860
H16 H 0.7769 -0.0056 1.1036
C9 C 0.69768(9) 0.32159(12) 1.06682(8)
H17 H 0.6917 0.3826 1.0040
H18 H 0.7775 0.3249 1.0937
C10 C 0.62306(10) 0.39889(13) 1.14129(8)
H19 H 0.6390 0.3497 1.2074
H20 H 0.6418 0.5129 1.1472
C11 C 0.50273(10) 0.38124(13) 1.11086(9)
N1 N 0.47262(7) 0.00296(10) 0.80496(6)
N2 N 0.66485(7) 0.15706(10) 1.04640(6)
N3 N 0.40915(9) 0.36369(13) 1.08811(9)
H25 H 0.5001(11) -0.0715(17) 0.8475(10)
C1B C 0.62144(9) -0.07773(12) 1.14741(8)
H1B H 0.6572 -0.1592 1.1921
H2B H 0.5927 -0.1303 1.0851
C2B C 0.43417(9) -0.10757(12) 1.22296(7)
C3B C 0.35066(10) 0.00010(15) 1.27148(9)
H3B H 0.3237 0.0821 1.2242
H4B H 0.2865 -0.0628 1.2910
H5B H 0.3882 0.0501 1.3305
C4B C 0.48117(10) -0.22792(14) 1.30039(8)
H6B H 0.5244 -0.1722 1.3543
H7B H 0.4185 -0.2855 1.3274
H8B H 0.5306 -0.3029 1.2690
C5B C 0.37821(8) -0.20068(12) 1.13408(7)
H9B H 0.3276 -0.2813 1.1603
H10B H 0.4382 -0.2580 1.1015
C6B C 0.30938(8) -0.10371(12) 1.05401(7)
H11B H 0.3342 0.0091 1.0612
C7B C 0.18252(9) -0.10933(15) 1.07102(9)
H12B H 0.1552 -0.2184 1.0634
H13B H 0.1708 -0.0719 1.1382
H14B H 0.1409 -0.0413 1.0223
C8B C 0.29184(8) -0.04726(12) 0.87518(8)
H15B H 0.2705 -0.1080 0.8140
H16B H 0.2231 0.0056 0.8964
C9B C 0.30232(9) -0.32159(12) 0.93318(8)
H17B H 0.3083 -0.3826 0.9960
H18B H 0.2225 -0.3249 0.9063
C10B C 0.37694(10) -0.39889(13) 0.85871(8)
H19B H 0.3610 -0.3497 0.7926
H20B H 0.3582 -0.5129 0.8528
C11B C 0.49727(10) -0.38124(13) 0.88914(9)
N1B N 0.52738(7) -0.00296(10) 1.19504(6)
N2B N 0.33515(7) -0.15706(10) 0.95360(6)
N3B N 0.59085(9) -0.36369(13) 0.91189(9)
H25B H 0.4999(11) 0.0715(17) 1.1525(10)
C12 C 0.38124(11) 0.83164(16) 0.55435(9)
H21 H 0.4093 0.9349 0.5339
H22 H 0.3183 0.7985 0.5081
H23 H 0.4421 0.7533 0.5540
O1 O 0.34397(8) 0.84346(12) 0.65056(6)
H24 H 0.3937 0.8886 0.6879
loop_
_geom_bond_atom_site_label_1
_geom_bond_atom_site_label_2
_geom_bond_site_symmetry_1
_geom_bond_site_symmetry_2
C1 H1 1_555 1_555
H2 C1 1_555 1_555
C2 C3 1_555 1_555
C3 H3 1_555 1_555
H4 C3 1_555 1_555
H5 C3 1_555 1_555
C4 C2 1_555 1_555
H6 C4 1_555 1_555
H7 C4 1_555 1_555
H8 C4 1_555 1_555
C5 C2 1_555 1_555
H9 C5 1_555 1_555
H10 C5 1_555 1_555
C6 C5 1_555 1_555
H11 C6 1_555 1_555
C7 C6 1_555 1_555
H12 C7 1_555 1_555
H13 C7 1_555 1_555
H14 C7 1_555 1_555
C8 H15 1_555 1_555
H16 C8 1_555 1_555
C9 H17 1_555 1_555
H18 C9 1_555 1_555
C10 C9 1_555 1_555
H19 C10 1_555 1_555
H20 C10 1_555 1_555
C11 C10 1_555 1_555
C12 H21 1_555 1_555
H22 C12 1_555 1_555
H23 C12 1_555 1_555
N1 C1 1_555 1_555
N2 C6 1_555 1_555
N3 C11 1_555 1_555
O1 C12 1_555 1_555
H24 O1 1_555 1_555
H25 N1 1_555 1_555
C1B C8 1_555 1_555
H1B C1B 1_555 1_555
H2B C1B 1_555 1_555
C2B C3B 1_555 1_555
C3B H3B 1_555 1_555
H4B C3B 1_555 1_555
H5B C3B 1_555 1_555
C4B C2B 1_555 1_555
H6B C4B 1_555 1_555
H7B C4B 1_555 1_555
H8B C4B 1_555 1_555
C5B C2B 1_555 1_555
H9B C5B 1_555 1_555
H10B C5B 1_555 1_555
C6B C5B 1_555 1_555
H11B C6B 1_555 1_555
C7B C6B 1_555 1_555
H12B C7B 1_555 1_555
H13B C7B 1_555 1_555
H14B C7B 1_555 1_555
C8B C1 1_555 1_555
H15B C8B 1_555 1_555
H16B C8B 1_555 1_555
C9B H17B 1_555 1_555
H18B C9B 1_555 1_555
C10B C9B 1_555 1_555
H19B C10B 1_555 1_555
H20B C10B 1_555 1_555
C11B C10B 1_555 1_555
N1B C1B 1_555 1_555
N2B C6B 1_555 1_555
N3B C11B 1_555 1_555
H25B N1B 1_555 1_555
C2 N1 1_555 1_555
C8 N2 1_555 1_555
C9 N2 1_555 1_555
C2B N1B 1_555 1_555
C8B N2B 1_555 1_555
C9B N2B 1_555 1_555

#END
