
#######################################################################
#
#                 Cambridge Crystallographic Data Centre
#                                CCDC 
#
#######################################################################
#
# If this CIF has been generated from an entry in the Cambridge 
# Structural Database, then it will include bibliographic, chemical, 
# crystal, experimental, refinement or atomic coordinate data resulting 
# from the CCDC's data processing and validation procedures.
#
#######################################################################

data_NUQDOT
_chemical_formula_moiety         'C12 H20 N4 O2'
_chemical_name_systematic        
't-Butyl 3-amino-2-methyl-6,7-dihydro-2H-pyrazolo[4,3-c]pyridine-5(4H)-carboxylate'
_symmetry_cell_setting           triclinic
_symmetry_space_group_name_H-M   'P -1'
_symmetry_Int_Tables_number      2
_space_group_name_Hall           '-P 1'
loop_
_symmetry_equiv_pos_site_id
_symmetry_equiv_pos_as_xyz
1 x,y,z
2 -x,-y,-z
_cell_length_a                   6.3151(13)
_cell_length_b                   9.3615(19)
_cell_length_c                   11.215(2)
_cell_angle_alpha                85.837(4)
_cell_angle_beta                 86.794(4)
_cell_angle_gamma                87.733(4)
_cell_volume                     659.814
_exptl_crystal_colour            colorless
_exptl_crystal_description       block
_cell_formula_units_Z            2
_exptl_crystal_recrystallization_method methanol
loop_
_atom_site_label
_atom_site_type_symbol
_atom_site_fract_x
_atom_site_fract_y
_atom_site_fract_z
C1 C 0.3109(4) 0.0363(3) 0.6957(2)
H1 H 0.2825 -0.0408 0.6462
H2 H 0.3436 -0.0061 0.7744
C2 C 0.5027(4) 0.1173(3) 0.6406(2)
H3 H 0.5619 0.1713 0.7007
H4 H 0.6113 0.0498 0.6125
C3 C 0.4344(4) 0.2180(2) 0.5375(2)
C4 C 0.2211(4) 0.2453(3) 0.5144(2)
C5 C 0.0400(4) 0.1836(3) 0.59148(19)
H5 H -0.0710 0.2567 0.6030
H6 H -0.0191 0.1057 0.5531
C6 C 0.2214(4) 0.3437(3) 0.4173(2)
C7 C 0.5130(4) 0.4687(3) 0.2914(2)
H7 H 0.3984 0.5194 0.2522
H8 H 0.5974 0.4162 0.2344
H9 H 0.5997 0.5358 0.3251
C8 C 0.0740(4) 0.2085(3) 0.8027(2)
C9 C 0.1596(4) 0.2266(3) 1.0122(2)
C10 C 0.2487(5) 0.3756(3) 0.9930(3)
H10 H 0.3934 0.3684 0.9622
H11 H 0.2431 0.4197 1.0679
H12 H 0.1660 0.4329 0.9369
C11 C -0.0678(4) 0.2267(3) 1.0624(2)
H13 H -0.1532 0.2919 1.0136
H14 H -0.0739 0.2563 1.1427
H15 H -0.1206 0.1319 1.0627
C12 C 0.2991(5) 0.1310(3) 1.0927(2)
H16 H 0.2457 0.0360 1.1008
H17 H 0.2984 0.1687 1.1701
H18 H 0.4416 0.1279 1.0580
N1 N 0.1203(3) 0.1310(2) 0.70667(17)
N2 N 0.5648(3) 0.2928(2) 0.46032(17)
N3 N 0.4281(3) 0.3700(2) 0.38587(17)
N4 N 0.0539(3) 0.4037(2) 0.35407(19)
H19 H 0.0781 0.4606 0.2915
H20 H -0.0744 0.3840 0.3773
O1 O 0.1814(3) 0.15709(17) 0.89818(14)
O2 O -0.0535(3) 0.31087(19) 0.80320(15)
loop_
_geom_bond_atom_site_label_1
_geom_bond_atom_site_label_2
_geom_bond_site_symmetry_1
_geom_bond_site_symmetry_2
C1 H1 1_555 1_555
H2 C1 1_555 1_555
C2 C1 1_555 1_555
H3 C2 1_555 1_555
H4 C2 1_555 1_555
C3 C2 1_555 1_555
C4 C3 1_555 1_555
C5 C4 1_555 1_555
H5 C5 1_555 1_555
H6 C5 1_555 1_555
C6 C4 1_555 1_555
C7 H7 1_555 1_555
H8 C7 1_555 1_555
H9 C7 1_555 1_555
C8 N1 1_555 1_555
C9 C10 1_555 1_555
C10 H10 1_555 1_555
H11 C10 1_555 1_555
H12 C10 1_555 1_555
C11 C9 1_555 1_555
H13 C11 1_555 1_555
H14 C11 1_555 1_555
H15 C11 1_555 1_555
C12 C9 1_555 1_555
H16 C12 1_555 1_555
H17 C12 1_555 1_555
H18 C12 1_555 1_555
N1 C1 1_555 1_555
N2 C3 1_555 1_555
N3 C6 1_555 1_555
N4 C6 1_555 1_555
H19 N4 1_555 1_555
H20 N4 1_555 1_555
O1 C8 1_555 1_555
O2 C8 1_555 1_555
C5 N1 1_555 1_555
C7 N3 1_555 1_555
C9 O1 1_555 1_555
N2 N3 1_555 1_555

#END
