
#######################################################################
#
#                 Cambridge Crystallographic Data Centre
#                                CCDC 
#
#######################################################################
#
# If this CIF has been generated from an entry in the Cambridge 
# Structural Database, then it will include bibliographic, chemical, 
# crystal, experimental, refinement or atomic coordinate data resulting 
# from the CCDC's data processing and validation procedures.
#
#######################################################################

data_NUQDAF
_chemical_formula_moiety         'C12 H16 O5'
_chemical_name_systematic        
'Isopropyl 3-(3,4-dihydroxyphenyl)-2-hydroxypropanoate'
_chemical_properties_biological  'Antioxidant and vasorelaxant activity'
_symmetry_cell_setting           monoclinic
_symmetry_space_group_name_H-M   'P 21/n'
_symmetry_Int_Tables_number      14
_space_group_name_Hall           '-P 2yn'
loop_
_symmetry_equiv_pos_site_id
_symmetry_equiv_pos_as_xyz
1 x,y,z
2 1/2-x,1/2+y,1/2-z
3 -x,-y,-z
4 1/2+x,1/2-y,1/2+z
_cell_length_a                   5.7691(13)
_cell_length_b                   14.271(3)
_cell_length_c                   14.955(3)
_cell_angle_alpha                90
_cell_angle_beta                 96.360(3)
_cell_angle_gamma                90
_cell_volume                     1223.68
_exptl_crystal_colour            colorless
_exptl_crystal_description       block
_chemical_melting_point          '360 K'
_cell_formula_units_Z            4
_exptl_crystal_recrystallization_method ether/water
loop_
_atom_site_label
_atom_site_type_symbol
_atom_site_fract_x
_atom_site_fract_y
_atom_site_fract_z
O1 O 0.71641(18) 0.75521(7) 0.11545(6)
H1 H 0.6220 0.7390 0.0733
O2 O 1.09466(18) 0.79570(7) 0.22404(8)
H2 H 1.2317 0.8059 0.2423
O3 O 0.94395(17) 0.34163(7) 0.23630(6)
H3 H 0.8648 0.3203 0.2738
O4 O 0.5296(2) 0.29738(8) 0.04573(8)
O5 O 0.77917(17) 0.20274(7) 0.12753(6)
C1 C 0.8694(2) 0.68321(10) 0.13822(9)
C2 C 1.0709(2) 0.70525(10) 0.19423(10)
C3 C 1.2329(3) 0.63583(11) 0.21636(11)
H4 H 1.3698 0.6499 0.2527
C4 C 1.1939(3) 0.54492(11) 0.18498(11)
H5 H 1.3058 0.4991 0.2004
C5 C 0.9928(2) 0.52155(10) 0.13152(9)
C6 C 0.8304(3) 0.59214(10) 0.10876(9)
H6 H 0.6928 0.5777 0.0730
C7 C 0.9418(3) 0.42345(10) 0.09809(9)
H7 H 1.0881 0.3911 0.0939
H8 H 0.8589 0.4265 0.0381
C8 C 0.7973(2) 0.36720(10) 0.15824(9)
H9 H 0.6727 0.4075 0.1760
C9 C 0.6870(3) 0.28507(11) 0.10523(10)
C10 C 0.6941(3) 0.12093(10) 0.07388(10)
H10 H 0.5254 0.1266 0.0577
C11 C 0.7441(4) 0.03703(11) 0.13364(12)
H11 H 0.6708 0.0450 0.1877
H12 H 0.9096 0.0308 0.1486
H13 H 0.6840 -0.0183 0.1027
C12 C 0.8141(4) 0.11835(14) -0.01037(13)
H14 H 0.9798 0.1149 0.0054
H15 H 0.7768 0.1741 -0.0449
H16 H 0.7625 0.0644 -0.0454
loop_
_geom_bond_atom_site_label_1
_geom_bond_atom_site_label_2
_geom_bond_site_symmetry_1
_geom_bond_site_symmetry_2
O1 H1 1_555 1_555
O2 H2 1_555 1_555
O3 H3 1_555 1_555
O4 C9 1_555 1_555
O5 C9 1_555 1_555
C1 O1 1_555 1_555
C2 O2 1_555 1_555
C3 C2 1_555 1_555
H4 C3 1_555 1_555
C4 C3 1_555 1_555
H5 C4 1_555 1_555
C5 C4 1_555 1_555
C6 C1 1_555 1_555
H6 C6 1_555 1_555
C7 C5 1_555 1_555
H7 C7 1_555 1_555
H8 C7 1_555 1_555
C8 O3 1_555 1_555
H9 C8 1_555 1_555
C9 C8 1_555 1_555
C10 O5 1_555 1_555
H10 C10 1_555 1_555
C11 C10 1_555 1_555
H11 C11 1_555 1_555
H12 C11 1_555 1_555
H13 C11 1_555 1_555
C12 C10 1_555 1_555
H14 C12 1_555 1_555
H15 C12 1_555 1_555
H16 C12 1_555 1_555
C1 C2 1_555 1_555
C5 C6 1_555 1_555
C7 C8 1_555 1_555

#END
