
#######################################################################
#
#                 Cambridge Crystallographic Data Centre
#                                CCDC 
#
#######################################################################
#
# If this CIF has been generated from an entry in the Cambridge 
# Structural Database, then it will include bibliographic, chemical, 
# crystal, experimental, refinement or atomic coordinate data resulting 
# from the CCDC's data processing and validation procedures.
#
#######################################################################

data_NUQDIO
_chemical_name_common            fenclorim
_chemical_formula_moiety         'C10 H6 Cl2 N2'
_chemical_name_systematic        4,6-dichloro-2-phenylpyrimidine
_chemical_properties_biological  
'A herbicide safener that is used to protect rice plants from damage likely to be caused by the chloroacetanilide herbicide pretilachlor.'
_symmetry_cell_setting           monoclinic
_symmetry_space_group_name_H-M   'P 21/c'
_symmetry_Int_Tables_number      14
_space_group_name_Hall           '-P 2ybc'
loop_
_symmetry_equiv_pos_site_id
_symmetry_equiv_pos_as_xyz
1 x,y,z
2 -x,1/2+y,1/2-z
3 -x,-y,-z
4 x,1/2-y,1/2+z
_cell_length_a                   5.6210(6)
_cell_length_b                   17.0659(18)
_cell_length_c                   10.2582(12)
_cell_angle_alpha                90
_cell_angle_beta                 99.690(6)
_cell_angle_gamma                90
_cell_volume                     970.003
_exptl_crystal_colour            colorless
_exptl_crystal_description       plate
_cell_formula_units_Z            4
loop_
_atom_site_label
_atom_site_type_symbol
_atom_site_fract_x
_atom_site_fract_y
_atom_site_fract_z
Cl1 Cl 0.65642(9) 0.34546(3) -0.36827(4)
Cl2 Cl 0.00001(9) 0.21187(3) -0.11631(4)
N1 N 0.6078(2) 0.37521(8) -0.12511(13)
N2 N 0.3094(2) 0.31826(8) -0.01497(13)
C1 C 0.5151(3) 0.33485(10) -0.23126(16)
C2 C 0.3205(3) 0.28518(10) -0.24028(16)
H1 H 0.2551 0.2580 -0.3190
C3 C 0.2296(3) 0.27863(10) -0.12406(16)
C4 C 0.4978(3) 0.36583(9) -0.01979(15)
C5 C 0.5944(3) 0.41068(10) 0.10104(15)
C6 C 0.4715(3) 0.41288(10) 0.20807(16)
H2 H 0.3240 0.3851 0.2044
C7 C 0.5644(4) 0.45554(11) 0.31979(17)
H3 H 0.4809 0.4566 0.3929
C8 C 0.7773(4) 0.49654(12) 0.32573(18)
H4 H 0.8395 0.5259 0.4026
C9 C 0.9000(3) 0.49498(12) 0.22019(19)
H5 H 1.0460 0.5236 0.2239
C10 C 0.8099(3) 0.45159(11) 0.10867(18)
H6 H 0.8964 0.4498 0.0367
loop_
_geom_bond_atom_site_label_1
_geom_bond_atom_site_label_2
_geom_bond_site_symmetry_1
_geom_bond_site_symmetry_2
Cl1 C1 1_555 1_555
Cl2 C3 1_555 1_555
N1 C1 1_555 1_555
N2 C3 1_555 1_555
C1 C2 1_555 1_555
C2 H1 1_555 1_555
C3 C2 1_555 1_555
C4 N1 1_555 1_555
C5 C4 1_555 1_555
C6 C5 1_555 1_555
H2 C6 1_555 1_555
C7 C6 1_555 1_555
H3 C7 1_555 1_555
C8 C7 1_555 1_555
H4 C8 1_555 1_555
C9 C8 1_555 1_555
H5 C9 1_555 1_555
C10 C5 1_555 1_555
H6 C10 1_555 1_555
N2 C4 1_555 1_555
C9 C10 1_555 1_555

#END
