
#######################################################################
#
#                 Cambridge Crystallographic Data Centre
#                                CCDC 
#
#######################################################################
#
# If this CIF has been generated from an entry in the Cambridge 
# Structural Database, then it will include bibliographic, chemical, 
# crystal, experimental, refinement or atomic coordinate data resulting 
# from the CCDC's data processing and validation procedures.
#
#######################################################################

data_NUQHUD
_chemical_name_common            
2,3,6,7,8,9,11,12-Octahydro-5H-1,4,10,13,7-benzotetraoxazacyclopentadecine
_chemical_formula_moiety         'C14 H21 N1 O4'
_chemical_name_systematic        
2,5,11,14-Tetraoxa-8-azadispiro[13.4.0]nonadeca-15,17,19-triene
_symmetry_cell_setting           monoclinic
_symmetry_space_group_name_H-M   'P 21'
_symmetry_Int_Tables_number      4
_space_group_name_Hall           'P 2yb'
loop_
_symmetry_equiv_pos_site_id
_symmetry_equiv_pos_as_xyz
1 x,y,z
2 -x,1/2+y,-z
_cell_length_a                   10.771(7)
_cell_length_b                   8.662(5)
_cell_length_c                   15.961(10)
_cell_angle_alpha                90
_cell_angle_beta                 105.417(11)
_cell_angle_gamma                90
_cell_volume                     1435.55
_exptl_crystal_colour            colorless
_exptl_crystal_description       block
_cell_formula_units_Z            4
_exptl_crystal_recrystallization_method 'ethyl acetate'
loop_
_atom_site_label
_atom_site_type_symbol
_atom_site_fract_x
_atom_site_fract_y
_atom_site_fract_z
N1 N 0.3503(4) 0.5129(6) 0.1371(3)
H1 H 0.4359 0.5187 0.1535
O1 O 0.7230(3) 0.4836(4) 0.2096(2)
O2 O 0.6683(4) 0.6169(4) 0.0602(2)
O3 O 0.4078(4) 0.5783(5) -0.0279(2)
O4 O 0.5273(4) 0.3439(5) 0.2723(3)
C1 C 0.8137(5) 0.4670(6) 0.1632(3)
C2 C 0.9266(5) 0.3848(7) 0.1912(4)
H3 H 0.9467 0.3381 0.2457
C3 C 1.0097(6) 0.3708(11) 0.1397(6)
H4 H 1.0850 0.3136 0.1586
C4 C 0.9809(6) 0.4413(12) 0.0610(6)
H5 H 1.0376 0.4315 0.0265
C5 C 0.8682(6) 0.5286(8) 0.0300(4)
H6 H 0.8513 0.5778 -0.0236
C6 C 0.7824(5) 0.5399(6) 0.0812(3)
C7 C 0.6160(6) 0.6595(8) -0.0305(4)
H7 H 0.6173 0.5720 -0.0681
H8 H 0.6656 0.7429 -0.0462
C8 C 0.4788(6) 0.7108(7) -0.0382(4)
H9 H 0.4770 0.7864 0.0063
H10 H 0.4420 0.7573 -0.0947
C9 C 0.2861(5) 0.6140(8) -0.0110(4)
H11 H 0.2277 0.5281 -0.0299
H12 H 0.2492 0.7037 -0.0450
C10 C 0.2971(6) 0.6457(8) 0.0824(4)
H13 H 0.3523 0.7346 0.1009
H14 H 0.2127 0.6701 0.0896
C11 C 0.3550(6) 0.5332(8) 0.2280(4)
H15 H 0.2695 0.5575 0.2333
H16 H 0.4113 0.6190 0.2516
C12 C 0.4036(6) 0.3892(8) 0.2795(4)
H17 H 0.4080 0.4073 0.3401
H18 H 0.3431 0.3058 0.2590
C13 C 0.6295(6) 0.4306(8) 0.3246(4)
H19 H 0.6468 0.3978 0.3848
H20 H 0.6074 0.5394 0.3214
C14 C 0.7460(6) 0.4043(7) 0.2915(4)
H21 H 0.8225 0.4449 0.3323
H22 H 0.7583 0.2949 0.2838
N2 N 0.7083(4) 0.0166(6) 0.5069(3)
H2 H 0.7519 0.0117 0.4668
O5 O 0.9938(3) 0.1199(4) 0.3925(2)
O6 O 0.8056(3) -0.0162(4) 0.2862(2)
O7 O 0.6115(4) -0.1540(5) 0.3498(3)
O8 O 0.9812(4) 0.0834(5) 0.5652(3)
C15 C 1.0249(5) 0.0476(6) 0.3258(3)
C16 C 1.1469(6) 0.0433(9) 0.3128(5)
H23 H 1.2155 0.0918 0.3517
C17 C 1.1656(7) -0.0350(12) 0.2405(5)
H24 H 1.2469 -0.0365 0.2306
C18 C 1.0679(9) -0.1073(10) 0.1856(5)
H25 H 1.0827 -0.1593 0.1383
C19 C 0.9450(6) -0.1071(8) 0.1971(4)
H26 H 0.8787 -0.1600 0.1586
C20 C 0.9218(5) -0.0267(6) 0.2672(3)
C21 C 0.6986(6) -0.0989(7) 0.2322(4)
H27 H 0.7184 -0.2081 0.2316
H28 H 0.6784 -0.0604 0.1730
C22 C 0.5881(5) -0.0732(8) 0.2704(4)
H29 H 0.5787 0.0362 0.2803
H30 H 0.5090 -0.1099 0.2307
C23 C 0.5317(6) -0.1077(9) 0.4040(5)
H31 H 0.5265 -0.1918 0.4430
H32 H 0.4454 -0.0881 0.3677
C24 C 0.5793(5) 0.0330(9) 0.4564(4)
H33 H 0.5735 0.1207 0.4178
H34 H 0.5247 0.0537 0.4946
C25 C 0.7610(6) 0.1461(8) 0.5623(4)
H35 H 0.7063 0.1674 0.6004
H36 H 0.7604 0.2366 0.5265
C26 C 0.8935(6) 0.1184(9) 0.6157(4)
H37 H 0.9238 0.2094 0.6505
H38 H 0.8928 0.0333 0.6551
C27 C 1.0351(6) 0.2157(7) 0.5353(4)
H39 H 1.0986 0.2630 0.5831
H40 H 0.9681 0.2909 0.5120
C28 C 1.0969(5) 0.1666(8) 0.4664(4)
H41 H 1.1451 0.2515 0.4507
H42 H 1.1554 0.0812 0.4867
loop_
_geom_bond_atom_site_label_1
_geom_bond_atom_site_label_2
_geom_bond_site_symmetry_1
_geom_bond_site_symmetry_2
N1 H1 1_555 1_555
N2 H2 1_555 1_555
O1 C1 1_555 1_555
O2 C6 1_555 1_555
O3 C8 1_555 1_555
O4 C12 1_555 1_555
O5 C15 1_555 1_555
O6 C20 1_555 1_555
O7 C22 1_555 1_555
O8 C26 1_555 1_555
C1 C2 1_555 1_555
C2 H3 1_555 1_555
C3 C2 1_555 1_555
H4 C3 1_555 1_555
C4 C3 1_555 1_555
H5 C4 1_555 1_555
C5 C4 1_555 1_555
H6 C5 1_555 1_555
C6 C1 1_555 1_555
C7 O2 1_555 1_555
H7 C7 1_555 1_555
H8 C7 1_555 1_555
C8 C7 1_555 1_555
H9 C8 1_555 1_555
H10 C8 1_555 1_555
C9 O3 1_555 1_555
H11 C9 1_555 1_555
H12 C9 1_555 1_555
C10 N1 1_555 1_555
H13 C10 1_555 1_555
H14 C10 1_555 1_555
C11 N1 1_555 1_555
H15 C11 1_555 1_555
H16 C11 1_555 1_555
C12 C11 1_555 1_555
H17 C12 1_555 1_555
H18 C12 1_555 1_555
C13 O4 1_555 1_555
H19 C13 1_555 1_555
H20 C13 1_555 1_555
C14 O1 1_555 1_555
H21 C14 1_555 1_555
H22 C14 1_555 1_555
C15 C16 1_555 1_555
C16 H23 1_555 1_555
C17 C16 1_555 1_555
H24 C17 1_555 1_555
C18 C17 1_555 1_555
H25 C18 1_555 1_555
C19 C18 1_555 1_555
H26 C19 1_555 1_555
C20 C15 1_555 1_555
C21 O6 1_555 1_555
H27 C21 1_555 1_555
H28 C21 1_555 1_555
C22 C21 1_555 1_555
H29 C22 1_555 1_555
H30 C22 1_555 1_555
C23 O7 1_555 1_555
H31 C23 1_555 1_555
H32 C23 1_555 1_555
C24 N2 1_555 1_555
H33 C24 1_555 1_555
H34 C24 1_555 1_555
C25 N2 1_555 1_555
H35 C25 1_555 1_555
H36 C25 1_555 1_555
C26 C25 1_555 1_555
H37 C26 1_555 1_555
H38 C26 1_555 1_555
C27 O8 1_555 1_555
H39 C27 1_555 1_555
H40 C27 1_555 1_555
C28 O5 1_555 1_555
H41 C28 1_555 1_555
H42 C28 1_555 1_555
C5 C6 1_555 1_555
C9 C10 1_555 1_555
C13 C14 1_555 1_555
C19 C20 1_555 1_555
C23 C24 1_555 1_555
C27 C28 1_555 1_555

#END
