
#######################################################################
#
#                 Cambridge Crystallographic Data Centre
#                                CCDC 
#
#######################################################################
#
# If this CIF has been generated from an entry in the Cambridge 
# Structural Database, then it will include bibliographic, chemical, 
# crystal, experimental, refinement or atomic coordinate data resulting 
# from the CCDC's data processing and validation procedures.
#
#######################################################################

data_NUQHAJ
_chemical_formula_moiety         'C20 H19 N3 O1'
_chemical_name_systematic        
(4Z)-4-((Cyclopropylamino)(phenyl)methylene)-3-methyl-1-phenyl-1H-pyrazol-5(4H)-one
_symmetry_cell_setting           orthorhombic
_symmetry_space_group_name_H-M   'P b c a'
_symmetry_Int_Tables_number      61
_space_group_name_Hall           '-P 2ac 2ab'
loop_
_symmetry_equiv_pos_site_id
_symmetry_equiv_pos_as_xyz
1 x,y,z
2 1/2-x,-y,1/2+z
3 1/2+x,1/2-y,-z
4 -x,1/2+y,1/2-z
5 -x,-y,-z
6 1/2+x,y,1/2-z
7 1/2-x,1/2+y,z
8 x,1/2-y,1/2+z
_cell_length_a                   8.9790(18)
_cell_length_b                   18.500(4)
_cell_length_c                   20.050(4)
_cell_angle_alpha                90
_cell_angle_beta                 90
_cell_angle_gamma                90
_cell_volume                     3330.54
_exptl_crystal_colour            colorless
_exptl_crystal_description       prism
_cell_formula_units_Z            8
_exptl_crystal_recrystallization_method ethanol
loop_
_atom_site_label
_atom_site_type_symbol
_atom_site_fract_x
_atom_site_fract_y
_atom_site_fract_z
O1 O 0.67690(13) 0.11712(5) 0.26555(4)
N1 N 0.73850(11) 0.08273(5) 0.15606(5)
N2 N 0.82349(11) 0.02871(5) 0.12501(5)
N3 N 0.79592(14) 0.02403(5) 0.35244(5)
C1 C 0.73711(15) 0.07497(6) 0.22477(6)
C2 C 0.82015(14) 0.00961(6) 0.23704(5)
C3 C 0.87030(13) -0.01421(6) 0.17276(5)
C4 C 0.96427(14) -0.07788(7) 0.15470(6)
H1 H 0.9070 -0.1224 0.1613
H2 H 1.0531 -0.0789 0.1831
H3 H 0.9944 -0.0742 0.1079
C5 C 0.84118(13) -0.01694(6) 0.30210(5)
C6 C 0.90512(12) -0.08952(6) 0.31601(5)
C7 C 1.03261(14) -0.09759(8) 0.35553(6)
H4 H 1.0806 -0.0562 0.3736
C8 C 1.08875(16) -0.16611(9) 0.36826(7)
H5 H 1.1754 -0.1715 0.3950
C9 C 1.01929(17) -0.22661(8) 0.34232(7)
H6 H 1.0586 -0.2733 0.3512
C10 C 0.89239(16) -0.21934(7) 0.30344(6)
H7 H 0.8443 -0.2610 0.2860
C11 C 0.83581(13) -0.15080(6) 0.29005(6)
H8 H 0.7495 -0.1458 0.2631
C12 C 0.78672(15) 0.00510(6) 0.42190(6)
H9 H 0.7987 -0.0472 0.4331
C13 C 0.84272(17) 0.05784(9) 0.47193(6)
H10 H 0.8899 0.0384 0.5128
H11 H 0.8863 0.1035 0.4552
C14 C 0.68020(16) 0.04703(8) 0.46359(6)
H12 H 0.6226 0.0860 0.4417
H13 H 0.6263 0.0209 0.4993
C15 C 0.67274(13) 0.13754(6) 0.11655(6)
C16 C 0.72259(13) 0.14729(6) 0.05108(6)
H14 H 0.8004 0.1180 0.0338
C17 C 0.65736(14) 0.20020(7) 0.01143(6)
H15 H 0.6903 0.2064 -0.0332
C18 C 0.54501(15) 0.24393(7) 0.03623(7)
H16 H 0.5017 0.2803 0.0090
C19 C 0.49628(15) 0.23398(7) 0.10137(7)
H17 H 0.4194 0.2639 0.1185
C20 C 0.55835(14) 0.18084(6) 0.14184(6)
H18 H 0.5234 0.1741 0.1861
H19 H 0.7554(18) 0.0673(10) 0.3395(8)
loop_
_geom_bond_atom_site_label_1
_geom_bond_atom_site_label_2
_geom_bond_site_symmetry_1
_geom_bond_site_symmetry_2
O1 C1 1_555 1_555
N1 N2 1_555 1_555
N2 C3 1_555 1_555
N3 C5 1_555 1_555
C1 N1 1_555 1_555
C2 C1 1_555 1_555
C3 C2 1_555 1_555
C4 C3 1_555 1_555
H1 C4 1_555 1_555
H2 C4 1_555 1_555
H3 C4 1_555 1_555
C5 C2 1_555 1_555
C6 C5 1_555 1_555
C7 C6 1_555 1_555
H4 C7 1_555 1_555
C8 C7 1_555 1_555
H5 C8 1_555 1_555
C9 C8 1_555 1_555
H6 C9 1_555 1_555
C10 C9 1_555 1_555
H7 C10 1_555 1_555
C11 C6 1_555 1_555
H8 C11 1_555 1_555
C12 N3 1_555 1_555
H9 C12 1_555 1_555
C13 C12 1_555 1_555
H10 C13 1_555 1_555
H11 C13 1_555 1_555
C14 C12 1_555 1_555
H12 C14 1_555 1_555
H13 C14 1_555 1_555
C15 N1 1_555 1_555
C16 C15 1_555 1_555
H14 C16 1_555 1_555
C17 C16 1_555 1_555
H15 C17 1_555 1_555
C18 C17 1_555 1_555
H16 C18 1_555 1_555
C19 C18 1_555 1_555
H17 C19 1_555 1_555
C20 C15 1_555 1_555
H18 C20 1_555 1_555
H19 N3 1_555 1_555
C10 C11 1_555 1_555
C13 C14 1_555 1_555
C19 C20 1_555 1_555

#END
