
#######################################################################
#
#                 Cambridge Crystallographic Data Centre
#                                CCDC 
#
#######################################################################
#
# If this CIF has been generated from an entry in the Cambridge 
# Structural Database, then it will include bibliographic, chemical, 
# crystal, experimental, refinement or atomic coordinate data resulting 
# from the CCDC's data processing and validation procedures.
#
#######################################################################

data_NUQHUD01
_chemical_formula_moiety         'C14 H21 N1 O4'
_chemical_name_systematic        
2,3,5,6,7,8,9,11,12-Nonahydro-1,4,10,13,7-benzotetraoxaazacyclopentadecine
_symmetry_cell_setting           monoclinic
_symmetry_space_group_name_H-M   'P 21'
_symmetry_Int_Tables_number      4
_space_group_name_Hall           'P 2yb'
loop_
_symmetry_equiv_pos_site_id
_symmetry_equiv_pos_as_xyz
1 x,y,z
2 -x,1/2+y,-z
_cell_length_a                   10.6366(8)
_cell_length_b                   8.5150(5)
_cell_length_c                   15.8098(8)
_cell_angle_alpha                90
_cell_angle_beta                 105.328(2)
_cell_angle_gamma                90
_cell_volume                     1380.97
_exptl_crystal_colour            colorless
_exptl_crystal_description       block
_cell_formula_units_Z            4
_exptl_crystal_recrystallization_method dichloromethane/hexane
loop_
_atom_site_label
_atom_site_type_symbol
_atom_site_fract_x
_atom_site_fract_y
_atom_site_fract_z
O1 O 0.3314(3) 0.9803(4) 0.4397(2)
O2 O 0.5924(4) 0.9374(4) 0.5283(2)
O3 O 0.4784(3) 0.7041(4) 0.2243(2)
O4 O 0.2812(3) 0.8453(3) 0.28794(18)
N1 N 0.6525(4) 0.8750(5) 0.3626(3)
H1 H 0.567(4) 0.848(7) 0.366(4)
C1 C 0.1882(4) 0.8256(5) 0.3348(3)
C2 C 0.0742(5) 0.7415(6) 0.3060(4)
H3 H 0.0533 0.6942 0.2496
C3 C -0.0108(5) 0.7255(7) 0.3594(4)
H4 H -0.0885 0.6659 0.3395
C4 C 0.0168(5) 0.7940(8) 0.4385(4)
H5 H -0.0408 0.7795 0.4746
C5 C 0.1284(6) 0.8863(6) 0.4691(3)
H6 H 0.1437 0.9394 0.5238
C6 C 0.2178(4) 0.8994(5) 0.4179(3)
C7 C 0.3840(5) 1.0227(6) 0.5306(3)
H7 H 0.3809 0.9321 0.5692
H8 H 0.3337 1.1104 0.5467
C8 C 0.5255(4) 1.0726(5) 0.5393(3)
H9 H 0.5293 1.1512 0.4939
H10 H 0.5641 1.1192 0.5977
C9 C 0.7163(5) 0.9733(6) 0.5130(3)
H11 H 0.7759 0.8832 0.5319
H12 H 0.7545 1.0652 0.5490
C10 C 0.7065(5) 1.0085(6) 0.4179(3)
H13 H 0.6501 1.1015 0.3991
H14 H 0.7941 1.0333 0.4109
C11 C 0.6514(4) 0.8979(5) 0.2718(3)
H15 H 0.7404 0.9253 0.2683
H16 H 0.5930 0.9866 0.2473
C12 C 0.6063(5) 0.7538(6) 0.2185(3)
H17 H 0.6032 0.7751 0.1565
H18 H 0.6696 0.6678 0.2395
C13 C 0.3761(5) 0.7948(6) 0.1730(3)
H19 H 0.3588 0.7645 0.1105
H20 H 0.3996 0.9076 0.1785
C14 C 0.2563(5) 0.7658(6) 0.2054(3)
H21 H 0.1775 0.8088 0.1636
H22 H 0.2435 0.6519 0.2128
O5 O 0.2024(3) 0.3449(3) 0.21385(18)
O6 O 0.3977(3) 0.2060(4) 0.1506(2)
O7 O 0.0153(4) 0.4400(4) -0.0666(2)
O8 O 0.0069(3) 0.4810(4) 0.1075(2)
N2 N 0.2919(4) 0.3768(5) -0.0077(3)
H2 H 0.250(6) 0.376(9) 0.031(4)
C15 C -0.0226(4) 0.4060(5) 0.1757(3)
C16 C -0.1447(5) 0.3975(7) 0.1909(4)
H23 H -0.2171 0.4484 0.1524
C17 C -0.1610(6) 0.3127(8) 0.2640(4)
H24 H -0.2450 0.3057 0.2741
C18 C -0.0620(6) 0.2438(8) 0.3180(4)
H25 H -0.0754 0.1890 0.3672
C19 C 0.0633(6) 0.2486(6) 0.3052(3)
H26 H 0.1337 0.1954 0.3443
C20 C 0.0830(5) 0.3323(5) 0.2344(3)
C21 C 0.3078(5) 0.2635(5) 0.2700(3)
H27 H 0.2882 0.1500 0.2715
H28 H 0.3275 0.3058 0.3304
C22 C 0.4201(5) 0.2911(6) 0.2302(3)
H29 H 0.4278 0.4045 0.2188
H30 H 0.5025 0.2558 0.2713
C23 C 0.4754(5) 0.2542(6) 0.0940(4)
H31 H 0.4782 0.1683 0.0524
H32 H 0.5656 0.2738 0.1296
C24 C 0.4233(5) 0.4011(6) 0.0429(3)
H33 H 0.4264 0.4898 0.0839
H34 H 0.4784 0.4283 0.0035
C25 C 0.2386(5) 0.5114(6) -0.0633(3)
H35 H 0.2960 0.5367 -0.1015
H36 H 0.2358 0.6040 -0.0260
C26 C 0.1032(5) 0.4762(6) -0.1192(3)
H37 H 0.0698 0.5681 -0.1567
H38 H 0.1069 0.3860 -0.1580
C27 C -0.0380(4) 0.5761(5) -0.0374(3)
H39 H -0.1046 0.6237 -0.0866
H40 H 0.0314 0.6546 -0.0150
C28 C -0.0989(5) 0.5278(6) 0.0344(3)
H41 H -0.1474 0.6167 0.0511
H42 H -0.1601 0.4393 0.0148
loop_
_geom_bond_atom_site_label_1
_geom_bond_atom_site_label_2
_geom_bond_site_symmetry_1
_geom_bond_site_symmetry_2
O1 C6 1_555 1_555
O2 C8 1_555 1_555
O3 C12 1_555 1_555
O4 C1 1_555 1_555
O5 C20 1_555 1_555
O6 C22 1_555 1_555
O7 C26 1_555 1_555
O8 C15 1_555 1_555
N1 H1 1_555 1_555
N2 H2 1_555 1_555
C1 C2 1_555 1_555
C2 H3 1_555 1_555
C3 C2 1_555 1_555
H4 C3 1_555 1_555
C4 C3 1_555 1_555
H5 C4 1_555 1_555
C5 C4 1_555 1_555
H6 C5 1_555 1_555
C6 C1 1_555 1_555
C7 O1 1_555 1_555
H7 C7 1_555 1_555
H8 C7 1_555 1_555
C8 C7 1_555 1_555
H9 C8 1_555 1_555
H10 C8 1_555 1_555
C9 O2 1_555 1_555
H11 C9 1_555 1_555
H12 C9 1_555 1_555
C10 N1 1_555 1_555
H13 C10 1_555 1_555
H14 C10 1_555 1_555
C11 N1 1_555 1_555
H15 C11 1_555 1_555
H16 C11 1_555 1_555
C12 C11 1_555 1_555
H17 C12 1_555 1_555
H18 C12 1_555 1_555
C13 O3 1_555 1_555
H19 C13 1_555 1_555
H20 C13 1_555 1_555
C14 O4 1_555 1_555
H21 C14 1_555 1_555
H22 C14 1_555 1_555
C15 C16 1_555 1_555
C16 H23 1_555 1_555
C17 C16 1_555 1_555
H24 C17 1_555 1_555
C18 C17 1_555 1_555
H25 C18 1_555 1_555
C19 C18 1_555 1_555
H26 C19 1_555 1_555
C20 C15 1_555 1_555
C21 O5 1_555 1_555
H27 C21 1_555 1_555
H28 C21 1_555 1_555
C22 C21 1_555 1_555
H29 C22 1_555 1_555
H30 C22 1_555 1_555
C23 O6 1_555 1_555
H31 C23 1_555 1_555
H32 C23 1_555 1_555
C24 N2 1_555 1_555
H33 C24 1_555 1_555
H34 C24 1_555 1_555
C25 N2 1_555 1_555
H35 C25 1_555 1_555
H36 C25 1_555 1_555
C26 C25 1_555 1_555
H37 C26 1_555 1_555
H38 C26 1_555 1_555
C27 O7 1_555 1_555
H39 C27 1_555 1_555
H40 C27 1_555 1_555
C28 O8 1_555 1_555
H41 C28 1_555 1_555
H42 C28 1_555 1_555
C5 C6 1_555 1_555
C9 C10 1_555 1_555
C13 C14 1_555 1_555
C19 C20 1_555 1_555
C23 C24 1_555 1_555
C27 C28 1_555 1_555

#END
