
#######################################################################
#
#                 Cambridge Crystallographic Data Centre
#                                CCDC 
#
#######################################################################
#
# If this CIF has been generated from an entry in the Cambridge 
# Structural Database, then it will include bibliographic, chemical, 
# crystal, experimental, refinement or atomic coordinate data resulting 
# from the CCDC's data processing and validation procedures.
#
#######################################################################

data_NUQMAO
_chemical_formula_moiety         'C14 H13 N3 O3'
_chemical_name_systematic        
N'-(4-Methoxybenzoyl)pyridine-2-carbohydrazide
_symmetry_cell_setting           monoclinic
_symmetry_space_group_name_H-M   'P 21/c'
_symmetry_Int_Tables_number      14
_space_group_name_Hall           '-P 2ybc'
loop_
_symmetry_equiv_pos_site_id
_symmetry_equiv_pos_as_xyz
1 x,y,z
2 -x,1/2+y,1/2-z
3 -x,-y,-z
4 x,1/2-y,1/2+z
_cell_length_a                   14.836(3)
_cell_length_b                   11.6078(17)
_cell_length_c                   7.6499(12)
_cell_angle_alpha                90
_cell_angle_beta                 97.137(11)
_cell_angle_gamma                90
_cell_volume                     1307.21
_exptl_crystal_colour            colorless
_exptl_crystal_description       block
_cell_formula_units_Z            4
_exptl_crystal_recrystallization_method ethanol
loop_
_atom_site_label
_atom_site_type_symbol
_atom_site_fract_x
_atom_site_fract_y
_atom_site_fract_z
C1 C 0.91128(11) 0.22439(14) 0.9042(2)
C2 C 0.97228(12) 0.13505(15) 0.8969(2)
H1 H 0.9527 0.0595 0.9075
C3 C 1.06100(13) 0.15577(17) 0.8744(3)
H2 H 1.1007 0.0944 0.8668
C4 C 1.09167(12) 0.26761(16) 0.8629(3)
C5 C 1.03233(13) 0.35724(16) 0.8720(3)
H3 H 1.0525 0.4328 0.8656
C6 C 0.94239(12) 0.33527(15) 0.8909(2)
H4 H 0.9023 0.3965 0.8946
C7 C 0.81706(11) 0.19679(14) 0.9344(2)
C8 C 1.21797(14) 0.3917(2) 0.8418(4)
H5 H 1.1887 0.4334 0.7421
H6 H 1.2819 0.3868 0.8340
H7 H 1.2083 0.4311 0.9482
C9 C 0.52469(11) 0.13673(14) 0.8280(2)
C10 C 0.41189(12) 0.18980(18) 0.9872(3)
H8 H 0.3898 0.2394 1.0674
C11 C 0.35667(13) 0.10217(18) 0.9177(3)
H9 H 0.2992 0.0919 0.9517
C12 C 0.38794(14) 0.03054(18) 0.7977(3)
H10 H 0.3516 -0.0289 0.7473
C13 C 0.47394(13) 0.04696(16) 0.7517(3)
H11 H 0.4970 -0.0015 0.6712
C14 C 0.61801(12) 0.15765(15) 0.7797(2)
N1 N 0.75270(10) 0.26729(12) 0.8514(2)
H12 H 0.7632 0.3096 0.7655
N2 N 0.66187(9) 0.24618(13) 0.8666(2)
H13 H 0.6435 0.2881 0.9461
N3 N 0.49533(9) 0.20769(13) 0.9461(2)
O1 O 0.79830(8) 0.11775(10) 1.03016(15)
O2 O 0.65007(9) 0.10076(11) 0.66877(17)
O3 O 1.18109(9) 0.27954(12) 0.8433(2)
loop_
_geom_bond_atom_site_label_1
_geom_bond_atom_site_label_2
_geom_bond_site_symmetry_1
_geom_bond_site_symmetry_2
C1 C2 1_555 1_555
C2 H1 1_555 1_555
C3 C2 1_555 1_555
H2 C3 1_555 1_555
C4 C3 1_555 1_555
C5 C4 1_555 1_555
H3 C5 1_555 1_555
C6 C1 1_555 1_555
H4 C6 1_555 1_555
C7 C1 1_555 1_555
C8 H5 1_555 1_555
H6 C8 1_555 1_555
H7 C8 1_555 1_555
C9 C13 1_555 1_555
C10 H8 1_555 1_555
C11 C10 1_555 1_555
H9 C11 1_555 1_555
C12 C11 1_555 1_555
H10 C12 1_555 1_555
C13 C12 1_555 1_555
H11 C13 1_555 1_555
C14 C9 1_555 1_555
N1 C7 1_555 1_555
H12 N1 1_555 1_555
N2 C14 1_555 1_555
H13 N2 1_555 1_555
N3 C9 1_555 1_555
O1 C7 1_555 1_555
O2 C14 1_555 1_555
O3 C4 1_555 1_555
C5 C6 1_555 1_555
C8 O3 1_555 1_555
C10 N3 1_555 1_555
N1 N2 1_555 1_555

#END
