
#######################################################################
#
#                 Cambridge Crystallographic Data Centre
#                                CCDC 
#
#######################################################################
#
# If this CIF has been generated from an entry in the Cambridge 
# Structural Database, then it will include bibliographic, chemical, 
# crystal, experimental, refinement or atomic coordinate data resulting 
# from the CCDC's data processing and validation procedures.
#
#######################################################################

data_NUQNUJ
_chemical_formula_moiety         'C11 H12 N2 O4 S2'
_chemical_name_systematic        
4-Methyl-N-[(2-oxo-1,3-thiazolidin-3-yl)carbonyl]benzenesulfonamide
_symmetry_cell_setting           triclinic
_symmetry_space_group_name_H-M   'P -1'
_symmetry_Int_Tables_number      2
_space_group_name_Hall           '-P 1'
loop_
_symmetry_equiv_pos_site_id
_symmetry_equiv_pos_as_xyz
1 x,y,z
2 -x,-y,-z
_cell_length_a                   9.5560(4)
_cell_length_b                   9.6722(4)
_cell_length_c                   14.6352(6)
_cell_angle_alpha                88.7232(10)
_cell_angle_beta                 86.3267(11)
_cell_angle_gamma                76.5399(11)
_cell_volume                     1312.8
_exptl_crystal_colour            colorless
_exptl_crystal_description       platelet
_cell_formula_units_Z            4
_exptl_crystal_recrystallization_method 'acetone/petroleum ether'
loop_
_atom_site_label
_atom_site_type_symbol
_atom_site_fract_x
_atom_site_fract_y
_atom_site_fract_z
S1 S 0.70694(8) 0.42660(8) 0.60372(5)
S2 S 0.33746(6) 0.09549(6) 0.40275(4)
O1 O 0.6604(2) 0.3008(2) 0.45563(12)
O2 O 0.2711(2) 0.2641(2) 0.57769(12)
O3 O 0.2613(2) 0.0224(2) 0.46669(12)
O4 O 0.4392(2) 0.0178(2) 0.33572(12)
N1 N 0.4892(2) 0.3182(2) 0.57686(12)
N2 N 0.4356(2) 0.1810(2) 0.45973(13)
C1 C 0.6163(2) 0.3371(2) 0.53329(17)
C2 C 0.5766(3) 0.4345(4) 0.6988(2)
C3 C 0.4517(3) 0.3829(3) 0.66798(18)
C4 C 0.3885(2) 0.2544(2) 0.54018(17)
C5 C 0.2141(2) 0.2307(2) 0.34841(16)
C6 C 0.0829(2) 0.2946(3) 0.39243(18)
C7 C -0.0075(2) 0.4065(3) 0.3507(2)
C8 C 0.0293(2) 0.4558(2) 0.26469(18)
C9 C 0.1602(2) 0.3878(2) 0.22135(18)
C10 C 0.2527(2) 0.2758(2) 0.26209(17)
C11 C -0.0668(3) 0.5805(3) 0.2195(2)
H1 H 0.0562 0.2622 0.4497
H2 H -0.0950 0.4499 0.3806
H3 H 0.1861 0.4187 0.1634
H4 H 0.3397 0.2313 0.2320
H5 H 0.5215 0.1796 0.4378
H11 H -0.0947 0.6578 0.2619
H12 H -0.1513 0.5536 0.2011
H13 H -0.0158 0.6098 0.1667
H14 H 0.6199 0.3745 0.7483
H15 H 0.5440 0.5317 0.7198
H16 H 0.4291 0.3126 0.7112
H17 H 0.3687 0.4622 0.6647
S3 S 1.11065(8) -0.10590(9) 0.27249(5)
S4 S 0.72340(8) 0.38204(6) 0.06460(5)
O5 O 1.0687(2) 0.0667(2) 0.13083(14)
O6 O 0.6590(2) 0.2350(2) 0.24079(13)
O7 O 0.6406(2) 0.4885(2) 0.12455(14)
O8 O 0.8234(2) 0.4156(2) -0.00386(16)
N3 N 0.8833(2) 0.0924(2) 0.24434(13)
N4 N 0.8270(2) 0.2587(2) 0.12745(16)
C12 C 1.0186(2) 0.0317(2) 0.20360(18)
C13 C 0.9758(3) -0.0719(3) 0.36468(19)
C14 C 0.8416(3) 0.0248(3) 0.32863(18)
C15 C 0.7786(2) 0.2013(2) 0.20679(17)
C16 C 0.6085(2) 0.2939(2) 0.01393(17)
C17 C 0.4716(3) 0.3001(3) 0.05305(19)
C18 C 0.3815(3) 0.2319(3) 0.0121(2)
C19 C 0.4260(3) 0.1557(2) -0.0680(2)
C20 C 0.5622(4) 0.1492(3) -0.1052(2)
C21 C 0.6540(3) 0.2172(3) -0.0651(2)
C22 C 0.3275(4) 0.0852(3) -0.1184(3)
H6 H 0.9161 0.2290 0.1092
H7 H 0.4407 0.3504 0.1069
H8 H 0.2893 0.2368 0.0385
H9 H 0.5935 0.0978 -0.1586
H10 H 0.7464 0.2113 -0.0913
H18 H 0.9545 -0.1605 0.3867
H19 H 1.0094 -0.0257 0.4143
H20 H 0.7725 -0.0307 0.3161
H21 H 0.7986 0.0968 0.3737
H22 H 0.3605 -0.0162 -0.1140
H23 H 0.3288 0.1137 -0.1816
H24 H 0.2310 0.1135 -0.0915
loop_
_geom_bond_atom_site_label_1
_geom_bond_atom_site_label_2
_geom_bond_site_symmetry_1
_geom_bond_site_symmetry_2
S1 C1 1_555 1_555
S2 O3 1_555 1_555
S3 C12 1_555 1_555
S4 O7 1_555 1_555
O1 C1 1_555 1_555
O2 C4 1_555 1_555
O4 S2 1_555 1_555
O5 C12 1_555 1_555
O6 C15 1_555 1_555
O8 S4 1_555 1_555
N1 C1 1_555 1_555
N2 S2 1_555 1_555
N3 C12 1_555 1_555
N4 S4 1_555 1_555
C2 S1 1_555 1_555
C3 N1 1_555 1_555
C4 N1 1_555 1_555
C5 S2 1_555 1_555
C6 C5 1_555 1_555
C7 C6 1_555 1_555
C8 C7 1_555 1_555
C9 C8 1_555 1_555
C10 C5 1_555 1_555
C11 C8 1_555 1_555
C13 S3 1_555 1_555
C14 N3 1_555 1_555
C15 N3 1_555 1_555
C16 S4 1_555 1_555
C17 C16 1_555 1_555
C18 C17 1_555 1_555
C19 C18 1_555 1_555
C20 C19 1_555 1_555
C21 C16 1_555 1_555
C22 C19 1_555 1_555
H1 C6 1_555 1_555
H2 C7 1_555 1_555
H3 C9 1_555 1_555
H4 C10 1_555 1_555
H5 N2 1_555 1_555
H6 N4 1_555 1_555
H7 C17 1_555 1_555
H8 C18 1_555 1_555
H9 C20 1_555 1_555
H10 C21 1_555 1_555
H11 C11 1_555 1_555
H12 C11 1_555 1_555
H13 C11 1_555 1_555
H14 C2 1_555 1_555
H15 C2 1_555 1_555
H16 C3 1_555 1_555
H17 C3 1_555 1_555
H18 C13 1_555 1_555
H19 C13 1_555 1_555
H20 C14 1_555 1_555
H21 C14 1_555 1_555
H22 C22 1_555 1_555
H23 C22 1_555 1_555
H24 C22 1_555 1_555
N2 C4 1_555 1_555
N4 C15 1_555 1_555
C2 C3 1_555 1_555
C9 C10 1_555 1_555
C13 C14 1_555 1_555
C20 C21 1_555 1_555

#END
