
#######################################################################
#
#                 Cambridge Crystallographic Data Centre
#                                CCDC 
#
#######################################################################
#
# If this CIF has been generated from an entry in the Cambridge 
# Structural Database, then it will include bibliographic, chemical, 
# crystal, experimental, refinement or atomic coordinate data resulting 
# from the CCDC's data processing and validation procedures.
#
#######################################################################

data_NUQNIY
_chemical_formula_moiety         'C17 H21 N1 O4'
_chemical_name_systematic        
5-(4-(diethylamino)benzylidene)-2,2-dimethyl-1,3-dioxane-4,6-dione
_symmetry_cell_setting           monoclinic
_symmetry_space_group_name_H-M   'P 21/c'
_symmetry_Int_Tables_number      14
_space_group_name_Hall           '-P 2ybc'
loop_
_symmetry_equiv_pos_site_id
_symmetry_equiv_pos_as_xyz
1 x,y,z
2 -x,1/2+y,1/2-z
3 -x,-y,-z
4 x,1/2-y,1/2+z
_cell_length_a                   7.8662(2)
_cell_length_b                   11.4601(3)
_cell_length_c                   18.1517(6)
_cell_angle_alpha                90
_cell_angle_beta                 96.8580(10)
_cell_angle_gamma                90
_cell_volume                     1624.62
_exptl_crystal_colour            red
_exptl_crystal_description       plate
_cell_formula_units_Z            4
loop_
_atom_site_label
_atom_site_type_symbol
_atom_site_fract_x
_atom_site_fract_y
_atom_site_fract_z
O1 O 0.57779(16) 0.16291(12) 0.51388(7)
O2 O 0.65514(15) 0.45154(13) 0.40080(8)
O3 O 0.73309(14) 0.27588(11) 0.43789(8)
C1 C 0.2432(2) 0.50423(15) 0.40398(10)
C2 C -0.0015(2) 0.63516(16) 0.37433(10)
H1 H -0.1138 0.6545 0.3804
O4 O 0.33160(19) 0.21986(13) 0.54631(9)
N1 N 0.02179(17) 0.80169(13) 0.29384(9)
C3 C 0.2607(2) 0.66959(17) 0.32158(11)
H2 H 0.3242 0.7124 0.2910
C4 C 0.0729(2) 0.53919(16) 0.40930(10)
H3 H 0.0078 0.4944 0.4382
C5 C 0.0910(2) 0.70529(16) 0.32900(10)
C6 C 0.6131(2) 0.36263(18) 0.42864(11)
C7 C 0.3340(2) 0.57427(17) 0.35789(11)
H4 H 0.4465 0.5550 0.3521
C8 C 0.3028(2) 0.40397(16) 0.44569(10)
H5 H 0.2188 0.3745 0.4725
C9 C 0.1135(2) 0.86883(18) 0.24297(11)
H6 H 0.0311 0.9075 0.2070
H7 H 0.1801 0.8159 0.2161
C10 C 0.4505(2) 0.33863(16) 0.45730(10)
C11 C 0.4436(3) 0.23885(18) 0.50801(11)
C12 C 0.6814(2) 0.16029(17) 0.45458(12)
C13 C -0.2946(2) 0.7988(2) 0.25955(13)
H8 H -0.2752 0.8057 0.2085
H9 H -0.3967 0.8406 0.2673
H10 H -0.3077 0.7180 0.2716
C14 C -0.1429(2) 0.84969(17) 0.30887(12)
H11 H -0.1415 0.9336 0.3019
H12 H -0.1577 0.8348 0.3603
C15 C 0.8427(3) 0.0962(2) 0.48418(14)
H13 H 0.8967 0.1357 0.5274
H14 H 0.9195 0.0943 0.4469
H15 H 0.8146 0.0179 0.4971
C16 C 0.5872(3) 0.1025(2) 0.38720(12)
H16 H 0.5555 0.0247 0.3997
H17 H 0.6600 0.0994 0.3484
H18 H 0.4860 0.1465 0.3706
C17 C 0.2319(3) 0.9596(2) 0.28194(14)
H19 H 0.1656 1.0166 0.3047
H20 H 0.2950 0.9971 0.2465
H21 H 0.3102 0.9224 0.3194
loop_
_geom_bond_atom_site_label_1
_geom_bond_atom_site_label_2
_geom_bond_site_symmetry_1
_geom_bond_site_symmetry_2
O1 C11 1_555 1_555
O2 C6 1_555 1_555
O3 C6 1_555 1_555
C1 C4 1_555 1_555
C2 H1 1_555 1_555
O4 C11 1_555 1_555
N1 C5 1_555 1_555
C3 H2 1_555 1_555
C4 C2 1_555 1_555
H3 C4 1_555 1_555
C5 C2 1_555 1_555
C6 C10 1_555 1_555
C7 C1 1_555 1_555
H4 C7 1_555 1_555
C8 C1 1_555 1_555
H5 C8 1_555 1_555
C9 N1 1_555 1_555
H6 C9 1_555 1_555
H7 C9 1_555 1_555
C10 C8 1_555 1_555
C11 C10 1_555 1_555
C12 O1 1_555 1_555
C13 H8 1_555 1_555
H9 C13 1_555 1_555
H10 C13 1_555 1_555
C14 N1 1_555 1_555
H11 C14 1_555 1_555
H12 C14 1_555 1_555
C15 C12 1_555 1_555
H13 C15 1_555 1_555
H14 C15 1_555 1_555
H15 C15 1_555 1_555
C16 C12 1_555 1_555
H16 C16 1_555 1_555
H17 C16 1_555 1_555
H18 C16 1_555 1_555
C17 C9 1_555 1_555
H19 C17 1_555 1_555
H20 C17 1_555 1_555
H21 C17 1_555 1_555
O3 C12 1_555 1_555
C3 C5 1_555 1_555
C3 C7 1_555 1_555
C13 C14 1_555 1_555

#END
