
#######################################################################
#
#                 Cambridge Crystallographic Data Centre
#                                CCDC 
#
#######################################################################
#
# If this CIF has been generated from an entry in the Cambridge 
# Structural Database, then it will include bibliographic, chemical, 
# crystal, experimental, refinement or atomic coordinate data resulting 
# from the CCDC's data processing and validation procedures.
#
#######################################################################

data_NUQREX
_chemical_formula_moiety         'C18 H16 Br2 N4'
_chemical_name_systematic        
'Butane-2,3-dione bis[(4-bromobenzylidene)hydrazone]'
_symmetry_cell_setting           monoclinic
_symmetry_space_group_name_H-M   'P 21/n'
_symmetry_Int_Tables_number      14
_space_group_name_Hall           '-P 2yn'
loop_
_symmetry_equiv_pos_site_id
_symmetry_equiv_pos_as_xyz
1 x,y,z
2 1/2-x,1/2+y,1/2-z
3 -x,-y,-z
4 1/2+x,1/2-y,1/2+z
_cell_length_a                   6.9139(16)
_cell_length_b                   4.0931(10)
_cell_length_c                   31.480(7)
_cell_angle_alpha                90
_cell_angle_beta                 95.186(3)
_cell_angle_gamma                90
_cell_volume                     887.215
_exptl_crystal_colour            yellow
_exptl_crystal_description       block
_cell_formula_units_Z            2
_exptl_crystal_recrystallization_method dichloromethane
loop_
_atom_site_label
_atom_site_type_symbol
_atom_site_fract_x
_atom_site_fract_y
_atom_site_fract_z
Br1 Br 1.09932(5) 0.94173(10) 0.208298(11)
C1 C 0.2315(5) 0.7300(10) -0.01605(10)
H1 H 0.2938 0.9047 0.0003
H2 H 0.1611 0.8175 -0.0412
H3 H 0.3279 0.5791 -0.0242
C2 C 0.0949(4) 0.5575(8) 0.01014(10)
C3 C 0.3412(5) 0.5400(8) 0.10658(10)
H4 H 0.2486 0.4244 0.1201
C4 C 0.5231(4) 0.6363(8) 0.13083(9)
C5 C 0.5589(5) 0.5517(8) 0.17327(10)
H5 H 0.4663 0.4334 0.1865
C6 C 0.7302(4) 0.6397(8) 0.19646(10)
H6 H 0.7533 0.5825 0.2251
C7 C 0.8655(4) 0.8131(8) 0.17650(10)
C8 C 0.8342(5) 0.9003(8) 0.13405(10)
H7 H 0.9278 1.0161 0.1208
C9 C 0.6625(4) 0.8128(9) 0.11179(10)
H8 H 0.6392 0.8733 0.0833
N1 N 0.1261(4) 0.4971(7) 0.05018(9)
N2 N 0.3081(4) 0.6106(8) 0.06790(8)
Br1B Br -1.09932(5) 0.05827(10) -0.208298(11)
C1B C -0.2315(5) 0.2700(10) 0.01605(10)
H1B H -0.2938 0.0953 -0.0003
H2B H -0.1611 0.1825 0.0412
H3B H -0.3279 0.4209 0.0242
C2B C -0.0949(4) 0.4425(8) -0.01014(10)
C3B C -0.3412(5) 0.4600(8) -0.10658(10)
H4B H -0.2486 0.5756 -0.1201
C4B C -0.5231(4) 0.3637(8) -0.13083(9)
C5B C -0.5589(5) 0.4483(8) -0.17327(10)
H5B H -0.4663 0.5666 -0.1865
C6B C -0.7302(4) 0.3603(8) -0.19646(10)
H6B H -0.7533 0.4175 -0.2251
C7B C -0.8655(4) 0.1869(8) -0.17650(10)
C8B C -0.8342(5) 0.0997(8) -0.13405(10)
H7B H -0.9278 -0.0161 -0.1208
C9B C -0.6625(4) 0.1872(9) -0.11179(10)
H8B H -0.6392 0.1267 -0.0833
N1B N -0.1261(4) 0.5029(7) -0.05018(9)
N2B N -0.3081(4) 0.3894(8) -0.06790(8)
loop_
_geom_bond_atom_site_label_1
_geom_bond_atom_site_label_2
_geom_bond_site_symmetry_1
_geom_bond_site_symmetry_2
Br1 C7 1_555 1_555
C1 H1 1_555 1_555
H2 C1 1_555 1_555
H3 C1 1_555 1_555
C2 C1 1_555 1_555
C3 H4 1_555 1_555
C4 C3 1_555 1_555
C5 C4 1_555 1_555
H5 C5 1_555 1_555
C6 C5 1_555 1_555
H6 C6 1_555 1_555
C7 C6 1_555 1_555
C8 C7 1_555 1_555
H7 C8 1_555 1_555
C9 C4 1_555 1_555
H8 C9 1_555 1_555
N1 C2 1_555 1_555
N2 C3 1_555 1_555
Br1B C7B 1_555 1_555
C1B H1B 1_555 1_555
H2B C1B 1_555 1_555
H3B C1B 1_555 1_555
C2B C2 1_555 1_555
C3B H4B 1_555 1_555
C4B C3B 1_555 1_555
C5B C4B 1_555 1_555
H5B C5B 1_555 1_555
C6B C5B 1_555 1_555
H6B C6B 1_555 1_555
C7B C6B 1_555 1_555
C8B C7B 1_555 1_555
H7B C8B 1_555 1_555
C9B C4B 1_555 1_555
H8B C9B 1_555 1_555
N1B C2B 1_555 1_555
N2B C3B 1_555 1_555
C8 C9 1_555 1_555
N1 N2 1_555 1_555
C1B C2B 1_555 1_555
C8B C9B 1_555 1_555
N1B N2B 1_555 1_555

#END
