
#######################################################################
#
#                 Cambridge Crystallographic Data Centre
#                                CCDC 
#
#######################################################################
#
# If this CIF has been generated from an entry in the Cambridge 
# Structural Database, then it will include bibliographic, chemical, 
# crystal, experimental, refinement or atomic coordinate data resulting 
# from the CCDC's data processing and validation procedures.
#
#######################################################################

data_NURBUY
_chemical_name_common            
't-Butyl (6-(dipropylcarbamoyl)-1,3-benzothiazol-2-yl)carbamate'
_chemical_formula_moiety         'C19 H27 N3 O3 S1'
_chemical_name_systematic        
't-Butyl N-[6-(N,N-dipropylcarbamoyl)-1,3-benzothiazol-2-yl]carbamate'
_symmetry_cell_setting           orthorhombic
_symmetry_space_group_name_H-M   'P b c a'
_symmetry_Int_Tables_number      61
_space_group_name_Hall           '-P 2ac 2ab'
loop_
_symmetry_equiv_pos_site_id
_symmetry_equiv_pos_as_xyz
1 x,y,z
2 1/2-x,-y,1/2+z
3 -x,1/2+y,1/2-z
4 1/2+x,1/2-y,-z
5 -x,-y,-z
6 1/2+x,y,1/2-z
7 x,1/2-y,1/2+z
8 1/2-x,1/2+y,z
_cell_length_a                   14.068(3)
_cell_length_b                   20.942(4)
_cell_length_c                   26.515(5)
_cell_angle_alpha                90
_cell_angle_beta                 90
_cell_angle_gamma                90
_cell_volume                     7811.64
_exptl_crystal_colour            colorless
_exptl_crystal_description       rhombic
_cell_formula_units_Z            16
loop_
_atom_site_label
_atom_site_type_symbol
_atom_site_fract_x
_atom_site_fract_y
_atom_site_fract_z
S1 S 0.96277(3) 0.24066(2) 0.608747(17)
O1 O 1.05224(10) 0.22536(6) 0.45079(5)
O2 O 1.03002(10) 0.17996(6) 0.52814(5)
O4 O 0.91447(10) 0.32656(7) 0.80962(5)
N1 N 0.92428(11) 0.35382(7) 0.57104(6)
N2 N 0.76025(11) 0.35404(8) 0.79978(6)
N4 N 0.98199(12) 0.28194(7) 0.51118(6)
H1 H 0.9729 0.3096 0.4877
C1 C 1.18925(15) 0.15247(12) 0.45972(8)
H3 H 1.2308 0.1888 0.4604
H4 H 1.2216 0.1169 0.4446
H5 H 1.1711 0.1416 0.4935
C2 C 1.12919(15) 0.19117(10) 0.37669(7)
H6 H 1.1734 0.2259 0.3796
H7 H 1.0735 0.2053 0.3590
H8 H 1.1583 0.1567 0.3585
C3 C 1.03136(16) 0.11326(10) 0.42613(8)
H9 H 0.9773 0.1259 0.4064
H10 H 1.0110 0.1019 0.4595
H11 H 1.0616 0.0772 0.4106
C4 C 1.10119(13) 0.16828(9) 0.42915(7)
C5 C 1.02273(13) 0.22401(9) 0.49879(7)
C6 C 0.95554(13) 0.29683(9) 0.55966(7)
C7 C 0.90343(13) 0.35638(9) 0.62241(7)
C8 C 0.86796(13) 0.40970(9) 0.64792(7)
H12 H 0.8580 0.4480 0.6310
C9 C 0.84795(14) 0.40442(9) 0.69893(7)
H13 H 0.8225 0.4393 0.7159
C10 C 0.86521(13) 0.34754(9) 0.72555(7)
C11 C 0.90282(13) 0.29492(9) 0.70073(7)
H14 H 0.9161 0.2574 0.7181
C12 C 0.92015(13) 0.29959(8) 0.64920(7)
C13 C 0.84813(13) 0.34180(9) 0.78161(7)
C14 C 0.67510(14) 0.35806(10) 0.76828(7)
H15 H 0.6296 0.3264 0.7796
H16 H 0.6922 0.3478 0.7338
C15 C 0.62774(16) 0.42374(10) 0.76926(8)
H17 H 0.5810 0.4249 0.7961
H18 H 0.6753 0.4560 0.7763
C16 C 0.57946(17) 0.43906(11) 0.71957(8)
H19 H 0.5506 0.4805 0.7216
H20 H 0.5315 0.4076 0.7127
H21 H 0.6257 0.4388 0.6930
C17 C 0.74676(15) 0.35034(10) 0.85472(7)
H22 H 0.6920 0.3759 0.8640
H23 H 0.8020 0.3684 0.8713
C18 C 0.73213(17) 0.28227(11) 0.87350(8)
H24 H 0.7827 0.2553 0.8607
H25 H 0.6723 0.2660 0.8607
C19 C 0.7314(2) 0.27955(14) 0.93096(9)
H26 H 0.7220 0.2362 0.9417
H27 H 0.6808 0.3057 0.9436
H28 H 0.7911 0.2950 0.9437
S2 S 0.93248(3) 0.50052(2) 0.403321(17)
O3 O 0.95635(10) 0.35162(7) 0.20407(5)
O5 O 0.84796(11) 0.56490(7) 0.47992(5)
O6 O 0.81103(10) 0.52117(6) 0.55639(5)
N3 N 0.92687(11) 0.38443(7) 0.43988(6)
N5 N 0.88637(11) 0.46199(7) 0.49931(6)
H2 H 0.8936 0.4352 0.5236
N6 N 1.08841(11) 0.41277(8) 0.21075(6)
C20 C 0.66237(15) 0.57762(11) 0.53708(8)
H29 H 0.6306 0.5371 0.5368
H30 H 0.6838 0.5877 0.5036
H31 H 0.6191 0.6100 0.5485
C21 C 0.71580(18) 0.55301(12) 0.62447(8)
H32 H 0.6820 0.5133 0.6218
H33 H 0.6751 0.5848 0.6391
H34 H 0.7708 0.5473 0.6454
C22 C 0.80034(16) 0.63702(11) 0.57473(10)
H35 H 0.8531 0.6329 0.5975
H36 H 0.7586 0.6701 0.5865
H37 H 0.8234 0.6478 0.5417
C23 C 0.74685(14) 0.57458(9) 0.57230(7)
C24 C 0.84771(13) 0.52107(9) 0.50973(7)
C25 C 0.91377(13) 0.44426(9) 0.45142(7)
C26 C 0.95101(13) 0.37896(9) 0.38902(7)
C27 C 0.96320(13) 0.32156(9) 0.36315(7)
H38 H 0.9565 0.2827 0.3798
C28 C 0.98538(13) 0.32322(9) 0.31227(7)
H39 H 0.9914 0.2851 0.2945
C29 C 0.99895(12) 0.38148(9) 0.28707(7)
C30 C 0.98720(13) 0.43903(9) 0.31258(7)
H40 H 0.9967 0.4778 0.2962
C31 C 0.96087(13) 0.43706(9) 0.36330(7)
C32 C 1.01427(13) 0.38019(8) 0.23074(7)
C33 C 1.09844(15) 0.41331(10) 0.15547(7)
H41 H 1.0363 0.4072 0.1404
H42 H 1.1382 0.3777 0.1454
C34 C 1.14122(19) 0.47439(11) 0.13533(9)
H43 H 1.2048 0.4798 0.1489
H44 H 1.1031 0.5105 0.1461
C35 C 1.1456(2) 0.47286(14) 0.07794(9)
H45 H 1.1730 0.5119 0.0658
H46 H 1.0826 0.4682 0.0646
H47 H 1.1841 0.4375 0.0673
C36 C 1.17332(14) 0.42832(10) 0.24024(8)
H48 H 1.1567 0.4292 0.2757
H49 H 1.1952 0.4706 0.2309
C37 C 1.25318(16) 0.38125(12) 0.23238(9)
H50 H 1.3078 0.3947 0.2521
H51 H 1.2715 0.3816 0.1971
C38 C 1.2265(2) 0.31399(13) 0.24729(12)
H52 H 1.2795 0.2861 0.2415
H53 H 1.1733 0.3001 0.2274
H54 H 1.2096 0.3131 0.2824
loop_
_geom_bond_atom_site_label_1
_geom_bond_atom_site_label_2
_geom_bond_site_symmetry_1
_geom_bond_site_symmetry_2
S1 C6 1_555 1_555
S2 C25 1_555 1_555
O1 C4 1_555 1_555
O2 C5 1_555 1_555
O3 C32 1_555 1_555
O4 C13 1_555 1_555
O5 C24 1_555 1_555
O6 C23 1_555 1_555
N1 C6 1_555 1_555
N2 C13 1_555 1_555
N3 C25 1_555 1_555
N4 H1 1_555 1_555
N5 H2 1_555 1_555
N6 C32 1_555 1_555
C1 H3 1_555 1_555
H4 C1 1_555 1_555
H5 C1 1_555 1_555
C2 H6 1_555 1_555
H7 C2 1_555 1_555
H8 C2 1_555 1_555
C3 H9 1_555 1_555
H10 C3 1_555 1_555
H11 C3 1_555 1_555
C4 C1 1_555 1_555
C5 O1 1_555 1_555
C6 N4 1_555 1_555
C7 N1 1_555 1_555
C8 C7 1_555 1_555
H12 C8 1_555 1_555
C9 C8 1_555 1_555
H13 C9 1_555 1_555
C10 C9 1_555 1_555
C11 C10 1_555 1_555
H14 C11 1_555 1_555
C12 S1 1_555 1_555
C13 C10 1_555 1_555
C14 N2 1_555 1_555
H15 C14 1_555 1_555
H16 C14 1_555 1_555
C15 C14 1_555 1_555
H17 C15 1_555 1_555
H18 C15 1_555 1_555
C16 C15 1_555 1_555
H19 C16 1_555 1_555
H20 C16 1_555 1_555
H21 C16 1_555 1_555
C17 N2 1_555 1_555
H22 C17 1_555 1_555
H23 C17 1_555 1_555
C18 C17 1_555 1_555
H24 C18 1_555 1_555
H25 C18 1_555 1_555
C19 C18 1_555 1_555
H26 C19 1_555 1_555
H27 C19 1_555 1_555
H28 C19 1_555 1_555
C20 H29 1_555 1_555
H30 C20 1_555 1_555
H31 C20 1_555 1_555
C21 H32 1_555 1_555
H33 C21 1_555 1_555
H34 C21 1_555 1_555
C22 H35 1_555 1_555
H36 C22 1_555 1_555
H37 C22 1_555 1_555
C23 C20 1_555 1_555
C24 O6 1_555 1_555
C25 N5 1_555 1_555
C26 N3 1_555 1_555
C27 C26 1_555 1_555
H38 C27 1_555 1_555
C28 C27 1_555 1_555
H39 C28 1_555 1_555
C29 C28 1_555 1_555
C30 C29 1_555 1_555
H40 C30 1_555 1_555
C31 S2 1_555 1_555
C32 C29 1_555 1_555
C33 N6 1_555 1_555
H41 C33 1_555 1_555
H42 C33 1_555 1_555
C34 C33 1_555 1_555
H43 C34 1_555 1_555
H44 C34 1_555 1_555
C35 C34 1_555 1_555
H45 C35 1_555 1_555
H46 C35 1_555 1_555
H47 C35 1_555 1_555
C36 N6 1_555 1_555
H48 C36 1_555 1_555
H49 C36 1_555 1_555
C37 C36 1_555 1_555
H50 C37 1_555 1_555
H51 C37 1_555 1_555
C38 C37 1_555 1_555
H52 C38 1_555 1_555
H53 C38 1_555 1_555
H54 C38 1_555 1_555
N4 C5 1_555 1_555
N5 C24 1_555 1_555
C2 C4 1_555 1_555
C3 C4 1_555 1_555
C7 C12 1_555 1_555
C11 C12 1_555 1_555
C21 C23 1_555 1_555
C22 C23 1_555 1_555
C26 C31 1_555 1_555
C30 C31 1_555 1_555

#END
