
#######################################################################
#
#                 Cambridge Crystallographic Data Centre
#                                CCDC 
#
#######################################################################
#
# If this CIF has been generated from an entry in the Cambridge 
# Structural Database, then it will include bibliographic, chemical, 
# crystal, experimental, refinement or atomic coordinate data resulting 
# from the CCDC's data processing and validation procedures.
#
#######################################################################

data_NURJUG
_chemical_formula_moiety         'C66 H52 N6,2(C1 H2 Cl2)'
_chemical_name_systematic        
"4',4''-(6,9-Di-t-butyl-5,10-dihydrodiindeno[2,1-b:1',2'-h]phenanthrene-15,16-diyl)bis(2,2':6',2''-terpyridine) dichloromethane solvate"
_symmetry_cell_setting           monoclinic
_symmetry_space_group_name_H-M   'C 2/c'
_symmetry_Int_Tables_number      15
_space_group_name_Hall           '-C 2yn'
loop_
_symmetry_equiv_pos_site_id
_symmetry_equiv_pos_as_xyz
1 x,y,z
2 -x,y,1/2-z
3 1/2+x,1/2+y,z
4 1/2-x,1/2+y,1/2-z
5 -x,-y,-z
6 x,-y,1/2+z
7 1/2-x,1/2-y,-z
8 1/2+x,1/2-y,1/2+z
_cell_length_a                   27.005(2)
_cell_length_b                   14.7364(12)
_cell_length_c                   17.7781(15)
_cell_angle_alpha                90
_cell_angle_beta                 128.084(2)
_cell_angle_gamma                90
_cell_volume                     5568.71
_exptl_crystal_colour            yellow
_exptl_crystal_description       irregular
_chemical_melting_point          'above 350 deg.C'
_cell_formula_units_Z            4
_exptl_crystal_recrystallization_method dichloromethane/methanol
loop_
_atom_site_label
_atom_site_type_symbol
_atom_site_fract_x
_atom_site_fract_y
_atom_site_fract_z
N1 N 1.01724(7) 0.70953(11) 0.93604(10)
N2 N 1.07154(8) 0.91571(14) 1.07469(13)
N3 N 0.93135(8) 0.55579(12) 0.73590(12)
C1 C 0.92915(7) 0.90611(12) 0.70898(11)
C2 C 0.86412(7) 0.91147(12) 0.63704(12)
C3 C 0.81229(7) 0.85825(13) 0.62194(12)
C4 C 0.80946(9) 0.79551(15) 0.67721(15)
H1 H 0.8459 0.7783 0.7366
C5 C 0.75142(10) 0.75838(18) 0.64292(18)
H2 H 0.7491 0.7170 0.6802
C6 C 0.69735(10) 0.7826(2) 0.55393(19)
H3 H 0.6594 0.7551 0.5307
C7 C 0.69887(9) 0.84697(18) 0.49923(17)
H4 H 0.6622 0.8642 0.4402
C8 C 0.75625(8) 0.88568(15) 0.53383(14)
C9 C 0.76868(8) 0.95834(16) 0.48926(14)
H5 H 0.7434 1.0117 0.4759
H6 H 0.7597 0.9373 0.4303
C10 C 0.83859(8) 0.97883(13) 0.56432(12)
C11 C 0.87357(8) 1.05362(14) 0.57307(14)
C12 C 0.93654(8) 1.05879(13) 0.66085(14)
C13 C 0.96549(7) 0.97890(12) 0.71543(12)
C14 C 0.97218(10) 1.14056(14) 0.70591(16)
H7 H 0.9562 1.1952 0.6730
C15 C 0.95893(7) 0.83638(12) 0.78645(11)
C16 C 0.99652(7) 0.86367(13) 0.88190(12)
H8 H 1.0025 0.9250 0.8974
C17 C 1.02504(7) 0.79852(13) 0.95380(12)
C18 C 0.98028(8) 0.68216(13) 0.84392(12)
C19 C 0.95079(7) 0.74371(12) 0.76782(12)
H9 H 0.9259 0.7228 0.7051
C20 C 0.84794(10) 1.12796(17) 0.49610(17)
C21 C 0.82090(17) 1.2065(2) 0.5183(3)
H10 H 0.7873 1.1841 0.5178
H11 H 0.8051 1.2530 0.4708
H12 H 0.8535 1.2311 0.5802
C22 C 0.79639(14) 1.0926(3) 0.3955(2)
H13 H 0.8102 1.0374 0.3850
H14 H 0.7877 1.1372 0.3494
H15 H 0.7589 1.0811 0.3890
C23 C 0.90008(13) 1.1623(2) 0.4906(2)
H16 H 0.9325 1.1920 0.5494
H17 H 0.8822 1.2045 0.4387
H18 H 0.9177 1.1118 0.4804
C24 C 1.06691(8) 0.82666(14) 1.05650(12)
C25 C 1.10080(10) 0.76301(18) 1.12878(14)
H19 H 1.0973 0.7014 1.1148
C26 C 1.14027(12) 0.7936(2) 1.22278(17)
H20 H 1.1641 0.7523 1.2726
C27 C 1.14393(11) 0.8829(2) 1.24156(16)
H21 H 1.1693 0.9042 1.3041
C28 C 1.10935(11) 0.9412(2) 1.16632(17)
H22 H 1.1123 1.0029 1.1797
C29 C 0.97233(9) 0.58293(13) 0.82724(13)
C30 C 1.00530(12) 0.52145(15) 0.90213(17)
H23 H 1.0335 0.5422 0.9647
C31 C 0.99634(14) 0.42973(16) 0.8839(2)
H24 H 1.0180 0.3878 0.9335
C32 C 0.95439(14) 0.40160(17) 0.7900(2)
H25 H 0.9471 0.3402 0.7748
C33 C 0.92383(13) 0.46641(17) 0.71994(18)
H26 H 0.8959 0.4468 0.6569
N1A N 0.98276(7) 0.70953(11) 0.56396(10)
N2A N 0.92846(8) 0.91571(14) 0.42531(13)
N3A N 1.06865(8) 0.55579(12) 0.76410(12)
C1A C 1.07085(7) 0.90611(12) 0.79102(11)
C2A C 1.13588(7) 0.91147(12) 0.86296(12)
C3A C 1.18771(7) 0.85825(13) 0.87806(12)
C4A C 1.19054(9) 0.79551(15) 0.82279(15)
H1A H 1.1541 0.7783 0.7634
C5A C 1.24858(10) 0.75838(18) 0.85708(18)
H2A H 1.2509 0.7170 0.8198
C6A C 1.30265(10) 0.7826(2) 0.94607(19)
H3A H 1.3406 0.7551 0.9693
C7A C 1.30113(9) 0.84697(18) 1.00077(17)
H4A H 1.3378 0.8642 1.0598
C8A C 1.24375(8) 0.88568(15) 0.96617(14)
C9A C 1.23132(8) 0.95834(16) 1.01074(14)
H5A H 1.2566 1.0117 1.0241
H6A H 1.2403 0.9373 1.0697
C10A C 1.16141(8) 0.97883(13) 0.93568(12)
C11A C 1.12643(8) 1.05362(14) 0.92693(14)
C12A C 1.06346(8) 1.05879(13) 0.83915(14)
C13A C 1.03451(7) 0.97890(12) 0.78457(12)
C14A C 1.02782(10) 1.14056(14) 0.79409(16)
H7A H 1.0438 1.1952 0.8270
C15A C 1.04107(7) 0.83638(12) 0.71355(11)
C16A C 1.00348(7) 0.86367(13) 0.61810(12)
H8A H 0.9975 0.9250 0.6026
C17A C 0.97496(7) 0.79852(13) 0.54620(12)
C18A C 1.01972(8) 0.68216(13) 0.65608(12)
C19A C 1.04921(7) 0.74371(12) 0.73218(12)
H9A H 1.0741 0.7228 0.7949
C20A C 1.15206(10) 1.12796(17) 1.00390(17)
C21A C 1.17910(17) 1.2065(2) 0.9817(3)
H10A H 1.2127 1.1841 0.9822
H11A H 1.1949 1.2530 1.0292
H12A H 1.1465 1.2311 0.9198
C22A C 1.20361(14) 1.0926(3) 1.1045(2)
H13A H 1.1898 1.0374 1.1150
H14A H 1.2123 1.1372 1.1506
H15A H 1.2411 1.0811 1.1110
C23A C 1.09992(13) 1.1623(2) 1.0094(2)
H16A H 1.0675 1.1920 0.9506
H17A H 1.1178 1.2045 1.0613
H18A H 1.0823 1.1118 1.0196
C24A C 0.93309(8) 0.82666(14) 0.44350(12)
C25A C 0.89920(10) 0.76301(18) 0.37122(14)
H19A H 0.9027 0.7014 0.3852
C26A C 0.85973(12) 0.7936(2) 0.27722(17)
H20A H 0.8359 0.7523 0.2274
C27A C 0.85607(11) 0.8829(2) 0.25844(16)
H21A H 0.8307 0.9042 0.1959
C28A C 0.89065(11) 0.9412(2) 0.33368(17)
H22A H 0.8877 1.0029 0.3203
C29A C 1.02767(9) 0.58293(13) 0.67276(13)
C30A C 0.99470(12) 0.52145(15) 0.59787(17)
H23A H 0.9665 0.5422 0.5353
C31A C 1.00366(14) 0.42973(16) 0.6161(2)
H24A H 0.9820 0.3878 0.5665
C32A C 1.04561(14) 0.40160(17) 0.7100(2)
H25A H 1.0529 0.3402 0.7252
C33A C 1.07617(13) 0.46641(17) 0.78006(18)
H26A H 1.1041 0.4468 0.8431
loop_
_geom_bond_atom_site_label_1
_geom_bond_atom_site_label_2
_geom_bond_site_symmetry_1
_geom_bond_site_symmetry_2
N1 C17 1_555 1_555
N2 C24 1_555 1_555
N3 C29 1_555 1_555
C1 C2 1_555 1_555
C2 C3 1_555 1_555
C3 C4 1_555 1_555
C4 H1 1_555 1_555
C5 C4 1_555 1_555
H2 C5 1_555 1_555
C6 C5 1_555 1_555
H3 C6 1_555 1_555
C7 C6 1_555 1_555
H4 C7 1_555 1_555
C8 C3 1_555 1_555
C9 C8 1_555 1_555
H5 C9 1_555 1_555
H6 C9 1_555 1_555
C10 C2 1_555 1_555
C11 C10 1_555 1_555
C12 C11 1_555 1_555
C13 C1 1_555 1_555
C14 C12 1_555 1_555
H7 C14 1_555 1_555
C15 C1 1_555 1_555
C16 C15 1_555 1_555
H8 C16 1_555 1_555
C17 C16 1_555 1_555
C18 N1 1_555 1_555
C19 C15 1_555 1_555
H9 C19 1_555 1_555
C20 C11 1_555 1_555
C21 C20 1_555 1_555
H10 C21 1_555 1_555
H11 C21 1_555 1_555
H12 C21 1_555 1_555
C22 C20 1_555 1_555
H13 C22 1_555 1_555
H14 C22 1_555 1_555
H15 C22 1_555 1_555
C23 C20 1_555 1_555
H16 C23 1_555 1_555
H17 C23 1_555 1_555
H18 C23 1_555 1_555
C24 C17 1_555 1_555
C25 C24 1_555 1_555
H19 C25 1_555 1_555
C26 C25 1_555 1_555
H20 C26 1_555 1_555
C27 C26 1_555 1_555
H21 C27 1_555 1_555
C28 N2 1_555 1_555
H22 C28 1_555 1_555
C29 C18 1_555 1_555
C30 C29 1_555 1_555
H23 C30 1_555 1_555
C31 C30 1_555 1_555
H24 C31 1_555 1_555
C32 C31 1_555 1_555
H25 C32 1_555 1_555
C33 N3 1_555 1_555
H26 C33 1_555 1_555
N1A C17A 1_555 1_555
N2A C24A 1_555 1_555
N3A C29A 1_555 1_555
C1A C2A 1_555 1_555
C2A C3A 1_555 1_555
C3A C4A 1_555 1_555
C4A H1A 1_555 1_555
C5A C4A 1_555 1_555
H2A C5A 1_555 1_555
C6A C5A 1_555 1_555
H3A C6A 1_555 1_555
C7A C6A 1_555 1_555
H4A C7A 1_555 1_555
C8A C3A 1_555 1_555
C9A C8A 1_555 1_555
H5A C9A 1_555 1_555
H6A C9A 1_555 1_555
C10A C2A 1_555 1_555
C11A C10A 1_555 1_555
C12A C11A 1_555 1_555
C13A C13 1_555 1_555
C14A C14 1_555 1_555
H7A C14A 1_555 1_555
C15A C1A 1_555 1_555
C16A C15A 1_555 1_555
H8A C16A 1_555 1_555
C17A C16A 1_555 1_555
C18A N1A 1_555 1_555
C19A C15A 1_555 1_555
H9A C19A 1_555 1_555
C20A C11A 1_555 1_555
C21A C20A 1_555 1_555
H10A C21A 1_555 1_555
H11A C21A 1_555 1_555
H12A C21A 1_555 1_555
C22A C20A 1_555 1_555
H13A C22A 1_555 1_555
H14A C22A 1_555 1_555
H15A C22A 1_555 1_555
C23A C20A 1_555 1_555
H16A C23A 1_555 1_555
H17A C23A 1_555 1_555
H18A C23A 1_555 1_555
C24A C17A 1_555 1_555
C25A C24A 1_555 1_555
H19A C25A 1_555 1_555
C26A C25A 1_555 1_555
H20A C26A 1_555 1_555
C27A C26A 1_555 1_555
H21A C27A 1_555 1_555
C28A N2A 1_555 1_555
H22A C28A 1_555 1_555
C29A C18A 1_555 1_555
C30A C29A 1_555 1_555
H23A C30A 1_555 1_555
C31A C30A 1_555 1_555
H24A C31A 1_555 1_555
C32A C31A 1_555 1_555
H25A C32A 1_555 1_555
C33A N3A 1_555 1_555
H26A C33A 1_555 1_555
C7 C8 1_555 1_555
C9 C10 1_555 1_555
C12 C13 1_555 1_555
C18 C19 1_555 1_555
C27 C28 1_555 1_555
C32 C33 1_555 1_555
C1A C13A 1_555 1_555
C7A C8A 1_555 1_555
C9A C10A 1_555 1_555
C12A C13A 1_555 1_555
C12A C14A 1_555 1_555
C18A C19A 1_555 1_555
C27A C28A 1_555 1_555
C32A C33A 1_555 1_555

#END
