
#######################################################################
#
#                 Cambridge Crystallographic Data Centre
#                                CCDC 
#
#######################################################################
#
# If this CIF has been generated from an entry in the Cambridge 
# Structural Database, then it will include bibliographic, chemical, 
# crystal, experimental, refinement or atomic coordinate data resulting 
# from the CCDC's data processing and validation procedures.
#
#######################################################################

data_NURKUG
_chemical_formula_moiety         'C21 H24 O3'
_chemical_name_systematic        
1,3,5-tris(3-Hydroxy-3-methylbut-1-ynyl)benzene
_symmetry_cell_setting           monoclinic
_symmetry_space_group_name_H-M   'P 21/c'
_symmetry_Int_Tables_number      14
_space_group_name_Hall           '-P 2ybc'
loop_
_symmetry_equiv_pos_site_id
_symmetry_equiv_pos_as_xyz
1 x,y,z
2 -x,1/2+y,1/2-z
3 -x,-y,-z
4 x,1/2-y,1/2+z
_cell_length_a                   9.8248(7)
_cell_length_b                   10.0180(7)
_cell_length_c                   20.210(2)
_cell_angle_alpha                90
_cell_angle_beta                 94.696(5)
_cell_angle_gamma                90
_cell_volume                     1982.49
_exptl_crystal_colour            yellow
_exptl_crystal_description       prism
_cell_formula_units_Z            4
loop_
_atom_site_label
_atom_site_type_symbol
_atom_site_fract_x
_atom_site_fract_y
_atom_site_fract_z
O1 O 0.48103(9) 0.69858(9) 0.16079(4)
O2 O -0.37163(10) 1.25961(9) 0.22361(4)
O3 O 0.31580(9) 1.48708(9) -0.18288(5)
C1 C 0.17209(12) 1.03274(12) 0.05581(6)
C2 C 0.05454(13) 1.05654(12) 0.08892(6)
C3 C -0.03199(12) 1.16360(12) 0.07044(6)
C4 C 0.00006(13) 1.24801(12) 0.01873(6)
C5 C 0.11563(12) 1.22308(12) -0.01593(6)
C6 C 0.20190(13) 1.11571(12) 0.00315(6)
C7 C 0.25401(13) 0.91713(13) 0.07429(6)
C8 C 0.31195(13) 0.81597(13) 0.09095(6)
C9 C 0.37488(13) 0.68440(13) 0.10765(6)
C10 C 0.2652(2) 0.5883(2) 0.12853(8)
C11 C 0.4454(2) 0.6315(2) 0.04839(7)
C12 C -0.15677(13) 1.17753(12) 0.10275(6)
C13 C -0.25964(13) 1.17851(12) 0.13096(6)
C14 C -0.38733(13) 1.17526(12) 0.16554(6)
C15 C -0.4110(2) 1.03377(14) 0.19054(7)
C16 C -0.5079(2) 1.2230(2) 0.11910(8)
C17 C 0.14065(13) 1.29998(13) -0.07417(6)
C18 C 0.16109(13) 1.35578(13) -0.12494(6)
C19 C 0.18674(12) 1.41808(12) -0.18960(6)
C20 C 0.1900(2) 1.30977(15) -0.24291(7)
C21 C 0.07808(14) 1.52318(14) -0.20941(7)
H1 H 0.4405(20) 0.7204(20) 0.1960(10)
H2 H -0.3556(18) 1.3379(20) 0.2120(9)
H3 H 0.3817(20) 1.4272(20) -0.1738(9)
H4 H 0.0305(15) 0.9955(16) 0.1241(8)
H5 H -0.0593(16) 1.3235(16) 0.0060(8)
H6 H 0.2815(16) 1.0975(15) -0.0221(7)
H7 H 0.3080(18) 0.5002(19) 0.1398(9)
H8 H 0.2206(19) 0.6254(19) 0.1679(9)
H9 H 0.1934(21) 0.5739(20) 0.0916(10)
H10 H 0.3762(20) 0.6215(20) 0.0108(10)
H11 H 0.5220(23) 0.6969(23) 0.0377(10)
H12 H 0.4823(20) 0.5426(21) 0.0597(10)
H13 H -0.4185(17) 0.9724(18) 0.1532(9)
H14 H -0.3320(18) 1.0081(18) 0.2216(9)
H15 H -0.4964(20) 1.0315(19) 0.2143(9)
H16 H -0.5927(20) 1.2188(18) 0.1441(9)
H17 H -0.4913(19) 1.3170(20) 0.1048(9)
H18 H -0.5204(19) 1.1649(19) 0.0784(9)
H19 H 0.1000(21) 1.2614(19) -0.2479(9)
H20 H 0.2608(19) 1.2443(18) -0.2309(9)
H21 H 0.2104(18) 1.3519(18) -0.2859(9)
H22 H 0.1024(16) 1.5675(16) -0.2516(8)
H23 H -0.0114(18) 1.4787(18) -0.2191(8)
H24 H 0.0763(18) 1.5898(18) -0.1734(9)
loop_
_geom_bond_atom_site_label_1
_geom_bond_atom_site_label_2
_geom_bond_site_symmetry_1
_geom_bond_site_symmetry_2
O1 C9 1_555 1_555
O2 C14 1_555 1_555
O3 C19 1_555 1_555
C1 C2 1_555 1_555
C2 C3 1_555 1_555
C3 C4 1_555 1_555
C4 C5 1_555 1_555
C5 C6 1_555 1_555
C6 C1 1_555 1_555
C7 C1 1_555 1_555
C8 C7 1_555 1_555
C9 C8 1_555 1_555
C10 C9 1_555 1_555
C11 C9 1_555 1_555
C12 C3 1_555 1_555
C13 C12 1_555 1_555
C14 C13 1_555 1_555
C15 C14 1_555 1_555
C16 C14 1_555 1_555
C17 C5 1_555 1_555
C18 C17 1_555 1_555
C19 C18 1_555 1_555
C20 C19 1_555 1_555
C21 C19 1_555 1_555
H1 O1 1_555 1_555
H2 O2 1_555 1_555
H3 O3 1_555 1_555
H4 C2 1_555 1_555
H5 C4 1_555 1_555
H6 C6 1_555 1_555
H7 C10 1_555 1_555
H8 C10 1_555 1_555
H9 C10 1_555 1_555
H10 C11 1_555 1_555
H11 C11 1_555 1_555
H12 C11 1_555 1_555
H13 C15 1_555 1_555
H14 C15 1_555 1_555
H15 C15 1_555 1_555
H16 C16 1_555 1_555
H17 C16 1_555 1_555
H18 C16 1_555 1_555
H19 C20 1_555 1_555
H20 C20 1_555 1_555
H21 C20 1_555 1_555
H22 C21 1_555 1_555
H23 C21 1_555 1_555
H24 C21 1_555 1_555

#END
