
#######################################################################
#
#                 Cambridge Crystallographic Data Centre
#                                CCDC 
#
#######################################################################
#
# If this CIF has been generated from an entry in the Cambridge 
# Structural Database, then it will include bibliographic, chemical, 
# crystal, experimental, refinement or atomic coordinate data resulting 
# from the CCDC's data processing and validation procedures.
#
#######################################################################

data_NURLAN
_chemical_name_common            
1-(4-Methoxyphenyl)-7-(4-nitrophenyl)-m-carborane(12)
_chemical_formula_moiety         'C15 H21 B10 N1 O3'
_chemical_name_systematic        
1-(4-Methoxyphenyl)-7-(4-nitrophenyl)-1,7-dicarba-closo-dodecaborane(12)
_symmetry_cell_setting           monoclinic
_symmetry_space_group_name_H-M   'P 21/c'
_symmetry_Int_Tables_number      14
_space_group_name_Hall           '-P 2ybc'
loop_
_symmetry_equiv_pos_site_id
_symmetry_equiv_pos_as_xyz
1 x,y,z
2 -x,1/2+y,1/2-z
3 -x,-y,-z
4 x,1/2-y,1/2+z
_cell_length_a                   6.9961(9)
_cell_length_b                   17.391(3)
_cell_length_c                   15.809(2)
_cell_angle_alpha                90
_cell_angle_beta                 93.934(6)
_cell_angle_gamma                90
_cell_volume                     1918.94
_exptl_crystal_colour            colorless
_exptl_crystal_description       prism
_cell_formula_units_Z            4
loop_
_atom_site_label
_atom_site_type_symbol
_atom_site_fract_x
_atom_site_fract_y
_atom_site_fract_z
C1 C 0.3062(6) 0.3003(2) 0.5594(2)
C2 C 0.2638(6) 0.1478(2) 0.5756(2)
C3 C 0.3109(6) 0.3775(2) 0.6042(3)
C4 C 0.3186(6) 0.3808(2) 0.6925(3)
H1 H 0.3299(6) 0.3345(2) 0.7242(3)
C5 C 0.3101(6) 0.4503(2) 0.7347(3)
H2 H 0.3185(6) 0.4515(2) 0.7949(3)
C6 C 0.2892(6) 0.5182(2) 0.6886(3)
C7 C 0.2817(6) 0.5162(2) 0.6011(3)
H3 H 0.2693(6) 0.5626(2) 0.5695(3)
C8 C 0.2923(6) 0.4459(2) 0.5594(3)
H4 H 0.2867(6) 0.4448(2) 0.4992(3)
C9 C 0.2354(7) 0.6536(2) 0.6936(3)
H5 H 0.2223(36) 0.6956(4) 0.7341(3)
H6 H 0.1155(19) 0.6479(5) 0.6583(12)
H7 H 0.3400(18) 0.6653(8) 0.6574(12)
C10 C 0.2358(5) 0.0824(2) 0.6366(2)
C11 C 0.2271(6) 0.0968(2) 0.7231(3)
H8 H 0.2360(6) 0.1483(2) 0.7432(3)
C12 C 0.2058(6) 0.0376(2) 0.7800(3)
H9 H 0.1976(6) 0.0479(2) 0.8387(3)
C13 C 0.1967(6) -0.0369(2) 0.7496(3)
C14 C 0.2021(6) -0.0533(2) 0.6649(3)
H10 H 0.1929(6) -0.1049(2) 0.6451(3)
C15 C 0.2212(6) 0.0069(2) 0.6087(3)
H11 H 0.2245(6) -0.0037(2) 0.5498(3)
B1 B 0.4072(7) 0.2225(2) 0.6123(3)
H12 H 0.4814(7) 0.2255(2) 0.6773(3)
B2 B 0.1524(7) 0.2325(3) 0.5948(3)
H13 H 0.0583(7) 0.2419(3) 0.6484(3)
B3 B 0.1037(7) 0.2771(3) 0.4953(3)
H14 H -0.0212(7) 0.3167(3) 0.4826(3)
B4 B 0.3270(7) 0.2938(3) 0.4514(3)
H15 H 0.3490(7) 0.3448(3) 0.4099(3)
B5 B 0.5149(7) 0.2599(3) 0.5233(3)
H16 H 0.6592(7) 0.2880(3) 0.5288(3)
B6 B 0.0760(7) 0.1764(3) 0.5063(3)
H17 H -0.0680(7) 0.1479(3) 0.5012(3)
B7 B 0.1826(8) 0.2140(3) 0.4160(3)
H18 H 0.1094(8) 0.2114(3) 0.3508(3)
B8 B 0.4353(7) 0.2032(3) 0.4343(3)
H19 H 0.5284(7) 0.1933(3) 0.3805(3)
B9 B 0.4861(7) 0.1594(3) 0.5345(3)
H20 H 0.6110(7) 0.1200(3) 0.5480(3)
B10 B 0.2811(7) 0.1307(3) 0.4681(3)
H21 H 0.2721(7) 0.0724(3) 0.4380(3)
O1 O 0.2765(4) 0.5840(2) 0.7383(2)
O2 O 0.1884(4) -0.1662(2) 0.7853(2)
O3 O 0.1694(5) -0.0835(2) 0.8866(2)
N1 N 0.1832(5) -0.0997(2) 0.8114(3)
loop_
_geom_bond_atom_site_label_1
_geom_bond_atom_site_label_2
_geom_bond_site_symmetry_1
_geom_bond_site_symmetry_2
C1 C3 1_555 1_555
C2 C10 1_555 1_555
C3 C4 1_555 1_555
C4 H1 1_555 1_555
C5 C4 1_555 1_555
H2 C5 1_555 1_555
C6 C5 1_555 1_555
C7 C6 1_555 1_555
H3 C7 1_555 1_555
C8 C3 1_555 1_555
H4 C8 1_555 1_555
C9 H5 1_555 1_555
H6 C9 1_555 1_555
H7 C9 1_555 1_555
C10 C11 1_555 1_555
C11 H8 1_555 1_555
C12 C11 1_555 1_555
H9 C12 1_555 1_555
C13 C12 1_555 1_555
C14 C13 1_555 1_555
H10 C14 1_555 1_555
C15 C10 1_555 1_555
H11 C15 1_555 1_555
B1 C1 1_555 1_555
H12 B1 1_555 1_555
B2 C1 1_555 1_555
H13 B2 1_555 1_555
B3 C1 1_555 1_555
H14 B3 1_555 1_555
B4 C1 1_555 1_555
H15 B4 1_555 1_555
B5 C1 1_555 1_555
H16 B5 1_555 1_555
B6 C2 1_555 1_555
H17 B6 1_555 1_555
B7 B3 1_555 1_555
H18 B7 1_555 1_555
B8 B4 1_555 1_555
H19 B8 1_555 1_555
B9 C2 1_555 1_555
H20 B9 1_555 1_555
B10 C2 1_555 1_555
H21 B10 1_555 1_555
O1 C6 1_555 1_555
O2 N1 1_555 1_555
O3 N1 1_555 1_555
N1 C13 1_555 1_555
C2 B1 1_555 1_555
C2 B2 1_555 1_555
C7 C8 1_555 1_555
C9 O1 1_555 1_555
C14 C15 1_555 1_555
B1 B2 1_555 1_555
B1 B5 1_555 1_555
B1 B9 1_555 1_555
B2 B3 1_555 1_555
B2 B6 1_555 1_555
B3 B4 1_555 1_555
B3 B6 1_555 1_555
B4 B5 1_555 1_555
B4 B7 1_555 1_555
B5 B8 1_555 1_555
B5 B9 1_555 1_555
B6 B7 1_555 1_555
B6 B10 1_555 1_555
B7 B8 1_555 1_555
B7 B10 1_555 1_555
B8 B9 1_555 1_555
B8 B10 1_555 1_555
B9 B10 1_555 1_555

#END
