
#######################################################################
#
#                 Cambridge Crystallographic Data Centre
#                                CCDC 
#
#######################################################################
#
# If this CIF has been generated from an entry in the Cambridge 
# Structural Database, then it will include bibliographic, chemical, 
# crystal, experimental, refinement or atomic coordinate data resulting 
# from the CCDC's data processing and validation procedures.
#
#######################################################################

data_NURSOJ
_chemical_formula_moiety         'C22 H24 N4 O2'
_chemical_name_systematic        
4-((2S,4S)-4-isopropyl-5-oxo-3-(3-oxobutyl)-1-(pyridin-2-yl)imidazolidin-2-yl)benzonitrile
_symmetry_cell_setting           orthorhombic
_symmetry_space_group_name_H-M   'P 21 21 21'
_symmetry_Int_Tables_number      19
_space_group_name_Hall           'P 2ac 2ab'
loop_
_symmetry_equiv_pos_site_id
_symmetry_equiv_pos_as_xyz
1 x,y,z
2 1/2-x,-y,1/2+z
3 1/2+x,1/2-y,-z
4 -x,1/2+y,1/2-z
_cell_length_a                   9.1761(1)
_cell_length_b                   9.9737(1)
_cell_length_c                   22.4616(3)
_cell_angle_alpha                90
_cell_angle_beta                 90
_cell_angle_gamma                90
_cell_volume                     2055.68
_exptl_crystal_colour            colorless
_exptl_crystal_description       rod
_cell_formula_units_Z            4
loop_
_atom_site_label
_atom_site_type_symbol
_atom_site_fract_x
_atom_site_fract_y
_atom_site_fract_z
O1 O 0.45360(16) 0.01993(13) 0.03102(6)
O2 O 0.56841(19) -0.32584(15) 0.32103(7)
N1 N 0.28582(17) -0.04081(14) 0.10303(6)
N2 N 0.42294(15) -0.19216(14) 0.15348(6)
N3 N -0.28008(19) -0.57326(18) 0.16284(8)
N4 N 0.08278(18) 0.07333(15) 0.13620(7)
C1 C 0.4219(2) -0.03686(17) 0.07724(8)
C2 C 0.5245(2) -0.11172(17) 0.11824(8)
H1 H 0.5722 -0.0452 0.1453
C3 C 0.28532(19) -0.11963(16) 0.15810(7)
H2 H 0.2846 -0.0599 0.1939
C4 C 0.15896(18) -0.21782(16) 0.15982(7)
C5 C 0.0696(2) -0.22974(19) 0.20939(8)
H3 H 0.0852 -0.1730 0.2428
C6 C -0.0418(2) -0.3229(2) 0.21092(8)
H4 H -0.1010 -0.3317 0.2454
C7 C -0.06627(19) -0.40369(17) 0.16151(8)
C8 C 0.0219(2) -0.39275(18) 0.11116(8)
H5 H 0.0045 -0.4476 0.0773
C9 C 0.1348(2) -0.30111(17) 0.11110(7)
H6 H 0.1969 -0.2949 0.0773
C10 C -0.1851(2) -0.49889(19) 0.16210(8)
C11 C 0.1719(2) 0.04972(17) 0.09081(8)
C12 C -0.0257(2) 0.1608(2) 0.12664(9)
H7 H -0.0914 0.1783 0.1584
C13 C -0.0475(3) 0.2268(2) 0.07360(10)
H8 H -0.1248 0.2894 0.0693
C14 C 0.0449(3) 0.2002(2) 0.02696(9)
H9 H 0.0319 0.2438 -0.0103
C15 C 0.1567(2) 0.10947(18) 0.03480(8)
H10 H 0.2213 0.0882 0.0032
C16 C 0.6432(2) -0.1957(2) 0.08884(9)
H11 H 0.6943 -0.2455 0.1214
C17 C 0.7573(3) -0.1066(3) 0.05853(12)
H12 H 0.8362 -0.1626 0.0429
H13 H 0.7969 -0.0429 0.0876
H14 H 0.7116 -0.0572 0.0257
C18 C 0.5818(3) -0.2995(2) 0.04682(10)
H15 H 0.5144 -0.3580 0.0685
H16 H 0.6615 -0.3532 0.0303
H17 H 0.5297 -0.2545 0.0144
C19 C 0.4776(2) -0.24734(16) 0.20943(7)
H18 H 0.5460 -0.3211 0.2000
H19 H 0.3945 -0.2869 0.2314
C20 C 0.5550(2) -0.14874(18) 0.25065(8)
H20 H 0.6460 -0.1179 0.2313
H21 H 0.4919 -0.0694 0.2567
C21 C 0.5917(2) -0.2087(2) 0.31025(8)
C22 C 0.6577(3) -0.1177(2) 0.35576(10)
H22 H 0.6690 -0.1662 0.3934
H23 H 0.5941 -0.0400 0.3618
H24 H 0.7534 -0.0872 0.3419
loop_
_geom_bond_atom_site_label_1
_geom_bond_atom_site_label_2
_geom_bond_site_symmetry_1
_geom_bond_site_symmetry_2
O1 C1 1_555 1_555
O2 C21 1_555 1_555
N1 C1 1_555 1_555
N2 C2 1_555 1_555
N3 C10 1_555 1_555
N4 C11 1_555 1_555
C1 C2 1_555 1_555
C2 H1 1_555 1_555
C3 N1 1_555 1_555
H2 C3 1_555 1_555
C4 C3 1_555 1_555
C5 C4 1_555 1_555
H3 C5 1_555 1_555
C6 C5 1_555 1_555
H4 C6 1_555 1_555
C7 C6 1_555 1_555
C8 C7 1_555 1_555
H5 C8 1_555 1_555
C9 C4 1_555 1_555
H6 C9 1_555 1_555
C10 C7 1_555 1_555
C11 N1 1_555 1_555
C12 N4 1_555 1_555
H7 C12 1_555 1_555
C13 C12 1_555 1_555
H8 C13 1_555 1_555
C14 C13 1_555 1_555
H9 C14 1_555 1_555
C15 C11 1_555 1_555
H10 C15 1_555 1_555
C16 C2 1_555 1_555
H11 C16 1_555 1_555
C17 C16 1_555 1_555
H12 C17 1_555 1_555
H13 C17 1_555 1_555
H14 C17 1_555 1_555
C18 C16 1_555 1_555
H15 C18 1_555 1_555
H16 C18 1_555 1_555
H17 C18 1_555 1_555
C19 N2 1_555 1_555
H18 C19 1_555 1_555
H19 C19 1_555 1_555
C20 C19 1_555 1_555
H20 C20 1_555 1_555
H21 C20 1_555 1_555
C21 C20 1_555 1_555
C22 C21 1_555 1_555
H22 C22 1_555 1_555
H23 C22 1_555 1_555
H24 C22 1_555 1_555
N2 C3 1_555 1_555
C8 C9 1_555 1_555
C14 C15 1_555 1_555

#END
