
#######################################################################
#
#                 Cambridge Crystallographic Data Centre
#                                CCDC 
#
#######################################################################
#
# If this CIF has been generated from an entry in the Cambridge 
# Structural Database, then it will include bibliographic, chemical, 
# crystal, experimental, refinement or atomic coordinate data resulting 
# from the CCDC's data processing and validation procedures.
#
#######################################################################

data_NURWON
_chemical_formula_moiety         'C16 H20 O3'
_chemical_name_systematic        
3-(2-Hydroperoxypropan-2-yl)-5-methyl-5-phenylcyclohex-2-en-1-one
_symmetry_cell_setting           orthorhombic
_symmetry_space_group_name_H-M   'P 21 21 21'
_symmetry_Int_Tables_number      19
_space_group_name_Hall           'P 2ac 2ab'
loop_
_symmetry_equiv_pos_site_id
_symmetry_equiv_pos_as_xyz
1 x,y,z
2 1/2-x,-y,1/2+z
3 1/2+x,1/2-y,-z
4 -x,1/2+y,1/2-z
_cell_length_a                   8.2125(3)
_cell_length_b                   12.0678(5)
_cell_length_c                   14.2225(7)
_cell_angle_alpha                90
_cell_angle_beta                 90
_cell_angle_gamma                90
_cell_volume                     1409.55
_exptl_crystal_colour            colorless
_exptl_crystal_description       needle
_cell_formula_units_Z            4
loop_
_atom_site_label
_atom_site_type_symbol
_atom_site_fract_x
_atom_site_fract_y
_atom_site_fract_z
O1 O 0.6774(2) 0.1695(2) 0.88642(13)
C1 C 0.5695(3) 0.1576(2) 0.82781(19)
C2 C 0.4099(3) 0.2089(2) 0.84087(19)
C3 C 0.2870(3) 0.1938(2) 0.77916(18)
C4 C 0.3087(3) 0.1208(2) 0.69520(18)
C5 C 0.4858(3) 0.1199(2) 0.65786(19)
C6 C 0.5945(3) 0.0886(2) 0.74175(18)
C7 C 0.1233(3) 0.2526(2) 0.7879(2)
C8 C 0.1074(4) 0.3373(3) 0.7086(3)
C9 C 0.0936(4) 0.3052(3) 0.8837(3)
O2 O -0.0037(2) 0.17565(14) 0.76500(13)
O3 O -0.0129(3) 0.09366(17) 0.84069(18)
C10 C 0.5034(4) 0.0304(2) 0.5814(2)
C11 C 0.5272(3) 0.2337(2) 0.61669(17)
C12 C 0.6519(3) 0.3016(2) 0.65112(17)
C13 C 0.6817(3) 0.4054(2) 0.61241(18)
C14 C 0.5898(4) 0.4432(2) 0.5383(2)
C15 C 0.4671(3) 0.3767(3) 0.5018(2)
C16 C 0.4361(3) 0.2741(2) 0.54079(19)
H1 H 0.3896 0.2553 0.8945
H2 H 0.2810 0.0459 0.7116
H3 H 0.2389 0.1457 0.6454
H4 H 0.7053 0.0965 0.7213
H5 H 0.5728 0.0122 0.7558
H6 H 0.0047 0.3748 0.7133
H7 H 0.1138 0.2995 0.6493
H8 H 0.1942 0.3904 0.7130
H9 H -0.0113 0.3403 0.8836
H10 H 0.1761 0.3592 0.8972
H11 H 0.0957 0.2483 0.9308
H12 H -0.115(7) 0.120(4) 0.852(4)
H13 H 0.6129 0.0300 0.5578
H14 H 0.4292 0.0462 0.5310
H15 H 0.4784 -0.0408 0.6078
H16 H 0.7181 0.2774 0.7028
H17 H 0.7675 0.4506 0.6375
H18 H 0.6106 0.5151 0.5119
H19 H 0.4018 0.4021 0.4501
H20 H 0.3518 0.2291 0.5138
loop_
_geom_bond_atom_site_label_1
_geom_bond_atom_site_label_2
_geom_bond_site_symmetry_1
_geom_bond_site_symmetry_2
O1 C1 1_555 1_555
C1 C2 1_555 1_555
C2 C3 1_555 1_555
C3 C4 1_555 1_555
C4 C5 1_555 1_555
C5 C6 1_555 1_555
C6 C1 1_555 1_555
C7 C3 1_555 1_555
C8 C7 1_555 1_555
C9 C7 1_555 1_555
O2 C7 1_555 1_555
O3 O2 1_555 1_555
C10 C5 1_555 1_555
C11 C5 1_555 1_555
C12 C11 1_555 1_555
C13 C12 1_555 1_555
C14 C13 1_555 1_555
C15 C14 1_555 1_555
C16 C11 1_555 1_555
H1 C2 1_555 1_555
H2 C4 1_555 1_555
H3 C4 1_555 1_555
H4 C6 1_555 1_555
H5 C6 1_555 1_555
H6 C8 1_555 1_555
H7 C8 1_555 1_555
H8 C8 1_555 1_555
H9 C9 1_555 1_555
H10 C9 1_555 1_555
H11 C9 1_555 1_555
H12 O3 1_555 1_555
H13 C10 1_555 1_555
H14 C10 1_555 1_555
H15 C10 1_555 1_555
H16 C12 1_555 1_555
H17 C13 1_555 1_555
H18 C14 1_555 1_555
H19 C15 1_555 1_555
H20 C16 1_555 1_555
C15 C16 1_555 1_555

#END
