
#######################################################################
#
#                 Cambridge Crystallographic Data Centre
#                                CCDC 
#
#######################################################################
#
# If this CIF has been generated from an entry in the Cambridge 
# Structural Database, then it will include bibliographic, chemical, 
# crystal, experimental, refinement or atomic coordinate data resulting 
# from the CCDC's data processing and validation procedures.
#
#######################################################################

data_NURYEG
_chemical_formula_moiety         'C31 H32 B2 N2 O2'
_chemical_name_systematic        
2-(1,1-diphenyl-3-(4,4,5,5-tetramethyl-1,3,2-dioxaborolan-2-yl)prop-1-en-2-yl)-2,3-dihydro-1H-naphtho[1,8-de][1,3,2]diazaborinine
_symmetry_cell_setting           triclinic
_symmetry_space_group_name_H-M   'P -1'
_symmetry_Int_Tables_number      2
_space_group_name_Hall           '-P 1'
loop_
_symmetry_equiv_pos_site_id
_symmetry_equiv_pos_as_xyz
1 x,y,z
2 -x,-y,-z
_cell_length_a                   9.5048(5)
_cell_length_b                   11.8894(6)
_cell_length_c                   12.7845(4)
_cell_angle_alpha                93.400(3)
_cell_angle_beta                 104.270(4)
_cell_angle_gamma                93.808(4)
_cell_volume                     1392.78
_exptl_crystal_colour            colorless
_exptl_crystal_description       trapezoid
_cell_formula_units_Z            2
loop_
_atom_site_label
_atom_site_type_symbol
_atom_site_fract_x
_atom_site_fract_y
_atom_site_fract_z
O1 O 0.70440(7) 0.50804(6) 0.08510(5)
O2 O 0.71018(7) 0.55395(6) 0.26276(5)
N1 N 0.36165(9) 0.54233(7) 0.33740(6)
H1 H 0.3868 0.5976 0.3890
N2 N 0.32573(9) 0.47317(7) 0.15072(6)
H2 H 0.3300 0.4844 0.0841
C1 C 0.26816(10) 0.34775(8) 0.27970(7)
C2 C 0.44607(10) 0.67883(8) 0.20435(7)
C3 C 0.27428(10) 0.36614(8) 0.17135(7)
C4 C 0.31396(10) 0.43676(8) 0.36400(7)
C5 C 0.53361(10) 0.65913(8) 0.12097(7)
H3 H 0.5827 0.7320 0.1101
H4 H 0.4666 0.6300 0.0509
C6 C 0.23039(11) 0.27846(9) 0.09084(8)
H5 H 0.2343 0.2905 0.0188
C7 C 0.84019(12) 0.34126(9) 0.09448(9)
H6 H 0.7477 0.2951 0.0838
H7 H 0.9187 0.3031 0.1397
H8 H 0.8610 0.3516 0.0241
C8 C 0.21669(11) 0.23942(9) 0.30409(8)
C9 C 0.31016(11) 0.41668(9) 0.46890(8)
H9 H 0.3427 0.4752 0.5254
C10 C 0.44834(10) 0.78250(8) 0.25549(8)
B1 B 0.37181(11) 0.56544(9) 0.23150(8)
C11 C 0.54459(11) 0.88024(8) 0.23708(8)
C12 C 0.35445(11) 0.80649(8) 0.33083(8)
C13 C 0.96285(11) 0.53603(10) 0.15379(9)
H10 H 0.9702 0.5470 0.0799
H11 H 1.0507 0.5038 0.1938
H12 H 0.9534 0.6090 0.1902
C14 C 0.69557(12) 0.87868(10) 0.26496(10)
H13 H 0.7383 0.8170 0.3010
C15 C 0.17293(12) 0.15194(9) 0.21931(9)
H14 H 0.1385 0.0793 0.2343
C16 C 0.82975(10) 0.45570(8) 0.14989(8)
C17 C 0.21208(12) 0.22304(10) 0.41262(9)
H15 H 0.1769 0.1518 0.4302
C18 C 0.79109(10) 0.45298(9) 0.26136(8)
C19 C 0.25825(13) 0.30978(10) 0.49189(9)
H16 H 0.2551 0.2974 0.5640
C20 C 0.20417(12) 0.77785(10) 0.29870(10)
H17 H 0.1610 0.7452 0.2274
C21 C 0.18000(12) 0.17160(9) 0.11567(9)
H18 H 0.1504 0.1121 0.0599
C22 C 0.92193(12) 0.46339(11) 0.35863(9)
H19 H 0.9790 0.5355 0.3603
H20 H 0.9827 0.4009 0.3532
H21 H 0.8885 0.4604 0.4251
C23 C 0.68601(12) 0.35266(10) 0.26753(9)
H22 H 0.6476 0.3652 0.3313
H23 H 0.7374 0.2836 0.2731
H24 H 0.6054 0.3446 0.2021
B2 B 0.65067(11) 0.57303(9) 0.15698(8)
C24 C 0.41422(13) 0.85712(10) 0.43544(9)
H25 H 0.5156 0.8795 0.4580
C25 C 0.17824(15) 0.84451(12) 0.47435(11)
H26 H 0.1188 0.8563 0.5232
C26 C 0.11694(13) 0.79651(11) 0.36989(11)
H27 H 0.0150 0.7763 0.3470
C27 C 0.78513(14) 0.96568(10) 0.24107(11)
H28 H 0.8880 0.9635 0.2615
C28 C 0.32693(15) 0.87510(12) 0.50695(11)
H29 H 0.3693 0.9084 0.5781
C29 C 0.48505(14) 0.97312(10) 0.18723(12)
H30 H 0.3826 0.9777 0.1703
C30 C 0.72440(16) 1.05493(11) 0.18781(13)
H31 H 0.7848 1.1131 0.1689
C31 C 0.57455(18) 1.05935(12) 0.16199(15)
H32 H 0.5326 1.1217 0.1268
loop_
_geom_bond_atom_site_label_1
_geom_bond_atom_site_label_2
_geom_bond_site_symmetry_1
_geom_bond_site_symmetry_2
O1 C16 1_555 1_555
O2 C18 1_555 1_555
N1 H1 1_555 1_555
N2 H2 1_555 1_555
C1 C3 1_555 1_555
C2 C5 1_555 1_555
C3 N2 1_555 1_555
C4 N1 1_555 1_555
C5 H3 1_555 1_555
H4 C5 1_555 1_555
C6 C3 1_555 1_555
H5 C6 1_555 1_555
C7 H6 1_555 1_555
H7 C7 1_555 1_555
H8 C7 1_555 1_555
C8 C1 1_555 1_555
C9 C4 1_555 1_555
H9 C9 1_555 1_555
C10 C2 1_555 1_555
B1 N1 1_555 1_555
C11 C10 1_555 1_555
C12 C10 1_555 1_555
C13 H10 1_555 1_555
H11 C13 1_555 1_555
H12 C13 1_555 1_555
C14 C11 1_555 1_555
H13 C14 1_555 1_555
C15 C8 1_555 1_555
H14 C15 1_555 1_555
C16 C7 1_555 1_555
C17 C8 1_555 1_555
H15 C17 1_555 1_555
C18 C16 1_555 1_555
C19 C9 1_555 1_555
H16 C19 1_555 1_555
C20 C12 1_555 1_555
H17 C20 1_555 1_555
C21 C6 1_555 1_555
H18 C21 1_555 1_555
C22 C18 1_555 1_555
H19 C22 1_555 1_555
H20 C22 1_555 1_555
H21 C22 1_555 1_555
C23 C18 1_555 1_555
H22 C23 1_555 1_555
H23 C23 1_555 1_555
H24 C23 1_555 1_555
B2 O1 1_555 1_555
C24 C12 1_555 1_555
H25 C24 1_555 1_555
C25 H26 1_555 1_555
C26 C20 1_555 1_555
H27 C26 1_555 1_555
C27 C14 1_555 1_555
H28 C27 1_555 1_555
C28 C24 1_555 1_555
H29 C28 1_555 1_555
C29 C11 1_555 1_555
H30 C29 1_555 1_555
C30 C27 1_555 1_555
H31 C30 1_555 1_555
C31 C29 1_555 1_555
H32 C31 1_555 1_555
O2 B2 1_555 1_555
N2 B1 1_555 1_555
C1 C4 1_555 1_555
C2 B1 1_555 1_555
C5 B2 1_555 1_555
C13 C16 1_555 1_555
C15 C21 1_555 1_555
C17 C19 1_555 1_555
C25 C26 1_555 1_555
C25 C28 1_555 1_555
C30 C31 1_555 1_555

#END
