
#######################################################################
#
#                 Cambridge Crystallographic Data Centre
#                                CCDC 
#
#######################################################################
#
# If this CIF has been generated from an entry in the Cambridge 
# Structural Database, then it will include bibliographic, chemical, 
# crystal, experimental, refinement or atomic coordinate data resulting 
# from the CCDC's data processing and validation procedures.
#
#######################################################################

data_NURYOQ
_chemical_formula_moiety         'C31 H30 B2 Cl2 N2 O2'
_chemical_name_systematic        
2-(3,3-bis(4-chlorophenyl)-2-(4,4,5,5-tetramethyl-1,3,2-dioxaborolan-2-yl)prop-2-en-1-yl)-2,3-dihydro-1H-naphtho[1,8-de][1,3,2]diazaborinine
_symmetry_cell_setting           triclinic
_symmetry_space_group_name_H-M   'P -1'
_symmetry_Int_Tables_number      2
_space_group_name_Hall           '-P 1'
loop_
_symmetry_equiv_pos_site_id
_symmetry_equiv_pos_as_xyz
1 x,y,z
2 -x,-y,-z
_cell_length_a                   9.8724(5)
_cell_length_b                   12.4678(5)
_cell_length_c                   12.5733(6)
_cell_angle_alpha                89.571(4)
_cell_angle_beta                 70.639(5)
_cell_angle_gamma                75.257(4)
_cell_volume                     1407
_exptl_crystal_colour            colorless
_exptl_crystal_description       prism
_cell_formula_units_Z            2
loop_
_atom_site_label
_atom_site_type_symbol
_atom_site_fract_x
_atom_site_fract_y
_atom_site_fract_z
Cl1 Cl 0.28124(5) 0.40327(3) 0.57940(4)
Cl2 Cl -0.31787(4) -0.09699(3) 0.42388(3)
O1 O -0.19852(19) 0.34728(10) 0.06365(14)
O2 O -0.0422(2) 0.17160(11) 0.03597(14)
N1 N 0.27828(11) 0.40945(8) -0.06798(8)
H1 H 0.2446 0.4824 -0.0573
N2 N 0.27207(11) 0.22754(8) -0.00295(9)
H2 H 0.2347 0.1856 0.0494
C1 C 0.39686(12) 0.36306(9) -0.16656(10)
C2 C 0.46105(13) 0.42839(10) -0.24763(10)
H3 H 0.4253 0.5072 -0.2363
C3 C 0.57908(14) 0.37795(11) -0.34659(11)
H4 H 0.6220 0.4234 -0.4016
C4 C 0.63363(14) 0.26404(11) -0.36528(11)
H5 H 0.7131 0.2318 -0.4329
C5 C 0.57160(13) 0.19444(10) -0.28392(10)
C6 C 0.62456(14) 0.07652(11) -0.29969(11)
H6 H 0.7028 0.0420 -0.3671
C7 C 0.56345(14) 0.01227(10) -0.21825(12)
H7 H 0.6007 -0.0665 -0.2297
C8 C 0.44618(14) 0.06099(10) -0.11762(11)
H8 H 0.4058 0.0151 -0.0618
C9 C 0.38991(12) 0.17560(9) -0.10016(10)
C10 C 0.45226(12) 0.24444(9) -0.18325(10)
C11 C 0.06746(13) 0.39894(9) 0.12412(10)
H9 H 0.0999 0.4286 0.1816
H10 H 0.0003 0.4617 0.1024
C12 C -0.01669(12) 0.31362(9) 0.17474(9)
C13 C -0.01707(12) 0.26918(9) 0.27355(9)
C14 C 0.06126(13) 0.30170(9) 0.34673(10)
C15 C 0.21183(14) 0.30046(10) 0.30573(11)
H11 H 0.2685 0.2778 0.2283
C16 C 0.27995(15) 0.33200(11) 0.37687(12)
H12 H 0.3823 0.3310 0.3482
C17 C 0.19665(17) 0.36492(11) 0.48993(12)
C18 C 0.04765(17) 0.36639(11) 0.53312(11)
H13 H -0.0085 0.3891 0.6106
C19 C -0.01854(15) 0.33415(11) 0.46135(10)
H14 H -0.1205 0.3342 0.4909
C20 C -0.09830(13) 0.18333(9) 0.31730(9)
C21 C -0.02691(13) 0.08708(10) 0.35634(10)
H15 H 0.0695 0.0804 0.3599
C22 C -0.09425(14) 0.00125(10) 0.38999(10)
H16 H -0.0441 -0.0638 0.4155
C23 C -0.23581(14) 0.01198(10) 0.38578(11)
C24 C -0.31233(14) 0.10795(11) 0.35195(12)
H17 H -0.4103 0.1154 0.3515
C25 C -0.24305(13) 0.19318(10) 0.31864(11)
H18 H -0.2954 0.2594 0.2964
C26 C -0.27300(17) 0.35848(11) -0.10482(13)
H19 H -0.3549 0.4245 -0.0688
H20 H -0.3011 0.3170 -0.1563
H21 H -0.1837 0.3815 -0.1475
C27 C -0.13565(17) 0.07571(11) -0.08048(13)
H22 H -0.0449 0.0141 -0.0999
H23 H -0.1744 0.0825 -0.1433
H24 H -0.2106 0.0612 -0.0124
C28 C -0.2405(2) 0.28352(14) -0.01301(15)
C29 C -0.1001(2) 0.18318(14) -0.05862(15)
C30 C -0.3803(4) 0.2502(3) 0.0595(3)
H25 H -0.3560 0.2006 0.1152
H26 H -0.4157 0.2117 0.0107
H27 H -0.4584 0.3171 0.0988
C31 C 0.0225(3) 0.2083(2) -0.1594(2)
H28 H 0.0386 0.2797 -0.1425
H29 H -0.0076 0.2122 -0.2265
H30 H 0.1150 0.1492 -0.1738
B1 B 0.20919(14) 0.34506(10) 0.01584(11)
B2 B -0.08939(14) 0.27540(10) 0.09338(11)
O3? O -0.1274(4) 0.3525(2) 0.0170(3)
O4? O -0.1098(5) 0.1769(3) 0.0750(3)
H31? H -0.3648 0.3795 -0.0390
H32? H -0.2887 0.3164 -0.1632
H33? H -0.2460 0.4258 -0.1350
H34? H -0.0285 0.0615 -0.1215
H35? H -0.1885 0.0802 -0.1347
H36? H -0.1540 0.0150 -0.0325
C32? C -0.1492(5) 0.2875(3) -0.0699(3)
C33? C -0.1936(5) 0.1893(3) -0.0042(3)
C34? C -0.3573(10) 0.2174(7) 0.0700(9)
H37? H -0.3731 0.1606 0.1237
H38? H -0.4187 0.2193 0.0224
H39? H -0.3854 0.2903 0.1117
C35? C -0.0007(8) 0.2523(6) -0.1662(6)
H40? H 0.0371 0.3175 -0.1883
H41? H -0.0142 0.2191 -0.2311
H42? H 0.0709 0.1975 -0.1413
loop_
_geom_bond_atom_site_label_1
_geom_bond_atom_site_label_2
_geom_bond_site_symmetry_1
_geom_bond_site_symmetry_2
Cl1 C17 1_555 1_555
Cl2 C23 1_555 1_555
O1 C28 1_555 1_555
O2 C29 1_555 1_555
N1 H1 1_555 1_555
N2 H2 1_555 1_555
C1 N1 1_555 1_555
C2 C1 1_555 1_555
H3 C2 1_555 1_555
C3 C2 1_555 1_555
H4 C3 1_555 1_555
C4 C3 1_555 1_555
H5 C4 1_555 1_555
C5 C4 1_555 1_555
C6 C5 1_555 1_555
H6 C6 1_555 1_555
C7 C6 1_555 1_555
H7 C7 1_555 1_555
C8 C7 1_555 1_555
H8 C8 1_555 1_555
C9 N2 1_555 1_555
C10 C1 1_555 1_555
C11 H9 1_555 1_555
H10 C11 1_555 1_555
C12 C11 1_555 1_555
C13 C12 1_555 1_555
C14 C13 1_555 1_555
C15 C14 1_555 1_555
H11 C15 1_555 1_555
C16 C15 1_555 1_555
H12 C16 1_555 1_555
C17 C16 1_555 1_555
C18 C17 1_555 1_555
H13 C18 1_555 1_555
C19 C14 1_555 1_555
H14 C19 1_555 1_555
C20 C13 1_555 1_555
C21 C20 1_555 1_555
H15 C21 1_555 1_555
C22 C21 1_555 1_555
H16 C22 1_555 1_555
C23 C22 1_555 1_555
C24 C23 1_555 1_555
H17 C24 1_555 1_555
C25 C20 1_555 1_555
H18 C25 1_555 1_555
C26 H19 1_555 1_555
H20 C26 1_555 1_555
H21 C26 1_555 1_555
C27 H22 1_555 1_555
H23 C27 1_555 1_555
H24 C27 1_555 1_555
C28 C26 1_555 1_555
C29 C27 1_555 1_555
C30 C28 1_555 1_555
H25 C30 1_555 1_555
H26 C30 1_555 1_555
H27 C30 1_555 1_555
C31 C29 1_555 1_555
H28 C31 1_555 1_555
H29 C31 1_555 1_555
H30 C31 1_555 1_555
B1 N1 1_555 1_555
B2 O1 1_555 1_555
O2 B2 1_555 1_555
N2 B1 1_555 1_555
C5 C10 1_555 1_555
C8 C9 1_555 1_555
C9 C10 1_555 1_555
C11 B1 1_555 1_555
C12 B2 1_555 1_555
C18 C19 1_555 1_555
C24 C25 1_555 1_555
C28 C29 1_555 1_555

#END
