
#######################################################################
#
#                 Cambridge Crystallographic Data Centre
#                                CCDC 
#
#######################################################################
#
# If this CIF has been generated from an entry in the Cambridge 
# Structural Database, then it will include bibliographic, chemical, 
# crystal, experimental, refinement or atomic coordinate data resulting 
# from the CCDC's data processing and validation procedures.
#
#######################################################################

data_NURZUV
_chemical_formula_moiety         'C16 H18 O6'
_chemical_name_systematic        
'Dimethyl (3aR*,4S*,8aR*)-decahydro-8-oxo-3,5-(2-oxapropandiylidene)azulene-3a,4-dicarboxylate'
_symmetry_cell_setting           monoclinic
_symmetry_space_group_name_H-M   'C c'
_symmetry_Int_Tables_number      9
_space_group_name_Hall           'C -2yc'
loop_
_symmetry_equiv_pos_site_id
_symmetry_equiv_pos_as_xyz
1 x,y,z
2 x,-y,1/2+z
3 1/2+x,1/2+y,z
4 1/2+x,1/2-y,1/2+z
_cell_length_a                   7.162
_cell_length_b                   27.445(1)
_cell_length_c                   8.190(1)
_cell_angle_alpha                90
_cell_angle_beta                 114.23(1)
_cell_angle_gamma                90
_cell_volume                     1468.02
_exptl_crystal_colour            colorless
_exptl_crystal_description       prism
_cell_formula_units_Z            4
loop_
_atom_site_label
_atom_site_type_symbol
_atom_site_fract_x
_atom_site_fract_y
_atom_site_fract_z
C1 C -0.04060 0.15757(11) 0.40440
H1 H -0.07083 0.19049(11) 0.42496
H2 H -0.08532 0.13570(11) 0.47259
C2 C 0.19233(59) 0.15189(10) 0.45881(44)
H3 H 0.24432(59) 0.12390(10) 0.53424(44)
H4 H 0.26566(59) 0.18041(10) 0.51960(44)
C3 C 0.20892(58) 0.14509(8) 0.28174(45)
C4 C -0.00647(54) 0.11560(7) -0.03560(41)
H5 H 0.11227(54) 0.09984(7) -0.03754(41)
C5 C -0.00951(55) 0.16619(8) -0.11002(44)
C6 C -0.21108(61) 0.19064(9) -0.21359(48)
H6 H -0.18771(61) 0.22473(9) -0.22365(48)
H7 H -0.27531(61) 0.17662(9) -0.33104(48)
C7 C -0.35123(59) 0.18479(9) -0.11313(46)
H8 H -0.40941(59) 0.15267(9) -0.13575(46)
H9 H -0.45898(59) 0.20856(9) -0.15514(46)
C8 C -0.23035(59) 0.19111(8) 0.08668(48)
O1 O -0.20346(58) 0.23109(7) 0.15266(43)
C9 C -0.15014(57) 0.14518(8) 0.20145(43)
H10 H -0.27036(57) 0.12557(8) 0.17351(43)
C10 C 0.01662(54) 0.11804(7) 0.15964(42)
C11 C 0.34840(61) 0.16646(10) 0.23902(50)
H11 H 0.46018(61) 0.18206(10) 0.33447(50)
O2 O 0.34769(55) 0.16873(8) 0.06862(45)
C12 C 0.16740(63) 0.18942(10) -0.05521(50)
H12 H 0.17087(63) 0.22146(10) -0.10090(50)
C13 C -0.18259(58) 0.08298(8) -0.15275(44)
O3 O -0.29004(56) 0.06019(7) -0.10118(42)
O4 O -0.19643(55) 0.08268(7) -0.31995(42)
C14 C -0.35185(67) 0.05091(12) -0.44469(50)
H13 H -0.34993(67) 0.05337(12) -0.56091(50)
H14 H -0.48438(67) 0.06022(12) -0.45227(50)
H15 H -0.32339(67) 0.01792(12) -0.40280(50)
C15 C 0.03728(59) 0.06548(8) 0.23421(45)
O5 O -0.05215(57) 0.04934(7) 0.31781(43)
O6 O 0.17736(53) 0.04096(6) 0.19895(41)
C16 C 0.21493(63) -0.00885(9) 0.26216(50)
H16 H 0.31687(63) -0.02312(9) 0.22913(50)
H17 H 0.09066(63) -0.02741(9) 0.21030(50)
H18 H 0.26299(63) -0.00896(9) 0.39018(50)
loop_
_geom_bond_atom_site_label_1
_geom_bond_atom_site_label_2
_geom_bond_site_symmetry_1
_geom_bond_site_symmetry_2
C1 H1 1_555 1_555
H2 C1 1_555 1_555
C2 C1 1_555 1_555
H3 C2 1_555 1_555
H4 C2 1_555 1_555
C3 C2 1_555 1_555
C4 H5 1_555 1_555
C5 C4 1_555 1_555
C6 C5 1_555 1_555
H6 C6 1_555 1_555
H7 C6 1_555 1_555
C7 C6 1_555 1_555
H8 C7 1_555 1_555
H9 C7 1_555 1_555
C8 C7 1_555 1_555
O1 C8 1_555 1_555
C9 C1 1_555 1_555
H10 C9 1_555 1_555
C10 C3 1_555 1_555
C11 C3 1_555 1_555
H11 C11 1_555 1_555
O2 C11 1_555 1_555
C12 C5 1_555 1_555
H12 C12 1_555 1_555
C13 C4 1_555 1_555
O3 C13 1_555 1_555
O4 C13 1_555 1_555
C14 O4 1_555 1_555
H13 C14 1_555 1_555
H14 C14 1_555 1_555
H15 C14 1_555 1_555
C15 C10 1_555 1_555
O5 C15 1_555 1_555
O6 C15 1_555 1_555
C16 O6 1_555 1_555
H16 C16 1_555 1_555
H17 C16 1_555 1_555
H18 C16 1_555 1_555
C4 C10 1_555 1_555
C8 C9 1_555 1_555
C9 C10 1_555 1_555
O2 C12 1_555 1_555

#END
