
#######################################################################
#
#                 Cambridge Crystallographic Data Centre
#                                CCDC 
#
#######################################################################
#
# If this CIF has been generated from an entry in the Cambridge 
# Structural Database, then it will include bibliographic, chemical, 
# crystal, experimental, refinement or atomic coordinate data resulting 
# from the CCDC's data processing and validation procedures.
#
#######################################################################

data_NUSBUA
_chemical_formula_moiety         'C24 H27 Cl2 N1 O3 S1'
_chemical_name_systematic        
4-chloro-3-(4-chlorophenyl)-4,6,6-trimethyl-1-((4-methylphenyl)sulfonyl)octahydro-2H-indol-2-one
_symmetry_cell_setting           triclinic
_symmetry_space_group_name_H-M   'P -1'
_symmetry_Int_Tables_number      2
_space_group_name_Hall           '-P 1'
loop_
_symmetry_equiv_pos_site_id
_symmetry_equiv_pos_as_xyz
1 x,y,z
2 -x,-y,-z
_cell_length_a                   9.793(9)
_cell_length_b                   11.425(11)
_cell_length_c                   12.019(13)
_cell_angle_alpha                102.571(17)
_cell_angle_beta                 110.392(16)
_cell_angle_gamma                91.092(16)
_cell_volume                     1223.62
_exptl_crystal_colour            colorless
_exptl_crystal_description       prism
_cell_formula_units_Z            2
loop_
_atom_site_label
_atom_site_type_symbol
_atom_site_fract_x
_atom_site_fract_y
_atom_site_fract_z
C1 C 0.3660(9) 0.8761(8) 0.8257(7)
C2 C 0.4706(10) 0.9624(10) 0.8306(9)
H1 H 0.4449 1.0348 0.8097
C3 C 0.6177(11) 0.9362(12) 0.8685(10)
H2 H 0.6904 0.9916 0.8712
C4 C 0.6543(10) 0.8327(12) 0.9008(8)
C5 C 0.8162(12) 0.8062(16) 0.9376(11)
H3 H 0.8250 0.7286 0.9564
H4 H 0.8752 0.8670 1.0081
H5 H 0.8489 0.8065 0.8711
C6 C 0.5504(12) 0.7493(11) 0.8940(10)
H6 H 0.5774 0.6772 0.9151
C7 C 0.4045(11) 0.7697(9) 0.8563(9)
H7 H 0.3334 0.7119 0.8518
C8 C -0.0408(8) 0.7512(7) 0.5842(7)
H8 H -0.0387 0.6891 0.6294
C9 C -0.1633(8) 0.8321(7) 0.5907(8)
H9 H -0.1499 0.9028 0.5617
H10 H -0.1547 0.8592 0.6754
C10 C -0.3187(8) 0.7677(7) 0.5144(8)
C11 C -0.4286(10) 0.8614(9) 0.5126(10)
H11 H -0.4272 0.8923 0.5940
H12 H -0.5250 0.8244 0.4603
H13 H -0.4024 0.9263 0.4824
C12 C -0.3572(11) 0.6708(9) 0.5719(9)
H14 H -0.2901 0.6105 0.5736
H15 H -0.4552 0.6340 0.5244
H16 H -0.3506 0.7070 0.6538
C13 C -0.3242(8) 0.7211(8) 0.3836(8)
H17 H -0.4184 0.6745 0.3366
H18 H -0.3218 0.7905 0.3497
C14 C -0.2058(9) 0.6439(7) 0.3617(7)
C15 C -0.2145(10) 0.6206(10) 0.2290(7)
H19 H -0.1388 0.5721 0.2189
H20 H -0.2018 0.6961 0.2092
H21 H -0.3084 0.5791 0.1757
C16 C -0.0488(8) 0.6931(7) 0.4535(7)
H22 H 0.0092 0.6242 0.4585
C17 C 0.0339(8) 0.7888(7) 0.4203(7)
H23 H -0.0356 0.8431 0.3848
C18 C 0.1126(8) 0.7409(7) 0.3330(7)
C19 C 0.1063(10) 0.7939(8) 0.2384(8)
H24 H 0.0549 0.8610 0.2294
C20 C 0.1749(11) 0.7493(9) 0.1562(9)
H25 H 0.1690 0.7859 0.0930
C21 C 0.2509(10) 0.6512(9) 0.1696(8)
C22 C 0.2608(11) 0.5978(9) 0.2635(9)
H26 H 0.3133 0.5314 0.2726
C23 C 0.1928(10) 0.6428(9) 0.3444(8)
H27 H 0.2009 0.6063 0.4082
C24 C 0.1421(9) 0.8591(7) 0.5441(7)
N1 N 0.1035(7) 0.8254(6) 0.6342(6)
O1 O 0.1710(8) 1.0285(6) 0.7888(6)
O2 O 0.1128(7) 0.8441(8) 0.8458(6)
O3 O 0.2414(7) 0.9326(6) 0.5631(6)
S1 S 0.1809(2) 0.9025(2) 0.78219(19)
Cl1 Cl -0.2417(3) 0.4922(2) 0.3814(3)
Cl2 Cl 0.3353(3) 0.5925(3) 0.0662(3)
loop_
_geom_bond_atom_site_label_1
_geom_bond_atom_site_label_2
_geom_bond_site_symmetry_1
_geom_bond_site_symmetry_2
C1 C2 1_555 1_555
C2 H1 1_555 1_555
C3 C2 1_555 1_555
H2 C3 1_555 1_555
C4 C3 1_555 1_555
C5 C4 1_555 1_555
H3 C5 1_555 1_555
H4 C5 1_555 1_555
H5 C5 1_555 1_555
C6 C4 1_555 1_555
H6 C6 1_555 1_555
C7 C1 1_555 1_555
H7 C7 1_555 1_555
C8 H8 1_555 1_555
C9 C8 1_555 1_555
H9 C9 1_555 1_555
H10 C9 1_555 1_555
C10 C9 1_555 1_555
C11 C10 1_555 1_555
H11 C11 1_555 1_555
H12 C11 1_555 1_555
H13 C11 1_555 1_555
C12 C10 1_555 1_555
H14 C12 1_555 1_555
H15 C12 1_555 1_555
H16 C12 1_555 1_555
C13 C10 1_555 1_555
H17 C13 1_555 1_555
H18 C13 1_555 1_555
C14 C13 1_555 1_555
C15 C14 1_555 1_555
H19 C15 1_555 1_555
H20 C15 1_555 1_555
H21 C15 1_555 1_555
C16 C8 1_555 1_555
H22 C16 1_555 1_555
C17 C16 1_555 1_555
H23 C17 1_555 1_555
C18 C17 1_555 1_555
C19 C18 1_555 1_555
H24 C19 1_555 1_555
C20 C19 1_555 1_555
H25 C20 1_555 1_555
C21 C20 1_555 1_555
C22 C21 1_555 1_555
H26 C22 1_555 1_555
C23 C18 1_555 1_555
H27 C23 1_555 1_555
C24 C17 1_555 1_555
N1 C8 1_555 1_555
O1 S1 1_555 1_555
O2 S1 1_555 1_555
O3 C24 1_555 1_555
S1 C1 1_555 1_555
Cl1 C14 1_555 1_555
Cl2 C21 1_555 1_555
C6 C7 1_555 1_555
C14 C16 1_555 1_555
C22 C23 1_555 1_555
C24 N1 1_555 1_555
N1 S1 1_555 1_555

#END
