
#######################################################################
#
#                 Cambridge Crystallographic Data Centre
#                                CCDC 
#
#######################################################################
#
# If this CIF has been generated from an entry in the Cambridge 
# Structural Database, then it will include bibliographic, chemical, 
# crystal, experimental, refinement or atomic coordinate data resulting 
# from the CCDC's data processing and validation procedures.
#
#######################################################################

data_NUSBEK
_chemical_name_common            "guanidinium 4'-methylbiphenyl-4-sulfonate"
_chemical_formula_moiety         'C13 H11 O3 S1 1-,C1 H6 N3 1+'
_chemical_name_systematic        
"diaminomethaniminium 4'-methylbiphenyl-4-sulfonate"
_symmetry_cell_setting           monoclinic
_symmetry_space_group_name_H-M   'P 21/n'
_symmetry_Int_Tables_number      14
_space_group_name_Hall           '-P 2yn'
loop_
_symmetry_equiv_pos_site_id
_symmetry_equiv_pos_as_xyz
1 x,y,z
2 1/2-x,1/2+y,1/2-z
3 -x,-y,-z
4 1/2+x,1/2-y,1/2+z
_cell_length_a                   11.902(3)
_cell_length_b                   7.5617(16)
_cell_length_c                   34.130(7)
_cell_angle_alpha                90
_cell_angle_beta                 94.679(5)
_cell_angle_gamma                90
_cell_volume                     3061.44
_exptl_crystal_colour            colorless
_exptl_crystal_description       block
_chemical_melting_point          '294 deg.C'
_cell_formula_units_Z            8
loop_
_atom_site_label
_atom_site_type_symbol
_atom_site_fract_x
_atom_site_fract_y
_atom_site_fract_z
S1 S 0.21700(7) 0.74024(10) 0.08396(3)
O1 O 0.28340(19) 0.5815(3) 0.07803(7)
O2 O 0.28240(19) 0.9011(3) 0.07977(7)
O3 O 0.1103(2) 0.7428(3) 0.06015(7)
C1 C 0.1361(3) 0.7337(4) 0.21248(10)
C2 C 0.2156(3) 0.6197(5) 0.19876(11)
H1 H 0.2539 0.5417 0.2162
C3 C -0.0139(3) 0.7805(4) 0.30529(11)
H2 H -0.0848 0.8149 0.3121
C4 C 0.1837(3) 0.7342(4) 0.13346(10)
C5 C 0.0415(3) 0.7316(5) 0.37705(10)
H3 H 0.0672 0.6234 0.3895
H4 H -0.0382 0.7436 0.3789
H5 H 0.0799 0.8298 0.3900
C6 C 0.1114(3) 0.7332(4) 0.25445(10)
C7 C 0.2392(3) 0.6196(5) 0.15987(11)
H6 H 0.2927 0.5419 0.1514
C8 C 0.0076(3) 0.7831(4) 0.26647(10)
H7 H -0.0488 0.8193 0.2477
C9 C 0.0659(3) 0.7285(4) 0.33459(10)
C10 C 0.1700(3) 0.6747(5) 0.32289(10)
H8 H 0.2254 0.6364 0.3418
C11 C 0.1927(3) 0.6772(5) 0.28393(11)
H9 H 0.2632 0.6411 0.2771
C12 C 0.1022(3) 0.8482(5) 0.14618(10)
H10 H 0.0632 0.9242 0.1285
C13 C 0.0799(3) 0.8476(5) 0.18525(10)
H11 H 0.0261 0.9250 0.1936
S2 S -0.23117(7) 0.74515(10) 0.45700(2)
O4 O -0.27726(18) 0.9066(3) 0.47256(6)
C14 C -0.2583(3) 0.5894(5) 0.38476(10)
H12 H -0.2246 0.4911 0.3972
O5 O -0.27520(18) 0.5861(3) 0.47413(6)
O6 O -0.10851(19) 0.7457(3) 0.45872(7)
C15 C -0.3415(3) 0.7291(4) 0.32566(10)
C16 C -0.3685(3) 0.7268(4) 0.28222(10)
C17 C -0.2781(3) 0.7394(4) 0.40644(9)
C18 C -0.2953(3) 0.6496(5) 0.25754(10)
H13 H -0.2302 0.5943 0.2684
C19 C -0.3648(3) 0.8746(5) 0.34789(10)
H14 H -0.4024 0.9704 0.3359
C20 C -0.2884(3) 0.5849(5) 0.34478(10)
H15 H -0.2731 0.4844 0.3304
C21 C -0.3331(3) 0.8807(5) 0.38787(10)
H16 H -0.3491 0.9807 0.4023
C22 C -0.4142(3) 0.7334(4) 0.19994(10)
C23 C -0.4890(3) 0.8059(5) 0.22457(11)
H17 H -0.5557 0.8565 0.2138
C24 C -0.3175(3) 0.6536(5) 0.21721(10)
H18 H -0.2668 0.6018 0.2013
C25 C -0.4656(3) 0.8041(5) 0.26525(11)
H19 H -0.5162 0.8557 0.2812
C26 C -0.4390(4) 0.7322(5) 0.15592(11)
H20 H -0.4949 0.6439 0.1488
H21 H -0.3712 0.7058 0.1436
H22 H -0.4667 0.8462 0.1473
N1 N 0.0244(2) 0.3925(4) 0.03841(8)
H23 H -0.0462 0.3932 0.0306
H24 H 0.0606 0.4906 0.0414
N2 N 0.0219(2) 0.0900(4) 0.04119(8)
H25 H 0.0567 -0.0086 0.0455
H26 H -0.0489 0.0905 0.0338
N3 N 0.1859(3) 0.2400(4) 0.05708(10)
H27 H 0.2208 0.1415 0.0614
H28 H 0.2219 0.3384 0.0601
C27 C 0.0772(3) 0.2403(4) 0.04580(10)
N4 N 0.5030(2) 0.8964(4) 0.04652(8)
H29 H 0.4374 0.8963 0.0554
H30 H 0.5354 0.9950 0.0419
N5 N 0.5040(2) 0.5936(3) 0.04699(8)
H31 H 0.4384 0.5933 0.0559
H32 H 0.5371 0.4953 0.0427
C28 C 0.5538(3) 0.7452(4) 0.03992(9)
N6 N 0.6542(3) 0.7457(4) 0.02560(9)
H33 H 0.6860 0.8443 0.0206
H34 H 0.6873 0.6473 0.0213
loop_
_geom_bond_atom_site_label_1
_geom_bond_atom_site_label_2
_geom_bond_site_symmetry_1
_geom_bond_site_symmetry_2
S1 O1 1_555 1_555
O2 S1 1_555 1_555
O3 S1 1_555 1_555
C1 C2 1_555 1_555
C2 H1 1_555 1_555
C3 H2 1_555 1_555
C4 S1 1_555 1_555
C5 H3 1_555 1_555
H4 C5 1_555 1_555
H5 C5 1_555 1_555
C6 C1 1_555 1_555
C7 C2 1_555 1_555
H6 C7 1_555 1_555
C8 C3 1_555 1_555
H7 C8 1_555 1_555
C9 C3 1_555 1_555
C10 C9 1_555 1_555
H8 C10 1_555 1_555
C11 C6 1_555 1_555
H9 C11 1_555 1_555
C12 C4 1_555 1_555
H10 C12 1_555 1_555
C13 C1 1_555 1_555
H11 C13 1_555 1_555
S2 O4 1_555 1_555
C14 H12 1_555 1_555
O5 S2 1_555 1_555
O6 S2 1_555 1_555
C15 C16 1_555 1_555
C16 C18 1_555 1_555
C17 S2 1_555 1_555
C18 H13 1_555 1_555
C19 C15 1_555 1_555
H14 C19 1_555 1_555
C20 C14 1_555 1_555
H15 C20 1_555 1_555
C21 C17 1_555 1_555
H16 C21 1_555 1_555
C22 C23 1_555 1_555
C23 H17 1_555 1_555
C24 C18 1_555 1_555
H18 C24 1_555 1_555
C25 C16 1_555 1_555
H19 C25 1_555 1_555
C26 C22 1_555 1_555
H20 C26 1_555 1_555
H21 C26 1_555 1_555
H22 C26 1_555 1_555
N1 H23 1_555 1_555
H24 N1 1_555 1_555
N2 H25 1_555 1_555
H26 N2 1_555 1_555
N3 H27 1_555 1_555
H28 N3 1_555 1_555
C27 N1 1_555 1_555
N4 H29 1_555 1_555
H30 N4 1_555 1_555
N5 H31 1_555 1_555
H32 N5 1_555 1_555
C28 N4 1_555 1_555
N6 C28 1_555 1_555
H33 N6 1_555 1_555
H34 N6 1_555 1_555
C4 C7 1_555 1_555
C5 C9 1_555 1_555
C6 C8 1_555 1_555
C10 C11 1_555 1_555
C12 C13 1_555 1_555
C14 C17 1_555 1_555
C15 C20 1_555 1_555
C19 C21 1_555 1_555
C22 C24 1_555 1_555
C23 C25 1_555 1_555
N2 C27 1_555 1_555
N3 C27 1_555 1_555
N5 C28 1_555 1_555

#END
