
#######################################################################
#
#                 Cambridge Crystallographic Data Centre
#                                CCDC 
#
#######################################################################
#
# If this CIF has been generated from an entry in the Cambridge 
# Structural Database, then it will include bibliographic, chemical, 
# crystal, experimental, refinement or atomic coordinate data resulting 
# from the CCDC's data processing and validation procedures.
#
#######################################################################

data_NUSFIR
_chemical_formula_moiety         'C66 H66 Si2'
_chemical_name_systematic        
13,13'-bis((triisopropylsilyl)ethynyl)-6,6'-bipentacenyl
_symmetry_cell_setting           monoclinic
_symmetry_space_group_name_H-M   'C 2/c'
_symmetry_Int_Tables_number      15
_space_group_name_Hall           '-C 2yn'
loop_
_symmetry_equiv_pos_site_id
_symmetry_equiv_pos_as_xyz
1 x,y,z
2 1/2+x,1/2+y,z
3 -x,y,1/2-z
4 1/2-x,1/2+y,1/2-z
5 -x,-y,-z
6 1/2-x,1/2-y,-z
7 x,-y,1/2+z
8 1/2+x,1/2-y,1/2+z
_cell_length_a                   31.1632(12)
_cell_length_b                   22.2306(9)
_cell_length_c                   16.0653(6)
_cell_angle_alpha                90
_cell_angle_beta                 108.5780(10)
_cell_angle_gamma                90
_cell_volume                     10549.7
_exptl_crystal_colour            blue
_exptl_crystal_description       Block
_cell_formula_units_Z            8
_exptl_crystal_recrystallization_method methanol/chloroform
loop_
_atom_site_label
_atom_site_type_symbol
_atom_site_fract_x
_atom_site_fract_y
_atom_site_fract_z
Si1 Si 0.12632(4) 1.22666(5) 0.84609(8)
Si2 Si 0.13941(5) 0.51137(5) 0.99172(9)
C1 C 0.11978(13) 1.02614(16) 0.8583(3)
C2 C 0.10192(13) 0.99702(17) 0.9183(3)
C3 C 0.08368(14) 1.02994(17) 0.9737(3)
H1 H 0.0830 1.0721 0.9699
C4 C 0.06667(13) 1.00215(18) 1.0339(3)
C5 C 0.04876(15) 1.0355(2) 1.0910(3)
H2 H 0.0489 1.0778 1.0889
C6 C 0.03167(15) 1.0076(2) 1.1481(3)
H3 H 0.0198 1.0305 1.1848
C7 C 0.03158(16) 0.9439(2) 1.1529(3)
H4 H 0.0195 0.9248 1.1926
C8 C 0.04881(14) 0.91039(19) 1.1009(3)
H5 H 0.0486 0.8682 1.1054
C9 C 0.06735(13) 0.93743(18) 1.0392(2)
C10 C 0.08558(14) 0.90505(18) 0.9855(3)
H6 H 0.0860 0.8629 0.9898
C11 C 0.10367(13) 0.93187(17) 0.9243(3)
C12 C 0.12283(13) 0.89854(17) 0.8712(2)
C13 C 0.13957(13) 0.92716(17) 0.8094(2)
C14 C 0.15758(14) 0.89509(18) 0.7522(3)
H7 H 0.1589 0.8529 0.7560
C15 C 0.17332(13) 0.92296(18) 0.6913(3)
C16 C 0.18995(15) 0.8905(2) 0.6321(3)
H8 H 0.1910 0.8482 0.6348
C17 C 0.20442(16) 0.9194(2) 0.5715(3)
H9 H 0.2149 0.8971 0.5322
C18 C 0.20379(15) 0.9833(2) 0.5671(3)
H10 H 0.2139 1.0029 0.5250
C19 C 0.18878(14) 1.0158(2) 0.6227(3)
H11 H 0.1890 1.0580 0.6193
C20 C 0.17263(13) 0.98786(18) 0.6863(3)
C21 C 0.15558(14) 1.02034(17) 0.7421(3)
H12 H 0.1555 1.0626 0.7390
C22 C 0.13829(13) 0.99259(17) 0.8032(2)
C23 C 0.12732(13) 0.83122(16) 0.8826(2)
C24 C 0.16258(13) 0.80817(16) 0.9542(2)
C25 C 0.19704(13) 0.84476(17) 1.0089(2)
H13 H 0.1966 0.8861 0.9965
C26 C 0.23136(14) 0.82272(17) 1.0796(3)
C27 C 0.26728(15) 0.85956(19) 1.1344(3)
H14 H 0.2681 0.9008 1.1219
C28 C 0.29975(16) 0.8359(2) 1.2033(3)
H15 H 0.3227 0.8610 1.2382
C29 C 0.30005(16) 0.7742(2) 1.2243(3)
H16 H 0.3229 0.7587 1.2730
C30 C 0.26733(15) 0.7373(2) 1.1741(3)
H17 H 0.2679 0.6963 1.1886
C31 C 0.23203(14) 0.75936(17) 1.0997(3)
C32 C 0.19910(14) 0.72254(17) 1.0465(3)
H18 H 0.1999 0.6813 1.0596
C33 C 0.16437(14) 0.74417(16) 0.9733(3)
C34 C 0.13199(13) 0.70545(17) 0.9166(3)
C35 C 0.10058(13) 0.72776(17) 0.8390(3)
C36 C 0.07218(14) 0.68944(17) 0.7759(3)
H19 H 0.0741 0.6478 0.7866
C37 C 0.04160(14) 0.71002(17) 0.6988(3)
C38 C 0.01355(15) 0.6708(2) 0.6334(3)
H20 H 0.0158 0.6289 0.6424
C39 C -0.01585(16) 0.6926(2) 0.5595(3)
H21 H -0.0335 0.6658 0.5169
C40 C -0.02075(16) 0.7552(2) 0.5446(3)
H22 H -0.0419 0.7697 0.4927
C41 C 0.00445(14) 0.7943(2) 0.6040(3)
H23 H 0.0007 0.8358 0.5928
C42 C 0.03702(13) 0.77411(18) 0.6840(3)
C43 C 0.06421(13) 0.81255(17) 0.7453(3)
H24 H 0.0607 0.8542 0.7353
C44 C 0.09720(13) 0.79219(16) 0.8226(3)
C45 C 0.11984(14) 1.09079(17) 0.8539(3)
C46 C 0.12032(15) 1.14434(18) 0.8506(3)
C47 C 0.09325(18) 1.2617(2) 0.9130(3)
H25 H 0.0954 1.3059 0.9077
C48 C 0.0435(2) 1.2451(4) 0.8778(5)
H26 H 0.0403 1.2017 0.8782
H27 H 0.0307 1.2599 0.8182
H28 H 0.0276 1.2631 0.9146
C49 C 0.1123(2) 1.2461(3) 1.0107(3)
H29 H 0.0926 1.2624 1.0413
H30 H 0.1423 1.2633 1.0351
H31 H 0.1141 1.2028 1.0178
C50 C 0.18858(17) 1.2426(2) 0.8963(3)
H32 H 0.1961 1.2335 0.9596
C51 C 0.2001(2) 1.3088(3) 0.8908(6)
H33 H 0.2323 1.3148 0.9193
H34 H 0.1832 1.3329 0.9199
H35 H 0.1921 1.3207 0.8297
C52 C 0.22000(18) 1.2029(3) 0.8626(4)
H36 H 0.2161 1.2128 0.8019
H37 H 0.2125 1.1609 0.8668
H38 H 0.2512 1.2099 0.8980
C53 C 0.10180(18) 1.2490(2) 0.7275(3)
H39 H 0.0718 1.2294 0.7056
C54 C 0.0930(3) 1.3169(3) 0.7132(4)
H40 H 0.1217 1.3381 0.7294
H41 H 0.0753 1.3308 0.7493
H42 H 0.0765 1.3244 0.6519
C55 C 0.12901(19) 1.2249(3) 0.6712(3)
H43 H 0.1133 1.2339 0.6099
H44 H 0.1325 1.1817 0.6790
H45 H 0.1586 1.2438 0.6887
C56 C 0.13219(14) 0.64259(17) 0.9378(3)
C57 C 0.13271(15) 0.59075(19) 0.9582(3)
C58 C 0.2020(2) 0.5039(3) 1.0551(4)
H46 H 0.2181 0.5163 1.0137
C59 C 0.2185(3) 0.5456(3) 1.1321(6)
H47 H 0.2083 0.5312 1.1797
H48 H 0.2065 0.5856 1.1150
H49 H 0.2513 0.5470 1.1515
C60 C 0.2182(3) 0.4408(3) 1.0835(5)
H50 H 0.2506 0.4413 1.1137
H51 H 0.2118 0.4150 1.0323
H52 H 0.2028 0.4255 1.1228
C61 C 0.1063(2) 0.4949(3) 1.0673(5)
H53 H 0.1261 0.5067 1.1265
C62 C 0.0642(3) 0.5276(4) 1.0533(6)
H54 H 0.0446 0.5213 0.9935
H55 H 0.0706 0.5702 1.0630
H56 H 0.0492 0.5131 1.0939
C63 C 0.0978(4) 0.4258(4) 1.0725(7)
H57 H 0.0902 0.4172 1.1253
H58 H 0.1250 0.4039 1.0741
H59 H 0.0731 0.4136 1.0214
C64 C 0.1231(2) 0.4662(2) 0.8876(4)
H60 H 0.1259 0.4233 0.9051
C65 C 0.0738(3) 0.4762(3) 0.8319(6)
H61 H 0.0693 0.5182 0.8151
H62 H 0.0541 0.4655 0.8657
H63 H 0.0667 0.4514 0.7796
C66 C 0.1561(3) 0.4768(3) 0.8352(4)
H64 H 0.1470 0.4525 0.7823
H65 H 0.1865 0.4657 0.8709
H66 H 0.1556 0.5190 0.8194
loop_
_geom_bond_atom_site_label_1
_geom_bond_atom_site_label_2
_geom_bond_site_symmetry_1
_geom_bond_site_symmetry_2
Si1 C46 1_555 1_555
Si2 C57 1_555 1_555
C1 C2 1_555 1_555
C2 C3 1_555 1_555
C3 H1 1_555 1_555
C4 C3 1_555 1_555
C5 C4 1_555 1_555
H2 C5 1_555 1_555
C6 C5 1_555 1_555
H3 C6 1_555 1_555
C7 C6 1_555 1_555
H4 C7 1_555 1_555
C8 C7 1_555 1_555
H5 C8 1_555 1_555
C9 C4 1_555 1_555
C10 C9 1_555 1_555
H6 C10 1_555 1_555
C11 C2 1_555 1_555
C12 C11 1_555 1_555
C13 C12 1_555 1_555
C14 C13 1_555 1_555
H7 C14 1_555 1_555
C15 C14 1_555 1_555
C16 C15 1_555 1_555
H8 C16 1_555 1_555
C17 C16 1_555 1_555
H9 C17 1_555 1_555
C18 C17 1_555 1_555
H10 C18 1_555 1_555
C19 C18 1_555 1_555
H11 C19 1_555 1_555
C20 C15 1_555 1_555
C21 C20 1_555 1_555
H12 C21 1_555 1_555
C22 C1 1_555 1_555
C23 C12 1_555 1_555
C24 C23 1_555 1_555
C25 C24 1_555 1_555
H13 C25 1_555 1_555
C26 C25 1_555 1_555
C27 C26 1_555 1_555
H14 C27 1_555 1_555
C28 C27 1_555 1_555
H15 C28 1_555 1_555
C29 C28 1_555 1_555
H16 C29 1_555 1_555
C30 C29 1_555 1_555
H17 C30 1_555 1_555
C31 C26 1_555 1_555
C32 C31 1_555 1_555
H18 C32 1_555 1_555
C33 C24 1_555 1_555
C34 C33 1_555 1_555
C35 C34 1_555 1_555
C36 C35 1_555 1_555
H19 C36 1_555 1_555
C37 C36 1_555 1_555
C38 C37 1_555 1_555
H20 C38 1_555 1_555
C39 C38 1_555 1_555
H21 C39 1_555 1_555
C40 C39 1_555 1_555
H22 C40 1_555 1_555
C41 C40 1_555 1_555
H23 C41 1_555 1_555
C42 C37 1_555 1_555
C43 C42 1_555 1_555
H24 C43 1_555 1_555
C44 C23 1_555 1_555
C45 C1 1_555 1_555
C46 C45 1_555 1_555
C47 Si1 1_555 1_555
H25 C47 1_555 1_555
C48 C47 1_555 1_555
H26 C48 1_555 1_555
H27 C48 1_555 1_555
H28 C48 1_555 1_555
C49 C47 1_555 1_555
H29 C49 1_555 1_555
H30 C49 1_555 1_555
H31 C49 1_555 1_555
C50 Si1 1_555 1_555
H32 C50 1_555 1_555
C51 C50 1_555 1_555
H33 C51 1_555 1_555
H34 C51 1_555 1_555
H35 C51 1_555 1_555
C52 C50 1_555 1_555
H36 C52 1_555 1_555
H37 C52 1_555 1_555
H38 C52 1_555 1_555
C53 Si1 1_555 1_555
H39 C53 1_555 1_555
C54 C53 1_555 1_555
H40 C54 1_555 1_555
H41 C54 1_555 1_555
H42 C54 1_555 1_555
C55 C53 1_555 1_555
H43 C55 1_555 1_555
H44 C55 1_555 1_555
H45 C55 1_555 1_555
C56 C34 1_555 1_555
C57 C56 1_555 1_555
C58 Si2 1_555 1_555
H46 C58 1_555 1_555
C59 C58 1_555 1_555
H47 C59 1_555 1_555
H48 C59 1_555 1_555
H49 C59 1_555 1_555
C60 C58 1_555 1_555
H50 C60 1_555 1_555
H51 C60 1_555 1_555
H52 C60 1_555 1_555
C61 Si2 1_555 1_555
H53 C61 1_555 1_555
C62 C61 1_555 1_555
H54 C62 1_555 1_555
H55 C62 1_555 1_555
H56 C62 1_555 1_555
C63 C61 1_555 1_555
H57 C63 1_555 1_555
H58 C63 1_555 1_555
H59 C63 1_555 1_555
C64 Si2 1_555 1_555
H60 C64 1_555 1_555
C65 C64 1_555 1_555
H61 C65 1_555 1_555
H62 C65 1_555 1_555
H63 C65 1_555 1_555
C66 C64 1_555 1_555
H64 C66 1_555 1_555
H65 C66 1_555 1_555
H66 C66 1_555 1_555
C8 C9 1_555 1_555
C10 C11 1_555 1_555
C13 C22 1_555 1_555
C19 C20 1_555 1_555
C21 C22 1_555 1_555
C30 C31 1_555 1_555
C32 C33 1_555 1_555
C35 C44 1_555 1_555
C41 C42 1_555 1_555
C43 C44 1_555 1_555

#END
