
#######################################################################
#
#                 Cambridge Crystallographic Data Centre
#                                CCDC 
#
#######################################################################
#
# If this CIF has been generated from an entry in the Cambridge 
# Structural Database, then it will include bibliographic, chemical, 
# crystal, experimental, refinement or atomic coordinate data resulting 
# from the CCDC's data processing and validation procedures.
#
#######################################################################

data_NUSGEN
_chemical_formula_moiety         'C15 H24 O4'
_chemical_name_systematic        
'Cyclopent-3-ene-1,1-dicarboxylic acid di-t-butyl ester'
_symmetry_cell_setting           triclinic
_symmetry_space_group_name_H-M   'P -1'
_symmetry_Int_Tables_number      2
_space_group_name_Hall           '-P 1'
loop_
_symmetry_equiv_pos_site_id
_symmetry_equiv_pos_as_xyz
1 x,y,z
2 -x,-y,-z
_cell_length_a                   9.0518(10)
_cell_length_b                   9.1364(10)
_cell_length_c                   11.0770(12)
_cell_angle_alpha                108.572(2)
_cell_angle_beta                 96.583(2)
_cell_angle_gamma                115.004(1)
_cell_volume                     753.131
_exptl_crystal_colour            colorless
_exptl_crystal_description       block
_cell_formula_units_Z            2
loop_
_atom_site_label
_atom_site_type_symbol
_atom_site_fract_x
_atom_site_fract_y
_atom_site_fract_z
O1 O 0.19318(14) 0.27370(15) 0.79908(11)
O2 O 0.33506(14) 0.04381(15) 0.70334(11)
O3 O 0.2061(2) 0.3311(2) 0.61479(12)
O4 O 0.5557(2) 0.2389(2) 0.88943(12)
C1 C 0.4545(2) 0.2058(2) 0.7905(2)
C2 C 0.2684(2) 0.3131(2) 0.7075(2)
C3 C 0.0140(2) 0.2346(2) 0.7872(2)
C4 C 0.4496(2) 0.3428(2) 0.7422(2)
C5 C 0.3004(2) -0.1152(2) 0.7301(2)
C6 C -0.1020(3) 0.0740(3) 0.6588(2)
C7 C 0.5193(2) 0.3322(2) 0.6193(2)
C8 C 0.5666(2) 0.5359(2) 0.8485(2)
C9 C -0.0176(2) 0.1936(3) 0.9071(2)
C10 C 0.1587(3) -0.2629(3) 0.6074(2)
C11 C 0.6521(2) 0.5192(3) 0.6540(2)
C12 C 0.6764(2) 0.6266(2) 0.7756(2)
C13 C -0.0004(3) 0.3974(3) 0.7979(2)
C14 C 0.2429(3) -0.0976(3) 0.8544(2)
C15 C 0.4553(3) -0.1406(3) 0.7398(2)
H1 H -0.1370(26) 0.1599(25) 0.9050(18)
H2 H 0.0609(26) 0.2950(27) 0.9907(21)
H3 H 0.0130(27) 0.4239(28) 0.7185(22)
H4 H 0.1268(26) -0.3782(29) 0.6147(20)
H5 H 0.4975(26) 0.5911(26) 0.8823(20)
H6 H 0.0848(29) 0.4974(31) 0.8772(23)
H7 H 0.4268(26) 0.2866(25) 0.5384(20)
H8 H 0.0604(32) -0.2475(30) 0.6021(23)
H9 H 0.4171(29) -0.2574(33) 0.7400(22)
H10 H 0.7550(27) 0.7539(30) 0.8157(21)
H11 H 0.0018(28) 0.0920(31) 0.9031(21)
H12 H 0.6349(25) 0.5368(25) 0.9270(20)
H13 H -0.2204(32) 0.0439(30) 0.6572(22)
H14 H 0.5673(27) 0.2532(29) 0.6049(21)
H15 H 0.3341(31) 0.0035(33) 0.9316(24)
H16 H 0.4989(32) -0.1326(32) 0.6616(26)
H17 H 0.5503(30) -0.0488(30) 0.8211(23)
H18 H -0.0801(27) 0.0990(29) 0.5816(23)
H19 H -0.1123(36) 0.3761(34) 0.8083(26)
H20 H 0.7105(27) 0.5512(27) 0.5894(21)
H21 H 0.1964(29) -0.2667(29) 0.5241(23)
H22 H 0.1417(35) -0.0818(34) 0.8424(25)
H23 H 0.2114(31) -0.2082(35) 0.8653(24)
H24 H -0.0868(27) -0.0249(30) 0.6576(21)
loop_
_geom_bond_atom_site_label_1
_geom_bond_atom_site_label_2
_geom_bond_site_symmetry_1
_geom_bond_site_symmetry_2
O1 C2 1_555 1_555
O2 C1 1_555 1_555
O3 C2 1_555 1_555
O4 C1 1_555 1_555
C1 C4 1_555 1_555
C2 C4 1_555 1_555
C3 O1 1_555 1_555
C4 C7 1_555 1_555
C5 O2 1_555 1_555
C6 C3 1_555 1_555
C7 C11 1_555 1_555
C8 C4 1_555 1_555
C9 C3 1_555 1_555
C10 C5 1_555 1_555
C11 C12 1_555 1_555
C12 C8 1_555 1_555
C13 C3 1_555 1_555
C14 C5 1_555 1_555
C15 C5 1_555 1_555
H1 C9 1_555 1_555
H2 C9 1_555 1_555
H3 C13 1_555 1_555
H4 C10 1_555 1_555
H5 C8 1_555 1_555
H6 C13 1_555 1_555
H7 C7 1_555 1_555
H8 C10 1_555 1_555
H9 C15 1_555 1_555
H10 C12 1_555 1_555
H11 C9 1_555 1_555
H12 C8 1_555 1_555
H13 C6 1_555 1_555
H14 C7 1_555 1_555
H15 C14 1_555 1_555
H16 C15 1_555 1_555
H17 C15 1_555 1_555
H18 C6 1_555 1_555
H19 C13 1_555 1_555
H20 C11 1_555 1_555
H21 C10 1_555 1_555
H22 C14 1_555 1_555
H23 C14 1_555 1_555
H24 C6 1_555 1_555

#END
