
#######################################################################
#
#                 Cambridge Crystallographic Data Centre
#                                CCDC 
#
#######################################################################
#
# If this CIF has been generated from an entry in the Cambridge 
# Structural Database, then it will include bibliographic, chemical, 
# crystal, experimental, refinement or atomic coordinate data resulting 
# from the CCDC's data processing and validation procedures.
#
#######################################################################

data_NUSGOZ
_chemical_formula_moiety         'C20 H19 Cl1 N2 O4'
_chemical_name_systematic        
'Ethyl 4-(4-chlorophenyl)-1-(4-methoxyphenyl)-6-oxo-1,4,5,6-tetrahydropyridazine-3-carboxylate'
_symmetry_cell_setting           monoclinic
_symmetry_space_group_name_H-M   'P 21'
_symmetry_Int_Tables_number      4
_space_group_name_Hall           'P 2yb'
loop_
_symmetry_equiv_pos_site_id
_symmetry_equiv_pos_as_xyz
1 x,y,z
2 -x,1/2+y,-z
_cell_length_a                   8.708(4)
_cell_length_b                   6.286(3)
_cell_length_c                   17.049(8)
_cell_angle_alpha                90
_cell_angle_beta                 92.583(7)
_cell_angle_gamma                90
_cell_volume                     932.288
_exptl_crystal_colour            colorless
_exptl_crystal_description       rod
_cell_formula_units_Z            2
loop_
_atom_site_label
_atom_site_type_symbol
_atom_site_fract_x
_atom_site_fract_y
_atom_site_fract_z
Cl1 Cl 0.84035(13) 0.7443(3) 0.00200(6)
O1 O 0.6867(3) 0.0504(4) 0.32152(13)
O2 O 0.1018(3) 0.4715(5) 0.17188(15)
O3 O 0.1411(2) 0.6642(4) 0.28237(13)
O4 O 0.8636(3) 0.6050(4) 0.60399(13)
N1 N 0.3901(3) 0.4378(4) 0.32011(15)
N2 N 0.5233(3) 0.3255(4) 0.33949(15)
C1 C 0.3887(3) 0.2535(5) 0.19179(17)
H1 H 0.3041 0.2033 0.1567
C2 C 0.3254(3) 0.4038(5) 0.25138(18)
C3 C 0.5678(3) 0.1413(5) 0.30203(17)
C4 C 0.4556(4) 0.0649(5) 0.23829(19)
H2 H 0.3732 -0.0136 0.2615
H3 H 0.5074 -0.0301 0.2033
C5 C 0.5047(3) 0.3727(5) 0.14345(18)
C6 C 0.4615(4) 0.5629(6) 0.10597(19)
H4 H 0.3620 0.6138 0.1105
C7 C 0.5628(5) 0.6762(6) 0.0625(2)
H5 H 0.5324 0.8023 0.0378
C8 C 0.7117(4) 0.5992(8) 0.0561(2)
C9 C 0.7568(4) 0.4117(9) 0.0908(2)
H6 H 0.8557 0.3598 0.0851
C10 C 0.6531(4) 0.2998(8) 0.1347(2)
H7 H 0.6840 0.1731 0.1588
C11 C 0.1779(3) 0.5165(5) 0.23111(17)
C12 C -0.0080(3) 0.7672(6) 0.2669(2)
H8 H -0.0457 0.8215 0.3157
H9 H -0.0814 0.6635 0.2460
C13 C 0.0053(5) 0.9455(7) 0.2099(3)
H10 H 0.0338 0.8899 0.1601
H11 H 0.0823 1.0439 0.2292
H12 H -0.0918 1.0173 0.2035
C14 C 0.6091(3) 0.4016(5) 0.40798(17)
C15 C 0.6824(3) 0.5956(5) 0.40477(18)
H13 H 0.6745 0.6760 0.3590
C16 C 0.7681(4) 0.6715(5) 0.46963(18)
H14 H 0.8176 0.8024 0.4675
C17 C 0.7789(3) 0.5495(5) 0.53770(17)
C18 C 0.7032(3) 0.3554(5) 0.54137(18)
H15 H 0.7096 0.2756 0.5873
C19 C 0.6178(3) 0.2806(5) 0.47604(17)
H16 H 0.5670 0.1506 0.4780
C20 C 0.9650(4) 0.7837(6) 0.5983(2)
H17 H 1.0314 0.7619 0.5556
H18 H 1.0257 0.7981 0.6464
H19 H 0.9056 0.9107 0.5891
loop_
_geom_bond_atom_site_label_1
_geom_bond_atom_site_label_2
_geom_bond_site_symmetry_1
_geom_bond_site_symmetry_2
Cl1 C8 1_555 1_555
O1 C3 1_555 1_555
O2 C11 1_555 1_555
O3 C11 1_555 1_555
O4 C17 1_555 1_555
N1 N2 1_555 1_555
N2 C3 1_555 1_555
C1 H1 1_555 1_555
C2 N1 1_555 1_555
C3 C4 1_555 1_555
C4 C1 1_555 1_555
H2 C4 1_555 1_555
H3 C4 1_555 1_555
C5 C1 1_555 1_555
C6 C5 1_555 1_555
H4 C6 1_555 1_555
C7 C6 1_555 1_555
H5 C7 1_555 1_555
C8 C7 1_555 1_555
C9 C8 1_555 1_555
H6 C9 1_555 1_555
C10 C5 1_555 1_555
H7 C10 1_555 1_555
C11 C2 1_555 1_555
C12 O3 1_555 1_555
H8 C12 1_555 1_555
H9 C12 1_555 1_555
C13 C12 1_555 1_555
H10 C13 1_555 1_555
H11 C13 1_555 1_555
H12 C13 1_555 1_555
C14 N2 1_555 1_555
C15 C14 1_555 1_555
H13 C15 1_555 1_555
C16 C15 1_555 1_555
H14 C16 1_555 1_555
C17 C16 1_555 1_555
C18 C17 1_555 1_555
H15 C18 1_555 1_555
C19 C14 1_555 1_555
H16 C19 1_555 1_555
C20 O4 1_555 1_555
H17 C20 1_555 1_555
H18 C20 1_555 1_555
H19 C20 1_555 1_555
C1 C2 1_555 1_555
C9 C10 1_555 1_555
C18 C19 1_555 1_555

#END
