
#######################################################################
#
#                 Cambridge Crystallographic Data Centre
#                                CCDC 
#
#######################################################################
#
# If this CIF has been generated from an entry in the Cambridge 
# Structural Database, then it will include bibliographic, chemical, 
# crystal, experimental, refinement or atomic coordinate data resulting 
# from the CCDC's data processing and validation procedures.
#
#######################################################################

data_NUSKOD
_chemical_formula_moiety         'C24 H30 Cl1 N5 O6,H2 O1'
_chemical_name_systematic        
'2-Hydroxyethyl 2-(4-(((6-chloropyridin-3-yl)methyl)(ethyl)amino)-3-methyl-5-nitro-3,6-dihydropyrimidin-1(2H)-yl)-3-(4-hydroxyphenyl)propanoate monohydrate'
_symmetry_cell_setting           monoclinic
_symmetry_space_group_name_H-M   'P 21'
_symmetry_Int_Tables_number      4
_space_group_name_Hall           'P 2yb'
loop_
_symmetry_equiv_pos_site_id
_symmetry_equiv_pos_as_xyz
1 x,y,z
2 -x,1/2+y,-z
_cell_length_a                   8.2068(8)
_cell_length_b                   13.7427(13)
_cell_length_c                   10.9809(11)
_cell_angle_alpha                90
_cell_angle_beta                 93.496(2)
_cell_angle_gamma                90
_cell_volume                     1236.16
_cell_formula_units_Z            2
loop_
_atom_site_label
_atom_site_type_symbol
_atom_site_fract_x
_atom_site_fract_y
_atom_site_fract_z
C1 C 0.6016(3) 0.9398(2) 0.91924(19)
C2 C 0.6164(3) 0.86143(19) 0.8407(2)
H1 H 0.6856 0.8078 0.8615
C3 C 0.5250(3) 0.86540(18) 0.7303(2)
H2 H 0.5319 0.8142 0.6727
C4 C 0.4232(3) 0.94451(19) 0.70397(18)
C5 C 0.4197(3) 1.01872(17) 0.7904(2)
H3 H 0.3517 1.0735 0.7727
C6 C 0.3083(3) 0.9492(2) 0.58985(19)
H4 H 0.2261 0.8967 0.5930
H5 H 0.2498 1.0122 0.5880
C7 C 0.5368(3) 1.00347(17) 0.4635(2)
H6 H 0.5811 0.9923 0.3828
H7 H 0.6238 0.9881 0.5270
C8 C 0.4874(3) 1.10988(19) 0.4744(2)
H8 H 0.4047 1.1259 0.4093
H9 H 0.5834 1.1514 0.4670
H10 H 0.4424 1.1208 0.5539
C9 C 0.3434(3) 0.87607(17) 0.38965(19)
C10 C 0.3837(3) 0.78426(18) 0.18977(19)
H11 H 0.4464 0.8124 0.1241
H12 H 0.3974 0.7127 0.1888
C11 C 0.1309(3) 0.78587(19) 0.28138(18)
H13 H 0.1658 0.7208 0.3117
H14 H 0.0109 0.7856 0.2656
C12 C 0.0637(3) 0.9419(2) 0.3799(2)
H15 H 0.1213 0.9998 0.4120
H16 H -0.0211 0.9236 0.4347
H17 H 0.0132 0.9561 0.2987
C13 C 0.1253(3) 0.77740(18) 0.05654(19)
H18 H 0.0276 0.8202 0.0418
C14 C 0.0642(3) 0.67233(18) 0.05880(19)
C15 C -0.1352(3) 0.56636(19) -0.0359(2)
H19 H -0.1750 0.5406 0.0411
H20 H -0.0500 0.5219 -0.0636
C16 C -0.2739(3) 0.5741(2) -0.1316(2)
H21 H -0.2320 0.6018 -0.2068
H22 H -0.3154 0.5079 -0.1512
C17 C 0.2353(3) 0.79222(18) -0.05154(19)
H23 H 0.2719 0.8609 -0.0523
H24 H 0.3335 0.7508 -0.0387
C18 C 0.1517(3) 0.76812(17) -0.17437(18)
C19 C 0.1987(3) 0.68671(18) -0.2378(2)
H25 H 0.2854 0.6473 -0.2045
C20 C 0.1204(3) 0.66166(18) -0.3503(2)
H26 H 0.1546 0.6059 -0.3931
C21 C -0.0071(3) 0.71853(17) -0.39927(19)
C22 C -0.0541(3) 0.80191(18) -0.3366(2)
H27 H -0.1404 0.8416 -0.3701
C23 C 0.0254(3) 0.82637(18) -0.22561(19)
H28 H -0.0062 0.8833 -0.1840
Cl1 Cl 0.71059(7) 0.93725(5) 1.06103(5)
N1 N 0.5082(3) 1.01642(16) 0.89773(18)
N2 N 0.3966(2) 0.93881(16) 0.47760(15)
N3 N 0.2107(2) 0.80960(15) 0.17041(16)
N4 N 0.1799(2) 0.86137(15) 0.37161(16)
C24 C 0.4450(3) 0.82468(17) 0.31192(18)
N5 N 0.6024(2) 0.79944(14) 0.34609(16)
O1 O 0.6674(2) 0.81862(13) 0.45227(14)
O2 O 0.6828(2) 0.75253(13) 0.27200(15)
O3 O 0.1249(2) 0.60682(14) 0.11927(16)
O4 O -0.0692(2) 0.66334(13) -0.01707(15)
O5 O -0.4043(2) 0.63213(14) -0.09579(18)
H29 H -0.4897 0.5984 -0.0962
O6 O -0.0812(2) 0.69066(14) -0.50827(14)
H30 H -0.1588 0.7287 -0.5272
O7 O 0.0878(6) 0.5396(3) 0.3663(4)
H31 H 0.0399 0.5824 0.4021
H32 H 0.0985 0.5585 0.2964
loop_
_geom_bond_atom_site_label_1
_geom_bond_atom_site_label_2
_geom_bond_site_symmetry_1
_geom_bond_site_symmetry_2
C1 C2 1_555 1_555
C2 H1 1_555 1_555
C3 C2 1_555 1_555
H2 C3 1_555 1_555
C4 C3 1_555 1_555
C5 C4 1_555 1_555
H3 C5 1_555 1_555
C6 C4 1_555 1_555
H4 C6 1_555 1_555
H5 C6 1_555 1_555
C7 H6 1_555 1_555
H7 C7 1_555 1_555
C8 C7 1_555 1_555
H8 C8 1_555 1_555
H9 C8 1_555 1_555
H10 C8 1_555 1_555
C9 N2 1_555 1_555
C10 H11 1_555 1_555
H12 C10 1_555 1_555
C11 H13 1_555 1_555
H14 C11 1_555 1_555
C12 H15 1_555 1_555
H16 C12 1_555 1_555
H17 C12 1_555 1_555
C13 H18 1_555 1_555
C14 C13 1_555 1_555
C15 H19 1_555 1_555
H20 C15 1_555 1_555
C16 C15 1_555 1_555
H21 C16 1_555 1_555
H22 C16 1_555 1_555
C17 C13 1_555 1_555
H23 C17 1_555 1_555
H24 C17 1_555 1_555
C18 C17 1_555 1_555
C19 C18 1_555 1_555
H25 C19 1_555 1_555
C20 C19 1_555 1_555
H26 C20 1_555 1_555
C21 C20 1_555 1_555
C22 C21 1_555 1_555
H27 C22 1_555 1_555
C23 C18 1_555 1_555
H28 C23 1_555 1_555
Cl1 C1 1_555 1_555
N1 C1 1_555 1_555
N2 C6 1_555 1_555
N3 C10 1_555 1_555
N4 C9 1_555 1_555
C24 C9 1_555 1_555
N5 C24 1_555 1_555
O1 N5 1_555 1_555
O2 N5 1_555 1_555
O3 C14 1_555 1_555
O4 C14 1_555 1_555
O5 C16 1_555 1_555
H29 O5 1_555 1_555
O6 C21 1_555 1_555
H30 O6 1_555 1_555
O7 H31 1_555 1_555
H32 O7 1_555 1_555
C5 N1 1_555 1_555
C7 N2 1_555 1_555
C10 C24 1_555 1_555
C11 N3 1_555 1_555
C11 N4 1_555 1_555
C12 N4 1_555 1_555
C13 N3 1_555 1_555
C15 O4 1_555 1_555
C22 C23 1_555 1_555

#END
