
#######################################################################
#
#                 Cambridge Crystallographic Data Centre
#                                CCDC 
#
#######################################################################
#
# If this CIF has been generated from an entry in the Cambridge 
# Structural Database, then it will include bibliographic, chemical, 
# crystal, experimental, refinement or atomic coordinate data resulting 
# from the CCDC's data processing and validation procedures.
#
#######################################################################

data_NUSMIZ
_chemical_formula_moiety         'C7 H6 O4,C5 H5 N3 O1'
_chemical_name_systematic        
'3,4-dihydroxybenzoic acid pyrazine-2-carboxamide'
_symmetry_cell_setting           triclinic
_symmetry_space_group_name_H-M   'P -1'
_symmetry_Int_Tables_number      2
_space_group_name_Hall           '-P 1'
loop_
_symmetry_equiv_pos_site_id
_symmetry_equiv_pos_as_xyz
1 x,y,z
2 -x,-y,-z
_cell_length_a                   6.9830(14)
_cell_length_b                   11.069(2)
_cell_length_c                   16.590(3)
_cell_angle_alpha                79.67(3)
_cell_angle_beta                 77.92(3)
_cell_angle_gamma                89.98(3)
_cell_volume                     1232.68
_exptl_crystal_colour            colorless
_exptl_crystal_description       block
_cell_formula_units_Z            4
loop_
_atom_site_label
_atom_site_type_symbol
_atom_site_fract_x
_atom_site_fract_y
_atom_site_fract_z
O1 O 1.2206(8) -0.1249(6) 0.1869(3)
O2 O 1.2766(9) 0.0765(5) 0.1417(3)
H1 H 1.2947 0.0576 0.0951
O3 O 1.3552(10) 0.2476(5) 0.3918(3)
H2 H 1.4336 0.2860 0.3516
C1 C 1.2585(10) -0.0006(7) 0.2845(4)
O4 O 1.2865(11) 0.0545(5) 0.5207(3)
H3 H 1.2778 0.1276 0.5233
C2 C 1.2948(11) 0.1165(7) 0.2971(4)
H4 H 1.3070 0.1822 0.2525
C3 C 1.3135(11) 0.1383(7) 0.3759(4)
C4 C 1.2742(13) 0.0379(8) 0.4417(4)
C5 C 1.2344(14) -0.0763(8) 0.4292(5)
H5 H 1.2131 -0.1413 0.4745
C6 C 1.2472(12) -0.0248(8) 0.2002(5)
C7 C 1.2247(12) -0.0984(8) 0.3513(5)
H6 H 1.1962 -0.1771 0.3436
O5 O 0.9161(9) 0.4254(5) 0.8586(3)
H7 H 0.8513 0.4432 0.9018
O6 O 0.9047(8) 0.6253(5) 0.8144(3)
O7 O 1.2484(9) 0.2510(5) 0.6091(3)
H8 H 1.3597 0.2586 0.5800
C8 C 1.0416(10) 0.4998(7) 0.7154(4)
O8 O 1.2994(10) 0.4403(6) 0.4801(3)
H9 H 1.4061 0.4773 0.4634
C9 C 1.2170(12) 0.4620(8) 0.5573(4)
C10 C 1.1866(12) 0.3629(7) 0.6245(4)
C11 C 1.0940(11) 0.3828(7) 0.7024(4)
H10 H 1.0661 0.3169 0.7471
C12 C 1.0785(12) 0.5965(7) 0.6473(5)
H11 H 1.0442 0.6754 0.6551
C13 C 0.9491(11) 0.5251(8) 0.7989(4)
C14 C 1.1632(14) 0.5772(7) 0.5701(5)
H12 H 1.1854 0.6428 0.5251
O9 O 0.7542(8) -0.0439(5) 1.0067(3)
N1 N 0.7791(9) 0.1566(6) 1.1471(4)
N2 N 0.7641(9) -0.0647(6) 1.2569(3)
C15 C 0.7599(11) -0.0596(7) 1.1758(4)
H13 H 0.7516 -0.1322 1.1557
N3 N 0.7575(10) 0.1642(6) 0.9863(4)
H14 H 0.7567 0.1721 0.9339
H15 H 0.7590 0.2283 1.0088
C16 C 0.7677(10) 0.0512(7) 1.1221(4)
C17 C 0.7786(11) 0.0405(8) 1.2814(5)
H16 H 0.7836 0.0396 1.3371
C18 C 0.7866(12) 0.1509(8) 1.2293(5)
H17 H 0.7973 0.2230 1.2497
C19 C 0.7563(12) 0.0523(8) 1.0328(5)
O10 O 0.7427(8) 0.4575(5) 1.0059(3)
N4 N 0.5738(9) 0.6593(6) 1.1471(4)
N5 N 0.4783(9) 0.4349(6) 1.2567(3)
C20 C 0.5672(11) 0.4417(8) 1.1755(4)
H18 H 0.6001 0.3695 1.1555
C21 C 0.6093(10) 0.5496(7) 1.1228(4)
N6 N 0.7565(9) 0.6629(6) 0.9880(4)
H19 H 0.8141 0.6721 0.9360
H20 H 0.7289 0.7262 1.0110
C22 C 0.4378(11) 0.5393(7) 1.2807(5)
H21 H 0.3731 0.5387 1.3358
C23 C 0.4869(11) 0.6514(8) 1.2275(5)
H22 H 0.4584 0.7232 1.2485
C24 C 0.7112(11) 0.5535(8) 1.0316(4)
loop_
_geom_bond_atom_site_label_1
_geom_bond_atom_site_label_2
_geom_bond_site_symmetry_1
_geom_bond_site_symmetry_2
O1 C6 1_555 1_555
O2 H1 1_555 1_555
O3 H2 1_555 1_555
C1 C2 1_555 1_555
O4 H3 1_555 1_555
C2 H4 1_555 1_555
C3 O3 1_555 1_555
C4 O4 1_555 1_555
C5 C4 1_555 1_555
H5 C5 1_555 1_555
C6 O2 1_555 1_555
C7 C1 1_555 1_555
H6 C7 1_555 1_555
O5 H7 1_555 1_555
O6 C13 1_555 1_555
O7 H8 1_555 1_555
C8 C11 1_555 1_555
O8 H9 1_555 1_555
C9 O8 1_555 1_555
C10 O7 1_555 1_555
C11 C10 1_555 1_555
H10 C11 1_555 1_555
C12 C8 1_555 1_555
H11 C12 1_555 1_555
C13 O5 1_555 1_555
C14 C9 1_555 1_555
H12 C14 1_555 1_555
O9 C19 1_555 1_555
N1 C16 1_555 1_555
N2 C15 1_555 1_555
C15 H13 1_555 1_555
N3 H14 1_555 1_555
H15 N3 1_555 1_555
C16 C15 1_555 1_555
C17 N2 1_555 1_555
H16 C17 1_555 1_555
C18 N1 1_555 1_555
H17 C18 1_555 1_555
C19 N3 1_555 1_555
O10 C24 1_555 1_555
N4 C21 1_555 1_555
N5 C20 1_555 1_555
C20 H18 1_555 1_555
C21 C20 1_555 1_555
N6 H19 1_555 1_555
H20 N6 1_555 1_555
C22 N5 1_555 1_555
H21 C22 1_555 1_555
C23 N4 1_555 1_555
H22 C23 1_555 1_555
C24 C21 1_555 1_555
C1 C6 1_555 1_555
C2 C3 1_555 1_555
C3 C4 1_555 1_555
C5 C7 1_555 1_555
C8 C13 1_555 1_555
C9 C10 1_555 1_555
C12 C14 1_555 1_555
C16 C19 1_555 1_555
C17 C18 1_555 1_555
N6 C24 1_555 1_555
C22 C23 1_555 1_555

#END
