
#######################################################################
#
#                 Cambridge Crystallographic Data Centre
#                                CCDC 
#
#######################################################################
#
# If this CIF has been generated from an entry in the Cambridge 
# Structural Database, then it will include bibliographic, chemical, 
# crystal, experimental, refinement or atomic coordinate data resulting 
# from the CCDC's data processing and validation procedures.
#
#######################################################################

data_NUSPUN
_chemical_formula_moiety         'C23 H23 Cl1 N2 O7'
_chemical_name_systematic        
'Ethyl 3-(4-chlorophenyl)-4-methyl-5-(nitromethyl)-1,3,3a,4,5,10b-hexahydro[1,3]dioxolo[6,7]naphtho[2,1-c][1,2]oxazole-1-carboxylate'
_symmetry_cell_setting           orthorhombic
_symmetry_space_group_name_H-M   'P 21 21 21'
_symmetry_Int_Tables_number      19
_space_group_name_Hall           'P 2ac 2ab'
loop_
_symmetry_equiv_pos_site_id
_symmetry_equiv_pos_as_xyz
1 x,y,z
2 1/2-x,-y,1/2+z
3 1/2+x,1/2-y,-z
4 -x,1/2+y,1/2-z
_cell_length_a                   8.6544(4)
_cell_length_b                   13.4277(7)
_cell_length_c                   18.9466(9)
_cell_angle_alpha                90
_cell_angle_beta                 90
_cell_angle_gamma                90
_cell_volume                     2201.76
_exptl_crystal_colour            colorless
_exptl_crystal_description       block
_cell_formula_units_Z            4
loop_
_atom_site_label
_atom_site_type_symbol
_atom_site_fract_x
_atom_site_fract_y
_atom_site_fract_z
C1 C 0.2264(6) 0.7796(3) 0.2999(2)
H1 H 0.1336 0.7948 0.2733
H2 H 0.3146 0.8057 0.2742
C2 C 0.2694(4) 0.6601(3) 0.37849(17)
C3 C 0.2549(4) 0.7482(3) 0.41465(18)
C4 C 0.2733(5) 0.7538(3) 0.48691(19)
H3 H 0.2654 0.8141 0.5107
C5 C 0.3047(4) 0.6640(2) 0.52322(16)
C6 C 0.3206(4) 0.5754(3) 0.48576(17)
C7 C 0.3018(4) 0.5729(3) 0.41207(17)
H4 H 0.3112 0.5136 0.3871
C8 C 0.3571(4) 0.4795(2) 0.52470(18)
H5 H 0.3125 0.4245 0.4974
C9 C 0.5324(5) 0.4617(3) 0.52916(19)
H6 H 0.5805 0.5154 0.5555
H7 H 0.5525 0.3998 0.5539
C10 C 0.2808(5) 0.4786(2) 0.59790(17)
H8 H 0.1697 0.4878 0.5903
C11 C 0.3002(6) 0.3801(3) 0.63721(19)
H9 H 0.4075 0.3697 0.6477
H10 H 0.2630 0.3265 0.6083
H11 H 0.2422 0.3822 0.6804
C12 C 0.3363(4) 0.5675(3) 0.64094(16)
H12 H 0.4445 0.5570 0.6543
C13 C 0.3212(4) 0.6690(2) 0.60366(16)
H13 H 0.4128 0.7089 0.6149
C14 C 0.1811(4) 0.7167(2) 0.63966(17)
H14 H 0.1037 0.7325 0.6036
C15 C 0.2196(4) 0.8123(2) 0.68076(17)
C16 C 0.1010(6) 0.9460(3) 0.7434(2)
H15 H 0.0019 0.9796 0.7408
H16 H 0.1770 0.9875 0.7199
C17 C 0.1449(7) 0.9332(3) 0.8179(2)
H17 H 0.0790 0.8844 0.8394
H18 H 0.1340 0.9956 0.8422
H19 H 0.2504 0.9114 0.8207
C18 C 0.3133(4) 0.6041(2) 0.76992(17)
C19 C 0.4429(5) 0.5529(3) 0.79144(17)
H20 H 0.4852 0.5045 0.7621
C20 C 0.5117(5) 0.5724(3) 0.85650(18)
H21 H 0.6013 0.5392 0.8700
C21 C 0.4448(5) 0.6419(3) 0.90055(19)
C22 C 0.3119(5) 0.6902(3) 0.88066(18)
H22 H 0.2668 0.7360 0.9111
C23 C 0.2444(4) 0.6715(2) 0.81608(18)
H23 H 0.1534 0.7037 0.8034
Cl1 Cl 0.52343(16) 0.66446(9) 0.98382(5)
N1 N 0.6004(4) 0.4568(3) 0.45669(16)
N2 N 0.2415(3) 0.5762(2) 0.70557(13)
O1 O 0.2183(4) 0.82458(19) 0.36885(14)
O2 O 0.2413(3) 0.6753(2) 0.30834(12)
O3 O 0.6766(5) 0.5260(2) 0.43633(18)
O4 O 0.5687(4) 0.3850(2) 0.41971(16)
O5 O 0.3461(3) 0.84742(19) 0.68681(15)
O6 O 0.0907(3) 0.85022(19) 0.70726(13)
O7 O 0.1182(3) 0.64195(17) 0.68656(11)
loop_
_geom_bond_atom_site_label_1
_geom_bond_atom_site_label_2
_geom_bond_site_symmetry_1
_geom_bond_site_symmetry_2
C1 H1 1_555 1_555
H2 C1 1_555 1_555
C2 C3 1_555 1_555
C3 C4 1_555 1_555
C4 H3 1_555 1_555
C5 C4 1_555 1_555
C6 C5 1_555 1_555
C7 C2 1_555 1_555
H4 C7 1_555 1_555
C8 C6 1_555 1_555
H5 C8 1_555 1_555
C9 C8 1_555 1_555
H6 C9 1_555 1_555
H7 C9 1_555 1_555
C10 C8 1_555 1_555
H8 C10 1_555 1_555
C11 C10 1_555 1_555
H9 C11 1_555 1_555
H10 C11 1_555 1_555
H11 C11 1_555 1_555
C12 C10 1_555 1_555
H12 C12 1_555 1_555
C13 C5 1_555 1_555
H13 C13 1_555 1_555
C14 C13 1_555 1_555
H14 C14 1_555 1_555
C15 C14 1_555 1_555
C16 H15 1_555 1_555
H16 C16 1_555 1_555
C17 C16 1_555 1_555
H17 C17 1_555 1_555
H18 C17 1_555 1_555
H19 C17 1_555 1_555
C18 C19 1_555 1_555
C19 H20 1_555 1_555
C20 C19 1_555 1_555
H21 C20 1_555 1_555
C21 C20 1_555 1_555
C22 C21 1_555 1_555
H22 C22 1_555 1_555
C23 C18 1_555 1_555
H23 C23 1_555 1_555
Cl1 C21 1_555 1_555
N1 C9 1_555 1_555
N2 C12 1_555 1_555
O1 C1 1_555 1_555
O2 C1 1_555 1_555
O3 N1 1_555 1_555
O4 N1 1_555 1_555
O5 C15 1_555 1_555
O6 C15 1_555 1_555
O7 C14 1_555 1_555
C2 O2 1_555 1_555
C3 O1 1_555 1_555
C6 C7 1_555 1_555
C12 C13 1_555 1_555
C16 O6 1_555 1_555
C18 N2 1_555 1_555
C22 C23 1_555 1_555
N2 O7 1_555 1_555

#END
