
#######################################################################
#
#                 Cambridge Crystallographic Data Centre
#                                CCDC 
#
#######################################################################
#
# If this CIF has been generated from an entry in the Cambridge 
# Structural Database, then it will include bibliographic, chemical, 
# crystal, experimental, refinement or atomic coordinate data resulting 
# from the CCDC's data processing and validation procedures.
#
#######################################################################

data_NUSQID
_chemical_formula_moiety         'C27 H25 Br1 N2 O2,C3 H7 N1 O1'
_chemical_name_systematic        
't-butyl 5-(3-bromophenyl)-1,4-dihydronaphtho[2,1-c][2,7]naphthyridine-3(2H)-carboxylate N,N-dimethylformamide solvate'
_symmetry_cell_setting           triclinic
_symmetry_space_group_name_H-M   'P -1'
_symmetry_Int_Tables_number      2
_space_group_name_Hall           '-P 1'
loop_
_symmetry_equiv_pos_site_id
_symmetry_equiv_pos_as_xyz
1 x,y,z
2 -x,-y,-z
_cell_length_a                   11.3027(3)
_cell_length_b                   11.7909(4)
_cell_length_c                   12.2358(4)
_cell_angle_alpha                84.750(2)
_cell_angle_beta                 72.521(2)
_cell_angle_gamma                63.339(2)
_cell_volume                     1388.2
_exptl_crystal_colour            colorless
_exptl_crystal_description       block
_cell_formula_units_Z            2
loop_
_atom_site_label
_atom_site_type_symbol
_atom_site_fract_x
_atom_site_fract_y
_atom_site_fract_z
Br1 Br 0.42563(5) 0.06304(3) 0.20179(4)
O1 O 0.4161(2) 0.3792(2) 0.70552(18)
O2 O 0.2255(2) 0.4794(2) 0.85628(16)
N1 N 0.0852(2) 0.5634(2) 0.3545(2)
N2 N 0.2262(2) 0.5492(2) 0.68262(18)
C1 C -0.2510(3) 0.8232(3) 0.3727(3)
H1 H -0.3253 0.8413 0.3448
C2 C 0.4333(3) 0.2086(3) 0.2460(2)
C3 C 0.1788(3) 0.5907(2) 0.4958(2)
C4 C 0.3123(3) 0.3092(3) 0.3064(2)
H2 H 0.2279 0.3058 0.3245
C5 C 0.3194(3) 0.4147(3) 0.3392(2)
C6 C 0.1900(3) 0.5272(3) 0.3988(2)
C7 C -0.0271(3) 0.6757(3) 0.3934(2)
C8 C -0.0382(3) 0.7571(3) 0.4775(2)
C9 C 0.2997(3) 0.4613(3) 0.7452(2)
C10 C 0.0619(3) 0.7048(3) 0.5374(2)
C11 C 0.0480(3) 0.7555(3) 0.6522(2)
H3 H 0.1082 0.7962 0.6416
H4 H -0.0466 0.8184 0.6856
C12 C -0.1508(3) 0.8860(3) 0.4958(2)
C13 C 0.2877(3) 0.5377(3) 0.5581(2)
H5 H 0.3473 0.4489 0.5341
H6 H 0.3444 0.5829 0.5374
C14 C 0.4457(3) 0.4174(3) 0.3101(2)
H7 H 0.4508 0.4886 0.3310
C15 C -0.2572(3) 0.9160(3) 0.4443(3)
C16 C 0.5590(3) 0.2114(3) 0.2184(3)
H8 H 0.6393 0.1427 0.1785
C17 C -0.1550(3) 0.9856(3) 0.5549(3)
H9 H -0.0840 0.9694 0.5865
C18 C 0.0863(3) 0.6479(3) 0.7320(2)
H10 H 0.0800 0.6807 0.8045
H11 H 0.0214 0.6116 0.7471
C19 C 0.2845(4) 0.3992(4) 0.9446(3)
C20 C -0.1387(3) 0.7098(3) 0.3450(3)
H12 H -0.1335 0.6530 0.2938
C21 C 0.5645(3) 0.3159(3) 0.2503(3)
H13 H 0.6490 0.3190 0.2317
C22 C -0.3683(4) 1.1330(3) 0.5203(3)
H14 H -0.4415 1.2142 0.5303
C23 C -0.3657(3) 1.0400(4) 0.4596(3)
H15 H -0.4370 1.0590 0.4277
C24 C -0.2616(4) 1.1060(3) 0.5669(3)
H16 H -0.2620 1.1698 0.6067
C25 C 0.1675(5) 0.4592(6) 1.0527(3)
H17 H 0.0889 0.4487 1.0504
H18 H 0.1429 0.5482 1.0583
H19 H 0.1964 0.4190 1.1182
C26 C 0.4072(5) 0.4159(6) 0.9486(4)
H20 H 0.4818 0.3779 0.8799
H21 H 0.4359 0.3757 1.0141
H22 H 0.3824 0.5049 0.9542
C27 C 0.3179(9) 0.2658(5) 0.9213(5)
H23 H 0.3926 0.2329 0.8518
H24 H 0.2380 0.2619 0.9130
H25 H 0.3447 0.2160 0.9839
O3 O -0.0898(7) 1.1122(7) 0.1347(7)
N3 N 0.1028(5) 0.9417(6) 0.1315(4)
C28 C -0.0289(10) 0.9824(13) 0.1657(8)
H26 H -0.0764 0.9363 0.2037
C29 C 0.1781(12) 1.0003(14) 0.0808(7)
H27 H 0.1191 1.0895 0.0804
H28 H 0.2272 0.9663 0.0033
H29 H 0.2432 0.9881 0.1215
C30 C 0.1848(15) 0.8038(12) 0.1363(12)
H30 H 0.1242 0.7664 0.1743
H31 H 0.2499 0.7884 0.1779
H32 H 0.2338 0.7666 0.0597
loop_
_geom_bond_atom_site_label_1
_geom_bond_atom_site_label_2
_geom_bond_site_symmetry_1
_geom_bond_site_symmetry_2
Br1 C2 1_555 1_555
O1 C9 1_555 1_555
O2 C9 1_555 1_555
N1 C6 1_555 1_555
N2 C9 1_555 1_555
C1 H1 1_555 1_555
C2 C4 1_555 1_555
C3 C6 1_555 1_555
C4 H2 1_555 1_555
C5 C4 1_555 1_555
C6 C5 1_555 1_555
C7 N1 1_555 1_555
C8 C7 1_555 1_555
C10 C3 1_555 1_555
C11 C10 1_555 1_555
H3 C11 1_555 1_555
H4 C11 1_555 1_555
C12 C8 1_555 1_555
C13 N2 1_555 1_555
H5 C13 1_555 1_555
H6 C13 1_555 1_555
C14 C5 1_555 1_555
H7 C14 1_555 1_555
C15 C1 1_555 1_555
C16 C2 1_555 1_555
H8 C16 1_555 1_555
C17 C12 1_555 1_555
H9 C17 1_555 1_555
C18 N2 1_555 1_555
H10 C18 1_555 1_555
H11 C18 1_555 1_555
C19 O2 1_555 1_555
C20 C1 1_555 1_555
H12 C20 1_555 1_555
C21 C14 1_555 1_555
H13 C21 1_555 1_555
C22 H14 1_555 1_555
C23 C15 1_555 1_555
H15 C23 1_555 1_555
C24 C17 1_555 1_555
H16 C24 1_555 1_555
C25 C19 1_555 1_555
H17 C25 1_555 1_555
H18 C25 1_555 1_555
H19 C25 1_555 1_555
C26 C19 1_555 1_555
H20 C26 1_555 1_555
H21 C26 1_555 1_555
H22 C26 1_555 1_555
C27 C19 1_555 1_555
H23 C27 1_555 1_555
H24 C27 1_555 1_555
H25 C27 1_555 1_555
O3 C28 1_555 1_555
N3 C28 1_555 1_555
C28 H26 1_555 1_555
C29 N3 1_555 1_555
H27 C29 1_555 1_555
H28 C29 1_555 1_555
H29 C29 1_555 1_555
C30 N3 1_555 1_555
H30 C30 1_555 1_555
H31 C30 1_555 1_555
H32 C30 1_555 1_555
C3 C13 1_555 1_555
C7 C20 1_555 1_555
C8 C10 1_555 1_555
C11 C18 1_555 1_555
C12 C15 1_555 1_555
C16 C21 1_555 1_555
C22 C23 1_555 1_555
C22 C24 1_555 1_555

#END
