
#######################################################################
#
#                 Cambridge Crystallographic Data Centre
#                                CCDC 
#
#######################################################################
#
# If this CIF has been generated from an entry in the Cambridge 
# Structural Database, then it will include bibliographic, chemical, 
# crystal, experimental, refinement or atomic coordinate data resulting 
# from the CCDC's data processing and validation procedures.
#
#######################################################################

data_NUSQAV
_chemical_formula_moiety         'C24 H21 N1 O2 S1'
_chemical_name_systematic        
5-(3,5-dimethoxyphenyl)-1,4-dihydro-2H-benzo[f]thiopyrano[3,4-c]quinoline
_symmetry_cell_setting           monoclinic
_symmetry_space_group_name_H-M   'P 21/c'
_symmetry_Int_Tables_number      14
_space_group_name_Hall           '-P 2ybc'
loop_
_symmetry_equiv_pos_site_id
_symmetry_equiv_pos_as_xyz
1 x,y,z
2 -x,1/2+y,1/2-z
3 -x,-y,-z
4 x,1/2-y,1/2+z
_cell_length_a                   8.0812(6)
_cell_length_b                   20.3378(16)
_cell_length_c                   11.4913(8)
_cell_angle_alpha                90
_cell_angle_beta                 94.843(4)
_cell_angle_gamma                90
_cell_volume                     1881.9
_cell_formula_units_Z            4
loop_
_atom_site_label
_atom_site_type_symbol
_atom_site_fract_x
_atom_site_fract_y
_atom_site_fract_z
S1 S 0.38151(5) 0.56530(2) 0.07598(3)
C1 C 0.20972(17) 0.52392(7) 0.29528(12)
N1 N 0.11736(15) 0.39214(6) 0.31085(10)
C2 C 0.13784(17) 0.41894(7) 0.20760(12)
C3 C 0.1886(2) 0.51979(8) 0.08005(12)
H1 H 0.0956 0.5498 0.0669
H2 H 0.1805 0.4874 0.0178
C4 C 0.21666(17) 0.49358(7) 0.40660(11)
C5 C 0.27749(18) 0.52385(8) 0.51741(12)
O1 O 0.29917(14) 0.31189(6) -0.14250(9)
C6 C 0.10283(18) 0.37259(7) 0.10679(12)
C7 C 0.2465(2) 0.49123(8) 0.62252(12)
C8 C 0.17920(18) 0.48557(7) 0.19557(11)
C9 C 0.15709(18) 0.42841(7) 0.40829(12)
C10 C -0.04450(18) 0.33626(7) 0.10119(12)
H3 H -0.1199 0.3421 0.1571
C11 C 0.21463(19) 0.36347(8) 0.02380(12)
H4 H 0.3124 0.3877 0.0273
O2 O -0.21636(14) 0.25322(6) -0.00271(11)
C12 C 0.18032(19) 0.31773(7) -0.06526(12)
C13 C 0.1324(2) 0.39705(8) 0.51713(13)
H5 H 0.0890 0.3547 0.5173
C14 C 0.22249(19) 0.59679(7) 0.27256(12)
H6 H 0.2301 0.6200 0.3466
H7 H 0.1221 0.6114 0.2277
C15 C 0.1711(2) 0.42794(9) 0.61859(13)
H8 H 0.1483 0.4076 0.6880
C16 C 0.03502(19) 0.28181(7) -0.07198(13)
H9 H 0.0121 0.2514 -0.1317
C17 C -0.07657(19) 0.29176(7) 0.01195(13)
C18 C 0.3762(2) 0.58033(8) 0.52700(15)
H10 H 0.4069 0.6006 0.4595
C19 C 0.3719(2) 0.61465(8) 0.20668(13)
H11 H 0.4727 0.6081 0.2574
H12 H 0.3656 0.6608 0.1852
C20 C 0.3014(2) 0.52009(10) 0.73062(14)
H13 H 0.2770 0.4996 0.7995
C21 C 0.3886(3) 0.57680(11) 0.73629(15)
H14 H 0.4213 0.5957 0.8083
C22 C -0.3418(2) 0.26298(9) 0.07470(17)
H15 H -0.4320 0.2332 0.0551
H16 H -0.3816 0.3074 0.0680
H17 H -0.2968 0.2550 0.1534
C23 C 0.2713(3) 0.26564(9) -0.23525(15)
H18 H 0.3635 0.2664 -0.2828
H19 H 0.1714 0.2770 -0.2821
H20 H 0.2603 0.2224 -0.2034
C24 C 0.4291(2) 0.60673(10) 0.63405(15)
H21 H 0.4926 0.6449 0.6378
loop_
_geom_bond_atom_site_label_1
_geom_bond_atom_site_label_2
_geom_bond_site_symmetry_1
_geom_bond_site_symmetry_2
S1 C3 1_555 1_555
C1 C4 1_555 1_555
N1 C2 1_555 1_555
C2 C6 1_555 1_555
C3 H1 1_555 1_555
H2 C3 1_555 1_555
C4 C5 1_555 1_555
C5 C7 1_555 1_555
O1 C12 1_555 1_555
C6 C10 1_555 1_555
C7 C15 1_555 1_555
C8 C1 1_555 1_555
C9 N1 1_555 1_555
C10 H3 1_555 1_555
C11 C6 1_555 1_555
H4 C11 1_555 1_555
O2 C17 1_555 1_555
C12 C11 1_555 1_555
C13 C9 1_555 1_555
H5 C13 1_555 1_555
C14 C1 1_555 1_555
H6 C14 1_555 1_555
H7 C14 1_555 1_555
C15 C13 1_555 1_555
H8 C15 1_555 1_555
C16 C12 1_555 1_555
H9 C16 1_555 1_555
C17 C10 1_555 1_555
C18 C5 1_555 1_555
H10 C18 1_555 1_555
C19 S1 1_555 1_555
H11 C19 1_555 1_555
H12 C19 1_555 1_555
C20 C7 1_555 1_555
H13 C20 1_555 1_555
C21 C20 1_555 1_555
H14 C21 1_555 1_555
C22 O2 1_555 1_555
H15 C22 1_555 1_555
H16 C22 1_555 1_555
H17 C22 1_555 1_555
C23 O1 1_555 1_555
H18 C23 1_555 1_555
H19 C23 1_555 1_555
H20 C23 1_555 1_555
C24 C18 1_555 1_555
H21 C24 1_555 1_555
C2 C8 1_555 1_555
C3 C8 1_555 1_555
C4 C9 1_555 1_555
C14 C19 1_555 1_555
C16 C17 1_555 1_555
C21 C24 1_555 1_555

#END
