
#######################################################################
#
#                 Cambridge Crystallographic Data Centre
#                                CCDC 
#
#######################################################################
#
# If this CIF has been generated from an entry in the Cambridge 
# Structural Database, then it will include bibliographic, chemical, 
# crystal, experimental, refinement or atomic coordinate data resulting 
# from the CCDC's data processing and validation procedures.
#
#######################################################################

data_NUSREA
_chemical_formula_moiety         'C27 H17 F1 N4'
_chemical_name_systematic        
2-amino-6-(4-fluorophenyl)-4,5-diphenylcyclohexa-2,4-diene-1,1,3-tricarbonitrile
_symmetry_cell_setting           monoclinic
_symmetry_space_group_name_H-M   'P 21/n'
_symmetry_Int_Tables_number      14
_space_group_name_Hall           '-P 2yn'
loop_
_symmetry_equiv_pos_site_id
_symmetry_equiv_pos_as_xyz
1 x,y,z
2 1/2-x,1/2+y,1/2-z
3 -x,-y,-z
4 1/2+x,1/2-y,1/2+z
_cell_length_a                   10.721(2)
_cell_length_b                   14.430(3)
_cell_length_c                   14.681(3)
_cell_angle_alpha                90
_cell_angle_beta                 91.134(4)
_cell_angle_gamma                90
_cell_volume                     2270.77
_cell_formula_units_Z            4
loop_
_atom_site_label
_atom_site_type_symbol
_atom_site_fract_x
_atom_site_fract_y
_atom_site_fract_z
N1 N -0.03835(11) 0.52390(9) 0.68645(8)
N2 N 0.15402(11) 0.46571(9) 0.50542(7)
N3 N 0.22640(14) 0.61826(9) 0.88091(9)
N4 N -0.13595(13) 0.52107(11) 0.90998(9)
C1 C 0.06519(12) 0.48813(9) 0.72433(8)
C2 C 0.16677(11) 0.45533(9) 0.68032(8)
C3 C 0.27215(11) 0.41010(8) 0.73004(8)
C4 C 0.25560(11) 0.37923(8) 0.81563(9)
C5 C 0.12802(11) 0.38837(9) 0.85844(8)
H1 H 0.1406 0.3894 0.9247
C6 C 0.07420(12) 0.48524(9) 0.82876(8)
C7 C 0.16396(11) 0.46031(9) 0.58319(9)
C8 C 0.16165(14) 0.55993(10) 0.85862(9)
C9 C -0.04553(14) 0.50428(10) 0.87324(9)
F1 F -0.22585(12) 0.11127(10) 0.76630(11)
C10 C 0.03579(12) 0.31056(10) 0.83570(9)
C11 C -0.05593(15) 0.28781(12) 0.89682(12)
H2 H -0.0577 0.3170 0.9532
C12 C -0.14580(16) 0.22125(14) 0.87425(15)
H3 H -0.2085 0.2063 0.9146
C13 C -0.13954(16) 0.17890(13) 0.79198(15)
C14 C -0.04932(16) 0.19560(12) 0.73258(12)
H4 H -0.0463 0.1634 0.6778
C15 C 0.03944(14) 0.26194(10) 0.75457(10)
H5 H 0.1029 0.2741 0.7140
C16 C 0.35656(12) 0.34108(9) 0.87586(9)
C17 C 0.34322(13) 0.25646(10) 0.91968(10)
H6 H 0.2708 0.2219 0.9104
C18 C 0.43713(14) 0.22304(11) 0.97721(11)
H7 H 0.4276 0.1661 1.0059
C19 C 0.54376(14) 0.27362(11) 0.99191(11)
H8 H 0.6068 0.2507 1.0301
C20 C 0.55753(14) 0.35764(12) 0.95057(11)
H9 H 0.6295 0.3923 0.9614
C21 C 0.46473(13) 0.39157(10) 0.89251(10)
H10 H 0.4751 0.4488 0.8644
C22 C 0.39213(11) 0.39884(9) 0.68141(8)
C23 C 0.45071(13) 0.47379(11) 0.64154(10)
H11 H 0.4128 0.5317 0.6422
C24 C 0.56490(15) 0.46327(13) 0.60082(12)
H12 H 0.6038 0.5143 0.5752
C25 C 0.62072(16) 0.37875(14) 0.59804(12)
H13 H 0.6978 0.3722 0.5708
C26 C 0.56332(16) 0.30304(13) 0.63554(12)
H14 H 0.6010 0.2451 0.6329
C27 C 0.44947(14) 0.31310(10) 0.67720(10)
H15 H 0.4111 0.2617 0.7026
H16 H -0.1000(8) 0.5473(9) 0.7195(5)
H17 H -0.0493(12) 0.5276(10) 0.6263(4)
F2? F -0.2525(6) 0.1397(5) 0.8097(6)
loop_
_geom_bond_atom_site_label_1
_geom_bond_atom_site_label_2
_geom_bond_site_symmetry_1
_geom_bond_site_symmetry_2
N1 C1 1_555 1_555
N2 C7 1_555 1_555
N3 C8 1_555 1_555
N4 C9 1_555 1_555
C1 C2 1_555 1_555
C2 C3 1_555 1_555
C3 C4 1_555 1_555
C4 C5 1_555 1_555
C5 H1 1_555 1_555
C6 C1 1_555 1_555
C7 C2 1_555 1_555
C8 C6 1_555 1_555
C9 C6 1_555 1_555
F1 C13 1_555 1_555
C10 C5 1_555 1_555
C11 C10 1_555 1_555
H2 C11 1_555 1_555
C12 C11 1_555 1_555
H3 C12 1_555 1_555
C13 C12 1_555 1_555
C14 C13 1_555 1_555
H4 C14 1_555 1_555
C15 C10 1_555 1_555
H5 C15 1_555 1_555
C16 C4 1_555 1_555
C17 C16 1_555 1_555
H6 C17 1_555 1_555
C18 C17 1_555 1_555
H7 C18 1_555 1_555
C19 C18 1_555 1_555
H8 C19 1_555 1_555
C20 C19 1_555 1_555
H9 C20 1_555 1_555
C21 C16 1_555 1_555
H10 C21 1_555 1_555
C22 C3 1_555 1_555
C23 C22 1_555 1_555
H11 C23 1_555 1_555
C24 C23 1_555 1_555
H12 C24 1_555 1_555
C25 C24 1_555 1_555
H13 C25 1_555 1_555
C26 C25 1_555 1_555
H14 C26 1_555 1_555
C27 C22 1_555 1_555
H15 C27 1_555 1_555
H16 N1 1_555 1_555
H17 N1 1_555 1_555
C5 C6 1_555 1_555
C14 C15 1_555 1_555
C20 C21 1_555 1_555
C26 C27 1_555 1_555

#END
