
#######################################################################
#
#                 Cambridge Crystallographic Data Centre
#                                CCDC 
#
#######################################################################
#
# If this CIF has been generated from an entry in the Cambridge 
# Structural Database, then it will include bibliographic, chemical, 
# crystal, experimental, refinement or atomic coordinate data resulting 
# from the CCDC's data processing and validation procedures.
#
#######################################################################

data_NUSROK
_chemical_formula_moiety         'C18 H11 Cl2 N4 O1,C3 H7 N1 O1'
_chemical_name_systematic        
'N,N-dimethylformamide 6-amino-8-(3,4-dichlorophenyl)-8,8a-dihydro-1H-isochromene-5,7,7(3H)-tricarbonitrile'
_symmetry_cell_setting           monoclinic
_symmetry_space_group_name_H-M   'P 21/c'
_symmetry_Int_Tables_number      14
_space_group_name_Hall           '-P 2ybc'
loop_
_symmetry_equiv_pos_site_id
_symmetry_equiv_pos_as_xyz
1 x,y,z
2 -x,1/2+y,1/2-z
3 -x,-y,-z
4 x,1/2-y,1/2+z
_cell_length_a                   16.7648(5)
_cell_length_b                   9.2450(2)
_cell_length_c                   15.4532(5)
_cell_angle_alpha                90
_cell_angle_beta                 114.316(2)
_cell_angle_gamma                90
_cell_volume                     2182.63
_exptl_crystal_colour            colorless
_exptl_crystal_description       block
_cell_formula_units_Z            4
loop_
_atom_site_label
_atom_site_type_symbol
_atom_site_fract_x
_atom_site_fract_y
_atom_site_fract_z
C1 C 0.51031(19) 1.0571(3) 0.8816(2)
C2 C 0.5282(2) 1.2957(3) 0.9592(2)
C3 C 0.47109(19) 1.1887(3) 0.89914(19)
C4 C 0.3840(2) 1.2166(3) 0.8605(2)
C5 C 0.3037(2) 0.8835(4) 0.6896(3)
O1 O 0.57752(16) 0.7886(3) 0.86340(19)
N1 N 0.57475(18) 1.3802(3) 1.0083(2)
N2 N 0.34676(18) 1.3383(3) 0.8751(2)
H1 H 0.3789 1.4053 0.9114
H2 H 0.2909 1.3488 0.8482
C6 C 0.44873(19) 0.9358(3) 0.8320(2)
H3 H 0.4313 0.8868 0.8777
C7 C 0.36736(19) 0.9969(3) 0.7520(2)
H4 H 0.3874 1.0527 0.7108
C8 C 0.32044(18) 1.1061(3) 0.7935(2)
C9 C 0.2669(2) 0.9025(4) 0.5922(3)
H5 H 0.2833 0.9807 0.5653
C10 C 0.5955(2) 1.0416(3) 0.9055(2)
H6 H 0.6322 1.1188 0.9351
C11 C 0.2766(2) 1.0303(4) 0.8466(3)
C12 C 0.2510(2) 1.1779(4) 0.7112(3)
C13 C 0.6359(2) 0.9078(4) 0.8875(3)
H7 H 0.6538 0.9255 0.8362
H8 H 0.6879 0.8842 0.9439
C14 C 0.4941(2) 0.8280(4) 0.7939(3)
H9 H 0.4581 0.7421 0.7725
H10 H 0.5007 0.8697 0.7396
N3 N 0.1978(2) 1.2249(4) 0.6445(3)
C15 C 0.2176(3) 0.6684(5) 0.6695(4)
C16 C 0.2795(2) 0.7635(4) 0.7280(3)
H11 H 0.3053 0.7477 0.7932
C17 C 0.2050(2) 0.8038(5) 0.5346(3)
C18 C 0.1812(2) 0.6880(5) 0.5738(4)
N4 N 0.2441(2) 0.9712(5) 0.8865(3)
Cl1 Cl 0.15555(14) 0.82657(19) 0.42227(12)
Cl2 Cl 0.1033(4) 0.5567(5) 0.5116(5)
N5 N 0.0412(3) 0.1268(5) 0.3430(3)
C19 C 0.1217(5) 0.1732(8) 0.3713(6)
H12 H 0.1448 0.2239 0.4283
C20 C -0.0135(9) 0.0512(15) 0.2695(9)
H13 H 0.0036 0.0598 0.2176
H14 H -0.0718 0.0878 0.2506
H15 H -0.0117 -0.0487 0.2873
C21 C 0.0046(9) 0.1473(15) 0.4077(10)
H16 H 0.0417 0.2095 0.4578
H17 H -0.0011 0.0556 0.4337
H18 H -0.0521 0.1909 0.3763
O2 O 0.1681(3) 0.1569(9) 0.3314(4)
Cl3? Cl 0.17415(19) 0.5509(2) 0.7006(2)
Cl4? Cl 0.0944(6) 0.6050(9) 0.4801(7)
loop_
_geom_bond_atom_site_label_1
_geom_bond_atom_site_label_2
_geom_bond_site_symmetry_1
_geom_bond_site_symmetry_2
C1 C3 1_555 1_555
C2 C3 1_555 1_555
C3 C4 1_555 1_555
C4 N2 1_555 1_555
C5 C7 1_555 1_555
O1 C13 1_555 1_555
N1 C2 1_555 1_555
N2 H1 1_555 1_555
H2 N2 1_555 1_555
C6 C1 1_555 1_555
H3 C6 1_555 1_555
C7 C6 1_555 1_555
H4 C7 1_555 1_555
C8 C4 1_555 1_555
C9 C5 1_555 1_555
H5 C9 1_555 1_555
C10 C1 1_555 1_555
H6 C10 1_555 1_555
C11 C8 1_555 1_555
C12 C8 1_555 1_555
C13 C10 1_555 1_555
H7 C13 1_555 1_555
H8 C13 1_555 1_555
C14 O1 1_555 1_555
H9 C14 1_555 1_555
H10 C14 1_555 1_555
N3 C12 1_555 1_555
C15 C16 1_555 1_555
C16 C5 1_555 1_555
H11 C16 1_555 1_555
C17 C9 1_555 1_555
C18 C15 1_555 1_555
N4 C11 1_555 1_555
Cl1 C17 1_555 1_555
Cl2 C18 1_555 1_555
N5 C19 1_555 1_555
C19 H12 1_555 1_555
C20 N5 1_555 1_555
H13 C20 1_555 1_555
H14 C20 1_555 1_555
H15 C20 1_555 1_555
C21 N5 1_555 1_555
H16 C21 1_555 1_555
H17 C21 1_555 1_555
H18 C21 1_555 1_555
O2 C19 1_555 1_555
C6 C14 1_555 1_555
C7 C8 1_555 1_555
C17 C18 1_555 1_555

#END
