
#######################################################################
#
#                 Cambridge Crystallographic Data Centre
#                                CCDC 
#
#######################################################################
#
# If this CIF has been generated from an entry in the Cambridge 
# Structural Database, then it will include bibliographic, chemical, 
# crystal, experimental, refinement or atomic coordinate data resulting 
# from the CCDC's data processing and validation procedures.
#
#######################################################################

data_NUSRIE
_chemical_formula_moiety         'C21 H20 N4 O2,C3 H7 N1 O1'
_chemical_name_systematic        
'N,N-dimethylformamide 2-amino-4-(3,4-dimethoxyphenyl)-4a,5,6,7-tetrahydronaphthalene-1,3,3(4H)-tricarbonitrile'
_symmetry_cell_setting           monoclinic
_symmetry_space_group_name_H-M   'C 2/c'
_symmetry_Int_Tables_number      15
_space_group_name_Hall           '-C 2yn'
loop_
_symmetry_equiv_pos_site_id
_symmetry_equiv_pos_as_xyz
1 x,y,z
2 -x,y,1/2-z
3 1/2+x,1/2+y,z
4 1/2-x,1/2+y,1/2-z
5 -x,-y,-z
6 x,-y,1/2+z
7 1/2-x,1/2-y,-z
8 1/2+x,1/2-y,1/2+z
_cell_length_a                   30.9404(4)
_cell_length_b                   9.15780(10)
_cell_length_c                   16.8812(2)
_cell_angle_alpha                90
_cell_angle_beta                 99.1080(10)
_cell_angle_gamma                90
_cell_volume                     4722.91
_exptl_crystal_colour            yellow
_exptl_crystal_description       block
_cell_formula_units_Z            8
loop_
_atom_site_label
_atom_site_type_symbol
_atom_site_fract_x
_atom_site_fract_y
_atom_site_fract_z
O1 O 0.34047(5) -0.09181(14) 0.24873(7)
O2 O 0.31108(4) 0.09486(14) 0.13978(7)
C1 C 0.48282(5) 0.31262(17) 0.56376(8)
C2 C 0.40751(4) 0.30726(17) 0.48383(8)
N1 N 0.42030(4) 0.37652(19) 0.62478(8)
H1 H 0.4361 0.3933 0.6705
H2 H 0.3924 0.3873 0.6190
C3 C 0.51143(5) 0.3462(2) 0.63651(10)
C4 C 0.47165(5) 0.18970(19) 0.42865(9)
H3 H 0.4624 0.0940 0.4458
C5 C 0.39931(5) 0.23681(19) 0.33576(9)
C6 C 0.37975(5) 0.18066(18) 0.49618(9)
C7 C 0.50287(5) 0.25634(17) 0.49693(9)
C8 C 0.38320(5) 0.33565(19) 0.27691(9)
H4 H 0.3920 0.4327 0.2819
C9 C 0.34019(5) 0.14899(19) 0.20184(8)
C10 C 0.37850(5) 0.43621(19) 0.46634(9)
C11 C 0.43119(5) 0.28644(18) 0.40840(9)
H5 H 0.4417 0.3831 0.3953
C12 C 0.43925(5) 0.33350(17) 0.56233(8)
C13 C 0.38603(5) 0.09157(19) 0.32642(9)
H6 H 0.3974 0.0234 0.3650
N2 N 0.35865(6) 0.08188(18) 0.50451(10)
C14 C 0.35639(5) 0.04681(18) 0.26116(9)
C15 C 0.35386(5) 0.29149(19) 0.21004(9)
H7 H 0.3434 0.3592 0.1706
C16 C 0.54612(5) 0.2600(2) 0.49754(10)
H8 H 0.5634 0.3008 0.5421
N3 N 0.53513(5) 0.3733(2) 0.69337(9)
N4 N 0.35726(5) 0.53615(19) 0.45035(10)
C17 C 0.56854(6) 0.2037(2) 0.43226(12)
H9 H 0.5949 0.1522 0.4555
H10 H 0.5771 0.2851 0.4014
C18 C 0.53923(6) 0.1014(3) 0.37703(12)
H11 H 0.5370 0.0085 0.4037
H12 H 0.5519 0.0839 0.3288
C19 C 0.49388(6) 0.1684(3) 0.35471(10)
H13 H 0.4760 0.1053 0.3167
H14 H 0.4964 0.2621 0.3290
C20 C 0.29672(8) 0.1897(3) 0.07458(12)
H15 H 0.2764 0.1391 0.0352
H16 H 0.3214 0.2209 0.0509
H17 H 0.2827 0.2733 0.0935
C21 C 0.35507(10) -0.1985(2) 0.30767(15)
H18 H 0.3414 -0.2904 0.2920
H19 H 0.3474 -0.1689 0.3582
H20 H 0.3863 -0.2086 0.3128
N5 N 0.26113(5) 0.69818(18) 0.13563(11)
O3 O 0.32688(4) 0.61452(16) 0.11653(9)
C22 C 0.29988(6) 0.7108(2) 0.11424(10)
H21 H 0.3073 0.8017 0.0957
C23 C 0.24775(11) 0.5637(4) 0.1667(3)
H22 H 0.2708 0.4931 0.1682
H23 H 0.2220 0.5285 0.1329
H24 H 0.2414 0.5789 0.2200
C24 C 0.23053(8) 0.8191(3) 0.1302(2)
H25 H 0.2435 0.9037 0.1100
H26 H 0.2235 0.8399 0.1824
H27 H 0.2043 0.7936 0.0945
loop_
_geom_bond_atom_site_label_1
_geom_bond_atom_site_label_2
_geom_bond_site_symmetry_1
_geom_bond_site_symmetry_2
O1 C14 1_555 1_555
O2 C9 1_555 1_555
C1 C3 1_555 1_555
C2 C6 1_555 1_555
N1 H1 1_555 1_555
H2 N1 1_555 1_555
C3 N3 1_555 1_555
C4 H3 1_555 1_555
C5 C8 1_555 1_555
C6 N2 1_555 1_555
C7 C1 1_555 1_555
C8 H4 1_555 1_555
C9 C14 1_555 1_555
C10 C2 1_555 1_555
C11 C2 1_555 1_555
H5 C11 1_555 1_555
C12 C1 1_555 1_555
C13 C5 1_555 1_555
H6 C13 1_555 1_555
C14 C13 1_555 1_555
C15 C8 1_555 1_555
H7 C15 1_555 1_555
C16 C7 1_555 1_555
H8 C16 1_555 1_555
N4 C10 1_555 1_555
C17 C16 1_555 1_555
H9 C17 1_555 1_555
H10 C17 1_555 1_555
C18 C17 1_555 1_555
H11 C18 1_555 1_555
H12 C18 1_555 1_555
C19 C4 1_555 1_555
H13 C19 1_555 1_555
H14 C19 1_555 1_555
C20 O2 1_555 1_555
H15 C20 1_555 1_555
H16 C20 1_555 1_555
H17 C20 1_555 1_555
C21 O1 1_555 1_555
H18 C21 1_555 1_555
H19 C21 1_555 1_555
H20 C21 1_555 1_555
N5 C22 1_555 1_555
O3 C22 1_555 1_555
C22 H21 1_555 1_555
C23 N5 1_555 1_555
H22 C23 1_555 1_555
H23 C23 1_555 1_555
H24 C23 1_555 1_555
C24 N5 1_555 1_555
H25 C24 1_555 1_555
H26 C24 1_555 1_555
H27 C24 1_555 1_555
C2 C12 1_555 1_555
N1 C12 1_555 1_555
C4 C7 1_555 1_555
C4 C11 1_555 1_555
C5 C11 1_555 1_555
C9 C15 1_555 1_555
C18 C19 1_555 1_555

#END
