
#######################################################################
#
#                 Cambridge Crystallographic Data Centre
#                                CCDC 
#
#######################################################################
#
# If this CIF has been generated from an entry in the Cambridge 
# Structural Database, then it will include bibliographic, chemical, 
# crystal, experimental, refinement or atomic coordinate data resulting 
# from the CCDC's data processing and validation procedures.
#
#######################################################################

data_NUSWIJ
_chemical_formula_moiety         'C23 H27 Br1 N2 O2 S1 Si1'
_chemical_name_systematic        
8-((6-Bromo-3-(diethylsilyl)-2-methyl-3,4-dihydroquinolin-1(2H)-yl)sulfonyl)quinoline
_symmetry_cell_setting           monoclinic
_symmetry_space_group_name_H-M   'P 21/n'
_symmetry_Int_Tables_number      14
_space_group_name_Hall           '-P 2yn'
loop_
_symmetry_equiv_pos_site_id
_symmetry_equiv_pos_as_xyz
1 x,y,z
2 1/2-x,1/2+y,1/2-z
3 -x,-y,-z
4 1/2+x,1/2-y,1/2+z
_cell_length_a                   17.1983(12)
_cell_length_b                   8.0849(6)
_cell_length_c                   17.9476(14)
_cell_angle_alpha                90
_cell_angle_beta                 111.473(2)
_cell_angle_gamma                90
_cell_volume                     2322.34
_exptl_crystal_colour            white
_exptl_crystal_description       block
_cell_formula_units_Z            4
loop_
_atom_site_label
_atom_site_type_symbol
_atom_site_fract_x
_atom_site_fract_y
_atom_site_fract_z
Br1 Br 1.06138(5) 0.66905(11) 0.69765(6)
S1 S 0.68999(9) 0.20916(17) 0.63089(9)
Si1 Si 0.8291(2) -0.1283(3) 0.44614(15)
H1 H 0.8831 -0.1813 0.4798
O1 O 0.6339(3) 0.0745(5) 0.5996(3)
O2 O 0.7106(3) 0.2490(6) 0.7136(3)
N1 N 0.7765(3) 0.1688(5) 0.6155(3)
N2 N 0.6203(4) 0.2474(7) 0.4516(3)
C1 C 0.6490(3) 0.3922(7) 0.5759(4)
C2 C 0.8553(4) 0.4040(7) 0.6962(3)
H2 H 0.8175 0.4090 0.7237
C3 C 0.9200(4) 0.5167(8) 0.7147(4)
H3 H 0.9265 0.5992 0.7543
C4 C 0.6147(3) 0.3888(7) 0.4909(4)
C5 C 0.8445(3) 0.2825(7) 0.6377(3)
C6 C 0.9744(4) 0.5078(8) 0.6754(4)
C7 C 0.9028(4) 0.2719(8) 0.5999(4)
C8 C 0.6480(4) 0.5327(7) 0.6179(4)
H4 H 0.6716 0.5321 0.6747
C9 C 0.7818(4) 0.0144(7) 0.5713(4)
H5 H 0.7240 -0.0311 0.5455
C10 C 0.9674(4) 0.3878(9) 0.6200(4)
H6 H 1.0071 0.3830 0.5947
C11 C 0.8150(4) 0.0552(7) 0.5053(3)
H7 H 0.7748 0.1332 0.4671
C12 C 0.5772(4) 0.5362(9) 0.4506(4)
C13 C 0.6119(4) 0.6793(8) 0.5764(5)
H8 H 0.6128 0.7778 0.6055
C14 C 0.5763(4) 0.6800(8) 0.4959(5)
H9 H 0.5502 0.7779 0.4691
C15 C 0.8990(5) 0.1408(9) 0.5396(4)
H10 H 0.9426 0.0570 0.5652
H11 H 0.9118 0.1916 0.4952
C16 C 0.8340(7) -0.1120(9) 0.6320(5)
H12 H 0.8088 -0.1322 0.6721
H13 H 0.8908 -0.0695 0.6584
H14 H 0.8359 -0.2157 0.6044
C17 C 0.5414(5) 0.5274(13) 0.3661(5)
H15 H 0.5147 0.6220 0.3363
C18 C 0.5849(5) 0.2506(12) 0.3726(4)
H16 H 0.5870 0.1524 0.3444
C19 C 0.5448(5) 0.3874(14) 0.3278(5)
H17 H 0.5204 0.3813 0.2711
C20 C 0.7510(6) -0.2863(11) 0.4259(6)
H18 H 0.7278 -0.2857 0.4689
H19 H 0.7049 -0.2605 0.3748
C21 C 0.8435(9) -0.0551(13) 0.3543(5)
H20 H 0.8992 -0.0026 0.3700
H21 H 0.8434 -0.1525 0.3208
C22 C 0.7844(8) -0.4594(10) 0.4203(6)
H22 H 0.7390 -0.5401 0.4088
H23 H 0.8290 -0.4873 0.4712
H24 H 0.8067 -0.4617 0.3772
C23 C 0.7803(7) 0.0638(18) 0.3048(6)
H25 H 0.7934 0.0952 0.2580
H26 H 0.7806 0.1625 0.3366
H27 H 0.7248 0.0123 0.2871
loop_
_geom_bond_atom_site_label_1
_geom_bond_atom_site_label_2
_geom_bond_site_symmetry_1
_geom_bond_site_symmetry_2
Br1 C6 1_555 1_555
S1 O1 1_555 1_555
Si1 H1 1_555 1_555
O2 S1 1_555 1_555
N1 S1 1_555 1_555
N2 C4 1_555 1_555
C1 S1 1_555 1_555
C2 H2 1_555 1_555
C3 C2 1_555 1_555
H3 C3 1_555 1_555
C4 C1 1_555 1_555
C5 N1 1_555 1_555
C6 C3 1_555 1_555
C7 C5 1_555 1_555
C8 C1 1_555 1_555
H4 C8 1_555 1_555
C9 N1 1_555 1_555
H5 C9 1_555 1_555
C10 C6 1_555 1_555
H6 C10 1_555 1_555
C11 Si1 1_555 1_555
H7 C11 1_555 1_555
C12 C4 1_555 1_555
C13 C8 1_555 1_555
H8 C13 1_555 1_555
C14 C12 1_555 1_555
H9 C14 1_555 1_555
C15 C7 1_555 1_555
H10 C15 1_555 1_555
H11 C15 1_555 1_555
C16 C9 1_555 1_555
H12 C16 1_555 1_555
H13 C16 1_555 1_555
H14 C16 1_555 1_555
C17 C12 1_555 1_555
H15 C17 1_555 1_555
C18 N2 1_555 1_555
H16 C18 1_555 1_555
C19 C17 1_555 1_555
H17 C19 1_555 1_555
C20 Si1 1_555 1_555
H18 C20 1_555 1_555
H19 C20 1_555 1_555
C21 Si1 1_555 1_555
H20 C21 1_555 1_555
H21 C21 1_555 1_555
C22 C20 1_555 1_555
H22 C22 1_555 1_555
H23 C22 1_555 1_555
H24 C22 1_555 1_555
C23 C21 1_555 1_555
H25 C23 1_555 1_555
H26 C23 1_555 1_555
H27 C23 1_555 1_555
C2 C5 1_555 1_555
C7 C10 1_555 1_555
C9 C11 1_555 1_555
C11 C15 1_555 1_555
C13 C14 1_555 1_555
C18 C19 1_555 1_555

#END
