
#######################################################################
#
#                 Cambridge Crystallographic Data Centre
#                                CCDC 
#
#######################################################################
#
# If this CIF has been generated from an entry in the Cambridge 
# Structural Database, then it will include bibliographic, chemical, 
# crystal, experimental, refinement or atomic coordinate data resulting 
# from the CCDC's data processing and validation procedures.
#
#######################################################################

data_NUTDIQ
_chemical_name_common            'Ethyl methyl ketone thiosemicarbazone'
_chemical_formula_moiety         'C5 H11 N3 S1'
_chemical_name_systematic        2-(Butan-2-ylidene)hydrazinecarbothioamide
_symmetry_cell_setting           triclinic
_symmetry_space_group_name_H-M   'P -1'
_symmetry_Int_Tables_number      2
_space_group_name_Hall           '-P 1'
loop_
_symmetry_equiv_pos_site_id
_symmetry_equiv_pos_as_xyz
1 x,y,z
2 -x,-y,-z
_cell_length_a                   8.4641(3)
_cell_length_b                   8.6264(3)
_cell_length_c                   12.0950(4)
_cell_angle_alpha                77.532(2)
_cell_angle_beta                 73.937(2)
_cell_angle_gamma                68.306(2)
_cell_volume                     782.117
_exptl_crystal_colour            colorless
_exptl_crystal_description       block
_cell_formula_units_Z            4
loop_
_atom_site_label
_atom_site_type_symbol
_atom_site_fract_x
_atom_site_fract_y
_atom_site_fract_z
C1 C 0.36251(15) 0.76985(13) -0.61739(9)
C2 C 0.30484(16) 0.96999(15) -0.38018(10)
C3 C 0.2003(2) 1.13902(18) -0.34068(13)
H1 H 0.2783 1.1830 -0.3216
H2 H 0.1164 1.1234 -0.2699
C4 C 0.1037(3) 1.2694(2) -0.42529(16)
H3 H 0.1858 1.2983 -0.4916
H4 H 0.0320 1.3681 -0.3886
H5 H 0.0318 1.2251 -0.4495
C5 C 0.4167(2) 0.84659(19) -0.30338(13)
H6 H 0.3683 0.7587 -0.2674
H7 H 0.4225 0.9023 -0.2446
H8 H 0.5318 0.7991 -0.3485
N1 N 0.27405(19) 0.90751(15) -0.67646(11)
N2 N 0.37771(14) 0.78857(12) -0.51369(8)
N3 N 0.28813(13) 0.94512(12) -0.47580(8)
S1 S 0.45579(5) 0.58407(4) -0.66950(3)
H17 H 0.259(2) 0.902(2) -0.7387(16)
H18 H 0.227(2) 0.990(2) -0.6442(16)
H19 H 0.425(2) 0.700(2) -0.4744(15)
C6 C 0.21225(13) 1.14722(12) -0.03846(9)
C7 C -0.11174(13) 1.49712(13) -0.13599(9)
C8 C -0.12204(16) 1.65521(14) -0.21870(11)
H9 H -0.2008 1.7498 -0.1781
H10 H -0.1725 1.6521 -0.2807
C9 C 0.0481(2) 1.68620(19) -0.27179(16)
H11 H 0.0974 1.6947 -0.2116
H12 H 0.0287 1.7891 -0.3240
H13 H 0.1270 1.5946 -0.3136
C10 C -0.28037(15) 1.46993(16) -0.07520(14)
H14 H -0.3042 1.4010 -0.1168
H15 H -0.3723 1.5765 -0.0717
H16 H -0.2731 1.4148 0.0021
N4 N 0.34237(13) 1.20599(13) -0.08524(10)
N5 N 0.05296(12) 1.24670(11) -0.05347(8)
N6 N 0.04020(11) 1.39745(11) -0.12579(8)
S2 S 0.24065(4) 0.95333(3) 0.03874(3)
H20 H 0.452(2) 1.142(2) -0.0774(14)
H21 H 0.325(2) 1.306(2) -0.1282(14)
H22 H -0.028(2) 1.201(2) -0.0345(14)
loop_
_geom_bond_atom_site_label_1
_geom_bond_atom_site_label_2
_geom_bond_site_symmetry_1
_geom_bond_site_symmetry_2
C1 N1 1_555 1_555
C2 C3 1_555 1_555
C3 H1 1_555 1_555
H2 C3 1_555 1_555
C4 C3 1_555 1_555
H3 C4 1_555 1_555
H4 C4 1_555 1_555
H5 C4 1_555 1_555
C5 C2 1_555 1_555
H6 C5 1_555 1_555
H7 C5 1_555 1_555
H8 C5 1_555 1_555
C6 N4 1_555 1_555
C7 C8 1_555 1_555
C8 H9 1_555 1_555
H10 C8 1_555 1_555
C9 C8 1_555 1_555
H11 C9 1_555 1_555
H12 C9 1_555 1_555
H13 C9 1_555 1_555
C10 C7 1_555 1_555
H14 C10 1_555 1_555
H15 C10 1_555 1_555
H16 C10 1_555 1_555
N1 H17 1_555 1_555
N2 C1 1_555 1_555
N3 C2 1_555 1_555
N4 H20 1_555 1_555
N5 C6 1_555 1_555
N6 C7 1_555 1_555
S1 C1 1_555 1_555
S2 C6 1_555 1_555
H18 N1 1_555 1_555
H19 N2 1_555 1_555
H21 N4 1_555 1_555
H22 N5 1_555 1_555
N2 N3 1_555 1_555
N5 N6 1_555 1_555

#END
