
#######################################################################
#
#                 Cambridge Crystallographic Data Centre
#                                CCDC 
#
#######################################################################
#
# If this CIF has been generated from an entry in the Cambridge 
# Structural Database, then it will include bibliographic, chemical, 
# crystal, experimental, refinement or atomic coordinate data resulting 
# from the CCDC's data processing and validation procedures.
#
#######################################################################

data_NUTDIR
_chemical_formula_moiety         'C60 H42'
_chemical_name_systematic        
9-(Cyclohepta-2,4,6-trien-1-ylidene)-2,7-bis(4-(2,2-diphenylvinyl)phenyl)-9H-fluorene
_symmetry_cell_setting           monoclinic
_symmetry_space_group_name_H-M   'P 21/n'
_symmetry_Int_Tables_number      14
_space_group_name_Hall           '-P 2yn'
loop_
_symmetry_equiv_pos_site_id
_symmetry_equiv_pos_as_xyz
1 x,y,z
2 1/2-x,1/2+y,1/2-z
3 -x,-y,-z
4 1/2+x,1/2-y,1/2+z
_cell_length_a                   10.5356(10)
_cell_length_b                   9.7161(6)
_cell_length_c                   41.525(2)
_cell_angle_alpha                90
_cell_angle_beta                 94.721(7)
_cell_angle_gamma                90
_cell_volume                     4236.28
_exptl_crystal_colour            red
_exptl_crystal_description       block
_cell_formula_units_Z            4
loop_
_atom_site_label
_atom_site_type_symbol
_atom_site_fract_x
_atom_site_fract_y
_atom_site_fract_z
C1 C 0.2864(8) 0.2111(8) -0.0568(2)
H1 H 0.3283 0.2729 -0.0693
C2 C 0.3553(8) 0.1050(10) -0.0429(3)
H2 H 0.4410 0.0956 -0.0463
C3 C 0.2999(10) 0.0153(9) -0.02465(16)
H3 H 0.3475 -0.0523 -0.0133
C4 C 0.1667(9) 0.0244(7) -0.02267(16)
H4 H 0.1234 -0.0434 -0.0122
C5 C 0.1026(7) 0.1362(7) -0.03666(15)
H5 H 0.0160 0.1460 -0.0344
C6 C 0.1636(6) 0.2323(5) -0.05362(10)
C7 C 1.1722(9) 0.6745(8) 0.3931(2)
H6 H 1.0844 0.6742 0.3883
C8 C 0.0949(4) 0.3551(5) -0.06765(9)
C9 C 0.0182(4) 0.3360(5) -0.09925(9)
C10 C 0.6769(3) 0.3658(4) 0.09756(9)
H7 H 0.6567 0.4102 0.0780
C11 C -0.0826(5) 0.4216(5) -0.10893(10)
H8 H -0.1052 0.4914 -0.0952
C12 C -0.1501(5) 0.4055(6) -0.13852(10)
H9 H -0.2178 0.4641 -0.1445
C13 C -0.1184(6) 0.3040(6) -0.15921(11)
H10 H -0.1644 0.2934 -0.1791
C14 C -0.0191(6) 0.2185(5) -0.15044(11)
H11 H 0.0035 0.1506 -0.1647
C15 C 0.0493(5) 0.2316(5) -0.12025(10)
H12 H 0.1154 0.1710 -0.1142
C16 C 0.1022(4) 0.4755(4) -0.05315(9)
H13 H 0.0585 0.5460 -0.0644
C17 C 0.1680(4) 0.5177(4) -0.02203(9)
C18 C 0.1290(10) 0.6102(10) -0.0055(2)
H14 H 0.0534 0.6536 -0.0128
C19 C 0.1909(10) 0.6554(9) 0.0239(2)
H15 H 0.1509 0.7246 0.0348
C20 C 0.2936(4) 0.6119(4) 0.03677(9)
C21 C 0.3682(8) 0.5203(8) 0.01412(18)
H16 H 0.4525 0.4959 0.0197
C22 C 0.3052(9) 0.4760(8) -0.01464(18)
H17 H 0.3465 0.4219 -0.0290
C23 C 0.3601(4) 0.6595(4) 0.06737(8)
C24 C 0.3319(4) 0.7856(4) 0.08076(9)
H18 H 0.2696 0.8407 0.0701
C25 C 0.3936(4) 0.8322(4) 0.10944(9)
H19 H 0.3714 0.9158 0.1183
C26 C 0.4883(3) 0.7523(3) 0.12454(8)
C27 C 0.5221(3) 0.6243(3) 0.11164(8)
C28 C 0.4542(4) 0.5784(3) 0.08355(8)
H20 H 0.4718 0.4919 0.0754
C29 C 0.5703(3) 0.7765(3) 0.15423(8)
C30 C 0.5733(4) 0.8854(3) 0.17582(8)
H21 H 0.5174 0.9590 0.1724
C31 C 0.6607(3) 0.8830(3) 0.20251(8)
H22 H 0.6643 0.9567 0.2168
C32 C 0.7435(3) 0.7723(3) 0.20840(7)
C33 C 0.7382(3) 0.6625(3) 0.18662(7)
H23 H 0.7912 0.5869 0.1907
C34 C 0.6549(3) 0.6649(3) 0.15901(7)
C35 C 0.6314(3) 0.5663(3) 0.13169(7)
C36 C 0.7010(3) 0.4533(3) 0.12620(8)
C37 C 0.8176(3) 0.4175(4) 0.14593(8)
H24 H 0.8735 0.4891 0.1516
C38 C 0.8517(4) 0.2920(4) 0.15658(10)
H25 H 0.9264 0.2866 0.1701
C39 C 0.7867(5) 0.1650(4) 0.14959(14)
H26 H 0.7977 0.0958 0.1650
C40 C 0.7121(5) 0.1365(4) 0.12310(14)
H27 H 0.6768 0.0488 0.1216
C41 C 0.6813(4) 0.2272(4) 0.09696(11)
H28 H 0.6616 0.1862 0.0769
C42 C 0.8340(3) 0.7680(3) 0.23768(7)
C43 C 0.8115(3) 0.8398(4) 0.26541(8)
H29 H 0.7388 0.8941 0.2656
C44 C 0.8940(3) 0.8327(4) 0.29269(8)
H30 H 0.8745 0.8817 0.3109
C45 C 1.0041(3) 0.7566(3) 0.29434(7)
C46 C 1.0273(3) 0.6844(3) 0.26650(8)
H31 H 1.1007 0.6312 0.2664
C47 C 0.9439(3) 0.6900(3) 0.23901(8)
H32 H 0.9623 0.6397 0.2209
C48 C 1.0798(3) 0.7483(3) 0.32535(8)
H33 H 1.0359 0.7715 0.3431
C49 C 1.2010(3) 0.7134(3) 0.33258(8)
C50 C 1.2552(3) 0.6974(4) 0.36685(8)
C51 C 1.3776(4) 0.6595(5) 0.37487(10)
H34 H 1.4303 0.6441 0.3583
C52 C 1.4281(5) 0.6427(5) 0.40668(12)
H35 H 1.5136 0.6203 0.4111
C53 C 1.3550(6) 0.6585(7) 0.43036(12)
H36 H 1.3917 0.6734 0.4512
C54 C 1.2205(9) 0.6534(10) 0.4247(2)
H37 H 1.1679 0.6367 0.4412
C55 C 1.3323(4) 0.5643(4) 0.29859(10)
H38 H 1.3101 0.4879 0.3104
C56 C 1.4089(5) 0.5475(5) 0.27315(13)
H39 H 1.4366 0.4601 0.2678
C57 C 1.4430(5) 0.6585(7) 0.25620(12)
H40 H 1.4953 0.6474 0.2394
C58 C 1.4015(5) 0.7857(5) 0.26354(11)
H41 H 1.4244 0.8613 0.2516
C59 C 1.3255(4) 0.8036(4) 0.28858(9)
H42 H 1.2982 0.8916 0.2935
C60 C 1.2889(3) 0.6926(3) 0.30658(8)
C61? C 0.1850(9) 0.6576(10) -0.0149(2)
H43? H 0.1535 0.7222 -0.0300
C62? C 0.2462(9) 0.7030(10) 0.0134(2)
H44? H 0.2560 0.7970 0.0170
C63? C 0.2520(8) 0.4755(8) 0.03346(18)
H45? H 0.2662 0.4149 0.0507
C64? C 0.1904(8) 0.4300(9) 0.00494(18)
H46? H 0.1627 0.3392 0.0034
H47? H 1.3740 0.6180 0.4505
C65? C 1.1867(9) 0.7463(9) 0.3917(2)
H48? H 1.1049 0.7812 0.3874
C66? C 1.2443(9) 0.7417(10) 0.4236(2)
H49? H 1.2106 0.7921 0.4399
loop_
_geom_bond_atom_site_label_1
_geom_bond_atom_site_label_2
_geom_bond_site_symmetry_1
_geom_bond_site_symmetry_2
C1 H1 1_555 1_555
C2 C1 1_555 1_555
H2 C2 1_555 1_555
C3 C2 1_555 1_555
H3 C3 1_555 1_555
C4 C3 1_555 1_555
H4 C4 1_555 1_555
C5 C4 1_555 1_555
H5 C5 1_555 1_555
C6 C1 1_555 1_555
C7 H6 1_555 1_555
C8 C6 1_555 1_555
C9 C8 1_555 1_555
C10 H7 1_555 1_555
C11 C9 1_555 1_555
H8 C11 1_555 1_555
C12 C11 1_555 1_555
H9 C12 1_555 1_555
C13 C12 1_555 1_555
H10 C13 1_555 1_555
C14 C13 1_555 1_555
H11 C14 1_555 1_555
C15 C9 1_555 1_555
H12 C15 1_555 1_555
C16 C8 1_555 1_555
H13 C16 1_555 1_555
C17 C16 1_555 1_555
C18 C17 1_555 1_555
H14 C18 1_555 1_555
C19 C18 1_555 1_555
H15 C19 1_555 1_555
C20 C19 1_555 1_555
C21 C20 1_555 1_555
H16 C21 1_555 1_555
C22 C17 1_555 1_555
H17 C22 1_555 1_555
C23 C20 1_555 1_555
C24 C23 1_555 1_555
H18 C24 1_555 1_555
C25 C24 1_555 1_555
H19 C25 1_555 1_555
C26 C25 1_555 1_555
C27 C26 1_555 1_555
C28 C23 1_555 1_555
H20 C28 1_555 1_555
C29 C26 1_555 1_555
C30 C29 1_555 1_555
H21 C30 1_555 1_555
C31 C30 1_555 1_555
H22 C31 1_555 1_555
C32 C31 1_555 1_555
C33 C32 1_555 1_555
H23 C33 1_555 1_555
C34 C29 1_555 1_555
C35 C27 1_555 1_555
C36 C10 1_555 1_555
C37 C36 1_555 1_555
H24 C37 1_555 1_555
C38 C37 1_555 1_555
H25 C38 1_555 1_555
C39 C38 1_555 1_555
H26 C39 1_555 1_555
C40 C39 1_555 1_555
H27 C40 1_555 1_555
C41 C10 1_555 1_555
H28 C41 1_555 1_555
C42 C32 1_555 1_555
C43 C42 1_555 1_555
H29 C43 1_555 1_555
C44 C43 1_555 1_555
H30 C44 1_555 1_555
C45 C44 1_555 1_555
C46 C45 1_555 1_555
H31 C46 1_555 1_555
C47 C42 1_555 1_555
H32 C47 1_555 1_555
C48 C45 1_555 1_555
H33 C48 1_555 1_555
C49 C48 1_555 1_555
C50 C7 1_555 1_555
C51 C50 1_555 1_555
H34 C51 1_555 1_555
C52 C51 1_555 1_555
H35 C52 1_555 1_555
C53 C52 1_555 1_555
H36 C53 1_555 1_555
C54 C7 1_555 1_555
H37 C54 1_555 1_555
C55 H38 1_555 1_555
C56 C55 1_555 1_555
H39 C56 1_555 1_555
C57 C56 1_555 1_555
H40 C57 1_555 1_555
C58 C57 1_555 1_555
H41 C58 1_555 1_555
C59 C58 1_555 1_555
H42 C59 1_555 1_555
C60 C49 1_555 1_555
C5 C6 1_555 1_555
C14 C15 1_555 1_555
C21 C22 1_555 1_555
C27 C28 1_555 1_555
C33 C34 1_555 1_555
C34 C35 1_555 1_555
C35 C36 1_555 1_555
C40 C41 1_555 1_555
C46 C47 1_555 1_555
C49 C50 1_555 1_555
C53 C54 1_555 1_555
C55 C60 1_555 1_555
C59 C60 1_555 1_555

#END
