
#######################################################################
#
#                 Cambridge Crystallographic Data Centre
#                                CCDC 
#
#######################################################################
#
# If this CIF has been generated from an entry in the Cambridge 
# Structural Database, then it will include bibliographic, chemical, 
# crystal, experimental, refinement or atomic coordinate data resulting 
# from the CCDC's data processing and validation procedures.
#
#######################################################################

data_NUTGEQ
_chemical_formula_moiety         'C80 H90 N8 O8,2(C7 H8)'
_chemical_name_systematic        
'5,9,14,18,23,27,32,36-Octabutoxy-2,3-naphthalocyanine toluene solvate'
_symmetry_cell_setting           monoclinic
_symmetry_space_group_name_H-M   'P 21/n'
_symmetry_Int_Tables_number      14
_space_group_name_Hall           '-P 2yn'
loop_
_symmetry_equiv_pos_site_id
_symmetry_equiv_pos_as_xyz
1 x,y,z
2 1/2-x,1/2+y,1/2-z
3 -x,-y,-z
4 1/2+x,1/2-y,1/2+z
_cell_length_a                   8.0487(11)
_cell_length_b                   31.630(4)
_cell_length_c                   15.884(2)
_cell_angle_alpha                90
_cell_angle_beta                 102.199(2)
_cell_angle_gamma                90
_cell_volume                     3952.45
_exptl_crystal_colour            brown
_exptl_crystal_description       Block
_cell_formula_units_Z            2
_exptl_crystal_recrystallization_method toluene
loop_
_atom_site_label
_atom_site_type_symbol
_atom_site_fract_x
_atom_site_fract_y
_atom_site_fract_z
O1 O 0.23306(12) 0.04137(3) 0.16660(6)
O2 O -0.18659(12) 0.12918(3) 0.74795(6)
O3 O -0.13671(12) 0.18613(3) 0.55108(6)
O4 O 0.21065(12) 0.14484(3) 0.29219(6)
N1 N 0.09886(14) -0.01473(4) 0.39680(7)
H1 H 0.0662 -0.0073 0.4441
N2 N -0.10520(14) 0.09057(4) 0.58303(7)
N3 N 0.00431(14) 0.05950(4) 0.46597(7)
N4 N 0.12891(14) 0.05491(4) 0.33977(7)
C1 C 0.13382(17) 0.01327(4) 0.33706(8)
C2 C 0.17985(16) -0.01157(4) 0.26790(8)
C3 C 0.22516(16) 0.00013(4) 0.19199(8)
C4 C 0.26743(16) -0.03206(4) 0.13773(8)
C5 C 0.32017(17) -0.02196(5) 0.06013(8)
H2 H 0.3253 0.0068 0.0436
C6 C 0.36357(18) -0.05310(5) 0.00899(8)
H3 H 0.4000 -0.0458 -0.0422
C7 C -0.35459(18) 0.09595(5) 0.96818(9)
H4 H -0.3863 0.1173 1.0037
C8 C -0.30028(18) 0.10696(5) 0.89488(8)
H5 H -0.2923 0.1360 0.8808
C9 C -0.25599(17) 0.07551(4) 0.83985(8)
C10 C -0.20120(17) 0.08676(4) 0.76322(8)
C11 C -0.16963(17) 0.05496(4) 0.70948(8)
C12 C -0.12092(17) 0.05571(4) 0.62608(8)
C13 C -0.04683(17) 0.09226(4) 0.51053(8)
C14 C -0.01659(16) 0.13260(4) 0.47190(8)
C15 C -0.05050(17) 0.17388(4) 0.48949(8)
C16 C 0.00979(17) 0.20683(4) 0.44265(8)
C17 C -0.01773(18) 0.24991(4) 0.45947(9)
H6 H -0.0778 0.2572 0.5028
C18 C 0.04119(19) 0.28118(5) 0.41399(9)
H7 H 0.0218 0.3100 0.4261
C19 C 0.13054(19) 0.27109(5) 0.34914(9)
H8 H 0.1706 0.2931 0.3178
C20 C 0.15976(18) 0.22976(4) 0.33113(9)
H9 H 0.2202 0.2233 0.2874
C21 C 0.10092(17) 0.19648(4) 0.37696(8)
C22 C 0.12726(17) 0.15340(4) 0.35762(8)
C23 C 0.06782(16) 0.12225(4) 0.40389(8)
C24 C 0.07162(17) 0.07609(4) 0.40092(8)
C25 C 0.06802(17) 0.05736(5) 0.12383(9)
H10 H -0.0077 0.0593 0.1654
H11 H 0.0153 0.0379 0.0768
C26 C 0.09099(18) 0.10057(5) 0.08755(9)
H12 H 0.1462 0.1193 0.1352
H13 H -0.0223 0.1125 0.0625
C27 C 0.1972(2) 0.10031(5) 0.01866(9)
H14 H 0.3109 0.0885 0.0435
H15 H 0.1422 0.0817 -0.0293
C28 C 0.2180(2) 0.14416(6) -0.01644(11)
H16 H 0.2848 0.1423 -0.0612
H17 H 0.2768 0.1624 0.0303
H18 H 0.1058 0.1560 -0.0411
C29 C -0.01376(18) 0.14316(5) 0.74946(9)
H19 H 0.0202 0.1347 0.6955
H20 H 0.0658 0.1299 0.7985
C30 C -0.00726(19) 0.19052(5) 0.75856(9)
H21 H -0.0186 0.1983 0.8174
H22 H -0.1041 0.2031 0.7173
C31 C 0.1581(2) 0.20845(5) 0.74190(11)
H23 H 0.2549 0.1956 0.7827
H24 H 0.1687 0.2009 0.6828
C32 C 0.1667(2) 0.25619(5) 0.75187(12)
H25 H 0.0753 0.2692 0.7091
H26 H 0.2768 0.2663 0.7431
H27 H 0.1534 0.2639 0.8099
C33 C -0.30871(17) 0.17009(5) 0.54293(9)
H28 H -0.3192 0.1557 0.5969
H29 H -0.3337 0.1492 0.4955
C34 C -0.43458(19) 0.20621(5) 0.52466(9)
H30 H -0.5512 0.1945 0.5144
H31 H -0.4211 0.2206 0.4712
C35 C -0.4149(2) 0.23876(5) 0.59668(10)
H32 H -0.4204 0.2242 0.6512
H33 H -0.3016 0.2522 0.6041
C36 C -0.5507(2) 0.27299(6) 0.57945(12)
H34 H -0.5478 0.2871 0.5249
H35 H -0.5289 0.2937 0.6263
H36 H -0.6627 0.2602 0.5760
C37 C 0.38775(17) 0.13517(5) 0.32340(9)
H37 H 0.3994 0.1081 0.3555
H38 H 0.4424 0.1577 0.3630
C38 C 0.47330(18) 0.13181(5) 0.24779(9)
H39 H 0.4427 0.1567 0.2100
H40 H 0.4315 0.1062 0.2139
C39 C 0.66611(18) 0.12938(5) 0.27667(9)
H41 H 0.6968 0.1041 0.3134
H42 H 0.7076 0.1546 0.3117
C40 C 0.75294(19) 0.12702(6) 0.20021(10)
H43 H 0.7126 0.1020 0.1656
H44 H 0.8763 0.1251 0.2212
H45 H 0.7257 0.1524 0.1647
O1B O -0.23306(12) -0.04137(3) 0.83340(6)
O2B O 0.18659(12) -0.12918(3) 0.25205(6)
O3B O 0.13671(12) -0.18613(3) 0.44892(6)
O4B O -0.21065(12) -0.14484(3) 0.70781(6)
N1B N -0.09886(14) 0.01473(4) 0.60320(7)
H1B H -0.0662 0.0073 0.5559
N2B N 0.10520(14) -0.09057(4) 0.41697(7)
N3B N -0.00431(14) -0.05950(4) 0.53403(7)
N4B N -0.12891(14) -0.05491(4) 0.66023(7)
C1B C -0.13382(17) -0.01327(4) 0.66294(8)
C2B C -0.17985(16) 0.01157(4) 0.73210(8)
C3B C -0.22516(16) -0.00013(4) 0.80801(8)
C4B C -0.26743(16) 0.03206(4) 0.86227(8)
C5B C -0.32017(17) 0.02196(5) 0.93987(8)
H2B H -0.3253 -0.0068 0.9564
C6B C -0.36357(18) 0.05310(5) 0.99101(8)
H3B H -0.4000 0.0458 1.0422
C7B C 0.35459(18) -0.09595(5) 0.03182(9)
H4B H 0.3863 -0.1173 -0.0037
C8B C 0.30028(18) -0.10696(5) 0.10512(8)
H5B H 0.2923 -0.1360 0.1192
C9B C 0.25599(17) -0.07551(4) 0.16015(8)
C10B C 0.20120(17) -0.08676(4) 0.23678(8)
C11B C 0.16963(17) -0.05496(4) 0.29052(8)
C12B C 0.12092(17) -0.05571(4) 0.37392(8)
C13B C 0.04683(17) -0.09226(4) 0.48947(8)
C14B C 0.01659(16) -0.13260(4) 0.52810(8)
C15B C 0.05050(17) -0.17388(4) 0.51051(8)
C16B C -0.00979(17) -0.20683(4) 0.55735(8)
C17B C 0.01773(18) -0.24991(4) 0.54053(9)
H6B H 0.0778 -0.2572 0.4972
C18B C -0.04119(19) -0.28118(5) 0.58601(9)
H7B H -0.0218 -0.3100 0.5739
C19B C -0.13054(19) -0.27109(5) 0.65086(9)
H8B H -0.1706 -0.2931 0.6822
C20B C -0.15976(18) -0.22976(4) 0.66887(9)
H9B H -0.2202 -0.2233 0.7126
C21B C -0.10092(17) -0.19648(4) 0.62304(8)
C22B C -0.12726(17) -0.15340(4) 0.64238(8)
C23B C -0.06782(16) -0.12225(4) 0.59611(8)
C24B C -0.07162(17) -0.07609(4) 0.59908(8)
C25B C -0.06802(17) -0.05736(5) 0.87617(9)
H10B H 0.0077 -0.0593 0.8346
H11B H -0.0153 -0.0379 0.9232
C26B C -0.09099(18) -0.10057(5) 0.91245(9)
H12B H -0.1462 -0.1193 0.8648
H13B H 0.0223 -0.1125 0.9375
C27B C -0.1972(2) -0.10031(5) 0.98134(9)
H14B H -0.3109 -0.0885 0.9565
H15B H -0.1422 -0.0817 1.0293
C28B C -0.2180(2) -0.14416(6) 1.01644(11)
H16B H -0.2848 -0.1423 1.0612
H17B H -0.2768 -0.1624 0.9697
H18B H -0.1058 -0.1560 1.0411
C29B C 0.01376(18) -0.14316(5) 0.25054(9)
H19B H -0.0202 -0.1347 0.3045
H20B H -0.0658 -0.1299 0.2015
C30B C 0.00726(19) -0.19052(5) 0.24144(9)
H21B H 0.0186 -0.1983 0.1826
H22B H 0.1041 -0.2031 0.2827
C31B C -0.1581(2) -0.20845(5) 0.25810(11)
H23B H -0.2549 -0.1956 0.2173
H24B H -0.1687 -0.2009 0.3172
C32B C -0.1667(2) -0.25619(5) 0.24813(12)
H25B H -0.0753 -0.2692 0.2909
H26B H -0.2768 -0.2663 0.2569
H27B H -0.1534 -0.2639 0.1901
C33B C 0.30871(17) -0.17009(5) 0.45707(9)
H28B H 0.3192 -0.1557 0.4031
H29B H 0.3337 -0.1492 0.5045
C34B C 0.43458(19) -0.20621(5) 0.47534(9)
H30B H 0.5512 -0.1945 0.4856
H31B H 0.4211 -0.2206 0.5288
C35B C 0.4149(2) -0.23876(5) 0.40332(10)
H32B H 0.4204 -0.2242 0.3488
H33B H 0.3016 -0.2522 0.3959
C36B C 0.5507(2) -0.27299(6) 0.42055(12)
H34B H 0.5478 -0.2871 0.4751
H35B H 0.5289 -0.2937 0.3737
H36B H 0.6627 -0.2602 0.4240
C37B C -0.38775(17) -0.13517(5) 0.67660(9)
H37B H -0.3994 -0.1081 0.6445
H38B H -0.4424 -0.1577 0.6370
C38B C -0.47330(18) -0.13181(5) 0.75221(9)
H39B H -0.4427 -0.1567 0.7900
H40B H -0.4315 -0.1062 0.7861
C39B C -0.66611(18) -0.12938(5) 0.72333(9)
H41B H -0.6968 -0.1041 0.6866
H42B H -0.7076 -0.1546 0.6883
C40B C -0.75294(19) -0.12702(6) 0.79979(10)
H43B H -0.7126 -0.1020 0.8344
H44B H -0.8763 -0.1251 0.7788
H45B H -0.7257 -0.1524 0.8353
C41 C 0.3462(3) 0.02532(9) 0.69078(14)
C42 C 0.3391(4) 0.06838(10) 0.70716(16)
H46 H 0.3123 0.0779 0.7594
C43 C 0.3713(5) 0.09751(7) 0.6471(2)
C44 C 0.4106(3) 0.08359(9) 0.57058(17)
H47 H 0.4325 0.1035 0.5295
C45 C 0.4177(3) 0.04054(10) 0.55420(13)
H48 H 0.4446 0.0310 0.5019
C46 C 0.3855(3) 0.01140(7) 0.61430(17)
H49 H 0.3904 -0.0180 0.6031
C47 C 0.3105(8) -0.00553(19) 0.7558(4)
H50 H 0.4142 -0.0214 0.7799
H51 H 0.2214 -0.0252 0.7281
H52 H 0.2725 0.0097 0.8020
C48? C 0.3550(5) 0.06685(11) 0.6778(3)
C49? C 0.3751(6) 0.03056(15) 0.6316(2)
H53? H 0.4071 0.0328 0.5775
C50? C 0.3486(6) -0.00899(12) 0.6645(3)
H54? H 0.3623 -0.0338 0.6330
C51? C 0.3019(6) -0.01226(11) 0.7437(3)
H55? H 0.2837 -0.0393 0.7662
C52? C 0.2817(6) 0.02403(15) 0.7899(2)
H56? H 0.2498 0.0218 0.8440
C53? C 0.3083(5) 0.06358(11) 0.7569(3)
H57? H 0.2946 0.0884 0.7885
C54? C 0.3852(18) 0.1099(5) 0.6422(9)
H58? H 0.4465 0.1066 0.5954
H59? H 0.4530 0.1272 0.6881
H60? H 0.2758 0.1237 0.6200
loop_
_geom_bond_atom_site_label_1
_geom_bond_atom_site_label_2
_geom_bond_site_symmetry_1
_geom_bond_site_symmetry_2
O1 C3 1_555 1_555
O2 C10 1_555 1_555
O3 C15 1_555 1_555
O4 C22 1_555 1_555
N1 H1 1_555 1_555
N2 C12 1_555 1_555
N3 C13 1_555 1_555
N4 C1 1_555 1_555
C1 N1 1_555 1_555
C2 C1 1_555 1_555
C3 C2 1_555 1_555
C4 C3 1_555 1_555
C5 C4 1_555 1_555
H2 C5 1_555 1_555
C6 C5 1_555 1_555
H3 C6 1_555 1_555
C7 H4 1_555 1_555
C8 C7 1_555 1_555
H5 C8 1_555 1_555
C9 C8 1_555 1_555
C10 C9 1_555 1_555
C11 C10 1_555 1_555
C12 C11 1_555 1_555
C13 N2 1_555 1_555
C14 C13 1_555 1_555
C15 C14 1_555 1_555
C16 C15 1_555 1_555
C17 C16 1_555 1_555
H6 C17 1_555 1_555
C18 C17 1_555 1_555
H7 C18 1_555 1_555
C19 C18 1_555 1_555
H8 C19 1_555 1_555
C20 C19 1_555 1_555
H9 C20 1_555 1_555
C21 C16 1_555 1_555
C22 C21 1_555 1_555
C23 C14 1_555 1_555
C24 N3 1_555 1_555
C25 O1 1_555 1_555
H10 C25 1_555 1_555
H11 C25 1_555 1_555
C26 C25 1_555 1_555
H12 C26 1_555 1_555
H13 C26 1_555 1_555
C27 C26 1_555 1_555
H14 C27 1_555 1_555
H15 C27 1_555 1_555
C28 C27 1_555 1_555
H16 C28 1_555 1_555
H17 C28 1_555 1_555
H18 C28 1_555 1_555
C29 O2 1_555 1_555
H19 C29 1_555 1_555
H20 C29 1_555 1_555
C30 C29 1_555 1_555
H21 C30 1_555 1_555
H22 C30 1_555 1_555
C31 C30 1_555 1_555
H23 C31 1_555 1_555
H24 C31 1_555 1_555
C32 C31 1_555 1_555
H25 C32 1_555 1_555
H26 C32 1_555 1_555
H27 C32 1_555 1_555
C33 O3 1_555 1_555
H28 C33 1_555 1_555
H29 C33 1_555 1_555
C34 C33 1_555 1_555
H30 C34 1_555 1_555
H31 C34 1_555 1_555
C35 C34 1_555 1_555
H32 C35 1_555 1_555
H33 C35 1_555 1_555
C36 C35 1_555 1_555
H34 C36 1_555 1_555
H35 C36 1_555 1_555
H36 C36 1_555 1_555
C37 O4 1_555 1_555
H37 C37 1_555 1_555
H38 C37 1_555 1_555
C38 C37 1_555 1_555
H39 C38 1_555 1_555
H40 C38 1_555 1_555
C39 C38 1_555 1_555
H41 C39 1_555 1_555
H42 C39 1_555 1_555
C40 C39 1_555 1_555
H43 C40 1_555 1_555
H44 C40 1_555 1_555
H45 C40 1_555 1_555
C41 C42 1_555 1_555
C42 H46 1_555 1_555
C43 C42 1_555 1_555
C44 C43 1_555 1_555
H47 C44 1_555 1_555
C45 C44 1_555 1_555
H48 C45 1_555 1_555
C46 C41 1_555 1_555
H49 C46 1_555 1_555
C47 C41 1_555 1_555
H50 C47 1_555 1_555
H51 C47 1_555 1_555
H52 C47 1_555 1_555
O1B C3B 1_555 1_555
O2B C10B 1_555 1_555
O3B C15B 1_555 1_555
O4B C22B 1_555 1_555
N1B C12 1_555 1_555
H1B N1B 1_555 1_555
N2B C12B 1_555 1_555
N3B C13B 1_555 1_555
N4B C1B 1_555 1_555
C1B N1B 1_555 1_555
C2B C11 1_555 1_555
C3B C2B 1_555 1_555
C4B C9 1_555 1_555
C5B C4B 1_555 1_555
H2B C5B 1_555 1_555
C6B C7 1_555 1_555
H3B C6B 1_555 1_555
C7B C6 1_555 1_555
H4B C7B 1_555 1_555
C8B C7B 1_555 1_555
H5B C8B 1_555 1_555
C9B C4 1_555 1_555
C10B C9B 1_555 1_555
C11B C2 1_555 1_555
C12B N1 1_555 1_555
C13B N2B 1_555 1_555
C14B C13B 1_555 1_555
C15B C14B 1_555 1_555
C16B C15B 1_555 1_555
C17B C16B 1_555 1_555
H6B C17B 1_555 1_555
C18B C17B 1_555 1_555
H7B C18B 1_555 1_555
C19B C18B 1_555 1_555
H8B C19B 1_555 1_555
C20B C19B 1_555 1_555
H9B C20B 1_555 1_555
C21B C16B 1_555 1_555
C22B C21B 1_555 1_555
C23B C14B 1_555 1_555
C24B N3B 1_555 1_555
C25B O1B 1_555 1_555
H10B C25B 1_555 1_555
H11B C25B 1_555 1_555
C26B C25B 1_555 1_555
H12B C26B 1_555 1_555
H13B C26B 1_555 1_555
C27B C26B 1_555 1_555
H14B C27B 1_555 1_555
H15B C27B 1_555 1_555
C28B C27B 1_555 1_555
H16B C28B 1_555 1_555
H17B C28B 1_555 1_555
H18B C28B 1_555 1_555
C29B O2B 1_555 1_555
H19B C29B 1_555 1_555
H20B C29B 1_555 1_555
C30B C29B 1_555 1_555
H21B C30B 1_555 1_555
H22B C30B 1_555 1_555
C31B C30B 1_555 1_555
H23B C31B 1_555 1_555
H24B C31B 1_555 1_555
C32B C31B 1_555 1_555
H25B C32B 1_555 1_555
H26B C32B 1_555 1_555
H27B C32B 1_555 1_555
C33B O3B 1_555 1_555
H28B C33B 1_555 1_555
H29B C33B 1_555 1_555
C34B C33B 1_555 1_555
H30B C34B 1_555 1_555
H31B C34B 1_555 1_555
C35B C34B 1_555 1_555
H32B C35B 1_555 1_555
H33B C35B 1_555 1_555
C36B C35B 1_555 1_555
H34B C36B 1_555 1_555
H35B C36B 1_555 1_555
H36B C36B 1_555 1_555
C37B O4B 1_555 1_555
H37B C37B 1_555 1_555
H38B C37B 1_555 1_555
C38B C37B 1_555 1_555
H39B C38B 1_555 1_555
H40B C38B 1_555 1_555
C39B C38B 1_555 1_555
H41B C39B 1_555 1_555
H42B C39B 1_555 1_555
C40B C39B 1_555 1_555
H43B C40B 1_555 1_555
H44B C40B 1_555 1_555
H45B C40B 1_555 1_555
N4 C24 1_555 1_555
C20 C21 1_555 1_555
C22 C23 1_555 1_555
C23 C24 1_555 1_555
C45 C46 1_555 1_555
N4B C24B 1_555 1_555
C1B C2B 1_555 1_555
C3B C4B 1_555 1_555
C5B C6B 1_555 1_555
C8B C9B 1_555 1_555
C10B C11B 1_555 1_555
C11B C12B 1_555 1_555
C20B C21B 1_555 1_555
C22B C23B 1_555 1_555
C23B C24B 1_555 1_555

#END
