
#######################################################################
#
#                 Cambridge Crystallographic Data Centre
#                                CCDC 
#
#######################################################################
#
# If this CIF has been generated from an entry in the Cambridge 
# Structural Database, then it will include bibliographic, chemical, 
# crystal, experimental, refinement or atomic coordinate data resulting 
# from the CCDC's data processing and validation procedures.
#
#######################################################################

data_NUTGIU
_chemical_formula_moiety         'C45 H33 N9 O3'
_chemical_name_systematic        
"N,N',N''-tris(4-(Phenyldiazenyl)phenyl)benzene-1,3,5-tricarboxamide unknown solvate"
_symmetry_cell_setting           monoclinic
_symmetry_space_group_name_H-M   'C 2/c'
_symmetry_Int_Tables_number      15
_space_group_name_Hall           '-C 2yn'
loop_
_symmetry_equiv_pos_site_id
_symmetry_equiv_pos_as_xyz
1 x,y,z
2 -x,y,1/2-z
3 1/2+x,1/2+y,z
4 1/2-x,1/2+y,1/2-z
5 -x,-y,-z
6 x,-y,1/2+z
7 1/2-x,1/2-y,-z
8 1/2+x,1/2-y,1/2+z
_cell_length_a                   59.367(7)
_cell_length_b                   4.7106(5)
_cell_length_c                   39.948(4)
_cell_angle_alpha                90
_cell_angle_beta                 103.160(4)
_cell_angle_gamma                90
_cell_volume                     10878.2
_exptl_crystal_colour            red
_exptl_crystal_description       needle
_cell_formula_units_Z            8
loop_
_atom_site_label
_atom_site_type_symbol
_atom_site_fract_x
_atom_site_fract_y
_atom_site_fract_z
O1 O 0.59431(6) 0.2685(8) 0.53728(10)
O2 O 0.57684(6) 1.1086(8) 0.41469(11)
O3 O 0.67372(7) 0.4902(9) 0.46151(12)
N1 N 0.56754(8) 1.1758(10) 0.46737(14)
H1 H 0.5709 1.1137 0.4887
N2 N 0.63270(9) 0.2795(11) 0.55995(14)
H2 H 0.6459 0.3454 0.5568
N3 N 0.66059(8) 0.8545(10) 0.42514(12)
H3 H 0.6495 0.9820 0.4211
N4 N 0.65846(10) -0.3594(11) 0.70098(16)
N5 N 0.73143(9) 1.2015(14) 0.33820(16)
N6 N 0.73571(10) 1.0262(14) 0.36275(18)
N7 N 0.63910(12) -0.3627(12) 0.67934(16)
N8 N 0.49016(9) 2.0872(10) 0.40853(15)
N9 N 0.49477(9) 1.9799(12) 0.43855(16)
C1 C 0.61733(9) 0.5329(12) 0.50719(15)
C2 C 0.59909(10) 0.7060(13) 0.49354(16)
H4 H 0.5861 0.7123 0.5036
C3 C 0.59945(11) 0.8729(14) 0.46501(18)
C4 C 0.61857(9) 0.8627(12) 0.44965(16)
H5 H 0.6187 0.9699 0.4295
C5 C 0.63718(10) 0.6932(12) 0.46448(18)
C6 C 0.63683(10) 0.5243(12) 0.49306(16)
H6 H 0.6496 0.4056 0.5027
C7 C 0.61443(11) 0.3552(13) 0.53573(17)
C8 C 0.63486(14) 0.1084(14) 0.5906(2)
C9 C 0.65393(12) 0.1313(15) 0.61661(19)
H7 H 0.6660 0.2556 0.6141
C10 C 0.65617(12) -0.0209(16) 0.64652(19)
H8 H 0.6698 -0.0055 0.6643
C11 C 0.63824(11) -0.1970(14) 0.65016(18)
C12 C 0.61807(11) -0.2245(14) 0.62378(17)
H9 H 0.6059 -0.3463 0.6265
C13 C 0.61647(10) -0.0702(11) 0.59388(16)
H10 H 0.6031 -0.0847 0.5757
C14 C 0.65910(12) -0.5365(15) 0.73111(19)
C15 C 0.67756(13) -0.4942(15) 0.75772(19)
H11 H 0.6889 -0.3559 0.7561
C16 C 0.67964(18) -0.655(2) 0.7873(3)
H12 H 0.6925 -0.6271 0.8061
C17 C 0.6626(2) -0.8619(18) 0.7895(3)
H13 H 0.6642 -0.9773 0.8094
C18 C 0.6430(2) -0.894(2) 0.7613(3)
H14 H 0.6311 -1.0257 0.7623
C19 C 0.64209(13) -0.7277(14) 0.73282(19)
H15 H 0.6293 -0.7461 0.7138
C20 C 0.58025(9) 1.0671(12) 0.44744(18)
C21 C 0.54913(11) 1.3784(13) 0.4599(2)
C22 C 0.53815(10) 1.4667(13) 0.48426(18)
H16 H 0.5431 1.3951 0.5070
C23 C 0.51984(10) 1.6587(13) 0.47719(17)
H17 H 0.5123 1.7146 0.4947
C24 C 0.51282(11) 1.7666(13) 0.44437(18)
C25 C 0.52340(11) 1.6757(14) 0.4175(2)
H18 H 0.5182 1.7443 0.3947
C26 C 0.54149(10) 1.4849(13) 0.42566(17)
H19 H 0.5490 1.4235 0.4083
C27 C 0.47202(10) 2.2846(12) 0.40222(16)
C28 C 0.45684(10) 2.3436(13) 0.42288(17)
H20 H 0.4585 2.2460 0.4441
C29 C 0.43938(11) 2.5397(14) 0.41351(19)
H21 H 0.4288 2.5709 0.4277
C30 C 0.43725(11) 2.6938(14) 0.38280(19)
H22 H 0.4256 2.8348 0.3766
C31 C 0.45190(13) 2.6402(17) 0.3620(2)
H23 H 0.4502 2.7388 0.3408
C32 C 0.46972(13) 2.4381(16) 0.3718(2)
H24 H 0.4803 2.4064 0.3576
C33 C 0.65971(10) 0.6594(15) 0.44984(17)
C34 C 0.67754(13) 0.876(2) 0.4050(2)
C35 C 0.67901(15) 1.130(2) 0.3878(3)
H25 H 0.6668 1.2645 0.3851
C36 C 0.6983(2) 1.186(2) 0.3748(3)
H26 H 0.6993 1.3598 0.3630
C37 C 0.71617(14) 0.989(3) 0.3788(3)
C38 C 0.71470(14) 0.736(2) 0.3959(3)
H27 H 0.7269 0.6009 0.3987
C39 C 0.69539(18) 0.6790(18) 0.4090(3)
H28 H 0.6944 0.5056 0.4208
C40 C 0.75209(13) 1.2376(18) 0.32316(19)
C41 C 0.74920(15) 1.447(2) 0.2976(2)
H29 H 0.7353 1.5543 0.2920
C42 C 0.76687(13) 1.4968(17) 0.2807(2)
H30 H 0.7653 1.6399 0.2635
C43 C 0.78713(12) 1.3324(16) 0.2893(2)
H31 H 0.7995 1.3657 0.2783
C44 C 0.78886(17) 1.128(2) 0.3131(3)
H32 H 0.8024 1.0131 0.3179
C45 C 0.77199(15) 1.0771(18) 0.3308(2)
H33 H 0.7740 0.9342 0.3480
C46? C 0.68158(14) 0.904(2) 0.4143(3)
C47? C 0.67742(14) 1.024(3) 0.3817(3)
H34? H 0.6623 1.0843 0.3707
C48? C 0.6954(2) 1.055(3) 0.3650(2)
H35? H 0.6926 1.1363 0.3427
C49? C 0.71761(17) 0.966(3) 0.3810(3)
C50? C 0.72177(12) 0.847(3) 0.4137(3)
H36? H 0.7369 0.7862 0.4246
C51? C 0.70375(19) 0.816(3) 0.4303(2)
H37? H 0.7066 0.7343 0.4526
loop_
_geom_bond_atom_site_label_1
_geom_bond_atom_site_label_2
_geom_bond_site_symmetry_1
_geom_bond_site_symmetry_2
O1 C7 1_555 1_555
O2 C20 1_555 1_555
O3 C33 1_555 1_555
N1 H1 1_555 1_555
N2 H2 1_555 1_555
N3 H3 1_555 1_555
N4 N7 1_555 1_555
N5 N6 1_555 1_555
N6 C37 1_555 1_555
N7 C11 1_555 1_555
N8 N9 1_555 1_555
N9 C24 1_555 1_555
C1 C2 1_555 1_555
C2 H4 1_555 1_555
C3 C2 1_555 1_555
C4 C3 1_555 1_555
H5 C4 1_555 1_555
C5 C4 1_555 1_555
C6 C1 1_555 1_555
H6 C6 1_555 1_555
C7 N2 1_555 1_555
C8 N2 1_555 1_555
C9 C8 1_555 1_555
H7 C9 1_555 1_555
C10 C9 1_555 1_555
H8 C10 1_555 1_555
C11 C10 1_555 1_555
C12 C11 1_555 1_555
H9 C12 1_555 1_555
C13 C8 1_555 1_555
H10 C13 1_555 1_555
C14 N4 1_555 1_555
C15 C14 1_555 1_555
H11 C15 1_555 1_555
C16 C15 1_555 1_555
H12 C16 1_555 1_555
C17 C16 1_555 1_555
H13 C17 1_555 1_555
C18 C17 1_555 1_555
H14 C18 1_555 1_555
C19 C14 1_555 1_555
H15 C19 1_555 1_555
C20 N1 1_555 1_555
C21 N1 1_555 1_555
C22 C21 1_555 1_555
H16 C22 1_555 1_555
C23 C22 1_555 1_555
H17 C23 1_555 1_555
C24 C23 1_555 1_555
C25 C24 1_555 1_555
H18 C25 1_555 1_555
C26 C21 1_555 1_555
H19 C26 1_555 1_555
C27 N8 1_555 1_555
C28 C27 1_555 1_555
H20 C28 1_555 1_555
C29 C28 1_555 1_555
H21 C29 1_555 1_555
C30 C29 1_555 1_555
H22 C30 1_555 1_555
C31 C30 1_555 1_555
H23 C31 1_555 1_555
C32 C27 1_555 1_555
H24 C32 1_555 1_555
C33 N3 1_555 1_555
C34 N3 1_555 1_555
C35 C34 1_555 1_555
H25 C35 1_555 1_555
C36 C35 1_555 1_555
H26 C36 1_555 1_555
C37 C36 1_555 1_555
C38 C37 1_555 1_555
H27 C38 1_555 1_555
C39 C34 1_555 1_555
H28 C39 1_555 1_555
C40 N5 1_555 1_555
C41 C40 1_555 1_555
H29 C41 1_555 1_555
C42 C41 1_555 1_555
H30 C42 1_555 1_555
C43 C42 1_555 1_555
H31 C43 1_555 1_555
C44 C43 1_555 1_555
H32 C44 1_555 1_555
C45 C40 1_555 1_555
H33 C45 1_555 1_555
C1 C7 1_555 1_555
C3 C20 1_555 1_555
C5 C6 1_555 1_555
C5 C33 1_555 1_555
C12 C13 1_555 1_555
C18 C19 1_555 1_555
C25 C26 1_555 1_555
C31 C32 1_555 1_555
C38 C39 1_555 1_555
C44 C45 1_555 1_555

#END
