
#######################################################################
#
#                 Cambridge Crystallographic Data Centre
#                                CCDC 
#
#######################################################################
#
# If this CIF has been generated from an entry in the Cambridge 
# Structural Database, then it will include bibliographic, chemical, 
# crystal, experimental, refinement or atomic coordinate data resulting 
# from the CCDC's data processing and validation procedures.
#
#######################################################################

data_NUTNUM
_chemical_formula_moiety         'C22 H21 N1 O3'
_chemical_name_systematic        
6a'-(4-Methoxyphenyl)-4'-(4-methylphenyl)-3a',6a'-dihydrospiro[cyclopropane-1,6'-furo[3,2-b]pyrrol]-5'(4'H)-one
_symmetry_cell_setting           monoclinic
_symmetry_space_group_name_H-M   'P 21/c'
_symmetry_Int_Tables_number      14
_space_group_name_Hall           '-P 2ybc'
loop_
_symmetry_equiv_pos_site_id
_symmetry_equiv_pos_as_xyz
1 x,y,z
2 -x,1/2+y,1/2-z
3 -x,-y,-z
4 x,1/2-y,1/2+z
_cell_length_a                   7.6160(8)
_cell_length_b                   22.393(2)
_cell_length_c                   10.5250(10)
_cell_angle_alpha                90
_cell_angle_beta                 90.881(2)
_cell_angle_gamma                90
_cell_volume                     1794.77
_exptl_crystal_colour            colorless
_exptl_crystal_description       block
_cell_formula_units_Z            4
loop_
_atom_site_label
_atom_site_type_symbol
_atom_site_fract_x
_atom_site_fract_y
_atom_site_fract_z
O1 O 0.15716(16) 0.05296(6) 0.37592(12)
O2 O 0.17281(19) 0.30993(6) 0.12186(14)
O3 O 0.63837(17) -0.03149(6) 0.27497(15)
N1 N 0.36181(19) -0.02495(6) 0.18379(15)
C1 C 0.2291(2) 0.13201(8) 0.22824(17)
C2 C 0.3955(3) -0.18910(9) 0.14710(19)
C3 C 0.3441(2) -0.08353(8) 0.13395(17)
C4 C 0.2727(3) 0.21362(9) 0.0828(2)
C5 C 0.2952(2) 0.15475(9) 0.11535(19)
C6 C 0.4217(2) -0.13230(8) 0.19453(18)
C7 C 0.2917(2) -0.20006(9) 0.04009(18)
C8 C 0.4576(2) 0.05546(8) 0.30444(17)
C9 C 0.2214(2) 0.02024(8) 0.16802(19)
C10 C 0.1385(3) 0.17082(9) 0.30561(19)
C11 C 0.1835(2) 0.25223(8) 0.16223(19)
C12 C 0.1147(3) 0.23046(9) 0.27326(19)
C13 C 0.2686(2) 0.06829(8) 0.26791(16)
C14 C 0.5014(2) -0.00443(8) 0.25562(19)
C15 C 0.2403(3) -0.09374(9) 0.02639(19)
C16 C 0.0242(3) 0.01794(9) 0.3266(2)
C17 C 0.6020(3) 0.10203(10) 0.3095(2)
C18 C 0.2141(3) -0.15116(9) -0.01780(19)
C19 C 0.0458(2) -0.00081(9) 0.2106(2)
C20 C 0.2670(4) -0.26232(12) -0.0112(3)
C21 C 0.5377(3) 0.07565(11) 0.4289(2)
C22 C 0.0873(4) 0.35235(11) 0.2013(3)
H1 H 0.139(3) -0.1586(9) -0.0939(19)
H2 H 0.494(2) -0.1254(8) 0.2683(18)
H3 H 0.359(3) 0.1277(9) 0.0615(18)
H4 H 0.091(3) 0.1545(10) 0.386(2)
H5 H 0.464(3) 0.0994(10) 0.482(2)
H6 H -0.032(3) -0.0279(9) 0.1648(19)
H7 H -0.068(3) 0.0111(9) 0.388(2)
H8 H 0.609(3) 0.0456(10) 0.473(2)
H9 H 0.191(2) -0.0604(9) -0.0192(18)
H10 H 0.717(3) 0.0885(9) 0.2768(17)
H11 H 0.050(3) 0.2574(10) 0.330(2)
H12 H 0.569(3) 0.1426(10) 0.2905(19)
H13 H 0.448(2) -0.2209(9) 0.1906(17)
H14 H 0.315(2) 0.2288(9) 0.0048(19)
H15 H -0.038(4) 0.3403(10) 0.214(2)
H16 H 0.149(3) 0.3544(11) 0.290(3)
H17 H 0.103(3) 0.3887(12) 0.158(2)
H18 H 0.223(2) 0.0370(8) 0.0829(18)
H19 H 0.197(5) -0.2629(16) -0.076(3)
H20 H 0.371(5) -0.2768(16) -0.034(3)
H21 H 0.231(5) -0.2886(18) 0.047(4)
loop_
_geom_bond_atom_site_label_1
_geom_bond_atom_site_label_2
_geom_bond_site_symmetry_1
_geom_bond_site_symmetry_2
O1 C13 1_555 1_555
O2 C11 1_555 1_555
O3 C14 1_555 1_555
N1 C3 1_555 1_555
C1 C5 1_555 1_555
C2 C6 1_555 1_555
C3 C6 1_555 1_555
C4 C5 1_555 1_555
C5 H3 1_555 1_555
C6 H2 1_555 1_555
C7 C2 1_555 1_555
C8 C13 1_555 1_555
C9 N1 1_555 1_555
C10 C1 1_555 1_555
C11 C4 1_555 1_555
C12 C10 1_555 1_555
C13 C1 1_555 1_555
C14 N1 1_555 1_555
C15 C3 1_555 1_555
C16 O1 1_555 1_555
C17 C8 1_555 1_555
C18 C7 1_555 1_555
C19 C9 1_555 1_555
C20 C7 1_555 1_555
C21 C8 1_555 1_555
C22 O2 1_555 1_555
H1 C18 1_555 1_555
H4 C10 1_555 1_555
H5 C21 1_555 1_555
H6 C19 1_555 1_555
H7 C16 1_555 1_555
H8 C21 1_555 1_555
H9 C15 1_555 1_555
H10 C17 1_555 1_555
H11 C12 1_555 1_555
H12 C17 1_555 1_555
H13 C2 1_555 1_555
H14 C4 1_555 1_555
H15 C22 1_555 1_555
H16 C22 1_555 1_555
H17 C22 1_555 1_555
H18 C9 1_555 1_555
H19 C20 1_555 1_555
H20 C20 1_555 1_555
H21 C20 1_555 1_555
C8 C14 1_555 1_555
C9 C13 1_555 1_555
C11 C12 1_555 1_555
C15 C18 1_555 1_555
C16 C19 1_555 1_555
C17 C21 1_555 1_555

#END
