
#######################################################################
#
#                 Cambridge Crystallographic Data Centre
#                                CCDC 
#
#######################################################################
#
# If this CIF has been generated from an entry in the Cambridge 
# Structural Database, then it will include bibliographic, chemical, 
# crystal, experimental, refinement or atomic coordinate data resulting 
# from the CCDC's data processing and validation procedures.
#
#######################################################################

data_NUTPAU
_chemical_formula_moiety         'C24 H21 Cl2 N1 O6'
_chemical_name_systematic        
'Diethyl 3-(2,3-dichlorophenyl)-4,9-dioxo-2,3,3a,4,9,9a-hexahydro-1H-benzo[f]isoindole-1,1-dicarboxylate'
_symmetry_cell_setting           monoclinic
_symmetry_space_group_name_H-M   'P 21'
_symmetry_Int_Tables_number      4
_space_group_name_Hall           'P 2yb'
loop_
_symmetry_equiv_pos_site_id
_symmetry_equiv_pos_as_xyz
1 x,y,z
2 -x,1/2+y,-z
_cell_length_a                   8.314(5)
_cell_length_b                   22.630(5)
_cell_length_c                   12.582(5)
_cell_angle_alpha                90
_cell_angle_beta                 94.055(5)
_cell_angle_gamma                90
_cell_volume                     2361.32
_exptl_crystal_colour            colorless
_exptl_crystal_description       block
_cell_formula_units_Z            4
loop_
_atom_site_label
_atom_site_type_symbol
_atom_site_fract_x
_atom_site_fract_y
_atom_site_fract_z
Cl1 Cl 0.0688(2) 0.77915(7) 0.37046(13)
Cl3 Cl 0.1434(4) 0.90098(8) 0.26706(16)
O2 O 0.3254(4) 0.76237(15) 0.6130(2)
N1 N 0.4573(5) 0.64942(15) 0.3426(3)
O3 O 0.5949(5) 0.50677(17) 0.4283(3)
O7 O 0.2626(5) 0.5445(2) 0.4946(3)
C5 C 0.3519(5) 0.69131(17) 0.3933(3)
H3 H 0.2396 0.6814 0.3717
O9 O 0.6640(5) 0.56180(17) 0.2926(4)
C7 C 0.5039(5) 0.62624(19) 0.5188(3)
H4 H 0.4804 0.5988 0.5758
C8 C 0.4673(6) 0.59727(18) 0.4084(3)
C13 C 0.6025(5) 0.7427(2) 0.6089(3)
C14 C 0.4300(5) 0.73023(19) 0.5822(3)
C15 C 0.7202(5) 0.7031(2) 0.5798(3)
C16 C 0.5929(6) 0.55465(19) 0.3700(4)
C17 C 0.3858(6) 0.75379(18) 0.3553(3)
C18 C 0.8841(6) 0.7186(3) 0.6017(4)
H6 H 0.9655 0.6934 0.5822
C19 C 0.3834(5) 0.67762(18) 0.5130(3)
H7 H 0.2822 0.6623 0.5376
C22 C 0.5388(7) 0.7701(2) 0.3332(4)
H9 H 0.6223 0.7431 0.3457
C24 C 0.6477(6) 0.7949(3) 0.6609(4)
H11 H 0.5687 0.8209 0.6808
O11 O 0.7864(5) 0.6134(2) 0.5036(5)
C27 C 0.6812(6) 0.6459(2) 0.5305(4)
C31 C 0.3078(6) 0.5621(2) 0.4015(4)
C32 C 0.4530(14) 0.8648(3) 0.2751(5)
H17 H 0.4756 0.9019 0.2478
C36 C 0.9218(7) 0.7711(3) 0.6520(5)
H23 H 1.0296 0.7814 0.6649
C39 C 0.2976(11) 0.8510(2) 0.2966(4)
C40 C 0.5734(10) 0.8250(3) 0.2932(5)
H25 H 0.6784 0.8346 0.2788
C41 C 0.7037(8) 0.4621(3) 0.3889(5)
H26 H 0.8153 0.4739 0.4030
H27 H 0.6826 0.4564 0.3128
C43 C 0.8066(7) 0.8084(3) 0.6833(5)
H29 H 0.8356 0.8429 0.7198
C44 C 0.2613(7) 0.7951(2) 0.3394(4)
C46 C 0.6700(9) 0.4059(3) 0.4483(6)
H33 H 0.7383 0.3749 0.4256
H34 H 0.5591 0.3949 0.4337
H35 H 0.6910 0.4123 0.5235
O12 O 0.2353(5) 0.55210(17) 0.3181(3)
C47 C 0.1188(8) 0.5085(3) 0.4920(6)
H36 H 0.0552 0.5140 0.4251
H37 H 0.0534 0.5194 0.5498
C48 C 0.1722(10) 0.4452(3) 0.5039(7)
H38 H 0.0793 0.4199 0.5026
H39 H 0.2349 0.4403 0.5704
H40 H 0.2366 0.4348 0.4462
H41 H 0.411(6) 0.639(2) 0.279(3)
Cl2 Cl 0.6479(2) 0.65887(8) 0.87584(14)
Cl4 Cl 0.5372(4) 0.53653(8) 0.78250(17)
O1 O 0.1700(4) 0.93884(14) 0.9403(3)
O4 O 0.1017(4) 0.89618(14) 0.7817(3)
N2 N 0.2838(4) 0.79707(15) 0.8425(3)
O5 O 0.4954(4) 0.90240(17) 0.8498(3)
O6 O 0.3795(4) 0.66882(16) 1.1018(3)
C1 C 0.2868(5) 0.7088(2) 1.0764(3)
C2 C 0.2352(5) 0.81635(18) 1.0149(3)
H1 H 0.2648 0.8414 1.0767
C3 C 0.1146(5) 0.7059(2) 1.1030(3)
O8 O 0.5263(5) 0.8778(2) 1.0194(3)
C4 C 0.3783(5) 0.75024(17) 0.8972(3)
H2 H 0.4930 0.7568 0.8879
C6 C 0.1687(5) 0.8958(2) 0.8682(4)
C9 C 0.3446(5) 0.76154(18) 1.0184(3)
H5 H 0.4475 0.7734 1.0551
C10 C 0.0061(5) 0.7506(2) 1.0700(3)
C11 C 0.3304(6) 0.69033(18) 0.8548(3)
C12 C 0.2828(5) 0.84752(17) 0.9134(3)
O10 O -0.0417(4) 0.83553(19) 0.9659(4)
C20 C -0.1552(6) 0.7458(3) 1.0931(4)
H8 H -0.2289 0.7750 1.0713
C21 C 0.4491(5) 0.8780(2) 0.9353(4)
C23 C 0.1697(7) 0.6778(2) 0.8266(4)
H10 H 0.0918 0.7068 0.8338
C25 C -0.2041(7) 0.6975(3) 1.1484(5)
H12 H -0.3121 0.6939 1.1623
C26 C 0.0783(7) 0.9917(2) 0.9098(4)
H13 H -0.0259 0.9809 0.8758
H14 H 0.1357 1.0150 0.8600
C28 C 0.2388(13) 0.5798(3) 0.7751(5)
H15 H 0.2076 0.5429 0.7483
C29 C -0.0970(7) 0.6540(3) 1.1839(4)
H16 H -0.1319 0.6227 1.2241
C30 C 0.3968(12) 0.5913(2) 0.8015(4)
C33 C 0.6360(7) 0.9420(3) 0.8652(5)
H18 H 0.6751 0.9513 0.7963
H19 H 0.7216 0.9216 0.9069
C34 C 0.5972(8) 0.9988(2) 0.9210(6)
H20 H 0.6926 1.0227 0.9302
H21 H 0.5588 0.9899 0.9894
H22 H 0.5154 1.0199 0.8788
C35 C 0.0574(5) 0.8030(2) 1.0114(4)
C37 C 0.4454(7) 0.6460(2) 0.8412(4)
C38 C 0.0621(6) 0.6571(2) 1.1597(4)
H24 H 0.1338 0.6271 1.1809
C42 C 0.1243(10) 0.6229(3) 0.7882(5)
H28 H 0.0160 0.6149 0.7710
C45 C 0.0568(8) 1.0268(3) 1.0104(4)
H30 H -0.0052 1.0617 0.9930
H31 H 0.1605 1.0379 1.0426
H32 H 0.0013 1.0031 1.0595
H42 H 0.319(5) 0.804(2) 0.782(3)
loop_
_geom_bond_atom_site_label_1
_geom_bond_atom_site_label_2
_geom_bond_site_symmetry_1
_geom_bond_site_symmetry_2
Cl1 C44 1_555 1_555
Cl2 C37 1_555 1_555
Cl3 C39 1_555 1_555
Cl4 C30 1_555 1_555
O1 C6 1_555 1_555
O2 C14 1_555 1_555
N1 C5 1_555 1_555
O3 C16 1_555 1_555
O4 C6 1_555 1_555
N2 C4 1_555 1_555
O5 C21 1_555 1_555
O6 C1 1_555 1_555
O7 C31 1_555 1_555
C1 C3 1_555 1_555
C2 H1 1_555 1_555
C3 C10 1_555 1_555
O8 C21 1_555 1_555
C4 H2 1_555 1_555
C5 H3 1_555 1_555
O9 C16 1_555 1_555
C6 C12 1_555 1_555
C7 H4 1_555 1_555
C8 N1 1_555 1_555
C9 C1 1_555 1_555
H5 C9 1_555 1_555
C10 C20 1_555 1_555
C11 C4 1_555 1_555
C12 N2 1_555 1_555
O10 C35 1_555 1_555
C13 C14 1_555 1_555
C14 C19 1_555 1_555
C15 C13 1_555 1_555
C16 C8 1_555 1_555
C17 C5 1_555 1_555
C18 C15 1_555 1_555
H6 C18 1_555 1_555
C19 C5 1_555 1_555
H7 C19 1_555 1_555
C20 H8 1_555 1_555
C21 C12 1_555 1_555
C22 C17 1_555 1_555
H9 C22 1_555 1_555
C23 C11 1_555 1_555
H10 C23 1_555 1_555
C24 C13 1_555 1_555
H11 C24 1_555 1_555
O11 C27 1_555 1_555
C25 C20 1_555 1_555
H12 C25 1_555 1_555
C26 O1 1_555 1_555
H13 C26 1_555 1_555
H14 C26 1_555 1_555
C27 C7 1_555 1_555
C28 H15 1_555 1_555
C29 C25 1_555 1_555
H16 C29 1_555 1_555
C30 C28 1_555 1_555
C31 C8 1_555 1_555
C32 H17 1_555 1_555
C33 O5 1_555 1_555
H18 C33 1_555 1_555
H19 C33 1_555 1_555
C34 C33 1_555 1_555
H20 C34 1_555 1_555
H21 C34 1_555 1_555
H22 C34 1_555 1_555
C35 C2 1_555 1_555
C36 C18 1_555 1_555
H23 C36 1_555 1_555
C37 C11 1_555 1_555
C38 C3 1_555 1_555
H24 C38 1_555 1_555
C39 C32 1_555 1_555
C40 C22 1_555 1_555
H25 C40 1_555 1_555
C41 O3 1_555 1_555
H26 C41 1_555 1_555
H27 C41 1_555 1_555
C42 C23 1_555 1_555
H28 C42 1_555 1_555
C43 C24 1_555 1_555
H29 C43 1_555 1_555
C44 C17 1_555 1_555
C45 C26 1_555 1_555
H30 C45 1_555 1_555
H31 C45 1_555 1_555
H32 C45 1_555 1_555
C46 C41 1_555 1_555
H33 C46 1_555 1_555
H34 C46 1_555 1_555
H35 C46 1_555 1_555
O12 C31 1_555 1_555
C47 O7 1_555 1_555
H36 C47 1_555 1_555
H37 C47 1_555 1_555
C48 C47 1_555 1_555
H38 C48 1_555 1_555
H39 C48 1_555 1_555
H40 C48 1_555 1_555
H41 N1 1_555 1_555
H42 N2 1_555 1_555
C2 C9 1_555 1_555
C2 C12 1_555 1_555
C4 C9 1_555 1_555
C7 C8 1_555 1_555
C7 C19 1_555 1_555
C10 C35 1_555 1_555
C15 C27 1_555 1_555
C28 C42 1_555 1_555
C29 C38 1_555 1_555
C30 C37 1_555 1_555
C32 C40 1_555 1_555
C36 C43 1_555 1_555
C39 C44 1_555 1_555

#END
