
#######################################################################
#
#                 Cambridge Crystallographic Data Centre
#                                CCDC 
#
#######################################################################
#
# If this CIF has been generated from an entry in the Cambridge 
# Structural Database, then it will include bibliographic, chemical, 
# crystal, experimental, refinement or atomic coordinate data resulting 
# from the CCDC's data processing and validation procedures.
#
#######################################################################

data_NUTTIH
_chemical_formula_moiety         
'C52 H58 N6 O4,2(C4 H12 N1 1+),3(C1 H4 O1),O4 S1 2-,H2 O1,C1 H1 Cl3'
_chemical_name_systematic        
'bis(Tetramethylammonium) sulfate 49,50-diethyl-1,26,31,31,40,40-hexamethyl-5,22-dioxa-8,19,45,46,47,48-hexa-azadecacyclo[24.9.9.1^7,10^.1^17,20^.1^27,30^.1^32,35^.1^36,39^.1^41,44^.0^9,18^.0^11,16^]pentaconta-7(50),9,11(16),12,14,17,20(49),27,29,32,34,36,38,41,43-pentadecaene-6,21-dione chloroform methanol solvate monohydrate'
_symmetry_cell_setting           monoclinic
_symmetry_space_group_name_H-M   'P 21/n'
_symmetry_Int_Tables_number      14
_space_group_name_Hall           '-P 2yn'
loop_
_symmetry_equiv_pos_site_id
_symmetry_equiv_pos_as_xyz
1 x,y,z
2 1/2-x,1/2+y,1/2-z
3 -x,-y,-z
4 1/2+x,1/2-y,1/2+z
_cell_length_a                   11.318(2)
_cell_length_b                   23.919(3)
_cell_length_c                   25.502(4)
_cell_angle_alpha                90
_cell_angle_beta                 95.086(3)
_cell_angle_gamma                90
_cell_volume                     6876.6
_exptl_crystal_description       needles
_cell_formula_units_Z            4
loop_
_atom_site_label
_atom_site_type_symbol
_atom_site_fract_x
_atom_site_fract_y
_atom_site_fract_z
O1 O 0.2875(3) 0.59806(15) 0.23875(15)
O2 O 0.4635(4) 0.63870(17) 0.28332(16)
O3 O 0.4451(4) 0.63035(19) 0.18923(16)
O4 O 0.4725(3) 0.54792(16) 0.24273(16)
S1 S 0.41942(12) 0.60396(6) 0.23856(6)
Cl1 Cl 0.3382(3) 0.40818(12) 0.41935(15)
Cl2 Cl 0.1228(3) 0.34566(12) 0.41904(15)
Cl3 Cl 0.1634(4) 0.43828(17) 0.48975(13)
C1 C 0.1875(8) 0.4110(4) 0.4280(4)
H1 H 0.1489 0.4366 0.4007
O5 O 0.4611(4) 0.50501(19) 0.10318(16)
O6 O 0.4966(5) 0.4309(2) 0.05210(19)
O7 O 0.6181(5) 0.4851(2) 0.45481(18)
O8 O 0.5074(4) 0.53314(17) 0.39232(15)
N1 N 0.1290(4) 0.51774(18) 0.17769(17)
H2 H 0.1898 0.5376 0.1911
N2 N 0.1224(4) 0.65875(19) 0.16053(18)
H3 H 0.1896 0.6457 0.1757
N3 N 0.1476(4) 0.67603(18) 0.29536(18)
H4 H 0.2046 0.6568 0.2825
N4 N 0.1484(4) 0.53605(19) 0.31173(18)
H5 H 0.2075 0.5508 0.2962
N5 N 0.5498(4) 0.4533(2) 0.19169(18)
H6 H 0.5060 0.4825 0.1981
N6 N 0.5780(4) 0.46795(19) 0.31447(17)
H7 H 0.5255 0.4934 0.3035
C2 C 0.0851(5) 0.4711(2) 0.2011(2)
C3 C -0.0081(5) 0.4524(3) 0.1681(2)
H8 H -0.0564 0.4209 0.1740
C4 C -0.0205(5) 0.4882(3) 0.1234(2)
H9 H -0.0776 0.4844 0.0939
C5 C 0.0645(5) 0.5290(2) 0.1303(2)
C6 C 0.0932(5) 0.5781(2) 0.0965(2)
C7 C 0.0557(5) 0.6329(2) 0.1195(2)
C8 C -0.0406(6) 0.6666(3) 0.1074(2)
H10 H -0.1028 0.6595 0.0807
C9 C -0.0324(5) 0.7136(3) 0.1411(2)
H11 H -0.0872 0.7437 0.1408
C10 C 0.0695(5) 0.7080(2) 0.1745(2)
C11 C 0.1230(5) 0.7447(2) 0.2186(2)
C12 C 0.0923(5) 0.7233(2) 0.2718(2)
C13 C 0.0097(5) 0.7400(2) 0.3040(2)
H12 H -0.0425 0.7709 0.2981
C14 C 0.0142(5) 0.7041(3) 0.3472(2)
H13 H -0.0340 0.7071 0.3758
C15 C 0.0987(5) 0.6640(2) 0.3423(2)
C16 C 0.1402(5) 0.6153(2) 0.3777(2)
C17 C 0.0961(5) 0.5603(2) 0.3535(2)
C18 C 0.0084(5) 0.5248(3) 0.3658(2)
H14 H -0.0432 0.5304 0.3928
C19 C 0.0071(5) 0.4781(2) 0.3316(2)
H15 H -0.0450 0.4470 0.3317
C20 C 0.0949(5) 0.4858(2) 0.2980(2)
C21 C 0.1346(5) 0.4495(2) 0.2546(2)
C22 C 0.0205(6) 0.5713(3) 0.0419(2)
H16 H 0.0394 0.5351 0.0266
H17 H 0.0410 0.6015 0.0184
H18 H -0.0644 0.5728 0.0466
C23 C 0.2574(5) 0.7492(2) 0.2163(2)
H19 H 0.2911 0.7726 0.2455
H20 H 0.2743 0.7662 0.1828
H21 H 0.2928 0.7119 0.2193
C24 C 0.0688(6) 0.8037(2) 0.2111(3)
H22 H -0.0175 0.8015 0.2117
H23 H 0.0880 0.8190 0.1773
H24 H 0.1016 0.8281 0.2397
C25 C 0.0839(5) 0.6223(3) 0.4301(2)
H25 H -0.0027 0.6238 0.4232
H26 H 0.1123 0.6571 0.4471
H27 H 0.1061 0.5906 0.4532
C26 C 0.0883(6) 0.3902(2) 0.2619(3)
H28 H 0.0015 0.3909 0.2607
H29 H 0.1209 0.3756 0.2961
H30 H 0.1127 0.3662 0.2337
C27 C 0.2709(5) 0.4475(2) 0.2580(2)
H31 H 0.2962 0.4241 0.2296
H32 H 0.3013 0.4317 0.2921
H33 H 0.3021 0.4854 0.2547
C28 C 0.2261(5) 0.5806(2) 0.0882(2)
H34 H 0.2418 0.6163 0.0703
H35 H 0.2716 0.5813 0.1232
C29 C 0.2732(6) 0.5329(3) 0.0563(2)
H36 H 0.2483 0.4968 0.0709
H37 H 0.2374 0.5354 0.0195
C30 C 0.4048(6) 0.5334(3) 0.0563(2)
H38 H 0.4279 0.5144 0.0242
H39 H 0.4331 0.5725 0.0556
C31 C 0.5058(6) 0.4545(3) 0.0955(3)
C32 C 0.5621(6) 0.4309(3) 0.1434(2)
C33 C 0.6374(6) 0.3840(3) 0.1493(3)
C34 C 0.6752(5) 0.3807(2) 0.2041(2)
C35 C 0.6165(5) 0.4230(2) 0.2284(2)
C36 C 0.6294(5) 0.4300(2) 0.2835(2)
C37 C 0.7061(5) 0.3954(2) 0.3147(2)
C38 C 0.7019(5) 0.4146(3) 0.3684(2)
C39 C 0.6225(5) 0.4595(3) 0.3657(2)
C40 C 0.5843(5) 0.4935(3) 0.4091(2)
C41 C 0.4583(6) 0.5667(3) 0.4339(2)
H40 H 0.4914 0.6050 0.4338
H41 H 0.4815 0.5498 0.4688
C42 C 0.3258(5) 0.5693(3) 0.4250(2)
H42 H 0.2934 0.5750 0.4594
H43 H 0.2967 0.5326 0.4112
C43 C 0.2764(5) 0.6144(2) 0.3876(2)
H44 H 0.3103 0.6094 0.3534
H45 H 0.3032 0.6512 0.4018
C44 C 0.6613(7) 0.3427(4) 0.1037(3)
H46 H 0.6746 0.3046 0.1181
H47 H 0.5913 0.3416 0.0775
C45 C 0.7651(7) 0.3608(4) 0.0782(3)
H48 H 0.7501 0.3977 0.0624
H49 H 0.7812 0.3339 0.0507
H50 H 0.8338 0.3628 0.1044
C46 C 0.7565(5) 0.3441(2) 0.2350(2)
C47 C 0.8237(5) 0.3023(2) 0.2120(3)
H51 H 0.8154 0.2976 0.1749
C48 C 0.9008(5) 0.2683(2) 0.2421(3)
H52 H 0.9473 0.2416 0.2256
C49 C 0.9108(5) 0.2728(3) 0.2965(3)
H53 H 0.9618 0.2482 0.3172
C50 C 0.8464(5) 0.3132(2) 0.3207(2)
H54 H 0.8540 0.3158 0.3581
C51 C 0.7692(5) 0.3507(2) 0.2909(2)
C52 C 0.7670(6) 0.3927(3) 0.4185(2)
H55 H 0.7744 0.4230 0.4450
H56 H 0.8480 0.3812 0.4112
C53 C 0.7043(7) 0.3432(3) 0.4411(3)
H57 H 0.6257 0.3548 0.4502
H58 H 0.7511 0.3297 0.4727
H59 H 0.6959 0.3131 0.4149
O9 O 0.6848(5) 0.6080(3) 0.0292(2)
C54 C 0.7586(6) 0.5664(3) 0.2773(3)
H60 H 0.7761 0.5264 0.2744
H61 H 0.6735 0.5715 0.2800
H62 H 0.8032 0.5816 0.3088
C55 C 0.7496(5) 0.6549(2) 0.2299(3)
H63 H 0.6633 0.6551 0.2311
H64 H 0.7698 0.6736 0.1977
H65 H 0.7870 0.6748 0.2606
C56 C 0.9262(5) 0.5949(3) 0.2314(3)
H66 H 0.9603 0.6174 0.2611
H67 H 0.9504 0.6105 0.1984
H68 H 0.9545 0.5563 0.2354
C57 C 0.7388(6) 0.5668(3) 0.1813(3)
H69 H 0.7635 0.5275 0.1819
H70 H 0.7653 0.5851 0.1500
H71 H 0.6522 0.5689 0.1803
N7 N 0.7934(4) 0.5958(2) 0.2302(2)
C58 C 0.3448(9) 0.7854(4) 0.3644(3)
H72 H 0.3694 0.8112 0.3376
H73 H 0.2869 0.7588 0.3481
H74 H 0.4142 0.7650 0.3802
C59 C 0.2450(8) 0.7786(3) 0.4454(3)
H75 H 0.3117 0.7575 0.4627
H76 H 0.1881 0.7527 0.4273
H77 H 0.2060 0.7998 0.4718
C60 C 0.1888(8) 0.8511(4) 0.3819(4)
H78 H 0.1488 0.8701 0.4094
H79 H 0.1325 0.8262 0.3619
H80 H 0.2185 0.8789 0.3581
C61 C 0.3782(7) 0.8562(3) 0.4339(3)
H81 H 0.4079 0.8821 0.4083
H82 H 0.4444 0.8343 0.4506
H83 H 0.3407 0.8775 0.4607
N8 N 0.2895(5) 0.8178(2) 0.4064(2)
O10 O 0.5488(5) 0.6598(2) 0.1025(2)
H84 H 0.5303 0.6279 0.0907
C62 C 0.4739(10) 0.6999(4) 0.0769(4)
H85 H 0.4042 0.7054 0.0965
H86 H 0.4485 0.6870 0.0412
H87 H 0.5168 0.7354 0.0750
O11 O 0.5711(5) 0.6848(2) 0.37423(19)
H88 H 0.5437 0.6765 0.3435
C63 C 0.6890(7) 0.6670(5) 0.3823(3)
H89 H 0.7304 0.6760 0.3512
H90 H 0.6912 0.6265 0.3882
H91 H 0.7281 0.6861 0.4131
O12 O 0.5227(9) 0.7392(5) 0.4655(4)
H92 H 0.5548 0.7258 0.4398
C64 C 0.6010(10) 0.7314(6) 0.5134(4)
H93 H 0.5768 0.7565 0.5408
H94 H 0.6828 0.7399 0.5063
H95 H 0.5961 0.6926 0.5252
loop_
_geom_bond_atom_site_label_1
_geom_bond_atom_site_label_2
_geom_bond_site_symmetry_1
_geom_bond_site_symmetry_2
O1 S1 1_555 1_555
O2 S1 1_555 1_555
O3 S1 1_555 1_555
O4 S1 1_555 1_555
Cl1 C1 1_555 1_555
Cl2 C1 1_555 1_555
Cl3 C1 1_555 1_555
C1 H1 1_555 1_555
O5 C30 1_555 1_555
O6 C31 1_555 1_555
O7 C40 1_555 1_555
O8 C40 1_555 1_555
N1 H2 1_555 1_555
N2 H3 1_555 1_555
N3 H4 1_555 1_555
N4 H5 1_555 1_555
N5 H6 1_555 1_555
N6 H7 1_555 1_555
C2 N1 1_555 1_555
C3 C2 1_555 1_555
H8 C3 1_555 1_555
C4 C3 1_555 1_555
H9 C4 1_555 1_555
C5 N1 1_555 1_555
C6 C5 1_555 1_555
C7 N2 1_555 1_555
C8 C7 1_555 1_555
H10 C8 1_555 1_555
C9 C8 1_555 1_555
H11 C9 1_555 1_555
C10 N2 1_555 1_555
C11 C10 1_555 1_555
C12 N3 1_555 1_555
C13 C12 1_555 1_555
H12 C13 1_555 1_555
C14 C13 1_555 1_555
H13 C14 1_555 1_555
C15 N3 1_555 1_555
C16 C15 1_555 1_555
C17 N4 1_555 1_555
C18 C17 1_555 1_555
H14 C18 1_555 1_555
C19 C18 1_555 1_555
H15 C19 1_555 1_555
C20 N4 1_555 1_555
C21 C2 1_555 1_555
C22 C6 1_555 1_555
H16 C22 1_555 1_555
H17 C22 1_555 1_555
H18 C22 1_555 1_555
C23 C11 1_555 1_555
H19 C23 1_555 1_555
H20 C23 1_555 1_555
H21 C23 1_555 1_555
C24 C11 1_555 1_555
H22 C24 1_555 1_555
H23 C24 1_555 1_555
H24 C24 1_555 1_555
C25 C16 1_555 1_555
H25 C25 1_555 1_555
H26 C25 1_555 1_555
H27 C25 1_555 1_555
C26 C21 1_555 1_555
H28 C26 1_555 1_555
H29 C26 1_555 1_555
H30 C26 1_555 1_555
C27 C21 1_555 1_555
H31 C27 1_555 1_555
H32 C27 1_555 1_555
H33 C27 1_555 1_555
C28 C6 1_555 1_555
H34 C28 1_555 1_555
H35 C28 1_555 1_555
C29 C28 1_555 1_555
H36 C29 1_555 1_555
H37 C29 1_555 1_555
C30 C29 1_555 1_555
H38 C30 1_555 1_555
H39 C30 1_555 1_555
C31 O5 1_555 1_555
C32 N5 1_555 1_555
C33 C32 1_555 1_555
C34 C33 1_555 1_555
C35 N5 1_555 1_555
C36 N6 1_555 1_555
C37 C36 1_555 1_555
C38 C37 1_555 1_555
C39 N6 1_555 1_555
C40 C39 1_555 1_555
C41 O8 1_555 1_555
H40 C41 1_555 1_555
H41 C41 1_555 1_555
C42 C41 1_555 1_555
H42 C42 1_555 1_555
H43 C42 1_555 1_555
C43 C16 1_555 1_555
H44 C43 1_555 1_555
H45 C43 1_555 1_555
C44 C33 1_555 1_555
H46 C44 1_555 1_555
H47 C44 1_555 1_555
C45 C44 1_555 1_555
H48 C45 1_555 1_555
H49 C45 1_555 1_555
H50 C45 1_555 1_555
C46 C34 1_555 1_555
C47 C46 1_555 1_555
H51 C47 1_555 1_555
C48 C47 1_555 1_555
H52 C48 1_555 1_555
C49 C48 1_555 1_555
H53 C49 1_555 1_555
C50 C49 1_555 1_555
H54 C50 1_555 1_555
C51 C37 1_555 1_555
C52 C38 1_555 1_555
H55 C52 1_555 1_555
H56 C52 1_555 1_555
C53 C52 1_555 1_555
H57 C53 1_555 1_555
H58 C53 1_555 1_555
H59 C53 1_555 1_555
C54 H60 1_555 1_555
H61 C54 1_555 1_555
H62 C54 1_555 1_555
C55 H63 1_555 1_555
H64 C55 1_555 1_555
H65 C55 1_555 1_555
C56 H66 1_555 1_555
H67 C56 1_555 1_555
H68 C56 1_555 1_555
C57 H69 1_555 1_555
H70 C57 1_555 1_555
H71 C57 1_555 1_555
N7 C54 1_555 1_555
C58 H72 1_555 1_555
H73 C58 1_555 1_555
H74 C58 1_555 1_555
C59 H75 1_555 1_555
H76 C59 1_555 1_555
H77 C59 1_555 1_555
C60 H78 1_555 1_555
H79 C60 1_555 1_555
H80 C60 1_555 1_555
C61 H81 1_555 1_555
H82 C61 1_555 1_555
H83 C61 1_555 1_555
N8 C58 1_555 1_555
O10 H84 1_555 1_555
C62 O10 1_555 1_555
H85 C62 1_555 1_555
H86 C62 1_555 1_555
H87 C62 1_555 1_555
O11 H88 1_555 1_555
C63 O11 1_555 1_555
H89 C63 1_555 1_555
H90 C63 1_555 1_555
H91 C63 1_555 1_555
O12 H92 1_555 1_555
C64 O12 1_555 1_555
H93 C64 1_555 1_555
H94 C64 1_555 1_555
H95 C64 1_555 1_555
C4 C5 1_555 1_555
C6 C7 1_555 1_555
C9 C10 1_555 1_555
C11 C12 1_555 1_555
C14 C15 1_555 1_555
C16 C17 1_555 1_555
C19 C20 1_555 1_555
C20 C21 1_555 1_555
C31 C32 1_555 1_555
C34 C35 1_555 1_555
C35 C36 1_555 1_555
C38 C39 1_555 1_555
C42 C43 1_555 1_555
C46 C51 1_555 1_555
C50 C51 1_555 1_555
C55 N7 1_555 1_555
C56 N7 1_555 1_555
C57 N7 1_555 1_555
C59 N8 1_555 1_555
C60 N8 1_555 1_555
C61 N8 1_555 1_555

#END
