
#######################################################################
#
#                 Cambridge Crystallographic Data Centre
#                                CCDC 
#
#######################################################################
#
# If this CIF has been generated from an entry in the Cambridge 
# Structural Database, then it will include bibliographic, chemical, 
# crystal, experimental, refinement or atomic coordinate data resulting 
# from the CCDC's data processing and validation procedures.
#
#######################################################################

data_NUVBEL
_chemical_formula_moiety         'C9 H12 O1 S2'
_chemical_name_systematic        
2-(1,3-Dithiopropylene)methylenecyclopentanone
_symmetry_cell_setting           orthorhombic
_symmetry_space_group_name_H-M   'P c a b'
_symmetry_Int_Tables_number      61
_space_group_name_Hall           '-P 2bc 2ac'
loop_
_symmetry_equiv_pos_site_id
_symmetry_equiv_pos_as_xyz
1 x,y,z
2 -x,1/2-y,1/2+z
3 1/2+x,-y,1/2-z
4 1/2-x,1/2+y,-z
5 -x,-y,-z
6 x,1/2+y,1/2-z
7 1/2-x,y,1/2+z
8 1/2+x,1/2-y,z
_cell_length_a                   9.050(4)
_cell_length_b                   12.213(4)
_cell_length_c                   17.415(7)
_cell_angle_alpha                90
_cell_angle_beta                 90
_cell_angle_gamma                90
_cell_volume                     1924.84
_chemical_melting_point          87.5-88.0deg.C
_cell_formula_units_Z            8
loop_
_atom_site_label
_atom_site_type_symbol
_atom_site_fract_x
_atom_site_fract_y
_atom_site_fract_z
S1 S 0.1030(1) 0.9354(1) 0.6935(1)
S2 S -0.0490(1) 0.7597(1) 0.6004(1)
O1 O 0.2924(3) 1.0497(3) 0.5885(2)
C1 C 0.0760(3) 0.8699(3) 0.6047(2)
C2 C -0.0075(5) 0.6937(3) 0.6901(2)
C3 C -0.0493(5) 0.7598(4) 0.7608(2)
C4 C -0.0520(4) 0.8821(4) 0.7475(2)
C5 C 0.1460(4) 0.9011(3) 0.5399(2)
C6 C 0.2517(4) 0.9920(3) 0.5353(2)
C7 C 0.3052(4) 1.0000(4) 0.4535(2)
C8 C 0.2623(5) 0.8954(4) 0.4168(2)
C9 C 0.1331(4) 0.8491(3) 0.4618(2)
loop_
_geom_bond_atom_site_label_1
_geom_bond_atom_site_label_2
_geom_bond_site_symmetry_1
_geom_bond_site_symmetry_2
S1 C1 1_555 1_555
S2 C1 1_555 1_555
O1 C6 1_555 1_555
C1 C5 1_555 1_555
C2 S2 1_555 1_555
C3 C2 1_555 1_555
C4 S1 1_555 1_555
C5 C6 1_555 1_555
C6 C7 1_555 1_555
C7 C8 1_555 1_555
C8 C9 1_555 1_555
C9 C5 1_555 1_555
C3 C4 1_555 1_555

#END
