
#######################################################################
#
#                 Cambridge Crystallographic Data Centre
#                                CCDC 
#
#######################################################################
#
# If this CIF has been generated from an entry in the Cambridge 
# Structural Database, then it will include bibliographic, chemical, 
# crystal, experimental, refinement or atomic coordinate data resulting 
# from the CCDC's data processing and validation procedures.
#
#######################################################################

data_NUVDIR
_chemical_formula_moiety         'C16 H18 O1 S1'
_chemical_name_systematic        
exo-(R,S)-(-)-8-p-Tolylsulfinyltetracyclo(4.3.0.0^2,4^.0^3,7^)nonane
_symmetry_cell_setting           monoclinic
_symmetry_space_group_name_H-M   'I 2'
_symmetry_Int_Tables_number      5
_space_group_name_Hall           'I 2y'
loop_
_symmetry_equiv_pos_site_id
_symmetry_equiv_pos_as_xyz
1 x,y,z
2 -x,y,-z
3 1/2+x,1/2+y,1/2+z
4 1/2-x,1/2+y,1/2-z
_cell_length_a                   7.049(2)
_cell_length_b                   9.807(2)
_cell_length_c                   20.274(3)
_cell_angle_alpha                90
_cell_angle_beta                 96.15(2)
_cell_angle_gamma                90
_cell_volume                     1393.47
_exptl_crystal_colour            colorless
_exptl_crystal_description       needles
_cell_formula_units_Z            4
loop_
_atom_site_label
_atom_site_type_symbol
_atom_site_fract_x
_atom_site_fract_y
_atom_site_fract_z
S1 S 0.7339(1) 0.0175 0.2622(1)
O1 O 0.7159(3) -0.1325(3) 0.2491(1)
C1 C 0.2058(4) -0.0055(3) 0.1932(2)
C2 C 0.1325(5) 0.1284(3) 0.1634(2)
C3 C 0.3035(5) 0.1948(4) 0.1400(1)
C4 C 0.1562(6) 0.1296(4) 0.0916(2)
C5 C 0.2358(6) -0.0091(5) 0.0759(2)
C6 C 0.3455(5) -0.0364(4) 0.1432(2)
C7 C 0.4633(5) 0.0934(3) 0.1592(1)
C8 C 0.5041(4) 0.0954(3) 0.2346(1)
C9 C 0.3327(4) 0.0206(4) 0.2583(1)
C10 C 0.7298(3) 0.0387(3) 0.3500(1)
C11 C 0.7349(4) -0.0771(3) 0.3893(2)
C12 C 0.7452(4) -0.0630(4) 0.4575(2)
C13 C 0.7490(4) 0.0625(4) 0.4874(2)
C14 C 0.7450(4) 0.1768(3) 0.4464(1)
C15 C 0.7370(4) 0.1653(3) 0.3786(1)
C16 C 0.7589(5) 0.0759(4) 0.5620(2)
H1 H 0.1090 -0.0706 0.2011
H2 H 0.0302 0.1530 0.1887
H3 H 0.3646 0.2824 0.1423
H4 H 0.0799 0.1570 0.0517
H5 H 0.1371 -0.0751 0.0648
H6 H 0.3175 -0.0049 0.0410
H7 H 0.4079 -0.1235 0.1438
H8 H 0.5797 0.1060 0.1394
H9 H 0.5163 0.1856 0.2530
H10 H 0.2686 0.0765 0.2878
H11 H 0.3712 -0.0635 0.2799
H12 H 0.7309 -0.1660 0.3694
H13 H 0.7501 -0.1434 0.4846
H14 H 0.7480 0.2659 0.4661
H15 H 0.7362 0.2455 0.3514
H16 H 0.7604 0.1708 0.5738
H17 H 0.8730 0.0329 0.5821
H18 H 0.6496 0.0328 0.5774
loop_
_geom_bond_atom_site_label_1
_geom_bond_atom_site_label_2
_geom_bond_site_symmetry_1
_geom_bond_site_symmetry_2
S1 O1 1_555 1_555
C1 C2 1_555 1_555
C2 C3 1_555 1_555
C3 C4 1_555 1_555
C4 C2 1_555 1_555
C5 C4 1_555 1_555
C6 C1 1_555 1_555
C7 C3 1_555 1_555
C8 S1 1_555 1_555
C9 C1 1_555 1_555
C10 S1 1_555 1_555
C11 C10 1_555 1_555
C12 C11 1_555 1_555
C13 C12 1_555 1_555
C14 C13 1_555 1_555
C15 C10 1_555 1_555
C16 C13 1_555 1_555
H1 C1 1_555 1_555
H2 C2 1_555 1_555
H3 C3 1_555 1_555
H4 C4 1_555 1_555
H5 C5 1_555 1_555
H6 C5 1_555 1_555
H7 C6 1_555 1_555
H8 C7 1_555 1_555
H9 C8 1_555 1_555
H10 C9 1_555 1_555
H11 C9 1_555 1_555
H12 C11 1_555 1_555
H13 C12 1_555 1_555
H14 C14 1_555 1_555
H15 C15 1_555 1_555
H16 C16 1_555 1_555
H17 C16 1_555 1_555
H18 C16 1_555 1_555
C5 C6 1_555 1_555
C6 C7 1_555 1_555
C7 C8 1_555 1_555
C8 C9 1_555 1_555
C14 C15 1_555 1_555

#END
