
#######################################################################
#
#                 Cambridge Crystallographic Data Centre
#                                CCDC 
#
#######################################################################
#
# If this CIF has been generated from an entry in the Cambridge 
# Structural Database, then it will include bibliographic, chemical, 
# crystal, experimental, refinement or atomic coordinate data resulting 
# from the CCDC's data processing and validation procedures.
#
#######################################################################

data_NUVFOZ
_chemical_formula_moiety         'C30 H26 S6'
_chemical_name_systematic        
S,S'-bis((9-Isopropylthio)-dibenzothienyl)di-sulfide
_symmetry_cell_setting           orthorhombic
_symmetry_space_group_name_H-M   'P 21 21 21'
_symmetry_Int_Tables_number      19
_space_group_name_Hall           'P 2ac 2ab'
loop_
_symmetry_equiv_pos_site_id
_symmetry_equiv_pos_as_xyz
1 x,y,z
2 1/2-x,-y,1/2+z
3 1/2+x,1/2-y,-z
4 -x,1/2+y,1/2-z
_cell_length_a                   10.892(1)
_cell_length_b                   11.284(2)
_cell_length_c                   22.719(3)
_cell_angle_alpha                90
_cell_angle_beta                 90
_cell_angle_gamma                90
_cell_volume                     2792.29
_exptl_crystal_colour            yellow
_exptl_crystal_description       prismatic
_cell_formula_units_Z            4
loop_
_atom_site_label
_atom_site_type_symbol
_atom_site_fract_x
_atom_site_fract_y
_atom_site_fract_z
S1 S -0.18431(10) -0.1075(1) -0.96509(4)
S2 S -0.53359(10) -0.1211(1) -0.79938(5)
S3 S -0.05778(9) -0.1437(1) -0.85170(4)
S4 S 0.03239(9) -0.1099(1) -0.77230(4)
S5 S -0.3225(1) -0.1361(1) -0.61178(5)
S6 S 0.15949(10) -0.1468(1) -0.66061(4)
C1 C -0.3024(4) -0.0339(3) -0.9255(2)
C2 C -0.3601(5) 0.0626(4) -0.9524(2)
C3 C -0.4695(5) 0.1082(4) -0.9317(2)
C4 C -0.5274(5) 0.0567(4) -0.8844(2)
C5 C -0.4692(4) -0.0381(3) -0.8560(2)
C6 C -0.3515(3) -0.0788(3) -0.8730(2)
C7 C -0.3081(3) -0.1717(3) -0.8332(2)
C8 C -0.4015(4) -0.2086(3) -0.7947(2)
C9 C -0.3854(4) -0.2995(4) -0.7548(2)
C10 C -0.2724(5) -0.3538(4) -0.7518(2)
C11 C -0.1754(4) -0.3120(4) -0.7855(2)
C12 C -0.1899(4) -0.2193(3) -0.8246(2)
C13 C -0.0886(3) -0.0354(3) -0.7339(2)
C14 C -0.1478(5) 0.0586(4) -0.7609(2)
C15 C -0.2612(5) 0.0986(4) -0.7413(2)
C16 C -0.3200(4) 0.0426(4) -0.6955(2)
C17 C -0.2580(4) -0.0489(3) -0.6671(2)
C18 C -0.1382(3) -0.0840(3) -0.6819(2)
C19 C -0.0934(4) -0.1756(3) -0.6420(2)
C20 C -0.1868(4) -0.2173(3) -0.6050(2)
C21 C -0.1694(5) -0.3081(4) -0.5653(2)
C22 C -0.0553(6) -0.3564(4) -0.5603(2)
C23 C 0.0415(5) -0.3107(4) -0.5921(2)
C24 C 0.0263(4) -0.2179(4) -0.6318(2)
C25 C -0.2724(4) -0.1585(4) -1.0289(2)
C26 C -0.3818(6) -0.2318(7) -1.0109(3)
C27 C -0.1852(6) -0.2252(6) -1.0681(2)
C28 C 0.2269(5) -0.0884(5) -0.5929(2)
C29 C 0.1464(7) 0.0006(6) -0.5639(3)
C30 C 0.3505(7) -0.0363(8) -0.6095(3)
H1 H -0.331(4) 0.090(4) -0.991(2)
H2 H -0.511(4) 0.170(4) -0.952(2)
H3 H -0.607(4) 0.083(4) -0.872(2)
H4 H -0.445(4) -0.317(4) -0.730(2)
H5 H -0.261(4) -0.420(4) -0.727(2)
H6 H -0.105(4) -0.345(4) -0.782(2)
H7 H -0.120(4) 0.083(4) -0.794(2)
H8 H -0.301(4) 0.169(4) -0.760(2)
H9 H -0.396(4) 0.068(4) -0.687(2)
H10 H -0.237(4) -0.330(4) -0.545(2)
H11 H -0.038(5) -0.406(5) -0.535(2)
H12 H 0.121(4) -0.328(4) -0.589(2)
H13 H -0.308(4) -0.094(4) -1.048(2)
H14 H -0.447(6) -0.196(5) -0.990(2)
H15 H -0.424(5) -0.267(5) -1.047(2)
H16 H -0.355(6) -0.305(5) -0.985(3)
H17 H -0.165(5) -0.291(5) -1.047(2)
H18 H -0.225(5) -0.242(5) -1.108(2)
H19 H -0.095(5) -0.154(5) -1.070(2)
H20 H 0.244(4) -0.154(4) -0.572(2)
H21 H 0.183(5) 0.025(5) -0.525(2)
H22 H 0.120(6) 0.058(5) -0.584(3)
H23 H 0.070(5) -0.030(5) -0.551(2)
H24 H 0.392(5) -0.107(5) -0.625(3)
H25 H 0.347(7) -0.014(7) -0.638(3)
H26 H 0.392(5) 0.003(5) -0.572(3)
loop_
_geom_bond_atom_site_label_1
_geom_bond_atom_site_label_2
_geom_bond_site_symmetry_1
_geom_bond_site_symmetry_2
S1 C1 1_555 1_555
S2 C5 1_555 1_555
S3 S4 1_555 1_555
S4 C13 1_555 1_555
S5 C17 1_555 1_555
S6 C24 1_555 1_555
C1 C2 1_555 1_555
C2 C3 1_555 1_555
C3 C4 1_555 1_555
C4 C5 1_555 1_555
C5 C6 1_555 1_555
C6 C1 1_555 1_555
C7 C6 1_555 1_555
C8 S2 1_555 1_555
C9 C8 1_555 1_555
C10 C9 1_555 1_555
C11 C10 1_555 1_555
C12 S3 1_555 1_555
C13 C14 1_555 1_555
C14 C15 1_555 1_555
C15 C16 1_555 1_555
C16 C17 1_555 1_555
C17 C18 1_555 1_555
C18 C13 1_555 1_555
C19 C18 1_555 1_555
C20 S5 1_555 1_555
C21 C20 1_555 1_555
C22 C21 1_555 1_555
C23 C22 1_555 1_555
C24 C19 1_555 1_555
C25 S1 1_555 1_555
C26 C25 1_555 1_555
C27 C25 1_555 1_555
C28 S6 1_555 1_555
C29 C28 1_555 1_555
C30 C28 1_555 1_555
H1 C2 1_555 1_555
H2 C3 1_555 1_555
H3 C4 1_555 1_555
H4 C9 1_555 1_555
H5 C10 1_555 1_555
H6 C11 1_555 1_555
H7 C14 1_555 1_555
H8 C15 1_555 1_555
H9 C16 1_555 1_555
H10 C21 1_555 1_555
H11 C22 1_555 1_555
H12 C23 1_555 1_555
H13 C25 1_555 1_555
H14 C26 1_555 1_555
H15 C26 1_555 1_555
H16 C26 1_555 1_555
H17 C27 1_555 1_555
H18 C27 1_555 1_555
H19 C27 1_555 1_555
H20 C28 1_555 1_555
H21 C29 1_555 1_555
H22 C29 1_555 1_555
H23 C29 1_555 1_555
H24 C30 1_555 1_555
H25 C30 1_555 1_555
H26 C30 1_555 1_555
C7 C8 1_555 1_555
C7 C12 1_555 1_555
C11 C12 1_555 1_555
C19 C20 1_555 1_555
C23 C24 1_555 1_555

#END
