
#######################################################################
#
#                 Cambridge Crystallographic Data Centre
#                                CCDC 
#
#######################################################################
#
# If this CIF has been generated from an entry in the Cambridge 
# Structural Database, then it will include bibliographic, chemical, 
# crystal, experimental, refinement or atomic coordinate data resulting 
# from the CCDC's data processing and validation procedures.
#
#######################################################################

data_NUVFIV
_chemical_formula_moiety         'C7 H6 O3,C5 H5 N3 O1'
_chemical_name_systematic        '4-hydroxybenzoic acid pyrazine-2-carboxamide'
_symmetry_cell_setting           orthorhombic
_symmetry_space_group_name_H-M   'P c a 21'
_symmetry_Int_Tables_number      29
_space_group_name_Hall           'P 2c -2ac'
loop_
_symmetry_equiv_pos_site_id
_symmetry_equiv_pos_as_xyz
1 x,y,z
2 -x,-y,1/2+z
3 1/2-x,y,1/2+z
4 1/2+x,-y,z
_cell_length_a                   28.918(6)
_cell_length_b                   7.4182(15)
_cell_length_c                   11.303(2)
_cell_angle_alpha                90
_cell_angle_beta                 90
_cell_angle_gamma                90
_cell_volume                     2424.71
_exptl_crystal_colour            colorless
_exptl_crystal_description       block
_cell_formula_units_Z            8
loop_
_atom_site_label
_atom_site_type_symbol
_atom_site_fract_x
_atom_site_fract_y
_atom_site_fract_z
O1 O 0.37754(11) 0.4986(6) 0.0831(4)
H1 H 0.3699 0.5486 0.0214
O2 O 0.59143(13) 0.6603(6) 0.0933(3)
H2 H 0.6136 0.7287 0.0998
O3 O 0.57224(12) 0.7644(6) 0.2730(4)
C1 C 0.42213(16) 0.5426(8) 0.1098(5)
C2 C 0.43552(19) 0.6161(9) 0.2145(6)
H3 H 0.4132 0.6380 0.2719
C3 C 0.48061(17) 0.6592(8) 0.2390(5)
H4 H 0.4888 0.7026 0.3133
C4 C 0.51361(18) 0.6376(7) 0.1524(5)
C5 C 0.5005(2) 0.5672(7) 0.0400(6)
H5 H 0.5225 0.5537 -0.0194
C6 C 0.45419(18) 0.5181(7) 0.0193(6)
H6 H 0.4452 0.4704 -0.0533
C7 C 0.56144(18) 0.6934(8) 0.1782(5)
O4 O 0.32533(13) 0.2285(6) 0.6595(4)
O5 O 0.34492(14) 0.1152(6) 0.8327(4)
H7 H 0.3704 0.1532 0.8126
O6 O 0.12855(13) -0.0035(6) 0.8530(4)
H8 H 0.1265 -0.0813 0.9042
C8 C 0.26593(18) 0.1063(7) 0.7795(5)
C9 C 0.23204(17) 0.1449(7) 0.6997(4)
H9 H 0.2401 0.2000 0.6288
C10 C 0.18607(18) 0.1047(8) 0.7209(4)
H10 H 0.1636 0.1283 0.6642
C11 C 0.1744(2) 0.0285(8) 0.8285(5)
C12 C 0.20918(18) -0.0106(8) 0.9102(5)
H11 H 0.2014 -0.0624 0.9824
C13 C 0.2536(2) 0.0252(7) 0.8863(5)
H12 H 0.2764 -0.0041 0.9412
C14 C 0.31473(19) 0.1552(7) 0.7525(5)
O7 O -0.06421(12) 0.2567(6) 0.7595(3)
N1 N -0.09359(16) 0.1682(7) 0.5848(4)
H13 H -0.1209 0.2047 0.6031
H14 H -0.0887 0.1192 0.5170
C15 C 0.06719(16) 0.0840(7) 0.6800(4)
H15 H 0.0918 0.0921 0.7329
N2 N 0.02544(18) 0.1385(8) 0.7082(5)
C16 C -0.01164(17) 0.1270(7) 0.6249(5)
C17 C -0.00577(17) 0.0608(6) 0.5189(4)
H16 H -0.0301 0.0536 0.4652
N3 N 0.0356(2) 0.0052(8) 0.4917(4)
C18 C 0.0726(2) 0.0142(9) 0.5678(6)
H17 H 0.1015 -0.0270 0.5434
C19 C -0.05845(18) 0.1878(7) 0.6625(5)
O8 O 0.18293(13) 0.7282(6) 0.1637(4)
N4 N 0.15403(15) 0.6278(6) 0.3373(4)
H18 H 0.1262 0.6585 0.3197
H19 H 0.1598 0.5777 0.4043
N5 N 0.27249(18) 0.6197(8) 0.2248(5)
C20 C 0.23507(18) 0.6027(7) 0.3024(5)
C21 C 0.23957(16) 0.5357(6) 0.4128(5)
H20 H 0.2139 0.5216 0.4616
N6 N 0.2827(2) 0.4891(8) 0.4510(9)
C22 C 0.3192(2) 0.5014(8) 0.3647(6)
H21 H 0.3482 0.4588 0.3864
C23 C 0.31476(16) 0.5656(7) 0.2621(5)
H22 H 0.3403 0.5758 0.2125
C24 C 0.18765(18) 0.6572(7) 0.2620(5)
loop_
_geom_bond_atom_site_label_1
_geom_bond_atom_site_label_2
_geom_bond_site_symmetry_1
_geom_bond_site_symmetry_2
O1 H1 1_555 1_555
O2 H2 1_555 1_555
O3 C7 1_555 1_555
C1 O1 1_555 1_555
C2 C1 1_555 1_555
H3 C2 1_555 1_555
C3 C2 1_555 1_555
H4 C3 1_555 1_555
C4 C3 1_555 1_555
C5 C4 1_555 1_555
H5 C5 1_555 1_555
C6 C1 1_555 1_555
H6 C6 1_555 1_555
C7 O2 1_555 1_555
O4 C14 1_555 1_555
O5 H7 1_555 1_555
O6 H8 1_555 1_555
C8 C9 1_555 1_555
C9 H9 1_555 1_555
C10 C9 1_555 1_555
H10 C10 1_555 1_555
C11 O6 1_555 1_555
C12 C11 1_555 1_555
H11 C12 1_555 1_555
C13 C8 1_555 1_555
H12 C13 1_555 1_555
C14 O5 1_555 1_555
O7 C19 1_555 1_555
N1 H13 1_555 1_555
H14 N1 1_555 1_555
C15 H15 1_555 1_555
N2 C15 1_555 1_555
C16 N2 1_555 1_555
C17 C16 1_555 1_555
H16 C17 1_555 1_555
N3 C17 1_555 1_555
C18 C15 1_555 1_555
H17 C18 1_555 1_555
C19 N1 1_555 1_555
O8 C24 1_555 1_555
N4 H18 1_555 1_555
H19 N4 1_555 1_555
N5 C20 1_555 1_555
C20 C21 1_555 1_555
C21 H20 1_555 1_555
N6 C21 1_555 1_555
C22 N6 1_555 1_555
H21 C22 1_555 1_555
C23 N5 1_555 1_555
H22 C23 1_555 1_555
C24 N4 1_555 1_555
C4 C7 1_555 1_555
C5 C6 1_555 1_555
C8 C14 1_555 1_555
C10 C11 1_555 1_555
C12 C13 1_555 1_555
C16 C19 1_555 1_555
N3 C18 1_555 1_555
C20 C24 1_555 1_555
C22 C23 1_555 1_555

#END
