
#######################################################################
#
#                 Cambridge Crystallographic Data Centre
#                                CCDC 
#
#######################################################################
#
# If this CIF has been generated from an entry in the Cambridge 
# Structural Database, then it will include bibliographic, chemical, 
# crystal, experimental, refinement or atomic coordinate data resulting 
# from the CCDC's data processing and validation procedures.
#
#######################################################################

data_NUVFOB
_chemical_formula_moiety         'C7 H5 O3 1-,C5 H6 N3 O1 1+'
_chemical_name_systematic        
'oxo(pyrazin-2-yl)methanaminium 3-hydroxybenzoate'
_symmetry_cell_setting           orthorhombic
_symmetry_space_group_name_H-M   'P b c a'
_symmetry_Int_Tables_number      61
_space_group_name_Hall           '-P 2ac 2ab'
loop_
_symmetry_equiv_pos_site_id
_symmetry_equiv_pos_as_xyz
1 x,y,z
2 1/2-x,-y,1/2+z
3 1/2+x,1/2-y,-z
4 -x,1/2+y,1/2-z
5 -x,-y,-z
6 1/2+x,y,1/2-z
7 1/2-x,1/2+y,z
8 x,1/2-y,1/2+z
_cell_length_a                   7.0712(14)
_cell_length_b                   11.093(2)
_cell_length_c                   32.014(6)
_cell_angle_alpha                90
_cell_angle_beta                 90
_cell_angle_gamma                90
_cell_volume                     2511.2
_exptl_crystal_colour            colorless
_exptl_crystal_description       block
_cell_formula_units_Z            8
loop_
_atom_site_label
_atom_site_type_symbol
_atom_site_fract_x
_atom_site_fract_y
_atom_site_fract_z
O1 O 0.8430(4) 0.1077(2) 0.07145(7)
O2 O 0.7995(4) -0.0834(2) 0.09353(8)
O3 O 1.0878(5) 0.3345(3) 0.19695(8)
H1 H 1.0184 0.3857 0.1866
C1 C 1.0137(6) 0.2213(4) 0.18957(11)
C2 C 0.9532(6) 0.1861(3) 0.14983(11)
H2 H 0.9525 0.2408 0.1278
C3 C 1.0138(7) 0.1409(4) 0.22233(12)
H3 H 1.0558 0.1658 0.2485
C4 C 0.9530(7) 0.0243(4) 0.21700(13)
H4 H 0.9522 -0.0292 0.2393
C5 C 0.8922(6) -0.0127(4) 0.17743(13)
H5 H 0.8505 -0.0914 0.1736
C6 C 0.8932(5) 0.0663(4) 0.14371(11)
C7 C 0.8399(5) 0.0214(4) 0.10133(12)
N1 N 0.2593(5) 0.1648(3) -0.00591(9)
H6 H 0.2354 0.1448 -0.0323
H7 H 0.3668 0.2063 -0.0047
H8 H 0.1651 0.2098 0.0039
O4 O 0.2531(4) -0.0380(2) 0.00256(8)
N2 N 0.4061(6) 0.2095(4) 0.11662(13)
C8 C 0.3593(5) 0.1938(3) 0.07614(9)
H9 H 0.3499 0.2598 0.0583
C9 C 0.3270(5) 0.0844(3) 0.06220(10)
N3 N 0.3405(6) -0.0192(4) 0.08851(12)
C10 C 0.3838(5) -0.0043(3) 0.12908(9)
H10 H 0.3906 -0.0701 0.1470
C11 C 0.4157(6) 0.1032(4) 0.14257(11)
H11 H 0.4467 0.1129 0.1706
C12 C 0.2748(6) 0.0659(3) 0.01687(12)
loop_
_geom_bond_atom_site_label_1
_geom_bond_atom_site_label_2
_geom_bond_site_symmetry_1
_geom_bond_site_symmetry_2
O1 C7 1_555 1_555
O2 C7 1_555 1_555
O3 H1 1_555 1_555
C1 O3 1_555 1_555
C2 C1 1_555 1_555
H2 C2 1_555 1_555
C3 C1 1_555 1_555
H3 C3 1_555 1_555
C4 C3 1_555 1_555
H4 C4 1_555 1_555
C5 C4 1_555 1_555
H5 C5 1_555 1_555
C6 C2 1_555 1_555
C7 C6 1_555 1_555
N1 H6 1_555 1_555
H7 N1 1_555 1_555
H8 N1 1_555 1_555
O4 C12 1_555 1_555
N2 C8 1_555 1_555
C8 H9 1_555 1_555
C9 C8 1_555 1_555
N3 C9 1_555 1_555
C10 N3 1_555 1_555
H10 C10 1_555 1_555
C11 N2 1_555 1_555
H11 C11 1_555 1_555
C12 N1 1_555 1_555
C5 C6 1_555 1_555
C9 C12 1_555 1_555
C10 C11 1_555 1_555

#END
