
#######################################################################
#
#                 Cambridge Crystallographic Data Centre
#                                CCDC 
#
#######################################################################
#
# If this CIF has been generated from an entry in the Cambridge 
# Structural Database, then it will include bibliographic, chemical, 
# crystal, experimental, refinement or atomic coordinate data resulting 
# from the CCDC's data processing and validation procedures.
#
#######################################################################

data_NUVFAL
_chemical_formula_moiety         'C13 H10 Cl1 N1 O1'
_chemical_name_systematic        2-Amino-5-chlorobenzophenone
_symmetry_cell_setting           monoclinic
_symmetry_space_group_name_H-M   'P 21/c'
_symmetry_Int_Tables_number      14
_space_group_name_Hall           '-P 2ybc'
loop_
_symmetry_equiv_pos_site_id
_symmetry_equiv_pos_as_xyz
1 x,y,z
2 -x,1/2+y,1/2-z
3 -x,-y,-z
4 x,1/2-y,1/2+z
_cell_length_a                   4.881(2)
_cell_length_b                   9.521(3)
_cell_length_c                   24.823(9)
_cell_angle_alpha                90
_cell_angle_beta                 95.44(3)
_cell_angle_gamma                90
_cell_volume                     1148.38
_exptl_crystal_colour            yellow
_cell_formula_units_Z            4
loop_
_atom_site_label
_atom_site_type_symbol
_atom_site_fract_x
_atom_site_fract_y
_atom_site_fract_z
C1 C -0.5994(8) 0.2091(4) 0.3344(1)
C2 C -0.6705(8) 0.3054(4) 0.2925(2)
C3 C -0.5377(9) 0.4346(5) 0.2924(2)
C4 C -0.3272(10) 0.4649(5) 0.3325(2)
C5 C -0.2608(8) 0.3703(4) 0.3740(2)
C6 C -0.3939(9) 0.2411(4) 0.3747(2)
C7 C -0.7447(8) 0.0726(4) 0.3364(1)
C8 C -0.6661(7) -0.0289(4) 0.3815(2)
C9 C -0.6640(16) 0.0186(8) 0.4350(3)
C10 C -0.6374(17) -0.0798(10) 0.4761(4)
C11 C -0.5750(16) -0.2198(9) 0.4668(3)
C12 C -0.5398(17) -0.2573(7) 0.4146(4)
C13 C -0.5714(15) -0.1610(7) 0.3723(3)
N1 N -0.8660(9) 0.2775(5) 0.2499(2)
O1 O -0.9391(7) 0.0411(3) 0.3033(1)
Cl1 Cl -0.0110(2) 0.4144(1) 0.4261(1)
loop_
_geom_bond_atom_site_label_1
_geom_bond_atom_site_label_2
_geom_bond_site_symmetry_1
_geom_bond_site_symmetry_2
C1 C2 1_555 1_555
C2 C3 1_555 1_555
C3 C4 1_555 1_555
C4 C5 1_555 1_555
C5 C6 1_555 1_555
C6 C1 1_555 1_555
C7 C1 1_555 1_555
C8 C7 1_555 1_555
C9 C8 1_555 1_555
C10 C9 1_555 1_555
C11 C10 1_555 1_555
C12 C11 1_555 1_555
C13 C8 1_555 1_555
N1 C2 1_555 1_555
O1 C7 1_555 1_555
Cl1 C5 1_555 1_555
C12 C13 1_555 1_555

#END
