
#######################################################################
#
#                 Cambridge Crystallographic Data Centre
#                                CCDC 
#
#######################################################################
#
# If this CIF has been generated from an entry in the Cambridge 
# Structural Database, then it will include bibliographic, chemical, 
# crystal, experimental, refinement or atomic coordinate data resulting 
# from the CCDC's data processing and validation procedures.
#
#######################################################################

data_NUVHER
_chemical_compound_source        'Heracleum thomsoni'
_chemical_name_common            Isoimperatorin
_chemical_formula_moiety         'C16 H14 O4'
_chemical_name_systematic        
4-(3-Methyl-2-butenyl)oxy-7H-furo(3,2-g)-benzopyran-7-one
_symmetry_cell_setting           triclinic
_symmetry_space_group_name_H-M   'P -1'
_symmetry_Int_Tables_number      2
_space_group_name_Hall           '-P 1'
loop_
_symmetry_equiv_pos_site_id
_symmetry_equiv_pos_as_xyz
1 x,y,z
2 -x,-y,-z
_cell_length_a                   6.839(1)
_cell_length_b                   8.502(1)
_cell_length_c                   12.887(2)
_cell_angle_alpha                76.90(1)
_cell_angle_beta                 73.17(1)
_cell_angle_gamma                73.39(1)
_cell_volume                     678.785
_exptl_crystal_colour            colorless
_exptl_crystal_description       rectangular
_chemical_melting_point          382K
_cell_formula_units_Z            2
loop_
_atom_site_label
_atom_site_type_symbol
_atom_site_fract_x
_atom_site_fract_y
_atom_site_fract_z
O1 O 0.2524(2) 0.4561(2) -0.0764(1)
C1 C 0.3252(4) 0.4773(3) -0.1886(2)
C2 C 0.3667(3) 0.3381(3) -0.2293(2)
C3 C 0.3257(3) 0.0395(2) -0.1179(1)
C4 C 0.2635(3) -0.2119(3) 0.0183(2)
C5 C 0.1989(3) -0.2820(3) 0.1229(2)
C6 C 0.1299(3) -0.1879(3) 0.2116(2)
O2 O 0.0691(3) -0.2377(3) 0.3079(1)
O3 O 0.1316(2) -0.0215(2) 0.1844(1)
C7 C 0.1852(3) 0.2210(3) 0.0627(2)
C8 C 0.2618(2) -0.0392(2) -0.0087(1)
C9 C 0.3185(3) 0.2096(2) -0.1366(2)
C10 C 0.2501(3) 0.2913(2) -0.0449(2)
C11 C 0.1946(3) 0.0536(2) 0.0774(1)
O4 O 0.3869(2) -0.0629(2) -0.1937(1)
C12 C 0.4559(3) -0.0011(3) -0.3091(2)
C13 C 0.4897(3) -0.1397(3) -0.3694(2)
C14 C 0.6723(3) -0.2425(3) -0.4059(2)
C15 C 0.6839(5) -0.3804(3) -0.4638(2)
C16 C 0.8803(5) -0.2345(5) -0.3932(3)
loop_
_geom_bond_atom_site_label_1
_geom_bond_atom_site_label_2
_geom_bond_site_symmetry_1
_geom_bond_site_symmetry_2
O1 C1 1_555 1_555
C1 C2 1_555 1_555
C2 C9 1_555 1_555
C3 C8 1_555 1_555
C4 C5 1_555 1_555
C5 C6 1_555 1_555
C6 O2 1_555 1_555
O3 C6 1_555 1_555
C7 C10 1_555 1_555
C8 C4 1_555 1_555
C9 C3 1_555 1_555
C10 O1 1_555 1_555
C11 O3 1_555 1_555
O4 C3 1_555 1_555
C12 O4 1_555 1_555
C13 C12 1_555 1_555
C14 C13 1_555 1_555
C15 C14 1_555 1_555
C16 C14 1_555 1_555
C7 C11 1_555 1_555
C8 C11 1_555 1_555
C9 C10 1_555 1_555

#END
