
#######################################################################
#
#                 Cambridge Crystallographic Data Centre
#                                CCDC 
#
#######################################################################
#
# If this CIF has been generated from an entry in the Cambridge 
# Structural Database, then it will include bibliographic, chemical, 
# crystal, experimental, refinement or atomic coordinate data resulting 
# from the CCDC's data processing and validation procedures.
#
#######################################################################

data_NUVKEU
_chemical_formula_moiety         'C8 H13 N2 O4 1+,Cl1 1-'
_chemical_name_systematic        
'(5R,6R,7S,8S)-(5,6,7,8-Tetrahydro-5-(hydroxymethyl)imidazo(1,2-a)pyridine-6,7,8-triol) hydrogen chloride'
_symmetry_cell_setting           monoclinic
_symmetry_space_group_name_H-M   'P 21'
_symmetry_Int_Tables_number      4
_space_group_name_Hall           'P 2yb'
loop_
_symmetry_equiv_pos_site_id
_symmetry_equiv_pos_as_xyz
1 x,y,z
2 -x,1/2+y,-z
_cell_length_a                   7.843(1)
_cell_length_b                   7.996(1)
_cell_length_c                   8.588(2)
_cell_angle_alpha                90
_cell_angle_beta                 113.751(6)
_cell_angle_gamma                90
_cell_volume                     492.961
_exptl_crystal_colour            white
_chemical_melting_point          141deg.C
_cell_formula_units_Z            2
loop_
_atom_site_label
_atom_site_type_symbol
_atom_site_fract_x
_atom_site_fract_y
_atom_site_fract_z
N1 N 0.2518(2) 0.4646(2) 0.1892(2)
C1 C 0.4075(3) 0.4329(3) 0.1576(3)
C2 C 0.4997(3) 0.5790(3) 0.1759(3)
N2 N 0.3992(2) 0.6981(2) 0.2190(2)
C3 C 0.4328(2) 0.8800(2) 0.2368(2)
C4 C 0.3455(2) 0.9454(2) 0.3548(2)
C5 C 0.1374(2) 0.9001(2) 0.2817(3)
C6 C 0.1113(3) 0.7112(3) 0.2796(3)
C7 C 0.2499(2) 0.6263(2) 0.2265(2)
C8 C 0.6370(2) 0.9214(3) 0.2924(2)
O1 O 0.7429(2) 0.8491(2) 0.4537(2)
O2 O 0.3688(2) 1.1210(2) 0.3598(2)
O3 O 0.0519(2) 0.9718(2) 0.3830(2)
O4 O -0.0737(2) 0.6719(2) 0.1670(3)
H1 H 0.4324(45) 0.3299(51) 0.1257(40)
H2 H 0.6359(40) 0.6020(44) 0.1762(36)
H3 H 0.3697(37) 0.9243(43) 0.1283(37)
H4 H 0.4002(37) 0.8999(38) 0.4587(36)
H5 H 0.0870(37) 0.9400(42) 0.1813(36)
H6 H 0.1092(41) 0.6808(49) 0.3719(40)
H7 H 0.6756(39) 0.8768(41) 0.2026(38)
H8 H 0.6439(38) 1.0345(51) 0.2942(34)
H9 H -0.0909(26) 0.5756(92) 0.1513(57)
H10 H 0.8506(42) 0.8671(43) 0.4691(34)
H11 H 0.3233(41) 1.1708(50) 0.4222(40)
H12 H -0.0049(44) 1.0648(43) 0.3330(38)
Cl1 Cl 0.1213(1) 0.7938(1) 0.8105(1)
loop_
_geom_bond_atom_site_label_1
_geom_bond_atom_site_label_2
_geom_bond_site_symmetry_1
_geom_bond_site_symmetry_2
N1 C1 1_555 1_555
C1 C2 1_555 1_555
C2 N2 1_555 1_555
N2 C3 1_555 1_555
C3 C4 1_555 1_555
C4 C5 1_555 1_555
C5 C6 1_555 1_555
C6 C7 1_555 1_555
C7 N1 1_555 1_555
C8 C3 1_555 1_555
O1 C8 1_555 1_555
O2 C4 1_555 1_555
O3 C5 1_555 1_555
O4 C6 1_555 1_555
H1 C1 1_555 1_555
H2 C2 1_555 1_555
H3 C3 1_555 1_555
H4 C4 1_555 1_555
H5 C5 1_555 1_555
H6 C6 1_555 1_555
H7 C8 1_555 1_555
H8 C8 1_555 1_555
H9 O4 1_555 1_555
H10 O1 1_555 1_555
H11 O2 1_555 1_555
H12 O3 1_555 1_555
N2 C7 1_555 1_555

#END
