
#######################################################################
#
#                 Cambridge Crystallographic Data Centre
#                                CCDC 
#
#######################################################################
#
# If this CIF has been generated from an entry in the Cambridge 
# Structural Database, then it will include bibliographic, chemical, 
# crystal, experimental, refinement or atomic coordinate data resulting 
# from the CCDC's data processing and validation procedures.
#
#######################################################################

data_NUVKIZ
_chemical_formula_moiety         'C30 H24 O4 S1'
_chemical_name_systematic        
syn-4-(4-Methoxyphenyl)-5-(3-oxo-3-phenyl-1-(2-thienyl)propyl)-3-phenylfuran-2(5H)-one
_symmetry_cell_setting           triclinic
_symmetry_space_group_name_H-M   'P -1'
_symmetry_Int_Tables_number      2
_space_group_name_Hall           '-P 1'
loop_
_symmetry_equiv_pos_site_id
_symmetry_equiv_pos_as_xyz
1 x,y,z
2 -x,-y,-z
_cell_length_a                   10.3663(12)
_cell_length_b                   11.4219(13)
_cell_length_c                   11.9282(13)
_cell_angle_alpha                72.617(1)
_cell_angle_beta                 71.131(1)
_cell_angle_gamma                73.103(1)
_cell_volume                     1245.61
_exptl_crystal_colour            colorless
_exptl_crystal_description       block
_chemical_melting_point          '178-180 deg.C'
_cell_formula_units_Z            2
loop_
_atom_site_label
_atom_site_type_symbol
_atom_site_fract_x
_atom_site_fract_y
_atom_site_fract_z
C1 C 0.7949(3) 0.5694(3) 0.1062(3)
C2 C 0.7987(3) 0.8585(5) 0.1371(5)
S1 S 0.6580(2) 0.8079(2) 0.2417(2)
C3 C 0.7565(6) 0.9732(5) 0.0627(5)
H1 H 0.8162 1.0178 -0.0006
C4 C 0.6086(6) 1.0130(4) 0.0970(5)
H2 H 0.5613 1.0880 0.0571
C5 C 0.5445(4) 0.9363(4) 0.1888(5)
H3 H 0.4482 0.9504 0.2210
C6 C 0.8213(3) 0.6421(3) -0.0212(3)
C7 C 0.9251(3) 0.7005(2) -0.0412(2)
C8 C 0.9694(3) 0.6694(3) 0.0745(3)
H4 H 1.0683 0.6275 0.0608
C9 C 0.9434(3) 0.7856(3) 0.1262(3)
H5 H 1.0015 0.8423 0.0669
C10 C 0.9892(3) 0.7485(3) 0.2444(3)
H6 H 0.9459 0.8157 0.2875
H7 H 0.9555 0.6742 0.2956
C11 C 1.1453(3) 0.7223(3) 0.2251(3)
C12 C 1.2010(3) 0.6917(3) 0.3339(3)
C13 C 1.3428(4) 0.6655(4) 0.3180(3)
H8 H 1.4020 0.6671 0.2403
C14 C 1.3984(4) 0.6369(4) 0.4156(4)
H9 H 1.4947 0.6190 0.4034
C15 C 1.3135(4) 0.6344(4) 0.5302(3)
H10 H 1.3515 0.6146 0.5960
C16 C 1.1740(4) 0.6609(5) 0.5474(3)
H11 H 1.1158 0.6597 0.6254
C17 C 1.1162(4) 0.6901(4) 0.4497(3)
H12 H 1.0197 0.7086 0.4628
C18 C 0.9896(3) 0.7875(3) -0.1485(2)
C19 C 0.9141(3) 0.8736(3) -0.2282(3)
H13 H 0.8199 0.8754 -0.2138
C20 C 0.9765(3) 0.9551(3) -0.3271(3)
H14 H 0.9245 1.0118 -0.3789
C21 C 1.1174(3) 0.9535(3) -0.3503(3)
C22 C 1.1933(3) 0.8718(3) -0.2719(3)
H15 H 1.2871 0.8711 -0.2861
C23 C 1.1292(3) 0.7908(3) -0.1720(3)
H16 H 1.1809 0.7368 -0.1188
C24 C 0.7417(3) 0.6389(3) -0.1028(3)
C25 C 0.5996(3) 0.6456(3) -0.0611(3)
H17 H 0.5543 0.6521 0.0187
C26 C 0.5240(4) 0.6428(4) -0.1359(5)
H18 H 0.4284 0.6473 -0.1065
C27 C 0.5890(5) 0.6334(4) -0.2528(5)
H19 H 0.5374 0.6334 -0.3037
C28 C 0.7313(5) 0.6238(4) -0.2960(4)
H20 H 0.7758 0.6155 -0.3754
C29 C 0.8080(4) 0.6265(3) -0.2210(3)
H21 H 0.9039 0.6200 -0.2502
C30 C 1.3168(4) 1.0292(5) -0.4888(4)
H22 H 1.3445 1.0475 -0.4276
H23 H 1.3407 1.0886 -0.5644
H24 H 1.3641 0.9458 -0.4991
O1 O 0.8854(2) 0.58413(18) 0.15964(17)
O2 O 0.7118(3) 0.5040(2) 0.1618(2)
O3 O 1.2238(3) 0.7265(3) 0.1238(2)
O4 O 1.1699(3) 1.0377(2) -0.4525(2)
C31? C 0.7912(7) 0.8588(7) 0.1474(8)
C32? C 0.6753(10) 0.8295(7) 0.2388(7)
C33? C 0.5544(7) 0.9225(9) 0.2204(6)
C34? C 0.5770(4) 1.0134(8) 0.1242(7)
H25? H 0.6765 0.7590 0.3029
H26? H 0.4661 0.9190 0.2727
H27? H 0.5077 1.0806 0.1008
S2? S 0.7481(4) 0.9942(4) 0.0471(4)
loop_
_geom_bond_atom_site_label_1
_geom_bond_atom_site_label_2
_geom_bond_site_symmetry_1
_geom_bond_site_symmetry_2
C1 C6 1_555 1_555
C2 S1 1_555 1_555
S1 C5 1_555 1_555
C3 C2 1_555 1_555
H1 C3 1_555 1_555
C4 C3 1_555 1_555
H2 C4 1_555 1_555
C5 C4 1_555 1_555
H3 C5 1_555 1_555
C6 C7 1_555 1_555
C7 C8 1_555 1_555
C8 H4 1_555 1_555
C9 C2 1_555 1_555
H5 C9 1_555 1_555
C10 C9 1_555 1_555
H6 C10 1_555 1_555
H7 C10 1_555 1_555
C11 C10 1_555 1_555
C12 C11 1_555 1_555
C13 C12 1_555 1_555
H8 C13 1_555 1_555
C14 C13 1_555 1_555
H9 C14 1_555 1_555
C15 C14 1_555 1_555
H10 C15 1_555 1_555
C16 C15 1_555 1_555
H11 C16 1_555 1_555
C17 C12 1_555 1_555
H12 C17 1_555 1_555
C18 C7 1_555 1_555
C19 C18 1_555 1_555
H13 C19 1_555 1_555
C20 C19 1_555 1_555
H14 C20 1_555 1_555
C21 C20 1_555 1_555
C22 C21 1_555 1_555
H15 C22 1_555 1_555
C23 C18 1_555 1_555
H16 C23 1_555 1_555
C24 C6 1_555 1_555
C25 C24 1_555 1_555
H17 C25 1_555 1_555
C26 C25 1_555 1_555
H18 C26 1_555 1_555
C27 C26 1_555 1_555
H19 C27 1_555 1_555
C28 C27 1_555 1_555
H20 C28 1_555 1_555
C29 C24 1_555 1_555
H21 C29 1_555 1_555
C30 H22 1_555 1_555
H23 C30 1_555 1_555
H24 C30 1_555 1_555
O1 C1 1_555 1_555
O2 C1 1_555 1_555
O3 C11 1_555 1_555
O4 C21 1_555 1_555
C8 C9 1_555 1_555
C8 O1 1_555 1_555
C16 C17 1_555 1_555
C22 C23 1_555 1_555
C28 C29 1_555 1_555
C30 O4 1_555 1_555

#END
