
#######################################################################
#
#                 Cambridge Crystallographic Data Centre
#                                CCDC 
#
#######################################################################
#
# If this CIF has been generated from an entry in the Cambridge 
# Structural Database, then it will include bibliographic, chemical, 
# crystal, experimental, refinement or atomic coordinate data resulting 
# from the CCDC's data processing and validation procedures.
#
#######################################################################

data_NUVMAU
_chemical_formula_moiety         'C19 H17 Cl1 N2 O2'
_chemical_name_systematic        
4-(6-chloro-2,3-dihydro-1H-inden-1-yl)-7,8-dimethoxyquinazoline
_symmetry_cell_setting           monoclinic
_symmetry_space_group_name_H-M   'P 21'
_symmetry_Int_Tables_number      4
_space_group_name_Hall           'P 2yb'
loop_
_symmetry_equiv_pos_site_id
_symmetry_equiv_pos_as_xyz
1 x,y,z
2 -x,1/2+y,-z
_cell_length_a                   7.3534(3)
_cell_length_b                   25.5994(8)
_cell_length_c                   9.1479(3)
_cell_angle_alpha                90
_cell_angle_beta                 95.024(2)
_cell_angle_gamma                90
_cell_volume                     1715.41
_cell_formula_units_Z            4
loop_
_atom_site_label
_atom_site_type_symbol
_atom_site_fract_x
_atom_site_fract_y
_atom_site_fract_z
C1 C 0.6951(8) 0.8206(2) 0.1623(6)
C2 C 0.8348(9) 0.7841(2) 0.1733(7)
C3 C 1.0103(9) 0.7982(2) 0.1384(8)
H1 H 1.1021 0.7731 0.1426
C4 C 1.0485(8) 0.8482(2) 0.0983(7)
H2 H 1.1662 0.8570 0.0777
C5 C 0.9100(8) 0.88646(19) 0.0880(6)
C6 C 0.7304(7) 0.87176(19) 0.1203(6)
C7 C 0.4916(11) 0.8109(4) 0.3418(10)
H3 H 0.5769 0.7893 0.3996
H4 H 0.3694 0.8000 0.3556
H5 H 0.5077 0.8467 0.3718
C8 C 0.9225(14) 0.6953(3) 0.2215(13)
H6 H 0.9729 0.6930 0.1284
H7 H 0.8661 0.6627 0.2428
H8 H 1.0180 0.7030 0.2967
C9 C 0.6359(9) 0.9540(3) 0.0761(9)
H9 H 0.5418 0.9784 0.0707
C10 C 0.9360(8) 0.93919(19) 0.0519(7)
C11 C 1.1180(8) 0.9631(2) 0.0247(7)
H10 H 1.2131 0.9362 0.0354
C12 C 1.1253(10) 0.9910(2) -0.1248(7)
H11 H 1.1776 0.9681 -0.1944
H12 H 1.0033 1.0007 -0.1644
C13 C 1.2421(10) 1.0391(2) -0.0986(7)
H13 H 1.3662 1.0326 -0.1220
H14 H 1.1926 1.0682 -0.1571
C14 C 1.2358(7) 1.04975(19) 0.0618(6)
C15 C 1.1670(7) 1.00755(19) 0.1320(6)
C16 C 1.1436(8) 1.0101(2) 0.2791(7)
H15 H 1.0971 0.9817 0.3272
C17 C 1.1902(8) 1.0554(3) 0.3540(7)
C18 C 1.2628(8) 1.0970(2) 0.2868(8)
H16 H 1.2962 1.1268 0.3407
C19 C 1.2866(8) 1.0950(2) 0.1408(7)
H17 H 1.3359 1.1234 0.0943
Cl1 Cl 1.1519(4) 1.05971(10) 0.5396(2)
N1 N 0.5912(7) 0.90735(18) 0.1145(6)
N2 N 0.8005(7) 0.97249(18) 0.0427(7)
O1 O 0.5221(6) 0.80620(14) 0.1924(5)
O2 O 0.7889(7) 0.73595(16) 0.2161(6)
C20 C 0.1826(7) 0.3736(2) 0.3240(6)
C21 C 0.3127(9) 0.4117(2) 0.3505(7)
C22 C 0.4913(9) 0.4016(2) 0.3204(8)
H18 H 0.5777 0.4281 0.3338
C23 C 0.5435(8) 0.3542(2) 0.2720(7)
H19 H 0.6649 0.3484 0.2556
C24 C 0.4155(7) 0.31423(18) 0.2469(6)
C25 C 0.2319(7) 0.3248(2) 0.2718(6)
C26 C -0.0290(10) 0.3729(3) 0.5009(9)
H20 H -0.0156 0.3362 0.5198
H21 H -0.1510 0.3835 0.5166
H22 H 0.0565 0.3919 0.5660
C27 C 0.3856(15) 0.4963(3) 0.4499(16)
H23 H 0.4781 0.4813 0.5179
H24 H 0.3274 0.5246 0.4963
H25 H 0.4404 0.5090 0.3654
C28 C 0.1561(9) 0.2437(3) 0.2001(8)
H26 H 0.0648 0.2192 0.1761
C29 C 0.4558(7) 0.2623(2) 0.2061(6)
C30 C 0.6509(7) 0.2422(2) 0.2070(6)
H27 H 0.7310 0.2705 0.1791
C31 C 0.7178(9) 0.2219(3) 0.3589(8)
H28 H 0.8173 0.2434 0.4012
H29 H 0.6196 0.2232 0.4230
C32 C 0.7824(10) 0.1659(3) 0.3447(8)
H30 H 0.9119 0.1630 0.3747
H31 H 0.7160 0.1426 0.4045
C33 C 0.7441(7) 0.1533(2) 0.1851(7)
C34 C 0.6697(7) 0.19540(19) 0.1070(7)
C35 C 0.6205(8) 0.1920(2) -0.0417(7)
H32 H 0.5683 0.2202 -0.0936
C36 C 0.6514(8) 0.1452(2) -0.1111(7)
C37 C 0.7290(8) 0.1025(2) -0.0358(7)
H33 H 0.7478 0.0713 -0.0845
C38 C 0.7772(8) 0.1071(2) 0.1112(8)
H34 H 0.8327 0.0792 0.1625
Cl2 Cl 0.5893(3) 0.13896(7) -0.2983(2)
N3 N 0.0997(6) 0.28760(18) 0.2462(6)
N4 N 0.3267(6) 0.22735(18) 0.1807(6)
O3 O 0.0047(5) 0.38334(15) 0.3546(5)
O4 O 0.2543(7) 0.45770(16) 0.4059(6)
loop_
_geom_bond_atom_site_label_1
_geom_bond_atom_site_label_2
_geom_bond_site_symmetry_1
_geom_bond_site_symmetry_2
C1 C2 1_555 1_555
C2 C3 1_555 1_555
C3 H1 1_555 1_555
C4 C3 1_555 1_555
H2 C4 1_555 1_555
C5 C4 1_555 1_555
C6 C1 1_555 1_555
C7 H3 1_555 1_555
H4 C7 1_555 1_555
H5 C7 1_555 1_555
C8 H6 1_555 1_555
H7 C8 1_555 1_555
H8 C8 1_555 1_555
C9 H9 1_555 1_555
C10 C5 1_555 1_555
C11 C10 1_555 1_555
H10 C11 1_555 1_555
C12 C11 1_555 1_555
H11 C12 1_555 1_555
H12 C12 1_555 1_555
C13 C12 1_555 1_555
H13 C13 1_555 1_555
H14 C13 1_555 1_555
C14 C13 1_555 1_555
C15 C11 1_555 1_555
C16 C15 1_555 1_555
H15 C16 1_555 1_555
C17 C16 1_555 1_555
C18 C17 1_555 1_555
H16 C18 1_555 1_555
C19 C14 1_555 1_555
H17 C19 1_555 1_555
Cl1 C17 1_555 1_555
N1 C6 1_555 1_555
N2 C9 1_555 1_555
O1 C1 1_555 1_555
O2 C2 1_555 1_555
C20 C21 1_555 1_555
C21 C22 1_555 1_555
C22 H18 1_555 1_555
C23 C22 1_555 1_555
H19 C23 1_555 1_555
C24 C23 1_555 1_555
C25 C20 1_555 1_555
C26 H20 1_555 1_555
H21 C26 1_555 1_555
H22 C26 1_555 1_555
C27 H23 1_555 1_555
H24 C27 1_555 1_555
H25 C27 1_555 1_555
C28 H26 1_555 1_555
C29 C24 1_555 1_555
C30 C29 1_555 1_555
H27 C30 1_555 1_555
C31 C30 1_555 1_555
H28 C31 1_555 1_555
H29 C31 1_555 1_555
C32 C31 1_555 1_555
H30 C32 1_555 1_555
H31 C32 1_555 1_555
C33 C32 1_555 1_555
C34 C30 1_555 1_555
C35 C34 1_555 1_555
H32 C35 1_555 1_555
C36 C35 1_555 1_555
C37 C36 1_555 1_555
H33 C37 1_555 1_555
C38 C33 1_555 1_555
H34 C38 1_555 1_555
Cl2 C36 1_555 1_555
N3 C25 1_555 1_555
N4 C28 1_555 1_555
O3 C20 1_555 1_555
O4 C21 1_555 1_555
C5 C6 1_555 1_555
C7 O1 1_555 1_555
C8 O2 1_555 1_555
C9 N1 1_555 1_555
C10 N2 1_555 1_555
C14 C15 1_555 1_555
C18 C19 1_555 1_555
C24 C25 1_555 1_555
C26 O3 1_555 1_555
C27 O4 1_555 1_555
C28 N3 1_555 1_555
C29 N4 1_555 1_555
C33 C34 1_555 1_555
C37 C38 1_555 1_555

#END
