
#######################################################################
#
#                 Cambridge Crystallographic Data Centre
#                                CCDC 
#
#######################################################################
#
# If this CIF has been generated from an entry in the Cambridge 
# Structural Database, then it will include bibliographic, chemical, 
# crystal, experimental, refinement or atomic coordinate data resulting 
# from the CCDC's data processing and validation procedures.
#
#######################################################################

data_NUVMIC
_chemical_formula_moiety         'C37 H37 N5 O4 S1'
_chemical_name_systematic        
N-Benzyl-1-((2'-((3,4-dimethyl-1,2-oxazol-5-yl)sulfamoyl)biphenyl-4-yl)methyl)-4-methyl-2-propyl-1H-benzimidazole-6-carboxamide
_chemical_properties_biological  
'angiotensin II AT1 and endothelin ETA antagonistic activity'
_symmetry_cell_setting           triclinic
_symmetry_space_group_name_H-M   'P -1'
_symmetry_Int_Tables_number      2
_space_group_name_Hall           '-P 1'
loop_
_symmetry_equiv_pos_site_id
_symmetry_equiv_pos_as_xyz
1 x,y,z
2 -x,-y,-z
_cell_length_a                   11.726(3)
_cell_length_b                   11.759(3)
_cell_length_c                   12.907(3)
_cell_angle_alpha                67.346(5)
_cell_angle_beta                 89.007(9)
_cell_angle_gamma                82.672(9)
_cell_volume                     1627.99
_exptl_crystal_colour            colorless
_exptl_crystal_description       Prism
_cell_formula_units_Z            2
loop_
_atom_site_label
_atom_site_type_symbol
_atom_site_fract_x
_atom_site_fract_y
_atom_site_fract_z
S1 S 0.78899(4) 0.11051(4) 0.63603(4)
O1 O 0.72151(12) -0.02035(12) 0.92866(11)
O2 O 0.29118(12) 0.44745(14) 0.81729(12)
O3 O 0.74322(12) 0.23895(12) 0.60176(11)
O4 O 0.78965(14) 0.05437(15) 0.55519(12)
N1 N 0.25176(15) 0.58657(18) 0.63957(15)
N2 N 0.67242(12) 0.78399(14) 0.80172(12)
N3 N 0.68110(12) 0.57941(13) 0.89823(12)
N4 N 0.71423(14) 0.02843(15) 0.73740(14)
N5 N 0.66473(16) 0.01633(16) 1.01036(14)
C1 C 0.12594(19) 0.36270(19) 0.54487(17)
H1 H 0.0497 0.3707 0.5696
C2 C 0.1572(2) 0.2802(2) 0.49347(19)
H2 H 0.1025 0.2325 0.4826
C3 C 0.2682(2) 0.2672(2) 0.45798(18)
H3 H 0.2905 0.2095 0.4239
C4 C 0.3465(2) 0.3387(2) 0.4724(2)
H4 H 0.4226 0.3308 0.4472
C5 C 0.31470(18) 0.4220(2) 0.52343(19)
H5 H 0.3691 0.4710 0.5327
C6 C 0.20418(16) 0.43401(18) 0.56088(15)
C7 C 0.16362(17) 0.5228(2) 0.61708(19)
H6 H 0.1022 0.5857 0.5688
H7 H 0.1292 0.4757 0.6890
C8 C 0.31091(15) 0.54212(18) 0.73858(16)
C9 C 0.40305(15) 0.61452(17) 0.74879(15)
C10 C 0.39708(15) 0.74393(17) 0.68994(15)
H8 H 0.3331 0.7865 0.6399
C11 C 0.48056(15) 0.81201(16) 0.70181(15)
C12 C 0.57565(15) 0.74341(16) 0.77336(14)
C13 C 0.58026(14) 0.61532(16) 0.83228(14)
C14 C 0.49544(15) 0.54795(17) 0.82291(15)
H9 H 0.4999 0.4610 0.8647
C15 C 0.73243(13) 0.68376(16) 0.87670(14)
C16 C 0.72107(15) 0.45189(16) 0.97216(15)
H10 H 0.6544 0.4125 1.0115
H11 H 0.7752 0.4528 1.0298
C17 C 0.78036(14) 0.37314(15) 0.91254(14)
C18 C 0.82528(15) 0.25129(16) 0.97725(15)
H12 H 0.8163 0.2194 1.0562
C19 C 0.88305(16) 0.17577(16) 0.92789(15)
H13 H 0.9147 0.0933 0.9738
C20 C 0.89546(15) 0.21883(16) 0.81194(14)
C21 C 0.84903(16) 0.34052(16) 0.74732(15)
H14 H 0.8561 0.3719 0.6681
C22 C 0.79252(16) 0.41669(16) 0.79704(15)
H15 H 0.7618 0.4996 0.7515
C23 C 0.96862(15) 0.13826(16) 0.76433(15)
C24 C 1.08387(16) 0.10681(18) 0.80116(16)
H16 H 1.1099 0.1367 0.8541
C25 C 1.16190(18) 0.0334(2) 0.76334(18)
H17 H 1.2399 0.0147 0.7896
C26 C 1.12586(18) -0.0122(2) 0.68782(18)
H18 H 1.1790 -0.0619 0.6612
C27 C 1.01154(18) 0.01477(18) 0.65069(17)
H19 H 0.9863 -0.0179 0.5995
C28 C 0.93309(16) 0.08952(16) 0.68780(15)
C29 C 0.67582(16) 0.05924(17) 0.82660(15)
C30 C 0.59437(17) 0.14605(18) 0.83610(16)
C31 C 0.59213(18) 0.11450(19) 0.95380(17)
C32 C 0.46945(17) 0.95109(17) 0.64588(17)
H20 H 0.4025 0.9814 0.5935
H21 H 0.5391 0.9756 0.6046
H22 H 0.4595 0.9871 0.7030
C33 C 0.8398(6) 0.6859(9) 0.9357(9)
H23 H 0.8292 0.6479 1.0177
H24 H 0.8509 0.7737 0.9167
C34 C 0.9501(3) 0.6182(4) 0.9080(4)
H25 H 1.0154 0.6178 0.9557
H26 H 0.9397 0.5309 0.9237
C35 C 0.9758(14) 0.6831(15) 0.7857(12)
H27 H 0.9105 0.6843 0.7387
H28 H 1.0449 0.6386 0.7679
H29 H 0.9887 0.7686 0.7710
C36 C 0.5202(2) 0.2472(2) 0.7464(2)
H30 H 0.5522 0.3256 0.7269
H31 H 0.4423 0.2557 0.7735
H32 H 0.5175 0.2268 0.6797
C37 C 0.5171(2) 0.1772(2) 1.0157(2)
H33 H 0.5079 0.1178 1.0923
H34 H 0.4416 0.2080 0.9769
H35 H 0.5525 0.2471 1.0186
H36 H 0.716(2) -0.054(2) 0.749(2)
H37 H 0.275(2) 0.646(2) 0.585(2)
C38? C 0.8401(7) 0.6828(13) 0.9367(10)
H38? H 0.8699 0.5962 0.9857
H39? H 0.8231 0.7307 0.9848
C39? C 0.9317(4) 0.7394(4) 0.8537(4)
H40? H 0.9928 0.7577 0.8946
H41? H 0.8962 0.8193 0.7964
C40? C 0.9875(14) 0.6579(15) 0.7936(11)
H42? H 1.0246 0.5790 0.8493
H43? H 1.0452 0.7010 0.7428
H44? H 0.9284 0.6416 0.7503
loop_
_geom_bond_atom_site_label_1
_geom_bond_atom_site_label_2
_geom_bond_site_symmetry_1
_geom_bond_site_symmetry_2
S1 O3 1_555 1_555
O1 N5 1_555 1_555
O2 C8 1_555 1_555
O4 S1 1_555 1_555
N1 C7 1_555 1_555
N2 C12 1_555 1_555
N3 C13 1_555 1_555
N4 S1 1_555 1_555
N5 C31 1_555 1_555
C1 H1 1_555 1_555
C2 C1 1_555 1_555
H2 C2 1_555 1_555
C3 C2 1_555 1_555
H3 C3 1_555 1_555
C4 C3 1_555 1_555
H4 C4 1_555 1_555
C5 C4 1_555 1_555
H5 C5 1_555 1_555
C6 C1 1_555 1_555
C7 C6 1_555 1_555
H6 C7 1_555 1_555
H7 C7 1_555 1_555
C8 N1 1_555 1_555
C9 C8 1_555 1_555
C10 C9 1_555 1_555
H8 C10 1_555 1_555
C11 C10 1_555 1_555
C12 C11 1_555 1_555
C13 C12 1_555 1_555
C14 C9 1_555 1_555
H9 C14 1_555 1_555
C15 N2 1_555 1_555
C16 N3 1_555 1_555
H10 C16 1_555 1_555
H11 C16 1_555 1_555
C17 C16 1_555 1_555
C18 C17 1_555 1_555
H12 C18 1_555 1_555
C19 C18 1_555 1_555
H13 C19 1_555 1_555
C20 C19 1_555 1_555
C21 C20 1_555 1_555
H14 C21 1_555 1_555
C22 C17 1_555 1_555
H15 C22 1_555 1_555
C23 C20 1_555 1_555
C24 C23 1_555 1_555
H16 C24 1_555 1_555
C25 C24 1_555 1_555
H17 C25 1_555 1_555
C26 C25 1_555 1_555
H18 C26 1_555 1_555
C27 C26 1_555 1_555
H19 C27 1_555 1_555
C28 S1 1_555 1_555
C29 O1 1_555 1_555
C30 C29 1_555 1_555
C31 C30 1_555 1_555
C32 C11 1_555 1_555
H20 C32 1_555 1_555
H21 C32 1_555 1_555
H22 C32 1_555 1_555
C33 C15 1_555 1_555
H23 C33 1_555 1_555
H24 C33 1_555 1_555
C34 C33 1_555 1_555
H25 C34 1_555 1_555
H26 C34 1_555 1_555
C35 C34 1_555 1_555
H27 C35 1_555 1_555
H28 C35 1_555 1_555
H29 C35 1_555 1_555
C36 C30 1_555 1_555
H30 C36 1_555 1_555
H31 C36 1_555 1_555
H32 C36 1_555 1_555
C37 C31 1_555 1_555
H33 C37 1_555 1_555
H34 C37 1_555 1_555
H35 C37 1_555 1_555
H36 N4 1_555 1_555
H37 N1 1_555 1_555
N3 C15 1_555 1_555
N4 C29 1_555 1_555
C5 C6 1_555 1_555
C13 C14 1_555 1_555
C21 C22 1_555 1_555
C23 C28 1_555 1_555
C27 C28 1_555 1_555

#END
