
#######################################################################
#
#                 Cambridge Crystallographic Data Centre
#                                CCDC 
#
#######################################################################
#
# If this CIF has been generated from an entry in the Cambridge 
# Structural Database, then it will include bibliographic, chemical, 
# crystal, experimental, refinement or atomic coordinate data resulting 
# from the CCDC's data processing and validation procedures.
#
#######################################################################

data_NUVSED
_chemical_formula_moiety         'C18 H10'
_chemical_name_systematic        1-Ethynylpyrene
_symmetry_cell_setting           monoclinic
_symmetry_space_group_name_H-M   'P 21/c'
_symmetry_Int_Tables_number      14
_space_group_name_Hall           '-P 2ybc'
loop_
_symmetry_equiv_pos_site_id
_symmetry_equiv_pos_as_xyz
1 x,y,z
2 -x,1/2+y,1/2-z
3 -x,-y,-z
4 x,1/2-y,1/2+z
_cell_length_a                   14.5709(18)
_cell_length_b                   3.9094(5)
_cell_length_c                   20.242(3)
_cell_angle_alpha                90
_cell_angle_beta                 105.042(2)
_cell_angle_gamma                90
_cell_volume                     1113.55
_exptl_crystal_colour            yellow
_exptl_crystal_description       needle
_cell_formula_units_Z            4
loop_
_atom_site_label
_atom_site_type_symbol
_atom_site_fract_x
_atom_site_fract_y
_atom_site_fract_z
C1 C 0.32364(17) 0.0418(7) 0.33694(13)
C2 C 0.25088(18) -0.1147(7) 0.35962(15)
H1 H 0.262(2) -0.134(10) 0.4080(19)
C3 C 0.16858(17) -0.2267(7) 0.31432(14)
H2 H 0.123(2) -0.327(9) 0.3327(16)
C4 C 0.07223(18) -0.3120(7) 0.19370(16)
H3 H 0.026(2) -0.417(9) 0.2115(16)
C5 C 0.06271(17) -0.2795(7) 0.12661(15)
H4 H 0.010(2) -0.367(9) 0.0940(17)
C6 C 0.1258(2) -0.0847(8) 0.02951(15)
H5 H 0.072(2) -0.180(9) -0.0001(17)
C7 C 0.1975(2) 0.0692(8) 0.00640(15)
H6 H 0.190(2) 0.112(8) -0.0370(16)
C8 C 0.2796(2) 0.1853(8) 0.05173(15)
H7 H 0.328(3) 0.288(10) 0.0356(18)
C9 C 0.37643(17) 0.2680(7) 0.17155(14)
H8 H 0.424(2) 0.378(9) 0.1568(16)
C10 C 0.38711(16) 0.2370(7) 0.23962(14)
H9 H 0.435(2) 0.326(8) 0.2686(16)
C11 C 0.15642(16) -0.1946(6) 0.24310(14)
C12 C 0.13481(17) -0.1246(7) 0.09993(14)
C13 C 0.29301(17) 0.1501(7) 0.12277(13)
C14 C 0.31442(16) 0.0805(6) 0.26603(13)
C15 C 0.23008(15) -0.0385(6) 0.21900(12)
C16 C 0.21922(16) -0.0034(6) 0.14711(13)
C17 C 0.40779(18) 0.1587(7) 0.38610(13)
C18 C 0.4779(2) 0.2518(9) 0.42650(15)
H10 H 0.533(3) 0.348(11) 0.4565(19)
loop_
_geom_bond_atom_site_label_1
_geom_bond_atom_site_label_2
_geom_bond_site_symmetry_1
_geom_bond_site_symmetry_2
C1 C2 1_555 1_555
C2 H1 1_555 1_555
C3 C2 1_555 1_555
H2 C3 1_555 1_555
C4 H3 1_555 1_555
C5 C4 1_555 1_555
H4 C5 1_555 1_555
C6 H5 1_555 1_555
C7 C6 1_555 1_555
H6 C7 1_555 1_555
C8 C7 1_555 1_555
H7 C8 1_555 1_555
C9 H8 1_555 1_555
C10 C9 1_555 1_555
H9 C10 1_555 1_555
C11 C3 1_555 1_555
C12 C5 1_555 1_555
C13 C8 1_555 1_555
C14 C1 1_555 1_555
C15 C11 1_555 1_555
C16 C12 1_555 1_555
C17 C1 1_555 1_555
C18 C17 1_555 1_555
H10 C18 1_555 1_555
C4 C11 1_555 1_555
C6 C12 1_555 1_555
C9 C13 1_555 1_555
C10 C14 1_555 1_555
C13 C16 1_555 1_555
C14 C15 1_555 1_555
C15 C16 1_555 1_555

#END
