
#######################################################################
#
#                 Cambridge Crystallographic Data Centre
#                                CCDC 
#
#######################################################################
#
# If this CIF has been generated from an entry in the Cambridge 
# Structural Database, then it will include bibliographic, chemical, 
# crystal, experimental, refinement or atomic coordinate data resulting 
# from the CCDC's data processing and validation procedures.
#
#######################################################################

data_NUVVAB
_chemical_formula_moiety         'C8 H6 Cl3 N1 O1'
_chemical_name_systematic        '1-(4-Chlorophenyl)-2,2-dichloroethanone oxime'
_symmetry_cell_setting           triclinic
_symmetry_space_group_name_H-M   'P -1'
_symmetry_Int_Tables_number      2
_space_group_name_Hall           '-P 1'
loop_
_symmetry_equiv_pos_site_id
_symmetry_equiv_pos_as_xyz
1 x,y,z
2 -x,-y,-z
_cell_length_a                   6.467(3)
_cell_length_b                   7.218(2)
_cell_length_c                   11.038(5)
_cell_angle_alpha                85.79(3)
_cell_angle_beta                 74.33(4)
_cell_angle_gamma                76.13(3)
_cell_volume                     481.605
_exptl_crystal_colour            colorless
_chemical_melting_point          98-100deg.C
_cell_formula_units_Z            2
_exptl_crystal_recrystallization_method chloroform
loop_
_atom_site_label
_atom_site_type_symbol
_atom_site_fract_x
_atom_site_fract_y
_atom_site_fract_z
Cl1 Cl 0.2862(2) 0.2804(1) 0.1920(1)
Cl2 Cl -0.1819(1) 0.2111(1) -0.2770(1)
Cl3 Cl 0.2204(2) -0.0512(1) -0.4103(1)
O1 O 0.3114(4) 0.4095(4) -0.5368(2)
N1 N 0.3348(4) 0.4021(4) -0.4150(2)
C1 C 0.2666(5) 0.2849(4) 0.0379(3)
C2 C 0.2747(5) 0.4501(4) -0.0335(3)
C3 C 0.2583(4) 0.4525(4) -0.1551(3)
C4 C 0.2328(4) 0.2929(4) -0.2071(2)
C5 C 0.2226(5) 0.1281(4) -0.1328(3)
C6 C 0.2395(5) 0.1245(5) -0.0109(3)
C7 C 0.2194(4) 0.2993(4) -0.3392(3)
C8 C 0.0804(5) 0.1938(4) -0.3840(3)
H1 H 0.4055(39) 0.4591(49) -0.5836(7)
H2 H 0.2910(5) 0.5583(4) 0.0005(3)
H3 H 0.2644(4) 0.5631(4) -0.2035(3)
H4 H 0.2042(5) 0.0202(4) -0.1660(3)
H5 H 0.2327(5) 0.0146(5) 0.0381(3)
H6 H 0.0586(5) 0.2505(4) -0.4643(3)
loop_
_geom_bond_atom_site_label_1
_geom_bond_atom_site_label_2
_geom_bond_site_symmetry_1
_geom_bond_site_symmetry_2
Cl1 C1 1_555 1_555
Cl2 C8 1_555 1_555
Cl3 C8 1_555 1_555
O1 N1 1_555 1_555
N1 C7 1_555 1_555
C1 C2 1_555 1_555
C2 C3 1_555 1_555
C3 C4 1_555 1_555
C4 C5 1_555 1_555
C5 C6 1_555 1_555
C6 C1 1_555 1_555
C7 C4 1_555 1_555
C8 C7 1_555 1_555
H1 O1 1_555 1_555
H2 C2 1_555 1_555
H3 C3 1_555 1_555
H4 C5 1_555 1_555
H5 C6 1_555 1_555
H6 C8 1_555 1_555

#END
