
#######################################################################
#
#                 Cambridge Crystallographic Data Centre
#                                CCDC 
#
#######################################################################
#
# If this CIF has been generated from an entry in the Cambridge 
# Structural Database, then it will include bibliographic, chemical, 
# crystal, experimental, refinement or atomic coordinate data resulting 
# from the CCDC's data processing and validation procedures.
#
#######################################################################

data_NUVZAG
_chemical_formula_moiety         'C15 H10 O7'
_chemical_name_systematic        '3-(2-Carboxyphenoxy)phthalic acid'
_symmetry_cell_setting           monoclinic
_symmetry_space_group_name_H-M   'C 2/c'
_symmetry_Int_Tables_number      15
_space_group_name_Hall           '-C 2yn'
loop_
_symmetry_equiv_pos_site_id
_symmetry_equiv_pos_as_xyz
1 x,y,z
2 -x,y,1/2-z
3 1/2+x,1/2+y,z
4 1/2-x,1/2+y,1/2-z
5 -x,-y,-z
6 x,-y,1/2+z
7 1/2-x,1/2-y,-z
8 1/2+x,1/2-y,1/2+z
_cell_length_a                   25.342(16)
_cell_length_b                   8.645(5)
_cell_length_c                   14.204(11)
_cell_angle_alpha                90
_cell_angle_beta                 120.412(19)
_cell_angle_gamma                90
_cell_volume                     2683.67
_exptl_crystal_colour            blue
_exptl_crystal_description       block
_cell_formula_units_Z            8
loop_
_atom_site_label
_atom_site_type_symbol
_atom_site_fract_x
_atom_site_fract_y
_atom_site_fract_z
C1 C 0.6170(2) 0.4151(5) 0.4392(4)
C2 C 0.7401(2) 0.5505(6) 0.5473(4)
C3 C 0.6709(2) 0.3336(5) 0.5310(4)
C4 C 0.7304(2) 0.3931(6) 0.5778(4)
C5 C 0.7788(2) 0.3110(7) 0.6547(4)
H1 H 0.8181 0.3505 0.6835
C6 C 0.7705(2) 0.1702(7) 0.6906(5)
H2 H 0.8041 0.1161 0.7440
C7 C 0.7124(2) 0.1092(6) 0.6476(4)
H3 H 0.7065 0.0142 0.6715
C8 C 0.6635(2) 0.1919(5) 0.5686(4)
C9 C 0.5833(2) 0.2485(6) 0.6894(4)
C10 C 0.5780(2) 0.0845(6) 0.6568(4)
C11 C 0.5879(2) 0.0335(5) 0.5732(4)
C12 C 0.5799(3) -0.1191(6) 0.5418(5)
H4 H 0.5881 -0.1519 0.4881
C13 C 0.5599(3) -0.2227(6) 0.5899(5)
H5 H 0.5530 -0.3251 0.5666
C14 C 0.5497(2) -0.1768(6) 0.6728(5)
H6 H 0.5367 -0.2478 0.7058
C15 C 0.5592(2) -0.0270(7) 0.7050(5)
H7 H 0.5529 0.0029 0.7615
O1 O 0.61506(18) 0.4457(4) 0.3550(3)
O2 O 0.57080(18) 0.4475(5) 0.4519(4)
H8 H 0.5799 0.4294 0.5151
O3 O 0.70043(19) 0.6494(4) 0.5187(4)
H9 H 0.7069 0.7189 0.4866
O4 O 0.79333(18) 0.5750(5) 0.5592(4)
O5 O 0.60401(14) 0.1351(4) 0.5160(3)
O6 O 0.5888(2) 0.3575(4) 0.6414(4)
O7 O 0.5806(2) 0.2681(5) 0.7783(3)
H10 H 0.5838 0.3604 0.7934
loop_
_geom_bond_atom_site_label_1
_geom_bond_atom_site_label_2
_geom_bond_site_symmetry_1
_geom_bond_site_symmetry_2
C1 C3 1_555 1_555
C2 C4 1_555 1_555
C3 C4 1_555 1_555
C4 C5 1_555 1_555
C5 H1 1_555 1_555
C6 C5 1_555 1_555
H2 C6 1_555 1_555
C7 C6 1_555 1_555
H3 C7 1_555 1_555
C8 C3 1_555 1_555
C9 C10 1_555 1_555
C10 C11 1_555 1_555
C11 C12 1_555 1_555
C12 H4 1_555 1_555
C13 C12 1_555 1_555
H5 C13 1_555 1_555
C14 C13 1_555 1_555
H6 C14 1_555 1_555
C15 C10 1_555 1_555
H7 C15 1_555 1_555
O1 C1 1_555 1_555
O2 C1 1_555 1_555
H8 O2 1_555 1_555
O3 C2 1_555 1_555
H9 O3 1_555 1_555
O4 C2 1_555 1_555
O5 C8 1_555 1_555
O6 C9 1_555 1_555
O7 C9 1_555 1_555
H10 O7 1_555 1_555
C7 C8 1_555 1_555
C11 O5 1_555 1_555
C14 C15 1_555 1_555

#END
