
#######################################################################
#
#                 Cambridge Crystallographic Data Centre
#                                CCDC 
#
#######################################################################
#
# If this CIF has been generated from an entry in the Cambridge 
# Structural Database, then it will include bibliographic, chemical, 
# crystal, experimental, refinement or atomic coordinate data resulting 
# from the CCDC's data processing and validation procedures.
#
#######################################################################

data_NUWGOD
_chemical_formula_moiety         'C24 H21 Br2 N5 O1,3.71(H2 O1)'
_chemical_name_systematic        
'2-amino-9-(4-bromobenzylidene)-5-(4-bromophenyl)-7-methyl-5,6,7,8,9,10-hexahydropyrimido[4,5-b][1,6]naphthyridin-4(3H)-one hydrate'
_symmetry_cell_setting           cubic
_symmetry_space_group_name_H-M   'P n -3'
_symmetry_Int_Tables_number      201
_space_group_name_Hall           '-P 2ab 2bc 3'
loop_
_symmetry_equiv_pos_site_id
_symmetry_equiv_pos_as_xyz
1 x,y,z
2 1/2-x,1/2-y,z
3 1/2-x,y,1/2-z
4 x,1/2-y,1/2-z
5 z,x,y
6 z,1/2-x,1/2-y
7 1/2-z,1/2-x,y
8 1/2-z,x,1/2-y
9 y,z,x
10 1/2-y,z,1/2-x
11 y,1/2-z,1/2-x
12 1/2-y,1/2-z,x
13 -x,-y,-z
14 1/2+x,1/2+y,-z
15 1/2+x,-y,1/2+z
16 -x,1/2+y,1/2+z
17 -z,-x,-y
18 -z,1/2+x,1/2+y
19 1/2+z,1/2+x,-y
20 1/2+z,-x,1/2+y
21 -y,-z,-x
22 1/2+y,-z,1/2+x
23 -y,1/2+z,1/2+x
24 1/2+y,1/2+z,-x
_cell_length_a                   25.657(2)
_cell_length_b                   25.657(2)
_cell_length_c                   25.657(2)
_cell_angle_alpha                90
_cell_angle_beta                 90
_cell_angle_gamma                90
_cell_volume                     16889.5
_exptl_crystal_colour            'pale yellow'
_exptl_crystal_description       block
_cell_formula_units_Z            24
loop_
_atom_site_label
_atom_site_type_symbol
_atom_site_fract_x
_atom_site_fract_y
_atom_site_fract_z
Br1 Br 0.50444(5) 0.61410(4) 0.90276(5)
Br2 Br 0.13729(5) 0.21827(4) 1.10009(5)
N1 N 0.2203(4) 0.4896(4) 0.9552(4)
N2 N 0.2831(3) 0.3985(4) 0.8396(5)
H1 H 0.2789 0.3653 0.8422
N3 N 0.3381(4) 0.4489(9) 0.7060(5)
H2 H 0.3471 0.4583 0.6751
N4 N 0.3171(4) 0.3799(5) 0.7586(7)
N5 N 0.3531(4) 0.3636(5) 0.6785(4)
H3 H 0.3502 0.3307 0.6841
H4 H 0.3662 0.3745 0.6496
O1 O 0.3311(4) 0.5345(5) 0.7265(4)
C1 C 0.2585(4) 0.5157(4) 0.9207(5)
H5 H 0.2431 0.5472 0.9066
H6 H 0.2890 0.5255 0.9408
C2 C 0.2742(4) 0.4821(7) 0.8784(5)
C3 C 0.2997(5) 0.5086(5) 0.8326(5)
H7 H 0.2758 0.5355 0.8199
C4 C 0.3088(4) 0.4724(8) 0.7906(7)
C5 C 0.3051(5) 0.4192(9) 0.7936(6)
C6 C 0.2679(4) 0.4311(7) 0.8817(5)
C7 C 0.2457(4) 0.4040(6) 0.9273(5)
C8 C 0.2388(4) 0.4383(5) 0.9731(4)
H8 H 0.2136 0.4231 0.9969
H9 H 0.2717 0.4422 0.9914
C9 C 0.3267(5) 0.4892(8) 0.7399(8)
C10 C 0.3373(5) 0.3974(10) 0.7141(8)
C11 C 0.2096(4) 0.5222(4) 1.0015(5)
H10 H 0.1817 0.5070 1.0212
H11 H 0.1999 0.5566 0.9905
H12 H 0.2403 0.5241 1.0227
C12 C 0.3497(5) 0.5354(6) 0.8492(4)
C13 C 0.3582(5) 0.5872(6) 0.8432(4)
H13 H 0.3323 0.6080 0.8287
C14 C 0.4054(6) 0.6097(4) 0.8583(4)
H14 H 0.4103 0.6453 0.8530
C15 C 0.4443(5) 0.5819(6) 0.8803(4)
C16 C 0.4364(5) 0.5303(6) 0.8859(4)
H15 H 0.4630 0.5100 0.8999
C17 C 0.3901(6) 0.5060(4) 0.8715(4)
H16 H 0.3859 0.4703 0.8766
C18 C 0.2319(4) 0.3537(6) 0.9272(4)
H17 H 0.2375 0.3363 0.8959
C19 C 0.2090(5) 0.3213(5) 0.9696(5)
C20 C 0.2259(4) 0.3270(4) 1.0209(6)
H18 H 0.2519 0.3507 1.0295
C21 C 0.2028(5) 0.2961(5) 1.0587(5)
H19 H 0.2131 0.2999 1.0933
C22 C 0.1654(5) 0.2602(5) 1.0468(6)
C23 C 0.1509(4) 0.2543(4) 0.9962(6)
H20 H 0.1258 0.2295 0.9876
C24 C 0.1725(5) 0.2844(5) 0.9573(5)
H21 H 0.1623 0.2796 0.9229
O2 O 0.2922(3) 0.2845(3) 0.8123(3)
H22 H 0.2672 0.2628 0.8120
H23 H 0.3201 0.2684 0.8045
O3 O 0.1289(3) 0.4778(3) 0.8999(2)
H24 H 0.1568 0.4789 0.9178
H25 H 0.1162 0.4473 0.9021
O4 O 0.0964(6) 0.5770(6) 0.8690(7)
H26 H 0.1058 0.5460 0.8757
H27 H 0.0962 0.5941 0.8973
O5? O 0.0450(9) 0.5478(9) 0.9387(10)
H28? H 0.0685 0.5279 0.9265
H29? H 0.0484 0.5489 0.9716
O6? O 0.2500 0.2500 0.2500
H30? H 0.2338 0.2338 0.2338
O7? O 0.3806(5) 0.2641(5) 0.7119(5)
H31? H 0.4111 0.2669 0.6991
H32? H 0.3832 0.2533 0.7431
O8? O 0.0743(13) 0.4257(13) 0.0743(13)
H33? H 0.0413 0.4249 0.0711
loop_
_geom_bond_atom_site_label_1
_geom_bond_atom_site_label_2
_geom_bond_site_symmetry_1
_geom_bond_site_symmetry_2
Br1 C15 1_555 1_555
Br2 C22 1_555 1_555
N1 C1 1_555 1_555
N2 H1 1_555 1_555
N3 H2 1_555 1_555
N4 C5 1_555 1_555
N5 H3 1_555 1_555
H4 N5 1_555 1_555
O1 C9 1_555 1_555
C1 H5 1_555 1_555
H6 C1 1_555 1_555
C2 C1 1_555 1_555
C3 C2 1_555 1_555
H7 C3 1_555 1_555
C4 C3 1_555 1_555
C5 N2 1_555 1_555
C6 N2 1_555 1_555
C7 C6 1_555 1_555
C8 N1 1_555 1_555
H8 C8 1_555 1_555
H9 C8 1_555 1_555
C9 N3 1_555 1_555
C10 N3 1_555 1_555
C11 N1 1_555 1_555
H10 C11 1_555 1_555
H11 C11 1_555 1_555
H12 C11 1_555 1_555
C12 C3 1_555 1_555
C13 C12 1_555 1_555
H13 C13 1_555 1_555
C14 C13 1_555 1_555
H14 C14 1_555 1_555
C15 C14 1_555 1_555
C16 C15 1_555 1_555
H15 C16 1_555 1_555
C17 C12 1_555 1_555
H16 C17 1_555 1_555
C18 C7 1_555 1_555
H17 C18 1_555 1_555
C19 C18 1_555 1_555
C20 C19 1_555 1_555
H18 C20 1_555 1_555
C21 C20 1_555 1_555
H19 C21 1_555 1_555
C22 C21 1_555 1_555
C23 C22 1_555 1_555
H20 C23 1_555 1_555
C24 C19 1_555 1_555
H21 C24 1_555 1_555
O2 H22 1_555 1_555
H23 O2 1_555 1_555
O3 H24 1_555 1_555
H25 O3 1_555 1_555
O4 H26 1_555 1_555
H27 O4 1_555 1_555
N4 C10 1_555 1_555
N5 C10 1_555 1_555
C2 C6 1_555 1_555
C4 C5 1_555 1_555
C4 C9 1_555 1_555
C7 C8 1_555 1_555
C16 C17 1_555 1_555
C23 C24 1_555 1_555

#END
