
#######################################################################
#
#                 Cambridge Crystallographic Data Centre
#                                CCDC 
#
#######################################################################
#
# If this CIF has been generated from an entry in the Cambridge 
# Structural Database, then it will include bibliographic, chemical, 
# crystal, experimental, refinement or atomic coordinate data resulting 
# from the CCDC's data processing and validation procedures.
#
#######################################################################

data_NUWGUJ
_chemical_formula_moiety         'C27 H24 N4,0.5(C2 H6 O1),H2 O1'
_chemical_name_systematic        
"4-benzyl-2-methyl-12-phenyl-1,2,6,12-tetrahydropyrido[4',3':4,5]pyrimido[1,2-a]benzimidazole ethanol solvate monohydrate"
_symmetry_cell_setting           triclinic
_symmetry_space_group_name_H-M   'P -1'
_symmetry_Int_Tables_number      2
_space_group_name_Hall           '-P 1'
loop_
_symmetry_equiv_pos_site_id
_symmetry_equiv_pos_as_xyz
1 x,y,z
2 -x,-y,-z
_cell_length_a                   9.8714(13)
_cell_length_b                   16.11(2)
_cell_length_c                   16.131(2)
_cell_angle_alpha                95.1590(10)
_cell_angle_beta                 103.578(2)
_cell_angle_gamma                91.9540(10)
_cell_volume                     2479.45
_exptl_crystal_colour            'pale yellow'
_exptl_crystal_description       block
_cell_formula_units_Z            4
loop_
_atom_site_label
_atom_site_type_symbol
_atom_site_fract_x
_atom_site_fract_y
_atom_site_fract_z
N1 N 0.5731(5) 0.0853(2) 0.3808(4)
N2 N 0.7230(5) 0.0748(3) 0.5207(4)
N3 N 0.7833(5) 0.0401(3) 0.3891(4)
H1 H 0.8661 0.0246 0.4093
N4 N 0.3963(6) 0.1431(3) 0.6262(4)
C1 C 0.6970(7) 0.0670(3) 0.4336(5)
C2 C 0.6161(7) 0.0998(3) 0.5541(5)
C3 C 0.4858(7) 0.1234(3) 0.5032(4)
C4 C 0.4684(5) 0.1323(3) 0.4102(4)
H2 H 0.3755 0.1093 0.3787
C5 C 0.4854(8) 0.2226(4) 0.3931(4)
C6 C 0.6054(8) 0.2682(4) 0.4312(4)
H3 H 0.6788 0.2442 0.4664
C7 C 0.6169(9) 0.3550(5) 0.4158(5)
H4 H 0.6973 0.3884 0.4412
C8 C 0.5064(12) 0.3860(5) 0.3632(6)
H5 H 0.5151 0.4413 0.3520
C9 C 0.3897(11) 0.3443(6) 0.3274(5)
H6 H 0.3162 0.3692 0.2932
C10 C 0.3782(8) 0.2590(4) 0.3425(4)
H7 H 0.2958 0.2275 0.3172
C11 C 0.5845(8) 0.0698(3) 0.2972(5)
C12 C 0.7191(8) 0.0411(3) 0.3048(5)
C13 C 0.7628(8) 0.0195(3) 0.2305(6)
H8 H 0.8517 0.0006 0.2336
C14 C 0.6750(10) 0.0260(3) 0.1531(5)
H9 H 0.7055 0.0130 0.1034
C15 C 0.5432(9) 0.0512(3) 0.1468(5)
H10 H 0.4842 0.0526 0.0928
C16 C 0.4941(7) 0.0752(3) 0.2197(5)
H11 H 0.4048 0.0938 0.2155
C17 C 0.3827(6) 0.1437(3) 0.5411(5)
H12 H 0.2989 0.1588 0.5075
C18 C 0.5186(9) 0.1251(3) 0.6755(4)
H13 H 0.5279 0.1277 0.7344
C19 C 0.6282(8) 0.1037(3) 0.6446(5)
C20 C 0.7641(7) 0.0874(4) 0.7050(4)
H14 H 0.7447 0.0622 0.7537
H15 H 0.8141 0.0481 0.6759
C21 C 0.8532(7) 0.1651(4) 0.7360(5)
C22 C 0.9270(8) 0.2002(5) 0.6867(5)
H16 H 0.9256 0.1736 0.6328
C23 C 1.0043(8) 0.2739(6) 0.7137(6)
H17 H 1.0562 0.2966 0.6791
C24 C 1.0043(8) 0.3134(5) 0.7911(7)
H18 H 1.0592 0.3626 0.8104
C25 C 0.9279(9) 0.2836(6) 0.8401(5)
H19 H 0.9227 0.3124 0.8917
C26 C 0.8569(8) 0.2081(6) 0.8111(6)
H20 H 0.8073 0.1850 0.8467
C27 C 0.2813(7) 0.1687(3) 0.6644(4)
H21 H 0.2921 0.1472 0.7190
H22 H 0.1941 0.1472 0.6271
H23 H 0.2825 0.2286 0.6719
N5 N 0.4490(5) 0.5861(3) 0.0859(3)
N6 N 0.2871(5) 0.4669(3) 0.0448(3)
N7 N 0.2396(5) 0.6020(3) 0.0048(3)
H24 H 0.1564 0.5915 -0.0266
N8 N 0.5908(5) 0.3210(3) 0.1667(3)
C28 C 0.3225(7) 0.5481(4) 0.0443(4)
C29 C 0.3880(7) 0.4223(3) 0.0878(4)
C30 C 0.5195(7) 0.4550(3) 0.1325(3)
C31 C 0.5570(6) 0.5487(3) 0.1468(4)
H25 H 0.6479 0.5597 0.1340
C32 C 0.5624(7) 0.5826(3) 0.2376(4)
C33 C 0.4461(7) 0.6104(4) 0.2620(5)
H26 H 0.3620 0.6104 0.2212
C34 C 0.4531(9) 0.6384(4) 0.3462(6)
H27 H 0.3747 0.6584 0.3621
C35 C 0.5732(12) 0.6365(4) 0.4048(5)
H28 H 0.5761 0.6541 0.4617
C36 C 0.6895(9) 0.6102(4) 0.3844(5)
H29 H 0.7725 0.6103 0.4261
C37 C 0.6827(8) 0.5824(3) 0.2986(5)
H30 H 0.7624 0.5636 0.2834
C38 C 0.4434(8) 0.6700(4) 0.0739(4)
C39 C 0.3123(8) 0.6781(4) 0.0235(4)
C40 C 0.2719(7) 0.7560(4) -0.0004(4)
H31 H 0.1844 0.7630 -0.0353
C41 C 0.3671(9) 0.8218(4) 0.0299(5)
H32 H 0.3418 0.8746 0.0152
C42 C 0.4977(9) 0.8145(4) 0.0808(4)
H33 H 0.5587 0.8614 0.0991
C43 C 0.5390(7) 0.7362(4) 0.1051(4)
H34 H 0.6261 0.7293 0.1405
C44 C 0.6178(6) 0.4041(3) 0.1696(3)
H35 H 0.7060 0.4270 0.1978
C45 C 0.4613(7) 0.2888(3) 0.1266(4)
H36 H 0.4420 0.2320 0.1266
C46 C 0.3591(6) 0.3344(3) 0.0868(4)
C47 C 0.2173(6) 0.2967(3) 0.0388(4)
H37 H 0.1481 0.3368 0.0445
H38 H 0.2164 0.2872 -0.0215
C48 C 0.1751(6) 0.2167(4) 0.0679(5)
C49 C 0.1159(7) 0.2155(5) 0.1377(5)
H39 H 0.1041 0.2659 0.1674
C50 C 0.0738(7) 0.1419(6) 0.1647(5)
H40 H 0.0341 0.1425 0.2117
C51 C 0.0915(8) 0.0702(6) 0.1217(7)
H41 H 0.0637 0.0207 0.1401
C52 C 0.1476(8) 0.0655(5) 0.0528(6)
H42 H 0.1562 0.0141 0.0238
C53 C 0.1934(6) 0.1411(5) 0.0256(5)
H43 H 0.2354 0.1395 -0.0204
C54 C 0.6972(6) 0.2689(3) 0.2096(4)
H44 H 0.7874 0.2973 0.2189
H45 H 0.6949 0.2173 0.1744
H46 H 0.6796 0.2577 0.2636
O1 O -0.0381(8) 0.4498(5) 0.2565(5)
H47 H -0.0263 0.4510 0.2080
C55 C 0.0823(19) 0.4806(11) 0.3158(13)
H48 H 0.1108 0.5339 0.2998
H49 H 0.1555 0.4428 0.3121
C56 C 0.072(2) 0.4922(11) 0.4057(15)
H50 H 0.0130 0.5372 0.4128
H51 H 0.1632 0.5051 0.4425
H52 H 0.0326 0.4419 0.4204
O2 O 0.1174(14) 0.1777(8) 0.3724(8)
H53 H 0.0916 0.1286 0.3706
C57 C 0.0031(19) 0.2291(11) 0.3758(14)
H54 H -0.0842 0.2011 0.3432
H55 H 0.0159 0.2816 0.3528
C58 C 0.0034(17) 0.2434(10) 0.4692(13)
H56 H 0.0901 0.2272 0.5032
H57 H -0.0725 0.2108 0.4802
H58 H -0.0072 0.3015 0.4840
O3 O 0.0756(5) 0.0492(3) 0.4253(4)
H59 H 0.0133 0.0225 0.3856
H60 H 0.1456 0.0197 0.4392
O4 O 0.0149(5) 0.4604(3) 0.1070(3)
H61 H -0.0305 0.4177 0.0771
H62 H 0.0984 0.4621 0.1013
loop_
_geom_bond_atom_site_label_1
_geom_bond_atom_site_label_2
_geom_bond_site_symmetry_1
_geom_bond_site_symmetry_2
N1 C1 1_555 1_555
N2 C1 1_555 1_555
N3 H1 1_555 1_555
N4 C17 1_555 1_555
C1 N3 1_555 1_555
C2 N2 1_555 1_555
C3 C2 1_555 1_555
C4 N1 1_555 1_555
H2 C4 1_555 1_555
C5 C4 1_555 1_555
C6 C5 1_555 1_555
H3 C6 1_555 1_555
C7 C6 1_555 1_555
H4 C7 1_555 1_555
C8 C7 1_555 1_555
H5 C8 1_555 1_555
C9 C8 1_555 1_555
H6 C9 1_555 1_555
C10 C5 1_555 1_555
H7 C10 1_555 1_555
C11 N1 1_555 1_555
C12 N3 1_555 1_555
C13 C12 1_555 1_555
H8 C13 1_555 1_555
C14 C13 1_555 1_555
H9 C14 1_555 1_555
C15 C14 1_555 1_555
H10 C15 1_555 1_555
C16 C11 1_555 1_555
H11 C16 1_555 1_555
C17 C3 1_555 1_555
H12 C17 1_555 1_555
C18 N4 1_555 1_555
H13 C18 1_555 1_555
C19 C2 1_555 1_555
C20 C19 1_555 1_555
H14 C20 1_555 1_555
H15 C20 1_555 1_555
C21 C20 1_555 1_555
C22 C21 1_555 1_555
H16 C22 1_555 1_555
C23 C22 1_555 1_555
H17 C23 1_555 1_555
C24 C23 1_555 1_555
H18 C24 1_555 1_555
C25 C24 1_555 1_555
H19 C25 1_555 1_555
C26 C21 1_555 1_555
H20 C26 1_555 1_555
C27 N4 1_555 1_555
H21 C27 1_555 1_555
H22 C27 1_555 1_555
H23 C27 1_555 1_555
N5 C28 1_555 1_555
N6 C28 1_555 1_555
N7 H24 1_555 1_555
N8 C44 1_555 1_555
C28 N7 1_555 1_555
C29 N6 1_555 1_555
C30 C29 1_555 1_555
C31 N5 1_555 1_555
H25 C31 1_555 1_555
C32 C31 1_555 1_555
C33 C32 1_555 1_555
H26 C33 1_555 1_555
C34 C33 1_555 1_555
H27 C34 1_555 1_555
C35 C34 1_555 1_555
H28 C35 1_555 1_555
C36 C35 1_555 1_555
H29 C36 1_555 1_555
C37 C32 1_555 1_555
H30 C37 1_555 1_555
C38 N5 1_555 1_555
C39 N7 1_555 1_555
C40 C39 1_555 1_555
H31 C40 1_555 1_555
C41 C40 1_555 1_555
H32 C41 1_555 1_555
C42 C41 1_555 1_555
H33 C42 1_555 1_555
C43 C38 1_555 1_555
H34 C43 1_555 1_555
C44 C30 1_555 1_555
H35 C44 1_555 1_555
C45 N8 1_555 1_555
H36 C45 1_555 1_555
C46 C29 1_555 1_555
C47 C46 1_555 1_555
H37 C47 1_555 1_555
H38 C47 1_555 1_555
C48 C47 1_555 1_555
C49 C48 1_555 1_555
H39 C49 1_555 1_555
C50 C49 1_555 1_555
H40 C50 1_555 1_555
C51 C50 1_555 1_555
H41 C51 1_555 1_555
C52 C51 1_555 1_555
H42 C52 1_555 1_555
C53 C48 1_555 1_555
H43 C53 1_555 1_555
C54 N8 1_555 1_555
H44 C54 1_555 1_555
H45 C54 1_555 1_555
H46 C54 1_555 1_555
O1 H47 1_555 1_555
C55 O1 1_555 1_555
H48 C55 1_555 1_555
H49 C55 1_555 1_555
C56 C55 1_555 1_555
H50 C56 1_555 1_555
H51 C56 1_555 1_555
H52 C56 1_555 1_555
O2 H53 1_555 1_555
C57 O2 1_555 1_555
H54 C57 1_555 1_555
H55 C57 1_555 1_555
C58 C57 1_555 1_555
H56 C58 1_555 1_555
H57 C58 1_555 1_555
H58 C58 1_555 1_555
O3 H59 1_555 1_555
H60 O3 1_555 1_555
O4 H61 1_555 1_555
H62 O4 1_555 1_555
C3 C4 1_555 1_555
C9 C10 1_555 1_555
C11 C12 1_555 1_555
C15 C16 1_555 1_555
C18 C19 1_555 1_555
C25 C26 1_555 1_555
C30 C31 1_555 1_555
C36 C37 1_555 1_555
C38 C39 1_555 1_555
C42 C43 1_555 1_555
C45 C46 1_555 1_555
C52 C53 1_555 1_555

#END
