
#######################################################################
#
#                 Cambridge Crystallographic Data Centre
#                                CCDC 
#
#######################################################################
#
# If this CIF has been generated from an entry in the Cambridge 
# Structural Database, then it will include bibliographic, chemical, 
# crystal, experimental, refinement or atomic coordinate data resulting 
# from the CCDC's data processing and validation procedures.
#
#######################################################################

data_NUWHES
_chemical_formula_moiety         'C25 H32 O4'
_chemical_name_systematic        
4-Ethynyl-11-isopropyl-4,8-dimethyl-5-(4-methoxy-benzyloxy)-3-oxa-bicyclo(5.4.0)undeca-8-en-2-one
_symmetry_cell_setting           orthorhombic
_symmetry_space_group_name_H-M   'P 21 21 21'
_symmetry_Int_Tables_number      19
_space_group_name_Hall           'P 2ac 2ab'
loop_
_symmetry_equiv_pos_site_id
_symmetry_equiv_pos_as_xyz
1 x,y,z
2 1/2-x,-y,1/2+z
3 1/2+x,1/2-y,-z
4 -x,1/2+y,1/2-z
_cell_length_a                   9.128(1)
_cell_length_b                   13.250(1)
_cell_length_c                   18.284(1)
_cell_angle_alpha                90
_cell_angle_beta                 90
_cell_angle_gamma                90
_cell_volume                     2211.38
_exptl_crystal_colour            colorless
_exptl_crystal_description       parallelepiped
_cell_formula_units_Z            4
loop_
_atom_site_label
_atom_site_type_symbol
_atom_site_fract_x
_atom_site_fract_y
_atom_site_fract_z
O1 O 0.2923(5) 0.4560(3) 0.2220(2)
O2 O 0.4633(3) 0.3490(2) 0.2015(2)
O3 O 0.8313(3) 0.2803(2) 0.1397(2)
O4 O 1.2311(4) -0.1058(3) 0.1395(2)
C1 C 0.6782(5) 0.6321(3) 0.1111(3)
C2 C 0.6037(5) 0.6630(3) 0.0535(3)
C3 C 0.4719(5) 0.6150(3) 0.0209(2)
C4 C 0.4270(5) 0.5142(3) 0.0572(2)
C5 C 0.4689(5) 0.5196(3) 0.1392(2)
C6 C 0.6358(5) 0.5340(3) 0.1491(2)
C7 C 0.8056(6) 0.6891(4) 0.1429(3)
C8 C 0.2653(5) 0.4875(4) 0.0429(3)
C9 C 0.1552(6) 0.5623(4) 0.0758(3)
C10 C 0.2358(6) 0.4737(5) -0.0382(3)
C11 C 0.7331(5) 0.4481(3) 0.1223(2)
C12 C 0.7234(5) 0.3501(3) 0.1650(2)
C13 C 0.5768(5) 0.2945(3) 0.1605(2)
C14 C 0.4020(5) 0.4395(3) 0.1879(2)
C15 C 0.5259(5) 0.2745(3) 0.0854(3)
C16 C 0.4809(6) 0.2548(4) 0.0272(3)
C17 C 0.5844(6) 0.1947(3) 0.2027(3)
C18 C 0.9584(5) 0.2721(4) 0.1853(3)
C19 C 1.0324(5) 0.1726(3) 0.1708(2)
C20 C 1.1633(5) 0.1677(3) 0.1331(3)
C21 C 1.2337(5) 0.0761(4) 0.1208(3)
C22 C 1.1724(5) -0.0111(3) 0.1468(2)
C23 C 1.0392(5) -0.0073(4) 0.1837(2)
C24 C 0.9718(5) 0.0840(4) 0.1955(3)
C25 C 1.3716(7) -0.1132(5) 0.1069(4)
H1 H 0.6373(5) 0.7214(3) 0.0308(3)
H2 H 0.4904(5) 0.6028(3) -0.0306(2)
H3 H 0.3904(5) 0.6617(3) 0.0243(2)
H4 H 0.4867(5) 0.4609(3) 0.0350(2)
H5 H 0.4259(5) 0.5830(3) 0.1564(2)
H6 H 0.6545(5) 0.5427(3) 0.2015(2)
H7 H 0.8387(23) 0.7388(16) 0.1084(8)
H8 H 0.8839(14) 0.6430(5) 0.1534(16)
H9 H 0.7755(11) 0.7220(19) 0.1872(10)
H10 H 0.2473(5) 0.4222(4) 0.0663(3)
H11 H 0.1705(23) 0.5669(18) 0.1276(4)
H12 H 0.0574(6) 0.5392(13) 0.0663(15)
H13 H 0.1689(23) 0.6275(7) 0.0540(13)
H14 H 0.3026(24) 0.4246(19) -0.0578(5)
H15 H 0.2491(34) 0.5369(7) -0.0630(4)
H16 H 0.1370(13) 0.4507(23) -0.0451(3)
H17 H 0.7084(5) 0.4342(3) 0.0717(2)
H18 H 0.8340(5) 0.4711(3) 0.1233(2)
H19 H 0.7434(5) 0.3649(3) 0.2165(2)
H20 H 0.4451(6) 0.2391(4) -0.0190(3)
H21 H 0.4879(7) 0.1666(12) 0.2069(14)
H22 H 0.6235(31) 0.2068(5) 0.2507(7)
H23 H 0.6467(27) 0.1483(9) 0.1770(9)
H24 H 0.9302(5) 0.2764(4) 0.2363(3)
H25 H 1.0255(5) 0.3271(4) 0.1748(3)
H26 H 1.2053(5) 0.2269(3) 0.1155(3)
H27 H 1.3217(5) 0.0742(4) 0.0951(3)
H28 H 0.9958(5) -0.0665(4) 0.2003(2)
H29 H 0.8834(5) 0.0858(4) 0.2208(3)
H30 H 1.4050(16) -0.1818(7) 0.1094(15)
H31 H 1.4390(10) -0.0704(18) 0.1325(11)
H32 H 1.3659(10) -0.0925(22) 0.0566(6)
loop_
_geom_bond_atom_site_label_1
_geom_bond_atom_site_label_2
_geom_bond_site_symmetry_1
_geom_bond_site_symmetry_2
O1 C14 1_555 1_555
O2 C13 1_555 1_555
O3 C12 1_555 1_555
O4 C22 1_555 1_555
C1 C2 1_555 1_555
C2 C3 1_555 1_555
C3 C4 1_555 1_555
C4 C5 1_555 1_555
C5 C6 1_555 1_555
C6 C1 1_555 1_555
C7 C1 1_555 1_555
C8 C4 1_555 1_555
C9 C8 1_555 1_555
C10 C8 1_555 1_555
C11 C6 1_555 1_555
C12 C11 1_555 1_555
C13 C12 1_555 1_555
C14 O2 1_555 1_555
C15 C13 1_555 1_555
C16 C15 1_555 1_555
C17 C13 1_555 1_555
C18 O3 1_555 1_555
C19 C18 1_555 1_555
C20 C19 1_555 1_555
C21 C20 1_555 1_555
C22 C21 1_555 1_555
C23 C22 1_555 1_555
C24 C19 1_555 1_555
C25 O4 1_555 1_555
H1 C2 1_555 1_555
H2 C3 1_555 1_555
H3 C3 1_555 1_555
H4 C4 1_555 1_555
H5 C5 1_555 1_555
H6 C6 1_555 1_555
H7 C7 1_555 1_555
H8 C7 1_555 1_555
H9 C7 1_555 1_555
H10 C8 1_555 1_555
H11 C9 1_555 1_555
H12 C9 1_555 1_555
H13 C9 1_555 1_555
H14 C10 1_555 1_555
H15 C10 1_555 1_555
H16 C10 1_555 1_555
H17 C11 1_555 1_555
H18 C11 1_555 1_555
H19 C12 1_555 1_555
H20 C16 1_555 1_555
H21 C17 1_555 1_555
H22 C17 1_555 1_555
H23 C17 1_555 1_555
H24 C18 1_555 1_555
H25 C18 1_555 1_555
H26 C20 1_555 1_555
H27 C21 1_555 1_555
H28 C23 1_555 1_555
H29 C24 1_555 1_555
H30 C25 1_555 1_555
H31 C25 1_555 1_555
H32 C25 1_555 1_555
C5 C14 1_555 1_555
C23 C24 1_555 1_555

#END
