
#######################################################################
#
#                 Cambridge Crystallographic Data Centre
#                                CCDC 
#
#######################################################################
#
# If this CIF has been generated from an entry in the Cambridge 
# Structural Database, then it will include bibliographic, chemical, 
# crystal, experimental, refinement or atomic coordinate data resulting 
# from the CCDC's data processing and validation procedures.
#
#######################################################################

data_NUWJUL
_chemical_formula_moiety         'C23 H20 N4 O2'
_chemical_name_systematic        
1,3-Dibenzyl-6,7-dihydropyrido[1,2-e]purine-2,4(1H,3H)-dione
_symmetry_cell_setting           monoclinic
_symmetry_space_group_name_H-M   'P 21/n'
_symmetry_Int_Tables_number      14
_space_group_name_Hall           '-P 2yn'
loop_
_symmetry_equiv_pos_site_id
_symmetry_equiv_pos_as_xyz
1 x,y,z
2 1/2-x,1/2+y,1/2-z
3 -x,-y,-z
4 1/2+x,1/2-y,1/2+z
_cell_length_a                   11.9075(18)
_cell_length_b                   9.4400(15)
_cell_length_c                   16.866(3)
_cell_angle_alpha                90
_cell_angle_beta                 97.706(3)
_cell_angle_gamma                90
_cell_volume                     1878.73
_exptl_crystal_colour            colorless
_exptl_crystal_description       prismatic
_cell_formula_units_Z            4
loop_
_atom_site_label
_atom_site_type_symbol
_atom_site_fract_x
_atom_site_fract_y
_atom_site_fract_z
N1 N 0.5018(2) 0.4232(3) 0.12031(15)
N2 N 0.6903(2) 0.5046(2) 0.15445(15)
N3 N 0.7153(2) 0.7491(3) 0.10593(16)
N4 N 0.5356(2) 0.7930(3) 0.05556(16)
O1 O 0.64019(19) 0.2823(2) 0.18408(14)
O2 O 0.36060(19) 0.5620(3) 0.05623(15)
C1 C 0.6121(3) 0.3956(3) 0.15391(19)
C2 C 0.4601(3) 0.5511(4) 0.0843(2)
C3 C 0.5461(3) 0.6576(3) 0.08681(19)
C4 C 0.6543(2) 0.6302(3) 0.11823(18)
C5 C 0.6368(3) 0.8443(3) 0.0668(2)
C6 C 0.6778(4) 0.9824(4) 0.0408(3)
H1 H 0.6767 0.9797 -0.0168
H2 H 0.6248 1.0550 0.0524
C7 C 0.7889(4) 1.0240(5) 0.0761(4)
H3 H 0.7814 1.0846 0.1216
H4 H 0.8227 1.0803 0.0374
C8 C 0.8687(3) 0.9067(4) 0.1037(2)
H5 H 0.9462 0.9250 0.1107
C9 C 0.8343(3) 0.7810(4) 0.1183(2)
H6 H 0.8864 0.7112 0.1368
C10 C 0.4217(3) 0.3067(3) 0.1268(2)
H7 H 0.4564 0.2184 0.1136
H8 H 0.3548 0.3214 0.0880
C11 C 0.3866(2) 0.2945(3) 0.2084(2)
C12 C 0.3973(3) 0.1696(4) 0.2498(2)
H9 H 0.4294 0.0916 0.2277
C13 C 0.3614(3) 0.1576(4) 0.3238(2)
H10 H 0.3699 0.0719 0.3511
C14 C 0.3131(3) 0.2702(4) 0.3574(2)
H11 H 0.2883 0.2618 0.4072
C15 C 0.3022(3) 0.3959(4) 0.3163(2)
H12 H 0.2690 0.4732 0.3381
C16 C 0.3397(3) 0.4084(4) 0.2431(2)
H13 H 0.3334 0.4951 0.2166
C17 C 0.7993(3) 0.4816(3) 0.20494(19)
H14 H 0.7857 0.4280 0.2518
H15 H 0.8299 0.5729 0.2232
C18 C 0.8866(2) 0.4049(3) 0.16459(18)
C19 C 0.8885(3) 0.4057(3) 0.0833(2)
H16 H 0.8316 0.4521 0.0500
C20 C 0.9745(3) 0.3379(4) 0.0508(2)
H17 H 0.9753 0.3398 -0.0043
C21 C 1.0582(3) 0.2683(4) 0.0987(3)
H18 H 1.1160 0.2232 0.0765
C22 C 1.0566(3) 0.2651(4) 0.1796(3)
H19 H 1.1134 0.2178 0.2126
C23 C 0.9706(3) 0.3322(3) 0.2123(2)
H20 H 0.9692 0.3284 0.2673
loop_
_geom_bond_atom_site_label_1
_geom_bond_atom_site_label_2
_geom_bond_site_symmetry_1
_geom_bond_site_symmetry_2
N1 C1 1_555 1_555
N2 C1 1_555 1_555
N3 C4 1_555 1_555
N4 C3 1_555 1_555
O1 C1 1_555 1_555
O2 C2 1_555 1_555
C2 N1 1_555 1_555
C3 C2 1_555 1_555
C4 N2 1_555 1_555
C5 N3 1_555 1_555
C6 C5 1_555 1_555
H1 C6 1_555 1_555
H2 C6 1_555 1_555
C7 C6 1_555 1_555
H3 C7 1_555 1_555
H4 C7 1_555 1_555
C8 C7 1_555 1_555
H5 C8 1_555 1_555
C9 N3 1_555 1_555
H6 C9 1_555 1_555
C10 N1 1_555 1_555
H7 C10 1_555 1_555
H8 C10 1_555 1_555
C11 C10 1_555 1_555
C12 C11 1_555 1_555
H9 C12 1_555 1_555
C13 C12 1_555 1_555
H10 C13 1_555 1_555
C14 C13 1_555 1_555
H11 C14 1_555 1_555
C15 C14 1_555 1_555
H12 C15 1_555 1_555
C16 C11 1_555 1_555
H13 C16 1_555 1_555
C17 N2 1_555 1_555
H14 C17 1_555 1_555
H15 C17 1_555 1_555
C18 C17 1_555 1_555
C19 C18 1_555 1_555
H16 C19 1_555 1_555
C20 C19 1_555 1_555
H17 C20 1_555 1_555
C21 C20 1_555 1_555
H18 C21 1_555 1_555
C22 C21 1_555 1_555
H19 C22 1_555 1_555
C23 C18 1_555 1_555
H20 C23 1_555 1_555
N4 C5 1_555 1_555
C3 C4 1_555 1_555
C8 C9 1_555 1_555
C15 C16 1_555 1_555
C22 C23 1_555 1_555

#END
