
#######################################################################
#
#                 Cambridge Crystallographic Data Centre
#                                CCDC 
#
#######################################################################
#
# If this CIF has been generated from an entry in the Cambridge 
# Structural Database, then it will include bibliographic, chemical, 
# crystal, experimental, refinement or atomic coordinate data resulting 
# from the CCDC's data processing and validation procedures.
#
#######################################################################

data_NUWJOF
_chemical_formula_moiety         'C23 H20 N4 O2'
_chemical_name_systematic        
1,3-Dibenzyl-8,9-dihydropyrido[2,1-f]purine-2,4(1H,3H)-dione
_symmetry_cell_setting           monoclinic
_symmetry_space_group_name_H-M   'P 21/c'
_symmetry_Int_Tables_number      14
_space_group_name_Hall           '-P 2ybc'
loop_
_symmetry_equiv_pos_site_id
_symmetry_equiv_pos_as_xyz
1 x,y,z
2 -x,1/2+y,1/2-z
3 -x,-y,-z
4 x,1/2-y,1/2+z
_cell_length_a                   8.7228(11)
_cell_length_b                   11.0108(14)
_cell_length_c                   20.451(3)
_cell_angle_alpha                90
_cell_angle_beta                 96.101(3)
_cell_angle_gamma                90
_cell_volume                     1953.09
_exptl_crystal_colour            colorless
_exptl_crystal_description       prismatic
_cell_formula_units_Z            4
loop_
_atom_site_label
_atom_site_type_symbol
_atom_site_fract_x
_atom_site_fract_y
_atom_site_fract_z
N1 N 0.1188(2) -0.00588(18) 0.35864(10)
N2 N 0.0637(2) 0.12893(17) 0.44346(10)
N3 N 0.1997(3) 0.08443(19) 0.55031(11)
N4 N 0.3362(2) -0.07571(18) 0.51851(11)
O1 O -0.0537(2) 0.14986(17) 0.33972(9)
O2 O 0.2932(2) -0.16178(16) 0.37518(9)
C1 C 0.0372(3) 0.0956(2) 0.37867(14)
C2 C 0.2268(3) -0.0755(2) 0.39813(13)
C3 C 0.2461(3) -0.0336(2) 0.46327(13)
C4 C 0.1681(3) 0.0633(2) 0.48529(13)
C5 C 0.3052(3) -0.0048(3) 0.56829(13)
C6 C 0.3867(3) -0.0256(3) 0.63462(13)
H1 H 0.3174 -0.0093 0.6676
H2 H 0.4736 0.0295 0.6419
C7 C 0.4435(4) -0.1556(3) 0.64126(14)
H3 H 0.5257 -0.1592 0.6771
H4 H 0.3598 -0.2060 0.6534
C8 C 0.5015(4) -0.2087(3) 0.58166(17)
H5 H 0.5756 -0.2696 0.5867
C9 C 0.4521(3) -0.1727(2) 0.52341(16)
H6 H 0.4881 -0.2064 0.4863
C10 C 0.0907(3) -0.0400(2) 0.28871(13)
H7 H -0.0134 -0.0166 0.2720
H8 H 0.0987 -0.1275 0.2847
C11 C 0.2032(3) 0.0196(3) 0.24764(12)
C12 C 0.1843(4) 0.1377(3) 0.22810(14)
H9 H 0.0999 0.1817 0.2393
C13 C 0.2903(6) 0.1922(4) 0.19177(17)
H10 H 0.2760 0.2725 0.1784
C14 C 0.4147(6) 0.1301(4) 0.17533(16)
H11 H 0.4869 0.1685 0.1521
C15 C 0.4338(5) 0.0109(4) 0.19288(17)
H12 H 0.5170 -0.0330 0.1804
C16 C 0.3282(4) -0.0439(3) 0.22944(14)
H13 H 0.3418 -0.1247 0.2419
C17 C -0.0099(3) 0.2402(2) 0.46553(13)
H14 H -0.0252 0.2319 0.5116
H15 H -0.1103 0.2497 0.4408
C18 C 0.0853(3) 0.3521(2) 0.45672(12)
C19 C 0.1866(3) 0.3936(2) 0.50697(14)
H16 H 0.1963 0.3528 0.5470
C20 C 0.2753(4) 0.4959(3) 0.49917(16)
H17 H 0.3453 0.5228 0.5336
C21 C 0.2598(4) 0.5565(3) 0.44116(17)
H18 H 0.3180 0.6260 0.4362
C22 C 0.1600(4) 0.5167(3) 0.39041(16)
H19 H 0.1505 0.5581 0.3505
C23 C 0.0721(3) 0.4141(2) 0.39826(14)
H20 H 0.0034 0.3868 0.3635
loop_
_geom_bond_atom_site_label_1
_geom_bond_atom_site_label_2
_geom_bond_site_symmetry_1
_geom_bond_site_symmetry_2
N1 C1 1_555 1_555
N2 C1 1_555 1_555
N3 C4 1_555 1_555
N4 C3 1_555 1_555
O1 C1 1_555 1_555
O2 C2 1_555 1_555
C2 N1 1_555 1_555
C3 C2 1_555 1_555
C4 N2 1_555 1_555
C5 N3 1_555 1_555
C6 C5 1_555 1_555
H1 C6 1_555 1_555
H2 C6 1_555 1_555
C7 C6 1_555 1_555
H3 C7 1_555 1_555
H4 C7 1_555 1_555
C8 C7 1_555 1_555
H5 C8 1_555 1_555
C9 N4 1_555 1_555
H6 C9 1_555 1_555
C10 N1 1_555 1_555
H7 C10 1_555 1_555
H8 C10 1_555 1_555
C11 C10 1_555 1_555
C12 C11 1_555 1_555
H9 C12 1_555 1_555
C13 C12 1_555 1_555
H10 C13 1_555 1_555
C14 C13 1_555 1_555
H11 C14 1_555 1_555
C15 C14 1_555 1_555
H12 C15 1_555 1_555
C16 C11 1_555 1_555
H13 C16 1_555 1_555
C17 N2 1_555 1_555
H14 C17 1_555 1_555
H15 C17 1_555 1_555
C18 C17 1_555 1_555
C19 C18 1_555 1_555
H16 C19 1_555 1_555
C20 C19 1_555 1_555
H17 C20 1_555 1_555
C21 C20 1_555 1_555
H18 C21 1_555 1_555
C22 C21 1_555 1_555
H19 C22 1_555 1_555
C23 C18 1_555 1_555
H20 C23 1_555 1_555
N4 C5 1_555 1_555
C3 C4 1_555 1_555
C8 C9 1_555 1_555
C15 C16 1_555 1_555
C22 C23 1_555 1_555

#END
