
#######################################################################
#
#                 Cambridge Crystallographic Data Centre
#                                CCDC 
#
#######################################################################
#
# If this CIF has been generated from an entry in the Cambridge 
# Structural Database, then it will include bibliographic, chemical, 
# crystal, experimental, refinement or atomic coordinate data resulting 
# from the CCDC's data processing and validation procedures.
#
#######################################################################

data_NUWLOH
_chemical_formula_moiety         'C24 H25 N1 O3 S1'
_chemical_name_systematic        
1-(7-(4-Methylphenyl)-1-((4-methylphenyl)sulfonyl)-2,3,4,7-tetrahydro-1H-cyclopenta[b]pyridin-6-yl)ethanone
_symmetry_cell_setting           monoclinic
_symmetry_space_group_name_H-M   'P 21/n'
_symmetry_Int_Tables_number      14
_space_group_name_Hall           '-P 2yn'
loop_
_symmetry_equiv_pos_site_id
_symmetry_equiv_pos_as_xyz
1 x,y,z
2 1/2-x,1/2+y,1/2-z
3 -x,-y,-z
4 1/2+x,1/2-y,1/2+z
_cell_length_a                   13.0319(8)
_cell_length_b                   8.5404(5)
_cell_length_c                   19.7383(11)
_cell_angle_alpha                90
_cell_angle_beta                 96.482(2)
_cell_angle_gamma                90
_cell_volume                     2182.78
_exptl_crystal_colour            colorless
_exptl_crystal_description       polyhedron
_cell_formula_units_Z            4
loop_
_atom_site_label
_atom_site_type_symbol
_atom_site_fract_x
_atom_site_fract_y
_atom_site_fract_z
N1 N 0.8668(3) 0.8271(5) 0.2139(2)
C1 C 0.8738(4) 0.9552(6) 0.1701(2)
C2 C 0.8537(4) 0.9484(6) 0.0934(2)
H1 H 0.9097 0.8880 0.0744
C3 C 0.8602(4) 1.1203(6) 0.0747(3)
C4 C 0.8753(4) 1.2058(6) 0.1318(3)
H2 H 0.8805 1.3168 0.1331
C5 C 0.8825(4) 1.1052(6) 0.1916(3)
C6 C 0.8986(4) 1.1538(6) 0.2649(2)
H3 H 0.8351 1.2039 0.2779
H4 H 0.9556 1.2307 0.2719
C7 C 0.9249(4) 1.0089(6) 0.3094(3)
H5 H 0.9979 0.9793 0.3072
H6 H 0.9162 1.0336 0.3575
C8 C 0.8553(4) 0.8731(6) 0.2854(3)
H7 H 0.8720 0.7822 0.3157
H8 H 0.7826 0.9027 0.2886
C9 C 0.8578(5) 1.1740(7) 0.0041(3)
O1 O 0.8761(5) 1.0809(5) -0.0404(2)
C10 C 0.8628(5) 1.3471(7) -0.0085(3)
H9 H 0.9332 1.3847 0.0052
H10 H 0.8146 1.4013 0.0182
H11 H 0.8439 1.3683 -0.0571
C11 C 0.7489(5) 0.8790(6) 0.0685(3)
C12 C 0.7363(5) 0.7680(6) 0.0170(3)
H12 H 0.7952 0.7294 -0.0019
C13 C 0.6394(6) 0.7124(7) -0.0074(3)
H13 H 0.6332 0.6368 -0.0430
C14 C 0.5521(5) 0.7638(7) 0.0186(3)
C15 C 0.5649(5) 0.8706(7) 0.0706(3)
H14 H 0.5060 0.9069 0.0901
C16 C 0.6615(5) 0.9271(6) 0.0954(3)
H15 H 0.6673 1.0007 0.1317
C17 C 0.4456(5) 0.7067(7) -0.0091(3)
H16 H 0.4116 0.6610 0.0281
H17 H 0.4518 0.6271 -0.0442
H18 H 0.4046 0.7949 -0.0290
S1 S 0.92829(11) 0.66181(16) 0.20297(8)
O2 O 0.8825(3) 0.5465(4) 0.24250(18)
O3 O 0.9280(3) 0.6394(4) 0.13113(18)
C18 C 1.0558(4) 0.6877(6) 0.2395(3)
C19 C 1.1251(5) 0.7700(7) 0.2055(3)
H19 H 1.1046 0.8115 0.1613
C20 C 1.2249(5) 0.7915(8) 0.2362(4)
H20 H 1.2730 0.8459 0.2121
C21 C 1.2563(5) 0.7359(8) 0.3012(4)
C22 C 1.1852(5) 0.6542(7) 0.3334(3)
H21 H 1.2055 0.6122 0.3774
C23 C 1.0862(5) 0.6312(6) 0.3042(3)
H22 H 1.0383 0.5765 0.3284
C24 C 1.3651(5) 0.7639(9) 0.3337(4)
H23 H 1.3646 0.8445 0.3690
H24 H 1.4080 0.7990 0.2990
H25 H 1.3933 0.6665 0.3544
loop_
_geom_bond_atom_site_label_1
_geom_bond_atom_site_label_2
_geom_bond_site_symmetry_1
_geom_bond_site_symmetry_2
N1 C1 1_555 1_555
C1 C2 1_555 1_555
C2 H1 1_555 1_555
C3 C2 1_555 1_555
C4 C3 1_555 1_555
H2 C4 1_555 1_555
C5 C1 1_555 1_555
C6 C5 1_555 1_555
H3 C6 1_555 1_555
H4 C6 1_555 1_555
C7 C6 1_555 1_555
H5 C7 1_555 1_555
H6 C7 1_555 1_555
C8 N1 1_555 1_555
H7 C8 1_555 1_555
H8 C8 1_555 1_555
C9 C3 1_555 1_555
O1 C9 1_555 1_555
C10 C9 1_555 1_555
H9 C10 1_555 1_555
H10 C10 1_555 1_555
H11 C10 1_555 1_555
C11 C2 1_555 1_555
C12 C11 1_555 1_555
H12 C12 1_555 1_555
C13 C12 1_555 1_555
H13 C13 1_555 1_555
C14 C13 1_555 1_555
C15 C14 1_555 1_555
H14 C15 1_555 1_555
C16 C11 1_555 1_555
H15 C16 1_555 1_555
C17 C14 1_555 1_555
H16 C17 1_555 1_555
H17 C17 1_555 1_555
H18 C17 1_555 1_555
S1 N1 1_555 1_555
O2 S1 1_555 1_555
O3 S1 1_555 1_555
C18 S1 1_555 1_555
C19 C18 1_555 1_555
H19 C19 1_555 1_555
C20 C19 1_555 1_555
H20 C20 1_555 1_555
C21 C20 1_555 1_555
C22 C21 1_555 1_555
H21 C22 1_555 1_555
C23 C18 1_555 1_555
H22 C23 1_555 1_555
C24 C21 1_555 1_555
H23 C24 1_555 1_555
H24 C24 1_555 1_555
H25 C24 1_555 1_555
C4 C5 1_555 1_555
C7 C8 1_555 1_555
C15 C16 1_555 1_555
C22 C23 1_555 1_555

#END
