
#######################################################################
#
#                 Cambridge Crystallographic Data Centre
#                                CCDC 
#
#######################################################################
#
# If this CIF has been generated from an entry in the Cambridge 
# Structural Database, then it will include bibliographic, chemical, 
# crystal, experimental, refinement or atomic coordinate data resulting 
# from the CCDC's data processing and validation procedures.
#
#######################################################################

data_NUWLEX
_chemical_formula_moiety         'C21 H17 Br1 Cl1 N1 O3 S1'
_chemical_name_systematic        
4-Bromo-N-(4-chloro-phenylethynyl)-N-[2-(5-methyl-furan-2-yl)-ethyl]-benzenesulfonamide
_symmetry_cell_setting           monoclinic
_symmetry_space_group_name_H-M   'C 2/c'
_symmetry_Int_Tables_number      15
_space_group_name_Hall           '-C 2yn'
loop_
_symmetry_equiv_pos_site_id
_symmetry_equiv_pos_as_xyz
1 x,y,z
2 -x,y,1/2-z
3 1/2+x,1/2+y,z
4 1/2-x,1/2+y,1/2-z
5 -x,-y,-z
6 x,-y,1/2+z
7 1/2-x,1/2-y,-z
8 1/2+x,1/2-y,1/2+z
_cell_length_a                   22.432(5)
_cell_length_b                   8.8512(17)
_cell_length_c                   21.889(3)
_cell_angle_alpha                90
_cell_angle_beta                 104.311(13)
_cell_angle_gamma                90
_cell_volume                     4211.2
_exptl_crystal_colour            colorless
_exptl_crystal_description       block
_cell_formula_units_Z            8
loop_
_atom_site_label
_atom_site_type_symbol
_atom_site_fract_x
_atom_site_fract_y
_atom_site_fract_z
Br1 Br 0.08724(4) 0.15309(8) 0.60932(4)
S1 S 0.12819(7) -0.44314(16) 0.46236(7)
Cl1 Cl -0.24589(9) -0.8758(3) 0.27309(10)
O1 O 0.16274(18) -0.0535(4) 0.35538(17)
N1 N 0.09392(19) -0.4282(5) 0.38639(19)
C1 C 0.1046(3) -0.1080(7) 0.3332(3)
O2 O 0.19258(18) -0.4531(5) 0.46565(18)
C2 C 0.0642(3) -0.0135(8) 0.3465(3)
H1 H 0.0217 -0.0258 0.3364
O3 O 0.0972(2) -0.5605(4) 0.48636(18)
C3 C 0.0976(4) 0.1107(8) 0.3793(3)
H2 H 0.0813 0.1952 0.3946
C4 C 0.1571(4) 0.0823(7) 0.3839(3)
C5 C 0.2149(3) 0.1675(7) 0.4096(3)
H3 H 0.2316 0.2006 0.3756
H4 H 0.2440 0.1033 0.4373
H5 H 0.2062 0.2537 0.4327
C6 C 0.0993(3) -0.2550(7) 0.2984(2)
H6 H 0.1190 -0.2448 0.2638
H7 H 0.0562 -0.2765 0.2804
C7 C 0.1281(2) -0.3880(6) 0.3393(3)
H8 H 0.1292 -0.4747 0.3125
H9 H 0.1701 -0.3628 0.3608
C8 C 0.0349(3) -0.4760(6) 0.3660(2)
C9 C -0.0159(3) -0.5199(6) 0.3493(2)
C10 C -0.0732(2) -0.5996(6) 0.3284(2)
C11 C -0.0770(3) -0.7247(7) 0.2902(3)
H10 H -0.0429 -0.7534 0.2760
C12 C -0.1302(3) -0.8081(7) 0.2728(3)
H11 H -0.1323 -0.8915 0.2465
C13 C -0.1800(2) -0.7671(7) 0.2945(2)
C14 C -0.1781(2) -0.6439(7) 0.3319(2)
H12 H -0.2124 -0.6170 0.3463
C15 C -0.1254(2) -0.5594(6) 0.3485(2)
H13 H -0.1243 -0.4741 0.3735
C16 C 0.1145(2) -0.2729(6) 0.4982(2)
C17 C 0.0601(3) -0.2531(6) 0.5150(2)
H14 H 0.0292 -0.3256 0.5048
C18 C 0.0518(3) -0.1248(7) 0.5470(3)
H15 H 0.0149 -0.1097 0.5583
C19 C 0.0975(3) -0.0188(6) 0.5626(2)
C20 C 0.1518(3) -0.0376(7) 0.5454(3)
H16 H 0.1828 0.0345 0.5563
C21 C 0.1600(3) -0.1646(7) 0.5119(2)
H17 H 0.1960 -0.1771 0.4986
loop_
_geom_bond_atom_site_label_1
_geom_bond_atom_site_label_2
_geom_bond_site_symmetry_1
_geom_bond_site_symmetry_2
Br1 C19 1_555 1_555
S1 N1 1_555 1_555
Cl1 C13 1_555 1_555
O1 C1 1_555 1_555
N1 C7 1_555 1_555
C1 C2 1_555 1_555
O2 S1 1_555 1_555
C2 H1 1_555 1_555
O3 S1 1_555 1_555
C3 C2 1_555 1_555
H2 C3 1_555 1_555
C4 O1 1_555 1_555
C5 C4 1_555 1_555
H3 C5 1_555 1_555
H4 C5 1_555 1_555
H5 C5 1_555 1_555
C6 C1 1_555 1_555
H6 C6 1_555 1_555
H7 C6 1_555 1_555
C7 C6 1_555 1_555
H8 C7 1_555 1_555
H9 C7 1_555 1_555
C8 N1 1_555 1_555
C9 C8 1_555 1_555
C10 C9 1_555 1_555
C11 C10 1_555 1_555
H10 C11 1_555 1_555
C12 C11 1_555 1_555
H11 C12 1_555 1_555
C13 C12 1_555 1_555
C14 C13 1_555 1_555
H12 C14 1_555 1_555
C15 C10 1_555 1_555
H13 C15 1_555 1_555
C16 S1 1_555 1_555
C17 C16 1_555 1_555
H14 C17 1_555 1_555
C18 C17 1_555 1_555
H15 C18 1_555 1_555
C19 C18 1_555 1_555
C20 C19 1_555 1_555
H16 C20 1_555 1_555
C21 C16 1_555 1_555
H17 C21 1_555 1_555
C3 C4 1_555 1_555
C14 C15 1_555 1_555
C20 C21 1_555 1_555

#END
