
#######################################################################
#
#                 Cambridge Crystallographic Data Centre
#                                CCDC 
#
#######################################################################
#
# If this CIF has been generated from an entry in the Cambridge 
# Structural Database, then it will include bibliographic, chemical, 
# crystal, experimental, refinement or atomic coordinate data resulting 
# from the CCDC's data processing and validation procedures.
#
#######################################################################

data_NUWMIC
_chemical_formula_moiety         'C10 H9 Br1 O3'
_chemical_name_systematic        
(3S,5S)-5-(3-bromophenyl)-3-hydroxy-dihydrofuran-2(3H)-one
_symmetry_cell_setting           orthorhombic
_symmetry_space_group_name_H-M   'P 21 21 21'
_symmetry_Int_Tables_number      19
_space_group_name_Hall           'P 2ac 2ab'
loop_
_symmetry_equiv_pos_site_id
_symmetry_equiv_pos_as_xyz
1 x,y,z
2 1/2-x,-y,1/2+z
3 -x,1/2+y,1/2-z
4 1/2+x,1/2-y,-z
_cell_length_a                   5.5016(14)
_cell_length_b                   5.8055(15)
_cell_length_c                   31.561(8)
_cell_angle_alpha                90
_cell_angle_beta                 90
_cell_angle_gamma                90
_cell_volume                     1008.04
_exptl_crystal_colour            colorless
_exptl_crystal_description       prismatic
_cell_formula_units_Z            4
loop_
_atom_site_label
_atom_site_type_symbol
_atom_site_fract_x
_atom_site_fract_y
_atom_site_fract_z
Br1 Br -0.23395(10) 0.83392(10) 0.034944(19)
O1 O 0.1515(5) 0.4489(6) 0.22223(12)
O2 O 0.1551(5) 0.7802(5) 0.18751(11)
O3 O 0.6512(6) 0.4244(6) 0.20340(15)
C1 C 0.2660(8) 0.6055(7) 0.20707(15)
C2 C 0.5375(7) 0.6415(8) 0.20650(17)
H1 H 0.5881 0.7173 0.2328
C3 C 0.5693(8) 0.8042(8) 0.17004(18)
H2 H 0.5911 0.7210 0.1437
H3 H 0.7078 0.9047 0.1745
C4 C 0.3321(8) 0.9405(8) 0.16984(18)
H4 H 0.3487 1.0718 0.1891
C5 C 0.2476(10) 1.0251(7) 0.12842(15)
C6 C 0.3450(10) 1.2280(8) 0.1120(2)
H5 H 0.4614 1.3086 0.1274
C7 C 0.2708(12) 1.3100(9) 0.07336(19)
H6 H 0.3367 1.4465 0.0631
C8 C 0.1010(11) 1.1944(10) 0.0496(2)
H7 H 0.0494 1.2506 0.0235
C9 C 0.0099(8) 0.9914(9) 0.06598(17)
C10 C 0.0821(7) 0.9076(8) 0.10445(17)
H8 H 0.0181 0.7695 0.1144
H9 H 0.789(5) 0.434(8) 0.2111(16)
loop_
_geom_bond_atom_site_label_1
_geom_bond_atom_site_label_2
_geom_bond_site_symmetry_1
_geom_bond_site_symmetry_2
Br1 C9 1_555 1_555
O1 C1 1_555 1_555
O2 C1 1_555 1_555
O3 C2 1_555 1_555
C1 C2 1_555 1_555
C2 H1 1_555 1_555
C3 C2 1_555 1_555
H2 C3 1_555 1_555
H3 C3 1_555 1_555
C4 O2 1_555 1_555
H4 C4 1_555 1_555
C5 C4 1_555 1_555
C6 C5 1_555 1_555
H5 C6 1_555 1_555
C7 C6 1_555 1_555
H6 C7 1_555 1_555
C8 C7 1_555 1_555
H7 C8 1_555 1_555
C9 C8 1_555 1_555
C10 C5 1_555 1_555
H8 C10 1_555 1_555
H9 O3 1_555 1_555
C3 C4 1_555 1_555
C9 C10 1_555 1_555

#END
