
#######################################################################
#
#                 Cambridge Crystallographic Data Centre
#                                CCDC 
#
#######################################################################
#
# If this CIF has been generated from an entry in the Cambridge 
# Structural Database, then it will include bibliographic, chemical, 
# crystal, experimental, refinement or atomic coordinate data resulting 
# from the CCDC's data processing and validation procedures.
#
#######################################################################

data_NUWMOH
_chemical_formula_moiety         'C19 H15 N1 O4'
_chemical_name_systematic        8-Acetoxy-2-(benzoylmethoxy)quinoline
_symmetry_cell_setting           monoclinic
_symmetry_space_group_name_H-M   'P 21/n'
_symmetry_Int_Tables_number      14
_space_group_name_Hall           '-P 2yn'
loop_
_symmetry_equiv_pos_site_id
_symmetry_equiv_pos_as_xyz
1 x,y,z
2 1/2-x,1/2+y,1/2-z
3 -x,-y,-z
4 1/2+x,1/2-y,1/2+z
_cell_length_a                   11.175(2)
_cell_length_b                   9.972(2)
_cell_length_c                   15.204(2)
_cell_angle_alpha                90
_cell_angle_beta                 105.75(1)
_cell_angle_gamma                90
_cell_volume                     1630.68
_exptl_crystal_colour            colorless
_exptl_crystal_description       prism
_chemical_melting_point          141-142deg.C
_cell_formula_units_Z            4
loop_
_atom_site_label
_atom_site_type_symbol
_atom_site_fract_x
_atom_site_fract_y
_atom_site_fract_z
O1 O 0.1211(3) 0.4500(3) 1.1275(2)
O2 O 0.2559(3) 0.2249(3) 1.1230(2)
O3 O 0.3211(4) 0.4947(3) 0.8809(2)
O4 O 0.1536(3) 0.6220(4) 0.8186(2)
N1 N 0.2406(3) 0.5194(3) 1.0354(2)
C1 C 0.2083(4) 0.5334(5) 1.1107(3)
C2 C 0.2546(5) 0.6313(6) 1.1784(3)
C3 C 0.3407(5) 0.7170(5) 1.1661(4)
C4 C 0.3851(5) 0.7071(5) 1.0872(4)
C5 C 0.4779(6) 0.7914(6) 1.0701(5)
C6 C 0.5153(6) 0.7755(7) 0.9935(6)
C7 C 0.4625(6) 0.6788(7) 0.9299(4)
C8 C 0.3706(5) 0.5966(5) 0.9422(4)
C9 C 0.3298(4) 0.6073(5) 1.0232(3)
C10 C 0.0721(4) 0.3513(5) 1.0595(3)
C11 C 0.1615(4) 0.2350(5) 1.0620(3)
C12 C 0.1252(4) 0.1369(5) 0.9856(3)
C13 C 0.1969(4) 0.0224(5) 0.9895(3)
C14 C 0.1713(5) -0.0684(5) 0.9191(4)
C15 C 0.0717(5) -0.0484(5) 0.8437(4)
C16 C -0.0025(5) 0.0629(6) 0.8384(3)
C17 C 0.0238(4) 0.1541(5) 0.9095(4)
C18 C 0.2048(6) 0.5159(6) 0.8237(4)
C19 C 0.1587(5) 0.3920(6) 0.7720(4)
H1 H 0.2251 0.6360 1.2316
H2 H 0.3720 0.7849 1.2104
H3 H 0.5136 0.8602 1.1127
H4 H 0.5789 0.8316 0.9832
H5 H 0.4907 0.6694 0.8766
H6 H 0.0545 0.3926 1.0013
H7 H -0.0024 0.3168 1.0694
H8 H 0.2647 0.0065 1.0419
H9 H 0.2226 -0.1454 0.9222
H10 H 0.0543 -0.1119 0.7952
H11 H -0.0712 0.0764 0.7864
H12 H -0.0286 0.2302 0.9061
H13 H 0.1543 0.3219 0.8134
H14 H 0.2137 0.3664 0.7370
H15 H 0.0781 0.4074 0.7322
loop_
_geom_bond_atom_site_label_1
_geom_bond_atom_site_label_2
_geom_bond_site_symmetry_1
_geom_bond_site_symmetry_2
O1 C1 1_555 1_555
O2 C11 1_555 1_555
O3 C8 1_555 1_555
O4 C18 1_555 1_555
N1 C1 1_555 1_555
C1 C2 1_555 1_555
C2 C3 1_555 1_555
C3 C4 1_555 1_555
C4 C5 1_555 1_555
C5 C6 1_555 1_555
C6 C7 1_555 1_555
C7 C8 1_555 1_555
C8 C9 1_555 1_555
C9 N1 1_555 1_555
C10 O1 1_555 1_555
C11 C10 1_555 1_555
C12 C11 1_555 1_555
C13 C12 1_555 1_555
C14 C13 1_555 1_555
C15 C14 1_555 1_555
C16 C15 1_555 1_555
C17 C12 1_555 1_555
C18 O3 1_555 1_555
C19 C18 1_555 1_555
H1 C2 1_555 1_555
H2 C3 1_555 1_555
H3 C5 1_555 1_555
H4 C6 1_555 1_555
H5 C7 1_555 1_555
H6 C10 1_555 1_555
H7 C10 1_555 1_555
H8 C13 1_555 1_555
H9 C14 1_555 1_555
H10 C15 1_555 1_555
H11 C16 1_555 1_555
H12 C17 1_555 1_555
H13 C19 1_555 1_555
H14 C19 1_555 1_555
H15 C19 1_555 1_555
C4 C9 1_555 1_555
C16 C17 1_555 1_555

#END
