
#######################################################################
#
#                 Cambridge Crystallographic Data Centre
#                                CCDC 
#
#######################################################################
#
# If this CIF has been generated from an entry in the Cambridge 
# Structural Database, then it will include bibliographic, chemical, 
# crystal, experimental, refinement or atomic coordinate data resulting 
# from the CCDC's data processing and validation procedures.
#
#######################################################################

data_NUWMOI
_chemical_formula_moiety         'C8 H8 O3 S1'
_chemical_name_systematic        3-Hydroxy-5-(2-thienyl)dihydrofuran-2(3H)-one
_symmetry_cell_setting           orthorhombic
_symmetry_space_group_name_H-M   'P 21 21 21'
_symmetry_Int_Tables_number      19
_space_group_name_Hall           'P 2ac 2ab'
loop_
_symmetry_equiv_pos_site_id
_symmetry_equiv_pos_as_xyz
1 x,y,z
2 1/2-x,-y,1/2+z
3 -x,1/2+y,1/2-z
4 1/2+x,1/2-y,-z
_cell_length_a                   5.7964(6)
_cell_length_b                   7.2945(7)
_cell_length_c                   19.3253(19)
_cell_angle_alpha                90
_cell_angle_beta                 90
_cell_angle_gamma                90
_cell_volume                     817.109
_exptl_crystal_colour            colorless
_exptl_crystal_description       prismatic
_cell_formula_units_Z            4
loop_
_atom_site_label
_atom_site_type_symbol
_atom_site_fract_x
_atom_site_fract_y
_atom_site_fract_z
S1 S 0.7445(2) 0.40733(15) -0.01351(5)
O1 O 0.6436(5) 0.0961(5) 0.22178(16)
O2 O 0.5261(5) 0.3026(4) 0.14543(13)
O3 O 1.0468(5) 0.3132(5) 0.23602(15)
H1 H 1.1138 0.3863 0.2612
C1 C 0.6664(7) 0.2453(5) 0.19631(17)
C2 C 0.8379(7) 0.3907(6) 0.21306(19)
H2 H 0.7753 0.4701 0.2494
C3 C 0.8528(7) 0.4980(5) 0.14589(19)
H3 H 0.9577 0.4408 0.1133
H4 H 0.8998 0.6239 0.1538
C4 C 0.6018(7) 0.4861(5) 0.12127(18)
H5 H 0.5107 0.5805 0.1448
C5 C 0.5615(7) 0.4994(5) 0.04529(18)
C6 C 0.3553(6) 0.5821(4) 0.01455(15)
H6 H 0.2343 0.6404 0.0372
C7 C 0.3830(8) 0.5520(5) -0.0609(2)
H7 H 0.2735 0.5909 -0.0929
C8 C 0.5733(9) 0.4664(6) -0.0795(2)
H8 H 0.6093 0.4410 -0.1254
loop_
_geom_bond_atom_site_label_1
_geom_bond_atom_site_label_2
_geom_bond_site_symmetry_1
_geom_bond_site_symmetry_2
S1 C5 1_555 1_555
O1 C1 1_555 1_555
O2 C1 1_555 1_555
O3 H1 1_555 1_555
C1 C2 1_555 1_555
C2 O3 1_555 1_555
H2 C2 1_555 1_555
C3 C2 1_555 1_555
H3 C3 1_555 1_555
H4 C3 1_555 1_555
C4 O2 1_555 1_555
H5 C4 1_555 1_555
C5 C4 1_555 1_555
C6 C5 1_555 1_555
H6 C6 1_555 1_555
C7 C6 1_555 1_555
H7 C7 1_555 1_555
C8 S1 1_555 1_555
H8 C8 1_555 1_555
C3 C4 1_555 1_555
C7 C8 1_555 1_555

#END
