
#######################################################################
#
#                 Cambridge Crystallographic Data Centre
#                                CCDC 
#
#######################################################################
#
# If this CIF has been generated from an entry in the Cambridge 
# Structural Database, then it will include bibliographic, chemical, 
# crystal, experimental, refinement or atomic coordinate data resulting 
# from the CCDC's data processing and validation procedures.
#
#######################################################################

data_NUWNOJ
_chemical_formula_moiety         'C28 H28 O7'
_chemical_name_systematic        
'Dimethyl 3-acetyl-4-(2-methoxy-2-oxoethyl)-2-phenyl-3-(phenylethynyl)cyclopentane-1,1-dicarboxylate'
_symmetry_cell_setting           monoclinic
_symmetry_space_group_name_H-M   'P 21/n'
_symmetry_Int_Tables_number      14
_space_group_name_Hall           '-P 2yn'
loop_
_symmetry_equiv_pos_site_id
_symmetry_equiv_pos_as_xyz
1 x,y,z
2 1/2-x,1/2+y,1/2-z
3 -x,-y,-z
4 1/2+x,1/2-y,1/2+z
_cell_length_a                   12.3261(2)
_cell_length_b                   11.9251(2)
_cell_length_c                   16.9183(3)
_cell_angle_alpha                90
_cell_angle_beta                 95.5180(10)
_cell_angle_gamma                90
_cell_volume                     2475.3
_exptl_crystal_colour            colorless
_exptl_crystal_description       block
_cell_formula_units_Z            4
loop_
_atom_site_label
_atom_site_type_symbol
_atom_site_fract_x
_atom_site_fract_y
_atom_site_fract_z
O1 O 0.62229(8) 0.78731(8) -0.04735(6)
O2 O 1.05509(7) 0.78315(8) 0.12100(6)
O3 O 0.90088(8) 0.88200(8) 0.10754(6)
O4 O 0.94856(9) 0.50587(8) 0.15812(6)
O5 O 0.92258(8) 0.65988(8) 0.22983(5)
O6 O 0.75332(12) 0.70466(9) -0.20746(6)
O7 O 0.78690(8) 0.88707(8) -0.19278(6)
C1 C 0.70185(10) 0.29121(10) 0.00013(7)
C2 C 0.61792(12) 0.23952(12) -0.04738(9)
H1 H 0.5690 0.2833 -0.0814
C3 C 0.60590(14) 0.12460(13) -0.04495(11)
H2 H 0.5481 0.0897 -0.0771
C4 C 0.67652(15) 0.06014(12) 0.00339(10)
H3 H 0.6682 -0.0190 0.0041
C5 C 0.75944(15) 0.11040(12) 0.05084(10)
H4 H 0.8081 0.0658 0.0846
C6 C 0.77235(12) 0.22559(12) 0.04972(9)
H5 H 0.8295 0.2599 0.0829
C7 C 0.69728(9) 0.66909(11) 0.13874(7)
C8 C 0.68456(11) 0.56247(12) 0.16999(8)
H6 H 0.7207 0.5005 0.1490
C9 C 0.61962(12) 0.54585(15) 0.23145(8)
H7 H 0.6118 0.4727 0.2524
C10 C 0.56650(13) 0.63498(17) 0.26221(9)
H8 H 0.5211 0.6231 0.3038
C11 C 0.57906(13) 0.74117(17) 0.23278(10)
H9 H 0.5432 0.8028 0.2545
C12 C 0.64416(11) 0.75839(13) 0.17135(8)
H10 H 0.6525 0.8320 0.1513
C13 C 0.76778(9) 0.69357(10) 0.07236(7)
H11 H 0.7566 0.7751 0.0604
C14 C 0.73802(10) 0.63259(10) -0.00859(7)
C15 C 0.84356(10) 0.65303(10) -0.05218(7)
H12 H 0.8470 0.5958 -0.0951
C16 C 0.93247(10) 0.62835(11) 0.01455(7)
C17 C 0.89446(9) 0.67947(10) 0.09083(7)
C18 C 0.63606(10) 0.68760(11) -0.05319(7)
C19 C 0.55740(13) 0.61571(13) -0.10333(10)
H13 H 0.4975 0.6622 -0.1274
H14 H 0.5282 0.5577 -0.0702
H15 H 0.5949 0.5801 -0.1453
C20 C 0.79175(11) 0.78113(11) -0.16864(8)
C21 C 0.73652(15) 0.90586(14) -0.27246(9)
H16 H 0.7366 0.9863 -0.2843
H17 H 0.6613 0.8783 -0.2766
H18 H 0.7775 0.8657 -0.3105
C22 C 0.92598(10) 0.60335(11) 0.16210(8)
C23 C 0.94040(16) 0.59416(16) 0.30185(9)
H19 H 0.9364 0.6431 0.3480
H20 H 1.0125 0.5591 0.3045
H21 H 0.8844 0.5359 0.3018
C24 C 0.94757(10) 0.79413(10) 0.10790(7)
C25 C 1.11509(11) 0.88648(12) 0.13679(9)
H22 H 1.1932 0.8699 0.1459
H23 H 1.0908 0.9226 0.1840
H24 H 1.1019 0.9369 0.0911
C26 C 0.72391(10) 0.51076(10) -0.00233(7)
C27 C 0.71479(10) 0.41077(11) -0.00199(7)
C28 C 0.85285(11) 0.76998(11) -0.08769(7)
H25 H 0.8243 0.8257 -0.0516
H26 H 0.9307 0.7873 -0.0915
H27 H 1.0030(13) 0.6562(12) 0.0031(8)
H28 H 0.9360(11) 0.5480(13) 0.0232(8)
loop_
_geom_bond_atom_site_label_1
_geom_bond_atom_site_label_2
_geom_bond_site_symmetry_1
_geom_bond_site_symmetry_2
O1 C18 1_555 1_555
O2 C24 1_555 1_555
O3 C24 1_555 1_555
O4 C22 1_555 1_555
O5 C22 1_555 1_555
O6 C20 1_555 1_555
O7 C20 1_555 1_555
C1 C2 1_555 1_555
C2 H1 1_555 1_555
C3 C2 1_555 1_555
H2 C3 1_555 1_555
C4 C3 1_555 1_555
H3 C4 1_555 1_555
C5 C4 1_555 1_555
H4 C5 1_555 1_555
C6 C1 1_555 1_555
H5 C6 1_555 1_555
C7 C8 1_555 1_555
C8 H6 1_555 1_555
C9 C8 1_555 1_555
H7 C9 1_555 1_555
C10 C9 1_555 1_555
H8 C10 1_555 1_555
C11 C10 1_555 1_555
H9 C11 1_555 1_555
C12 C7 1_555 1_555
H10 C12 1_555 1_555
C13 C7 1_555 1_555
H11 C13 1_555 1_555
C14 C13 1_555 1_555
C15 C14 1_555 1_555
H12 C15 1_555 1_555
C16 C15 1_555 1_555
C17 C13 1_555 1_555
C18 C14 1_555 1_555
C19 C18 1_555 1_555
H13 C19 1_555 1_555
H14 C19 1_555 1_555
H15 C19 1_555 1_555
C20 C28 1_555 1_555
C21 O7 1_555 1_555
H16 C21 1_555 1_555
H17 C21 1_555 1_555
H18 C21 1_555 1_555
C22 C17 1_555 1_555
C23 O5 1_555 1_555
H19 C23 1_555 1_555
H20 C23 1_555 1_555
H21 C23 1_555 1_555
C24 C17 1_555 1_555
C25 O2 1_555 1_555
H22 C25 1_555 1_555
H23 C25 1_555 1_555
H24 C25 1_555 1_555
C26 C14 1_555 1_555
C27 C1 1_555 1_555
C28 C15 1_555 1_555
H25 C28 1_555 1_555
H26 C28 1_555 1_555
H27 C16 1_555 1_555
H28 C16 1_555 1_555
C5 C6 1_555 1_555
C11 C12 1_555 1_555
C16 C17 1_555 1_555
C26 C27 1_555 1_555

#END
