
#######################################################################
#
#                 Cambridge Crystallographic Data Centre
#                                CCDC 
#
#######################################################################
#
# If this CIF has been generated from an entry in the Cambridge 
# Structural Database, then it will include bibliographic, chemical, 
# crystal, experimental, refinement or atomic coordinate data resulting 
# from the CCDC's data processing and validation procedures.
#
#######################################################################

data_NUWNID
_chemical_formula_moiety         'C28 H28 O7'
_chemical_name_systematic        
'Dimethyl 3-acetyl-4-(2-methoxy-2-oxoethyl)-2-phenyl-3-(phenylethynyl)cyclopentane-1,1-dicarboxylate'
_symmetry_cell_setting           monoclinic
_symmetry_space_group_name_H-M   'C 2/c'
_symmetry_Int_Tables_number      15
_space_group_name_Hall           '-C 2yn'
loop_
_symmetry_equiv_pos_site_id
_symmetry_equiv_pos_as_xyz
1 x,y,z
2 -x,y,1/2-z
3 1/2+x,1/2+y,z
4 1/2-x,1/2+y,1/2-z
5 -x,-y,-z
6 x,-y,1/2+z
7 1/2-x,1/2-y,-z
8 1/2+x,1/2-y,1/2+z
_cell_length_a                   21.7950(8)
_cell_length_b                   10.5293(4)
_cell_length_c                   22.2598(8)
_cell_angle_alpha                90
_cell_angle_beta                 91.9870(10)
_cell_angle_gamma                90
_cell_volume                     5105.24
_exptl_crystal_colour            colorless
_exptl_crystal_description       block
_cell_formula_units_Z            8
loop_
_atom_site_label
_atom_site_type_symbol
_atom_site_fract_x
_atom_site_fract_y
_atom_site_fract_z
O1 O 0.11825(7) 0.92123(13) 0.14756(6)
O2 O 0.14914(7) 1.45465(14) 0.04546(6)
O3 O 0.10977(6) 1.49405(13) 0.13491(6)
O4 O 0.17070(7) 1.26973(16) 0.23400(6)
O5 O 0.22423(7) 1.42545(15) 0.19245(6)
O6 O 0.19034(7) 0.81956(15) 0.03183(7)
O7 O 0.26498(7) 0.82932(14) 0.10264(7)
C1 C 0.11006(7) 1.20037(16) 0.12523(7)
H1 H 0.1130 1.1609 0.1651
C2 C 0.16277(8) 1.30240(16) 0.12611(7)
C3 C 0.21567(8) 1.23850(17) 0.09266(8)
H2 H 0.2167 1.2686 0.0515
H3 H 0.2549 1.2563 0.1128
C4 C 0.20153(7) 1.09691(17) 0.09430(8)
H4 H 0.2094 1.0667 0.1355
C5 C 0.13127(7) 1.09426(16) 0.08106(7)
C6 C 0.11852(8) 1.12402(17) 0.01744(8)
C7 C 0.11346(8) 1.14861(19) -0.03466(8)
C8 C 0.10553(9) 1.1809(2) -0.09698(8)
C9 C 0.10331(14) 1.0864(3) -0.14031(11)
H5 H 0.1073 1.0017 -0.1291
C10 C 0.0952(2) 1.1183(6) -0.19980(14)
H6 H 0.0940 1.0546 -0.2287
C11 C 0.0889(2) 1.2397(7) -0.21694(16)
H7 H 0.0829 1.2596 -0.2574
C12 C 0.09126(18) 1.3345(5) -0.17469(16)
H8 H 0.0872 1.4188 -0.1867
C13 C 0.09962(12) 1.3055(3) -0.11434(11)
H9 H 0.1012 1.3699 -0.0857
C14 C 0.04404(8) 1.24411(17) 0.11837(8)
C15 C 0.01843(10) 1.2998(2) 0.06708(10)
H10 H 0.0425 1.3128 0.0339
C16 C -0.04251(12) 1.3362(3) 0.06460(13)
H11 H -0.0590 1.3736 0.0298
C17 C -0.07822(11) 1.3181(3) 0.11214(18)
H12 H -0.1191 1.3435 0.1103
C18 C -0.05433(14) 1.2631(4) 0.16221(18)
H13 H -0.0790 1.2500 0.1949
C19 C 0.00644(11) 1.2258(3) 0.16547(12)
H14 H 0.0221 1.1875 0.2004
C20 C 0.14145(8) 1.42563(18) 0.09645(8)
C21 C 0.08029(12) 1.6074(2) 0.11116(12)
H15 H 0.0589 1.6492 0.1425
H16 H 0.0517 1.5846 0.0792
H17 H 0.1108 1.6637 0.0960
C22 C 0.18463(8) 1.32937(18) 0.19074(8)
C23 C 0.24883(14) 1.4608(3) 0.25140(11)
H18 H 0.2767 1.5307 0.2476
H19 H 0.2703 1.3897 0.2692
H20 H 0.2158 1.4853 0.2764
C24 C 0.24038(8) 1.01783(19) 0.05236(9)
H21 H 0.2310 1.0425 0.0111
H22 H 0.2835 1.0352 0.0610
C25 C 0.22887(8) 0.8788(2) 0.05926(9)
C26 C 0.25607(14) 0.6971(2) 0.11636(13)
H23 H 0.2844 0.6721 0.1482
H24 H 0.2631 0.6469 0.0813
H25 H 0.2148 0.6841 0.1287
C27 C 0.10067(8) 0.97015(17) 0.10128(8)
C28 C 0.04850(10) 0.9191(2) 0.06400(11)
H26 H 0.0339 0.8422 0.0818
H27 H 0.0619 0.9015 0.0242
H28 H 0.0160 0.9805 0.0619
loop_
_geom_bond_atom_site_label_1
_geom_bond_atom_site_label_2
_geom_bond_site_symmetry_1
_geom_bond_site_symmetry_2
O1 C27 1_555 1_555
O2 C20 1_555 1_555
O3 C20 1_555 1_555
O4 C22 1_555 1_555
O5 C22 1_555 1_555
O6 C25 1_555 1_555
O7 C25 1_555 1_555
C1 H1 1_555 1_555
C2 C1 1_555 1_555
C3 C2 1_555 1_555
H2 C3 1_555 1_555
H3 C3 1_555 1_555
C4 C3 1_555 1_555
H4 C4 1_555 1_555
C5 C1 1_555 1_555
C6 C5 1_555 1_555
C7 C6 1_555 1_555
C8 C7 1_555 1_555
C9 C8 1_555 1_555
H5 C9 1_555 1_555
C10 C9 1_555 1_555
H6 C10 1_555 1_555
C11 C10 1_555 1_555
H7 C11 1_555 1_555
C12 C11 1_555 1_555
H8 C12 1_555 1_555
C13 C8 1_555 1_555
H9 C13 1_555 1_555
C14 C1 1_555 1_555
C15 C14 1_555 1_555
H10 C15 1_555 1_555
C16 C15 1_555 1_555
H11 C16 1_555 1_555
C17 C16 1_555 1_555
H12 C17 1_555 1_555
C18 C17 1_555 1_555
H13 C18 1_555 1_555
C19 C14 1_555 1_555
H14 C19 1_555 1_555
C20 C2 1_555 1_555
C21 O3 1_555 1_555
H15 C21 1_555 1_555
H16 C21 1_555 1_555
H17 C21 1_555 1_555
C22 C2 1_555 1_555
C23 O5 1_555 1_555
H18 C23 1_555 1_555
H19 C23 1_555 1_555
H20 C23 1_555 1_555
C24 C4 1_555 1_555
H21 C24 1_555 1_555
H22 C24 1_555 1_555
C25 C24 1_555 1_555
C26 O7 1_555 1_555
H23 C26 1_555 1_555
H24 C26 1_555 1_555
H25 C26 1_555 1_555
C27 C5 1_555 1_555
C28 C27 1_555 1_555
H26 C28 1_555 1_555
H27 C28 1_555 1_555
H28 C28 1_555 1_555
C4 C5 1_555 1_555
C12 C13 1_555 1_555
C18 C19 1_555 1_555

#END
