
#######################################################################
#
#                 Cambridge Crystallographic Data Centre
#                                CCDC 
#
#######################################################################
#
# If this CIF has been generated from an entry in the Cambridge 
# Structural Database, then it will include bibliographic, chemical, 
# crystal, experimental, refinement or atomic coordinate data resulting 
# from the CCDC's data processing and validation procedures.
#
#######################################################################

data_NUWPAX
_chemical_formula_moiety         'C33 H30 O6'
_chemical_name_systematic        
'Dimethyl 6,6a-dibenzoyl-5-methyl-1-phenyl-3,3a,4,6a-tetrahydropentalene-2,2(1H)-dicarboxylate'
_symmetry_cell_setting           monoclinic
_symmetry_space_group_name_H-M   'P 21/c'
_symmetry_Int_Tables_number      14
_space_group_name_Hall           '-P 2ybc'
loop_
_symmetry_equiv_pos_site_id
_symmetry_equiv_pos_as_xyz
1 x,y,z
2 -x,1/2+y,1/2-z
3 -x,-y,-z
4 x,1/2-y,1/2+z
_cell_length_a                   17.366(3)
_cell_length_b                   7.6976(15)
_cell_length_c                   23.806(4)
_cell_angle_alpha                90
_cell_angle_beta                 121.730(10)
_cell_angle_gamma                90
_cell_volume                     2706.66
_exptl_crystal_colour            colorless
_exptl_crystal_description       block
_cell_formula_units_Z            4
loop_
_atom_site_label
_atom_site_type_symbol
_atom_site_fract_x
_atom_site_fract_y
_atom_site_fract_z
C1 C 0.14706(10) 0.8075(2) 0.28281(7)
C2 C 0.07983(11) 0.8733(2) 0.29175(8)
H1 H 0.0587 0.9856 0.2776
C3 C 0.04344(12) 0.7757(3) 0.32130(9)
H2 H -0.0028 0.8217 0.3256
C4 C 0.07516(13) 0.6126(3) 0.34414(10)
H3 H 0.0518 0.5481 0.3649
C5 C 0.14212(14) 0.5445(3) 0.33620(11)
H4 H 0.1640 0.4334 0.3517
C6 C 0.17720(12) 0.6398(2) 0.30538(9)
H5 H 0.2216 0.5909 0.2997
C7 C 0.29048(11) 1.0481(3) 0.45774(8)
C8 C 0.25598(12) 0.8894(3) 0.46071(8)
H6 H 0.2471 0.8021 0.4309
C9 C 0.23446(14) 0.8608(4) 0.50875(11)
H7 H 0.2099 0.7551 0.5106
C10 C 0.24992(16) 0.9906(4) 0.55360(11)
H8 H 0.2356 0.9713 0.5856
C11 C 0.28568(17) 1.1463(4) 0.55176(11)
H9 H 0.2969 1.2316 0.5828
C12 C 0.30512(13) 1.1765(3) 0.50352(9)
H10 H 0.3283 1.2837 0.5015
C13 C 0.38199(10) 1.2424(2) 0.29115(8)
C14 C 0.46028(12) 1.2241(3) 0.35257(9)
H11 H 0.4597 1.1564 0.3847
C15 C 0.53926(13) 1.3058(3) 0.36639(10)
H12 H 0.5912 1.2945 0.4081
C16 C 0.54188(13) 1.4033(3) 0.31919(11)
H13 H 0.5953 1.4579 0.3288
C17 C 0.46539(14) 1.4198(3) 0.25786(10)
H14 H 0.4670 1.4844 0.2255
C18 C 0.38567(12) 1.3408(2) 0.24391(9)
H15 H 0.3339 1.3540 0.2022
C19 C 0.33851(10) 0.8504(2) 0.27665(8)
H16 H 0.3766 0.9155 0.2649
C20 C 0.26961(11) 0.7424(2) 0.21700(8)
H17 H 0.2654 0.6259 0.2307
H18 H 0.2874 0.7344 0.1847
C21 C 0.17863(10) 0.8372(2) 0.18767(7)
C22 C 0.18103(10) 0.9224(2) 0.24853(7)
H19 H 0.1432 1.0270 0.2330
C23 C 0.28289(10) 0.9816(2) 0.29207(7)
C24 C 0.32423(10) 0.9603(2) 0.36652(7)
C25 C 0.38512(10) 0.8322(2) 0.39190(8)
C26 C 0.39937(12) 0.7496(3) 0.34104(8)
H20 H 0.3824 0.6279 0.3355
H21 H 0.4624 0.7582 0.3540
C27 C 0.44012(13) 0.7690(3) 0.46164(9)
H22 H 0.4240 0.8331 0.4886
H23 H 0.5033 0.7855 0.4780
H24 H 0.4284 0.6477 0.4631
C28 C 0.30533(11) 1.0926(2) 0.40314(8)
C29 C 0.29110(10) 1.1695(2) 0.27246(7)
C30 C 0.09939(12) 0.7173(2) 0.14433(8)
C31 C -0.05683(13) 0.6677(3) 0.09611(10)
H25 H -0.1058 0.7066 0.1006
H26 H -0.0491 0.5447 0.1036
H27 H -0.0703 0.6932 0.0524
C32 C 0.17214(11) 0.9804(2) 0.14055(8)
C33 C 0.07599(17) 1.1925(3) 0.06445(11)
H28 H 0.0149 1.2336 0.0443
H29 H 0.0865 1.1526 0.0308
H30 H 0.1172 1.2854 0.0888
O1 O 0.23253(9) 1.0222(2) 0.13299(7)
O2 O 0.09020(8) 1.05195(17) 0.10853(6)
O3 O 0.10377(10) 0.6071(2) 0.11107(8)
O4 O 0.02509(8) 0.75546(17) 0.14367(6)
O5 O 0.22457(8) 1.25697(15) 0.23774(6)
O6 O 0.30302(11) 1.24473(18) 0.38794(7)
loop_
_geom_bond_atom_site_label_1
_geom_bond_atom_site_label_2
_geom_bond_site_symmetry_1
_geom_bond_site_symmetry_2
C1 C2 1_555 1_555
C2 H1 1_555 1_555
C3 C2 1_555 1_555
H2 C3 1_555 1_555
C4 C3 1_555 1_555
H3 C4 1_555 1_555
C5 C4 1_555 1_555
H4 C5 1_555 1_555
C6 C1 1_555 1_555
H5 C6 1_555 1_555
C7 C8 1_555 1_555
C8 H6 1_555 1_555
C9 C8 1_555 1_555
H7 C9 1_555 1_555
C10 C9 1_555 1_555
H8 C10 1_555 1_555
C11 C10 1_555 1_555
H9 C11 1_555 1_555
C12 C7 1_555 1_555
H10 C12 1_555 1_555
C13 C14 1_555 1_555
C14 H11 1_555 1_555
C15 C14 1_555 1_555
H12 C15 1_555 1_555
C16 C15 1_555 1_555
H13 C16 1_555 1_555
C17 C16 1_555 1_555
H14 C17 1_555 1_555
C18 C13 1_555 1_555
H15 C18 1_555 1_555
C19 H16 1_555 1_555
C20 C19 1_555 1_555
H17 C20 1_555 1_555
H18 C20 1_555 1_555
C21 C20 1_555 1_555
C22 C1 1_555 1_555
H19 C22 1_555 1_555
C23 C19 1_555 1_555
C24 C23 1_555 1_555
C25 C24 1_555 1_555
C26 C19 1_555 1_555
H20 C26 1_555 1_555
H21 C26 1_555 1_555
C27 C25 1_555 1_555
H22 C27 1_555 1_555
H23 C27 1_555 1_555
H24 C27 1_555 1_555
C28 C7 1_555 1_555
C29 C13 1_555 1_555
C30 C21 1_555 1_555
C31 H25 1_555 1_555
H26 C31 1_555 1_555
H27 C31 1_555 1_555
C32 C21 1_555 1_555
C33 H28 1_555 1_555
H29 C33 1_555 1_555
H30 C33 1_555 1_555
O1 C32 1_555 1_555
O2 C32 1_555 1_555
O3 C30 1_555 1_555
O4 C30 1_555 1_555
O5 C29 1_555 1_555
O6 C28 1_555 1_555
C5 C6 1_555 1_555
C11 C12 1_555 1_555
C17 C18 1_555 1_555
C21 C22 1_555 1_555
C22 C23 1_555 1_555
C23 C29 1_555 1_555
C24 C28 1_555 1_555
C25 C26 1_555 1_555
C31 O4 1_555 1_555
C33 O2 1_555 1_555

#END
