
#######################################################################
#
#                 Cambridge Crystallographic Data Centre
#                                CCDC 
#
#######################################################################
#
# If this CIF has been generated from an entry in the Cambridge 
# Structural Database, then it will include bibliographic, chemical, 
# crystal, experimental, refinement or atomic coordinate data resulting 
# from the CCDC's data processing and validation procedures.
#
#######################################################################

data_NUWPUR
_chemical_formula_moiety         'C22 H21 N1 O4 S1'
_chemical_name_systematic        
'Methyl 5-(1-naphthyl)-4-(phenylsulfonyl)prolinate'
_symmetry_cell_setting           monoclinic
_symmetry_space_group_name_H-M   'P 21/c'
_symmetry_Int_Tables_number      14
_space_group_name_Hall           '-P 2ybc'
loop_
_symmetry_equiv_pos_site_id
_symmetry_equiv_pos_as_xyz
1 x,y,z
2 -x,1/2+y,1/2-z
3 -x,-y,-z
4 x,1/2-y,1/2+z
_cell_length_a                   12.3249(14)
_cell_length_b                   12.7741(15)
_cell_length_c                   12.7222(15)
_cell_angle_alpha                90
_cell_angle_beta                 102.925(2)
_cell_angle_gamma                90
_cell_volume                     1952.23
_cell_formula_units_Z            4
loop_
_atom_site_label
_atom_site_type_symbol
_atom_site_fract_x
_atom_site_fract_y
_atom_site_fract_z
C1 C 0.18518(13) 0.48167(12) 0.59262(13)
C2 C 0.21392(13) 0.53240(12) 0.69547(14)
C3 C 0.17016(15) 0.50288(15) 0.78448(15)
H1 H 0.1195 0.4479 0.7769
C4 C 0.20019(18) 0.55282(17) 0.88157(17)
H2 H 0.1698 0.5317 0.9388
C5 C 0.2759(2) 0.63500(18) 0.89537(19)
H3 H 0.2962 0.6686 0.9617
C6 C 0.31988(19) 0.66607(16) 0.8126(2)
H4 H 0.3702 0.7214 0.8229
C7 C 0.29145(15) 0.61652(14) 0.70983(16)
C8 C 0.33654(17) 0.64779(16) 0.62291(19)
H5 H 0.3874 0.7026 0.6320
C9 C 0.30728(18) 0.59941(16) 0.52590(18)
H6 H 0.3379 0.6214 0.4692
C10 C 0.23075(15) 0.51607(15) 0.51059(15)
H7 H 0.2109 0.4839 0.4434
C11 C 0.10347(13) 0.39197(13) 0.57733(13)
H8 H 0.0431 0.4143 0.6109
C12 C -0.01469(14) 0.27444(14) 0.47509(14)
H9 H -0.0834 0.2961 0.4956
C13 C 0.05538(15) 0.20763(15) 0.56759(14)
H10 H 0.0094 0.1807 0.6142
H11 H 0.0902 0.1493 0.5391
C14 C 0.14369(13) 0.28443(13) 0.62913(13)
H12 H 0.1419 0.2850 0.7057
C15 C -0.04457(14) 0.21418(14) 0.37175(14)
C16 C -0.1547(2) 0.07671(19) 0.28220(18)
H13 H -0.1819 0.1196 0.2199
H14 H -0.2125 0.0301 0.2925
H15 H -0.0920 0.0367 0.2717
C17 C 0.37642(13) 0.32158(13) 0.70071(14)
C18 C 0.44645(14) 0.38629(15) 0.65872(16)
H16 H 0.4423 0.3886 0.5849
C19 C 0.52232(15) 0.44719(16) 0.72863(19)
H17 H 0.5700 0.4909 0.7017
C20 C 0.52836(16) 0.44398(17) 0.83753(19)
H18 H 0.5796 0.4858 0.8838
C21 C 0.45898(17) 0.37918(17) 0.87840(16)
H19 H 0.4635 0.3772 0.9523
C22 C 0.38287(15) 0.31721(15) 0.81047(14)
H20 H 0.3363 0.2728 0.8381
N1 N 0.05091(12) 0.36723(11) 0.46541(11)
H21 H 0.0572 0.3996 0.4078
O1 O -0.00391(13) 0.22600(13) 0.29595(12)
O2 O -0.12096(11) 0.14254(12) 0.37613(10)
O3 O 0.29214(13) 0.13742(10) 0.65365(14)
O4 O 0.28621(12) 0.26202(13) 0.50470(11)
S1 S 0.27788(4) 0.24288(3) 0.61371(4)
loop_
_geom_bond_atom_site_label_1
_geom_bond_atom_site_label_2
_geom_bond_site_symmetry_1
_geom_bond_site_symmetry_2
C1 C2 1_555 1_555
C2 C3 1_555 1_555
C3 H1 1_555 1_555
C4 C3 1_555 1_555
H2 C4 1_555 1_555
C5 C4 1_555 1_555
H3 C5 1_555 1_555
C6 C5 1_555 1_555
H4 C6 1_555 1_555
C7 C2 1_555 1_555
C8 C7 1_555 1_555
H5 C8 1_555 1_555
C9 C8 1_555 1_555
H6 C9 1_555 1_555
C10 C1 1_555 1_555
H7 C10 1_555 1_555
C11 C1 1_555 1_555
H8 C11 1_555 1_555
C12 H9 1_555 1_555
C13 C12 1_555 1_555
H10 C13 1_555 1_555
H11 C13 1_555 1_555
C14 C11 1_555 1_555
H12 C14 1_555 1_555
C15 C12 1_555 1_555
C16 H13 1_555 1_555
H14 C16 1_555 1_555
H15 C16 1_555 1_555
C17 C18 1_555 1_555
C18 H16 1_555 1_555
C19 C18 1_555 1_555
H17 C19 1_555 1_555
C20 C19 1_555 1_555
H18 C20 1_555 1_555
C21 C20 1_555 1_555
H19 C21 1_555 1_555
C22 C17 1_555 1_555
H20 C22 1_555 1_555
N1 C11 1_555 1_555
H21 N1 1_555 1_555
O1 C15 1_555 1_555
O2 C15 1_555 1_555
O3 S1 1_555 1_555
O4 S1 1_555 1_555
S1 C14 1_555 1_555
C6 C7 1_555 1_555
C9 C10 1_555 1_555
C12 N1 1_555 1_555
C13 C14 1_555 1_555
C16 O2 1_555 1_555
C17 S1 1_555 1_555
C21 C22 1_555 1_555

#END
