
#######################################################################
#
#                 Cambridge Crystallographic Data Centre
#                                CCDC 
#
#######################################################################
#
# If this CIF has been generated from an entry in the Cambridge 
# Structural Database, then it will include bibliographic, chemical, 
# crystal, experimental, refinement or atomic coordinate data resulting 
# from the CCDC's data processing and validation procedures.
#
#######################################################################

data_NUXFIX
_chemical_formula_moiety         'C24 H22 Cl1 N1 O3'
_chemical_name_systematic        
'methyl 5-benzoyl-9-(4-chlorophenyl)-8-azabicyclo[4.3.1]deca-2,4-diene-7-carboxylate'
_symmetry_cell_setting           triclinic
_symmetry_space_group_name_H-M   'P 1'
_symmetry_Int_Tables_number      1
_space_group_name_Hall           'P 1'
loop_
_symmetry_equiv_pos_site_id
_symmetry_equiv_pos_as_xyz
1 x,y,z
_cell_length_a                   6.3819(13)
_cell_length_b                   9.1034(18)
_cell_length_c                   9.7642(19)
_cell_angle_alpha                108.882(3)
_cell_angle_beta                 103.887(3)
_cell_angle_gamma                95.759(3)
_cell_volume                     511.176
_cell_formula_units_Z            1
loop_
_atom_site_label
_atom_site_type_symbol
_atom_site_fract_x
_atom_site_fract_y
_atom_site_fract_z
C1 C 0.8452(4) -0.4937(3) 0.7327(3)
C2 C 0.6886(5) -0.4851(3) 0.6136(4)
H1 H 0.6826 -0.5443 0.5147
C3 C 0.5392(6) -0.3870(3) 0.6420(3)
H2 H 0.4333 -0.3802 0.5614
C4 C 0.5453(4) -0.2988(2) 0.7890(3)
C5 C 0.7025(4) -0.3119(3) 0.9052(3)
H3 H 0.7087 -0.2541 1.0045
C6 C 0.8535(5) -0.4101(3) 0.8776(3)
H4 H 0.9589 -0.4183 0.9576
C7 C 0.3711(4) -0.2002(3) 0.8192(3)
H5 H 0.2388 -0.2752 0.8042
C8 C 0.3035(4) -0.1136(3) 0.7078(3)
H6 H 0.2372 -0.1954 0.6073
C9 C 0.1238(5) -0.0224(3) 0.7477(3)
H7 H 0.0956 0.0419 0.6856
H8 H -0.0108 -0.0979 0.7227
C10 C 0.1806(4) 0.0839(3) 0.9129(3)
H9 H 0.0452 0.1166 0.9314
C11 C 0.2531(5) -0.0173(3) 1.0104(3)
H10 H 0.1265 -0.1011 0.9867
N1 N 0.4315(4) -0.0942(2) 0.9759(2)
H11 H 0.5576 -0.0790 1.0402
C12 C 0.4951(5) -0.0143(3) 0.6979(3)
H12 H 0.5663 -0.0650 0.6286
C13 C 0.5763(5) 0.1386(3) 0.7768(3)
H13 H 0.6942 0.1809 0.7518
C14 C 0.3500(4) 0.2324(3) 0.9582(3)
C15 C 0.3079(6) 0.0791(3) 1.1755(4)
C16 C 0.1398(12) 0.1871(6) 1.3669(7)
H14 H 0.2358 0.1560 1.4401
H15 H -0.0033 0.1830 1.3825
H16 H 0.1985 0.2930 1.3781
C17 C 0.3189(4) 0.3719(3) 1.0772(3)
C18 C 0.5061(4) 0.5079(3) 1.1707(3)
C19 C 0.7213(5) 0.4895(3) 1.2196(4)
H17 H 0.7540 0.3885 1.1936
C20 C 0.8863(6) 0.6183(4) 1.3059(4)
H18 H 1.0298 0.6043 1.3377
C21 C 0.8401(7) 0.7686(4) 1.3456(4)
H19 H 0.9526 0.8558 1.4031
C22 C 0.6284(6) 0.7892(3) 1.3003(4)
H20 H 0.5971 0.8905 1.3273
C23 C 0.4612(5) 0.6598(3) 1.2144(3)
H21 H 0.3173 0.6744 1.1856
Cl1 Cl 1.03764(11) -0.61349(8) 0.69854(9)
C24 C 0.5109(4) 0.2500(3) 0.8953(3)
H22 H 0.5957 0.3516 0.9346
O1 O 0.4856(5) 0.1485(3) 1.2565(3)
O2 O 0.1224(5) 0.0812(3) 1.2174(3)
O3 O 0.1410(4) 0.3777(2) 1.1002(3)
loop_
_geom_bond_atom_site_label_1
_geom_bond_atom_site_label_2
_geom_bond_site_symmetry_1
_geom_bond_site_symmetry_2
C1 C2 1_555 1_555
C2 H1 1_555 1_555
C3 C2 1_555 1_555
H2 C3 1_555 1_555
C4 C3 1_555 1_555
C5 C4 1_555 1_555
H3 C5 1_555 1_555
C6 C1 1_555 1_555
H4 C6 1_555 1_555
C7 C4 1_555 1_555
H5 C7 1_555 1_555
C8 C7 1_555 1_555
H6 C8 1_555 1_555
C9 C8 1_555 1_555
H7 C9 1_555 1_555
H8 C9 1_555 1_555
C10 C9 1_555 1_555
H9 C10 1_555 1_555
C11 C10 1_555 1_555
H10 C11 1_555 1_555
N1 C7 1_555 1_555
H11 N1 1_555 1_555
C12 C8 1_555 1_555
H12 C12 1_555 1_555
C13 C12 1_555 1_555
H13 C13 1_555 1_555
C14 C10 1_555 1_555
C15 C11 1_555 1_555
C16 H14 1_555 1_555
H15 C16 1_555 1_555
H16 C16 1_555 1_555
C17 C14 1_555 1_555
C18 C17 1_555 1_555
C19 C18 1_555 1_555
H17 C19 1_555 1_555
C20 C19 1_555 1_555
H18 C20 1_555 1_555
C21 C20 1_555 1_555
H19 C21 1_555 1_555
C22 C21 1_555 1_555
H20 C22 1_555 1_555
C23 C18 1_555 1_555
H21 C23 1_555 1_555
Cl1 C1 1_555 1_555
C24 C13 1_555 1_555
H22 C24 1_555 1_555
O1 C15 1_555 1_555
O2 C15 1_555 1_555
O3 C17 1_555 1_555
C5 C6 1_555 1_555
C11 N1 1_555 1_555
C14 C24 1_555 1_555
C16 O2 1_555 1_555
C22 C23 1_555 1_555

#END
