
#######################################################################
#
#                 Cambridge Crystallographic Data Centre
#                                CCDC 
#
#######################################################################
#
# If this CIF has been generated from an entry in the Cambridge 
# Structural Database, then it will include bibliographic, chemical, 
# crystal, experimental, refinement or atomic coordinate data resulting 
# from the CCDC's data processing and validation procedures.
#
#######################################################################

data_NUXHAR
_chemical_formula_moiety         'C14 H21 N1 O2 S1'
_chemical_name_systematic        
N-(2,2-dimethylcyclopentyl)-4-methylbenzenesulfonamide
_symmetry_cell_setting           triclinic
_symmetry_space_group_name_H-M   'P 1'
_symmetry_Int_Tables_number      1
_space_group_name_Hall           'P 1'
loop_
_symmetry_equiv_pos_site_id
_symmetry_equiv_pos_as_xyz
1 x,y,z
_cell_length_a                   7.1607(8)
_cell_length_b                   10.3859(11)
_cell_length_c                   11.0559(12)
_cell_angle_alpha                109.592(2)
_cell_angle_beta                 102.758(2)
_cell_angle_gamma                94.887(2)
_cell_volume                     744.071
_exptl_crystal_colour            colorless
_exptl_crystal_description       prismatic
_cell_formula_units_Z            2
loop_
_atom_site_label
_atom_site_type_symbol
_atom_site_fract_x
_atom_site_fract_y
_atom_site_fract_z
S1 S 0.92005(12) 0.56598(9) 0.64067(8)
N1 N 0.9362(6) 0.7221(4) 0.7429(4)
O1 O 0.8086(5) 0.5621(3) 0.5131(3)
O2 O 1.1093(5) 0.5319(4) 0.6530(4)
C1 C 1.0697(6) 0.7710(5) 0.8772(4)
H1 H 1.0861 0.6900 0.9025
C2 C 1.2697(9) 0.8424(9) 0.8885(7)
H2 H 1.3522 0.7747 0.8613
H3 H 1.2609 0.8981 0.8331
C3 C 1.3496(10) 0.9328(10) 1.0334(7)
H4 H 1.3937 1.0274 1.0428
H5 H 1.4584 0.8984 1.0746
C4 C 1.1850(8) 0.9269(7) 1.0977(5)
H6 H 1.1819 1.0182 1.1593
H7 H 1.1998 0.8640 1.1458
C5 C 1.0002(7) 0.8747(5) 0.9836(4)
C6 C 0.8372(11) 0.8058(11) 1.0159(8)
H8 H 0.7203 0.7870 0.9460
H9 H 0.8190 0.8657 1.0984
H10 H 0.8673 0.7203 1.0241
C7 C 0.9419(13) 0.9957(7) 0.9408(7)
H11 H 0.8142 0.9674 0.8803
H12 H 1.0333 1.0211 0.8975
H13 H 0.9419 1.0739 1.0179
C8 C 0.7801(7) 0.4523(4) 0.6893(4)
C9 C 0.8669(7) 0.3612(5) 0.7414(5)
H14 H 0.9995 0.3607 0.7529
C10 C 0.7579(8) 0.2733(5) 0.7754(5)
H15 H 0.8178 0.2122 0.8096
C11 C 0.5615(9) 0.2706(5) 0.7614(5)
C12 C 0.4794(8) 0.3645(6) 0.7122(6)
H16 H 0.3479 0.3672 0.7041
C13 C 0.5848(7) 0.4542(5) 0.6747(5)
H17 H 0.5252 0.5150 0.6400
C14 C 0.4414(11) 0.1734(7) 0.7992(8)
H18 H 0.4032 0.0848 0.7276
H19 H 0.3276 0.2103 0.8167
H20 H 0.5161 0.1626 0.8777
H21 H 0.844(5) 0.761(5) 0.727(5)
S2 S 0.46694(11) 0.81571(8) 0.52787(8)
N2 N 0.4581(5) 0.6643(4) 0.4223(3)
O3 O 0.2763(5) 0.8478(4) 0.5094(3)
O4 O 0.5669(5) 0.8156(3) 0.6548(3)
C15 C 0.3873(6) 0.6311(4) 0.2800(4)
H22 H 0.3082 0.7005 0.2675
C16 C 0.5454(8) 0.6351(6) 0.2091(5)
H23 H 0.6598 0.6063 0.2508
H24 H 0.5820 0.7280 0.2109
C17 C 0.4561(12) 0.5339(7) 0.0663(6)
H25 H 0.4455 0.5824 0.0045
H26 H 0.5355 0.4631 0.0420
C18 C 0.2554(9) 0.4687(7) 0.0633(6)
H27 H 0.1562 0.5136 0.0267
H28 H 0.2279 0.3707 0.0087
C19 C 0.2585(7) 0.4890(4) 0.2063(5)
C20 C 0.0573(9) 0.4910(8) 0.2304(8)
H29 H 0.0680 0.5095 0.3230
H30 H -0.0239 0.4026 0.1778
H31 H 0.0010 0.5623 0.2058
C21 C 0.3535(9) 0.3786(5) 0.2481(6)
H32 H 0.3557 0.3943 0.3391
H33 H 0.4841 0.3839 0.2394
H34 H 0.2803 0.2882 0.1921
C22 C 0.6110(6) 0.9329(5) 0.4880(4)
C23 C 0.5249(7) 1.0249(5) 0.4387(5)
H35 H 0.3934 1.0280 0.4305
C24 C 0.6371(9) 1.1137(5) 0.4010(5)
H36 H 0.5803 1.1760 0.3671
C25 C 0.8336(9) 1.1091(5) 0.4139(5)
C26 C 0.9155(8) 1.0172(5) 0.4672(6)
H37 H 1.0478 1.0153 0.4793
C27 C 0.8048(7) 0.9297(5) 0.5018(5)
H38 H 0.8615 0.8671 0.5353
C28 C 0.9529(11) 1.2078(6) 0.3732(7)
H39 H 0.9830 1.1569 0.2918
H40 H 1.0714 1.2514 0.4420
H41 H 0.8797 1.2775 0.3600
H42 H 0.557(4) 0.639(4) 0.450(4)
loop_
_geom_bond_atom_site_label_1
_geom_bond_atom_site_label_2
_geom_bond_site_symmetry_1
_geom_bond_site_symmetry_2
S1 N1 1_555 1_555
N1 C1 1_555 1_555
O1 S1 1_555 1_555
O2 S1 1_555 1_555
C1 H1 1_555 1_555
C2 C1 1_555 1_555
H2 C2 1_555 1_555
H3 C2 1_555 1_555
C3 C2 1_555 1_555
H4 C3 1_555 1_555
H5 C3 1_555 1_555
C4 C3 1_555 1_555
H6 C4 1_555 1_555
H7 C4 1_555 1_555
C5 C1 1_555 1_555
C6 C5 1_555 1_555
H8 C6 1_555 1_555
H9 C6 1_555 1_555
H10 C6 1_555 1_555
C7 C5 1_555 1_555
H11 C7 1_555 1_555
H12 C7 1_555 1_555
H13 C7 1_555 1_555
C8 S1 1_555 1_555
C9 C8 1_555 1_555
H14 C9 1_555 1_555
C10 C9 1_555 1_555
H15 C10 1_555 1_555
C11 C10 1_555 1_555
C12 C11 1_555 1_555
H16 C12 1_555 1_555
C13 C8 1_555 1_555
H17 C13 1_555 1_555
C14 C11 1_555 1_555
H18 C14 1_555 1_555
H19 C14 1_555 1_555
H20 C14 1_555 1_555
H21 N1 1_555 1_555
S2 N2 1_555 1_555
N2 C15 1_555 1_555
O3 S2 1_555 1_555
O4 S2 1_555 1_555
C15 H22 1_555 1_555
C16 C15 1_555 1_555
H23 C16 1_555 1_555
H24 C16 1_555 1_555
C17 C16 1_555 1_555
H25 C17 1_555 1_555
H26 C17 1_555 1_555
C18 C17 1_555 1_555
H27 C18 1_555 1_555
H28 C18 1_555 1_555
C19 C15 1_555 1_555
C20 C19 1_555 1_555
H29 C20 1_555 1_555
H30 C20 1_555 1_555
H31 C20 1_555 1_555
C21 C19 1_555 1_555
H32 C21 1_555 1_555
H33 C21 1_555 1_555
H34 C21 1_555 1_555
C22 S2 1_555 1_555
C23 C22 1_555 1_555
H35 C23 1_555 1_555
C24 C23 1_555 1_555
H36 C24 1_555 1_555
C25 C24 1_555 1_555
C26 C25 1_555 1_555
H37 C26 1_555 1_555
C27 C22 1_555 1_555
H38 C27 1_555 1_555
C28 C25 1_555 1_555
H39 C28 1_555 1_555
H40 C28 1_555 1_555
H41 C28 1_555 1_555
H42 N2 1_555 1_555
C4 C5 1_555 1_555
C12 C13 1_555 1_555
C18 C19 1_555 1_555
C26 C27 1_555 1_555

#END
