
#######################################################################
#
#                 Cambridge Crystallographic Data Centre
#                                CCDC 
#
#######################################################################
#
# If this CIF has been generated from an entry in the Cambridge 
# Structural Database, then it will include bibliographic, chemical, 
# crystal, experimental, refinement or atomic coordinate data resulting 
# from the CCDC's data processing and validation procedures.
#
#######################################################################

data_NUXHOF
_chemical_formula_moiety         'C60 H42 N6 O12,0.5(C2 H4 Cl2)'
_chemical_name_systematic        
'1,3,4(2,7)-tris(1,3,6,8-tetraoxo-1,3,6,8-tetrahydrobenzo[lmn][3,8]phenanthroline-2,7-diyl)-2,4,6(1,2)-tris(cyclohexane)cyclohexaphane 1,2-dichloroethane unknown solvate'
_symmetry_cell_setting           monoclinic
_symmetry_space_group_name_H-M   'C 2'
_symmetry_Int_Tables_number      5
_space_group_name_Hall           'C 2y'
loop_
_symmetry_equiv_pos_site_id
_symmetry_equiv_pos_as_xyz
1 x,y,z
2 -x,y,-z
3 1/2+x,1/2+y,z
4 1/2-x,1/2+y,-z
_cell_length_a                   46.2752(15)
_cell_length_b                   16.1173(5)
_cell_length_c                   40.4255(14)
_cell_angle_alpha                90
_cell_angle_beta                 90.025(2)
_cell_angle_gamma                90
_cell_volume                     30150.6
_exptl_crystal_colour            colorless
_exptl_crystal_description       block
_cell_formula_units_Z            16
loop_
_atom_site_label
_atom_site_type_symbol
_atom_site_fract_x
_atom_site_fract_y
_atom_site_fract_z
O1 O 0.70430(14) 0.8468(5) 0.61973(14)
O2 O 0.75911(12) 0.4538(4) 0.57780(14)
O3 O 0.83644(12) 0.4972(4) 0.64514(15)
O4 O 0.77526(11) 0.8795(4) 0.69302(14)
O5 O 0.81057(12) 0.4481(4) 0.52650(14)
O6 O 0.83636(16) 0.7862(6) 0.4232(2)
O7 O 0.91592(13) 0.8548(4) 0.48621(16)
O8 O 0.88794(14) 0.5191(4) 0.58852(16)
O9 O 0.82276(12) 0.9719(5) 0.44097(15)
O10 O 0.71861(13) 0.9756(4) 0.56608(15)
O11 O 0.78777(12) 1.0324(4) 0.64082(14)
O12 O 0.89212(12) 1.0198(5) 0.51536(15)
N1 N 0.74305(14) 0.8614(5) 0.65250(16)
N2 N 0.79818(14) 0.4759(4) 0.60750(16)
N3 N 0.84762(13) 0.4782(5) 0.56013(16)
N4 N 0.87573(15) 0.8255(6) 0.45389(19)
N5 N 0.85889(14) 0.9897(5) 0.47921(18)
N6 N 0.75206(15) 1.0010(5) 0.60386(18)
C1 C 0.72923(19) 1.0049(6) 0.6302(2)
H1 H 0.7116 0.9823 0.6192
C2 C 0.7207(2) 1.1014(7) 0.6388(3)
H2 H 0.7378 1.1308 0.6477
H3 H 0.7145 1.1303 0.6184
C3 C 0.6969(2) 1.1026(7) 0.6635(3)
H4 H 0.6937 1.1608 0.6705
H5 H 0.6790 1.0835 0.6525
C4 C 0.7013(2) 1.0522(7) 0.6932(3)
H6 H 0.6841 1.0559 0.7077
H7 H 0.7183 1.0731 0.7057
C5 C 0.70695(19) 0.9515(7) 0.6820(2)
H8 H 0.7096 0.9165 0.7018
H9 H 0.6901 0.9303 0.6694
C6 C 0.7333(2) 0.9488(7) 0.6610(2)
H10 H 0.7491 0.9743 0.6744
C7 C 0.72678(17) 0.8228(6) 0.6323(2)
C8 C 0.73652(18) 0.7381(6) 0.6225(2)
C9 C 0.72213(16) 0.6855(6) 0.5990(2)
H11 H 0.7042 0.7022 0.5896
C10 C 0.73492(16) 0.6071(6) 0.5897(2)
H12 H 0.7257 0.5735 0.5736
C11 C 0.76074(16) 0.5798(6) 0.60413(19)
C12 C 0.77117(18) 0.5029(6) 0.5964(2)
C13 C 0.81297(17) 0.5197(6) 0.6348(2)
C14 C 0.80006(16) 0.6041(6) 0.64462(19)
C15 C 0.81118(16) 0.6426(6) 0.6698(2)
H13 H 0.8257 0.6162 0.6827
C16 C 0.80111(18) 0.7301(6) 0.6789(2)
H14 H 0.8117 0.7657 0.6932
C17 C 0.77573(18) 0.7521(6) 0.6646(2)
C18 C 0.76334(19) 0.8362(6) 0.6711(2)
C19 C 0.76235(16) 0.7068(6) 0.6391(2)
C20 C 0.77334(16) 0.6271(6) 0.6276(2)
C21 C 0.81081(18) 0.4001(6) 0.5965(2)
H15 H 0.7986 0.3803 0.5777
C22 C 0.81148(17) 0.3318(6) 0.6208(2)
H16 H 0.7921 0.3274 0.6311
H17 H 0.8253 0.3469 0.6386
C23 C 0.8200(2) 0.2454(6) 0.6073(2)
H18 H 0.8211 0.2050 0.6256
H19 H 0.8052 0.2259 0.5914
C24 C 0.8468(2) 0.2514(6) 0.5915(2)
H20 H 0.8502 0.1992 0.5792
H21 H 0.8619 0.2557 0.6087
C25 C 0.85088(18) 0.3345(6) 0.5641(2)
H22 H 0.8712 0.3393 0.5567
H23 H 0.8384 0.3270 0.5444
C26 C 0.84214(19) 0.4082(6) 0.5828(2)
H24 H 0.8555 0.4140 0.6021
C27 C 0.83007(17) 0.4973(6) 0.5329(2)
C28 C 0.83687(18) 0.5700(7) 0.5118(2)
C29 C 0.8197(2) 0.5797(7) 0.4843(2)
H25 H 0.8051 0.5407 0.4788
C30 C 0.8248(2) 0.6499(7) 0.4648(3)
H26 H 0.8120 0.6639 0.4473
C31 C 0.8468(2) 0.6947(7) 0.4708(2)
C32 C 0.8530(2) 0.7749(7) 0.4473(2)
C33 C 0.89737(19) 0.8023(6) 0.4806(2)
C34 C 0.88983(17) 0.7390(6) 0.5018(2)
C35 C 0.90787(19) 0.7134(6) 0.5299(2)
H27 H 0.9247 0.7452 0.5343
C36 C 0.90231(19) 0.6467(7) 0.5507(3)
H28 H 0.9142 0.6344 0.5692
C37 C 0.87742(17) 0.5971(6) 0.5424(2)
C38 C 0.87166(18) 0.5331(6) 0.5650(2)
C39 C 0.85991(18) 0.6193(7) 0.5184(2)
C40 C 0.86549(17) 0.6807(7) 0.4972(2)
C41 C 0.87923(16) 0.9013(6) 0.4352(2)
H29 H 0.8615 0.9033 0.4210
C42 C 0.90471(18) 0.8887(7) 0.4091(2)
H30 H 0.9234 0.8829 0.4209
H31 H 0.9013 0.8377 0.3961
C43 C 0.9056(2) 0.9612(8) 0.3870(3)
H32 H 0.8892 0.9568 0.3715
H33 H 0.9235 0.9574 0.3737
C44 C 0.9047(2) 1.0481(7) 0.4027(3)
H34 H 0.9241 1.0614 0.4117
H35 H 0.9003 1.0893 0.3853
C45 C 0.88515(19) 1.0553(7) 0.4270(2)
H36 H 0.8665 1.0688 0.4162
H37 H 0.8907 1.1047 0.4401
C46 C 0.87862(17) 0.9819(6) 0.4532(2)
H38 H 0.8973 0.9795 0.4655
C47 C 0.83003(17) 0.9778(6) 0.4704(2)
C48 C 0.80980(18) 0.9800(6) 0.4948(2)
C49 C 0.77526(17) 0.9618(5) 0.4904(2)
H39 H 0.7686 0.9503 0.4687
C50 C 0.75675(17) 0.9617(5) 0.5129(2)
H40 H 0.7375 0.9450 0.5081
C51 C 0.76360(17) 0.9849(6) 0.5439(2)
C52 C 0.74404(16) 0.9845(5) 0.5702(2)
C53 C 0.78166(17) 1.0208(6) 0.61153(19)
C54 C 0.80373(17) 1.0209(5) 0.5873(2)
C55 C 0.83013(16) 1.0397(5) 0.5936(2)
H41 H 0.8351 1.0555 0.6155
C56 C 0.85100(17) 1.0379(6) 0.5705(2)
H42 H 0.8703 1.0502 0.5769
C57 C 0.84521(16) 1.0176(6) 0.5356(2)
C58 C 0.86682(17) 1.0104(6) 0.5083(2)
C59 C 0.81448(17) 0.9949(6) 0.5280(2)
C60 C 0.79471(16) 1.0047(6) 0.5523(2)
O13 O 0.86286(11) 0.6271(4) 0.73555(14)
O14 O 0.95554(10) 0.5967(4) 0.59952(14)
O15 O 1.03334(13) 0.6403(5) 0.66881(16)
O16 O 0.94026(12) 0.6522(4) 0.80503(14)
O17 O 0.98138(14) 0.7474(4) 0.56238(16)
O18 O 0.91182(12) 1.1242(4) 0.59220(16)
O19 O 0.97767(12) 1.1870(4) 0.67388(15)
O20 O 1.04902(13) 0.8112(4) 0.64295(15)
O21 O 0.87261(12) 1.1421(4) 0.65679(15)
O22 O 0.82854(12) 0.7879(4) 0.74748(13)
O23 O 0.90154(13) 0.8284(4) 0.81740(16)
O24 O 0.93902(11) 1.1984(4) 0.73795(16)
N7 N 0.90036(12) 0.6477(4) 0.77140(16)
N8 N 0.99365(13) 0.6195(4) 0.63266(16)
N9 N 1.01586(14) 0.7780(4) 0.60260(17)
N10 N 0.94264(15) 1.1532(5) 0.6342(2)
N11 N 0.90727(14) 1.1692(4) 0.69588(17)
N12 N 0.86592(14) 0.8067(4) 0.78263(17)
C61 C 0.85862(17) 0.7271(5) 0.7956(2)
H43 H 0.8444 0.7036 0.7795
C62 C 0.84194(19) 0.7387(6) 0.8271(2)
H44 H 0.8255 0.7765 0.8226
H45 H 0.8547 0.7667 0.8434
C63 C 0.82868(17) 0.6507(6) 0.8449(2)
H46 H 0.8245 0.6600 0.8686
H47 H 0.8107 0.6328 0.8337
C64 C 0.85203(18) 0.5866(6) 0.8408(2)
H48 H 0.8651 0.5934 0.8600
H49 H 0.8425 0.5321 0.8436
C65 C 0.87034(17) 0.5788(5) 0.8123(2)
H50 H 0.8591 0.5524 0.7943
H51 H 0.8866 0.5414 0.8179
C66 C 0.88228(18) 0.6574(5) 0.7999(2)
H52 H 0.8954 0.6779 0.8178
C67 C 0.88957(14) 0.6300(5) 0.74034(19)
C68 C 0.90859(14) 0.6216(4) 0.71176(19)
C69 C 0.89908(16) 0.6105(5) 0.6805(2)
H53 H 0.8788 0.6077 0.6768
C70 C 0.91629(17) 0.6033(5) 0.6551(2)
H54 H 0.9079 0.5912 0.6342
C71 C 0.94467(15) 0.6117(5) 0.65657(19)
C72 C 0.96646(15) 0.6046(5) 0.62699(18)
C73 C 1.00714(16) 0.6248(6) 0.6646(2)
C74 C 0.98875(17) 0.6335(5) 0.6904(2)
C75 C 0.99639(17) 0.6403(6) 0.7250(2)
H55 H 1.0164 0.6458 0.7296
C76 C 0.97783(17) 0.6400(6) 0.7531(2)
H56 H 0.9855 0.6365 0.7748
C77 C 0.95106(17) 0.6444(5) 0.7484(2)
C78 C 0.93046(16) 0.6459(5) 0.77730(18)
C79 C 0.93792(15) 0.6213(5) 0.7172(2)
C80 C 0.95628(16) 0.6184(5) 0.6891(2)
C81 C 1.01232(17) 0.6222(6) 0.6027(2)
H57 H 0.9991 0.6169 0.5833
C82 C 1.03191(19) 0.5340(7) 0.6039(2)
H58 H 1.0460 0.5349 0.6223
H59 H 1.0193 0.4846 0.6061
C83 C 1.04769(19) 0.5356(7) 0.5690(2)
H60 H 1.0627 0.4920 0.5688
H61 H 1.0334 0.5214 0.5517
C84 C 1.0623(2) 0.6210(7) 0.5594(3)
H62 H 1.0798 0.6284 0.5732
H63 H 1.0686 0.6182 0.5361
C85 C 1.0436(2) 0.6946(7) 0.5636(3)
H64 H 1.0551 0.7456 0.5604
H65 H 1.0281 0.6938 0.5467
C86 C 1.03102(19) 0.6950(6) 0.5959(2)
H66 H 1.0475 0.6917 0.6119
C87 C 0.9908(2) 0.7999(6) 0.5818(2)
C88 C 0.97504(19) 0.8734(6) 0.5916(2)
C89 C 0.94969(18) 0.8941(6) 0.5697(2)
H67 H 0.9426 0.8586 0.5528
C90 C 0.93791(18) 0.9706(6) 0.5772(2)
H68 H 0.9211 0.9881 0.5656
C91 C 0.94916(18) 1.0213(6) 0.6002(2)
C92 C 0.93325(18) 1.1077(6) 0.6089(2)
C93 C 0.9691(2) 1.1356(6) 0.6535(2)
C94 C 0.98363(17) 1.0584(6) 0.6407(2)
C95 C 1.00889(18) 1.0440(6) 0.6599(2)
H69 H 1.0161 1.0831 0.6754
C96 C 1.0231(2) 0.9638(7) 0.6537(2)
H70 H 1.0404 0.9503 0.6651
C97 C 1.01187(17) 0.9093(6) 0.6320(2)
C98 C 1.02778(17) 0.8325(6) 0.6272(2)
C99 C 0.98603(17) 0.9287(6) 0.6143(2)
C100 C 0.97146(18) 1.0073(6) 0.6200(2)
C101 C 0.9273(2) 1.2311(6) 0.6429(3)
H71 H 0.9095 1.2264 0.6290
C102 C 0.9424(2) 1.3093(6) 0.6268(2)
H72 H 0.9613 1.3201 0.6375
H73 H 0.9456 1.3004 0.6029
C103 C 0.92182(19) 1.3816(6) 0.6326(2)
H74 H 0.9062 1.3767 0.6160
H75 H 0.9326 1.4331 0.6274
C104 C 0.9069(2) 1.3948(6) 0.6673(3)
H76 H 0.9210 1.4184 0.6832
H77 H 0.8906 1.4341 0.6651
C105 C 0.89656(19) 1.3159(6) 0.6792(2)
H78 H 0.8776 1.3048 0.6688
H79 H 0.8932 1.3208 0.7034
C106 C 0.9158(2) 1.2412(6) 0.6734(3)
H80 H 0.9334 1.2604 0.6854
C107 C 0.88500(18) 1.1201(6) 0.6820(2)
C108 C 0.87612(18) 1.0460(6) 0.7016(2)
C109 C 0.85346(17) 1.0051(6) 0.6925(2)
H81 H 0.8429 1.0246 0.6739
C110 C 0.84364(17) 0.9340(5) 0.7085(2)
H82 H 0.8274 0.9053 0.6999
C111 C 0.85793(17) 0.9027(6) 0.7382(2)
C112 C 0.84989(17) 0.8307(5) 0.7520(2)
C113 C 0.89070(19) 0.8517(6) 0.7932(2)
C114 C 0.89888(18) 0.9264(6) 0.7771(2)
C115 C 0.91823(17) 0.9783(6) 0.7918(2)
H83 H 0.9249 0.9676 0.8136
C116 C 0.92818(18) 1.0486(6) 0.7741(2)
H84 H 0.9443 1.0794 0.7820
C117 C 0.91299(18) 1.0749(6) 0.7423(2)
C118 C 0.92256(19) 1.1489(5) 0.7259(2)
C119 C 0.89113(16) 1.0250(5) 0.7307(2)
C120 C 0.88194(16) 0.9511(6) 0.7484(2)
O25 O 1.09103(12) 0.6824(4) 0.88762(14)
O26 O 1.02259(12) 1.0461(4) 0.94814(16)
O27 O 0.95107(12) 1.0108(4) 0.87250(13)
O28 O 1.01244(11) 0.6297(4) 0.82371(14)
O29 O 1.03008(12) 1.2011(4) 0.90323(15)
O30 O 1.13675(12) 1.2166(4) 0.77892(14)
O31 O 1.06669(11) 1.1963(5) 0.70031(15)
O32 O 0.96078(11) 1.1831(4) 0.82398(14)
O33 O 1.16519(14) 1.0639(5) 0.74132(17)
O34 O 1.14295(11) 0.6960(4) 0.83369(15)
O35 O 1.06344(12) 0.6400(4) 0.77212(15)
O36 O 1.08200(13) 1.0142(4) 0.68750(17)
N13 N 1.05313(13) 0.6572(4) 0.85378(16)
N14 N 0.98867(14) 1.0382(4) 0.90736(18)
N15 N 0.99572(13) 1.1808(4) 0.86412(16)
N16 N 1.10414(13) 1.1959(5) 0.74103(17)
N17 N 1.12263(14) 1.0390(5) 0.71346(17)
N18 N 1.10105(13) 0.6710(5) 0.80572(18)
C121 C 1.09730(19) 0.5999(6) 0.8247(2)
H85 H 1.1105 0.6061 0.8442
C122 C 1.1074(2) 0.5178(6) 0.8061(3)
H86 H 1.1278 0.5234 0.7989
H87 H 1.0953 0.5082 0.7863
C123 C 1.1042(2) 0.4411(6) 0.8317(2)
H88 H 1.1098 0.3896 0.8200
H89 H 1.1182 0.4495 0.8499
C124 C 1.07672(19) 0.4285(6) 0.8458(2)
H90 H 1.0776 0.3836 0.8625
H91 H 1.0626 0.4126 0.8285
C125 C 1.06705(19) 0.5165(6) 0.8634(2)
H92 H 1.0474 0.5114 0.8727
H93 H 1.0806 0.5305 0.8815
C126 C 1.06761(18) 0.5791(6) 0.8389(2)
H94 H 1.0552 0.5599 0.8202
C127 C 1.06673(15) 0.7078(6) 0.8783(2)
C128 C 1.05351(16) 0.7791(6) 0.8923(2)
C129 C 1.06604(16) 0.8281(6) 0.9150(2)
H95 H 1.0847 0.8133 0.9227
C130 C 1.05381(17) 0.8967(6) 0.9274(2)
H96 H 1.0625 0.9233 0.9459
C131 C 1.02585(16) 0.9337(5) 0.9124(2)
C132 C 1.01372(16) 1.0084(5) 0.9240(2)
C133 C 0.97469(17) 0.9902(6) 0.8844(2)
C134 C 0.98863(17) 0.9086(5) 0.87456(19)
C135 C 0.97401(16) 0.8537(5) 0.8509(2)
H97 H 0.9570 0.8737 0.8404
C136 C 0.98301(15) 0.7781(5) 0.84336(19)
H98 H 0.9714 0.7413 0.8307
C137 C 1.01055(15) 0.7546(5) 0.85488(19)
C138 C 1.02484(16) 0.6774(5) 0.84220(19)
C139 C 1.02501(17) 0.8148(6) 0.8786(2)
C140 C 1.01257(16) 0.8849(5) 0.88754(19)
C141 C 0.98010(19) 1.1162(5) 0.9193(2)
H99 H 0.9957 1.1418 0.9332
C142 C 0.95050(18) 1.1127(6) 0.9388(2)
H100 H 0.9347 1.0942 0.9241
H101 H 0.9519 1.0737 0.9577
C143 C 0.94531(19) 1.1926(6) 0.9501(2)
H102 H 0.9623 1.2096 0.9634
H103 H 0.9286 1.1899 0.9654
C144 C 0.93917(18) 1.2629(6) 0.9250(2)
H104 H 0.9214 1.2511 0.9122
H105 H 0.9369 1.3167 0.9365
C145 C 0.96456(17) 1.2642(5) 0.9033(2)
H106 H 0.9814 1.2851 0.9159
H107 H 0.9610 1.3030 0.8848
C146 C 0.97215(18) 1.1744(5) 0.8885(2)
H108 H 0.9546 1.1515 0.8773
C147 C 1.02384(18) 1.1941(5) 0.87351(19)
C148 C 1.04538(16) 1.1982(5) 0.8492(2)
C149 C 1.07511(16) 1.2121(5) 0.8558(2)
H109 H 1.0810 1.2193 0.8781
C150 C 1.09605(18) 1.2158(5) 0.8311(2)
H110 H 1.1158 1.2226 0.8369
C151 C 1.08808(16) 1.2095(5) 0.7975(2)
C152 C 1.11106(15) 1.2054(6) 0.7715(2)
C153 C 1.07181(17) 1.1991(6) 0.73046(19)
C154 C 1.05155(16) 1.1963(6) 0.7551(2)
C155 C 1.02239(15) 1.1861(5) 0.7474(2)
H111 H 1.0167 1.1785 0.7251
C156 C 1.00092(16) 1.1868(5) 0.7728(2)
H112 H 0.9811 1.1910 0.7670
C157 C 1.00856(16) 1.1815(5) 0.8052(2)
C158 C 0.98667(15) 1.1792(6) 0.8325(2)
C159 C 1.03985(17) 1.1920(5) 0.8143(2)
C160 C 1.05940(15) 1.1921(5) 0.7888(2)
C161 C 1.12510(17) 1.1978(6) 0.7158(2)
H113 H 1.1437 1.1948 0.7283
C162 C 1.12854(19) 1.2730(7) 0.6957(2)
H114 H 1.1323 1.3200 0.7109
H115 H 1.1099 1.2841 0.6846
C163 C 1.1513(2) 1.2731(7) 0.6704(2)
H116 H 1.1700 1.2825 0.6816
H117 H 1.1479 1.3211 0.6556
C164 C 1.1542(2) 1.1959(7) 0.6490(3)
H118 H 1.1732 1.1959 0.6378
H119 H 1.1390 1.1961 0.6317
C165 C 1.15113(18) 1.1165(7) 0.6707(2)
H120 H 1.1492 1.0678 0.6560
H121 H 1.1691 1.1093 0.6837
C166 C 1.12580(19) 1.1177(6) 0.6943(2)
H122 H 1.1082 1.1208 0.6799
C167 C 1.14267(18) 1.0235(6) 0.7368(2)
C168 C 1.14046(17) 0.9373(6) 0.7548(2)
C169 C 1.15519(18) 0.9167(7) 0.7802(2)
H123 H 1.1679 0.9581 0.7886
C170 C 1.15520(18) 0.8452(7) 0.7966(2)
H124 H 1.1703 0.8308 0.8114
C171 C 1.13097(17) 0.7906(6) 0.7906(2)
C172 C 1.12840(19) 0.7171(6) 0.8102(2)
C173 C 1.08288(16) 0.6899(6) 0.7783(2)
C174 C 1.08941(17) 0.7608(6) 0.7599(2)
C175 C 1.07131(19) 0.7771(6) 0.7318(2)
H125 H 1.0577 0.7375 0.7240
C176 C 1.07491(19) 0.8568(6) 0.7162(2)
H126 H 1.0608 0.8729 0.7004
C177 C 1.09836(18) 0.9146(6) 0.7227(2)
C178 C 1.09934(19) 0.9856(6) 0.7062(2)
C179 C 1.11654(16) 0.8893(6) 0.7469(2)
C180 C 1.11162(16) 0.8129(6) 0.7649(2)
O37 O 1.15241(12) 0.9862(4) 1.07336(14)
O38 O 1.18283(8) 1.3706(3) 1.00071(9)
O39 O 1.11355(11) 1.3266(4) 0.92241(14)
O40 O 1.07754(11) 0.9446(3) 0.99866(13)
O41 O 1.21838(12) 1.3726(4) 0.93518(15)
O42 O 1.29874(11) 1.0162(4) 0.89345(13)
O43 O 1.23619(13) 0.9613(4) 0.81108(14)
O44 O 1.15425(13) 1.3123(5) 0.85516(15)
O45 O 1.28854(11) 0.8352(4) 0.91360(15)
O46 O 1.19621(12) 0.8415(4) 1.04937(15)
O47 O 1.11870(12) 0.7938(4) 0.98201(15)
O48 O 1.20877(12) 0.7987(5) 0.84429(15)
N19 N 1.11698(13) 0.9582(4) 1.03406(15)
N20 N 1.14905(12) 1.3433(4) 0.95947(15)
N21 N 1.18484(13) 1.3420(4) 0.89816(16)
N22 N 1.26720(14) 0.9890(5) 0.85136(17)
N23 N 1.25031(13) 0.8215(5) 0.87546(17)
N24 N 1.15602(13) 0.8212(4) 1.01717(17)
C181 C 1.13801(16) 0.8143(5) 1.0468(2)
H127 H 1.1500 0.8336 1.0659
C182 C 1.13122(19) 0.7228(6) 1.0527(3)
H128 H 1.1184 0.7018 1.0350
H129 H 1.1493 0.6899 1.0524
C183 C 1.1179(2) 0.7154(7) 1.0828(3)
H130 H 1.1322 0.7268 1.1004
H131 H 1.1112 0.6575 1.0855
C184 C 1.08934(19) 0.7801(6) 1.0877(2)
H132 H 1.0734 0.7609 1.0732
H133 H 1.0826 0.7763 1.1108
C185 C 1.09583(18) 0.8725(6) 1.0796(2)
H134 H 1.1084 0.8970 1.0968
H135 H 1.0776 0.9047 1.0785
C186 C 1.11202(17) 0.8739(5) 1.0441(2)
H136 H 1.0984 0.8492 1.0276
C187 C 1.13732(16) 1.0113(5) 1.04991(19)
C188 C 1.14441(14) 1.0909(5) 1.03254(19)
C189 C 1.16454(17) 1.1395(6) 1.0469(2)
H137 H 1.1739 1.1219 1.0666
C190 C 1.17158(18) 1.2164(5) 1.0326(2)
H138 H 1.1868 1.2496 1.0411
C191 C 1.15637(17) 1.2408(5) 1.0071(2)
C192 C 1.16385(16) 1.3261(5) 0.9896(2)
C193 C 1.12745(17) 1.3048(5) 0.94740(18)
C194 C 1.11761(15) 1.2229(5) 0.96486(19)
C195 C 1.09419(16) 1.1741(5) 0.9541(2)
H139 H 1.0832 1.1923 0.9356
C196 C 1.08684(16) 1.1030(5) 0.9689(2)
H140 H 1.0697 1.0742 0.9629
C197 C 1.10464(16) 1.0730(5) 0.9929(2)
C198 C 1.09780(16) 0.9899(5) 1.0087(2)
C199 C 1.12740(15) 1.1200(5) 1.0072(2)
C200 C 1.13376(14) 1.1958(5) 0.99282(19)
C201 C 1.15701(17) 1.4238(6) 0.9426(2)
H141 H 1.1749 1.4419 0.9546
C202 C 1.1360(2) 1.4965(6) 0.9478(2)
H142 H 1.1173 1.4842 0.9368
H143 H 1.1322 1.5039 0.9718
C203 C 1.1478(2) 1.5690(6) 0.9348(2)
H144 H 1.1640 1.5871 0.9490
H145 H 1.1329 1.6132 0.9352
C204 C 1.15876(19) 1.5587(6) 0.8990(2)
H146 H 1.1419 1.5503 0.8842
H147 H 1.1684 1.6108 0.8921
C205 C 1.17957(18) 1.4876(6) 0.8942(2)
H148 H 1.1841 1.4817 0.8704
H149 H 1.1978 1.4996 0.9062
C206 C 1.16745(18) 1.4118(6) 0.9063(2)
H150 H 1.1493 1.4041 0.8932
C207 C 1.21149(18) 1.3216(6) 0.9146(2)
C208 C 1.22638(17) 1.2521(6) 0.9056(2)
C209 C 1.25237(18) 1.2305(6) 0.9222(2)
H151 H 1.2585 1.2628 0.9406
C210 C 1.26955(18) 1.1616(6) 0.9121(2)
H152 H 1.2877 1.1515 0.9223
C211 C 1.25911(17) 1.1074(6) 0.8864(2)
C212 C 1.27703(15) 1.0375(6) 0.8777(2)
C213 C 1.24204(16) 1.0051(6) 0.8347(2)
C214 C 1.22713(18) 1.0881(6) 0.8432(2)
C215 C 1.20273(17) 1.1069(6) 0.8242(2)
H153 H 1.1980 1.0740 0.8055
C216 C 1.1845(2) 1.1779(6) 0.8334(2)
H154 H 1.1683 1.1921 0.8202
C217 C 1.19101(17) 1.2240(6) 0.8612(2)
C218 C 1.17576(17) 1.2903(6) 0.8699(2)
C219 C 1.21897(16) 1.1993(6) 0.87856(19)
C220 C 1.23559(16) 1.1314(6) 0.86940(19)
C221 C 1.28365(17) 0.9130(6) 0.8437(2)
H155 H 1.2989 0.9108 0.8613
C222 C 1.30094(18) 0.9198(6) 0.8112(2)
H156 H 1.3124 0.9717 0.8115
H157 H 1.2873 0.9232 0.7924
C223 C 1.32148(19) 0.8455(7) 0.8058(3)
H158 H 1.3286 0.8453 0.7827
H159 H 1.3383 0.8498 0.8208
C224 C 1.3061(2) 0.7719(7) 0.8123(3)
H160 H 1.3206 0.7270 0.8145
H161 H 1.2946 0.7592 0.7922
C225 C 1.28675(19) 0.7651(6) 0.8403(2)
H162 H 1.2747 0.7148 0.8374
H163 H 1.2985 0.7572 0.8605
C226 C 1.26989(18) 0.8276(7) 0.8448(2)
H164 H 1.2563 0.8265 0.8256
C227 C 1.26190(16) 0.8256(6) 0.9110(2)
C228 C 1.24191(18) 0.8314(5) 0.9370(2)
C229 C 1.25319(19) 0.8468(6) 0.9680(2)
H165 H 1.2734 0.8562 0.9703
C230 C 1.23619(17) 0.8487(5) 0.9953(2)
H166 H 1.2447 0.8567 1.0164
C231 C 1.20449(18) 0.8384(6) 0.9926(2)
C232 C 1.18612(18) 0.8369(6) 1.0207(2)
C233 C 1.14561(16) 0.8056(5) 0.9826(2)
C234 C 1.16536(18) 0.8024(5) 0.9567(2)
C235 C 1.15420(18) 0.7843(5) 0.9233(2)
H167 H 1.1342 0.7720 0.9207
C236 C 1.17149(18) 0.7846(5) 0.8958(2)
H168 H 1.1643 0.7707 0.8745
C237 C 1.20058(17) 0.8069(6) 0.9011(2)
C238 C 1.21880(17) 0.8115(6) 0.8720(2)
C239 C 1.21391(17) 0.8151(5) 0.9302(2)
C240 C 1.19500(18) 0.8159(6) 0.9569(2)
Cl1 Cl 0.88581(8) 1.4301(4) 0.96331(10)
Cl2 Cl 0.89022(9) 1.4074(3) 0.87675(11)
C241 C 0.8564(2) 1.4378(10) 0.9304(3)
H169 H 0.8372 1.4254 0.9400
H170 H 0.8559 1.4942 0.9207
C242 C 0.8637(2) 1.3769(10) 0.9052(3)
H171 H 0.8459 1.3628 0.8928
H172 H 0.8704 1.3257 0.9163
Cl3 Cl 0.86529(10) 1.1803(3) 0.87018(15)
Cl4 Cl 0.87563(13) 1.2347(5) 0.77437(18)
C243 C 0.8938(4) 1.1743(16) 0.8423(5)
H173 H 0.8959 1.1147 0.8368
H174 H 0.9113 1.1898 0.8549
C244 C 0.8961(4) 1.2273(14) 0.8048(5)
H175 H 0.8995 1.2856 0.8114
H176 H 0.9146 1.2080 0.7952
loop_
_geom_bond_atom_site_label_1
_geom_bond_atom_site_label_2
_geom_bond_site_symmetry_1
_geom_bond_site_symmetry_2
O1 C7 1_555 1_555
O2 C12 1_555 1_555
O3 C13 1_555 1_555
O4 C18 1_555 1_555
O5 C27 1_555 1_555
O6 C32 1_555 1_555
O7 C33 1_555 1_555
O8 C38 1_555 1_555
O9 C47 1_555 1_555
O10 C52 1_555 1_555
O11 C53 1_555 1_555
O12 C58 1_555 1_555
N1 C6 1_555 1_555
N2 C12 1_555 1_555
N3 C26 1_555 1_555
N4 C32 1_555 1_555
N5 C46 1_555 1_555
N6 C1 1_555 1_555
C1 H1 1_555 1_555
C2 C1 1_555 1_555
H2 C2 1_555 1_555
H3 C2 1_555 1_555
C3 C2 1_555 1_555
H4 C3 1_555 1_555
H5 C3 1_555 1_555
C4 C3 1_555 1_555
H6 C4 1_555 1_555
H7 C4 1_555 1_555
C5 C4 1_555 1_555
H8 C5 1_555 1_555
H9 C5 1_555 1_555
C6 C1 1_555 1_555
H10 C6 1_555 1_555
C7 N1 1_555 1_555
C8 C7 1_555 1_555
C9 C8 1_555 1_555
H11 C9 1_555 1_555
C10 C9 1_555 1_555
H12 C10 1_555 1_555
C11 C10 1_555 1_555
C12 C11 1_555 1_555
C13 N2 1_555 1_555
C14 C13 1_555 1_555
C15 C14 1_555 1_555
H13 C15 1_555 1_555
C16 C15 1_555 1_555
H14 C16 1_555 1_555
C17 C16 1_555 1_555
C18 N1 1_555 1_555
C19 C8 1_555 1_555
C20 C11 1_555 1_555
C21 N2 1_555 1_555
H15 C21 1_555 1_555
C22 C21 1_555 1_555
H16 C22 1_555 1_555
H17 C22 1_555 1_555
C23 C22 1_555 1_555
H18 C23 1_555 1_555
H19 C23 1_555 1_555
C24 C23 1_555 1_555
H20 C24 1_555 1_555
H21 C24 1_555 1_555
C25 C24 1_555 1_555
H22 C25 1_555 1_555
H23 C25 1_555 1_555
C26 C21 1_555 1_555
H24 C26 1_555 1_555
C27 N3 1_555 1_555
C28 C27 1_555 1_555
C29 C28 1_555 1_555
H25 C29 1_555 1_555
C30 C29 1_555 1_555
H26 C30 1_555 1_555
C31 C30 1_555 1_555
C32 C31 1_555 1_555
C33 N4 1_555 1_555
C34 C33 1_555 1_555
C35 C34 1_555 1_555
H27 C35 1_555 1_555
C36 C35 1_555 1_555
H28 C36 1_555 1_555
C37 C36 1_555 1_555
C38 N3 1_555 1_555
C39 C28 1_555 1_555
C40 C31 1_555 1_555
C41 N4 1_555 1_555
H29 C41 1_555 1_555
C42 C41 1_555 1_555
H30 C42 1_555 1_555
H31 C42 1_555 1_555
C43 C42 1_555 1_555
H32 C43 1_555 1_555
H33 C43 1_555 1_555
C44 C43 1_555 1_555
H34 C44 1_555 1_555
H35 C44 1_555 1_555
C45 C44 1_555 1_555
H36 C45 1_555 1_555
H37 C45 1_555 1_555
C46 C41 1_555 1_555
H38 C46 1_555 1_555
C47 N5 1_555 1_555
C48 C47 1_555 1_555
C49 C48 1_555 1_555
H39 C49 1_555 1_555
C50 C49 1_555 1_555
H40 C50 1_555 1_555
C51 C50 1_555 1_555
C52 N6 1_555 1_555
C53 N6 1_555 1_555
C54 C53 1_555 1_555
C55 C54 1_555 1_555
H41 C55 1_555 1_555
C56 C55 1_555 1_555
H42 C56 1_555 1_555
C57 C56 1_555 1_555
C58 N5 1_555 1_555
C59 C48 1_555 1_555
C60 C51 1_555 1_555
O13 C67 1_555 1_555
O14 C72 1_555 1_555
O15 C73 1_555 1_555
O16 C78 1_555 1_555
O17 C87 1_555 1_555
O18 C92 1_555 1_555
O19 C93 1_555 1_555
O20 C98 1_555 1_555
O21 C107 1_555 1_555
O22 C112 1_555 1_555
O23 C113 1_555 1_555
O24 C118 1_555 1_555
N7 C66 1_555 1_555
N8 C72 1_555 1_555
N9 C86 1_555 1_555
N10 C92 1_555 1_555
N11 C106 1_555 1_555
N12 C61 1_555 1_555
C61 H43 1_555 1_555
C62 C61 1_555 1_555
H44 C62 1_555 1_555
H45 C62 1_555 1_555
C63 C62 1_555 1_555
H46 C63 1_555 1_555
H47 C63 1_555 1_555
C64 C63 1_555 1_555
H48 C64 1_555 1_555
H49 C64 1_555 1_555
C65 C64 1_555 1_555
H50 C65 1_555 1_555
H51 C65 1_555 1_555
C66 C61 1_555 1_555
H52 C66 1_555 1_555
C67 N7 1_555 1_555
C68 C67 1_555 1_555
C69 C68 1_555 1_555
H53 C69 1_555 1_555
C70 C69 1_555 1_555
H54 C70 1_555 1_555
C71 C70 1_555 1_555
C72 C71 1_555 1_555
C73 N8 1_555 1_555
C74 C73 1_555 1_555
C75 C74 1_555 1_555
H55 C75 1_555 1_555
C76 C75 1_555 1_555
H56 C76 1_555 1_555
C77 C76 1_555 1_555
C78 N7 1_555 1_555
C79 C68 1_555 1_555
C80 C71 1_555 1_555
C81 N8 1_555 1_555
H57 C81 1_555 1_555
C82 C81 1_555 1_555
H58 C82 1_555 1_555
H59 C82 1_555 1_555
C83 C82 1_555 1_555
H60 C83 1_555 1_555
H61 C83 1_555 1_555
C84 C83 1_555 1_555
H62 C84 1_555 1_555
H63 C84 1_555 1_555
C85 C84 1_555 1_555
H64 C85 1_555 1_555
H65 C85 1_555 1_555
C86 C81 1_555 1_555
H66 C86 1_555 1_555
C87 N9 1_555 1_555
C88 C87 1_555 1_555
C89 C88 1_555 1_555
H67 C89 1_555 1_555
C90 C89 1_555 1_555
H68 C90 1_555 1_555
C91 C90 1_555 1_555
C92 C91 1_555 1_555
C93 N10 1_555 1_555
C94 C93 1_555 1_555
C95 C94 1_555 1_555
H69 C95 1_555 1_555
C96 C95 1_555 1_555
H70 C96 1_555 1_555
C97 C96 1_555 1_555
C98 N9 1_555 1_555
C99 C88 1_555 1_555
C100 C91 1_555 1_555
C101 N10 1_555 1_555
H71 C101 1_555 1_555
C102 C101 1_555 1_555
H72 C102 1_555 1_555
H73 C102 1_555 1_555
C103 C102 1_555 1_555
H74 C103 1_555 1_555
H75 C103 1_555 1_555
C104 C103 1_555 1_555
H76 C104 1_555 1_555
H77 C104 1_555 1_555
C105 C104 1_555 1_555
H78 C105 1_555 1_555
H79 C105 1_555 1_555
C106 C101 1_555 1_555
H80 C106 1_555 1_555
C107 N11 1_555 1_555
C108 C107 1_555 1_555
C109 C108 1_555 1_555
H81 C109 1_555 1_555
C110 C109 1_555 1_555
H82 C110 1_555 1_555
C111 C110 1_555 1_555
C112 N12 1_555 1_555
C113 N12 1_555 1_555
C114 C113 1_555 1_555
C115 C114 1_555 1_555
H83 C115 1_555 1_555
C116 C115 1_555 1_555
H84 C116 1_555 1_555
C117 C116 1_555 1_555
C118 N11 1_555 1_555
C119 C108 1_555 1_555
C120 C111 1_555 1_555
O25 C127 1_555 1_555
O26 C132 1_555 1_555
O27 C133 1_555 1_555
O28 C138 1_555 1_555
O29 C147 1_555 1_555
O30 C152 1_555 1_555
O31 C153 1_555 1_555
O32 C158 1_555 1_555
O33 C167 1_555 1_555
O34 C172 1_555 1_555
O35 C173 1_555 1_555
O36 C178 1_555 1_555
N13 C126 1_555 1_555
N14 C132 1_555 1_555
N15 C146 1_555 1_555
N16 C152 1_555 1_555
N17 C166 1_555 1_555
N18 C121 1_555 1_555
C121 H85 1_555 1_555
C122 C121 1_555 1_555
H86 C122 1_555 1_555
H87 C122 1_555 1_555
C123 C122 1_555 1_555
H88 C123 1_555 1_555
H89 C123 1_555 1_555
C124 C123 1_555 1_555
H90 C124 1_555 1_555
H91 C124 1_555 1_555
C125 C124 1_555 1_555
H92 C125 1_555 1_555
H93 C125 1_555 1_555
C126 C121 1_555 1_555
H94 C126 1_555 1_555
C127 N13 1_555 1_555
C128 C127 1_555 1_555
C129 C128 1_555 1_555
H95 C129 1_555 1_555
C130 C129 1_555 1_555
H96 C130 1_555 1_555
C131 C130 1_555 1_555
C132 C131 1_555 1_555
C133 N14 1_555 1_555
C134 C133 1_555 1_555
C135 C134 1_555 1_555
H97 C135 1_555 1_555
C136 C135 1_555 1_555
H98 C136 1_555 1_555
C137 C136 1_555 1_555
C138 N13 1_555 1_555
C139 C128 1_555 1_555
C140 C131 1_555 1_555
C141 N14 1_555 1_555
H99 C141 1_555 1_555
C142 C141 1_555 1_555
H100 C142 1_555 1_555
H101 C142 1_555 1_555
C143 C142 1_555 1_555
H102 C143 1_555 1_555
H103 C143 1_555 1_555
C144 C143 1_555 1_555
H104 C144 1_555 1_555
H105 C144 1_555 1_555
C145 C144 1_555 1_555
H106 C145 1_555 1_555
H107 C145 1_555 1_555
C146 C141 1_555 1_555
H108 C146 1_555 1_555
C147 N15 1_555 1_555
C148 C147 1_555 1_555
C149 C148 1_555 1_555
H109 C149 1_555 1_555
C150 C149 1_555 1_555
H110 C150 1_555 1_555
C151 C150 1_555 1_555
C152 C151 1_555 1_555
C153 N16 1_555 1_555
C154 C153 1_555 1_555
C155 C154 1_555 1_555
H111 C155 1_555 1_555
C156 C155 1_555 1_555
H112 C156 1_555 1_555
C157 C156 1_555 1_555
C158 N15 1_555 1_555
C159 C148 1_555 1_555
C160 C151 1_555 1_555
C161 N16 1_555 1_555
H113 C161 1_555 1_555
C162 C161 1_555 1_555
H114 C162 1_555 1_555
H115 C162 1_555 1_555
C163 C162 1_555 1_555
H116 C163 1_555 1_555
H117 C163 1_555 1_555
C164 C163 1_555 1_555
H118 C164 1_555 1_555
H119 C164 1_555 1_555
C165 C164 1_555 1_555
H120 C165 1_555 1_555
H121 C165 1_555 1_555
C166 C161 1_555 1_555
H122 C166 1_555 1_555
C167 N17 1_555 1_555
C168 C167 1_555 1_555
C169 C168 1_555 1_555
H123 C169 1_555 1_555
C170 C169 1_555 1_555
H124 C170 1_555 1_555
C171 C170 1_555 1_555
C172 N18 1_555 1_555
C173 N18 1_555 1_555
C174 C173 1_555 1_555
C175 C174 1_555 1_555
H125 C175 1_555 1_555
C176 C175 1_555 1_555
H126 C176 1_555 1_555
C177 C176 1_555 1_555
C178 N17 1_555 1_555
C179 C168 1_555 1_555
C180 C171 1_555 1_555
O37 C187 1_555 1_555
O38 C192 1_555 1_555
O39 C193 1_555 1_555
O40 C198 1_555 1_555
O41 C207 1_555 1_555
O42 C212 1_555 1_555
O43 C213 1_555 1_555
O44 C218 1_555 1_555
O45 C227 1_555 1_555
O46 C232 1_555 1_555
O47 C233 1_555 1_555
O48 C238 1_555 1_555
N19 C186 1_555 1_555
N20 C192 1_555 1_555
N21 C206 1_555 1_555
N22 C212 1_555 1_555
N23 C226 1_555 1_555
N24 C181 1_555 1_555
C181 H127 1_555 1_555
C182 C181 1_555 1_555
H128 C182 1_555 1_555
H129 C182 1_555 1_555
C183 C182 1_555 1_555
H130 C183 1_555 1_555
H131 C183 1_555 1_555
C184 C183 1_555 1_555
H132 C184 1_555 1_555
H133 C184 1_555 1_555
C185 C184 1_555 1_555
H134 C185 1_555 1_555
H135 C185 1_555 1_555
C186 C181 1_555 1_555
H136 C186 1_555 1_555
C187 N19 1_555 1_555
C188 C187 1_555 1_555
C189 C188 1_555 1_555
H137 C189 1_555 1_555
C190 C189 1_555 1_555
H138 C190 1_555 1_555
C191 C190 1_555 1_555
C192 C191 1_555 1_555
C193 N20 1_555 1_555
C194 C193 1_555 1_555
C195 C194 1_555 1_555
H139 C195 1_555 1_555
C196 C195 1_555 1_555
H140 C196 1_555 1_555
C197 C196 1_555 1_555
C198 N19 1_555 1_555
C199 C188 1_555 1_555
C200 C191 1_555 1_555
C201 N20 1_555 1_555
H141 C201 1_555 1_555
C202 C201 1_555 1_555
H142 C202 1_555 1_555
H143 C202 1_555 1_555
C203 C202 1_555 1_555
H144 C203 1_555 1_555
H145 C203 1_555 1_555
C204 C203 1_555 1_555
H146 C204 1_555 1_555
H147 C204 1_555 1_555
C205 C204 1_555 1_555
H148 C205 1_555 1_555
H149 C205 1_555 1_555
C206 C201 1_555 1_555
H150 C206 1_555 1_555
C207 N21 1_555 1_555
C208 C207 1_555 1_555
C209 C208 1_555 1_555
H151 C209 1_555 1_555
C210 C209 1_555 1_555
H152 C210 1_555 1_555
C211 C210 1_555 1_555
C212 C211 1_555 1_555
C213 N22 1_555 1_555
C214 C213 1_555 1_555
C215 C214 1_555 1_555
H153 C215 1_555 1_555
C216 C215 1_555 1_555
H154 C216 1_555 1_555
C217 C216 1_555 1_555
C218 N21 1_555 1_555
C219 C208 1_555 1_555
C220 C211 1_555 1_555
C221 N22 1_555 1_555
H155 C221 1_555 1_555
C222 C221 1_555 1_555
H156 C222 1_555 1_555
H157 C222 1_555 1_555
C223 C222 1_555 1_555
H158 C223 1_555 1_555
H159 C223 1_555 1_555
C224 C223 1_555 1_555
H160 C224 1_555 1_555
H161 C224 1_555 1_555
C225 C224 1_555 1_555
H162 C225 1_555 1_555
H163 C225 1_555 1_555
C226 C221 1_555 1_555
H164 C226 1_555 1_555
C227 N23 1_555 1_555
C228 C227 1_555 1_555
C229 C228 1_555 1_555
H165 C229 1_555 1_555
C230 C229 1_555 1_555
H166 C230 1_555 1_555
C231 C230 1_555 1_555
C232 N24 1_555 1_555
C233 N24 1_555 1_555
C234 C233 1_555 1_555
C235 C234 1_555 1_555
H167 C235 1_555 1_555
C236 C235 1_555 1_555
H168 C236 1_555 1_555
C237 C236 1_555 1_555
C238 N23 1_555 1_555
C239 C228 1_555 1_555
C240 C231 1_555 1_555
Cl1 C241 1_555 1_555
Cl2 C242 1_555 1_555
C241 H169 1_555 1_555
H170 C241 1_555 1_555
C242 C241 1_555 1_555
H171 C242 1_555 1_555
H172 C242 1_555 1_555
Cl3 C243 1_555 1_555
Cl4 C244 1_555 1_555
C243 H173 1_555 1_555
H174 C243 1_555 1_555
C244 C243 1_555 1_555
H175 C244 1_555 1_555
H176 C244 1_555 1_555
C5 C6 1_555 1_555
C14 C20 1_555 1_555
C17 C18 1_555 1_555
C17 C19 1_555 1_555
C19 C20 1_555 1_555
C25 C26 1_555 1_555
C34 C40 1_555 1_555
C37 C38 1_555 1_555
C37 C39 1_555 1_555
C39 C40 1_555 1_555
C45 C46 1_555 1_555
C51 C52 1_555 1_555
C54 C60 1_555 1_555
C57 C58 1_555 1_555
C57 C59 1_555 1_555
C59 C60 1_555 1_555
C65 C66 1_555 1_555
C74 C80 1_555 1_555
C77 C78 1_555 1_555
C77 C79 1_555 1_555
C79 C80 1_555 1_555
C85 C86 1_555 1_555
C94 C100 1_555 1_555
C97 C98 1_555 1_555
C97 C99 1_555 1_555
C99 C100 1_555 1_555
C105 C106 1_555 1_555
C111 C112 1_555 1_555
C114 C120 1_555 1_555
C117 C118 1_555 1_555
C117 C119 1_555 1_555
C119 C120 1_555 1_555
C125 C126 1_555 1_555
C134 C140 1_555 1_555
C137 C138 1_555 1_555
C137 C139 1_555 1_555
C139 C140 1_555 1_555
C145 C146 1_555 1_555
C154 C160 1_555 1_555
C157 C158 1_555 1_555
C157 C159 1_555 1_555
C159 C160 1_555 1_555
C165 C166 1_555 1_555
C171 C172 1_555 1_555
C174 C180 1_555 1_555
C177 C178 1_555 1_555
C177 C179 1_555 1_555
C179 C180 1_555 1_555
C185 C186 1_555 1_555
C194 C200 1_555 1_555
C197 C198 1_555 1_555
C197 C199 1_555 1_555
C199 C200 1_555 1_555
C205 C206 1_555 1_555
C214 C220 1_555 1_555
C217 C218 1_555 1_555
C217 C219 1_555 1_555
C219 C220 1_555 1_555
C225 C226 1_555 1_555
C231 C232 1_555 1_555
C234 C240 1_555 1_555
C237 C238 1_555 1_555
C237 C239 1_555 1_555
C239 C240 1_555 1_555

#END
