
#######################################################################
#
#                 Cambridge Crystallographic Data Centre
#                                CCDC 
#
#######################################################################
#
# If this CIF has been generated from an entry in the Cambridge 
# Structural Database, then it will include bibliographic, chemical, 
# crystal, experimental, refinement or atomic coordinate data resulting 
# from the CCDC's data processing and validation procedures.
#
#######################################################################

data_NUXJEX
_chemical_formula_moiety         'C60 H42 N6 O12,3(C2 H4 Br2)'
_chemical_name_systematic        
'1,3,4(2,7)-tris(1,3,6,8-tetraoxo-1,3,6,8-tetrahydrobenzo[lmn][3,8]phenanthroline-2,7-diyl)-2,4,6(1,2)-tris(cyclohexane)cyclohexaphane 1,2-dibromoethane unknown solvate'
_symmetry_cell_setting           triclinic
_symmetry_space_group_name_H-M   'P 1'
_symmetry_Int_Tables_number      1
_space_group_name_Hall           'P 1'
loop_
_symmetry_equiv_pos_site_id
_symmetry_equiv_pos_as_xyz
1 x,y,z
_cell_length_a                   15.7342(6)
_cell_length_b                   16.0668(6)
_cell_length_c                   16.1856(6)
_cell_angle_alpha                119.5499(16)
_cell_angle_beta                 100.2052(18)
_cell_angle_gamma                92.9355(18)
_cell_volume                     3456.96
_exptl_crystal_colour            colorless
_exptl_crystal_description       block
_cell_formula_units_Z            2
loop_
_atom_site_label
_atom_site_type_symbol
_atom_site_fract_x
_atom_site_fract_y
_atom_site_fract_z
Br1 Br 0.49015(8) 0.98841(10) 0.95616(10)
Br2 Br 0.21720(8) 0.98499(10) 1.01937(11)
C1 C 0.3701(8) 0.9477(10) 0.9528(10)
H1 H 0.3334 0.9185 0.8857
H2 H 0.3685 0.8986 0.9727
C2 C 0.3375(9) 1.0315(11) 1.0188(10)
H3 H 0.3353 1.0790 0.9966
H4 H 0.3760 1.0631 1.0852
Br3 Br 0.74494(8) 0.54440(9) 0.24393(9)
Br4 Br 0.88053(14) 0.64233(15) 0.14878(15)
C3 C 0.8365(8) 0.4917(10) 0.1785(11)
H5 H 0.8864 0.4929 0.2262
H6 H 0.8148 0.4231 0.1271
C4 C 0.8746(17) 0.5548(15) 0.1242(16)
H7 H 0.9345 0.5400 0.1195
H8 H 0.8390 0.5196 0.0562
Br5 Br 0.70791(8) 0.97142(10) 0.98647(10)
Br6 Br 1.00327(8) 1.01864(10) 1.00589(10)
C5 C 0.8335(10) 0.9751(10) 0.9529(10)
H9 H 0.8425 0.9092 0.9059
H10 H 0.8392 1.0172 0.9250
C6 C 0.8889(11) 1.0101(19) 1.0359(13)
H11 H 0.8850 0.9666 1.0626
H12 H 0.8784 1.0749 1.0839
Br7 Br 1.05404(7) 0.20209(9) 0.67135(7)
Br8 Br 0.76097(8) 0.10401(10) 0.51880(9)
C7 C 0.9246(7) 0.1594(8) 0.6401(8)
H13 H 0.9126 0.0934 0.6297
H14 H 0.8997 0.2041 0.6949
C8 C 0.8851(9) 0.1597(12) 0.5524(11)
H15 H 0.9135 0.1200 0.4988
H16 H 0.8910 0.2267 0.5644
Br9 Br 0.52713(9) 0.65372(7) 0.42038(8)
Br10 Br 0.39952(7) 0.68113(8) 0.22957(8)
C9 C 0.4455(8) 0.5524(7) 0.2964(8)
H17 H 0.4621 0.4882 0.2794
H18 H 0.3855 0.5515 0.3071
C10 C 0.4451(7) 0.5671(7) 0.2153(8)
H19 H 0.4097 0.5097 0.1550
H20 H 0.5058 0.5718 0.2072
Br11 Br 0.93868(8) 0.87584(13) 0.47242(10)
Br12 Br 0.64760(6) 0.79100(8) 0.31618(7)
C11 C 0.8120(7) 0.8316(7) 0.4422(7)
H21 H 0.8005 0.7644 0.4286
H22 H 0.7866 0.8742 0.4976
C12 C 0.7726(7) 0.8370(10) 0.3509(9)
H23 H 0.7995 0.7958 0.2964
H24 H 0.7834 0.9046 0.3653
O1 O -0.0831(3) 0.6586(5) 0.7209(4)
O2 O -0.0074(4) 0.8699(5) 1.2292(4)
O3 O 0.2799(3) 0.8476(4) 1.2481(4)
O4 O 0.2052(4) 0.6275(5) 0.7392(4)
O5 O 0.0578(3) 1.0827(4) 1.3840(4)
O6 O -0.0158(4) 1.3589(4) 1.1571(5)
O7 O 0.2743(4) 1.3943(5) 1.1626(5)
O8 O 0.3340(4) 1.0726(4) 1.3342(4)
O9 O -0.0299(4) 1.2783(4) 0.9272(4)
O10 O -0.1251(4) 0.7734(4) 0.6111(4)
O11 O 0.1649(3) 0.7609(4) 0.6370(4)
O12 O 0.2590(5) 1.2674(5) 0.9363(8)
N1 N 0.0626(4) 0.6514(4) 0.7283(4)
N2 N 0.1384(4) 0.8639(4) 1.2409(5)
N3 N 0.1960(4) 1.0728(4) 1.3572(4)
N4 N 0.1266(4) 1.3679(4) 1.1484(4)
N5 N 0.1150(4) 1.2750(4) 0.9388(4)
N6 N 0.0202(4) 0.7643(4) 0.6351(4)
C13 C -0.0095(5) 0.6758(5) 0.7718(5)
C14 C 0.0060(5) 0.7190(5) 0.8794(5)
C15 C -0.0607(5) 0.7405(7) 0.9226(6)
H25 H -0.1183 0.7275 0.8844
C16 C -0.0468(5) 0.7821(6) 1.0242(6)
H26 H -0.0948 0.7978 1.0544
C17 C 0.0365(5) 0.8002(6) 1.0802(6)
C18 C 0.0507(5) 0.8496(6) 1.1886(6)
C19 C 0.2087(5) 0.8375(5) 1.2016(5)
C20 C 0.1913(5) 0.7881(5) 1.0913(5)
C21 C 0.2578(5) 0.7541(5) 1.0448(6)
H27 H 0.3143 0.7611 1.0823
C22 C 0.2437(5) 0.7090(5) 0.9424(6)
H28 H 0.2894 0.6829 0.9109
C23 C 0.1629(5) 0.7032(5) 0.8883(6)
C24 C 0.1468(5) 0.6585(6) 0.7807(6)
C25 C 0.0931(5) 0.7349(5) 0.9346(6)
C26 C 0.1077(5) 0.7779(5) 1.0367(6)
C27 C 0.1522(5) 0.9182(5) 1.3510(5)
H29 H 0.0942 0.9351 1.3657
C28 C 0.1797(5) 0.8548(6) 1.3939(6)
H30 H 0.2377 0.8376 1.3824
H31 H 0.1371 0.7940 1.3606
C29 C 0.1842(6) 0.9083(6) 1.5045(6)
H32 H 0.2061 0.8683 1.5319
H33 H 0.1251 0.9197 1.5161
C30 C 0.2464(5) 1.0061(6) 1.5548(5)
H34 H 0.2474 1.0419 1.6254
H35 H 0.3064 0.9936 1.5480
C31 C 0.2188(5) 1.0681(5) 1.5119(5)
H36 H 0.2613 1.1289 1.5443
H37 H 0.1606 1.0851 1.5228
C32 C 0.2149(5) 1.0119(5) 1.4015(5)
H38 H 0.2744 0.9948 1.3939
C33 C 0.1139(4) 1.1036(5) 1.3509(5)
C34 C 0.1007(4) 1.1634(5) 1.3046(5)
C35 C 0.0203(5) 1.1929(6) 1.2928(6)
H39 H -0.0253 1.1757 1.3156
C36 C 0.0058(4) 1.2477(5) 1.2478(5)
H40 H -0.0508 1.2635 1.2359
C37 C 0.0725(5) 1.2785(5) 1.2211(5)
C38 C 0.0583(5) 1.3372(6) 1.1734(6)
C39 C 0.2144(5) 1.3554(6) 1.1737(6)
C40 C 0.2282(5) 1.2916(6) 1.2158(6)
C41 C 0.3090(5) 1.2698(7) 1.2356(6)
H41 H 0.3574 1.2964 1.2234
C42 C 0.3215(5) 1.2087(7) 1.2737(6)
H42 H 0.3780 1.1926 1.2846
C43 C 0.2540(5) 1.1712(6) 1.2957(5)
C44 C 0.2665(5) 1.1019(6) 1.3299(5)
C45 C 0.1678(4) 1.1961(5) 1.2785(5)
C46 C 0.1591(4) 1.2542(5) 1.2380(5)
C47 C 0.1102(5) 1.4239(5) 1.0983(5)
H43 H 0.0452 1.4187 1.0797
C48 C 0.1463(5) 1.5315(5) 1.1626(5)
H44 H 0.2111 1.5409 1.1798
H45 H 0.1257 1.5584 1.2238
C49 C 0.1159(6) 1.5858(6) 1.1083(6)
H46 H 0.0515 1.5818 1.0967
H47 H 0.1425 1.6551 1.1492
C50 C 0.1424(6) 1.5415(5) 1.0122(6)
H48 H 0.2071 1.5519 1.0247
H49 H 0.1201 1.5748 0.9770
C51 C 0.1072(6) 1.4320(5) 0.9471(6)
H50 H 0.0425 1.4209 0.9312
H51 H 0.1268 1.4054 0.8853
C52 C 0.1418(5) 1.3809(5) 1.0019(5)
H52 H 0.2072 1.3953 1.0191
C53 C 0.0279(5) 1.2303(5) 0.9038(6)
C54 C 0.0089(5) 1.1244(5) 0.8373(5)
C55 C -0.0805(5) 1.0766(5) 0.7960(6)
H53 H -0.1274 1.1123 0.8102
C56 C -0.0961(5) 0.9775(5) 0.7355(6)
H54 H -0.1550 0.9455 0.7063
C57 C -0.0303(5) 0.9228(5) 0.7153(6)
C58 C -0.0504(5) 0.8177(5) 0.6497(6)
C59 C 0.1095(5) 0.8089(5) 0.6612(5)
C60 C 0.1263(5) 0.9164(6) 0.7237(5)
C61 C 0.2115(5) 0.9626(5) 0.7526(5)
H55 H 0.2568 0.9260 0.7315
C62 C 0.2313(5) 1.0644(6) 0.8137(6)
H56 H 0.2899 1.0964 0.8332
C63 C 0.1651(5) 1.1180(5) 0.8455(5)
C64 C 0.1852(5) 1.2241(6) 0.9080(6)
C65 C 0.0764(5) 1.0696(5) 0.8135(5)
C66 C 0.0579(5) 0.9690(5) 0.7489(5)
C67 C -0.0022(5) 0.6583(5) 0.5771(5)
H57 H -0.0652 0.6420 0.5743
C68 C 0.0067(6) 0.6115(6) 0.4696(6)
H58 H -0.0215 0.6472 0.4398
H59 H 0.0694 0.6165 0.4685
C69 C -0.0345(6) 0.5088(6) 0.4123(6)
H60 H -0.0264 0.4799 0.3449
H61 H -0.0981 0.5042 0.4091
C70 C 0.0069(6) 0.4504(6) 0.4602(6)
H62 H -0.0272 0.3843 0.4260
H63 H 0.0676 0.4444 0.4518
C71 C 0.0079(6) 0.5004(5) 0.5693(6)
H64 H -0.0528 0.4962 0.5774
H65 H 0.0409 0.4665 0.5984
C72 C 0.0498(5) 0.6055(5) 0.6221(5)
H66 H 0.1094 0.6065 0.6086
O13 O 0.7715(4) 0.7324(5) 1.0740(6)
O14 O 0.8157(3) 1.2355(4) 1.3890(4)
O15 O 0.5185(4) 1.2073(4) 1.3503(5)
O16 O 0.4745(4) 0.7063(4) 1.0277(4)
O17 O 0.8214(4) 1.3214(5) 1.2563(4)
O18 O 0.6916(4) 1.1159(5) 0.7500(4)
O19 O 0.4088(3) 1.1525(4) 0.7739(4)
O20 O 0.5404(4) 1.3590(4) 1.2815(4)
O21 O 0.6866(3) 0.8974(4) 0.6160(4)
O22 O 0.6986(4) 0.6182(4) 0.8388(5)
O23 O 0.4035(4) 0.5951(5) 0.8008(6)
O24 O 0.4005(3) 0.9153(4) 0.6245(4)
N7 N 0.6233(4) 0.7186(4) 1.0458(5)
N8 N 0.6661(4) 1.2225(5) 1.3627(5)
N9 N 0.6812(4) 1.3377(4) 1.2709(5)
N10 N 0.5485(4) 1.1223(5) 0.7565(5)
N11 N 0.5458(4) 0.9148(4) 0.6267(4)
N12 N 0.5537(4) 0.6150(4) 0.8323(4)
C73 C 0.5934(5) 1.3333(5) 1.2327(5)
C74 C 0.7086(5) 0.7708(6) 1.0893(6)
C75 C 0.7158(5) 0.8766(6) 1.1541(6)
C76 C 0.7978(5) 0.9355(6) 1.2036(6)
H67 H 0.8488 0.9064 1.1924
C77 C 0.8076(5) 1.0329(6) 1.2672(6)
H68 H 0.8645 1.0701 1.2996
C78 C 0.7336(5) 1.0777(6) 1.2845(5)
C79 C 0.7441(5) 1.1842(5) 1.3497(6)
C80 C 0.5829(5) 1.1677(6) 1.3244(6)
C81 C 0.5734(5) 1.0651(6) 1.2585(6)
C82 C 0.4930(4) 1.0048(5) 1.2178(5)
H69 H 0.4421 1.0323 1.2338
C83 C 0.4845(5) 0.9070(6) 1.1555(6)
H70 H 0.4283 0.8678 1.1290
C84 C 0.5572(4) 0.8657(5) 1.1315(5)
C85 C 0.5473(5) 0.7557(5) 1.0632(6)
C86 C 0.6415(5) 0.9217(5) 1.1750(5)
C87 C 0.6493(5) 1.0199(5) 1.2349(5)
C88 C 0.6706(5) 1.3305(5) 1.4212(5)
H71 H 0.6089 1.3432 1.4188
C89 C 0.7142(5) 1.3701(6) 1.5276(6)
H72 H 0.7765 1.3616 1.5345
H73 H 0.6847 1.3355 1.5537
C90 C 0.7065(6) 1.4850(6) 1.5867(6)
H74 H 0.6441 1.4927 1.5832
H75 H 0.7367 1.5144 1.6563
C91 C 0.7471(6) 1.5356(6) 1.5428(6)
H76 H 0.8102 1.5305 1.5497
H77 H 0.7421 1.6052 1.5791
C92 C 0.7033(6) 1.4923(6) 1.4336(6)
H78 H 0.7319 1.5270 1.4069
H79 H 0.6406 1.4989 1.4256
C93 C 0.7133(5) 1.3838(5) 1.3790(5)
H80 H 0.7773 1.3810 1.3920
C94 C 0.7462(4) 1.3111(5) 1.2185(5)
C95 C 0.7167(5) 1.2665(6) 1.1098(6)
C96 C 0.7795(5) 1.2424(6) 1.0550(6)
H81 H 0.8396 1.2522 1.0851
C97 C 0.7510(5) 1.2021(6) 0.9515(6)
H82 H 0.7937 1.1874 0.9137
C98 C 0.6658(5) 1.1843(5) 0.9056(5)
C99 C 0.6383(5) 1.1401(5) 0.7987(5)
C100 C 0.4849(5) 1.1613(5) 0.8140(5)
C101 C 0.5136(5) 1.2069(5) 0.9220(5)
C102 C 0.4551(5) 1.2451(6) 0.9778(6)
H83 H 0.3970 1.2445 0.9483
C103 C 0.4814(5) 1.2861(6) 1.0809(6)
H84 H 0.4400 1.3110 1.1197
C104 C 0.5647(5) 1.2901(5) 1.1242(5)
C105 C 0.6291(5) 1.2576(5) 1.0667(5)
C106 C 0.6026(5) 1.2163(5) 0.9637(5)
C107 C 0.5152(5) 1.0772(5) 0.6500(5)
H85 H 0.4500 1.0625 0.6360
C108 C 0.5371(5) 1.1484(5) 0.6153(5)
H86 H 0.5177 1.2110 0.6550
H87 H 0.6010 1.1607 0.6222
C109 C 0.4894(6) 1.1019(5) 0.5090(6)
H88 H 0.5057 1.1440 0.4839
H89 H 0.4256 1.0976 0.5047
C110 C 0.5098(5) 0.9995(6) 0.4436(5)
H90 H 0.4720 0.9709 0.3771
H91 H 0.5714 1.0049 0.4386
C111 C 0.4957(5) 0.9342(5) 0.4814(5)
H92 H 0.5151 0.8719 0.4410
H93 H 0.4325 0.9208 0.4775
C112 C 0.5474(5) 0.9814(5) 0.5884(5)
H94 H 0.6099 0.9985 0.5898
C113 C 0.6255(4) 0.8784(5) 0.6402(5)
C114 C 0.6245(4) 0.8176(5) 0.6845(5)
C115 C 0.7014(5) 0.7861(5) 0.7061(5)
H95 H 0.7530 0.8040 0.6918
C116 C 0.7041(5) 0.7274(5) 0.7493(6)
H96 H 0.7568 0.7058 0.7636
C117 C 0.6301(5) 0.7028(5) 0.7697(5)
C118 C 0.6325(5) 0.6421(5) 0.8163(5)
C119 C 0.4715(5) 0.6309(5) 0.7968(6)
C120 C 0.4697(5) 0.6955(5) 0.7555(5)
C121 C 0.3916(5) 0.7168(5) 0.7247(6)
H97 H 0.3382 0.6902 0.7287
C122 C 0.3920(5) 0.7800(5) 0.6864(5)
H98 H 0.3384 0.7970 0.6667
C123 C 0.4697(5) 0.8174(5) 0.6772(5)
C124 C 0.4658(5) 0.8849(5) 0.6395(5)
C125 C 0.5475(5) 0.7891(5) 0.7023(6)
C126 C 0.5508(5) 0.7294(5) 0.7434(5)
C127 C 0.5529(5) 0.5612(5) 0.8854(5)
H99 H 0.4929 0.5573 0.8970
C128 C 0.5687(6) 0.4573(6) 0.8238(6)
H100 H 0.6295 0.4578 0.8152
H101 H 0.5283 0.4257 0.7585
C129 C 0.5536(6) 0.4001(6) 0.8751(6)
H102 H 0.5689 0.3346 0.8382
H103 H 0.4909 0.3926 0.8760
C130 C 0.6106(6) 0.4540(6) 0.9820(6)
H104 H 0.5954 0.4204 1.0160
H105 H 0.6732 0.4527 0.9808
C131 C 0.5954(7) 0.5586(6) 1.0371(6)
H106 H 0.5336 0.5601 1.0419
H107 H 0.6330 0.5923 1.1041
C132 C 0.6167(5) 0.6101(5) 0.9841(5)
H108 H 0.6760 0.5973 0.9714
Br13? Br 0.9429(3) 0.6665(3) 0.2540(3)
C133? C 0.9148(16) 0.5722(19) 0.2092(17)
H109? H 0.9608 0.5530 0.2437
H110? H 0.9292 0.5506 0.1453
H111? H 0.8574 0.4430 0.1944
H112? H 0.8130 0.4584 0.1070
loop_
_geom_bond_atom_site_label_1
_geom_bond_atom_site_label_2
_geom_bond_site_symmetry_1
_geom_bond_site_symmetry_2
Br1 C1 1_555 1_555
Br2 C2 1_555 1_555
C1 H1 1_555 1_555
H2 C1 1_555 1_555
C2 C1 1_555 1_555
H3 C2 1_555 1_555
H4 C2 1_555 1_555
Br3 C3 1_555 1_555
Br4 C4 1_555 1_555
C3 H5 1_555 1_555
H6 C3 1_555 1_555
C4 C3 1_555 1_555
H7 C4 1_555 1_555
H8 C4 1_555 1_555
Br5 C5 1_555 1_555
Br6 C6 1_555 1_555
C5 H9 1_555 1_555
H10 C5 1_555 1_555
C6 C5 1_555 1_555
H11 C6 1_555 1_555
H12 C6 1_555 1_555
Br7 C7 1_555 1_555
Br8 C8 1_555 1_555
C7 H13 1_555 1_555
H14 C7 1_555 1_555
C8 C7 1_555 1_555
H15 C8 1_555 1_555
H16 C8 1_555 1_555
Br9 C9 1_555 1_555
Br10 C10 1_555 1_555
C9 H17 1_555 1_555
H18 C9 1_555 1_555
C10 C9 1_555 1_555
H19 C10 1_555 1_555
H20 C10 1_555 1_555
Br11 C11 1_555 1_555
Br12 C12 1_555 1_555
C11 H21 1_555 1_555
H22 C11 1_555 1_555
C12 C11 1_555 1_555
H23 C12 1_555 1_555
H24 C12 1_555 1_555
O1 C13 1_555 1_555
O2 C18 1_555 1_555
O3 C19 1_555 1_555
O4 C24 1_555 1_555
O5 C33 1_555 1_555
O6 C38 1_555 1_555
O7 C39 1_555 1_555
O8 C44 1_555 1_555
O9 C53 1_555 1_555
O10 C58 1_555 1_555
O11 C59 1_555 1_555
O12 C64 1_555 1_555
N1 C13 1_555 1_555
N2 C18 1_555 1_555
N3 C32 1_555 1_555
N4 C38 1_555 1_555
N5 C52 1_555 1_555
N6 C58 1_555 1_555
C13 C14 1_555 1_555
C14 C15 1_555 1_555
C15 H25 1_555 1_555
C16 C15 1_555 1_555
H26 C16 1_555 1_555
C17 C16 1_555 1_555
C18 C17 1_555 1_555
C19 N2 1_555 1_555
C20 C19 1_555 1_555
C21 C20 1_555 1_555
H27 C21 1_555 1_555
C22 C21 1_555 1_555
H28 C22 1_555 1_555
C23 C22 1_555 1_555
C24 N1 1_555 1_555
C25 C14 1_555 1_555
C26 C17 1_555 1_555
C27 N2 1_555 1_555
H29 C27 1_555 1_555
C28 C27 1_555 1_555
H30 C28 1_555 1_555
H31 C28 1_555 1_555
C29 C28 1_555 1_555
H32 C29 1_555 1_555
H33 C29 1_555 1_555
C30 C29 1_555 1_555
H34 C30 1_555 1_555
H35 C30 1_555 1_555
C31 C30 1_555 1_555
H36 C31 1_555 1_555
H37 C31 1_555 1_555
C32 C27 1_555 1_555
H38 C32 1_555 1_555
C33 N3 1_555 1_555
C34 C33 1_555 1_555
C35 C34 1_555 1_555
H39 C35 1_555 1_555
C36 C35 1_555 1_555
H40 C36 1_555 1_555
C37 C36 1_555 1_555
C38 C37 1_555 1_555
C39 N4 1_555 1_555
C40 C39 1_555 1_555
C41 C40 1_555 1_555
H41 C41 1_555 1_555
C42 C41 1_555 1_555
H42 C42 1_555 1_555
C43 C42 1_555 1_555
C44 N3 1_555 1_555
C45 C34 1_555 1_555
C46 C37 1_555 1_555
C47 N4 1_555 1_555
H43 C47 1_555 1_555
C48 C47 1_555 1_555
H44 C48 1_555 1_555
H45 C48 1_555 1_555
C49 C48 1_555 1_555
H46 C49 1_555 1_555
H47 C49 1_555 1_555
C50 C49 1_555 1_555
H48 C50 1_555 1_555
H49 C50 1_555 1_555
C51 C50 1_555 1_555
H50 C51 1_555 1_555
H51 C51 1_555 1_555
C52 C47 1_555 1_555
H52 C52 1_555 1_555
C53 N5 1_555 1_555
C54 C53 1_555 1_555
C55 C54 1_555 1_555
H53 C55 1_555 1_555
C56 C55 1_555 1_555
H54 C56 1_555 1_555
C57 C56 1_555 1_555
C58 C57 1_555 1_555
C59 N6 1_555 1_555
C60 C59 1_555 1_555
C61 C60 1_555 1_555
H55 C61 1_555 1_555
C62 C61 1_555 1_555
H56 C62 1_555 1_555
C63 C62 1_555 1_555
C64 N5 1_555 1_555
C65 C54 1_555 1_555
C66 C57 1_555 1_555
C67 N6 1_555 1_555
H57 C67 1_555 1_555
C68 C67 1_555 1_555
H58 C68 1_555 1_555
H59 C68 1_555 1_555
C69 C68 1_555 1_555
H60 C69 1_555 1_555
H61 C69 1_555 1_555
C70 C69 1_555 1_555
H62 C70 1_555 1_555
H63 C70 1_555 1_555
C71 C70 1_555 1_555
H64 C71 1_555 1_555
H65 C71 1_555 1_555
C72 N1 1_555 1_555
H66 C72 1_555 1_555
O13 C74 1_555 1_555
O14 C79 1_555 1_555
O15 C80 1_555 1_555
O16 C85 1_555 1_555
O17 C94 1_555 1_555
O18 C99 1_555 1_555
O19 C100 1_555 1_555
O20 C73 1_555 1_555
O21 C113 1_555 1_555
O22 C118 1_555 1_555
O23 C119 1_555 1_555
O24 C124 1_555 1_555
N7 C74 1_555 1_555
N8 C79 1_555 1_555
N9 C73 1_555 1_555
N10 C99 1_555 1_555
N11 C112 1_555 1_555
N12 C118 1_555 1_555
C73 C104 1_555 1_555
C74 C75 1_555 1_555
C75 C76 1_555 1_555
C76 H67 1_555 1_555
C77 C76 1_555 1_555
H68 C77 1_555 1_555
C78 C77 1_555 1_555
C79 C78 1_555 1_555
C80 N8 1_555 1_555
C81 C80 1_555 1_555
C82 C81 1_555 1_555
H69 C82 1_555 1_555
C83 C82 1_555 1_555
H70 C83 1_555 1_555
C84 C83 1_555 1_555
C85 N7 1_555 1_555
C86 C75 1_555 1_555
C87 C78 1_555 1_555
C88 N8 1_555 1_555
H71 C88 1_555 1_555
C89 C88 1_555 1_555
H72 C89 1_555 1_555
H73 C89 1_555 1_555
C90 C89 1_555 1_555
H74 C90 1_555 1_555
H75 C90 1_555 1_555
C91 C90 1_555 1_555
H76 C91 1_555 1_555
H77 C91 1_555 1_555
C92 C91 1_555 1_555
H78 C92 1_555 1_555
H79 C92 1_555 1_555
C93 N9 1_555 1_555
H80 C93 1_555 1_555
C94 N9 1_555 1_555
C95 C94 1_555 1_555
C96 C95 1_555 1_555
H81 C96 1_555 1_555
C97 C96 1_555 1_555
H82 C97 1_555 1_555
C98 C97 1_555 1_555
C99 C98 1_555 1_555
C100 N10 1_555 1_555
C101 C100 1_555 1_555
C102 C101 1_555 1_555
H83 C102 1_555 1_555
C103 C102 1_555 1_555
H84 C103 1_555 1_555
C104 C103 1_555 1_555
C105 C95 1_555 1_555
C106 C98 1_555 1_555
C107 N10 1_555 1_555
H85 C107 1_555 1_555
C108 C107 1_555 1_555
H86 C108 1_555 1_555
H87 C108 1_555 1_555
C109 C108 1_555 1_555
H88 C109 1_555 1_555
H89 C109 1_555 1_555
C110 C109 1_555 1_555
H90 C110 1_555 1_555
H91 C110 1_555 1_555
C111 C110 1_555 1_555
H92 C111 1_555 1_555
H93 C111 1_555 1_555
C112 C107 1_555 1_555
H94 C112 1_555 1_555
C113 N11 1_555 1_555
C114 C113 1_555 1_555
C115 C114 1_555 1_555
H95 C115 1_555 1_555
C116 C115 1_555 1_555
H96 C116 1_555 1_555
C117 C116 1_555 1_555
C118 C117 1_555 1_555
C119 N12 1_555 1_555
C120 C119 1_555 1_555
C121 C120 1_555 1_555
H97 C121 1_555 1_555
C122 C121 1_555 1_555
H98 C122 1_555 1_555
C123 C122 1_555 1_555
C124 N11 1_555 1_555
C125 C114 1_555 1_555
C126 C117 1_555 1_555
C127 N12 1_555 1_555
H99 C127 1_555 1_555
C128 C127 1_555 1_555
H100 C128 1_555 1_555
H101 C128 1_555 1_555
C129 C128 1_555 1_555
H102 C129 1_555 1_555
H103 C129 1_555 1_555
C130 C129 1_555 1_555
H104 C130 1_555 1_555
H105 C130 1_555 1_555
C131 C130 1_555 1_555
H106 C131 1_555 1_555
H107 C131 1_555 1_555
C132 N7 1_555 1_555
H108 C132 1_555 1_555
C20 C26 1_555 1_555
C23 C24 1_555 1_555
C23 C25 1_555 1_555
C25 C26 1_555 1_555
C31 C32 1_555 1_555
C40 C46 1_555 1_555
C43 C44 1_555 1_555
C43 C45 1_555 1_555
C45 C46 1_555 1_555
C51 C52 1_555 1_555
C60 C66 1_555 1_555
C63 C64 1_555 1_555
C63 C65 1_555 1_555
C65 C66 1_555 1_555
C67 C72 1_555 1_555
C71 C72 1_555 1_555
C81 C87 1_555 1_555
C84 C85 1_555 1_555
C84 C86 1_555 1_555
C86 C87 1_555 1_555
C88 C93 1_555 1_555
C92 C93 1_555 1_555
C101 C106 1_555 1_555
C104 C105 1_555 1_555
C105 C106 1_555 1_555
C111 C112 1_555 1_555
C120 C126 1_555 1_555
C123 C124 1_555 1_555
C123 C125 1_555 1_555
C125 C126 1_555 1_555
C127 C132 1_555 1_555
C131 C132 1_555 1_555

#END
