
#######################################################################
#
#                 Cambridge Crystallographic Data Centre
#                                CCDC 
#
#######################################################################
#
# If this CIF has been generated from an entry in the Cambridge 
# Structural Database, then it will include bibliographic, chemical, 
# crystal, experimental, refinement or atomic coordinate data resulting 
# from the CCDC's data processing and validation procedures.
#
#######################################################################

data_NUXTOQ
_chemical_formula_moiety         'C33 H20 O2,C3 H6 O1'
_chemical_name_systematic        
'2-(4-(9-Anthryl)phenyl)-3H-benzo[f]chromen-3-one acetone solvate'
_symmetry_cell_setting           monoclinic
_symmetry_space_group_name_H-M   'P 21/n'
_symmetry_Int_Tables_number      14
_space_group_name_Hall           '-P 2yn'
loop_
_symmetry_equiv_pos_site_id
_symmetry_equiv_pos_as_xyz
1 x,y,z
2 1/2-x,1/2+y,1/2-z
3 -x,-y,-z
4 1/2+x,1/2-y,1/2+z
_cell_length_a                   13.391(3)
_cell_length_b                   9.496(2)
_cell_length_c                   22.157(5)
_cell_angle_alpha                90
_cell_angle_beta                 106.957(4)
_cell_angle_gamma                90
_cell_volume                     2695.01
_exptl_crystal_colour            yellow
_exptl_crystal_description       plate
_chemical_melting_point          'above 250deg.C'
_cell_formula_units_Z            4
_exptl_crystal_recrystallization_method acetone
loop_
_atom_site_label
_atom_site_type_symbol
_atom_site_fract_x
_atom_site_fract_y
_atom_site_fract_z
C1 C 1.05144(17) 0.8224(2) 0.07548(12)
C2 C 1.12743(19) 0.9264(2) 0.09860(14)
H1 H 1.1469 0.9869 0.0710
C3 C 1.1718(2) 0.9372(3) 0.16124(15)
H2 H 1.2227 1.0056 0.1764
C4 C 1.14376(18) 0.8481(2) 0.20492(13)
C5 C 1.1895(2) 0.8599(3) 0.27041(14)
H3 H 1.2402 0.9283 0.2859
C6 C 1.1615(2) 0.7740(3) 0.31139(14)
H4 H 1.1926 0.7838 0.3546
C7 C 1.0859(2) 0.6709(3) 0.28868(12)
H5 H 1.0666 0.6120 0.3169
C8 C 1.03982(18) 0.6554(3) 0.22540(11)
H6 H 0.9899 0.5854 0.2111
C9 C 1.06657(16) 0.7437(2) 0.18146(11)
C10 C 1.01909(15) 0.7328(2) 0.11445(10)
C11 C 0.93881(16) 0.6337(2) 0.08492(10)
H7 H 0.9152 0.5721 0.1104
C12 C 0.89621(16) 0.6261(2) 0.02198(10)
C13 C 0.93593(19) 0.7180(2) -0.01838(12)
C14 C 0.80811(16) 0.5299(2) -0.00749(10)
C15 C 0.79547(17) 0.4650(2) -0.06527(10)
H8 H 0.8432 0.4827 -0.0876
C16 C 0.71312(18) 0.3745(2) -0.09017(10)
H9 H 0.7067 0.3316 -0.1288
C17 C 0.63976(16) 0.3463(2) -0.05884(10)
C18 C 0.65204(18) 0.4118(2) -0.00160(11)
H10 H 0.6035 0.3952 0.0203
C19 C 0.73424(18) 0.5010(2) 0.02388(10)
H11 H 0.7407 0.5429 0.0628
C20 C 0.54942(17) 0.2502(2) -0.08606(10)
C21 C 0.55929(18) 0.1053(2) -0.07205(10)
C22 C 0.6531(2) 0.0443(2) -0.03412(12)
H12 H 0.7113 0.1010 -0.0178
C23 C 0.6593(2) -0.0968(3) -0.02105(13)
H13 H 0.7217 -0.1350 0.0038
C24 C 0.5725(3) -0.1840(3) -0.04477(16)
H14 H 0.5775 -0.2797 -0.0354
C25 C 0.4826(3) -0.1311(3) -0.08076(14)
H15 H 0.4259 -0.1910 -0.0961
C26 C 0.4711(2) 0.0145(2) -0.09631(11)
C27 C 0.3788(2) 0.0711(3) -0.13308(12)
H16 H 0.3219 0.0118 -0.1488
C28 C 0.36739(19) 0.2141(3) -0.14768(11)
C29 C 0.2716(2) 0.2725(4) -0.18557(12)
H17 H 0.2141 0.2139 -0.2009
C30 C 0.2623(2) 0.4114(4) -0.19972(13)
H18 H 0.1992 0.4475 -0.2246
C31 C 0.3488(2) 0.5011(3) -0.17658(12)
H19 H 0.3422 0.5964 -0.1867
C32 C 0.4412(2) 0.4514(2) -0.14004(11)
H20 H 0.4968 0.5132 -0.1253
C33 C 0.45533(18) 0.3053(2) -0.12348(10)
O1 O 1.01111(13) 0.81469(15) 0.01123(8)
O2 O 0.90930(15) 0.72075(19) -0.07527(9)
C34 C 0.8943(3) 0.1193(5) 0.1357(2)
H21 H 0.8256 0.1397 0.1087
H22 H 0.8916 0.0374 0.1606
H23 H 0.9404 0.1019 0.1105
C35 C 0.9330(3) 0.2398(4) 0.17764(17)
C36 C 1.0327(3) 0.2255(4) 0.22468(17)
H24 H 1.0873 0.2276 0.2046
H25 H 1.0350 0.1377 0.2465
H26 H 1.0422 0.3018 0.2543
O3 O 0.8846(2) 0.3468(3) 0.17153(14)
loop_
_geom_bond_atom_site_label_1
_geom_bond_atom_site_label_2
_geom_bond_site_symmetry_1
_geom_bond_site_symmetry_2
C1 C2 1_555 1_555
C2 H1 1_555 1_555
C3 C2 1_555 1_555
H2 C3 1_555 1_555
C4 C3 1_555 1_555
C5 C4 1_555 1_555
H3 C5 1_555 1_555
C6 C5 1_555 1_555
H4 C6 1_555 1_555
C7 C6 1_555 1_555
H5 C7 1_555 1_555
C8 C7 1_555 1_555
H6 C8 1_555 1_555
C9 C4 1_555 1_555
C10 C1 1_555 1_555
C11 C10 1_555 1_555
H7 C11 1_555 1_555
C12 C11 1_555 1_555
C13 C12 1_555 1_555
C14 C12 1_555 1_555
C15 C14 1_555 1_555
H8 C15 1_555 1_555
C16 C15 1_555 1_555
H9 C16 1_555 1_555
C17 C16 1_555 1_555
C18 C17 1_555 1_555
H10 C18 1_555 1_555
C19 C14 1_555 1_555
H11 C19 1_555 1_555
C20 C17 1_555 1_555
C21 C20 1_555 1_555
C22 C21 1_555 1_555
H12 C22 1_555 1_555
C23 C22 1_555 1_555
H13 C23 1_555 1_555
C24 C23 1_555 1_555
H14 C24 1_555 1_555
C25 C24 1_555 1_555
H15 C25 1_555 1_555
C26 C21 1_555 1_555
C27 C26 1_555 1_555
H16 C27 1_555 1_555
C28 C27 1_555 1_555
C29 C28 1_555 1_555
H17 C29 1_555 1_555
C30 C29 1_555 1_555
H18 C30 1_555 1_555
C31 C30 1_555 1_555
H19 C31 1_555 1_555
C32 C31 1_555 1_555
H20 C32 1_555 1_555
C33 C20 1_555 1_555
O1 C1 1_555 1_555
O2 C13 1_555 1_555
C34 H21 1_555 1_555
H22 C34 1_555 1_555
H23 C34 1_555 1_555
C35 C34 1_555 1_555
C36 C35 1_555 1_555
H24 C36 1_555 1_555
H25 C36 1_555 1_555
H26 C36 1_555 1_555
O3 C35 1_555 1_555
C8 C9 1_555 1_555
C9 C10 1_555 1_555
C13 O1 1_555 1_555
C18 C19 1_555 1_555
C25 C26 1_555 1_555
C28 C33 1_555 1_555
C32 C33 1_555 1_555

#END
