
#######################################################################
#
#                 Cambridge Crystallographic Data Centre
#                                CCDC 
#
#######################################################################
#
# If this CIF has been generated from an entry in the Cambridge 
# Structural Database, then it will include bibliographic, chemical, 
# crystal, experimental, refinement or atomic coordinate data resulting 
# from the CCDC's data processing and validation procedures.
#
#######################################################################

data_NUXXIO
_chemical_formula_moiety         'C42 H40 N4'
_chemical_name_systematic        
3,3'-(Piperazine-1,4-diylbis(methylene))bis(N,N-diphenylaniline)
_symmetry_cell_setting           monoclinic
_symmetry_space_group_name_H-M   'P 21/n'
_symmetry_Int_Tables_number      14
_space_group_name_Hall           '-P 2yn'
loop_
_symmetry_equiv_pos_site_id
_symmetry_equiv_pos_as_xyz
1 x,y,z
2 1/2-x,1/2+y,1/2-z
3 -x,-y,-z
4 1/2+x,1/2-y,1/2+z
_cell_length_a                   9.8004(12)
_cell_length_b                   13.3321(17)
_cell_length_c                   12.9575(16)
_cell_angle_alpha                90
_cell_angle_beta                 103.510(2)
_cell_angle_gamma                90
_cell_volume                     1646.18
_cell_formula_units_Z            2
loop_
_atom_site_label
_atom_site_type_symbol
_atom_site_fract_x
_atom_site_fract_y
_atom_site_fract_z
N1 N 0.05584(17) 0.02020(13) 0.90920(12)
N2 N 0.57032(19) 0.17575(14) 0.77289(14)
C1 C 0.4713(2) 0.09903(17) 0.78384(16)
C2 C 0.4013(2) -0.07266(19) 0.78030(18)
C3 C 0.2756(3) -0.04550(19) 0.80310(17)
C4 C 0.2465(2) 0.05426(16) 0.81737(15)
C5 C 0.3451(2) 0.12587(18) 0.80825(16)
C6 C 0.1069(2) 0.08671(19) 0.83691(19)
C7 C 0.1420(2) 0.02862(19) 1.01734(17)
C8 C 0.6006(2) 0.25251(17) 0.85057(16)
C9 C 0.6259(2) 0.17642(16) 0.68291(16)
C10 C 0.6282(2) 0.22793(19) 0.95721(19)
C11 C -0.0897(2) 0.0438(2) 0.91051(19)
C12 C 0.4996(3) -0.00134(19) 0.77117(17)
C13 C 0.7617(3) 0.21542(18) 0.6898(2)
C14 C 0.5543(3) 0.13840(19) 0.58789(19)
C15 C 0.7453(4) 0.1736(2) 0.5071(2)
C16 C 0.6323(3) 0.4256(2) 0.8985(2)
C17 C 0.8176(3) 0.2145(2) 0.6013(2)
C18 C 0.6580(3) 0.3028(2) 1.0332(2)
C19 C 0.6012(3) 0.3524(2) 0.8218(2)
C20 C 0.6125(3) 0.1359(2) 0.5002(2)
C21 C 0.6589(3) 0.4016(2) 1.0045(2)
H1 H 0.113(2) 0.1607(17) 0.8589(15)
H2 H -0.100(2) 0.1161(16) 0.9339(15)
H3 H 0.240(2) 0.0094(14) 1.0146(15)
H4 H 0.585(2) -0.0246(14) 0.7564(15)
H5 H 0.425(2) -0.1440(17) 0.7705(17)
H6 H 0.325(2) 0.1954(16) 0.8147(15)
H7 H -0.148(2) 0.0379(15) 0.8374(18)
H8 H 0.457(3) 0.1097(18) 0.5776(17)
H9 H 0.032(2) 0.0826(15) 0.7657(17)
H10 H 0.144(2) 0.1022(17) 1.0464(16)
H11 H 0.211(2) -0.0940(16) 0.8111(15)
H12 H 0.579(3) 0.3660(18) 0.750(2)
H13 H 0.677(2) 0.4582(18) 1.0586(19)
H14 H 0.813(2) 0.2486(17) 0.7620(17)
H15 H 0.682(2) 0.2825(17) 1.1104(19)
H16 H 0.630(2) 0.1550(18) 0.9796(17)
H17 H 0.923(3) 0.241(2) 0.613(2)
H18 H 0.636(3) 0.493(2) 0.878(2)
H19 H 0.565(3) 0.108(2) 0.427(2)
H20 H 0.785(3) 0.1663(19) 0.441(2)
N1B N -0.05584(17) -0.02020(13) 1.09080(12)
N2B N -0.57032(19) -0.17575(14) 1.22711(14)
C1B C -0.4713(2) -0.09903(17) 1.21616(16)
C2B C -0.4013(2) 0.07266(19) 1.21970(18)
C3B C -0.2756(3) 0.04550(19) 1.19690(17)
C4B C -0.2465(2) -0.05426(16) 1.18263(15)
C5B C -0.3451(2) -0.12587(18) 1.19175(16)
C6B C -0.1069(2) -0.08671(19) 1.16309(19)
C7B C -0.1420(2) -0.02862(19) 0.98266(17)
C8B C -0.6006(2) -0.25251(17) 1.14943(16)
C9B C -0.6259(2) -0.17642(16) 1.31709(16)
C10B C -0.6282(2) -0.22793(19) 1.04279(19)
C11B C 0.0897(2) -0.0438(2) 1.08949(19)
C12B C -0.4996(3) 0.00134(19) 1.22883(17)
C13B C -0.7617(3) -0.21542(18) 1.3102(2)
C14B C -0.5543(3) -0.13840(19) 1.41211(19)
C15B C -0.7453(4) -0.1736(2) 1.4929(2)
C16B C -0.6323(3) -0.4256(2) 1.1015(2)
C17B C -0.8176(3) -0.2145(2) 1.3987(2)
C18B C -0.6580(3) -0.3028(2) 0.9668(2)
C19B C -0.6012(3) -0.3524(2) 1.1782(2)
C20B C -0.6125(3) -0.1359(2) 1.4998(2)
C21B C -0.6589(3) -0.4016(2) 0.9955(2)
H1B H -0.113(2) -0.1607(17) 1.1411(15)
H2B H 0.100(2) -0.1161(16) 1.0661(15)
H3B H -0.240(2) -0.0094(14) 0.9854(15)
H4B H -0.585(2) 0.0246(14) 1.2436(15)
H5B H -0.425(2) 0.1440(17) 1.2295(17)
H6B H -0.325(2) -0.1954(16) 1.1853(15)
H7B H 0.148(2) -0.0379(15) 1.1626(18)
H8B H -0.457(3) -0.1097(18) 1.4224(17)
H9B H -0.032(2) -0.0826(15) 1.2343(17)
H10B H -0.144(2) -0.1022(17) 0.9536(16)
H11B H -0.211(2) 0.0940(16) 1.1889(15)
H12B H -0.579(3) -0.3660(18) 1.250(2)
H13B H -0.677(2) -0.4582(18) 0.9414(19)
H14B H -0.813(2) -0.2486(17) 1.2380(17)
H15B H -0.682(2) -0.2825(17) 0.8896(19)
H16B H -0.630(2) -0.1550(18) 1.0204(17)
H17B H -0.923(3) -0.241(2) 1.387(2)
H18B H -0.636(3) -0.493(2) 1.122(2)
H19B H -0.565(3) -0.108(2) 1.573(2)
H20B H -0.785(3) -0.1663(19) 1.559(2)
loop_
_geom_bond_atom_site_label_1
_geom_bond_atom_site_label_2
_geom_bond_site_symmetry_1
_geom_bond_site_symmetry_2
N1 C6 1_555 1_555
N2 C1 1_555 1_555
C1 C5 1_555 1_555
C2 C3 1_555 1_555
C3 C4 1_555 1_555
C4 C5 1_555 1_555
C5 H6 1_555 1_555
C6 C4 1_555 1_555
C7 N1 1_555 1_555
C8 N2 1_555 1_555
C9 N2 1_555 1_555
C10 C8 1_555 1_555
C11 N1 1_555 1_555
C12 C1 1_555 1_555
C13 C9 1_555 1_555
C14 C9 1_555 1_555
C15 C17 1_555 1_555
C16 C19 1_555 1_555
C17 C13 1_555 1_555
C18 C10 1_555 1_555
C19 C8 1_555 1_555
C20 C14 1_555 1_555
C21 C16 1_555 1_555
H1 C6 1_555 1_555
H2 C11 1_555 1_555
H3 C7 1_555 1_555
H4 C12 1_555 1_555
H5 C2 1_555 1_555
H7 C11 1_555 1_555
H8 C14 1_555 1_555
H9 C6 1_555 1_555
H10 C7 1_555 1_555
H11 C3 1_555 1_555
H12 C19 1_555 1_555
H13 C21 1_555 1_555
H14 C13 1_555 1_555
H15 C18 1_555 1_555
H16 C10 1_555 1_555
H17 C17 1_555 1_555
H18 C16 1_555 1_555
H19 C20 1_555 1_555
H20 C15 1_555 1_555
N1B C6B 1_555 1_555
N2B C1B 1_555 1_555
C1B C5B 1_555 1_555
C2B C3B 1_555 1_555
C3B C4B 1_555 1_555
C4B C5B 1_555 1_555
C5B H6B 1_555 1_555
C6B C4B 1_555 1_555
C7B C11 1_555 1_555
C8B N2B 1_555 1_555
C9B N2B 1_555 1_555
C10B C8B 1_555 1_555
C11B C7 1_555 1_555
C12B C1B 1_555 1_555
C13B C9B 1_555 1_555
C14B C9B 1_555 1_555
C15B C17B 1_555 1_555
C16B C19B 1_555 1_555
C17B C13B 1_555 1_555
C18B C10B 1_555 1_555
C19B C8B 1_555 1_555
C20B C14B 1_555 1_555
C21B C16B 1_555 1_555
H1B C6B 1_555 1_555
H2B C11B 1_555 1_555
H3B C7B 1_555 1_555
H4B C12B 1_555 1_555
H5B C2B 1_555 1_555
H7B C11B 1_555 1_555
H8B C14B 1_555 1_555
H9B C6B 1_555 1_555
H10B C7B 1_555 1_555
H11B C3B 1_555 1_555
H12B C19B 1_555 1_555
H13B C21B 1_555 1_555
H14B C13B 1_555 1_555
H15B C18B 1_555 1_555
H16B C10B 1_555 1_555
H17B C17B 1_555 1_555
H18B C16B 1_555 1_555
H19B C20B 1_555 1_555
H20B C15B 1_555 1_555
C2 C12 1_555 1_555
C15 C20 1_555 1_555
C18 C21 1_555 1_555
N1B C7B 1_555 1_555
N1B C11B 1_555 1_555
C2B C12B 1_555 1_555
C15B C20B 1_555 1_555
C18B C21B 1_555 1_555

#END
