
#######################################################################
#
#                 Cambridge Crystallographic Data Centre
#                                CCDC 
#
#######################################################################
#
# If this CIF has been generated from an entry in the Cambridge 
# Structural Database, then it will include bibliographic, chemical, 
# crystal, experimental, refinement or atomic coordinate data resulting 
# from the CCDC's data processing and validation procedures.
#
#######################################################################

data_NUYBOA
_chemical_formula_moiety         'C16 H22 B10 O1 S1'
_chemical_name_systematic        
1,3-(2-benzoyl-3-sulfidobicyclo[2.2.1]hept-5-en-4-yl)-1,2-dicarba-closo-dodecaborane
_symmetry_cell_setting           monoclinic
_symmetry_space_group_name_H-M   'P 21/c'
_symmetry_Int_Tables_number      14
_space_group_name_Hall           '-P 2ybc'
loop_
_symmetry_equiv_pos_site_id
_symmetry_equiv_pos_as_xyz
1 x,y,z
2 -x,1/2+y,1/2-z
3 -x,-y,-z
4 x,1/2-y,1/2+z
_cell_length_a                   11.012(2)
_cell_length_b                   11.929(2)
_cell_length_c                   15.630(3)
_cell_angle_alpha                90
_cell_angle_beta                 108.286(2)
_cell_angle_gamma                90
_cell_volume                     1949.51
_exptl_crystal_colour            colorless
_exptl_crystal_description       block
_cell_formula_units_Z            4
loop_
_atom_site_label
_atom_site_type_symbol
_atom_site_fract_x
_atom_site_fract_y
_atom_site_fract_z
S1 S 0.80864(5) 0.69750(5) 0.14184(3)
O1 O 1.09365(16) 0.48799(13) 0.10822(11)
B1 B 0.8704(2) 0.6341(2) 0.32542(17)
B2 B 0.8277(3) 0.6928(2) 0.41758(17)
H1 H 0.8882 0.7240 0.4706
B3 B 0.6798(2) 0.7649(3) 0.3708(2)
H2 H 0.6669 0.8320 0.4007
B4 B 0.6328(2) 0.7516(2) 0.25118(19)
H3 H 0.5878 0.8087 0.2101
B5 B 0.6041(2) 0.6072(2) 0.22488(17)
H4 H 0.5431 0.5833 0.1693
B6 B 0.7511(2) 0.5347(2) 0.27193(16)
H5 H 0.7710 0.4685 0.2441
B7 B 0.8008(2) 0.5488(2) 0.39053(17)
H6 H 0.8479 0.4913 0.4302
B8 B 0.6814(3) 0.6303(3) 0.41757(19)
H7 H 0.6617 0.6186 0.4726
B9 B 0.5610(3) 0.6672(3) 0.31433(19)
H8 H 0.4732 0.6766 0.3114
B10 B 0.6347(2) 0.5326(2) 0.32785(17)
H9 H 0.5887 0.4656 0.3321
C1 C 0.78920(17) 0.75803(18) 0.31713(13)
H10 H 0.8319 0.8258 0.3098
C2 C 0.74821(18) 0.66688(17) 0.23281(13)
C3 C 0.99764(19) 0.63487(17) 0.29963(13)
C4 C 1.08081(18) 0.74159(19) 0.31131(14)
H11 H 1.0337 0.8058 0.2795
H12 H 1.1233 0.7603 0.3740
C5 C 1.1721(2) 0.69157(18) 0.26473(14)
H13 H 1.2457 0.7383 0.2656
C6 C 1.2032(2) 0.5806(2) 0.31276(14)
H14 H 1.2803 0.5423 0.3253
C7 C 1.1014(2) 0.5473(2) 0.33399(14)
H15 H 1.0948 0.4818 0.3645
C8 C 0.95823(18) 0.62052(17) 0.19384(13)
H16 H 0.9463 0.5409 0.1779
C9 C 1.07329(19) 0.66770(18) 0.16842(14)
H17 H 1.0490 0.7384 0.1355
C10 C 1.1234(2) 0.58662(18) 0.11282(14)
C11 C 1.21420(19) 0.62867(18) 0.06563(13)
C12 C 1.2622(2) 0.73647(19) 0.07499(14)
H18 H 1.2358 0.7878 0.1104
C13 C 1.3494(2) 0.7689(2) 0.03205(15)
H19 H 1.3806 0.8419 0.0380
C14 C 1.3895(2) 0.6924(2) -0.01954(15)
H20 H 1.4494 0.7135 -0.0473
C15 C 1.3413(2) 0.5849(2) -0.03006(14)
H21 H 1.3680 0.5337 -0.0653
C16 C 1.2535(2) 0.5532(2) 0.01164(13)
H22 H 1.2203 0.4809 0.0037
loop_
_geom_bond_atom_site_label_1
_geom_bond_atom_site_label_2
_geom_bond_site_symmetry_1
_geom_bond_site_symmetry_2
S1 C2 1_555 1_555
O1 C10 1_555 1_555
B1 B2 1_555 1_555
B2 H1 1_555 1_555
B3 B2 1_555 1_555
H2 B3 1_555 1_555
B4 B3 1_555 1_555
H3 B4 1_555 1_555
B5 B4 1_555 1_555
H4 B5 1_555 1_555
B6 B1 1_555 1_555
H5 B6 1_555 1_555
B7 B1 1_555 1_555
H6 B7 1_555 1_555
B8 B2 1_555 1_555
H7 B8 1_555 1_555
B9 B3 1_555 1_555
H8 B9 1_555 1_555
B10 B5 1_555 1_555
H9 B10 1_555 1_555
C1 B1 1_555 1_555
H10 C1 1_555 1_555
C2 B1 1_555 1_555
C3 B1 1_555 1_555
C4 C3 1_555 1_555
H11 C4 1_555 1_555
H12 C4 1_555 1_555
C5 C4 1_555 1_555
H13 C5 1_555 1_555
C6 C5 1_555 1_555
H14 C6 1_555 1_555
C7 C3 1_555 1_555
H15 C7 1_555 1_555
C8 S1 1_555 1_555
H16 C8 1_555 1_555
C9 C5 1_555 1_555
H17 C9 1_555 1_555
C10 C9 1_555 1_555
C11 C10 1_555 1_555
C12 C11 1_555 1_555
H18 C12 1_555 1_555
C13 C12 1_555 1_555
H19 C13 1_555 1_555
C14 C13 1_555 1_555
H20 C14 1_555 1_555
C15 C14 1_555 1_555
H21 C15 1_555 1_555
C16 C11 1_555 1_555
H22 C16 1_555 1_555
B2 B7 1_555 1_555
B2 C1 1_555 1_555
B3 B8 1_555 1_555
B3 C1 1_555 1_555
B4 B9 1_555 1_555
B4 C1 1_555 1_555
B4 C2 1_555 1_555
B5 B6 1_555 1_555
B5 B9 1_555 1_555
B5 C2 1_555 1_555
B6 B7 1_555 1_555
B6 B10 1_555 1_555
B6 C2 1_555 1_555
B7 B8 1_555 1_555
B7 B10 1_555 1_555
B8 B9 1_555 1_555
B8 B10 1_555 1_555
B9 B10 1_555 1_555
C1 C2 1_555 1_555
C3 C8 1_555 1_555
C6 C7 1_555 1_555
C8 C9 1_555 1_555
C15 C16 1_555 1_555

#END
