
#######################################################################
#
#                 Cambridge Crystallographic Data Centre
#                                CCDC 
#
#######################################################################
#
# If this CIF has been generated from an entry in the Cambridge 
# Structural Database, then it will include bibliographic, chemical, 
# crystal, experimental, refinement or atomic coordinate data resulting 
# from the CCDC's data processing and validation procedures.
#
#######################################################################

data_NUYDAO
_chemical_name_common            
2,3-Dimethyl-7-((4-methylphenyl)sulfonyl)-7H-[1,4]dithiino[2',3':5,6][1,4]dithiino[2,3-c]pyrrole
_chemical_formula_moiety         'C17 H15 N1 O2 S5'
_chemical_name_systematic        
11,12-Dimethyl-5-(4-methylbenzenesulfonyl)-2,8,10,13-tetrathia-5-azatricyclo[7.4.0.03,7]trideca-1(9),3,6,11-tetraene
_symmetry_cell_setting           triclinic
_symmetry_space_group_name_H-M   'P -1'
_symmetry_Int_Tables_number      2
_space_group_name_Hall           '-P 1'
loop_
_symmetry_equiv_pos_site_id
_symmetry_equiv_pos_as_xyz
1 x,y,z
2 -x,-y,-z
_cell_length_a                   8.9673(14)
_cell_length_b                   9.3214(15)
_cell_length_c                   11.9354(19)
_cell_angle_alpha                107.566(2)
_cell_angle_beta                 103.414(2)
_cell_angle_gamma                92.688(2)
_cell_volume                     917.804
_exptl_crystal_colour            yellow
_exptl_crystal_description       block
_chemical_melting_point          '513 K'
_cell_formula_units_Z            2
_exptl_crystal_recrystallization_method dichloromethane/cyclohexane
loop_
_atom_site_label
_atom_site_type_symbol
_atom_site_fract_x
_atom_site_fract_y
_atom_site_fract_z
S1 S -0.41568(3) 0.29916(3) 0.15848(2)
O1 O -0.46048(10) 0.39971(11) 0.25816(8)
S2 S 0.15909(3) 0.27877(3) 0.43810(2)
O2 O -0.51634(10) 0.16760(10) 0.07594(9)
S3 S 0.23837(3) 0.09608(3) 0.60558(2)
S4 S 0.13780(3) -0.20992(3) 0.38519(2)
S5 S 0.06568(3) -0.04026(3) 0.20833(2)
N1 N -0.25808(11) 0.23134(11) 0.22118(9)
C1 C -0.21374(14) 0.56603(15) -0.04283(11)
C2 C -0.24854(15) 0.63989(14) 0.06632(12)
H1 H -0.2280 0.7473 0.0992
C3 C -0.31294(14) 0.55905(13) 0.12824(10)
H2 H -0.3355 0.6102 0.2031
C4 C -0.34347(12) 0.40266(12) 0.07853(10)
C5 C -0.31119(16) 0.32524(14) -0.03121(11)
H3 H -0.3332 0.2179 -0.0645
C6 C -0.24629(17) 0.40823(16) -0.09055(12)
H4 H -0.2234 0.3568 -0.1652
C7 C -0.14322(17) 0.6532(2) -0.10961(15)
H5 H -0.1351 0.7623 -0.0670
H6 H -0.2087 0.6294 -0.1926
H7 H -0.0400 0.6248 -0.1126
C8 C -0.14284(13) 0.31769(13) 0.32271(10)
H8 H -0.1488 0.4141 0.3773
C9 C -0.01909(12) 0.23701(12) 0.32884(10)
C10 C 0.17129(12) 0.09729(12) 0.45575(10)
C11 C 0.36046(12) -0.05043(13) 0.58854(10)
C12 C 0.31812(12) -0.18040(13) 0.49554(10)
C13 C 0.13062(12) -0.03288(12) 0.36187(10)
C14 C -0.05923(13) 0.09884(12) 0.22853(10)
C15 C -0.20700(13) 0.09720(12) 0.16261(10)
H9 H -0.2635 0.0196 0.0909
C16 C 0.50792(13) -0.01032(15) 0.68857(11)
H10 H 0.4835 0.0216 0.7677
H11 H 0.5724 0.0727 0.6815
H12 H 0.5639 -0.0991 0.6817
C17 C 0.40921(14) -0.31340(14) 0.47046(12)
H13 H 0.4905 -0.3048 0.5438
H14 H 0.4562 -0.3138 0.4040
H15 H 0.3400 -0.4080 0.4473
H16? H -0.1208 0.5820 -0.1812
H17? H -0.0472 0.7149 -0.0556
H18? H -0.2159 0.7195 -0.1355
loop_
_geom_bond_atom_site_label_1
_geom_bond_atom_site_label_2
_geom_bond_site_symmetry_1
_geom_bond_site_symmetry_2
S1 O1 1_555 1_555
S2 C9 1_555 1_555
O2 S1 1_555 1_555
S3 C10 1_555 1_555
S4 C12 1_555 1_555
S5 C13 1_555 1_555
N1 S1 1_555 1_555
C1 C2 1_555 1_555
C2 H1 1_555 1_555
C3 C2 1_555 1_555
H2 C3 1_555 1_555
C4 S1 1_555 1_555
C5 C4 1_555 1_555
H3 C5 1_555 1_555
C6 C1 1_555 1_555
H4 C6 1_555 1_555
C7 C1 1_555 1_555
H5 C7 1_555 1_555
H6 C7 1_555 1_555
H7 C7 1_555 1_555
C8 N1 1_555 1_555
H8 C8 1_555 1_555
C9 C8 1_555 1_555
C10 S2 1_555 1_555
C11 S3 1_555 1_555
C12 C11 1_555 1_555
C13 S4 1_555 1_555
C14 S5 1_555 1_555
C15 N1 1_555 1_555
H9 C15 1_555 1_555
C16 C11 1_555 1_555
H10 C16 1_555 1_555
H11 C16 1_555 1_555
H12 C16 1_555 1_555
C17 C12 1_555 1_555
H13 C17 1_555 1_555
H14 C17 1_555 1_555
H15 C17 1_555 1_555
C3 C4 1_555 1_555
C5 C6 1_555 1_555
C9 C14 1_555 1_555
C10 C13 1_555 1_555
C14 C15 1_555 1_555

#END
