
#######################################################################
#
#                 Cambridge Crystallographic Data Centre
#                                CCDC 
#
#######################################################################
#
# If this CIF has been generated from an entry in the Cambridge 
# Structural Database, then it will include bibliographic, chemical, 
# crystal, experimental, refinement or atomic coordinate data resulting 
# from the CCDC's data processing and validation procedures.
#
#######################################################################

data_NUZCES
_chemical_formula_moiety         'C24 H38 N3 O2 1+,Br1 1-,C1 H2 Cl2'
_chemical_name_systematic        
'3-(2-(t-Butylamino)-2-oxoethyl)-1-(3,5-di-t-butyl-2-hydroxybenzyl)-1H-imidazol-3-ium bromide dichloromethane solvate'
_symmetry_cell_setting           monoclinic
_symmetry_space_group_name_H-M   'C 2/c'
_symmetry_Int_Tables_number      15
_space_group_name_Hall           '-C 2yn'
loop_
_symmetry_equiv_pos_site_id
_symmetry_equiv_pos_as_xyz
1 x,y,z
2 -x,y,1/2-z
3 1/2+x,1/2+y,z
4 1/2-x,1/2+y,1/2-z
5 -x,-y,-z
6 x,-y,1/2+z
7 1/2-x,1/2-y,-z
8 1/2+x,1/2-y,1/2+z
_cell_length_a                   30.648(11)
_cell_length_b                   16.049(6)
_cell_length_c                   12.059(4)
_cell_angle_alpha                90
_cell_angle_beta                 90.611(6)
_cell_angle_gamma                90
_cell_volume                     5931.12
_exptl_crystal_colour            colorless
_exptl_crystal_description       block
_cell_formula_units_Z            8
loop_
_atom_site_label
_atom_site_type_symbol
_atom_site_fract_x
_atom_site_fract_y
_atom_site_fract_z
Br1 Br 1.0000 0.54779(5) 0.7500
Br2 Br 0.0000 1.00513(5) 0.7500
N1 N 0.96070(12) 0.3061(2) 0.8464(3)
N2 N 0.98944(13) 0.2158(2) 0.9577(4)
N3 N 1.07225(13) 0.0653(2) 1.0341(3)
H1 H 1.0559 0.0403 1.0811
O1 O 0.8604(2) 0.2293(4) 0.7126(6)
H2 H 0.8842 0.2275 0.6823
O2 O 1.07177(12) 0.1710(2) 0.9077(3)
C1 C 1.11763(19) 0.0352(4) 1.0262(5)
C2 C 1.1180(3) -0.0480(5) 1.0905(7)
H3 H 1.1113 -0.0378 1.1669
H4 H 1.1464 -0.0730 1.0857
H5 H 1.0966 -0.0850 1.0589
C3 C 1.1287(2) 0.0171(4) 0.9048(5)
H6 H 1.1288 0.0683 0.8637
H7 H 1.1072 -0.0199 0.8736
H8 H 1.1569 -0.0084 0.9011
C4 C 1.1482(2) 0.0995(5) 1.0739(7)
H9 H 1.1467 0.1492 1.0298
H10 H 1.1774 0.0782 1.0738
H11 H 1.1399 0.1120 1.1486
C5 C 1.05391(17) 0.1269(3) 0.9766(4)
C6 C 1.00616(16) 0.1373(3) 1.0009(5)
H12 H 0.9900 0.0916 0.9677
H13 H 1.0019 0.1353 1.0804
C7 C 0.96786(15) 0.2257(3) 0.8631(4)
H14 H 0.9591 0.1830 0.8158
C8 C 0.99631(17) 0.2928(3) 1.0039(5)
H15 H 1.0108 0.3040 1.0705
C9 C 0.97824(17) 0.3492(3) 0.9349(5)
H16 H 0.9777 0.4066 0.9450
C10 C 0.93497(15) 0.3424(3) 0.7534(4)
H17 H 0.9348 0.3041 0.6912
H18 H 0.9484 0.3940 0.7297
C11 C 0.88898(16) 0.3589(3) 0.7890(4)
C12 C 0.85586(17) 0.3026(3) 0.7639(4)
C13 C 0.81323(18) 0.3178(3) 0.7987(4)
C14 C 0.80672(19) 0.3874(4) 0.8606(5)
H19 H 0.7786 0.3967 0.8863
C15 C 0.8377(2) 0.4449(3) 0.8885(4)
C16 C 0.87968(19) 0.4311(3) 0.8489(4)
C17 C 0.8281(3) 0.5186(4) 0.9641(6)
C18 C 0.8426(4) 0.5064(6) 1.0725(7)
H20 H 0.8739 0.5047 1.0743
H21 H 0.8312 0.4547 1.1001
H22 H 0.8326 0.5514 1.1182
C19 C 0.8314(4) 0.5967(4) 0.9074(8)
H23 H 0.8612 0.6059 0.8864
H24 H 0.8222 0.6408 0.9556
H25 H 0.8132 0.5958 0.8423
C20 C 0.7762(4) 0.5179(7) 0.9900(11)
H26 H 0.7692 0.5639 1.0376
H27 H 0.7686 0.4666 1.0261
H28 H 0.7599 0.5228 0.9218
C21 C 0.7759(2) 0.2584(4) 0.7674(6)
C22 C 0.7797(3) 0.1800(6) 0.8248(9)
H29 H 0.8068 0.1538 0.8060
H30 H 0.7559 0.1443 0.8034
H31 H 0.7790 0.1894 0.9034
C23 C 0.7724(4) 0.2504(7) 0.6453(8)
H32 H 0.7990 0.2275 0.6171
H33 H 0.7674 0.3043 0.6131
H34 H 0.7485 0.2141 0.6267
C24 C 0.7316(3) 0.2922(7) 0.8010(12)
H35 H 0.7093 0.2533 0.7795
H36 H 0.7265 0.3446 0.7648
H37 H 0.7312 0.2999 0.8799
C25 C 0.9063(3) 0.7086(5) 0.6930(7)
H39 H 0.8854 0.6949 0.7502
H40 H 0.9256 0.6613 0.6838
Cl1 Cl 0.93635(8) 0.79488(15) 0.73344(18)
Cl2 Cl 0.87826(7) 0.72872(15) 0.5670(2)
O3? O 0.9094(2) 0.4874(4) 0.8774(6)
H38? H 0.8977 0.5250 0.9123
loop_
_geom_bond_atom_site_label_1
_geom_bond_atom_site_label_2
_geom_bond_site_symmetry_1
_geom_bond_site_symmetry_2
N1 C7 1_555 1_555
N2 C6 1_555 1_555
N3 H1 1_555 1_555
O1 H2 1_555 1_555
O2 C5 1_555 1_555
C1 N3 1_555 1_555
C2 C1 1_555 1_555
H3 C2 1_555 1_555
H4 C2 1_555 1_555
H5 C2 1_555 1_555
C3 C1 1_555 1_555
H6 C3 1_555 1_555
H7 C3 1_555 1_555
H8 C3 1_555 1_555
C4 C1 1_555 1_555
H9 C4 1_555 1_555
H10 C4 1_555 1_555
H11 C4 1_555 1_555
C5 N3 1_555 1_555
C6 C5 1_555 1_555
H12 C6 1_555 1_555
H13 C6 1_555 1_555
C7 N2 1_555 1_555
H14 C7 1_555 1_555
C8 N2 1_555 1_555
H15 C8 1_555 1_555
C9 N1 1_555 1_555
H16 C9 1_555 1_555
C10 N1 1_555 1_555
H17 C10 1_555 1_555
H18 C10 1_555 1_555
C11 C10 1_555 1_555
C12 O1 1_555 1_555
C13 C12 1_555 1_555
C14 C13 1_555 1_555
H19 C14 1_555 1_555
C15 C14 1_555 1_555
C16 C11 1_555 1_555
C17 C15 1_555 1_555
C18 C17 1_555 1_555
H20 C18 1_555 1_555
H21 C18 1_555 1_555
H22 C18 1_555 1_555
C19 C17 1_555 1_555
H23 C19 1_555 1_555
H24 C19 1_555 1_555
H25 C19 1_555 1_555
C20 C17 1_555 1_555
H26 C20 1_555 1_555
H27 C20 1_555 1_555
H28 C20 1_555 1_555
C21 C13 1_555 1_555
C22 C21 1_555 1_555
H29 C22 1_555 1_555
H30 C22 1_555 1_555
H31 C22 1_555 1_555
C23 C21 1_555 1_555
H32 C23 1_555 1_555
H33 C23 1_555 1_555
H34 C23 1_555 1_555
C24 C21 1_555 1_555
H35 C24 1_555 1_555
H36 C24 1_555 1_555
H37 C24 1_555 1_555
C25 H39 1_555 1_555
H40 C25 1_555 1_555
Cl1 C25 1_555 1_555
Cl2 C25 1_555 1_555
C8 C9 1_555 1_555
C11 C12 1_555 1_555
C15 C16 1_555 1_555

#END
