
#######################################################################
#
#                 Cambridge Crystallographic Data Centre
#                                CCDC 
#
#######################################################################
#
# If this CIF has been generated from an entry in the Cambridge 
# Structural Database, then it will include bibliographic, chemical, 
# crystal, experimental, refinement or atomic coordinate data resulting 
# from the CCDC's data processing and validation procedures.
#
#######################################################################

data_NUZFET
_chemical_formula_moiety         'C21 H30 O7'
_chemical_name_systematic        
(3aR*,6aR*,8R*,9aR*,9bR*)-Spiro((5',5'-dimethyl-1',3'-dioxane)-2',6-(decahydro-9a-methoxycarbonyl-8,9b-dimethyl-9-oxoazuleno(4,5-c)furan-1(3H)-one))
_symmetry_cell_setting           orthorhombic
_symmetry_space_group_name_H-M   'P b c a'
_symmetry_Int_Tables_number      61
_space_group_name_Hall           '-P 2ac 2ab'
loop_
_symmetry_equiv_pos_site_id
_symmetry_equiv_pos_as_xyz
1 x,y,z
2 1/2-x,-y,1/2+z
3 1/2+x,1/2-y,-z
4 -x,1/2+y,1/2-z
5 -x,-y,-z
6 1/2+x,y,1/2-z
7 1/2-x,1/2+y,z
8 x,1/2-y,1/2+z
_cell_length_a                   10.379(2)
_cell_length_b                   11.663(3)
_cell_length_c                   33.720(6)
_cell_angle_alpha                90
_cell_angle_beta                 90
_cell_angle_gamma                90
_cell_volume                     4081.82
_exptl_crystal_colour            colorless
_exptl_crystal_description       prism
_cell_formula_units_Z            8
loop_
_atom_site_label
_atom_site_type_symbol
_atom_site_fract_x
_atom_site_fract_y
_atom_site_fract_z
C1 C -0.10284(16) 0.91570(15) 0.37017(5)
H1 H -0.15174(16) 0.98312(15) 0.37651(5)
C2 C -0.15592(19) 0.84655(17) 0.33457(5)
H2 H -0.11678(19) 0.87248(17) 0.31039(5)
H3 H -0.24769(19) 0.85547(17) 0.33281(5)
C3 C -0.12213(19) 0.72241(16) 0.34197(6)
H4 H -0.03565(19) 0.70515(16) 0.33383(6)
C4 C -0.14428(17) 0.71121(15) 0.38605(5)
O1 O -0.18960(14) 0.62941(11) 0.40310(4)
C5 C -0.11113(16) 0.82808(15) 0.40671(5)
C6 C 0.00531(16) 0.81253(16) 0.43603(5)
C7 C 0.12060(18) 0.74967(17) 0.41755(5)
O2 O 0.11945(14) 0.66231(11) 0.39865(4)
O3 O 0.23311(13) 0.79665(14) 0.43025(4)
C8 C 0.21123(21) 0.90049(21) 0.45246(7)
H5 H 0.24278(21) 0.89136(21) 0.47904(7)
H6 H 0.25506(21) 0.96330(21) 0.43995(7)
C9 C 0.06454(19) 0.92422(18) 0.45332(5)
H7 H 0.02938(19) 0.93735(18) 0.47926(5)
C10 C 0.02720(20) 1.03968(17) 0.43459(5)
H8 H 0.06526(20) 1.09878(17) 0.45058(5)
H9 H -0.06496(20) 1.04553(17) 0.43589(5)
C11 C 0.06639(20) 1.06311(17) 0.39153(6)
H10 H 0.02672(20) 1.13376(17) 0.38351(6)
H11 H 0.15839(20) 1.07136(17) 0.39079(6)
C12 C 0.02881(18) 0.97081(15) 0.36129(5)
O4 O 0.01448(13) 1.02360(11) 0.32297(4)
C13 C 0.13385(21) 1.06158(18) 0.30587(6)
H12 H 0.11688(21) 1.09383(18) 0.28020(6)
H13 H 0.17101(21) 1.11911(18) 0.32272(6)
C14 C 0.22934(21) 0.96306(19) 0.30136(6)
C15 C 0.24380(18) 0.90977(19) 0.34269(6)
H14 H 0.28450(18) 0.96408(19) 0.36003(6)
H15 H 0.29613(18) 0.84212(19) 0.34082(6)
O5 O 0.11944(12) 0.87940(10) 0.35860(4)
C16 C -0.23248(18) 0.86444(16) 0.42997(6)
O6 O -0.23582(14) 0.90453(14) 0.46280(4)
O7 O -0.33740(12) 0.84877(12) 0.40720(4)
C17 C -0.45971(19) 0.88673(21) 0.42273(7)
H16 H -0.52638(19) 0.87080(21) 0.40379(7)
H17 H -0.45635(19) 0.96771(21) 0.42772(7)
H18 H -0.47779(19) 0.84692(21) 0.44702(7)
C18 C -0.19345(26) 0.63435(20) 0.31714(7)
H19 H -0.17474(26) 0.64680(20) 0.28960(7)
H20 H -0.28446(26) 0.64187(20) 0.32150(7)
H21 H -0.16623(26) 0.55871(20) 0.32461(7)
C19 C -0.02830(21) 0.73051(19) 0.47102(5)
H22 H -0.10065(21) 0.76056(19) 0.48539(5)
H23 H 0.04447(21) 0.72440(19) 0.48846(5)
H24 H -0.04944(21) 0.65607(19) 0.46076(5)
C20 C 0.36052(23) 1.01016(24) 0.28795(8)
H25 H 0.35216(23) 1.04369(24) 0.26208(8)
H26 H 0.42212(23) 0.94882(24) 0.28699(8)
H27 H 0.38925(23) 1.06743(24) 0.30639(8)
C21 C 0.17930(25) 0.87393(20) 0.27172(6)
H28 H 0.24075(25) 0.81281(20) 0.26933(6)
H29 H 0.16712(25) 0.90947(20) 0.24631(6)
H30 H 0.09868(25) 0.84366(20) 0.28095(6)
loop_
_geom_bond_atom_site_label_1
_geom_bond_atom_site_label_2
_geom_bond_site_symmetry_1
_geom_bond_site_symmetry_2
C1 H1 1_555 1_555
C2 C1 1_555 1_555
H2 C2 1_555 1_555
H3 C2 1_555 1_555
C3 C2 1_555 1_555
H4 C3 1_555 1_555
C4 C3 1_555 1_555
O1 C4 1_555 1_555
C5 C1 1_555 1_555
C6 C5 1_555 1_555
C7 C6 1_555 1_555
O2 C7 1_555 1_555
O3 C7 1_555 1_555
C8 O3 1_555 1_555
H5 C8 1_555 1_555
H6 C8 1_555 1_555
C9 C6 1_555 1_555
H7 C9 1_555 1_555
C10 C9 1_555 1_555
H8 C10 1_555 1_555
H9 C10 1_555 1_555
C11 C10 1_555 1_555
H10 C11 1_555 1_555
H11 C11 1_555 1_555
C12 C1 1_555 1_555
O4 C12 1_555 1_555
C13 O4 1_555 1_555
H12 C13 1_555 1_555
H13 C13 1_555 1_555
C14 C13 1_555 1_555
C15 C14 1_555 1_555
H14 C15 1_555 1_555
H15 C15 1_555 1_555
O5 C12 1_555 1_555
C16 C5 1_555 1_555
O6 C16 1_555 1_555
O7 C16 1_555 1_555
C17 O7 1_555 1_555
H16 C17 1_555 1_555
H17 C17 1_555 1_555
H18 C17 1_555 1_555
C18 C3 1_555 1_555
H19 C18 1_555 1_555
H20 C18 1_555 1_555
H21 C18 1_555 1_555
C19 C6 1_555 1_555
H22 C19 1_555 1_555
H23 C19 1_555 1_555
H24 C19 1_555 1_555
C20 C14 1_555 1_555
H25 C20 1_555 1_555
H26 C20 1_555 1_555
H27 C20 1_555 1_555
C21 C14 1_555 1_555
H28 C21 1_555 1_555
H29 C21 1_555 1_555
H30 C21 1_555 1_555
C4 C5 1_555 1_555
C8 C9 1_555 1_555
C11 C12 1_555 1_555
C15 O5 1_555 1_555

#END
