
#######################################################################
#
#                 Cambridge Crystallographic Data Centre
#                                CCDC 
#
#######################################################################
#
# If this CIF has been generated from an entry in the Cambridge 
# Structural Database, then it will include bibliographic, chemical, 
# crystal, experimental, refinement or atomic coordinate data resulting 
# from the CCDC's data processing and validation procedures.
#
#######################################################################

data_NUZLAX
_chemical_formula_moiety         'C19 H15 Cl2 N1 O5'
_chemical_name_systematic        
'methyl 2-((4-chloro-2-(2-nitrovinyl)phenoxy)methyl)-3-(2-chlorophenyl)acrylate'
_symmetry_cell_setting           monoclinic
_symmetry_space_group_name_H-M   'P 21/n'
_symmetry_Int_Tables_number      14
_space_group_name_Hall           '-P 2yn'
loop_
_symmetry_equiv_pos_site_id
_symmetry_equiv_pos_as_xyz
1 x,y,z
2 1/2-x,1/2+y,1/2-z
3 -x,-y,-z
4 1/2+x,1/2-y,1/2+z
_cell_length_a                   9.2372(3)
_cell_length_b                   14.5027(5)
_cell_length_c                   14.4830(5)
_cell_angle_alpha                90
_cell_angle_beta                 94.521(2)
_cell_angle_gamma                90
_cell_volume                     1934.17
_exptl_crystal_colour            yellow
_exptl_crystal_description       block
_cell_formula_units_Z            4
loop_
_atom_site_label
_atom_site_type_symbol
_atom_site_fract_x
_atom_site_fract_y
_atom_site_fract_z
Cl1 Cl 0.17238(14) 0.12004(8) 1.07720(8)
Cl2 Cl 0.41061(13) 0.09022(7) 0.31090(6)
O1 O 0.9540(3) 0.1694(2) 0.8133(2)
O2 O 0.9968(3) 0.1892(2) 0.6721(2)
O3 O 0.46144(19) 0.15787(14) 0.71181(12)
O4 O 0.4419(3) 0.35608(16) 0.93013(16)
O5 O 0.4219(3) 0.35463(15) 0.77613(15)
N1 N 0.9138(3) 0.17359(19) 0.7312(2)
C1 C 0.7610(3) 0.1607(2) 0.7049(2)
H1 H 0.6942 0.1598 0.7497
C2 C 0.7171(3) 0.1501(2) 0.6157(2)
H2 H 0.7904 0.1516 0.5753
C3 C 0.5725(3) 0.13660(19) 0.5727(2)
C4 C 0.5582(4) 0.1206(2) 0.4764(2)
H3 H 0.6407 0.1186 0.4437
C5 C 0.4247(4) 0.1082(2) 0.4307(2)
C6 C 0.3012(4) 0.1102(2) 0.4768(2)
H4 H 0.2111 0.1007 0.4449
C7 C 0.3112(3) 0.1264(2) 0.5709(2)
H5 H 0.2271 0.1282 0.6022
C8 C 0.4440(3) 0.13990(18) 0.61909(18)
C9 C 0.3311(3) 0.1789(2) 0.75710(19)
H6 H 0.2733 0.1236 0.7622
H7 H 0.2732 0.2241 0.7212
C10 C 0.3751(3) 0.2162(2) 0.85085(19)
C11 C 0.4169(3) 0.3154(2) 0.8587(2)
C12 C 0.4565(5) 0.4514(2) 0.7742(3)
H8 H 0.3927 0.4847 0.8114
H9 H 0.4448 0.4734 0.7116
H10 H 0.5553 0.4605 0.7985
C13 C 0.3713(3) 0.1683(2) 0.9294(2)
H11 H 0.3937 0.2004 0.9842
C14 C 0.3356(3) 0.0703(2) 0.93813(19)
C15 C 0.3945(4) 0.0031(2) 0.8832(2)
H12 H 0.4563 0.0207 0.8386
C16 C 0.3629(4) -0.0887(2) 0.8939(3)
H13 H 0.4031 -0.1326 0.8567
C17 C 0.2720(5) -0.1158(3) 0.9593(3)
H14 H 0.2501 -0.1779 0.9661
C18 C 0.2140(5) -0.0517(3) 1.0146(3)
H15 H 0.1525 -0.0702 1.0589
C19 C 0.2458(4) 0.0402(2) 1.0050(2)
loop_
_geom_bond_atom_site_label_1
_geom_bond_atom_site_label_2
_geom_bond_site_symmetry_1
_geom_bond_site_symmetry_2
Cl1 C19 1_555 1_555
Cl2 C5 1_555 1_555
O1 N1 1_555 1_555
O2 N1 1_555 1_555
O3 C8 1_555 1_555
O4 C11 1_555 1_555
O5 C11 1_555 1_555
N1 C1 1_555 1_555
C1 H1 1_555 1_555
C2 C1 1_555 1_555
H2 C2 1_555 1_555
C3 C2 1_555 1_555
C4 C3 1_555 1_555
H3 C4 1_555 1_555
C5 C4 1_555 1_555
C6 C5 1_555 1_555
H4 C6 1_555 1_555
C7 C6 1_555 1_555
H5 C7 1_555 1_555
C8 C3 1_555 1_555
C9 O3 1_555 1_555
H6 C9 1_555 1_555
H7 C9 1_555 1_555
C10 C9 1_555 1_555
C11 C10 1_555 1_555
C12 O5 1_555 1_555
H8 C12 1_555 1_555
H9 C12 1_555 1_555
H10 C12 1_555 1_555
C13 C10 1_555 1_555
H11 C13 1_555 1_555
C14 C13 1_555 1_555
C15 C14 1_555 1_555
H12 C15 1_555 1_555
C16 C15 1_555 1_555
H13 C16 1_555 1_555
C17 C16 1_555 1_555
H14 C17 1_555 1_555
C18 C17 1_555 1_555
H15 C18 1_555 1_555
C19 C14 1_555 1_555
C7 C8 1_555 1_555
C18 C19 1_555 1_555

#END
