
#######################################################################
#
#                 Cambridge Crystallographic Data Centre
#                                CCDC 
#
#######################################################################
#
# If this CIF has been generated from an entry in the Cambridge 
# Structural Database, then it will include bibliographic, chemical, 
# crystal, experimental, refinement or atomic coordinate data resulting 
# from the CCDC's data processing and validation procedures.
#
#######################################################################

data_NUZSIM
_chemical_formula_moiety         'C9 H7 N1 O4'
_chemical_name_systematic        '(2-oxo-1,3-benzoxazol-3(2H)-yl)acetic acid'
_symmetry_cell_setting           monoclinic
_symmetry_space_group_name_H-M   'C 2/c'
_symmetry_Int_Tables_number      15
_space_group_name_Hall           '-C 2yn'
loop_
_symmetry_equiv_pos_site_id
_symmetry_equiv_pos_as_xyz
1 x,y,z
2 -x,y,1/2-z
3 1/2+x,1/2+y,z
4 1/2-x,1/2+y,1/2-z
5 -x,-y,-z
6 x,-y,1/2+z
7 1/2-x,1/2-y,-z
8 1/2+x,1/2-y,1/2+z
_cell_length_a                   12.7600(2)
_cell_length_b                   8.05930(10)
_cell_length_c                   16.6668(2)
_cell_angle_alpha                90
_cell_angle_beta                 104.6104(5)
_cell_angle_gamma                90
_cell_volume                     1658.53
_exptl_crystal_colour            colorless
_exptl_crystal_description       block
_cell_formula_units_Z            8
loop_
_atom_site_label
_atom_site_type_symbol
_atom_site_fract_x
_atom_site_fract_y
_atom_site_fract_z
O1 O 0.18601(3) 0.58635(5) 0.47510(2)
O2 O 0.27404(3) 0.47052(6) 0.59703(3)
O3 O 0.22896(4) 0.83705(6) 0.70231(3)
O4 O 0.13927(4) 0.74431(7) 0.79363(3)
H1 H 0.1764(10) 0.8181(14) 0.8237(8)
N1 N 0.11396(3) 0.61857(6) 0.58221(3)
C1 C 0.09240(4) 0.68007(6) 0.44917(3)
C2 C 0.04911(4) 0.74467(7) 0.37141(3)
H2 H 0.0824 0.7294 0.3270
C3 C -0.04724(5) 0.83432(7) 0.36200(4)
H3 H -0.0807 0.8817 0.3096
C4 C -0.09540(4) 0.85577(8) 0.42782(4)
H4 H -0.1610 0.9168 0.4190
C5 C -0.04946(4) 0.78967(7) 0.50654(3)
H5 H -0.0820 0.8043 0.5514
C6 C 0.04597(4) 0.70179(6) 0.51543(3)
C7 C 0.19795(4) 0.55086(6) 0.55707(3)
C8 C 0.10322(4) 0.60853(7) 0.66614(3)
H6 H 0.1303 0.4994 0.6898
H7 H 0.0256 0.6159 0.6655
C9 C 0.16468(4) 0.74452(6) 0.72125(3)
loop_
_geom_bond_atom_site_label_1
_geom_bond_atom_site_label_2
_geom_bond_site_symmetry_1
_geom_bond_site_symmetry_2
O1 C1 1_555 1_555
O2 C7 1_555 1_555
O3 C9 1_555 1_555
O4 H1 1_555 1_555
N1 C6 1_555 1_555
C1 C2 1_555 1_555
C2 H2 1_555 1_555
C3 C2 1_555 1_555
H3 C3 1_555 1_555
C4 C3 1_555 1_555
H4 C4 1_555 1_555
C5 C4 1_555 1_555
H5 C5 1_555 1_555
C6 C1 1_555 1_555
C7 O1 1_555 1_555
C8 N1 1_555 1_555
H6 C8 1_555 1_555
H7 C8 1_555 1_555
C9 O4 1_555 1_555
N1 C7 1_555 1_555
C5 C6 1_555 1_555
C8 C9 1_555 1_555

#END
