
#######################################################################
#
#                 Cambridge Crystallographic Data Centre
#                                CCDC 
#
#######################################################################
#
# If this CIF has been generated from an entry in the Cambridge 
# Structural Database, then it will include bibliographic, chemical, 
# crystal, experimental, refinement or atomic coordinate data resulting 
# from the CCDC's data processing and validation procedures.
#
#######################################################################

data_NUZVUA
_chemical_name_common            'Ligulactone A'
_chemical_formula_moiety         'C19 H24 O7'
_chemical_name_systematic        
"1,4a',5'-Trimethyl-2',3-dioxohexahydrospiro[4,6-dioxabicyclo[3.1.0]hexane-2,3'-indeno[3a,4-b]oxiren]-4'-yl 2-methylpropanoate"
_symmetry_cell_setting           tetragonal
_symmetry_space_group_name_H-M   'P 43 21 2'
_symmetry_Int_Tables_number      96
_space_group_name_Hall           'P 4nw 2abw'
loop_
_symmetry_equiv_pos_site_id
_symmetry_equiv_pos_as_xyz
1 x,y,z
2 -x,-y,1/2+z
3 1/2-y,1/2+x,3/4+z
4 1/2+y,1/2-x,1/4+z
5 1/2-x,1/2+y,3/4-z
6 1/2+x,1/2-y,1/4-z
7 y,x,-z
8 -y,-x,1/2-z
_cell_length_a                   10.4710(12)
_cell_length_b                   10.4710(12)
_cell_length_c                   36.304(4)
_cell_angle_alpha                90
_cell_angle_beta                 90
_cell_angle_gamma                90
_cell_volume                     3980.44
_exptl_crystal_colour            colorless
_exptl_crystal_description       block
_cell_formula_units_Z            8
loop_
_atom_site_label
_atom_site_type_symbol
_atom_site_fract_x
_atom_site_fract_y
_atom_site_fract_z
C1 C 0.3653(3) 0.5862(4) 0.10613(9)
H1 H 0.3622 0.6793 0.1088
O1 O 0.4091(2) 0.5168(3) 0.13686(6)
C2 C 0.2595(3) 0.5262(4) 0.08437(12)
H2 H 0.2475 0.5734 0.0616
H3 H 0.1807 0.5312 0.0983
O2 O 0.6244(2) 0.6838(2) 0.13659(6)
C3 C 0.2879(3) 0.3887(4) 0.07549(11)
H4 H 0.2213 0.3552 0.0596
H5 H 0.2878 0.3391 0.0981
O3 O 0.8580(2) 0.6345(3) 0.03675(6)
C4 C 0.4182(3) 0.3739(3) 0.05624(8)
H6 H 0.4202 0.4354 0.0359
O4 O 0.93257(19) 0.5881(3) 0.09635(6)
C5 C 0.5278(2) 0.4100(2) 0.08287(7)
O5 O 0.8355(2) 0.4345(3) 0.12696(7)
C6 C 0.6417(2) 0.4651(2) 0.06088(6)
H7 H 0.6090 0.5065 0.0386
O6 O 0.7318(2) 0.3682(2) 0.05035(5)
C7 C 0.7114(2) 0.5669(2) 0.08486(6)
O7 O 0.6942(3) 0.4044(3) -0.00983(6)
C8 C 0.8291(2) 0.5160(3) 0.10538(8)
C9 C 0.6098(2) 0.6051(3) 0.11291(6)
C10 C 0.4927(2) 0.5276(3) 0.10608(6)
C11 C 0.7626(3) 0.6794(3) 0.06340(7)
C12 C 0.8980(3) 0.6811(4) 0.07101(8)
H8 H 0.9419 0.7637 0.0719
C13 C 0.6828(4) 0.7911(3) 0.05288(10)
H9 H 0.6610 0.8390 0.0745
H10 H 0.6061 0.7618 0.0411
H11 H 0.7297 0.8447 0.0362
C14 C 0.5653(3) 0.3009(3) 0.10891(9)
H12 H 0.6281 0.3308 0.1261
H13 H 0.6002 0.2315 0.0949
H14 H 0.4912 0.2720 0.1220
C15 C 0.4317(4) 0.2413(3) 0.03940(10)
H15 H 0.4247 0.1780 0.0584
H16 H 0.5135 0.2340 0.0276
H17 H 0.3654 0.2283 0.0215
C16 C 0.7527(3) 0.3507(3) 0.01364(10)
C17 C 0.8585(6) 0.2552(5) 0.00787(16)
H18 H 0.9306 0.2846 0.0228
C18 C 0.9027(12) 0.2622(16) -0.0323(3)
H19 H 0.9942 0.2681 -0.0331
H20 H 0.8661 0.3361 -0.0439
H21 H 0.8756 0.1867 -0.0452
C19 C 0.8233(16) 0.1365(11) 0.0220(6)
H22 H 0.7532 0.1470 0.0387
H23 H 0.8945 0.0994 0.0347
H24 H 0.7980 0.0814 0.0021
loop_
_geom_bond_atom_site_label_1
_geom_bond_atom_site_label_2
_geom_bond_site_symmetry_1
_geom_bond_site_symmetry_2
C1 H1 1_555 1_555
O1 C1 1_555 1_555
C2 C1 1_555 1_555
H2 C2 1_555 1_555
H3 C2 1_555 1_555
O2 C9 1_555 1_555
C3 C2 1_555 1_555
H4 C3 1_555 1_555
H5 C3 1_555 1_555
O3 C11 1_555 1_555
C4 C3 1_555 1_555
H6 C4 1_555 1_555
O4 C8 1_555 1_555
C5 C4 1_555 1_555
O5 C8 1_555 1_555
C6 C5 1_555 1_555
H7 C6 1_555 1_555
O6 C6 1_555 1_555
C7 C6 1_555 1_555
O7 C16 1_555 1_555
C8 C7 1_555 1_555
C9 C7 1_555 1_555
C10 C1 1_555 1_555
C11 C7 1_555 1_555
C12 O3 1_555 1_555
H8 C12 1_555 1_555
C13 C11 1_555 1_555
H9 C13 1_555 1_555
H10 C13 1_555 1_555
H11 C13 1_555 1_555
C14 C5 1_555 1_555
H12 C14 1_555 1_555
H13 C14 1_555 1_555
H14 C14 1_555 1_555
C15 C4 1_555 1_555
H15 C15 1_555 1_555
H16 C15 1_555 1_555
H17 C15 1_555 1_555
C16 O6 1_555 1_555
C17 C16 1_555 1_555
H18 C17 1_555 1_555
C18 C17 1_555 1_555
H19 C18 1_555 1_555
H20 C18 1_555 1_555
H21 C18 1_555 1_555
C19 C17 1_555 1_555
H22 C19 1_555 1_555
H23 C19 1_555 1_555
H24 C19 1_555 1_555
O1 C10 1_555 1_555
O4 C12 1_555 1_555
C5 C10 1_555 1_555
C9 C10 1_555 1_555
C11 C12 1_555 1_555

#END
