
#######################################################################
#
#                 Cambridge Crystallographic Data Centre
#                                CCDC 
#
#######################################################################
#
# If this CIF has been generated from an entry in the Cambridge 
# Structural Database, then it will include bibliographic, chemical, 
# crystal, experimental, refinement or atomic coordinate data resulting 
# from the CCDC's data processing and validation procedures.
#
#######################################################################

data_NUZWEL
_chemical_name_common            
1beta,10beta-epoxy-6beta-isobutyryloxy-9-oxo-furanoeremophilane
_chemical_formula_moiety         'C19 H24 O5'
_chemical_name_systematic        
'4,4a,6-Trimethyl-9-oxo-2,3,4,4a,5,9-hexahydro-1aH-oxireno[8,8a]naphtho[2,3-b]furan-5-yl 2-methylpropanoate'
_symmetry_cell_setting           orthorhombic
_symmetry_space_group_name_H-M   'P 21 21 21'
_symmetry_Int_Tables_number      19
_space_group_name_Hall           'P 2ac 2ab'
loop_
_symmetry_equiv_pos_site_id
_symmetry_equiv_pos_as_xyz
1 x,y,z
2 1/2-x,-y,1/2+z
3 -x,1/2+y,1/2-z
4 1/2+x,1/2-y,-z
_cell_length_a                   9.5987(2)
_cell_length_b                   15.0196(3)
_cell_length_c                   24.4517(6)
_cell_angle_alpha                90
_cell_angle_beta                 90
_cell_angle_gamma                90
_cell_volume                     3525.17
_exptl_crystal_colour            colorless
_exptl_crystal_description       block
_cell_formula_units_Z            8
loop_
_atom_site_label
_atom_site_type_symbol
_atom_site_fract_x
_atom_site_fract_y
_atom_site_fract_z
C1 C 0.2083(2) 0.47699(16) 0.84774(9)
C2 C 0.3428(2) 0.49607(16) 0.81473(9)
H1 H 0.3666 0.4436 0.7928
C3 C 0.3262(3) 0.57510(17) 0.77765(10)
C4 C 0.2001(3) 0.59673(17) 0.75731(10)
C5 C 0.0838(3) 0.47747(19) 0.80804(11)
C10 C 0.2245(3) 0.38406(16) 0.87561(10)
H3 H 0.3210 0.3808 0.8885
C12 C 0.5596(3) 0.4539(2) 0.85715(12)
C16 C 0.0693(3) 0.55525(19) 0.76949(12)
C17 C 0.1859(3) 0.55119(18) 0.89029(11)
H8 H 0.1898 0.6081 0.8725
H9 H 0.2575 0.5479 0.9176
H10 H 0.0964 0.5438 0.9073
C18 C 0.2070(3) 0.30868(17) 0.83421(12)
H11 H 0.2752 0.3161 0.8053
H12 H 0.2261 0.2525 0.8522
C19 C 0.4250(3) 0.63570(18) 0.75389(11)
C20 C 0.3476(4) 0.6879(2) 0.72085(12)
H13 H 0.3845 0.7338 0.6998
C27 C 0.0636(4) 0.3047(2) 0.80901(15)
H22 H 0.0655 0.2647 0.7778
H23 H -0.0014 0.2806 0.8355
C29 C 0.5791(3) 0.6432(2) 0.76396(14)
H27 H 0.6197 0.6820 0.7371
H28 H 0.6210 0.5854 0.7613
H29 H 0.5949 0.6671 0.7998
C31 C 0.0137(3) 0.3944(2) 0.79080(14)
H31 H -0.0313 0.3962 0.7549
C33 C 0.6537(3) 0.4737(3) 0.90505(13)
H33 H 0.7341 0.4338 0.9024
C34 C 0.1320(4) 0.3684(2) 0.92600(11)
H34 H 0.0363 0.3787 0.9165
H35 H 0.1589 0.4086 0.9546
H36 H 0.1430 0.3082 0.9384
C35 C 0.5763(4) 0.4504(3) 0.95779(14)
H37 H 0.6397 0.4531 0.9881
H38 H 0.5388 0.3913 0.9550
H39 H 0.5018 0.4920 0.9634
C37 C 0.7075(4) 0.5662(3) 0.90446(19)
H43 H 0.7491 0.5784 0.8696
H44 H 0.7761 0.5731 0.9327
H45 H 0.6321 0.6069 0.9107
O6 O -0.0461(2) 0.45153(16) 0.83188(9)
O7 O -0.0435(2) 0.57741(16) 0.75006(10)
O8 O 0.2103(3) 0.66663(13) 0.72146(8)
O9 O 0.45466(17) 0.51390(12) 0.85346(7)
O10 O 0.5704(2) 0.39160(16) 0.82720(9)
C6 C 0.6402(2) 0.99126(16) 0.88752(10)
H2 H 0.6415 0.9950 0.8475
C7 C 0.5010(2) 0.94660(16) 0.90611(9)
C8 C 0.3839(2) 1.01573(18) 0.90099(10)
C9 C 0.6607(3) 1.08188(17) 0.91076(10)
C11 C 0.4063(3) 1.10658(19) 0.92618(11)
C13 C 0.5508(3) 1.13201(18) 0.92690(10)
C14 C 0.5122(3) 0.9217(2) 0.96703(10)
H4 H 0.4241 0.8996 0.9796
H5 H 0.5375 0.9735 0.9878
H6 H 0.5821 0.8766 0.9716
C15 C 0.4763(3) 0.86421(18) 0.86977(11)
H7 H 0.5677 0.8363 0.8647
C21 C 0.7835(3) 1.1340(2) 0.91898(11)
C22 C 0.8318(3) 0.8936(2) 0.86717(15)
C23 C 0.4265(3) 0.8918(2) 0.81246(12)
H14 H 0.4955 0.9307 0.7961
H15 H 0.4188 0.8391 0.7897
C24 C 0.9319(3) 1.1103(2) 0.90708(14)
H16 H 0.9921 1.1555 0.9217
H17 H 0.9451 1.1063 0.8682
H18 H 0.9535 1.0541 0.9237
C25 C 0.2868(3) 0.9393(2) 0.81361(13)
H19 H 0.2698 0.9658 0.7780
H20 H 0.2139 0.8960 0.8202
C26 C 0.2784(3) 1.0107(2) 0.85646(12)
H21 H 0.2360 1.0671 0.8452
C28 C 0.3812(3) 0.7919(2) 0.89378(14)
H24 H 0.4219 0.7689 0.9267
H25 H 0.3704 0.7446 0.8677
H26 H 0.2916 0.8171 0.9019
C30 C 0.9415(4) 0.8355(2) 0.89260(18)
H30 H 1.0264 0.8715 0.8902
C32 C 0.7362(4) 1.2110(2) 0.94029(13)
H32 H 0.7942 1.2579 0.9503
C36 C 0.9705(5) 0.7582(3) 0.8557(2)
H40 H 1.0547 0.7292 0.8671
H41 H 0.9808 0.7790 0.8188
H42 H 0.8944 0.7168 0.8575
C38 C 0.9280(6) 0.8173(4) 0.9507(2)
H46 H 0.8434 0.7850 0.9572
H47 H 0.9257 0.8725 0.9705
H48 H 1.0060 0.7825 0.9627
O1 O 0.24767(19) 0.98092(14) 0.91132(8)
O2 O 0.3098(2) 1.15163(15) 0.94322(10)
O3 O 0.5943(3) 1.21354(12) 0.94575(9)
O4 O 0.75408(17) 0.93536(12) 0.90548(7)
O5 O 0.8140(3) 0.90386(18) 0.81900(11)
loop_
_geom_bond_atom_site_label_1
_geom_bond_atom_site_label_2
_geom_bond_site_symmetry_1
_geom_bond_site_symmetry_2
C1 C2 1_555 1_555
C2 H1 1_555 1_555
C3 C2 1_555 1_555
C4 C3 1_555 1_555
C5 C1 1_555 1_555
C6 H2 1_555 1_555
C7 C6 1_555 1_555
C8 C7 1_555 1_555
C9 C6 1_555 1_555
C10 C1 1_555 1_555
H3 C10 1_555 1_555
C11 C8 1_555 1_555
C12 C33 1_555 1_555
C13 C9 1_555 1_555
C14 C7 1_555 1_555
H4 C14 1_555 1_555
H5 C14 1_555 1_555
H6 C14 1_555 1_555
C15 C7 1_555 1_555
H7 C15 1_555 1_555
C16 C4 1_555 1_555
C17 C1 1_555 1_555
H8 C17 1_555 1_555
H9 C17 1_555 1_555
H10 C17 1_555 1_555
C18 C10 1_555 1_555
H11 C18 1_555 1_555
H12 C18 1_555 1_555
C19 C3 1_555 1_555
C20 C19 1_555 1_555
H13 C20 1_555 1_555
C21 C9 1_555 1_555
C22 C30 1_555 1_555
C23 C15 1_555 1_555
H14 C23 1_555 1_555
H15 C23 1_555 1_555
C24 C21 1_555 1_555
H16 C24 1_555 1_555
H17 C24 1_555 1_555
H18 C24 1_555 1_555
C25 C23 1_555 1_555
H19 C25 1_555 1_555
H20 C25 1_555 1_555
C26 C8 1_555 1_555
H21 C26 1_555 1_555
C27 C18 1_555 1_555
H22 C27 1_555 1_555
H23 C27 1_555 1_555
C28 C15 1_555 1_555
H24 C28 1_555 1_555
H25 C28 1_555 1_555
H26 C28 1_555 1_555
C29 C19 1_555 1_555
H27 C29 1_555 1_555
H28 C29 1_555 1_555
H29 C29 1_555 1_555
C30 H30 1_555 1_555
C31 C5 1_555 1_555
H31 C31 1_555 1_555
C32 C21 1_555 1_555
H32 C32 1_555 1_555
C33 H33 1_555 1_555
C34 C10 1_555 1_555
H34 C34 1_555 1_555
H35 C34 1_555 1_555
H36 C34 1_555 1_555
C35 C33 1_555 1_555
H37 C35 1_555 1_555
H38 C35 1_555 1_555
H39 C35 1_555 1_555
C36 C30 1_555 1_555
H40 C36 1_555 1_555
H41 C36 1_555 1_555
H42 C36 1_555 1_555
C37 C33 1_555 1_555
H43 C37 1_555 1_555
H44 C37 1_555 1_555
H45 C37 1_555 1_555
C38 C30 1_555 1_555
H46 C38 1_555 1_555
H47 C38 1_555 1_555
H48 C38 1_555 1_555
O1 C8 1_555 1_555
O2 C11 1_555 1_555
O3 C13 1_555 1_555
O4 C6 1_555 1_555
O5 C22 1_555 1_555
O6 C5 1_555 1_555
O7 C16 1_555 1_555
O8 C4 1_555 1_555
O9 C2 1_555 1_555
O10 C12 1_555 1_555
C5 C16 1_555 1_555
C11 C13 1_555 1_555
C12 O9 1_555 1_555
C20 O8 1_555 1_555
C22 O4 1_555 1_555
C25 C26 1_555 1_555
C26 O1 1_555 1_555
C27 C31 1_555 1_555
C31 O6 1_555 1_555
C32 O3 1_555 1_555

#END
