
#######################################################################
#
#                 Cambridge Crystallographic Data Centre
#                                CCDC 
#
#######################################################################
#
# If this CIF has been generated from an entry in the Cambridge 
# Structural Database, then it will include bibliographic, chemical, 
# crystal, experimental, refinement or atomic coordinate data resulting 
# from the CCDC's data processing and validation procedures.
#
#######################################################################

data_NUZZAL
_chemical_name_common            
'(1R)-isopropyl-6-methoxy-1,2,3,4-tetrahydroisoquinoline (2S)-mandelate'
_chemical_formula_moiety         'C13 H20 N1 O1 1+,C8 H7 O3 1-'
_chemical_name_systematic        
'1-isopropyl-6-methoxy-1,2,3,4-tetrahydroisoquinolinium hydroxy(phenyl)acetate'
_symmetry_cell_setting           orthorhombic
_symmetry_space_group_name_H-M   'P 21 21 21'
_symmetry_Int_Tables_number      19
_space_group_name_Hall           'P 2ac 2ab'
loop_
_symmetry_equiv_pos_site_id
_symmetry_equiv_pos_as_xyz
1 x,y,z
2 1/2+x,1/2-y,-z
3 -x,1/2+y,1/2-z
4 1/2-x,-y,1/2+z
_cell_length_a                   5.4863(13)
_cell_length_b                   12.458(3)
_cell_length_c                   27.261(7)
_cell_angle_alpha                90
_cell_angle_beta                 90
_cell_angle_gamma                90
_cell_volume                     1863.24
_exptl_crystal_colour            colorless
_exptl_crystal_description       platelet
_cell_formula_units_Z            4
_exptl_crystal_recrystallization_method '2-propanol/ ethanol'
loop_
_atom_site_label
_atom_site_type_symbol
_atom_site_fract_x
_atom_site_fract_y
_atom_site_fract_z
O1 O 0.8788(3) 0.09783(13) 0.47017(6)
N1 N 0.2207(4) 0.25071(15) 0.28695(7)
H1 H 0.0760 0.2679 0.2726
H2 H 0.3412 0.2804 0.2685
C1 C 1.0517(5) 0.02106(19) 0.45281(9)
H3 H 1.1455 0.0522 0.4257
H4 H 0.9657 -0.0431 0.4412
H5 H 1.1624 0.0013 0.4795
C2 C 0.7208(4) 0.13953(17) 0.43609(8)
C3 C 0.5748(5) 0.22416(18) 0.45236(8)
H6 H 0.5864 0.2485 0.4853
C4 C 0.4138(4) 0.27209(18) 0.42039(8)
H7 H 0.3142 0.3294 0.4317
C5 C 0.3940(4) 0.23799(18) 0.37140(8)
C6 C 0.5319(4) 0.15046(17) 0.35635(8)
C7 C 0.6958(4) 0.10107(17) 0.38870(8)
H8 H 0.7896 0.0413 0.3781
C8 C 0.5005(4) 0.10516(18) 0.30518(8)
H9 H 0.6258 0.1358 0.2831
H10 H 0.5224 0.0263 0.3059
C9 C 0.2493(5) 0.13189(18) 0.28589(9)
H11 H 0.2308 0.1050 0.2519
H12 H 0.1231 0.0976 0.3066
C10 C 0.2279(5) 0.30037(18) 0.33703(8)
H13 H 0.0593 0.2953 0.3508
C11 C 0.1319(7) 0.4791(2) 0.29669(10)
H14 H 0.1694 0.4544 0.2634
H15 H 0.1650 0.5562 0.2992
H16 H -0.0404 0.4656 0.3039
C12 C 0.2885(9) 0.4192(2) 0.33302(14)
H17 H 0.2417 0.4497 0.3656
C13 C 0.5343(9) 0.4453(3) 0.32788(16)
H18 H 0.5969 0.4145 0.2973
H19 H 0.6262 0.4162 0.3557
H20 H 0.5526 0.5235 0.3271
O2 O 0.5499(3) -0.19821(15) 0.29907(6)
O3 O 0.1853(3) -0.22718(14) 0.26662(6)
O4 O -0.0234(3) -0.09626(13) 0.33585(6)
H25 H -0.1173 -0.1403 0.3221
C15 C 0.3218(4) -0.19460(17) 0.30019(8)
C16 C 0.2017(4) -0.14709(18) 0.34640(8)
H26 H 0.3141 -0.0904 0.3592
C17 C 0.1802(4) -0.23219(18) 0.38617(8)
C18 C 0.3577(4) -0.2398(2) 0.42246(9)
H27 H 0.4920 -0.1916 0.4222
C19 C 0.3403(5) -0.3170(2) 0.45900(10)
H28 H 0.4624 -0.3212 0.4836
C20 C 0.1465(5) -0.3877(2) 0.45978(9)
H29 H 0.1359 -0.4411 0.4846
C21 C -0.0321(5) -0.3802(2) 0.42408(9)
H30 H -0.1667 -0.4281 0.4247
C22 C -0.0162(4) -0.30298(19) 0.38738(9)
H31 H -0.1397 -0.2985 0.3630
H21? H 0.4117 0.4038 0.3069
C14? C 0.4754(15) 0.4800(6) 0.3622(3)
H22? H 0.5270 0.5436 0.3438
H23? H 0.6167 0.4337 0.3683
H24? H 0.4043 0.5022 0.3936
loop_
_geom_bond_atom_site_label_1
_geom_bond_atom_site_label_2
_geom_bond_site_symmetry_1
_geom_bond_site_symmetry_2
O1 C1 1_555 1_555
N1 H1 1_555 1_555
H2 N1 1_555 1_555
C1 H3 1_555 1_555
H4 C1 1_555 1_555
H5 C1 1_555 1_555
C2 O1 1_555 1_555
C3 C2 1_555 1_555
H6 C3 1_555 1_555
C4 C3 1_555 1_555
H7 C4 1_555 1_555
C5 C4 1_555 1_555
C6 C5 1_555 1_555
C7 C2 1_555 1_555
H8 C7 1_555 1_555
C8 C6 1_555 1_555
H9 C8 1_555 1_555
H10 C8 1_555 1_555
C9 N1 1_555 1_555
H11 C9 1_555 1_555
H12 C9 1_555 1_555
C10 N1 1_555 1_555
H13 C10 1_555 1_555
C11 H14 1_555 1_555
H15 C11 1_555 1_555
H16 C11 1_555 1_555
C12 C10 1_555 1_555
H17 C12 1_555 1_555
C13 C12 1_555 1_555
H18 C13 1_555 1_555
H19 C13 1_555 1_555
H20 C13 1_555 1_555
O2 C15 1_555 1_555
O3 C15 1_555 1_555
O4 H25 1_555 1_555
C15 C16 1_555 1_555
C16 O4 1_555 1_555
H26 C16 1_555 1_555
C17 C16 1_555 1_555
C18 C17 1_555 1_555
H27 C18 1_555 1_555
C19 C18 1_555 1_555
H28 C19 1_555 1_555
C20 C19 1_555 1_555
H29 C20 1_555 1_555
C21 C20 1_555 1_555
H30 C21 1_555 1_555
C22 C17 1_555 1_555
H31 C22 1_555 1_555
C5 C10 1_555 1_555
C6 C7 1_555 1_555
C8 C9 1_555 1_555
C11 C12 1_555 1_555
C21 C22 1_555 1_555

#END
