
#######################################################################
#
#                 Cambridge Crystallographic Data Centre
#                                CCDC 
#
#######################################################################
#
# If this CIF has been generated from an entry in the Cambridge 
# Structural Database, then it will include bibliographic, chemical, 
# crystal, experimental, refinement or atomic coordinate data resulting 
# from the CCDC's data processing and validation procedures.
#
#######################################################################

data_OBAKEJ
_chemical_formula_moiety         'C32 H28 N2 O3 S1'
_chemical_name_systematic        
9'-Benzyl-2'-((4-methylphenyl)sulfonyl)-1',2',3',9'-tetrahydro-3H-spiro[1-benzofuran-2,4'-\b-carboline]
_symmetry_cell_setting           triclinic
_symmetry_space_group_name_H-M   'P -1'
_symmetry_Int_Tables_number      2
_space_group_name_Hall           '-P 1'
loop_
_symmetry_equiv_pos_site_id
_symmetry_equiv_pos_as_xyz
1 x,y,z
2 -x,-y,-z
_cell_length_a                   9.135(6)
_cell_length_b                   10.753(7)
_cell_length_c                   13.533(8)
_cell_angle_alpha                78.378(8)
_cell_angle_beta                 85.363(8)
_cell_angle_gamma                84.178(8)
_cell_volume                     1292.87
_exptl_crystal_colour            colorless
_exptl_crystal_description       block
_cell_formula_units_Z            2
loop_
_atom_site_label
_atom_site_type_symbol
_atom_site_fract_x
_atom_site_fract_y
_atom_site_fract_z
C1 C 0.6087(6) 0.9106(5) 0.3166(4)
H1 H 0.6055 0.8502 0.3763
C2 C 0.5284(6) 0.8982(6) 0.2391(5)
H2 H 0.4702 0.8303 0.2467
C3 C 0.5330(7) 0.9836(8) 0.1516(5)
H3 H 0.4787 0.9737 0.0988
C4 C 0.6153(8) 1.0835(7) 0.1395(5)
H4 H 0.6171 1.1426 0.0790
C5 C 0.6989(6) 1.0977(5) 0.2193(5)
H5 H 0.7567 1.1659 0.2114
C6 C 0.6944(5) 1.0109(4) 0.3082(4)
C7 C 0.7802(6) 1.0274(4) 0.3937(4)
H6 H 0.8497 1.0905 0.3680
H7 H 0.7127 1.0606 0.4432
C8 C 0.8602(5) 0.8646(4) 0.5488(4)
C9 C 0.7729(6) 0.9074(5) 0.6247(4)
H8 H 0.7018 0.9757 0.6109
C10 C 0.7949(6) 0.8459(5) 0.7205(4)
H9 H 0.7365 0.8726 0.7732
C11 C 0.9010(6) 0.7447(5) 0.7431(4)
H10 H 0.9130 0.7053 0.8101
C12 C 0.9886(5) 0.7022(4) 0.6674(4)
H11 H 1.0597 0.6340 0.6825
C13 C 0.9690(5) 0.7636(4) 0.5664(3)
C14 C 1.0406(5) 0.7505(4) 0.4708(3)
C15 C 1.1666(5) 0.6645(4) 0.4400(3)
C16 C 1.1558(5) 0.6545(4) 0.3317(3)
H12 H 1.2441 0.6073 0.3092
H13 H 1.0722 0.6077 0.3268
C17 C 1.0036(5) 0.8625(4) 0.2883(3)
H14 H 0.9205 0.8414 0.2564
H15 H 1.0185 0.9515 0.2624
C18 C 0.9733(5) 0.8400(4) 0.4003(3)
C19 C 1.1784(4) 0.5350(3) 0.5067(3)
H16 H 1.0853 0.5176 0.5443
H17 H 1.2056 0.4697 0.4668
C20 C 1.2915(6) 0.5381(4) 0.5743(4)
C21 C 1.3345(8) 0.4575(6) 0.6624(5)
H18 H 1.2884 0.3832 0.6871
C22 C 1.4486(11) 0.4889(9) 0.7143(6)
H19 H 1.4782 0.4355 0.7735
C23 C 1.5149(9) 0.5971(10) 0.6776(7)
H20 H 1.5901 0.6167 0.7129
C24 C 1.4763(6) 0.6779(7) 0.5918(5)
H21 H 1.5227 0.7521 0.5679
C25 C 1.3657(5) 0.6458(5) 0.5413(3)
C26 C 1.0252(5) 0.7293(4) 0.0998(3)
C27 C 1.0104(6) 0.6009(5) 0.1190(3)
H22 H 1.0817 0.5437 0.1529
C28 C 0.8897(7) 0.5579(5) 0.0877(4)
H23 H 0.8802 0.4707 0.1007
C29 C 0.7812(6) 0.6395(6) 0.0374(4)
C30 C 0.7981(6) 0.7673(5) 0.0199(4)
H24 H 0.7267 0.8243 -0.0139
C31 C 0.9172(6) 0.8129(5) 0.0507(3)
H25 H 0.9257 0.9002 0.0387
C32 C 0.6501(7) 0.5901(6) 0.0020(5)
H26 H 0.5627 0.6136 0.0409
H27 H 0.6645 0.4990 0.0108
H28 H 0.6394 0.6264 -0.0682
N1 N 1.1385(4) 0.7806(3) 0.2653(2)
N2 N 0.8612(4) 0.9106(3) 0.4444(3)
O1 O 1.3027(3) 0.7023(3) 0.1338(2)
O2 O 1.1773(4) 0.9200(3) 0.0993(2)
O3 O 1.3077(4) 0.7196(3) 0.4508(2)
S1 S 1.17512(14) 0.78741(12) 0.14404(9)
loop_
_geom_bond_atom_site_label_1
_geom_bond_atom_site_label_2
_geom_bond_site_symmetry_1
_geom_bond_site_symmetry_2
C1 H1 1_555 1_555
C2 C1 1_555 1_555
H2 C2 1_555 1_555
C3 C2 1_555 1_555
H3 C3 1_555 1_555
C4 C3 1_555 1_555
H4 C4 1_555 1_555
C5 C4 1_555 1_555
H5 C5 1_555 1_555
C6 C1 1_555 1_555
C7 C6 1_555 1_555
H6 C7 1_555 1_555
H7 C7 1_555 1_555
C8 C9 1_555 1_555
C9 H8 1_555 1_555
C10 C9 1_555 1_555
H9 C10 1_555 1_555
C11 C10 1_555 1_555
H10 C11 1_555 1_555
C12 C11 1_555 1_555
H11 C12 1_555 1_555
C13 C8 1_555 1_555
C14 C13 1_555 1_555
C15 C14 1_555 1_555
C16 C15 1_555 1_555
H12 C16 1_555 1_555
H13 C16 1_555 1_555
C17 H14 1_555 1_555
H15 C17 1_555 1_555
C18 C14 1_555 1_555
C19 C15 1_555 1_555
H16 C19 1_555 1_555
H17 C19 1_555 1_555
C20 C19 1_555 1_555
C21 C20 1_555 1_555
H18 C21 1_555 1_555
C22 C21 1_555 1_555
H19 C22 1_555 1_555
C23 C22 1_555 1_555
H20 C23 1_555 1_555
C24 C23 1_555 1_555
H21 C24 1_555 1_555
C25 C20 1_555 1_555
C26 C27 1_555 1_555
C27 H22 1_555 1_555
C28 C27 1_555 1_555
H23 C28 1_555 1_555
C29 C28 1_555 1_555
C30 C29 1_555 1_555
H24 C30 1_555 1_555
C31 C26 1_555 1_555
H25 C31 1_555 1_555
C32 C29 1_555 1_555
H26 C32 1_555 1_555
H27 C32 1_555 1_555
H28 C32 1_555 1_555
N1 C16 1_555 1_555
N2 C7 1_555 1_555
O1 S1 1_555 1_555
O2 S1 1_555 1_555
O3 C15 1_555 1_555
S1 C26 1_555 1_555
C5 C6 1_555 1_555
C8 N2 1_555 1_555
C12 C13 1_555 1_555
C17 C18 1_555 1_555
C17 N1 1_555 1_555
C18 N2 1_555 1_555
C24 C25 1_555 1_555
C25 O3 1_555 1_555
C30 C31 1_555 1_555
N1 S1 1_555 1_555

#END
