
#######################################################################
#
#                 Cambridge Crystallographic Data Centre
#                                CCDC 
#
#######################################################################
#
# If this CIF has been generated from an entry in the Cambridge 
# Structural Database, then it will include bibliographic, chemical, 
# crystal, experimental, refinement or atomic coordinate data resulting 
# from the CCDC's data processing and validation procedures.
#
#######################################################################

data_OBAXUK
_chemical_formula_moiety         'C24 H32 O9'
_chemical_name_systematic        
1L-3-O-Benzyl-6-deoxy-6-[1'-(S)-(camphanoyloxy)methyl]-chiro-inositol
_symmetry_cell_setting           monoclinic
_symmetry_space_group_name_H-M   'P 21'
_symmetry_Int_Tables_number      4
_space_group_name_Hall           'P 2yb'
loop_
_symmetry_equiv_pos_site_id
_symmetry_equiv_pos_as_xyz
1 x,y,z
2 -x,1/2+y,-z
_cell_length_a                   6.577(1)
_cell_length_b                   10.043(1)
_cell_length_c                   18.229(1)
_cell_angle_alpha                90
_cell_angle_beta                 91.71(1)
_cell_angle_gamma                90
_cell_volume                     1203.54
_exptl_crystal_colour            colorless
_cell_formula_units_Z            2
_exptl_crystal_recrystallization_method EtOAc/EtOH
loop_
_atom_site_label
_atom_site_type_symbol
_atom_site_fract_x
_atom_site_fract_y
_atom_site_fract_z
C1 C 0.1476(3) 0.1074(3) 0.5069(1)
O1 O -0.0449(3) 0.0875(2) 0.4692(1)
C2 C 0.1105(3) 0.1853(3) 0.5770(1)
O2 O 0.0145(2) 0.3095(2) 0.5586(1)
C3 C 0.3101(3) 0.2174(3) 0.6191(1)
C4 C 0.4502(3) 0.2923(3) 0.5683(1)
O3 O 0.6380(2) 0.3250(2) 0.6063(1)
C5 C 0.4938(3) 0.2115(3) 0.4996(1)
O4 O 0.6234(3) 0.2853(2) 0.4531(1)
C6 C 0.2931(3) 0.1808(3) 0.4581(1)
C7 C 0.4155(4) 0.0962(3) 0.6527(1)
O5 O 0.2930(2) 0.0506(2) 0.7129(1)
C8 C 0.3925(4) -0.0228(3) 0.7639(1)
O6 O 0.5679(3) -0.0508(3) 0.7608(1)
C9 C 0.2525(4) -0.0629(3) 0.8239(1)
O7 O 0.3735(3) -0.1438(2) 0.8758(1)
C10 C 0.2693(5) -0.1416(4) 0.9396(2)
O8 O 0.3328(4) -0.2018(4) 0.9932(1)
C11 C 0.0823(5) -0.0608(4) 0.9274(2)
C12 C -0.0193(7) -0.0165(6) 0.9971(2)
C13 C -0.0482(5) -0.1490(4) 0.8748(2)
C14 C 0.0680(4) -0.1469(3) 0.8029(2)
C15 C 0.1672(4) 0.0469(3) 0.8744(2)
C16 C 0.3341(6) 0.1334(4) 0.9097(2)
C17 C 0.0029(5) 0.1352(3) 0.8384(2)
O9 O 0.3337(3) 0.0991(2) 0.3955(1)
C18 C 0.4697(5) 0.0972(3) 0.2754(2)
C19 C 0.4037(8) 0.0659(5) 0.2052(2)
C20 C 0.5370(12) 0.0039(6) 0.1570(2)
C21 C 0.7286(10) -0.0276(5) 0.1797(3)
C22 C 0.7945(7) 0.0006(4) 0.2497(3)
C23 C 0.6669(5) 0.0628(4) 0.2972(2)
C24 C 0.3354(5) 0.1689(3) 0.3264(1)
H1 H 0.2060 0.0205 0.5199
H2 H 0.0218 0.1336 0.6086
H3 H 0.2773 0.2776 0.6594
H4 H 0.3830 0.3754 0.5532
H5 H 0.5606 0.1278 0.5139
H6 H 0.2302 0.2644 0.4414
H7 H 0.4270 0.0264 0.6163
H8 H 0.5511 0.1196 0.6707
H9 H -0.0629 -0.0933 1.0237
H10 H -0.1350 0.0381 0.9845
H11 H 0.0757 0.0337 1.0270
H12 H -0.0588 -0.2390 0.8937
H13 H -0.1839 -0.1125 0.8676
H14 H 0.1072 -0.2359 0.7882
H15 H -0.0122 -0.1059 0.7635
H16 H 0.2737 0.1999 0.9400
H17 H 0.4097 0.1760 0.8721
H18 H 0.4239 0.0787 0.9393
H19 H -0.0412 0.2001 0.8731
H20 H -0.1107 0.0811 0.8227
H21 H 0.0574 0.1797 0.7967
H22 H 0.2712 0.0858 0.1898
H23 H 0.4931 -0.0156 0.1092
H24 H 0.8160 -0.0686 0.1475
H25 H 0.9258 -0.0224 0.2653
H26 H 0.7132 0.0822 0.3447
H27 H 0.3848 0.2590 0.3341
H28 H 0.1984 0.1737 0.3053
H29 H -0.0390(60) 0.0030(50) 0.4570(20)
H30 H -0.1270(50) 0.3040(50) 0.5760(20)
H31 H 0.6430(60) 0.4120(50) 0.6160(20)
H32 H 0.7390(60) 0.2470(50) 0.4530(20)
loop_
_geom_bond_atom_site_label_1
_geom_bond_atom_site_label_2
_geom_bond_site_symmetry_1
_geom_bond_site_symmetry_2
C1 O1 1_555 1_555
O1 H29 1_555 1_555
C2 C1 1_555 1_555
O2 C2 1_555 1_555
C3 C2 1_555 1_555
C4 C3 1_555 1_555
O3 C4 1_555 1_555
C5 C4 1_555 1_555
O4 C5 1_555 1_555
C6 C1 1_555 1_555
C7 C3 1_555 1_555
O5 C7 1_555 1_555
C8 O5 1_555 1_555
O6 C8 1_555 1_555
C9 C8 1_555 1_555
O7 C9 1_555 1_555
C10 O7 1_555 1_555
O8 C10 1_555 1_555
C11 C10 1_555 1_555
C12 C11 1_555 1_555
C13 C11 1_555 1_555
C14 C9 1_555 1_555
C15 C9 1_555 1_555
C16 C15 1_555 1_555
C17 C15 1_555 1_555
O9 C6 1_555 1_555
C18 C19 1_555 1_555
C19 C20 1_555 1_555
C20 C21 1_555 1_555
C21 C22 1_555 1_555
C22 C23 1_555 1_555
C23 C18 1_555 1_555
C24 O9 1_555 1_555
H1 C1 1_555 1_555
H2 C2 1_555 1_555
H3 C3 1_555 1_555
H4 C4 1_555 1_555
H5 C5 1_555 1_555
H6 C6 1_555 1_555
H7 C7 1_555 1_555
H8 C7 1_555 1_555
H9 C12 1_555 1_555
H10 C12 1_555 1_555
H11 C12 1_555 1_555
H12 C13 1_555 1_555
H13 C13 1_555 1_555
H14 C14 1_555 1_555
H15 C14 1_555 1_555
H16 C16 1_555 1_555
H17 C16 1_555 1_555
H18 C16 1_555 1_555
H19 C17 1_555 1_555
H20 C17 1_555 1_555
H21 C17 1_555 1_555
H22 C19 1_555 1_555
H23 C20 1_555 1_555
H24 C21 1_555 1_555
H25 C22 1_555 1_555
H26 C23 1_555 1_555
H27 C24 1_555 1_555
H28 C24 1_555 1_555
H30 O2 1_555 1_555
H31 O3 1_555 1_555
H32 O4 1_555 1_555
C5 C6 1_555 1_555
C11 C15 1_555 1_555
C13 C14 1_555 1_555
C18 C24 1_555 1_555

#END
