
#######################################################################
#
#                 Cambridge Crystallographic Data Centre
#                                CCDC 
#
#######################################################################
#
# If this CIF has been generated from an entry in the Cambridge 
# Structural Database, then it will include bibliographic, chemical, 
# crystal, experimental, refinement or atomic coordinate data resulting 
# from the CCDC's data processing and validation procedures.
#
#######################################################################

data_OBAYUO
_chemical_formula_moiety         
'C14 H10 O4 S2,2(C14 H9 O4 S2 1-),C14 H8 O4 S2 2-,4(C3 H10 N1 1+)'
_chemical_name_systematic        
"tetrakis(trimethylammonium) 2,2'-disulfanediyldibenzoate bis(2-((2-carboxyphenyl)disulfanyl)benzoate) 2,2'-disulfanediyldibenzoic acid"
_symmetry_cell_setting           monoclinic
_symmetry_space_group_name_H-M   'C 2/c'
_symmetry_Int_Tables_number      15
_space_group_name_Hall           '-C 2yn'
loop_
_symmetry_equiv_pos_site_id
_symmetry_equiv_pos_as_xyz
1 x,y,z
2 -x,y,1/2-z
3 1/2+x,1/2+y,z
4 1/2-x,1/2+y,1/2-z
5 -x,-y,-z
6 x,-y,1/2+z
7 1/2-x,1/2-y,-z
8 1/2+x,1/2-y,1/2+z
_cell_length_a                   31.7088(10)
_cell_length_b                   11.5254(3)
_cell_length_c                   23.2263(8)
_cell_angle_alpha                90
_cell_angle_beta                 123.430(3)
_cell_angle_gamma                90
_cell_volume                     7083.91
_exptl_crystal_colour            yellow
_exptl_crystal_description       block
_cell_formula_units_Z            4
loop_
_atom_site_label
_atom_site_type_symbol
_atom_site_fract_x
_atom_site_fract_y
_atom_site_fract_z
S1 S 0.73703(2) 0.58862(4) 0.68940(3)
O1 O 0.77820(6) 0.57334(14) 0.54118(8)
H1 H 0.7621 0.5281 0.5065
C1 C 0.77526(7) 0.69357(17) 0.68200(9)
S2 S 0.76328(2) 0.58658(5) 0.79201(3)
O2 O 0.71748(6) 0.54935(14) 0.56011(8)
C2 C 0.78073(7) 0.68858(17) 0.62596(9)
O3 O 0.73854(7) 0.58713(15) 0.95642(9)
C3 C 0.80847(8) 0.77396(19) 0.61906(11)
H2 H 0.8116 0.7716 0.5815
O4 O 0.79072(6) 0.55696(15) 0.92333(8)
C4 C 0.83152(9) 0.8621(2) 0.66659(13)
H3 H 0.8499 0.9189 0.6611
C5 C 0.82712(8) 0.8652(2) 0.72245(12)
H4 H 0.8428 0.9240 0.7550
C6 C 0.79971(8) 0.78182(18) 0.73012(11)
H5 H 0.7974 0.7844 0.7684
C7 C 0.75569(7) 0.59604(17) 0.57253(10)
C8 C 0.72681(7) 0.69332(16) 0.80180(9)
C9 C 0.72573(7) 0.69286(17) 0.86151(10)
C10 C 0.69850(8) 0.77847(19) 0.86958(11)
H6 H 0.6982 0.7793 0.9094
C11 C 0.67196(8) 0.8621(2) 0.82002(12)
H7 H 0.6542 0.9191 0.8264
C12 C 0.67212(8) 0.8601(2) 0.76102(11)
H8 H 0.6537 0.9155 0.7269
C13 C 0.69912(8) 0.77743(18) 0.75164(10)
H9 H 0.6989 0.7777 0.7114
C14 C 0.75392(8) 0.60487(17) 0.91770(10)
N1 N 0.63508(6) 0.90501(16) 0.50403(9)
H10 H 0.6625 0.9478 0.5239
C15 C 0.65340(10) 0.7857(2) 0.52064(16)
H11 H 0.6731 0.7755 0.5698
H12 H 0.6740 0.7697 0.5030
H13 H 0.6252 0.7334 0.5000
C16 C 0.60436(9) 0.9234(2) 0.42925(12)
H14 H 0.6238 0.9039 0.4103
H15 H 0.5943 1.0034 0.4197
H16 H 0.5748 0.8751 0.4088
C17 C 0.60660(10) 0.9371(3) 0.53433(16)
H17 H 0.6271 0.9236 0.5832
H18 H 0.5765 0.8909 0.5140
H19 H 0.5976 1.0177 0.5256
N2 N 0.61609(7) 0.34501(17) 0.49854(9)
H20 H 0.5888 0.3012 0.4792
C18 C 0.64444(10) 0.3122(3) 0.46789(15)
H21 H 0.6235 0.3233 0.4188
H22 H 0.6542 0.2322 0.4778
H23 H 0.6741 0.3598 0.4870
C19 C 0.64748(10) 0.3280(2) 0.57376(13)
H24 H 0.6283 0.3476 0.5930
H25 H 0.6768 0.3769 0.5936
H26 H 0.6579 0.2483 0.5838
C20 C 0.59688(11) 0.4634(2) 0.48090(17)
H27 H 0.5769 0.4722 0.4317
H28 H 0.6247 0.5167 0.5008
H29 H 0.5764 0.4791 0.4987
S3 S 0.51216(2) -0.33793(5) 0.30109(3)
O5 O 0.47388(6) -0.33318(14) 0.45339(8)
H30 H 0.4889 -0.2811 0.4856
O6 O 0.53161(6) -0.29843(15) 0.42983(8)
C21 C 0.47417(7) -0.44382(17) 0.30797(10)
C22 C 0.46958(7) -0.44101(17) 0.36492(10)
C23 C 0.44209(8) -0.5281(2) 0.37159(12)
H31 H 0.4394 -0.5273 0.4095
C24 C 0.41870(9) -0.6157(2) 0.32344(14)
H32 H 0.4010 -0.6739 0.3292
C25 C 0.42199(8) -0.6151(2) 0.26694(13)
H33 H 0.4055 -0.6724 0.2334
C26 C 0.44936(8) -0.53096(19) 0.25918(11)
H34 H 0.4512 -0.5325 0.2206
C27 C 0.49481(8) -0.35010(18) 0.41921(10)
S3A S 0.48784(2) -0.33793(5) 0.19891(3)
O5A O 0.52612(6) -0.33318(14) 0.04661(8)
H30A H 0.5111 -0.2811 0.0144
O6A O 0.46839(6) -0.29843(15) 0.07017(8)
C21A C 0.52583(7) -0.44382(17) 0.19203(10)
C22A C 0.53042(7) -0.44101(17) 0.13508(10)
C23A C 0.55791(8) -0.5281(2) 0.12841(12)
H31A H 0.5606 -0.5273 0.0905
C24A C 0.58130(9) -0.6157(2) 0.17656(14)
H32A H 0.5990 -0.6739 0.1708
C25A C 0.57801(8) -0.6151(2) 0.23306(13)
H33A H 0.5945 -0.6724 0.2666
C26A C 0.55064(8) -0.53096(19) 0.24082(11)
H34A H 0.5488 -0.5325 0.2794
C27A C 0.50519(8) -0.35010(18) 0.08079(10)
S4 S 0.51408(2) 0.16538(5) 0.30152(3)
O7 O 0.48678(7) 0.17261(15) 0.46160(9)
O8 O 0.54280(6) 0.19030(16) 0.43403(9)
C28 C 0.47742(7) 0.05897(17) 0.31102(10)
C29 C 0.47610(7) 0.05994(17) 0.37017(10)
C30 C 0.44880(8) -0.02594(19) 0.37805(11)
H35 H 0.4485 -0.0268 0.4179
C31 C 0.42222(9) -0.1097(2) 0.32859(13)
H36 H 0.4044 -0.1666 0.3350
C32 C 0.42245(8) -0.10776(19) 0.26963(12)
H37 H 0.4039 -0.1627 0.2353
C33 C 0.44991(8) -0.02498(18) 0.26085(10)
H38 H 0.4500 -0.0253 0.2209
C34 C 0.50426(8) 0.14831(18) 0.42607(10)
S4A S 0.48592(2) 0.16538(5) 0.19848(3)
O7A O 0.51322(7) 0.17261(15) 0.03840(9)
O8A O 0.45720(6) 0.19030(16) 0.06597(9)
C28A C 0.52258(7) 0.05897(17) 0.18898(10)
C29A C 0.52390(7) 0.05994(17) 0.12983(10)
C30A C 0.55120(8) -0.02594(19) 0.12195(11)
H35A H 0.5515 -0.0268 0.0821
C31A C 0.57778(9) -0.1097(2) 0.17141(13)
H36A H 0.5956 -0.1666 0.1650
C32A C 0.57755(8) -0.10776(19) 0.23037(12)
H37A H 0.5961 -0.1627 0.2647
C33A C 0.55009(8) -0.02498(18) 0.23915(10)
H38A H 0.5500 -0.0253 0.2791
C34A C 0.49574(8) 0.14831(18) 0.07393(10)
loop_
_geom_bond_atom_site_label_1
_geom_bond_atom_site_label_2
_geom_bond_site_symmetry_1
_geom_bond_site_symmetry_2
S1 C1 1_555 1_555
O1 H1 1_555 1_555
C1 C2 1_555 1_555
S2 S1 1_555 1_555
O2 C7 1_555 1_555
C2 C3 1_555 1_555
O3 C14 1_555 1_555
C3 H2 1_555 1_555
O4 C14 1_555 1_555
C4 C3 1_555 1_555
H3 C4 1_555 1_555
C5 C4 1_555 1_555
H4 C5 1_555 1_555
C6 C1 1_555 1_555
H5 C6 1_555 1_555
C7 O1 1_555 1_555
C8 S2 1_555 1_555
C9 C8 1_555 1_555
C10 C9 1_555 1_555
H6 C10 1_555 1_555
C11 C10 1_555 1_555
H7 C11 1_555 1_555
C12 C11 1_555 1_555
H8 C12 1_555 1_555
C13 C8 1_555 1_555
H9 C13 1_555 1_555
C14 C9 1_555 1_555
N1 H10 1_555 1_555
C15 N1 1_555 1_555
H11 C15 1_555 1_555
H12 C15 1_555 1_555
H13 C15 1_555 1_555
C16 N1 1_555 1_555
H14 C16 1_555 1_555
H15 C16 1_555 1_555
H16 C16 1_555 1_555
C17 N1 1_555 1_555
H17 C17 1_555 1_555
H18 C17 1_555 1_555
H19 C17 1_555 1_555
N2 H20 1_555 1_555
C18 N2 1_555 1_555
H21 C18 1_555 1_555
H22 C18 1_555 1_555
H23 C18 1_555 1_555
C19 N2 1_555 1_555
H24 C19 1_555 1_555
H25 C19 1_555 1_555
H26 C19 1_555 1_555
C20 N2 1_555 1_555
H27 C20 1_555 1_555
H28 C20 1_555 1_555
H29 C20 1_555 1_555
S3 C21 1_555 1_555
O5 H30 1_555 1_555
O6 C27 1_555 1_555
C21 C22 1_555 1_555
C22 C23 1_555 1_555
C23 H31 1_555 1_555
C24 C23 1_555 1_555
H32 C24 1_555 1_555
C25 C24 1_555 1_555
H33 C25 1_555 1_555
C26 C21 1_555 1_555
H34 C26 1_555 1_555
C27 O5 1_555 1_555
S4 C28 1_555 1_555
O7 C34 1_555 1_555
O8 C34 1_555 1_555
C28 C29 1_555 1_555
C29 C30 1_555 1_555
C30 H35 1_555 1_555
C31 C30 1_555 1_555
H36 C31 1_555 1_555
C32 C31 1_555 1_555
H37 C32 1_555 1_555
C33 C28 1_555 1_555
H38 C33 1_555 1_555
C34 C29 1_555 1_555
S3A S3 1_555 1_555
O5A H30A 1_555 1_555
O6A C27A 1_555 1_555
C21A S3A 1_555 1_555
C22A C21A 1_555 1_555
C23A C22A 1_555 1_555
H31A C23A 1_555 1_555
C24A C23A 1_555 1_555
H32A C24A 1_555 1_555
C25A C24A 1_555 1_555
H33A C25A 1_555 1_555
C26A C21A 1_555 1_555
H34A C26A 1_555 1_555
C27A O5A 1_555 1_555
S4A S4 1_555 1_555
O7A C34A 1_555 1_555
O8A C34A 1_555 1_555
C28A S4A 1_555 1_555
C29A C28A 1_555 1_555
C30A C29A 1_555 1_555
H35A C30A 1_555 1_555
C31A C30A 1_555 1_555
H36A C31A 1_555 1_555
C32A C31A 1_555 1_555
H37A C32A 1_555 1_555
C33A C28A 1_555 1_555
H38A C33A 1_555 1_555
C34A C29A 1_555 1_555
C2 C7 1_555 1_555
C5 C6 1_555 1_555
C12 C13 1_555 1_555
C22 C27 1_555 1_555
C25 C26 1_555 1_555
C32 C33 1_555 1_555
C22A C27A 1_555 1_555
C25A C26A 1_555 1_555
C32A C33A 1_555 1_555

#END
