
#######################################################################
#
#                 Cambridge Crystallographic Data Centre
#                                CCDC 
#
#######################################################################
#
# If this CIF has been generated from an entry in the Cambridge 
# Structural Database, then it will include bibliographic, chemical, 
# crystal, experimental, refinement or atomic coordinate data resulting 
# from the CCDC's data processing and validation procedures.
#
#######################################################################

data_OBEFOR
_chemical_formula_moiety         'C75 H78 N2 O5 S2'
_chemical_name_systematic        
(2,7-bis(4-(4'-(Cyanoethylthio)phenyl)ethynyl)-2,5-bis(hexyloxy)phenylethynyl)-9-fluorenone
_symmetry_cell_setting           monoclinic
_symmetry_space_group_name_H-M   'C 2/c'
_symmetry_Int_Tables_number      15
_space_group_name_Hall           '-C 2yn'
loop_
_symmetry_equiv_pos_site_id
_symmetry_equiv_pos_as_xyz
1 x,y,z
2 -x,y,1/2-z
3 1/2+x,1/2+y,z
4 1/2-x,1/2+y,1/2-z
5 -x,-y,-z
6 x,-y,1/2+z
7 1/2-x,1/2-y,-z
8 1/2+x,1/2-y,1/2+z
_cell_length_a                   8.541(1)
_cell_length_b                   21.607(5)
_cell_length_c                   34.169(8)
_cell_angle_alpha                90
_cell_angle_beta                 95.17(2)
_cell_angle_gamma                90
_cell_volume                     6280.08
_exptl_crystal_colour            orange
_exptl_crystal_description       plate
_cell_formula_units_Z            4
loop_
_atom_site_label
_atom_site_type_symbol
_atom_site_fract_x
_atom_site_fract_y
_atom_site_fract_z
O1 O 0.0000 0.04428(14) 0.2500
O2 O -0.7794(2) 0.04282(10) 0.17491(6)
O3 O -1.1883(2) 0.22279(9) 0.11413(6)
S1 S -2.08429(9) 0.05839(4) 0.02878(3)
N1 N -2.4867(3) 0.22894(15) -0.00667(10)
C1 C -0.2822(3) 0.12824(15) 0.21901(9)
H1 H -0.3160 0.0866 0.2157
C2 C -0.3838(3) 0.17732(14) 0.20785(9)
C3 C -0.3319(3) 0.23808(15) 0.21348(9)
H2 H -0.4013 0.2710 0.2057
C4 C -0.1808(3) 0.25205(15) 0.23025(10)
H3 H -0.1473 0.2937 0.2342
C5 C -0.0826(3) 0.20349(13) 0.24093(9)
C6 C -0.1308(3) 0.14239(14) 0.23543(9)
C7 C 0.0000 0.1005(2) 0.2500
C8 C -0.5416(3) 0.16678(14) 0.19116(9)
C9 C -0.6743(3) 0.15993(14) 0.17753(9)
C10 C -0.8318(3) 0.14715(14) 0.16142(8)
C11 C -0.8851(3) 0.08620(14) 0.16006(9)
C12 C -1.0367(3) 0.07266(13) 0.14446(9)
H4 H -1.0723 0.0310 0.1436
C13 C -1.1372(3) 0.11999(14) 0.13006(8)
C14 C -1.0827(3) 0.18086(14) 0.13081(9)
C15 C -0.9330(3) 0.19458(13) 0.14690(9)
H5 H -0.8981 0.2363 0.1480
C16 C -0.8285(4) -0.02029(15) 0.17375(11)
H6 H -0.8517 -0.0337 0.1461
H7 H -0.9248 -0.0254 0.1876
C17 C -0.6952(5) -0.05769(18) 0.19306(12)
H8 H -0.6738 -0.0441 0.2207
H9 H -0.7279 -0.1016 0.1933
C18 C -0.5465(5) -0.05304(19) 0.17247(13)
H10 H -0.5058 -0.0102 0.1740
H11 H -0.5658 -0.0648 0.1445
C19 C -0.4291(5) -0.0975(2) 0.19483(14)
H12 H -0.4259 -0.0901 0.2235
H13 H -0.4635 -0.1407 0.1896
C20 C -0.2637(6) -0.0890(3) 0.1812(2)
H14 H -0.2287 -0.0459 0.1866
H15 H -0.2669 -0.0960 0.1525
C23 C -0.1492(4) -0.13436(18) 0.20299(13)
H20 H -0.0447 -0.1281 0.1939
H21 H -0.1836 -0.1769 0.1973
H22 H -0.1447 -0.1269 0.2314
C24 C -1.1497(4) 0.28641(14) 0.11471(11)
H23 H -1.0511 0.2936 0.1022
H24 H -1.1361 0.3020 0.1420
C25 C -1.2867(4) 0.31913(17) 0.09159(11)
H25 H -1.2633 0.3639 0.0906
H26 H -1.2966 0.3034 0.0643
C26 C -1.4409(4) 0.31105(18) 0.10828(13)
H27 H -1.4357 0.3363 0.1325
H28 H -1.4452 0.2674 0.1167
C27 C -1.6010(6) 0.3252(3) 0.08573(18)
H29 H -1.6088 0.3009 0.0611
H30 H -1.6877 0.3122 0.1013
C28 C -1.6179(6) 0.3913(3) 0.07618(18)
H31 H -1.5460 0.4027 0.0562
H32 H -1.5902 0.4164 0.1000
C31 C -1.7921(4) 0.40599(18) 0.05937(14)
H37 H -1.8018 0.4501 0.0531
H38 H -1.8643 0.3953 0.0791
H39 H -1.8184 0.3816 0.0355
C32 C -1.2943(3) 0.10691(14) 0.11451(9)
C33 C -1.4281(3) 0.09843(14) 0.10146(9)
C34 C -1.5857(3) 0.09014(14) 0.08402(9)
C35 C -1.6495(3) 0.03122(15) 0.07776(9)
H40 H -1.5873 -0.0041 0.0850
C36 C -1.8007(3) 0.02346(14) 0.06149(9)
H41 H -1.8429 -0.0170 0.0582
C37 C -1.8925(3) 0.07495(14) 0.04963(9)
C38 C -1.8299(3) 0.13331(14) 0.05468(9)
H42 H -1.8907 0.1685 0.0463
C39 C -1.6779(3) 0.14091(14) 0.07213(9)
H43 H -1.6364 0.1814 0.0758
C40 C -2.1722(3) 0.13357(14) 0.02233(10)
H44 H -2.1705 0.1554 0.0478
H45 H -2.1144 0.1588 0.0042
C41 C -2.3422(3) 0.12343(14) 0.00492(10)
H46 H -2.3422 0.1007 -0.0202
H47 H -2.3984 0.0980 0.0233
C42 C -2.4246(4) 0.18253(17) -0.00173(11)
C5A C 0.0826(3) 0.20349(13) 0.25907(9)
C4A C 0.1808(3) 0.25205(15) 0.26975(10)
C3A C 0.3319(3) 0.23808(15) 0.28652(9)
C2A C 0.3838(3) 0.17732(14) 0.29215(9)
C1A C 0.2822(3) 0.12824(15) 0.28099(9)
H1A H 0.3160 0.0866 0.2843
C6A C 0.1308(3) 0.14239(14) 0.26457(9)
C8A C 0.5416(3) 0.16678(14) 0.30884(9)
C9A C 0.6743(3) 0.15993(14) 0.32247(9)
C10A C 0.8318(3) 0.14715(14) 0.33858(8)
C11A C 0.8851(3) 0.08620(14) 0.33994(9)
O2A O 0.7794(2) 0.04282(10) 0.32509(6)
C16A C 0.8285(4) -0.02029(15) 0.32625(11)
H6A H 0.8517 -0.0337 0.3539
H7A H 0.9248 -0.0254 0.3124
C17A C 0.6952(5) -0.05769(18) 0.30694(12)
H8A H 0.6738 -0.0441 0.2793
H9A H 0.7279 -0.1016 0.3067
C18A C 0.5465(5) -0.05304(19) 0.32753(13)
H10A H 0.5058 -0.0102 0.3260
H11A H 0.5658 -0.0648 0.3555
C19A C 0.4291(5) -0.0975(2) 0.30517(14)
H12A H 0.4259 -0.0901 0.2765
H13A H 0.4635 -0.1407 0.3104
C20A C 0.2637(6) -0.0890(3) 0.3188(2)
H14A H 0.2287 -0.0459 0.3134
H15A H 0.2669 -0.0960 0.3475
C23A C 0.1492(4) -0.13436(18) 0.29701(13)
H20A H 0.0447 -0.1281 0.3061
H21A H 0.1836 -0.1769 0.3027
H22A H 0.1447 -0.1269 0.2686
C12A C 1.0367(3) 0.07266(13) 0.35554(9)
H4A H 1.0723 0.0310 0.3564
C13A C 1.1372(3) 0.11999(14) 0.36994(8)
C14A C 1.0827(3) 0.18086(14) 0.36919(9)
O3A O 1.1883(2) 0.22279(9) 0.38587(6)
C24A C 1.1497(4) 0.28641(14) 0.38529(11)
H23A H 1.0511 0.2936 0.3978
H24A H 1.1361 0.3020 0.3580
C25A C 1.2867(4) 0.31913(17) 0.40841(11)
H25A H 1.2633 0.3639 0.4094
H26A H 1.2966 0.3034 0.4357
C26A C 1.4409(4) 0.31105(18) 0.39172(13)
H27A H 1.4357 0.3363 0.3675
H28A H 1.4452 0.2674 0.3833
C27A C 1.6010(6) 0.3252(3) 0.41427(18)
H29A H 1.6088 0.3009 0.4389
H30A H 1.6877 0.3122 0.3987
C28A C 1.6179(6) 0.3913(3) 0.42382(18)
H31A H 1.5460 0.4027 0.4438
H32A H 1.5902 0.4164 0.4000
C31A C 1.7921(4) 0.40599(18) 0.44063(14)
H37A H 1.8018 0.4501 0.4469
H38A H 1.8643 0.3953 0.4209
H39A H 1.8184 0.3816 0.4645
C15A C 0.9330(3) 0.19458(13) 0.35310(9)
H5A H 0.8981 0.2363 0.3520
C32A C 1.2943(3) 0.10691(14) 0.38549(9)
C33A C 1.4281(3) 0.09843(14) 0.39854(9)
C34A C 1.5857(3) 0.09014(14) 0.41598(9)
C35A C 1.6495(3) 0.03122(15) 0.42224(9)
H40A H 1.5873 -0.0041 0.4150
C36A C 1.8007(3) 0.02346(14) 0.43851(9)
H41A H 1.8429 -0.0170 0.4418
C37A C 1.8925(3) 0.07495(14) 0.45037(9)
S1A S 2.08429(9) 0.05839(4) 0.47122(3)
C40A C 2.1722(3) 0.13357(14) 0.47767(10)
H44A H 2.1705 0.1554 0.4522
H45A H 2.1144 0.1588 0.4958
C41A C 2.3422(3) 0.12343(14) 0.49508(10)
H46A H 2.3422 0.1007 0.5202
H47A H 2.3984 0.0980 0.4767
C42A C 2.4246(4) 0.18253(17) 0.50173(11)
N1A N 2.4867(3) 0.22894(15) 0.50667(10)
C38A C 1.8299(3) 0.13331(14) 0.44532(9)
H42A H 1.8907 0.1685 0.4537
C39A C 1.6779(3) 0.14091(14) 0.42787(9)
H43A H 1.6364 0.1814 0.4242
H2A H 0.4013 0.2710 0.2943
H3A H 0.1473 0.2937 0.2658
C21? C 0.6549(15) -0.0599(6) 0.1835(4)
H16? H 0.7130 -0.0461 0.1613
H17? H 0.6880 -0.0350 0.2072
C22? C 0.6625(17) -0.1216(6) 0.1918(4)
H18? H 0.6276 -0.1456 0.1679
H19? H 0.6005 -0.1347 0.2134
C29? C 0.4622(11) 0.3618(5) 0.0812(3)
H33? H 0.4921 0.4046 0.0891
H34? H 0.4824 0.3557 0.0534
C30? C 0.2883(11) 0.3483(5) 0.0865(3)
H35? H 0.2672 0.3519 0.1144
H36? H 0.2535 0.3072 0.0763
loop_
_geom_bond_atom_site_label_1
_geom_bond_atom_site_label_2
_geom_bond_site_symmetry_1
_geom_bond_site_symmetry_2
O1 C7 1_555 1_555
O2 C11 1_555 1_555
O3 C14 1_555 1_555
S1 C37 1_555 1_555
N1 C42 1_555 1_555
C1 H1 1_555 1_555
C2 C1 1_555 1_555
C3 C2 1_555 1_555
H2 C3 1_555 1_555
C4 C3 1_555 1_555
H3 C4 1_555 1_555
C5 C4 1_555 1_555
C6 C1 1_555 1_555
C7 C6 1_555 1_555
C8 C2 1_555 1_555
C9 C8 1_555 1_555
C10 C9 1_555 1_555
C11 C10 1_555 1_555
C12 C11 1_555 1_555
H4 C12 1_555 1_555
C13 C12 1_555 1_555
C14 C13 1_555 1_555
C15 C10 1_555 1_555
H5 C15 1_555 1_555
C16 O2 1_555 1_555
H6 C16 1_555 1_555
H7 C16 1_555 1_555
C17 C16 1_555 1_555
H8 C17 1_555 1_555
H9 C17 1_555 1_555
C18 C17 1_555 1_555
H10 C18 1_555 1_555
H11 C18 1_555 1_555
C19 C18 1_555 1_555
H12 C19 1_555 1_555
H13 C19 1_555 1_555
C20 C19 1_555 1_555
H14 C20 1_555 1_555
H15 C20 1_555 1_555
C23 C20 1_555 1_555
H20 C23 1_555 1_555
H21 C23 1_555 1_555
H22 C23 1_555 1_555
C24 O3 1_555 1_555
H23 C24 1_555 1_555
H24 C24 1_555 1_555
C25 C24 1_555 1_555
H25 C25 1_555 1_555
H26 C25 1_555 1_555
C26 C25 1_555 1_555
H27 C26 1_555 1_555
H28 C26 1_555 1_555
C27 C26 1_555 1_555
H29 C27 1_555 1_555
H30 C27 1_555 1_555
C28 C27 1_555 1_555
H31 C28 1_555 1_555
H32 C28 1_555 1_555
C31 C28 1_555 1_555
H37 C31 1_555 1_555
H38 C31 1_555 1_555
H39 C31 1_555 1_555
C32 C13 1_555 1_555
C33 C32 1_555 1_555
C34 C33 1_555 1_555
C35 C34 1_555 1_555
H40 C35 1_555 1_555
C36 C35 1_555 1_555
H41 C36 1_555 1_555
C37 C36 1_555 1_555
C38 C37 1_555 1_555
H42 C38 1_555 1_555
C39 C34 1_555 1_555
H43 C39 1_555 1_555
C40 S1 1_555 1_555
H44 C40 1_555 1_555
H45 C40 1_555 1_555
C41 C40 1_555 1_555
H46 C41 1_555 1_555
H47 C41 1_555 1_555
C42 C41 1_555 1_555
C5A C5 1_555 1_555
C4A C5A 1_555 1_555
C3A C4A 1_555 1_555
C2A C3A 1_555 1_555
C1A C2A 1_555 1_555
H1A C1A 1_555 1_555
C6A C7 1_555 1_555
C8A C2A 1_555 1_555
C9A C8A 1_555 1_555
C10A C9A 1_555 1_555
C11A C10A 1_555 1_555
O2A C11A 1_555 1_555
C16A O2A 1_555 1_555
H6A C16A 1_555 1_555
H7A C16A 1_555 1_555
C17A C16A 1_555 1_555
H8A C17A 1_555 1_555
H9A C17A 1_555 1_555
C18A C17A 1_555 1_555
H10A C18A 1_555 1_555
H11A C18A 1_555 1_555
C19A C18A 1_555 1_555
H12A C19A 1_555 1_555
H13A C19A 1_555 1_555
C20A C19A 1_555 1_555
H14A C20A 1_555 1_555
H15A C20A 1_555 1_555
C23A C20A 1_555 1_555
H20A C23A 1_555 1_555
H21A C23A 1_555 1_555
H22A C23A 1_555 1_555
C12A C11A 1_555 1_555
H4A C12A 1_555 1_555
C13A C12A 1_555 1_555
C14A C13A 1_555 1_555
O3A C14A 1_555 1_555
C24A O3A 1_555 1_555
H23A C24A 1_555 1_555
H24A C24A 1_555 1_555
C25A C24A 1_555 1_555
H25A C25A 1_555 1_555
H26A C25A 1_555 1_555
C26A C25A 1_555 1_555
H27A C26A 1_555 1_555
H28A C26A 1_555 1_555
C27A C26A 1_555 1_555
H29A C27A 1_555 1_555
H30A C27A 1_555 1_555
C28A C27A 1_555 1_555
H31A C28A 1_555 1_555
H32A C28A 1_555 1_555
C31A C28A 1_555 1_555
H37A C31A 1_555 1_555
H38A C31A 1_555 1_555
H39A C31A 1_555 1_555
C15A C10A 1_555 1_555
H5A C15A 1_555 1_555
C32A C13A 1_555 1_555
C33A C32A 1_555 1_555
C34A C33A 1_555 1_555
C35A C34A 1_555 1_555
H40A C35A 1_555 1_555
C36A C35A 1_555 1_555
H41A C36A 1_555 1_555
C37A C36A 1_555 1_555
S1A C37A 1_555 1_555
C40A S1A 1_555 1_555
H44A C40A 1_555 1_555
H45A C40A 1_555 1_555
C41A C40A 1_555 1_555
H46A C41A 1_555 1_555
H47A C41A 1_555 1_555
C42A C41A 1_555 1_555
N1A C42A 1_555 1_555
C38A C37A 1_555 1_555
H42A C38A 1_555 1_555
C39A C34A 1_555 1_555
H43A C39A 1_555 1_555
H2A C3A 1_555 1_555
H3A C4A 1_555 1_555
C5 C6 1_555 1_555
C14 C15 1_555 1_555
C38 C39 1_555 1_555
C5A C6A 1_555 1_555
C1A C6A 1_555 1_555
C14A C15A 1_555 1_555
C38A C39A 1_555 1_555

#END
