
#######################################################################
#
#                 Cambridge Crystallographic Data Centre
#                                CCDC 
#
#######################################################################
#
# If this CIF has been generated from an entry in the Cambridge 
# Structural Database, then it will include bibliographic, chemical, 
# crystal, experimental, refinement or atomic coordinate data resulting 
# from the CCDC's data processing and validation procedures.
#
#######################################################################

data_OBEHIO
_chemical_formula_moiety         'C32 H29 Cl2 N3 O4'
_chemical_name_systematic        
2,7-bis(4-chlorophenyl)-9-(2-ethylhexyl)-3,6-dinitro-9H-carbazole
_symmetry_cell_setting           monoclinic
_symmetry_space_group_name_H-M   'P 21/c'
_symmetry_Int_Tables_number      14
_space_group_name_Hall           '-P 2ybc'
loop_
_symmetry_equiv_pos_site_id
_symmetry_equiv_pos_as_xyz
1 x,y,z
2 -x,1/2+y,1/2-z
3 -x,-y,-z
4 x,1/2-y,1/2+z
_cell_length_a                   9.6436(16)
_cell_length_b                   31.545(5)
_cell_length_c                   9.9659(17)
_cell_angle_alpha                90
_cell_angle_beta                 109.87(1)
_cell_angle_gamma                90
_cell_volume                     2851.21
_exptl_crystal_colour            'pale yellow'
_exptl_crystal_description       needle
_cell_formula_units_Z            4
loop_
_atom_site_label
_atom_site_type_symbol
_atom_site_fract_x
_atom_site_fract_y
_atom_site_fract_z
Cl1 Cl 1.04126(7) 0.16322(2) 0.96747(7)
Cl2 Cl -0.13138(8) 0.52549(2) -0.35218(8)
O1 O 0.44407(19) 0.14591(5) 0.52605(18)
O2 O 0.3844(2) 0.14137(6) 0.29658(19)
O3 O -0.03759(19) 0.28697(6) -0.26657(18)
O4 O -0.1729(2) 0.33862(6) -0.2375(2)
N1 N 0.3441(2) 0.33646(6) 0.3506(2)
N2 N 0.4174(2) 0.16194(7) 0.4083(2)
N3 N -0.0610(2) 0.31689(7) -0.1981(2)
C1 C 0.4871(3) 0.27705(8) 0.5039(2)
H1 H 0.5431 0.2948 0.5800
C2 C 0.5096(3) 0.23342(8) 0.5111(2)
C3 C 0.4171(3) 0.20838(7) 0.3974(2)
C4 C 0.3161(3) 0.22512(8) 0.2757(3)
H2 H 0.2591 0.2073 0.2003
C5 C 0.1152(3) 0.29060(8) 0.0207(3)
H3 H 0.0951 0.2629 -0.0186
C6 C 0.0502(3) 0.32569(8) -0.0575(2)
C7 C 0.0799(3) 0.36768(8) -0.0062(3)
C8 C 0.1771(3) 0.37373(8) 0.1319(3)
H4 H 0.1986 0.4016 0.1698
C9 C 0.3814(3) 0.29439(7) 0.3834(2)
C10 C 0.2999(2) 0.26877(7) 0.2669(2)
C11 C 0.2115(3) 0.29689(7) 0.1582(3)
C12 C 0.2421(2) 0.33850(8) 0.2142(2)
C13 C 0.3906(3) 0.37108(8) 0.4541(3)
H5 H 0.3951 0.3603 0.5496
H6 H 0.3139 0.3936 0.4308
C14 C 0.5423(4) 0.38731(12) 0.4747(4)
H7 H 0.6070 0.3619 0.4843
C15 C 0.5989(4) 0.41125(13) 0.6154(4)
H8 H 0.6986 0.4221 0.6272
H9 H 0.6090 0.3911 0.6942
C16 C 0.5105(6) 0.44942(16) 0.6280(6)
H10 H 0.5551 0.4626 0.7194
H11 H 0.5022 0.4698 0.5540
H12 H 0.4142 0.4392 0.6198
C17 C 0.5477(4) 0.41138(13) 0.3450(4)
H13 H 0.4879 0.4374 0.3356
H14 H 0.5013 0.3940 0.2588
C18 C 0.7026(3) 0.42469(10) 0.3474(3)
H15 H 0.7674 0.4013 0.3862
H16 H 0.7351 0.4479 0.4129
C19 C 0.7202(6) 0.4373(2) 0.2154(5)
H17 H 0.6863 0.4133 0.1484
H18 H 0.8272 0.4407 0.2339
C20 C 0.6509(8) 0.47339(19) 0.1444(7)
H19 H 0.6738 0.4771 0.0565
H20 H 0.6859 0.4981 0.2063
H21 H 0.5440 0.4706 0.1206
C21 C 0.6395(3) 0.21578(7) 0.6255(2)
C22 C 0.7345(3) 0.18770(8) 0.5919(3)
H22 H 0.7139 0.1792 0.4956
C23 C 0.8576(3) 0.17192(8) 0.6966(3)
H23 H 0.9216 0.1527 0.6731
C24 C 0.8861(3) 0.18438(8) 0.8363(3)
C25 C 0.7968(3) 0.21270(8) 0.8738(3)
H24 H 0.8197 0.2215 0.9701
C26 C 0.6736(3) 0.22838(8) 0.7667(2)
H25 H 0.6108 0.2479 0.7909
C27 C 0.0215(3) 0.40602(8) -0.0961(3)
C28 C 0.0589(3) 0.41378(8) -0.2169(3)
H26 H 0.1167 0.3937 -0.2456
C29 C 0.0121(3) 0.45051(9) -0.2954(3)
H27 H 0.0381 0.4560 -0.3776
C30 C -0.0721(3) 0.47921(8) -0.2529(3)
C31 C -0.1112(3) 0.47222(8) -0.1343(3)
H28 H -0.1692 0.4924 -0.1061
C32 C -0.0636(3) 0.43534(8) -0.0559(3)
H29 H -0.0897 0.4302 0.0264
C33? C 0.4997(10) 0.4065(3) 0.4317(11)
C34? C 0.5708(12) 0.4329(4) 0.5688(11)
C35? C 0.4623(18) 0.4503(6) 0.640(2)
C36? C 0.6181(11) 0.3877(3) 0.3778(11)
C37? C 0.6128(17) 0.4449(5) 0.2014(13)
C38? C 0.612(2) 0.4458(7) 0.0722(17)
H30? H 0.4391 0.4265 0.3566
H31? H 0.6401 0.4140 0.6397
H32? H 0.6316 0.4553 0.5464
H33? H 0.5176 0.4663 0.7256
H34? H 0.4091 0.4270 0.6657
H35? H 0.3917 0.4692 0.5721
H36? H 0.5693 0.3718 0.2886
H37? H 0.6834 0.3681 0.4489
H38? H 0.7206 0.4454 0.4220
H39? H 0.7961 0.4147 0.3458
H40? H 0.5104 0.4359 0.1870
H41? H 0.6155 0.4754 0.2249
H42? H 0.5315 0.4637 0.0130
H43? H 0.5993 0.4169 0.0336
H44? H 0.7065 0.4572 0.0722
loop_
_geom_bond_atom_site_label_1
_geom_bond_atom_site_label_2
_geom_bond_site_symmetry_1
_geom_bond_site_symmetry_2
Cl1 C24 1_555 1_555
Cl2 C30 1_555 1_555
O1 N2 1_555 1_555
O2 N2 1_555 1_555
O3 N3 1_555 1_555
O4 N3 1_555 1_555
N1 C9 1_555 1_555
N2 C3 1_555 1_555
N3 C6 1_555 1_555
C1 H1 1_555 1_555
C2 C1 1_555 1_555
C3 C2 1_555 1_555
C4 C3 1_555 1_555
H2 C4 1_555 1_555
C5 H3 1_555 1_555
C6 C5 1_555 1_555
C7 C6 1_555 1_555
C8 C7 1_555 1_555
H4 C8 1_555 1_555
C9 C1 1_555 1_555
C10 C4 1_555 1_555
C11 C5 1_555 1_555
C12 N1 1_555 1_555
C13 N1 1_555 1_555
H5 C13 1_555 1_555
H6 C13 1_555 1_555
C14 C13 1_555 1_555
H7 C14 1_555 1_555
C15 C14 1_555 1_555
H8 C15 1_555 1_555
H9 C15 1_555 1_555
C16 C15 1_555 1_555
H10 C16 1_555 1_555
H11 C16 1_555 1_555
H12 C16 1_555 1_555
C17 C14 1_555 1_555
H13 C17 1_555 1_555
H14 C17 1_555 1_555
C18 C17 1_555 1_555
H15 C18 1_555 1_555
H16 C18 1_555 1_555
C19 C18 1_555 1_555
H17 C19 1_555 1_555
H18 C19 1_555 1_555
C20 C19 1_555 1_555
H19 C20 1_555 1_555
H20 C20 1_555 1_555
H21 C20 1_555 1_555
C21 C2 1_555 1_555
C22 C21 1_555 1_555
H22 C22 1_555 1_555
C23 C22 1_555 1_555
H23 C23 1_555 1_555
C24 C23 1_555 1_555
C25 C24 1_555 1_555
H24 C25 1_555 1_555
C26 C21 1_555 1_555
H25 C26 1_555 1_555
C27 C7 1_555 1_555
C28 C27 1_555 1_555
H26 C28 1_555 1_555
C29 C28 1_555 1_555
H27 C29 1_555 1_555
C30 C29 1_555 1_555
C31 C30 1_555 1_555
H28 C31 1_555 1_555
C32 C27 1_555 1_555
H29 C32 1_555 1_555
C8 C12 1_555 1_555
C9 C10 1_555 1_555
C10 C11 1_555 1_555
C11 C12 1_555 1_555
C25 C26 1_555 1_555
C31 C32 1_555 1_555

#END
