
#######################################################################
#
#                 Cambridge Crystallographic Data Centre
#                                CCDC 
#
#######################################################################
#
# If this CIF has been generated from an entry in the Cambridge 
# Structural Database, then it will include bibliographic, chemical, 
# crystal, experimental, refinement or atomic coordinate data resulting 
# from the CCDC's data processing and validation procedures.
#
#######################################################################

data_OBEJUB
_chemical_formula_moiety         'C31 H24 N4,0.5(C2 H6 O1)'
_chemical_name_systematic        
'6-t-Butyl-1,4-bis(4-cyanophenyl)-2-phenyl-2H-cyclopenta(d)pyridazine ethanol solvate'
_symmetry_cell_setting           monoclinic
_symmetry_space_group_name_H-M   'P 21/n'
_symmetry_Int_Tables_number      14
_space_group_name_Hall           '-P 2yn'
loop_
_symmetry_equiv_pos_site_id
_symmetry_equiv_pos_as_xyz
1 x,y,z
2 1/2+x,1/2-y,1/2+z
3 -x,-y,-z
4 1/2-x,1/2+y,1/2-z
_cell_length_a                   11.3927(6)
_cell_length_b                   29.4124(16)
_cell_length_c                   15.7412(9)
_cell_angle_alpha                90
_cell_angle_beta                 105.5330(10)
_cell_angle_gamma                90
_cell_volume                     5082.02
_exptl_crystal_colour            orange
_exptl_crystal_description       block
_cell_formula_units_Z            8
loop_
_atom_site_label
_atom_site_type_symbol
_atom_site_fract_x
_atom_site_fract_y
_atom_site_fract_z
C1 C 0.13912(16) 0.16228(6) 0.07907(11)
C2 C 0.20093(16) 0.18774(6) 0.02859(11)
H1 H 0.2020 0.2199 0.0239
C3 C 0.25999(17) 0.15709(6) -0.01311(11)
C4 C 0.23784(17) 0.11200(6) 0.01160(11)
H2 H 0.2688 0.0850 -0.0075
C5 C 0.16325(16) 0.11416(6) 0.06841(11)
C6 C 0.06981(16) 0.17448(6) 0.13452(11)
C7 C 0.05870(16) 0.22232(6) 0.16215(11)
C8 C -0.0122(2) 0.25358(7) 0.10508(13)
H3 H -0.0589 0.2443 0.0483
C9 C -0.0150(2) 0.29844(7) 0.13109(14)
H4 H -0.0642 0.3199 0.0923
C10 C 0.05435(18) 0.31206(6) 0.21392(13)
C11 C 0.12378(18) 0.28067(7) 0.27214(14)
H5 H 0.1699 0.2899 0.3292
C12 C 0.12478(18) 0.23592(6) 0.24592(13)
H6 H 0.1712 0.2141 0.2856
C13 C 0.0522(2) 0.35918(7) 0.23997(15)
C14 C 0.10957(16) 0.08276(6) 0.11537(11)
C15 C 0.12449(16) 0.03252(6) 0.11076(10)
C16 C 0.23200(17) 0.01363(6) 0.10013(11)
H7 H 0.2986 0.0329 0.0993
C17 C 0.24274(18) -0.03286(6) 0.09082(11)
H8 H 0.3162 -0.0454 0.0834
C18 C 0.14532(18) -0.06132(6) 0.09244(11)
C19 C 0.03905(18) -0.04300(6) 0.10666(12)
H9 H -0.0262 -0.0624 0.1101
C20 C 0.02952(17) 0.00339(6) 0.11569(12)
H10 H -0.0428 0.0158 0.1254
C21 C 0.1554(2) -0.10973(7) 0.07834(13)
C22 C -0.07074(18) 0.15183(6) 0.21907(12)
C23 C -0.17908(19) 0.17145(7) 0.17410(14)
H11 H -0.1960 0.1771 0.1126
C24 C -0.2634(2) 0.18281(7) 0.22006(16)
H12 H -0.3380 0.1969 0.1899
C25 C -0.2402(2) 0.17394(7) 0.30825(16)
H13 H -0.2982 0.1819 0.3393
C26 C -0.1332(3) 0.15366(10) 0.35149(17)
H14 H -0.1176 0.1469 0.4125
C27 C -0.0470(2) 0.14277(9) 0.30691(15)
H15 H 0.0280 0.1291 0.3375
C28 C 0.33990(19) 0.16879(6) -0.07337(13)
C29 C 0.3309(3) 0.21910(8) -0.0966(2)
H16 H 0.2454 0.2273 -0.1221
H17 H 0.3774 0.2253 -0.1395
H18 H 0.3643 0.2371 -0.0432
C30 C 0.2944(2) 0.14302(10) -0.16072(15)
H19 H 0.3037 0.1102 -0.1497
H20 H 0.3423 0.1522 -0.2011
H21 H 0.2084 0.1502 -0.1871
C31 C 0.4696(2) 0.15441(11) -0.02979(17)
H22 H 0.4997 0.1709 0.0259
H23 H 0.5211 0.1614 -0.0689
H24 H 0.4719 0.1216 -0.0182
N1 N 0.0482(2) 0.39649(6) 0.25964(15)
N2 N 0.01855(14) 0.14093(5) 0.17209(10)
N3 N 0.03695(14) 0.09555(5) 0.16442(10)
N4 N 0.1646(2) -0.14767(6) 0.06573(14)
C32 C 0.41919(16) 0.04414(6) 0.31631(11)
C33 C 0.48832(16) 0.01455(6) 0.27828(11)
H25 H 0.4900 -0.0177 0.2824
C34 C 0.55379(16) 0.04120(6) 0.23344(11)
C35 C 0.52566(16) 0.08764(6) 0.24146(11)
H26 H 0.5570 0.1126 0.2160
C36 C 0.44416(16) 0.09036(6) 0.29305(11)
C37 C 0.34597(16) 0.03798(6) 0.37274(11)
C38 C 0.31713(16) -0.00829(6) 0.39906(11)
C39 C 0.26702(18) -0.03903(6) 0.33230(11)
H27 H 0.2462 -0.0292 0.2726
C40 C 0.24710(18) -0.08367(6) 0.35162(12)
H28 H 0.2124 -0.1044 0.3055
C41 C 0.27811(17) -0.09808(6) 0.43906(12)
C42 C 0.32670(17) -0.06722(6) 0.50722(12)
H29 H 0.3465 -0.0769 0.5670
C43 C 0.34550(17) -0.02268(6) 0.48681(11)
H30 H 0.3780 -0.0016 0.5328
C44 C 0.2624(2) -0.14539(7) 0.45799(13)
C45 C 0.39414(16) 0.12615(6) 0.33070(11)
C46 C 0.41580(16) 0.17450(6) 0.31155(11)
C47 C 0.40291(16) 0.18806(6) 0.22449(12)
H31 H 0.3835 0.1662 0.1784
C48 C 0.41815(17) 0.23301(6) 0.20501(13)
H32 H 0.4075 0.2422 0.1456
C49 C 0.44920(17) 0.26491(6) 0.27285(13)
C50 C 0.46496(19) 0.25154(6) 0.36011(13)
H33 H 0.4873 0.2732 0.4064
C51 C 0.44787(18) 0.20663(6) 0.37881(12)
H34 H 0.4581 0.1975 0.4382
C52 C 0.46520(19) 0.31205(7) 0.25285(15)
C53 C 0.22268(18) 0.07289(6) 0.46247(12)
C54 C 0.1067(2) 0.05529(7) 0.43099(15)
H35 H 0.0804 0.0431 0.3731
C55 C 0.0291(2) 0.05573(8) 0.4858(2)
H36 H -0.0509 0.0437 0.4653
C56 C 0.0675(3) 0.07345(9) 0.5697(2)
H37 H 0.0133 0.0742 0.6062
C57 C 0.1838(3) 0.09004(9) 0.60079(17)
H38 H 0.2103 0.1017 0.6591
C58 C 0.2627(2) 0.08972(7) 0.54718(14)
H39 H 0.3434 0.1010 0.5686
C63 C 0.64649(19) 0.02390(7) 0.18765(14)
C64 C 0.7781(4) 0.0288(2) 0.2654(3)
H49 H 0.7747 0.0108 0.3170
H50 H 0.7922 0.0608 0.2824
H51 H 0.8448 0.0178 0.2424
C65 C 0.6328(6) -0.02314(15) 0.1634(4)
H52 H 0.6346 -0.0415 0.2157
H53 H 0.6996 -0.0324 0.1389
H54 H 0.5548 -0.0276 0.1192
C66 C 0.6617(18) 0.0556(7) 0.1170(12)
H55 H 0.7324 0.0462 0.0969
H56 H 0.6745 0.0866 0.1406
H57 H 0.5884 0.0547 0.0674
N5 N 0.2513(2) -0.18320(6) 0.47118(13)
N6 N 0.30322(14) 0.07543(5) 0.40536(9)
N7 N 0.32593(14) 0.11965(5) 0.38635(10)
N8 N 0.47924(19) 0.34931(6) 0.23721(16)
O1 O 0.2403 0.2007 0.4657
H58 H 0.2363 0.1752 0.4410
C67 C 0.1249 0.2109 0.4829
H59 H 0.0644 0.1878 0.4539
H60 H 0.0959 0.2408 0.4566
C68 C 0.1325 0.2120 0.5774
H61 H 0.1452 0.1811 0.6015
H62 H 0.0565 0.2243 0.5860
H63 H 0.2008 0.2314 0.6080
C59? C 0.64649(19) 0.02390(7) 0.18765(14)
C60? C 0.5680(5) -0.0093(2) 0.1062(4)
H40? H 0.5357 -0.0355 0.1313
H41? H 0.6217 -0.0200 0.0711
H42? H 0.5004 0.0080 0.0685
C61? C 0.7380(6) -0.0055(3) 0.2431(4)
H43? H 0.7858 0.0119 0.2938
H44? H 0.7921 -0.0171 0.2090
H45? H 0.6980 -0.0310 0.2639
C62? C 0.6913(19) 0.0607(8) 0.1384(13)
H46? H 0.6220 0.0786 0.1046
H47? H 0.7336 0.0470 0.0982
H48? H 0.7476 0.0805 0.1804
O2? O 0.2403 0.2007 0.4657
H64? H 0.2245 0.2161 0.4191
C69? C 0.1298 0.1917 0.4899
H65? H 0.1273 0.1597 0.5090
H66? H 0.0578 0.1976 0.4397
C70? C 0.1323 0.2229 0.5628
H67? H 0.1902 0.2117 0.6166
H68? H 0.0508 0.2247 0.5723
H69? H 0.1574 0.2531 0.5484
loop_
_geom_bond_atom_site_label_1
_geom_bond_atom_site_label_2
_geom_bond_site_symmetry_1
_geom_bond_site_symmetry_2
C1 C2 1_555 1_555
C2 H1 1_555 1_555
C3 C2 1_555 1_555
C4 C3 1_555 1_555
H2 C4 1_555 1_555
C5 C1 1_555 1_555
C6 C1 1_555 1_555
C7 C6 1_555 1_555
C8 C7 1_555 1_555
H3 C8 1_555 1_555
C9 C8 1_555 1_555
H4 C9 1_555 1_555
C10 C9 1_555 1_555
C11 C10 1_555 1_555
H5 C11 1_555 1_555
C12 C7 1_555 1_555
H6 C12 1_555 1_555
C13 C10 1_555 1_555
C14 C5 1_555 1_555
C15 C14 1_555 1_555
C16 C15 1_555 1_555
H7 C16 1_555 1_555
C17 C16 1_555 1_555
H8 C17 1_555 1_555
C18 C17 1_555 1_555
C19 C18 1_555 1_555
H9 C19 1_555 1_555
C20 C15 1_555 1_555
H10 C20 1_555 1_555
C21 C18 1_555 1_555
C22 C23 1_555 1_555
C23 H11 1_555 1_555
C24 C23 1_555 1_555
H12 C24 1_555 1_555
C25 C24 1_555 1_555
H13 C25 1_555 1_555
C26 C25 1_555 1_555
H14 C26 1_555 1_555
C27 C22 1_555 1_555
H15 C27 1_555 1_555
C28 C3 1_555 1_555
C29 C28 1_555 1_555
H16 C29 1_555 1_555
H17 C29 1_555 1_555
H18 C29 1_555 1_555
C30 C28 1_555 1_555
H19 C30 1_555 1_555
H20 C30 1_555 1_555
H21 C30 1_555 1_555
C31 C28 1_555 1_555
H22 C31 1_555 1_555
H23 C31 1_555 1_555
H24 C31 1_555 1_555
C32 C33 1_555 1_555
N1 C13 1_555 1_555
N2 C6 1_555 1_555
N3 C14 1_555 1_555
N4 C21 1_555 1_555
C33 H25 1_555 1_555
C34 C33 1_555 1_555
C35 C34 1_555 1_555
H26 C35 1_555 1_555
C36 C32 1_555 1_555
C37 C32 1_555 1_555
C38 C37 1_555 1_555
C39 C38 1_555 1_555
H27 C39 1_555 1_555
C40 C39 1_555 1_555
H28 C40 1_555 1_555
C41 C40 1_555 1_555
C42 C41 1_555 1_555
H29 C42 1_555 1_555
C43 C38 1_555 1_555
H30 C43 1_555 1_555
C44 C41 1_555 1_555
C45 C36 1_555 1_555
C46 C45 1_555 1_555
C47 C46 1_555 1_555
H31 C47 1_555 1_555
C48 C47 1_555 1_555
H32 C48 1_555 1_555
C49 C48 1_555 1_555
C50 C49 1_555 1_555
H33 C50 1_555 1_555
C51 C46 1_555 1_555
H34 C51 1_555 1_555
C52 C49 1_555 1_555
C53 C54 1_555 1_555
C54 H35 1_555 1_555
C55 C54 1_555 1_555
H36 C55 1_555 1_555
C56 C55 1_555 1_555
H37 C56 1_555 1_555
C57 C56 1_555 1_555
H38 C57 1_555 1_555
C58 C53 1_555 1_555
H39 C58 1_555 1_555
C63 C34 1_555 1_555
C64 C63 1_555 1_555
H49 C64 1_555 1_555
H50 C64 1_555 1_555
H51 C64 1_555 1_555
C65 C63 1_555 1_555
H52 C65 1_555 1_555
H53 C65 1_555 1_555
H54 C65 1_555 1_555
C66 C63 1_555 1_555
H55 C66 1_555 1_555
H56 C66 1_555 1_555
H57 C66 1_555 1_555
N5 C44 1_555 1_555
N6 C37 1_555 1_555
N7 C45 1_555 1_555
N8 C52 1_555 1_555
O1 H58 1_555 1_555
C67 O1 1_555 1_555
H59 C67 1_555 1_555
H60 C67 1_555 1_555
C68 C67 1_555 1_555
H61 C68 1_555 1_555
H62 C68 1_555 1_555
H63 C68 1_555 1_555
C4 C5 1_555 1_555
C11 C12 1_555 1_555
C19 C20 1_555 1_555
C22 N2 1_555 1_555
C26 C27 1_555 1_555
N2 N3 1_555 1_555
C35 C36 1_555 1_555
C42 C43 1_555 1_555
C50 C51 1_555 1_555
C53 N6 1_555 1_555
C57 C58 1_555 1_555
N6 N7 1_555 1_555

#END
