
#######################################################################
#
#                 Cambridge Crystallographic Data Centre
#                                CCDC 
#
#######################################################################
#
# If this CIF has been generated from an entry in the Cambridge 
# Structural Database, then it will include bibliographic, chemical, 
# crystal, experimental, refinement or atomic coordinate data resulting 
# from the CCDC's data processing and validation procedures.
#
#######################################################################

data_OBEJOU
_chemical_formula_moiety         'C35 H36 O6,0.5(C1 H2 Cl2)'
_chemical_name_systematic        
'syn-exo-31,31-Dimethoxy-20,27-undecadioxacyclo (12.11.3.2^4,11^.2^15,25^.2^17,23^.1^6,9^.0^1,14^.0^3,12^.0^5,10^.0^16,24^.0^18,22^)pentatriconta-3(12),7,29,32,34-pentaene-26,28-dione dichloromethane solvate'
_symmetry_cell_setting           monoclinic
_symmetry_space_group_name_H-M   'C 2/c'
_symmetry_Int_Tables_number      15
_space_group_name_Hall           '-C 2yn'
loop_
_symmetry_equiv_pos_site_id
_symmetry_equiv_pos_as_xyz
1 x,y,z
2 -x,y,1/2-z
3 1/2+x,1/2+y,z
4 1/2-x,1/2+y,1/2-z
5 -x,-y,-z
6 x,-y,1/2+z
7 1/2-x,1/2-y,-z
8 1/2+x,1/2-y,1/2+z
_cell_length_a                   26.9717(11)
_cell_length_b                   9.7680(4)
_cell_length_c                   22.1409(9)
_cell_angle_alpha                90
_cell_angle_beta                 96.504(1)
_cell_angle_gamma                90
_cell_volume                     5795.69
_exptl_crystal_colour            colorless
_exptl_crystal_description       prismatic
_chemical_melting_point          '189-191 deg.C'
_cell_formula_units_Z            8
loop_
_atom_site_label
_atom_site_type_symbol
_atom_site_fract_x
_atom_site_fract_y
_atom_site_fract_z
Cl1 Cl 0.5338(1) 0.1187(5) 0.2045(2)
C36 C 0.5000 0.2160(14) 0.2500
H37 H 0.4742 0.2208 0.2363
Cl1A Cl 0.4662(1) 0.1187(5) 0.2955(2)
H37A H 0.5258 0.2208 0.2637
O1 O 0.1942(3) 0.7562(5) 1.1468(3)
O2 O 0.2158(1) 0.1600(3) 0.9539(1)
O3 O 0.2568(1) 0.2980(4) 0.8960(2)
O4 O 0.1579(2) 0.0419(4) 0.9960(2)
O5 O 0.0581(1) -0.2143(4) 0.5957(2)
O6 O 0.0343(1) -0.0142(4) 0.6388(2)
C1 C 0.2055(2) 0.7815(5) 1.0885(3)
C2 C 0.1666(2) 0.6376(6) 1.1501(2)
C3 C 0.1760(2) 0.5480(5) 1.0956(2)
C4 C 0.2036(2) 0.6437(5) 1.0553(2)
C5 C 0.1754(2) 0.6452(5) 0.9900(2)
C6 C 0.1226(2) 0.6903(5) 0.9958(2)
C7 C 0.0986(2) 0.6124(5) 1.0314(2)
C8 C 0.1280(2) 0.4926(5) 1.0585(2)
C9 C 0.1467(2) 0.4034(4) 1.0082(2)
C10 C 0.1774(2) 0.4941(5) 0.9680(2)
C11 C 0.1593(2) 0.4657(4) 0.9000(2)
C12 C 0.1038(2) 0.4942(5) 0.8883(2)
C13 C 0.0764(2) 0.4251(5) 0.9230(2)
C14 C 0.1054(2) 0.3264(5) 0.9661(2)
C15 C 0.1314(2) 0.2264(5) 0.9256(2)
C16 C 0.1671(2) 0.1319(5) 0.9630(2)
C17 C 0.2178(2) 0.2618(5) 0.9103(2)
C18 C 0.1658(2) 0.3096(4) 0.8875(2)
C19 C 0.1588(2) 0.2773(5) 0.8183(2)
C20 C 0.1483(2) 0.1276(5) 0.8067(2)
C21 C 0.1164(2) 0.0620(5) 0.8388(2)
C22 C 0.0929(2) 0.1336(5) 0.8875(2)
C23 C 0.1060(2) -0.0856(5) 0.8182(2)
C24 C 0.1567(2) -0.1541(5) 0.8204(2)
C25 C 0.1884(2) -0.0898(6) 0.7901(3)
C26 C 0.1688(2) 0.0409(5) 0.7590(2)
C27 C 0.1213(2) 0.0055(5) 0.7143(2)
C28 C 0.0819(2) -0.0658(5) 0.7505(2)
C29 C 0.1236(2) -0.0919(5) 0.6588(2)
C30 C 0.1425(2) -0.2319(5) 0.6797(2)
C31 C 0.1086(2) -0.2912(5) 0.7096(2)
C32 C 0.0658(2) -0.1928(5) 0.7099(2)
C33 C 0.0674(2) -0.1255(5) 0.6469(2)
C34 C 0.0107(2) -0.2768(8) 0.5891(3)
C35 C 0.0403(2) 0.0688(7) 0.5877(3)
H1 H 0.1855 0.8499 1.0709
H2 H 0.2373 0.8267 1.0971
H3 H 0.1295 0.6752 1.1445
H4 H 0.1867 0.5852 1.1877
H5 H 0.2029 0.4609 1.1100
H6 H 0.2374 0.6082 1.0543
H7 H 0.1959 0.7133 0.9633
H8 H 0.1102 0.7787 0.9743
H9 H 0.0629 0.6316 1.0436
H10 H 0.1066 0.4344 1.0865
H11 H 0.1663 0.3292 1.0326
H12 H 0.2150 0.4728 0.9772
H13 H 0.1799 0.5255 0.8709
H14 H 0.0946 0.5643 0.8583
H15 H 0.0382 0.4279 0.9238
H16 H 0.0886 0.2786 0.9891
H17 H 0.1282 0.3366 0.7972
H18 H 0.1935 0.2987 0.7979
H19 H 0.0771 0.0611 0.9142
H20 H 0.0623 0.1937 0.8681
H21 H 0.0853 -0.1241 0.8486
H22 H 0.1632 -0.2494 0.8397
H23 H 0.2196 -0.1154 0.7860
H24 H 0.1954 0.0923 0.7378
H25 H 0.1077 0.0998 0.7009
H26 H 0.0484 -0.0062 0.7539
H27 H 0.1374 -0.0467 0.6228
H28 H 0.1778 -0.2589 0.6737
H29 H 0.1098 -0.3871 0.7316
H30 H 0.0354 -0.2302 0.7116
H31 H 0.0071 -0.3244 0.5486
H32 H -0.0099 -0.2070 0.5812
H33 H 0.0130 -0.3510 0.6295
H34 H 0.0233 0.1638 0.5927
H35 H 0.0385 0.0277 0.5524
H36 H 0.0737 0.0875 0.5902
loop_
_geom_bond_atom_site_label_1
_geom_bond_atom_site_label_2
_geom_bond_site_symmetry_1
_geom_bond_site_symmetry_2
Cl1 C36 1_555 1_555
O1 C1 1_555 1_555
O2 C16 1_555 1_555
O3 C17 1_555 1_555
O4 C16 1_555 1_555
O5 C33 1_555 1_555
O6 C33 1_555 1_555
C1 C4 1_555 1_555
C2 O1 1_555 1_555
C3 C2 1_555 1_555
C4 C3 1_555 1_555
C5 C4 1_555 1_555
C6 C5 1_555 1_555
C7 C6 1_555 1_555
C8 C3 1_555 1_555
C9 C8 1_555 1_555
C10 C5 1_555 1_555
C11 C10 1_555 1_555
C12 C11 1_555 1_555
C13 C12 1_555 1_555
C14 C9 1_555 1_555
C15 C14 1_555 1_555
C16 C15 1_555 1_555
C17 O2 1_555 1_555
C18 C11 1_555 1_555
C19 C18 1_555 1_555
C20 C19 1_555 1_555
C21 C20 1_555 1_555
C22 C15 1_555 1_555
C23 C21 1_555 1_555
C24 C23 1_555 1_555
C25 C24 1_555 1_555
C26 C20 1_555 1_555
C27 C26 1_555 1_555
C28 C23 1_555 1_555
C29 C27 1_555 1_555
C30 C29 1_555 1_555
C31 C30 1_555 1_555
C32 C28 1_555 1_555
C33 C29 1_555 1_555
C34 O5 1_555 1_555
C35 O6 1_555 1_555
C36 H37 1_555 1_555
H1 C1 1_555 1_555
H2 C1 1_555 1_555
H3 C2 1_555 1_555
H4 C2 1_555 1_555
H5 C3 1_555 1_555
H6 C4 1_555 1_555
H7 C5 1_555 1_555
H8 C6 1_555 1_555
H9 C7 1_555 1_555
H10 C8 1_555 1_555
H11 C9 1_555 1_555
H12 C10 1_555 1_555
H13 C11 1_555 1_555
H14 C12 1_555 1_555
H15 C13 1_555 1_555
H16 C14 1_555 1_555
H17 C19 1_555 1_555
H18 C19 1_555 1_555
H19 C22 1_555 1_555
H20 C22 1_555 1_555
H21 C23 1_555 1_555
H22 C24 1_555 1_555
H23 C25 1_555 1_555
H24 C26 1_555 1_555
H25 C27 1_555 1_555
H26 C28 1_555 1_555
H27 C29 1_555 1_555
H28 C30 1_555 1_555
H29 C31 1_555 1_555
H30 C32 1_555 1_555
H31 C34 1_555 1_555
H32 C34 1_555 1_555
H33 C34 1_555 1_555
H34 C35 1_555 1_555
H35 C35 1_555 1_555
H36 C35 1_555 1_555
Cl1A C36 1_555 1_555
H37A C36 1_555 1_555
C7 C8 1_555 1_555
C9 C10 1_555 1_555
C13 C14 1_555 1_555
C15 C18 1_555 1_555
C17 C18 1_555 1_555
C21 C22 1_555 1_555
C25 C26 1_555 1_555
C27 C28 1_555 1_555
C31 C32 1_555 1_555
C32 C33 1_555 1_555

#END
