
#######################################################################
#
#                 Cambridge Crystallographic Data Centre
#                                CCDC 
#
#######################################################################
#
# If this CIF has been generated from an entry in the Cambridge 
# Structural Database, then it will include bibliographic, chemical, 
# crystal, experimental, refinement or atomic coordinate data resulting 
# from the CCDC's data processing and validation procedures.
#
#######################################################################

data_OBEKAI
_chemical_formula_moiety         'C25 H20 N2 O2'
_chemical_name_systematic        
(3-t-Butyl-5-(hydroxy(3-cyanophenyl)methylene)cyclopenta-1,3-dien-1-yl)(3-cyanophenyl)methanone
_symmetry_cell_setting           triclinic
_symmetry_space_group_name_H-M   'P -1'
_symmetry_Int_Tables_number      2
_space_group_name_Hall           '-P 1'
loop_
_symmetry_equiv_pos_site_id
_symmetry_equiv_pos_as_xyz
1 x,y,z
2 -x,-y,-z
_cell_length_a                   9.7027(9)
_cell_length_b                   12.8883(12)
_cell_length_c                   16.8118(16)
_cell_angle_alpha                74.200(2)
_cell_angle_beta                 89.116(2)
_cell_angle_gamma                84.894(2)
_cell_volume                     2014.79
_exptl_crystal_colour            yellow
_exptl_crystal_description       plate
_cell_formula_units_Z            4
loop_
_atom_site_label
_atom_site_type_symbol
_atom_site_fract_x
_atom_site_fract_y
_atom_site_fract_z
C1 C 0.05748(18) 0.31620(14) 0.41157(11)
C2 C 0.13331(18) 0.40740(14) 0.38440(11)
H1 H 0.1779 0.4404 0.4199
C3 C 0.13402(17) 0.44272(14) 0.29782(11)
C4 C 0.05479(18) 0.36802(13) 0.26875(11)
C5 C 0.01125(18) 0.29308(14) 0.34133(11)
H2 H -0.0424 0.2348 0.3417
C6 C 0.18713(17) 0.53908(14) 0.25025(11)
C7 C 0.26919(18) 0.60548(14) 0.28801(11)
C8 C 0.37784(19) 0.56047(15) 0.34262(11)
H3 H 0.3988 0.4842 0.3598
C9 C 0.4557(2) 0.62763(17) 0.37192(12)
C10 C 0.4227(2) 0.73885(18) 0.35015(13)
H4 H 0.4745 0.7840 0.3721
C11 C 0.3141(2) 0.78296(17) 0.29639(14)
H5 H 0.2903 0.8589 0.2814
C12 C 0.2397(2) 0.71722(15) 0.26413(12)
H6 H 0.1675 0.7487 0.2252
C13 C 0.5754(3) 0.5806(2) 0.42322(13)
C14 C 0.01697(18) 0.37237(14) 0.18811(11)
C15 C -0.05925(18) 0.28800(14) 0.16836(11)
C16 C -0.02057(19) 0.17863(14) 0.20112(11)
H7 H 0.0563 0.1555 0.2380
C17 C -0.09563(19) 0.10300(14) 0.17942(11)
C18 C -0.2081(2) 0.13581(15) 0.12566(12)
H8 H -0.2595 0.0835 0.1121
C19 C -0.24473(19) 0.24466(15) 0.09209(12)
H9 H -0.3212 0.2677 0.0550
C20 C -0.16991(19) 0.32008(15) 0.11255(11)
H10 H -0.1942 0.3950 0.0882
C21 C -0.0553(2) -0.01049(16) 0.21232(13)
C22 C 0.0299(2) 0.25742(15) 0.50107(12)
C23 C -0.0161(3) 0.33868(18) 0.54879(14)
H11 H 0.0559 0.3882 0.5461
H12 H -0.0318 0.3003 0.6066
H13 H -0.1021 0.3800 0.5245
C24 C 0.1644(3) 0.1951(2) 0.54176(15)
H14 H 0.1949 0.1394 0.5140
H15 H 0.1480 0.1607 0.6003
H16 H 0.2361 0.2454 0.5369
C25 C -0.0801(3) 0.1799(2) 0.50673(16)
H17 H -0.1668 0.2203 0.4826
H18 H -0.0948 0.1423 0.5649
H19 H -0.0502 0.1269 0.4765
N1 N 0.6716(2) 0.5430(2) 0.46323(13)
N2 N -0.0243(2) -0.10103(14) 0.23859(13)
O1 O 0.16405(13) 0.57823(10) 0.17310(8)
O2 O 0.03920(13) 0.45117(10) 0.12417(7)
H20 H 0.095(2) 0.5102(19) 0.1443(14)
C26 C 0.46861(18) 0.24723(14) 0.26962(11)
C27 C 0.51574(18) 0.34972(14) 0.25024(11)
H21 H 0.5699 0.3756 0.2861
C28 C 0.47220(18) 0.41018(14) 0.16987(11)
C29 C 0.39216(18) 0.33846(13) 0.13765(11)
C30 C 0.39449(18) 0.24090(14) 0.20084(11)
H22 H 0.3514 0.1790 0.1972
C31 C 0.49557(18) 0.51927(14) 0.13240(11)
C32 C 0.58910(18) 0.57944(14) 0.16899(11)
C33 C 0.71119(19) 0.53231(15) 0.21154(12)
H23 H 0.7381 0.4579 0.2176
C34 C 0.7938(2) 0.59187(16) 0.24506(13)
H24 H 0.8758 0.5579 0.2746
C35 C 0.7578(2) 0.70006(16) 0.23588(12)
H25 H 0.8140 0.7411 0.2593
C36 C 0.6377(2) 0.74888(15) 0.19182(12)
C37 C 0.55439(19) 0.68961(14) 0.15790(11)
H26 H 0.4738 0.7242 0.1272
C38 C 0.5978(2) 0.86218(16) 0.18343(13)
C39 C 0.31942(18) 0.36170(14) 0.06213(11)
C40 C 0.25374(19) 0.27767(14) 0.03380(11)
C41 C 0.3129(2) 0.17171(15) 0.04688(11)
H27 H 0.3994 0.1500 0.0748
C42 C 0.2447(2) 0.09811(15) 0.01881(12)
C43 C 0.1191(2) 0.12903(16) -0.02332(12)
H28 H 0.0730 0.0779 -0.0420
C44 C 0.0617(2) 0.23426(15) -0.03790(12)
H29 H -0.0237 0.2561 -0.0671
C45 C 0.12882(19) 0.30801(15) -0.00976(11)
H30 H 0.0891 0.3806 -0.0203
C46 C 0.3033(3) -0.01206(18) 0.03341(14)
C47 C 0.4943(2) 0.15940(15) 0.34999(12)
C48 C 0.4980(3) 0.20985(17) 0.42218(12)
H31 H 0.5772 0.2534 0.4162
H32 H 0.5069 0.1524 0.4743
H33 H 0.4123 0.2561 0.4224
C49 C 0.6341(3) 0.09618(19) 0.34514(14)
H34 H 0.6311 0.0609 0.3005
H35 H 0.6536 0.0412 0.3978
H36 H 0.7071 0.1460 0.3341
C50 C 0.3790(3) 0.08295(19) 0.36431(14)
H37 H 0.2891 0.1249 0.3621
H38 H 0.3917 0.0305 0.4187
H39 H 0.3823 0.0445 0.3214
N3 N 0.5643(2) 0.95091(14) 0.17878(12)
N4 N 0.3455(3) -0.10018(16) 0.04398(14)
O3 O 0.43451(13) 0.57594(10) 0.06542(8)
O4 O 0.29965(13) 0.45692(9) 0.01336(7)
H40 H 0.368(2) 0.5196(19) 0.0393(15)
loop_
_geom_bond_atom_site_label_1
_geom_bond_atom_site_label_2
_geom_bond_site_symmetry_1
_geom_bond_site_symmetry_2
C1 C2 1_555 1_555
C2 H1 1_555 1_555
C3 C2 1_555 1_555
C4 C3 1_555 1_555
C5 C1 1_555 1_555
H2 C5 1_555 1_555
C6 C3 1_555 1_555
C7 C6 1_555 1_555
C8 C7 1_555 1_555
H3 C8 1_555 1_555
C9 C8 1_555 1_555
C10 C9 1_555 1_555
H4 C10 1_555 1_555
C11 C10 1_555 1_555
H5 C11 1_555 1_555
C12 C7 1_555 1_555
H6 C12 1_555 1_555
C13 C9 1_555 1_555
C14 C4 1_555 1_555
C15 C14 1_555 1_555
C16 C15 1_555 1_555
H7 C16 1_555 1_555
C17 C16 1_555 1_555
C18 C17 1_555 1_555
H8 C18 1_555 1_555
C19 C18 1_555 1_555
H9 C19 1_555 1_555
C20 C15 1_555 1_555
H10 C20 1_555 1_555
C21 C17 1_555 1_555
C22 C1 1_555 1_555
C23 C22 1_555 1_555
H11 C23 1_555 1_555
H12 C23 1_555 1_555
H13 C23 1_555 1_555
C24 C22 1_555 1_555
H14 C24 1_555 1_555
H15 C24 1_555 1_555
H16 C24 1_555 1_555
C25 C22 1_555 1_555
H17 C25 1_555 1_555
H18 C25 1_555 1_555
H19 C25 1_555 1_555
N1 C13 1_555 1_555
N2 C21 1_555 1_555
O1 C6 1_555 1_555
O2 C14 1_555 1_555
H20 O2 1_555 1_555
C26 C27 1_555 1_555
C27 H21 1_555 1_555
C28 C27 1_555 1_555
C29 C28 1_555 1_555
C30 C26 1_555 1_555
H22 C30 1_555 1_555
C31 C28 1_555 1_555
C32 C31 1_555 1_555
C33 C32 1_555 1_555
H23 C33 1_555 1_555
C34 C33 1_555 1_555
H24 C34 1_555 1_555
C35 C34 1_555 1_555
H25 C35 1_555 1_555
C36 C35 1_555 1_555
C37 C32 1_555 1_555
H26 C37 1_555 1_555
C38 C36 1_555 1_555
C39 C29 1_555 1_555
C40 C39 1_555 1_555
C41 C40 1_555 1_555
H27 C41 1_555 1_555
C42 C41 1_555 1_555
C43 C42 1_555 1_555
H28 C43 1_555 1_555
C44 C43 1_555 1_555
H29 C44 1_555 1_555
C45 C40 1_555 1_555
H30 C45 1_555 1_555
C46 C42 1_555 1_555
C47 C26 1_555 1_555
C48 C47 1_555 1_555
H31 C48 1_555 1_555
H32 C48 1_555 1_555
H33 C48 1_555 1_555
C49 C47 1_555 1_555
H34 C49 1_555 1_555
H35 C49 1_555 1_555
H36 C49 1_555 1_555
C50 C47 1_555 1_555
H37 C50 1_555 1_555
H38 C50 1_555 1_555
H39 C50 1_555 1_555
N3 C38 1_555 1_555
N4 C46 1_555 1_555
O3 C31 1_555 1_555
O4 C39 1_555 1_555
H40 O3 1_555 1_555
C4 C5 1_555 1_555
C11 C12 1_555 1_555
C19 C20 1_555 1_555
C29 C30 1_555 1_555
C36 C37 1_555 1_555
C44 C45 1_555 1_555

#END
