
#######################################################################
#
#                 Cambridge Crystallographic Data Centre
#                                CCDC 
#
#######################################################################
#
# If this CIF has been generated from an entry in the Cambridge 
# Structural Database, then it will include bibliographic, chemical, 
# crystal, experimental, refinement or atomic coordinate data resulting 
# from the CCDC's data processing and validation procedures.
#
#######################################################################

data_OBEKAK
_chemical_formula_moiety         'C10 H11 I1 O4'
_chemical_name_systematic        '2-hydroxy-3-((4-iodobenzyl)oxy)propanoic acid'
_symmetry_cell_setting           orthorhombic
_symmetry_space_group_name_H-M   'P 21 21 21'
_symmetry_Int_Tables_number      19
_space_group_name_Hall           'P 2ac 2ab'
loop_
_symmetry_equiv_pos_site_id
_symmetry_equiv_pos_as_xyz
1 x,y,z
2 1/2-x,-y,1/2+z
3 1/2+x,1/2-y,-z
4 -x,1/2+y,1/2-z
_cell_length_a                   5.85106(13)
_cell_length_b                   8.8776(3)
_cell_length_c                   21.2974(5)
_cell_angle_alpha                90
_cell_angle_beta                 90
_cell_angle_gamma                90
_cell_volume                     1106.26
_exptl_crystal_colour            colorless
_exptl_crystal_description       needle
_cell_formula_units_Z            4
loop_
_atom_site_label
_atom_site_type_symbol
_atom_site_fract_x
_atom_site_fract_y
_atom_site_fract_z
I1 I 1.039493(15) -0.245634(11) 0.239554(4)
O1 O 0.9077(2) 0.54380(13) 0.09962(6)
H1 H 1.031(4) 0.576(2) 0.0814(10)
O2 O 0.73697(18) 0.65912(12) 0.01828(5)
O3 O 0.32193(18) 0.62426(13) 0.06909(6)
H2 H 0.351(4) 0.677(2) 0.0451(10)
O4 O 0.5040(2) 0.32548(11) 0.05803(5)
C1 C 0.7305(2) 0.59536(15) 0.06821(7)
C2 C 0.5092(2) 0.56833(15) 0.10356(7)
H3 H 0.5167 0.6224 0.1447
C3 C 0.4761(3) 0.40109(16) 0.11607(7)
H4 H 0.5904 0.3649 0.1469
H5 H 0.3215 0.3821 0.1332
C4 C 0.4316(3) 0.17089(16) 0.06011(8)
H6 H 0.4364 0.1287 0.0171
H7 H 0.2711 0.1668 0.0748
C5 C 0.5774(3) 0.07443(16) 0.10272(7)
C6 C 0.5021(2) 0.03579(17) 0.16249(7)
H8 H 0.3583 0.0718 0.1768
C7 C 0.6336(3) -0.05465(16) 0.20173(7)
H9 H 0.5800 -0.0809 0.2424
C8 C 0.8440(2) -0.10608(15) 0.18067(7)
C9 C 0.9236(3) -0.06848(16) 0.12132(7)
H10 H 1.0674 -0.1045 0.1071
C10 C 0.7902(3) 0.02252(16) 0.08292(7)
H11 H 0.8451 0.0498 0.0425
loop_
_geom_bond_atom_site_label_1
_geom_bond_atom_site_label_2
_geom_bond_site_symmetry_1
_geom_bond_site_symmetry_2
I1 C8 1_555 1_555
O1 H1 1_555 1_555
O2 C1 1_555 1_555
O3 H2 1_555 1_555
O4 C3 1_555 1_555
C1 O1 1_555 1_555
C2 O3 1_555 1_555
H3 C2 1_555 1_555
C3 C2 1_555 1_555
H4 C3 1_555 1_555
H5 C3 1_555 1_555
C4 O4 1_555 1_555
H6 C4 1_555 1_555
H7 C4 1_555 1_555
C5 C4 1_555 1_555
C6 C5 1_555 1_555
H8 C6 1_555 1_555
C7 C6 1_555 1_555
H9 C7 1_555 1_555
C8 C7 1_555 1_555
C9 C8 1_555 1_555
H10 C9 1_555 1_555
C10 C5 1_555 1_555
H11 C10 1_555 1_555
C1 C2 1_555 1_555
C9 C10 1_555 1_555

#END
