
#######################################################################
#
#                 Cambridge Crystallographic Data Centre
#                                CCDC 
#
#######################################################################
#
# If this CIF has been generated from an entry in the Cambridge 
# Structural Database, then it will include bibliographic, chemical, 
# crystal, experimental, refinement or atomic coordinate data resulting 
# from the CCDC's data processing and validation procedures.
#
#######################################################################

data_OBEXUR
_chemical_formula_moiety         'C2 N8 O2 2-,H6 N2 2+'
_chemical_name_systematic        "diazanediium 5,5'-bitetrazole-1,1'-diolate"
_symmetry_cell_setting           triclinic
_symmetry_space_group_name_H-M   'P -1'
_symmetry_Int_Tables_number      2
_space_group_name_Hall           '-P 1'
loop_
_symmetry_equiv_pos_site_id
_symmetry_equiv_pos_as_xyz
1 x,y,z
2 -x,-y,-z
_cell_length_a                   4.7510(3)
_cell_length_b                   5.9102(4)
_cell_length_c                   6.7024(5)
_cell_angle_alpha                98.6820(10)
_cell_angle_beta                 90.7020(10)
_cell_angle_gamma                109.077(2)
_cell_volume                     175.443
_exptl_crystal_colour            colorless
_cell_formula_units_Z            1
loop_
_atom_site_label
_atom_site_type_symbol
_atom_site_fract_x
_atom_site_fract_y
_atom_site_fract_z
N1 N 0.3407(3) 0.7148(3) 0.1443(2)
N2 N 0.1888(3) 0.8429(3) 0.0714(2)
N3 N 0.1795(3) 0.7867(3) -0.1256(3)
N4 N 0.3210(4) 0.6276(3) -0.1819(2)
O1 O 0.3801(3) 0.7246(2) 0.34070(19)
C1 C 0.4202(4) 0.5826(3) -0.0111(3)
N1A N 0.6593(3) 0.2852(3) -0.1443(2)
N2A N 0.8112(3) 0.1571(3) -0.0714(2)
N3A N 0.8205(3) 0.2133(3) 0.1256(3)
N4A N 0.6790(4) 0.3724(3) 0.1819(2)
O1A O 0.6199(3) 0.2754(2) -0.34070(19)
C1A C 0.5798(4) 0.4174(3) 0.0111(3)
N5 N 0.9522(3) 0.8741(3) 0.5113(2)
H1 H 1.0759 0.8042 0.4513
H2 H 0.7683 0.7997 0.4544
H3 H 0.9532 0.8626 0.6421
N5A N 1.0478(3) 1.1259(3) 0.4887(2)
H1A H 0.9241 1.1958 0.5487
H2A H 1.2317 1.2003 0.5456
H3A H 1.0468 1.1374 0.3579
loop_
_geom_bond_atom_site_label_1
_geom_bond_atom_site_label_2
_geom_bond_site_symmetry_1
_geom_bond_site_symmetry_2
N1 N2 1_555 1_555
N2 N3 1_555 1_555
N3 N4 1_555 1_555
N4 C1 1_555 1_555
O1 N1 1_555 1_555
C1 N1 1_555 1_555
N5 H1 1_555 1_555
H2 N5 1_555 1_555
H3 N5 1_555 1_555
N1A N2A 1_555 1_555
N2A N3A 1_555 1_555
N3A N4A 1_555 1_555
N4A C1A 1_555 1_555
O1A N1A 1_555 1_555
C1A C1 1_555 1_555
N5A N5 1_555 1_555
H1A N5A 1_555 1_555
H2A N5A 1_555 1_555
H3A N5A 1_555 1_555
N1A C1A 1_555 1_555

#END
