
#######################################################################
#
#                 Cambridge Crystallographic Data Centre
#                                CCDC 
#
#######################################################################
#
# If this CIF has been generated from an entry in the Cambridge 
# Structural Database, then it will include bibliographic, chemical, 
# crystal, experimental, refinement or atomic coordinate data resulting 
# from the CCDC's data processing and validation procedures.
#
#######################################################################

data_OBEXUR01
_chemical_formula_moiety         'C2 N8 O2 2-,H6 N2 2+'
_chemical_name_systematic        "diazanediium 5,5'-bitetrazole-1,1'-diolate"
_symmetry_cell_setting           triclinic
_symmetry_space_group_name_H-M   'P -1'
_symmetry_Int_Tables_number      2
_space_group_name_Hall           '-P 1'
loop_
_symmetry_equiv_pos_site_id
_symmetry_equiv_pos_as_xyz
1 x,y,z
2 -x,-y,-z
_cell_length_a                   4.7498(9)
_cell_length_b                   5.8928(12)
_cell_length_c                   6.7042(13)
_cell_angle_alpha                98.39(3)
_cell_angle_beta                 90.89(3)
_cell_angle_gamma                109.46(3)
_cell_volume                     174.621
_exptl_crystal_colour            colorless
_exptl_crystal_description       plate
_cell_formula_units_Z            1
loop_
_atom_site_label
_atom_site_type_symbol
_atom_site_fract_x
_atom_site_fract_y
_atom_site_fract_z
O1 O 0.1246(2) 0.78221(18) 0.65761(13)
N1 N 0.3123(2) 0.65725(19) 0.92647(17)
N2 N 0.1626(2) 0.78766(19) 0.85439(16)
N3 N 0.1761(2) 0.8693(2) 1.18218(17)
C1 C 0.0794(3) 0.9170(2) 1.01093(19)
N4 N 0.3190(2) 0.70965(19) 1.12447(17)
O1A O -0.1246(2) 1.21779(18) 1.34239(13)
N1A N -0.3123(2) 1.34275(19) 1.07353(17)
N2A N -0.1626(2) 1.21234(19) 1.14561(16)
N3A N -0.1761(2) 1.1307(2) 0.81782(17)
C1A C -0.0794(3) 1.0830(2) 0.98907(19)
N4A N -0.3190(2) 1.29035(19) 0.87553(17)
N5 N 0.4503(3) 0.3730(2) 1.51210(16)
H1 H 0.4670 0.3578 1.6339
H2 H 0.2713 0.3028 1.4671
H3 H 0.5637 0.3090 1.4495
N5A N 0.5497(3) 0.6270(2) 1.48790(16)
H1A H 0.5330 0.6422 1.3661
H2A H 0.7287 0.6972 1.5329
H3A H 0.4363 0.6910 1.5505
loop_
_geom_bond_atom_site_label_1
_geom_bond_atom_site_label_2
_geom_bond_site_symmetry_1
_geom_bond_site_symmetry_2
O1 N2 1_555 1_555
N1 N2 1_555 1_555
N2 C1 1_555 1_555
N3 C1 1_555 1_555
C1 C1A 1_555 1_555
N4 N1 1_555 1_555
N5 H1 1_555 1_555
H2 N5 1_555 1_555
H3 N5 1_555 1_555
O1A N2A 1_555 1_555
N1A N2A 1_555 1_555
N2A C1A 1_555 1_555
N3A C1A 1_555 1_555
N4A N1A 1_555 1_555
N5A N5 1_555 1_555
H1A N5A 1_555 1_555
H2A N5A 1_555 1_555
H3A N5A 1_555 1_555
N3 N4 1_555 1_555
N3A N4A 1_555 1_555

#END
