
#######################################################################
#
#                 Cambridge Crystallographic Data Centre
#                                CCDC 
#
#######################################################################
#
# If this CIF has been generated from an entry in the Cambridge 
# Structural Database, then it will include bibliographic, chemical, 
# crystal, experimental, refinement or atomic coordinate data resulting 
# from the CCDC's data processing and validation procedures.
#
#######################################################################

data_OBEZAZ
_chemical_formula_moiety         'C17 H16 N2 O3'
_chemical_name_systematic        
'ethyl 5-cyano-6-methyl-4-oxo-1,2,4,7-tetrahydroazepino[3,2,1-hi]indole-7-carboxylate'
_symmetry_cell_setting           monoclinic
_symmetry_space_group_name_H-M   'P 21/n'
_symmetry_Int_Tables_number      14
_space_group_name_Hall           '-P 2yn'
loop_
_symmetry_equiv_pos_site_id
_symmetry_equiv_pos_as_xyz
1 x,y,z
2 1/2-x,1/2+y,1/2-z
3 -x,-y,-z
4 1/2+x,1/2-y,1/2+z
_cell_length_a                   8.5064(9)
_cell_length_b                   17.8133(19)
_cell_length_c                   9.4824(10)
_cell_angle_alpha                90
_cell_angle_beta                 99.126(3)
_cell_angle_gamma                90
_cell_volume                     1418.65
_exptl_crystal_colour            colorless
_exptl_crystal_description       prism
_cell_formula_units_Z            4
loop_
_atom_site_label
_atom_site_type_symbol
_atom_site_fract_x
_atom_site_fract_y
_atom_site_fract_z
O1 O 0.37069(9) 0.57921(5) 0.53872(9)
O2 O 0.41427(10) 0.77752(5) 0.68871(10)
O3 O 0.64620(10) 0.83974(5) 0.71962(10)
N1 N 0.61785(11) 0.62854(5) 0.56957(9)
N2 N 0.29758(13) 0.50664(6) 0.85732(12)
C1 C 0.64506(14) 0.60503(6) 0.42502(12)
H1 H 0.6180 0.6460 0.3549
H2 H 0.5807 0.5602 0.3922
C2 C 0.82391(14) 0.58705(6) 0.44532(13)
H3 H 0.8431 0.5325 0.4583
H4 H 0.8720 0.6046 0.3627
C3 C 0.88975(13) 0.62988(6) 0.57894(12)
C4 C 0.76448(12) 0.65240(5) 0.64810(11)
C5 C 0.78791(12) 0.69526(5) 0.77177(11)
C6 C 0.94505(13) 0.71239(6) 0.83031(12)
H5 H 0.9657 0.7410 0.9158
C7 C 1.07157(13) 0.68824(6) 0.76536(13)
H6 H 1.1775 0.6999 0.8077
C8 C 1.04464(13) 0.64697(6) 0.63835(13)
H7 H 1.1313 0.6310 0.5937
C9 C 0.64792(12) 0.72417(6) 0.83637(11)
H8 H 0.6920 0.7503 0.9274
C10 C 0.54441(12) 0.66059(6) 0.87423(11)
C11 C 0.47814(12) 0.61001(6) 0.77629(11)
C12 C 0.48405(12) 0.60608(6) 0.61913(11)
C13 C 0.55253(12) 0.78256(6) 0.73820(11)
C14 C 0.57897(14) 0.90351(6) 0.63317(13)
H9 H 0.4632 0.9075 0.6350
H10 H 0.5955 0.8971 0.5328
C15 C 0.66275(19) 0.97245(7) 0.69613(15)
H11 H 0.6212 1.0165 0.6403
H12 H 0.7772 0.9677 0.6942
H13 H 0.6448 0.9784 0.7951
C16 C 0.51878(15) 0.65860(6) 1.02648(12)
H14 H 0.4609 0.6128 1.0435
H15 H 0.4567 0.7026 1.0464
H16 H 0.6220 0.6591 1.0893
C17 C 0.37659(13) 0.55240(6) 0.82062(12)
loop_
_geom_bond_atom_site_label_1
_geom_bond_atom_site_label_2
_geom_bond_site_symmetry_1
_geom_bond_site_symmetry_2
O1 C12 1_555 1_555
O2 C13 1_555 1_555
O3 C13 1_555 1_555
N1 C1 1_555 1_555
N2 C17 1_555 1_555
C1 H1 1_555 1_555
H2 C1 1_555 1_555
C2 C1 1_555 1_555
H3 C2 1_555 1_555
H4 C2 1_555 1_555
C3 C2 1_555 1_555
C4 N1 1_555 1_555
C5 C4 1_555 1_555
C6 C5 1_555 1_555
H5 C6 1_555 1_555
C7 C6 1_555 1_555
H6 C7 1_555 1_555
C8 C3 1_555 1_555
H7 C8 1_555 1_555
C9 C5 1_555 1_555
H8 C9 1_555 1_555
C10 C9 1_555 1_555
C11 C10 1_555 1_555
C12 N1 1_555 1_555
C13 C9 1_555 1_555
C14 O3 1_555 1_555
H9 C14 1_555 1_555
H10 C14 1_555 1_555
C15 C14 1_555 1_555
H11 C15 1_555 1_555
H12 C15 1_555 1_555
H13 C15 1_555 1_555
C16 C10 1_555 1_555
H14 C16 1_555 1_555
H15 C16 1_555 1_555
H16 C16 1_555 1_555
C17 C11 1_555 1_555
C3 C4 1_555 1_555
C7 C8 1_555 1_555
C11 C12 1_555 1_555

#END
