
#######################################################################
#
#                 Cambridge Crystallographic Data Centre
#                                CCDC 
#
#######################################################################
#
# If this CIF has been generated from an entry in the Cambridge 
# Structural Database, then it will include bibliographic, chemical, 
# crystal, experimental, refinement or atomic coordinate data resulting 
# from the CCDC's data processing and validation procedures.
#
#######################################################################

data_OBIPOH
_chemical_formula_moiety         'C18 H14 N2 O4'
_chemical_name_systematic        
5'-(2-hydroxybenzylidene)-3H,3'H,6'H-spiro[1-benzofuran-2,2'-piperazine]-3',6'-dione
_symmetry_cell_setting           monoclinic
_symmetry_space_group_name_H-M   'C c'
_symmetry_Int_Tables_number      9
_space_group_name_Hall           'C -2yc'
loop_
_symmetry_equiv_pos_site_id
_symmetry_equiv_pos_as_xyz
1 x,y,z
2 x,-y,1/2+z
3 1/2+x,1/2+y,z
4 1/2+x,1/2-y,1/2+z
_cell_length_a                   5.5545(8)
_cell_length_b                   22.3478(18)
_cell_length_c                   25.462(3)
_cell_angle_alpha                90
_cell_angle_beta                 94.4770(10)
_cell_angle_gamma                90
_cell_volume                     3150.98
_cell_formula_units_Z            8
loop_
_atom_site_label
_atom_site_type_symbol
_atom_site_fract_x
_atom_site_fract_y
_atom_site_fract_z
N1 N 0.5557(13) 0.2899(3) 0.3865(3)
H1 H 0.4715 0.2631 0.4009
N2 N 0.8704(13) 0.3705(3) 0.3515(3)
H2 H 0.9952 0.3915 0.3456
O1 O 0.6674(13) 0.2214(3) 0.3273(3)
O2 O 0.7737(13) 0.4386(2) 0.4101(3)
O3 O 0.1931(13) 0.2446(3) 0.4325(3)
H3 H 0.1059 0.2149 0.4309
O4 O 0.6705(13) 0.3366(3) 0.2728(3)
C1 C 0.6753(17) 0.2726(4) 0.3453(4)
C2 C 0.8236(17) 0.3194(4) 0.3198(4)
C3 C 0.7382(17) 0.3890(4) 0.3896(4)
C4 C 0.5543(17) 0.3474(4) 0.4085(4)
C5 C 0.4164(17) 0.3653(4) 0.4454(4)
H4 H 0.4482 0.4048 0.4552
C6 C 0.2265(17) 0.3393(4) 0.4750(4)
C7 C 0.1190(18) 0.2832(4) 0.4704(4)
C8 C -0.0644(18) 0.2647(4) 0.5009(4)
H5 H -0.1292 0.2264 0.4969
C9 C -0.150(2) 0.3042(5) 0.5374(5)
H6 H -0.2733 0.2927 0.5579
C10 C -0.049(2) 0.3603(5) 0.5431(5)
H7 H -0.1050 0.3869 0.5676
C11 C 0.1313(19) 0.3769(5) 0.5129(4)
H8 H 0.1957 0.4151 0.5176
C12 C 1.0499(17) 0.2927(4) 0.2977(4)
H9 H 1.1809 0.3214 0.2990
H10 H 1.1035 0.2570 0.3168
C13 C 0.964(2) 0.2784(5) 0.2431(5)
C14 C 0.750(2) 0.3050(5) 0.2306(5)
C15 C 0.614(3) 0.3039(7) 0.1831(6)
H11 H 0.4682 0.3239 0.1758
C16 C 0.730(3) 0.2675(7) 0.1471(6)
H12 H 0.6556 0.2651 0.1131
C17 C 0.931(3) 0.2368(7) 0.1563(7)
H13 H 0.9865 0.2122 0.1303
C18 C 1.066(3) 0.2414(6) 0.2069(6)
H14 H 1.2108 0.2210 0.2148
N3 N 0.5010(13) 0.5878(3) 0.3581(3)
H15 H 0.5937 0.6146 0.3463
N4 N 0.1646(13) 0.5099(3) 0.3868(3)
H16 H 0.0311 0.4915 0.3907
O5 O 0.4293(12) 0.6496(3) 0.4248(3)
O6 O 0.2395(12) 0.4459(3) 0.3217(3)
O7 O 0.8877(13) 0.6282(3) 0.3151(3)
H17 H 0.9753 0.6578 0.3170
O8 O 0.3867(12) 0.5292(3) 0.4673(3)
C19 C 0.3936(17) 0.6022(4) 0.4013(4)
C20 C 0.2314(17) 0.5551(4) 0.4239(4)
C21 C 0.2880(17) 0.4925(4) 0.3460(4)
C22 C 0.4807(17) 0.5345(4) 0.3299(4)
C23 C 0.6027(18) 0.5188(4) 0.2894(4)
H18 H 0.5615 0.4805 0.2774
C24 C 0.7867(19) 0.5463(4) 0.2587(4)
C25 C 0.9167(19) 0.5985(4) 0.2691(4)
C26 C 1.0852(19) 0.6186(5) 0.2365(4)
H19 H 1.1745 0.6529 0.2454
C27 C 1.122(2) 0.5886(5) 0.1912(5)
H20 H 1.2340 0.6031 0.1691
C28 C 0.996(2) 0.5376(5) 0.1779(5)
H21 H 1.0188 0.5177 0.1466
C29 C 0.834(2) 0.5162(5) 0.2124(5)
H22 H 0.7533 0.4804 0.2044
C30 C 0.0177(17) 0.5833(4) 0.4492(4)
H23 H -0.0192 0.6226 0.4346
H24 H -0.1249 0.5582 0.4441
C31 C 0.103(2) 0.5872(5) 0.5057(5)
C32 C 0.311(2) 0.5534(4) 0.5128(5)
C33 C 0.432(2) 0.5450(5) 0.5613(5)
H25 H 0.5729 0.5223 0.5656
C34 C 0.335(3) 0.5719(6) 0.6030(6)
H26 H 0.4124 0.5664 0.6364
C35 C 0.131(3) 0.6065(6) 0.5985(6)
H27 H 0.0740 0.6248 0.6280
C36 C 0.009(2) 0.6138(5) 0.5487(5)
H28 H -0.1322 0.6362 0.5446
loop_
_geom_bond_atom_site_label_1
_geom_bond_atom_site_label_2
_geom_bond_site_symmetry_1
_geom_bond_site_symmetry_2
N1 H1 1_555 1_555
N2 H2 1_555 1_555
O1 C1 1_555 1_555
O2 C3 1_555 1_555
O3 H3 1_555 1_555
O4 C2 1_555 1_555
C1 N1 1_555 1_555
C2 N2 1_555 1_555
C3 N2 1_555 1_555
C4 N1 1_555 1_555
C5 C4 1_555 1_555
H4 C5 1_555 1_555
C6 C5 1_555 1_555
C7 O3 1_555 1_555
C8 C7 1_555 1_555
H5 C8 1_555 1_555
C9 C8 1_555 1_555
H6 C9 1_555 1_555
C10 C9 1_555 1_555
H7 C10 1_555 1_555
C11 C6 1_555 1_555
H8 C11 1_555 1_555
C12 C2 1_555 1_555
H9 C12 1_555 1_555
H10 C12 1_555 1_555
C13 C12 1_555 1_555
C14 O4 1_555 1_555
C15 C14 1_555 1_555
H11 C15 1_555 1_555
C16 C15 1_555 1_555
H12 C16 1_555 1_555
C17 C16 1_555 1_555
H13 C17 1_555 1_555
C18 C13 1_555 1_555
H14 C18 1_555 1_555
N3 H15 1_555 1_555
N4 H16 1_555 1_555
O5 C19 1_555 1_555
O6 C21 1_555 1_555
O7 H17 1_555 1_555
O8 C20 1_555 1_555
C19 N3 1_555 1_555
C20 N4 1_555 1_555
C21 N4 1_555 1_555
C22 N3 1_555 1_555
C23 C22 1_555 1_555
H18 C23 1_555 1_555
C24 C23 1_555 1_555
C25 O7 1_555 1_555
C26 C25 1_555 1_555
H19 C26 1_555 1_555
C27 C26 1_555 1_555
H20 C27 1_555 1_555
C28 C27 1_555 1_555
H21 C28 1_555 1_555
C29 C24 1_555 1_555
H22 C29 1_555 1_555
C30 C20 1_555 1_555
H23 C30 1_555 1_555
H24 C30 1_555 1_555
C31 C30 1_555 1_555
C32 O8 1_555 1_555
C33 C32 1_555 1_555
H25 C33 1_555 1_555
C34 C33 1_555 1_555
H26 C34 1_555 1_555
C35 C34 1_555 1_555
H27 C35 1_555 1_555
C36 C31 1_555 1_555
H28 C36 1_555 1_555
C1 C2 1_555 1_555
C3 C4 1_555 1_555
C6 C7 1_555 1_555
C10 C11 1_555 1_555
C13 C14 1_555 1_555
C17 C18 1_555 1_555
C19 C20 1_555 1_555
C21 C22 1_555 1_555
C24 C25 1_555 1_555
C28 C29 1_555 1_555
C31 C32 1_555 1_555
C35 C36 1_555 1_555

#END
