
#######################################################################
#
#                 Cambridge Crystallographic Data Centre
#                                CCDC 
#
#######################################################################
#
# If this CIF has been generated from an entry in the Cambridge 
# Structural Database, then it will include bibliographic, chemical, 
# crystal, experimental, refinement or atomic coordinate data resulting 
# from the CCDC's data processing and validation procedures.
#
#######################################################################

data_OBIQOI
_chemical_formula_moiety         'C16 H10 Br1 F3 N2 O1'
_chemical_name_systematic        
6-bromo-9-oxo-4-(trifluoromethyl)-1,3,3a,4,9,9a-hexahydro-2H-cyclopenta[b]naphthalene-2,2-dicarbonitrile
_symmetry_cell_setting           triclinic
_symmetry_space_group_name_H-M   'P -1'
_symmetry_Int_Tables_number      2
_space_group_name_Hall           '-P 1'
loop_
_symmetry_equiv_pos_site_id
_symmetry_equiv_pos_as_xyz
1 x,y,z
2 -x,-y,-z
_cell_length_a                   6.9696(12)
_cell_length_b                   7.0783(12)
_cell_length_c                   16.560(3)
_cell_angle_alpha                101.962(6)
_cell_angle_beta                 93.626(6)
_cell_angle_gamma                94.073(6)
_cell_volume                     794.646
_exptl_crystal_colour            colorless
_exptl_crystal_description       block
_cell_formula_units_Z            2
loop_
_atom_site_label
_atom_site_type_symbol
_atom_site_fract_x
_atom_site_fract_y
_atom_site_fract_z
Br1 Br 0.77345(4) 0.13850(4) -0.030963(16)
F1 F 0.1254(2) 0.3748(3) 0.28195(11)
F2 F 0.1739(2) 0.5979(3) 0.21496(14)
F3 F 0.1678(2) 0.3023(3) 0.15259(11)
O1 O 0.5713(5) 0.9833(3) 0.22042(13)
N1 N 0.6074(4) 0.7613(4) 0.55968(16)
N2 N 1.1473(4) 0.7437(6) 0.4584(2)
C1 C 0.6817(4) 0.7424(4) 0.50035(15)
C2 C 0.9858(4) 0.7347(5) 0.44352(18)
C3 C 0.7758(3) 0.7214(3) 0.42232(14)
C4 C 0.7035(3) 0.5299(3) 0.36160(14)
H1 H 0.7911 0.4975 0.3186
H2 H 0.6892 0.4240 0.3903
C5 C 0.5085(3) 0.5734(3) 0.32567(13)
H3 H 0.4131 0.5628 0.3659
C6 C 0.4422(3) 0.4279(3) 0.24466(13)
H4 H 0.4672 0.2986 0.2531
C7 C 0.5547(3) 0.4652(3) 0.17354(13)
C8 C 0.6038(3) 0.3122(3) 0.11380(13)
H5 H 0.5701 0.1850 0.1176
C9 C 0.7032(3) 0.3503(3) 0.04856(13)
C10 C 0.7531(3) 0.5367(3) 0.04015(14)
H6 H 0.8175 0.5595 -0.0049
C11 C 0.7056(4) 0.6881(3) 0.09984(15)
H7 H 0.7388 0.8147 0.0951
C12 C 0.6086(3) 0.6553(3) 0.16720(13)
C13 C 0.5680(4) 0.8206(3) 0.23243(15)
C14 C 0.5365(3) 0.7876(3) 0.31809(14)
H8 H 0.4254 0.8548 0.3386
C15 C 0.7187(5) 0.8761(4) 0.37419(17)
H9 H 0.6922 0.9937 0.4121
H10 H 0.8219 0.9073 0.3412
C16 C 0.2280(3) 0.4263(4) 0.22349(16)
loop_
_geom_bond_atom_site_label_1
_geom_bond_atom_site_label_2
_geom_bond_site_symmetry_1
_geom_bond_site_symmetry_2
Br1 C9 1_555 1_555
F1 C16 1_555 1_555
F2 C16 1_555 1_555
F3 C16 1_555 1_555
O1 C13 1_555 1_555
N1 C1 1_555 1_555
N2 C2 1_555 1_555
C1 C3 1_555 1_555
C2 C3 1_555 1_555
C3 C4 1_555 1_555
C4 H1 1_555 1_555
H2 C4 1_555 1_555
C5 C4 1_555 1_555
H3 C5 1_555 1_555
C6 C5 1_555 1_555
H4 C6 1_555 1_555
C7 C6 1_555 1_555
C8 C7 1_555 1_555
H5 C8 1_555 1_555
C9 C8 1_555 1_555
C10 C9 1_555 1_555
H6 C10 1_555 1_555
C11 C10 1_555 1_555
H7 C11 1_555 1_555
C12 C7 1_555 1_555
C13 C12 1_555 1_555
C14 C5 1_555 1_555
H8 C14 1_555 1_555
C15 C3 1_555 1_555
H9 C15 1_555 1_555
H10 C15 1_555 1_555
C16 C6 1_555 1_555
C11 C12 1_555 1_555
C13 C14 1_555 1_555
C14 C15 1_555 1_555

#END
