
#######################################################################
#
#                 Cambridge Crystallographic Data Centre
#                                CCDC 
#
#######################################################################
#
# If this CIF has been generated from an entry in the Cambridge 
# Structural Database, then it will include bibliographic, chemical, 
# crystal, experimental, refinement or atomic coordinate data resulting 
# from the CCDC's data processing and validation procedures.
#
#######################################################################

data_OBIQUO
_chemical_formula_moiety         'C27 H28 O9 S1'
_chemical_name_systematic        
'3a-ethyl 2,2-dimethyl 9-((4-methylphenyl)sulfonyl)-4-oxo-9,9a-dihydro-1H-cyclopenta[b]naphthalene-2,2,3a(3H,4H)-tricarboxylate'
_symmetry_cell_setting           triclinic
_symmetry_space_group_name_H-M   'P -1'
_symmetry_Int_Tables_number      2
_space_group_name_Hall           '-P 1'
loop_
_symmetry_equiv_pos_site_id
_symmetry_equiv_pos_as_xyz
1 x,y,z
2 -x,-y,-z
_cell_length_a                   9.7672(4)
_cell_length_b                   11.7742(4)
_cell_length_c                   24.7073(9)
_cell_angle_alpha                101.2240(10)
_cell_angle_beta                 93.1880(10)
_cell_angle_gamma                112.0500(10)
_cell_volume                     2557.16
_exptl_crystal_colour            colorless
_exptl_crystal_description       block
_cell_formula_units_Z            4
loop_
_atom_site_label
_atom_site_type_symbol
_atom_site_fract_x
_atom_site_fract_y
_atom_site_fract_z
S1 S 0.66325(4) 0.69221(3) 0.33753(2)
O1 O 0.49333(12) 0.07639(10) 0.34104(5)
O2 O 0.20059(12) 0.20513(10) 0.36337(4)
O3 O 0.33771(11) 0.42459(9) 0.47604(4)
O4 O 0.79747(12) 0.66889(10) 0.33486(5)
O5 O 0.80780(12) 0.23692(10) 0.42949(4)
O6 O 0.61802(12) 0.74439(10) 0.29500(4)
O7 O 0.33130(12) 0.26650(10) 0.29486(4)
O8 O 0.70307(12) 0.17797(10) 0.30747(4)
O9 O 0.86615(12) 0.44479(10) 0.44131(4)
C1 C 0.36184(15) 0.43994(13) 0.42982(6)
C2 C -0.0311(2) 0.02542(17) 0.34729(8)
H1 H -0.1024 -0.0462 0.3190
H2 H -0.0827 0.0759 0.3658
H3 H 0.0123 -0.0057 0.3749
C3 C 0.94401(17) 0.26400(15) 0.46552(6)
H4 H 1.0288 0.2874 0.4446
H5 H 0.9362 0.1891 0.4789
H6 H 0.9591 0.3338 0.4974
C4 C 0.43671(15) 0.37062(13) 0.39173(6)
C5 C 0.51091(16) 0.54266(13) 0.33687(6)
H7 H 0.4828 0.4912 0.2976
C6 C 0.78468(18) 0.87436(14) 0.49940(6)
H8 H 0.8408 0.8709 0.5312
C7 C 0.0883(2) 0.10390(16) 0.32050(7)
H9 H 0.1350 0.0516 0.2990
H10 H 0.0460 0.1403 0.2944
C8 C 0.64108(16) 0.29912(13) 0.38128(6)
C9 C 0.51790(16) 0.30151(13) 0.41846(6)
H11 H 0.4484 0.2149 0.4184
H12 H 0.5628 0.3473 0.4574
C10 C 0.18215(17) 0.64152(14) 0.34188(6)
H13 H 0.1353 0.6794 0.3206
C11 C 0.61551(17) 0.88093(14) 0.40659(6)
H14 H 0.5564 0.8823 0.3751
C12 C 0.76697(17) 0.79059(14) 0.44892(6)
H15 H 0.8124 0.7315 0.4459
C13 C 0.31916(16) 0.27707(13) 0.34358(6)
C14 C 0.56555(15) 0.47106(13) 0.37244(6)
H16 H 0.6290 0.5339 0.4066
C15 C 0.60128(16) 0.17035(14) 0.34219(6)
C16 C 0.30472(17) 0.61957(13) 0.32505(6)
H17 H 0.3419 0.6436 0.2925
C17 C 0.72155(17) 0.96343(14) 0.50416(6)
C18 C 0.63711(17) 0.96543(14) 0.45716(7)
H18 H 0.5936 1.0258 0.4599
C19 C 0.78581(16) 0.33737(13) 0.41994(6)
C20 C 0.12751(17) 0.60851(14) 0.38972(6)
H19 H 0.0450 0.6256 0.4017
C21 C 0.65682(17) 0.39950(14) 0.34633(6)
H20 H 0.7626 0.4569 0.3490
H21 H 0.6165 0.3584 0.3066
C22 C 0.7460(2) 1.05674(15) 0.55871(7)
H22 H 0.6985 1.0119 0.5866
H23 H 0.7021 1.1170 0.5535
H24 H 0.8533 1.1020 0.5715
C23 C 0.67339(19) 0.06526(15) 0.26480(7)
H25 H 0.5795 0.0437 0.2409
H26 H 0.6656 -0.0044 0.2823
H27 H 0.7550 0.0800 0.2422
C24 C 0.31468(16) 0.52459(13) 0.40243(6)
C25 C 0.37429(16) 0.56264(13) 0.35518(6)
C26 C 0.68170(16) 0.79427(13) 0.40273(6)
C27 C 0.19367(16) 0.55052(13) 0.41991(6)
H28 H 0.1566 0.5282 0.4527
S2 S 0.29821(4) 0.35949(3) 0.16337(2)
O10 O 0.41477(12) 0.00483(10) 0.05732(5)
O11 O 0.32929(12) -0.14325(10) 0.18442(4)
O12 O 0.09247(12) -0.26693(10) 0.14782(5)
O13 O -0.19103(11) -0.15991(9) 0.13635(4)
O14 O -0.15145(11) -0.03468(10) 0.02879(4)
O15 O 0.29292(12) 0.45914(9) 0.20647(4)
O16 O 0.34946(12) -0.19668(10) 0.06222(4)
O17 O 0.43256(11) 0.33591(9) 0.16331(4)
O18 O -0.00857(13) -0.02676(11) 0.20446(4)
C28 C 0.3185(2) -0.21798(16) 0.22530(7)
H29 H 0.2902 -0.3064 0.2062
H30 H 0.2427 -0.2110 0.2486
H31 H 0.4151 -0.1872 0.2488
C29 C 0.16420(15) 0.10333(13) 0.12858(6)
H32 H 0.2007 0.1325 0.0947
C30 C 0.20538(19) 0.49591(16) -0.05603(7)
H33 H 0.1341 0.4235 -0.0840
H34 H 0.3026 0.5254 -0.0693
H35 H 0.1693 0.5640 -0.0499
C31 C 0.34182(16) -0.08372(13) 0.07499(6)
C32 C 0.14624(16) 0.21347(13) 0.16707(6)
H36 H 0.1558 0.2028 0.2061
C33 C 0.01815(15) -0.01459(13) 0.10839(6)
C34 C -0.26734(18) -0.22311(15) 0.17815(6)
H37 H -0.2758 -0.1605 0.2095
H38 H -0.2100 -0.2668 0.1930
C35 C -0.27639(18) 0.23924(15) 0.12762(8)
H39 H -0.3674 0.2474 0.1183
C36 C 0.20481(16) -0.17697(13) 0.14907(6)
C37 C -0.08676(15) 0.02308(13) 0.07531(6)
C38 C 0.27324(16) 0.05298(13) 0.15115(6)
H40 H 0.2647 0.0493 0.1906
H41 H 0.3774 0.1066 0.1484
C39 C 0.31199(17) 0.34222(14) 0.05185(6)
H42 H 0.3616 0.2874 0.0543
C40 C 0.07545(15) -0.10940(13) 0.07651(6)
H43 H 0.0927 -0.0957 0.0388
H44 H 0.0037 -0.1971 0.0731
C41 C 0.18621(16) 0.47067(13) 0.09492(6)
H45 H 0.1487 0.5022 0.1265
C42 C 0.22509(16) -0.08192(13) 0.11304(6)
C43 C -0.24117(17) 0.14815(15) 0.09416(7)
H46 H -0.3084 0.0937 0.0620
C44 C -0.05932(16) -0.06502(13) 0.15604(6)
C45 C -0.04324(18) 0.30922(15) 0.18783(7)
H47 H 0.0233 0.3645 0.2200
C46 C -0.10715(16) 0.13579(14) 0.10748(6)
C47 C 0.16849(17) 0.50360(14) 0.04491(6)
H48 H 0.1195 0.5589 0.0426
C48 C 0.29092(18) 0.37456(14) 0.00197(6)
H49 H 0.3245 0.3399 -0.0300
C49 C 0.46171(18) -0.20515(15) 0.02765(7)
H50 H 0.4480 -0.1765 -0.0061
H51 H 0.4520 -0.2928 0.0173
H52 H 0.5611 -0.1519 0.0484
C50 C 0.25974(16) 0.39082(13) 0.09829(6)
C51 C -0.00432(16) 0.21941(13) 0.15412(6)
C52 C -0.17854(19) 0.31854(15) 0.17470(8)
H53 H -0.2040 0.3796 0.1982
C53 C 0.22104(17) 0.45728(14) -0.00210(6)
C54 C -0.41874(19) -0.31590(17) 0.15094(7)
H54 H -0.4092 -0.3776 0.1201
H55 H -0.4748 -0.2717 0.1365
H56 H -0.4718 -0.3593 0.1783
loop_
_geom_bond_atom_site_label_1
_geom_bond_atom_site_label_2
_geom_bond_site_symmetry_1
_geom_bond_site_symmetry_2
S1 O4 1_555 1_555
O1 C15 1_555 1_555
O2 C7 1_555 1_555
O3 C1 1_555 1_555
O5 C3 1_555 1_555
O6 S1 1_555 1_555
O7 C13 1_555 1_555
O8 C15 1_555 1_555
O9 C19 1_555 1_555
C1 C4 1_555 1_555
C2 H1 1_555 1_555
H2 C2 1_555 1_555
H3 C2 1_555 1_555
C3 H4 1_555 1_555
H5 C3 1_555 1_555
H6 C3 1_555 1_555
C4 C9 1_555 1_555
C5 S1 1_555 1_555
H7 C5 1_555 1_555
C6 H8 1_555 1_555
C7 C2 1_555 1_555
H9 C7 1_555 1_555
H10 C7 1_555 1_555
C8 C9 1_555 1_555
C9 H11 1_555 1_555
H12 C9 1_555 1_555
C10 H13 1_555 1_555
C11 H14 1_555 1_555
C12 C6 1_555 1_555
H15 C12 1_555 1_555
C13 O2 1_555 1_555
C14 C4 1_555 1_555
H16 C14 1_555 1_555
C15 C8 1_555 1_555
C16 C10 1_555 1_555
H17 C16 1_555 1_555
C17 C6 1_555 1_555
C18 C11 1_555 1_555
H18 C18 1_555 1_555
C19 O5 1_555 1_555
C20 C10 1_555 1_555
H19 C20 1_555 1_555
C21 C8 1_555 1_555
H20 C21 1_555 1_555
H21 C21 1_555 1_555
C22 C17 1_555 1_555
H22 C22 1_555 1_555
H23 C22 1_555 1_555
H24 C22 1_555 1_555
C23 O8 1_555 1_555
H25 C23 1_555 1_555
H26 C23 1_555 1_555
H27 C23 1_555 1_555
C24 C1 1_555 1_555
C25 C5 1_555 1_555
C26 S1 1_555 1_555
C27 C20 1_555 1_555
H28 C27 1_555 1_555
S2 O15 1_555 1_555
O10 C31 1_555 1_555
O11 C28 1_555 1_555
O12 C36 1_555 1_555
O13 C34 1_555 1_555
O14 C37 1_555 1_555
O16 C31 1_555 1_555
O17 S2 1_555 1_555
O18 C44 1_555 1_555
C28 H29 1_555 1_555
H30 C28 1_555 1_555
H31 C28 1_555 1_555
C29 H32 1_555 1_555
C30 H33 1_555 1_555
H34 C30 1_555 1_555
H35 C30 1_555 1_555
C31 C42 1_555 1_555
C32 S2 1_555 1_555
H36 C32 1_555 1_555
C33 C29 1_555 1_555
C34 H37 1_555 1_555
H38 C34 1_555 1_555
C35 H39 1_555 1_555
C36 O11 1_555 1_555
C37 C33 1_555 1_555
C38 C29 1_555 1_555
H40 C38 1_555 1_555
H41 C38 1_555 1_555
C39 H42 1_555 1_555
C40 C33 1_555 1_555
H43 C40 1_555 1_555
H44 C40 1_555 1_555
C41 H45 1_555 1_555
C42 C36 1_555 1_555
C43 C35 1_555 1_555
H46 C43 1_555 1_555
C44 O13 1_555 1_555
C45 H47 1_555 1_555
C46 C37 1_555 1_555
C47 C41 1_555 1_555
H48 C47 1_555 1_555
C48 C39 1_555 1_555
H49 C48 1_555 1_555
C49 O16 1_555 1_555
H50 C49 1_555 1_555
H51 C49 1_555 1_555
H52 C49 1_555 1_555
C50 S2 1_555 1_555
C51 C32 1_555 1_555
C52 C35 1_555 1_555
H53 C52 1_555 1_555
C53 C30 1_555 1_555
C54 C34 1_555 1_555
H54 C54 1_555 1_555
H55 C54 1_555 1_555
H56 C54 1_555 1_555
C4 C13 1_555 1_555
C5 C14 1_555 1_555
C8 C19 1_555 1_555
C11 C26 1_555 1_555
C12 C26 1_555 1_555
C14 C21 1_555 1_555
C16 C25 1_555 1_555
C17 C18 1_555 1_555
C24 C25 1_555 1_555
C24 C27 1_555 1_555
C29 C32 1_555 1_555
C33 C44 1_555 1_555
C38 C42 1_555 1_555
C39 C50 1_555 1_555
C40 C42 1_555 1_555
C41 C50 1_555 1_555
C43 C46 1_555 1_555
C45 C51 1_555 1_555
C45 C52 1_555 1_555
C46 C51 1_555 1_555
C47 C53 1_555 1_555
C48 C53 1_555 1_555

#END
