
#######################################################################
#
#                 Cambridge Crystallographic Data Centre
#                                CCDC 
#
#######################################################################
#
# If this CIF has been generated from an entry in the Cambridge 
# Structural Database, then it will include bibliographic, chemical, 
# crystal, experimental, refinement or atomic coordinate data resulting 
# from the CCDC's data processing and validation procedures.
#
#######################################################################

data_OBOHIY
_chemical_name_common            
'Hexaaqua-magnesium chloride (4-(5H-tetrazol-5-ylidene)pyridin-1(4H)-yl)acetate dihydrate'
_chemical_formula_moiety         'C8 H6 N5 O2 1-,H12 Mg1 O6 2+,2(H2 O1),Cl1 1-'
_chemical_name_systematic        
'Hexaaqua-magnesium 5-[1-(carboxylatomethyl)pyridin-1-ium-4-yl]tetrazol-2-ide chloride dihydrate'
_symmetry_cell_setting           monoclinic
_symmetry_space_group_name_H-M   'P 21/n'
_symmetry_Int_Tables_number      14
_space_group_name_Hall           '-P 2yn'
loop_
_symmetry_equiv_pos_site_id
_symmetry_equiv_pos_as_xyz
1 x,y,z
2 1/2-x,1/2+y,1/2-z
3 -x,-y,-z
4 1/2+x,1/2-y,1/2+z
_cell_length_a                   8.1627(16)
_cell_length_b                   12.896(3)
_cell_length_c                   17.435(4)
_cell_angle_alpha                90
_cell_angle_beta                 96.85(3)
_cell_angle_gamma                90
_cell_volume                     1822.21
_exptl_crystal_colour            colorless
_exptl_crystal_description       block
_cell_formula_units_Z            4
loop_
_atom_site_label
_atom_site_type_symbol
_atom_site_fract_x
_atom_site_fract_y
_atom_site_fract_z
Cl1 Cl 0.17139(12) 0.34162(8) 0.22732(6)
Mg1 Mg -0.08699(16) 0.61711(10) 0.33130(7)
O2 O -0.0632(4) 0.5384(2) 0.22830(17)
H1 H -0.1161 0.5389 0.1852
H2 H -0.0078 0.4860 0.2245
O4 O -0.1241(4) 0.6896(2) 0.43319(17)
H4 H -0.0667 0.7378 0.4515
H5 H -0.1520 0.6576 0.4702
O5 O -0.0387(4) 0.4836(2) 0.39268(17)
H7 H 0.0506 0.4679 0.4165
H8 H -0.0725 0.4260 0.3784
O6 O -0.3332(4) 0.5816(3) 0.31010(18)
H9 H -0.3908 0.5627 0.3429
H10 H -0.3894 0.5449 0.2788
O7 O 0.1614(4) 0.6522(2) 0.3482(2)
H12 H 0.2015 0.7041 0.3308
H13 H 0.2369 0.6165 0.3694
O8 O -0.1197(4) 0.7529(2) 0.27062(19)
H15 H -0.0840 0.8085 0.2884
H16 H -0.2026 0.7635 0.2401
O1 O 0.2675(4) 0.4216(2) 0.45454(18)
N1 N 0.2557(4) -0.0553(3) 0.5764(2)
C1 C 0.3765(6) 0.2067(3) 0.3919(2)
H3 H 0.3625 0.2297 0.3410
O3 O 0.4243(4) 0.5313(2) 0.39940(19)
N2 N 0.1572(5) -0.1383(3) 0.5687(2)
C2 C 0.3020(6) 0.1176(3) 0.4109(2)
H6 H 0.2376 0.0802 0.3729
C3 C 0.3210(5) 0.0823(3) 0.4857(2)
N3 N 0.0837(5) -0.1434(3) 0.4978(2)
N4 N 0.1325(4) -0.0644(3) 0.45715(19)
C4 C 0.4211(6) 0.1390(3) 0.5397(2)
H11 H 0.4396 0.1161 0.5906
N5 N 0.4697(4) 0.2615(2) 0.44566(19)
C5 C 0.4932(5) 0.2285(3) 0.5186(2)
H14 H 0.5592 0.2668 0.5555
C6 C 0.2380(5) -0.0120(3) 0.5067(2)
C7 C 0.5290(5) 0.3640(3) 0.4247(3)
H17 H 0.5630 0.3611 0.3733
H18 H 0.6241 0.3835 0.4605
C8 C 0.3928(5) 0.4459(3) 0.4266(2)
O9 O 0.6092(4) 0.7924(2) 0.17261(18)
H19 H 0.6127 0.7428 0.1434
H20 H 0.5361 0.7978 0.2008
O10 O 0.0012(4) -0.0492(3) 0.30034(18)
H21 H 0.0898 -0.0721 0.2784
H22 H 0.0403 -0.0529 0.3458
loop_
_geom_bond_atom_site_label_1
_geom_bond_atom_site_label_2
_geom_bond_site_symmetry_1
_geom_bond_site_symmetry_2
Mg1 O2 1_555 1_555
O1 C8 1_555 1_555
N1 N2 1_555 1_555
O2 H1 1_555 1_555
H2 O2 1_555 1_555
C1 H3 1_555 1_555
O3 C8 1_555 1_555
O4 Mg1 1_555 1_555
H4 O4 1_555 1_555
H5 O4 1_555 1_555
N2 N3 1_555 1_555
C2 C1 1_555 1_555
H6 C2 1_555 1_555
O5 Mg1 1_555 1_555
H7 O5 1_555 1_555
H8 O5 1_555 1_555
C3 C2 1_555 1_555
N3 N4 1_555 1_555
O6 Mg1 1_555 1_555
H9 O6 1_555 1_555
H10 O6 1_555 1_555
N4 C6 1_555 1_555
C4 C3 1_555 1_555
H11 C4 1_555 1_555
O7 Mg1 1_555 1_555
H12 O7 1_555 1_555
H13 O7 1_555 1_555
N5 C1 1_555 1_555
C5 C4 1_555 1_555
H14 C5 1_555 1_555
O8 Mg1 1_555 1_555
H15 O8 1_555 1_555
H16 O8 1_555 1_555
C6 N1 1_555 1_555
C7 N5 1_555 1_555
H17 C7 1_555 1_555
H18 C7 1_555 1_555
O9 H19 1_555 1_555
H20 O9 1_555 1_555
C8 C7 1_555 1_555
O10 H21 1_555 1_555
H22 O10 1_555 1_555
C3 C6 1_555 1_555
N5 C5 1_555 1_555

#END
