
#######################################################################
#
#                 Cambridge Crystallographic Data Centre
#                                CCDC 
#
#######################################################################
#
# If this CIF has been generated from an entry in the Cambridge 
# Structural Database, then it will include bibliographic, chemical, 
# crystal, experimental, refinement or atomic coordinate data resulting 
# from the CCDC's data processing and validation procedures.
#
#######################################################################

data_OBOKUO
_chemical_formula_moiety         'C27 H31 Br1 O6,C3 H6 O1'
_chemical_name_systematic        
'5-hydroxy-5,10,14-trimethyl-15,17-dioxo-16-oxapentacyclo[12.2.1.1^3,6^.0^1,10^.0^3,9^]octadecan-11-yl 4-bromobenzoate acetone solvate'
_symmetry_cell_setting           monoclinic
_symmetry_space_group_name_H-M   'P 21'
_symmetry_Int_Tables_number      4
_space_group_name_Hall           'P 2yb'
loop_
_symmetry_equiv_pos_site_id
_symmetry_equiv_pos_as_xyz
1 x,y,z
2 -x,1/2+y,-z
_cell_length_a                   11.3487(3)
_cell_length_b                   6.4485(2)
_cell_length_c                   18.9286(6)
_cell_angle_alpha                90
_cell_angle_beta                 100.604(3)
_cell_angle_gamma                90
_cell_volume                     1361.58
_cell_formula_units_Z            2
loop_
_atom_site_label
_atom_site_type_symbol
_atom_site_fract_x
_atom_site_fract_y
_atom_site_fract_z
Br1 Br 0.52790(4) 0.12790(9) 0.34469(2)
O1 O 0.0945(3) 0.6255(8) 0.80431(16)
O2 O 0.1664(3) 0.6371(9) 0.54263(17)
O3 O -0.0431(3) 0.1514(7) 0.75320(17)
C1 C 0.3038(4) 0.4972(9) 0.4404(3)
H1 H 0.2695 0.6318 0.4335
C2 C 0.1483(4) 0.2285(8) 0.7096(3)
O4 O -0.2381(3) 0.2178(7) 0.7260(2)
C3 C 0.4263(4) 0.2283(9) 0.4061(3)
O5 O 0.1820(3) 0.3204(6) 0.59379(19)
C4 C 0.4838(4) 0.1326(13) 0.8576(2)
H2 H 0.5499 0.0462 0.8850
C5 C 0.0712(4) 0.2622(8) 0.7701(3)
C6 C -0.0914(4) 0.5491(9) 0.6537(3)
H3 H -0.1749 0.5537 0.6268
H4 H -0.0568 0.6892 0.6510
C7 C 0.4031(4) 0.1015(10) 0.4613(3)
H5 H 0.4382 -0.0324 0.4682
C8 C 0.2783(4) 0.2166(8) 0.8335(3)
C9 C -0.1736(4) 0.6598(9) 0.7643(3)
H6 H -0.1437 0.8002 0.7585
H7 H -0.1708 0.6317 0.8155
H8 H -0.2565 0.6484 0.7385
C10 C -0.0205(4) 0.3972(9) 0.6149(3)
H9 H -0.0292 0.4396 0.5639
H10 H -0.0558 0.2571 0.6159
C11 C 0.4982(4) 0.1507(11) 0.7783(3)
H11 H 0.5383 0.2837 0.7715
H12 H 0.5505 0.0371 0.7672
O6 O 0.5151(4) 0.2956(10) 0.9721(2)
H13 H 0.4763 0.3691 0.9965
C12 C 0.2797(4) 0.3721(8) 0.4965(3)
C13 C -0.1375(4) 0.2818(9) 0.7374(3)
C14 C 0.4758(5) 0.3410(11) 0.8961(3)
C15 C 0.3780(4) 0.4256(9) 0.3944(3)
H14 H 0.3948 0.5095 0.3562
C16 C 0.0323(4) 0.4878(8) 0.7746(2)
C17 C 0.3779(4) 0.1408(11) 0.7252(2)
H15 H 0.3890 0.1962 0.6781
H16 H 0.3524 -0.0058 0.7183
C18 C 0.1139(4) 0.3855(8) 0.6478(2)
H17 H 0.1419 0.5264 0.6656
C19 C 0.2028(4) 0.4617(9) 0.5458(3)
C20 C 0.3395(4) 0.3947(9) 0.8822(3)
H18 H 0.3091 0.4000 0.9280
H19 H 0.3245 0.5302 0.8576
C21 C -0.0958(4) 0.5034(8) 0.7341(3)
C22 C 0.3283(4) 0.1728(8) 0.5062(3)
H20 H 0.3102 0.0864 0.5434
C23 C 0.1464(4) 0.1752(8) 0.8385(3)
H21 H 0.1321 0.0244 0.8422
H22 H 0.1258 0.2446 0.8813
C24 C 0.3615(5) 0.0340(10) 0.8608(3)
H23 H 0.3551 -0.0061 0.9105
H24 H 0.3454 -0.0882 0.8289
C25 C 0.5526(5) 0.5184(11) 0.8760(4)
H25 H 0.6351 0.4698 0.8783
H26 H 0.5521 0.6336 0.9097
H27 H 0.5200 0.5655 0.8271
C26 C 0.1285(5) 0.0031(9) 0.6815(3)
H28 H 0.1428 -0.0933 0.7222
H29 H 0.1842 -0.0274 0.6490
H30 H 0.0459 -0.0125 0.6556
C27 C 0.2792(4) 0.2653(8) 0.7520(3)
H31 H 0.2981 0.4159 0.7482
O7 O -0.0785(4) 0.3661(8) 0.9081(2)
C28 C -0.1246(5) 0.2385(10) 0.9419(3)
C29 C -0.1594(7) 0.2943(13) 1.0125(3)
H32 H -0.1105 0.2145 1.0512
H33 H -0.2443 0.2619 1.0106
H34 H -0.1460 0.4428 1.0216
C30 C -0.1514(7) 0.0229(12) 0.9148(4)
H35 H -0.2330 0.0172 0.8867
H36 H -0.1447 -0.0727 0.9557
H37 H -0.0942 -0.0174 0.8844
loop_
_geom_bond_atom_site_label_1
_geom_bond_atom_site_label_2
_geom_bond_site_symmetry_1
_geom_bond_site_symmetry_2
Br1 C3 1_555 1_555
O1 C16 1_555 1_555
O2 C19 1_555 1_555
O3 C5 1_555 1_555
C1 H1 1_555 1_555
C2 C5 1_555 1_555
O4 C13 1_555 1_555
C3 C7 1_555 1_555
O5 C18 1_555 1_555
C4 H2 1_555 1_555
C5 C16 1_555 1_555
C6 H3 1_555 1_555
H4 C6 1_555 1_555
C7 H5 1_555 1_555
C8 C20 1_555 1_555
C9 H6 1_555 1_555
H7 C9 1_555 1_555
H8 C9 1_555 1_555
C10 C6 1_555 1_555
H9 C10 1_555 1_555
H10 C10 1_555 1_555
C11 C4 1_555 1_555
H11 C11 1_555 1_555
H12 C11 1_555 1_555
O6 H13 1_555 1_555
C12 C1 1_555 1_555
C13 O3 1_555 1_555
C14 C4 1_555 1_555
C15 C1 1_555 1_555
H14 C15 1_555 1_555
C16 C21 1_555 1_555
C17 C11 1_555 1_555
H15 C17 1_555 1_555
H16 C17 1_555 1_555
C18 C2 1_555 1_555
H17 C18 1_555 1_555
C19 O5 1_555 1_555
C20 C14 1_555 1_555
H18 C20 1_555 1_555
H19 C20 1_555 1_555
C21 C6 1_555 1_555
C22 C7 1_555 1_555
H20 C22 1_555 1_555
C23 C5 1_555 1_555
H21 C23 1_555 1_555
H22 C23 1_555 1_555
C24 C4 1_555 1_555
H23 C24 1_555 1_555
H24 C24 1_555 1_555
C25 C14 1_555 1_555
H25 C25 1_555 1_555
H26 C25 1_555 1_555
H27 C25 1_555 1_555
C26 C2 1_555 1_555
H28 C26 1_555 1_555
H29 C26 1_555 1_555
H30 C26 1_555 1_555
C27 C2 1_555 1_555
H31 C27 1_555 1_555
O7 C28 1_555 1_555
C28 C29 1_555 1_555
C29 H32 1_555 1_555
H33 C29 1_555 1_555
H34 C29 1_555 1_555
C30 C28 1_555 1_555
H35 C30 1_555 1_555
H36 C30 1_555 1_555
H37 C30 1_555 1_555
C3 C15 1_555 1_555
C8 C23 1_555 1_555
C8 C24 1_555 1_555
C8 C27 1_555 1_555
C9 C21 1_555 1_555
C10 C18 1_555 1_555
O6 C14 1_555 1_555
C12 C19 1_555 1_555
C12 C22 1_555 1_555
C13 C21 1_555 1_555
C17 C27 1_555 1_555

#END
