
#######################################################################
#
#                 Cambridge Crystallographic Data Centre
#                                CCDC 
#
#######################################################################
#
# If this CIF has been generated from an entry in the Cambridge 
# Structural Database, then it will include bibliographic, chemical, 
# crystal, experimental, refinement or atomic coordinate data resulting 
# from the CCDC's data processing and validation procedures.
#
#######################################################################

data_OBOMAW
_chemical_formula_moiety         'C19 H20 N4 O1 S1'
_chemical_name_systematic        
3-(4-amino-3-ethyl-5-thioxo-4,5-dihydro-1H-1,2,4-triazol-1-yl)-1,3-diphenylpropan-1-one
_symmetry_cell_setting           monoclinic
_symmetry_space_group_name_H-M   'P 21/c'
_symmetry_Int_Tables_number      14
_space_group_name_Hall           '-P 2ybc'
loop_
_symmetry_equiv_pos_site_id
_symmetry_equiv_pos_as_xyz
1 x,y,z
2 -x,1/2+y,1/2-z
3 -x,-y,-z
4 x,1/2-y,1/2+z
_cell_length_a                   10.4024(15)
_cell_length_b                   17.797(2)
_cell_length_c                   10.2829(14)
_cell_angle_alpha                90
_cell_angle_beta                 112.908(7)
_cell_angle_gamma                90
_cell_volume                     1753.55
_exptl_crystal_colour            colorless
_exptl_crystal_description       prism
_cell_formula_units_Z            4
loop_
_atom_site_label
_atom_site_type_symbol
_atom_site_fract_x
_atom_site_fract_y
_atom_site_fract_z
S1 S 0.12424(4) 0.20783(2) 0.57027(4)
O1 O 0.29173(11) 0.38597(6) 0.39457(12)
N1 N 0.09813(13) 0.35970(7) 0.53152(13)
N2 N 0.14589(13) 0.42626(7) 0.60247(14)
N3 N 0.22893(13) 0.32917(7) 0.74060(13)
N4 N 0.31459(14) 0.28805(8) 0.85958(15)
H1 H 0.3163(17) 0.2402(11) 0.8276(19)
H2 H 0.2634(19) 0.2836(10) 0.914(2)
C1 C 0.39700(16) 0.51862(10) 0.33197(17)
H3 H 0.4613 0.4798 0.3783
C2 C 0.44514(17) 0.58554(10) 0.30018(18)
H4 H 0.5426 0.5931 0.3277
C3 C 0.35281(18) 0.64159(10) 0.22870(19)
H5 H 0.3865 0.6873 0.2058
C4 C 0.21096(18) 0.63089(10) 0.19061(19)
H6 H 0.1470 0.6690 0.1404
C5 C 0.16246(17) 0.56481(9) 0.22558(18)
H7 H 0.0652 0.5583 0.2010
C6 C 0.25453(15) 0.50757(9) 0.29653(16)
C7 C 0.20880(16) 0.43628(9) 0.33978(16)
C8 C 0.05603(16) 0.42832(9) 0.31349(17)
H8 H 0.0012 0.4275 0.2103
H9 H 0.0267 0.4731 0.3522
C9 C 0.02112(16) 0.35844(9) 0.37787(16)
H10 H 0.0539 0.3139 0.3401
C10 C -0.13554(16) 0.35072(9) 0.33486(17)
C11 C -0.19972(17) 0.36120(9) 0.42884(18)
H11 H -0.1447 0.3715 0.5253
C12 C -0.34399(17) 0.35674(10) 0.3831(2)
H12 H -0.3871 0.3634 0.4485
C13 C -0.42453(17) 0.34270(10) 0.2433(2)
H13 H -0.5233 0.3411 0.2116
C14 C -0.36106(17) 0.33084(10) 0.14891(19)
H14 H -0.4162 0.3202 0.0527
C15 C -0.21747(16) 0.33454(9) 0.19507(18)
H15 H -0.1743 0.3259 0.1302
C16 C 0.14737(15) 0.29898(9) 0.61269(17)
C17 C 0.22746(16) 0.40574(9) 0.72990(16)
C18 C 0.31117(17) 0.45732(9) 0.84495(17)
H16 H 0.3114 0.5075 0.8036
H17 H 0.4088 0.4391 0.8846
C19 C 0.26191(17) 0.46595(10) 0.96465(17)
H18 H 0.1654 0.4841 0.9272
H19 H 0.3218 0.5021 1.0336
H20 H 0.2666 0.4172 1.0107
loop_
_geom_bond_atom_site_label_1
_geom_bond_atom_site_label_2
_geom_bond_site_symmetry_1
_geom_bond_site_symmetry_2
S1 C16 1_555 1_555
O1 C7 1_555 1_555
N1 N2 1_555 1_555
N2 C17 1_555 1_555
N3 N4 1_555 1_555
N4 H1 1_555 1_555
H2 N4 1_555 1_555
C1 H3 1_555 1_555
C2 C1 1_555 1_555
H4 C2 1_555 1_555
C3 C2 1_555 1_555
H5 C3 1_555 1_555
C4 C3 1_555 1_555
H6 C4 1_555 1_555
C5 C4 1_555 1_555
H7 C5 1_555 1_555
C6 C1 1_555 1_555
C7 C6 1_555 1_555
C8 C7 1_555 1_555
H8 C8 1_555 1_555
H9 C8 1_555 1_555
C9 N1 1_555 1_555
H10 C9 1_555 1_555
C10 C9 1_555 1_555
C11 C10 1_555 1_555
H11 C11 1_555 1_555
C12 C11 1_555 1_555
H12 C12 1_555 1_555
C13 C12 1_555 1_555
H13 C13 1_555 1_555
C14 C13 1_555 1_555
H14 C14 1_555 1_555
C15 C10 1_555 1_555
H15 C15 1_555 1_555
C16 N1 1_555 1_555
C17 N3 1_555 1_555
C18 C17 1_555 1_555
H16 C18 1_555 1_555
H17 C18 1_555 1_555
C19 C18 1_555 1_555
H18 C19 1_555 1_555
H19 C19 1_555 1_555
H20 C19 1_555 1_555
N3 C16 1_555 1_555
C5 C6 1_555 1_555
C8 C9 1_555 1_555
C14 C15 1_555 1_555

#END
