
#######################################################################
#
#                 Cambridge Crystallographic Data Centre
#                                CCDC 
#
#######################################################################
#
# If this CIF has been generated from an entry in the Cambridge 
# Structural Database, then it will include bibliographic, chemical, 
# crystal, experimental, refinement or atomic coordinate data resulting 
# from the CCDC's data processing and validation procedures.
#
#######################################################################

data_OBOXOU
_chemical_formula_moiety         'C21 H22 P1 1+,Br1 1-,H2 O1'
_chemical_name_systematic        
'Isopropyltriphenylphosphonium bromide monohydrate'
_symmetry_cell_setting           orthorhombic
_symmetry_space_group_name_H-M   'P 21 21 21'
_symmetry_Int_Tables_number      19
_space_group_name_Hall           'P 2ac 2ab'
loop_
_symmetry_equiv_pos_site_id
_symmetry_equiv_pos_as_xyz
1 x,y,z
2 1/2-x,-y,1/2+z
3 1/2+x,1/2-y,-z
4 -x,1/2+y,1/2-z
_cell_length_a                   9.078(5)
_cell_length_b                   13.043(5)
_cell_length_c                   17.755(5)
_cell_angle_alpha                90
_cell_angle_beta                 90
_cell_angle_gamma                90
_cell_volume                     2102.27
_exptl_crystal_colour            colorless
_exptl_crystal_description       rod
_cell_formula_units_Z            4
loop_
_atom_site_label
_atom_site_type_symbol
_atom_site_fract_x
_atom_site_fract_y
_atom_site_fract_z
Br1 Br 0.46181(8) 0.58731(5) 0.00805(3)
C1 C 0.2804(4) 0.5002(3) 0.7564(2)
C2 C 0.2503(5) 0.4645(3) 0.8289(3)
H1 H 0.2722 0.5050 0.8705
C3 C 0.1873(6) 0.3679(4) 0.8386(3)
H2 H 0.1690 0.3433 0.8868
C4 C 0.1527(5) 0.3098(3) 0.7778(3)
H3 H 0.1075 0.2466 0.7850
C5 C 0.1833(5) 0.3426(3) 0.7054(3)
H4 H 0.1607 0.3011 0.6644
C6 C 0.2478(4) 0.4378(3) 0.6943(2)
H5 H 0.2694 0.4602 0.6458
C7 C 0.3207(5) 0.6876(3) 0.6626(2)
C8 C 0.4105(6) 0.7668(3) 0.6355(3)
H6 H 0.5032 0.7770 0.6564
C9 C 0.3631(8) 0.8296(4) 0.5783(3)
H7 H 0.4228 0.8822 0.5604
C10 C 0.2238(10) 0.8130(5) 0.5476(3)
H8 H 0.1893 0.8561 0.5098
C11 C 0.1386(7) 0.7354(6) 0.5719(3)
H9 H 0.0478 0.7239 0.5491
C12 C 0.1835(5) 0.6726(4) 0.6299(3)
H10 H 0.1223 0.6205 0.6471
C13 C 0.5706(4) 0.5878(3) 0.7380(2)
C14 C 0.6312(5) 0.5673(3) 0.6682(3)
H11 H 0.5765 0.5766 0.6245
C15 C 0.7767(5) 0.5321(3) 0.6648(3)
H12 H 0.8199 0.5187 0.6183
C16 C 0.8552(5) 0.5173(3) 0.7293(4)
H13 H 0.9514 0.4930 0.7264
C17 C 0.7943(5) 0.5379(4) 0.7989(3)
H14 H 0.8493 0.5277 0.8425
C18 C 0.6508(4) 0.5737(3) 0.8037(3)
H15 H 0.6089 0.5880 0.8503
C19 C 0.3403(5) 0.7009(3) 0.8260(2)
H16 H 0.3655 0.6618 0.8713
C20 C 0.4348(6) 0.7974(3) 0.8257(3)
H17 H 0.4054 0.8408 0.7847
H18 H 0.5365 0.7789 0.8198
H19 H 0.4220 0.8334 0.8724
C21 C 0.1779(5) 0.7266(4) 0.8303(3)
H20 H 0.1593 0.7669 0.8745
H21 H 0.1216 0.6644 0.8327
H22 H 0.1498 0.7648 0.7864
P1 P 0.37744(10) 0.61951(7) 0.74506(6)
O1 O 0.4288(9) 0.4940(6) 0.5103(4)
H23 H 0.3405 0.4745 0.5027
H24 H 0.4722 0.4469 0.4855
O2 O 0.6608(8) 0.3426(5) 0.4736(4)
H25 H 0.6370 0.2797 0.4777
H26 H 0.7522 0.3365 0.4835
loop_
_geom_bond_atom_site_label_1
_geom_bond_atom_site_label_2
_geom_bond_site_symmetry_1
_geom_bond_site_symmetry_2
C1 C2 1_555 1_555
C2 H1 1_555 1_555
C3 C2 1_555 1_555
H2 C3 1_555 1_555
C4 C3 1_555 1_555
H3 C4 1_555 1_555
C5 C4 1_555 1_555
H4 C5 1_555 1_555
C6 C1 1_555 1_555
H5 C6 1_555 1_555
C7 C8 1_555 1_555
C8 H6 1_555 1_555
C9 C8 1_555 1_555
H7 C9 1_555 1_555
C10 C9 1_555 1_555
H8 C10 1_555 1_555
C11 C10 1_555 1_555
H9 C11 1_555 1_555
C12 C7 1_555 1_555
H10 C12 1_555 1_555
C13 C14 1_555 1_555
C14 H11 1_555 1_555
C15 C14 1_555 1_555
H12 C15 1_555 1_555
C16 C15 1_555 1_555
H13 C16 1_555 1_555
C17 C16 1_555 1_555
H14 C17 1_555 1_555
C18 C13 1_555 1_555
H15 C18 1_555 1_555
C19 H16 1_555 1_555
C20 C19 1_555 1_555
H17 C20 1_555 1_555
H18 C20 1_555 1_555
H19 C20 1_555 1_555
C21 C19 1_555 1_555
H20 C21 1_555 1_555
H21 C21 1_555 1_555
H22 C21 1_555 1_555
O1 H23 1_555 1_555
H24 O1 1_555 1_555
O2 H25 1_555 1_555
H26 O2 1_555 1_555
P1 C1 1_555 1_555
C5 C6 1_555 1_555
C7 P1 1_555 1_555
C11 C12 1_555 1_555
C13 P1 1_555 1_555
C17 C18 1_555 1_555
C19 P1 1_555 1_555

#END
