
#######################################################################
#
#                 Cambridge Crystallographic Data Centre
#                                CCDC 
#
#######################################################################
#
# If this CIF has been generated from an entry in the Cambridge 
# Structural Database, then it will include bibliographic, chemical, 
# crystal, experimental, refinement or atomic coordinate data resulting 
# from the CCDC's data processing and validation procedures.
#
#######################################################################

data_OBOYAH
_chemical_formula_moiety         'C18 H13 N4 O1 1+,Cl1 1-,H2 O1'
_chemical_name_systematic        
'6-[(4-Hydroxyphenyl)diazenyl]-1,10-phenanthrolin-1-ium chloride monohydrate'
_symmetry_cell_setting           triclinic
_symmetry_space_group_name_H-M   'P -1'
_symmetry_Int_Tables_number      2
_space_group_name_Hall           '-P 1'
loop_
_symmetry_equiv_pos_site_id
_symmetry_equiv_pos_as_xyz
1 x,y,z
2 -x,-y,-z
_cell_length_a                   7.6732(4)
_cell_length_b                   7.7894(4)
_cell_length_c                   14.1225(7)
_cell_angle_alpha                78.535(3)
_cell_angle_beta                 80.379(3)
_cell_angle_gamma                78.212(3)
_cell_volume                     802.734
_exptl_crystal_colour            orange
_exptl_crystal_description       plate
_cell_formula_units_Z            2
loop_
_atom_site_label
_atom_site_type_symbol
_atom_site_fract_x
_atom_site_fract_y
_atom_site_fract_z
Cl1 Cl 0.24720(6) 0.24063(6) 0.05019(3)
O1 O 0.8362(2) 1.58116(19) -0.72107(11)
N1 N 0.3212(2) 0.6808(2) -0.09907(12)
N2 N 0.5247(2) 0.3608(2) -0.12489(13)
N3 N 0.6421(2) 0.9679(2) -0.39335(12)
N4 N 0.7403(2) 0.9508(2) -0.47300(12)
C1 C 0.2241(3) 0.8387(3) -0.08742(15)
H1 H 0.1353 0.8451 -0.0320
C2 C 0.2451(3) 0.9963(3) -0.15216(16)
H2 H 0.1716 1.1059 -0.1405
C3 C 0.3723(3) 0.9915(3) -0.23242(15)
H3 H 0.3878 1.0975 -0.2771
C4 C 0.4799(3) 0.8273(3) -0.24789(14)
C5 C 0.6165(3) 0.8060(3) -0.33052(14)
C6 C 0.7152(3) 0.6433(3) -0.34203(15)
H4 H 0.8043 0.6327 -0.3970
C7 C 0.6860(3) 0.4882(3) -0.27224(15)
C8 C 0.7851(3) 0.3169(3) -0.27964(15)
H5 H 0.8755 0.3004 -0.3335
C9 C 0.7517(3) 0.1734(3) -0.20927(16)
H6 H 0.8194 0.0580 -0.2139
C10 C 0.6177(3) 0.1993(3) -0.13131(15)
H7 H 0.5928 0.1010 -0.0826
C11 C 0.5531(3) 0.5072(3) -0.19183(14)
C12 C 0.4470(3) 0.6768(3) -0.17871(14)
C13 C 0.7674(3) 1.1138(3) -0.53279(15)
C14 C 0.6952(3) 1.2806(3) -0.50623(16)
H8 H 0.6267 1.2879 -0.4441
C15 C 0.7232(3) 1.4333(3) -0.56975(16)
H9 H 0.6758 1.5458 -0.5508
C16 C 0.8206(3) 1.4250(3) -0.66197(15)
C17 C 0.8979(3) 1.2599(3) -0.68827(15)
H10 H 0.9682 1.2527 -0.7499
C18 C 0.8705(3) 1.1070(3) -0.62302(15)
H11 H 0.9236 0.9943 -0.6405
H12 H 0.902(4) 1.565(4) -0.783(2)
H13 H 0.442(4) 0.377(3) -0.076(2)
O2 O 0.0147(2) 0.5892(2) 0.10617(11)
H14 H 0.077(4) 0.494(4) 0.091(2)
H15 H -0.055(4) 0.622(4) 0.062(2)
loop_
_geom_bond_atom_site_label_1
_geom_bond_atom_site_label_2
_geom_bond_site_symmetry_1
_geom_bond_site_symmetry_2
O1 C16 1_555 1_555
O2 H14 1_555 1_555
N1 C1 1_555 1_555
N2 C10 1_555 1_555
N3 N4 1_555 1_555
N4 C13 1_555 1_555
C1 H1 1_555 1_555
C2 C1 1_555 1_555
H2 C2 1_555 1_555
C3 C2 1_555 1_555
H3 C3 1_555 1_555
C4 C3 1_555 1_555
C5 N3 1_555 1_555
C6 C5 1_555 1_555
H4 C6 1_555 1_555
C7 C6 1_555 1_555
C8 C7 1_555 1_555
H5 C8 1_555 1_555
C9 C8 1_555 1_555
H6 C9 1_555 1_555
C10 C9 1_555 1_555
H7 C10 1_555 1_555
C11 N2 1_555 1_555
C12 N1 1_555 1_555
C13 C14 1_555 1_555
C14 H8 1_555 1_555
C15 C14 1_555 1_555
H9 C15 1_555 1_555
C16 C15 1_555 1_555
C17 C16 1_555 1_555
H10 C17 1_555 1_555
C18 C13 1_555 1_555
H11 C18 1_555 1_555
H12 O1 1_555 1_555
H13 N2 1_555 1_555
H15 O2 1_555 1_555
C4 C5 1_555 1_555
C4 C12 1_555 1_555
C7 C11 1_555 1_555
C11 C12 1_555 1_555
C17 C18 1_555 1_555

#END
