
#######################################################################
#
#                 Cambridge Crystallographic Data Centre
#                                CCDC 
#
#######################################################################
#
# If this CIF has been generated from an entry in the Cambridge 
# Structural Database, then it will include bibliographic, chemical, 
# crystal, experimental, refinement or atomic coordinate data resulting 
# from the CCDC's data processing and validation procedures.
#
#######################################################################

data_OBUBIY
_chemical_formula_moiety         'C15 H13 N5'
_chemical_name_systematic        
1-[2-(1H-Benzimidazol-2-yl)ethyl]-1H-1,2,3-benzotriazole
_symmetry_cell_setting           monoclinic
_symmetry_space_group_name_H-M   'P 21/c'
_symmetry_Int_Tables_number      14
_space_group_name_Hall           '-P 2ybc'
loop_
_symmetry_equiv_pos_site_id
_symmetry_equiv_pos_as_xyz
1 x,y,z
2 -x,1/2+y,1/2-z
3 -x,-y,-z
4 x,1/2-y,1/2+z
_cell_length_a                   6.3510(13)
_cell_length_b                   20.830(4)
_cell_length_c                   9.901(2)
_cell_angle_alpha                90
_cell_angle_beta                 96.78(3)
_cell_angle_gamma                90
_cell_volume                     1300.66
_exptl_crystal_colour            colorless
_exptl_crystal_description       block
_cell_formula_units_Z            4
loop_
_atom_site_label
_atom_site_type_symbol
_atom_site_fract_x
_atom_site_fract_y
_atom_site_fract_z
C1 C -0.2105(4) 0.96993(13) 0.3185(3)
H1 H -0.3426 0.9620 0.3468
C2 C -0.1838(5) 1.01290(14) 0.2171(3)
H2 H -0.3016 1.0346 0.1748
C3 C 0.0144(5) 1.02507(15) 0.1755(3)
H3 H 0.0252 1.0549 0.1068
C4 C 0.1916(5) 0.99482(14) 0.2323(3)
H4 H 0.3230 1.0028 0.2029
C5 C 0.1695(4) 0.95122(13) 0.3364(3)
C6 C -0.0285(4) 0.93888(12) 0.3764(3)
C7 C -0.1427(4) 0.85935(13) 0.5476(3)
H5 H -0.2662 0.8860 0.5547
H6 H -0.0790 0.8493 0.6391
C8 C -0.2120(4) 0.79717(13) 0.4733(3)
H7 H -0.3149 0.7754 0.5220
H8 H -0.2801 0.8074 0.3830
C9 C -0.0301(4) 0.75382(12) 0.4618(2)
C10 C 0.4117(5) 0.65844(13) 0.5972(3)
H9 H 0.4180 0.6501 0.6899
C11 C 0.5649(5) 0.63636(13) 0.5222(3)
H10 H 0.6778 0.6127 0.5648
C12 C 0.5546(5) 0.64870(13) 0.3839(3)
H11 H 0.6615 0.6333 0.3361
C13 C 0.3915(4) 0.68287(13) 0.3161(3)
H12 H 0.3856 0.6904 0.2232
C14 C 0.2348(4) 0.70614(12) 0.3900(2)
C15 C 0.2474(4) 0.69362(12) 0.5293(2)
N1 N 0.0085(3) 0.89470(10) 0.4772(2)
N2 N 0.2169(4) 0.87999(11) 0.4968(2)
N3 N 0.3165(3) 0.91386(12) 0.4137(3)
N4 N 0.0740(3) 0.72406(10) 0.5709(2)
H13 H 0.0439 0.7286 0.6512
N5 N 0.0578(3) 0.74388(10) 0.3498(2)
loop_
_geom_bond_atom_site_label_1
_geom_bond_atom_site_label_2
_geom_bond_site_symmetry_1
_geom_bond_site_symmetry_2
C1 H1 1_555 1_555
C2 C1 1_555 1_555
H2 C2 1_555 1_555
C3 C2 1_555 1_555
H3 C3 1_555 1_555
C4 C3 1_555 1_555
H4 C4 1_555 1_555
C5 C4 1_555 1_555
C6 C1 1_555 1_555
C7 H5 1_555 1_555
H6 C7 1_555 1_555
C8 C7 1_555 1_555
H7 C8 1_555 1_555
H8 C8 1_555 1_555
C9 C8 1_555 1_555
C10 H9 1_555 1_555
C11 C10 1_555 1_555
H10 C11 1_555 1_555
C12 C11 1_555 1_555
H11 C12 1_555 1_555
C13 C12 1_555 1_555
H12 C13 1_555 1_555
C14 C13 1_555 1_555
C15 C10 1_555 1_555
N1 C6 1_555 1_555
N2 N1 1_555 1_555
N3 C5 1_555 1_555
N4 C9 1_555 1_555
H13 N4 1_555 1_555
N5 C9 1_555 1_555
C5 C6 1_555 1_555
C7 N1 1_555 1_555
C14 C15 1_555 1_555
C14 N5 1_555 1_555
C15 N4 1_555 1_555
N2 N3 1_555 1_555

#END
