
#######################################################################
#
#                 Cambridge Crystallographic Data Centre
#                                CCDC 
#
#######################################################################
#
# If this CIF has been generated from an entry in the Cambridge 
# Structural Database, then it will include bibliographic, chemical, 
# crystal, experimental, refinement or atomic coordinate data resulting 
# from the CCDC's data processing and validation procedures.
#
#######################################################################

data_OBUBUL
_chemical_formula_moiety         'C15 H13 Br1 N2 O3'
_chemical_name_systematic        
4-bromo-N'-(2-hydroxy-5-methoxybenzylidene)benzohydrazide
_symmetry_cell_setting           monoclinic
_symmetry_space_group_name_H-M   'P n'
_symmetry_Int_Tables_number      7
_space_group_name_Hall           'P -2yac'
loop_
_symmetry_equiv_pos_site_id
_symmetry_equiv_pos_as_xyz
1 x,y,z
2 1/2+x,-y,1/2+z
_cell_length_a                   6.3430(6)
_cell_length_b                   15.7615(18)
_cell_length_c                   7.3081(7)
_cell_angle_alpha                90
_cell_angle_beta                 95.992(3)
_cell_angle_gamma                90
_cell_volume                     726.637
_exptl_crystal_colour            colorless
_exptl_crystal_description       block
_cell_formula_units_Z            2
loop_
_atom_site_label
_atom_site_type_symbol
_atom_site_fract_x
_atom_site_fract_y
_atom_site_fract_z
Br1 Br 0.15118(9) -0.36863(2) 0.25633(8)
N1 N 0.8212(5) 0.0825(2) 0.3358(4)
N2 N 0.6796(6) 0.0148(2) 0.3083(4)
O1 O 1.2033(4) 0.14386(19) 0.4153(4)
H1 H 1.1140 0.1061 0.4033
O2 O 0.8952(4) -0.06546(16) 0.5006(4)
O3 O 0.8789(5) 0.4610(2) 0.2358(5)
C1 C 0.8979(6) 0.2283(2) 0.3047(5)
C2 C 1.1110(6) 0.2193(3) 0.3667(5)
C3 C 1.2381(7) 0.2908(3) 0.3850(6)
H2 H 1.3807 0.2854 0.4282
C4 C 1.1559(7) 0.3691(3) 0.3402(6)
H3 H 1.2445 0.4163 0.3510
C5 C 0.9436(7) 0.3797(3) 0.2792(6)
C6 C 0.8151(6) 0.3087(3) 0.2590(5)
H4 H 0.6729 0.3145 0.2148
C7 C 0.6572(12) 0.4794(3) 0.2279(10)
H5 H 0.5820 0.4476 0.1298
H6 H 0.6347 0.5389 0.2062
H7 H 0.6062 0.4640 0.3425
C8 C 0.7556(6) 0.1553(2) 0.2794(5)
H8 H 0.6184 0.1620 0.2227
C9 C 0.7316(6) -0.0581(2) 0.3966(5)
C10 C 0.5807(6) -0.1302(2) 0.3583(4)
C11 C 0.6625(6) -0.2110(2) 0.3938(5)
H9 H 0.8039 -0.2175 0.4399
C12 C 0.5350(7) -0.2820(3) 0.3610(5)
H10 H 0.5896 -0.3362 0.3838
C13 C 0.3265(7) -0.2706(3) 0.2940(5)
C14 C 0.2396(6) -0.1916(2) 0.2604(6)
H11 H 0.0974 -0.1855 0.2168
C15 C 0.3695(6) -0.1207(3) 0.2933(5)
H12 H 0.3137 -0.0667 0.2713
H13 H 0.573(4) 0.021(3) 0.219(4)
loop_
_geom_bond_atom_site_label_1
_geom_bond_atom_site_label_2
_geom_bond_site_symmetry_1
_geom_bond_site_symmetry_2
Br1 C13 1_555 1_555
N1 N2 1_555 1_555
N2 C9 1_555 1_555
O1 H1 1_555 1_555
O2 C9 1_555 1_555
O3 C5 1_555 1_555
C1 C2 1_555 1_555
C2 O1 1_555 1_555
C3 C2 1_555 1_555
H2 C3 1_555 1_555
C4 C3 1_555 1_555
H3 C4 1_555 1_555
C5 C4 1_555 1_555
C6 C1 1_555 1_555
H4 C6 1_555 1_555
C7 O3 1_555 1_555
H5 C7 1_555 1_555
H6 C7 1_555 1_555
H7 C7 1_555 1_555
C8 N1 1_555 1_555
H8 C8 1_555 1_555
C9 C10 1_555 1_555
C10 C11 1_555 1_555
C11 H9 1_555 1_555
C12 C11 1_555 1_555
H10 C12 1_555 1_555
C13 C12 1_555 1_555
C14 C13 1_555 1_555
H11 C14 1_555 1_555
C15 C10 1_555 1_555
H12 C15 1_555 1_555
H13 N2 1_555 1_555
C1 C8 1_555 1_555
C5 C6 1_555 1_555
C14 C15 1_555 1_555

#END
