
#######################################################################
#
#                 Cambridge Crystallographic Data Centre
#                                CCDC 
#
#######################################################################
#
# If this CIF has been generated from an entry in the Cambridge 
# Structural Database, then it will include bibliographic, chemical, 
# crystal, experimental, refinement or atomic coordinate data resulting 
# from the CCDC's data processing and validation procedures.
#
#######################################################################

data_OBUCOD
_chemical_formula_moiety         'C24 H18 N2 S4'
_chemical_name_systematic        
(E)-1-(4-(4,5-bis(Methylsulfanyl)-1,3-dithiol-2-ylidenemethyl)phenyl)-2-(4-(2,2-dicyanovinyl)phenyl)ethene
_symmetry_cell_setting           monoclinic
_symmetry_space_group_name_H-M   'P 21/n'
_symmetry_Int_Tables_number      14
_space_group_name_Hall           '-P 2yn'
loop_
_symmetry_equiv_pos_site_id
_symmetry_equiv_pos_as_xyz
1 x,y,z
2 1/2+x,1/2-y,1/2+z
3 -x,-y,-z
4 1/2-x,1/2+y,1/2-z
_cell_length_a                   15.317(3)
_cell_length_b                   18.565(4)
_cell_length_c                   15.626(3)
_cell_angle_alpha                90
_cell_angle_beta                 98.30(3)
_cell_angle_gamma                90
_cell_volume                     4396.87
_exptl_crystal_colour            black
_exptl_crystal_description       rectangular
_chemical_melting_point          436K
_cell_formula_units_Z            8
loop_
_atom_site_label
_atom_site_type_symbol
_atom_site_fract_x
_atom_site_fract_y
_atom_site_fract_z
S1 S 0.69618(6) 0.78293(5) 0.54347(6)
S2 S 0.54861(6) 0.86381(5) 0.40324(6)
S3 S 0.63869(6) 0.64364(4) 0.44873(5)
S4 S 0.51739(5) 0.71906(4) 0.31447(5)
N1 N 0.1723(2) 0.1387(2) -0.3443(2)
N2 N 0.0369(2) 0.2611(2) -0.5620(2)
C1 C 0.6291(2) 0.7372(2) 0.4599(2)
C2 C 0.5722(2) 0.7713(2) 0.3997(2)
C3 C 0.5704(2) 0.6375(2) 0.3471(2)
C4 C 0.7388(3) 0.7114(3) 0.6144(3)
H1 H 0.7757(26) 0.6784(21) 0.5827(26)
H2 H 0.7750(29) 0.7335(23) 0.6544(29)
H3 H 0.6892(27) 0.6877(22) 0.6415(26)
C5 C 0.6025(3) 0.8961(2) 0.3142(3)
H4 H 0.5801(26) 0.8715(23) 0.2602(28)
H5 H 0.5891(24) 0.9462(22) 0.3129(24)
H6 H 0.6658(33) 0.8876(26) 0.3325(30)
C6 C 0.5636(2) 0.5735(2) 0.3055(2)
H7 H 0.5990(19) 0.5357(16) 0.3325(19)
C7 C 0.5124(2) 0.5527(2) 0.2236(2)
C8 C 0.5211(2) 0.4816(2) 0.1950(2)
H8 H 0.5614(20) 0.4519(17) 0.2275(20)
C9 C 0.4745(2) 0.4562(2) 0.1190(2)
H9 H 0.4817(19) 0.4080(17) 0.1042(20)
C10 C 0.4151(2) 0.5006(2) 0.0662(2)
C11 C 0.4084(2) 0.5723(2) 0.0925(2)
H10 H 0.3684(20) 0.6040(17) 0.0568(20)
C12 C 0.4546(2) 0.5979(2) 0.1691(2)
H11 H 0.4491(20) 0.6471(18) 0.1837(20)
C13 C 0.3632(2) 0.4762(2) -0.0148(2)
H12 H 0.3329(20) 0.5128(17) -0.0429(20)
C14 C 0.3593(2) 0.4097(2) -0.0483(2)
H13 H 0.3915(19) 0.3720(17) -0.0179(20)
C15 C 0.3074(2) 0.3885(2) -0.1305(2)
C16 C 0.3102(2) 0.3173(2) -0.1601(2)
H14 H 0.3432(20) 0.2827(18) -0.1278(21)
C17 C 0.2623(2) 0.2955(2) -0.2376(2)
H15 H 0.2656(21) 0.2477(19) -0.2581(22)
C18 C 0.2094(2) 0.3449(2) -0.2902(2)
C19 C 0.2079(2) 0.4164(2) -0.2611(2)
H16 H 0.1748(19) 0.4489(16) -0.2951(20)
C20 C 0.2552(2) 0.4376(2) -0.1838(2)
H17 H 0.2544(20) 0.4849(18) -0.1682(21)
C21 C 0.1570(2) 0.3283(2) -0.3732(2)
H18 H 0.1383(18) 0.3677(16) -0.4060(19)
C22 C 0.1323(2) 0.2641(2) -0.4105(2)
C23 C 0.1549(2) 0.1948(2) -0.3723(2)
C24 C 0.0790(2) 0.2620(2) -0.4948(2)
S5 S 0.70542(7) 0.97096(6) 1.05219(6)
S6 S 0.55537(8) 1.05384(6) 0.90894(7)
S8 S 0.64431(6) 0.83292(5) 0.95790(6)
S9 S 0.53024(6) 0.90938(5) 0.81965(6)
N3 N 0.2296(2) 0.3340(2) 0.1322(2)
N4 N 0.0675(2) 0.4547(2) -0.0691(2)
C26 C 0.6391(2) 0.9268(2) 0.9670(2)
C27 C 0.5848(2) 0.9620(2) 0.9054(2)
C28 C 0.5789(2) 0.8265(2) 0.8548(2)
C29 C 0.7325(3) 0.8992(3) 1.1291(3)
H19 H 0.7695(26) 0.8621(22) 1.1077(26)
H20 H 0.7625(22) 0.9213(18) 1.1783(24)
H21 H 0.6789(28) 0.8772(21) 1.1433(26)
C30 C 0.5982(3) 1.0872(3) 0.8139(3)
H22 H 0.5737(24) 1.0633(20) 0.7629(25)
H23 H 0.5854(26) 1.1415(24) 0.8076(26)
H24 H 0.6605(31) 1.0822(24) 0.8251(29)
C31 C 0.5710(2) 0.7631(2) 0.8129(2)
H25 H 0.5965(20) 0.7264(17) 0.8409(21)
C32 C 0.5236(2) 0.7436(2) 0.7287(2)
C33 C 0.5298(2) 0.6720(2) 0.7008(2)
H26 H 0.5602(20) 0.6413(17) 0.7380(20)
C34 C 0.4875(2) 0.6479(2) 0.6219(2)
H27 H 0.4896(22) 0.6000(19) 0.6082(22)
C35 C 0.4363(2) 0.6946(2) 0.5649(2)
C36 C 0.4301(2) 0.7656(2) 0.5922(2)
H28 H 0.3950(21) 0.7977(17) 0.5566(21)
C37 C 0.4716(2) 0.7903(2) 0.6717(2)
H29 H 0.4680(23) 0.8386(20) 0.6872(24)
C38 C 0.3888(2) 0.6723(2) 0.4811(2)
H30 H 0.3621(20) 0.7074(17) 0.4495(20)
C39 C 0.3853(2) 0.6061(2) 0.4464(2)
H31 H 0.4194(20) 0.5682(17) 0.4761(20)
C40 C 0.3350(2) 0.5855(2) 0.3634(2)
C41 C 0.3376(2) 0.5137(2) 0.3340(2)
H32 H 0.3725(22) 0.4801(18) 0.3673(22)
C42 C 0.2900(2) 0.4912(2) 0.2572(2)
H33 H 0.2940(18) 0.4427(16) 0.2383(18)
C43 C 0.2340(2) 0.5394(2) 0.2052(2)
C44 C 0.2317(2) 0.6108(2) 0.2347(2)
H34 H 0.1951(20) 0.6448(17) 0.2016(20)
C45 C 0.2810(2) 0.6337(2) 0.3101(2)
H35 H 0.2765(19) 0.6806(17) 0.3283(19)
C46 C 0.1798(2) 0.5219(2) 0.1237(2)
H36 H 0.1511(22) 0.5609(18) 0.0964(22)
C47 C 0.1661(2) 0.4587(2) 0.0804(2)
C48 C 0.2030(2) 0.3895(2) 0.1102(2)
C49 C 0.1108(2) 0.4567(2) -0.0032(2)
S7? S 0.6101(8) 1.0535(5) 0.8808(7)
C25? C 0.5046(8) 1.0864(5) 0.9165(7)
loop_
_geom_bond_atom_site_label_1
_geom_bond_atom_site_label_2
_geom_bond_site_symmetry_1
_geom_bond_site_symmetry_2
S1 C1 1_555 1_555
S2 C2 1_555 1_555
S3 C1 1_555 1_555
S4 C2 1_555 1_555
N1 C23 1_555 1_555
N2 C24 1_555 1_555
C1 C2 1_555 1_555
C3 S3 1_555 1_555
C4 S1 1_555 1_555
H1 C4 1_555 1_555
H2 C4 1_555 1_555
H3 C4 1_555 1_555
C5 S2 1_555 1_555
H4 C5 1_555 1_555
H5 C5 1_555 1_555
H6 C5 1_555 1_555
C6 C3 1_555 1_555
H7 C6 1_555 1_555
C7 C6 1_555 1_555
C8 C7 1_555 1_555
H8 C8 1_555 1_555
C9 C8 1_555 1_555
H9 C9 1_555 1_555
C10 C9 1_555 1_555
C11 C10 1_555 1_555
H10 C11 1_555 1_555
C12 C7 1_555 1_555
H11 C12 1_555 1_555
C13 C10 1_555 1_555
H12 C13 1_555 1_555
C14 C13 1_555 1_555
H13 C14 1_555 1_555
C15 C14 1_555 1_555
C16 C15 1_555 1_555
H14 C16 1_555 1_555
C17 C16 1_555 1_555
H15 C17 1_555 1_555
C18 C17 1_555 1_555
C19 C18 1_555 1_555
H16 C19 1_555 1_555
C20 C15 1_555 1_555
H17 C20 1_555 1_555
C21 C18 1_555 1_555
H18 C21 1_555 1_555
C22 C21 1_555 1_555
C23 C22 1_555 1_555
C24 C22 1_555 1_555
S5 C26 1_555 1_555
S6 C27 1_555 1_555
S8 C26 1_555 1_555
S9 C27 1_555 1_555
N3 C48 1_555 1_555
N4 C49 1_555 1_555
C26 C27 1_555 1_555
C28 S8 1_555 1_555
C29 S5 1_555 1_555
H19 C29 1_555 1_555
H20 C29 1_555 1_555
H21 C29 1_555 1_555
C30 S6 1_555 1_555
H22 C30 1_555 1_555
H23 C30 1_555 1_555
H24 C30 1_555 1_555
C31 C28 1_555 1_555
H25 C31 1_555 1_555
C32 C31 1_555 1_555
C33 C32 1_555 1_555
H26 C33 1_555 1_555
C34 C33 1_555 1_555
H27 C34 1_555 1_555
C35 C34 1_555 1_555
C36 C35 1_555 1_555
H28 C36 1_555 1_555
C37 C32 1_555 1_555
H29 C37 1_555 1_555
C38 C35 1_555 1_555
H30 C38 1_555 1_555
C39 C38 1_555 1_555
H31 C39 1_555 1_555
C40 C39 1_555 1_555
C41 C40 1_555 1_555
H32 C41 1_555 1_555
C42 C41 1_555 1_555
H33 C42 1_555 1_555
C43 C42 1_555 1_555
C44 C43 1_555 1_555
H34 C44 1_555 1_555
C45 C40 1_555 1_555
H35 C45 1_555 1_555
C46 C43 1_555 1_555
H36 C46 1_555 1_555
C47 C46 1_555 1_555
C48 C47 1_555 1_555
C49 C47 1_555 1_555
S4 C3 1_555 1_555
C11 C12 1_555 1_555
C19 C20 1_555 1_555
S9 C28 1_555 1_555
C36 C37 1_555 1_555
C44 C45 1_555 1_555

#END
