
#######################################################################
#
#                 Cambridge Crystallographic Data Centre
#                                CCDC 
#
#######################################################################
#
# If this CIF has been generated from an entry in the Cambridge 
# Structural Database, then it will include bibliographic, chemical, 
# crystal, experimental, refinement or atomic coordinate data resulting 
# from the CCDC's data processing and validation procedures.
#
#######################################################################

data_OBUCUM
_chemical_formula_moiety         'C25 H27 N1 O1 S1'
_chemical_name_systematic        
2,4-di-t-butyl-6-(thieno[2,3-c]quinolin-4-yl)phenol
_symmetry_cell_setting           triclinic
_symmetry_space_group_name_H-M   'P -1'
_symmetry_Int_Tables_number      2
_space_group_name_Hall           '-P 1'
loop_
_symmetry_equiv_pos_site_id
_symmetry_equiv_pos_as_xyz
1 x,y,z
2 -x,-y,-z
_cell_length_a                   6.8176(7)
_cell_length_b                   8.6779(8)
_cell_length_c                   18.8887(18)
_cell_angle_alpha                101.5219(15)
_cell_angle_beta                 93.7172(16)
_cell_angle_gamma                94.9757(16)
_cell_volume                     1086.99
_exptl_crystal_colour            yellow
_exptl_crystal_description       octahedron
_cell_formula_units_Z            2
loop_
_atom_site_label
_atom_site_type_symbol
_atom_site_fract_x
_atom_site_fract_y
_atom_site_fract_z
C1 C 0.7480(3) 0.5155(2) 0.62213(10)
N1 N 0.7208(2) 0.3812(2) 0.57313(8)
C2 C 0.7275(3) 0.3798(3) 0.50021(10)
C3 C 0.6987(3) 0.2319(3) 0.45139(11)
H1 H 0.6768 0.1375 0.4692
C4 C 0.7023(3) 0.2245(3) 0.37835(12)
H2 H 0.6841 0.1248 0.3457
C5 C 0.7327(3) 0.3635(3) 0.35141(11)
H3 H 0.7331 0.3572 0.3006
C6 C 0.7616(3) 0.5075(3) 0.39756(11)
H4 H 0.7831 0.6006 0.3786
C7 C 0.7598(3) 0.5197(3) 0.47349(10)
C8 C 0.7834(3) 0.6653(3) 0.52536(11)
C9 C 0.8058(3) 0.8232(3) 0.51318(12)
H5 H 0.8123 0.8480 0.4666
C10 C 0.8166(3) 0.9331(3) 0.57539(13)
H6 H 0.8296 1.0437 0.5770
S1 S 0.80440(8) 0.85296(6) 0.65114(3)
C11 C 0.7811(3) 0.6625(2) 0.59897(10)
C12 C 0.7281(3) 0.5043(2) 0.69872(10)
C13 C 0.6076(3) 0.3785(2) 0.71567(11)
C14 C 0.5643(4) 0.3813(3) 0.78804(11)
C15 C 0.6589(4) 0.5032(3) 0.84102(12)
H7 H 0.6309 0.5060 0.8899
C16 C 0.7931(4) 0.6225(3) 0.82717(11)
C17 C 0.8232(3) 0.6208(3) 0.75549(11)
H8 H 0.9116 0.7016 0.7443
O1 O 0.5286(2) 0.25420(18) 0.66292(8)
H9 H 0.583(5) 0.269(4) 0.6244(16)
C18 C 0.4204(4) 0.2519(3) 0.80698(13)
C19 C 0.8970(5) 0.7484(3) 0.89010(13)
C20 C 0.2193(4) 0.2406(4) 0.76490(18)
H10 H 0.1286 0.1607 0.7793
H11 H 0.2338 0.2106 0.7128
H12 H 0.1661 0.3433 0.7755
C21 C 0.5101(5) 0.0933(3) 0.79003(15)
H13 H 0.4189 0.0099 0.8016
H14 H 0.6361 0.1014 0.8192
H15 H 0.5323 0.0674 0.7384
C22 C 0.3884(6) 0.2848(4) 0.88858(16)
H16 H 0.2946 0.2013 0.8986
H17 H 0.3356 0.3872 0.9021
H18 H 0.5147 0.2869 0.9168
C23 C 1.0285(8) 0.8683(5) 0.86422(18)
H19 H 1.0722 0.9568 0.9047
H20 H 0.9558 0.9070 0.8260
H21 H 1.1438 0.8198 0.8450
C24 C 0.7307(7) 0.8407(4) 0.92946(17)
H22 H 0.7913 0.9195 0.9715
H23 H 0.6364 0.7659 0.9456
H24 H 0.6615 0.8939 0.8956
C25 C 0.9955(7) 0.6739(5) 0.94592(19)
H25 H 1.0502 0.7563 0.9876
H26 H 1.1023 0.6161 0.9250
H27 H 0.8986 0.6005 0.9618
loop_
_geom_bond_atom_site_label_1
_geom_bond_atom_site_label_2
_geom_bond_site_symmetry_1
_geom_bond_site_symmetry_2
C1 N1 1_555 1_555
N1 C2 1_555 1_555
C2 C3 1_555 1_555
C3 H1 1_555 1_555
C4 C3 1_555 1_555
H2 C4 1_555 1_555
C5 C4 1_555 1_555
H3 C5 1_555 1_555
C6 C5 1_555 1_555
H4 C6 1_555 1_555
C7 C2 1_555 1_555
C8 C7 1_555 1_555
C9 C8 1_555 1_555
H5 C9 1_555 1_555
C10 C9 1_555 1_555
H6 C10 1_555 1_555
S1 C10 1_555 1_555
C11 C1 1_555 1_555
C12 C1 1_555 1_555
C13 C12 1_555 1_555
C14 C13 1_555 1_555
C15 C14 1_555 1_555
H7 C15 1_555 1_555
C16 C15 1_555 1_555
C17 C12 1_555 1_555
H8 C17 1_555 1_555
O1 C13 1_555 1_555
H9 O1 1_555 1_555
C18 C14 1_555 1_555
C19 C16 1_555 1_555
C20 C18 1_555 1_555
H10 C20 1_555 1_555
H11 C20 1_555 1_555
H12 C20 1_555 1_555
C21 C18 1_555 1_555
H13 C21 1_555 1_555
H14 C21 1_555 1_555
H15 C21 1_555 1_555
C22 C18 1_555 1_555
H16 C22 1_555 1_555
H17 C22 1_555 1_555
H18 C22 1_555 1_555
C23 C19 1_555 1_555
H19 C23 1_555 1_555
H20 C23 1_555 1_555
H21 C23 1_555 1_555
C24 C19 1_555 1_555
H22 C24 1_555 1_555
H23 C24 1_555 1_555
H24 C24 1_555 1_555
C25 C19 1_555 1_555
H25 C25 1_555 1_555
H26 C25 1_555 1_555
H27 C25 1_555 1_555
C6 C7 1_555 1_555
C8 C11 1_555 1_555
S1 C11 1_555 1_555
C16 C17 1_555 1_555

#END
