
#######################################################################
#
#                 Cambridge Crystallographic Data Centre
#                                CCDC 
#
#######################################################################
#
# If this CIF has been generated from an entry in the Cambridge 
# Structural Database, then it will include bibliographic, chemical, 
# crystal, experimental, refinement or atomic coordinate data resulting 
# from the CCDC's data processing and validation procedures.
#
#######################################################################

data_OBUCUJ
_chemical_formula_moiety         'C14 H10 N2 S5'
_chemical_name_systematic        
2-(4,5-bis(Methylsulfanyl)-1,3-dithiol-2-ylidenemethyl)-5-(2,2-dicyanovinyl)thiophene
_symmetry_cell_setting           monoclinic
_symmetry_space_group_name_H-M   'P 21/c'
_symmetry_Int_Tables_number      14
_space_group_name_Hall           '-P 2ybc'
loop_
_symmetry_equiv_pos_site_id
_symmetry_equiv_pos_as_xyz
1 x,y,z
2 x,1/2-y,1/2+z
3 -x,-y,-z
4 -x,1/2+y,1/2-z
_cell_length_a                   16.359(4)
_cell_length_b                   7.765(1)
_cell_length_c                   13.016(5)
_cell_angle_alpha                90
_cell_angle_beta                 101.43(4)
_cell_angle_gamma                90
_cell_volume                     1620.6
_exptl_crystal_colour            purple
_exptl_crystal_description       plate
_chemical_melting_point          439-440K
_cell_formula_units_Z            4
loop_
_atom_site_label
_atom_site_type_symbol
_atom_site_fract_x
_atom_site_fract_y
_atom_site_fract_z
S1 S 0.3070(2) 0.3482(3) 0.4256(2)
S2 S 0.3179(2) 0.6585(3) 0.5553(2)
S3 S 0.4471(2) 0.4601(4) 0.3192(2)
S4 S 0.4520(2) 0.8241(3) 0.4645(2)
S5 S 0.1811(2) 0.0784(3) 0.4754(2)
N1 N 0.0283(5) -0.6035(11) 0.3450(6)
N2 N 0.1966(6) -0.1954(11) 0.2740(7)
C1 C 0.3803(5) 0.5031(12) 0.4053(7)
C2 C 0.3836(6) 0.6457(12) 0.4674(7)
C3 C 0.2722(6) 0.4549(12) 0.5265(7)
C4 C 0.2156(6) 0.3939(12) 0.5805(7)
H1 H 0.2027(6) 0.4690(12) 0.6327(7)
C5 C 0.1724(6) 0.2325(12) 0.5703(7)
C6 C 0.1205(6) 0.1719(12) 0.6351(6)
H2 H 0.1077(6) 0.2368(12) 0.6918(6)
C7 C 0.0895(5) 0.0082(12) 0.6094(7)
H3 H 0.0543(5) -0.0503(12) 0.6479(7)
C8 C 0.1140(6) -0.0625(13) 0.5228(7)
C9 C 0.0860(6) -0.2273(12) 0.4814(7)
H4 H 0.0513(6) -0.2872(12) 0.5198(7)
C10 C 0.1013(6) -0.3116(12) 0.3962(7)
C11 C 0.0611(6) -0.4739(14) 0.3671(7)
C12 C 0.1550(6) -0.2455(12) 0.3294(7)
C13 C 0.3713(7) 0.3975(15) 0.2042(7)
H5 H 0.3996(9) 0.3785(88) 0.1455(16)
H6 H 0.3297(25) 0.4891(39) 0.1861(32)
H7 H 0.3435(31) 0.2910(49) 0.2189(19)
C14 C 0.3988(6) 0.9325(14) 0.3461(7)
H8 H 0.3925(35) 0.8526(27) 0.2868(12)
H9 H 0.4316(21) 1.0324(48) 0.3324(28)
H10 H 0.3436(17) 0.9710(73) 0.3554(20)
loop_
_geom_bond_atom_site_label_1
_geom_bond_atom_site_label_2
_geom_bond_site_symmetry_1
_geom_bond_site_symmetry_2
S1 C1 1_555 1_555
S2 C2 1_555 1_555
S3 C1 1_555 1_555
S4 C2 1_555 1_555
S5 C5 1_555 1_555
N1 C11 1_555 1_555
N2 C12 1_555 1_555
C1 C2 1_555 1_555
C3 S1 1_555 1_555
C4 C3 1_555 1_555
H1 C4 1_555 1_555
C5 C4 1_555 1_555
C6 C5 1_555 1_555
H2 C6 1_555 1_555
C7 C6 1_555 1_555
H3 C7 1_555 1_555
C8 S5 1_555 1_555
C9 C8 1_555 1_555
H4 C9 1_555 1_555
C10 C9 1_555 1_555
C11 C10 1_555 1_555
C12 C10 1_555 1_555
C13 S3 1_555 1_555
H5 C13 1_555 1_555
H6 C13 1_555 1_555
H7 C13 1_555 1_555
C14 S4 1_555 1_555
H8 C14 1_555 1_555
H9 C14 1_555 1_555
H10 C14 1_555 1_555
S2 C3 1_555 1_555
C7 C8 1_555 1_555

#END
