
#######################################################################
#
#                 Cambridge Crystallographic Data Centre
#                                CCDC 
#
#######################################################################
#
# If this CIF has been generated from an entry in the Cambridge 
# Structural Database, then it will include bibliographic, chemical, 
# crystal, experimental, refinement or atomic coordinate data resulting 
# from the CCDC's data processing and validation procedures.
#
#######################################################################

data_OBUDUN
_chemical_formula_moiety         'C30 H31 N1 O1 S1'
_chemical_name_systematic        
6-(3,5-di-t-butyl-2-methoxyphenyl)[1]benzothieno[2,3-c]quinoline
_symmetry_cell_setting           orthorhombic
_symmetry_space_group_name_H-M   'P c a 21'
_symmetry_Int_Tables_number      29
_space_group_name_Hall           'P 2c -2ac'
loop_
_symmetry_equiv_pos_site_id
_symmetry_equiv_pos_as_xyz
1 x,y,z
2 -x,-y,1/2+z
3 1/2+x,-y,z
4 1/2-x,y,1/2+z
_cell_length_a                   18.279(2)
_cell_length_b                   5.9671(3)
_cell_length_c                   44.369(3)
_cell_angle_alpha                90
_cell_angle_beta                 90
_cell_angle_gamma                90
_cell_volume                     4839.44
_exptl_crystal_colour            colorless
_exptl_crystal_description       needle
_cell_formula_units_Z            8
loop_
_atom_site_label
_atom_site_type_symbol
_atom_site_fract_x
_atom_site_fract_y
_atom_site_fract_z
S1 S 0.5278(4) 0.6037(9) 0.39517(17)
C1 C 0.5815(13) 0.385(3) 0.4069(5)
C2 C 0.6554(12) 0.343(3) 0.3962(5)
N1 N 0.6999(12) 0.193(3) 0.4089(4)
C3 C 0.6710(12) 0.063(3) 0.4326(5)
C4 C 0.7181(15) -0.102(4) 0.4438(6)
H1 H 0.7679 -0.1073 0.4377
C5 C 0.6909(13) -0.257(4) 0.4637(6)
H2 H 0.7218 -0.3707 0.4716
C6 C 0.6174(13) -0.246(3) 0.4723(5)
H3 H 0.5989 -0.3616 0.4850
C7 C 0.5700(14) -0.078(3) 0.4634(5)
H4 H 0.5216 -0.0679 0.4711
C8 C 0.5977(12) 0.082(3) 0.4420(5)
C9 C 0.5547(11) 0.271(3) 0.4316(5)
C10 C 0.4839(13) 0.357(3) 0.4411(5)
C11 C 0.4406(12) 0.306(3) 0.4655(5)
H5 H 0.4554 0.1914 0.4790
C12 C 0.3770(13) 0.418(3) 0.4708(6)
H6 H 0.3458 0.3734 0.4868
C13 C 0.3573(14) 0.603(3) 0.4522(5)
H7 H 0.3141 0.6860 0.4563
C14 C 0.4008(14) 0.660(4) 0.4285(6)
H8 H 0.3878 0.7806 0.4155
C15 C 0.4633(13) 0.541(3) 0.4238(5)
C16 C 0.6778(12) 0.454(3) 0.3675(4)
C17 C 0.6480(11) 0.423(3) 0.3404(4)
C18 C 0.6679(12) 0.525(3) 0.3135(4)
C19 C 0.7343(12) 0.653(3) 0.3163(5)
H9 H 0.7562 0.7106 0.2985
C20 C 0.7670(12) 0.697(3) 0.3434(4)
C21 C 0.7431(13) 0.590(3) 0.3692(5)
H10 H 0.7690 0.6049 0.3876
O1 O 0.5815(8) 0.290(2) 0.3394(4)
C22 C 0.5910(16) 0.057(3) 0.3478(6)
H11 H 0.5439 -0.0203 0.3465
H12 H 0.6260 -0.0137 0.3341
H13 H 0.6095 0.0489 0.3685
C23 C 0.6327(12) 0.489(3) 0.2832(4)
C24 C 0.6300(15) 0.236(3) 0.2753(6)
H14 H 0.6069 0.2162 0.2555
H15 H 0.6799 0.1756 0.2747
H16 H 0.6015 0.1557 0.2906
C25 C 0.5518(14) 0.572(4) 0.2844(6)
H17 H 0.5288 0.5492 0.2646
H18 H 0.5249 0.4879 0.2997
H19 H 0.5509 0.7322 0.2894
C26 C 0.6724(15) 0.610(4) 0.2575(5)
H20 H 0.6470 0.5807 0.2385
H21 H 0.6727 0.7717 0.2615
H22 H 0.7228 0.5554 0.2562
C27 C 0.8401(12) 0.836(3) 0.3425(5)
C28 C 0.8944(15) 0.723(4) 0.3218(6)
H23 H 0.9056 0.5726 0.3295
H24 H 0.8735 0.7104 0.3015
H25 H 0.9394 0.8116 0.3210
C29 C 0.8214(16) 1.067(3) 0.3314(7)
H26 H 0.8020 1.0578 0.3108
H27 H 0.7846 1.1341 0.3446
H28 H 0.8656 1.1604 0.3314
C30 C 0.8696(16) 0.860(4) 0.3740(5)
H29 H 0.8823 0.7120 0.3820
H30 H 0.9133 0.9551 0.3737
H31 H 0.8322 0.9289 0.3869
S2 S 0.4942(4) 1.1134(9) 0.60427(17)
C31 C 0.5507(13) 0.900(3) 0.5923(5)
C32 C 0.6232(12) 0.855(3) 0.6041(5)
N2 N 0.6666(11) 0.703(3) 0.5913(4)
C33 C 0.6387(13) 0.572(3) 0.5677(5)
C34 C 0.6836(14) 0.401(3) 0.5574(5)
H32 H 0.7318 0.3884 0.5652
C35 C 0.6604(16) 0.248(4) 0.5362(6)
H33 H 0.6925 0.1368 0.5284
C36 C 0.5871(15) 0.263(3) 0.5266(5)
H34 H 0.5683 0.1506 0.5135
C37 C 0.5415(14) 0.435(3) 0.5356(5)
H35 H 0.4933 0.4451 0.5277
C38 C 0.5671(13) 0.597(3) 0.5569(5)
C39 C 0.5258(13) 0.788(3) 0.5670(5)
C40 C 0.4564(13) 0.878(3) 0.5569(5)
C41 C 0.4156(14) 0.826(4) 0.5317(5)
H36 H 0.4324 0.7135 0.5183
C42 C 0.3512(14) 0.935(4) 0.5258(5)
H37 H 0.3221 0.8904 0.5091
C43 C 0.3281(15) 1.112(4) 0.5445(5)
H38 H 0.2848 1.1927 0.5398
C44 C 0.3682(15) 1.166(4) 0.5693(6)
H39 H 0.3523 1.2817 0.5825
C45 C 0.4314(14) 1.053(4) 0.5748(5)
C46 C 0.6464(12) 0.965(3) 0.6328(4)
C47 C 0.6164(13) 0.930(3) 0.6599(4)
C48 C 0.6365(12) 1.031(3) 0.6869(4)
C49 C 0.7011(13) 1.166(4) 0.6843(5)
H40 H 0.7197 1.2371 0.7019
C50 C 0.7371(12) 1.197(3) 0.6577(4)
C51 C 0.7138(13) 1.095(3) 0.6316(5)
H41 H 0.7408 1.1093 0.6134
O2 O 0.5506(9) 0.796(2) 0.6613(3)
C52 C 0.5597(16) 0.564(3) 0.6527(7)
H42 H 0.5127 0.4861 0.6543
H43 H 0.5774 0.5558 0.6319
H44 H 0.5953 0.4924 0.6661
C53 C 0.5994(13) 1.004(4) 0.7168(4)
C54 C 0.5185(13) 1.084(3) 0.7153(6)
H45 H 0.4955 1.0643 0.7351
H46 H 0.5172 1.2428 0.7097
H47 H 0.4920 0.9956 0.7002
C55 C 0.5972(16) 0.750(3) 0.7261(5)
H48 H 0.5728 0.7347 0.7457
H49 H 0.5701 0.6644 0.7109
H50 H 0.6472 0.6917 0.7276
C56 C 0.6358(15) 1.127(4) 0.7432(5)
H51 H 0.6079 1.0993 0.7617
H52 H 0.6859 1.0722 0.7457
H53 H 0.6367 1.2882 0.7390
C57 C 0.8086(12) 1.343(3) 0.6582(5)
C58 C 0.7906(14) 1.577(3) 0.6693(6)
H54 H 0.7697 1.5680 0.6896
H55 H 0.8353 1.6674 0.6698
H56 H 0.7551 1.6466 0.6557
C59 C 0.8403(15) 1.362(4) 0.6273(5)
H57 H 0.8050 1.4361 0.6140
H58 H 0.8855 1.4502 0.6281
H59 H 0.8511 1.2119 0.6196
C60 C 0.8630(14) 1.229(4) 0.6786(6)
H60 H 0.8425 1.2168 0.6989
H61 H 0.8739 1.0794 0.6707
H62 H 0.9082 1.3178 0.6793
loop_
_geom_bond_atom_site_label_1
_geom_bond_atom_site_label_2
_geom_bond_site_symmetry_1
_geom_bond_site_symmetry_2
S1 C1 1_555 1_555
C1 C2 1_555 1_555
C2 N1 1_555 1_555
N1 C3 1_555 1_555
C3 C4 1_555 1_555
C4 H1 1_555 1_555
C5 C4 1_555 1_555
H2 C5 1_555 1_555
C6 C5 1_555 1_555
H3 C6 1_555 1_555
C7 C6 1_555 1_555
H4 C7 1_555 1_555
C8 C3 1_555 1_555
C9 C1 1_555 1_555
C10 C9 1_555 1_555
C11 C10 1_555 1_555
H5 C11 1_555 1_555
C12 C11 1_555 1_555
H6 C12 1_555 1_555
C13 C12 1_555 1_555
H7 C13 1_555 1_555
C14 C13 1_555 1_555
H8 C14 1_555 1_555
C15 S1 1_555 1_555
C16 C2 1_555 1_555
C17 C16 1_555 1_555
C18 C17 1_555 1_555
C19 C18 1_555 1_555
H9 C19 1_555 1_555
C20 C19 1_555 1_555
C21 C16 1_555 1_555
H10 C21 1_555 1_555
O1 C17 1_555 1_555
C22 O1 1_555 1_555
H11 C22 1_555 1_555
H12 C22 1_555 1_555
H13 C22 1_555 1_555
C23 C18 1_555 1_555
C24 C23 1_555 1_555
H14 C24 1_555 1_555
H15 C24 1_555 1_555
H16 C24 1_555 1_555
C25 C23 1_555 1_555
H17 C25 1_555 1_555
H18 C25 1_555 1_555
H19 C25 1_555 1_555
C26 C23 1_555 1_555
H20 C26 1_555 1_555
H21 C26 1_555 1_555
H22 C26 1_555 1_555
C27 C20 1_555 1_555
C28 C27 1_555 1_555
H23 C28 1_555 1_555
H24 C28 1_555 1_555
H25 C28 1_555 1_555
C29 C27 1_555 1_555
H26 C29 1_555 1_555
H27 C29 1_555 1_555
H28 C29 1_555 1_555
C30 C27 1_555 1_555
H29 C30 1_555 1_555
H30 C30 1_555 1_555
H31 C30 1_555 1_555
S2 C31 1_555 1_555
C31 C32 1_555 1_555
C32 N2 1_555 1_555
N2 C33 1_555 1_555
C33 C34 1_555 1_555
C34 H32 1_555 1_555
C35 C34 1_555 1_555
H33 C35 1_555 1_555
C36 C35 1_555 1_555
H34 C36 1_555 1_555
C37 C36 1_555 1_555
H35 C37 1_555 1_555
C38 C33 1_555 1_555
C39 C31 1_555 1_555
C40 C39 1_555 1_555
C41 C40 1_555 1_555
H36 C41 1_555 1_555
C42 C41 1_555 1_555
H37 C42 1_555 1_555
C43 C42 1_555 1_555
H38 C43 1_555 1_555
C44 C43 1_555 1_555
H39 C44 1_555 1_555
C45 S2 1_555 1_555
C46 C32 1_555 1_555
C47 C46 1_555 1_555
C48 C47 1_555 1_555
C49 C48 1_555 1_555
H40 C49 1_555 1_555
C50 C49 1_555 1_555
C51 C46 1_555 1_555
H41 C51 1_555 1_555
O2 C47 1_555 1_555
C52 O2 1_555 1_555
H42 C52 1_555 1_555
H43 C52 1_555 1_555
H44 C52 1_555 1_555
C53 C48 1_555 1_555
C54 C53 1_555 1_555
H45 C54 1_555 1_555
H46 C54 1_555 1_555
H47 C54 1_555 1_555
C55 C53 1_555 1_555
H48 C55 1_555 1_555
H49 C55 1_555 1_555
H50 C55 1_555 1_555
C56 C53 1_555 1_555
H51 C56 1_555 1_555
H52 C56 1_555 1_555
H53 C56 1_555 1_555
C57 C50 1_555 1_555
C58 C57 1_555 1_555
H54 C58 1_555 1_555
H55 C58 1_555 1_555
H56 C58 1_555 1_555
C59 C57 1_555 1_555
H57 C59 1_555 1_555
H58 C59 1_555 1_555
H59 C59 1_555 1_555
C60 C57 1_555 1_555
H60 C60 1_555 1_555
H61 C60 1_555 1_555
H62 C60 1_555 1_555
C7 C8 1_555 1_555
C8 C9 1_555 1_555
C10 C15 1_555 1_555
C14 C15 1_555 1_555
C20 C21 1_555 1_555
C37 C38 1_555 1_555
C38 C39 1_555 1_555
C40 C45 1_555 1_555
C44 C45 1_555 1_555
C50 C51 1_555 1_555

#END
