
#######################################################################
#
#                 Cambridge Crystallographic Data Centre
#                                CCDC 
#
#######################################################################
#
# If this CIF has been generated from an entry in the Cambridge 
# Structural Database, then it will include bibliographic, chemical, 
# crystal, experimental, refinement or atomic coordinate data resulting 
# from the CCDC's data processing and validation procedures.
#
#######################################################################

data_OBUDOH
_chemical_formula_moiety         'C26 H29 N1 O1 S1'
_chemical_name_systematic        
4-(3,5-di-t-butyl-2-methoxyphenyl)thieno[2,3-c]quinoline
_symmetry_cell_setting           orthorhombic
_symmetry_space_group_name_H-M   'P 21 21 21'
_symmetry_Int_Tables_number      19
_space_group_name_Hall           'P 2ac 2ab'
loop_
_symmetry_equiv_pos_site_id
_symmetry_equiv_pos_as_xyz
1 x,y,z
2 1/2-x,-y,1/2+z
3 -x,1/2+y,1/2-z
4 1/2+x,1/2-y,-z
_cell_length_a                   9.7686(6)
_cell_length_b                   14.7382(10)
_cell_length_c                   15.6650(9)
_cell_angle_alpha                90
_cell_angle_beta                 90
_cell_angle_gamma                90
_cell_volume                     2255.31
_exptl_crystal_colour            colorless
_exptl_crystal_description       polyhedron
_cell_formula_units_Z            4
loop_
_atom_site_label
_atom_site_type_symbol
_atom_site_fract_x
_atom_site_fract_y
_atom_site_fract_z
C1 C 0.8064(3) 0.4539(2) 0.13350(19)
C2 C 0.7767(4) 0.4660(2) 0.0450(2)
H1 H 0.8422 0.4591 0.0007
C3 C 0.6448(4) 0.4882(2) 0.0319(2)
H2 H 0.6072 0.4985 -0.0232
S1 S 0.55095(9) 0.49631(6) 0.12441(5)
C4 C 0.6924(3) 0.4687(2) 0.18488(19)
C5 C 0.7011(3) 0.4601(2) 0.27517(19)
N1 N 0.8165(3) 0.43685(18) 0.31287(16)
C6 C 0.9327(3) 0.4296(2) 0.17375(19)
C7 C 0.9316(3) 0.4226(2) 0.26367(19)
C8 C 1.0557(4) 0.4015(2) 0.3059(2)
H3 H 1.0565 0.3957 0.3663
C9 C 1.1737(4) 0.3894(3) 0.2613(2)
H4 H 1.2565 0.3773 0.2909
C10 C 1.1741(4) 0.3947(3) 0.1720(2)
H5 H 1.2564 0.3847 0.1412
C11 C 1.0554(3) 0.4144(2) 0.1292(2)
H6 H 1.0561 0.4179 0.0686
C12 C 0.5791(3) 0.4753(2) 0.33088(18)
C13 C 0.5062(4) 0.5561(2) 0.32955(19)
C14 C 0.3845(4) 0.5663(2) 0.3764(2)
C15 C 0.3472(3) 0.4942(2) 0.42836(18)
H7 H 0.2658 0.4999 0.4610
C16 C 0.4217(3) 0.4138(2) 0.43565(18)
C17 C 0.5379(3) 0.40586(19) 0.38501(18)
H8 H 0.5904 0.3517 0.3875
O1 O 0.5522(3) 0.62823(16) 0.28014(15)
C18 C 0.6844(6) 0.6630(3) 0.3024(3)
H9 H 0.6920 0.7261 0.2832
H10 H 0.7554 0.6264 0.2747
H11 H 0.6962 0.6603 0.3645
C19 C 0.2981(5) 0.6535(2) 0.3718(2)
C20 C 0.3825(3) 0.3379(2) 0.4975(2)
C21 C 0.2569(5) 0.6719(3) 0.2783(3)
H12 H 0.2069 0.7295 0.2750
H13 H 0.1983 0.6226 0.2578
H14 H 0.3393 0.6755 0.2429
C22 C 0.3802(6) 0.7346(3) 0.4066(3)
H15 H 0.3245 0.7898 0.4029
H16 H 0.4638 0.7424 0.3728
H17 H 0.4047 0.7233 0.4663
C23 C 0.1652(5) 0.6453(3) 0.4235(3)
H18 H 0.1096 0.6999 0.4152
H19 H 0.1874 0.6387 0.4842
H20 H 0.1138 0.5920 0.4041
C24 C 0.3710(4) 0.2474(2) 0.4489(2)
H21 H 0.3475 0.1988 0.4890
H22 H 0.4587 0.2335 0.4215
H23 H 0.2995 0.2522 0.4053
C25 C 0.4934(3) 0.3302(2) 0.5666(2)
H24 H 0.4722 0.2791 0.6044
H25 H 0.4963 0.3864 0.5999
H26 H 0.5826 0.3201 0.5395
C26 C 0.2455(3) 0.3551(2) 0.5414(2)
H27 H 0.2241 0.3042 0.5794
H28 H 0.1734 0.3610 0.4983
H29 H 0.2510 0.4112 0.5749
loop_
_geom_bond_atom_site_label_1
_geom_bond_atom_site_label_2
_geom_bond_site_symmetry_1
_geom_bond_site_symmetry_2
C1 C2 1_555 1_555
C2 H1 1_555 1_555
C3 C2 1_555 1_555
H2 C3 1_555 1_555
S1 C3 1_555 1_555
C4 C1 1_555 1_555
C5 C4 1_555 1_555
N1 C5 1_555 1_555
C6 C1 1_555 1_555
C7 N1 1_555 1_555
C8 C7 1_555 1_555
H3 C8 1_555 1_555
C9 C8 1_555 1_555
H4 C9 1_555 1_555
C10 C9 1_555 1_555
H5 C10 1_555 1_555
C11 C6 1_555 1_555
H6 C11 1_555 1_555
C12 C5 1_555 1_555
C13 C12 1_555 1_555
C14 C13 1_555 1_555
C15 C14 1_555 1_555
H7 C15 1_555 1_555
C16 C15 1_555 1_555
C17 C12 1_555 1_555
H8 C17 1_555 1_555
O1 C13 1_555 1_555
C18 O1 1_555 1_555
H9 C18 1_555 1_555
H10 C18 1_555 1_555
H11 C18 1_555 1_555
C19 C14 1_555 1_555
C20 C16 1_555 1_555
C21 C19 1_555 1_555
H12 C21 1_555 1_555
H13 C21 1_555 1_555
H14 C21 1_555 1_555
C22 C19 1_555 1_555
H15 C22 1_555 1_555
H16 C22 1_555 1_555
H17 C22 1_555 1_555
C23 C19 1_555 1_555
H18 C23 1_555 1_555
H19 C23 1_555 1_555
H20 C23 1_555 1_555
C24 C20 1_555 1_555
H21 C24 1_555 1_555
H22 C24 1_555 1_555
H23 C24 1_555 1_555
C25 C20 1_555 1_555
H24 C25 1_555 1_555
H25 C25 1_555 1_555
H26 C25 1_555 1_555
C26 C20 1_555 1_555
H27 C26 1_555 1_555
H28 C26 1_555 1_555
H29 C26 1_555 1_555
S1 C4 1_555 1_555
C6 C7 1_555 1_555
C10 C11 1_555 1_555
C16 C17 1_555 1_555

#END
