
#######################################################################
#
#                 Cambridge Crystallographic Data Centre
#                                CCDC 
#
#######################################################################
#
# If this CIF has been generated from an entry in the Cambridge 
# Structural Database, then it will include bibliographic, chemical, 
# crystal, experimental, refinement or atomic coordinate data resulting 
# from the CCDC's data processing and validation procedures.
#
#######################################################################

data_OBUFID
_chemical_formula_moiety         'C25 H26 B1 F2 N1 O1 S1'
_chemical_name_systematic        
11,13-di-t-butyl-9,9-difluoro-9H-8\l^5^,9\l^5^-thieno[2',3':3,4]quinolino[1,2-c][1,3,2]benzoxazaborinine
_symmetry_cell_setting           monoclinic
_symmetry_space_group_name_H-M   'C 2/c'
_symmetry_Int_Tables_number      15
_space_group_name_Hall           '-C 2yn'
loop_
_symmetry_equiv_pos_site_id
_symmetry_equiv_pos_as_xyz
1 x,y,z
2 -x,y,1/2-z
3 1/2+x,1/2+y,z
4 1/2-x,1/2+y,1/2-z
5 -x,-y,-z
6 x,-y,1/2+z
7 1/2-x,1/2-y,-z
8 1/2+x,1/2-y,1/2+z
_cell_length_a                   38.358(12)
_cell_length_b                   6.657(2)
_cell_length_c                   18.035(6)
_cell_angle_alpha                90
_cell_angle_beta                 104.299(8)
_cell_angle_gamma                90
_cell_volume                     4462.55
_exptl_crystal_colour            yellow
_exptl_crystal_description       plate
_cell_formula_units_Z            8
loop_
_atom_site_label
_atom_site_type_symbol
_atom_site_fract_x
_atom_site_fract_y
_atom_site_fract_z
S1 S 0.33604(10) 0.7656(6) 0.41870(19)
C1 C 0.3172(4) 0.763(2) 0.2566(7)
N1 N 0.2915(3) 0.7489(16) 0.1926(6)
B1 B 0.3044(5) 0.708(3) 0.1138(9)
F1 F 0.2808(2) 0.5924(12) 0.0647(4)
F2 F 0.3100(2) 0.8940(12) 0.0855(4)
C2 C 0.3072(4) 0.7692(18) 0.3279(7)
C3 C 0.2717(4) 0.757(2) 0.3319(7)
C4 C 0.2688(4) 0.7443(18) 0.4095(7)
H1 H 0.2466 0.7333 0.4238
C5 C 0.3003(4) 0.749(2) 0.4583(8)
H2 H 0.3031 0.7439 0.5121
C6 C 0.2548(4) 0.7555(18) 0.1919(7)
C7 C 0.2439(4) 0.7537(19) 0.2630(7)
C8 C 0.2068(4) 0.760(2) 0.2599(8)
H3 H 0.1992 0.7580 0.3062
C9 C 0.1821(4) 0.770(2) 0.1928(8)
H4 H 0.1573 0.7769 0.1917
C10 C 0.1928(4) 0.770(2) 0.1263(8)
H5 H 0.1748 0.7763 0.0794
C11 C 0.2277(4) 0.762(2) 0.1233(7)
H6 H 0.2338 0.7596 0.0754
C12 C 0.3549(4) 0.767(2) 0.2525(7)
C13 C 0.3639(4) 0.658(2) 0.1932(8)
O1 O 0.3373(2) 0.5921(13) 0.1357(4)
C14 C 0.4001(4) 0.621(2) 0.1955(8)
C15 C 0.4257(4) 0.709(2) 0.2551(8)
H7 H 0.4503 0.6831 0.2577
C16 C 0.4178(4) 0.832(2) 0.3105(8)
C17 C 0.3824(4) 0.853(2) 0.3079(7)
H8 H 0.3760 0.9316 0.3465
C18 C 0.4104(3) 0.492(2) 0.1334(7)
C19 C 0.3931(4) 0.283(2) 0.1291(9)
H9 H 0.4011 0.2152 0.1786
H10 H 0.3668 0.2964 0.1162
H11 H 0.4002 0.2028 0.0896
C20 C 0.3980(4) 0.599(2) 0.0559(7)
H12 H 0.4044 0.5179 0.0160
H13 H 0.3718 0.6172 0.0436
H14 H 0.4097 0.7307 0.0586
C21 C 0.4513(3) 0.461(3) 0.1464(8)
H15 H 0.4606 0.3929 0.1955
H16 H 0.4560 0.3789 0.1050
H17 H 0.4631 0.5918 0.1472
C22 C 0.4478(6) 0.905(3) 0.3762(13)
C23 C 0.4344(6) 1.053(4) 0.4278(15)
H18 H 0.4546 1.0963 0.4694
H19 H 0.4237 1.1703 0.3976
H20 H 0.4161 0.9878 0.4492
C24 C 0.4744(7) 1.014(5) 0.3392(15)
H21 H 0.4946 1.0647 0.3793
H22 H 0.4834 0.9204 0.3063
H23 H 0.4622 1.1266 0.3085
C25 C 0.4668(6) 0.731(4) 0.4264(14)
H24 H 0.4860 0.7850 0.4680
H25 H 0.4494 0.6585 0.4479
H26 H 0.4772 0.6391 0.3952
C26? C 0.4462(10) 0.959(5) 0.372(2)
C27? C 0.4460(12) 0.848(7) 0.446(2)
H27? H 0.4543 0.7099 0.4427
H28? H 0.4621 0.9167 0.4890
H29? H 0.4215 0.8469 0.4530
C28? C 0.4333(11) 1.175(6) 0.377(3)
H30? H 0.4088 1.1732 0.3835
H31? H 0.4493 1.2426 0.4203
H32? H 0.4336 1.2468 0.3294
C29? C 0.4845(11) 0.959(8) 0.361(3)
H33? H 0.4925 0.8202 0.3575
H34? H 0.4850 1.0305 0.3135
H35? H 0.5006 1.0262 0.4043
loop_
_geom_bond_atom_site_label_1
_geom_bond_atom_site_label_2
_geom_bond_site_symmetry_1
_geom_bond_site_symmetry_2
S1 C2 1_555 1_555
C1 N1 1_555 1_555
N1 B1 1_555 1_555
B1 F1 1_555 1_555
F2 B1 1_555 1_555
C2 C1 1_555 1_555
C3 C2 1_555 1_555
C4 C3 1_555 1_555
H1 C4 1_555 1_555
C5 S1 1_555 1_555
H2 C5 1_555 1_555
C6 N1 1_555 1_555
C7 C3 1_555 1_555
C8 C7 1_555 1_555
H3 C8 1_555 1_555
C9 C8 1_555 1_555
H4 C9 1_555 1_555
C10 C9 1_555 1_555
H5 C10 1_555 1_555
C11 C6 1_555 1_555
H6 C11 1_555 1_555
C12 C1 1_555 1_555
C13 C12 1_555 1_555
O1 B1 1_555 1_555
C14 C13 1_555 1_555
C15 C14 1_555 1_555
H7 C15 1_555 1_555
C16 C15 1_555 1_555
C17 C12 1_555 1_555
H8 C17 1_555 1_555
C18 C14 1_555 1_555
C19 C18 1_555 1_555
H9 C19 1_555 1_555
H10 C19 1_555 1_555
H11 C19 1_555 1_555
C20 C18 1_555 1_555
H12 C20 1_555 1_555
H13 C20 1_555 1_555
H14 C20 1_555 1_555
C21 C18 1_555 1_555
H15 C21 1_555 1_555
H16 C21 1_555 1_555
H17 C21 1_555 1_555
C22 C16 1_555 1_555
C23 C22 1_555 1_555
H18 C23 1_555 1_555
H19 C23 1_555 1_555
H20 C23 1_555 1_555
C24 C22 1_555 1_555
H21 C24 1_555 1_555
H22 C24 1_555 1_555
H23 C24 1_555 1_555
C25 C22 1_555 1_555
H24 C25 1_555 1_555
H25 C25 1_555 1_555
H26 C25 1_555 1_555
C4 C5 1_555 1_555
C6 C7 1_555 1_555
C10 C11 1_555 1_555
C13 O1 1_555 1_555
C16 C17 1_555 1_555

#END
