
#######################################################################
#
#                 Cambridge Crystallographic Data Centre
#                                CCDC 
#
#######################################################################
#
# If this CIF has been generated from an entry in the Cambridge 
# Structural Database, then it will include bibliographic, chemical, 
# crystal, experimental, refinement or atomic coordinate data resulting 
# from the CCDC's data processing and validation procedures.
#
#######################################################################

data_OBUGAW
_chemical_formula_moiety         'C29 H32 B1 F2 N1 O3'
_chemical_name_systematic        
12,14-di-t-butyl-10,10-difluoro-1,3-dimethoxy-10H-9\l^5^,10\l^5^-[1,3,2]benzoxazaborinino[3,4-f]phenanthridine
_symmetry_cell_setting           triclinic
_symmetry_space_group_name_H-M   'P -1'
_symmetry_Int_Tables_number      2
_space_group_name_Hall           '-P 1'
loop_
_symmetry_equiv_pos_site_id
_symmetry_equiv_pos_as_xyz
1 x,y,z
2 -x,-y,-z
_cell_length_a                   10.835(3)
_cell_length_b                   19.079(5)
_cell_length_c                   20.886(5)
_cell_angle_alpha                101.579(6)
_cell_angle_beta                 104.685(5)
_cell_angle_gamma                98.281(5)
_cell_volume                     4004.06
_exptl_crystal_colour            yellow
_exptl_crystal_description       needle
_cell_formula_units_Z            6
loop_
_atom_site_label
_atom_site_type_symbol
_atom_site_fract_x
_atom_site_fract_y
_atom_site_fract_z
N1 N 0.4704(7) 0.2323(4) 0.2144(4)
C1 C 0.4992(8) 0.2498(6) 0.2824(6)
C2 C 0.5167(8) 0.3255(6) 0.3190(5)
C3 C 0.5808(9) 0.3520(6) 0.3912(5)
C4 C 0.5859(9) 0.4221(7) 0.4234(5)
H1 H 0.6226 0.4384 0.4716
C5 C 0.5376(9) 0.4703(5) 0.3862(6)
C6 C 0.4920(8) 0.4496(6) 0.3165(5)
H2 H 0.4680 0.4845 0.2916
C7 C 0.4805(7) 0.3782(6) 0.2823(5)
C8 C 0.4320(8) 0.3543(6) 0.2102(5)
C9 C 0.3859(8) 0.3992(5) 0.1672(6)
H3 H 0.3848 0.4482 0.1878
C10 C 0.3433(8) 0.3764(6) 0.0985(6)
H4 H 0.3176 0.4096 0.0718
C11 C 0.3373(8) 0.3037(7) 0.0670(5)
H5 H 0.3035 0.2865 0.0188
C12 C 0.3798(8) 0.2579(5) 0.1054(6)
H6 H 0.3759 0.2086 0.0836
C13 C 0.4293(8) 0.2817(6) 0.1767(5)
O1 O 0.6392(6) 0.3054(3) 0.4236(3)
C14 C 0.7126(10) 0.3315(5) 0.4942(4)
H7 H 0.7769 0.3759 0.5003
H8 H 0.7575 0.2939 0.5089
H9 H 0.6535 0.3427 0.5217
O2 O 0.5443(6) 0.5382(4) 0.4250(3)
C15 C 0.5113(10) 0.5925(5) 0.3900(5)
H10 H 0.5693 0.5995 0.3617
H11 H 0.5209 0.6387 0.4233
H12 H 0.4208 0.5769 0.3609
B1 B 0.5029(13) 0.1563(7) 0.1793(7)
F1 F 0.3838(5) 0.1078(3) 0.1477(3)
F2 F 0.5640(5) 0.1702(3) 0.1316(2)
O3 O 0.5871(6) 0.1316(3) 0.2304(4)
C16 C 0.5024(8) 0.1889(6) 0.3148(5)
C17 C 0.5514(9) 0.1294(6) 0.2876(5)
C18 C 0.5597(10) 0.0712(6) 0.3168(6)
C19 C 0.5103(11) 0.0715(6) 0.3708(6)
H13 H 0.5158 0.0322 0.3924
C20 C 0.4507(9) 0.1290(7) 0.3960(5)
C21 C 0.4499(9) 0.1867(5) 0.3678(5)
H14 H 0.4127 0.2260 0.3847
C22 C 0.6244(12) 0.0091(6) 0.2905(5)
C23 C 0.5448(11) -0.0322(5) 0.2167(5)
H15 H 0.4559 -0.0527 0.2159
H16 H 0.5862 -0.0719 0.2005
H17 H 0.5418 0.0016 0.1870
C24 C 0.7648(10) 0.0408(6) 0.2915(6)
H18 H 0.7619 0.0737 0.2609
H19 H 0.8061 0.0007 0.2761
H20 H 0.8152 0.0679 0.3381
C25 C 0.6323(13) -0.0459(6) 0.3354(6)
H21 H 0.6839 -0.0207 0.3823
H22 H 0.6738 -0.0847 0.3174
H23 H 0.5442 -0.0673 0.3350
C26 C 0.3856(14) 0.1232(8) 0.4536(7)
C27 C 0.3714(15) 0.1945(8) 0.4910(7)
H24 H 0.2948 0.2086 0.4645
H25 H 0.4495 0.2316 0.4979
H26 H 0.3606 0.1907 0.5354
C28 C 0.5105(19) 0.1220(10) 0.5179(9)
H27 H 0.4800 0.0936 0.5471
H28 H 0.5509 0.1722 0.5447
H29 H 0.5748 0.0996 0.5000
C29 C 0.3126(19) 0.0560(10) 0.4474(9)
H30 H 0.2900 0.0270 0.4001
H31 H 0.2326 0.0621 0.4597
H32 H 0.3630 0.0307 0.4780
N2 N -0.1476(7) 0.4919(5) 0.3193(4)
C30 C -0.2090(9) 0.5134(6) 0.2651(6)
C31 C -0.2510(8) 0.4651(6) 0.1978(6)
C32 C -0.2856(8) 0.4881(7) 0.1353(6)
C33 C -0.3317(8) 0.4380(8) 0.0738(6)
H33 H -0.3591 0.4537 0.0330
C34 C -0.3387(9) 0.3636(7) 0.0706(6)
C35 C -0.2933(8) 0.3387(5) 0.1278(6)
H34 H -0.2927 0.2884 0.1242
C36 C -0.2484(8) 0.3892(7) 0.1909(6)
C37 C -0.2003(8) 0.3664(6) 0.2525(5)
C38 C -0.1983(8) 0.2942(7) 0.2525(6)
H35 H -0.2290 0.2584 0.2102
C39 C -0.1530(9) 0.2716(6) 0.3125(7)
H36 H -0.1552 0.2214 0.3109
C40 C -0.1054(9) 0.3235(7) 0.3736(6)
H37 H -0.0746 0.3088 0.4147
C41 C -0.1018(8) 0.3956(6) 0.3762(5)
H38 H -0.0689 0.4310 0.4188
C42 C -0.1479(8) 0.4179(6) 0.3142(6)
O4 O -0.2641(5) 0.5609(4) 0.1412(3)
C43 C -0.3037(9) 0.5885(6) 0.0827(5)
H39 H -0.2553 0.5727 0.0506
H40 H -0.2860 0.6420 0.0965
H41 H -0.3973 0.5699 0.0607
O5 O -0.3931(6) 0.3198(4) 0.0059(4)
C44 C -0.3892(9) 0.2438(6) -0.0039(5)
H42 H -0.2983 0.2383 0.0083
H43 H -0.4324 0.2184 -0.0519
H44 H -0.4343 0.2227 0.0251
B2 B -0.0619(11) 0.5541(7) 0.3847(6)
F3 F 0.0605(5) 0.5353(3) 0.4061(2)
F4 F -0.1222(5) 0.5571(3) 0.4358(2)
O6 O -0.0389(6) 0.6223(4) 0.3671(3)
C45 C -0.2352(10) 0.5880(6) 0.2794(6)
C46 C -0.1460(10) 0.6423(7) 0.3309(5)
C47 C -0.1585(11) 0.7145(6) 0.3436(5)
C48 C -0.2777(13) 0.7270(6) 0.3073(6)
H45 H -0.2919 0.7756 0.3156
C49 C -0.3782(10) 0.6715(7) 0.2591(5)
C50 C -0.3550(9) 0.6027(6) 0.2453(5)
H46 H -0.4197 0.5644 0.2125
C51 C -0.0534(11) 0.7755(5) 0.3950(6)
C52 C 0.0730(9) 0.7768(5) 0.3752(5)
H47 H 0.0964 0.7288 0.3724
H48 H 0.1430 0.8140 0.4097
H49 H 0.0609 0.7885 0.3307
C53 C -0.0318(10) 0.7636(5) 0.4679(5)
H50 H -0.1143 0.7601 0.4794
H51 H 0.0328 0.8048 0.5008
H52 H 0.0000 0.7182 0.4697
C54 C -0.0869(10) 0.8512(6) 0.3980(6)
H53 H -0.1022 0.8609 0.3526
H54 H -0.0144 0.8884 0.4306
H55 H -0.1657 0.8526 0.4127
C55 C -0.5084(10) 0.6930(6) 0.2253(6)
C56 C -0.5708(11) 0.7246(6) 0.2803(5)
H56 H -0.5843 0.6889 0.3070
H57 H -0.6548 0.7352 0.2583
H58 H -0.5129 0.7697 0.3107
C57 C -0.4804(9) 0.7489(6) 0.1849(5)
H59 H -0.4367 0.7289 0.1518
H60 H -0.4240 0.7939 0.2164
H61 H -0.5626 0.7599 0.1607
C58 C -0.6050(10) 0.6256(6) 0.1746(6)
H62 H -0.6324 0.5910 0.1997
H63 H -0.5626 0.6020 0.1424
H64 H -0.6815 0.6410 0.1494
N3 N 0.0280(6) 0.3634(5) 0.0889(3)
C59 C 0.0339(8) 0.3016(6) 0.1093(5)
C60 C 0.0867(8) 0.3052(6) 0.1807(5)
C61 C 0.1240(8) 0.2453(6) 0.2052(6)
C62 C 0.1646(8) 0.2491(5) 0.2734(6)
H65 H 0.1848 0.2074 0.2889
C63 C 0.1761(8) 0.3156(7) 0.3208(5)
C64 C 0.1536(8) 0.3757(6) 0.2992(5)
H66 H 0.1673 0.4209 0.3316
C65 C 0.1105(8) 0.3720(6) 0.2298(6)
C66 C 0.0867(7) 0.4361(6) 0.2060(6)
C67 C 0.1017(8) 0.5066(6) 0.2506(5)
H67 H 0.1270 0.5119 0.2986
C68 C 0.0805(8) 0.5660(6) 0.2259(6)
H68 H 0.0931 0.6123 0.2567
C69 C 0.0414(8) 0.5595(5) 0.1573(6)
H69 H 0.0251 0.6010 0.1406
C70 C 0.0253(8) 0.4934(6) 0.1119(5)
H70 H -0.0030 0.4897 0.0642
C71 C 0.0502(8) 0.4311(6) 0.1356(6)
O7 O 0.1279(5) 0.1844(4) 0.1600(3)
C72 C 0.1354(9) 0.1188(5) 0.1822(5)
H71 H 0.2210 0.1243 0.2149
H72 H 0.1232 0.0780 0.1427
H73 H 0.0670 0.1091 0.2041
O8 O 0.2125(6) 0.3110(3) 0.3875(3)
C73 C 0.2398(9) 0.3781(5) 0.4396(4)
H74 H 0.3153 0.4114 0.4370
H75 H 0.2589 0.3675 0.4847
H76 H 0.1639 0.4011 0.4325
B3 B 0.0067(11) 0.3600(7) 0.0083(6)
F5 F -0.1231(5) 0.3632(3) -0.0201(2)
F6 F 0.0891(5) 0.4179(3) 0.0019(2)
O9 O 0.0395(5) 0.2938(4) -0.0228(3)
C74 C -0.0236(8) 0.2340(5) 0.0554(5)
C75 C -0.0145(8) 0.2312(6) -0.0104(6)
C76 C -0.0590(9) 0.1660(6) -0.0631(5)
C77 C -0.1195(9) 0.1092(5) -0.0453(5)
H77 H -0.1490 0.0642 -0.0792
C78 C -0.1436(8) 0.1089(5) 0.0167(5)
C79 C -0.0941(8) 0.1734(6) 0.0675(5)
H78 H -0.1084 0.1764 0.1109
C80 C -0.0434(9) 0.1635(5) -0.1339(5)
C81 C 0.0993(9) 0.1883(5) -0.1295(5)
H79 H 0.1315 0.2386 -0.1012
H80 H 0.1073 0.1865 -0.1755
H81 H 0.1507 0.1560 -0.1090
C82 C -0.1252(10) 0.2119(6) -0.1684(5)
H82 H -0.2168 0.1955 -0.1713
H83 H -0.1166 0.2084 -0.2145
H84 H -0.0945 0.2627 -0.1416
C83 C -0.0857(10) 0.0852(5) -0.1789(5)
H85 H -0.0405 0.0528 -0.1549
H86 H -0.0635 0.0839 -0.2218
H87 H -0.1801 0.0689 -0.1889
C84 C -0.2281(9) 0.0427(5) 0.0253(5)
C85 C -0.3634(9) 0.0299(5) -0.0261(5)
H88 H -0.4199 -0.0127 -0.0217
H89 H -0.3554 0.0213 -0.0726
H90 H -0.4014 0.0731 -0.0168
C86 C -0.1696(9) -0.0256(5) 0.0110(5)
H91 H -0.0814 -0.0167 0.0422
H92 H -0.1658 -0.0362 -0.0363
H93 H -0.2243 -0.0673 0.0179
C87 C -0.2416(9) 0.0523(5) 0.0974(5)
H94 H -0.1556 0.0589 0.1301
H95 H -0.2991 0.0089 0.0997
H96 H -0.2789 0.0954 0.1087
loop_
_geom_bond_atom_site_label_1
_geom_bond_atom_site_label_2
_geom_bond_site_symmetry_1
_geom_bond_site_symmetry_2
N1 C1 1_555 1_555
C1 C2 1_555 1_555
C2 C3 1_555 1_555
C3 C4 1_555 1_555
C4 H1 1_555 1_555
C5 C4 1_555 1_555
C6 C5 1_555 1_555
H2 C6 1_555 1_555
C7 C2 1_555 1_555
C8 C7 1_555 1_555
C9 C8 1_555 1_555
H3 C9 1_555 1_555
C10 C9 1_555 1_555
H4 C10 1_555 1_555
C11 C10 1_555 1_555
H5 C11 1_555 1_555
C12 C11 1_555 1_555
H6 C12 1_555 1_555
C13 N1 1_555 1_555
O1 C3 1_555 1_555
C14 O1 1_555 1_555
H7 C14 1_555 1_555
H8 C14 1_555 1_555
H9 C14 1_555 1_555
O2 C5 1_555 1_555
C15 O2 1_555 1_555
H10 C15 1_555 1_555
H11 C15 1_555 1_555
H12 C15 1_555 1_555
B1 N1 1_555 1_555
F1 B1 1_555 1_555
F2 B1 1_555 1_555
O3 B1 1_555 1_555
C16 C1 1_555 1_555
C17 O3 1_555 1_555
C18 C17 1_555 1_555
C19 C18 1_555 1_555
H13 C19 1_555 1_555
C20 C19 1_555 1_555
C21 C16 1_555 1_555
H14 C21 1_555 1_555
C22 C18 1_555 1_555
C23 C22 1_555 1_555
H15 C23 1_555 1_555
H16 C23 1_555 1_555
H17 C23 1_555 1_555
C24 C22 1_555 1_555
H18 C24 1_555 1_555
H19 C24 1_555 1_555
H20 C24 1_555 1_555
C25 C22 1_555 1_555
H21 C25 1_555 1_555
H22 C25 1_555 1_555
H23 C25 1_555 1_555
C26 C20 1_555 1_555
C27 C26 1_555 1_555
H24 C27 1_555 1_555
H25 C27 1_555 1_555
H26 C27 1_555 1_555
C28 C26 1_555 1_555
H27 C28 1_555 1_555
H28 C28 1_555 1_555
H29 C28 1_555 1_555
C29 C26 1_555 1_555
H30 C29 1_555 1_555
H31 C29 1_555 1_555
H32 C29 1_555 1_555
N2 C30 1_555 1_555
C30 C31 1_555 1_555
C31 C32 1_555 1_555
C32 C33 1_555 1_555
C33 H33 1_555 1_555
C34 C33 1_555 1_555
C35 C34 1_555 1_555
H34 C35 1_555 1_555
C36 C31 1_555 1_555
C37 C36 1_555 1_555
C38 C37 1_555 1_555
H35 C38 1_555 1_555
C39 C38 1_555 1_555
H36 C39 1_555 1_555
C40 C39 1_555 1_555
H37 C40 1_555 1_555
C41 C40 1_555 1_555
H38 C41 1_555 1_555
C42 N2 1_555 1_555
O4 C32 1_555 1_555
C43 O4 1_555 1_555
H39 C43 1_555 1_555
H40 C43 1_555 1_555
H41 C43 1_555 1_555
O5 C34 1_555 1_555
C44 O5 1_555 1_555
H42 C44 1_555 1_555
H43 C44 1_555 1_555
H44 C44 1_555 1_555
B2 N2 1_555 1_555
F3 B2 1_555 1_555
F4 B2 1_555 1_555
O6 B2 1_555 1_555
C45 C30 1_555 1_555
C46 O6 1_555 1_555
C47 C46 1_555 1_555
C48 C47 1_555 1_555
H45 C48 1_555 1_555
C49 C48 1_555 1_555
C50 C45 1_555 1_555
H46 C50 1_555 1_555
C51 C47 1_555 1_555
C52 C51 1_555 1_555
H47 C52 1_555 1_555
H48 C52 1_555 1_555
H49 C52 1_555 1_555
C53 C51 1_555 1_555
H50 C53 1_555 1_555
H51 C53 1_555 1_555
H52 C53 1_555 1_555
C54 C51 1_555 1_555
H53 C54 1_555 1_555
H54 C54 1_555 1_555
H55 C54 1_555 1_555
C55 C49 1_555 1_555
C56 C55 1_555 1_555
H56 C56 1_555 1_555
H57 C56 1_555 1_555
H58 C56 1_555 1_555
C57 C55 1_555 1_555
H59 C57 1_555 1_555
H60 C57 1_555 1_555
H61 C57 1_555 1_555
C58 C55 1_555 1_555
H62 C58 1_555 1_555
H63 C58 1_555 1_555
H64 C58 1_555 1_555
N3 C59 1_555 1_555
C59 C60 1_555 1_555
C60 C61 1_555 1_555
C61 C62 1_555 1_555
C62 H65 1_555 1_555
C63 C62 1_555 1_555
C64 C63 1_555 1_555
H66 C64 1_555 1_555
C65 C60 1_555 1_555
C66 C65 1_555 1_555
C67 C66 1_555 1_555
H67 C67 1_555 1_555
C68 C67 1_555 1_555
H68 C68 1_555 1_555
C69 C68 1_555 1_555
H69 C69 1_555 1_555
C70 C69 1_555 1_555
H70 C70 1_555 1_555
C71 N3 1_555 1_555
O7 C61 1_555 1_555
C72 O7 1_555 1_555
H71 C72 1_555 1_555
H72 C72 1_555 1_555
H73 C72 1_555 1_555
O8 C63 1_555 1_555
C73 O8 1_555 1_555
H74 C73 1_555 1_555
H75 C73 1_555 1_555
H76 C73 1_555 1_555
B3 N3 1_555 1_555
F5 B3 1_555 1_555
F6 B3 1_555 1_555
O9 B3 1_555 1_555
C74 C59 1_555 1_555
C75 O9 1_555 1_555
C76 C75 1_555 1_555
C77 C76 1_555 1_555
H77 C77 1_555 1_555
C78 C77 1_555 1_555
C79 C74 1_555 1_555
H78 C79 1_555 1_555
C80 C76 1_555 1_555
C81 C80 1_555 1_555
H79 C81 1_555 1_555
H80 C81 1_555 1_555
H81 C81 1_555 1_555
C82 C80 1_555 1_555
H82 C82 1_555 1_555
H83 C82 1_555 1_555
H84 C82 1_555 1_555
C83 C80 1_555 1_555
H85 C83 1_555 1_555
H86 C83 1_555 1_555
H87 C83 1_555 1_555
C84 C78 1_555 1_555
C85 C84 1_555 1_555
H88 C85 1_555 1_555
H89 C85 1_555 1_555
H90 C85 1_555 1_555
C86 C84 1_555 1_555
H91 C86 1_555 1_555
H92 C86 1_555 1_555
H93 C86 1_555 1_555
C87 C84 1_555 1_555
H94 C87 1_555 1_555
H95 C87 1_555 1_555
H96 C87 1_555 1_555
C6 C7 1_555 1_555
C8 C13 1_555 1_555
C12 C13 1_555 1_555
C16 C17 1_555 1_555
C20 C21 1_555 1_555
C35 C36 1_555 1_555
C37 C42 1_555 1_555
C41 C42 1_555 1_555
C45 C46 1_555 1_555
C49 C50 1_555 1_555
C64 C65 1_555 1_555
C66 C71 1_555 1_555
C70 C71 1_555 1_555
C74 C75 1_555 1_555
C78 C79 1_555 1_555

#END
