
#######################################################################
#
#                 Cambridge Crystallographic Data Centre
#                                CCDC 
#
#######################################################################
#
# If this CIF has been generated from an entry in the Cambridge 
# Structural Database, then it will include bibliographic, chemical, 
# crystal, experimental, refinement or atomic coordinate data resulting 
# from the CCDC's data processing and validation procedures.
#
#######################################################################

data_OBUGIE
_chemical_formula_moiety         'C44 H48 N2 O2 S2'
_chemical_name_systematic        
2,4-di-t-butyl-6-(10-(3,5-di-t-butyl-2-hydroxyphenyl)thieno[2,3-c]thieno[3',2':4,5]pyrido[2,3-g]quinolin-4-yl)phenol
_symmetry_cell_setting           triclinic
_symmetry_space_group_name_H-M   'P -1'
_symmetry_Int_Tables_number      2
_space_group_name_Hall           '-P 1'
loop_
_symmetry_equiv_pos_site_id
_symmetry_equiv_pos_as_xyz
1 x,y,z
2 -x,-y,-z
_cell_length_a                   5.9342(6)
_cell_length_b                   10.2943(10)
_cell_length_c                   15.8302(16)
_cell_angle_alpha                103.037(3)
_cell_angle_beta                 98.186(3)
_cell_angle_gamma                94.313(3)
_cell_volume                     926.723
_exptl_crystal_colour            orange
_exptl_crystal_description       needle
_cell_formula_units_Z            1
loop_
_atom_site_label
_atom_site_type_symbol
_atom_site_fract_x
_atom_site_fract_y
_atom_site_fract_z
N1 N -0.9105(5) 0.5189(2) 0.39646(17)
C1 C -0.7091(5) 0.5077(3) 0.4487(2)
C2 C -0.5548(5) 0.6224(3) 0.4835(2)
H1 H -0.5924 0.7057 0.4723
C3 C -0.3469(5) 0.6169(3) 0.5344(2)
C4 C -0.1761(6) 0.7295(3) 0.5698(2)
C5 C -0.1814(6) 0.8619(3) 0.5584(2)
H2 H -0.3089 0.8912 0.5272
C6 C 0.0136(6) 0.9421(3) 0.5965(2)
H3 H 0.0377 1.0339 0.5954
S1 S 0.21349(16) 0.86062(8) 0.64749(6)
C7 C 0.0296(5) 0.7127(3) 0.6191(2)
C8 C 0.0668(5) 0.5850(3) 0.63952(19)
C9 C 0.2649(5) 0.5602(3) 0.7001(2)
C10 C 0.3077(6) 0.4283(3) 0.7066(2)
C11 C 0.4928(6) 0.4078(3) 0.7664(2)
C12 C 0.6316(6) 0.5205(3) 0.8180(2)
H4 H 0.7595 0.5071 0.8573
C13 C 0.5956(6) 0.6513(3) 0.8160(2)
C14 C 0.4111(6) 0.6677(3) 0.7571(2)
H5 H 0.3814 0.7565 0.7550
O1 O 0.1682(4) 0.3198(2) 0.65530(16)
H6 H 0.051(8) 0.358(5) 0.620(3)
C15 C 0.5384(6) 0.2663(3) 0.7764(2)
C16 C 0.7448(7) 0.2714(4) 0.8480(3)
H7 H 0.7670 0.1802 0.8537
H8 H 0.7169 0.3256 0.9041
H9 H 0.8824 0.3118 0.8319
C17 C 0.3302(6) 0.1994(3) 0.8052(2)
H10 H 0.3647 0.1123 0.8160
H11 H 0.1968 0.1862 0.7587
H12 H 0.2969 0.2572 0.8592
C18 C 0.5867(6) 0.1795(3) 0.6903(2)
H13 H 0.6120 0.0895 0.6979
H14 H 0.7236 0.2203 0.6740
H15 H 0.4554 0.1730 0.6437
C19 C 0.7426(6) 0.7739(3) 0.8785(2)
C20 C 0.9445(8) 0.7350(5) 0.9347(4)
H16 H 1.0394 0.6835 0.8966
H17 H 1.0364 0.8163 0.9718
H18 H 0.8876 0.6802 0.9721
C21 C 0.5953(8) 0.8538(5) 0.9377(3)
H19 H 0.4653 0.8789 0.9016
H20 H 0.5385 0.7990 0.9751
H21 H 0.6873 0.9351 0.9748
C22 C 0.8409(9) 0.8650(4) 0.8252(3)
H22 H 0.9365 0.8153 0.7865
H23 H 0.7150 0.8948 0.7896
H24 H 0.9339 0.9433 0.8653
N1A N -0.0895(5) 0.4811(2) 0.60354(17)
C1A C -0.2909(5) 0.4923(3) 0.5513(2)
C2A C -0.4452(5) 0.3776(3) 0.5165(2)
H1A H -0.4076 0.2943 0.5277
C3A C -0.6531(5) 0.3831(3) 0.4656(2)
C4A C -0.8239(6) 0.2705(3) 0.4302(2)
C5A C -0.8186(6) 0.1381(3) 0.4416(2)
H2A H -0.6911 0.1088 0.4728
C6A C -1.0136(6) 0.0579(3) 0.4035(2)
H3A H -1.0377 -0.0339 0.4046
S1A S -1.21349(16) 0.13938(8) 0.35251(6)
C7A C -1.0296(5) 0.2873(3) 0.3809(2)
C8A C -1.0668(5) 0.4150(3) 0.36048(19)
C9A C -1.2649(5) 0.4398(3) 0.2999(2)
C10A C -1.3077(6) 0.5717(3) 0.2934(2)
C11A C -1.4928(6) 0.5922(3) 0.2336(2)
C12A C -1.6316(6) 0.4795(3) 0.1820(2)
H4A H -1.7595 0.4929 0.1427
C13A C -1.5956(6) 0.3487(3) 0.1840(2)
C14A C -1.4111(6) 0.3323(3) 0.2429(2)
H5A H -1.3814 0.2435 0.2450
O1A O -1.1682(4) 0.6802(2) 0.34470(16)
H6A H -1.051(8) 0.642(5) 0.380(3)
C15A C -1.5384(6) 0.7337(3) 0.2236(2)
C16A C -1.7448(7) 0.7286(4) 0.1520(3)
H7A H -1.7670 0.8198 0.1463
H8A H -1.7169 0.6744 0.0959
H9A H -1.8824 0.6882 0.1681
C17A C -1.3302(6) 0.8006(3) 0.1948(2)
H10A H -1.3647 0.8877 0.1840
H11A H -1.1968 0.8138 0.2413
H12A H -1.2969 0.7428 0.1408
C18A C -1.5867(6) 0.8205(3) 0.3097(2)
H13A H -1.6120 0.9105 0.3021
H14A H -1.7236 0.7797 0.3260
H15A H -1.4554 0.8270 0.3563
C19A C -1.7426(6) 0.2261(3) 0.1215(2)
C20A C -1.9445(8) 0.2650(5) 0.0653(4)
H16A H -2.0394 0.3165 0.1034
H17A H -2.0364 0.1837 0.0282
H18A H -1.8876 0.3198 0.0279
C21A C -1.5953(8) 0.1462(5) 0.0623(3)
H19A H -1.4653 0.1211 0.0984
H20A H -1.5385 0.2010 0.0249
H21A H -1.6873 0.0649 0.0252
C22A C -1.8409(9) 0.1350(4) 0.1748(3)
H22A H -1.9365 0.1847 0.2135
H23A H -1.7150 0.1052 0.2104
H24A H -1.9339 0.0567 0.1347
C23? C 0.687(7) 0.908(3) 0.861(3)
H25? H 0.7181 0.9118 0.8023
H26? H 0.5252 0.9170 0.8637
H27? H 0.7826 0.9804 0.9052
C24? C 0.996(3) 0.759(4) 0.877(3)
H28? H 1.0296 0.6721 0.8882
H29? H 1.0319 0.7636 0.8189
H30? H 1.0894 0.8313 0.9221
C25? C 0.695(8) 0.767(5) 0.9694(17)
H31? H 0.7311 0.6800 0.9805
H32? H 0.7904 0.8393 1.0138
H33? H 0.5330 0.7758 0.9723
loop_
_geom_bond_atom_site_label_1
_geom_bond_atom_site_label_2
_geom_bond_site_symmetry_1
_geom_bond_site_symmetry_2
N1 C1 1_555 1_555
C1 C2 1_555 1_555
C2 H1 1_555 1_555
C3 C2 1_555 1_555
C4 C3 1_555 1_555
C5 C4 1_555 1_555
H2 C5 1_555 1_555
C6 C5 1_555 1_555
H3 C6 1_555 1_555
S1 C6 1_555 1_555
C7 C4 1_555 1_555
C8 C7 1_555 1_555
C9 C8 1_555 1_555
C10 C9 1_555 1_555
C11 C10 1_555 1_555
C12 C11 1_555 1_555
H4 C12 1_555 1_555
C13 C12 1_555 1_555
C14 C9 1_555 1_555
H5 C14 1_555 1_555
O1 C10 1_555 1_555
H6 O1 1_555 1_555
C15 C11 1_555 1_555
C16 C15 1_555 1_555
H7 C16 1_555 1_555
H8 C16 1_555 1_555
H9 C16 1_555 1_555
C17 C15 1_555 1_555
H10 C17 1_555 1_555
H11 C17 1_555 1_555
H12 C17 1_555 1_555
C18 C15 1_555 1_555
H13 C18 1_555 1_555
H14 C18 1_555 1_555
H15 C18 1_555 1_555
C19 C13 1_555 1_555
C20 C19 1_555 1_555
H16 C20 1_555 1_555
H17 C20 1_555 1_555
H18 C20 1_555 1_555
C21 C19 1_555 1_555
H19 C21 1_555 1_555
H20 C21 1_555 1_555
H21 C21 1_555 1_555
C22 C19 1_555 1_555
H22 C22 1_555 1_555
H23 C22 1_555 1_555
H24 C22 1_555 1_555
N1A C8 1_555 1_555
C1A C3 1_555 1_555
C2A C1A 1_555 1_555
H1A C2A 1_555 1_555
C3A C1 1_555 1_555
C4A C3A 1_555 1_555
C5A C4A 1_555 1_555
H2A C5A 1_555 1_555
C6A C5A 1_555 1_555
H3A C6A 1_555 1_555
S1A C6A 1_555 1_555
C7A C4A 1_555 1_555
C8A N1 1_555 1_555
C9A C8A 1_555 1_555
C10A C9A 1_555 1_555
C11A C10A 1_555 1_555
C12A C11A 1_555 1_555
H4A C12A 1_555 1_555
C13A C12A 1_555 1_555
C14A C9A 1_555 1_555
H5A C14A 1_555 1_555
O1A C10A 1_555 1_555
H6A O1A 1_555 1_555
C15A C11A 1_555 1_555
C16A C15A 1_555 1_555
H7A C16A 1_555 1_555
H8A C16A 1_555 1_555
H9A C16A 1_555 1_555
C17A C15A 1_555 1_555
H10A C17A 1_555 1_555
H11A C17A 1_555 1_555
H12A C17A 1_555 1_555
C18A C15A 1_555 1_555
H13A C18A 1_555 1_555
H14A C18A 1_555 1_555
H15A C18A 1_555 1_555
C19A C13A 1_555 1_555
C20A C19A 1_555 1_555
H16A C20A 1_555 1_555
H17A C20A 1_555 1_555
H18A C20A 1_555 1_555
C21A C19A 1_555 1_555
H19A C21A 1_555 1_555
H20A C21A 1_555 1_555
H21A C21A 1_555 1_555
C22A C19A 1_555 1_555
H22A C22A 1_555 1_555
H23A C22A 1_555 1_555
H24A C22A 1_555 1_555
S1 C7 1_555 1_555
C13 C14 1_555 1_555
N1A C1A 1_555 1_555
C2A C3A 1_555 1_555
S1A C7A 1_555 1_555
C7A C8A 1_555 1_555
C13A C14A 1_555 1_555

#END
