
#######################################################################
#
#                 Cambridge Crystallographic Data Centre
#                                CCDC 
#
#######################################################################
#
# If this CIF has been generated from an entry in the Cambridge 
# Structural Database, then it will include bibliographic, chemical, 
# crystal, experimental, refinement or atomic coordinate data resulting 
# from the CCDC's data processing and validation procedures.
#
#######################################################################

data_OBUGAV
_chemical_name_common            1-Benzoyl-3-(naphthalen-1-yl)thiourea
_chemical_formula_moiety         'C18 H14 N2 O1 S1'
_chemical_name_systematic        N-(1-Naphthylcarbamothioyl)benzamide
_symmetry_cell_setting           monoclinic
_symmetry_space_group_name_H-M   'P 21/n'
_symmetry_Int_Tables_number      14
_space_group_name_Hall           '-P 2yn'
loop_
_symmetry_equiv_pos_site_id
_symmetry_equiv_pos_as_xyz
1 x,y,z
2 1/2-x,1/2+y,1/2-z
3 -x,-y,-z
4 1/2+x,1/2-y,1/2+z
_cell_length_a                   9.7368(14)
_cell_length_b                   5.2256(10)
_cell_length_c                   28.619(4)
_cell_angle_alpha                90
_cell_angle_beta                 92.126(12)
_cell_angle_gamma                90
_cell_volume                     1455.15
_exptl_crystal_colour            colorless
_exptl_crystal_description       rod
_cell_formula_units_Z            4
loop_
_atom_site_label
_atom_site_type_symbol
_atom_site_fract_x
_atom_site_fract_y
_atom_site_fract_z
S1 S 0.63172(7) 0.32704(17) 0.54848(3)
O1 O 0.28206(18) 0.5576(4) 0.63936(6)
N1 N 0.4117(2) 0.5657(4) 0.57512(7)
H1 H 0.423(3) 0.632(5) 0.5480(7)
N2 N 0.4889(2) 0.2542(4) 0.62654(7)
H2 H 0.421(2) 0.315(5) 0.6413(9)
C1 C 0.2515(3) 1.0084(5) 0.54374(9)
H3 H 0.3367 0.9825 0.5293
C2 C 0.1632(3) 1.1966(5) 0.52738(10)
H4 H 0.1872 1.2993 0.5016
C3 C 0.0399(3) 1.2359(6) 0.54847(11)
H5 H -0.0216 1.3642 0.5369
C4 C 0.0059(3) 1.0899(6) 0.58617(10)
H6 H -0.0784 1.1195 0.6010
C5 C 0.0929(3) 0.9015(5) 0.60260(10)
H7 H 0.0685 0.8010 0.6287
C6 C 0.2167(2) 0.8566(5) 0.58122(8)
C7 C 0.3049(2) 0.6496(5) 0.60124(8)
C8 C 0.5082(2) 0.3745(5) 0.58638(9)
C9 C 0.5611(2) 0.0543(5) 0.64982(9)
C10 C 0.6612(2) -0.0889(5) 0.62991(9)
H8 H 0.6876 -0.0526 0.5990
C11 C 0.7248(3) -0.2889(6) 0.65515(10)
H9 H 0.7964 -0.3833 0.6415
C12 C 0.6859(3) -0.3498(5) 0.69861(10)
H10 H 0.7289 -0.4890 0.7147
C13 C 0.5827(2) -0.2094(5) 0.72029(9)
C14 C 0.5195(2) -0.0002(5) 0.69628(8)
C15 C 0.4192(2) 0.1399(5) 0.71991(9)
H11 H 0.3758 0.2818 0.7048
C16 C 0.3832(3) 0.0759(5) 0.76395(9)
H12 H 0.3159 0.1740 0.7791
C17 C 0.4444(3) -0.1323(5) 0.78703(9)
H13 H 0.4181 -0.1770 0.8176
C18 C 0.5413(3) -0.2703(5) 0.76558(9)
H14 H 0.5826 -0.4119 0.7815
loop_
_geom_bond_atom_site_label_1
_geom_bond_atom_site_label_2
_geom_bond_site_symmetry_1
_geom_bond_site_symmetry_2
S1 C8 1_555 1_555
O1 C7 1_555 1_555
N1 H1 1_555 1_555
N2 H2 1_555 1_555
C1 H3 1_555 1_555
C2 C1 1_555 1_555
H4 C2 1_555 1_555
C3 C2 1_555 1_555
H5 C3 1_555 1_555
C4 C3 1_555 1_555
H6 C4 1_555 1_555
C5 C4 1_555 1_555
H7 C5 1_555 1_555
C6 C1 1_555 1_555
C7 N1 1_555 1_555
C8 N1 1_555 1_555
C9 N2 1_555 1_555
C10 C9 1_555 1_555
H8 C10 1_555 1_555
C11 C10 1_555 1_555
H9 C11 1_555 1_555
C12 C11 1_555 1_555
H10 C12 1_555 1_555
C13 C12 1_555 1_555
C14 C9 1_555 1_555
C15 C14 1_555 1_555
H11 C15 1_555 1_555
C16 C15 1_555 1_555
H12 C16 1_555 1_555
C17 C16 1_555 1_555
H13 C17 1_555 1_555
C18 C13 1_555 1_555
H14 C18 1_555 1_555
N2 C8 1_555 1_555
C5 C6 1_555 1_555
C6 C7 1_555 1_555
C13 C14 1_555 1_555
C17 C18 1_555 1_555

#END
