
#######################################################################
#
#                 Cambridge Crystallographic Data Centre
#                                CCDC 
#
#######################################################################
#
# If this CIF has been generated from an entry in the Cambridge 
# Structural Database, then it will include bibliographic, chemical, 
# crystal, experimental, refinement or atomic coordinate data resulting 
# from the CCDC's data processing and validation procedures.
#
#######################################################################

data_OBUHOK01
_chemical_formula_moiety         'C12 H14 N2'
_chemical_name_systematic        4-Benzyl-3,5-dimethyl-1H-pyrazole
_symmetry_cell_setting           monoclinic
_symmetry_space_group_name_H-M   'P 21'
_symmetry_Int_Tables_number      4
_space_group_name_Hall           'P 2yb'
loop_
_symmetry_equiv_pos_site_id
_symmetry_equiv_pos_as_xyz
1 x,y,z
2 -x,1/2+y,-z
_cell_length_a                   6.1737(10)
_cell_length_b                   5.5392(9)
_cell_length_c                   15.195(2)
_cell_angle_alpha                90
_cell_angle_beta                 97.286(10)
_cell_angle_gamma                90
_cell_volume                     515.433
_exptl_crystal_colour            colorless
_exptl_crystal_description       rod
_cell_formula_units_Z            2
loop_
_atom_site_label
_atom_site_type_symbol
_atom_site_fract_x
_atom_site_fract_y
_atom_site_fract_z
N1 N 0.6279(3) 0.4241(4) 0.44366(10)
H1 H 0.6078 0.3297 0.4885
N2 N 0.4925(3) 0.6102(4) 0.41507(11)
C1 C 0.5794(4) 0.7039(4) 0.34607(13)
C2 C 0.7701(3) 0.5791(4) 0.33092(12)
C3 C 0.7968(3) 0.4002(4) 0.39539(12)
C4 C 0.4739(4) 0.9137(5) 0.29591(14)
H2 H 0.3915 0.8567 0.2404
H3 H 0.5865 1.0278 0.2825
H4 H 0.3745 0.9943 0.3319
C5 C 0.9694(4) 0.2137(5) 0.41555(14)
H5 H 0.9635 0.1494 0.4753
H6 H 1.1130 0.2865 0.4125
H7 H 0.9454 0.0825 0.3722
C6 C 0.9171(4) 0.6232(5) 0.26070(13)
H8 H 1.0707 0.6227 0.2889
H9 H 0.8855 0.7853 0.2347
C7 C 0.8910(4) 0.4376(5) 0.18702(12)
C8 C 0.6920(4) 0.4079(5) 0.13389(13)
H10 H 0.5718 0.5077 0.1432
C9 C 0.6669(4) 0.2343(5) 0.06739(15)
H11 H 0.5301 0.2158 0.0316
C10 C 0.8419(5) 0.0876(5) 0.05312(15)
H12 H 0.8251 -0.0314 0.0077
C11 C 1.0401(4) 0.1159(5) 0.10530(15)
H13 H 1.1600 0.0160 0.0958
C12 C 1.0650(4) 0.2898(5) 0.17162(14)
H14 H 1.2023 0.3083 0.2070
loop_
_geom_bond_atom_site_label_1
_geom_bond_atom_site_label_2
_geom_bond_site_symmetry_1
_geom_bond_site_symmetry_2
N1 H1 1_555 1_555
N2 N1 1_555 1_555
C1 N2 1_555 1_555
C2 C1 1_555 1_555
C3 N1 1_555 1_555
C4 C1 1_555 1_555
H2 C4 1_555 1_555
H3 C4 1_555 1_555
H4 C4 1_555 1_555
C5 C3 1_555 1_555
H5 C5 1_555 1_555
H6 C5 1_555 1_555
H7 C5 1_555 1_555
C6 C2 1_555 1_555
H8 C6 1_555 1_555
H9 C6 1_555 1_555
C7 C6 1_555 1_555
C8 C7 1_555 1_555
H10 C8 1_555 1_555
C9 C8 1_555 1_555
H11 C9 1_555 1_555
C10 C9 1_555 1_555
H12 C10 1_555 1_555
C11 C10 1_555 1_555
H13 C11 1_555 1_555
C12 C7 1_555 1_555
H14 C12 1_555 1_555
C2 C3 1_555 1_555
C11 C12 1_555 1_555

#END
