
#######################################################################
#
#                 Cambridge Crystallographic Data Centre
#                                CCDC 
#
#######################################################################
#
# If this CIF has been generated from an entry in the Cambridge 
# Structural Database, then it will include bibliographic, chemical, 
# crystal, experimental, refinement or atomic coordinate data resulting 
# from the CCDC's data processing and validation procedures.
#
#######################################################################

data_OBUHOK
_chemical_formula_moiety         'C12 H14 N2'
_chemical_name_systematic        4-Benzyl-3,5-dimethyl-1H-pyrazole
_symmetry_cell_setting           monoclinic
_symmetry_space_group_name_H-M   'P 21'
_symmetry_Int_Tables_number      4
_space_group_name_Hall           'P 2yb'
loop_
_symmetry_equiv_pos_site_id
_symmetry_equiv_pos_as_xyz
1 x,y,z
2 -x,1/2+y,-z
_cell_length_a                   6.2303(6)
_cell_length_b                   5.5941(5)
_cell_length_c                   15.1364(15)
_cell_angle_alpha                90
_cell_angle_beta                 97.0490(10)
_cell_angle_gamma                90
_cell_volume                     523.56
_exptl_crystal_colour            colorless
_exptl_crystal_description       block
_cell_formula_units_Z            2
loop_
_atom_site_label
_atom_site_type_symbol
_atom_site_fract_x
_atom_site_fract_y
_atom_site_fract_z
N1 N 0.4939(4) 0.1998(6) 0.91543(15)
N2 N 0.6284(4) 0.3826(6) 0.94362(13)
H1 H 0.6092 0.4729 0.9880
C1 C 0.9603(5) 0.5915(7) 0.91602(19)
H2 H 0.9315 0.7234 0.8758
H3 H 1.0990 0.5241 0.9091
H4 H 0.9604 0.6464 0.9761
C2 C 0.7922(4) 0.4085(6) 0.89629(17)
C3 C 0.7654(4) 0.2339(6) 0.83141(16)
C4 C 0.5795(5) 0.1098(6) 0.84614(18)
C5 C 0.4757(5) -0.0964(8) 0.7964(2)
H5 H 0.3904 -0.1838 0.8341
H6 H 0.5851 -0.1993 0.7779
H7 H 0.3842 -0.0398 0.7450
C6 C 0.9109(5) 0.1927(8) 0.76133(18)
H8 H 0.8811 0.0356 0.7356
H9 H 1.0597 0.1934 0.7891
C7 C 0.8863(5) 0.3750(7) 0.68827(18)
C8 C 0.6936(6) 0.4084(9) 0.6353(2)
H10 H 0.5753 0.3144 0.6446
C9 C 0.6716(7) 0.5754(9) 0.5699(2)
H11 H 0.5393 0.5939 0.5348
C10 C 0.8423(9) 0.7162(9) 0.5551(2)
H12 H 0.8268 0.8309 0.5104
C11 C 1.0345(8) 0.6876(9) 0.6063(3)
H13 H 1.1517 0.7829 0.5967
C12 C 1.0566(6) 0.5183(8) 0.6721(2)
H14 H 1.1897 0.4998 0.7067
loop_
_geom_bond_atom_site_label_1
_geom_bond_atom_site_label_2
_geom_bond_site_symmetry_1
_geom_bond_site_symmetry_2
N1 N2 1_555 1_555
N2 H1 1_555 1_555
C1 H2 1_555 1_555
H3 C1 1_555 1_555
H4 C1 1_555 1_555
C2 N2 1_555 1_555
C3 C2 1_555 1_555
C4 N1 1_555 1_555
C5 C4 1_555 1_555
H5 C5 1_555 1_555
H6 C5 1_555 1_555
H7 C5 1_555 1_555
C6 C3 1_555 1_555
H8 C6 1_555 1_555
H9 C6 1_555 1_555
C7 C6 1_555 1_555
C8 C7 1_555 1_555
H10 C8 1_555 1_555
C9 C8 1_555 1_555
H11 C9 1_555 1_555
C10 C9 1_555 1_555
H12 C10 1_555 1_555
C11 C10 1_555 1_555
H13 C11 1_555 1_555
C12 C7 1_555 1_555
H14 C12 1_555 1_555
C1 C2 1_555 1_555
C3 C4 1_555 1_555
C11 C12 1_555 1_555

#END
