
#######################################################################
#
#                 Cambridge Crystallographic Data Centre
#                                CCDC 
#
#######################################################################
#
# If this CIF has been generated from an entry in the Cambridge 
# Structural Database, then it will include bibliographic, chemical, 
# crystal, experimental, refinement or atomic coordinate data resulting 
# from the CCDC's data processing and validation procedures.
#
#######################################################################

data_OBUHAV01
_chemical_formula_moiety         'C26 H20 N2 O2'
_chemical_name_systematic        
4,4'-((2,5-Dimethoxy-1,4-phenylene)diethene-2,1-diyl)dibenzonitrile
_symmetry_cell_setting           monoclinic
_symmetry_space_group_name_H-M   'P 21/c'
_symmetry_Int_Tables_number      14
_space_group_name_Hall           '-P 2ybc'
loop_
_symmetry_equiv_pos_site_id
_symmetry_equiv_pos_as_xyz
1 x,y,z
2 -x,1/2+y,1/2-z
3 -x,-y,-z
4 x,1/2-y,1/2+z
_cell_length_a                   8.5110(15)
_cell_length_b                   14.954(3)
_cell_length_c                   8.4748(15)
_cell_angle_alpha                90
_cell_angle_beta                 104.292(12)
_cell_angle_gamma                90
_cell_volume                     1045.23
_exptl_crystal_colour            yellow
_exptl_crystal_description       block
_cell_formula_units_Z            2
loop_
_atom_site_label
_atom_site_type_symbol
_atom_site_fract_x
_atom_site_fract_y
_atom_site_fract_z
O1 O 0.99013(18) 0.82116(9) 0.07603(17)
N1 N 1.5308(3) 1.14234(14) -0.9770(2)
C1 C 1.4729(2) 1.12059(15) -0.8748(3)
C2 C 1.4002(2) 1.09403(14) -0.7459(2)
C3 C 1.3589(2) 1.00597(14) -0.7299(2)
H1 H 1.3782 0.9622 -0.8041
C4 C 1.2896(2) 0.98186(13) -0.6057(2)
H2 H 1.2609 0.9211 -0.5959
C5 C 1.2605(2) 1.04386(13) -0.4942(2)
C6 C 1.3041(2) 1.13243(14) -0.5123(2)
H3 H 1.2864 1.1762 -0.4373
C7 C 1.3721(3) 1.15751(14) -0.6366(2)
H4 H 1.3999 1.2183 -0.6477
C8 C 1.1872(2) 1.01396(13) -0.3643(2)
H5 H 1.1616 0.9521 -0.3641
C9 C 1.1520(2) 1.06261(13) -0.2469(2)
H6 H 1.1783 1.1244 -0.2447
C10 C 1.0767(2) 1.03010(13) -0.1206(2)
C11 C 1.0706(2) 0.93971(12) -0.0833(2)
H7 H 1.1194 0.8974 -0.1401
C12 C 0.9961(2) 0.90977(12) 0.0335(2)
C13 C 1.0723(3) 0.75807(15) 0.0018(3)
H8 H 1.0591 0.6983 0.0440
H9 H 1.1878 0.7732 0.0262
H10 H 1.0270 0.7589 -0.1163
O1B O 1.00987(18) 1.17884(9) -0.07603(17)
N1B N 0.4692(3) 0.85766(14) 0.9770(2)
C1B C 0.5271(2) 0.87941(15) 0.8748(3)
C2B C 0.5998(2) 0.90597(14) 0.7459(2)
C3B C 0.6411(2) 0.99403(14) 0.7299(2)
H1B H 0.6218 1.0378 0.8041
C4B C 0.7104(2) 1.01814(13) 0.6057(2)
H2B H 0.7391 1.0789 0.5959
C5B C 0.7395(2) 0.95614(13) 0.4942(2)
C6B C 0.6959(2) 0.86757(14) 0.5123(2)
H3B H 0.7136 0.8238 0.4373
C7B C 0.6279(3) 0.84249(14) 0.6366(2)
H4B H 0.6001 0.7817 0.6477
C8B C 0.8128(2) 0.98604(13) 0.3643(2)
H5B H 0.8384 1.0479 0.3641
C9B C 0.8480(2) 0.93739(13) 0.2469(2)
H6B H 0.8217 0.8756 0.2447
C10B C 0.9233(2) 0.96990(13) 0.1206(2)
C11B C 0.9294(2) 1.06029(12) 0.0833(2)
H7B H 0.8806 1.1026 0.1401
C12B C 1.0039(2) 1.09023(12) -0.0335(2)
C13B C 0.9277(3) 1.24193(15) -0.0018(3)
H8B H 0.9409 1.3017 -0.0440
H9B H 0.8122 1.2268 -0.0262
H10B H 0.9730 1.2411 0.1163
loop_
_geom_bond_atom_site_label_1
_geom_bond_atom_site_label_2
_geom_bond_site_symmetry_1
_geom_bond_site_symmetry_2
O1 C12 1_555 1_555
N1 C1 1_555 1_555
C1 C2 1_555 1_555
C2 C3 1_555 1_555
C3 H1 1_555 1_555
C4 C3 1_555 1_555
H2 C4 1_555 1_555
C5 C4 1_555 1_555
C6 C5 1_555 1_555
H3 C6 1_555 1_555
C7 C2 1_555 1_555
H4 C7 1_555 1_555
C8 C5 1_555 1_555
H5 C8 1_555 1_555
C9 C8 1_555 1_555
H6 C9 1_555 1_555
C10 C9 1_555 1_555
C11 C10 1_555 1_555
H7 C11 1_555 1_555
C12 C11 1_555 1_555
C13 O1 1_555 1_555
H8 C13 1_555 1_555
H9 C13 1_555 1_555
H10 C13 1_555 1_555
O1B C12B 1_555 1_555
N1B C1B 1_555 1_555
C1B C2B 1_555 1_555
C2B C3B 1_555 1_555
C3B H1B 1_555 1_555
C4B C3B 1_555 1_555
H2B C4B 1_555 1_555
C5B C4B 1_555 1_555
C6B C5B 1_555 1_555
H3B C6B 1_555 1_555
C7B C2B 1_555 1_555
H4B C7B 1_555 1_555
C8B C5B 1_555 1_555
H5B C8B 1_555 1_555
C9B C8B 1_555 1_555
H6B C9B 1_555 1_555
C10B C12 1_555 1_555
C11B C10B 1_555 1_555
H7B C11B 1_555 1_555
C12B C10 1_555 1_555
C13B O1B 1_555 1_555
H8B C13B 1_555 1_555
H9B C13B 1_555 1_555
H10B C13B 1_555 1_555
C6 C7 1_555 1_555
C6B C7B 1_555 1_555
C9B C10B 1_555 1_555
C11B C12B 1_555 1_555

#END
