
#######################################################################
#
#                 Cambridge Crystallographic Data Centre
#                                CCDC 
#
#######################################################################
#
# If this CIF has been generated from an entry in the Cambridge 
# Structural Database, then it will include bibliographic, chemical, 
# crystal, experimental, refinement or atomic coordinate data resulting 
# from the CCDC's data processing and validation procedures.
#
#######################################################################

data_OBUJAY
_chemical_formula_moiety         'C15 H14 N4 O5'
_chemical_name_systematic        
(E)-1-(2,4-Dinitrophenyl)-2-(1-(2-methoxyphenyl)ethylidene)hydrazine
_chemical_properties_biological  
'Found to be inactive when tested for antibacterial activity'
_symmetry_cell_setting           monoclinic
_symmetry_space_group_name_H-M   'C 2/c'
_symmetry_Int_Tables_number      15
_space_group_name_Hall           '-C 2yn'
loop_
_symmetry_equiv_pos_site_id
_symmetry_equiv_pos_as_xyz
1 x,y,z
2 -x,y,1/2-z
3 1/2+x,1/2+y,z
4 1/2-x,1/2+y,1/2-z
5 -x,-y,-z
6 x,-y,1/2+z
7 1/2-x,1/2-y,-z
8 1/2+x,1/2-y,1/2+z
_cell_length_a                   33.105(5)
_cell_length_b                   7.1288(10)
_cell_length_c                   13.4964(19)
_cell_angle_alpha                90
_cell_angle_beta                 107.170(2)
_cell_angle_gamma                90
_cell_volume                     3043.18
_exptl_crystal_colour            orange
_exptl_crystal_description       block
_chemical_melting_point          '462-463 K'
_cell_formula_units_Z            8
_exptl_crystal_recrystallization_method ethanol
loop_
_atom_site_label
_atom_site_type_symbol
_atom_site_fract_x
_atom_site_fract_y
_atom_site_fract_z
O1 O 0.07338(3) 0.25310(17) 0.98816(8)
O2 O 0.10350(4) 0.20839(19) 1.15077(8)
O3 O 0.24539(4) -0.0059(3) 1.28175(9)
O4 O 0.28280(4) -0.0482(2) 1.17821(10)
O5 O 0.03857(3) 0.18362(17) 0.48812(7)
N1 N 0.11540(4) 0.21520(17) 0.85348(8)
H1 H 0.0924(6) 0.258(2) 0.8644(13)
N2 N 0.12306(4) 0.22293(16) 0.75869(8)
N3 N 0.10449(4) 0.20867(17) 1.06074(8)
N4 N 0.24971(4) -0.0049(2) 1.19497(10)
C1 C 0.14719(4) 0.16224(18) 0.93741(9)
C2 C 0.14337(4) 0.15613(19) 1.03938(9)
C3 C 0.17682(4) 0.10245(19) 1.12370(9)
H2 H 0.1738 0.1001 1.1900
C4 C 0.21432(4) 0.0530(2) 1.10768(10)
C5 C 0.21945(4) 0.0566(2) 1.00856(10)
H3 H 0.2451 0.0222 0.9991
C6 C 0.18673(4) 0.1105(2) 0.92606(10)
H4 H 0.1905 0.1134 0.8605
C7 C 0.09330(4) 0.28669(19) 0.68182(9)
C8 C 0.10499(4) 0.29961(18) 0.58364(9)
C9 C 0.07723(4) 0.24861(19) 0.48709(9)
C10 C 0.09020(5) 0.2587(2) 0.39813(10)
H5 H 0.0718 0.2241 0.3343
C11 C 0.13047(5) 0.3199(2) 0.40454(11)
H6 H 0.1390 0.3269 0.3449
C12 C 0.15792(5) 0.3706(2) 0.49859(12)
H7 H 0.1850 0.4119 0.5026
C13 C 0.14525(4) 0.3602(2) 0.58725(11)
H8 H 0.1641 0.3945 0.6506
C14 C 0.05141(5) 0.3552(3) 0.68823(11)
H9 H 0.0558 0.4461 0.7429
H10 H 0.0355 0.2515 0.7024
H11 H 0.0361 0.4121 0.6235
C15 C 0.00827(5) 0.1403(3) 0.39214(12)
H12 H -0.0176 0.1009 0.4043
H13 H 0.0189 0.0410 0.3586
H14 H 0.0031 0.2495 0.3486
loop_
_geom_bond_atom_site_label_1
_geom_bond_atom_site_label_2
_geom_bond_site_symmetry_1
_geom_bond_site_symmetry_2
O1 N3 1_555 1_555
O2 N3 1_555 1_555
O3 N4 1_555 1_555
O4 N4 1_555 1_555
O5 C9 1_555 1_555
N1 H1 1_555 1_555
N2 N1 1_555 1_555
N3 C2 1_555 1_555
N4 C4 1_555 1_555
C1 N1 1_555 1_555
C2 C1 1_555 1_555
C3 C2 1_555 1_555
H2 C3 1_555 1_555
C4 C3 1_555 1_555
C5 C4 1_555 1_555
H3 C5 1_555 1_555
C6 C1 1_555 1_555
H4 C6 1_555 1_555
C7 N2 1_555 1_555
C8 C7 1_555 1_555
C9 C8 1_555 1_555
C10 C9 1_555 1_555
H5 C10 1_555 1_555
C11 C10 1_555 1_555
H6 C11 1_555 1_555
C12 C11 1_555 1_555
H7 C12 1_555 1_555
C13 C8 1_555 1_555
H8 C13 1_555 1_555
C14 C7 1_555 1_555
H9 C14 1_555 1_555
H10 C14 1_555 1_555
H11 C14 1_555 1_555
C15 O5 1_555 1_555
H12 C15 1_555 1_555
H13 C15 1_555 1_555
H14 C15 1_555 1_555
C5 C6 1_555 1_555
C12 C13 1_555 1_555

#END
