
#######################################################################
#
#                 Cambridge Crystallographic Data Centre
#                                CCDC 
#
#######################################################################
#
# If this CIF has been generated from an entry in the Cambridge 
# Structural Database, then it will include bibliographic, chemical, 
# crystal, experimental, refinement or atomic coordinate data resulting 
# from the CCDC's data processing and validation procedures.
#
#######################################################################

data_OBUNOR
_chemical_formula_moiety         'C27 H19 Cl1 N4 O3,C4 H8 O2'
_chemical_name_systematic        
"5'-amino-1''-benzyl-7-chloro-1-methyl-2,2''-dioxo-1,1'',2,2''-tetrahydrodispiro[indole-3,2'-furan-3',3''-indole]-4'-carbonitrile ethyl acetate solvate"
_symmetry_cell_setting           triclinic
_symmetry_space_group_name_H-M   'P -1'
_symmetry_Int_Tables_number      2
_space_group_name_Hall           '-P 1'
loop_
_symmetry_equiv_pos_site_id
_symmetry_equiv_pos_as_xyz
1 x,y,z
2 -x,-y,-z
_cell_length_a                   9.8525(10)
_cell_length_b                   11.9699(13)
_cell_length_c                   12.0037(13)
_cell_angle_alpha                83.402(2)
_cell_angle_beta                 88.727(2)
_cell_angle_gamma                75.661(2)
_cell_volume                     1362.42
_exptl_crystal_colour            colorless
_exptl_crystal_description       block
_chemical_melting_point          '169.9-171.7 deg.C'
_cell_formula_units_Z            2
loop_
_atom_site_label
_atom_site_type_symbol
_atom_site_fract_x
_atom_site_fract_y
_atom_site_fract_z
Cl1 Cl 0.29754(6) 0.53475(6) 0.97537(5)
O1 O 0.59629(13) 0.24724(12) 0.61978(12)
O2 O 0.81733(17) 0.42241(13) 0.54056(12)
O3 O 0.62875(16) 0.12566(13) 0.84406(14)
N1 N 0.92033(17) 0.42792(14) 0.70978(14)
N2 N 0.68487(17) 0.10277(14) 0.51200(15)
H1 H 0.5985 0.1112 0.4886
H2 H 0.7538 0.0503 0.4863
N3 N 0.50931(17) 0.30830(15) 0.88214(14)
N4 N 1.07904(18) 0.06549(16) 0.58457(16)
C1 C 0.96759(19) 0.11644(15) 0.60648(15)
C2 C 0.80184(18) 0.27872(15) 0.70347(14)
C3 C 0.83267(18) 0.17820(15) 0.63343(15)
C4 C 0.63827(18) 0.29833(15) 0.71315(15)
C5 C 0.54816(19) 0.41918(16) 0.71938(16)
C6 C 0.88018(18) 0.26530(15) 0.81400(15)
C7 C 0.47654(19) 0.41999(17) 0.82238(16)
C8 C 0.94438(19) 0.35753(16) 0.81356(15)
C9 C 0.71113(18) 0.16920(15) 0.58606(15)
C10 C 0.84389(19) 0.38528(16) 0.63869(16)
C11 C 0.59530(18) 0.23025(16) 0.82061(16)
C12 C 0.9019(2) 0.17970(17) 0.90424(16)
H3 H 0.8625 0.1148 0.9046
C13 C 0.5271(2) 0.51689(17) 0.64203(17)
H4 H 0.5749 0.5147 0.5724
C14 C 0.9113(2) 0.63914(16) 0.70246(16)
C15 C 0.3866(2) 0.52257(19) 0.84867(19)
C16 C 0.9799(2) 0.72900(18) 0.68522(18)
H5 H 1.0743 0.7132 0.6605
C17 C 1.0235(2) 0.37039(18) 0.90312(17)
H6 H 1.0642 0.4346 0.9021
C18 C 0.7733(2) 0.66354(18) 0.73778(17)
H7 H 0.7262 0.6029 0.7510
C19 C 0.9898(2) 0.51998(17) 0.67466(18)
H8 H 1.0041 0.5234 0.5926
H9 H 1.0834 0.4999 0.7108
C20 C 1.0409(2) 0.2852(2) 0.99488(18)
H10 H 1.0932 0.2921 1.0582
C21 C 0.9830(2) 0.1904(2) 0.99519(18)
H11 H 0.9985 0.1322 1.0576
C22 C 0.7030(3) 0.77727(19) 0.75403(19)
H12 H 0.6076 0.7938 0.7761
C23 C 0.4339(3) 0.61908(18) 0.6684(2)
H13 H 0.4171 0.6869 0.6160
C24 C 0.3662(2) 0.62161(19) 0.7706(2)
H14 H 0.3048 0.6919 0.7882
C25 C 0.7714(3) 0.86584(19) 0.7381(2)
H15 H 0.7239 0.9427 0.7504
C26 C 0.9107(3) 0.84086(19) 0.7040(2)
H16 H 0.9586 0.9010 0.6936
C27 C 0.4458(2) 0.2693(2) 0.98597(19)
H17 H 0.4799 0.1850 1.0025
H18 H 0.3437 0.2897 0.9772
H19 H 0.4713 0.3072 1.0477
O4 O 0.7087(2) 0.85085(16) 0.24950(19)
O5 O 0.5876(2) 0.93101(19) 0.3893(3)
C28 C 0.6672(2) 0.8483(2) 0.3558(3)
C29 C 0.7300(3) 0.7338(3) 0.4204(2)
H20 H 0.7032 0.7362 0.4994
H21 H 0.8323 0.7165 0.4145
H22 H 0.6958 0.6732 0.3899
C30 C 0.7456(4) 1.0390(3) 0.1739(3)
H23 H 0.7255 1.0733 0.2446
H24 H 0.7213 1.1002 0.1109
H25 H 0.8456 1.0005 0.1709
C31 C 0.6628(4) 0.9539(3) 0.1668(3)
H26 H 0.6711 0.9294 0.0905
H27 H 0.5630 0.9908 0.1796
loop_
_geom_bond_atom_site_label_1
_geom_bond_atom_site_label_2
_geom_bond_site_symmetry_1
_geom_bond_site_symmetry_2
Cl1 C15 1_555 1_555
O1 C4 1_555 1_555
O2 C10 1_555 1_555
O3 C11 1_555 1_555
N1 C8 1_555 1_555
N2 H1 1_555 1_555
H2 N2 1_555 1_555
N3 C7 1_555 1_555
N4 C1 1_555 1_555
C1 C3 1_555 1_555
C2 C3 1_555 1_555
C3 C9 1_555 1_555
C4 C2 1_555 1_555
C5 C4 1_555 1_555
C6 C2 1_555 1_555
C7 C5 1_555 1_555
C8 C6 1_555 1_555
C9 O1 1_555 1_555
C10 N1 1_555 1_555
C11 N3 1_555 1_555
C12 C6 1_555 1_555
H3 C12 1_555 1_555
C13 C5 1_555 1_555
H4 C13 1_555 1_555
C14 C16 1_555 1_555
C15 C7 1_555 1_555
C16 H5 1_555 1_555
C17 C8 1_555 1_555
H6 C17 1_555 1_555
C18 C14 1_555 1_555
H7 C18 1_555 1_555
C19 N1 1_555 1_555
H8 C19 1_555 1_555
H9 C19 1_555 1_555
C20 C17 1_555 1_555
H10 C20 1_555 1_555
C21 C12 1_555 1_555
H11 C21 1_555 1_555
C22 C18 1_555 1_555
H12 C22 1_555 1_555
C23 C13 1_555 1_555
H13 C23 1_555 1_555
C24 C15 1_555 1_555
H14 C24 1_555 1_555
C25 C22 1_555 1_555
H15 C25 1_555 1_555
C26 C16 1_555 1_555
H16 C26 1_555 1_555
C27 N3 1_555 1_555
H17 C27 1_555 1_555
H18 C27 1_555 1_555
H19 C27 1_555 1_555
O4 C28 1_555 1_555
O5 C28 1_555 1_555
C28 C29 1_555 1_555
C29 H20 1_555 1_555
H21 C29 1_555 1_555
H22 C29 1_555 1_555
C30 H23 1_555 1_555
H24 C30 1_555 1_555
H25 C30 1_555 1_555
C31 O4 1_555 1_555
H26 C31 1_555 1_555
H27 C31 1_555 1_555
N2 C9 1_555 1_555
C2 C10 1_555 1_555
C4 C11 1_555 1_555
C14 C19 1_555 1_555
C20 C21 1_555 1_555
C23 C24 1_555 1_555
C25 C26 1_555 1_555
C30 C31 1_555 1_555

#END
