
#######################################################################
#
#                 Cambridge Crystallographic Data Centre
#                                CCDC 
#
#######################################################################
#
# If this CIF has been generated from an entry in the Cambridge 
# Structural Database, then it will include bibliographic, chemical, 
# crystal, experimental, refinement or atomic coordinate data resulting 
# from the CCDC's data processing and validation procedures.
#
#######################################################################

data_OBUQAG
_chemical_formula_moiety         'C17 H17 N1 O4'
_chemical_name_systematic        
"dimethyl 3,3'-(1-methyl-1H-indole-2,4-diyl)diacrylate"
_symmetry_cell_setting           triclinic
_symmetry_space_group_name_H-M   'P -1'
_symmetry_Int_Tables_number      2
_space_group_name_Hall           '-P 1'
loop_
_symmetry_equiv_pos_site_id
_symmetry_equiv_pos_as_xyz
1 x,y,z
2 -x,-y,-z
_cell_length_a                   5.7832(6)
_cell_length_b                   10.4921(11)
_cell_length_c                   12.3215(12)
_cell_angle_alpha                90.576(3)
_cell_angle_beta                 97.913(2)
_cell_angle_gamma                93.157(3)
_cell_volume                     739.283
_exptl_crystal_colour            yellow
_exptl_crystal_description       chunk
_cell_formula_units_Z            2
loop_
_atom_site_label
_atom_site_type_symbol
_atom_site_fract_x
_atom_site_fract_y
_atom_site_fract_z
C1 C 0.4522(5) 0.3039(3) 0.3771(3)
C2 C 0.3364(6) 0.4731(3) 0.2779(3)
C3 C 0.3151(7) 0.5928(3) 0.2307(3)
H1 H 0.4310 0.6578 0.2470
C4 C 0.1155(7) 0.6109(4) 0.1590(3)
H2 H 0.0965 0.6900 0.1266
C5 C -0.0590(7) 0.5137(4) 0.1337(3)
H3 H -0.1915 0.5300 0.0851
C6 C -0.0407(6) 0.3936(3) 0.1790(3)
C7 C 0.1615(6) 0.3732(3) 0.2534(3)
C8 C 0.2385(6) 0.2691(3) 0.3179(3)
H4 H 0.1580 0.1901 0.3199
C9 C 0.7139(6) 0.5099(3) 0.4019(3)
H5 H 0.8518 0.4824 0.3754
H6 H 0.7313 0.5028 0.4802
H7 H 0.6920 0.5972 0.3824
C10 C 0.5862(6) 0.2236(3) 0.4521(3)
H8 H 0.5075 0.1473 0.4665
C11 C 0.8020(6) 0.2386(3) 0.5047(3)
H9 H 0.8916 0.3130 0.4954
C12 C 0.9017(6) 0.1399(3) 0.5772(3)
C13 C 1.2433(7) 0.0834(4) 0.6910(4)
H10 H 1.2124 0.0996 0.7643
H11 H 1.4084 0.0941 0.6885
H12 H 1.1891 -0.0023 0.6689
C14 C -0.2238(6) 0.2906(3) 0.1549(3)
H13 H -0.2055 0.2172 0.1961
C15 C -0.4110(6) 0.2915(4) 0.0811(3)
H14 H -0.4285 0.3642 0.0389
C16 C -0.5944(6) 0.1893(4) 0.0589(3)
C17 C -0.7432(7) -0.0112(4) 0.1099(4)
H15 H -0.8885 0.0231 0.1216
H16 H -0.7058 -0.0773 0.1616
H17 H -0.7574 -0.0459 0.0367
N1 N 0.5125(4) 0.4304(2) 0.3531(2)
O1 O 1.1230(4) 0.1719(2) 0.6178(2)
O2 O 0.8024(5) 0.0419(3) 0.5987(3)
O3 O -0.7605(5) 0.1927(3) -0.0111(3)
O4 O -0.5593(4) 0.0893(2) 0.1245(2)
loop_
_geom_bond_atom_site_label_1
_geom_bond_atom_site_label_2
_geom_bond_site_symmetry_1
_geom_bond_site_symmetry_2
C1 C8 1_555 1_555
C2 C3 1_555 1_555
C3 H1 1_555 1_555
C4 C3 1_555 1_555
H2 C4 1_555 1_555
C5 C4 1_555 1_555
H3 C5 1_555 1_555
C6 C5 1_555 1_555
C7 C2 1_555 1_555
C8 C7 1_555 1_555
H4 C8 1_555 1_555
C9 H5 1_555 1_555
H6 C9 1_555 1_555
H7 C9 1_555 1_555
C10 C1 1_555 1_555
H8 C10 1_555 1_555
C11 C10 1_555 1_555
H9 C11 1_555 1_555
C12 C11 1_555 1_555
C13 H10 1_555 1_555
H11 C13 1_555 1_555
H12 C13 1_555 1_555
C14 C6 1_555 1_555
H13 C14 1_555 1_555
C15 C14 1_555 1_555
H14 C15 1_555 1_555
C16 C15 1_555 1_555
C17 H15 1_555 1_555
H16 C17 1_555 1_555
H17 C17 1_555 1_555
N1 C1 1_555 1_555
O1 C12 1_555 1_555
O2 C12 1_555 1_555
O3 C16 1_555 1_555
O4 C16 1_555 1_555
C2 N1 1_555 1_555
C6 C7 1_555 1_555
C9 N1 1_555 1_555
C13 O1 1_555 1_555
C17 O4 1_555 1_555

#END
