
#######################################################################
#
#                 Cambridge Crystallographic Data Centre
#                                CCDC 
#
#######################################################################
#
# If this CIF has been generated from an entry in the Cambridge 
# Structural Database, then it will include bibliographic, chemical, 
# crystal, experimental, refinement or atomic coordinate data resulting 
# from the CCDC's data processing and validation procedures.
#
#######################################################################

data_OBUQAF
_chemical_name_common            
bis(5-((2-propyn-1-yloxy)methyl)-1,3-phenylene)-32-crown-10
_chemical_formula_moiety         'C36 H48 O12'
_chemical_name_systematic        
17,35-bis[(2-propyn-1-yloxy)methyl]-2,5,8,11,14,20,23,26,29,32-decaoxatricyclo[31.3.1.1^15,19^]octatriaconta-1(37),15,17,19(38),33,35-hexaene
_symmetry_cell_setting           triclinic
_symmetry_space_group_name_H-M   'P -1'
_symmetry_Int_Tables_number      2
_space_group_name_Hall           '-P 1'
loop_
_symmetry_equiv_pos_site_id
_symmetry_equiv_pos_as_xyz
1 x,y,z
2 -x,-y,-z
_cell_length_a                   9.2256(13)
_cell_length_b                   9.8561(14)
_cell_length_c                   10.0808(14)
_cell_angle_alpha                97.213(2)
_cell_angle_beta                 98.658(2)
_cell_angle_gamma                99.226(2)
_cell_volume                     883.876
_exptl_crystal_colour            colorless
_exptl_crystal_description       block
_cell_formula_units_Z            1
_exptl_crystal_recrystallization_method acetone
loop_
_atom_site_label
_atom_site_type_symbol
_atom_site_fract_x
_atom_site_fract_y
_atom_site_fract_z
C1 C 0.19258(19) 0.18786(18) 0.55393(17)
H1 H 0.0968 0.1897 0.5717
C2 C 0.21585(18) 0.15530(18) 0.42298(16)
C3 C 0.35977(19) 0.15509(19) 0.39575(17)
H2 H 0.3744 0.1335 0.3068
C4 C 0.45832(19) 0.21882(18) 0.63403(17)
H3 H 0.5393 0.2404 0.7049
C5 C 0.31507(19) 0.21810(18) 0.65978(16)
C6 C -0.13388(19) 0.0898(2) 0.18269(18)
H4 H -0.1242 -0.0054 0.1536
H5 H -0.2380 0.0914 0.1867
C7 C -0.04096(18) 0.1423(2) 0.32005(17)
H6 H -0.0407 0.2406 0.3455
H7 H -0.0801 0.0923 0.3878
C8 C -0.1580(2) 0.1224(2) -0.04624(17)
H8 H -0.2653 0.1062 -0.0510
H9 H -0.1291 0.0348 -0.0762
C9 C 0.4014(2) 0.2810(2) 0.89901(17)
H10 H 0.4619 0.3688 0.8916
H11 H 0.4639 0.2107 0.8987
C10 C 0.3400(2) 0.2938(2) 1.02859(17)
H12 H 0.2712 0.2091 1.0311
H13 H 0.4206 0.3065 1.1054
C11 C 0.2334(2) 0.4423(2) 1.17067(16)
H14 H 0.3250 0.4829 1.2333
H15 H 0.1886 0.3588 1.2018
C12 C 0.1296(2) 0.5426(2) 1.16786(17)
H16 H 0.0356 0.4998 1.1098
H17 H 0.1102 0.5687 1.2587
C13 C 0.1140(2) 0.7742(2) 1.13577(19)
H18 H 0.1367 0.8184 1.2299
H19 H 0.0076 0.7388 1.1128
C14 C 0.47982(19) 0.18667(18) 0.49997(17)
C15 C 0.63517(19) 0.1857(2) 0.46986(19)
H20 H 0.6738 0.1108 0.5088
H21 H 0.6298 0.1666 0.3723
C16 C 0.6984(3) 0.4263(2) 0.4602(2)
H22 H 0.7603 0.5112 0.5111
H23 H 0.5954 0.4319 0.4656
C17 C 0.7341(2) 0.4114(2) 0.2047(2)
H24 H 0.7476 0.4066 0.1147
C18 C 0.7173(2) 0.4175(2) 0.3175(2)
O1 O 0.73584(14) 0.31229(15) 0.52126(12)
O2 O 0.10633(13) 0.11960(14) 0.31046(11)
O3 O 0.28037(13) 0.24304(13) 0.78669(11)
O4 O 0.26536(15) 0.40777(14) 1.03810(11)
O5 O 0.19356(13) 0.66270(14) 1.11802(12)
O6 O -0.08593(13) 0.17487(13) 0.08915(11)
C1A C -0.19258(19) 0.81214(18) 0.44607(17)
H1A H -0.0968 0.8103 0.4283
C2A C -0.21585(18) 0.84470(18) 0.57702(16)
C3A C -0.35977(19) 0.84491(19) 0.60425(17)
H2A H -0.3744 0.8665 0.6932
C4A C -0.45832(19) 0.78118(18) 0.36597(17)
H3A H -0.5393 0.7596 0.2951
C5A C -0.31507(19) 0.78190(18) 0.34022(16)
C6A C 0.13388(19) 0.9102(2) 0.81731(18)
H4A H 0.1242 1.0054 0.8464
H5A H 0.2380 0.9086 0.8133
C7A C 0.04096(18) 0.8577(2) 0.67995(17)
H6A H 0.0407 0.7594 0.6545
H7A H 0.0801 0.9077 0.6122
C8A C 0.1580(2) 0.8776(2) 1.04624(17)
H8A H 0.2653 0.8938 1.0510
H9A H 0.1291 0.9652 1.0762
C9A C -0.4014(2) 0.7190(2) 0.10099(17)
H10A H -0.4619 0.6312 0.1084
H11A H -0.4639 0.7893 0.1013
C10A C -0.3400(2) 0.7062(2) -0.02859(17)
H12A H -0.2712 0.7909 -0.0311
H13A H -0.4206 0.6935 -0.1054
C11A C -0.2334(2) 0.5577(2) -0.17067(16)
H14A H -0.3250 0.5171 -0.2333
H15A H -0.1886 0.6412 -0.2018
C12A C -0.1296(2) 0.4574(2) -0.16786(17)
H16A H -0.0356 0.5002 -0.1098
H17A H -0.1102 0.4313 -0.2587
C13A C -0.1140(2) 0.2258(2) -0.13577(19)
H18A H -0.1367 0.1816 -0.2299
H19A H -0.0076 0.2612 -0.1128
C14A C -0.47982(19) 0.81333(18) 0.50003(17)
C15A C -0.63517(19) 0.8143(2) 0.53014(19)
H20A H -0.6738 0.8892 0.4912
H21A H -0.6298 0.8334 0.6277
C16A C -0.6984(3) 0.5737(2) 0.5398(2)
H22A H -0.7603 0.4888 0.4889
H23A H -0.5954 0.5681 0.5344
C17A C -0.7341(2) 0.5886(2) 0.7953(2)
H24A H -0.7476 0.5934 0.8853
C18A C -0.7173(2) 0.5825(2) 0.6825(2)
O1A O -0.73584(14) 0.68771(15) 0.47874(12)
O2A O -0.10633(13) 0.88040(14) 0.68954(11)
O3A O -0.28037(13) 0.75696(13) 0.21331(11)
O4A O -0.26536(15) 0.59223(14) -0.03810(11)
O5A O -0.19356(13) 0.33730(14) -0.11802(12)
O6A O 0.08593(13) 0.82513(13) 0.91085(11)
loop_
_geom_bond_atom_site_label_1
_geom_bond_atom_site_label_2
_geom_bond_site_symmetry_1
_geom_bond_site_symmetry_2
C1 H1 1_555 1_555
C2 C1 1_555 1_555
C3 C2 1_555 1_555
H2 C3 1_555 1_555
C4 H3 1_555 1_555
C5 C1 1_555 1_555
C6 H4 1_555 1_555
H5 C6 1_555 1_555
C7 C6 1_555 1_555
H6 C7 1_555 1_555
H7 C7 1_555 1_555
C8 H8 1_555 1_555
H9 C8 1_555 1_555
C9 H10 1_555 1_555
H11 C9 1_555 1_555
C10 C9 1_555 1_555
H12 C10 1_555 1_555
H13 C10 1_555 1_555
C11 H14 1_555 1_555
H15 C11 1_555 1_555
C12 C11 1_555 1_555
H16 C12 1_555 1_555
H17 C12 1_555 1_555
C13 H18 1_555 1_555
H19 C13 1_555 1_555
C14 C3 1_555 1_555
C15 C14 1_555 1_555
H20 C15 1_555 1_555
H21 C15 1_555 1_555
C16 H22 1_555 1_555
H23 C16 1_555 1_555
C17 H24 1_555 1_555
C18 C16 1_555 1_555
O1 C15 1_555 1_555
O2 C2 1_555 1_555
O3 C5 1_555 1_555
O4 C10 1_555 1_555
O5 C12 1_555 1_555
O6 C6 1_555 1_555
C1A H1A 1_555 1_555
C2A C1A 1_555 1_555
C3A C2A 1_555 1_555
H2A C3A 1_555 1_555
C4A H3A 1_555 1_555
C5A C1A 1_555 1_555
C6A H4A 1_555 1_555
H5A C6A 1_555 1_555
C7A C6A 1_555 1_555
H6A C7A 1_555 1_555
H7A C7A 1_555 1_555
C8A C13 1_555 1_555
H8A C8A 1_555 1_555
H9A C8A 1_555 1_555
C9A H10A 1_555 1_555
H11A C9A 1_555 1_555
C10A C9A 1_555 1_555
H12A C10A 1_555 1_555
H13A C10A 1_555 1_555
C11A H14A 1_555 1_555
H15A C11A 1_555 1_555
C12A C11A 1_555 1_555
H16A C12A 1_555 1_555
H17A C12A 1_555 1_555
C13A C8 1_555 1_555
H18A C13A 1_555 1_555
H19A C13A 1_555 1_555
C14A C3A 1_555 1_555
C15A C14A 1_555 1_555
H20A C15A 1_555 1_555
H21A C15A 1_555 1_555
C16A H22A 1_555 1_555
H23A C16A 1_555 1_555
C17A H24A 1_555 1_555
C18A C16A 1_555 1_555
O1A C15A 1_555 1_555
O2A C2A 1_555 1_555
O3A C5A 1_555 1_555
O4A C10A 1_555 1_555
O5A C12A 1_555 1_555
O6A C6A 1_555 1_555
C4 C5 1_555 1_555
C4 C14 1_555 1_555
C7 O2 1_555 1_555
C8 O6 1_555 1_555
C9 O3 1_555 1_555
C11 O4 1_555 1_555
C13 O5 1_555 1_555
C16 O1 1_555 1_555
C17 C18 1_555 1_555
C4A C5A 1_555 1_555
C4A C14A 1_555 1_555
C7A O2A 1_555 1_555
C8A O6A 1_555 1_555
C9A O3A 1_555 1_555
C11A O4A 1_555 1_555
C13A O5A 1_555 1_555
C16A O1A 1_555 1_555
C17A C18A 1_555 1_555

#END
