
#######################################################################
#
#                 Cambridge Crystallographic Data Centre
#                                CCDC 
#
#######################################################################
#
# If this CIF has been generated from an entry in the Cambridge 
# Structural Database, then it will include bibliographic, chemical, 
# crystal, experimental, refinement or atomic coordinate data resulting 
# from the CCDC's data processing and validation procedures.
#
#######################################################################

data_OBURAG
_chemical_formula_moiety         'C18 H19 N5'
_chemical_name_systematic        
N^4^,N^6^-Dimethyl-N^4^,N^6^-diphenylpyrimidine-4,5,6-triamine
_symmetry_cell_setting           orthorhombic
_symmetry_space_group_name_H-M   'P b c a'
_symmetry_Int_Tables_number      61
_space_group_name_Hall           '-P 2ac 2ab'
loop_
_symmetry_equiv_pos_site_id
_symmetry_equiv_pos_as_xyz
1 x,y,z
2 1/2-x,-y,1/2+z
3 -x,1/2+y,1/2-z
4 1/2+x,1/2-y,-z
5 -x,-y,-z
6 1/2+x,y,1/2-z
7 x,1/2-y,1/2+z
8 1/2-x,1/2+y,z
_cell_length_a                   8.8859(18)
_cell_length_b                   14.360(3)
_cell_length_c                   25.121(5)
_cell_angle_alpha                90
_cell_angle_beta                 90
_cell_angle_gamma                90
_cell_volume                     3205.48
_exptl_crystal_colour            colorless
_exptl_crystal_description       block
_chemical_melting_point          '88.6-90.6 deg.C'
_cell_formula_units_Z            8
loop_
_atom_site_label
_atom_site_type_symbol
_atom_site_fract_x
_atom_site_fract_y
_atom_site_fract_z
C1 C -0.0279(3) 0.46280(13) 0.41196(8)
H1 H -0.0833 0.5128 0.4249
C2 C 0.0751(2) 0.32120(11) 0.42746(6)
C3 C 0.15006(19) 0.32587(11) 0.37827(6)
C4 C 0.1152(2) 0.40201(11) 0.34631(6)
C5 C 0.1622(2) 0.34917(11) 0.25472(6)
C6 C 0.0766(2) 0.26882(12) 0.26084(7)
H2 H 0.0287 0.2573 0.2931
C7 C 0.0620(2) 0.20590(13) 0.21954(8)
H3 H 0.0059 0.1519 0.2245
C8 C 0.1296(2) 0.22228(16) 0.17087(8)
H4 H 0.1205 0.1795 0.1433
C9 C 0.2099(2) 0.30237(15) 0.16412(8)
H5 H 0.2534 0.3148 0.1312
C10 C 0.2278(2) 0.36518(14) 0.20496(7)
H6 H 0.2842 0.4189 0.1994
C11 C 0.0814(2) 0.15421(10) 0.44409(6)
C12 C 0.1647(2) 0.08195(13) 0.46579(7)
H7 H 0.2369 0.0943 0.4917
C13 C 0.1404(3) -0.00819(13) 0.44895(9)
H8 H 0.1949 -0.0566 0.4642
C14 C 0.0367(3) -0.02727(13) 0.40991(9)
H9 H 0.0223 -0.0882 0.3983
C15 C -0.0447(3) 0.04322(13) 0.38829(8)
H10 H -0.1150 0.0305 0.3619
C16 C -0.0238(2) 0.13385(12) 0.40531(7)
H11 H -0.0810 0.1815 0.3905
C17 C 0.2467(3) 0.50505(12) 0.28371(9)
H12 H 0.3482 0.4977 0.2713
H13 H 0.2464 0.5430 0.3152
H14 H 0.1874 0.5345 0.2566
C18 C 0.0744(4) 0.26304(14) 0.51905(7)
H15 H 0.1106 0.3236 0.5290
H16 H 0.1257 0.2163 0.5395
H17 H -0.0318 0.2593 0.5258
N1 N 0.02716(19) 0.47211(9) 0.36360(6)
N2 N -0.01344(19) 0.39000(10) 0.44460(6)
N3 N 0.18291(19) 0.41347(9) 0.29607(6)
N4 N 0.25718(18) 0.26103(9) 0.36391(6)
H18 H 0.3049 0.2669 0.3343
H19 H 0.2762 0.2147 0.3845
N5 N 0.1029(2) 0.24762(9) 0.46223(5)
loop_
_geom_bond_atom_site_label_1
_geom_bond_atom_site_label_2
_geom_bond_site_symmetry_1
_geom_bond_site_symmetry_2
C1 H1 1_555 1_555
C2 C3 1_555 1_555
C3 C4 1_555 1_555
C4 N1 1_555 1_555
C5 C6 1_555 1_555
C6 H2 1_555 1_555
C7 C6 1_555 1_555
H3 C7 1_555 1_555
C8 C7 1_555 1_555
H4 C8 1_555 1_555
C9 C8 1_555 1_555
H5 C9 1_555 1_555
C10 C5 1_555 1_555
H6 C10 1_555 1_555
C11 C12 1_555 1_555
C12 H7 1_555 1_555
C13 C12 1_555 1_555
H8 C13 1_555 1_555
C14 C13 1_555 1_555
H9 C14 1_555 1_555
C15 C14 1_555 1_555
H10 C15 1_555 1_555
C16 C11 1_555 1_555
H11 C16 1_555 1_555
C17 H12 1_555 1_555
H13 C17 1_555 1_555
H14 C17 1_555 1_555
C18 H15 1_555 1_555
H16 C18 1_555 1_555
H17 C18 1_555 1_555
N1 C1 1_555 1_555
N2 C1 1_555 1_555
N3 C4 1_555 1_555
N4 C3 1_555 1_555
H18 N4 1_555 1_555
H19 N4 1_555 1_555
N5 C2 1_555 1_555
C2 N2 1_555 1_555
C5 N3 1_555 1_555
C9 C10 1_555 1_555
C11 N5 1_555 1_555
C15 C16 1_555 1_555
C17 N3 1_555 1_555
C18 N5 1_555 1_555

#END
