
#######################################################################
#
#                 Cambridge Crystallographic Data Centre
#                                CCDC 
#
#######################################################################
#
# If this CIF has been generated from an entry in the Cambridge 
# Structural Database, then it will include bibliographic, chemical, 
# crystal, experimental, refinement or atomic coordinate data resulting 
# from the CCDC's data processing and validation procedures.
#
#######################################################################

data_OBUTIQ
_chemical_formula_moiety         'C8 H8 Br2 O2'
_chemical_name_systematic        2,6-Dibromo-4-(2-hydroxyethyl)phenol
_symmetry_cell_setting           triclinic
_symmetry_space_group_name_H-M   'P -1'
_symmetry_Int_Tables_number      2
_space_group_name_Hall           '-P 1'
loop_
_symmetry_equiv_pos_site_id
_symmetry_equiv_pos_as_xyz
1 x,y,z
2 -x,-y,-z
_cell_length_a                   8.5740(17)
_cell_length_b                   9.845(2)
_cell_length_c                   11.392(2)
_cell_angle_alpha                86.08(3)
_cell_angle_beta                 75.79(3)
_cell_angle_gamma                87.39(3)
_cell_volume                     929.596
_exptl_crystal_colour            colorless
_exptl_crystal_description       block
_cell_formula_units_Z            4
_exptl_crystal_recrystallization_method acetone
loop_
_atom_site_label
_atom_site_type_symbol
_atom_site_fract_x
_atom_site_fract_y
_atom_site_fract_z
Br1 Br 0.68665(14) 0.22580(14) 1.16796(12)
Br2 Br 0.15646(15) 0.59523(13) 1.18207(12)
O1 O 0.4403(9) 0.4472(8) 1.2658(7)
O2 O 0.4818(9) 0.3052(8) 0.6910(7)
C1 C 0.4707(12) 0.2251(11) 1.0171(9)
C2 C 0.5035(11) 0.2892(9) 1.1125(9)
C3 C 0.4101(13) 0.3990(10) 1.1676(9)
C4 C 0.2875(12) 0.4483(10) 1.1133(9)
C5 C 0.2490(12) 0.3861(10) 1.0200(9)
C6 C 0.3404(13) 0.2735(11) 0.9689(10)
C7 C 0.2967(12) 0.1977(12) 0.8703(9)
C8 C 0.4333(12) 0.1821(9) 0.7602(9)
H1 H 0.53400 0.15080 0.98510
H2 H 0.46340 0.52760 1.25190
H3 H 0.41630 0.32850 0.65120
H4 H 0.16160 0.41900 0.99050
H5 H 0.26060 0.10790 0.90340
H6 H 0.20760 0.24600 0.84580
H7 H 0.52520 0.14080 0.78600
H8 H 0.40200 0.11990 0.70820
Br3 Br 1.12544(15) -0.02904(13) 0.15184(12)
Br4 Br 0.64211(13) -0.12778(11) 0.58132(10)
O3 O 0.8985(8) -0.1939(6) 0.3477(6)
O4 O 0.7207(8) 0.5766(7) 0.4611(6)
C9 C 0.9903(11) 0.1713(10) 0.3173(9)
C10 C 0.9906(11) 0.0338(10) 0.2919(9)
C11 C 0.8926(11) -0.0623(9) 0.3728(9)
C12 C 0.7878(10) -0.0124(9) 0.4787(9)
C13 C 0.7884(11) 0.1234(10) 0.5006(10)
C14 C 0.8884(11) 0.2154(10) 0.4232(10)
C15 C 0.8832(12) 0.3638(11) 0.4564(10)
C16 C 0.7456(13) 0.4450(10) 0.4198(11)
H9 H 0.96250 -0.21940 0.28290
H10 H 0.80520 0.62110 0.43080
H11 H 1.05730 0.23190 0.26410
H12 H 0.71880 0.15470 0.57020
H13 H 0.87040 0.36660 0.54320
H14 H 0.98440 0.40530 0.41600
H15 H 0.64730 0.39530 0.45080
H16 H 0.76670 0.45120 0.33200
loop_
_geom_bond_atom_site_label_1
_geom_bond_atom_site_label_2
_geom_bond_site_symmetry_1
_geom_bond_site_symmetry_2
Br1 C2 1_555 1_555
Br2 C4 1_555 1_555
O1 C3 1_555 1_555
O2 C8 1_555 1_555
C1 C2 1_555 1_555
C2 C3 1_555 1_555
C3 C4 1_555 1_555
C4 C5 1_555 1_555
C5 C6 1_555 1_555
C6 C1 1_555 1_555
C7 C6 1_555 1_555
C8 C7 1_555 1_555
Br3 C10 1_555 1_555
Br4 C12 1_555 1_555
O3 C11 1_555 1_555
O4 C16 1_555 1_555
C9 C10 1_555 1_555
C10 C11 1_555 1_555
C11 C12 1_555 1_555
C12 C13 1_555 1_555
C13 C14 1_555 1_555
C14 C9 1_555 1_555
C15 C14 1_555 1_555
C16 C15 1_555 1_555
H1 C1 1_555 1_555
H2 O1 1_555 1_555
H3 O2 1_555 1_555
H4 C5 1_555 1_555
H5 C7 1_555 1_555
H6 C7 1_555 1_555
H7 C8 1_555 1_555
H8 C8 1_555 1_555
H9 O3 1_555 1_555
H10 O4 1_555 1_555
H11 C9 1_555 1_555
H12 C13 1_555 1_555
H13 C15 1_555 1_555
H14 C15 1_555 1_555
H15 C16 1_555 1_555
H16 C16 1_555 1_555

#END
