
#######################################################################
#
#                 Cambridge Crystallographic Data Centre
#                                CCDC 
#
#######################################################################
#
# If this CIF has been generated from an entry in the Cambridge 
# Structural Database, then it will include bibliographic, chemical, 
# crystal, experimental, refinement or atomic coordinate data resulting 
# from the CCDC's data processing and validation procedures.
#
#######################################################################

data_OBUYER
_chemical_formula_moiety         'C7 H7 O3 S1 1-,C6 H7 Cl1 N1 1+'
_chemical_name_systematic        '4-Chloroanilinium 4-methylbenzenesulfonate'
_symmetry_cell_setting           triclinic
_symmetry_space_group_name_H-M   'P -1'
_symmetry_Int_Tables_number      2
_space_group_name_Hall           '-P 1'
loop_
_symmetry_equiv_pos_site_id
_symmetry_equiv_pos_as_xyz
1 x,y,z
2 -x,-y,-z
_cell_length_a                   5.7253(5)
_cell_length_b                   7.5160(6)
_cell_length_c                   15.7642(13)
_cell_angle_alpha                95.166(6)
_cell_angle_beta                 96.148(7)
_cell_angle_gamma                92.353(7)
_cell_volume                     670.833
_exptl_crystal_colour            colorless
_exptl_crystal_description       block
_chemical_melting_point          '524-532 K'
_cell_formula_units_Z            2
loop_
_atom_site_label
_atom_site_type_symbol
_atom_site_fract_x
_atom_site_fract_y
_atom_site_fract_z
S1 S 0.64768(6) 0.72752(4) 0.391167(19)
O1 O 0.56763(19) 0.89688(13) 0.42702(6)
O2 O 0.52819(19) 0.57587(13) 0.42253(6)
O3 O 0.90320(18) 0.71964(16) 0.40103(6)
C1 C 0.5595(2) 0.71390(16) 0.27970(8)
C2 C 0.7106(2) 0.7789(2) 0.22507(9)
H4 H 0.8638 0.8264 0.2470
C3 C 0.6356(3) 0.7737(2) 0.13818(9)
H5 H 0.7385 0.8182 0.1007
C4 C 0.4120(3) 0.7044(2) 0.10515(9)
C5 C 0.2646(3) 0.6388(2) 0.16103(10)
H6 H 0.1123 0.5896 0.1391
C6 C 0.3357(2) 0.6439(2) 0.24820(9)
H7 H 0.2326 0.6001 0.2858
C7 C 0.3278(4) 0.7036(3) 0.01100(10)
H8 H 0.2057 0.6079 -0.0056
H9 H 0.4601 0.6835 -0.0227
H10 H 0.2628 0.8191 0.0002
Cl1 Cl -0.20941(8) 0.85567(6) 0.86957(3)
N1 N 0.2327(2) 0.74505(16) 0.54631(7)
H1 H 0.329(3) 0.8434(17) 0.5411(11)
H2 H 0.123(2) 0.730(2) 0.4992(10)
H3 H 0.323(3) 0.6460(18) 0.5467(11)
C8 C -0.0816(3) 0.82188(18) 0.77464(9)
C9 C -0.1916(2) 0.88215(18) 0.70096(9)
H11 H -0.3353 0.9407 0.7021
C10 C -0.0887(2) 0.85572(18) 0.62520(9)
H12 H -0.1614 0.8961 0.5739
C11 C 0.1203(2) 0.77012(17) 0.62529(8)
C12 C 0.2313(2) 0.71189(17) 0.69946(8)
H13 H 0.3764 0.6553 0.6985
C13 C 0.1287(3) 0.73699(19) 0.77499(9)
H14 H 0.2014 0.6966 0.8263
loop_
_geom_bond_atom_site_label_1
_geom_bond_atom_site_label_2
_geom_bond_site_symmetry_1
_geom_bond_site_symmetry_2
S1 O1 1_555 1_555
Cl1 C8 1_555 1_555
O2 S1 1_555 1_555
O3 S1 1_555 1_555
N1 H1 1_555 1_555
H2 N1 1_555 1_555
H3 N1 1_555 1_555
C1 S1 1_555 1_555
C2 C1 1_555 1_555
H4 C2 1_555 1_555
C3 C2 1_555 1_555
H5 C3 1_555 1_555
C4 C3 1_555 1_555
C5 C4 1_555 1_555
H6 C5 1_555 1_555
C6 C1 1_555 1_555
H7 C6 1_555 1_555
C7 C4 1_555 1_555
H8 C7 1_555 1_555
H9 C7 1_555 1_555
H10 C7 1_555 1_555
C8 C9 1_555 1_555
C9 H11 1_555 1_555
C10 C9 1_555 1_555
H12 C10 1_555 1_555
C11 N1 1_555 1_555
C12 C11 1_555 1_555
H13 C12 1_555 1_555
C13 C8 1_555 1_555
H14 C13 1_555 1_555
C5 C6 1_555 1_555
C10 C11 1_555 1_555
C12 C13 1_555 1_555

#END
