
#######################################################################
#
#                 Cambridge Crystallographic Data Centre
#                                CCDC 
#
#######################################################################
#
# If this CIF has been generated from an entry in the Cambridge 
# Structural Database, then it will include bibliographic, chemical, 
# crystal, experimental, refinement or atomic coordinate data resulting 
# from the CCDC's data processing and validation procedures.
#
#######################################################################

data_OCABEB01
_chemical_formula_moiety         'C6 H18 N3 3+,3(N1 O3 1-)'
_chemical_name_systematic        '1-(2-Ammonioethyl)piperazinediium trinitrate'
_symmetry_cell_setting           monoclinic
_symmetry_space_group_name_H-M   'P 21/c'
_symmetry_Int_Tables_number      14
_space_group_name_Hall           '-P 2ybc'
loop_
_symmetry_equiv_pos_site_id
_symmetry_equiv_pos_as_xyz
1 x,y,z
2 -x,1/2+y,1/2-z
3 -x,-y,-z
4 x,1/2-y,1/2+z
_cell_length_a                   7.6990(4)
_cell_length_b                   8.8994(4)
_cell_length_c                   19.4856(9)
_cell_angle_alpha                90
_cell_angle_beta                 97.289(5)
_cell_angle_gamma                90
_cell_volume                     1324.3
_exptl_crystal_colour            colorless
_exptl_crystal_description       block
_cell_formula_units_Z            4
loop_
_atom_site_label
_atom_site_type_symbol
_atom_site_fract_x
_atom_site_fract_y
_atom_site_fract_z
O1 O 0.3751(3) 0.8728(2) 0.23553(10)
O2 O 0.2003(3) 0.6834(2) 0.23993(10)
O3 O 0.2245(3) 0.8499(2) 0.32115(11)
N1 N 0.2672(3) 0.8010(3) 0.26524(11)
N2 N 0.2611(3) 0.3817(2) 0.10861(10)
H1 H 0.3560 0.3225 0.1006
N3 N 0.0241(3) 0.1502(2) 0.14377(11)
H2 H -0.0028 0.0511 0.1508
H3 H -0.0710 0.2076 0.1513
N4 N 0.4949(3) 0.7566(2) 0.11675(11)
H4 H 0.4616 0.7766 0.0712
H5 H 0.6083 0.7851 0.1285
H6 H 0.4252 0.8082 0.1429
C1 C 0.1782(4) 0.1945(3) 0.19367(12)
H7 H 0.2789 0.1290 0.1875
H8 H 0.1505 0.1818 0.2416
C2 C 0.3017(4) 0.5413(3) 0.09347(13)
H9 H 0.2092 0.6066 0.1082
H10 H 0.2999 0.5535 0.0429
C3 C 0.4781(4) 0.5925(3) 0.12934(14)
H11 H 0.4863 0.5725 0.1796
H12 H 0.5734 0.5372 0.1107
C4 C 0.1044(4) 0.3335(3) 0.05972(12)
H13 H 0.1289 0.3471 0.0114
H14 H 0.0028 0.3974 0.0667
C5 C 0.2253(4) 0.3565(3) 0.18190(12)
H15 H 0.1279 0.4223 0.1918
H16 H 0.3305 0.3840 0.2141
C6 C 0.0603(4) 0.1710(3) 0.07130(13)
H17 H -0.0437 0.1414 0.0389
H18 H 0.1595 0.1062 0.0623
N5 N 0.5663(3) 0.1378(3) 0.05883(11)
O4 O 0.5126(4) 0.2616(2) 0.03088(10)
O5 O 0.5057(3) 0.0989(3) 0.11223(10)
O6 O 0.6677(3) 0.0590(3) 0.03198(13)
O7 O 0.8620(3) 0.8659(2) 0.16201(9)
O8 O 0.8772(3) 0.6555(2) 0.10742(10)
O9 O 1.0633(3) 0.8337(2) 0.09552(10)
N6 N 0.9351(3) 0.7843(2) 0.12150(11)
loop_
_geom_bond_atom_site_label_1
_geom_bond_atom_site_label_2
_geom_bond_site_symmetry_1
_geom_bond_site_symmetry_2
O1 N1 1_555 1_555
O2 N1 1_555 1_555
O3 N1 1_555 1_555
N2 H1 1_555 1_555
N3 H2 1_555 1_555
H3 N3 1_555 1_555
N4 H4 1_555 1_555
H5 N4 1_555 1_555
H6 N4 1_555 1_555
C1 N3 1_555 1_555
H7 C1 1_555 1_555
H8 C1 1_555 1_555
C2 N2 1_555 1_555
H9 C2 1_555 1_555
H10 C2 1_555 1_555
C3 N4 1_555 1_555
H11 C3 1_555 1_555
H12 C3 1_555 1_555
C4 N2 1_555 1_555
H13 C4 1_555 1_555
H14 C4 1_555 1_555
C5 N2 1_555 1_555
H15 C5 1_555 1_555
H16 C5 1_555 1_555
C6 N3 1_555 1_555
H17 C6 1_555 1_555
H18 C6 1_555 1_555
N5 O4 1_555 1_555
O5 N5 1_555 1_555
O6 N5 1_555 1_555
O7 N6 1_555 1_555
O8 N6 1_555 1_555
O9 N6 1_555 1_555
C1 C5 1_555 1_555
C2 C3 1_555 1_555
C4 C6 1_555 1_555

#END
