
#######################################################################
#
#                 Cambridge Crystallographic Data Centre
#                                CCDC 
#
#######################################################################
#
# If this CIF has been generated from an entry in the Cambridge 
# Structural Database, then it will include bibliographic, chemical, 
# crystal, experimental, refinement or atomic coordinate data resulting 
# from the CCDC's data processing and validation procedures.
#
#######################################################################

data_OCADON
_chemical_formula_moiety         'C22 H24 F6 N2 O3'
_chemical_name_systematic        
't-Butyl 2-((2,8-bis(trifluoromethyl)quinolin-4-yl)(hydroxy)methyl)piperidine-1-carboxylate'
_symmetry_cell_setting           orthorhombic
_symmetry_space_group_name_H-M   'P 21 21 21'
_symmetry_Int_Tables_number      19
_space_group_name_Hall           'P 2ac 2ab'
loop_
_symmetry_equiv_pos_site_id
_symmetry_equiv_pos_as_xyz
1 x,y,z
2 1/2-x,-y,1/2+z
3 -x,1/2+y,1/2-z
4 1/2+x,1/2-y,-z
_cell_length_a                   9.888(3)
_cell_length_b                   10.696(3)
_cell_length_c                   21.158(5)
_cell_angle_alpha                90
_cell_angle_beta                 90
_cell_angle_gamma                90
_cell_volume                     2237.71
_exptl_crystal_colour            colorless
_cell_formula_units_Z            4
loop_
_atom_site_label
_atom_site_type_symbol
_atom_site_fract_x
_atom_site_fract_y
_atom_site_fract_z
C1 C 0.2018(3) -0.0161(2) 0.10080(11)
F1 F 0.1438(3) -0.0585(4) 0.04787(14)
F2 F 0.0959(3) -0.0005(3) 0.14211(13)
F3 F 0.2775(3) -0.1073(2) 0.1234(2)
F4 F 0.36443(14) 0.19344(13) 0.26991(6)
F5 F 0.55029(14) 0.10401(13) 0.24085(6)
F6 F 0.55644(16) 0.27288(15) 0.29575(6)
O1 O 0.31994(19) 0.27116(16) -0.08675(7)
H1 H 0.387(3) 0.222(3) -0.0866(17)
O2 O 0.05287(17) 0.37519(15) 0.07601(7)
O3 O 0.11139(19) 0.56561(16) 0.11565(8)
N1 N 0.3449(2) 0.14152(17) 0.14112(8)
N2 N 0.1754(2) 0.51397(18) 0.01744(8)
C2 C 0.2766(2) 0.1044(2) 0.09080(11)
C3 C 0.2698(2) 0.1688(2) 0.03333(11)
H2 H 0.2194 0.1357 -0.0011
C4 C 0.3375(2) 0.2811(2) 0.02730(9)
C5 C 0.4146(2) 0.3242(2) 0.07962(10)
C6 C 0.4941(2) 0.4353(2) 0.07868(10)
H3 H 0.4952 0.4858 0.0417
C7 C 0.5686(2) 0.4702(2) 0.13000(11)
H4 H 0.6216 0.5442 0.1282
C8 C 0.5678(2) 0.3978(2) 0.18567(10)
H5 H 0.6201 0.4232 0.2211
C9 C 0.4923(2) 0.2916(2) 0.18890(9)
C10 C 0.4150(2) 0.2504(2) 0.13550(9)
C11 C 0.4905(2) 0.2163(2) 0.24812(10)
C12 C 0.3230(2) 0.3538(2) -0.03392(10)
H6 H 0.3999 0.4139 -0.0385
C13 C 0.1870(2) 0.4255(2) -0.03579(10)
H7 H 0.1130 0.3625 -0.0311
C14 C 0.2429(3) 0.6364(2) 0.01233(11)
H8 H 0.3419 0.6247 0.0165
H9 H 0.2125 0.6908 0.0474
C15 C 0.2123(3) 0.7003(2) -0.05050(12)
H10 H 0.1154 0.7233 -0.0522
H11 H 0.2663 0.7779 -0.0541
C16 C 0.2459(3) 0.6138(2) -0.10499(12)
H12 H 0.3438 0.5946 -0.1047
H13 H 0.2239 0.6553 -0.1455
C17 C 0.1649(3) 0.4927(2) -0.09901(11)
H14 H 0.1908 0.4358 -0.1339
H15 H 0.0675 0.5121 -0.1037
C18 C 0.1084(2) 0.4769(2) 0.07035(10)
C19 C 0.0610(2) 0.5418(2) 0.18031(10)
C20 C 0.1404(3) 0.4359(3) 0.20999(12)
H16 H 0.2374 0.4523 0.2055
H17 H 0.1177 0.3572 0.1887
H18 H 0.1173 0.4296 0.2549
C21 C -0.0903(3) 0.5172(3) 0.17923(13)
H19 H -0.1256 0.5193 0.2225
H20 H -0.1075 0.4348 0.1606
H21 H -0.1353 0.5816 0.1539
C22 C 0.0909(3) 0.6644(3) 0.21311(13)
H22 H 0.1879 0.6824 0.2103
H23 H 0.0643 0.6586 0.2576
H24 H 0.0398 0.7317 0.1926
C23? C 0.2018(3) -0.0161(2) 0.10080(11)
F7? F 0.1146(16) -0.050(2) 0.0558(8)
F8? F 0.1618(18) -0.0399(15) 0.1586(3)
F9? F 0.3022(11) -0.1023(11) 0.0948(8)
loop_
_geom_bond_atom_site_label_1
_geom_bond_atom_site_label_2
_geom_bond_site_symmetry_1
_geom_bond_site_symmetry_2
C1 F1 1_555 1_555
F2 C1 1_555 1_555
F3 C1 1_555 1_555
F4 C11 1_555 1_555
F5 C11 1_555 1_555
F6 C11 1_555 1_555
O1 H1 1_555 1_555
O2 C18 1_555 1_555
O3 C18 1_555 1_555
N1 C2 1_555 1_555
N2 C13 1_555 1_555
C2 C1 1_555 1_555
C3 C2 1_555 1_555
H2 C3 1_555 1_555
C4 C3 1_555 1_555
C5 C4 1_555 1_555
C6 C5 1_555 1_555
H3 C6 1_555 1_555
C7 C6 1_555 1_555
H4 C7 1_555 1_555
C8 C7 1_555 1_555
H5 C8 1_555 1_555
C9 C8 1_555 1_555
C10 N1 1_555 1_555
C11 C9 1_555 1_555
C12 O1 1_555 1_555
H6 C12 1_555 1_555
C13 C12 1_555 1_555
H7 C13 1_555 1_555
C14 N2 1_555 1_555
H8 C14 1_555 1_555
H9 C14 1_555 1_555
C15 C14 1_555 1_555
H10 C15 1_555 1_555
H11 C15 1_555 1_555
C16 C15 1_555 1_555
H12 C16 1_555 1_555
H13 C16 1_555 1_555
C17 C13 1_555 1_555
H14 C17 1_555 1_555
H15 C17 1_555 1_555
C18 N2 1_555 1_555
C19 O3 1_555 1_555
C20 C19 1_555 1_555
H16 C20 1_555 1_555
H17 C20 1_555 1_555
H18 C20 1_555 1_555
C21 C19 1_555 1_555
H19 C21 1_555 1_555
H20 C21 1_555 1_555
H21 C21 1_555 1_555
C22 C19 1_555 1_555
H22 C22 1_555 1_555
H23 C22 1_555 1_555
H24 C22 1_555 1_555
C4 C12 1_555 1_555
C5 C10 1_555 1_555
C9 C10 1_555 1_555
C16 C17 1_555 1_555

#END
