
#######################################################################
#
#                 Cambridge Crystallographic Data Centre
#                                CCDC 
#
#######################################################################
#
# If this CIF has been generated from an entry in the Cambridge 
# Structural Database, then it will include bibliographic, chemical, 
# crystal, experimental, refinement or atomic coordinate data resulting 
# from the CCDC's data processing and validation procedures.
#
#######################################################################

data_OCADIH
_chemical_formula_moiety         'C25 H22 F6 N2 O3'
_chemical_name_systematic        
'Benzyl 2-((2,8-bis(trifluoromethyl)quinolin-4-yl)(hydroxy)methyl)piperidine-1-carboxylate'
_symmetry_cell_setting           monoclinic
_symmetry_space_group_name_H-M   'P 21/n'
_symmetry_Int_Tables_number      14
_space_group_name_Hall           '-P 2yn'
loop_
_symmetry_equiv_pos_site_id
_symmetry_equiv_pos_as_xyz
1 x,y,z
2 1/2-x,1/2+y,1/2-z
3 -x,-y,-z
4 1/2+x,1/2-y,1/2+z
_cell_length_a                   12.7793(5)
_cell_length_b                   13.9970(7)
_cell_length_c                   13.2188(9)
_cell_angle_alpha                90
_cell_angle_beta                 109.999(8)
_cell_angle_gamma                90
_cell_volume                     2221.89
_exptl_crystal_colour            colorless
_exptl_crystal_description       plate
_cell_formula_units_Z            4
loop_
_atom_site_label
_atom_site_type_symbol
_atom_site_fract_x
_atom_site_fract_y
_atom_site_fract_z
F1 F 0.06301(8) 0.63866(8) 0.42728(8)
F2 F 0.08200(10) 0.59309(10) 0.27995(8)
F3 F 0.00983(8) 0.49890(9) 0.36550(11)
F4 F 0.24269(7) 0.32103(7) 0.22775(7)
F5 F 0.40411(8) 0.31616(7) 0.21097(7)
F6 F 0.32339(7) 0.45128(7) 0.20711(7)
O1 O 0.34838(8) 0.58357(7) 0.75929(8)
H1 H 0.3897(13) 0.6035(13) 0.8197(10)
O2 O 0.54803(8) 0.32514(8) 0.88013(8)
O3 O 0.53313(8) 0.33958(7) 1.04525(8)
N1 N 0.24628(9) 0.47056(9) 0.38278(9)
N2 N 0.40608(9) 0.40943(8) 0.89798(9)
C1 C 0.20188(11) 0.52274(10) 0.44060(11)
C2 C 0.24724(11) 0.53657(10) 0.55218(11)
H2 H 0.2115 0.5773 0.5879
C3 C 0.34448(11) 0.49011(10) 0.60906(11)
C4 C 0.39716(11) 0.43306(10) 0.55111(11)
C5 C 0.49874(11) 0.38293(10) 0.60028(11)
H3 H 0.5336 0.3848 0.6763
C6 C 0.54664(12) 0.33218(11) 0.53960(12)
H4 H 0.6149 0.2997 0.5737
C7 C 0.49589(12) 0.32732(10) 0.42648(12)
H5 H 0.5305 0.2920 0.3852
C8 C 0.39727(11) 0.37307(10) 0.37610(11)
C9 C 0.34484(11) 0.42711(10) 0.43713(11)
C10 C 0.08955(13) 0.56455(12) 0.37809(12)
C11 C 0.34203(12) 0.36577(11) 0.25637(12)
C12 C 0.38962(11) 0.49779(10) 0.73029(11)
H6 H 0.4728 0.5004 0.7553
C13 C 0.35295(11) 0.40908(10) 0.77995(11)
H7 H 0.3785 0.3507 0.7515
C14 C 0.33521(11) 0.43906(11) 0.95997(11)
H8 H 0.3039 0.5032 0.9361
H9 H 0.3805 0.4427 1.0374
C15 C 0.24059(12) 0.36724(12) 0.94326(12)
H10 H 0.1786 0.3981 0.9598
H11 H 0.2674 0.3127 0.9931
C16 C 0.19855(12) 0.33083(11) 0.82632(12)
H12 H 0.2337 0.2685 0.8226
H13 H 0.1169 0.3212 0.8024
C17 C 0.22634(11) 0.40230(10) 0.75142(12)
H14 H 0.1959 0.4659 0.7589
H15 H 0.1916 0.3814 0.6757
C18 C 0.49755(11) 0.35697(10) 0.94887(11)
C19 C 0.63991(11) 0.25860(11) 0.92685(12)
H16 H 0.6503 0.2196 0.8686
H17 H 0.6203 0.2148 0.9764
C20 C 0.74791(12) 0.30819(10) 0.98754(12)
C21 C 0.80837(13) 0.35436(11) 0.93193(13)
H18 H 0.7803 0.3564 0.8555
C22 C 0.90963(13) 0.39735(12) 0.98804(15)
H19 H 0.9506 0.4285 0.9498
C23 C 0.95114(13) 0.39495(12) 1.09955(15)
H20 H 1.0207 0.4240 1.1376
C24 C 0.89110(13) 0.35018(11) 1.15538(14)
H21 H 0.9191 0.3489 1.2318
C25 C 0.78982(12) 0.30711(11) 1.09960(12)
H22 H 0.7487 0.2766 1.1383
loop_
_geom_bond_atom_site_label_1
_geom_bond_atom_site_label_2
_geom_bond_site_symmetry_1
_geom_bond_site_symmetry_2
F1 C10 1_555 1_555
F2 C10 1_555 1_555
F3 C10 1_555 1_555
F4 C11 1_555 1_555
F5 C11 1_555 1_555
F6 C11 1_555 1_555
O1 H1 1_555 1_555
O2 C18 1_555 1_555
O3 C18 1_555 1_555
N1 C1 1_555 1_555
N2 C13 1_555 1_555
C1 C2 1_555 1_555
C2 H2 1_555 1_555
C3 C2 1_555 1_555
C4 C3 1_555 1_555
C5 C4 1_555 1_555
H3 C5 1_555 1_555
C6 C5 1_555 1_555
H4 C6 1_555 1_555
C7 C6 1_555 1_555
H5 C7 1_555 1_555
C8 C7 1_555 1_555
C9 N1 1_555 1_555
C10 C1 1_555 1_555
C11 C8 1_555 1_555
C12 O1 1_555 1_555
H6 C12 1_555 1_555
C13 C12 1_555 1_555
H7 C13 1_555 1_555
C14 N2 1_555 1_555
H8 C14 1_555 1_555
H9 C14 1_555 1_555
C15 C14 1_555 1_555
H10 C15 1_555 1_555
H11 C15 1_555 1_555
C16 C15 1_555 1_555
H12 C16 1_555 1_555
H13 C16 1_555 1_555
C17 C13 1_555 1_555
H14 C17 1_555 1_555
H15 C17 1_555 1_555
C18 N2 1_555 1_555
C19 O2 1_555 1_555
H16 C19 1_555 1_555
H17 C19 1_555 1_555
C20 C19 1_555 1_555
C21 C20 1_555 1_555
H18 C21 1_555 1_555
C22 C21 1_555 1_555
H19 C22 1_555 1_555
C23 C22 1_555 1_555
H20 C23 1_555 1_555
C24 C23 1_555 1_555
H21 C24 1_555 1_555
C25 C20 1_555 1_555
H22 C25 1_555 1_555
C3 C12 1_555 1_555
C4 C9 1_555 1_555
C8 C9 1_555 1_555
C16 C17 1_555 1_555
C24 C25 1_555 1_555

#END
