
#######################################################################
#
#                 Cambridge Crystallographic Data Centre
#                                CCDC 
#
#######################################################################
#
# If this CIF has been generated from an entry in the Cambridge 
# Structural Database, then it will include bibliographic, chemical, 
# crystal, experimental, refinement or atomic coordinate data resulting 
# from the CCDC's data processing and validation procedures.
#
#######################################################################

data_OCAFEE
_chemical_formula_moiety         'C22 H18 Cl1 N1 O3'
_chemical_name_systematic        
'Ethyl 3-amino-1-(4-chlorophenyl)-1H-benzo(f)chromene-2-carboxylate'
_symmetry_cell_setting           triclinic
_symmetry_space_group_name_H-M   'P -1'
_symmetry_Int_Tables_number      2
_space_group_name_Hall           '-P 1'
loop_
_symmetry_equiv_pos_site_id
_symmetry_equiv_pos_as_xyz
1 x,y,z
2 -x,-y,-z
_cell_length_a                   9.2920(10)
_cell_length_b                   9.4490(10)
_cell_length_c                   10.9730(10)
_cell_angle_alpha                94.990(10)
_cell_angle_beta                 98.14(2)
_cell_angle_gamma                102.840(10)
_cell_volume                     922.847
_exptl_crystal_colour            colorless
_exptl_crystal_description       block
_chemical_melting_point          '463-465 K'
_cell_formula_units_Z            2
_exptl_crystal_recrystallization_method DMF-water
loop_
_atom_site_label
_atom_site_type_symbol
_atom_site_fract_x
_atom_site_fract_y
_atom_site_fract_z
Cl1 Cl 0.05933(9) 0.77428(8) 0.59584(7)
O1 O 0.13354(14) 0.41314(15) -0.02708(11)
O2 O 0.30937(15) 0.20823(13) 0.32189(12)
O3 O 0.11007(15) 0.06971(14) 0.19128(13)
N1 N 0.00247(19) 0.1923(2) -0.0032(2)
C1 C 0.1345(3) 0.6822(2) 0.4855(2)
C2 C 0.0745(3) 0.6677(2) 0.3636(2)
H1 H -0.0076 0.7058 0.3391
C3 C 0.1351(2) 0.5969(2) 0.27645(18)
H2 H 0.0935 0.5883 0.1931
C4 C 0.25562(18) 0.53849(17) 0.30962(15)
C5 C 0.3122(2) 0.5532(3) 0.43321(18)
H3 H 0.3931 0.5137 0.4587
C6 C 0.2521(3) 0.6254(3) 0.52190(19)
H4 H 0.2927 0.6345 0.6055
C7 C 0.4844(2) 0.67177(18) 0.12810(17)
C8 C 0.5904(2) 0.7065(2) 0.23884(19)
H5 H 0.5785 0.6482 0.3025
C9 C 0.7099(2) 0.8244(2) 0.2538(2)
H6 H 0.7788 0.8449 0.3269
C10 C 0.7292(3) 0.9143(3) 0.1601(3)
H7 H 0.8094 0.9958 0.1719
C11 C 0.6316(3) 0.8833(2) 0.0523(3)
H8 H 0.6470 0.9430 -0.0101
C12 C 0.5068(2) 0.7623(2) 0.03219(19)
C13 C 0.4025(3) 0.7296(2) -0.0790(2)
H9 H 0.4163 0.7888 -0.1418
C14 C 0.2828(3) 0.6140(2) -0.09642(19)
H10 H 0.2156 0.5929 -0.1706
C15 C 0.2620(2) 0.52701(19) -0.00072(17)
C16 C 0.35599(19) 0.55141(17) 0.11021(15)
C17 C 0.31919(18) 0.45812(17) 0.21085(15)
H11 H 0.4120 0.4368 0.2507
C18 C 0.21104(18) 0.31441(18) 0.15654(16)
C19 C 0.11920(19) 0.30455(19) 0.04693(17)
C20 C 0.2018(2) 0.18727(19) 0.22130(18)
C21 C 0.3138(3) 0.0837(2) 0.3900(2)
H12 H 0.2125 0.0292 0.3909
H13 H 0.3615 0.1182 0.4751
C22 C 0.3974(3) -0.0142(2) 0.3328(2)
H14 H 0.3468 -0.0532 0.2502
H15 H 0.4026 -0.0929 0.3816
H16 H 0.4969 0.0404 0.3295
H17 H -0.021(2) 0.193(2) -0.081(2)
H18 H -0.003(3) 0.105(3) 0.044(3)
loop_
_geom_bond_atom_site_label_1
_geom_bond_atom_site_label_2
_geom_bond_site_symmetry_1
_geom_bond_site_symmetry_2
Cl1 C1 1_555 1_555
O1 C15 1_555 1_555
O2 C20 1_555 1_555
O3 C20 1_555 1_555
N1 C19 1_555 1_555
C1 C2 1_555 1_555
C2 H1 1_555 1_555
C3 C2 1_555 1_555
H2 C3 1_555 1_555
C4 C3 1_555 1_555
C5 C4 1_555 1_555
H3 C5 1_555 1_555
C6 C1 1_555 1_555
H4 C6 1_555 1_555
C7 C8 1_555 1_555
C8 H5 1_555 1_555
C9 C8 1_555 1_555
H6 C9 1_555 1_555
C10 C9 1_555 1_555
H7 C10 1_555 1_555
C11 C10 1_555 1_555
H8 C11 1_555 1_555
C12 C7 1_555 1_555
C13 C12 1_555 1_555
H9 C13 1_555 1_555
C14 C13 1_555 1_555
H10 C14 1_555 1_555
C15 C14 1_555 1_555
C16 C7 1_555 1_555
C17 C4 1_555 1_555
H11 C17 1_555 1_555
C18 C17 1_555 1_555
C19 O1 1_555 1_555
C20 C18 1_555 1_555
C21 O2 1_555 1_555
H12 C21 1_555 1_555
H13 C21 1_555 1_555
C22 C21 1_555 1_555
H14 C22 1_555 1_555
H15 C22 1_555 1_555
H16 C22 1_555 1_555
H17 N1 1_555 1_555
H18 N1 1_555 1_555
C5 C6 1_555 1_555
C11 C12 1_555 1_555
C15 C16 1_555 1_555
C16 C17 1_555 1_555
C18 C19 1_555 1_555

#END
