
#######################################################################
#
#                 Cambridge Crystallographic Data Centre
#                                CCDC 
#
#######################################################################
#
# If this CIF has been generated from an entry in the Cambridge 
# Structural Database, then it will include bibliographic, chemical, 
# crystal, experimental, refinement or atomic coordinate data resulting 
# from the CCDC's data processing and validation procedures.
#
#######################################################################

data_OCAFEG
_chemical_formula_moiety         'C20 H22 Cl1 F3 N2 O5'
_chemical_name_systematic        
"(2'R,3R,4'S)-diethyl 6-chloro-1,4'-dimethyl-2-oxo-2'-(trifluoromethyl)spiro[indoline-3,3'-pyrrolidine]-5',5'-dicarboxylate"
_symmetry_cell_setting           monoclinic
_symmetry_space_group_name_H-M   'P 21'
_symmetry_Int_Tables_number      4
_space_group_name_Hall           'P 2yb'
loop_
_symmetry_equiv_pos_site_id
_symmetry_equiv_pos_as_xyz
1 x,y,z
2 -x,1/2+y,-z
_cell_length_a                   8.4000(6)
_cell_length_b                   14.2571(8)
_cell_length_c                   9.4507(6)
_cell_angle_alpha                90
_cell_angle_beta                 106.679(7)
_cell_angle_gamma                90
_cell_volume                     1084.19
_exptl_crystal_colour            'light colorless'
_exptl_crystal_description       block
_cell_formula_units_Z            2
loop_
_atom_site_label
_atom_site_type_symbol
_atom_site_fract_x
_atom_site_fract_y
_atom_site_fract_z
Cl1 Cl -0.72684(15) -0.09128(9) -0.15930(11)
F1 F -1.3261(3) -0.0345(2) 0.3347(3)
F2 F -1.2658(3) 0.0876(2) 0.4755(3)
F3 F -1.1882(3) -0.04961(18) 0.5631(2)
O1 O -1.3355(3) 0.1333(2) 0.1647(3)
O2 O -1.0207(4) 0.2776(2) 0.5953(3)
O3 O -0.8249(4) 0.1924(3) 0.7534(3)
O4 O -0.6461(3) 0.24722(18) 0.5315(3)
O5 O -0.5984(3) 0.09179(19) 0.5525(3)
N1 N -1.1977(4) 0.0593(2) 0.0195(3)
N2 N -0.9227(4) 0.0549(2) 0.5307(3)
H1 H -0.8799 0.0253 0.6120
C1 C -1.2133(5) 0.0936(3) 0.1506(4)
C2 C -1.0450(4) 0.0784(2) 0.2721(3)
C3 C -0.9400(4) 0.0353(2) 0.1823(3)
C4 C -0.7774(5) 0.0057(3) 0.2215(4)
H2 H -0.7113 0.0116 0.3186
C5 C -0.7122(5) -0.0335(3) 0.1147(4)
H3 H -0.6024 -0.0538 0.1401
C6 C -0.8119(5) -0.0418(3) -0.0287(4)
C7 C -0.9745(5) -0.0133(3) -0.0719(4)
H4 H -1.0403 -0.0195 -0.1690
C8 C -1.0362(4) 0.0254(2) 0.0367(4)
C9 C -1.3261(5) 0.0671(4) -0.1210(4)
H5 H -1.2847 0.1032 -0.1885
H6 H -1.4219 0.0975 -0.1061
H7 H -1.3563 0.0056 -0.1611
C10 C -1.0452(4) 0.0143(2) 0.4057(3)
H8 H -1.0086 -0.0487 0.3877
C11 C -1.2080(5) 0.0064(3) 0.4439(4)
C12 C -0.8790(4) 0.1513(2) 0.5046(3)
C13 C -0.9888(5) 0.1741(2) 0.3463(4)
H9 H -1.0889 0.2049 0.3572
C14 C -0.9157(6) 0.2399(3) 0.2531(4)
H10 H -0.8140 0.2138 0.2434
H11 H -0.8937 0.3000 0.3006
H12 H -0.9935 0.2471 0.1571
C15 C -0.6905(5) 0.1578(3) 0.5306(3)
C16 C -0.4701(5) 0.2681(4) 0.5566(6)
H13 H -0.4313 0.3075 0.6435
H14 H -0.4067 0.2103 0.5744
C17 C -0.4438(6) 0.3154(5) 0.4309(7)
H15 H -0.4739 0.2744 0.3467
H16 H -0.3288 0.3323 0.4516
H17 H -0.5111 0.3709 0.4102
C18 C -0.9194(5) 0.2153(3) 0.6201(4)
C19 C -0.8407(7) 0.2441(5) 0.8806(5)
H18 H -0.9265 0.2914 0.8479
H19 H -0.8756 0.2015 0.9460
C20 C -0.6925(8) 0.2878(6) 0.9591(6)
H20 H -0.6611 0.3331 0.8968
H21 H -0.6064 0.2416 0.9900
H22 H -0.7082 0.3188 1.0442
loop_
_geom_bond_atom_site_label_1
_geom_bond_atom_site_label_2
_geom_bond_site_symmetry_1
_geom_bond_site_symmetry_2
Cl1 C6 1_555 1_555
F1 C11 1_555 1_555
F2 C11 1_555 1_555
F3 C11 1_555 1_555
O1 C1 1_555 1_555
O2 C18 1_555 1_555
O3 C18 1_555 1_555
O4 C15 1_555 1_555
O5 C15 1_555 1_555
N1 C1 1_555 1_555
N2 H1 1_555 1_555
C1 C2 1_555 1_555
C2 C3 1_555 1_555
C3 C4 1_555 1_555
C4 H2 1_555 1_555
C5 C4 1_555 1_555
H3 C5 1_555 1_555
C6 C5 1_555 1_555
C7 C6 1_555 1_555
H4 C7 1_555 1_555
C8 N1 1_555 1_555
C9 N1 1_555 1_555
H5 C9 1_555 1_555
H6 C9 1_555 1_555
H7 C9 1_555 1_555
C10 N2 1_555 1_555
H8 C10 1_555 1_555
C11 C10 1_555 1_555
C12 N2 1_555 1_555
C13 C2 1_555 1_555
H9 C13 1_555 1_555
C14 C13 1_555 1_555
H10 C14 1_555 1_555
H11 C14 1_555 1_555
H12 C14 1_555 1_555
C15 C12 1_555 1_555
C16 O4 1_555 1_555
H13 C16 1_555 1_555
H14 C16 1_555 1_555
C17 C16 1_555 1_555
H15 C17 1_555 1_555
H16 C17 1_555 1_555
H17 C17 1_555 1_555
C18 C12 1_555 1_555
C19 O3 1_555 1_555
H18 C19 1_555 1_555
H19 C19 1_555 1_555
C20 C19 1_555 1_555
H20 C20 1_555 1_555
H21 C20 1_555 1_555
H22 C20 1_555 1_555
C2 C10 1_555 1_555
C3 C8 1_555 1_555
C7 C8 1_555 1_555
C12 C13 1_555 1_555

#END
