
#######################################################################
#
#                 Cambridge Crystallographic Data Centre
#                                CCDC 
#
#######################################################################
#
# If this CIF has been generated from an entry in the Cambridge 
# Structural Database, then it will include bibliographic, chemical, 
# crystal, experimental, refinement or atomic coordinate data resulting 
# from the CCDC's data processing and validation procedures.
#
#######################################################################

data_OCAGEG
_chemical_name_common            
6-Benzyl-3-[(6-chloropyridin-3-yl)methyl]-6,7-dihydro-3H-1,2,3-triazolo[4,5-d]pyrimidin-7-imine
_chemical_formula_moiety         'C17 H14 Cl1 N7'
_chemical_name_systematic        
6-Benzyl-3-((6-chloropyridin-3-yl)methyl)-3,6-dihydro-7H-[1,2,3]triazolo[4,5-d]pyrimidin-7-imine
_symmetry_cell_setting           triclinic
_symmetry_space_group_name_H-M   'P -1'
_symmetry_Int_Tables_number      2
_space_group_name_Hall           '-P 1'
loop_
_symmetry_equiv_pos_site_id
_symmetry_equiv_pos_as_xyz
1 x,y,z
2 -x,-y,-z
_cell_length_a                   6.1090(7)
_cell_length_b                   8.9537(11)
_cell_length_c                   31.292(4)
_cell_angle_alpha                83.1410(10)
_cell_angle_beta                 88.8960(10)
_cell_angle_gamma                75.1840(10)
_cell_volume                     1642.75
_exptl_crystal_colour            colorless
_exptl_crystal_description       block
_cell_formula_units_Z            4
loop_
_atom_site_label
_atom_site_type_symbol
_atom_site_fract_x
_atom_site_fract_y
_atom_site_fract_z
C1 C 0.7744(4) 0.6857(3) 0.05951(7)
C2 C 1.0038(4) 0.6342(4) 0.05984(9)
H1 H 1.0789 0.5761 0.0387
C3 C 1.1206(4) 0.6708(3) 0.09232(8)
H2 H 1.2777 0.6365 0.0937
C4 C 1.0060(3) 0.7576(2) 0.12262(6)
C5 C 0.7759(4) 0.8021(3) 0.11902(8)
H3 H 0.6959 0.8597 0.1398
C6 C 1.1269(4) 0.8060(2) 0.15811(7)
H4 H 1.2490 0.8478 0.1458
H5 H 1.0219 0.8879 0.1713
C7 C 1.1164(3) 0.6205(2) 0.22548(6)
C8 C 1.2736(3) 0.4913(2) 0.24336(6)
C9 C 1.2208(3) 0.3953(2) 0.28042(7)
C10 C 0.8563(4) 0.5919(2) 0.27273(7)
H6 H 0.7126 0.6239 0.2842
C11 C 0.8987(4) 0.3774(3) 0.33020(7)
H7 H 0.9946 0.2727 0.3365
H8 H 0.7495 0.3695 0.3224
C12 C 0.8811(4) 0.4588(2) 0.36991(7)
C13 C 1.0709(4) 0.4498(3) 0.39458(8)
H9 H 1.2116 0.3913 0.3868
C14 C 1.0532(5) 0.5267(4) 0.43057(9)
H10 H 1.1818 0.5197 0.4469
C15 C 0.8475(6) 0.6135(4) 0.44248(9)
H11 H 0.8365 0.6661 0.4667
C16 C 0.6579(5) 0.6227(3) 0.41866(9)
H12 H 0.5180 0.6812 0.4268
C17 C 0.6731(4) 0.5455(3) 0.38252(8)
H13 H 0.5433 0.5517 0.3666
Cl1 Cl 0.61762(13) 0.64380(11) 0.01849(2)
N1 N 0.6569(3) 0.7684(3) 0.08754(7)
N2 N 1.2195(3) 0.67680(19) 0.19114(5)
N3 N 1.4337(3) 0.5854(2) 0.18785(6)
N4 N 1.4664(3) 0.4726(2) 0.21982(6)
N5 N 0.9010(3) 0.6798(2) 0.23921(6)
N6 N 0.9931(3) 0.45918(19) 0.29311(5)
N7 N 1.3390(3) 0.2699(2) 0.30078(6)
H27 H 1.4758 0.2324 0.2929
C18 C 0.7452(5) 0.1471(3) 0.44535(8)
C19 C 0.9630(5) 0.0774(3) 0.43658(8)
H14 H 1.0823 0.0863 0.4533
C20 C 1.0010(4) -0.0071(3) 0.40197(8)
H15 H 1.1479 -0.0581 0.3952
C21 C 0.8219(3) -0.0163(2) 0.37733(7)
C22 C 0.6101(4) 0.0635(3) 0.38887(8)
H16 H 0.4875 0.0619 0.3719
C23 C 0.8480(4) -0.1146(3) 0.34092(7)
H17 H 0.8724 -0.2227 0.3529
H18 H 0.7077 -0.0859 0.3244
C24 C 1.0343(3) 0.0021(2) 0.27690(6)
C25 C 1.2463(3) -0.0436(2) 0.26003(6)
C26 C 1.3093(3) 0.0383(2) 0.22143(6)
C27 C 0.9221(4) 0.1999(3) 0.22685(7)
H19 H 0.8137 0.2863 0.2144
C28 C 1.1550(4) 0.2696(3) 0.16744(7)
H20 H 1.3145 0.2663 0.1644
H21 H 1.0744 0.3756 0.1711
C29 C 1.0716(4) 0.2268(3) 0.12683(7)
C30 C 1.2164(5) 0.1361(3) 0.10043(8)
H22 H 1.3691 0.0994 0.1078
C31 C 1.1373(7) 0.0985(4) 0.06286(9)
H23 H 1.2368 0.0369 0.0453
C32 C 0.9140(8) 0.1520(5) 0.05176(11)
H24 H 0.8607 0.1261 0.0267
C33 C 0.7689(6) 0.2435(5) 0.07731(11)
H25 H 0.6169 0.2808 0.0694
C34 C 0.8450(5) 0.2812(4) 0.11462(9)
H26 H 0.7442 0.3437 0.1318
Cl2 Cl 0.6881(2) 0.25203(12) 0.48969(3)
N8 N 0.5685(4) 0.1438(3) 0.42303(8)
N9 N 1.0329(3) -0.1005(2) 0.31192(6)
N10 N 1.2371(3) -0.2069(2) 0.31669(6)
N11 N 1.3668(3) -0.1714(2) 0.28523(6)
N12 N 0.8615(3) 0.1264(2) 0.26147(6)
N13 N 1.1252(3) 0.1660(2) 0.20643(5)
N14 N 1.4930(3) 0.0109(2) 0.20044(6)
H28 H 1.6030 -0.0666 0.2098
loop_
_geom_bond_atom_site_label_1
_geom_bond_atom_site_label_2
_geom_bond_site_symmetry_1
_geom_bond_site_symmetry_2
C1 C2 1_555 1_555
C2 H1 1_555 1_555
C3 C2 1_555 1_555
H2 C3 1_555 1_555
C4 C3 1_555 1_555
C5 C4 1_555 1_555
H3 C5 1_555 1_555
C6 C4 1_555 1_555
H4 C6 1_555 1_555
H5 C6 1_555 1_555
C7 C8 1_555 1_555
C8 C9 1_555 1_555
C9 N6 1_555 1_555
C10 H6 1_555 1_555
C11 H7 1_555 1_555
H8 C11 1_555 1_555
C12 C11 1_555 1_555
C13 C12 1_555 1_555
H9 C13 1_555 1_555
C14 C13 1_555 1_555
H10 C14 1_555 1_555
C15 C14 1_555 1_555
H11 C15 1_555 1_555
C16 C15 1_555 1_555
H12 C16 1_555 1_555
C17 C12 1_555 1_555
H13 C17 1_555 1_555
C18 C19 1_555 1_555
C19 H14 1_555 1_555
C20 C19 1_555 1_555
H15 C20 1_555 1_555
C21 C20 1_555 1_555
C22 C21 1_555 1_555
H16 C22 1_555 1_555
C23 C21 1_555 1_555
H17 C23 1_555 1_555
H18 C23 1_555 1_555
C24 C25 1_555 1_555
C25 C26 1_555 1_555
C26 N13 1_555 1_555
C27 H19 1_555 1_555
C28 H20 1_555 1_555
H21 C28 1_555 1_555
C29 C28 1_555 1_555
C30 C29 1_555 1_555
H22 C30 1_555 1_555
C31 C30 1_555 1_555
H23 C31 1_555 1_555
C32 C31 1_555 1_555
H24 C32 1_555 1_555
C33 C32 1_555 1_555
H25 C33 1_555 1_555
C34 C29 1_555 1_555
H26 C34 1_555 1_555
Cl1 C1 1_555 1_555
Cl2 C18 1_555 1_555
N1 C1 1_555 1_555
N2 C6 1_555 1_555
N3 N2 1_555 1_555
N4 C8 1_555 1_555
N5 C7 1_555 1_555
N6 C10 1_555 1_555
N7 C9 1_555 1_555
H27 N7 1_555 1_555
N8 C18 1_555 1_555
N9 C23 1_555 1_555
N10 N9 1_555 1_555
N11 C25 1_555 1_555
N12 C24 1_555 1_555
N13 C27 1_555 1_555
N14 C26 1_555 1_555
H28 N14 1_555 1_555
C5 N1 1_555 1_555
C7 N2 1_555 1_555
C10 N5 1_555 1_555
C11 N6 1_555 1_555
C16 C17 1_555 1_555
C22 N8 1_555 1_555
C24 N9 1_555 1_555
C27 N12 1_555 1_555
C28 N13 1_555 1_555
C33 C34 1_555 1_555
N3 N4 1_555 1_555
N10 N11 1_555 1_555

#END
