
#######################################################################
#
#                 Cambridge Crystallographic Data Centre
#                                CCDC 
#
#######################################################################
#
# If this CIF has been generated from an entry in the Cambridge 
# Structural Database, then it will include bibliographic, chemical, 
# crystal, experimental, refinement or atomic coordinate data resulting 
# from the CCDC's data processing and validation procedures.
#
#######################################################################

data_OCAGEH
_chemical_formula_moiety         'C17 H18 Cl1 F3 N2 O3'
_chemical_name_systematic        
"ethyl 5-chloro-1,4'-dimethyl-2-oxo-2'-(trifluoromethyl)-1,2-dihydrospiro[indole-3,3'-pyrrolidine]-5'-carboxylate"
_symmetry_cell_setting           trigonal
_symmetry_space_group_name_H-M   'P 32'
_symmetry_Int_Tables_number      145
_space_group_name_Hall           'P 32'
loop_
_symmetry_equiv_pos_site_id
_symmetry_equiv_pos_as_xyz
1 x,y,z
2 -y,x-y,2/3+z
3 -x+y,-x,1/3+z
_cell_length_a                   9.1836(4)
_cell_length_b                   9.1836(4)
_cell_length_c                   18.7339(8)
_cell_angle_alpha                90
_cell_angle_beta                 90
_cell_angle_gamma                120
_cell_volume                     1368.31
_cell_formula_units_Z            3
loop_
_atom_site_label
_atom_site_type_symbol
_atom_site_fract_x
_atom_site_fract_y
_atom_site_fract_z
Cl1 Cl -0.8355(2) -0.9813(2) -0.28916(6)
F1 F -0.9379(5) -1.4185(4) 0.05716(19)
F2 F -0.9584(5) -1.6200(3) -0.0091(2)
F3 F -0.7273(4) -1.4589(4) 0.04627(15)
O1 O -0.6395(4) -1.1096(4) 0.08823(15)
N1 N -0.6984(4) -0.9432(4) 0.01697(17)
C1 C -0.6726(5) -1.0738(5) 0.0295(2)
C2 C -0.6758(5) -1.1559(5) -0.0420(2)
C3 C -0.7169(5) -1.0552(5) -0.0937(2)
C4 C -0.7498(6) -1.0721(6) -0.1658(2)
H1 H -0.7459 -1.1559 -0.1921
C5 C -0.7888(6) -0.9606(6) -0.1976(2)
C6 C -0.7958(7) -0.8361(6) -0.1607(2)
H2 H -0.8201 -0.7619 -0.1844
C7 C -0.7666(7) -0.8208(6) -0.0882(3)
H3 H -0.7726 -0.7377 -0.0621
C8 C -0.7285(5) -0.9316(5) -0.0553(2)
C9 C -0.6932(7) -0.8264(7) 0.0711(3)
H4 H -0.6074 -0.7142 0.0591
H5 H -0.6687 -0.8566 0.1168
H6 H -0.8002 -0.8317 0.0731
C10 C -0.7975(6) -1.3471(5) -0.0546(2)
H7 H -0.8981 -1.3604 -0.0788
N2 N -0.7082(5) -1.3971(5) -0.10389(18)
H8 H -0.7166 -1.4921 -0.0931
C11 C -0.5356(6) -1.2644(7) -0.1139(3)
H9 H -0.5375 -1.2048 -0.1570
C12 C -0.5009(5) -1.1416(6) -0.0531(2)
H10 H -0.4745 -1.1854 -0.0103
C13 C -0.3577(6) -0.9638(8) -0.0659(3)
H11 H -0.3816 -0.9184 -0.1076
H12 H -0.2551 -0.9656 -0.0731
H13 H -0.3460 -0.8951 -0.0253
C14 C -0.8532(7) -1.4596(6) 0.0103(3)
O2 O -0.2466(12) -1.1902(15) -0.1439(6)
O3 O -0.4199(13) -1.4355(15) -0.0990(8)
C15 C -0.378(2) -1.284(2) -0.1224(7)
C16 C -0.2878(19) -1.479(2) -0.1042(9)
H14 H -0.3057 -1.5604 -0.0674
H15 H -0.1804 -1.3788 -0.0949
C17 C -0.280(2) -1.5478(18) -0.1738(11)
H16 H -0.2766 -1.4743 -0.2110
H17 H -0.3777 -1.6568 -0.1798
H18 H -0.1808 -1.5574 -0.1761
H19? H -0.5110 -1.2133 -0.1615
O4? O -0.4775(16) -1.4812(15) -0.0551(7)
O5? O -0.331(2) -1.317(3) -0.1435(10)
C18? C -0.4491(18) -1.378(3) -0.0970(9)
C19? C -0.196(2) -1.353(3) -0.1369(11)
H20? H -0.0880 -1.2491 -0.1391
H21? H -0.2031 -1.4067 -0.0915
C20? C -0.208(4) -1.447(4) -0.1870(18)
H22? H -0.1620 -1.3820 -0.2296
H23? H -0.3247 -1.5282 -0.1946
H24? H -0.1479 -1.5044 -0.1754
loop_
_geom_bond_atom_site_label_1
_geom_bond_atom_site_label_2
_geom_bond_site_symmetry_1
_geom_bond_site_symmetry_2
Cl1 C5 1_555 1_555
F1 C14 1_555 1_555
F2 C14 1_555 1_555
F3 C14 1_555 1_555
O1 C1 1_555 1_555
N1 C1 1_555 1_555
C1 C2 1_555 1_555
C2 C3 1_555 1_555
C3 C4 1_555 1_555
C4 H1 1_555 1_555
C5 C4 1_555 1_555
C6 C5 1_555 1_555
H2 C6 1_555 1_555
C7 C6 1_555 1_555
H3 C7 1_555 1_555
C8 N1 1_555 1_555
C9 N1 1_555 1_555
H4 C9 1_555 1_555
H5 C9 1_555 1_555
H6 C9 1_555 1_555
C10 C2 1_555 1_555
H7 C10 1_555 1_555
N2 C10 1_555 1_555
H8 N2 1_555 1_555
C11 N2 1_555 1_555
H9 C11 1_555 1_555
C12 C2 1_555 1_555
H10 C12 1_555 1_555
C13 C12 1_555 1_555
H11 C13 1_555 1_555
H12 C13 1_555 1_555
H13 C13 1_555 1_555
C14 C10 1_555 1_555
O2 C15 1_555 1_555
O3 C15 1_555 1_555
C15 C11 1_555 1_555
C16 O3 1_555 1_555
H14 C16 1_555 1_555
H15 C16 1_555 1_555
C17 C16 1_555 1_555
H16 C17 1_555 1_555
H17 C17 1_555 1_555
H18 C17 1_555 1_555
C3 C8 1_555 1_555
C7 C8 1_555 1_555
C11 C12 1_555 1_555

#END
