
#######################################################################
#
#                 Cambridge Crystallographic Data Centre
#                                CCDC 
#
#######################################################################
#
# If this CIF has been generated from an entry in the Cambridge 
# Structural Database, then it will include bibliographic, chemical, 
# crystal, experimental, refinement or atomic coordinate data resulting 
# from the CCDC's data processing and validation procedures.
#
#######################################################################

data_OCAHAD
_chemical_name_common            
N-(4-Chloro-2-nitrophenyl)-5-methylisoxazole-4-carboxamide
_chemical_formula_moiety         'C11 H8 Cl1 N3 O4'
_chemical_name_systematic        
N-(4-Chloro-2-nitrophenyl)-5-methyl-1,2-oxazole-4-carboxamide
_chemical_properties_biological  'immunomodulating leflunomide analogue'
_symmetry_cell_setting           monoclinic
_symmetry_space_group_name_H-M   'P 21/c'
_symmetry_Int_Tables_number      14
_space_group_name_Hall           '-P 2ybc'
loop_
_symmetry_equiv_pos_site_id
_symmetry_equiv_pos_as_xyz
1 x,y,z
2 -x,1/2+y,1/2-z
3 -x,-y,-z
4 x,1/2-y,1/2+z
_cell_length_a                   5.3870(11)
_cell_length_b                   23.537(5)
_cell_length_c                   9.4600(19)
_cell_angle_alpha                90
_cell_angle_beta                 99.86(3)
_cell_angle_gamma                90
_cell_volume                     1181.75
_exptl_crystal_colour            white
_exptl_crystal_description       block
_cell_formula_units_Z            4
loop_
_atom_site_label
_atom_site_type_symbol
_atom_site_fract_x
_atom_site_fract_y
_atom_site_fract_z
Cl1 Cl 1.14810(15) 0.27507(3) 0.51209(9)
N1 N 0.5249(4) 0.33771(10) 0.8313(2)
C1 C 0.8613(5) 0.42551(11) 0.5906(3)
H1 H 0.8768 0.4628 0.5606
O1 O 0.5463(5) 0.28905(9) 0.8742(3)
O2 O 0.3751(4) 0.37087(9) 0.8716(2)
C2 C 0.9988(5) 0.38350(11) 0.5390(3)
H2 H 1.1070 0.3927 0.4757
N2 N 0.5564(4) 0.45566(9) 0.7398(2)
H3 H 0.4559 0.4440 0.7951
N3 N 0.0876(5) 0.56302(12) 0.9317(3)
O3 O 0.6784(4) 0.53680(8) 0.6379(2)
C3 C 0.9774(5) 0.32777(11) 0.5806(3)
O4 O 0.1878(4) 0.61421(9) 0.8857(2)
C4 C 0.8225(5) 0.31427(11) 0.6765(3)
H4 H 0.8099 0.2768 0.7060
C5 C 0.6850(5) 0.35645(10) 0.7294(2)
C6 C 0.6978(4) 0.41348(10) 0.6875(2)
C7 C 0.5541(5) 0.51330(10) 0.7158(2)
C8 C 0.3842(4) 0.54381(11) 0.7965(2)
C9 C 0.2056(5) 0.52340(12) 0.8774(3)
H5 H 0.1763 0.4850 0.8901
C10 C 0.3644(5) 0.60153(11) 0.8058(3)
C11 C 0.4990(7) 0.65000(12) 0.7545(4)
H6 H 0.4181 0.6848 0.7737
H7 H 0.4958 0.6464 0.6532
H8 H 0.6705 0.6503 0.8035
loop_
_geom_bond_atom_site_label_1
_geom_bond_atom_site_label_2
_geom_bond_site_symmetry_1
_geom_bond_site_symmetry_2
Cl1 C3 1_555 1_555
N1 O1 1_555 1_555
C1 H1 1_555 1_555
O2 N1 1_555 1_555
C2 C1 1_555 1_555
H2 C2 1_555 1_555
N2 H3 1_555 1_555
N3 O4 1_555 1_555
O3 C7 1_555 1_555
C3 C2 1_555 1_555
O4 C10 1_555 1_555
C4 C3 1_555 1_555
H4 C4 1_555 1_555
C5 N1 1_555 1_555
C6 C1 1_555 1_555
C7 N2 1_555 1_555
C8 C7 1_555 1_555
C9 N3 1_555 1_555
H5 C9 1_555 1_555
C10 C8 1_555 1_555
C11 C10 1_555 1_555
H6 C11 1_555 1_555
H7 C11 1_555 1_555
H8 C11 1_555 1_555
N2 C6 1_555 1_555
C4 C5 1_555 1_555
C5 C6 1_555 1_555
C8 C9 1_555 1_555

#END
