
#######################################################################
#
#                 Cambridge Crystallographic Data Centre
#                                CCDC 
#
#######################################################################
#
# If this CIF has been generated from an entry in the Cambridge 
# Structural Database, then it will include bibliographic, chemical, 
# crystal, experimental, refinement or atomic coordinate data resulting 
# from the CCDC's data processing and validation procedures.
#
#######################################################################

data_OCAJAE
_chemical_formula_moiety         'C22 H18 O2'
_chemical_name_systematic        3,3-Dibenzylbenzo(b)furan-2(3H)-one
_chemical_properties_biological  'potential biological activity'
_symmetry_cell_setting           orthorhombic
_symmetry_space_group_name_H-M   'P n m a'
_symmetry_Int_Tables_number      62
_space_group_name_Hall           '-P 2ac 2n'
loop_
_symmetry_equiv_pos_site_id
_symmetry_equiv_pos_as_xyz
1 x,y,z
2 1/2+x,y,1/2-z
3 x,1/2-y,z
4 1/2-x,1/2+y,1/2+z
5 -x,-y,-z
6 1/2-x,-y,1/2+z
7 -x,1/2+y,-z
8 1/2+x,1/2-y,1/2-z
_cell_length_a                   12.650(3)
_cell_length_b                   15.488(3)
_cell_length_c                   8.772(2)
_cell_angle_alpha                90
_cell_angle_beta                 90
_cell_angle_gamma                90
_cell_volume                     1718.64
_exptl_crystal_colour            colorless
_exptl_crystal_description       block
_chemical_melting_point          '454-455 K'
_cell_formula_units_Z            4
_exptl_crystal_recrystallization_method ethanol
loop_
_atom_site_label
_atom_site_type_symbol
_atom_site_fract_x
_atom_site_fract_y
_atom_site_fract_z
O1 O 0.76680(15) 0.2500 0.5120(2)
O2 O 0.74964(13) 0.2500 0.25929(19)
C1 C 0.8526(3) 0.57028(19) 0.2586(4)
H1 H 0.8242 0.6217 0.2221
C2 C 0.8057(2) 0.5290(2) 0.3787(5)
H2 H 0.7457 0.5522 0.4242
C3 C 0.8479(2) 0.45270(17) 0.4318(3)
H3 H 0.8165 0.4254 0.5147
C4 C 0.93532(16) 0.41605(13) 0.3648(2)
C5 C 0.9818(2) 0.45934(17) 0.2461(3)
H4 H 1.0422 0.4365 0.2008
C6 C 0.9407(4) 0.5364(2) 0.1924(3)
H5 H 0.9731 0.5648 0.1115
C7 C 0.97931(14) 0.33171(14) 0.4209(2)
H6 H 0.9715 0.3296 0.5309
H7 H 1.0544 0.3302 0.3984
C8 C 0.9271(2) 0.2500 0.3520(3)
C9 C 0.8091(2) 0.2500 0.3903(3)
C10 C 0.81946(19) 0.2500 0.1349(3)
C11 C 0.7878(2) 0.2500 -0.0143(3)
H8 H 0.7167 0.2500 -0.0411
C12 C 0.8670(2) 0.2500 -0.1232(3)
H9 H 0.8492 0.2500 -0.2260
C13 C 0.9713(2) 0.2500 -0.0810(3)
H10 H 1.0232 0.2500 -0.1560
C14 C 1.0010(2) 0.2500 0.0709(3)
H11 H 1.0720 0.2500 0.0983
C15 C 0.92296(19) 0.2500 0.1807(3)
C7B C 0.97931(14) 0.16829(14) 0.4209(2)
C4B C 0.93532(16) 0.08395(13) 0.3648(2)
C3B C 0.8479(2) 0.04730(17) 0.4318(3)
C2B C 0.8057(2) -0.0290(2) 0.3787(5)
C1B C 0.8526(3) -0.07028(19) 0.2586(4)
H1B H 0.8242 -0.1217 0.2221
C6B C 0.9407(4) -0.0364(2) 0.1924(3)
C5B C 0.9818(2) 0.04066(17) 0.2461(3)
H4B H 1.0422 0.0635 0.2008
H5B H 0.9731 -0.0648 0.1115
H2B H 0.7457 -0.0522 0.4242
H3B H 0.8165 0.0746 0.5147
H6B H 0.9715 0.1704 0.5309
H7B H 1.0544 0.1698 0.3984
loop_
_geom_bond_atom_site_label_1
_geom_bond_atom_site_label_2
_geom_bond_site_symmetry_1
_geom_bond_site_symmetry_2
O1 C9 1_555 1_555
O2 C9 1_555 1_555
C1 H1 1_555 1_555
C2 C1 1_555 1_555
H2 C2 1_555 1_555
C3 C2 1_555 1_555
H3 C3 1_555 1_555
C4 C3 1_555 1_555
C5 C4 1_555 1_555
H4 C5 1_555 1_555
C6 C1 1_555 1_555
H5 C6 1_555 1_555
C7 C4 1_555 1_555
H6 C7 1_555 1_555
H7 C7 1_555 1_555
C8 C7 1_555 1_555
C9 C8 1_555 1_555
C10 O2 1_555 1_555
C11 C10 1_555 1_555
H8 C11 1_555 1_555
C12 C11 1_555 1_555
H9 C12 1_555 1_555
C13 C12 1_555 1_555
H10 C13 1_555 1_555
C14 C13 1_555 1_555
H11 C14 1_555 1_555
C15 C8 1_555 1_555
C7B C8 1_555 1_555
C4B C7B 1_555 1_555
C3B C4B 1_555 1_555
C2B C3B 1_555 1_555
C1B C2B 1_555 1_555
H1B C1B 1_555 1_555
C6B C1B 1_555 1_555
C5B C4B 1_555 1_555
H4B C5B 1_555 1_555
H5B C6B 1_555 1_555
H2B C2B 1_555 1_555
H3B C3B 1_555 1_555
H6B C7B 1_555 1_555
H7B C7B 1_555 1_555
C5 C6 1_555 1_555
C10 C15 1_555 1_555
C14 C15 1_555 1_555
C6B C5B 1_555 1_555

#END
