
#######################################################################
#
#                 Cambridge Crystallographic Data Centre
#                                CCDC 
#
#######################################################################
#
# If this CIF has been generated from an entry in the Cambridge 
# Structural Database, then it will include bibliographic, chemical, 
# crystal, experimental, refinement or atomic coordinate data resulting 
# from the CCDC's data processing and validation procedures.
#
#######################################################################

data_OCAKEJ01
_chemical_formula_moiety         'C7 H7 N2 1+,C9 H7 O5 1-,C9 H8 O5'
_chemical_name_systematic        
'Benzimidazolium 3-carboxyphenoxyacetate 3-carboxyphenoxyacetic acid'
_symmetry_cell_setting           monoclinic
_symmetry_space_group_name_H-M   'P 21/n'
_symmetry_Int_Tables_number      14
_space_group_name_Hall           '-P 2yn'
loop_
_symmetry_equiv_pos_site_id
_symmetry_equiv_pos_as_xyz
1 x,y,z
2 1/2+x,1/2-y,1/2+z
3 -x,-y,-z
4 1/2-x,1/2+y,1/2-z
_cell_length_a                   7.647(2)
_cell_length_b                   21.158(4)
_cell_length_c                   14.122(3)
_cell_angle_alpha                90
_cell_angle_beta                 95.08(3)
_cell_angle_gamma                90
_cell_volume                     2275.9
_exptl_crystal_colour            colorless
_exptl_crystal_description       prism
_cell_formula_units_Z            4
loop_
_atom_site_label
_atom_site_type_symbol
_atom_site_fract_x
_atom_site_fract_y
_atom_site_fract_z
O1 O 0.4758(2) 0.61830(10) 0.88700(10)
O2 O 0.5925(2) 0.71440(10) 0.90690(10)
O3 O 0.3817(2) 0.58050(10) 0.54630(10)
O4 O 0.2066(2) 0.48640(10) 0.46380(10)
O5 O 0.2469(2) 0.51950(10) 0.31870(10)
C1 C 0.5410(2) 0.67130(10) 0.85530(10)
C2 C 0.4680(2) 0.62550(10) 0.69350(10)
C3 C 0.5437(2) 0.67320(10) 0.75010(10)
C4 C 0.6178(2) 0.72560(10) 0.70870(10)
C5 C 0.6134(3) 0.72930(10) 0.61140(10)
C6 C 0.5354(3) 0.68210(10) 0.55390(10)
C7 C 0.4631(3) 0.63010(10) 0.59510(10)
C8 C 0.3698(3) 0.58150(10) 0.44590(10)
C9 C 0.2666(3) 0.52450(10) 0.40800(10)
H1 H 0.463(3) 0.6230(10) 0.9470(10)
H7 H 0.4203 0.5904 0.7212
H8 H 0.6697 0.7576 0.7466
H9 H 0.6633 0.7640 0.5836
H10 H 0.5319 0.6854 0.4881
H11 H 0.4866 0.5807 0.4240
H12 H 0.3118 0.6199 0.4226
O6 O 0.4204(2) 0.63620(10) 0.07860(10)
O7 O 0.3688(2) 0.60650(10) 0.22320(10)
O8 O 0.2920(2) 0.53370(10) -0.00170(10)
O9 O 0.2160(2) 0.49210(10) -0.34290(10)
O10 O 0.1561(3) 0.39010(10) -0.35960(10)
C10 C 0.3668(2) 0.59710(10) 0.13240(10)
C11 C 0.2938(3) 0.53390(10) 0.09810(10)
C12 C 0.2325(2) 0.48060(10) -0.05050(10)
C13 C 0.1756(2) 0.42620(10) -0.00870(10)
C14 C 0.1202(3) 0.37540(10) -0.06610(10)
C15 C 0.1190(3) 0.37890(10) -0.16330(10)
C16 C 0.1767(2) 0.43380(10) -0.20490(10)
C17 C 0.2340(2) 0.48470(10) -0.14850(10)
C18 C 0.1802(3) 0.43610(10) -0.31020(10)
H3 H 0.329(5) 0.5750(10) 0.253(2)
H4 H 0.217(3) 0.4890(10) -0.4040(10)
H13 H 0.3669 0.4998 0.1252
H14 H 0.1759 0.5283 0.1169
H15 H 0.1744 0.4236 0.0570
H16 H 0.0832 0.3385 -0.0383
H17 H 0.0799 0.3448 -0.2010
H18 H 0.2731 0.5213 -0.1762
N1 N 0.0380(2) 0.37220(10) 0.41290(10)
N2 N -0.0446(2) 0.27500(10) 0.42340(10)
C19 C 0.0137(3) 0.32510(10) 0.4710(2)
C20 C -0.0076(2) 0.35180(10) 0.32070(10)
C21 C -0.0098(3) 0.38250(10) 0.2348(2)
C22 C -0.0695(3) 0.34840(10) 0.1568(2)
C23 C -0.1192(3) 0.28550(10) 0.1624(2)
C24 C -0.1148(3) 0.25360(10) 0.2480(2)
C25 C -0.0595(3) 0.28900(10) 0.32790(10)
H5 H 0.081(3) 0.4090(10) 0.429(2)
H6 H -0.062(4) 0.2390(10) 0.451(2)
H19 H 0.0349 0.3271 0.5368
H20 H 0.0274 0.4241 0.2302
H21 H -0.0772 0.3679 0.0976
H22 H -0.1568 0.2641 0.1068
H23 H -0.1466 0.2113 0.2519
H2? H 0.270(10) 0.553(2) 0.287(4)
loop_
_geom_bond_atom_site_label_1
_geom_bond_atom_site_label_2
_geom_bond_site_symmetry_1
_geom_bond_site_symmetry_2
O1 C1 1_555 1_555
O2 C1 1_555 1_555
O3 C7 1_555 1_555
O4 C9 1_555 1_555
O5 C9 1_555 1_555
O6 C10 1_555 1_555
O7 C10 1_555 1_555
O8 C11 1_555 1_555
O9 C18 1_555 1_555
O10 C18 1_555 1_555
N1 C19 1_555 1_555
N2 C19 1_555 1_555
C1 C3 1_555 1_555
C2 C3 1_555 1_555
C3 C4 1_555 1_555
C4 C5 1_555 1_555
C5 C6 1_555 1_555
C6 C7 1_555 1_555
C7 C2 1_555 1_555
C8 O3 1_555 1_555
C9 C8 1_555 1_555
C10 C11 1_555 1_555
C11 H13 1_555 1_555
C12 O8 1_555 1_555
C13 C12 1_555 1_555
C14 C13 1_555 1_555
C15 C14 1_555 1_555
C16 C15 1_555 1_555
C17 C12 1_555 1_555
C18 C16 1_555 1_555
C19 H19 1_555 1_555
C20 N1 1_555 1_555
C21 C20 1_555 1_555
C22 C21 1_555 1_555
C23 C22 1_555 1_555
C24 C23 1_555 1_555
C25 N2 1_555 1_555
H1 O1 1_555 1_555
H3 O7 1_555 1_555
H4 O9 1_555 1_555
H5 N1 1_555 1_555
H6 N2 1_555 1_555
H7 C2 1_555 1_555
H8 C4 1_555 1_555
H9 C5 1_555 1_555
H10 C6 1_555 1_555
H11 C8 1_555 1_555
H12 C8 1_555 1_555
H14 C11 1_555 1_555
H15 C13 1_555 1_555
H16 C14 1_555 1_555
H17 C15 1_555 1_555
H18 C17 1_555 1_555
H20 C21 1_555 1_555
H21 C22 1_555 1_555
H22 C23 1_555 1_555
H23 C24 1_555 1_555
C16 C17 1_555 1_555
C20 C25 1_555 1_555
C24 C25 1_555 1_555

#END
