
#######################################################################
#
#                 Cambridge Crystallographic Data Centre
#                                CCDC 
#
#######################################################################
#
# If this CIF has been generated from an entry in the Cambridge 
# Structural Database, then it will include bibliographic, chemical, 
# crystal, experimental, refinement or atomic coordinate data resulting 
# from the CCDC's data processing and validation procedures.
#
#######################################################################

data_OCAKIN
_chemical_formula_moiety         'C34 H30 Br2 O2,C3 H6 O1'
_chemical_name_systematic        
"2,9b-trans-3,9b-cis-2,3-bis(4-Bromophenyl)-2,3,3a,4,5,9b,1',2',3',4'-decahydro-1H-benz(e)indene-1-spiro-2'-naphthalene-1',9b-diol acetone solvate"
_symmetry_cell_setting           triclinic
_symmetry_space_group_name_H-M   'P -1'
_symmetry_Int_Tables_number      2
_space_group_name_Hall           '-P 1'
loop_
_symmetry_equiv_pos_site_id
_symmetry_equiv_pos_as_xyz
1 x,y,z
2 -x,-y,-z
_cell_length_a                   11.4270(10)
_cell_length_b                   12.0420(10)
_cell_length_c                   12.992(2)
_cell_angle_alpha                77.870(10)
_cell_angle_beta                 67.730(10)
_cell_angle_gamma                81.020(10)
_cell_volume                     1611.68
_exptl_crystal_colour            colorless
_exptl_crystal_description       block
_chemical_melting_point          '428-429 K'
_cell_formula_units_Z            2
_exptl_crystal_recrystallization_method 'petroleum ether/acetone'
loop_
_atom_site_label
_atom_site_type_symbol
_atom_site_fract_x
_atom_site_fract_y
_atom_site_fract_z
Br1 Br 0.46259(3) 0.71697(3) 0.38617(4)
Br2 Br 0.61361(4) -0.02315(4) 0.33515(4)
O1 O 1.2488(2) 0.3894(2) 0.0665(2)
O2 O 1.1133(2) 0.5865(2) 0.0305(2)
C1 C 0.9807(3) 0.4336(2) 0.2298(2)
H1 H 0.9927 0.4222 0.1539
C2 C 0.9894(2) 0.3141(2) 0.2992(2)
H2 H 0.9795 0.3227 0.3755
C3 C 1.1276(3) 0.2693(3) 0.2390(2)
H3 H 1.1284 0.2372 0.1753
C4 C 1.2046(3) 0.3764(3) 0.1878(3)
C5 C 1.1038(3) 0.4809(2) 0.2206(2)
C6 C 1.1798(3) 0.1737(3) 0.3119(3)
H4 H 1.2497 0.1297 0.2635
H5 H 1.1140 0.1231 0.3572
C7 C 1.2260(3) 0.2200(3) 0.3896(3)
H6 H 1.1557 0.2604 0.4413
H7 H 1.2601 0.1574 0.4335
C8 C 1.3269(3) 0.2992(3) 0.3194(3)
C9 C 1.4324(3) 0.2983(3) 0.3491(3)
H8 H 1.4381 0.2501 0.4134
C10 C 1.5283(3) 0.3678(3) 0.2846(3)
H9 H 1.5975 0.3673 0.3059
C11 C 1.5210(3) 0.4376(3) 0.1886(3)
H10 H 1.5856 0.4844 0.1445
C12 C 1.4177(3) 0.4383(3) 0.1576(3)
H11 H 1.4143 0.4851 0.0918
C13 C 1.3187(3) 0.3706(3) 0.2228(3)
C14 C 1.0911(2) 0.5099(2) 0.3357(2)
H12 H 1.0016 0.5219 0.3801
H13 H 1.1264 0.4446 0.3759
C15 C 1.1562(3) 0.6145(3) 0.3275(2)
H14 H 1.1426 0.6276 0.4025
H15 H 1.2468 0.6022 0.2876
C16 C 1.1022(3) 0.7165(3) 0.2657(3)
C17 C 1.0635(3) 0.8197(3) 0.3030(3)
H16 H 1.0725 0.8292 0.3687
C18 C 1.0117(3) 0.9087(3) 0.2443(3)
H17 H 0.9873 0.9788 0.2690
C19 C 0.9963(3) 0.8934(3) 0.1489(3)
H18 H 0.9602 0.9532 0.1094
C20 C 1.0337(3) 0.7900(3) 0.1102(3)
H19 H 1.0230 0.7809 0.0450
C21 C 1.0869(3) 0.7005(3) 0.1684(3)
C22 C 1.1408(3) 0.5887(3) 0.1282(3)
H20 H 1.2333 0.5884 0.1031
C23 C 0.8554(3) 0.5052(3) 0.2707(3)
C24 C 0.8161(3) 0.5863(3) 0.1954(3)
H21 H 0.8691 0.5979 0.1200
C25 C 0.7010(3) 0.6507(3) 0.2280(3)
H22 H 0.6768 0.7048 0.1755
C26 C 0.6234(3) 0.6336(3) 0.3389(3)
C27 C 0.6591(3) 0.5551(3) 0.4165(3)
H23 H 0.6058 0.5449 0.4919
C28 C 0.7741(3) 0.4909(2) 0.3836(3)
H24 H 0.7977 0.4376 0.4369
C29 C 0.8927(3) 0.2359(3) 0.3083(3)
C30 C 0.8677(3) 0.2243(3) 0.2160(3)
H25 H 0.9080 0.2681 0.1466
C31 C 0.7833(3) 0.1483(3) 0.2237(3)
H26 H 0.7683 0.1410 0.1600
C32 C 0.7221(3) 0.0840(3) 0.3267(4)
C33 C 0.7428(3) 0.0961(3) 0.4192(3)
H27 H 0.6999 0.0540 0.4888
C34 C 0.8275(3) 0.1707(3) 0.4109(3)
H28 H 0.8414 0.1774 0.4754
H35 H 1.301(2) 0.3380(19) 0.043(3)
H36 H 1.158(2) 0.5284(16) 0.014(3)
O3 O 1.4162(3) 0.2020(2) -0.0190(2)
C35 C 1.5981(4) 0.0979(3) -0.1286(3)
H29 H 1.6391 0.0309 -0.0975
H30 H 1.6609 0.1414 -0.1888
H31 H 1.5405 0.0759 -0.1571
C36 C 1.5252(5) 0.1697(4) -0.0374(4)
C37 C 1.5946(4) 0.1815(4) 0.0315(4)
H32 H 1.5849 0.2596 0.0417
H33 H 1.6829 0.1590 -0.0050
H34 H 1.5622 0.1339 0.1036
loop_
_geom_bond_atom_site_label_1
_geom_bond_atom_site_label_2
_geom_bond_site_symmetry_1
_geom_bond_site_symmetry_2
Br1 C26 1_555 1_555
Br2 C32 1_555 1_555
O1 C4 1_555 1_555
O2 C22 1_555 1_555
C1 H1 1_555 1_555
C2 C1 1_555 1_555
H2 C2 1_555 1_555
C3 C2 1_555 1_555
H3 C3 1_555 1_555
C4 C3 1_555 1_555
C5 C1 1_555 1_555
C6 C3 1_555 1_555
H4 C6 1_555 1_555
H5 C6 1_555 1_555
C7 C6 1_555 1_555
H6 C7 1_555 1_555
H7 C7 1_555 1_555
C8 C7 1_555 1_555
C9 C8 1_555 1_555
H8 C9 1_555 1_555
C10 C9 1_555 1_555
H9 C10 1_555 1_555
C11 C10 1_555 1_555
H10 C11 1_555 1_555
C12 C11 1_555 1_555
H11 C12 1_555 1_555
C13 C4 1_555 1_555
C14 C5 1_555 1_555
H12 C14 1_555 1_555
H13 C14 1_555 1_555
C15 C14 1_555 1_555
H14 C15 1_555 1_555
H15 C15 1_555 1_555
C16 C15 1_555 1_555
C17 C16 1_555 1_555
H16 C17 1_555 1_555
C18 C17 1_555 1_555
H17 C18 1_555 1_555
C19 C18 1_555 1_555
H18 C19 1_555 1_555
C20 C19 1_555 1_555
H19 C20 1_555 1_555
C21 C16 1_555 1_555
C22 C5 1_555 1_555
H20 C22 1_555 1_555
C23 C1 1_555 1_555
C24 C23 1_555 1_555
H21 C24 1_555 1_555
C25 C24 1_555 1_555
H22 C25 1_555 1_555
C26 C25 1_555 1_555
C27 C26 1_555 1_555
H23 C27 1_555 1_555
C28 C23 1_555 1_555
H24 C28 1_555 1_555
C29 C2 1_555 1_555
C30 C29 1_555 1_555
H25 C30 1_555 1_555
C31 C30 1_555 1_555
H26 C31 1_555 1_555
C32 C31 1_555 1_555
C33 C32 1_555 1_555
H27 C33 1_555 1_555
C34 C29 1_555 1_555
H28 C34 1_555 1_555
O3 C36 1_555 1_555
C35 H29 1_555 1_555
H30 C35 1_555 1_555
H31 C35 1_555 1_555
C36 C35 1_555 1_555
C37 C36 1_555 1_555
H32 C37 1_555 1_555
H33 C37 1_555 1_555
H34 C37 1_555 1_555
H35 O1 1_555 1_555
H36 O2 1_555 1_555
C4 C5 1_555 1_555
C8 C13 1_555 1_555
C12 C13 1_555 1_555
C20 C21 1_555 1_555
C21 C22 1_555 1_555
C27 C28 1_555 1_555
C33 C34 1_555 1_555

#END
