
#######################################################################
#
#                 Cambridge Crystallographic Data Centre
#                                CCDC 
#
#######################################################################
#
# If this CIF has been generated from an entry in the Cambridge 
# Structural Database, then it will include bibliographic, chemical, 
# crystal, experimental, refinement or atomic coordinate data resulting 
# from the CCDC's data processing and validation procedures.
#
#######################################################################

data_OCALOU
_chemical_formula_moiety         'C10 H13 N3 O3'
_chemical_name_systematic        N-(2-(4-Nitrophenylamino)ethyl)acetamide
_symmetry_cell_setting           triclinic
_symmetry_space_group_name_H-M   'P -1'
_symmetry_Int_Tables_number      2
_space_group_name_Hall           '-P 1'
loop_
_symmetry_equiv_pos_site_id
_symmetry_equiv_pos_as_xyz
1 x,y,z
2 -x,-y,-z
_cell_length_a                   6.731(3)
_cell_length_b                   6.882(3)
_cell_length_c                   11.508(5)
_cell_angle_alpha                88.620(6)
_cell_angle_beta                 89.988(5)
_cell_angle_gamma                88.106(6)
_cell_volume                     532.636
_exptl_crystal_colour            yellow
_exptl_crystal_description       block
_cell_formula_units_Z            2
_exptl_crystal_recrystallization_method methanol
loop_
_atom_site_label
_atom_site_type_symbol
_atom_site_fract_x
_atom_site_fract_y
_atom_site_fract_z
O1 O 0.2031(3) 0.3812(4) 0.86067(17)
O2 O 0.2411(3) 0.0762(4) 0.82446(16)
C1 C 0.2968(5) -0.2657(4) 0.0379(2)
H1 H 0.4304 -0.3178 0.0455
H2 H 0.2812 -0.2006 -0.0365
H3 H 0.2053 -0.3696 0.0440
N1 N 0.2266(3) 0.2486(4) 0.7907(2)
N2 N 0.2919(3) 0.4295(3) 0.32133(16)
H4 H 0.2756 0.5500 0.3009
N3 N 0.2099(3) 0.0578(3) 0.09727(17)
H5 H 0.2109 0.0875 0.0243
C2 C 0.2354(4) 0.2926(4) 0.6699(2)
C3 C 0.2564(4) 0.1444(4) 0.5915(2)
H6 H 0.2600 0.0156 0.6180
C4 C 0.2717(4) 0.1863(4) 0.4750(2)
H7 H 0.2835 0.0858 0.4225
C5 C 0.2697(3) 0.3811(4) 0.4343(2)
C6 C 0.2437(4) 0.5289(4) 0.5156(2)
H8 H 0.2372 0.6582 0.4900
C7 C 0.2280(4) 0.4862(4) 0.6307(2)
H9 H 0.2124 0.5858 0.6836
C8 C 0.3419(4) 0.2910(4) 0.2310(2)
H10 H 0.4258 0.1862 0.2637
H11 H 0.4163 0.3556 0.1699
C9 C 0.1583(4) 0.2081(4) 0.1800(2)
H12 H 0.0780 0.1534 0.2418
H13 H 0.0801 0.3112 0.1411
C10 C 0.2556(4) -0.1249(4) 0.1317(2)
O3 O 0.2608(3) -0.1731(3) 0.23497(15)
loop_
_geom_bond_atom_site_label_1
_geom_bond_atom_site_label_2
_geom_bond_site_symmetry_1
_geom_bond_site_symmetry_2
O1 N1 1_555 1_555
O2 N1 1_555 1_555
C1 H1 1_555 1_555
H2 C1 1_555 1_555
H3 C1 1_555 1_555
N1 C2 1_555 1_555
N2 H4 1_555 1_555
N3 H5 1_555 1_555
C2 C3 1_555 1_555
C3 H6 1_555 1_555
C4 C3 1_555 1_555
H7 C4 1_555 1_555
C5 N2 1_555 1_555
C6 C5 1_555 1_555
H8 C6 1_555 1_555
C7 C2 1_555 1_555
H9 C7 1_555 1_555
C8 N2 1_555 1_555
H10 C8 1_555 1_555
H11 C8 1_555 1_555
C9 N3 1_555 1_555
H12 C9 1_555 1_555
H13 C9 1_555 1_555
C10 C1 1_555 1_555
O3 C10 1_555 1_555
N3 C10 1_555 1_555
C4 C5 1_555 1_555
C6 C7 1_555 1_555
C8 C9 1_555 1_555

#END
