
#######################################################################
#
#                 Cambridge Crystallographic Data Centre
#                                CCDC 
#
#######################################################################
#
# If this CIF has been generated from an entry in the Cambridge 
# Structural Database, then it will include bibliographic, chemical, 
# crystal, experimental, refinement or atomic coordinate data resulting 
# from the CCDC's data processing and validation procedures.
#
#######################################################################

data_OCALEM
_chemical_formula_moiety         'C18 H18 Br1 N3 O2'
_chemical_name_systematic        
1-(3-(4-bromophenyl)-2-methyl-6-phenyl-2,3-dihydro-1,2,4,5-oxatriazepin-4(7H)-yl)ethanone
_symmetry_cell_setting           orthorhombic
_symmetry_space_group_name_H-M   'P 21 21 21'
_symmetry_Int_Tables_number      19
_space_group_name_Hall           'P 2ac 2ab'
loop_
_symmetry_equiv_pos_site_id
_symmetry_equiv_pos_as_xyz
1 x,y,z
2 1/2-x,-y,1/2+z
3 -x,1/2+y,1/2-z
4 1/2+x,1/2-y,-z
_cell_length_a                   7.8973(18)
_cell_length_b                   8.990(2)
_cell_length_c                   24.111(5)
_cell_angle_alpha                90
_cell_angle_beta                 90
_cell_angle_gamma                90
_cell_volume                     1711.8
_exptl_crystal_colour            colorless
_exptl_crystal_description       block
_cell_formula_units_Z            4
loop_
_atom_site_label
_atom_site_type_symbol
_atom_site_fract_x
_atom_site_fract_y
_atom_site_fract_z
Br1 Br -0.19818(5) 0.59934(5) 0.765594(16)
C1 C 0.0054(5) 0.6651(4) 0.79958(14)
C2 C 0.0027(5) 0.7697(3) 0.84086(14)
H1 H -0.0992 0.8112 0.8524
C3 C 0.1534(4) 0.8129(3) 0.86527(13)
H2 H 0.1518 0.8858 0.8926
C4 C 0.3056(5) 0.7505(3) 0.84998(12)
C5 C 0.3045(5) 0.6446(3) 0.80792(13)
H3 H 0.4064 0.6020 0.7969
C6 C 0.1568(4) 0.6007(4) 0.78205(13)
H4 H 0.1583 0.5304 0.7538
C7 C 0.4745(4) 0.7932(3) 0.87498(13)
H5 H 0.5605 0.7708 0.8469
C8 C 0.4557(4) 0.9885(3) 0.98307(13)
C9 C 0.4390(5) 0.8310(3) 1.00488(13)
H6 H 0.5474 0.7995 1.0197
H7 H 0.3579 0.8303 1.0351
C10 C 0.5444(6) 0.5534(3) 0.91586(16)
H8 H 0.5815 0.5071 0.9496
H9 H 0.6268 0.5364 0.8873
H10 H 0.4377 0.5115 0.9048
C11 C 0.5096(5) 1.0397(3) 0.83841(14)
C12 C 0.5109(6) 1.2075(3) 0.84410(16)
H11 H 0.5265 1.2519 0.8082
H12 H 0.6018 1.2369 0.8681
H13 H 0.4051 1.2401 0.8595
C13 C 0.4542(4) 1.1061(4) 1.02637(12)
C14 C 0.3933(5) 1.2472(4) 1.01441(15)
H14 H 0.3521 1.2678 0.9791
C15 C 0.3930(6) 1.3580(4) 1.05446(18)
H15 H 0.3506 1.4518 1.0460
C16 C 0.4550(6) 1.3295(4) 1.10626(17)
H16 H 0.4566 1.4045 1.1328
C17 C 0.5152(6) 1.1899(4) 1.11924(16)
H17 H 0.5561 1.1699 1.1546
C18 C 0.5142(5) 1.0804(4) 1.07942(15)
H18 H 0.5549 0.9863 1.0884
N1 N 0.4843(4) 0.9561(2) 0.88539(11)
N2 N 0.4706(4) 1.0356(3) 0.93378(11)
N3 N 0.5247(4) 0.7146(3) 0.92488(11)
O1 O 0.3864(3) 0.7273(2) 0.96399(9)
O2 O 0.5267(4) 0.9787(2) 0.79381(10)
loop_
_geom_bond_atom_site_label_1
_geom_bond_atom_site_label_2
_geom_bond_site_symmetry_1
_geom_bond_site_symmetry_2
Br1 C1 1_555 1_555
C1 C2 1_555 1_555
C2 H1 1_555 1_555
C3 C2 1_555 1_555
H2 C3 1_555 1_555
C4 C3 1_555 1_555
C5 C4 1_555 1_555
H3 C5 1_555 1_555
C6 C1 1_555 1_555
H4 C6 1_555 1_555
C7 C4 1_555 1_555
H5 C7 1_555 1_555
C8 C9 1_555 1_555
C9 H6 1_555 1_555
H7 C9 1_555 1_555
C10 H8 1_555 1_555
H9 C10 1_555 1_555
H10 C10 1_555 1_555
C11 C12 1_555 1_555
C12 H11 1_555 1_555
H12 C12 1_555 1_555
H13 C12 1_555 1_555
C13 C8 1_555 1_555
C14 C13 1_555 1_555
H14 C14 1_555 1_555
C15 C14 1_555 1_555
H15 C15 1_555 1_555
C16 C15 1_555 1_555
H16 C16 1_555 1_555
C17 C16 1_555 1_555
H17 C17 1_555 1_555
C18 C13 1_555 1_555
H18 C18 1_555 1_555
N1 C7 1_555 1_555
N2 C8 1_555 1_555
N3 C7 1_555 1_555
O1 C9 1_555 1_555
O2 C11 1_555 1_555
C5 C6 1_555 1_555
C10 N3 1_555 1_555
C11 N1 1_555 1_555
C17 C18 1_555 1_555
N1 N2 1_555 1_555
N3 O1 1_555 1_555

#END
