
#######################################################################
#
#                 Cambridge Crystallographic Data Centre
#                                CCDC 
#
#######################################################################
#
# If this CIF has been generated from an entry in the Cambridge 
# Structural Database, then it will include bibliographic, chemical, 
# crystal, experimental, refinement or atomic coordinate data resulting 
# from the CCDC's data processing and validation procedures.
#
#######################################################################

data_OCALUA
_chemical_formula_moiety         'C20 H15 N3 O6,C3 H7 N1 O1'
_chemical_name_systematic        
'Methyl 2-amino-4-(3-nitrophenyl)-5-oxo-5,6-dihydro-4H-pyrano(3,2-c)quinoline-3-carboxylate dimethylformamide solvate'
_symmetry_cell_setting           triclinic
_symmetry_space_group_name_H-M   'P -1'
_symmetry_Int_Tables_number      2
_space_group_name_Hall           '-P 1'
loop_
_symmetry_equiv_pos_site_id
_symmetry_equiv_pos_as_xyz
1 x,y,z
2 -x,-y,-z
_cell_length_a                   8.2160(10)
_cell_length_b                   11.695(2)
_cell_length_c                   12.204(2)
_cell_angle_alpha                77.440(10)
_cell_angle_beta                 89.000(10)
_cell_angle_gamma                78.400(10)
_cell_volume                     1120.77
_exptl_crystal_colour            colorless
_exptl_crystal_description       block
_chemical_melting_point          '541-542 K'
_cell_formula_units_Z            2
loop_
_atom_site_label
_atom_site_type_symbol
_atom_site_fract_x
_atom_site_fract_y
_atom_site_fract_z
O1 O 0.36752(15) 0.58282(11) 0.78986(11)
O2 O 0.84405(15) 0.64142(11) 0.96745(12)
O3 O 0.6812(3) 0.9026(2) 0.36326(15)
O4 O 0.5495(3) 0.7678(2) 0.43762(15)
O5 O 0.33116(17) 0.95581(12) 0.88630(11)
O6 O 0.09121(17) 0.91405(13) 0.83719(13)
N1 N 0.83069(18) 0.45841(13) 0.93814(12)
H1 H 0.9257 0.4297 0.9721
N2 N 0.1172(2) 0.6990(2) 0.77310(18)
N3 N 0.6269(3) 0.8436(2) 0.44442(16)
C1 C 0.5242(2) 0.54577(16) 0.83970(14)
C2 C 0.5955(2) 0.42157(16) 0.84772(14)
C3 C 0.5194(3) 0.34083(18) 0.80744(17)
H2 H 0.4121 0.3657 0.7766
C4 C 0.6027(3) 0.22579(19) 0.81353(18)
H3 H 0.5522 0.1729 0.7861
C5 C 0.7627(3) 0.18751(18) 0.86062(17)
H4 H 0.8187 0.1094 0.8636
C6 C 0.8384(3) 0.26355(16) 0.90256(16)
H5 H 0.9446 0.2369 0.9351
C7 C 0.7554(2) 0.38131(15) 0.89631(14)
C8 C 0.7661(2) 0.57668(16) 0.92980(14)
C9 C 0.6040(2) 0.62190(15) 0.87456(14)
C10 C 0.5317(2) 0.75358(15) 0.85392(14)
H6 H 0.5546 0.7826 0.9204
C11 C 0.3450(2) 0.77419(17) 0.83628(15)
C12 C 0.2752(2) 0.69144(18) 0.80190(15)
C13 C 0.6123(2) 0.82126(15) 0.75298(15)
C14 C 0.7132(2) 0.89947(17) 0.76360(17)
H7 H 0.7350 0.9109 0.8345
C15 C 0.7827(3) 0.9612(2) 0.6712(2)
H8 H 0.8496 1.0140 0.6806
C16 C 0.7535(3) 0.94508(19) 0.56550(19)
H9 H 0.7987 0.9868 0.5026
C17 C 0.6556(2) 0.86538(18) 0.55596(16)
C18 C 0.5845(2) 0.80423(16) 0.64651(15)
H10 H 0.5178 0.7515 0.6366
C19 C 0.2419(2) 0.88482(18) 0.85158(16)
C20 C 0.2391(3) 1.06824(19) 0.90588(19)
H11 H 0.1851 1.1158 0.8371
H12 H 0.3139 1.1103 0.9323
H13 H 0.1570 1.0533 0.9612
H14 H 0.093(3) 0.638(2) 0.7570(18)
H15 H 0.053(3) 0.760(2) 0.7833(19)
N4 N -0.1277(11) 0.4049(7) 0.5935(10)
O7 O -0.0227(13) 0.5242(9) 0.6879(14)
C21 C -0.0219(10) 0.4323(7) 0.6571(5)
H16 H 0.0692 0.3712 0.6829
C22 C -0.2744(10) 0.4887(6) 0.5504(9)
H17 H -0.3693 0.4623 0.5864
H18 H -0.2843 0.4952 0.4710
H19 H -0.2688 0.5653 0.5648
C23 C -0.1044(12) 0.2899(6) 0.5682(6)
H20 H -0.0076 0.2392 0.6083
H21 H -0.0899 0.2969 0.4890
H22 H -0.2001 0.2557 0.5903
N5? N -0.119(2) 0.4123(14) 0.599(2)
O8? O 0.030(2) 0.496(2) 0.688(3)
C24? C -0.1063(14) 0.5139(14) 0.6439(10)
H23? H -0.1887 0.5823 0.6393
C25? C -0.0026(19) 0.3111(12) 0.6035(12)
H24? H -0.0483 0.2428 0.6377
H25? H 0.0924 0.3133 0.6470
H26? H 0.0303 0.3054 0.5287
C26? C -0.266(2) 0.4268(14) 0.5355(18)
H27? H -0.2387 0.4101 0.4631
H28? H -0.3274 0.5076 0.5264
H29? H -0.3332 0.3727 0.5736
loop_
_geom_bond_atom_site_label_1
_geom_bond_atom_site_label_2
_geom_bond_site_symmetry_1
_geom_bond_site_symmetry_2
O1 C1 1_555 1_555
O2 C8 1_555 1_555
O3 N3 1_555 1_555
O4 N3 1_555 1_555
O5 C19 1_555 1_555
O6 C19 1_555 1_555
N1 H1 1_555 1_555
N2 C12 1_555 1_555
N3 C17 1_555 1_555
C1 C2 1_555 1_555
C2 C3 1_555 1_555
C3 H2 1_555 1_555
C4 C3 1_555 1_555
H3 C4 1_555 1_555
C5 C4 1_555 1_555
H4 C5 1_555 1_555
C6 C5 1_555 1_555
H5 C6 1_555 1_555
C7 N1 1_555 1_555
C8 N1 1_555 1_555
C9 C1 1_555 1_555
C10 C9 1_555 1_555
H6 C10 1_555 1_555
C11 C10 1_555 1_555
C12 O1 1_555 1_555
C13 C10 1_555 1_555
C14 C13 1_555 1_555
H7 C14 1_555 1_555
C15 C14 1_555 1_555
H8 C15 1_555 1_555
C16 C15 1_555 1_555
H9 C16 1_555 1_555
C17 C16 1_555 1_555
C18 C13 1_555 1_555
H10 C18 1_555 1_555
C19 C11 1_555 1_555
C20 O5 1_555 1_555
H11 C20 1_555 1_555
H12 C20 1_555 1_555
H13 C20 1_555 1_555
H14 N2 1_555 1_555
H15 N2 1_555 1_555
N4 C21 1_555 1_555
O7 C21 1_555 1_555
C21 H16 1_555 1_555
C22 N4 1_555 1_555
H17 C22 1_555 1_555
H18 C22 1_555 1_555
H19 C22 1_555 1_555
C23 N4 1_555 1_555
H20 C23 1_555 1_555
H21 C23 1_555 1_555
H22 C23 1_555 1_555
C2 C7 1_555 1_555
C6 C7 1_555 1_555
C8 C9 1_555 1_555
C11 C12 1_555 1_555
C17 C18 1_555 1_555

#END
