
#######################################################################
#
#                 Cambridge Crystallographic Data Centre
#                                CCDC 
#
#######################################################################
#
# If this CIF has been generated from an entry in the Cambridge 
# Structural Database, then it will include bibliographic, chemical, 
# crystal, experimental, refinement or atomic coordinate data resulting 
# from the CCDC's data processing and validation procedures.
#
#######################################################################

data_OCALOV
_chemical_formula_moiety         'C46 H80 O3'
_chemical_name_systematic        '11-Hydroxyurs-12-en-3-yl palmitate'
_symmetry_cell_setting           monoclinic
_symmetry_space_group_name_H-M   'P 21'
_symmetry_Int_Tables_number      4
_space_group_name_Hall           'P 2yb'
loop_
_symmetry_equiv_pos_site_id
_symmetry_equiv_pos_as_xyz
1 x,y,z
2 -x,1/2+y,-z
_cell_length_a                   11.389(2)
_cell_length_b                   15.714(3)
_cell_length_c                   11.766(2)
_cell_angle_alpha                90
_cell_angle_beta                 98.925(3)
_cell_angle_gamma                90
_cell_volume                     2080.23
_exptl_crystal_colour            colorless
_exptl_crystal_description       block
_cell_formula_units_Z            2
loop_
_atom_site_label
_atom_site_type_symbol
_atom_site_fract_x
_atom_site_fract_y
_atom_site_fract_z
O1 O 0.7358(2) 0.09757(13) 0.56526(16)
O2 O 0.66023(16) 0.51467(12) 0.64282(16)
O3 O 0.48079(18) 0.51257(14) 0.53336(17)
C1 C 0.7086(2) 0.27759(15) 0.6092(2)
H1 H 0.7494 0.2468 0.5531
H2 H 0.6248 0.2584 0.5980
C2 C 0.7121(2) 0.37373(16) 0.5849(2)
H3 H 0.7958 0.3925 0.5903
H4 H 0.6716 0.3853 0.5057
C3 C 0.6522(2) 0.42345(17) 0.6692(2)
H5 H 0.5664 0.4069 0.6590
C4 C 0.7061(2) 0.41063(16) 0.7958(2)
C5 C 0.7115(2) 0.31251(16) 0.8183(2)
H6 H 0.6264 0.2944 0.8085
C6 C 0.7608(2) 0.28945(16) 0.9424(2)
H7 H 0.7300 0.3299 0.9952
H8 H 0.8485 0.2940 0.9545
C7 C 0.7248(2) 0.19890(16) 0.9696(2)
H9 H 0.6374 0.1967 0.9651
H10 H 0.7605 0.1850 1.0496
C8 C 0.76315(19) 0.13074(16) 0.8885(2)
C9 C 0.73602(19) 0.15932(16) 0.76015(19)
H11 H 0.6476 0.1558 0.7394
C10 C 0.7685(2) 0.25440(16) 0.7329(2)
C11 C 0.7853(2) 0.09126(17) 0.6844(2)
H12 H 0.8727 0.1016 0.6903
C12 C 0.7700(2) 0.00159(16) 0.7251(2)
H13 H 0.7920 -0.0427 0.6775
C13 C 0.72899(19) -0.02268(15) 0.8202(2)
C14 C 0.6930(2) 0.04465(16) 0.9029(2)
C15 C 0.7157(2) 0.01434(17) 1.0297(2)
H14 H 0.7993 0.0270 1.0626
H15 H 0.6641 0.0473 1.0740
C16 C 0.6926(2) -0.08099(17) 1.0454(2)
H16 H 0.6064 -0.0922 1.0249
H17 H 0.7164 -0.0962 1.1273
C17 C 0.7605(2) -0.13792(17) 0.9712(2)
C18 C 0.7145(2) -0.11755(16) 0.8435(2)
H18 H 0.7681 -0.1483 0.7976
C19 C 0.5867(2) -0.15270(16) 0.8029(2)
H19 H 0.5315 -0.1230 0.8482
C20 C 0.5810(2) -0.24905(17) 0.8281(2)
H20 H 0.6385 -0.2786 0.7854
C21 C 0.6193(2) -0.26572(17) 0.9567(2)
H21 H 0.5630 -0.2375 1.0008
H22 H 0.6170 -0.3276 0.9717
C22 C 0.7438(2) -0.23238(18) 0.9970(2)
H23 H 0.8006 -0.2661 0.9596
H24 H 0.7638 -0.2414 1.0810
C23 C 0.8264(2) 0.45627(17) 0.8259(2)
H25 H 0.8791 0.4389 0.7716
H26 H 0.8628 0.4410 0.9042
H27 H 0.8142 0.5180 0.8209
C24 C 0.6193(2) 0.45184(18) 0.8686(3)
H28 H 0.6090 0.5122 0.8485
H29 H 0.6516 0.4465 0.9505
H30 H 0.5422 0.4229 0.8531
C25 C 0.9039(2) 0.26877(17) 0.7378(2)
H31 H 0.9380 0.2211 0.7003
H32 H 0.9420 0.2725 0.8182
H33 H 0.9172 0.3218 0.6979
C26 C 0.8995(2) 0.11656(17) 0.9255(2)
H34 H 0.9419 0.1698 0.9165
H35 H 0.9271 0.0725 0.8770
H36 H 0.9150 0.0985 1.0062
C27 C 0.5556(2) 0.05609(17) 0.8704(2)
H37 H 0.5349 0.0629 0.7869
H38 H 0.5304 0.1067 0.9090
H39 H 0.5152 0.0058 0.8949
C28 C 0.8948(2) -0.11911(19) 0.9984(2)
H40 H 0.9383 -0.1596 0.9570
H41 H 0.9215 -0.1248 1.0813
H42 H 0.9101 -0.0610 0.9741
C29 C 0.5451(3) -0.13413(19) 0.6761(2)
H43 H 0.5984 -0.1620 0.6298
H44 H 0.5458 -0.0725 0.6631
H45 H 0.4642 -0.1559 0.6537
C30 C 0.4576(2) -0.28749(19) 0.7892(2)
H46 H 0.4577 -0.3473 0.8127
H47 H 0.4379 -0.2836 0.7053
H48 H 0.3985 -0.2561 0.8248
C31 C 0.5716(2) 0.54980(18) 0.5713(2)
C32 C 0.5993(3) 0.64035(18) 0.5409(2)
H49 H 0.5272 0.6759 0.5379
H50 H 0.6615 0.6639 0.6007
C33 C 0.6418(3) 0.6424(2) 0.4257(3)
H51 H 0.5834 0.6122 0.3687
H52 H 0.7181 0.6113 0.4320
C34 C 0.6596(3) 0.7331(2) 0.3812(3)
H53 H 0.6651 0.7296 0.2982
H54 H 0.5883 0.7672 0.3891
C35 C 0.7677(3) 0.77948(19) 0.4411(2)
H55 H 0.8392 0.7444 0.4376
H56 H 0.7601 0.7874 0.5231
C36 C 0.7836(3) 0.8663(2) 0.3869(3)
H57 H 0.7864 0.8577 0.3040
H58 H 0.7125 0.9012 0.3930
C37 C 0.8925(2) 0.91628(18) 0.4381(2)
H59 H 0.9642 0.8808 0.4367
H60 H 0.8875 0.9296 0.5195
C38 C 0.9052(3) 0.99922(19) 0.3730(3)
H61 H 0.9087 0.9854 0.2915
H62 H 0.8333 1.0342 0.3750
C39 C 1.0140(3) 1.05190(18) 0.4201(3)
H63 H 1.0856 1.0156 0.4244
H64 H 1.0071 1.0704 0.4992
C40 C 1.0300(2) 1.13012(18) 0.3475(3)
H65 H 1.0274 1.1123 0.2665
H66 H 1.1096 1.1547 0.3740
C41 C 0.9365(3) 1.19878(19) 0.3527(3)
H67 H 0.9364 1.2146 0.4341
H68 H 0.8573 1.1750 0.3225
C42 C 0.9563(2) 1.27902(18) 0.2846(2)
H69 H 1.0346 1.3038 0.3156
H70 H 0.9574 1.2635 0.2032
C43 C 0.8604(2) 1.34523(19) 0.2901(3)
H71 H 0.8564 1.3576 0.3719
H72 H 0.7829 1.3208 0.2556
C44 C 0.8783(2) 1.42849(18) 0.2295(2)
H73 H 0.9517 1.4562 0.2686
H74 H 0.8894 1.4162 0.1493
C45 C 0.7755(3) 1.4889(2) 0.2281(3)
H75 H 0.7619 1.4983 0.3082
H76 H 0.7032 1.4618 0.1857
C46 C 0.7929(3) 1.5745(2) 0.1735(3)
H77 H 0.8613 1.6035 0.2178
H78 H 0.7215 1.6093 0.1733
H79 H 0.8072 1.5660 0.0943
H80 H 0.674(3) 0.074(3) 0.554(3)
loop_
_geom_bond_atom_site_label_1
_geom_bond_atom_site_label_2
_geom_bond_site_symmetry_1
_geom_bond_site_symmetry_2
O1 C11 1_555 1_555
O2 C3 1_555 1_555
O3 C31 1_555 1_555
C1 H1 1_555 1_555
H2 C1 1_555 1_555
C2 C1 1_555 1_555
H3 C2 1_555 1_555
H4 C2 1_555 1_555
C3 C2 1_555 1_555
H5 C3 1_555 1_555
C4 C3 1_555 1_555
C5 C4 1_555 1_555
H6 C5 1_555 1_555
C6 C5 1_555 1_555
H7 C6 1_555 1_555
H8 C6 1_555 1_555
C7 C6 1_555 1_555
H9 C7 1_555 1_555
H10 C7 1_555 1_555
C8 C7 1_555 1_555
C9 C8 1_555 1_555
H11 C9 1_555 1_555
C10 C1 1_555 1_555
C11 C9 1_555 1_555
H12 C11 1_555 1_555
C12 C11 1_555 1_555
H13 C12 1_555 1_555
C13 C12 1_555 1_555
C14 C8 1_555 1_555
C15 C14 1_555 1_555
H14 C15 1_555 1_555
H15 C15 1_555 1_555
C16 C15 1_555 1_555
H16 C16 1_555 1_555
H17 C16 1_555 1_555
C17 C16 1_555 1_555
C18 C13 1_555 1_555
H18 C18 1_555 1_555
C19 C18 1_555 1_555
H19 C19 1_555 1_555
C20 C19 1_555 1_555
H20 C20 1_555 1_555
C21 C20 1_555 1_555
H21 C21 1_555 1_555
H22 C21 1_555 1_555
C22 C17 1_555 1_555
H23 C22 1_555 1_555
H24 C22 1_555 1_555
C23 C4 1_555 1_555
H25 C23 1_555 1_555
H26 C23 1_555 1_555
H27 C23 1_555 1_555
C24 C4 1_555 1_555
H28 C24 1_555 1_555
H29 C24 1_555 1_555
H30 C24 1_555 1_555
C25 C10 1_555 1_555
H31 C25 1_555 1_555
H32 C25 1_555 1_555
H33 C25 1_555 1_555
C26 C8 1_555 1_555
H34 C26 1_555 1_555
H35 C26 1_555 1_555
H36 C26 1_555 1_555
C27 C14 1_555 1_555
H37 C27 1_555 1_555
H38 C27 1_555 1_555
H39 C27 1_555 1_555
C28 C17 1_555 1_555
H40 C28 1_555 1_555
H41 C28 1_555 1_555
H42 C28 1_555 1_555
C29 C19 1_555 1_555
H43 C29 1_555 1_555
H44 C29 1_555 1_555
H45 C29 1_555 1_555
C30 C20 1_555 1_555
H46 C30 1_555 1_555
H47 C30 1_555 1_555
H48 C30 1_555 1_555
C31 O2 1_555 1_555
C32 C31 1_555 1_555
H49 C32 1_555 1_555
H50 C32 1_555 1_555
C33 C32 1_555 1_555
H51 C33 1_555 1_555
H52 C33 1_555 1_555
C34 C33 1_555 1_555
H53 C34 1_555 1_555
H54 C34 1_555 1_555
C35 C34 1_555 1_555
H55 C35 1_555 1_555
H56 C35 1_555 1_555
C36 C35 1_555 1_555
H57 C36 1_555 1_555
H58 C36 1_555 1_555
C37 C36 1_555 1_555
H59 C37 1_555 1_555
H60 C37 1_555 1_555
C38 C37 1_555 1_555
H61 C38 1_555 1_555
H62 C38 1_555 1_555
C39 C38 1_555 1_555
H63 C39 1_555 1_555
H64 C39 1_555 1_555
C40 C39 1_555 1_555
H65 C40 1_555 1_555
H66 C40 1_555 1_555
C41 C40 1_555 1_555
H67 C41 1_555 1_555
H68 C41 1_555 1_555
C42 C41 1_555 1_555
H69 C42 1_555 1_555
H70 C42 1_555 1_555
C43 C42 1_555 1_555
H71 C43 1_555 1_555
H72 C43 1_555 1_555
C44 C43 1_555 1_555
H73 C44 1_555 1_555
H74 C44 1_555 1_555
C45 C44 1_555 1_555
H75 C45 1_555 1_555
H76 C45 1_555 1_555
C46 C45 1_555 1_555
H77 C46 1_555 1_555
H78 C46 1_555 1_555
H79 C46 1_555 1_555
H80 O1 1_555 1_555
C5 C10 1_555 1_555
C9 C10 1_555 1_555
C13 C14 1_555 1_555
C17 C18 1_555 1_555
C21 C22 1_555 1_555

#END
