
#######################################################################
#
#                 Cambridge Crystallographic Data Centre
#                                CCDC 
#
#######################################################################
#
# If this CIF has been generated from an entry in the Cambridge 
# Structural Database, then it will include bibliographic, chemical, 
# crystal, experimental, refinement or atomic coordinate data resulting 
# from the CCDC's data processing and validation procedures.
#
#######################################################################

data_OCANIR
_chemical_formula_moiety         'C26 H20 N2 S2'
_chemical_name_systematic        2,2'-Disulfanediylbis(N-benzylideneaniline)
_symmetry_cell_setting           monoclinic
_symmetry_space_group_name_H-M   'P 21/n'
_symmetry_Int_Tables_number      14
_space_group_name_Hall           '-P 2yn'
loop_
_symmetry_equiv_pos_site_id
_symmetry_equiv_pos_as_xyz
1 x,y,z
2 1/2-x,1/2+y,1/2-z
3 -x,-y,-z
4 1/2+x,1/2-y,1/2+z
_cell_length_a                   10.2421(11)
_cell_length_b                   19.672(2)
_cell_length_c                   11.4739(13)
_cell_angle_alpha                90
_cell_angle_beta                 97.1980(10)
_cell_angle_gamma                90
_cell_volume                     2293.57
_exptl_crystal_colour            yellow
_exptl_crystal_description       block
_cell_formula_units_Z            4
loop_
_atom_site_label
_atom_site_type_symbol
_atom_site_fract_x
_atom_site_fract_y
_atom_site_fract_z
N1 N 0.3113(4) 0.0052(2) 0.2975(3)
N2 N -0.1878(4) 0.2777(2) 0.1398(3)
S1 S 0.03931(13) 0.20245(7) 0.22438(11)
S2 S 0.13336(13) 0.11360(7) 0.27203(11)
C1 C -0.0581(4) 0.1836(2) 0.0887(4)
C2 C -0.0300(5) 0.1322(3) 0.0121(4)
H1 H 0.0438 0.1049 0.0310
C3 C -0.1116(6) 0.1215(3) -0.0918(5)
H2 H -0.0924 0.0871 -0.1427
C4 C -0.2203(6) 0.1613(3) -0.1198(5)
H3 H -0.2759 0.1534 -0.1890
C5 C -0.2480(5) 0.2136(3) -0.0457(4)
H4 H -0.3215 0.2409 -0.0659
C6 C -0.1665(5) 0.2255(3) 0.0588(4)
C7 C -0.2390(5) 0.3338(3) 0.1026(4)
H5 H -0.2612 0.3392 0.0220
C8 C -0.2650(5) 0.3901(3) 0.1794(5)
C9 C -0.3206(5) 0.4488(3) 0.1287(6)
H6 H -0.3408 0.4520 0.0476
C10 C -0.3455(6) 0.5022(4) 0.1994(8)
H7 H -0.3823 0.5418 0.1654
C11 C -0.3178(7) 0.4986(3) 0.3175(8)
H8 H -0.3384 0.5349 0.3639
C12 C -0.2592(6) 0.4413(3) 0.3693(6)
H9 H -0.2372 0.4391 0.4503
C13 C -0.2333(6) 0.3868(3) 0.2991(5)
H10 H -0.1942 0.3478 0.3333
C14 C 0.2829(5) 0.1152(2) 0.2100(4)
C15 C 0.3270(6) 0.1690(3) 0.1459(5)
H11 H 0.2761 0.2082 0.1344
C16 C 0.4451(7) 0.1652(3) 0.0993(6)
H12 H 0.4732 0.2015 0.0569
C17 C 0.5212(6) 0.1068(4) 0.1163(7)
H13 H 0.6001 0.1035 0.0843
C18 C 0.4787(6) 0.0531(3) 0.1814(6)
H14 H 0.5296 0.0139 0.1924
C19 C 0.3620(5) 0.0573(3) 0.2299(4)
C20 C 0.3876(5) -0.0331(3) 0.3620(5)
H15 H 0.4779 -0.0266 0.3646
C21 C 0.3406(6) -0.0872(2) 0.4330(4)
C22 C 0.2066(6) -0.1007(3) 0.4311(5)
H16 H 0.1453 -0.0757 0.3819
C23 C 0.1646(6) -0.1507(3) 0.5016(6)
H17 H 0.0752 -0.1598 0.4990
C24 C 0.2532(9) -0.1871(3) 0.5753(6)
H18 H 0.2237 -0.2198 0.6243
C25 C 0.3835(9) -0.1760(3) 0.5775(6)
H19 H 0.4436 -0.2019 0.6263
C26 C 0.4280(6) -0.1253(3) 0.5061(5)
H20 H 0.5178 -0.1175 0.5083
loop_
_geom_bond_atom_site_label_1
_geom_bond_atom_site_label_2
_geom_bond_site_symmetry_1
_geom_bond_site_symmetry_2
N1 C19 1_555 1_555
N2 C6 1_555 1_555
S1 S2 1_555 1_555
S2 C14 1_555 1_555
C1 S1 1_555 1_555
C2 C1 1_555 1_555
H1 C2 1_555 1_555
C3 C2 1_555 1_555
H2 C3 1_555 1_555
C4 C3 1_555 1_555
H3 C4 1_555 1_555
C5 C4 1_555 1_555
H4 C5 1_555 1_555
C6 C1 1_555 1_555
C7 N2 1_555 1_555
H5 C7 1_555 1_555
C8 C7 1_555 1_555
C9 C8 1_555 1_555
H6 C9 1_555 1_555
C10 C9 1_555 1_555
H7 C10 1_555 1_555
C11 C10 1_555 1_555
H8 C11 1_555 1_555
C12 C11 1_555 1_555
H9 C12 1_555 1_555
C13 C8 1_555 1_555
H10 C13 1_555 1_555
C14 C15 1_555 1_555
C15 H11 1_555 1_555
C16 C15 1_555 1_555
H12 C16 1_555 1_555
C17 C16 1_555 1_555
H13 C17 1_555 1_555
C18 C17 1_555 1_555
H14 C18 1_555 1_555
C19 C14 1_555 1_555
C20 N1 1_555 1_555
H15 C20 1_555 1_555
C21 C20 1_555 1_555
C22 C21 1_555 1_555
H16 C22 1_555 1_555
C23 C22 1_555 1_555
H17 C23 1_555 1_555
C24 C23 1_555 1_555
H18 C24 1_555 1_555
C25 C24 1_555 1_555
H19 C25 1_555 1_555
C26 C21 1_555 1_555
H20 C26 1_555 1_555
C5 C6 1_555 1_555
C12 C13 1_555 1_555
C18 C19 1_555 1_555
C25 C26 1_555 1_555

#END
