
#######################################################################
#
#                 Cambridge Crystallographic Data Centre
#                                CCDC 
#
#######################################################################
#
# If this CIF has been generated from an entry in the Cambridge 
# Structural Database, then it will include bibliographic, chemical, 
# crystal, experimental, refinement or atomic coordinate data resulting 
# from the CCDC's data processing and validation procedures.
#
#######################################################################

data_OCANOX
_chemical_formula_moiety         'C15 H12 Br1 Cl1 N2 O2'
_chemical_name_systematic        
N'-[(E)-1-(5-Bromo-2-hydroxyphenyl)ethylidene]-2-chlorobenzohydrazide
_symmetry_cell_setting           monoclinic
_symmetry_space_group_name_H-M   'P 21/n'
_symmetry_Int_Tables_number      14
_space_group_name_Hall           '-P 2yn'
loop_
_symmetry_equiv_pos_site_id
_symmetry_equiv_pos_as_xyz
1 x,y,z
2 1/2-x,1/2+y,1/2-z
3 -x,-y,-z
4 1/2+x,1/2-y,1/2+z
_cell_length_a                   14.861(3)
_cell_length_b                   4.8370(10)
_cell_length_c                   21.310(4)
_cell_angle_alpha                90
_cell_angle_beta                 106.099(4)
_cell_angle_gamma                90
_cell_volume                     1471.75
_exptl_crystal_colour            colorless
_exptl_crystal_description       block
_cell_formula_units_Z            4
loop_
_atom_site_label
_atom_site_type_symbol
_atom_site_fract_x
_atom_site_fract_y
_atom_site_fract_z
Br1 Br 0.10714(4) 0.26900(11) 0.07214(2)
Cl1 Cl 0.30550(9) 0.2243(3) 0.53343(6)
O1 O 0.1050(2) -0.4214(6) 0.45813(14)
O2 O -0.0140(2) -0.3493(7) 0.27979(16)
H1 H 0.0073 -0.2826 0.3163
N1 N 0.1335(2) 0.0122(7) 0.43053(16)
H2 H 0.1565 0.1729 0.4427
N2 N 0.0972(2) -0.0529(7) 0.36469(16)
C1 C 0.2301(3) 0.0827(8) 0.5746(2)
C2 C 0.1587(3) -0.0978(8) 0.5449(2)
C3 C 0.1083(3) -0.2171(8) 0.5835(2)
H3 H 0.0615 -0.3444 0.5651
C4 C 0.1260(4) -0.1510(11) 0.6491(3)
H4 H 0.0914 -0.2340 0.6743
C5 C 0.1939(4) 0.0354(11) 0.6766(2)
H5 H 0.2046 0.0836 0.7203
C6 C 0.2466(3) 0.1522(10) 0.6402(2)
H6 H 0.2935 0.2781 0.6593
C7 C 0.1312(3) -0.1848(8) 0.4744(2)
C8 C 0.1261(3) 0.0878(8) 0.3226(2)
C9 C 0.1998(3) 0.3071(9) 0.3396(2)
H7 H 0.1715 0.4847 0.3275
H8 H 0.2457 0.2737 0.3165
H9 H 0.2294 0.3036 0.3858
C10 C 0.0828(3) 0.0126(8) 0.25362(19)
C11 C 0.1075(3) 0.1475(9) 0.2027(2)
H10 H 0.1523 0.2868 0.2132
C12 C 0.0688(3) 0.0840(10) 0.1384(2)
C13 C 0.0016(3) -0.1209(11) 0.1220(2)
H11 H -0.0257 -0.1645 0.0783
C14 C -0.0251(4) -0.2602(10) 0.1702(3)
H12 H -0.0704 -0.3978 0.1587
C15 C 0.0147(3) -0.1986(9) 0.2358(2)
loop_
_geom_bond_atom_site_label_1
_geom_bond_atom_site_label_2
_geom_bond_site_symmetry_1
_geom_bond_site_symmetry_2
Br1 C12 1_555 1_555
Cl1 C1 1_555 1_555
O1 C7 1_555 1_555
O2 H1 1_555 1_555
N1 H2 1_555 1_555
N2 N1 1_555 1_555
C1 C2 1_555 1_555
C2 C3 1_555 1_555
C3 H3 1_555 1_555
C4 C3 1_555 1_555
H4 C4 1_555 1_555
C5 C4 1_555 1_555
H5 C5 1_555 1_555
C6 C1 1_555 1_555
H6 C6 1_555 1_555
C7 N1 1_555 1_555
C8 N2 1_555 1_555
C9 C8 1_555 1_555
H7 C9 1_555 1_555
H8 C9 1_555 1_555
H9 C9 1_555 1_555
C10 C8 1_555 1_555
C11 C10 1_555 1_555
H10 C11 1_555 1_555
C12 C11 1_555 1_555
C13 C12 1_555 1_555
H11 C13 1_555 1_555
C14 C13 1_555 1_555
H12 C14 1_555 1_555
C15 O2 1_555 1_555
C2 C7 1_555 1_555
C5 C6 1_555 1_555
C10 C15 1_555 1_555
C14 C15 1_555 1_555

#END
