
#######################################################################
#
#                 Cambridge Crystallographic Data Centre
#                                CCDC 
#
#######################################################################
#
# If this CIF has been generated from an entry in the Cambridge 
# Structural Database, then it will include bibliographic, chemical, 
# crystal, experimental, refinement or atomic coordinate data resulting 
# from the CCDC's data processing and validation procedures.
#
#######################################################################

data_OCANOW
_chemical_formula_moiety         'C19 H23 N3 O7 S1'
_chemical_name_systematic        
'Benzaldehyde 1-(2,3,4-tri-O-acetyl-\b-D-xylopyranosyl)thiosemicarbazone'
_symmetry_cell_setting           orthorhombic
_symmetry_space_group_name_H-M   'P 21 21 21'
_symmetry_Int_Tables_number      19
_space_group_name_Hall           'P 2ac 2ab'
loop_
_symmetry_equiv_pos_site_id
_symmetry_equiv_pos_as_xyz
1 x,y,z
2 1/2-x,-y,1/2+z
3 -x,1/2+y,1/2-z
4 1/2+x,1/2-y,-z
_cell_length_a                   8.8789(9)
_cell_length_b                   12.6890(13)
_cell_length_c                   19.506(2)
_cell_angle_alpha                90
_cell_angle_beta                 90
_cell_angle_gamma                90
_cell_volume                     2197.63
_exptl_crystal_colour            colorless
_exptl_crystal_description       block
_cell_formula_units_Z            4
_exptl_crystal_recrystallization_method 'ethyl acetate/petroleum ether'
loop_
_atom_site_label
_atom_site_type_symbol
_atom_site_fract_x
_atom_site_fract_y
_atom_site_fract_z
S1 S 0.06591(9) 0.91157(6) 0.04843(4)
O1 O 0.3260(2) 0.68027(15) 0.08592(11)
O2 O 0.3020(2) 0.41288(17) 0.15746(11)
O3 O 0.5516(3) 0.4026(2) 0.16190(14)
O4 O 0.1600(2) 0.38632(15) 0.03111(11)
O5 O -0.0856(3) 0.37321(19) 0.05722(14)
O6 O 0.0425(2) 0.56884(16) -0.03053(10)
O7 O 0.1764(3) 0.5919(3) -0.12668(13)
N1 N 0.2239(3) 0.75645(18) -0.01022(14)
H1 H 0.2779 0.7365 -0.0444
N2 N 0.2127(3) 0.90937(19) -0.06830(13)
H2 H 0.1814 0.9729 -0.0739
N3 N 0.3030(3) 0.86367(19) -0.11660(13)
C1 C 0.3240(4) 0.6018(2) 0.13752(16)
H3 H 0.2391 0.6136 0.1679
H4 H 0.4156 0.6060 0.1645
C2 C 0.3114(3) 0.4933(2) 0.10518(15)
H5 H 0.3985 0.4801 0.0755
C3 C 0.1689(3) 0.48808(19) 0.06388(15)
H6 H 0.0810 0.4995 0.0934
C4 C 0.1779(3) 0.5724(2) 0.00970(14)
H7 H 0.2642 0.5578 -0.0201
C5 C 0.1986(3) 0.6807(2) 0.04241(16)
H8 H 0.1085 0.6996 0.0687
C6 C 0.4320(4) 0.3704(2) 0.17908(16)
C7 C 0.4055(5) 0.2792(3) 0.2246(2)
H9 H 0.5004 0.2507 0.2392
H10 H 0.3500 0.2262 0.2002
H11 H 0.3488 0.3015 0.2639
C8 C 0.0246(4) 0.3369(2) 0.03212(18)
C9 C 0.0357(6) 0.2327(3) -0.0023(3)
H12 H -0.0607 0.1984 -0.0012
H13 H 0.1085 0.1898 0.0211
H14 H 0.0665 0.2424 -0.0490
C10 C 0.0595(4) 0.5722(3) -0.09928(17)
C11 C -0.0849(5) 0.5530(4) -0.1344(2)
H15 H -0.0702 0.5566 -0.1831
H16 H -0.1566 0.6056 -0.1207
H17 H -0.1220 0.4845 -0.1222
C12 C 0.1728(3) 0.8548(2) -0.01192(16)
C13 C 0.3373(3) 0.9170(2) -0.16893(16)
H18 H 0.2982 0.9845 -0.1742
C14 C 0.4370(3) 0.8743(2) -0.22109(15)
C15 C 0.4844(5) 0.9373(3) -0.27516(19)
H19 H 0.4472 1.0056 -0.2791
C16 C 0.5854(5) 0.9005(4) -0.3232(2)
H20 H 0.6149 0.9440 -0.3591
C17 C 0.6420(5) 0.8020(3) -0.3187(2)
H21 H 0.7105 0.7774 -0.3511
C18 C 0.5966(5) 0.7388(3) -0.2656(2)
H22 H 0.6354 0.6710 -0.2619
C19 C 0.4954(4) 0.7735(2) -0.21777(17)
H23 H 0.4655 0.7287 -0.1826
loop_
_geom_bond_atom_site_label_1
_geom_bond_atom_site_label_2
_geom_bond_site_symmetry_1
_geom_bond_site_symmetry_2
S1 C12 1_555 1_555
O1 C1 1_555 1_555
O2 C2 1_555 1_555
O3 C6 1_555 1_555
O4 C3 1_555 1_555
O5 C8 1_555 1_555
O6 C4 1_555 1_555
O7 C10 1_555 1_555
N1 H1 1_555 1_555
N2 H2 1_555 1_555
N3 N2 1_555 1_555
C1 H3 1_555 1_555
H4 C1 1_555 1_555
C2 C1 1_555 1_555
H5 C2 1_555 1_555
C3 C2 1_555 1_555
H6 C3 1_555 1_555
C4 C3 1_555 1_555
H7 C4 1_555 1_555
C5 O1 1_555 1_555
H8 C5 1_555 1_555
C6 O2 1_555 1_555
C7 C6 1_555 1_555
H9 C7 1_555 1_555
H10 C7 1_555 1_555
H11 C7 1_555 1_555
C8 O4 1_555 1_555
C9 C8 1_555 1_555
H12 C9 1_555 1_555
H13 C9 1_555 1_555
H14 C9 1_555 1_555
C10 O6 1_555 1_555
C11 C10 1_555 1_555
H15 C11 1_555 1_555
H16 C11 1_555 1_555
H17 C11 1_555 1_555
C12 N1 1_555 1_555
C13 N3 1_555 1_555
H18 C13 1_555 1_555
C14 C13 1_555 1_555
C15 C14 1_555 1_555
H19 C15 1_555 1_555
C16 C15 1_555 1_555
H20 C16 1_555 1_555
C17 C16 1_555 1_555
H21 C17 1_555 1_555
C18 C17 1_555 1_555
H22 C18 1_555 1_555
C19 C14 1_555 1_555
H23 C19 1_555 1_555
N1 C5 1_555 1_555
N2 C12 1_555 1_555
C4 C5 1_555 1_555
C18 C19 1_555 1_555

#END
