
#######################################################################
#
#                 Cambridge Crystallographic Data Centre
#                                CCDC 
#
#######################################################################
#
# If this CIF has been generated from an entry in the Cambridge 
# Structural Database, then it will include bibliographic, chemical, 
# crystal, experimental, refinement or atomic coordinate data resulting 
# from the CCDC's data processing and validation procedures.
#
#######################################################################

data_OCASIU
_chemical_formula_moiety         'C24 H18 Cl1 N1 O2'
_chemical_name_systematic        
3-(p-Chlorophenyl)-4-phenyl-4,5-dihydroisoxazole-5-spiro-2'-1',2',3',4'-tetrahydronaphthalen-1'-one
_symmetry_cell_setting           triclinic
_symmetry_space_group_name_H-M   'P -1'
_symmetry_Int_Tables_number      2
_space_group_name_Hall           '-P 1'
loop_
_symmetry_equiv_pos_site_id
_symmetry_equiv_pos_as_xyz
1 x,y,z
2 -x,-y,-z
_cell_length_a                   9.2559(8)
_cell_length_b                   10.9527(9)
_cell_length_c                   11.6466(10)
_cell_angle_alpha                62.867(2)
_cell_angle_beta                 71.010(2)
_cell_angle_gamma                78.653(2)
_cell_volume                     991.934
_exptl_crystal_colour            colorless
_exptl_crystal_description       rectangular
_cell_formula_units_Z            2
_exptl_crystal_recrystallization_method 'hexane/ethyl acetate'
loop_
_atom_site_label
_atom_site_type_symbol
_atom_site_fract_x
_atom_site_fract_y
_atom_site_fract_z
Cl1 Cl 0.6903(2) 0.73628(14) 0.03835(16)
O1 O 0.3169(2) 1.2410(2) 0.3998(2)
O2 O 0.3142(3) 1.4644(3) 0.1147(2)
N1 N 0.3461(3) 1.1339(3) 0.3586(3)
C1 C 0.4198(3) 1.3501(3) 0.3026(3)
C2 C 0.4678(3) 1.1544(3) 0.2614(3)
C3 C 0.5436(3) 1.2848(3) 0.2192(3)
H1 H 0.5529 1.3426 0.1238
C4 C 0.4717(4) 1.4044(4) 0.3807(4)
H2 H 0.5309 1.3322 0.4365
H3 H 0.5376 1.4796 0.3184
C5 C 0.3408(4) 1.4532(4) 0.4663(4)
H4 H 0.2880 1.3742 0.5400
H5 H 0.3800 1.4981 0.5043
C6 C 0.2306(4) 1.5484(4) 0.3968(4)
C7 C 0.1357(6) 1.6373(5) 0.4475(6)
H6 H 0.1428 1.6361 0.5258
C8 C 0.0321(7) 1.7264(6) 0.3841(8)
H7 H -0.0312 1.7847 0.4202
C9 C 0.0198(6) 1.7316(5) 0.2672(7)
H8 H -0.0502 1.7941 0.2240
C10 C 0.1108(4) 1.6443(4) 0.2149(5)
H9 H 0.1014 1.6463 0.1369
C11 C 0.2175(4) 1.5523(3) 0.2786(4)
C12 C 0.3167(3) 1.4598(3) 0.2206(3)
C13 C 0.5241(4) 1.0531(3) 0.2050(3)
C14 C 0.4494(5) 0.9323(4) 0.2608(4)
H10 H 0.3632 0.9164 0.3335
C15 C 0.5023(6) 0.8359(4) 0.2089(5)
H11 H 0.4517 0.7554 0.2465
C16 C 0.6280(6) 0.8587(4) 0.1030(5)
C17 C 0.7043(5) 0.9766(5) 0.0459(5)
H12 H 0.7907 0.9913 -0.0265
C18 C 0.6512(4) 1.0734(4) 0.0975(4)
H13 H 0.7024 1.1537 0.0589
C19 C 0.7000(3) 1.2567(3) 0.2436(3)
C20 C 0.8095(3) 1.3540(3) 0.1633(3)
H14 H 0.7869 1.4342 0.0934
C21 C 0.9513(4) 1.3322(4) 0.1867(4)
H15 H 1.0236 1.3979 0.1326
C22 C 0.9862(4) 1.2138(4) 0.2894(4)
H16 H 1.0824 1.1987 0.3042
C23 C 0.8785(4) 1.1183(4) 0.3700(4)
H17 H 0.9014 1.0387 0.4403
C24 C 0.7363(4) 1.1394(3) 0.3475(3)
H18 H 0.6641 1.0739 0.4030
loop_
_geom_bond_atom_site_label_1
_geom_bond_atom_site_label_2
_geom_bond_site_symmetry_1
_geom_bond_site_symmetry_2
Cl1 C16 1_555 1_555
O1 N1 1_555 1_555
O2 C12 1_555 1_555
N1 C2 1_555 1_555
C1 O1 1_555 1_555
C2 C3 1_555 1_555
C3 C1 1_555 1_555
H1 C3 1_555 1_555
C4 C1 1_555 1_555
H2 C4 1_555 1_555
H3 C4 1_555 1_555
C5 C4 1_555 1_555
H4 C5 1_555 1_555
H5 C5 1_555 1_555
C6 C5 1_555 1_555
C7 C6 1_555 1_555
H6 C7 1_555 1_555
C8 C7 1_555 1_555
H7 C8 1_555 1_555
C9 C8 1_555 1_555
H8 C9 1_555 1_555
C10 C9 1_555 1_555
H9 C10 1_555 1_555
C11 C6 1_555 1_555
C12 C1 1_555 1_555
C13 C2 1_555 1_555
C14 C13 1_555 1_555
H10 C14 1_555 1_555
C15 C14 1_555 1_555
H11 C15 1_555 1_555
C16 C15 1_555 1_555
C17 C16 1_555 1_555
H12 C17 1_555 1_555
C18 C13 1_555 1_555
H13 C18 1_555 1_555
C19 C3 1_555 1_555
C20 C19 1_555 1_555
H14 C20 1_555 1_555
C21 C20 1_555 1_555
H15 C21 1_555 1_555
C22 C21 1_555 1_555
H16 C22 1_555 1_555
C23 C22 1_555 1_555
H17 C23 1_555 1_555
C24 C19 1_555 1_555
H18 C24 1_555 1_555
C10 C11 1_555 1_555
C11 C12 1_555 1_555
C17 C18 1_555 1_555
C23 C24 1_555 1_555

#END
