
#######################################################################
#
#                 Cambridge Crystallographic Data Centre
#                                CCDC 
#
#######################################################################
#
# If this CIF has been generated from an entry in the Cambridge 
# Structural Database, then it will include bibliographic, chemical, 
# crystal, experimental, refinement or atomic coordinate data resulting 
# from the CCDC's data processing and validation procedures.
#
#######################################################################

data_OCAVUL
_chemical_name_common            
'Butyl 3-oxo-1,2-benzothiazole-2(3H)-carboxylate'
_chemical_formula_moiety         'C12 H13 N1 O3 S1'
_chemical_name_systematic        
'Butyl 3-oxo-2,3-dihydrobenzo[d][1,2]thiazole-2-carboxylate'
_symmetry_cell_setting           monoclinic
_symmetry_space_group_name_H-M   'P 21/c'
_symmetry_Int_Tables_number      14
_space_group_name_Hall           '-P 2ybc'
loop_
_symmetry_equiv_pos_site_id
_symmetry_equiv_pos_as_xyz
1 x,y,z
2 -x,1/2+y,1/2-z
3 -x,-y,-z
4 x,1/2-y,1/2+z
_cell_length_a                   11.730(3)
_cell_length_b                   11.925(3)
_cell_length_c                   8.443(2)
_cell_angle_alpha                90
_cell_angle_beta                 95.791(4)
_cell_angle_gamma                90
_cell_volume                     1174.98
_exptl_crystal_colour            colorless
_exptl_crystal_description       prism
_cell_formula_units_Z            4
_exptl_crystal_recrystallization_method cyclohexane
loop_
_atom_site_label
_atom_site_type_symbol
_atom_site_fract_x
_atom_site_fract_y
_atom_site_fract_z
S1 S 0.46675(3) 0.51858(3) 0.70649(4)
O1 O 0.40826(8) 0.82060(8) 0.83392(12)
O2 O 0.25897(8) 0.56323(8) 0.54771(12)
O3 O 0.24088(9) 0.74791(8) 0.59858(13)
N1 N 0.39346(9) 0.64470(9) 0.71407(13)
C1 C 0.56998(11) 0.56720(11) 0.85277(15)
C2 C 0.66483(12) 0.50761(11) 0.92167(17)
H1 H 0.6789 0.4326 0.8912
C3 C 0.73755(12) 0.56198(12) 1.03597(17)
H2 H 0.8024 0.5230 1.0848
C4 C 0.71858(13) 0.67273(13) 1.08206(18)
H3 H 0.7702 0.7075 1.1611
C5 C 0.62513(12) 0.73131(12) 1.01296(16)
H4 H 0.6122 0.8068 1.0423
C6 C 0.54993(11) 0.67727(11) 0.89886(15)
C7 C 0.44594(11) 0.72650(11) 0.81747(15)
C8 C 0.29136(11) 0.66070(11) 0.61571(16)
C9 C 0.16309(12) 0.57154(11) 0.42454(17)
H5 H 0.1843 0.6183 0.3352
H6 H 0.0962 0.6062 0.4681
C10 C 0.13447(12) 0.45390(11) 0.36782(17)
H7 H 0.1160 0.4074 0.4590
H8 H 0.2019 0.4204 0.3242
C11 C 0.03285(13) 0.45355(13) 0.23998(18)
H9 H -0.0345 0.4867 0.2844
H10 H 0.0513 0.5011 0.1498
C12 C 0.00234(15) 0.33608(15) 0.1787(2)
H11 H 0.0677 0.3039 0.1310
H12 H -0.0639 0.3401 0.0983
H13 H -0.0164 0.2887 0.2674
loop_
_geom_bond_atom_site_label_1
_geom_bond_atom_site_label_2
_geom_bond_site_symmetry_1
_geom_bond_site_symmetry_2
S1 N1 1_555 1_555
O1 C7 1_555 1_555
O2 C8 1_555 1_555
O3 C8 1_555 1_555
N1 C7 1_555 1_555
C1 S1 1_555 1_555
C2 C1 1_555 1_555
H1 C2 1_555 1_555
C3 C2 1_555 1_555
H2 C3 1_555 1_555
C4 C3 1_555 1_555
H3 C4 1_555 1_555
C5 C4 1_555 1_555
H4 C5 1_555 1_555
C6 C1 1_555 1_555
C7 C6 1_555 1_555
C8 N1 1_555 1_555
C9 O2 1_555 1_555
H5 C9 1_555 1_555
H6 C9 1_555 1_555
C10 C9 1_555 1_555
H7 C10 1_555 1_555
H8 C10 1_555 1_555
C11 C10 1_555 1_555
H9 C11 1_555 1_555
H10 C11 1_555 1_555
C12 C11 1_555 1_555
H11 C12 1_555 1_555
H12 C12 1_555 1_555
H13 C12 1_555 1_555
C5 C6 1_555 1_555

#END
