
#######################################################################
#
#                 Cambridge Crystallographic Data Centre
#                                CCDC 
#
#######################################################################
#
# If this CIF has been generated from an entry in the Cambridge 
# Structural Database, then it will include bibliographic, chemical, 
# crystal, experimental, refinement or atomic coordinate data resulting 
# from the CCDC's data processing and validation procedures.
#
#######################################################################

data_OCAYIA
_chemical_name_common            'Perfluoronaphthalene tolan'
_chemical_formula_moiety         'C10 F8,C14 H10'
_chemical_name_systematic        'Octafluoronaphthalene diphenylacetylene'
_symmetry_cell_setting           monoclinic
_symmetry_space_group_name_H-M   'P 21/n'
_symmetry_Int_Tables_number      14
_space_group_name_Hall           '-P 2yn'
loop_
_symmetry_equiv_pos_site_id
_symmetry_equiv_pos_as_xyz
1 x,y,z
2 1/2+x,1/2-y,1/2+z
3 -x,-y,-z
4 1/2-x,1/2+y,1/2-z
_cell_length_a                   6.3867(5)
_cell_length_b                   20.9583(17)
_cell_length_c                   7.1413(6)
_cell_angle_alpha                90
_cell_angle_beta                 100.272(5)
_cell_angle_gamma                90
_cell_volume                     940.573
_exptl_crystal_colour            colorless
_exptl_crystal_description       plate
_chemical_melting_point          '389-391 K'
_cell_formula_units_Z            2
_exptl_crystal_recrystallization_method dichloromethane
loop_
_atom_site_label
_atom_site_type_symbol
_atom_site_fract_x
_atom_site_fract_y
_atom_site_fract_z
C1 C 0.7672(2) 0.53654(7) 0.0820(2)
C2 C 0.7345(2) 0.59753(8) 0.0188(2)
C3 C 0.5330(2) 0.61660(7) -0.0772(2)
C4 C 0.3702(2) 0.57402(7) -0.1092(2)
C5 C 0.6033(2) 0.49018(7) 0.04907(19)
F1 F 0.96084(13) 0.52082(4) 0.17969(13)
F2 F 0.89188(15) 0.64062(4) 0.05018(14)
F3 F 0.50495(16) 0.67720(4) -0.13588(14)
F4 F 0.17956(14) 0.59451(4) -0.20188(13)
C5B C 0.3967(2) 0.50982(7) -0.04907(19)
C1B C 0.2328(2) 0.46346(7) -0.0820(2)
C2B C 0.2655(2) 0.40247(8) -0.0188(2)
C3B C 0.4670(2) 0.38340(7) 0.0772(2)
C4B C 0.6298(2) 0.42598(7) 0.1092(2)
F4B F 0.82044(14) 0.40549(4) 0.20188(13)
F3B F 0.49505(16) 0.32280(4) 0.13588(14)
F2B F 0.10812(15) 0.35938(4) -0.05018(14)
F1B F 0.03916(13) 0.47918(4) -0.17969(13)
C6 C 0.5356(2) 0.59483(7) 0.4509(2)
C7 C 0.7392(2) 0.62249(7) 0.4887(2)
H1 H 0.858(3) 0.5953(8) 0.537(3)
C8 C 0.7646(3) 0.68675(8) 0.4523(2)
H2 H 0.905(3) 0.7047(9) 0.482(3)
C9 C 0.5890(3) 0.72411(8) 0.3793(2)
H3 H 0.604(3) 0.7681(9) 0.352(2)
C10 C 0.3869(3) 0.69709(8) 0.3428(2)
H4 H 0.269(3) 0.7235(8) 0.290(2)
C11 C 0.3593(2) 0.63280(7) 0.3772(2)
H5 H 0.221(3) 0.6144(9) 0.354(3)
C12 C 0.5097(2) 0.52796(7) 0.4854(2)
C12B C 0.4903(2) 0.47204(7) 0.5146(2)
C6B C 0.4644(2) 0.40517(7) 0.5491(2)
C7B C 0.2608(2) 0.37751(7) 0.5113(2)
H1B H 0.142(3) 0.4047(8) 0.463(3)
C8B C 0.2354(3) 0.31325(8) 0.5477(2)
H2B H 0.095(3) 0.2953(9) 0.518(3)
C9B C 0.4110(3) 0.27589(8) 0.6207(2)
H3B H 0.396(3) 0.2319(9) 0.648(2)
C10B C 0.6131(3) 0.30291(8) 0.6572(2)
H4B H 0.731(3) 0.2765(8) 0.710(2)
C11B C 0.6407(2) 0.36720(7) 0.6228(2)
H5B H 0.779(3) 0.3856(9) 0.646(3)
loop_
_geom_bond_atom_site_label_1
_geom_bond_atom_site_label_2
_geom_bond_site_symmetry_1
_geom_bond_site_symmetry_2
C1 C2 1_555 1_555
C2 C3 1_555 1_555
C3 C4 1_555 1_555
C4 F4 1_555 1_555
C5 C1 1_555 1_555
F1 C1 1_555 1_555
F2 C2 1_555 1_555
F3 C3 1_555 1_555
C6 C7 1_555 1_555
C7 H1 1_555 1_555
C8 C7 1_555 1_555
H2 C8 1_555 1_555
C9 C8 1_555 1_555
H3 C9 1_555 1_555
C10 C9 1_555 1_555
H4 C10 1_555 1_555
C11 C6 1_555 1_555
H5 C11 1_555 1_555
C12 C6 1_555 1_555
C5B C4 1_555 1_555
C1B C5B 1_555 1_555
C2B C1B 1_555 1_555
C3B C2B 1_555 1_555
C4B C5 1_555 1_555
F4B C4B 1_555 1_555
F3B C3B 1_555 1_555
F2B C2B 1_555 1_555
F1B C1B 1_555 1_555
C12B C12 1_555 1_555
C6B C12B 1_555 1_555
C7B C6B 1_555 1_555
H1B C7B 1_555 1_555
C8B C7B 1_555 1_555
H2B C8B 1_555 1_555
C9B C8B 1_555 1_555
H3B C9B 1_555 1_555
C10B C9B 1_555 1_555
H4B C10B 1_555 1_555
C11B C6B 1_555 1_555
H5B C11B 1_555 1_555
C5 C5B 1_555 1_555
C10 C11 1_555 1_555
C3B C4B 1_555 1_555
C10B C11B 1_555 1_555

#END
