
#######################################################################
#
#                 Cambridge Crystallographic Data Centre
#                                CCDC 
#
#######################################################################
#
# If this CIF has been generated from an entry in the Cambridge 
# Structural Database, then it will include bibliographic, chemical, 
# crystal, experimental, refinement or atomic coordinate data resulting 
# from the CCDC's data processing and validation procedures.
#
#######################################################################

data_OCAYEZ
_chemical_formula_moiety         'C18 H16 O1 S1'
_chemical_name_systematic        7-t-butyl[1]benzothieno[3,2-b][1]benzofuran
_symmetry_cell_setting           monoclinic
_symmetry_space_group_name_H-M   'P 21/c'
_symmetry_Int_Tables_number      14
_space_group_name_Hall           '-P 2ybc'
loop_
_symmetry_equiv_pos_site_id
_symmetry_equiv_pos_as_xyz
1 x,y,z
2 -x,1/2+y,1/2-z
3 -x,-y,-z
4 x,1/2-y,1/2+z
_cell_length_a                   11.939(5)
_cell_length_b                   5.977(3)
_cell_length_c                   19.793(9)
_cell_angle_alpha                90
_cell_angle_beta                 101.211(6)
_cell_angle_gamma                90
_cell_volume                     1385.46
_exptl_crystal_colour            colorless
_exptl_crystal_description       plate
_cell_formula_units_Z            4
loop_
_atom_site_label
_atom_site_type_symbol
_atom_site_fract_x
_atom_site_fract_y
_atom_site_fract_z
S1 S 0.51878(3) 0.16492(7) 0.57702(2)
O1 O 0.33500(9) 0.69343(19) 0.57018(6)
C1 C 0.51435(13) 0.5407(3) 0.64811(8)
C2 C 0.54938(14) 0.6934(3) 0.70166(9)
H1 H 0.5104 0.8275 0.7031
C3 C 0.64288(15) 0.6416(3) 0.75236(9)
H2 H 0.6664 0.7417 0.7883
C4 C 0.70240(14) 0.4417(3) 0.75054(9)
H3 H 0.7650 0.4108 0.7852
C5 C 0.66987(14) 0.2888(3) 0.69810(9)
H4 H 0.7099 0.1558 0.6971
C6 C 0.57564(13) 0.3386(3) 0.64672(8)
C7 C 0.41228(13) 0.3594(3) 0.54886(8)
C8 C 0.31246(13) 0.3909(3) 0.49603(8)
C9 C 0.25357(14) 0.2758(3) 0.43877(8)
H5 H 0.2810 0.1404 0.4255
C10 C 0.15354(14) 0.3669(3) 0.40212(8)
H6 H 0.1148 0.2904 0.3637
C11 C 0.10762(13) 0.5700(3) 0.42033(8)
C12 C 0.16819(13) 0.6893(3) 0.47608(8)
H7 H 0.1420 0.8266 0.4887
C13 C 0.26854(13) 0.5973(3) 0.51208(8)
C14 C 0.42145(13) 0.5409(3) 0.59060(8)
C15 C -0.00581(13) 0.6577(3) 0.37839(8)
C16 C 0.01830(15) 0.7732(3) 0.31349(8)
H8 H 0.0671 0.8999 0.3265
H9 H -0.0523 0.8222 0.2855
H10 H 0.0552 0.6697 0.2878
C17 C -0.06271(14) 0.8248(3) 0.41970(9)
H11 H -0.0718 0.7574 0.4623
H12 H -0.1362 0.8660 0.3935
H13 H -0.0158 0.9559 0.4291
C18 C -0.09009(14) 0.4648(3) 0.35661(9)
H14 H -0.0596 0.3649 0.3267
H15 H -0.1617 0.5239 0.3327
H16 H -0.1017 0.3848 0.3968
loop_
_geom_bond_atom_site_label_1
_geom_bond_atom_site_label_2
_geom_bond_site_symmetry_1
_geom_bond_site_symmetry_2
S1 C6 1_555 1_555
O1 C13 1_555 1_555
C1 C2 1_555 1_555
C2 H1 1_555 1_555
C3 C2 1_555 1_555
H2 C3 1_555 1_555
C4 C3 1_555 1_555
H3 C4 1_555 1_555
C5 C4 1_555 1_555
H4 C5 1_555 1_555
C6 C1 1_555 1_555
C7 S1 1_555 1_555
C8 C7 1_555 1_555
C9 C8 1_555 1_555
H5 C9 1_555 1_555
C10 C9 1_555 1_555
H6 C10 1_555 1_555
C11 C10 1_555 1_555
C12 C11 1_555 1_555
H7 C12 1_555 1_555
C13 C8 1_555 1_555
C14 O1 1_555 1_555
C15 C11 1_555 1_555
C16 C15 1_555 1_555
H8 C16 1_555 1_555
H9 C16 1_555 1_555
H10 C16 1_555 1_555
C17 C15 1_555 1_555
H11 C17 1_555 1_555
H12 C17 1_555 1_555
H13 C17 1_555 1_555
C18 C15 1_555 1_555
H14 C18 1_555 1_555
H15 C18 1_555 1_555
H16 C18 1_555 1_555
C1 C14 1_555 1_555
C5 C6 1_555 1_555
C7 C14 1_555 1_555
C12 C13 1_555 1_555

#END
