
#######################################################################
#
#                 Cambridge Crystallographic Data Centre
#                                CCDC 
#
#######################################################################
#
# If this CIF has been generated from an entry in the Cambridge 
# Structural Database, then it will include bibliographic, chemical, 
# crystal, experimental, refinement or atomic coordinate data resulting 
# from the CCDC's data processing and validation procedures.
#
#######################################################################

data_OCAYEY
_chemical_name_common            
(E,E)-bis(1-(3-Chlorophenyl)ethylidene)hydrazine
_chemical_formula_moiety         'C16 H14 Cl2 N2'
_chemical_name_systematic        
(1E,2E)-1,2-bis(1-(3-Chlorophenyl)ethylidene)hydrazine
_symmetry_cell_setting           monoclinic
_symmetry_space_group_name_H-M   'P 21/c'
_symmetry_Int_Tables_number      14
_space_group_name_Hall           '-P 2ybc'
loop_
_symmetry_equiv_pos_site_id
_symmetry_equiv_pos_as_xyz
1 x,y,z
2 -x,1/2+y,1/2-z
3 -x,-y,-z
4 x,1/2-y,1/2+z
_cell_length_a                   10.7796(18)
_cell_length_b                   5.2725(9)
_cell_length_c                   15.3427(18)
_cell_angle_alpha                90
_cell_angle_beta                 121.540(8)
_cell_angle_gamma                90
_cell_volume                     743.192
_exptl_crystal_colour            yellow
_exptl_crystal_description       block
_chemical_melting_point          '356-358 K'
_cell_formula_units_Z            2
_exptl_crystal_recrystallization_method acetone
loop_
_atom_site_label
_atom_site_type_symbol
_atom_site_fract_x
_atom_site_fract_y
_atom_site_fract_z
Cl1 Cl 0.49474(7) 0.23824(14) 0.85934(6)
N1 N 0.0247(2) 0.5365(4) 0.96753(14)
C1 C 0.1907(2) 0.4809(4) 0.91400(14)
C2 C 0.3036(2) 0.3431(4) 0.91724(16)
H1 H 0.3438 0.2045 0.9607
C3 C 0.3550(2) 0.4148(4) 0.85517(16)
C4 C 0.2988(2) 0.6198(5) 0.78983(17)
H2 H 0.3353 0.6655 0.7490
C5 C 0.1869(3) 0.7552(4) 0.78659(19)
H3 H 0.1476 0.8939 0.7430
C6 C 0.1324(2) 0.6875(4) 0.84733(16)
H4 H 0.0565 0.7801 0.8438
C7 C 0.1350(2) 0.4107(4) 0.98120(15)
C8 C 0.2087(3) 0.2056(6) 1.0585(2)
H5 H 0.1613 0.1850 1.0964
H6 H 0.3088 0.2501 1.1045
H7 H 0.2034 0.0496 1.0245
Cl1B Cl -0.49474(7) 0.76176(14) 1.14066(6)
N1B N -0.0247(2) 0.4635(4) 1.03247(14)
C1B C -0.1907(2) 0.5191(4) 1.08600(14)
C2B C -0.3036(2) 0.6569(4) 1.08276(16)
H1B H -0.3438 0.7955 1.0393
C3B C -0.3550(2) 0.5852(4) 1.14483(16)
C4B C -0.2988(2) 0.3802(5) 1.21017(17)
H2B H -0.3353 0.3345 1.2510
C5B C -0.1869(3) 0.2448(4) 1.21341(19)
H3B H -0.1476 0.1061 1.2570
C6B C -0.1324(2) 0.3125(4) 1.15267(16)
H4B H -0.0565 0.2199 1.1562
C7B C -0.1350(2) 0.5893(4) 1.01880(15)
C8B C -0.2087(3) 0.7944(6) 0.9415(2)
H5B H -0.1613 0.8150 0.9036
H6B H -0.3088 0.7499 0.8955
H7B H -0.2034 0.9504 0.9755
loop_
_geom_bond_atom_site_label_1
_geom_bond_atom_site_label_2
_geom_bond_site_symmetry_1
_geom_bond_site_symmetry_2
Cl1 C3 1_555 1_555
N1 C7 1_555 1_555
C1 C2 1_555 1_555
C2 H1 1_555 1_555
C3 C2 1_555 1_555
C4 C3 1_555 1_555
H2 C4 1_555 1_555
C5 C4 1_555 1_555
H3 C5 1_555 1_555
C6 C1 1_555 1_555
H4 C6 1_555 1_555
C7 C1 1_555 1_555
C8 C7 1_555 1_555
H5 C8 1_555 1_555
H6 C8 1_555 1_555
H7 C8 1_555 1_555
Cl1B C3B 1_555 1_555
N1B N1 1_555 1_555
C1B C2B 1_555 1_555
C2B H1B 1_555 1_555
C3B C2B 1_555 1_555
C4B C3B 1_555 1_555
H2B C4B 1_555 1_555
C5B C4B 1_555 1_555
H3B C5B 1_555 1_555
C6B C1B 1_555 1_555
H4B C6B 1_555 1_555
C7B N1B 1_555 1_555
C8B C7B 1_555 1_555
H5B C8B 1_555 1_555
H6B C8B 1_555 1_555
H7B C8B 1_555 1_555
C5 C6 1_555 1_555
C1B C7B 1_555 1_555
C5B C6B 1_555 1_555

#END
