
#######################################################################
#
#                 Cambridge Crystallographic Data Centre
#                                CCDC 
#
#######################################################################
#
# If this CIF has been generated from an entry in the Cambridge 
# Structural Database, then it will include bibliographic, chemical, 
# crystal, experimental, refinement or atomic coordinate data resulting 
# from the CCDC's data processing and validation procedures.
#
#######################################################################

data_OCAZOJ
_chemical_formula_moiety         'C19 H15 Cl1 N2 O5 S1'
_chemical_name_systematic        
'Ethyl 4-((4-chlorophenoxy)methyl)-2-(4-nitrophenyl)-1,3-thiazole-5-carboxylate'
_symmetry_cell_setting           triclinic
_symmetry_space_group_name_H-M   'P -1'
_symmetry_Int_Tables_number      2
_space_group_name_Hall           '-P 1'
loop_
_symmetry_equiv_pos_site_id
_symmetry_equiv_pos_as_xyz
1 x,y,z
2 -x,-y,-z
_cell_length_a                   7.658(2)
_cell_length_b                   7.736(2)
_cell_length_c                   31.462(9)
_cell_angle_alpha                95.414(8)
_cell_angle_beta                 93.595(13)
_cell_angle_gamma                95.536(9)
_cell_volume                     1842.06
_exptl_crystal_colour            colorless
_exptl_crystal_description       block
_cell_formula_units_Z            4
_exptl_crystal_recrystallization_method ethanol
loop_
_atom_site_label
_atom_site_type_symbol
_atom_site_fract_x
_atom_site_fract_y
_atom_site_fract_z
Cl1 Cl 0.06288(14) 0.22346(16) 0.14799(3)
S1 S 0.31213(10) 0.60383(11) 0.47252(2)
O1 O -0.2945(3) 0.9265(4) 0.62204(8)
O2 O -0.4697(3) 0.9946(3) 0.57059(8)
O3 O 0.1342(3) 0.4482(3) 0.33207(7)
O4 O 0.5159(3) 0.4840(3) 0.36414(7)
O5 O 0.5999(3) 0.4344(4) 0.43078(7)
N1 N -0.3375(4) 0.9339(4) 0.58378(9)
N2 N 0.0807(3) 0.6965(4) 0.41884(8)
C1 C 0.0473(4) 0.7472(4) 0.53661(10)
H1 H 0.1548 0.7055 0.5458
C2 C -0.0636(4) 0.8068(4) 0.56656(10)
H2 H -0.0337 0.8070 0.5963
C3 C -0.2193(4) 0.8660(4) 0.55205(10)
C4 C -0.2677(4) 0.8684(4) 0.50915(10)
H3 H -0.3748 0.9112 0.5002
C5 C -0.1574(4) 0.8076(4) 0.47948(10)
H4 H -0.1897 0.8060 0.4498
C6 C 0.0014(4) 0.7483(4) 0.49283(9)
C7 C 0.1180(4) 0.6887(4) 0.45996(10)
C8 C 0.3452(4) 0.5764(4) 0.41898(9)
C9 C 0.2093(4) 0.6326(4) 0.39547(10)
C10 C 0.1867(4) 0.6278(5) 0.34789(9)
H5 H 0.0954 0.7027 0.3394
H6 H 0.2985 0.6696 0.3362
C11 C 0.1246(4) 0.4053(5) 0.28864(10)
C12 C 0.0871(4) 0.2302(5) 0.27464(11)
H7 H 0.0740 0.1475 0.2950
C13 C 0.0684(4) 0.1737(5) 0.23175(11)
H8 H 0.0434 0.0529 0.2224
C14 C 0.0866(4) 0.2951(6) 0.20225(11)
C15 C 0.1222(5) 0.4678(5) 0.21532(11)
H9 H 0.1323 0.5494 0.1946
C16 C 0.1441(4) 0.5272(5) 0.25884(11)
H10 H 0.1717 0.6479 0.2680
C17 C 0.5000(4) 0.4921(5) 0.40608(11)
C18 C 0.6616(4) 0.3931(5) 0.34835(11)
H11 H 0.6565 0.2742 0.3577
H12 H 0.7758 0.4579 0.3593
C19 C 0.6409(4) 0.3845(5) 0.30047(10)
H13 H 0.5281 0.3186 0.2901
H14 H 0.7370 0.3262 0.2882
H15 H 0.6440 0.5030 0.2918
Cl2 Cl 0.75805(14) 0.89132(14) 0.35049(3)
S2 S 0.38418(10) 0.69544(11) 0.02723(2)
O6 O 0.0810(3) 1.2838(4) -0.12206(7)
O7 O 0.0164(3) 1.4680(3) -0.07058(7)
O8 O 0.5491(3) 0.8696(3) 0.16726(7)
O9 O 0.4837(3) 0.4928(3) 0.13384(7)
O10 O 0.5477(3) 0.4164(3) 0.06707(7)
N3 N 0.0757(3) 1.3317(4) -0.08384(9)
N4 N 0.3024(3) 0.9408(4) 0.08080(8)
C20 C 0.2591(4) 0.9569(4) -0.03709(9)
H16 H 0.3027 0.8497 -0.0463
C21 C 0.2033(4) 1.0641(4) -0.06709(10)
H17 H 0.2087 1.0325 -0.0969
C22 C 0.1395(4) 1.2188(4) -0.05227(10)
C23 C 0.1314(4) 1.2715(4) -0.00937(9)
H18 H 0.0880 1.3790 -0.0004
C24 C 0.1879(4) 1.1641(4) 0.02008(10)
H19 H 0.1835 1.1980 0.0498
C25 C 0.2512(3) 1.0067(4) 0.00690(9)
C26 C 0.3069(3) 0.8944(4) 0.03974(9)
C27 C 0.4094(4) 0.6720(4) 0.08080(9)
C28 C 0.3598(4) 0.8142(4) 0.10414(9)
C29 C 0.3674(4) 0.8490(5) 0.15229(10)
H20 H 0.3119 0.9563 0.1607
H21 H 0.3043 0.7502 0.1647
C30 C 0.5855(4) 0.8708(5) 0.21057(10)
C31 C 0.7463(4) 0.8208(5) 0.22347(11)
H22 H 0.8221 0.7818 0.2026
C32 C 0.7992(5) 0.8266(5) 0.26642(11)
H23 H 0.9109 0.7929 0.2751
C33 C 0.6870(5) 0.8826(5) 0.29680(10)
C34 C 0.5246(4) 0.9283(5) 0.28490(11)
H24 H 0.4479 0.9636 0.3059
C35 C 0.4729(5) 0.9223(5) 0.24120(11)
H25 H 0.3602 0.9537 0.2325
C36 C 0.4860(4) 0.5145(5) 0.09238(11)
C37 C 0.5723(6) 0.3412(5) 0.14607(12)
H26 H 0.5024 0.2315 0.1338
H27 H 0.6898 0.3444 0.1345
C38 C 0.5903(6) 0.3461(6) 0.19137(12)
H28 H 0.6576 0.4558 0.2034
H29 H 0.6522 0.2476 0.1994
H30 H 0.4735 0.3381 0.2025
loop_
_geom_bond_atom_site_label_1
_geom_bond_atom_site_label_2
_geom_bond_site_symmetry_1
_geom_bond_site_symmetry_2
Cl1 C14 1_555 1_555
Cl2 C33 1_555 1_555
S1 C7 1_555 1_555
S2 C26 1_555 1_555
O1 N1 1_555 1_555
O2 N1 1_555 1_555
O3 C10 1_555 1_555
O4 C17 1_555 1_555
O5 C17 1_555 1_555
O6 N3 1_555 1_555
O7 N3 1_555 1_555
O8 C29 1_555 1_555
O9 C36 1_555 1_555
O10 C36 1_555 1_555
N1 C3 1_555 1_555
N2 C7 1_555 1_555
N3 C22 1_555 1_555
N4 C26 1_555 1_555
C1 H1 1_555 1_555
C2 C1 1_555 1_555
H2 C2 1_555 1_555
C3 C2 1_555 1_555
C4 C3 1_555 1_555
H3 C4 1_555 1_555
C5 C4 1_555 1_555
H4 C5 1_555 1_555
C6 C1 1_555 1_555
C7 C6 1_555 1_555
C8 S1 1_555 1_555
C9 N2 1_555 1_555
C10 C9 1_555 1_555
H5 C10 1_555 1_555
H6 C10 1_555 1_555
C11 O3 1_555 1_555
C12 C11 1_555 1_555
H7 C12 1_555 1_555
C13 C12 1_555 1_555
H8 C13 1_555 1_555
C14 C13 1_555 1_555
C15 C14 1_555 1_555
H9 C15 1_555 1_555
C16 C11 1_555 1_555
H10 C16 1_555 1_555
C17 C8 1_555 1_555
C18 O4 1_555 1_555
H11 C18 1_555 1_555
H12 C18 1_555 1_555
C19 C18 1_555 1_555
H13 C19 1_555 1_555
H14 C19 1_555 1_555
H15 C19 1_555 1_555
C20 H16 1_555 1_555
C21 C20 1_555 1_555
H17 C21 1_555 1_555
C22 C21 1_555 1_555
C23 C22 1_555 1_555
H18 C23 1_555 1_555
C24 C23 1_555 1_555
H19 C24 1_555 1_555
C25 C20 1_555 1_555
C26 C25 1_555 1_555
C27 S2 1_555 1_555
C28 N4 1_555 1_555
C29 C28 1_555 1_555
H20 C29 1_555 1_555
H21 C29 1_555 1_555
C30 O8 1_555 1_555
C31 C30 1_555 1_555
H22 C31 1_555 1_555
C32 C31 1_555 1_555
H23 C32 1_555 1_555
C33 C32 1_555 1_555
C34 C33 1_555 1_555
H24 C34 1_555 1_555
C35 C30 1_555 1_555
H25 C35 1_555 1_555
C36 C27 1_555 1_555
C37 O9 1_555 1_555
H26 C37 1_555 1_555
H27 C37 1_555 1_555
C38 C37 1_555 1_555
H28 C38 1_555 1_555
H29 C38 1_555 1_555
H30 C38 1_555 1_555
C5 C6 1_555 1_555
C8 C9 1_555 1_555
C15 C16 1_555 1_555
C24 C25 1_555 1_555
C27 C28 1_555 1_555
C34 C35 1_555 1_555

#END
