
#######################################################################
#
#                 Cambridge Crystallographic Data Centre
#                                CCDC 
#
#######################################################################
#
# If this CIF has been generated from an entry in the Cambridge 
# Structural Database, then it will include bibliographic, chemical, 
# crystal, experimental, refinement or atomic coordinate data resulting 
# from the CCDC's data processing and validation procedures.
#
#######################################################################

data_OCEKEP
_chemical_formula_moiety         'C24 H31 Cl1 O3'
_chemical_name_systematic        
'4-(4-chlorophenyl)-4-(3,5-di-t-butyl-4-hydroxyphenyl)butanoic acid'
_symmetry_cell_setting           monoclinic
_symmetry_space_group_name_H-M   'P 21/c'
_symmetry_Int_Tables_number      14
_space_group_name_Hall           '-P 2ybc'
loop_
_symmetry_equiv_pos_site_id
_symmetry_equiv_pos_as_xyz
1 x,y,z
2 -x,1/2+y,1/2-z
3 -x,-y,-z
4 x,1/2-y,1/2+z
_cell_length_a                   10.500(4)
_cell_length_b                   9.336(4)
_cell_length_c                   22.910(10)
_cell_angle_alpha                90
_cell_angle_beta                 100.864(9)
_cell_angle_gamma                90
_cell_volume                     2205.57
_exptl_crystal_colour            colorless
_exptl_crystal_description       Prism
_cell_formula_units_Z            4
loop_
_atom_site_label
_atom_site_type_symbol
_atom_site_fract_x
_atom_site_fract_y
_atom_site_fract_z
Cl1 Cl 0.12309(12) 0.61159(16) 0.48553(5)
O1 O 0.8464(3) 0.9608(4) 0.47217(16)
O2 O 0.9331(4) 1.0150(5) 0.56587(16)
H1 H 1.0016 1.0156 0.5519
O3 O 0.7949(2) 0.5112(3) 0.83517(10)
H2 H 0.7802 0.5610 0.8637
C1 C 0.8348(5) 0.9836(4) 0.5237(2)
C2 C 0.7095(5) 0.9812(6) 0.5459(2)
C3 C 0.6905(9) 0.9482(9) 0.6114(3)
C4 C 0.6475(5) 0.8001(6) 0.6161(2)
C5 C 0.5170(4) 0.7567(4) 0.58106(17)
C6 C 0.5025(4) 0.6874(5) 0.52677(18)
H3 H 0.5767 0.6697 0.5097
C7 C 0.3822(4) 0.6436(5) 0.49708(17)
H4 H 0.3736 0.5967 0.4597
C8 C 0.2756(4) 0.6681(5) 0.52179(17)
C9 C 0.2862(4) 0.7401(4) 0.57543(17)
H5 H 0.2116 0.7603 0.5919
C10 C 0.4073(4) 0.7815(4) 0.60411(17)
H6 H 0.4156 0.8291 0.6413
C11 C 0.6832(4) 0.7249(5) 0.67459(18)
C12 C 0.7416(4) 0.5904(5) 0.67804(17)
H7 H 0.7566 0.5471 0.6424
C13 C 0.7787(4) 0.5171(4) 0.73100(15)
C14 C 0.7553(3) 0.5848(4) 0.78274(15)
C15 C 0.6945(3) 0.7202(4) 0.78160(16)
C16 C 0.6618(4) 0.7856(4) 0.72638(18)
H8 H 0.6224 0.8775 0.7244
C17 C 0.6672(4) 0.7930(4) 0.83793(17)
C18 C 0.5808(4) 0.6979(5) 0.86934(18)
H9 H 0.5007 0.6743 0.8415
H10 H 0.5594 0.7494 0.9035
H11 H 0.6272 0.6094 0.8830
C19 C 0.5911(4) 0.9352(5) 0.8240(2)
H12 H 0.6455 1.0052 0.8083
H13 H 0.5676 0.9727 0.8605
H14 H 0.5123 0.9176 0.7945
C20 C 0.7943(4) 0.8334(5) 0.88041(18)
H15 H 0.8496 0.7484 0.8886
H16 H 0.7743 0.8702 0.9177
H17 H 0.8398 0.9072 0.8619
C21 C 0.8463(4) 0.3691(4) 0.73288(16)
C22 C 0.9849(4) 0.3801(5) 0.7689(2)
H18 H 1.0327 0.4537 0.7514
H19 H 1.0288 0.2876 0.7683
H20 H 0.9818 0.4061 0.8101
C23 C 0.7694(4) 0.2547(4) 0.76028(17)
H21 H 0.8112 0.1612 0.7590
H22 H 0.6805 0.2503 0.7376
H23 H 0.7677 0.2800 0.8016
C24 C 0.8552(5) 0.3152(5) 0.67068(18)
H24 H 0.9083 0.3815 0.6522
H25 H 0.7679 0.3099 0.6463
H26 H 0.8949 0.2199 0.6736
C25? C 0.7498(7) 0.8431(9) 0.5871(3)
loop_
_geom_bond_atom_site_label_1
_geom_bond_atom_site_label_2
_geom_bond_site_symmetry_1
_geom_bond_site_symmetry_2
Cl1 C8 1_555 1_555
O1 C1 1_555 1_555
O2 H1 1_555 1_555
O3 H2 1_555 1_555
C1 O2 1_555 1_555
C2 C1 1_555 1_555
C3 C2 1_555 1_555
C4 C3 1_555 1_555
C5 C4 1_555 1_555
C6 C5 1_555 1_555
H3 C6 1_555 1_555
C7 C6 1_555 1_555
H4 C7 1_555 1_555
C8 C7 1_555 1_555
C9 C8 1_555 1_555
H5 C9 1_555 1_555
C10 C5 1_555 1_555
H6 C10 1_555 1_555
C11 C4 1_555 1_555
C12 C11 1_555 1_555
H7 C12 1_555 1_555
C13 C12 1_555 1_555
C14 O3 1_555 1_555
C15 C14 1_555 1_555
C16 C11 1_555 1_555
H8 C16 1_555 1_555
C17 C15 1_555 1_555
C18 C17 1_555 1_555
H9 C18 1_555 1_555
H10 C18 1_555 1_555
H11 C18 1_555 1_555
C19 C17 1_555 1_555
H12 C19 1_555 1_555
H13 C19 1_555 1_555
H14 C19 1_555 1_555
C20 C17 1_555 1_555
H15 C20 1_555 1_555
H16 C20 1_555 1_555
H17 C20 1_555 1_555
C21 C13 1_555 1_555
C22 C21 1_555 1_555
H18 C22 1_555 1_555
H19 C22 1_555 1_555
H20 C22 1_555 1_555
C23 C21 1_555 1_555
H21 C23 1_555 1_555
H22 C23 1_555 1_555
H23 C23 1_555 1_555
C24 C21 1_555 1_555
H24 C24 1_555 1_555
H25 C24 1_555 1_555
H26 C24 1_555 1_555
C9 C10 1_555 1_555
C13 C14 1_555 1_555
C15 C16 1_555 1_555

#END
