
#######################################################################
#
#                 Cambridge Crystallographic Data Centre
#                                CCDC 
#
#######################################################################
#
# If this CIF has been generated from an entry in the Cambridge 
# Structural Database, then it will include bibliographic, chemical, 
# crystal, experimental, refinement or atomic coordinate data resulting 
# from the CCDC's data processing and validation procedures.
#
#######################################################################

data_OCEKEO
_chemical_name_common            
4-((2-Hydroxy-1-naphthyl)(morpholin-4-yl)methyl)benzonitrile
_chemical_formula_moiety         'C22 H20 N2 O2'
_chemical_name_systematic        
4-[(2-Hydroxynaphthalen-1-yl)(morpholin-4-yl)methyl]benzonitrile
_symmetry_cell_setting           rhombohedral
_symmetry_space_group_name_H-M   'R -3'
_symmetry_Int_Tables_number      148
_space_group_name_Hall           '-R 3'
loop_
_symmetry_equiv_pos_site_id
_symmetry_equiv_pos_as_xyz
1 x,y,z
2 -y,x-y,z
3 -x+y,-x,z
4 2/3+x,1/3+y,1/3+z
5 2/3-y,1/3+x-y,1/3+z
6 2/3-x+y,1/3-x,1/3+z
7 1/3+x,2/3+y,2/3+z
8 1/3-y,2/3+x-y,2/3+z
9 1/3-x+y,2/3-x,2/3+z
10 -x,-y,-z
11 y,-x+y,-z
12 x-y,x,-z
13 1/3-x,2/3-y,2/3-z
14 1/3+y,2/3-x+y,2/3-z
15 1/3+x-y,2/3+x,2/3-z
16 2/3-x,1/3-y,1/3-z
17 2/3+y,1/3-x+y,1/3-z
18 2/3+x-y,1/3+x,1/3-z
_cell_length_a                   18.294(3)
_cell_length_b                   18.294(3)
_cell_length_c                   28.738(6)
_cell_angle_alpha                90
_cell_angle_beta                 90
_cell_angle_gamma                120
_cell_volume                     8329.22
_exptl_crystal_colour            colorless
_exptl_crystal_description       block
_cell_formula_units_Z            18
loop_
_atom_site_label
_atom_site_type_symbol
_atom_site_fract_x
_atom_site_fract_y
_atom_site_fract_z
C1 C 0.6590(2) 0.9543(2) -0.01901(11)
N1 N 0.58212(15) 0.86806(15) 0.04966(8)
O1 O 0.51037(19) 0.90933(18) -0.01526(10)
H1 H 0.5181 0.8920 0.0108
C2 C 0.5846(3) 0.9432(2) -0.03881(13)
N2 N 0.7870(3) 1.3181(3) 0.14213(18)
O2 O 0.48604(18) 0.71036(17) 0.09733(11)
C3 C 0.5833(5) 0.9667(3) -0.08470(18)
H2 H 0.5334 0.9598 -0.0972
C4 C 0.6527(7) 0.9991(4) -0.11117(19)
H3 H 0.6504 1.0157 -0.1414
C5 C 0.7294(5) 1.0085(3) -0.09428(18)
C6 C 0.8038(6) 1.0382(4) -0.1215(2)
H4 H 0.8020 1.0527 -0.1524
C7 C 0.8752(5) 1.0465(4) -0.1058(3)
H5 H 0.9223 1.0672 -0.1250
C8 C 0.8794(4) 1.0236(3) -0.0596(2)
H6 H 0.9289 1.0275 -0.0484
C9 C 0.8103(3) 0.9956(2) -0.03107(17)
H7 H 0.8146 0.9826 -0.0003
C10 C 0.7325(3) 0.9858(2) -0.04718(13)
C11 C 0.66336(19) 0.93938(19) 0.03258(10)
H8 H 0.7076 0.9249 0.0374
C12 C 0.5716(2) 0.7879(2) 0.03122(13)
H9 H 0.6184 0.7811 0.0413
H10 H 0.5719 0.7894 -0.0025
C13 C 0.4897(3) 0.7141(2) 0.04806(16)
H11 H 0.4428 0.7192 0.0363
H12 H 0.4842 0.6621 0.0360
C14 C 0.4948(3) 0.7858(2) 0.11521(14)
H13 H 0.4925 0.7828 0.1489
H14 H 0.4480 0.7922 0.1045
C15 C 0.5765(2) 0.8617(2) 0.10044(12)
H15 H 0.5798 0.9124 0.1132
H16 H 0.6235 0.8572 0.1126
C16 C 0.6885(2) 1.0214(2) 0.05850(10)
C17 C 0.7626(2) 1.0606(2) 0.08376(12)
H17 H 0.7954 1.0350 0.0863
C18 C 0.7886(2) 1.1370(3) 0.10521(13)
H18 H 0.8395 1.1633 0.1214
C19 C 0.7396(3) 1.1747(2) 0.10287(12)
C20 C 0.6641(2) 1.1355(2) 0.07818(12)
H19 H 0.6302 1.1600 0.0767
C21 C 0.6400(2) 1.0603(2) 0.05593(11)
H20 H 0.5902 1.0349 0.0388
C22 C 0.7657(3) 1.2544(3) 0.12509(16)
loop_
_geom_bond_atom_site_label_1
_geom_bond_atom_site_label_2
_geom_bond_site_symmetry_1
_geom_bond_site_symmetry_2
C1 C2 1_555 1_555
N1 C11 1_555 1_555
O1 H1 1_555 1_555
C2 O1 1_555 1_555
N2 C22 1_555 1_555
O2 C13 1_555 1_555
C3 C2 1_555 1_555
H2 C3 1_555 1_555
C4 C3 1_555 1_555
H3 C4 1_555 1_555
C5 C4 1_555 1_555
C6 C5 1_555 1_555
H4 C6 1_555 1_555
C7 C6 1_555 1_555
H5 C7 1_555 1_555
C8 C7 1_555 1_555
H6 C8 1_555 1_555
C9 C8 1_555 1_555
H7 C9 1_555 1_555
C10 C1 1_555 1_555
C11 C1 1_555 1_555
H8 C11 1_555 1_555
C12 N1 1_555 1_555
H9 C12 1_555 1_555
H10 C12 1_555 1_555
C13 C12 1_555 1_555
H11 C13 1_555 1_555
H12 C13 1_555 1_555
C14 O2 1_555 1_555
H13 C14 1_555 1_555
H14 C14 1_555 1_555
C15 N1 1_555 1_555
H15 C15 1_555 1_555
H16 C15 1_555 1_555
C16 C11 1_555 1_555
C17 C16 1_555 1_555
H17 C17 1_555 1_555
C18 C17 1_555 1_555
H18 C18 1_555 1_555
C19 C18 1_555 1_555
C20 C19 1_555 1_555
H19 C20 1_555 1_555
C21 C16 1_555 1_555
H20 C21 1_555 1_555
C22 C19 1_555 1_555
C5 C10 1_555 1_555
C9 C10 1_555 1_555
C14 C15 1_555 1_555
C20 C21 1_555 1_555

#END
