
#######################################################################
#
#                 Cambridge Crystallographic Data Centre
#                                CCDC 
#
#######################################################################
#
# If this CIF has been generated from an entry in the Cambridge 
# Structural Database, then it will include bibliographic, chemical, 
# crystal, experimental, refinement or atomic coordinate data resulting 
# from the CCDC's data processing and validation procedures.
#
#######################################################################

data_OCENUH
_chemical_name_common            1-Bromo-2-(2-nitrovinyl)benzene
_chemical_formula_moiety         'C8 H6 Br1 N1 O2'
_chemical_name_systematic        1-Bromo-2-[(E)-2-nitroethenyl]benzene
_symmetry_cell_setting           monoclinic
_symmetry_space_group_name_H-M   'P 21/c'
_symmetry_Int_Tables_number      14
_space_group_name_Hall           '-P 2ybc'
loop_
_symmetry_equiv_pos_site_id
_symmetry_equiv_pos_as_xyz
1 x,y,z
2 -x,1/2+y,1/2-z
3 -x,-y,-z
4 x,1/2-y,1/2+z
_cell_length_a                   6.9570(18)
_cell_length_b                   15.646(2)
_cell_length_c                   7.9470(13)
_cell_angle_alpha                90
_cell_angle_beta                 109.336(5)
_cell_angle_gamma                90
_cell_volume                     816.231
_exptl_crystal_colour            colorless
_exptl_crystal_description       prism
_cell_formula_units_Z            4
_exptl_crystal_recrystallization_method ethanol
loop_
_atom_site_label
_atom_site_type_symbol
_atom_site_fract_x
_atom_site_fract_y
_atom_site_fract_z
Br1 Br 0.39712(4) 0.607142(14) 0.81215(3)
O1 O 0.1113(2) 0.21839(10) 0.6270(2)
O2 O 0.3362(2) 0.29119(10) 0.8336(2)
N1 N 0.2150(3) 0.28344(11) 0.6807(2)
C1 C 0.3043(3) 0.58570(14) 0.5620(3)
C2 C 0.2914(3) 0.65593(14) 0.4508(3)
H1 H 0.3316 0.7109 0.5007
C3 C 0.2203(3) 0.64552(14) 0.2684(3)
H2 H 0.2093 0.6935 0.1925
C4 C 0.1644(3) 0.56451(15) 0.1954(3)
H3 H 0.1156 0.5571 0.0696
C5 C 0.1804(3) 0.49484(14) 0.3071(3)
H4 H 0.1438 0.4398 0.2561
C6 C 0.2490(3) 0.50341(13) 0.4930(3)
C7 C 0.2672(3) 0.42903(13) 0.6100(3)
H5 H 0.3405 0.4360 0.7334
C8 C 0.1882(3) 0.35266(13) 0.5549(3)
H6 H 0.1138 0.3435 0.4324
loop_
_geom_bond_atom_site_label_1
_geom_bond_atom_site_label_2
_geom_bond_site_symmetry_1
_geom_bond_site_symmetry_2
Br1 C1 1_555 1_555
O1 N1 1_555 1_555
O2 N1 1_555 1_555
N1 C8 1_555 1_555
C1 C2 1_555 1_555
C2 H1 1_555 1_555
C3 C2 1_555 1_555
H2 C3 1_555 1_555
C4 C3 1_555 1_555
H3 C4 1_555 1_555
C5 C4 1_555 1_555
H4 C5 1_555 1_555
C6 C1 1_555 1_555
C7 C6 1_555 1_555
H5 C7 1_555 1_555
C8 C7 1_555 1_555
H6 C8 1_555 1_555
C5 C6 1_555 1_555

#END
