
#######################################################################
#
#                 Cambridge Crystallographic Data Centre
#                                CCDC 
#
#######################################################################
#
# If this CIF has been generated from an entry in the Cambridge 
# Structural Database, then it will include bibliographic, chemical, 
# crystal, experimental, refinement or atomic coordinate data resulting 
# from the CCDC's data processing and validation procedures.
#
#######################################################################

data_OCEREV
_chemical_name_common            
2,2'-(1-(2-Nitrophenyl)prop-1-ene-3,3-diyl)bis(3-hydroxy-5,5-dimethylcyclohex-2-en-1-one)
_chemical_formula_moiety         'C25 H29 N1 O6'
_chemical_name_systematic        
(E)-2,2'-[3-(2-Nitrophenyl)prop-2-ene-1,1-diyl]bis(3-hydroxy-5,5-dimethylcyclohex-2-en-1-one)
_symmetry_cell_setting           triclinic
_symmetry_space_group_name_H-M   'P -1'
_symmetry_Int_Tables_number      2
_space_group_name_Hall           '-P 1'
loop_
_symmetry_equiv_pos_site_id
_symmetry_equiv_pos_as_xyz
1 x,y,z
2 -x,-y,-z
_cell_length_a                   9.8306(14)
_cell_length_b                   11.0841(14)
_cell_length_c                   11.9602(13)
_cell_angle_alpha                69.601(3)
_cell_angle_beta                 79.867(4)
_cell_angle_gamma                72.588(4)
_cell_volume                     1161.78
_exptl_crystal_colour            colorless
_exptl_crystal_description       block
_cell_formula_units_Z            2
_exptl_crystal_recrystallization_method ethanol
loop_
_atom_site_label
_atom_site_type_symbol
_atom_site_fract_x
_atom_site_fract_y
_atom_site_fract_z
O1 O 0.2599(4) 0.9448(3) 0.8416(3)
O2 O 0.2544(4) 0.9495(3) 0.4491(2)
O3 O 0.3523(3) 0.6854(3) 0.9110(2)
O4 O 0.3900(3) 0.6966(3) 0.5114(2)
O5 O 0.8470(8) 0.5275(8) 0.8424(8)
O6 O 1.0410(9) 0.5912(8) 0.7656(7)
N1 N 0.9230(6) 0.6001(6) 0.8254(5)
C1 C 0.7340(5) 0.8011(5) 0.8334(4)
C2 C 0.8713(5) 0.7226(5) 0.8563(4)
C3 C 0.9652(6) 0.7558(6) 0.9076(5)
C4 C 0.9227(7) 0.8681(6) 0.9389(5)
C5 C 0.7895(7) 0.9491(6) 0.9180(4)
C6 C 0.6967(6) 0.9166(5) 0.8660(4)
C7 C 0.6299(5) 0.7701(4) 0.7807(4)
C8 C 0.5278(5) 0.8605(4) 0.7170(3)
C9 C 0.4195(5) 0.8353(4) 0.6577(3)
C10 C 0.2823(4) 0.9502(4) 0.6418(3)
C11 C 0.2202(5) 1.0022(4) 0.7372(4)
C12 C 0.0991(5) 1.1265(4) 0.7155(4)
C13 C 0.0902(5) 1.2149(4) 0.5852(4)
C14 C 0.0981(5) 1.1248(4) 0.5111(4)
C15 C 0.2178(5) 1.0031(4) 0.5369(4)
C16 C 0.2137(6) 1.2809(5) 0.5453(4)
C17 C -0.0503(5) 1.3220(5) 0.5690(5)
C18 C 0.3973(4) 0.6970(4) 0.7065(3)
C19 C 0.3753(4) 0.6294(4) 0.8266(3)
C20 C 0.3741(5) 0.4871(4) 0.8725(4)
C21 C 0.4418(5) 0.4095(4) 0.7843(4)
C22 C 0.3813(5) 0.4934(4) 0.6638(3)
C23 C 0.3928(5) 0.6342(4) 0.6216(4)
C24 C 0.6045(5) 0.3842(5) 0.7714(4)
C25 C 0.4058(6) 0.2761(4) 0.8278(4)
H1 H 0.3076 0.8746 0.4732
H2 H 1.0571 0.7009 0.9204
H3 H 0.3452 0.7655 0.8804
H4 H 0.9847 0.8899 0.9747
H5 H 0.7607 1.0269 0.9388
H6 H 0.6059 0.9738 0.8523
H7 H 0.6365 0.6809 0.7931
H8 H 0.5213 0.9489 0.7074
H9 H 0.4624 0.8426 0.5759
H10 H 0.1087 1.1783 0.7630
H11 H 0.0099 1.1010 0.7436
H12 H 0.0090 1.0990 0.5261
H13 H 0.1079 1.1751 0.4269
H14 H 0.3028 1.2136 0.5566
H15 H 0.2067 1.3379 0.5920
H16 H 0.2096 1.3328 0.4623
H17 H -0.0528 1.3823 0.6111
H18 H -0.1284 1.2813 0.6001
H19 H -0.0585 1.3702 0.4854
H20 H 0.2759 0.4815 0.8944
H21 H 0.4247 0.4447 0.9447
H22 H 0.4313 0.4511 0.6041
H23 H 0.2813 0.4942 0.6698
H24 H 0.6449 0.3322 0.7184
H25 H 0.6413 0.3368 0.8484
H26 H 0.6295 0.4678 0.7393
H27 H 0.4466 0.2235 0.9025
H28 H 0.4442 0.2304 0.7697
H29 H 0.3038 0.2899 0.8388
O7? O 1.0123(10) 0.4996(9) 0.8776(5)
O8? O 0.8873(10) 0.5826(9) 0.7438(8)
loop_
_geom_bond_atom_site_label_1
_geom_bond_atom_site_label_2
_geom_bond_site_symmetry_1
_geom_bond_site_symmetry_2
O1 C11 1_555 1_555
O2 C15 1_555 1_555
O3 C19 1_555 1_555
O4 C23 1_555 1_555
O5 N1 1_555 1_555
O6 N1 1_555 1_555
N1 C2 1_555 1_555
C1 C2 1_555 1_555
C2 C3 1_555 1_555
C3 C4 1_555 1_555
C4 C5 1_555 1_555
C5 C6 1_555 1_555
C6 C1 1_555 1_555
C7 C1 1_555 1_555
C8 C7 1_555 1_555
C9 C8 1_555 1_555
C10 C9 1_555 1_555
C11 C10 1_555 1_555
C12 C11 1_555 1_555
C13 C12 1_555 1_555
C14 C13 1_555 1_555
C15 C10 1_555 1_555
C16 C13 1_555 1_555
C17 C13 1_555 1_555
C18 C9 1_555 1_555
C19 C18 1_555 1_555
C20 C19 1_555 1_555
C21 C20 1_555 1_555
C22 C21 1_555 1_555
C23 C18 1_555 1_555
C24 C21 1_555 1_555
C25 C21 1_555 1_555
H1 O2 1_555 1_555
H2 C3 1_555 1_555
H3 O3 1_555 1_555
H4 C4 1_555 1_555
H5 C5 1_555 1_555
H6 C6 1_555 1_555
H7 C7 1_555 1_555
H8 C8 1_555 1_555
H9 C9 1_555 1_555
H10 C12 1_555 1_555
H11 C12 1_555 1_555
H12 C14 1_555 1_555
H13 C14 1_555 1_555
H14 C16 1_555 1_555
H15 C16 1_555 1_555
H16 C16 1_555 1_555
H17 C17 1_555 1_555
H18 C17 1_555 1_555
H19 C17 1_555 1_555
H20 C20 1_555 1_555
H21 C20 1_555 1_555
H22 C22 1_555 1_555
H23 C22 1_555 1_555
H24 C24 1_555 1_555
H25 C24 1_555 1_555
H26 C24 1_555 1_555
H27 C25 1_555 1_555
H28 C25 1_555 1_555
H29 C25 1_555 1_555
C14 C15 1_555 1_555
C22 C23 1_555 1_555

#END
