
#######################################################################
#
#                 Cambridge Crystallographic Data Centre
#                                CCDC 
#
#######################################################################
#
# If this CIF has been generated from an entry in the Cambridge 
# Structural Database, then it will include bibliographic, chemical, 
# crystal, experimental, refinement or atomic coordinate data resulting 
# from the CCDC's data processing and validation procedures.
#
#######################################################################

data_OCESEW
_chemical_name_common            '(2-Ammonioethyl)carbamate monohydrate'
_chemical_formula_moiety         'C3 H8 N2 O2,H2 O1'
_chemical_name_systematic        'N-(2-Azaniumylethyl)carbamate monohydrate'
_symmetry_cell_setting           monoclinic
_symmetry_space_group_name_H-M   'P 21/c'
_symmetry_Int_Tables_number      14
_space_group_name_Hall           '-P 2ybc'
loop_
_symmetry_equiv_pos_site_id
_symmetry_equiv_pos_as_xyz
1 x,y,z
2 -x,1/2+y,1/2-z
3 -x,-y,-z
4 x,1/2-y,1/2+z
_cell_length_a                   8.0301(6)
_cell_length_b                   8.7842(7)
_cell_length_c                   8.1748(6)
_cell_angle_alpha                90
_cell_angle_beta                 98.8890(10)
_cell_angle_gamma                90
_cell_volume                     569.708
_exptl_crystal_colour            colorless
_exptl_crystal_description       block
_chemical_melting_point          '358 K'
_cell_formula_units_Z            4
loop_
_atom_site_label
_atom_site_type_symbol
_atom_site_fract_x
_atom_site_fract_y
_atom_site_fract_z
O1 O 0.79493(17) 0.47441(13) 0.42240(14)
H1 H 0.788(2) 0.472(2) 0.326(3)
H2 H 0.844(3) 0.391(3) 0.466(3)
O2 O 0.91742(12) 0.29983(10) 0.06003(11)
O3 O 0.75733(13) 0.50450(10) 0.08899(11)
N1 N 0.82463(13) 0.69023(12) -0.32825(13)
H3 H 0.9110 0.6736 -0.2480
H4 H 0.8288 0.7855 -0.3644
H5 H 0.8303 0.6260 -0.4114
N2 N 0.76650(14) 0.40847(12) -0.16430(13)
H6 H 0.8216 0.3547 -0.2257
C1 C 0.81591(15) 0.40494(13) 0.00256(15)
C2 C 0.62537(16) 0.49851(15) -0.24347(16)
H7 H 0.5340 0.4898 -0.1790
H8 H 0.5862 0.4560 -0.3521
C3 C 0.66425(16) 0.66607(15) -0.26316(16)
H9 H 0.5729 0.7126 -0.3380
H10 H 0.6709 0.7161 -0.1566
loop_
_geom_bond_atom_site_label_1
_geom_bond_atom_site_label_2
_geom_bond_site_symmetry_1
_geom_bond_site_symmetry_2
O1 H1 1_555 1_555
H2 O1 1_555 1_555
O2 C1 1_555 1_555
O3 C1 1_555 1_555
N1 H3 1_555 1_555
H4 N1 1_555 1_555
H5 N1 1_555 1_555
N2 H6 1_555 1_555
C1 N2 1_555 1_555
C2 N2 1_555 1_555
H7 C2 1_555 1_555
H8 C2 1_555 1_555
C3 N1 1_555 1_555
H9 C3 1_555 1_555
H10 C3 1_555 1_555
C2 C3 1_555 1_555

#END
