
#######################################################################
#
#                 Cambridge Crystallographic Data Centre
#                                CCDC 
#
#######################################################################
#
# If this CIF has been generated from an entry in the Cambridge 
# Structural Database, then it will include bibliographic, chemical, 
# crystal, experimental, refinement or atomic coordinate data resulting 
# from the CCDC's data processing and validation procedures.
#
#######################################################################

data_OCETAT
_chemical_formula_moiety         'C8 H8 Cl1 N1 O1'
_chemical_name_systematic        2-(4-Chlorophenyl)acetamide
_symmetry_cell_setting           orthorhombic
_symmetry_space_group_name_H-M   'P 21 21 21'
_symmetry_Int_Tables_number      19
_space_group_name_Hall           'P 2ac 2ab'
loop_
_symmetry_equiv_pos_site_id
_symmetry_equiv_pos_as_xyz
1 x,y,z
2 1/2-x,-y,1/2+z
3 -x,1/2+y,1/2-z
4 1/2+x,1/2-y,-z
_cell_length_a                   4.917(2)
_cell_length_b                   6.033(4)
_cell_length_c                   26.680(12)
_cell_angle_alpha                90
_cell_angle_beta                 90
_cell_angle_gamma                90
_cell_volume                     791.442
_exptl_crystal_colour            colorless
_exptl_crystal_description       block
_cell_formula_units_Z            4
loop_
_atom_site_label
_atom_site_type_symbol
_atom_site_fract_x
_atom_site_fract_y
_atom_site_fract_z
C1 C 0.3632(4) 0.5073(3) 0.79843(7)
C2 C 0.2527(4) 0.3677(5) 0.84087(10)
H1 H 0.1560 0.4638 0.8639
H2 H 0.1222 0.2633 0.8272
C3 C 0.4640(4) 0.2408(4) 0.86973(8)
C4 C 0.5575(5) 0.0374(4) 0.85279(8)
H3 H 0.4907 -0.0195 0.8228
C5 C 0.7475(5) -0.0822(3) 0.87944(8)
H4 H 0.8079 -0.2185 0.8676
C6 C 0.8470(4) 0.0017(4) 0.92375(8)
C7 C 0.7620(5) 0.2049(4) 0.94146(8)
H5 H 0.8324 0.2622 0.9711
C8 C 0.5697(5) 0.3221(4) 0.91430(8)
H6 H 0.5100 0.4586 0.9262
Cl1 Cl 1.08553(13) -0.14906(11) 0.95804(2)
N1 N 0.1788(3) 0.6234(4) 0.77353(7)
H7 H 0.004(2) 0.613(4) 0.7811(8)
H8 H 0.225(5) 0.714(4) 0.7485(7)
O1 O 0.6073(3) 0.5149(3) 0.78808(5)
loop_
_geom_bond_atom_site_label_1
_geom_bond_atom_site_label_2
_geom_bond_site_symmetry_1
_geom_bond_site_symmetry_2
C1 C2 1_555 1_555
C2 H1 1_555 1_555
H2 C2 1_555 1_555
C3 C2 1_555 1_555
C4 C3 1_555 1_555
H3 C4 1_555 1_555
C5 C4 1_555 1_555
H4 C5 1_555 1_555
C6 C5 1_555 1_555
C7 C6 1_555 1_555
H5 C7 1_555 1_555
C8 C3 1_555 1_555
H6 C8 1_555 1_555
Cl1 C6 1_555 1_555
N1 C1 1_555 1_555
H7 N1 1_555 1_555
H8 N1 1_555 1_555
O1 C1 1_555 1_555
C7 C8 1_555 1_555

#END
