
#######################################################################
#
#                 Cambridge Crystallographic Data Centre
#                                CCDC 
#
#######################################################################
#
# If this CIF has been generated from an entry in the Cambridge 
# Structural Database, then it will include bibliographic, chemical, 
# crystal, experimental, refinement or atomic coordinate data resulting 
# from the CCDC's data processing and validation procedures.
#
#######################################################################

data_OCETOI
_chemical_formula_moiety         'C23 H21 Cl1'
_chemical_name_systematic        
1,1'-(2-(chloro(phenyl)methylene)butane-1,1-diyl)dibenzene
_symmetry_cell_setting           triclinic
_symmetry_space_group_name_H-M   'P -1'
_symmetry_Int_Tables_number      2
_space_group_name_Hall           '-P 1'
loop_
_symmetry_equiv_pos_site_id
_symmetry_equiv_pos_as_xyz
1 x,y,z
2 -x,-y,-z
_cell_length_a                   9.3161(19)
_cell_length_b                   9.7430(19)
_cell_length_c                   10.492(2)
_cell_angle_alpha                95.73(3)
_cell_angle_beta                 102.20(3)
_cell_angle_gamma                91.44(3)
_cell_volume                     925.12
_exptl_crystal_colour            colorless
_exptl_crystal_description       block
_cell_formula_units_Z            2
loop_
_atom_site_label
_atom_site_type_symbol
_atom_site_fract_x
_atom_site_fract_y
_atom_site_fract_z
Cl1 Cl 0.16355(4) -0.03816(4) 0.81981(4)
C1 C 0.64088(17) 0.18331(15) 0.78223(18)
H1 H 0.5835 0.1013 0.7629
C2 C 0.79047(19) 0.18068(18) 0.7838(2)
H2 H 0.8318 0.0973 0.7646
C3 C 0.87736(17) 0.29970(18) 0.81336(19)
H3 H 0.9773 0.2976 0.8141
C4 C 0.81536(16) 0.42241(16) 0.84194(17)
H4 H 0.8739 0.5036 0.8630
C5 C 0.66676(15) 0.42585(14) 0.83958(14)
H5 H 0.6263 0.5097 0.8588
C6 C 0.57630(14) 0.30570(13) 0.80892(12)
C7 C 0.36642(15) 0.44759(15) 0.61055(13)
H6 H 0.4426 0.4031 0.5815
C8 C 0.28452(19) 0.53737(18) 0.53366(17)
H7 H 0.3049 0.5515 0.4528
C9 C 0.17391(19) 0.60546(19) 0.5757(2)
H8 H 0.1187 0.6652 0.5234
C10 C 0.14467(17) 0.58536(18) 0.6951(2)
H9 H 0.0703 0.6327 0.7244
C11 C 0.22523(15) 0.49482(15) 0.77263(17)
H10 H 0.2045 0.4822 0.8537
C12 C 0.33634(13) 0.42291(12) 0.73088(12)
C13 C 0.19598(16) 0.16755(15) 1.07797(15)
H11 H 0.0986 0.1540 1.0327
C14 C 0.2278(2) 0.20255(17) 1.21122(17)
H12 H 0.1517 0.2131 1.2557
C15 C 0.3709(2) 0.22205(16) 1.27932(16)
H13 H 0.3913 0.2462 1.3695
C16 C 0.48507(19) 0.20598(15) 1.21450(15)
H14 H 0.5821 0.2188 1.2608
C17 C 0.45400(15) 0.17074(13) 1.08032(13)
H15 H 0.5306 0.1593 1.0366
C18 C 0.30940(14) 0.15222(12) 1.01012(12)
C19 C 0.41382(13) 0.31476(12) 0.81284(12)
H16 H 0.4101 0.3443 0.9041
C20 C 0.32526(13) 0.17659(12) 0.77525(12)
C21 C 0.27746(13) 0.11398(12) 0.86677(13)
C22 C 0.28905(18) 0.11983(15) 0.63207(14)
H17 H 0.2961 0.0203 0.6260
H18 H 0.3621 0.1567 0.5894
C23 C 0.1372(2) 0.15292(19) 0.55826(17)
H19 H 0.0641 0.1206 0.6019
H20 H 0.1194 0.1081 0.4703
H21 H 0.1321 0.2510 0.5560
loop_
_geom_bond_atom_site_label_1
_geom_bond_atom_site_label_2
_geom_bond_site_symmetry_1
_geom_bond_site_symmetry_2
Cl1 C21 1_555 1_555
C1 H1 1_555 1_555
C2 C1 1_555 1_555
H2 C2 1_555 1_555
C3 C2 1_555 1_555
H3 C3 1_555 1_555
C4 C3 1_555 1_555
H4 C4 1_555 1_555
C5 C4 1_555 1_555
H5 C5 1_555 1_555
C6 C1 1_555 1_555
C7 H6 1_555 1_555
C8 C7 1_555 1_555
H7 C8 1_555 1_555
C9 C8 1_555 1_555
H8 C9 1_555 1_555
C10 C9 1_555 1_555
H9 C10 1_555 1_555
C11 C10 1_555 1_555
H10 C11 1_555 1_555
C12 C7 1_555 1_555
C13 H11 1_555 1_555
C14 C13 1_555 1_555
H12 C14 1_555 1_555
C15 C14 1_555 1_555
H13 C15 1_555 1_555
C16 C15 1_555 1_555
H14 C16 1_555 1_555
C17 C16 1_555 1_555
H15 C17 1_555 1_555
C18 C13 1_555 1_555
C19 C6 1_555 1_555
H16 C19 1_555 1_555
C20 C19 1_555 1_555
C21 C18 1_555 1_555
C22 C20 1_555 1_555
H17 C22 1_555 1_555
H18 C22 1_555 1_555
C23 C22 1_555 1_555
H19 C23 1_555 1_555
H20 C23 1_555 1_555
H21 C23 1_555 1_555
C5 C6 1_555 1_555
C11 C12 1_555 1_555
C12 C19 1_555 1_555
C17 C18 1_555 1_555
C20 C21 1_555 1_555

#END
