
#######################################################################
#
#                 Cambridge Crystallographic Data Centre
#                                CCDC 
#
#######################################################################
#
# If this CIF has been generated from an entry in the Cambridge 
# Structural Database, then it will include bibliographic, chemical, 
# crystal, experimental, refinement or atomic coordinate data resulting 
# from the CCDC's data processing and validation procedures.
#
#######################################################################

data_OCIBIL
_chemical_formula_moiety         'C7 H6 S5'
_chemical_name_systematic        
5,6-Dimethyl-1,3-dithiolo(4,5-b)(1,4)dithi-in-2-thione
_symmetry_cell_setting           triclinic
_symmetry_space_group_name_H-M   'P -1'
_symmetry_Int_Tables_number      2
_space_group_name_Hall           '-P 1'
loop_
_symmetry_equiv_pos_site_id
_symmetry_equiv_pos_as_xyz
1 x,y,z
2 -x,-y,-z
_cell_length_a                   4.145(2)
_cell_length_b                   10.600(2)
_cell_length_c                   12.279(2)
_cell_angle_alpha                71.440(10)
_cell_angle_beta                 84.30(2)
_cell_angle_gamma                87.31(2)
_cell_volume                     508.847
_exptl_crystal_colour            yellow
_exptl_crystal_description       'rectangular plate'
_cell_formula_units_Z            2
loop_
_atom_site_label
_atom_site_type_symbol
_atom_site_fract_x
_atom_site_fract_y
_atom_site_fract_z
S1 S 0.8389(5) 0.81748(18) 0.68037(18)
S2 S 0.4494(4) 0.94139(15) 0.83566(13)
S3 S 0.5340(4) 1.08596(15) 0.59288(13)
S4 S 0.1291(4) 1.32074(16) 0.62130(14)
S5 S 0.0425(4) 1.16279(16) 0.89034(14)
C1 C 0.6203(14) 0.9416(6) 0.7013(5)
C2 C 0.2516(13) 1.0937(5) 0.7918(5)
C3 C 0.2866(14) 1.1608(5) 0.6785(5)
C4 C 0.2266(14) 1.3945(6) 0.7249(6)
C5 C 0.1915(15) 1.3277(6) 0.8379(5)
C6 C 0.3506(18) 1.5329(6) 0.6724(7)
H1 H 0.3516 1.5584 0.5900
H2 H 0.5672 1.5361 0.6927
H3 H 0.2128 1.5930 0.7008
C7 C 0.262(2) 1.3806(7) 0.9324(6)
H4 H 0.2185 1.3134 1.0057
H5 H 0.1279 1.4576 0.9296
H6 H 0.4864 1.4047 0.9226
loop_
_geom_bond_atom_site_label_1
_geom_bond_atom_site_label_2
_geom_bond_site_symmetry_1
_geom_bond_site_symmetry_2
S1 C1 1_555 1_555
S2 C1 1_555 1_555
S3 C1 1_555 1_555
S4 C3 1_555 1_555
S5 C2 1_555 1_555
C2 S2 1_555 1_555
C3 S3 1_555 1_555
C4 S4 1_555 1_555
C5 S5 1_555 1_555
C6 C4 1_555 1_555
H1 C6 1_555 1_555
H2 C6 1_555 1_555
H3 C6 1_555 1_555
C7 C5 1_555 1_555
H4 C7 1_555 1_555
H5 C7 1_555 1_555
H6 C7 1_555 1_555
C2 C3 1_555 1_555
C4 C5 1_555 1_555

#END
