
#######################################################################
#
#                 Cambridge Crystallographic Data Centre
#                                CCDC 
#
#######################################################################
#
# If this CIF has been generated from an entry in the Cambridge 
# Structural Database, then it will include bibliographic, chemical, 
# crystal, experimental, refinement or atomic coordinate data resulting 
# from the CCDC's data processing and validation procedures.
#
#######################################################################

data_OCIDAI
_chemical_formula_moiety         'C10 H12 N4,3(H2 O1)'
_chemical_name_systematic        
'4-(4-ethyl-5-methyl-4H-1,2,4-triazol-3-yl)pyridine trihydrate'
_symmetry_cell_setting           monoclinic
_symmetry_space_group_name_H-M   'P 21/c'
_symmetry_Int_Tables_number      14
_space_group_name_Hall           '-P 2ybc'
loop_
_symmetry_equiv_pos_site_id
_symmetry_equiv_pos_as_xyz
1 x,y,z
2 -x,1/2+y,1/2-z
3 -x,-y,-z
4 x,1/2-y,1/2+z
_cell_length_a                   13.908(7)
_cell_length_b                   10.646(5)
_cell_length_c                   8.897(5)
_cell_angle_alpha                90
_cell_angle_beta                 101.169(6)
_cell_angle_gamma                90
_cell_volume                     1292.38
_exptl_crystal_colour            colorless
_cell_formula_units_Z            4
loop_
_atom_site_label
_atom_site_type_symbol
_atom_site_fract_x
_atom_site_fract_y
_atom_site_fract_z
C1 C 0.44388(10) 0.25719(15) 0.43382(17)
H1 H 0.4639 0.3383 0.4757
H2 H 0.4968 0.2192 0.3951
H3 H 0.4267 0.2049 0.5124
C2 C 0.35775(9) 0.27147(12) 0.30732(15)
C3 C 0.23041(9) 0.22972(11) 0.13108(14)
C4 C 0.15065(9) 0.16760(12) 0.02423(14)
C5 C 0.16157(11) 0.05320(13) -0.04482(16)
H4 H 0.2197 0.0080 -0.0192
C6 C 0.08470(12) 0.00787(15) -0.15210(17)
H5 H 0.0933 -0.0685 -0.1986
C7 C -0.01108(11) 0.17493(15) -0.12433(18)
H6 H -0.0707 0.2168 -0.1502
C8 C 0.06137(10) 0.22885(13) -0.01695(17)
H7 H 0.0508 0.3054 0.0276
C9 C 0.31210(11) 0.04177(12) 0.28727(16)
H8 H 0.2518 -0.0030 0.2474
H9 H 0.3238 0.0367 0.3982
C10 C 0.39594(12) -0.02108(14) 0.2304(2)
H10 H 0.3823 -0.0222 0.1204
H11 H 0.4033 -0.1056 0.2684
H12 H 0.4554 0.0248 0.2663
N1 N 0.32543(8) 0.37810(10) 0.24323(13)
N2 N 0.24417(8) 0.35176(10) 0.13103(13)
N3 N 0.30033(7) 0.17475(9) 0.24043(12)
N4 N -0.00092(10) 0.06565(13) -0.19387(15)
O1 O 0.36742(11) 0.64518(12) 0.27638(16)
H13 H 0.3349(14) 0.6794(14) 0.338(2)
H14 H 0.3589(17) 0.5661(9) 0.281(3)
O2 O 0.87085(10) 0.06796(12) 0.51547(17)
H15 H 0.8380(12) 0.0026(13) 0.478(2)
H16 H 0.9046(14) 0.0475(17) 0.6024(14)
O3 O 0.72761(14) 0.25168(15) 0.5033(2)
H17 H 0.6872(12) 0.2149(18) 0.432(2)
H18 H 0.7774(10) 0.2028(18) 0.529(2)
loop_
_geom_bond_atom_site_label_1
_geom_bond_atom_site_label_2
_geom_bond_site_symmetry_1
_geom_bond_site_symmetry_2
C1 H1 1_555 1_555
H2 C1 1_555 1_555
H3 C1 1_555 1_555
C2 C1 1_555 1_555
C3 C4 1_555 1_555
C4 C5 1_555 1_555
C5 H4 1_555 1_555
C6 C5 1_555 1_555
H5 C6 1_555 1_555
C7 H6 1_555 1_555
C8 C4 1_555 1_555
H7 C8 1_555 1_555
C9 H8 1_555 1_555
H9 C9 1_555 1_555
C10 C9 1_555 1_555
H10 C10 1_555 1_555
H11 C10 1_555 1_555
H12 C10 1_555 1_555
N1 C2 1_555 1_555
N2 C3 1_555 1_555
N3 C2 1_555 1_555
N4 C6 1_555 1_555
O1 H13 1_555 1_555
H14 O1 1_555 1_555
O2 H15 1_555 1_555
H16 O2 1_555 1_555
O3 H17 1_555 1_555
H18 O3 1_555 1_555
C3 N3 1_555 1_555
C7 C8 1_555 1_555
C7 N4 1_555 1_555
C9 N3 1_555 1_555
N1 N2 1_555 1_555

#END
