
#######################################################################
#
#                 Cambridge Crystallographic Data Centre
#                                CCDC 
#
#######################################################################
#
# If this CIF has been generated from an entry in the Cambridge 
# Structural Database, then it will include bibliographic, chemical, 
# crystal, experimental, refinement or atomic coordinate data resulting 
# from the CCDC's data processing and validation procedures.
#
#######################################################################

data_OCINIY
_chemical_formula_moiety         'C11 H10 N6 O1 S1'
_chemical_name_systematic        
6-amino-3-benzylthio(1,2,4)triazolo(3,4-f)(1,2,4)triazin-8(7H)-one
_symmetry_cell_setting           monoclinic
_symmetry_space_group_name_H-M   'P 21/c'
_symmetry_Int_Tables_number      14
_space_group_name_Hall           '-P 2ybc'
loop_
_symmetry_equiv_pos_site_id
_symmetry_equiv_pos_as_xyz
1 x,y,z
2 -x,1/2+y,1/2-z
3 -x,-y,-z
4 x,1/2-y,1/2+z
_cell_length_a                   7.2926(15)
_cell_length_b                   14.456(2)
_cell_length_c                   11.436(2)
_cell_angle_alpha                90
_cell_angle_beta                 105.30(2)
_cell_angle_gamma                90
_cell_volume                     1162.87
_exptl_crystal_colour            colorless
_exptl_crystal_description       block
_chemical_melting_point          '229-230 deg.C'
_cell_formula_units_Z            4
_exptl_crystal_recrystallization_method water
loop_
_atom_site_label
_atom_site_type_symbol
_atom_site_fract_x
_atom_site_fract_y
_atom_site_fract_z
S1 S 0.39214(7) 0.10032(3) 0.64742(4)
O1 O 0.1842(2) -0.31010(8) 0.70749(11)
N1 N 0.2536(2) -0.15284(10) 0.55376(12)
N2 N 0.2907(2) -0.06309(10) 0.52865(13)
C1 C 0.3321(3) -0.01580(11) 0.63150(14)
N3 N 0.3236(2) -0.07414(9) 0.72414(12)
N4 N 0.3632(2) -0.05263(9) 0.84609(12)
C2 C 0.3413(2) -0.12379(11) 0.91199(14)
N5 N 0.2793(2) -0.21002(9) 0.86641(12)
H1 H 0.2648(2) -0.25171(9) 0.91687(12)
C3 C 0.2391(2) -0.23388(11) 0.74591(14)
C4 C 0.2712(2) -0.15712(11) 0.67153(14)
C5 C 0.1906(3) 0.14463(13) 0.6975(2)
H2 H 0.0724(3) 0.12159(13) 0.6450(2)
H3 H 0.1994(3) 0.12407(13) 0.7795(2)
C6 C 0.1940(3) 0.24885(12) 0.6930(2)
C7 C 0.1397(3) 0.29596(13) 0.5833(2)
H4 H 0.1086(3) 0.26281(13) 0.5111(2)
C8 C 0.1313(3) 0.39093(14) 0.5803(2)
H5 H 0.0971(3) 0.42159(14) 0.5062(2)
C9 C 0.1734(3) 0.44086(14) 0.6867(2)
H6 H 0.1644(3) 0.50504(14) 0.6847(2)
C10 C 0.2286(3) 0.39537(15) 0.7954(2)
H7 H 0.2567(3) 0.42888(15) 0.8674(2)
C11 C 0.2430(3) 0.29984(15) 0.7990(2)
H8 H 0.2858(3) 0.26979(15) 0.8731(2)
N6 N 0.3854(3) -0.11506(11) 1.03285(13)
H9 H 0.4276(3) -0.06322(11) 1.06620(13)
H10 H 0.3717(3) -0.16131(11) 1.07708(13)
loop_
_geom_bond_atom_site_label_1
_geom_bond_atom_site_label_2
_geom_bond_site_symmetry_1
_geom_bond_site_symmetry_2
S1 C1 1_555 1_555
O1 C3 1_555 1_555
N1 N2 1_555 1_555
N2 C1 1_555 1_555
C1 N3 1_555 1_555
N3 N4 1_555 1_555
N4 C2 1_555 1_555
C2 N5 1_555 1_555
N5 H1 1_555 1_555
C3 N5 1_555 1_555
C4 N1 1_555 1_555
C5 S1 1_555 1_555
H2 C5 1_555 1_555
H3 C5 1_555 1_555
C6 C5 1_555 1_555
C7 C6 1_555 1_555
H4 C7 1_555 1_555
C8 C7 1_555 1_555
H5 C8 1_555 1_555
C9 C8 1_555 1_555
H6 C9 1_555 1_555
C10 C9 1_555 1_555
H7 C10 1_555 1_555
C11 C6 1_555 1_555
H8 C11 1_555 1_555
N6 C2 1_555 1_555
H9 N6 1_555 1_555
H10 N6 1_555 1_555
N3 C4 1_555 1_555
C3 C4 1_555 1_555
C10 C11 1_555 1_555

#END
