
#######################################################################
#
#                 Cambridge Crystallographic Data Centre
#                                CCDC 
#
#######################################################################
#
# If this CIF has been generated from an entry in the Cambridge 
# Structural Database, then it will include bibliographic, chemical, 
# crystal, experimental, refinement or atomic coordinate data resulting 
# from the CCDC's data processing and validation procedures.
#
#######################################################################

data_OCIQUM
_chemical_formula_moiety         'C5 H6 N5 1+,I3 1-,2.5(I2),H2 O1'
_chemical_name_systematic        'Adeninium tri-iodide di-iodine monohydrate'
_symmetry_cell_setting           monoclinic
_symmetry_space_group_name_H-M   'P 21/n'
_symmetry_Int_Tables_number      14
_space_group_name_Hall           '-P 2yn'
loop_
_symmetry_equiv_pos_site_id
_symmetry_equiv_pos_as_xyz
1 x,y,z
2 1/2+x,1/2-y,1/2+z
3 -x,-y,-z
4 1/2-x,1/2+y,1/2-z
_cell_length_a                   9.1467(2)
_cell_length_b                   24.7323(9)
_cell_length_c                   9.9400(4)
_cell_angle_alpha                90
_cell_angle_beta                 101.8877(17)
_cell_angle_gamma                90
_cell_volume                     2200.39
_exptl_crystal_colour            black
_exptl_crystal_description       column
_cell_formula_units_Z            4
loop_
_atom_site_label
_atom_site_type_symbol
_atom_site_fract_x
_atom_site_fract_y
_atom_site_fract_z
I1 I -0.39974(6) 0.01935(2) -0.07263(7)
I1B I -0.60026(6) -0.01935(2) 0.07263(7)
I2 I -0.18063(5) 0.05390(2) -0.29984(6)
I3 I 0.10515(5) 0.072975(18) -0.37841(6)
I4 I 0.38604(5) 0.09277(2) -0.46506(7)
I5 I 0.52848(5) 0.19155(2) -0.25977(6)
I6 I 0.66824(6) 0.27360(2) -0.09570(7)
I7 I -0.02345(6) -0.06641(2) -0.17016(6)
I8 I 0.12470(6) -0.15793(2) -0.06986(6)
N1 N 0.6061(6) 0.2561(2) 0.3402(6)
H1 H 0.6693 0.2716 0.4048
C1 C 0.5061(7) 0.2878(3) 0.2558(8)
H2 H 0.5092 0.3248 0.2737
N2 N 0.4063(6) 0.2709(2) 0.1522(6)
C2 C 0.4084(7) 0.2158(2) 0.1373(7)
C3 C 0.5064(6) 0.1816(2) 0.2174(7)
C4 C 0.6125(6) 0.2019(2) 0.3290(7)
N3 N 0.7112(5) 0.1736(2) 0.4151(6)
H3 H 0.7730 0.1896 0.4797
H4 H 0.7142 0.1390 0.4068
N4 N 0.4710(5) 0.1314(2) 0.1683(6)
H5 H 0.5133 0.1016 0.1999
C5 C 0.3564(7) 0.1370(3) 0.0600(8)
H6 H 0.3119 0.1081 0.0072
N5 N 0.3131(6) 0.1881(2) 0.0362(6)
O1 O 0.6831(6) 0.0597(2) 0.3241(6)
H7 H 0.773(6) 0.044(3) 0.312(11)
H8 H 0.625(7) 0.032(2) 0.353(10)
loop_
_geom_bond_atom_site_label_1
_geom_bond_atom_site_label_2
_geom_bond_site_symmetry_1
_geom_bond_site_symmetry_2
I1 I1B 1_555 1_555
I2 I3 1_555 1_555
I3 I4 1_555 1_555
I5 I6 1_555 1_555
I7 I8 1_555 1_555
N1 H1 1_555 1_555
C1 N1 1_555 1_555
H2 C1 1_555 1_555
N2 C1 1_555 1_555
C2 N2 1_555 1_555
C3 C2 1_555 1_555
C4 N1 1_555 1_555
N3 C4 1_555 1_555
H3 N3 1_555 1_555
H4 N3 1_555 1_555
N4 C3 1_555 1_555
H5 N4 1_555 1_555
C5 N4 1_555 1_555
H6 C5 1_555 1_555
N5 C2 1_555 1_555
O1 H7 1_555 1_555
H8 O1 1_555 1_555
C3 C4 1_555 1_555
C5 N5 1_555 1_555

#END
