
#######################################################################
#
#                 Cambridge Crystallographic Data Centre
#                                CCDC 
#
#######################################################################
#
# If this CIF has been generated from an entry in the Cambridge 
# Structural Database, then it will include bibliographic, chemical, 
# crystal, experimental, refinement or atomic coordinate data resulting 
# from the CCDC's data processing and validation procedures.
#
#######################################################################

data_OCIQEY
_chemical_formula_moiety         'C93 H64 N4 O2 2+,2(H1 O1 1-),6(C3 H8 O1)'
_chemical_name_systematic        
'5-(4-carboxyphenyl)-2,3,7,8,10,12,13,15,17,18,2-undecaphenyl-21,22,23,24-tetrahydroporphyrin dihydroxide isopropanol solvate'
_symmetry_cell_setting           monoclinic
_symmetry_space_group_name_H-M   'P 21/c'
_symmetry_Int_Tables_number      14
_space_group_name_Hall           '-P 2ybc'
loop_
_symmetry_equiv_pos_site_id
_symmetry_equiv_pos_as_xyz
1 x,y,z
2 -x,1/2+y,1/2-z
3 -x,-y,-z
4 x,1/2-y,1/2+z
_cell_length_a                   30.628(2)
_cell_length_b                   30.1805(5)
_cell_length_c                   40.738(3)
_cell_angle_alpha                90
_cell_angle_beta                 113.212(8)
_cell_angle_gamma                90
_cell_volume                     34608.7
_exptl_crystal_colour            green
_exptl_crystal_description       prism
_cell_formula_units_Z            16
loop_
_atom_site_label
_atom_site_type_symbol
_atom_site_fract_x
_atom_site_fract_y
_atom_site_fract_z
N1 N 0.43875(12) 0.39573(12) 0.40347(9)
H1 H 0.4503 0.3756 0.4203
N2 N 0.50936(12) 0.32580(13) 0.40045(9)
H2 H 0.4786 0.3231 0.388
N3 N 0.44937(13) 0.25532(12) 0.41573(9)
H3 H 0.4556 0.2813 0.4264
N4 N 0.37368(12) 0.32283(12) 0.41095(9)
H4 H 0.3856 0.3209 0.3946
C1 C 0.39366(17) 0.41299(16) 0.39136(11)
C2 C 0.38822(16) 0.44225(14) 0.36269(11)
C3 C 0.43161(16) 0.44286(14) 0.35909(11)
C4 C 0.46269(17) 0.41474(14) 0.38521(12)
C5 C 0.51221(16) 0.40678(16) 0.39443(11)
C6 C 0.53214(16) 0.36571(18) 0.40823(11)
C7 C 0.58132(14) 0.35509(17) 0.43139(11)
C8 C 0.58464(16) 0.30944(18) 0.43399(11)
C9 C 0.53852(16) 0.29110(16) 0.41365(11)
C10 C 0.52446(16) 0.24728(17) 0.40757(11)
C11 C 0.47861(18) 0.23333(17) 0.40237(12)
C12 C 0.45253(17) 0.19374(16) 0.38398(12)
C13 C 0.41108(17) 0.19252(16) 0.38968(12)
C14 C 0.40908(17) 0.23050(14) 0.40983(11)
C15 C 0.37367(16) 0.24270(17) 0.42217(11)
C16 C 0.36575(16) 0.28772(17) 0.42865(11)
C17 C 0.34789(14) 0.30471(17) 0.45412(11)
C18 C 0.34532(13) 0.35013(17) 0.45083(11)
C19 C 0.36051(13) 0.36208(17) 0.42209(11)
C20 C 0.36035(14) 0.40270(17) 0.40671(11)
C21 C 0.34109(11) 0.45591(16) 0.33656(8)
C22 C 0.32744(14) 0.50007(13) 0.33034(10)
H5 H 0.3491 0.5228 0.3426
C23 C 0.28205(17) 0.51091(12) 0.30612(11)
H6 H 0.2727 0.5411 0.3019
C24 C 0.25031(12) 0.47759(18) 0.28812(9)
H7 H 0.2193 0.485 0.2716
C25 C 0.26397(13) 0.43343(14) 0.29434(10)
H8 H 0.2423 0.4107 0.282
C26 C 0.30936(16) 0.42259(12) 0.31856(11)
H9 H 0.3187 0.3924 0.3228
C27 C 0.44003(11) 0.46108(12) 0.32816(6)
C28 C 0.45396(12) 0.43176(10) 0.30780(9)
H10 H 0.458 0.4012 0.3139
C29 C 0.46206(12) 0.44713(14) 0.27852(8)
H11 H 0.4716 0.4271 0.2646
C30 C 0.45622(12) 0.49182(16) 0.26961(8)
H12 H 0.4618 0.5023 0.2496
C31 C 0.44229(13) 0.52114(11) 0.28997(11)
H13 H 0.4383 0.5517 0.2839
C32 C 0.43419(12) 0.50577(11) 0.31924(9)
H14 H 0.4247 0.5258 0.3332
C33 C 0.54314(11) 0.44292(12) 0.38926(8)
C34 C 0.53696(12) 0.48677(14) 0.39695(8)
H15 H 0.5139 0.4941 0.4062
C35 C 0.56458(18) 0.51990(11) 0.39108(10)
H16 H 0.5604 0.5499 0.3963
C36 C 0.59838(14) 0.50919(16) 0.37752(10)
H17 H 0.6173 0.5318 0.3735
C37 C 0.60456(11) 0.4653(2) 0.36982(9)
H18 H 0.6277 0.458 0.3606
C38 C 0.57694(12) 0.43220(12) 0.37569(9)
H19 H 0.5812 0.4022 0.3704
C39 C 0.61476(11) 0.38815(10) 0.45474(6)
C40 C 0.59991(9) 0.41158(12) 0.47786(9)
H20 H 0.569 0.4069 0.4774
C41 C 0.63032(13) 0.44183(11) 0.50172(8)
H21 H 0.6202 0.4578 0.5175
C42 C 0.67558(12) 0.44864(10) 0.50246(8)
H22 H 0.6964 0.4693 0.5188
C43 C 0.69043(9) 0.42521(12) 0.47934(10)
H23 H 0.7214 0.4299 0.4798
C44 C 0.66002(12) 0.39496(12) 0.45548(8)
H24 H 0.6702 0.3789 0.4397
C45 C 0.62778(12) 0.28473(12) 0.45623(9)
C46 C 0.62827(13) 0.25763(13) 0.48396(11)
H25 H 0.6006 0.255 0.489
C47 C 0.66918(18) 0.23434(12) 0.50429(9)
H26 H 0.6695 0.2158 0.5232
C48 C 0.70961(13) 0.23816(12) 0.49689(11)
H27 H 0.7376 0.2222 0.5108
C49 C 0.70913(12) 0.26526(14) 0.46915(12)
H28 H 0.7368 0.2679 0.4641
C50 C 0.66821(14) 0.28855(12) 0.44883(9)
H29 H 0.6679 0.3071 0.4299
C51 C 0.55945(11) 0.21137(12) 0.40969(9)
C52 C 0.55941(12) 0.17235(14) 0.42779(9)
H30 H 0.5367 0.1681 0.438
C53 C 0.59261(18) 0.13948(12) 0.43094(10)
H31 H 0.5926 0.1128 0.4433
C54 C 0.62586(13) 0.14564(13) 0.41597(12)
C55 C 0.62590(11) 0.18467(17) 0.39787(10)
H32 H 0.6486 0.1889 0.3876
C56 C 0.59269(13) 0.21754(12) 0.39473(8)
H33 H 0.5927 0.2442 0.3824
C57 C 0.46423(12) 0.16847(14) 0.35798(9)
C58 C 0.46793(13) 0.12256(14) 0.35987(11)
H34 H 0.4638 0.1071 0.3788
C59 C 0.47769(13) 0.09924(12) 0.33412(14)
H35 H 0.4802 0.0679 0.3354
C60 C 0.48376(12) 0.12184(18) 0.30648(12)
H36 H 0.4904 0.1059 0.2889
C61 C 0.48006(12) 0.16775(18) 0.30459(9)
H37 H 0.4842 0.1832 0.2857
C62 C 0.47030(12) 0.19107(12) 0.33034(10)
H38 H 0.4678 0.2225 0.329
C63 C 0.37186(13) 0.15927(13) 0.37391(11)
C64 C 0.32975(17) 0.17210(12) 0.34637(11)
H39 H 0.3263 0.2014 0.3372
C65 C 0.29266(12) 0.1420(2) 0.33217(10)
H40 H 0.2639 0.1508 0.3134
C66 C 0.29769(17) 0.09907(18) 0.34552(13)
H41 H 0.2723 0.0785 0.3358
C67 C 0.3398(2) 0.08624(12) 0.37306(14)
H42 H 0.3433 0.0569 0.3822
C68 C 0.37690(14) 0.11634(16) 0.38726(12)
H43 H 0.4057 0.1076 0.4061
C69 C 0.34420(13) 0.20823(12) 0.42911(10)
C70 C 0.29504(14) 0.20996(12) 0.41164(9)
H44 H 0.2805 0.2337 0.3958
C71 C 0.26718(12) 0.17693(18) 0.41735(12)
H45 H 0.2336 0.1781 0.4054
C72 C 0.2885(2) 0.14218(13) 0.44053(13)
C73 C 0.3376(2) 0.14045(12) 0.45801(12)
H46 H 0.3522 0.1167 0.4739
C74 C 0.36551(12) 0.17348(16) 0.45229(11)
H47 H 0.3991 0.1723 0.4642
C75 C 0.2479(4) 0.1097(4) 0.4365(4)
O1 O 0.2052(4) 0.1084(4) 0.4187(2)
O2 O 0.2674(4) 0.0818(5) 0.4604(4)
C76 C 0.34791(12) 0.27779(10) 0.48422(8)
C77 C 0.30599(11) 0.26844(12) 0.48846(9)
H48 H 0.2767 0.2802 0.4721
C78 C 0.30691(14) 0.24184(12) 0.51657(11)
H49 H 0.2783 0.2355 0.5195
C79 C 0.3497(2) 0.22459(11) 0.54046(9)
H50 H 0.3504 0.2064 0.5597
C80 C 0.39165(14) 0.23394(12) 0.53622(9)
H51 H 0.4209 0.2222 0.5525
C81 C 0.39073(11) 0.26054(12) 0.50810(10)
H52 H 0.4194 0.2669 0.5052
C82 C 0.33809(11) 0.38115(9) 0.47576(6)
C83 C 0.37535(9) 0.40958(11) 0.49439(8)
H53 H 0.4036 0.4091 0.49
C84 C 0.37129(11) 0.43871(10) 0.51947(8)
H54 H 0.3968 0.4581 0.5322
C85 C 0.32998(12) 0.43942(10) 0.52591(8)
H55 H 0.3272 0.4593 0.543
C86 C 0.29272(10) 0.41099(12) 0.50727(9)
H56 H 0.2645 0.4115 0.5117
C87 C 0.29677(9) 0.38185(10) 0.48220(8)
C88 C 0.32574(12) 0.43731(12) 0.40626(9)
C89 C 0.33964(12) 0.48115(14) 0.41447(8)
H57 H 0.3722 0.4891 0.422
C90 C 0.3059(2) 0.51343(12) 0.41160(10)
H58 H 0.3154 0.5434 0.4172
C91 C 0.25835(17) 0.50185(17) 0.40052(11)
H59 H 0.2353 0.5239 0.3986
C92 C 0.24445(10) 0.4580(2) 0.39231(10)
H60 H 0.2119 0.4501 0.3847
C93 C 0.27814(13) 0.42573(12) 0.39518(9)
H61 H 0.2686 0.3958 0.3896
N5 N 0.12325(13) 0.36860(13) 0.15727(11)
H62 H 0.1114 0.3436 0.1462
N6 N 0.18820(12) 0.29667(14) 0.14863(10)
H63 H 0.182 0.2996 0.1679
N7 N 0.13724(13) 0.22762(13) 0.17490(10)
H64 H 0.1217 0.2479 0.1591
N8 N 0.07926(14) 0.30014(16) 0.19130(10)
H65 H 0.1103 0.3021 0.1984
C94 C 0.10482(18) 0.39223(18) 0.17754(13)
C95 C 0.13705(18) 0.42945(17) 0.19344(13)
C96 C 0.17192(17) 0.42721(16) 0.18061(12)
C97 C 0.1625(2) 0.38936(18) 0.15666(13)
C98 C 0.18753(17) 0.3764(2) 0.13578(12)
C99 C 0.19103(18) 0.3311(2) 0.12754(12)
C100 C 0.19901(17) 0.3118(2) 0.09806(12)
C101 C 0.20151(16) 0.26612(17) 0.10300(12)
C102 C 0.19624(16) 0.2574(2) 0.13574(12)
C103 C 0.20135(18) 0.21654(18) 0.15351(12)
C104 C 0.17925(17) 0.20876(16) 0.17779(12)
C105 C 0.19327(18) 0.18074(17) 0.20804(12)
C106 C 0.15885(18) 0.18066(17) 0.22117(12)
C107 C 0.12283(18) 0.21032(18) 0.20004(12)
C108 C 0.07831(18) 0.2206(2) 0.20107(12)
C109 C 0.05583(18) 0.2623(2) 0.18905(12)
C110 C 0.0053(2) 0.2718(2) 0.17463(14)
C111 C 0.00148(17) 0.3177(2) 0.16964(13)
C112 C 0.0488(2) 0.3358(2) 0.18114(12)
C113 C 0.06412(17) 0.3800(2) 0.18276(13)
C114 C 0.13595(12) 0.45696(12) 0.22304(9)
C115 C 0.13514(12) 0.50295(13) 0.22101(10)
H66 H 0.1353 0.5172 0.2003
C116 C 0.13403(14) 0.52802(11) 0.24929(12)
H67 H 0.1335 0.5595 0.2479
C117 C 0.13374(16) 0.50711(17) 0.27960(11)
H68 H 0.133 0.5242 0.2989
C118 C 0.13455(14) 0.46112(17) 0.28163(9)
H69 H 0.1343 0.4468 0.3023
C119 C 0.13566(12) 0.43605(11) 0.25335(11)
H70 H 0.1362 0.4046 0.2547
C120 C 0.21945(12) 0.45076(13) 0.19440(10)
C121 C 0.25930(17) 0.42540(11) 0.21350(11)
H71 H 0.256 0.3947 0.217
C122 C 0.30396(12) 0.44502(17) 0.22749(10)
H72 H 0.3312 0.4277 0.2405
C123 C 0.30877(12) 0.49000(18) 0.22239(11)
H73 H 0.3393 0.5034 0.2319
C124 C 0.2689(2) 0.51536(12) 0.20329(12)
H74 H 0.2722 0.5461 0.1998
C125 C 0.22427(14) 0.49574(13) 0.18930(10)
H75 H 0.197 0.5131 0.1762
C126 C 0.2101(2) 0.41078(16) 0.12206(12)
C127 C 0.2583(2) 0.40874(17) 0.12913(12)
H76 H 0.2765 0.384 0.1415
C128 C 0.27975(17) 0.4429(2) 0.11804(16)
H77 H 0.3127 0.4415 0.1229
C129 C 0.2530(2) 0.47904(18) 0.09988(16)
C130 C 0.2048(2) 0.48108(16) 0.09280(12)
H78 H 0.1865 0.5058 0.0804
C131 C 0.18333(16) 0.4470(2) 0.10389(12)
H79 H 0.1504 0.4483 0.0991
C132 C 0.2808(4) 0.5105(2) 0.0919(4)
O3 O 0.3201(4) 0.5040(2) 0.0920(4)
O4 O 0.2605(2) 0.5470(2) 0.0824(2)
C133 C 0.19654(13) 0.33662(11) 0.06549(8)
C134 C 0.23464(11) 0.33455(11) 0.05512(9)
H80 H 0.2619 0.3175 0.0686
C135 C 0.23287(13) 0.35748(12) 0.02503(10)
H81 H 0.2589 0.3561 0.0179
C136 C 0.19302(18) 0.38248(12) 0.00532(8)
H82 H 0.1918 0.3982 -0.0152
C137 C 0.15492(13) 0.38456(12) 0.01568(11)
H83 H 0.1277 0.4017 0.0022
C138 C 0.15669(12) 0.36163(13) 0.04577(11)
H84 H 0.1307 0.363 0.0529
C139 C 0.19796(12) 0.23214(10) 0.07598(8)
C140 C 0.15487(11) 0.21011(12) 0.05981(10)
H85 H 0.1288 0.2176 0.0659
C141 C 0.14987(12) 0.17710(12) 0.03479(9)
H86 H 0.1204 0.162 0.0237
C142 C 0.18795(16) 0.16612(11) 0.02593(9)
H87 H 0.1845 0.1436 0.0088
C143 C 0.23104(12) 0.18815(12) 0.04210(10)
H88 H 0.2571 0.1807 0.036
C144 C 0.23604(10) 0.22116(12) 0.06712(9)
H89 H 0.2655 0.2362 0.0782
C145 C 0.23125(14) 0.18194(13) 0.14817(10)
C146 C 0.21113(13) 0.14154(18) 0.13353(10)
H90 H 0.178 0.1368 0.1267
C147 C 0.2394(2) 0.10810(12) 0.12895(12)
H91 H 0.2257 0.0805 0.1189
C148 C 0.2878(2) 0.11506(18) 0.13901(12)
H92 H 0.3072 0.0922 0.1359
C149 C 0.30796(12) 0.1555(2) 0.15364(12)
H93 H 0.3411 0.1602 0.1605
C150 C 0.27966(16) 0.18890(14) 0.15822(10)
H94 H 0.2934 0.2165 0.1682
C151 C 0.24417(10) 0.16333(14) 0.22605(9)
C152 C 0.25652(14) 0.11915(12) 0.22522(10)
H95 H 0.2327 0.0979 0.2131
C153 C 0.30368(18) 0.10607(12) 0.24215(11)
H96 H 0.3121 0.0759 0.2416
C154 C 0.33847(11) 0.13716(18) 0.25991(10)
H97 H 0.3707 0.1282 0.2715
C155 C 0.32612(12) 0.18134(16) 0.26073(9)
H98 H 0.3499 0.2026 0.2729
C156 C 0.27896(14) 0.19443(11) 0.24380(10)
H99 H 0.2705 0.2246 0.2444
C157 C 0.16214(12) 0.16120(13) 0.25572(8)
C158 C 0.15930(12) 0.18857(12) 0.28225(11)
H100 H 0.1554 0.2196 0.2784
C159 C 0.16222(14) 0.17052(17) 0.31444(9)
H101 H 0.1603 0.1892 0.3326
C160 C 0.16798(14) 0.12509(18) 0.32010(9)
H102 H 0.17 0.1128 0.3421
C161 C 0.17082(12) 0.09771(12) 0.29357(12)
H103 H 0.1748 0.0667 0.2974
C162 C 0.16790(12) 0.11577(12) 0.26138(10)
H104 H 0.1698 0.0971 0.2433
C163 C 0.05427(12) 0.18633(14) 0.21431(11)
C164 C 0.03737(16) 0.19760(14) 0.24025(12)
H105 H 0.0412 0.227 0.2494
C165 C 0.01486(18) 0.1659(2) 0.25286(12)
H106 H 0.0033 0.1736 0.2706
C166 C 0.00926(18) 0.1230(2) 0.23951(16)
H107 H -0.0061 0.1013 0.2481
C167 C 0.02616(17) 0.11169(12) 0.21356(16)
H108 H 0.0223 0.0823 0.2044
C168 C 0.04866(13) 0.14337(17) 0.20096(11)
H109 H 0.0602 0.1357 0.1832
C169 C -0.03217(13) 0.23860(14) 0.16082(12)
C170 C -0.0685(2) 0.2361(2) 0.17308(16)
H110 H -0.0689 0.2559 0.1911
C171 C -0.10424(17) 0.2047(2) 0.1590(2)
H111 H -0.1291 0.2029 0.1674
C172 C -0.1036(2) 0.17573(18) 0.1326(2)
H112 H -0.1281 0.1543 0.123
C173 C -0.0673(2) 0.17824(16) 0.12034(12)
H113 H -0.0669 0.1585 0.1023
C174 C -0.03157(18) 0.2097(2) 0.13445(12)
H114 H -0.0067 0.2114 0.1261
C175 C -0.04131(12) 0.34365(13) 0.15042(12)
C176 C -0.04520(18) 0.36712(17) 0.12004(13)
H115 H -0.0198 0.3669 0.1122
C177 C -0.0863(2) 0.39093(14) 0.10105(12)
H116 H -0.089 0.407 0.0803
C178 C -0.12352(17) 0.39127(16) 0.11245(17)
H117 H -0.1516 0.4075 0.0995
C179 C -0.11963(13) 0.3678(2) 0.14283(17)
H118 H -0.1451 0.368 0.1506
C180 C -0.07853(18) 0.34399(16) 0.16182(12)
H119 H -0.0759 0.3279 0.1826
C181 C 0.03373(14) 0.4167(2) 0.18884(14)
C182 C 0.0251(2) 0.4554(2) 0.16881(13)
H120 H 0.0374 0.4588 0.1509
C183 C -0.0016(2) 0.48918(18) 0.1750(2)
H121 H -0.0075 0.5157 0.1613
C184 C -0.0197(2) 0.4842(2) 0.2012(2)
H122 H -0.0379 0.5073 0.2054
C185 C -0.0110(2) 0.4455(2) 0.22120(18)
H123 H -0.0234 0.4421 0.2391
C186 C 0.0157(2) 0.4117(2) 0.21504(14)
H124 H 0.0216 0.3852 0.2287
O5 O 0.48397(5) 0.33523(5) 0.47281(4)
O6 O 0.40218(6) 0.31537(6) 0.34264(4)
O7 O 0.19280(5) 0.31270(6) 0.22729(4)
O8 O 0.06916(6) 0.28754(6) 0.10940(4)
N9 N 0.39364(12) 0.86783(12) 0.33856(9)
H125 H 0.4024 0.8431 0.3509
N10 N 0.45143(12) 0.79741(12) 0.31823(9)
H126 H 0.4209 0.7998 0.305
N11 N 0.38410(12) 0.72562(11) 0.32197(9)
H127 H 0.3957 0.7456 0.339
N12 N 0.32055(12) 0.79722(12) 0.33382(9)
H128 H 0.3332 0.8 0.3179
C187 C 0.35194(16) 0.88923(13) 0.33219(11)
C188 C 0.35087(16) 0.92737(13) 0.31037(11)
C189 C 0.39286(14) 0.92719(13) 0.30473(11)
C190 C 0.42027(14) 0.88943(14) 0.32336(10)
C191 C 0.46602(16) 0.87677(16) 0.32803(11)
C192 C 0.48073(14) 0.83206(16) 0.33364(11)
C193 C 0.52606(16) 0.81468(16) 0.35439(12)
C194 C 0.52347(16) 0.76867(17) 0.34979(12)
C195 C 0.47563(14) 0.75906(16) 0.32597(11)
C196 C 0.45615(14) 0.71713(14) 0.31060(11)
C197 C 0.40851(16) 0.70745(13) 0.30269(11)
C198 C 0.37581(13) 0.67813(13) 0.27682(11)
C199 C 0.33372(16) 0.67868(13) 0.28173(11)
C200 C 0.33989(17) 0.70814(13) 0.31083(11)
C201 C 0.30781(16) 0.71733(14) 0.32693(11)
C202 C 0.30731(14) 0.75808(16) 0.34388(11)
C203 C 0.29179(14) 0.76743(16) 0.37180(11)
C204 C 0.29420(14) 0.81262(14) 0.37739(11)
C205 C 0.31133(16) 0.83133(14) 0.35203(11)
C206 C 0.31850(16) 0.87705(16) 0.34596(11)
C207 C 0.30680(10) 0.95268(12) 0.29047(8)
C208 C 0.30330(12) 0.99788(12) 0.29549(9)
H129 H 0.3296 1.0135 0.3122
C209 C 0.26132(16) 1.02023(10) 0.27606(12)
H130 H 0.2589 1.0511 0.2795
C210 C 0.22283(11) 0.99736(16) 0.25162(10)
H131 H 0.1941 1.0126 0.2383
C211 C 0.22633(11) 0.95215(16) 0.24660(8)
H132 H 0.2 0.9365 0.2299
C212 C 0.26831(13) 0.92981(10) 0.26602(9)
H133 H 0.2707 0.8989 0.2626
C213 C 0.40229(10) 0.95387(10) 0.27770(6)
C214 C 0.40930(11) 0.93091(8) 0.25060(8)
H134 H 0.4076 0.8995 0.2498
C215 C 0.41887(11) 0.95394(11) 0.22464(6)
H135 H 0.4237 0.9382 0.2061
C216 C 0.42142(11) 0.99993(11) 0.22578(6)
H136 H 0.428 1.0157 0.208
C217 C 0.41441(12) 1.02290(8) 0.25287(9)
H137 H 0.4162 1.0543 0.2537
C218 C 0.40484(11) 0.99987(10) 0.27884(6)
H138 H 0.4 1.0156 0.2974
C219 C 0.50205(11) 0.91100(12) 0.32843(9)
C220 C 0.53339(13) 0.90225(12) 0.31216(9)
H139 H 0.5311 0.8752 0.2996
C221 C 0.56812(12) 0.93305(18) 0.31421(11)
H140 H 0.5895 0.9271 0.3031
C222 C 0.57151(13) 0.97260(16) 0.33254(12)
H141 H 0.5952 0.9936 0.3339
C223 C 0.54017(17) 0.98136(11) 0.34881(12)
H142 H 0.5425 1.0084 0.3613
C224 C 0.50545(13) 0.95056(13) 0.34676(10)
H143 H 0.484 0.9565 0.3579
C225 C 0.56517(12) 0.84062(11) 0.38109(9)
C226 C 0.60915(16) 0.84553(14) 0.37904(12)
H144 H 0.6152 0.8316 0.3603
C227 C 0.64432(12) 0.87084(17) 0.40436(16)
H145 H 0.6744 0.8742 0.403
C228 C 0.63551(17) 0.89125(12) 0.43173(12)
H146 H 0.6595 0.9085 0.449
C229 C 0.5915(2) 0.88633(12) 0.43377(10)
H147 H 0.5855 0.9003 0.4525
C230 C 0.55636(12) 0.86102(13) 0.40845(11)
H148 H 0.5263 0.8577 0.4099
C231 C 0.55748(12) 0.73372(11) 0.37188(9)
C232 C 0.54224(12) 0.70601(13) 0.39250(11)
H149 H 0.5111 0.709 0.3919
C233 C 0.5726(2) 0.67388(12) 0.41402(10)
H150 H 0.5622 0.6549 0.4281
C234 C 0.61826(18) 0.66946(12) 0.41491(11)
H151 H 0.639 0.6475 0.4296
C235 C 0.63349(11) 0.69716(17) 0.39428(12)
H152 H 0.6647 0.6941 0.3949
C236 C 0.60310(13) 0.72930(13) 0.37277(10)
H153 H 0.6135 0.7482 0.3587
C237 C 0.48815(10) 0.68440(12) 0.30462(8)
C238 C 0.48779(12) 0.64048(12) 0.31479(9)
H154 H 0.4652 0.6309 0.3238
C239 C 0.52055(14) 0.61065(10) 0.31171(10)
H155 H 0.5203 0.5806 0.3187
C240 C 0.55367(12) 0.62473(14) 0.29847(11)
H156 H 0.5761 0.6043 0.2964
C241 C 0.55403(11) 0.66865(17) 0.28830(9)
H157 H 0.5767 0.6783 0.2792
C242 C 0.52127(12) 0.69848(11) 0.29138(8)
H158 H 0.5215 0.7285 0.2844
C243 C 0.38262(10) 0.65833(10) 0.24586(6)
C244 C 0.37253(11) 0.61392(10) 0.23709(8)
H159 H 0.3614 0.5957 0.2512
C245 C 0.37877(12) 0.59620(9) 0.20774(9)
H160 H 0.3719 0.5659 0.2017
C246 C 0.39510(11) 0.62288(12) 0.18716(6)
H161 H 0.3994 0.6108 0.1671
C247 C 0.40519(11) 0.66728(12) 0.19593(8)
H162 H 0.4164 0.6855 0.1819
C248 C 0.39896(11) 0.68501(9) 0.22528(8)
H163 H 0.4059 0.7154 0.2313
C249 C 0.28638(9) 0.66277(12) 0.25775(6)
C250 C 0.25363(12) 0.69436(9) 0.23783(9)
H164 H 0.2627 0.7246 0.2391
C251 C 0.20765(11) 0.68167(12) 0.21605(8)
H165 H 0.1853 0.7033 0.2024
C252 C 0.19442(10) 0.63739(14) 0.21420(8)
H166 H 0.163 0.6287 0.1993
C253 C 0.22716(13) 0.60580(10) 0.23413(10)
H167 H 0.2181 0.5755 0.2329
C254 C 0.27314(12) 0.61849(11) 0.25590(9)
H168 H 0.2955 0.5969 0.2695
C255 C 0.27458(14) 0.68272(12) 0.32752(10)
C256 C 0.22605(17) 0.69064(13) 0.31089(10)
H169 H 0.2149 0.7183 0.2996
C257 C 0.19390(12) 0.6581(2) 0.31078(11)
H170 H 0.1607 0.6635 0.2994
C258 C 0.2103(2) 0.61758(17) 0.32730(12)
H171 H 0.1883 0.5953 0.3272
C259 C 0.2588(2) 0.60965(12) 0.34393(12)
H172 H 0.27 0.582 0.3552
C260 C 0.29097(14) 0.64222(16) 0.34404(9)
H173 H 0.3241 0.6368 0.3554
C261 C 0.28645(13) 0.73230(10) 0.39635(8)
C262 C 0.24273(11) 0.72131(12) 0.39700(9)
H174 H 0.2149 0.7365 0.382
C263 C 0.23977(13) 0.68803(12) 0.41962(11)
H175 H 0.2099 0.6805 0.4201
C264 C 0.2805(2) 0.66574(10) 0.44159(9)
H176 H 0.2785 0.643 0.457
C265 C 0.32427(14) 0.67672(12) 0.44094(9)
H177 H 0.3521 0.6615 0.456
C266 C 0.32722(11) 0.71001(12) 0.41832(9)
H178 H 0.3571 0.7175 0.4179
C267 C 0.28989(12) 0.83619(10) 0.40744(8)
C268 C 0.32900(11) 0.85916(12) 0.43104(10)
H179 H 0.3576 0.8602 0.4271
C269 C 0.32631(13) 0.88062(12) 0.46037(9)
H180 H 0.353 0.8963 0.4765
C270 C 0.28450(17) 0.87912(12) 0.46611(9)
H181 H 0.2827 0.8938 0.4862
C271 C 0.24539(12) 0.85615(12) 0.44251(10)
H182 H 0.2168 0.8551 0.4464
C272 C 0.24808(11) 0.83469(11) 0.41317(9)
H183 H 0.2213 0.819 0.397
C273 C 0.28796(14) 0.91065(12) 0.35251(10)
C274 C 0.30857(13) 0.94753(14) 0.37327(10)
H184 H 0.3421 0.9507 0.3834
C275 C 0.2801(2) 0.97971(12) 0.37923(12)
H185 H 0.2941 1.0049 0.3934
C276 C 0.2309(2) 0.97501(14) 0.36443(13)
C277 C 0.21033(12) 0.93813(18) 0.34367(12)
H186 H 0.1768 0.9349 0.3335
C278 C 0.23884(16) 0.90594(12) 0.33771(10)
H187 H 0.2248 0.8807 0.3235
O20 O 0.1593(5) 1.0102(4) 0.3515(4)
O21 O 0.2182(9) 1.0337(9) 0.4004(8)
C382 C 0.2059(10) 1.0086(7) 0.3796(8)
N13 N 0.07963(12) 0.89178(12) 0.09196(9)
H188 H 0.0641 0.872 0.0757
N14 N 0.13410(12) 0.81961(14) 0.07117(10)
H189 H 0.1291 0.8173 0.091
N15 N 0.06574(13) 0.75123(12) 0.07956(10)
H190 H 0.0551 0.776 0.0677
N16 N 0.01833(13) 0.82200(14) 0.10797(10)
H191 H 0.0493 0.8194 0.1151
C279 C 0.06337(16) 0.91093(14) 0.11518(11)
C280 C 0.09979(16) 0.93865(16) 0.13852(12)
C281 C 0.13764(16) 0.93716(14) 0.12802(11)
C282 C 0.12398(16) 0.90793(14) 0.09762(11)
C283 C 0.14808(14) 0.89935(16) 0.07472(11)
C284 C 0.14281(14) 0.8586(2) 0.05770(12)
C285 C 0.14817(14) 0.84662(17) 0.02466(11)
C286 C 0.14139(14) 0.80168(17) 0.02000(12)
C287 C 0.13415(16) 0.78466(18) 0.04986(12)
C288 C 0.12962(16) 0.74040(17) 0.05889(12)
C289 C 0.10440(17) 0.72807(16) 0.08017(11)
C290 C 0.11085(17) 0.69143(17) 0.10313(12)
C291 C 0.07486(18) 0.69169(17) 0.11596(12)
C292 C 0.04623(17) 0.72993(18) 0.10017(12)
C293 C 0.00374(18) 0.7433(2) 0.10415(12)
C294 C -0.01127(18) 0.7879(2) 0.10043(12)
C295 C -0.05866(17) 0.8055(2) 0.08781(12)
C296 C -0.05426(17) 0.8515(2) 0.08952(12)
C297 C -0.00532(16) 0.8621(2) 0.10325(12)
C298 C 0.01740(16) 0.90328(18) 0.11399(12)
C299 C 0.09962(12) 0.95938(18) 0.17137(9)
C300 C 0.09717(13) 0.93200(14) 0.19803(12)
H192 H 0.0961 0.9007 0.195
C301 C 0.09633(16) 0.9503(2) 0.22907(10)
H193 H 0.0947 0.9316 0.2473
C302 C 0.09793(16) 0.9961(2) 0.23346(12)
H194 H 0.0974 1.0086 0.2547
C303 C 0.10038(16) 1.02346(16) 0.20680(18)
H195 H 0.1015 1.0547 0.2098
C304 C 0.10122(13) 1.00511(17) 0.17576(13)
H196 H 0.1029 1.0238 0.1575
C305 C 0.18772(9) 0.95184(12) 0.14798(8)
C306 C 0.20035(12) 0.99626(11) 0.15393(9)
H197 H 0.1768 1.0186 0.1446
C307 C 0.24740(14) 1.00799(10) 0.17350(10)
H198 H 0.256 1.0384 0.1776
C308 C 0.28182(10) 0.97530(14) 0.18713(9)
H199 H 0.314 0.9833 0.2005
C309 C 0.26920(11) 0.93087(12) 0.18118(9)
H200 H 0.2927 0.9085 0.1905
C310 C 0.22215(12) 0.91914(10) 0.16160(9)
H201 H 0.2135 0.8888 0.1575
C311 C 0.17885(12) 0.93505(12) 0.07075(9)
C312 C 0.16137(12) 0.97801(16) 0.06330(9)
H202 H 0.1292 0.9841 0.0593
C313 C 0.1909(2) 1.01214(12) 0.06162(10)
H203 H 0.179 1.0415 0.0565
C314 C 0.2379(2) 1.00330(18) 0.06740(11)
H204 H 0.2581 1.0266 0.0663
C315 C 0.25538(12) 0.9603(2) 0.07485(11)
H205 H 0.2875 0.9543 0.0788
C316 C 0.22585(14) 0.92621(14) 0.07652(10)
H206 H 0.2378 0.8968 0.0816
C317 C 0.14846(12) 0.87984(10) -0.00238(6)
C318 C 0.11061(10) 0.90917(12) -0.01644(9)
H207 H 0.0857 0.9087 -0.0081
C319 C 0.10919(12) 0.93916(11) -0.04274(9)
H208 H 0.0833 0.9592 -0.0523
C320 C 0.14562(16) 0.93982(11) -0.05497(8)
H209 H 0.1447 0.9603 -0.0729
C321 C 0.18347(12) 0.91049(12) -0.04091(9)
H210 H 0.2084 0.9109 -0.0493
C322 C 0.18489(10) 0.88050(11) -0.01462(9)
H211 H 0.2108 0.8605 -0.005
C323 C 0.13277(11) 0.77575(10) -0.01276(6)
C324 C 0.16748(9) 0.77052(11) -0.02644(8)
H212 H 0.1972 0.7851 -0.0154
C325 C 0.15867(12) 0.74397(12) -0.05626(9)
H213 H 0.1824 0.7404 -0.0656
C326 C 0.11515(13) 0.72266(10) -0.07241(6)
H214 H 0.1091 0.7045 -0.0928
C327 C 0.08044(11) 0.72789(11) -0.05874(8)
H215 H 0.0507 0.7133 -0.0698
C328 C 0.08925(10) 0.75444(12) -0.02891(9)
H216 H 0.0655 0.758 -0.0196
C329 C 0.15285(17) 0.70427(13) 0.04656(11)
C330 C 0.20027(17) 0.70883(16) 0.05172(11)
H217 H 0.2172 0.7349 0.0625
C331 C 0.22290(14) 0.6752(2) 0.04115(13)
H218 H 0.2553 0.6783 0.0447
C332 C 0.1981(2) 0.63699(18) 0.02543(12)
H219 H 0.2136 0.614 0.0182
C333 C 0.1507(2) 0.63243(13) 0.02028(12)
H220 H 0.1338 0.6063 0.0095
C334 C 0.12806(14) 0.66608(18) 0.03085(12)
H221 H 0.0957 0.663 0.0273
C335 C 0.15447(14) 0.66243(17) 0.11659(10)
C336 C 0.1988(2) 0.68235(13) 0.13281(11)
H222 H 0.2011 0.7136 0.1356
C337 C 0.23964(13) 0.6565(2) 0.14497(11)
H223 H 0.2699 0.6701 0.1561
C338 C 0.2362(2) 0.6107(2) 0.14091(12)
H224 H 0.2641 0.5931 0.1492
C339 C 0.1919(2) 0.59082(13) 0.12468(14)
H225 H 0.1896 0.5595 0.1219
C340 C 0.15104(18) 0.61667(18) 0.11252(12)
H226 H 0.1208 0.6031 0.1014
C341 C 0.07361(12) 0.66719(16) 0.14699(10)
C342 C 0.06346(14) 0.62213(16) 0.14479(12)
H227 H 0.059 0.6063 0.1236
C343 C 0.05984(16) 0.60028(12) 0.17365(18)
H228 H 0.0529 0.5695 0.1721
C344 C 0.06639(16) 0.6235(2) 0.20471(13)
H229 H 0.0639 0.6086 0.2244
C345 C 0.07655(16) 0.6685(2) 0.20691(10)
H230 H 0.081 0.6844 0.2281
C346 C 0.08016(13) 0.69040(12) 0.17805(12)
H231 H 0.0871 0.7212 0.1796
C347 C -0.02675(13) 0.70674(16) 0.10892(13)
C348 C -0.0393(2) 0.6700(2) 0.08652(12)
H232 H -0.0283 0.6673 0.0679
C349 C -0.0680(2) 0.63724(16) 0.09145(18)
H233 H -0.0766 0.6121 0.0761
C350 C -0.0842(2) 0.6412(2) 0.1188(2)
H234 H -0.1038 0.6188 0.1221
C351 C -0.0716(2) 0.6779(2) 0.14117(17)
H235 H -0.0827 0.6806 0.1598
C352 C -0.0429(2) 0.71068(18) 0.13625(13)
H236 H -0.0343 0.7358 0.1516
C353 C -0.10322(11) 0.77953(12) 0.07207(10)
C354 C -0.11207(12) 0.75614(12) 0.04069(9)
H237 H -0.0905 0.7581 0.0292
C355 C -0.15252(13) 0.72996(12) 0.02610(8)
H238 H -0.1586 0.714 0.0047
C356 C -0.18411(12) 0.72716(12) 0.04288(11)
H239 H -0.2118 0.7093 0.0329
C357 C -0.17525(12) 0.75054(16) 0.07426(11)
H240 H -0.1968 0.7486 0.0857
C358 C -0.13481(13) 0.77673(13) 0.08885(9)
H241 H -0.1288 0.7927 0.1103
C359 C -0.09279(12) 0.88410(12) 0.07075(10)
C360 C -0.13346(16) 0.88756(14) 0.07788(11)
H242 H -0.1372 0.8693 0.0956
C361 C -0.16871(12) 0.91780(18) 0.05910(14)
H243 H -0.1965 0.9202 0.064
C362 C -0.16327(16) 0.94457(13) 0.03320(12)
H244 H -0.1874 0.9652 0.0204
C363 C -0.1226(2) 0.94110(12) 0.02608(10)
H245 H -0.1189 0.9594 0.0084
C364 C -0.08736(12) 0.91087(14) 0.04485(11)
H246 H -0.0596 0.9085 0.04
C365 C -0.00644(12) 0.93761(14) 0.12599(10)
C366 C -0.03016(14) 0.92666(13) 0.14776(11)
H247 H -0.0308 0.8968 0.1549
C367 C -0.05300(14) 0.9594(2) 0.15906(12)
H248 H -0.0692 0.9519 0.1739
C368 C -0.05211(16) 1.00312(18) 0.14859(13)
C369 C -0.02838(16) 1.01408(12) 0.12682(12)
H249 H -0.0278 1.044 0.1197
C370 C -0.00555(12) 0.98132(17) 0.11552(9)
H250 H 0.0107 0.9888 0.1006
O18 O -0.1349(7) 1.0080(5) 0.1438(5)
O19 O -0.0638(7) 1.0745(2) 0.1577(5)
C381 C -0.0880(5) 1.0327(4) 0.1536(5)
O9 O 0.34366(5) 0.80991(5) 0.26345(3)
O10 O 0.13154(5) 0.80981(6) 0.14901(4)
O11 O 0.43165(6) 0.78539(5) 0.39203(3)
O12 O 0.01583(5) 0.83208(5) 0.02599(4)
O13 O 0.46251(17) 0.85763(16) 0.45044(12)
C371 C 0.4891(2) 0.8351(4) 0.4837(2)
C372 C 0.5037(2) 0.8705(4) 0.5118(2)
C373 C 0.4696(5) 0.7943(5) 0.4901(2)
O14 O 0.0423(2) 0.3580(2) 0.05007(14)
C374 C 0.0096(2) 0.3349(4) 0.0179(2)
C375 C 0.0381(4) 0.2953(4) 0.0104(2)
C376 C -0.0037(4) 0.3745(5) -0.0121(2)
O15 O 0.1759(2) 0.3109(2) 0.29687(16)
C377 C 0.2231(5) 0.3175(4) 0.3265(2)
C378 C 0.2635(5) 0.2913(4) 0.3252(2)
C379 C 0.2133(4) 0.3096(4) 0.3599(2)
O16? O 0.6874(2) 0.1165(2) 0.4098(2)
O17? O 0.6450(5) 0.0696(4) 0.4258(5)
C380? C 0.6520(5) 0.1109(5) 0.4177(4)
loop_
_geom_bond_atom_site_label_1
_geom_bond_atom_site_label_2
_geom_bond_site_symmetry_1
_geom_bond_site_symmetry_2
N1 H1 1_555 1_555
N2 H2 1_555 1_555
N3 H3 1_555 1_555
N4 H4 1_555 1_555
C1 N1 1_555 1_555
C2 C1 1_555 1_555
C3 C2 1_555 1_555
C4 N1 1_555 1_555
C5 C4 1_555 1_555
C6 N2 1_555 1_555
C7 C6 1_555 1_555
C8 C7 1_555 1_555
C9 N2 1_555 1_555
C10 C9 1_555 1_555
C11 N3 1_555 1_555
C12 C11 1_555 1_555
C13 C12 1_555 1_555
C14 N3 1_555 1_555
C15 C14 1_555 1_555
C16 N4 1_555 1_555
C17 C16 1_555 1_555
C18 C17 1_555 1_555
C19 N4 1_555 1_555
C20 C1 1_555 1_555
C21 C2 1_555 1_555
C22 C21 1_555 1_555
H5 C22 1_555 1_555
C23 C22 1_555 1_555
H6 C23 1_555 1_555
C24 C23 1_555 1_555
H7 C24 1_555 1_555
C25 C24 1_555 1_555
H8 C25 1_555 1_555
C26 C21 1_555 1_555
H9 C26 1_555 1_555
C27 C3 1_555 1_555
C28 C27 1_555 1_555
H10 C28 1_555 1_555
C29 C28 1_555 1_555
H11 C29 1_555 1_555
C30 C29 1_555 1_555
H12 C30 1_555 1_555
C31 C30 1_555 1_555
H13 C31 1_555 1_555
C32 C27 1_555 1_555
H14 C32 1_555 1_555
C33 C5 1_555 1_555
C34 C33 1_555 1_555
H15 C34 1_555 1_555
C35 C34 1_555 1_555
H16 C35 1_555 1_555
C36 C35 1_555 1_555
H17 C36 1_555 1_555
C37 C36 1_555 1_555
H18 C37 1_555 1_555
C38 C33 1_555 1_555
H19 C38 1_555 1_555
C39 C7 1_555 1_555
C40 C39 1_555 1_555
H20 C40 1_555 1_555
C41 C40 1_555 1_555
H21 C41 1_555 1_555
C42 C41 1_555 1_555
H22 C42 1_555 1_555
C43 C42 1_555 1_555
H23 C43 1_555 1_555
C44 C39 1_555 1_555
H24 C44 1_555 1_555
C45 C8 1_555 1_555
C46 C45 1_555 1_555
H25 C46 1_555 1_555
C47 C46 1_555 1_555
H26 C47 1_555 1_555
C48 C47 1_555 1_555
H27 C48 1_555 1_555
C49 C48 1_555 1_555
H28 C49 1_555 1_555
C50 C45 1_555 1_555
H29 C50 1_555 1_555
C51 C10 1_555 1_555
C52 C51 1_555 1_555
H30 C52 1_555 1_555
C53 C52 1_555 1_555
H31 C53 1_555 1_555
C54 C53 1_555 1_555
C55 C54 1_555 1_555
H32 C55 1_555 1_555
C56 C51 1_555 1_555
H33 C56 1_555 1_555
C57 C12 1_555 1_555
C58 C57 1_555 1_555
H34 C58 1_555 1_555
C59 C58 1_555 1_555
H35 C59 1_555 1_555
C60 C59 1_555 1_555
H36 C60 1_555 1_555
C61 C60 1_555 1_555
H37 C61 1_555 1_555
C62 C57 1_555 1_555
H38 C62 1_555 1_555
C63 C13 1_555 1_555
C64 C63 1_555 1_555
H39 C64 1_555 1_555
C65 C64 1_555 1_555
H40 C65 1_555 1_555
C66 C65 1_555 1_555
H41 C66 1_555 1_555
C67 C66 1_555 1_555
H42 C67 1_555 1_555
C68 C63 1_555 1_555
H43 C68 1_555 1_555
C69 C15 1_555 1_555
C70 C69 1_555 1_555
H44 C70 1_555 1_555
C71 C70 1_555 1_555
H45 C71 1_555 1_555
C72 C71 1_555 1_555
C73 C72 1_555 1_555
H46 C73 1_555 1_555
C74 C69 1_555 1_555
H47 C74 1_555 1_555
C75 C72 1_555 1_555
O1 C75 1_555 1_555
O2 C75 1_555 1_555
C76 C17 1_555 1_555
C77 C76 1_555 1_555
H48 C77 1_555 1_555
C78 C77 1_555 1_555
H49 C78 1_555 1_555
C79 C78 1_555 1_555
H50 C79 1_555 1_555
C80 C79 1_555 1_555
H51 C80 1_555 1_555
C81 C76 1_555 1_555
H52 C81 1_555 1_555
C82 C18 1_555 1_555
C83 C82 1_555 1_555
H53 C83 1_555 1_555
C84 C83 1_555 1_555
H54 C84 1_555 1_555
C85 C84 1_555 1_555
H55 C85 1_555 1_555
C86 C85 1_555 1_555
H56 C86 1_555 1_555
C87 C82 1_555 1_555
C88 C20 1_555 1_555
C89 C88 1_555 1_555
H57 C89 1_555 1_555
C90 C89 1_555 1_555
H58 C90 1_555 1_555
C91 C90 1_555 1_555
H59 C91 1_555 1_555
C92 C91 1_555 1_555
H60 C92 1_555 1_555
C93 C88 1_555 1_555
H61 C93 1_555 1_555
N5 H62 1_555 1_555
N6 H63 1_555 1_555
N7 H64 1_555 1_555
N8 H65 1_555 1_555
C94 N5 1_555 1_555
C95 C94 1_555 1_555
C96 C95 1_555 1_555
C97 N5 1_555 1_555
C98 C97 1_555 1_555
C99 N6 1_555 1_555
C100 C99 1_555 1_555
C101 C100 1_555 1_555
C102 N6 1_555 1_555
C103 C102 1_555 1_555
C104 N7 1_555 1_555
C105 C104 1_555 1_555
C106 C105 1_555 1_555
C107 N7 1_555 1_555
C108 C107 1_555 1_555
C109 N8 1_555 1_555
C110 C109 1_555 1_555
C111 C110 1_555 1_555
C112 N8 1_555 1_555
C113 C94 1_555 1_555
C114 C95 1_555 1_555
C115 C114 1_555 1_555
H66 C115 1_555 1_555
C116 C115 1_555 1_555
H67 C116 1_555 1_555
C117 C116 1_555 1_555
H68 C117 1_555 1_555
C118 C117 1_555 1_555
H69 C118 1_555 1_555
C119 C114 1_555 1_555
H70 C119 1_555 1_555
C120 C96 1_555 1_555
C121 C120 1_555 1_555
H71 C121 1_555 1_555
C122 C121 1_555 1_555
H72 C122 1_555 1_555
C123 C122 1_555 1_555
H73 C123 1_555 1_555
C124 C123 1_555 1_555
H74 C124 1_555 1_555
C125 C120 1_555 1_555
H75 C125 1_555 1_555
C126 C98 1_555 1_555
C127 C126 1_555 1_555
H76 C127 1_555 1_555
C128 C127 1_555 1_555
H77 C128 1_555 1_555
C129 C128 1_555 1_555
C130 C129 1_555 1_555
H78 C130 1_555 1_555
C131 C126 1_555 1_555
H79 C131 1_555 1_555
C132 C129 1_555 1_555
O3 C132 1_555 1_555
O4 C132 1_555 1_555
C133 C100 1_555 1_555
C134 C133 1_555 1_555
H80 C134 1_555 1_555
C135 C134 1_555 1_555
H81 C135 1_555 1_555
C136 C135 1_555 1_555
H82 C136 1_555 1_555
C137 C136 1_555 1_555
H83 C137 1_555 1_555
C138 C133 1_555 1_555
H84 C138 1_555 1_555
C139 C101 1_555 1_555
C140 C139 1_555 1_555
H85 C140 1_555 1_555
C141 C140 1_555 1_555
H86 C141 1_555 1_555
C142 C141 1_555 1_555
H87 C142 1_555 1_555
C143 C142 1_555 1_555
H88 C143 1_555 1_555
C144 C139 1_555 1_555
H89 C144 1_555 1_555
C145 C103 1_555 1_555
C146 C145 1_555 1_555
H90 C146 1_555 1_555
C147 C146 1_555 1_555
H91 C147 1_555 1_555
C148 C147 1_555 1_555
H92 C148 1_555 1_555
C149 C148 1_555 1_555
H93 C149 1_555 1_555
C150 C145 1_555 1_555
H94 C150 1_555 1_555
C151 C105 1_555 1_555
C152 C151 1_555 1_555
H95 C152 1_555 1_555
C153 C152 1_555 1_555
H96 C153 1_555 1_555
C154 C153 1_555 1_555
H97 C154 1_555 1_555
C155 C154 1_555 1_555
H98 C155 1_555 1_555
C156 C151 1_555 1_555
H99 C156 1_555 1_555
C157 C106 1_555 1_555
C158 C157 1_555 1_555
H100 C158 1_555 1_555
C159 C158 1_555 1_555
H101 C159 1_555 1_555
C160 C159 1_555 1_555
H102 C160 1_555 1_555
C161 C160 1_555 1_555
H103 C161 1_555 1_555
C162 C157 1_555 1_555
H104 C162 1_555 1_555
C163 C108 1_555 1_555
C164 C163 1_555 1_555
H105 C164 1_555 1_555
C165 C164 1_555 1_555
H106 C165 1_555 1_555
C166 C165 1_555 1_555
H107 C166 1_555 1_555
C167 C166 1_555 1_555
H108 C167 1_555 1_555
C168 C163 1_555 1_555
H109 C168 1_555 1_555
C169 C110 1_555 1_555
C170 C169 1_555 1_555
H110 C170 1_555 1_555
C171 C170 1_555 1_555
H111 C171 1_555 1_555
C172 C171 1_555 1_555
H112 C172 1_555 1_555
C173 C172 1_555 1_555
H113 C173 1_555 1_555
C174 C169 1_555 1_555
H114 C174 1_555 1_555
C175 C111 1_555 1_555
C176 C175 1_555 1_555
H115 C176 1_555 1_555
C177 C176 1_555 1_555
H116 C177 1_555 1_555
C178 C177 1_555 1_555
H117 C178 1_555 1_555
C179 C178 1_555 1_555
H118 C179 1_555 1_555
C180 C175 1_555 1_555
H119 C180 1_555 1_555
C181 C113 1_555 1_555
C182 C181 1_555 1_555
H120 C182 1_555 1_555
C183 C182 1_555 1_555
H121 C183 1_555 1_555
C184 C183 1_555 1_555
H122 C184 1_555 1_555
C185 C184 1_555 1_555
H123 C185 1_555 1_555
C186 C181 1_555 1_555
H124 C186 1_555 1_555
N9 H125 1_555 1_555
N10 H126 1_555 1_555
N11 H127 1_555 1_555
N12 H128 1_555 1_555
C187 N9 1_555 1_555
C188 C187 1_555 1_555
C189 C188 1_555 1_555
C190 N9 1_555 1_555
C191 C190 1_555 1_555
C192 N10 1_555 1_555
C193 C192 1_555 1_555
C194 C193 1_555 1_555
C195 N10 1_555 1_555
C196 C195 1_555 1_555
C197 N11 1_555 1_555
C198 C197 1_555 1_555
C199 C198 1_555 1_555
C200 N11 1_555 1_555
C201 C200 1_555 1_555
C202 N12 1_555 1_555
C203 C202 1_555 1_555
C204 C203 1_555 1_555
C205 N12 1_555 1_555
C206 C187 1_555 1_555
C207 C188 1_555 1_555
C208 C207 1_555 1_555
H129 C208 1_555 1_555
C209 C208 1_555 1_555
H130 C209 1_555 1_555
C210 C209 1_555 1_555
H131 C210 1_555 1_555
C211 C210 1_555 1_555
H132 C211 1_555 1_555
C212 C207 1_555 1_555
H133 C212 1_555 1_555
C213 C189 1_555 1_555
C214 C213 1_555 1_555
H134 C214 1_555 1_555
C215 C214 1_555 1_555
H135 C215 1_555 1_555
C216 C215 1_555 1_555
H136 C216 1_555 1_555
C217 C216 1_555 1_555
H137 C217 1_555 1_555
C218 C213 1_555 1_555
H138 C218 1_555 1_555
C219 C191 1_555 1_555
C220 C219 1_555 1_555
H139 C220 1_555 1_555
C221 C220 1_555 1_555
H140 C221 1_555 1_555
C222 C221 1_555 1_555
H141 C222 1_555 1_555
C223 C222 1_555 1_555
H142 C223 1_555 1_555
C224 C219 1_555 1_555
H143 C224 1_555 1_555
C225 C193 1_555 1_555
C226 C225 1_555 1_555
H144 C226 1_555 1_555
C227 C226 1_555 1_555
H145 C227 1_555 1_555
C228 C227 1_555 1_555
H146 C228 1_555 1_555
C229 C228 1_555 1_555
H147 C229 1_555 1_555
C230 C225 1_555 1_555
H148 C230 1_555 1_555
C231 C194 1_555 1_555
C232 C231 1_555 1_555
H149 C232 1_555 1_555
C233 C232 1_555 1_555
H150 C233 1_555 1_555
C234 C233 1_555 1_555
H151 C234 1_555 1_555
C235 C234 1_555 1_555
H152 C235 1_555 1_555
C236 C231 1_555 1_555
H153 C236 1_555 1_555
C237 C196 1_555 1_555
C238 C237 1_555 1_555
H154 C238 1_555 1_555
C239 C238 1_555 1_555
H155 C239 1_555 1_555
C240 C239 1_555 1_555
H156 C240 1_555 1_555
C241 C240 1_555 1_555
H157 C241 1_555 1_555
C242 C237 1_555 1_555
H158 C242 1_555 1_555
C243 C198 1_555 1_555
C244 C243 1_555 1_555
H159 C244 1_555 1_555
C245 C244 1_555 1_555
H160 C245 1_555 1_555
C246 C245 1_555 1_555
H161 C246 1_555 1_555
C247 C246 1_555 1_555
H162 C247 1_555 1_555
C248 C243 1_555 1_555
H163 C248 1_555 1_555
C249 C199 1_555 1_555
C250 C249 1_555 1_555
H164 C250 1_555 1_555
C251 C250 1_555 1_555
H165 C251 1_555 1_555
C252 C251 1_555 1_555
H166 C252 1_555 1_555
C253 C252 1_555 1_555
H167 C253 1_555 1_555
C254 C249 1_555 1_555
H168 C254 1_555 1_555
C255 C201 1_555 1_555
C256 C255 1_555 1_555
H169 C256 1_555 1_555
C257 C256 1_555 1_555
H170 C257 1_555 1_555
C258 C257 1_555 1_555
H171 C258 1_555 1_555
C259 C258 1_555 1_555
H172 C259 1_555 1_555
C260 C255 1_555 1_555
H173 C260 1_555 1_555
C261 C203 1_555 1_555
C262 C261 1_555 1_555
H174 C262 1_555 1_555
C263 C262 1_555 1_555
H175 C263 1_555 1_555
C264 C263 1_555 1_555
H176 C264 1_555 1_555
C265 C264 1_555 1_555
H177 C265 1_555 1_555
C266 C261 1_555 1_555
H178 C266 1_555 1_555
C267 C204 1_555 1_555
C268 C267 1_555 1_555
H179 C268 1_555 1_555
C269 C268 1_555 1_555
H180 C269 1_555 1_555
C270 C269 1_555 1_555
H181 C270 1_555 1_555
C271 C270 1_555 1_555
H182 C271 1_555 1_555
C272 C267 1_555 1_555
H183 C272 1_555 1_555
C273 C206 1_555 1_555
C274 C273 1_555 1_555
H184 C274 1_555 1_555
C275 C274 1_555 1_555
H185 C275 1_555 1_555
C276 C275 1_555 1_555
C277 C276 1_555 1_555
H186 C277 1_555 1_555
C278 C273 1_555 1_555
H187 C278 1_555 1_555
N13 H188 1_555 1_555
N14 H189 1_555 1_555
N15 H190 1_555 1_555
N16 H191 1_555 1_555
C279 N13 1_555 1_555
C280 C279 1_555 1_555
C281 C280 1_555 1_555
C282 N13 1_555 1_555
C283 C282 1_555 1_555
C284 N14 1_555 1_555
C285 C284 1_555 1_555
C286 C285 1_555 1_555
C287 N14 1_555 1_555
C288 C287 1_555 1_555
C289 N15 1_555 1_555
C290 C289 1_555 1_555
C291 C290 1_555 1_555
C292 N15 1_555 1_555
C293 C292 1_555 1_555
C294 N16 1_555 1_555
C295 C294 1_555 1_555
C296 C295 1_555 1_555
C297 N16 1_555 1_555
C298 C279 1_555 1_555
C299 C280 1_555 1_555
C300 C299 1_555 1_555
H192 C300 1_555 1_555
C301 C300 1_555 1_555
H193 C301 1_555 1_555
C302 C301 1_555 1_555
H194 C302 1_555 1_555
C303 C302 1_555 1_555
H195 C303 1_555 1_555
C304 C299 1_555 1_555
H196 C304 1_555 1_555
C305 C281 1_555 1_555
C306 C305 1_555 1_555
H197 C306 1_555 1_555
C307 C306 1_555 1_555
H198 C307 1_555 1_555
C308 C307 1_555 1_555
H199 C308 1_555 1_555
C309 C308 1_555 1_555
H200 C309 1_555 1_555
C310 C305 1_555 1_555
H201 C310 1_555 1_555
C311 C283 1_555 1_555
C312 C311 1_555 1_555
H202 C312 1_555 1_555
C313 C312 1_555 1_555
H203 C313 1_555 1_555
C314 C313 1_555 1_555
H204 C314 1_555 1_555
C315 C314 1_555 1_555
H205 C315 1_555 1_555
C316 C311 1_555 1_555
H206 C316 1_555 1_555
C317 C285 1_555 1_555
C318 C317 1_555 1_555
H207 C318 1_555 1_555
C319 C318 1_555 1_555
H208 C319 1_555 1_555
C320 C319 1_555 1_555
H209 C320 1_555 1_555
C321 C320 1_555 1_555
H210 C321 1_555 1_555
C322 C317 1_555 1_555
H211 C322 1_555 1_555
C323 C286 1_555 1_555
C324 C323 1_555 1_555
H212 C324 1_555 1_555
C325 C324 1_555 1_555
H213 C325 1_555 1_555
C326 C325 1_555 1_555
H214 C326 1_555 1_555
C327 C326 1_555 1_555
H215 C327 1_555 1_555
C328 C323 1_555 1_555
H216 C328 1_555 1_555
C329 C288 1_555 1_555
C330 C329 1_555 1_555
H217 C330 1_555 1_555
C331 C330 1_555 1_555
H218 C331 1_555 1_555
C332 C331 1_555 1_555
H219 C332 1_555 1_555
C333 C332 1_555 1_555
H220 C333 1_555 1_555
C334 C329 1_555 1_555
H221 C334 1_555 1_555
C335 C290 1_555 1_555
C336 C335 1_555 1_555
H222 C336 1_555 1_555
C337 C336 1_555 1_555
H223 C337 1_555 1_555
C338 C337 1_555 1_555
H224 C338 1_555 1_555
C339 C338 1_555 1_555
H225 C339 1_555 1_555
C340 C335 1_555 1_555
H226 C340 1_555 1_555
C341 C291 1_555 1_555
C342 C341 1_555 1_555
H227 C342 1_555 1_555
C343 C342 1_555 1_555
H228 C343 1_555 1_555
C344 C343 1_555 1_555
H229 C344 1_555 1_555
C345 C344 1_555 1_555
H230 C345 1_555 1_555
C346 C341 1_555 1_555
H231 C346 1_555 1_555
C347 C293 1_555 1_555
C348 C347 1_555 1_555
H232 C348 1_555 1_555
C349 C348 1_555 1_555
H233 C349 1_555 1_555
C350 C349 1_555 1_555
H234 C350 1_555 1_555
C351 C350 1_555 1_555
H235 C351 1_555 1_555
C352 C347 1_555 1_555
H236 C352 1_555 1_555
C353 C295 1_555 1_555
C354 C353 1_555 1_555
H237 C354 1_555 1_555
C355 C354 1_555 1_555
H238 C355 1_555 1_555
C356 C355 1_555 1_555
H239 C356 1_555 1_555
C357 C356 1_555 1_555
H240 C357 1_555 1_555
C358 C353 1_555 1_555
H241 C358 1_555 1_555
C359 C296 1_555 1_555
C360 C359 1_555 1_555
H242 C360 1_555 1_555
C361 C360 1_555 1_555
H243 C361 1_555 1_555
C362 C361 1_555 1_555
H244 C362 1_555 1_555
C363 C362 1_555 1_555
H245 C363 1_555 1_555
C364 C359 1_555 1_555
H246 C364 1_555 1_555
C365 C298 1_555 1_555
C366 C365 1_555 1_555
H247 C366 1_555 1_555
C367 C366 1_555 1_555
H248 C367 1_555 1_555
C368 C367 1_555 1_555
C369 C368 1_555 1_555
H249 C369 1_555 1_555
C370 C365 1_555 1_555
H250 C370 1_555 1_555
O13 C371 1_555 1_555
C371 C372 1_555 1_555
C373 C371 1_555 1_555
O14 C374 1_555 1_555
C374 C375 1_555 1_555
C376 C374 1_555 1_555
O15 C377 1_555 1_555
C377 C378 1_555 1_555
C379 C377 1_555 1_555
O18 C381 1_555 1_555
O19 C381 1_555 1_555
C381 C368 1_555 1_555
O20 C382 1_555 1_555
O21 C382 1_555 1_555
C382 C276 1_555 1_555
C3 C4 1_555 1_555
C5 C6 1_555 1_555
C8 C9 1_555 1_555
C10 C11 1_555 1_555
C13 C14 1_555 1_555
C15 C16 1_555 1_555
C18 C19 1_555 1_555
C19 C20 1_555 1_555
C25 C26 1_555 1_555
C31 C32 1_555 1_555
C37 C38 1_555 1_555
C43 C44 1_555 1_555
C49 C50 1_555 1_555
C55 C56 1_555 1_555
C61 C62 1_555 1_555
C67 C68 1_555 1_555
C73 C74 1_555 1_555
C80 C81 1_555 1_555
C86 C87 1_555 1_555
C92 C93 1_555 1_555
C96 C97 1_555 1_555
C98 C99 1_555 1_555
C101 C102 1_555 1_555
C103 C104 1_555 1_555
C106 C107 1_555 1_555
C108 C109 1_555 1_555
C111 C112 1_555 1_555
C112 C113 1_555 1_555
C118 C119 1_555 1_555
C124 C125 1_555 1_555
C130 C131 1_555 1_555
C137 C138 1_555 1_555
C143 C144 1_555 1_555
C149 C150 1_555 1_555
C155 C156 1_555 1_555
C161 C162 1_555 1_555
C167 C168 1_555 1_555
C173 C174 1_555 1_555
C179 C180 1_555 1_555
C185 C186 1_555 1_555
C189 C190 1_555 1_555
C191 C192 1_555 1_555
C194 C195 1_555 1_555
C196 C197 1_555 1_555
C199 C200 1_555 1_555
C201 C202 1_555 1_555
C204 C205 1_555 1_555
C205 C206 1_555 1_555
C211 C212 1_555 1_555
C217 C218 1_555 1_555
C223 C224 1_555 1_555
C229 C230 1_555 1_555
C235 C236 1_555 1_555
C241 C242 1_555 1_555
C247 C248 1_555 1_555
C253 C254 1_555 1_555
C259 C260 1_555 1_555
C265 C266 1_555 1_555
C271 C272 1_555 1_555
C277 C278 1_555 1_555
C281 C282 1_555 1_555
C283 C284 1_555 1_555
C286 C287 1_555 1_555
C288 C289 1_555 1_555
C291 C292 1_555 1_555
C293 C294 1_555 1_555
C296 C297 1_555 1_555
C297 C298 1_555 1_555
C303 C304 1_555 1_555
C309 C310 1_555 1_555
C315 C316 1_555 1_555
C321 C322 1_555 1_555
C327 C328 1_555 1_555
C333 C334 1_555 1_555
C339 C340 1_555 1_555
C345 C346 1_555 1_555
C351 C352 1_555 1_555
C357 C358 1_555 1_555
C363 C364 1_555 1_555
C369 C370 1_555 1_555

#END
