
#######################################################################
#
#                 Cambridge Crystallographic Data Centre
#                                CCDC 
#
#######################################################################
#
# If this CIF has been generated from an entry in the Cambridge 
# Structural Database, then it will include bibliographic, chemical, 
# crystal, experimental, refinement or atomic coordinate data resulting 
# from the CCDC's data processing and validation procedures.
#
#######################################################################

data_OCIQOG
_chemical_formula_moiety         'C13 H22 O3'
_chemical_name_systematic        4-Acetyl-2,2,6,6-tetramethyl-3,5-heptanedione
_symmetry_cell_setting           orthorhombic
_symmetry_space_group_name_H-M   'P b c a'
_symmetry_Int_Tables_number      61
_space_group_name_Hall           '-P 2ac 2ab'
loop_
_symmetry_equiv_pos_site_id
_symmetry_equiv_pos_as_xyz
1 x,y,z
2 1/2-x,-y,1/2+z
3 1/2+x,1/2-y,-z
4 -x,1/2+y,1/2-z
5 -x,-y,-z
6 1/2+x,y,1/2-z
7 1/2-x,1/2+y,z
8 x,1/2-y,1/2+z
_cell_length_a                   9.7788(7)
_cell_length_b                   16.8469(13)
_cell_length_c                   17.4774(13)
_cell_angle_alpha                90
_cell_angle_beta                 90
_cell_angle_gamma                90
_cell_volume                     2879.27
_exptl_crystal_colour            colorless
_cell_formula_units_Z            8
_exptl_crystal_recrystallization_method hexane
loop_
_atom_site_label
_atom_site_type_symbol
_atom_site_fract_x
_atom_site_fract_y
_atom_site_fract_z
O1 O 0.3570(3) 0.3505(2) 0.6749(2)
O2 O 0.3265(2) 0.2094(2) 0.7897(2)
O3 O 0.3112(3) 0.1748(2) 0.6121(2)
C1 C 0.6407(5) 0.3885(4) 0.6094(3)
C2 C 0.4345(6) 0.3824(4) 0.5251(4)
C3 C 0.5954(6) 0.2698(3) 0.5362(3)
C4 C 0.5276(3) 0.3370(2) 0.5788(2)
C5 C 0.4473(3) 0.3095(2) 0.6474(2)
C6 C 0.4829(2) 0.2319(2) 0.6881(2)
C7 C 0.4344(3) 0.2399(2) 0.7700(2)
C8 C 0.5214(4) 0.2858(3) 0.8234(2)
C9 C 0.4129(3) 0.1620(2) 0.6492(2)
C10 C 0.4690(3) 0.0789(2) 0.6569(2)
C11 C 0.5181(7) 0.0621(3) 0.7374(3)
C12 C 0.3621(5) 0.0193(3) 0.6344(4)
C13 C 0.5960(5) 0.0725(3) 0.6070(4)
H1 H 0.6955 0.4075 0.5677
H2 H 0.6966 0.3581 0.6437
H3 H 0.6020 0.4328 0.6363
H4 H 0.4859 0.4000 0.4815
H5 H 0.3971 0.4275 0.5513
H6 H 0.3616 0.3484 0.5085
H7 H 0.6454 0.2906 0.4934
H8 H 0.5269 0.2335 0.5182
H9 H 0.6570 0.2424 0.5699
H10 H 0.5801 0.2242 0.6874
H11 H 0.4797 0.2865 0.8731
H12 H 0.5309 0.3392 0.8050
H13 H 0.6100 0.2615 0.8267
H14 H 0.5534 0.0090 0.7401
H15 H 0.4431 0.0675 0.7725
H16 H 0.5888 0.0991 0.7508
H17 H 0.3987 -0.0333 0.6395
H18 H 0.3356 0.0282 0.5822
H19 H 0.2838 0.0250 0.6670
H20 H 0.6337 0.0201 0.6113
H21 H 0.6625 0.1108 0.6235
H22 H 0.5719 0.0826 0.5546
loop_
_geom_bond_atom_site_label_1
_geom_bond_atom_site_label_2
_geom_bond_site_symmetry_1
_geom_bond_site_symmetry_2
O1 C5 1_555 1_555
O2 C7 1_555 1_555
O3 C9 1_555 1_555
C1 C4 1_555 1_555
C2 C4 1_555 1_555
C3 C4 1_555 1_555
C4 C5 1_555 1_555
C5 C6 1_555 1_555
C6 C7 1_555 1_555
C7 C8 1_555 1_555
C8 H11 1_555 1_555
C9 C6 1_555 1_555
C10 C9 1_555 1_555
C11 C10 1_555 1_555
C12 C10 1_555 1_555
C13 C10 1_555 1_555
H1 C1 1_555 1_555
H2 C1 1_555 1_555
H3 C1 1_555 1_555
H4 C2 1_555 1_555
H5 C2 1_555 1_555
H6 C2 1_555 1_555
H7 C3 1_555 1_555
H8 C3 1_555 1_555
H9 C3 1_555 1_555
H10 C6 1_555 1_555
H12 C8 1_555 1_555
H13 C8 1_555 1_555
H14 C11 1_555 1_555
H15 C11 1_555 1_555
H16 C11 1_555 1_555
H17 C12 1_555 1_555
H18 C12 1_555 1_555
H19 C12 1_555 1_555
H20 C13 1_555 1_555
H21 C13 1_555 1_555
H22 C13 1_555 1_555

#END
