
#######################################################################
#
#                 Cambridge Crystallographic Data Centre
#                                CCDC 
#
#######################################################################
#
# If this CIF has been generated from an entry in the Cambridge 
# Structural Database, then it will include bibliographic, chemical, 
# crystal, experimental, refinement or atomic coordinate data resulting 
# from the CCDC's data processing and validation procedures.
#
#######################################################################

data_OCIRAT
_chemical_formula_moiety         '2(C4 H6 N3 O1 1+),2(I5 1-),3(H2 O1)'
_chemical_name_systematic        'bis(Cytosinium) bis(pentaiodide) trihydrate'
_symmetry_cell_setting           triclinic
_symmetry_space_group_name_H-M   'P -1'
_symmetry_Int_Tables_number      2
_space_group_name_Hall           '-P 1'
loop_
_symmetry_equiv_pos_site_id
_symmetry_equiv_pos_as_xyz
1 x,y,z
2 -x,-y,-z
_cell_length_a                   9.3062(2)
_cell_length_b                   13.2058(6)
_cell_length_c                   14.6192(6)
_cell_angle_alpha                102.3835(16)
_cell_angle_beta                 106.151(2)
_cell_angle_gamma                99.073(2)
_cell_volume                     1639.72
_exptl_crystal_colour            red-brown
_exptl_crystal_description       block
_cell_formula_units_Z            2
loop_
_atom_site_label
_atom_site_type_symbol
_atom_site_fract_x
_atom_site_fract_y
_atom_site_fract_z
I1 I -0.45474(5) -0.64283(4) 0.10957(4)
I2 I -0.75441(5) -0.62097(3) 0.09997(3)
I3 I -1.07791(5) -0.59043(4) 0.09357(4)
I4 I -1.18695(6) -0.85041(4) 0.02026(4)
I5 I -1.27336(10) -1.06824(5) -0.03532(5)
I6 I -0.42320(5) 0.57864(4) 0.38692(4)
I7 I -0.10198(5) 0.60458(3) 0.40422(3)
I8 I 0.23041(5) 0.65076(4) 0.43307(5)
I9 I 0.2580(5) 0.9174(4) 0.5030(3)
I11 I 0.32460(19) 1.1489(2) 0.55122(16)
N1 N -0.0296(6) 0.2157(4) 0.2990(4)
H1 H -0.1256 0.2025 0.2932
C1 C 0.0372(7) 0.1314(5) 0.2781(5)
O1 O -0.0337(6) 0.0381(4) 0.2510(4)
N2 N 0.1894(6) 0.1584(4) 0.2889(4)
H2 H 0.2341 0.1076 0.2751
C2 C 0.2755(7) 0.2596(5) 0.3197(4)
N3 N 0.4236(7) 0.2754(5) 0.3287(5)
H3 H 0.4634 0.2219 0.3150
H4 H 0.4799 0.3391 0.3482
C3 C 0.2015(8) 0.3434(5) 0.3393(5)
H5 H 0.2557 0.4142 0.3593
C4 C 0.0502(8) 0.3184(5) 0.3283(5)
H6 H -0.0001 0.3727 0.3412
N4 N -0.4868(6) -0.2524(4) 0.1739(4)
H7 H -0.5826 -0.2648 0.1690
C5 C -0.4075(7) -0.1496(5) 0.1964(4)
O2 O -0.4644(5) -0.0727(4) 0.2099(4)
N5 N -0.2570(6) -0.1381(4) 0.2009(4)
H8 H -0.2034 -0.0744 0.2139
C6 C -0.1853(7) -0.2186(5) 0.1867(5)
N6 N -0.0384(6) -0.1945(5) 0.1948(5)
H9 H 0.0091 -0.1290 0.2088
H10 H 0.0097 -0.2444 0.1861
C7 C -0.2721(8) -0.3215(5) 0.1646(5)
H11 H -0.2281 -0.3797 0.1539
C8 C -0.4208(8) -0.3357(5) 0.1590(5)
H12 H -0.4795 -0.4044 0.1444
O3 O 0.6413(6) 0.1544(4) 0.2533(4)
H13 H 0.604(10) 0.176(6) 0.195(4)
H14 H 0.586(10) 0.083(3) 0.241(6)
O4 O 0.2938(7) -0.0263(5) 0.2745(5)
H15 H 0.374(8) -0.043(8) 0.249(6)
H16 H 0.320(10) -0.039(8) 0.339(3)
O5 O 0.2013(7) -0.3200(4) 0.1819(5)
H17 H 0.114(8) -0.366(6) 0.130(5)
H18 H 0.226(10) -0.359(6) 0.230(5)
I10? I 0.225(5) 0.934(2) 0.4930(17)
I12? I 0.2591(17) 1.1219(5) 0.5405(3)
loop_
_geom_bond_atom_site_label_1
_geom_bond_atom_site_label_2
_geom_bond_site_symmetry_1
_geom_bond_site_symmetry_2
I1 I2 1_555 1_555
I2 I3 1_555 1_555
I3 I4 1_555 1_555
I4 I5 1_555 1_555
I6 I7 1_555 1_555
I7 I8 1_555 1_555
I8 I9 1_555 1_555
I9 I11 1_555 1_555
N1 H1 1_555 1_555
C1 N1 1_555 1_555
O1 C1 1_555 1_555
N2 C1 1_555 1_555
H2 N2 1_555 1_555
C2 N2 1_555 1_555
N3 C2 1_555 1_555
H3 N3 1_555 1_555
H4 N3 1_555 1_555
C3 C2 1_555 1_555
H5 C3 1_555 1_555
C4 N1 1_555 1_555
H6 C4 1_555 1_555
N4 H7 1_555 1_555
C5 N4 1_555 1_555
O2 C5 1_555 1_555
N5 C5 1_555 1_555
H8 N5 1_555 1_555
C6 N5 1_555 1_555
N6 C6 1_555 1_555
H9 N6 1_555 1_555
H10 N6 1_555 1_555
C7 C6 1_555 1_555
H11 C7 1_555 1_555
C8 N4 1_555 1_555
H12 C8 1_555 1_555
O3 H13 1_555 1_555
O4 H15 1_555 1_555
O5 H17 1_555 1_555
H14 O3 1_555 1_555
H16 O4 1_555 1_555
H18 O5 1_555 1_555
C3 C4 1_555 1_555
C7 C8 1_555 1_555

#END
