
#######################################################################
#
#                 Cambridge Crystallographic Data Centre
#                                CCDC 
#
#######################################################################
#
# If this CIF has been generated from an entry in the Cambridge 
# Structural Database, then it will include bibliographic, chemical, 
# crystal, experimental, refinement or atomic coordinate data resulting 
# from the CCDC's data processing and validation procedures.
#
#######################################################################

data_OCIXUT
_chemical_formula_moiety         'C21 H26 O4 S1'
_chemical_name_systematic        
trans-2,2-bis(4-Methoxyphenyl)-4,8-dimethyl-1,3,6-dioxathiocane
_symmetry_cell_setting           triclinic
_symmetry_space_group_name_H-M   'P -1'
_symmetry_Int_Tables_number      2
_space_group_name_Hall           '-P 1'
loop_
_symmetry_equiv_pos_site_id
_symmetry_equiv_pos_as_xyz
1 x,y,z
2 -x,-y,-z
_cell_length_a                   12.447(2)
_cell_length_b                   14.647(3)
_cell_length_c                   11.417(4)
_cell_angle_alpha                108.64(2)
_cell_angle_beta                 94.19(2)
_cell_angle_gamma                85.54(2)
_cell_volume                     1963.73
_exptl_crystal_colour            colorless
_exptl_crystal_description       prism
_chemical_melting_point          379.5-380.4K
_cell_formula_units_Z            4
_exptl_crystal_recrystallization_method 'diethyl ether/methanol'
loop_
_atom_site_label
_atom_site_type_symbol
_atom_site_fract_x
_atom_site_fract_y
_atom_site_fract_z
S1 S 0.68504(6) -0.09118(5) 0.69285(6)
O1 O 0.7159(1) 0.1358(1) 0.7292(1)
O2 O 0.8747(1) 0.0550(1) 0.7770(1)
O3 O 1.0688(1) 0.2818(1) 0.4681(2)
O4 O 0.8304(1) 0.4153(1) 1.2600(1)
C1 C 0.8252(2) 0.1450(2) 0.7747(2)
C2 C 0.8397(2) 0.0131(2) 0.8656(2)
C3 C 0.7225(2) -0.0129(2) 0.8461(2)
C4 C 0.6246(2) -0.0070(2) 0.6174(2)
C5 C 0.6956(2) 0.0692(2) 0.6065(2)
C6 C 0.8908(2) 0.1796(2) 0.6906(2)
C7 C 0.9757(2) 0.1253(2) 0.6240(2)
C8 C 1.0325(2) 0.1605(2) 0.5499(2)
C9 C 1.0064(2) 0.2528(2) 0.5421(2)
C10 C 0.9212(2) 0.3076(2) 0.6068(2)
C11 C 0.8648(2) 0.2709(2) 0.6803(2)
C12 C 1.0464(2) 0.3766(2) 0.4612(3)
C13 C 0.8217(2) 0.2191(2) 0.9042(2)
C14 C 0.9156(2) 0.2325(2) 0.9799(2)
C15 C 0.9161(2) 0.2982(2) 1.0982(2)
C16 C 0.8227(2) 0.3530(2) 1.1410(2)
C17 C 0.7294(2) 0.3421(2) 1.0650(2)
C18 C 0.7300(2) 0.2744(2) 0.9477(2)
C19 C 0.7377(2) 0.4765(2) 1.3042(2)
C20 C 0.9160(2) -0.0750(2) 0.8543(2)
C21 C 0.6387(2) 0.1252(2) 0.5271(2)
H1 H 0.850 0.058 0.946
H2 H 0.762 0.040 0.572
H3 H 0.995 0.063 0.629
H4 H 1.090 0.122 0.504
H5 H 0.901 0.370 0.601
H6 H 0.807 0.309 0.725
H7 H 0.980 0.196 0.950
H8 H 0.980 0.306 1.150
H9 H 0.666 0.381 1.093
H10 H 0.666 0.266 0.896
H11 H 0.678 0.045 0.861
H12 H 0.709 -0.044 0.904
H13 H 0.601 -0.043 0.536
H14 H 0.564 0.025 0.663
H15 H 0.976 0.381 0.424
H16 H 1.050 0.422 0.542
H17 H 1.098 0.390 0.413
H18 H 0.720 0.516 1.253
H19 H 0.679 0.438 1.302
H20 H 0.753 0.516 1.387
H21 H 0.908 -0.119 0.773
H22 H 0.899 -0.105 0.912
H23 H 0.988 -0.056 0.870
H24 H 0.623 0.082 0.447
H25 H 0.684 0.173 0.521
H26 H 0.574 0.156 0.563
S2 S 0.25187(6) 0.44538(5) 1.22912(6)
O5 O 0.2119(1) 0.2989(1) 0.9488(1)
O6 O 0.3897(1) 0.2940(1) 1.0293(1)
O7 O 0.4759(2) 0.3565(1) 0.5269(1)
O8 O 0.3055(1) -0.1497(1) 0.7558(2)
C22 C 0.3187(2) 0.2588(2) 0.9244(2)
C23 C 0.3742(2) 0.2696(2) 1.1391(2)
C24 C 0.2729(2) 0.3167(2) 1.2054(2)
C25 C 0.1569(2) 0.4483(2) 1.1023(3)
C26 C 0.1942(2) 0.4020(2) 0.9722(2)
C27 C 0.3643(2) 0.2877(2) 0.8218(2)
C28 C 0.4533(2) 0.3428(2) 0.8408(2)
C29 C 0.4934(2) 0.3678(2) 0.7450(2)
C30 C 0.4436(2) 0.3364(2) 0.6275(2)
C31 C 0.3542(2) 0.2817(2) 0.6069(2)
C32 C 0.3155(2) 0.2573(2) 0.7021(2)
C33 C 0.5754(3) 0.4011(2) 0.5403(2)
C34 C 0.3109(2) 0.1497(2) 0.8859(2)
C35 C 0.4033(2) 0.0898(2) 0.8844(2)
C36 C 0.3993(2) -0.0092(2) 0.8421(2)
C37 C 0.3013(2) -0.0508(2) 0.7985(2)
C38 C 0.2088(2) 0.0075(2) 0.7984(2)
C39 C 0.2139(2) 0.1071(2) 0.8420(2)
C40 C 0.2089(3) -0.1938(2) 0.6989(3)
C41 C 0.4755(2) 0.2984(2) 1.2191(2)
C42 C 0.1078(2) 0.4160(2) 0.8779(3)
H27 H 0.371 0.202 1.117
H28 H 0.259 0.429 0.963
H29 H 0.488 0.364 0.921
H30 H 0.554 0.406 0.760
H31 H 0.319 0.261 0.527
H32 H 0.254 0.219 0.686
H33 H 0.471 0.118 0.913
H34 H 0.463 -0.049 0.843
H35 H 0.142 -0.020 0.769
H36 H 0.150 0.147 0.842
H37 H 0.277 0.307 1.284
H38 H 0.212 0.286 1.158
H39 H 0.095 0.417 1.110
H40 H 0.137 0.514 1.112
H41 H 0.592 0.407 0.463
H42 H 0.631 0.363 0.566
H43 H 0.570 0.463 0.600
H44 H 0.156 -0.180 0.759
H45 H 0.184 -0.169 0.634
H46 H 0.223 -0.262 0.667
H47 H 0.472 0.282 1.293
H48 H 0.481 0.366 1.240
H49 H 0.536 0.265 1.175
H50 H 0.092 0.483 0.892
H51 H 0.045 0.386 0.885
H52 H 0.133 0.388 0.797
loop_
_geom_bond_atom_site_label_1
_geom_bond_atom_site_label_2
_geom_bond_site_symmetry_1
_geom_bond_site_symmetry_2
S1 C3 1_555 1_555
O1 C1 1_555 1_555
O2 C1 1_555 1_555
O3 C9 1_555 1_555
O4 C16 1_555 1_555
C1 C6 1_555 1_555
C2 O2 1_555 1_555
C3 C2 1_555 1_555
C4 S1 1_555 1_555
C5 O1 1_555 1_555
C6 C7 1_555 1_555
C7 C8 1_555 1_555
C8 C9 1_555 1_555
C9 C10 1_555 1_555
C10 C11 1_555 1_555
C11 C6 1_555 1_555
C12 O3 1_555 1_555
C13 C1 1_555 1_555
C14 C13 1_555 1_555
C15 C14 1_555 1_555
C16 C15 1_555 1_555
C17 C16 1_555 1_555
C18 C13 1_555 1_555
C19 O4 1_555 1_555
C20 C2 1_555 1_555
C21 C5 1_555 1_555
S2 C24 1_555 1_555
O5 C22 1_555 1_555
O6 C22 1_555 1_555
O7 C30 1_555 1_555
O8 C37 1_555 1_555
C22 C27 1_555 1_555
C23 O6 1_555 1_555
C24 C23 1_555 1_555
C25 S2 1_555 1_555
C26 O5 1_555 1_555
C27 C28 1_555 1_555
C28 C29 1_555 1_555
C29 C30 1_555 1_555
C30 C31 1_555 1_555
C31 C32 1_555 1_555
C32 C27 1_555 1_555
C33 O7 1_555 1_555
C34 C22 1_555 1_555
C35 C34 1_555 1_555
C36 C35 1_555 1_555
C37 C36 1_555 1_555
C38 C37 1_555 1_555
C39 C34 1_555 1_555
C40 O8 1_555 1_555
C41 C23 1_555 1_555
C42 C26 1_555 1_555
H1 C2 1_555 1_555
H2 C5 1_555 1_555
H3 C7 1_555 1_555
H4 C8 1_555 1_555
H5 C10 1_555 1_555
H6 C11 1_555 1_555
H7 C14 1_555 1_555
H8 C15 1_555 1_555
H9 C17 1_555 1_555
H10 C18 1_555 1_555
H11 C3 1_555 1_555
H12 C3 1_555 1_555
H13 C4 1_555 1_555
H14 C4 1_555 1_555
H15 C12 1_555 1_555
H16 C12 1_555 1_555
H17 C12 1_555 1_555
H18 C19 1_555 1_555
H19 C19 1_555 1_555
H20 C19 1_555 1_555
H21 C20 1_555 1_555
H22 C20 1_555 1_555
H23 C20 1_555 1_555
H24 C21 1_555 1_555
H25 C21 1_555 1_555
H26 C21 1_555 1_555
H27 C23 1_555 1_555
H28 C26 1_555 1_555
H29 C28 1_555 1_555
H30 C29 1_555 1_555
H31 C31 1_555 1_555
H32 C32 1_555 1_555
H33 C35 1_555 1_555
H34 C36 1_555 1_555
H35 C38 1_555 1_555
H36 C39 1_555 1_555
H37 C24 1_555 1_555
H38 C24 1_555 1_555
H39 C25 1_555 1_555
H40 C25 1_555 1_555
H41 C33 1_555 1_555
H42 C33 1_555 1_555
H43 C33 1_555 1_555
H44 C40 1_555 1_555
H45 C40 1_555 1_555
H46 C40 1_555 1_555
H47 C41 1_555 1_555
H48 C41 1_555 1_555
H49 C41 1_555 1_555
H50 C42 1_555 1_555
H51 C42 1_555 1_555
H52 C42 1_555 1_555
C4 C5 1_555 1_555
C17 C18 1_555 1_555
C25 C26 1_555 1_555
C38 C39 1_555 1_555

#END
