
#######################################################################
#
#                 Cambridge Crystallographic Data Centre
#                                CCDC 
#
#######################################################################
#
# If this CIF has been generated from an entry in the Cambridge 
# Structural Database, then it will include bibliographic, chemical, 
# crystal, experimental, refinement or atomic coordinate data resulting 
# from the CCDC's data processing and validation procedures.
#
#######################################################################

data_OCIYII
_chemical_formula_moiety         'C16 H22 O1 S1'
_chemical_name_systematic        
1,1,3,3-Tetramethyl-4'-methylspiro(indan-2,2'-(1,3)oxathiolane)
_symmetry_cell_setting           monoclinic
_symmetry_space_group_name_H-M   'P 21/c'
_symmetry_Int_Tables_number      14
_space_group_name_Hall           '-P 2ybc'
loop_
_symmetry_equiv_pos_site_id
_symmetry_equiv_pos_as_xyz
1 x,y,z
2 x,1/2-y,1/2+z
3 -x,-y,-z
4 -x,1/2+y,1/2-z
_cell_length_a                   8.659(2)
_cell_length_b                   22.499(3)
_cell_length_c                   8.158(2)
_cell_angle_alpha                90
_cell_angle_beta                 112.97(2)
_cell_angle_gamma                90
_cell_volume                     1463.31
_exptl_crystal_colour            colorless
_exptl_crystal_description       prism
_chemical_melting_point          360.3-362.3K
_cell_formula_units_Z            4
_exptl_crystal_recrystallization_method 'diethyl ether/methanol'
loop_
_atom_site_label
_atom_site_type_symbol
_atom_site_fract_x
_atom_site_fract_y
_atom_site_fract_z
S1 S 0.3131(1) 0.06349(4) 0.2039(1)
O1 O 0.4432(2) 0.15529(9) 0.1028(3)
C1 C 0.4876(4) 0.1168(1) 0.2535(4)
C2 C 0.2217(7) 0.0855(3) -0.0295(7)
C4 C 0.2834(4) 0.1452(2) -0.0302(5)
C5 C 0.6628(4) 0.0882(1) 0.2802(4)
C6 C 0.7800(4) 0.1367(1) 0.3910(4)
C7 C 0.9475(4) 0.1455(2) 0.4198(4)
C8 C 1.0327(4) 0.1926(2) 0.5257(4)
C9 C 0.9538(4) 0.2303(2) 0.6018(4)
C10 C 0.7865(4) 0.2210(1) 0.5755(4)
C11 C 0.7019(4) 0.1743(1) 0.4696(4)
C12 C 0.5203(3) 0.1566(1) 0.4225(4)
C13 C 0.6815(4) 0.0780(2) 0.1024(5)
C14 C 0.6972(4) 0.0290(1) 0.3821(5)
C15 C 0.5025(4) 0.1233(1) 0.5795(4)
C16 C 0.4033(4) 0.2105(1) 0.3796(4)
C17 C 0.0326(4) 0.0770(2) -0.1123(5)
H1 H 0.269 0.061 -0.093
H2 H 1.002 0.120 0.368
H3 H 1.147 0.199 0.546
H4 H 1.014 0.263 0.672
H5 H 0.732 0.246 0.629
H7 H 0.207 0.172 -0.013
H8 H 0.288 0.152 -0.143
H11 H 0.593 0.053 0.028
H12 H 0.677 0.115 0.045
H13 H 0.786 0.059 0.124
H14 H 0.621 0.000 0.312
H15 H 0.809 0.017 0.407
H16 H 0.682 0.034 0.491
H17 H 0.389 0.112 0.548
H18 H 0.572 0.089 0.607
H19 H 0.536 0.149 0.681
H20 H 0.420 0.231 0.486
H21 H 0.427 0.236 0.300
H22 H 0.290 0.197 0.326
H23 H -0.020 0.113 -0.163
H24 H 0.005 0.047 -0.202
H25 H -0.006 0.065 -0.023
C3? C 0.167(1) 0.1101(4) 0.021(1)
H6? H 0.116 0.137 0.075
H9? H 0.233 0.183 -0.070
H10? H 0.298 0.125 -0.126
H26? H -0.072 0.089 -0.110
H27? H 0.033 0.085 -0.227
H28? H 0.048 0.036 -0.087
loop_
_geom_bond_atom_site_label_1
_geom_bond_atom_site_label_2
_geom_bond_site_symmetry_1
_geom_bond_site_symmetry_2
S1 C1 1_555 1_555
O1 C1 1_555 1_555
C1 C5 1_555 1_555
C2 S1 1_555 1_555
C4 O1 1_555 1_555
C5 C6 1_555 1_555
C6 C7 1_555 1_555
C7 C8 1_555 1_555
C8 C9 1_555 1_555
C9 C10 1_555 1_555
C10 C11 1_555 1_555
C11 C6 1_555 1_555
C12 C1 1_555 1_555
C13 C5 1_555 1_555
C14 C5 1_555 1_555
C15 C12 1_555 1_555
C16 C12 1_555 1_555
C17 C2 1_555 1_555
H1 C2 1_555 1_555
H2 C7 1_555 1_555
H3 C8 1_555 1_555
H4 C9 1_555 1_555
H5 C10 1_555 1_555
H7 C4 1_555 1_555
H8 C4 1_555 1_555
H11 C13 1_555 1_555
H12 C13 1_555 1_555
H13 C13 1_555 1_555
H14 C14 1_555 1_555
H15 C14 1_555 1_555
H16 C14 1_555 1_555
H17 C15 1_555 1_555
H18 C15 1_555 1_555
H19 C15 1_555 1_555
H20 C16 1_555 1_555
H21 C16 1_555 1_555
H22 C16 1_555 1_555
H23 C17 1_555 1_555
H24 C17 1_555 1_555
H25 C17 1_555 1_555
C2 C4 1_555 1_555
C11 C12 1_555 1_555

#END
