
#######################################################################
#
#                 Cambridge Crystallographic Data Centre
#                                CCDC 
#
#######################################################################
#
# If this CIF has been generated from an entry in the Cambridge 
# Structural Database, then it will include bibliographic, chemical, 
# crystal, experimental, refinement or atomic coordinate data resulting 
# from the CCDC's data processing and validation procedures.
#
#######################################################################

data_OCIYEE
_chemical_formula_moiety         'C16 H22 O1 S1'
_chemical_name_systematic        
1,1,3,3-Tetramethyl-5'-methylspiro(indan-2,2'-(1,3)oxathiolane)
_symmetry_cell_setting           monoclinic
_symmetry_space_group_name_H-M   'P 21/c'
_symmetry_Int_Tables_number      14
_space_group_name_Hall           '-P 2ybc'
loop_
_symmetry_equiv_pos_site_id
_symmetry_equiv_pos_as_xyz
1 x,y,z
2 x,1/2-y,1/2+z
3 -x,-y,-z
4 -x,1/2+y,1/2-z
_cell_length_a                   12.841(4)
_cell_length_b                   10.635(4)
_cell_length_c                   11.706(3)
_cell_angle_alpha                90
_cell_angle_beta                 117.16(2)
_cell_angle_gamma                90
_cell_volume                     1422.35
_exptl_crystal_colour            colorless
_exptl_crystal_description       prism
_chemical_melting_point          350.6-352.0K
_cell_formula_units_Z            4
_exptl_crystal_recrystallization_method methanol/pentane
loop_
_atom_site_label
_atom_site_type_symbol
_atom_site_fract_x
_atom_site_fract_y
_atom_site_fract_z
S1 S 0.73725(6) -0.00405(5) 0.40320(5)
O1 O 0.7461(1) 0.0922(1) 0.1999(1)
C1 C 0.7427(2) 0.1371(2) 0.3141(2)
C2 C 0.7587(2) -0.1071(2) 0.2945(2)
C3 C 0.7137(3) -0.0396(3) 0.1696(3)
C5 C 0.6338(2) 0.2256(2) 0.2729(2)
C6 C 0.6245(2) 0.4531(2) 0.1842(2)
C7 C 0.6875(2) 0.5576(2) 0.1797(2)
C8 C 0.8091(2) 0.5575(2) 0.2442(2)
C9 C 0.8693(2) 0.4526(2) 0.3134(2)
C10 C 0.8540(2) 0.2227(2) 0.3860(2)
C11 C 0.6842(2) 0.3479(2) 0.2531(2)
C12 C 0.8063(2) 0.3474(2) 0.3171(2)
C13 C 0.5270(2) 0.1787(2) 0.1523(2)
C14 C 0.5950(2) 0.2437(2) 0.3785(2)
C15 C 0.8919(2) 0.2371(2) 0.5308(2)
C16 C 0.9608(2) 0.1757(2) 0.3725(2)
C17 C 0.7642(2) -0.0797(2) 0.0817(2)
H1 H 0.631 -0.047 0.126
H3 H 0.541 0.454 0.141
H4 H 0.647 0.630 0.132
H5 H 0.851 0.630 0.241
H6 H 0.952 0.452 0.358
H7 H 0.840 -0.125 0.326
H8 H 0.717 -0.183 0.284
H11 H 0.464 0.236 0.130
H12 H 0.505 0.098 0.169
H13 H 0.546 0.173 0.083
H14 H 0.569 0.165 0.396
H15 H 0.659 0.274 0.454
H16 H 0.533 0.303 0.350
H17 H 0.827 0.265 0.543
H18 H 0.954 0.297 0.567
H19 H 0.918 0.158 0.572
H20 H 1.025 0.231 0.418
H21 H 0.981 0.093 0.407
H22 H 0.943 0.174 0.284
H23 H 0.751 -0.167 0.064
H24 H 0.727 -0.034 0.003
H25 H 0.846 -0.063 0.122
C4? C 0.7973(8) -0.0332(8) 0.2166(8)
H2? H 0.879 -0.025 0.260
H9? H 0.816 -0.168 0.341
H10? H 0.687 -0.148 0.241
H26? H 0.731 -0.162 0.071
H27? H 0.708 -0.024 0.021
H28? H 0.832 -0.083 0.069
loop_
_geom_bond_atom_site_label_1
_geom_bond_atom_site_label_2
_geom_bond_site_symmetry_1
_geom_bond_site_symmetry_2
S1 C1 1_555 1_555
O1 C1 1_555 1_555
C1 C5 1_555 1_555
C2 S1 1_555 1_555
C3 O1 1_555 1_555
C5 C11 1_555 1_555
C6 C7 1_555 1_555
C7 C8 1_555 1_555
C8 C9 1_555 1_555
C9 C12 1_555 1_555
C10 C1 1_555 1_555
C11 C6 1_555 1_555
C12 C10 1_555 1_555
C13 C5 1_555 1_555
C14 C5 1_555 1_555
C15 C10 1_555 1_555
C16 C10 1_555 1_555
C17 C3 1_555 1_555
H1 C3 1_555 1_555
H3 C6 1_555 1_555
H4 C7 1_555 1_555
H5 C8 1_555 1_555
H6 C9 1_555 1_555
H7 C2 1_555 1_555
H8 C2 1_555 1_555
H11 C13 1_555 1_555
H12 C13 1_555 1_555
H13 C13 1_555 1_555
H14 C14 1_555 1_555
H15 C14 1_555 1_555
H16 C14 1_555 1_555
H17 C15 1_555 1_555
H18 C15 1_555 1_555
H19 C15 1_555 1_555
H20 C16 1_555 1_555
H21 C16 1_555 1_555
H22 C16 1_555 1_555
H23 C17 1_555 1_555
H24 C17 1_555 1_555
H25 C17 1_555 1_555
C2 C3 1_555 1_555
C11 C12 1_555 1_555

#END
