
#######################################################################
#
#                 Cambridge Crystallographic Data Centre
#                                CCDC 
#
#######################################################################
#
# If this CIF has been generated from an entry in the Cambridge 
# Structural Database, then it will include bibliographic, chemical, 
# crystal, experimental, refinement or atomic coordinate data resulting 
# from the CCDC's data processing and validation procedures.
#
#######################################################################

data_OCMETD01
_chemical_formula_moiety         'C22 H36'
_chemical_name_systematic        
3,3,7,7,10,10,14,14-Octamethyltricyclo(7.5.0.0^2,8^)tetradeca-1(9),2(8)-diene
_symmetry_cell_setting           triclinic
_symmetry_space_group_name_H-M   'P -1'
_symmetry_Int_Tables_number      2
_space_group_name_Hall           '-P 1'
loop_
_symmetry_equiv_pos_site_id
_symmetry_equiv_pos_as_xyz
1 x,y,z
2 -x,-y,-z
_cell_length_a                   11.619(1)
_cell_length_b                   9.211(1)
_cell_length_c                   10.575(1)
_cell_angle_alpha                115.496(7)
_cell_angle_beta                 69.547(8)
_cell_angle_gamma                88.420(7)
_cell_volume                     935.711
_cell_formula_units_Z            2
loop_
_atom_site_label
_atom_site_type_symbol
_atom_site_fract_x
_atom_site_fract_y
_atom_site_fract_z
C1 C 0.24594(14) 0.59382(18) 0.58564(16)
C2 C 0.24920(14) 0.49290(17) 0.41817(16)
C3 C 0.23487(15) 0.32272(18) 0.32211(18)
C4 C 0.17827(18) 0.33186(24) 0.21346(20)
C5 C 0.25928(21) 0.36371(26) 0.08398(21)
C6 C 0.33684(19) 0.49536(24) 0.11943(20)
C7 C 0.27491(15) 0.66027(20) 0.26733(17)
C8 C 0.25339(14) 0.62887(18) 0.40170(16)
C9 C 0.24490(14) 0.73086(18) 0.57102(16)
C10 C 0.22744(15) 0.90943(18) 0.68033(17)
C11 C 0.16270(19) 0.93387(23) 0.84430(19)
C12 C 0.23706(22) 0.86149(25) 0.90445(21)
C13 C 0.31534(19) 0.68719(23) 0.79890(21)
C14 C 0.25818(16) 0.55457(19) 0.70578(18)
C15 C 0.13923(21) 0.26610(26) 0.42458(26)
C16 C 0.35981(20) 0.19542(24) 0.23160(25)
C17 C 0.36946(20) 0.77241(26) 0.26045(24)
C18 C 0.15332(20) 0.73897(27) 0.27367(24)
C19 C 0.13664(21) 1.01505(24) 0.66106(25)
C20 C 0.35162(20) 0.96949(25) 0.65651(25)
C21 C 0.35230(22) 0.39073(25) 0.62761(27)
C22 C 0.13201(21) 0.54398(31) 0.81180(25)
H1 H 0.0977(16) 0.4213(20) 0.2802(18)
H2 H 0.1502(16) 0.2278(23) 0.1685(19)
H3 H 0.2012(18) 0.3911(24) 0.0399(22)
H4 H 0.3184(18) 0.2614(25) 0.0023(23)
H5 H 0.4154(17) 0.4463(20) 0.1198(18)
H6 H 0.3365(16) 0.5184(21) 0.0337(20)
H7 H 0.0825(17) 0.8910(20) 0.8502(18)
H8 H 0.1332(16) 1.0540(23) 0.9136(20)
H9 H 0.1748(19) 0.8652(24) 0.9986(24)
H10 H 0.2970(19) 0.9389(25) 0.9386(22)
H11 H 0.3976(18) 0.6888(21) 0.7225(21)
H12 H 0.3383(16) 0.6488(20) 0.8615(20)
H13 H 0.1659(18) 0.2596(23) 0.5039(22)
H14 H 0.0576(20) 0.3464(26) 0.4820(24)
H15 H 0.1291(20) 0.1569(28) 0.3612(24)
H16 H 0.3920(17) 0.1835(22) 0.3025(21)
H17 H 0.4291(21) 0.2260(26) 0.1569(24)
H18 H 0.3472(18) 0.0843(25) 0.1673(22)
H19 H 0.3282(16) 0.8837(23) 0.3489(21)
H20 H 0.4498(19) 0.7241(23) 0.2560(21)
H21 H 0.3953(16) 0.7829(21) 0.1656(21)
H22 H 0.1126(18) 0.8466(25) 0.3715(23)
H23 H 0.0900(19) 0.6670(25) 0.2719(22)
H24 H 0.1739(20) 0.7602(26) 0.1870(25)
H25 H 0.1776(19) 1.0084(24) 0.5528(24)
H26 H 0.1215(18) 1.1296(26) 0.7348(22)
H27 H 0.3932(18) 0.9581(23) 0.5533(24)
H28 H 0.4138(21) 0.9075(27) 0.6738(24)
H29 H 0.3341(19) 1.0873(27) 0.7291(23)
H30 H 0.3222(18) 0.2979(25) 0.5633(22)
H31 H 0.4389(20) 0.3915(25) 0.5565(24)
H32 H 0.3660(18) 0.3683(23) 0.7012(23)
H33 H 0.0983(18) 0.4516(25) 0.7499(22)
H34 H 0.0670(20) 0.6490(27) 0.8661(24)
H35 H 0.1434(19) 0.5205(24) 0.8919(24)
loop_
_geom_bond_atom_site_label_1
_geom_bond_atom_site_label_2
_geom_bond_site_symmetry_1
_geom_bond_site_symmetry_2
C1 C2 1_555 1_555
C2 C3 1_555 1_555
C3 C4 1_555 1_555
C4 C5 1_555 1_555
C5 C6 1_555 1_555
C6 C7 1_555 1_555
C7 C8 1_555 1_555
C8 C2 1_555 1_555
C9 C1 1_555 1_555
C10 C9 1_555 1_555
C11 C10 1_555 1_555
C12 C11 1_555 1_555
C13 C12 1_555 1_555
C14 C1 1_555 1_555
C15 C3 1_555 1_555
C16 C3 1_555 1_555
C17 C7 1_555 1_555
C18 C7 1_555 1_555
C19 C10 1_555 1_555
C20 C10 1_555 1_555
C21 C14 1_555 1_555
C22 C14 1_555 1_555
H1 C4 1_555 1_555
H2 C4 1_555 1_555
H3 C5 1_555 1_555
H4 C5 1_555 1_555
H5 C6 1_555 1_555
H6 C6 1_555 1_555
H7 C11 1_555 1_555
H8 C11 1_555 1_555
H9 C12 1_555 1_555
H10 C12 1_555 1_555
H11 C13 1_555 1_555
H12 C13 1_555 1_555
H13 C15 1_555 1_555
H14 C15 1_555 1_555
H15 C15 1_555 1_555
H16 C16 1_555 1_555
H17 C16 1_555 1_555
H18 C16 1_555 1_555
H19 C17 1_555 1_555
H20 C17 1_555 1_555
H21 C17 1_555 1_555
H22 C18 1_555 1_555
H23 C18 1_555 1_555
H24 C18 1_555 1_555
H25 C19 1_555 1_555
H26 C19 1_555 1_555
H27 C20 1_555 1_555
H28 C20 1_555 1_555
H29 C20 1_555 1_555
H30 C21 1_555 1_555
H31 C21 1_555 1_555
H32 C21 1_555 1_555
H33 C22 1_555 1_555
H34 C22 1_555 1_555
H35 C22 1_555 1_555
C8 C9 1_555 1_555
C13 C14 1_555 1_555

#END
