
#######################################################################
#
#                 Cambridge Crystallographic Data Centre
#                                CCDC 
#
#######################################################################
#
# If this CIF has been generated from an entry in the Cambridge 
# Structural Database, then it will include bibliographic, chemical, 
# crystal, experimental, refinement or atomic coordinate data resulting 
# from the CCDC's data processing and validation procedures.
#
#######################################################################

data_OCOLUQ
_chemical_formula_moiety         'C27 H20 N2'
_chemical_name_systematic        4-((9-anthrylmethylene)amino)-N-phenylaniline
_symmetry_cell_setting           monoclinic
_symmetry_space_group_name_H-M   'P 21/c'
_symmetry_Int_Tables_number      14
_space_group_name_Hall           '-P 2ybc'
loop_
_symmetry_equiv_pos_site_id
_symmetry_equiv_pos_as_xyz
1 x,y,z
2 -x,1/2+y,1/2-z
3 -x,-y,-z
4 x,1/2-y,1/2+z
_cell_length_a                   11.1554(8)
_cell_length_b                   45.224(3)
_cell_length_c                   11.5856(8)
_cell_angle_alpha                90
_cell_angle_beta                 96.645(2)
_cell_angle_gamma                90
_cell_volume                     5805.58
_exptl_crystal_colour            yellow
_exptl_crystal_description       block
_cell_formula_units_Z            12
loop_
_atom_site_label
_atom_site_type_symbol
_atom_site_fract_x
_atom_site_fract_y
_atom_site_fract_z
C1 C 0.26112(17) 0.61937(4) 1.02008(17)
C2 C 0.18402(18) 0.62145(5) 0.91327(17)
H1 H 0.1713 0.6398 0.8776
C3 C 0.12888(19) 0.59724(5) 0.86268(19)
H2 H 0.0798 0.5993 0.7925
C4 C 0.14451(19) 0.56901(5) 0.9145(2)
H3 H 0.1077 0.5525 0.8779
C5 C 0.21301(19) 0.56617(5) 1.0172(2)
H4 H 0.2215 0.5476 1.0519
C6 C 0.27303(18) 0.59094(4) 1.07454(18)
C7 C 0.33961(19) 0.58833(5) 1.18216(19)
H5 H 0.3449 0.5699 1.2181
C8 C 0.39895(18) 0.61213(5) 1.23881(18)
C9 C 0.4676(2) 0.60887(5) 1.34924(19)
H6 H 0.4707 0.5905 1.3858
C10 C 0.5281(2) 0.63167(6) 1.4019(2)
H7 H 0.5723 0.6291 1.4743
C11 C 0.52493(19) 0.65969(5) 1.34739(19)
H8 H 0.5686 0.6753 1.3838
C12 C 0.45909(18) 0.66419(5) 1.24274(18)
H9 H 0.4579 0.6828 1.2088
C13 C 0.39169(17) 0.64070(4) 1.18408(17)
C14 C 0.32106(17) 0.64399(4) 1.07609(16)
C15 C 0.30094(17) 0.67319(4) 1.02085(17)
H10 H 0.3043 0.6748 0.9412
C16 C 0.25826(17) 0.72330(4) 1.01442(16)
C17 C 0.32184(17) 0.73145(4) 0.92280(16)
H11 H 0.3854 0.7197 0.9041
C18 C 0.29143(17) 0.75671(4) 0.85951(16)
H12 H 0.3351 0.7619 0.7988
C19 C 0.19624(17) 0.77470(4) 0.88491(16)
C20 C 0.13906(18) 0.76750(4) 0.98216(16)
H13 H 0.0791 0.7798 1.0045
C21 C 0.17071(18) 0.74221(4) 1.04569(16)
H14 H 0.1322 0.7379 1.1107
C22 C 0.06858(17) 0.81786(4) 0.80373(16)
C23 C 0.0768(2) 0.84370(5) 0.74049(19)
H15 H 0.1485 0.8480 0.7103
C24 C -0.0180(2) 0.86307(5) 0.7212(2)
H16 H -0.0101 0.8800 0.6773
C25 C -0.1242(2) 0.85767(5) 0.76608(18)
H17 H -0.1883 0.8709 0.7543
C26 C -0.1336(2) 0.83227(5) 0.8286(2)
H18 H -0.2051 0.8284 0.8599
C27 C -0.03963(19) 0.81222(5) 0.84664(18)
H19 H -0.0493 0.7949 0.8878
N1 N 0.27915(14) 0.69645(3) 1.07744(13)
N2 N 0.16966(15) 0.79942(3) 0.81534(14)
H20 H 0.2198(19) 0.8020(5) 0.7589(19)
C28 C 0.71492(18) 0.45788(4) 0.46717(17)
C29 C 0.78872(19) 0.45822(4) 0.57631(18)
H21 H 0.7929 0.4753 0.6211
C30 C 0.8530(2) 0.43405(5) 0.61612(19)
H22 H 0.8994 0.4348 0.6881
C31 C 0.8504(2) 0.40788(5) 0.5497(2)
H23 H 0.8948 0.3915 0.5779
C32 C 0.7831(2) 0.40671(5) 0.4451(2)
H24 H 0.7823 0.3894 0.4017
C33 C 0.71353(18) 0.43128(4) 0.39983(18)
C34 C 0.64679(18) 0.43032(4) 0.29127(18)
H25 H 0.6468 0.4130 0.2481
C35 C 0.57997(18) 0.45425(4) 0.24448(17)
C36 C 0.5082(2) 0.45245(5) 0.13519(18)
H26 H 0.5086 0.4351 0.0922
C37 C 0.4397(2) 0.47522(5) 0.09266(19)
H27 H 0.3930 0.4736 0.0211
C38 C 0.4388(2) 0.50170(5) 0.15699(19)
H28 H 0.3904 0.5173 0.1275
C39 C 0.50720(18) 0.50484(5) 0.26098(18)
H29 H 0.5058 0.5227 0.3009
C40 C 0.58098(17) 0.48128(4) 0.30983(17)
C41 C 0.65076(17) 0.48293(4) 0.41958(17)
C42 C 0.66532(17) 0.51095(4) 0.48428(16)
H30 H 0.6577 0.5111 0.5634
C43 C 0.70840(16) 0.56121(4) 0.50147(15)
C44 C 0.65393(16) 0.56740(4) 0.60083(15)
H31 H 0.5946 0.5548 0.6227
C45 C 0.68698(16) 0.59196(4) 0.66704(16)
H32 H 0.6498 0.5956 0.7334
C46 C 0.77522(16) 0.61147(4) 0.63675(15)
C47 C 0.82151(18) 0.60648(4) 0.53181(16)
H33 H 0.8753 0.6200 0.5058
C48 C 0.78838(18) 0.58171(4) 0.46604(16)
H34 H 0.8206 0.5788 0.3964
C49 C 0.90242(17) 0.65480(4) 0.71494(16)
C50 C 0.8996(2) 0.67904(5) 0.78831(19)
H35 H 0.8339 0.6816 0.8298
C51 C 0.9923(2) 0.69923(5) 0.8007(2)
H36 H 0.9884 0.7152 0.8506
C52 C 1.0897(2) 0.69612(5) 0.7408(2)
H37 H 1.1516 0.7100 0.7483
C53 C 1.0947(2) 0.67210(5) 0.66918(19)
H38 H 1.1611 0.6697 0.6284
C54 C 1.00284(18) 0.65145(5) 0.65651(18)
H39 H 1.0086 0.6352 0.6084
N3 N 0.68818(13) 0.53510(3) 0.43417(13)
N4 N 0.80552(15) 0.63521(4) 0.70989(14)
H40 H 0.7628(19) 0.6364(4) 0.7690(18)
C55 C 0.55519(18) 0.68363(4) -0.18917(18)
C56 C 0.49613(18) 0.65789(5) -0.23828(18)
H41 H 0.5033 0.6402 -0.1971
C57 C 0.4297(2) 0.65861(6) -0.34359(19)
H42 H 0.3931 0.6413 -0.3737
C58 C 0.4149(2) 0.68491(6) -0.4086(2)
H43 H 0.3687 0.6850 -0.4808
C59 C 0.4680(2) 0.71001(6) -0.3653(2)
H44 H 0.4576 0.7274 -0.4083
C60 C 0.53946(19) 0.71046(5) -0.25565(19)
C61 C 0.5933(2) 0.73624(5) -0.2093(2)
H45 H 0.5837 0.7535 -0.2528
C62 C 0.6606(2) 0.73722(5) -0.1012(2)
C63 C 0.7169(2) 0.76360(5) -0.0555(3)
H46 H 0.7056 0.7810 -0.0983
C64 C 0.7862(3) 0.76430(5) 0.0479(3)
H47 H 0.8209 0.7820 0.0760
C65 C 0.8057(2) 0.73793(5) 0.1131(2)
H48 H 0.8543 0.7383 0.1839
C66 C 0.7541(2) 0.71209(5) 0.07366(19)
H49 H 0.7688 0.6950 0.1177
C67 C 0.67808(19) 0.71060(4) -0.03370(18)
C68 C 0.62503(18) 0.68413(4) -0.07964(18)
C69 C 0.65310(18) 0.65659(4) -0.01366(17)
H50 H 0.6407 0.6557 0.0643
C70 C 0.72269(17) 0.60827(4) 0.00646(15)
C71 C 0.82786(18) 0.59356(4) -0.00799(16)
H51 H 0.8743 0.5999 -0.0649
C72 C 0.86612(17) 0.56949(4) 0.06038(16)
H52 H 0.9396 0.5606 0.0515
C73 C 0.79554(17) 0.55846(4) 0.14235(15)
C74 C 0.68619(17) 0.57274(4) 0.15263(16)
H53 H 0.6362 0.5655 0.2050
C75 C 0.65063(17) 0.59727(4) 0.08713(15)
H54 H 0.5781 0.6066 0.0968
C76 C 0.92058(17) 0.51468(4) 0.22658(16)
C77 C 1.00215(18) 0.51024(4) 0.14642(18)
H55 H 0.9970 0.5217 0.0795
C78 C 1.09106(19) 0.48884(4) 0.16520(18)
H56 H 1.1460 0.4865 0.1113
C79 C 1.09985(19) 0.47100(5) 0.26146(19)
H57 H 1.1585 0.4563 0.2721
C80 C 1.0197(2) 0.47527(5) 0.34235(19)
H58 H 1.0246 0.4634 0.4084
C81 C 0.93266(19) 0.49686(4) 0.32602(17)
H59 H 0.8807 0.4997 0.3823
N5 N 0.69395(14) 0.63399(3) -0.06137(13)
N6 N 0.82550(15) 0.53481(3) 0.21699(14)
H60 H 0.7737(17) 0.5329(4) 0.2703(17)
loop_
_geom_bond_atom_site_label_1
_geom_bond_atom_site_label_2
_geom_bond_site_symmetry_1
_geom_bond_site_symmetry_2
C1 C2 1_555 1_555
C2 H1 1_555 1_555
C3 C2 1_555 1_555
H2 C3 1_555 1_555
C4 C3 1_555 1_555
H3 C4 1_555 1_555
C5 C4 1_555 1_555
H4 C5 1_555 1_555
C6 C1 1_555 1_555
C7 C6 1_555 1_555
H5 C7 1_555 1_555
C8 C7 1_555 1_555
C9 C8 1_555 1_555
H6 C9 1_555 1_555
C10 C9 1_555 1_555
H7 C10 1_555 1_555
C11 C10 1_555 1_555
H8 C11 1_555 1_555
C12 C11 1_555 1_555
H9 C12 1_555 1_555
C13 C8 1_555 1_555
C14 C1 1_555 1_555
C15 C14 1_555 1_555
H10 C15 1_555 1_555
C16 C17 1_555 1_555
C17 H11 1_555 1_555
C18 C17 1_555 1_555
H12 C18 1_555 1_555
C19 C18 1_555 1_555
C20 C19 1_555 1_555
H13 C20 1_555 1_555
C21 C16 1_555 1_555
H14 C21 1_555 1_555
C22 C23 1_555 1_555
C23 H15 1_555 1_555
C24 C23 1_555 1_555
H16 C24 1_555 1_555
C25 C24 1_555 1_555
H17 C25 1_555 1_555
C26 C25 1_555 1_555
H18 C26 1_555 1_555
C27 C22 1_555 1_555
H19 C27 1_555 1_555
N1 C15 1_555 1_555
N2 C19 1_555 1_555
H20 N2 1_555 1_555
C28 C29 1_555 1_555
C29 H21 1_555 1_555
C30 C29 1_555 1_555
H22 C30 1_555 1_555
C31 C30 1_555 1_555
H23 C31 1_555 1_555
C32 C31 1_555 1_555
H24 C32 1_555 1_555
C33 C28 1_555 1_555
C34 C33 1_555 1_555
H25 C34 1_555 1_555
C35 C34 1_555 1_555
C36 C35 1_555 1_555
H26 C36 1_555 1_555
C37 C36 1_555 1_555
H27 C37 1_555 1_555
C38 C37 1_555 1_555
H28 C38 1_555 1_555
C39 C38 1_555 1_555
H29 C39 1_555 1_555
C40 C35 1_555 1_555
C41 C28 1_555 1_555
C42 C41 1_555 1_555
H30 C42 1_555 1_555
C43 C44 1_555 1_555
C44 H31 1_555 1_555
C45 C44 1_555 1_555
H32 C45 1_555 1_555
C46 C45 1_555 1_555
C47 C46 1_555 1_555
H33 C47 1_555 1_555
C48 C43 1_555 1_555
H34 C48 1_555 1_555
C49 C50 1_555 1_555
C50 H35 1_555 1_555
C51 C50 1_555 1_555
H36 C51 1_555 1_555
C52 C51 1_555 1_555
H37 C52 1_555 1_555
C53 C52 1_555 1_555
H38 C53 1_555 1_555
C54 C49 1_555 1_555
H39 C54 1_555 1_555
N3 C42 1_555 1_555
N4 C46 1_555 1_555
H40 N4 1_555 1_555
C55 C56 1_555 1_555
C56 H41 1_555 1_555
C57 C56 1_555 1_555
H42 C57 1_555 1_555
C58 C57 1_555 1_555
H43 C58 1_555 1_555
C59 C58 1_555 1_555
H44 C59 1_555 1_555
C60 C55 1_555 1_555
C61 C60 1_555 1_555
H45 C61 1_555 1_555
C62 C61 1_555 1_555
C63 C62 1_555 1_555
H46 C63 1_555 1_555
C64 C63 1_555 1_555
H47 C64 1_555 1_555
C65 C64 1_555 1_555
H48 C65 1_555 1_555
C66 C65 1_555 1_555
H49 C66 1_555 1_555
C67 C62 1_555 1_555
C68 C55 1_555 1_555
C69 C68 1_555 1_555
H50 C69 1_555 1_555
C70 C71 1_555 1_555
C71 H51 1_555 1_555
C72 C71 1_555 1_555
H52 C72 1_555 1_555
C73 C72 1_555 1_555
C74 C73 1_555 1_555
H53 C74 1_555 1_555
C75 C70 1_555 1_555
H54 C75 1_555 1_555
C76 C77 1_555 1_555
C77 H55 1_555 1_555
C78 C77 1_555 1_555
H56 C78 1_555 1_555
C79 C78 1_555 1_555
H57 C79 1_555 1_555
C80 C79 1_555 1_555
H58 C80 1_555 1_555
C81 C76 1_555 1_555
H59 C81 1_555 1_555
N5 C69 1_555 1_555
N6 C73 1_555 1_555
H60 N6 1_555 1_555
C5 C6 1_555 1_555
C12 C13 1_555 1_555
C13 C14 1_555 1_555
C16 N1 1_555 1_555
C20 C21 1_555 1_555
C22 N2 1_555 1_555
C26 C27 1_555 1_555
C32 C33 1_555 1_555
C39 C40 1_555 1_555
C40 C41 1_555 1_555
C43 N3 1_555 1_555
C47 C48 1_555 1_555
C49 N4 1_555 1_555
C53 C54 1_555 1_555
C59 C60 1_555 1_555
C66 C67 1_555 1_555
C67 C68 1_555 1_555
C70 N5 1_555 1_555
C74 C75 1_555 1_555
C76 N6 1_555 1_555
C80 C81 1_555 1_555

#END
