
#######################################################################
#
#                 Cambridge Crystallographic Data Centre
#                                CCDC 
#
#######################################################################
#
# If this CIF has been generated from an entry in the Cambridge 
# Structural Database, then it will include bibliographic, chemical, 
# crystal, experimental, refinement or atomic coordinate data resulting 
# from the CCDC's data processing and validation procedures.
#
#######################################################################

data_OCONIF
_chemical_formula_moiety         'C54 H68 P2'
_chemical_name_systematic        
meso-Ethane-1,2-diylbis((2-naphthylmethyl)(2,4,6-triisopropylphenyl)phosphine)
_symmetry_cell_setting           triclinic
_symmetry_space_group_name_H-M   'P -1'
_symmetry_Int_Tables_number      2
_space_group_name_Hall           '-P 1'
loop_
_symmetry_equiv_pos_site_id
_symmetry_equiv_pos_as_xyz
1 x,y,z
2 -x,-y,-z
_cell_length_a                   9.5176(8)
_cell_length_b                   10.9546(9)
_cell_length_c                   12.5468(11)
_cell_angle_alpha                64.4770(10)
_cell_angle_beta                 80.3910(10)
_cell_angle_gamma                73.5900(10)
_cell_volume                     1130.86
_exptl_crystal_colour            colorless
_exptl_crystal_description       block
_cell_formula_units_Z            1
loop_
_atom_site_label
_atom_site_type_symbol
_atom_site_fract_x
_atom_site_fract_y
_atom_site_fract_z
P1 P 0.62778(4) 0.04289(3) 0.10697(3)
C1 C 0.50263(15) 0.20334(13) 0.11591(12)
H1 H 0.4329 0.2474 0.0520
H2 H 0.4454 0.1789 0.1926
C2 C 0.59024(15) 0.30402(13) 0.10412(12)
C3 C 0.59295(15) 0.34403(14) 0.19292(12)
H3 H 0.5388 0.3062 0.2653
C4 C 0.67463(15) 0.44083(14) 0.17990(12)
C5 C 0.67491(17) 0.48694(16) 0.26938(14)
H4 H 0.6211 0.4507 0.3423
C6 C 0.75173(18) 0.58298(16) 0.25223(15)
H5 H 0.7504 0.6131 0.3131
C7 C 0.83258(17) 0.63735(15) 0.14512(15)
H6 H 0.8849 0.7045 0.1338
C8 C 0.83638(16) 0.59407(15) 0.05701(14)
H7 H 0.8922 0.6306 -0.0147
C9 C 0.75727(15) 0.49473(14) 0.07239(12)
C10 C 0.75518(16) 0.45038(14) -0.01807(12)
H8 H 0.8110 0.4850 -0.0902
C11 C 0.67432(16) 0.35885(14) -0.00298(12)
H9 H 0.6741 0.3312 -0.0650
C12 C 0.68246(14) -0.06827(13) 0.26082(11)
C13 C 0.83233(14) -0.08802(13) 0.27801(11)
C14 C 0.89192(14) -0.18855(13) 0.38426(11)
H10 H 0.9929 -0.2026 0.3941
C15 C 0.80997(14) -0.26872(13) 0.47603(11)
C16 C 0.66090(14) -0.24082(13) 0.46158(11)
H11 H 0.6016 -0.2911 0.5250
C17 C 0.59499(14) -0.14131(13) 0.35701(11)
C18 C 0.93273(15) -0.00098(14) 0.18770(12)
H12 H 0.8741 0.0668 0.1178
C19 C 1.06280(16) -0.09018(16) 0.14449(13)
H13 H 1.0269 -0.1419 0.1119
H14 H 1.1242 -0.1558 0.2108
H15 H 1.1209 -0.0301 0.0829
C20 C 0.98416(17) 0.08301(16) 0.23830(14)
H16 H 0.8988 0.1363 0.2683
H17 H 1.0377 0.1471 0.1760
H18 H 1.0488 0.0193 0.3030
C21 C 0.88457(15) -0.37658(13) 0.58870(11)
H19 H 0.9865 -0.4166 0.5647
C22 C 0.81110(17) -0.49766(14) 0.65717(12)
H20 H 0.8637 -0.5618 0.7289
H21 H 0.8134 -0.5471 0.6076
H22 H 0.7091 -0.4619 0.6790
C23 C 0.89784(17) -0.30568(15) 0.66724(12)
H23 H 0.9449 -0.3758 0.7399
H24 H 0.7999 -0.2586 0.6873
H25 H 0.9572 -0.2372 0.6247
C24 C 0.42896(14) -0.11647(14) 0.35506(11)
H26 H 0.3972 -0.0396 0.2773
C25 C 0.38476(16) -0.24555(15) 0.36581(13)
H27 H 0.2777 -0.2264 0.3661
H28 H 0.4194 -0.3240 0.4396
H29 H 0.4289 -0.2688 0.2986
C26 C 0.34987(15) -0.06924(16) 0.45291(12)
H30 H 0.2437 -0.0541 0.4504
H31 H 0.3730 0.0177 0.4407
H32 H 0.3824 -0.1412 0.5301
C27 C 0.50169(15) -0.03179(14) 0.06823(11)
H33 H 0.5367 -0.1343 0.0988
H34 H 0.4021 -0.0091 0.1037
P1A P 0.37222(4) -0.04289(3) -0.10697(3)
C1A C 0.49737(15) -0.20334(13) -0.11591(12)
H1A H 0.5671 -0.2474 -0.0520
H2A H 0.5546 -0.1789 -0.1926
C2A C 0.40976(15) -0.30402(13) -0.10412(12)
C3A C 0.40705(15) -0.34403(14) -0.19292(12)
H3A H 0.4612 -0.3062 -0.2653
C4A C 0.32537(15) -0.44083(14) -0.17990(12)
C5A C 0.32509(17) -0.48694(16) -0.26938(14)
H4A H 0.3789 -0.4507 -0.3423
C6A C 0.24827(18) -0.58298(16) -0.25223(15)
H5A H 0.2496 -0.6131 -0.3131
C7A C 0.16742(17) -0.63735(15) -0.14512(15)
H6A H 0.1151 -0.7045 -0.1338
C8A C 0.16362(16) -0.59407(15) -0.05701(14)
H7A H 0.1078 -0.6306 0.0147
C9A C 0.24273(15) -0.49473(14) -0.07239(12)
C10A C 0.24482(16) -0.45038(14) 0.01807(12)
H8A H 0.1890 -0.4850 0.0902
C11A C 0.32568(16) -0.35885(14) 0.00298(12)
H9A H 0.3259 -0.3312 0.0650
C12A C 0.31754(14) 0.06827(13) -0.26082(11)
C13A C 0.16767(14) 0.08802(13) -0.27801(11)
C14A C 0.10808(14) 0.18855(13) -0.38426(11)
H10A H 0.0071 0.2026 -0.3941
C15A C 0.19003(14) 0.26872(13) -0.47603(11)
C16A C 0.33910(14) 0.24082(13) -0.46158(11)
H11A H 0.3984 0.2911 -0.5250
C17A C 0.40501(14) 0.14131(13) -0.35701(11)
C18A C 0.06727(15) 0.00098(14) -0.18770(12)
H12A H 0.1259 -0.0668 -0.1178
C19A C -0.06280(16) 0.09018(16) -0.14449(13)
H13A H -0.0269 0.1419 -0.1119
H14A H -0.1242 0.1558 -0.2108
H15A H -0.1209 0.0301 -0.0829
C20A C 0.01584(17) -0.08301(16) -0.23830(14)
H16A H 0.1012 -0.1363 -0.2683
H17A H -0.0377 -0.1471 -0.1760
H18A H -0.0488 -0.0193 -0.3030
C21A C 0.11543(15) 0.37658(13) -0.58870(11)
H19A H 0.0135 0.4166 -0.5647
C22A C 0.18890(17) 0.49766(14) -0.65717(12)
H20A H 0.1363 0.5618 -0.7289
H21A H 0.1866 0.5471 -0.6076
H22A H 0.2909 0.4619 -0.6790
C23A C 0.10216(17) 0.30568(15) -0.66724(12)
H23A H 0.0551 0.3758 -0.7399
H24A H 0.2001 0.2586 -0.6873
H25A H 0.0428 0.2372 -0.6247
C24A C 0.57104(14) 0.11647(14) -0.35506(11)
H26A H 0.6028 0.0396 -0.2773
C25A C 0.61524(16) 0.24555(15) -0.36581(13)
H27A H 0.7223 0.2264 -0.3661
H28A H 0.5806 0.3240 -0.4396
H29A H 0.5711 0.2688 -0.2986
C26A C 0.65013(15) 0.06924(16) -0.45291(12)
H30A H 0.7563 0.0541 -0.4504
H31A H 0.6270 -0.0177 -0.4407
H32A H 0.6176 0.1412 -0.5301
C27A C 0.49831(15) 0.03179(14) -0.06823(11)
H33A H 0.4633 0.1343 -0.0988
H34A H 0.5979 0.0091 -0.1037
loop_
_geom_bond_atom_site_label_1
_geom_bond_atom_site_label_2
_geom_bond_site_symmetry_1
_geom_bond_site_symmetry_2
P1 C1 1_555 1_555
C1 H1 1_555 1_555
H2 C1 1_555 1_555
C2 C1 1_555 1_555
C3 C2 1_555 1_555
H3 C3 1_555 1_555
C4 C3 1_555 1_555
C5 C4 1_555 1_555
H4 C5 1_555 1_555
C6 C5 1_555 1_555
H5 C6 1_555 1_555
C7 C6 1_555 1_555
H6 C7 1_555 1_555
C8 C7 1_555 1_555
H7 C8 1_555 1_555
C9 C4 1_555 1_555
C10 C9 1_555 1_555
H8 C10 1_555 1_555
C11 C2 1_555 1_555
H9 C11 1_555 1_555
C12 P1 1_555 1_555
C13 C12 1_555 1_555
C14 C13 1_555 1_555
H10 C14 1_555 1_555
C15 C14 1_555 1_555
C16 C15 1_555 1_555
H11 C16 1_555 1_555
C17 C12 1_555 1_555
C18 C13 1_555 1_555
H12 C18 1_555 1_555
C19 C18 1_555 1_555
H13 C19 1_555 1_555
H14 C19 1_555 1_555
H15 C19 1_555 1_555
C20 C18 1_555 1_555
H16 C20 1_555 1_555
H17 C20 1_555 1_555
H18 C20 1_555 1_555
C21 C15 1_555 1_555
H19 C21 1_555 1_555
C22 C21 1_555 1_555
H20 C22 1_555 1_555
H21 C22 1_555 1_555
H22 C22 1_555 1_555
C23 C21 1_555 1_555
H23 C23 1_555 1_555
H24 C23 1_555 1_555
H25 C23 1_555 1_555
C24 C17 1_555 1_555
H26 C24 1_555 1_555
C25 C24 1_555 1_555
H27 C25 1_555 1_555
H28 C25 1_555 1_555
H29 C25 1_555 1_555
C26 C24 1_555 1_555
H30 C26 1_555 1_555
H31 C26 1_555 1_555
H32 C26 1_555 1_555
C27 P1 1_555 1_555
H33 C27 1_555 1_555
H34 C27 1_555 1_555
P1A C1A 1_555 1_555
C1A H1A 1_555 1_555
H2A C1A 1_555 1_555
C2A C1A 1_555 1_555
C3A C2A 1_555 1_555
H3A C3A 1_555 1_555
C4A C3A 1_555 1_555
C5A C4A 1_555 1_555
H4A C5A 1_555 1_555
C6A C5A 1_555 1_555
H5A C6A 1_555 1_555
C7A C6A 1_555 1_555
H6A C7A 1_555 1_555
C8A C7A 1_555 1_555
H7A C8A 1_555 1_555
C9A C4A 1_555 1_555
C10A C9A 1_555 1_555
H8A C10A 1_555 1_555
C11A C2A 1_555 1_555
H9A C11A 1_555 1_555
C12A P1A 1_555 1_555
C13A C12A 1_555 1_555
C14A C13A 1_555 1_555
H10A C14A 1_555 1_555
C15A C14A 1_555 1_555
C16A C15A 1_555 1_555
H11A C16A 1_555 1_555
C17A C12A 1_555 1_555
C18A C13A 1_555 1_555
H12A C18A 1_555 1_555
C19A C18A 1_555 1_555
H13A C19A 1_555 1_555
H14A C19A 1_555 1_555
H15A C19A 1_555 1_555
C20A C18A 1_555 1_555
H16A C20A 1_555 1_555
H17A C20A 1_555 1_555
H18A C20A 1_555 1_555
C21A C15A 1_555 1_555
H19A C21A 1_555 1_555
C22A C21A 1_555 1_555
H20A C22A 1_555 1_555
H21A C22A 1_555 1_555
H22A C22A 1_555 1_555
C23A C21A 1_555 1_555
H23A C23A 1_555 1_555
H24A C23A 1_555 1_555
H25A C23A 1_555 1_555
C24A C17A 1_555 1_555
H26A C24A 1_555 1_555
C25A C24A 1_555 1_555
H27A C25A 1_555 1_555
H28A C25A 1_555 1_555
H29A C25A 1_555 1_555
C26A C24A 1_555 1_555
H30A C26A 1_555 1_555
H31A C26A 1_555 1_555
H32A C26A 1_555 1_555
C27A C27 1_555 1_555
H33A C27A 1_555 1_555
H34A C27A 1_555 1_555
C8 C9 1_555 1_555
C10 C11 1_555 1_555
C16 C17 1_555 1_555
P1A C27A 1_555 1_555
C8A C9A 1_555 1_555
C10A C11A 1_555 1_555
C16A C17A 1_555 1_555

#END
