
#######################################################################
#
#                 Cambridge Crystallographic Data Centre
#                                CCDC 
#
#######################################################################
#
# If this CIF has been generated from an entry in the Cambridge 
# Structural Database, then it will include bibliographic, chemical, 
# crystal, experimental, refinement or atomic coordinate data resulting 
# from the CCDC's data processing and validation procedures.
#
#######################################################################

data_OCONUR
_chemical_formula_moiety         'C17 H29 O1 P1'
_chemical_name_systematic        
2-((2,4,6-Triisopropylphenyl)phosphino)ethanol
_symmetry_cell_setting           tetragonal
_symmetry_space_group_name_H-M   'P 42/n'
_symmetry_Int_Tables_number      86
_space_group_name_Hall           '-P 4bc'
loop_
_symmetry_equiv_pos_site_id
_symmetry_equiv_pos_as_xyz
1 x,y,z
2 -y,1/2+x,1/2+z
3 1/2+y,-x,1/2+z
4 1/2-x,1/2-y,z
5 -x,-y,-z
6 y,1/2-x,1/2-z
7 1/2-y,x,1/2-z
8 1/2+x,1/2+y,-z
_cell_length_a                   23.7985(14)
_cell_length_b                   23.7985(14)
_cell_length_c                   5.9808(3)
_cell_angle_alpha                90
_cell_angle_beta                 90
_cell_angle_gamma                90
_cell_volume                     3387.34
_exptl_crystal_colour            colorless
_exptl_crystal_description       block
_cell_formula_units_Z            8
loop_
_atom_site_label
_atom_site_type_symbol
_atom_site_fract_x
_atom_site_fract_y
_atom_site_fract_z
C1 C 0.26305(5) 0.35736(5) 0.3610(2)
H1 H 0.2250 0.3578 0.4281
H2 H 0.2672 0.3216 0.2782
C2 C 0.30613(6) 0.35861(6) 0.5479(3)
H3 H 0.3442 0.3552 0.4827
H4 H 0.3039 0.3952 0.6257
C3 C 0.26362(5) 0.47789(5) 0.3459(2)
C4 C 0.21088(5) 0.49155(5) 0.4397(2)
C5 C 0.20590(5) 0.53834(5) 0.5790(2)
H5 H 0.1703 0.5469 0.6424
C6 C 0.25135(5) 0.57273(5) 0.6276(2)
C7 C 0.30294(5) 0.55953(5) 0.5315(2)
H6 H 0.3343 0.5831 0.5615
C8 C 0.31040(5) 0.51299(5) 0.3925(2)
C9 C 0.15749(5) 0.45788(5) 0.3932(2)
H7 H 0.1684 0.4242 0.3033
C10 C 0.12986(6) 0.43709(7) 0.6082(3)
H8 H 0.1576 0.4169 0.6986
H9 H 0.0988 0.4118 0.5709
H10 H 0.1154 0.4692 0.6929
C11 C 0.11661(6) 0.49273(6) 0.2523(3)
H11 H 0.0830 0.4703 0.2196
H12 H 0.1348 0.5036 0.1118
H13 H 0.1058 0.5266 0.3352
C12 C 0.24540(5) 0.62394(5) 0.7767(2)
H14 H 0.2839 0.6391 0.8050
C13 C 0.21909(6) 0.60993(6) 1.0034(2)
H15 H 0.1808 0.5959 0.9809
H16 H 0.2180 0.6438 1.0962
H17 H 0.2416 0.5810 1.0782
C14 C 0.21137(6) 0.66992(6) 0.6601(2)
H18 H 0.2285 0.6785 0.5150
H19 H 0.2111 0.7038 0.7531
H20 H 0.1727 0.6569 0.6376
C15 C 0.36805(5) 0.50258(5) 0.2888(2)
H21 H 0.3741 0.4610 0.2856
C16 C 0.41705(6) 0.52839(7) 0.4172(3)
H22 H 0.4142 0.5695 0.4121
H23 H 0.4526 0.5165 0.3489
H24 H 0.4159 0.5158 0.5731
C17 C 0.36913(6) 0.52331(7) 0.0462(3)
H25 H 0.3637 0.5641 0.0433
H26 H 0.3389 0.5051 -0.0384
H27 H 0.4055 0.5140 -0.0215
O1 O 0.29781(4) 0.31440(4) 0.7067(2)
H28 H 0.2640 0.3140 0.7472
P1 P 0.26846(2) 0.416294(15) 0.15989(6)
H29 H 0.3142(9) 0.4125(9) 0.123(4)
loop_
_geom_bond_atom_site_label_1
_geom_bond_atom_site_label_2
_geom_bond_site_symmetry_1
_geom_bond_site_symmetry_2
C1 H1 1_555 1_555
H2 C1 1_555 1_555
C2 C1 1_555 1_555
H3 C2 1_555 1_555
H4 C2 1_555 1_555
C3 C4 1_555 1_555
C4 C5 1_555 1_555
C5 H5 1_555 1_555
C6 C5 1_555 1_555
C7 C6 1_555 1_555
H6 C7 1_555 1_555
C8 C3 1_555 1_555
C9 C4 1_555 1_555
H7 C9 1_555 1_555
C10 C9 1_555 1_555
H8 C10 1_555 1_555
H9 C10 1_555 1_555
H10 C10 1_555 1_555
C11 C9 1_555 1_555
H11 C11 1_555 1_555
H12 C11 1_555 1_555
H13 C11 1_555 1_555
C12 C6 1_555 1_555
H14 C12 1_555 1_555
C13 C12 1_555 1_555
H15 C13 1_555 1_555
H16 C13 1_555 1_555
H17 C13 1_555 1_555
C14 C12 1_555 1_555
H18 C14 1_555 1_555
H19 C14 1_555 1_555
H20 C14 1_555 1_555
C15 C8 1_555 1_555
H21 C15 1_555 1_555
C16 C15 1_555 1_555
H22 C16 1_555 1_555
H23 C16 1_555 1_555
H24 C16 1_555 1_555
C17 C15 1_555 1_555
H25 C17 1_555 1_555
H26 C17 1_555 1_555
H27 C17 1_555 1_555
O1 C2 1_555 1_555
H28 O1 1_555 1_555
P1 C1 1_555 1_555
H29 P1 1_555 1_555
C3 P1 1_555 1_555
C7 C8 1_555 1_555

#END
