
#######################################################################
#
#                 Cambridge Crystallographic Data Centre
#                                CCDC 
#
#######################################################################
#
# If this CIF has been generated from an entry in the Cambridge 
# Structural Database, then it will include bibliographic, chemical, 
# crystal, experimental, refinement or atomic coordinate data resulting 
# from the CCDC's data processing and validation procedures.
#
#######################################################################

data_OCONEB
_chemical_formula_moiety         'C54 H74 B2 P2'
_chemical_name_systematic        
rac-2,5-bis(2-naphthylmethyl)-2,5-bis(2,4,6-triisopropylphenyl)-2\l^5^,5\l^5^-diphospha-1\l^5^,6\l^5^-diborahexane
_symmetry_cell_setting           orthorhombic
_symmetry_space_group_name_H-M   'P b c n'
_symmetry_Int_Tables_number      60
_space_group_name_Hall           '-P 2n 2ab'
loop_
_symmetry_equiv_pos_site_id
_symmetry_equiv_pos_as_xyz
1 x,y,z
2 1/2+x,1/2-y,-z
3 -x,y,1/2-z
4 1/2-x,1/2-y,1/2+z
5 -x,-y,-z
6 1/2-x,1/2+y,z
7 x,-y,1/2+z
8 1/2+x,1/2+y,1/2-z
_cell_length_a                   30.6779(6)
_cell_length_b                   18.9288(3)
_cell_length_c                   16.8358(3)
_cell_angle_alpha                90
_cell_angle_beta                 90
_cell_angle_gamma                90
_cell_volume                     9776.48
_exptl_crystal_colour            colorless
_exptl_crystal_description       block
_cell_formula_units_Z            8
_chemical_properties_physical    air-sensitive
_exptl_crystal_recrystallization_method toluene
loop_
_atom_site_label
_atom_site_type_symbol
_atom_site_fract_x
_atom_site_fract_y
_atom_site_fract_z
P1 P 0.10799(3) 0.17030(5) 0.06602(6)
P2 P 0.25349(3) 0.19273(4) 0.05392(5)
B1 B 0.1072(3) 0.1672(4) 0.1826(4)
H1 H 0.1147 0.1194 0.2005
H2 H 0.0780 0.1795 0.2017
H3 H 0.1285 0.2009 0.2036
B2 B 0.25935(16) 0.0972(2) 0.0145(3)
H4 H 0.2902 0.0868 0.0051
H5 H 0.2431 0.0924 -0.0353
H6 H 0.2477 0.0641 0.0538
C1 C 0.09528(11) 0.25116(17) 0.0105(2)
C2 C 0.10912(11) 0.25994(18) -0.0696(2)
C3 C 0.12112(13) 0.2000(2) -0.1248(2)
H7 H 0.1207 0.1553 -0.0932
C4 C 0.08642(16) 0.1935(3) -0.1901(3)
H8 H 0.0577 0.1866 -0.1657
H9 H 0.0933 0.1531 -0.2242
H10 H 0.0861 0.2368 -0.2220
C5 C 0.16683(16) 0.2080(3) -0.1606(3)
H11 H 0.1884 0.2103 -0.1178
H12 H 0.1681 0.2516 -0.1921
H13 H 0.1731 0.1674 -0.1949
C6 C 0.10912(12) 0.32687(19) -0.1029(2)
H14 H 0.1191 0.3321 -0.1560
C7 C 0.09530(13) 0.3859(2) -0.0629(3)
C8 C 0.09875(16) 0.4579(2) -0.1040(3)
H15 H 0.0889 0.4513 -0.1602
C9 C 0.14636(18) 0.4814(3) -0.1072(4)
H16 H 0.1484 0.5270 -0.1343
H17 H 0.1635 0.4461 -0.1362
H18 H 0.1577 0.4859 -0.0530
C10 C 0.0703(2) 0.5139(3) -0.0680(5)
H19 H 0.0399 0.4981 -0.0687
H20 H 0.0731 0.5577 -0.0987
H21 H 0.0794 0.5225 -0.0130
C11 C 0.07825(13) 0.3760(2) 0.0118(3)
H22 H 0.0667 0.4157 0.0391
C12 C 0.07707(13) 0.3105(2) 0.0495(2)
C13 C 0.05342(16) 0.3058(3) 0.1286(3)
H23 H 0.0559 0.2562 0.1482
C14 C 0.00517(19) 0.3220(4) 0.1159(4)
H24 H -0.0070 0.2889 0.0770
H25 H 0.0019 0.3704 0.0962
H26 H -0.0104 0.3171 0.1664
C15 C 0.0746(2) 0.3549(4) 0.1908(3)
H27 H 0.1052 0.3413 0.1983
H28 H 0.0590 0.3505 0.2414
H29 H 0.0731 0.4039 0.1723
C16 C 0.07964(13) 0.09204(19) 0.0264(3)
C17 C 0.01026(11) 0.0853(2) -0.0456(2)
H30 H 0.0266 0.0730 -0.0915
C18 C 0.03161(10) 0.1011(2) 0.0250(2)
C19 C 0.00770(13) 0.1191(3) 0.0922(2)
H31 H 0.0223 0.1300 0.1404
C20 C -0.03755(13) 0.1213(3) 0.0887(2)
H32 H -0.0539 0.1336 0.1346
C21 C -0.05889(9) 0.10547(17) 0.0181(3)
C22 C -0.03499(11) 0.08745(17) -0.0491(2)
C23 C -0.05633(16) 0.0716(3) -0.1197(2)
H33 H -0.0400 0.0593 -0.1656
C24 C -0.10158(16) 0.0738(3) -0.1231(3)
H34 H -0.1162 0.0629 -0.1714
C25 C -0.12549(11) 0.0918(3) -0.0560(4)
H35 H -0.1564 0.0933 -0.0584
C26 C -0.10414(9) 0.1076(2) 0.0146(4)
H36 H -0.1205 0.1200 0.0605
C27 C 0.27257(13) 0.27161(17) 0.00023(19)
C28 C 0.25878(14) 0.33998(18) 0.0247(2)
C29 C 0.23593(12) 0.35635(17) 0.1031(2)
H37 H 0.2289 0.3105 0.1296
C30 C 0.19344(15) 0.39705(19) 0.0923(3)
H38 H 0.1737 0.3699 0.0582
H39 H 0.1996 0.4429 0.0676
H40 H 0.1797 0.4045 0.1442
C31 C 0.26681(14) 0.3978(2) 0.1578(2)
H41 H 0.2938 0.3710 0.1652
H42 H 0.2528 0.4053 0.2094
H43 H 0.2735 0.4436 0.1336
C32 C 0.2678(2) 0.3977(2) -0.0223(3)
H44 H 0.2572 0.4427 -0.0064
C33 C 0.2916(3) 0.3927(3) -0.0918(3)
C34 C 0.3018(5) 0.4596(4) -0.1405(6)
H45 H 0.2836 0.4982 -0.1172
C35 C 0.2888(5) 0.4530(5) -0.2182(6)
H46 H 0.2906 0.4991 -0.2446
H47 H 0.2587 0.4358 -0.2201
H48 H 0.3080 0.4193 -0.2455
C36 C 0.3444(7) 0.4834(5) -0.1382(6)
H49 H 0.3475 0.5245 -0.1731
H50 H 0.3639 0.4457 -0.1562
H51 H 0.3519 0.4967 -0.0836
C37 C 0.3071(2) 0.3267(2) -0.1134(3)
H52 H 0.3240 0.3225 -0.1605
C38 C 0.29884(16) 0.26605(19) -0.0688(2)
C39 C 0.32037(14) 0.19862(19) -0.0977(2)
H53 H 0.3135 0.1603 -0.0588
C40 C 0.36970(16) 0.2067(2) -0.1015(3)
H54 H 0.3807 0.2204 -0.0491
H55 H 0.3772 0.2432 -0.1404
H56 H 0.3829 0.1617 -0.1174
C41 C 0.30209(17) 0.1766(3) -0.1787(3)
H57 H 0.2704 0.1709 -0.1748
H58 H 0.3153 0.1317 -0.1950
H59 H 0.3089 0.2131 -0.2181
C42 C 0.27865(12) 0.19475(19) 0.1528(2)
H60 H 0.2788 0.2440 0.1727
H61 H 0.2609 0.1660 0.1898
C43 C 0.33178(15) 0.0954(2) 0.1730(3)
H62 H 0.3078 0.0658 0.1860
C44 C 0.37270(15) 0.0689(2) 0.1748(3)
H63 H 0.3772 0.0209 0.1893
C45 C 0.40783(14) 0.1108(2) 0.1560(3)
C46 C 0.45242(17) 0.0845(3) 0.1586(4)
H64 H 0.4578 0.0369 0.1734
C47 C 0.48575(18) 0.1266(4) 0.1405(4)
H65 H 0.5147 0.1092 0.1445
C48 C 0.47866(19) 0.1962(4) 0.1158(4)
H66 H 0.5028 0.2249 0.1016
C49 C 0.43687(18) 0.2237(3) 0.1117(4)
H67 H 0.4322 0.2711 0.0952
C50 C 0.40210(15) 0.1811(2) 0.1319(2)
C51 C 0.35813(14) 0.2082(2) 0.1313(2)
H68 H 0.3530 0.2559 0.1163
C52 C 0.32437(12) 0.16700(19) 0.1517(2)
C53 C 0.19523(12) 0.20891(19) 0.0707(3)
H69 H 0.1906 0.2168 0.1282
H70 H 0.1870 0.2530 0.0429
C54 C 0.16456(12) 0.14982(17) 0.0433(2)
H71 H 0.1728 0.1051 0.0698
H72 H 0.1678 0.1430 -0.0147
C55? C 0.01972(11) 0.0653(3) -0.0868(4)
C56? C 0.02987(14) 0.0969(3) -0.0146(4)
C57? C -0.00305(19) 0.1255(3) 0.0321(4)
C58? C -0.04612(17) 0.1224(3) 0.0067(4)
C59? C -0.05627(11) 0.0908(2) -0.0655(3)
C60? C -0.02335(11) 0.0622(2) -0.1122(3)
C61? C -0.03350(15) 0.0305(3) -0.1844(3)
C62? C -0.07656(18) 0.0275(3) -0.2098(4)
C63? C -0.10948(13) 0.0560(3) -0.1630(4)
C64? C -0.09933(11) 0.0877(3) -0.0909(4)
H73? H 0.0422 0.0457 -0.1187
H74? H 0.0039 0.1472 0.0814
H75? H -0.0686 0.1420 0.0386
H76? H -0.0110 0.0110 -0.2163
H77? H -0.0835 0.0058 -0.2591
H78? H -0.1389 0.0539 -0.1804
H79? H -0.1218 0.1072 -0.0589
loop_
_geom_bond_atom_site_label_1
_geom_bond_atom_site_label_2
_geom_bond_site_symmetry_1
_geom_bond_site_symmetry_2
P1 B1 1_555 1_555
P2 B2 1_555 1_555
B1 H1 1_555 1_555
H2 B1 1_555 1_555
H3 B1 1_555 1_555
B2 H4 1_555 1_555
H5 B2 1_555 1_555
H6 B2 1_555 1_555
C1 P1 1_555 1_555
C2 C1 1_555 1_555
C3 C2 1_555 1_555
H7 C3 1_555 1_555
C4 C3 1_555 1_555
H8 C4 1_555 1_555
H9 C4 1_555 1_555
H10 C4 1_555 1_555
C5 C3 1_555 1_555
H11 C5 1_555 1_555
H12 C5 1_555 1_555
H13 C5 1_555 1_555
C6 C2 1_555 1_555
H14 C6 1_555 1_555
C7 C6 1_555 1_555
C8 C7 1_555 1_555
H15 C8 1_555 1_555
C9 C8 1_555 1_555
H16 C9 1_555 1_555
H17 C9 1_555 1_555
H18 C9 1_555 1_555
C10 C8 1_555 1_555
H19 C10 1_555 1_555
H20 C10 1_555 1_555
H21 C10 1_555 1_555
C11 C7 1_555 1_555
H22 C11 1_555 1_555
C12 C1 1_555 1_555
C13 C12 1_555 1_555
H23 C13 1_555 1_555
C14 C13 1_555 1_555
H24 C14 1_555 1_555
H25 C14 1_555 1_555
H26 C14 1_555 1_555
C15 C13 1_555 1_555
H27 C15 1_555 1_555
H28 C15 1_555 1_555
H29 C15 1_555 1_555
C16 P1 1_555 1_555
C17 H30 1_555 1_555
C18 C16 1_555 1_555
C19 C18 1_555 1_555
H31 C19 1_555 1_555
C20 C19 1_555 1_555
H32 C20 1_555 1_555
C21 C20 1_555 1_555
C22 C17 1_555 1_555
C23 C22 1_555 1_555
H33 C23 1_555 1_555
C24 C23 1_555 1_555
H34 C24 1_555 1_555
C25 C24 1_555 1_555
H35 C25 1_555 1_555
C26 C21 1_555 1_555
H36 C26 1_555 1_555
C27 P2 1_555 1_555
C28 C27 1_555 1_555
C29 C28 1_555 1_555
H37 C29 1_555 1_555
C30 C29 1_555 1_555
H38 C30 1_555 1_555
H39 C30 1_555 1_555
H40 C30 1_555 1_555
C31 C29 1_555 1_555
H41 C31 1_555 1_555
H42 C31 1_555 1_555
H43 C31 1_555 1_555
C32 C28 1_555 1_555
H44 C32 1_555 1_555
C33 C32 1_555 1_555
C34 C33 1_555 1_555
H45 C34 1_555 1_555
C35 C34 1_555 1_555
H46 C35 1_555 1_555
H47 C35 1_555 1_555
H48 C35 1_555 1_555
C36 C34 1_555 1_555
H49 C36 1_555 1_555
H50 C36 1_555 1_555
H51 C36 1_555 1_555
C37 C33 1_555 1_555
H52 C37 1_555 1_555
C38 C27 1_555 1_555
C39 C38 1_555 1_555
H53 C39 1_555 1_555
C40 C39 1_555 1_555
H54 C40 1_555 1_555
H55 C40 1_555 1_555
H56 C40 1_555 1_555
C41 C39 1_555 1_555
H57 C41 1_555 1_555
H58 C41 1_555 1_555
H59 C41 1_555 1_555
C42 P2 1_555 1_555
H60 C42 1_555 1_555
H61 C42 1_555 1_555
C43 H62 1_555 1_555
C44 C43 1_555 1_555
H63 C44 1_555 1_555
C45 C44 1_555 1_555
C46 C45 1_555 1_555
H64 C46 1_555 1_555
C47 C46 1_555 1_555
H65 C47 1_555 1_555
C48 C47 1_555 1_555
H66 C48 1_555 1_555
C49 C48 1_555 1_555
H67 C49 1_555 1_555
C50 C45 1_555 1_555
C51 C50 1_555 1_555
H68 C51 1_555 1_555
C52 C42 1_555 1_555
C53 P2 1_555 1_555
H69 C53 1_555 1_555
H70 C53 1_555 1_555
C54 P1 1_555 1_555
H71 C54 1_555 1_555
H72 C54 1_555 1_555
C11 C12 1_555 1_555
C17 C18 1_555 1_555
C21 C22 1_555 1_555
C25 C26 1_555 1_555
C37 C38 1_555 1_555
C43 C52 1_555 1_555
C49 C50 1_555 1_555
C51 C52 1_555 1_555
C53 C54 1_555 1_555

#END
