
#######################################################################
#
#                 Cambridge Crystallographic Data Centre
#                                CCDC 
#
#######################################################################
#
# If this CIF has been generated from an entry in the Cambridge 
# Structural Database, then it will include bibliographic, chemical, 
# crystal, experimental, refinement or atomic coordinate data resulting 
# from the CCDC's data processing and validation procedures.
#
#######################################################################

data_OCOQOP
_chemical_formula_moiety         'C24 H21 Br1 F3 N3 O4'
_chemical_name_systematic        
"ethyl 5-bromo-1,1''-dimethyl-2,2''-dioxo-5'-(trifluoromethyl)-1,1'',2,2''-tetrahydrodispiro[indole-3,2'-pyrrolidine-3',3''-indole]-4'-carboxylate"
_symmetry_cell_setting           monoclinic
_symmetry_space_group_name_H-M   'C 2'
_symmetry_Int_Tables_number      5
_space_group_name_Hall           'C 2y'
loop_
_symmetry_equiv_pos_site_id
_symmetry_equiv_pos_as_xyz
1 x,y,z
2 -x,y,-z
3 1/2+x,1/2+y,z
4 1/2-x,1/2+y,-z
_cell_length_a                   20.7435(3)
_cell_length_b                   8.96370(14)
_cell_length_c                   14.2512(2)
_cell_angle_alpha                90
_cell_angle_beta                 100.7537(15)
_cell_angle_gamma                90
_cell_volume                     2603.31
_exptl_crystal_colour            colorless
_exptl_crystal_description       block
_cell_formula_units_Z            4
loop_
_atom_site_label
_atom_site_type_symbol
_atom_site_fract_x
_atom_site_fract_y
_atom_site_fract_z
Br1 Br 0.32614(4) 0.22726(15) 0.24559(7)
C1 C 0.3663(6) -0.2167(16) 0.2117(6)
H1 H 0.3432 -0.3061 0.2078
C2 C 0.4667(4) -0.0839(10) 0.2096(6)
C3 C 0.4359(4) 0.0526(12) 0.2222(5)
H2 H 0.4584 0.1428 0.2251
C4 C 0.4299(4) -0.2137(12) 0.2045(6)
C5 C 0.3689(4) 0.0455(13) 0.2302(6)
O1 O 0.5981(4) -0.3131(7) 0.3746(4)
C6 C 0.5927(4) -0.1790(13) 0.3741(7)
C7 C 0.5814(4) 0.2245(11) 0.2933(7)
H3 H 0.5846 0.2420 0.2301
C8 C 0.5823(4) 0.0769(10) 0.3314(6)
C9 C 0.5902(3) -0.0729(10) 0.2886(5)
C10 C 0.5343(5) -0.2885(10) 0.1824(6)
C11 C 0.5366(4) -0.1163(10) 0.1983(6)
N1 N 0.5829(3) -0.0971(10) 0.4504(5)
C12 C 0.5801(4) 0.0564(13) 0.4295(6)
N2 N 0.5592(4) -0.0453(10) 0.1205(5)
H4 H 0.5348 -0.0241 0.0665
N3 N 0.4731(5) -0.3350(11) 0.1893(6)
O2 O 0.7218(3) -0.0556(9) 0.3915(5)
C13 C 0.7118(4) -0.0023(11) 0.3036(7)
C14 C 0.6534(4) -0.0796(12) 0.2435(6)
H5 H 0.6647 -0.1846 0.2360
C15 C 0.6301(4) -0.0135(10) 0.1453(6)
H6 H 0.6351 0.0950 0.1512
C16 C 0.5720(4) 0.3168(13) 0.4480(10)
H7 H 0.5660 0.3985 0.4858
C17 C 0.5772(5) 0.1784(13) 0.4888(7)
H8 H 0.5787 0.1661 0.5540
O3 O 0.5762(4) -0.3648(9) 0.1623(5)
C18 C 0.3377(5) -0.0899(15) 0.2246(7)
H9 H 0.2937 -0.0918 0.2301
O4 O 0.7424(4) 0.0973(12) 0.2768(6)
F1 F 0.7290(3) -0.0367(14) 0.0882(5)
C19 C 0.6670(6) -0.0645(16) 0.0664(8)
F2 F 0.6422(3) -0.0020(9) -0.0151(4)
F3 F 0.6614(5) -0.2156(9) 0.0535(6)
C20 C 0.5753(4) 0.3405(12) 0.3560(9)
H10 H 0.5734 0.4380 0.3333
C21 C 0.5817(5) -0.1635(14) 0.5430(6)
H11 H 0.5839 -0.2702 0.5382
H12 H 0.5418 -0.1360 0.5635
H13 H 0.6186 -0.1283 0.5886
C22 C 0.7595(6) -0.003(2) 0.5564(9)
H14 H 0.7925 0.0463 0.6021
H15 H 0.7603 -0.1079 0.5697
H16 H 0.7171 0.0368 0.5606
C23 C 0.7721(5) 0.0211(16) 0.4630(9)
H17 H 0.8153 -0.0170 0.4590
H18 H 0.7715 0.1272 0.4495
C24 C 0.4490(8) -0.4890(14) 0.1738(11)
H19 H 0.4846 -0.5531 0.1655
H20 H 0.4153 -0.4929 0.1177
H21 H 0.4315 -0.5215 0.2282
loop_
_geom_bond_atom_site_label_1
_geom_bond_atom_site_label_2
_geom_bond_site_symmetry_1
_geom_bond_site_symmetry_2
Br1 C5 1_555 1_555
C1 H1 1_555 1_555
C2 C3 1_555 1_555
C3 H2 1_555 1_555
C4 C1 1_555 1_555
C5 C3 1_555 1_555
O1 C6 1_555 1_555
C6 C9 1_555 1_555
C7 H3 1_555 1_555
C8 C7 1_555 1_555
C9 C8 1_555 1_555
C10 C11 1_555 1_555
C11 C2 1_555 1_555
N1 C6 1_555 1_555
C12 C8 1_555 1_555
N2 C11 1_555 1_555
H4 N2 1_555 1_555
N3 C4 1_555 1_555
O2 C13 1_555 1_555
C13 C14 1_555 1_555
C14 C9 1_555 1_555
H5 C14 1_555 1_555
C15 N2 1_555 1_555
H6 C15 1_555 1_555
C16 H7 1_555 1_555
C17 C12 1_555 1_555
H8 C17 1_555 1_555
O3 C10 1_555 1_555
C18 C1 1_555 1_555
H9 C18 1_555 1_555
O4 C13 1_555 1_555
F1 C19 1_555 1_555
C19 C15 1_555 1_555
F2 C19 1_555 1_555
F3 C19 1_555 1_555
C20 C7 1_555 1_555
H10 C20 1_555 1_555
C21 N1 1_555 1_555
H11 C21 1_555 1_555
H12 C21 1_555 1_555
H13 C21 1_555 1_555
C22 H14 1_555 1_555
H15 C22 1_555 1_555
H16 C22 1_555 1_555
C23 O2 1_555 1_555
H17 C23 1_555 1_555
H18 C23 1_555 1_555
C24 N3 1_555 1_555
H19 C24 1_555 1_555
H20 C24 1_555 1_555
H21 C24 1_555 1_555
C2 C4 1_555 1_555
C5 C18 1_555 1_555
C9 C11 1_555 1_555
C10 N3 1_555 1_555
N1 C12 1_555 1_555
C14 C15 1_555 1_555
C16 C17 1_555 1_555
C16 C20 1_555 1_555
C22 C23 1_555 1_555

#END
