
#######################################################################
#
#                 Cambridge Crystallographic Data Centre
#                                CCDC 
#
#######################################################################
#
# If this CIF has been generated from an entry in the Cambridge 
# Structural Database, then it will include bibliographic, chemical, 
# crystal, experimental, refinement or atomic coordinate data resulting 
# from the CCDC's data processing and validation procedures.
#
#######################################################################

data_OCUKUT
_chemical_formula_moiety         'C24 H24 N2 O3'
_chemical_name_systematic        
1-(10,10-Dimethyl-2-oxo-3-phenyl-3,4-diazatricyclo[5.2.1.0^1,5^]decan-4-yl)-2-phenylethane-1,2-dione
_symmetry_cell_setting           orthorhombic
_symmetry_space_group_name_H-M   'P 21 21 21'
_symmetry_Int_Tables_number      19
_space_group_name_Hall           'P 2ac 2ab'
loop_
_symmetry_equiv_pos_site_id
_symmetry_equiv_pos_as_xyz
1 x,y,z
2 1/2-x,-y,1/2+z
3 1/2+x,1/2-y,-z
4 -x,1/2+y,1/2-z
_cell_length_a                   10.1470(3)
_cell_length_b                   10.9050(3)
_cell_length_c                   18.8300(7)
_cell_angle_alpha                90
_cell_angle_beta                 90
_cell_angle_gamma                90
_cell_volume                     2083.6
_exptl_crystal_colour            yellow
_exptl_crystal_description       prism
_cell_formula_units_Z            4
_exptl_crystal_recrystallization_method 'hexanes/ethyl acetate'
loop_
_atom_site_label
_atom_site_type_symbol
_atom_site_fract_x
_atom_site_fract_y
_atom_site_fract_z
O1 O 0.14480(19) -0.1364(2) -0.53327(13)
O2 O -0.2468(2) -0.1144(3) -0.68292(12)
O3 O -0.4650(2) -0.1494(2) -0.55033(14)
N1 N -0.0591(2) -0.1574(3) -0.58463(13)
N2 N -0.1911(2) -0.1272(2) -0.56640(13)
C1 C 0.0273(3) -0.1178(3) -0.53184(16)
C2 C -0.0517(3) -0.0486(3) -0.47878(16)
C3 C -0.1951(3) -0.0878(3) -0.49168(15)
H1 H -0.2166 -0.1549 -0.4608
C4 C -0.2757(3) 0.0248(4) -0.46900(18)
H2 H -0.3132 0.0600 -0.5111
H3 H -0.3450 0.0017 -0.4370
C5 C -0.1713(4) 0.1046(3) -0.43397(19)
H4 H -0.1933 0.1897 -0.4286
C6 C -0.1181(4) 0.0377(4) -0.3680(2)
H5 H -0.1893 -0.0011 -0.3431
H6 H -0.0714 0.0910 -0.3363
C7 C -0.0292(4) -0.0644(4) -0.39889(18)
H7 H -0.0511 -0.1468 -0.3856
H8 H 0.0622 -0.0494 -0.3893
C8 C -0.0553(4) 0.0946(3) -0.48684(19)
C9 C 0.0728(4) 0.1560(4) -0.4627(3)
H9 H 0.0655 0.2429 -0.4701
H10 H 0.1461 0.1249 -0.4895
H11 H 0.0866 0.1398 -0.4132
C10 C -0.0844(4) 0.1415(4) -0.5620(2)
H12 H -0.0828 0.2295 -0.5620
H13 H -0.1707 0.1135 -0.5752
H14 H -0.0209 0.1111 -0.5955
C11 C -0.0377(3) -0.2664(3) -0.62580(17)
C12 C 0.0619(4) -0.2665(4) -0.6756(2)
H15 H 0.1115 -0.1926 -0.6828
C13 C 0.0833(5) -0.3727(6) -0.7145(2)
H16 H 0.1497 -0.3771 -0.7508
C14 C 0.0098(6) -0.4741(6) -0.7041(3)
H17 H 0.0317 -0.5448 -0.7321
C15 C -0.0879(5) -0.4716(4) -0.6557(3)
H18 H -0.1404 -0.5441 -0.6498
C16 C -0.1123(3) -0.3685(4) -0.6149(2)
H19 H -0.1797 -0.3661 -0.5791
C17 C -0.2759(3) -0.1063(3) -0.61984(17)
C18 C -0.4200(3) -0.0882(3) -0.59812(17)
C19 C -0.5020(3) -0.0033(3) -0.64037(16)
C20 C -0.4503(4) 0.0842(3) -0.68517(17)
H20 H -0.3564 0.0912 -0.6898
C21 C -0.5356(5) 0.1624(4) -0.72185(18)
H21 H -0.4978 0.2200 -0.7547
C22 C -0.6696(4) 0.1525(4) -0.7137(2)
H22 H -0.7280 0.2089 -0.7369
C23 C -0.7198(4) 0.0660(5) -0.6693(2)
H23 H -0.8138 0.0592 -0.6652
C24 C -0.6375(3) -0.0100(4) -0.6322(2)
H24 H -0.6737 -0.0710 -0.6010
loop_
_geom_bond_atom_site_label_1
_geom_bond_atom_site_label_2
_geom_bond_site_symmetry_1
_geom_bond_site_symmetry_2
O1 C1 1_555 1_555
O2 C17 1_555 1_555
O3 C18 1_555 1_555
N1 N2 1_555 1_555
N2 C3 1_555 1_555
C1 N1 1_555 1_555
C2 C1 1_555 1_555
C3 C2 1_555 1_555
H1 C3 1_555 1_555
C4 C3 1_555 1_555
H2 C4 1_555 1_555
H3 C4 1_555 1_555
C5 C4 1_555 1_555
H4 C5 1_555 1_555
C6 C5 1_555 1_555
H5 C6 1_555 1_555
H6 C6 1_555 1_555
C7 C2 1_555 1_555
H7 C7 1_555 1_555
H8 C7 1_555 1_555
C8 C2 1_555 1_555
C9 C8 1_555 1_555
H9 C9 1_555 1_555
H10 C9 1_555 1_555
H11 C9 1_555 1_555
C10 C8 1_555 1_555
H12 C10 1_555 1_555
H13 C10 1_555 1_555
H14 C10 1_555 1_555
C11 N1 1_555 1_555
C12 C11 1_555 1_555
H15 C12 1_555 1_555
C13 C12 1_555 1_555
H16 C13 1_555 1_555
C14 C13 1_555 1_555
H17 C14 1_555 1_555
C15 C14 1_555 1_555
H18 C15 1_555 1_555
C16 C11 1_555 1_555
H19 C16 1_555 1_555
C17 N2 1_555 1_555
C18 C17 1_555 1_555
C19 C18 1_555 1_555
C20 C19 1_555 1_555
H20 C20 1_555 1_555
C21 C20 1_555 1_555
H21 C21 1_555 1_555
C22 C21 1_555 1_555
H22 C22 1_555 1_555
C23 C22 1_555 1_555
H23 C23 1_555 1_555
C24 C19 1_555 1_555
H24 C24 1_555 1_555
C5 C8 1_555 1_555
C6 C7 1_555 1_555
C15 C16 1_555 1_555
C23 C24 1_555 1_555

#END
