
#######################################################################
#
#                 Cambridge Crystallographic Data Centre
#                                CCDC 
#
#######################################################################
#
# If this CIF has been generated from an entry in the Cambridge 
# Structural Database, then it will include bibliographic, chemical, 
# crystal, experimental, refinement or atomic coordinate data resulting 
# from the CCDC's data processing and validation procedures.
#
#######################################################################

data_OCULII
_chemical_formula_moiety         'C20 H24 N2 O3'
_chemical_name_systematic        
1-(10,10-Dimethyl-2-oxo-3-phenyl-3,4-diazatricyclo[5.2.1.0^1,5^]decan-4-yl)butane-1,2-dione
_symmetry_cell_setting           orthorhombic
_symmetry_space_group_name_H-M   'P 21 21 21'
_symmetry_Int_Tables_number      19
_space_group_name_Hall           'P 2ac 2ab'
loop_
_symmetry_equiv_pos_site_id
_symmetry_equiv_pos_as_xyz
1 x,y,z
2 1/2-x,-y,1/2+z
3 1/2+x,1/2-y,-z
4 -x,1/2+y,1/2-z
_cell_length_a                   9.8270(5)
_cell_length_b                   12.2890(7)
_cell_length_c                   15.6450(10)
_cell_angle_alpha                90
_cell_angle_beta                 90
_cell_angle_gamma                90
_cell_volume                     1889.35
_exptl_crystal_colour            yellow
_exptl_crystal_description       prism
_cell_formula_units_Z            4
_exptl_crystal_recrystallization_method 'hexanes/ethyl acetate'
loop_
_atom_site_label
_atom_site_type_symbol
_atom_site_fract_x
_atom_site_fract_y
_atom_site_fract_z
O1 O 0.6441(2) 0.4205(2) 0.17228(15)
O2 O 0.3799(2) 0.19907(19) -0.03565(16)
O3 O 0.6170(2) -0.0036(2) -0.03640(16)
N1 N 0.5601(3) 0.3063(2) 0.06839(18)
N2 N 0.5717(3) 0.1943(2) 0.04708(18)
C1 C 0.6275(3) 0.3293(3) 0.1448(2)
C2 C 0.6634(3) 0.2231(3) 0.1840(2)
C3 C 0.6613(3) 0.1411(3) 0.1108(2)
H1 H 0.7515 0.1334 0.0881
C4 C 0.6153(4) 0.0336(3) 0.1537(2)
H2 H 0.5252 0.0157 0.1346
H3 H 0.6770 -0.0234 0.1377
C5 C 0.6245(3) 0.0640(3) 0.2480(2)
H4 H 0.5917 0.0095 0.2869
C6 C 0.7751(4) 0.0901(3) 0.2702(3)
H5 H 0.8365 0.0389 0.2444
H6 H 0.7909 0.0925 0.3307
C7 C 0.7988(3) 0.2048(3) 0.2309(2)
H7 H 0.8715 0.2072 0.1900
H8 H 0.8122 0.2607 0.2730
C8 C 0.5581(3) 0.1779(3) 0.2505(2)
C9 C 0.5629(5) 0.2352(4) 0.3376(2)
H9 H 0.4970 0.2047 0.3760
H10 H 0.5455 0.3115 0.3304
H11 H 0.6526 0.2252 0.3607
C10 C 0.4095(3) 0.1817(4) 0.2219(2)
H12 H 0.3501 0.1531 0.2651
H13 H 0.4014 0.1388 0.1709
H14 H 0.3848 0.2557 0.2097
C11 C 0.5456(3) 0.3845(3) 0.0013(2)
C12 C 0.4622(3) 0.4732(3) 0.0161(2)
H15 H 0.4111 0.4759 0.0684
C13 C 0.4522(4) 0.5543(3) -0.0444(3)
H16 H 0.3967 0.6171 -0.0335
C14 C 0.5251(4) 0.5466(3) -0.1206(3)
H17 H 0.5169 0.6019 -0.1636
C15 C 0.6052(4) 0.4553(4) -0.1358(3)
H18 H 0.6569 0.4500 -0.1877
C16 C 0.6160(3) 0.3746(3) -0.0746(2)
H19 H 0.6704 0.3111 -0.0852
C17 C 0.4759(3) 0.1493(3) -0.0040(2)
C18 C 0.5022(3) 0.0299(3) -0.0290(2)
C19 C 0.3778(4) -0.0359(3) -0.0462(3)
H20 H 0.3256 -0.0417 0.0054
H21 H 0.3247 0.0001 -0.0892
C20 C 0.4079(5) -0.1495(3) -0.0784(3)
H22 H 0.3231 -0.1862 -0.0881
H23 H 0.4595 -0.1883 -0.0362
H24 H 0.4586 -0.1465 -0.1308
loop_
_geom_bond_atom_site_label_1
_geom_bond_atom_site_label_2
_geom_bond_site_symmetry_1
_geom_bond_site_symmetry_2
O1 C1 1_555 1_555
O2 C17 1_555 1_555
O3 C18 1_555 1_555
N1 N2 1_555 1_555
N2 C3 1_555 1_555
C1 N1 1_555 1_555
C2 C1 1_555 1_555
C3 C2 1_555 1_555
H1 C3 1_555 1_555
C4 C3 1_555 1_555
H2 C4 1_555 1_555
H3 C4 1_555 1_555
C5 C4 1_555 1_555
H4 C5 1_555 1_555
C6 C5 1_555 1_555
H5 C6 1_555 1_555
H6 C6 1_555 1_555
C7 C2 1_555 1_555
H7 C7 1_555 1_555
H8 C7 1_555 1_555
C8 C2 1_555 1_555
C9 C8 1_555 1_555
H9 C9 1_555 1_555
H10 C9 1_555 1_555
H11 C9 1_555 1_555
C10 C8 1_555 1_555
H12 C10 1_555 1_555
H13 C10 1_555 1_555
H14 C10 1_555 1_555
C11 N1 1_555 1_555
C12 C11 1_555 1_555
H15 C12 1_555 1_555
C13 C12 1_555 1_555
H16 C13 1_555 1_555
C14 C13 1_555 1_555
H17 C14 1_555 1_555
C15 C14 1_555 1_555
H18 C15 1_555 1_555
C16 C11 1_555 1_555
H19 C16 1_555 1_555
C17 N2 1_555 1_555
C18 C17 1_555 1_555
C19 C18 1_555 1_555
H20 C19 1_555 1_555
H21 C19 1_555 1_555
C20 C19 1_555 1_555
H22 C20 1_555 1_555
H23 C20 1_555 1_555
H24 C20 1_555 1_555
C5 C8 1_555 1_555
C6 C7 1_555 1_555
C15 C16 1_555 1_555

#END
