
#######################################################################
#
#                 Cambridge Crystallographic Data Centre
#                                CCDC 
#
#######################################################################
#
# If this CIF has been generated from an entry in the Cambridge 
# Structural Database, then it will include bibliographic, chemical, 
# crystal, experimental, refinement or atomic coordinate data resulting 
# from the CCDC's data processing and validation procedures.
#
#######################################################################

data_OCULUU
_chemical_formula_moiety         'C20 H26 N2 O3,0.5(H2 O1)'
_chemical_name_systematic        
'4-((2S)-2-Hydroxybutyryl)-10,10-dimethyl-3-phenyl-3,4-diazatricyclo[5.2.1.0^1,5^]decan-2-one hemihydrate'
_symmetry_cell_setting           orthorhombic
_symmetry_space_group_name_H-M   'P 21 21 21'
_symmetry_Int_Tables_number      19
_space_group_name_Hall           'P 2ac 2ab'
loop_
_symmetry_equiv_pos_site_id
_symmetry_equiv_pos_as_xyz
1 x,y,z
2 1/2-x,-y,1/2+z
3 1/2+x,1/2-y,-z
4 -x,1/2+y,1/2-z
_cell_length_a                   10.4580(5)
_cell_length_b                   10.7670(5)
_cell_length_c                   16.0710(9)
_cell_angle_alpha                90
_cell_angle_beta                 90
_cell_angle_gamma                90
_cell_volume                     1809.62
_exptl_crystal_colour            colorless
_exptl_crystal_description       prism
_cell_formula_units_Z            4
_exptl_crystal_recrystallization_method 'hexanes/ethyl acetate'
loop_
_atom_site_label
_atom_site_type_symbol
_atom_site_fract_x
_atom_site_fract_y
_atom_site_fract_z
O1 O 0.2724(3) 0.4531(3) 0.6474(2)
O2 O 0.5599(3) 0.2101(3) 0.46821(17)
O3 O 0.5569(3) 0.2594(4) 0.2921(2)
H1 H 0.5599 0.3480 0.2983
N1 N 0.3698(3) 0.3268(3) 0.5528(2)
N2 N 0.3674(3) 0.3079(3) 0.4647(2)
C1 C 0.2993(4) 0.4288(4) 0.5748(3)
C2 C 0.2720(4) 0.5018(4) 0.4983(3)
C3 C 0.1465(4) 0.5708(4) 0.4832(3)
H4 H 0.0787 0.5117 0.4762
H5 H 0.1289 0.6222 0.5307
C4 C 0.1797(4) 0.6452(4) 0.4032(3)
H6 H 0.1276 0.6161 0.3581
H7 H 0.1639 0.7319 0.4123
C5 C 0.3232(5) 0.6179(4) 0.3884(3)
H8 H 0.3588 0.6824 0.3542
C6 C 0.3346(5) 0.4839(5) 0.3533(3)
H9 H 0.4214 0.4607 0.3415
H10 H 0.2824 0.4687 0.3053
C7 C 0.2841(4) 0.4058(4) 0.4270(3)
H11 H 0.2013 0.3723 0.4145
C8 C 0.3740(4) 0.6037(4) 0.4775(3)
C9 C 0.5146(4) 0.5618(4) 0.4844(4)
H12 H 0.5688 0.6313 0.4720
H13 H 0.5299 0.4967 0.4447
H14 H 0.5329 0.5319 0.5393
C10 C 0.3623(5) 0.7200(4) 0.5326(4)
H15 H 0.4283 0.7779 0.5179
H16 H 0.3705 0.6982 0.5903
H17 H 0.2802 0.7572 0.5233
C11 C 0.3863(4) 0.2217(4) 0.6061(3)
C12 C 0.4801(6) 0.2247(7) 0.6659(3)
H18 H 0.5350 0.2958 0.6701
C13 C 0.4938(9) 0.1240(9) 0.7194(3)
H19 H 0.5581 0.1214 0.7621
C14 C 0.4159(11) 0.0225(9) 0.7095(5)
H20 H 0.4285 -0.0436 0.7488
C15 C 0.3239(7) 0.0202(6) 0.6509(5)
H21 H 0.2694 -0.0512 0.6461
C16 C 0.3078(5) 0.1195(5) 0.5978(3)
H22 H 0.2442 0.1174 0.5547
C17 C 0.4669(4) 0.2462(4) 0.4292(3)
C18 C 0.4507(4) 0.2123(5) 0.3370(3)
H23 H 0.3735 0.2493 0.3163
C19 C 0.4370(5) 0.0736(5) 0.3265(3)
H24 H 0.4247 0.0539 0.2688
H25 H 0.5138 0.0345 0.3461
C20 C 0.3278(5) 0.0157(5) 0.3751(3)
H26 H 0.3264 -0.0724 0.3658
H27 H 0.2489 0.0514 0.3561
H28 H 0.3381 0.0320 0.4334
O4 O 0.3495(15) 0.2870(14) 0.1633(9)
H2 H 0.4267 0.3122 0.1358
H3 H 0.3338 0.3122 0.2197
loop_
_geom_bond_atom_site_label_1
_geom_bond_atom_site_label_2
_geom_bond_site_symmetry_1
_geom_bond_site_symmetry_2
O1 C1 1_555 1_555
O2 C17 1_555 1_555
O3 H1 1_555 1_555
O4 H2 1_555 1_555
H3 O4 1_555 1_555
N1 N2 1_555 1_555
N2 C7 1_555 1_555
C1 N1 1_555 1_555
C2 C1 1_555 1_555
C3 C2 1_555 1_555
H4 C3 1_555 1_555
H5 C3 1_555 1_555
C4 C3 1_555 1_555
H6 C4 1_555 1_555
H7 C4 1_555 1_555
C5 C4 1_555 1_555
H8 C5 1_555 1_555
C6 C5 1_555 1_555
H9 C6 1_555 1_555
H10 C6 1_555 1_555
C7 C2 1_555 1_555
H11 C7 1_555 1_555
C8 C2 1_555 1_555
C9 C8 1_555 1_555
H12 C9 1_555 1_555
H13 C9 1_555 1_555
H14 C9 1_555 1_555
C10 C8 1_555 1_555
H15 C10 1_555 1_555
H16 C10 1_555 1_555
H17 C10 1_555 1_555
C11 N1 1_555 1_555
C12 C11 1_555 1_555
H18 C12 1_555 1_555
C13 C12 1_555 1_555
H19 C13 1_555 1_555
C14 C13 1_555 1_555
H20 C14 1_555 1_555
C15 C14 1_555 1_555
H21 C15 1_555 1_555
C16 C11 1_555 1_555
H22 C16 1_555 1_555
C17 N2 1_555 1_555
C18 O3 1_555 1_555
H23 C18 1_555 1_555
C19 C18 1_555 1_555
H24 C19 1_555 1_555
H25 C19 1_555 1_555
C20 C19 1_555 1_555
H26 C20 1_555 1_555
H27 C20 1_555 1_555
H28 C20 1_555 1_555
C5 C8 1_555 1_555
C6 C7 1_555 1_555
C15 C16 1_555 1_555
C17 C18 1_555 1_555

#END
