
#######################################################################
#
#                 Cambridge Crystallographic Data Centre
#                                CCDC 
#
#######################################################################
#
# If this CIF has been generated from an entry in the Cambridge 
# Structural Database, then it will include bibliographic, chemical, 
# crystal, experimental, refinement or atomic coordinate data resulting 
# from the CCDC's data processing and validation procedures.
#
#######################################################################

data_OCUMIJ
_chemical_formula_moiety         'C22 H24 N2 O3 S1'
_chemical_name_systematic        
4-((2R)-2-Hydroxy-2-(thien-2-yl)acetyl)-10,10-dimethyl-3-phenyl-3,4-diazatricyclo[5.2.1.0^1,5^]decan-2-one
_symmetry_cell_setting           orthorhombic
_symmetry_space_group_name_H-M   'P 21 21 21'
_symmetry_Int_Tables_number      19
_space_group_name_Hall           'P 2ac 2ab'
loop_
_symmetry_equiv_pos_site_id
_symmetry_equiv_pos_as_xyz
1 x,y,z
2 1/2-x,-y,1/2+z
3 1/2+x,1/2-y,-z
4 -x,1/2+y,1/2-z
_cell_length_a                   10.5030(3)
_cell_length_b                   11.5270(4)
_cell_length_c                   16.7140(6)
_cell_angle_alpha                90
_cell_angle_beta                 90
_cell_angle_gamma                90
_cell_volume                     2023.53
_exptl_crystal_colour            colorless
_exptl_crystal_description       prism
_cell_formula_units_Z            4
_exptl_crystal_recrystallization_method 'hexanes/ethyl acetate'
loop_
_atom_site_label
_atom_site_type_symbol
_atom_site_fract_x
_atom_site_fract_y
_atom_site_fract_z
C1 C 0.9012(6) 0.0856(5) 0.4281(4)
C2 C 0.8793(5) 0.0096(5) 0.4991(4)
C3 C 0.8896(6) 0.0888(5) 0.5706(4)
H1 H 0.8067 0.1179 0.5842
C4 C 0.9390(7) 0.0081(6) 0.6378(4)
H2 H 0.8883 0.0107 0.6855
H3 H 1.0266 0.0218 0.6511
C5 C 0.9272(6) -0.1104(6) 0.5968(5)
H4 H 0.9677 -0.1676 0.6298
C6 C 0.7873(7) -0.1380(7) 0.5793(5)
H5 H 0.7757 -0.2188 0.5675
H6 H 0.7376 -0.1176 0.6254
C7 C 0.7547(6) -0.0560(6) 0.5093(4)
H7 H 0.6862 -0.0026 0.5189
H8 H 0.7379 -0.0990 0.4613
C8 C 0.9809(7) -0.0878(5) 0.5142(4)
C9 C 1.1228(6) -0.0464(7) 0.5090(6)
H9 H 1.1793 -0.1103 0.5190
H10 H 1.1356 0.0122 0.5491
H11 H 1.1402 -0.0144 0.4571
C10 C 0.9726(9) -0.1910(6) 0.4536(7)
H12 H 1.0382 -0.2461 0.4662
H13 H 0.9825 -0.1655 0.3993
H14 H 0.8908 -0.2269 0.4600
C11 C 0.9820(6) 0.2854(5) 0.4110(4)
C12 C 0.9216(6) 0.3879(6) 0.4372(4)
H15 H 0.8700 0.3857 0.4846
C13 C 0.9400(8) 0.4886(7) 0.3930(6)
H16 H 0.9043 0.5610 0.4103
C14 C 1.0054(9) 0.4899(9) 0.3273(7)
H17 H 1.0197 0.5608 0.2985
C15 C 1.0586(8) 0.3857(9) 0.2956(5)
H18 H 1.1009 0.3833 0.2447
C16 C 1.0485(7) 0.2857(7) 0.3409(4)
H19 H 1.0877 0.2147 0.3238
C17 C 1.0720(5) 0.2419(5) 0.5757(4)
C18 C 1.0535(7) 0.2660(5) 0.6668(4)
H20 H 1.0108 0.2007 0.6902
C19 C 0.9691(6) 0.3699(6) 0.6764(4)
N1 N 0.9686(5) 0.1817(4) 0.4549(3)
N2 N 0.9743(5) 0.1858(4) 0.5399(3)
O1 O 0.8725(4) 0.0707(4) 0.3587(3)
O2 O 1.1593(4) 0.2843(4) 0.5404(3)
O3 O 1.1712(5) 0.2788(5) 0.7033(3)
H21 H 1.2273 0.3437 0.6945
S1 S 0.9990(4) 0.5020(3) 0.64130(19)
C20 C 0.8361(4) 0.3717(4) 0.7230(3)
H22 H 0.7939 0.3119 0.7493
C21 C 0.8757(10) 0.5643(10) 0.6760(6)
H23 H 0.8608 0.6434 0.6704
C22 C 0.7983(10) 0.4956(11) 0.7126(7)
H24 H 0.7208 0.5226 0.7321
loop_
_geom_bond_atom_site_label_1
_geom_bond_atom_site_label_2
_geom_bond_site_symmetry_1
_geom_bond_site_symmetry_2
C1 C2 1_555 1_555
C2 C3 1_555 1_555
C3 H1 1_555 1_555
C4 C3 1_555 1_555
H2 C4 1_555 1_555
H3 C4 1_555 1_555
C5 C4 1_555 1_555
H4 C5 1_555 1_555
C6 C5 1_555 1_555
H5 C6 1_555 1_555
H6 C6 1_555 1_555
C7 C2 1_555 1_555
H7 C7 1_555 1_555
H8 C7 1_555 1_555
C8 C2 1_555 1_555
C9 C8 1_555 1_555
H9 C9 1_555 1_555
H10 C9 1_555 1_555
H11 C9 1_555 1_555
C10 C8 1_555 1_555
H12 C10 1_555 1_555
H13 C10 1_555 1_555
H14 C10 1_555 1_555
C11 C12 1_555 1_555
C12 H15 1_555 1_555
C13 C12 1_555 1_555
H16 C13 1_555 1_555
C14 C13 1_555 1_555
H17 C14 1_555 1_555
C15 C14 1_555 1_555
H18 C15 1_555 1_555
C16 C11 1_555 1_555
H19 C16 1_555 1_555
C17 C18 1_555 1_555
C18 H20 1_555 1_555
C19 C18 1_555 1_555
N1 C1 1_555 1_555
N2 C3 1_555 1_555
O1 C1 1_555 1_555
O2 C17 1_555 1_555
O3 C18 1_555 1_555
H21 O3 1_555 1_555
S1 C19 1_555 1_555
C20 C19 1_555 1_555
H22 C20 1_555 1_555
C21 S1 1_555 1_555
H23 C21 1_555 1_555
C22 C20 1_555 1_555
H24 C22 1_555 1_555
C5 C8 1_555 1_555
C6 C7 1_555 1_555
C11 N1 1_555 1_555
C15 C16 1_555 1_555
C17 N2 1_555 1_555
N1 N2 1_555 1_555
C21 C22 1_555 1_555

#END
