
#######################################################################
#
#                 Cambridge Crystallographic Data Centre
#                                CCDC 
#
#######################################################################
#
# If this CIF has been generated from an entry in the Cambridge 
# Structural Database, then it will include bibliographic, chemical, 
# crystal, experimental, refinement or atomic coordinate data resulting 
# from the CCDC's data processing and validation procedures.
#
#######################################################################

data_OCUMOP
_chemical_compound_source        'leaves and stems of Schisandra lancifolia'
_chemical_formula_moiety         'C29 H36 O10,H2 O1'
_chemical_name_systematic        'Lancifodilactone I monohydrate'
_chemical_properties_biological  'anti-HIV-1 activity'
_symmetry_cell_setting           monoclinic
_symmetry_space_group_name_H-M   'P 21'
_symmetry_Int_Tables_number      4
_space_group_name_Hall           'P 2yb'
loop_
_symmetry_equiv_pos_site_id
_symmetry_equiv_pos_as_xyz
1 x,y,z
2 -x,1/2+y,-z
_cell_length_a                   12.3190(10)
_cell_length_b                   18.3550(10)
_cell_length_c                   14.2180(10)
_cell_angle_alpha                90
_cell_angle_beta                 73.370(4)
_cell_angle_gamma                90
_cell_volume                     3080.44
_exptl_crystal_colour            colorless
_exptl_crystal_description       column
_chemical_melting_point          198-199deg.C
_cell_formula_units_Z            4
loop_
_atom_site_label
_atom_site_type_symbol
_atom_site_fract_x
_atom_site_fract_y
_atom_site_fract_z
O1 O 0.0457(4) 0.8156(5) 0.3337(4)
O2 O -0.1139(4) 0.9217(5) 0.2649(4)
O3 O 0.2797(4) 0.8124(4) 0.3099(3)
O4 O 0.2679(4) 0.7744(5) 0.4635(3)
H1 H 0.3049 0.7583 0.4984
O5 O 0.4011(6) 0.5631(5) 0.3628(5)
O6 O -0.0321(7) 0.7078(5) 0.3236(7)
O7 O 0.4029(5) 0.9058(5) 0.4680(5)
O8 O 0.5649(6) 0.7648(5) 0.0742(5)
O9 O 0.3338(8) 0.4558(5) 0.3297(6)
O10 O 0.1934(8) 1.0019(6) 0.5071(6)
H2 H 0.2536 0.9902 0.5167
C1 C -0.0127(6) 0.8836(6) 0.2147(6)
H3 H 0.0244 0.9049 0.1502
C2 C -0.0385(7) 0.8018(6) 0.2078(8)
H4 H -0.1179 0.7943 0.2126
H5 H 0.0074 0.7813 0.1465
C3 C -0.0097(7) 0.7687(7) 0.2920(8)
C4 C -0.0793(7) 0.9809(6) 0.3149(6)
C5 C 0.0086(6) 0.9459(5) 0.3595(5)
H6 H -0.0342 0.9207 0.4194
C6 C 0.0918(7) 0.9962(6) 0.3885(6)
H7 H 0.0496 1.0326 0.4339
H8 H 0.1369 1.0214 0.3305
C7 C 0.1711(7) 0.9558(6) 0.4363(5)
H9 H 0.1335 0.9116 0.4683
C8 C 0.2844(7) 0.9351(5) 0.3612(6)
H10 H 0.3271 0.9797 0.3374
C9 C 0.2831(5) 0.8875(5) 0.2727(5)
C10 C 0.0638(6) 0.8856(5) 0.2835(5)
C11 C 0.3947(6) 0.8972(6) 0.1910(5)
H11 H 0.3926 0.8655 0.1370
H12 H 0.3977 0.9469 0.1673
C12 C 0.5050(6) 0.8820(6) 0.2172(6)
H13 H 0.5673 0.8975 0.1621
H14 H 0.5056 0.9129 0.2723
C13 C 0.5300(6) 0.8044(6) 0.2431(6)
C14 C 0.4544(5) 0.7691(6) 0.3399(5)
H15 H 0.4955 0.7720 0.3895
C15 C 0.3414(5) 0.8081(5) 0.3799(5)
C16 C 0.3524(6) 0.8883(6) 0.4098(5)
C17 C 0.5196(6) 0.7539(6) 0.1607(6)
C18 C 0.6560(6) 0.8034(8) 0.2467(9)
H16 H 0.7038 0.8251 0.1879
H17 H 0.6794 0.7540 0.2516
H18 H 0.6621 0.8305 0.3027
C19 C 0.1881(5) 0.8946(5) 0.2249(5)
H19 H 0.2032 0.8594 0.1719
H20 H 0.1954 0.9425 0.1948
C20 C 0.4511(7) 0.6876(6) 0.2024(5)
H21 H 0.3733 0.6971 0.2009
C21 C 0.4903(11) 0.6198(7) 0.1417(8)
H22 H 0.4862 0.6277 0.0761
H23 H 0.4424 0.5796 0.1704
H24 H 0.5671 0.6091 0.1402
C22 C 0.4494(6) 0.6877(6) 0.3111(5)
H25 H 0.5225 0.6671 0.3117
C23 C 0.3601(7) 0.6382(6) 0.3792(6)
H26 H 0.3519 0.6517 0.4476
C24 C 0.2448(7) 0.6348(6) 0.3632(5)
H27 H 0.1971 0.6745 0.3659
C25 C 0.2213(7) 0.5666(6) 0.3446(5)
C26 C 0.3186(9) 0.5211(6) 0.3439(7)
C27 C 0.1155(9) 0.5353(7) 0.3292(8)
H28 H 0.0617 0.5736 0.3316
H29 H 0.0836 0.5004 0.3798
H30 H 0.1332 0.5118 0.2663
C28 C -0.1849(8) 1.0092(8) 0.3893(8)
H31 H -0.2340 1.0311 0.3556
H32 H -0.1641 1.0449 0.4304
H33 H -0.2236 0.9695 0.4289
C29 C -0.0294(9) 1.0420(7) 0.2408(8)
H34 H -0.0881 1.0621 0.2164
H35 H 0.0295 1.0224 0.1871
H36 H 0.0013 1.0795 0.2727
O11 O 0.3131(4) 0.1425(4) 0.2080(3)
O12 O 0.0819(4) 0.2226(5) 0.2512(4)
O13 O 0.5345(4) 0.1889(4) 0.1953(3)
O14 O 0.5944(5) 0.0910(4) 0.2713(4)
H37 H 0.6092 0.0658 0.2216
O15 O 0.8241(6) 0.0050(5) 0.0230(5)
O16 O 0.2975(6) 0.0589(5) 0.0997(5)
O17 O 0.6437(5) 0.2101(5) 0.3951(4)
O18 O 0.7733(7) 0.3002(5) -0.0182(5)
O19 O 0.8289(8) -0.0737(6) -0.0995(6)
O20 O 0.3943(6) 0.2166(6) 0.5075(4)
H38 H 0.4624 0.2151 0.5018
C30 C 0.1893(6) 0.2348(6) 0.1809(5)
H39 H 0.1963 0.2847 0.1552
C31 C 0.2105(6) 0.1792(6) 0.1000(6)
H40 H 0.1397 0.1605 0.0927
H41 H 0.2543 0.1999 0.0381
C32 C 0.2754(7) 0.1205(6) 0.1324(6)
C33 C 0.0910(7) 0.2475(6) 0.3455(6)
C34 C 0.2077(6) 0.2180(6) 0.3449(5)
H42 H 0.1968 0.1667 0.3643
C35 C 0.2651(7) 0.2543(6) 0.4155(6)
H43 H 0.2786 0.3053 0.3980
H44 H 0.2147 0.2520 0.4817
C36 C 0.3770(7) 0.2181(6) 0.4129(5)
H45 H 0.3748 0.1677 0.3908
C37 C 0.4795(6) 0.2551(6) 0.3447(5)
H46 H 0.4869 0.3042 0.3692
C38 C 0.4867(6) 0.2592(5) 0.2343(5)
C39 C 0.2767(6) 0.2188(5) 0.2366(5)
C40 C 0.5694(6) 0.3199(6) 0.1834(6)
H47 H 0.5750 0.3191 0.1139
H48 H 0.5367 0.3664 0.2091
C41 C 0.6895(7) 0.3161(5) 0.1941(6)
H49 H 0.6835 0.3132 0.2635
H50 H 0.7276 0.3615 0.1699
C42 C 0.7651(6) 0.2534(6) 0.1422(6)
C43 C 0.7354(6) 0.1750(5) 0.1834(5)
H51 H 0.7843 0.1639 0.2252
C44 C 0.6148(6) 0.1649(5) 0.2448(5)
C45 C 0.5866(6) 0.2121(5) 0.3389(5)
C46 C 0.7617(7) 0.2476(6) 0.0355(6)
C47 C 0.8885(7) 0.2698(7) 0.1386(9)
H52 H 0.9079 0.3182 0.1138
H53 H 0.9378 0.2354 0.0963
H54 H 0.8970 0.2662 0.2035
C48 C 0.3783(6) 0.2695(5) 0.2036(5)
H55 H 0.3509 0.3182 0.2240
H56 H 0.4008 0.2694 0.1324
C49 C 0.7471(7) 0.1712(6) 0.0075(5)
H57 H 0.6665 0.1640 0.0138
C50 C 0.8134(9) 0.1517(7) -0.0981(6)
H58 H 0.7907 0.1834 -0.1428
H59 H 0.7980 0.1021 -0.1113
H60 H 0.8930 0.1575 -0.1064
C51 C 0.7760(6) 0.1250(6) 0.0877(5)
H61 H 0.8589 0.1240 0.0706
C52 C 0.7391(7) 0.0457(6) 0.0928(6)
H62 H 0.7337 0.0272 0.1586
C53 C 0.6318(8) 0.0291(6) 0.0701(6)
H63 H 0.5617 0.0491 0.1025
C54 C 0.6502(9) -0.0183(6) -0.0033(6)
C55 C 0.7731(10) -0.0350(7) -0.0330(7)
C56 C 0.5709(12) -0.0544(7) -0.0510(7)
H64 H 0.4955 -0.0364 -0.0222
H65 H 0.5722 -0.1061 -0.0414
H66 H 0.5940 -0.0438 -0.1200
C57 C -0.0072(7) 0.2126(8) 0.4246(7)
H67 H -0.0002 0.1606 0.4207
H68 H -0.0779 0.2269 0.4143
H69 H -0.0049 0.2287 0.4883
C58 C 0.0805(9) 0.3319(6) 0.3498(9)
H70 H 0.0054 0.3458 0.3499
H71 H 0.1345 0.3527 0.2936
H72 H 0.0953 0.3494 0.4086
O21 O 0.4760(9) 0.0576(3) 0.4583(6)
H74 H 0.526(5) 0.027(3) 0.455(5)
H75 H 0.454(6) 0.0155(14) 0.470(5)
O22 O 1.0659(11) -0.0232(10) -0.1453(10)
O23 O 0.2072(17) -0.0371(9) -0.0197(11)
O24 O 0.1892(16) 0.9261(11) 0.6733(12)
H73 H 0.218(7) 0.967(2) 0.672(7)
O25 O 0.2375(12) 0.1315(10) 0.6325(17)
loop_
_geom_bond_atom_site_label_1
_geom_bond_atom_site_label_2
_geom_bond_site_symmetry_1
_geom_bond_site_symmetry_2
O1 C3 1_555 1_555
O2 C1 1_555 1_555
O3 C9 1_555 1_555
O4 H1 1_555 1_555
O5 C23 1_555 1_555
O6 C3 1_555 1_555
O7 C16 1_555 1_555
O8 C17 1_555 1_555
O9 C26 1_555 1_555
O10 H2 1_555 1_555
C1 H3 1_555 1_555
C2 C1 1_555 1_555
H4 C2 1_555 1_555
H5 C2 1_555 1_555
C3 C2 1_555 1_555
C4 O2 1_555 1_555
C5 C4 1_555 1_555
H6 C5 1_555 1_555
C6 C5 1_555 1_555
H7 C6 1_555 1_555
H8 C6 1_555 1_555
C7 O10 1_555 1_555
H9 C7 1_555 1_555
C8 C7 1_555 1_555
H10 C8 1_555 1_555
C9 C8 1_555 1_555
C10 O1 1_555 1_555
C11 C9 1_555 1_555
H11 C11 1_555 1_555
H12 C11 1_555 1_555
C12 C11 1_555 1_555
H13 C12 1_555 1_555
H14 C12 1_555 1_555
C13 C12 1_555 1_555
C14 C13 1_555 1_555
H15 C14 1_555 1_555
C15 O3 1_555 1_555
C16 C8 1_555 1_555
C17 C13 1_555 1_555
C18 C13 1_555 1_555
H16 C18 1_555 1_555
H17 C18 1_555 1_555
H18 C18 1_555 1_555
C19 C9 1_555 1_555
H19 C19 1_555 1_555
H20 C19 1_555 1_555
C20 C17 1_555 1_555
H21 C20 1_555 1_555
C21 C20 1_555 1_555
H22 C21 1_555 1_555
H23 C21 1_555 1_555
H24 C21 1_555 1_555
C22 C14 1_555 1_555
H25 C22 1_555 1_555
C23 C22 1_555 1_555
H26 C23 1_555 1_555
C24 C23 1_555 1_555
H27 C24 1_555 1_555
C25 C24 1_555 1_555
C26 O5 1_555 1_555
C27 C25 1_555 1_555
H28 C27 1_555 1_555
H29 C27 1_555 1_555
H30 C27 1_555 1_555
C28 C4 1_555 1_555
H31 C28 1_555 1_555
H32 C28 1_555 1_555
H33 C28 1_555 1_555
C29 C4 1_555 1_555
H34 C29 1_555 1_555
H35 C29 1_555 1_555
H36 C29 1_555 1_555
O11 C32 1_555 1_555
O12 C30 1_555 1_555
O13 C38 1_555 1_555
O14 H37 1_555 1_555
O15 C52 1_555 1_555
O16 C32 1_555 1_555
O17 C45 1_555 1_555
O18 C46 1_555 1_555
O19 C55 1_555 1_555
O20 H38 1_555 1_555
C30 H39 1_555 1_555
C31 C30 1_555 1_555
H40 C31 1_555 1_555
H41 C31 1_555 1_555
C32 C31 1_555 1_555
C33 O12 1_555 1_555
C34 C33 1_555 1_555
H42 C34 1_555 1_555
C35 C34 1_555 1_555
H43 C35 1_555 1_555
H44 C35 1_555 1_555
C36 O20 1_555 1_555
H45 C36 1_555 1_555
C37 C36 1_555 1_555
H46 C37 1_555 1_555
C38 C37 1_555 1_555
C39 O11 1_555 1_555
C40 C38 1_555 1_555
H47 C40 1_555 1_555
H48 C40 1_555 1_555
C41 C40 1_555 1_555
H49 C41 1_555 1_555
H50 C41 1_555 1_555
C42 C41 1_555 1_555
C43 C42 1_555 1_555
H51 C43 1_555 1_555
C44 O13 1_555 1_555
C45 C37 1_555 1_555
C46 C42 1_555 1_555
C47 C42 1_555 1_555
H52 C47 1_555 1_555
H53 C47 1_555 1_555
H54 C47 1_555 1_555
C48 C38 1_555 1_555
H55 C48 1_555 1_555
H56 C48 1_555 1_555
C49 C46 1_555 1_555
H57 C49 1_555 1_555
C50 C49 1_555 1_555
H58 C50 1_555 1_555
H59 C50 1_555 1_555
H60 C50 1_555 1_555
C51 C43 1_555 1_555
H61 C51 1_555 1_555
C52 C51 1_555 1_555
H62 C52 1_555 1_555
C53 C52 1_555 1_555
H63 C53 1_555 1_555
C54 C53 1_555 1_555
C55 O15 1_555 1_555
C56 C54 1_555 1_555
H64 C56 1_555 1_555
H65 C56 1_555 1_555
H66 C56 1_555 1_555
C57 C33 1_555 1_555
H67 C57 1_555 1_555
H68 C57 1_555 1_555
H69 C57 1_555 1_555
C58 C33 1_555 1_555
H70 C58 1_555 1_555
H71 C58 1_555 1_555
H72 C58 1_555 1_555
O21 H74 1_555 1_555
O24 H73 1_555 1_555
H75 O21 1_555 1_555
O4 C15 1_555 1_555
C1 C10 1_555 1_555
C5 C10 1_555 1_555
C6 C7 1_555 1_555
C10 C19 1_555 1_555
C14 C15 1_555 1_555
C15 C16 1_555 1_555
C20 C22 1_555 1_555
C25 C26 1_555 1_555
O14 C44 1_555 1_555
C30 C39 1_555 1_555
C34 C39 1_555 1_555
C35 C36 1_555 1_555
C39 C48 1_555 1_555
C43 C44 1_555 1_555
C44 C45 1_555 1_555
C49 C51 1_555 1_555
C54 C55 1_555 1_555

#END
