
#######################################################################
#
#                 Cambridge Crystallographic Data Centre
#                                CCDC 
#
#######################################################################
#
# If this CIF has been generated from an entry in the Cambridge 
# Structural Database, then it will include bibliographic, chemical, 
# crystal, experimental, refinement or atomic coordinate data resulting 
# from the CCDC's data processing and validation procedures.
#
#######################################################################

data_OCUMEF
_chemical_formula_moiety         'C25 H28 N2 O5 S1'
_chemical_name_systematic        
4-((2R)-2-Hydroxy-2-phenylacetyl)-10,10-dimethyl-3-p-tosyl-3,4-diazatricyclo[5.2.1.0^1,5^]decan-2-one
_symmetry_cell_setting           triclinic
_symmetry_space_group_name_H-M   'P 1'
_symmetry_Int_Tables_number      1
_space_group_name_Hall           'P 1'
loop_
_symmetry_equiv_pos_site_id
_symmetry_equiv_pos_as_xyz
1 x,y,z
_cell_length_a                   9.6500(2)
_cell_length_b                   10.0895(2)
_cell_length_c                   12.9202(3)
_cell_angle_alpha                69.0260(10)
_cell_angle_beta                 87.4890(10)
_cell_angle_gamma                81.9860(10)
_cell_volume                     1163.11
_exptl_crystal_colour            colorless
_exptl_crystal_description       prism
_cell_formula_units_Z            2
_exptl_crystal_recrystallization_method 'hexanes/ethyl acetate'
loop_
_atom_site_label
_atom_site_type_symbol
_atom_site_fract_x
_atom_site_fract_y
_atom_site_fract_z
S1 S 0.75834(8) 0.75830(8) 0.17640(7)
O1 O 0.8514(3) 1.0042(3) 0.2377(3)
O2 O 0.8785(3) 0.8135(3) 0.1188(2)
O3 O 0.6605(3) 0.7102(3) 0.1237(2)
O4 O 0.4831(2) 0.7175(2) 0.2980(2)
O5 O 0.2022(2) 0.7754(3) 0.28142(18)
H1 H 0.2172 0.7683 0.3453
N1 N 0.6663(3) 0.8949(3) 0.2137(2)
N2 N 0.5211(3) 0.9369(3) 0.1809(2)
C1 C 0.7322(4) 1.0137(4) 0.2099(3)
C2 C 0.6279(4) 1.1441(4) 0.1620(3)
C3 C 0.4855(3) 1.0890(3) 0.1754(3)
H3 H 0.4382 1.0849 0.2432
C4 C 0.3998(4) 1.1972(4) 0.0765(3)
H4 H 0.3800 1.1510 0.0266
H5 H 0.3135 1.2335 0.1028
C5 C 0.4962(4) 1.3130(4) 0.0273(3)
H6 H 0.4785 1.3748 -0.0483
C6 C 0.5139(5) 1.3852(4) 0.1112(4)
H7 H 0.5557 1.4711 0.0758
H8 H 0.4246 1.4083 0.1407
C7 C 0.6124(4) 1.2695(4) 0.2026(3)
H9 H 0.5718 1.2415 0.2751
H10 H 0.7029 1.2971 0.2058
C8 C 0.6401(4) 1.2202(4) 0.0322(3)
C9 C 0.7660(5) 1.3048(5) -0.0004(4)
H11 H 0.7699 1.3481 -0.0797
H12 H 0.8513 1.2422 0.0267
H13 H 0.7544 1.3781 0.0315
C10 C 0.6496(4) 1.1218(4) -0.0360(3)
H14 H 0.6564 1.1785 -0.1131
H15 H 0.5682 1.0735 -0.0243
H16 H 0.7317 1.0524 -0.0134
C11 C 0.8119(3) 0.6284(4) 0.3052(3)
C12 C 0.9280(4) 0.6463(4) 0.3552(3)
H17 H 0.9758 0.7280 0.3195
C13 C 0.9742(4) 0.5436(4) 0.4562(4)
H18 H 1.0542 0.5558 0.4919
C14 C 0.9054(4) 0.4246(4) 0.5063(4)
C15 C 0.9561(5) 0.3165(5) 0.6170(4)
H19 H 1.0361 0.3459 0.6402
H20 H 0.9818 0.2243 0.6107
H21 H 0.8831 0.3108 0.6707
C16 C 0.7908(4) 0.4097(4) 0.4538(4)
H22 H 0.7440 0.3268 0.4877
C17 C 0.7433(4) 0.5086(4) 0.3535(3)
H23 H 0.6634 0.4967 0.3175
C18 C 0.4345(3) 0.8361(3) 0.2358(3)
C19 C 0.2786(3) 0.8806(4) 0.2072(3)
H24 H 0.2487 0.9714 0.2149
C20 C 0.2451(3) 0.8870(4) 0.0925(3)
C21 C 0.3115(4) 0.7891(6) 0.0489(4)
H25 H 0.3882 0.7205 0.0880
C22 C 0.2697(6) 0.7872(8) -0.0504(4)
H26 H 0.3152 0.7161 -0.0783
C23 C 0.1614(6) 0.8896(8) -0.1104(4)
H27 H 0.1374 0.8913 -0.1822
C24 C 0.0938(5) 0.9853(6) -0.0675(4)
H28 H 0.0164 1.0519 -0.1075
C25 C 0.1354(4) 0.9850(5) 0.0344(3)
H29 H 0.0884 1.0545 0.0634
S2 S 0.28977(8) 1.04952(8) 0.56649(6)
O6 O 0.5791(3) 1.1466(3) 0.5040(3)
O7 O 0.3263(3) 1.1307(3) 0.6284(2)
O8 O 0.2021(3) 0.9419(3) 0.6148(2)
O9 O 0.2926(3) 0.8208(2) 0.46035(19)
O10 O 0.3588(3) 0.5416(2) 0.4813(2)
H2 H 0.3223 0.6116 0.4306
N3 N 0.4447(3) 0.9647(3) 0.5344(2)
N4 N 0.4667(3) 0.8100(3) 0.5764(2)
C26 C 0.5712(4) 1.0207(4) 0.5364(3)
C27 C 0.6807(4) 0.8967(4) 0.5899(3)
C28 C 0.6224(3) 0.7659(4) 0.5842(3)
H30 H 0.6572 0.7481 0.5189
C29 C 0.6854(4) 0.6408(4) 0.6891(3)
H31 H 0.6108 0.6088 0.7396
H32 H 0.7298 0.5634 0.6677
C30 C 0.7873(4) 0.7150(5) 0.7302(4)
H33 H 0.8285 0.6587 0.8014
C31 C 0.9027(4) 0.7578(5) 0.6446(4)
H34 H 0.9368 0.6821 0.6177
H35 H 0.9791 0.7843 0.6747
C32 C 0.8311(4) 0.8898(5) 0.5482(4)
H36 H 0.8342 0.8760 0.4783
H37 H 0.8667 0.9773 0.5395
C33 C 0.7007(4) 0.8609(4) 0.7179(3)
C34 C 0.7815(5) 0.9652(6) 0.7442(5)
H38 H 0.7902 0.9363 0.8232
H39 H 0.7314 1.0602 0.7151
H40 H 0.8729 0.9644 0.7119
C35 C 0.5672(5) 0.8510(5) 0.7869(3)
H41 H 0.5906 0.8286 0.8633
H42 H 0.5204 0.7765 0.7801
H43 H 0.5066 0.9404 0.7606
C36 C 0.2237(4) 1.1672(4) 0.4375(3)
C37 C 0.2609(4) 1.3041(4) 0.3980(3)
H44 H 0.3254 1.3324 0.4382
C38 C 0.2030(4) 1.4015(4) 0.2989(3)
H45 H 0.2282 1.4967 0.2701
C39 C 0.1110(4) 1.3629(4) 0.2389(3)
C40 C 0.0498(5) 1.4683(5) 0.1308(4)
H46 H 0.0841 1.5584 0.1146
H47 H -0.0505 1.4818 0.1351
H48 H 0.0774 1.4313 0.0730
C41 C 0.0737(4) 1.2248(4) 0.2807(3)
H49 H 0.0099 1.1990 0.2384
C42 C 0.1299(4) 1.1262(4) 0.3800(3)
H50 H 0.1034 1.0315 0.4067
C43 C 0.3863(3) 0.7491(3) 0.5247(3)
C44 C 0.4136(4) 0.5870(3) 0.5607(3)
H51 H 0.5126 0.5562 0.5663
C45 C 0.3424(4) 0.5132(3) 0.6703(3)
C46 C 0.3599(5) 0.3644(4) 0.7102(3)
H52 H 0.4256 0.3147 0.6743
C47 C 0.2845(5) 0.2908(4) 0.8001(3)
H53 H 0.2957 0.1881 0.8257
C48 C 0.1932(5) 0.3640(4) 0.8536(3)
H54 H 0.1383 0.3116 0.9143
C49 C 0.1795(4) 0.5121(4) 0.8167(3)
H55 H 0.1204 0.5635 0.8554
C50 C 0.2544(4) 0.5865(4) 0.7247(3)
H56 H 0.2440 0.6892 0.6978
loop_
_geom_bond_atom_site_label_1
_geom_bond_atom_site_label_2
_geom_bond_site_symmetry_1
_geom_bond_site_symmetry_2
S1 O2 1_555 1_555
S2 O7 1_555 1_555
O1 C1 1_555 1_555
O3 S1 1_555 1_555
O4 C18 1_555 1_555
O5 H1 1_555 1_555
O6 C26 1_555 1_555
O8 S2 1_555 1_555
O9 C43 1_555 1_555
O10 H2 1_555 1_555
N1 S1 1_555 1_555
N2 N1 1_555 1_555
N3 S2 1_555 1_555
N4 N3 1_555 1_555
C1 N1 1_555 1_555
C2 C1 1_555 1_555
C3 N2 1_555 1_555
H3 C3 1_555 1_555
C4 C3 1_555 1_555
H4 C4 1_555 1_555
H5 C4 1_555 1_555
C5 C4 1_555 1_555
H6 C5 1_555 1_555
C6 C5 1_555 1_555
H7 C6 1_555 1_555
H8 C6 1_555 1_555
C7 C2 1_555 1_555
H9 C7 1_555 1_555
H10 C7 1_555 1_555
C8 C2 1_555 1_555
C9 C8 1_555 1_555
H11 C9 1_555 1_555
H12 C9 1_555 1_555
H13 C9 1_555 1_555
C10 C8 1_555 1_555
H14 C10 1_555 1_555
H15 C10 1_555 1_555
H16 C10 1_555 1_555
C11 S1 1_555 1_555
C12 C11 1_555 1_555
H17 C12 1_555 1_555
C13 C12 1_555 1_555
H18 C13 1_555 1_555
C14 C13 1_555 1_555
C15 C14 1_555 1_555
H19 C15 1_555 1_555
H20 C15 1_555 1_555
H21 C15 1_555 1_555
C16 C14 1_555 1_555
H22 C16 1_555 1_555
C17 C11 1_555 1_555
H23 C17 1_555 1_555
C18 N2 1_555 1_555
C19 O5 1_555 1_555
H24 C19 1_555 1_555
C20 C19 1_555 1_555
C21 C20 1_555 1_555
H25 C21 1_555 1_555
C22 C21 1_555 1_555
H26 C22 1_555 1_555
C23 C22 1_555 1_555
H27 C23 1_555 1_555
C24 C23 1_555 1_555
H28 C24 1_555 1_555
C25 C20 1_555 1_555
H29 C25 1_555 1_555
C26 N3 1_555 1_555
C27 C26 1_555 1_555
C28 N4 1_555 1_555
H30 C28 1_555 1_555
C29 C28 1_555 1_555
H31 C29 1_555 1_555
H32 C29 1_555 1_555
C30 C29 1_555 1_555
H33 C30 1_555 1_555
C31 C30 1_555 1_555
H34 C31 1_555 1_555
H35 C31 1_555 1_555
C32 C27 1_555 1_555
H36 C32 1_555 1_555
H37 C32 1_555 1_555
C33 C27 1_555 1_555
C34 C33 1_555 1_555
H38 C34 1_555 1_555
H39 C34 1_555 1_555
H40 C34 1_555 1_555
C35 C33 1_555 1_555
H41 C35 1_555 1_555
H42 C35 1_555 1_555
H43 C35 1_555 1_555
C36 S2 1_555 1_555
C37 C36 1_555 1_555
H44 C37 1_555 1_555
C38 C37 1_555 1_555
H45 C38 1_555 1_555
C39 C38 1_555 1_555
C40 C39 1_555 1_555
H46 C40 1_555 1_555
H47 C40 1_555 1_555
H48 C40 1_555 1_555
C41 C39 1_555 1_555
H49 C41 1_555 1_555
C42 C36 1_555 1_555
H50 C42 1_555 1_555
C43 N4 1_555 1_555
C44 O10 1_555 1_555
H51 C44 1_555 1_555
C45 C44 1_555 1_555
C46 C45 1_555 1_555
H52 C46 1_555 1_555
C47 C46 1_555 1_555
H53 C47 1_555 1_555
C48 C47 1_555 1_555
H54 C48 1_555 1_555
C49 C48 1_555 1_555
H55 C49 1_555 1_555
C50 C45 1_555 1_555
H56 C50 1_555 1_555
C2 C3 1_555 1_555
C5 C8 1_555 1_555
C6 C7 1_555 1_555
C16 C17 1_555 1_555
C18 C19 1_555 1_555
C24 C25 1_555 1_555
C27 C28 1_555 1_555
C30 C33 1_555 1_555
C31 C32 1_555 1_555
C41 C42 1_555 1_555
C43 C44 1_555 1_555
C49 C50 1_555 1_555

#END
