
#######################################################################
#
#                 Cambridge Crystallographic Data Centre
#                                CCDC 
#
#######################################################################
#
# If this CIF has been generated from an entry in the Cambridge 
# Structural Database, then it will include bibliographic, chemical, 
# crystal, experimental, refinement or atomic coordinate data resulting 
# from the CCDC's data processing and validation procedures.
#
#######################################################################

data_OCUMAB
_chemical_formula_moiety         'C21 H27 N1 O4 S1'
_chemical_name_systematic        
1-(10,10-Dimethyl-3,3-dioxo-3-thia-4-azatricyclo[5.2.1.0^1,5^]decan-4-yl)-(2S)-2-hydroxy-2-phenylpent-4-en-1-one
_symmetry_cell_setting           monoclinic
_symmetry_space_group_name_H-M   'P 21'
_symmetry_Int_Tables_number      4
_space_group_name_Hall           'P 2yb'
loop_
_symmetry_equiv_pos_site_id
_symmetry_equiv_pos_as_xyz
1 x,y,z
2 -x,1/2+y,-z
_cell_length_a                   8.6320(2)
_cell_length_b                   11.4770(4)
_cell_length_c                   10.2410(3)
_cell_angle_alpha                90
_cell_angle_beta                 100.458(2)
_cell_angle_gamma                90
_cell_volume                     997.717
_exptl_crystal_colour            colorless
_exptl_crystal_description       prism
_cell_formula_units_Z            2
_exptl_crystal_recrystallization_method 'hexanes/ethyl acetate'
loop_
_atom_site_label
_atom_site_type_symbol
_atom_site_fract_x
_atom_site_fract_y
_atom_site_fract_z
C1 C -0.4161(6) -0.2702(4) -0.4236(4)
H1 H -0.4744 -0.2673 -0.3523
H2 H -0.3678 -0.3454 -0.4252
C2 C -0.2936(5) -0.1744(4) -0.4117(4)
C3 C -0.3517(5) -0.0788(4) -0.5151(4)
H3 H -0.4161 -0.0241 -0.4784
C4 C -0.1985(5) -0.0205(4) -0.5390(4)
H4 H -0.1955 0.0625 -0.5272
H5 H -0.1769 -0.0393 -0.6253
C5 C -0.0741(5) -0.0791(4) -0.4328(4)
H6 H 0.0332 -0.0761 -0.4458
C6 C -0.1029(6) -0.0397(5) -0.2957(5)
H7 H -0.1247 0.0422 -0.2927
H8 H -0.0166 -0.0591 -0.2259
C7 C -0.2531(5) -0.1089(4) -0.2781(4)
H9 H -0.3396 -0.0605 -0.2647
H10 H -0.2323 -0.1659 -0.2086
C8 C -0.1277(5) -0.2068(4) -0.4403(4)
C9 C -0.0325(6) -0.2845(5) -0.3327(5)
H11 H 0.0684 -0.3044 -0.3532
H12 H -0.0919 -0.3543 -0.3261
H13 H -0.0180 -0.2434 -0.2497
C10 C -0.1245(6) -0.2665(5) -0.5725(5)
H14 H -0.0176 -0.2834 -0.5801
H15 H -0.1704 -0.2155 -0.6433
H16 H -0.1837 -0.3377 -0.5779
C11 C -0.4940(5) -0.0758(4) -0.7489(4)
C12 C -0.5635(5) -0.1410(4) -0.8788(4)
C13 C -0.5340(6) -0.0661(5) -0.9947(4)
H17 H -0.5864 0.0071 -0.9895
H18 H -0.4231 -0.0531 -0.9885
C14 C -0.5991(6) -0.1187(6) -1.1263(4)
H19 H -0.5827 -0.2000 -1.1408
C15 C -0.6800(6) -0.0600(7) -1.2269(5)
H20 H -0.7168 -0.0995 -1.3094
H21 H -0.7003 0.0217 -1.2189
C16 C -0.7430(5) -0.1590(4) -0.8855(4)
C17 C -0.8372(6) -0.0675(5) -0.8622(5)
H22 H -0.7881 0.0068 -0.8410
C18 C -0.9983(6) -0.0802(5) -0.8752(5)
H23 H -1.0653 -0.0172 -0.8585
C19 C -1.0666(6) -0.1870(6) -0.9120(5)
H24 H -1.1774 -0.1991 -0.9159
C20 C -0.9746(6) -0.2784(5) -0.9361(5)
H25 H -1.0236 -0.3512 -0.9658
C21 C -0.8126(6) -0.2654(5) -0.9245(4)
H26 H -0.7464 -0.3292 -0.9401
N1 N -0.4453(4) -0.1404(3) -0.6312(3)
O1 O -0.6956(4) -0.2014(4) -0.5482(3)
O2 O -0.5589(5) -0.3436(3) -0.6632(3)
O3 O -0.4704(4) 0.0279(3) -0.7465(3)
O4 O -0.4797(4) -0.2459(4) -0.8873(4)
S1 S -0.55012(12) -0.24609(10) -0.57561(10)
H27 H -0.501(8) -0.284(6) -0.834(6)
loop_
_geom_bond_atom_site_label_1
_geom_bond_atom_site_label_2
_geom_bond_site_symmetry_1
_geom_bond_site_symmetry_2
C1 H1 1_555 1_555
H2 C1 1_555 1_555
C2 C1 1_555 1_555
C3 C2 1_555 1_555
H3 C3 1_555 1_555
C4 C3 1_555 1_555
H4 C4 1_555 1_555
H5 C4 1_555 1_555
C5 C4 1_555 1_555
H6 C5 1_555 1_555
C6 C5 1_555 1_555
H7 C6 1_555 1_555
H8 C6 1_555 1_555
C7 C2 1_555 1_555
H9 C7 1_555 1_555
H10 C7 1_555 1_555
C8 C2 1_555 1_555
C9 C8 1_555 1_555
H11 C9 1_555 1_555
H12 C9 1_555 1_555
H13 C9 1_555 1_555
C10 C8 1_555 1_555
H14 C10 1_555 1_555
H15 C10 1_555 1_555
H16 C10 1_555 1_555
C11 C12 1_555 1_555
C12 C13 1_555 1_555
C13 H17 1_555 1_555
H18 C13 1_555 1_555
C14 C13 1_555 1_555
H19 C14 1_555 1_555
C15 C14 1_555 1_555
H20 C15 1_555 1_555
H21 C15 1_555 1_555
C16 C12 1_555 1_555
C17 C16 1_555 1_555
H22 C17 1_555 1_555
C18 C17 1_555 1_555
H23 C18 1_555 1_555
C19 C18 1_555 1_555
H24 C19 1_555 1_555
C20 C19 1_555 1_555
H25 C20 1_555 1_555
C21 C16 1_555 1_555
H26 C21 1_555 1_555
N1 C3 1_555 1_555
O1 S1 1_555 1_555
O2 S1 1_555 1_555
O3 C11 1_555 1_555
O4 C12 1_555 1_555
S1 C1 1_555 1_555
H27 O4 1_555 1_555
C5 C8 1_555 1_555
C6 C7 1_555 1_555
C11 N1 1_555 1_555
C20 C21 1_555 1_555
N1 S1 1_555 1_555

#END
