
#######################################################################
#
#                 Cambridge Crystallographic Data Centre
#                                CCDC 
#
#######################################################################
#
# If this CIF has been generated from an entry in the Cambridge 
# Structural Database, then it will include bibliographic, chemical, 
# crystal, experimental, refinement or atomic coordinate data resulting 
# from the CCDC's data processing and validation procedures.
#
#######################################################################

data_OCUNUW
_chemical_formula_moiety         'C18 H22 N2 O4'
_chemical_name_systematic        
(R)-(-)-3-(Acetylaminomethyl)-2-(ethoxycarbonyl)-6-methoxy-1,3,4,5-tetrahydrobenzo[cd]indole
_chemical_properties_biological  
'weak partial agonist for MT1 and MT2 receptor subtypes'
_symmetry_cell_setting           orthorhombic
_symmetry_space_group_name_H-M   'P 21 21 21'
_symmetry_Int_Tables_number      19
_space_group_name_Hall           'P 2ac 2ab'
loop_
_symmetry_equiv_pos_site_id
_symmetry_equiv_pos_as_xyz
1 x,y,z
2 1/2-x,-y,1/2+z
3 -x,1/2+y,1/2-z
4 1/2+x,1/2-y,-z
_cell_length_a                   12.149
_cell_length_b                   18.967
_cell_length_c                   22.659
_cell_angle_alpha                90
_cell_angle_beta                 90
_cell_angle_gamma                90
_cell_volume                     5221.32
_exptl_crystal_colour            colorless
_exptl_crystal_description       needle
_chemical_melting_point          '463 K'
_cell_formula_units_Z            12
_exptl_crystal_recrystallization_method dichloromethane/cyclohexane
loop_
_atom_site_label
_atom_site_type_symbol
_atom_site_fract_x
_atom_site_fract_y
_atom_site_fract_z
C1 C 1.1633(3) 0.32392(15) 0.21077(13)
C2 C 1.2734(3) 0.31071(15) 0.22205(13)
C3 C 1.3549(3) 0.33009(17) 0.26884(15)
H1 H 1.3141(17) 0.3343(2) 0.3086(16)
C4 C 1.4407(4) 0.2719(2) 0.27382(19)
H2 H 1.503(2) 0.2892(6) 0.3024(10)
H3 H 1.4035(13) 0.2281(14) 0.2934(7)
C5 C 1.4937(3) 0.2485(2) 0.2172(2)
H4 H 1.5388(16) 0.2085(13) 0.2247(3)
H5 H 1.5396(16) 0.2852(12) 0.2027(5)
C6 C 1.4093(3) 0.23003(15) 0.17136(15)
C7 C 1.4199(3) 0.18271(17) 0.12517(18)
C8 C 1.3297(3) 0.16937(19) 0.08753(18)
H6 H 1.3383(6) 0.1401(16) 0.0603(15)
C9 C 1.2282(3) 0.20154(17) 0.09280(16)
H7 H 1.162(3) 0.1906(5) 0.0631(12)
C10 C 1.2177(2) 0.24937(15) 0.13954(13)
C11 C 1.3075(3) 0.26284(15) 0.17732(12)
C12 C 1.0851(3) 0.36552(16) 0.24510(15)
C13 C 0.8966(3) 0.38828(19) 0.26354(16)
H8 H 0.8986(3) 0.4386(15) 0.2561(3)
H9 H 0.9075(4) 0.3804(3) 0.3054(13)
C14 C 0.7895(3) 0.3588(2) 0.2447(2)
H10 H 0.7813 0.3646 0.2028
H11 H 0.7310 0.3831 0.2647
H12 H 0.7867 0.3096 0.2544
C15 C 1.4125(3) 0.40059(18) 0.25577(19)
H13 H 1.4766(18) 0.4087(3) 0.2866(9)
H14 H 1.4478(11) 0.39891(19) 0.2131(12)
C16 C 1.3612(3) 0.52446(18) 0.24500(17)
C17 C 1.2748(4) 0.5788(2) 0.2526(3)
H15 H 1.2989 0.6131 0.2810
H16 H 1.2083 0.5569 0.2663
H17 H 1.2612 0.6016 0.2155
C18 C 1.5265(5) 0.0846(3) 0.0983(4)
H18 H 1.4793 0.0541 0.1206
H19 H 1.6010 0.0682 0.1011
H20 H 1.5038 0.0846 0.0577
N1 N 1.1307(2) 0.28756(13) 0.16060(11)
H21 H 1.051(3) 0.28914(15) 0.1415(7)
N2 N 1.3346(3) 0.45865(15) 0.25912(15)
H22 H 1.270(4) 0.4502(5) 0.2705(7)
O1 O 1.1112(2) 0.40670(15) 0.28387(13)
O2 O 0.98219(19) 0.35312(12) 0.23003(10)
O3 O 1.4553(2) 0.54069(15) 0.22927(16)
O4 O 1.5201(2) 0.14976(15) 0.11967(19)
C19 C 0.6707(3) 0.46353(15) 0.11200(14)
C20 C 0.7824(3) 0.47442(14) 0.10537(12)
C21 C 0.8695(3) 0.45102(14) 0.06163(14)
H23 H 0.8389(14) 0.44936(16) 0.0251(16)
C22 C 0.9628(3) 0.50664(18) 0.06150(16)
H24 H 1.0266(19) 0.4882(5) 0.0354(8)
H25 H 0.9333(9) 0.5525(13) 0.0423(6)
C23 C 1.0088(3) 0.52466(17) 0.12266(16)
H26 H 1.0490(12) 0.4807(12) 0.1401(5)
H27 H 1.0661(16) 0.5654(11) 0.11889(19)
C24 C 0.9179(3) 0.54677(14) 0.16352(15)
C25 C 0.9256(3) 0.59204(16) 0.21114(16)
C26 C 0.8339(3) 0.60768(18) 0.24659(17)
H28 H 0.8442(5) 0.6426(14) 0.2839(15)
C27 C 0.7306(3) 0.57980(19) 0.23535(16)
H29 H 0.657(3) 0.5923(5) 0.2646(11)
C28 C 0.7210(3) 0.53511(15) 0.18584(14)
C29 C 0.8138(3) 0.51942(13) 0.15207(13)
C30 C 0.5946(3) 0.42301(18) 0.07566(17)
C31 C 0.4064(3) 0.3954(2) 0.0583(2)
H30 H 0.4102(4) 0.3438(17) 0.0683(4)
H31 H 0.4179(5) 0.4011(3) 0.0146(14)
C32 C 0.2971(3) 0.4248(3) 0.0758(3)
H32 H 0.2828 0.4138 0.1164
H33 H 0.2406 0.4045 0.0515
H34 H 0.2976 0.4751 0.0707
C33 C 0.9149(3) 0.37842(15) 0.07669(16)
H35 H 0.9829(16) 0.3665(3) 0.0476(7)
H36 H 0.9457(8) 0.37879(15) 0.1214(11)
C34 C 0.8537(3) 0.25719(16) 0.08380(15)
C35 C 0.7602(4) 0.2070(2) 0.0735(3)
H37 H 0.7814 0.1726 0.0446
H38 H 0.6972 0.2326 0.0596
H39 H 0.7421 0.1836 0.1099
C36 C 1.0384(4) 0.67369(19) 0.2628(2)
H40 H 0.9910 0.7119 0.2516
H41 H 1.1133 0.6898 0.2639
H42 H 1.0176 0.6568 0.3012
N3 N 0.6337(2) 0.50073(14) 0.16120(12)
H43 H 0.560(3) 0.50196(15) 0.1753(7)
N4 N 0.8322(2) 0.32436(13) 0.07101(13)
H44 H 0.769(3) 0.3355(6) 0.0593(6)
O5 O 0.6233(2) 0.38447(16) 0.03541(13)
O6 O 0.4904(2) 0.43404(14) 0.09070(12)
O7 O 0.9419(2) 0.23800(12) 0.10261(14)
O8 O 1.0285(2) 0.61873(15) 0.22155(15)
C37 C 0.6755(2) 0.82332(14) -0.05097(13)
C38 C 0.7869(2) 0.83423(14) -0.05586(12)
C39 C 0.8783(3) 0.81029(15) -0.09680(13)
H45 H 0.8538(12) 0.8073(2) -0.1302(16)
C40 C 0.9707(3) 0.86562(18) -0.09627(16)
H46 H 1.0391(19) 0.8455(6) -0.1215(7)
H47 H 0.9415(9) 0.9124(13) -0.1183(6)
C41 C 1.0122(3) 0.88631(18) -0.03507(17)
H48 H 1.0494(12) 0.8479(12) -0.0181(6)
H49 H 1.0625(16) 0.9237(12) -0.03864(19)
C42 C 0.9194(2) 0.90829(14) 0.00479(14)
C43 C 0.9234(3) 0.95402(16) 0.05209(16)
C44 C 0.8285(3) 0.96850(17) 0.08567(15)
H50 H 0.8352(4) 1.0019(14) 0.1212(15)
C45 C 0.7261(3) 0.93949(16) 0.07280(14)
H51 H 0.659(3) 0.9498(4) 0.0979(10)
C46 C 0.7205(2) 0.89533(13) 0.02339(12)
C47 C 0.8158(2) 0.88018(13) -0.00912(12)
C48 C 0.6016(3) 0.78138(15) -0.08810(14)
C49 C 0.4142(3) 0.75367(19) -0.10833(18)
H52 H 0.4201(4) 0.7036(15) -0.0994(3)
H53 H 0.4258(5) 0.7601(2) -0.1505(13)
C50 C 0.3034(3) 0.7805(2) -0.0910(2)
H54 H 0.2924 0.7732 -0.0495
H55 H 0.2478 0.7557 -0.1128
H56 H 0.2988 0.8300 -0.0997
C51 C 0.9225(3) 0.73748(15) -0.07799(14)
H57 H 0.9925(18) 0.7273(3) -0.0996(5)
H58 H 0.9390(5) 0.73786(15) -0.0348(11)
C52 C 0.8653(3) 0.61496(16) -0.08318(14)
C53 C 0.7755(4) 0.5641(2) -0.0970(2)
H59 H 0.7936 0.5386 -0.1323
H60 H 0.7078 0.5893 -0.1028
H61 H 0.7672 0.5316 -0.0648
C54 C 1.0292(4) 1.0367(2) 0.1078(2)
H62 H 0.9766 1.0726 0.0980
H63 H 1.1018 1.0567 0.1081
H64 H 1.0126 1.0179 0.1461
N5 N 0.6361(2) 0.85992(12) -0.00263(11)
H65 H 0.570(3) 0.86024(13) 0.0090(6)
N6 N 0.8433(2) 0.68340(13) -0.09055(13)
H66 H 0.776(3) 0.6962(6) -0.1041(7)
O9 O 0.6326(2) 0.74117(14) -0.12673(11)
O10 O 0.49556(18) 0.79301(12) -0.07528(11)
O11 O 0.9572(2) 0.59452(13) -0.06652(14)
O12 O 1.0242(2) 0.98199(14) 0.06522(15)
loop_
_geom_bond_atom_site_label_1
_geom_bond_atom_site_label_2
_geom_bond_site_symmetry_1
_geom_bond_site_symmetry_2
C1 C2 1_555 1_555
C2 C3 1_555 1_555
C3 H1 1_555 1_555
C4 C3 1_555 1_555
H2 C4 1_555 1_555
H3 C4 1_555 1_555
C5 C4 1_555 1_555
H4 C5 1_555 1_555
H5 C5 1_555 1_555
C6 C5 1_555 1_555
C7 C6 1_555 1_555
C8 C7 1_555 1_555
H6 C8 1_555 1_555
C9 C8 1_555 1_555
H7 C9 1_555 1_555
C10 C9 1_555 1_555
C11 C2 1_555 1_555
C12 C1 1_555 1_555
C13 H8 1_555 1_555
H9 C13 1_555 1_555
C14 C13 1_555 1_555
H10 C14 1_555 1_555
H11 C14 1_555 1_555
H12 C14 1_555 1_555
C15 C3 1_555 1_555
H13 C15 1_555 1_555
H14 C15 1_555 1_555
C16 C17 1_555 1_555
C17 H15 1_555 1_555
H16 C17 1_555 1_555
H17 C17 1_555 1_555
C18 H18 1_555 1_555
H19 C18 1_555 1_555
H20 C18 1_555 1_555
N1 C1 1_555 1_555
H21 N1 1_555 1_555
N2 C15 1_555 1_555
H22 N2 1_555 1_555
O1 C12 1_555 1_555
O2 C12 1_555 1_555
O3 C16 1_555 1_555
O4 C7 1_555 1_555
C19 C20 1_555 1_555
C20 C21 1_555 1_555
C21 H23 1_555 1_555
C22 C21 1_555 1_555
H24 C22 1_555 1_555
H25 C22 1_555 1_555
C23 C22 1_555 1_555
H26 C23 1_555 1_555
H27 C23 1_555 1_555
C24 C23 1_555 1_555
C25 C24 1_555 1_555
C26 C25 1_555 1_555
H28 C26 1_555 1_555
C27 C26 1_555 1_555
H29 C27 1_555 1_555
C28 C27 1_555 1_555
C29 C20 1_555 1_555
C30 C19 1_555 1_555
C31 H30 1_555 1_555
H31 C31 1_555 1_555
C32 C31 1_555 1_555
H32 C32 1_555 1_555
H33 C32 1_555 1_555
H34 C32 1_555 1_555
C33 C21 1_555 1_555
H35 C33 1_555 1_555
H36 C33 1_555 1_555
C34 C35 1_555 1_555
C35 H37 1_555 1_555
H38 C35 1_555 1_555
H39 C35 1_555 1_555
C36 H40 1_555 1_555
H41 C36 1_555 1_555
H42 C36 1_555 1_555
N3 C19 1_555 1_555
H43 N3 1_555 1_555
N4 C33 1_555 1_555
H44 N4 1_555 1_555
O5 C30 1_555 1_555
O6 C30 1_555 1_555
O7 C34 1_555 1_555
O8 C25 1_555 1_555
C37 C38 1_555 1_555
C38 C39 1_555 1_555
C39 H45 1_555 1_555
C40 C39 1_555 1_555
H46 C40 1_555 1_555
H47 C40 1_555 1_555
C41 C40 1_555 1_555
H48 C41 1_555 1_555
H49 C41 1_555 1_555
C42 C41 1_555 1_555
C43 C42 1_555 1_555
C44 C43 1_555 1_555
H50 C44 1_555 1_555
C45 C44 1_555 1_555
H51 C45 1_555 1_555
C46 C45 1_555 1_555
C47 C38 1_555 1_555
C48 C37 1_555 1_555
C49 H52 1_555 1_555
H53 C49 1_555 1_555
C50 C49 1_555 1_555
H54 C50 1_555 1_555
H55 C50 1_555 1_555
H56 C50 1_555 1_555
C51 C39 1_555 1_555
H57 C51 1_555 1_555
H58 C51 1_555 1_555
C52 C53 1_555 1_555
C53 H59 1_555 1_555
H60 C53 1_555 1_555
H61 C53 1_555 1_555
C54 H62 1_555 1_555
H63 C54 1_555 1_555
H64 C54 1_555 1_555
N5 C37 1_555 1_555
H65 N5 1_555 1_555
N6 C51 1_555 1_555
H66 N6 1_555 1_555
O9 C48 1_555 1_555
O10 C48 1_555 1_555
O11 C52 1_555 1_555
O12 C43 1_555 1_555
C6 C11 1_555 1_555
C10 C11 1_555 1_555
C10 N1 1_555 1_555
C13 O2 1_555 1_555
C16 N2 1_555 1_555
C18 O4 1_555 1_555
C24 C29 1_555 1_555
C28 C29 1_555 1_555
C28 N3 1_555 1_555
C31 O6 1_555 1_555
C34 N4 1_555 1_555
C36 O8 1_555 1_555
C42 C47 1_555 1_555
C46 C47 1_555 1_555
C46 N5 1_555 1_555
C49 O10 1_555 1_555
C52 N6 1_555 1_555
C54 O12 1_555 1_555

#END
