
#######################################################################
#
#                 Cambridge Crystallographic Data Centre
#                                CCDC 
#
#######################################################################
#
# If this CIF has been generated from an entry in the Cambridge 
# Structural Database, then it will include bibliographic, chemical, 
# crystal, experimental, refinement or atomic coordinate data resulting 
# from the CCDC's data processing and validation procedures.
#
#######################################################################

data_OCUPEJ
_chemical_formula_moiety         '0.6(C46 H60 N6 O5),H2 O1,0.4(C76 H80 N8 O9)'
_chemical_name_systematic        
"Methyl 3,7,12-tris((phenylcarbamoyl)amino)cholan-24-oate 2-(1,3,8,10-tetraoxo-9-(pentan-3-yl)-3,8,9,10-tetrahydroisoquinolino[4',5',6':6,5,10]anthra[2,1,9-def]isoquinolin-2(1H)-yl)ethyl 3,7,12-tris((phenylcarbamoyl)amino)cholan-24-oate monohydrate"
_symmetry_cell_setting           hexagonal
_symmetry_space_group_name_H-M   'P 61'
_symmetry_Int_Tables_number      169
_space_group_name_Hall           'P 61'
loop_
_symmetry_equiv_pos_site_id
_symmetry_equiv_pos_as_xyz
1 x,y,z
2 -y,x-y,1/3+z
3 -x+y,-x,2/3+z
4 -x,-y,1/2+z
5 y,-x+y,5/6+z
6 x-y,x,1/6+z
_cell_length_a                   28.9869(14)
_cell_length_b                   28.9869(14)
_cell_length_c                   11.4827(6)
_cell_angle_alpha                90
_cell_angle_beta                 90
_cell_angle_gamma                120
_cell_volume                     8355.61
_exptl_crystal_colour            'orange red'
_exptl_crystal_description       needle
_cell_formula_units_Z            6
loop_
_atom_site_label
_atom_site_type_symbol
_atom_site_fract_x
_atom_site_fract_y
_atom_site_fract_z
O6 O 0.92207(12) 0.47018(12) 1.0126(3)
H58 H 0.932(2) 0.480(2) 0.942(2)
H59 H 0.915(3) 0.494(2) 1.039(6)
C1 C 0.86944(18) 0.41057(18) 0.4302(4)
H1 H 0.8420 0.3969 0.4922
H2 H 0.9045 0.4235 0.4680
C2 C 0.86926(18) 0.45769(19) 0.3705(4)
H3 H 0.8752 0.4853 0.4288
H4 H 0.8982 0.4737 0.3121
C3 C 0.81541(17) 0.43764(19) 0.3110(4)
H5 H 0.7878 0.4202 0.3730
C4 C 0.80498(16) 0.39420(17) 0.2216(4)
H6 H 0.8323 0.4093 0.1596
H7 H 0.7697 0.3815 0.1851
C5 C 0.80637(16) 0.34695(17) 0.2796(4)
H8 H 0.7769 0.3318 0.3382
C6 C 0.79430(16) 0.30202(17) 0.1923(4)
H9 H 0.7849 0.2692 0.2365
H10 H 0.7627 0.2951 0.1460
C7 C 0.83962(16) 0.31296(16) 0.1084(4)
H11 H 0.8308 0.2785 0.0701
C8 C 0.89250(16) 0.33332(16) 0.1744(4)
H12 H 0.8891 0.3032 0.2234
C9 C 0.85868(17) 0.36389(18) 0.3477(4)
C10 C 0.90496(15) 0.38013(16) 0.2574(4)
H13 H 0.9064 0.4094 0.2086
C11 C 0.95966(17) 0.40209(18) 0.3138(4)
H14 H 0.9587 0.3749 0.3675
H15 H 0.9674 0.4338 0.3606
C12 C 1.00526(16) 0.41770(17) 0.2250(4)
H16 H 1.0391 0.4293 0.2689
C13 C 0.99357(16) 0.36846(16) 0.1488(4)
C14 C 0.93833(16) 0.34817(17) 0.0899(4)
H17 H 0.9413 0.3780 0.0407
C15 C 0.93468(18) 0.30527(17) 0.0065(4)
H18 H 0.9095 0.2991 -0.0578
H19 H 0.9229 0.2712 0.0481
C16 C 0.99157(18) 0.32811(19) -0.0395(5)
H20 H 0.9935 0.3386 -0.1222
H21 H 1.0030 0.3012 -0.0335
C17 C 1.02821(16) 0.37804(17) 0.0374(4)
H22 H 1.0316 0.4101 -0.0031
C18 C 0.85187(18) 0.31785(19) 0.4257(4)
H23 H 0.8235 0.3093 0.4825
H24 H 0.8853 0.3284 0.4669
H25 H 0.8425 0.2865 0.3776
C19 C 0.99505(18) 0.32675(19) 0.2265(4)
H26 H 0.9652 0.3129 0.2814
H27 H 1.0287 0.3430 0.2699
H28 H 0.9923 0.2975 0.1784
C20 C 1.08436(17) 0.38626(18) 0.0511(5)
H29 H 1.0811 0.3534 0.0876
C21 C 1.12040(18) 0.4337(2) 0.1287(5)
H30 H 1.1191 0.4652 0.1027
H31 H 1.1571 0.4407 0.1236
H32 H 1.1081 0.4256 0.2096
C22 C 1.1084(2) 0.3920(2) -0.0724(5)
H33 H 1.0840 0.3600 -0.1184
H34 H 1.1097 0.4232 -0.1109
C23 C 1.1639(2) 0.3985(3) -0.0766(6)
H35 H 1.1743 0.3990 -0.1589
H36 H 1.1897 0.4332 -0.0414
C24 C 1.1669(3) 0.3558(4) -0.0149(7)
C25 C 0.83648(16) 0.51289(18) 0.1729(4)
C26 C 0.83682(18) 0.58000(19) 0.0404(4)
C27 C 0.8066(2) 0.5775(2) -0.0549(5)
H37 H 0.7714 0.5482 -0.0634
C28 C 0.8275(2) 0.6176(3) -0.1383(5)
H38 H 0.8061 0.6159 -0.2028
C29 C 0.8786(2) 0.6596(2) -0.1285(5)
H39 H 0.8931 0.6866 -0.1866
C30 C 0.9087(2) 0.6621(2) -0.0323(6)
H40 H 0.9440 0.6912 -0.0249
C31 C 0.88888(19) 0.6235(2) 0.0524(5)
H41 H 0.9100 0.6261 0.1181
C32 C 0.80750(15) 0.33497(16) -0.0678(4)
C33 C 0.77904(16) 0.37207(17) -0.2319(4)
C34 C 0.7354(2) 0.32502(19) -0.2715(5)
H42 H 0.7252 0.2922 -0.2332
C35 C 0.7069(2) 0.3265(2) -0.3681(5)
H43 H 0.6780 0.2942 -0.3965
C36 C 0.71971(19) 0.3737(2) -0.4232(4)
H44 H 0.6993 0.3743 -0.4872
C37 C 0.76313(18) 0.4202(2) -0.3827(5)
H45 H 0.7730 0.4530 -0.4204
C38 C 0.79218(17) 0.41951(18) -0.2885(4)
H46 H 0.8216 0.4519 -0.2619
C39 C 1.03692(15) 0.51275(17) 0.1982(4)
C40 C 1.04355(17) 0.60096(17) 0.1634(4)
C41 C 1.01352(19) 0.62349(19) 0.1199(4)
H47 H 0.9793 0.6015 0.0866
C42 C 1.0345(2) 0.6777(2) 0.1266(5)
H48 H 1.0146 0.6928 0.0962
C43 C 1.0835(2) 0.7107(2) 0.1758(5)
H49 H 1.0971 0.7481 0.1797
C44 C 1.11272(19) 0.68835(19) 0.2197(4)
H50 H 1.1467 0.7107 0.2537
C45 C 1.09268(18) 0.63369(18) 0.2143(4)
H51 H 1.1127 0.6188 0.2456
C46 C 1.1467(9) 0.2707(6) -0.005(3)
N1 N 0.80801(15) 0.48021(16) 0.2621(4)
H52 H 0.7798(15) 0.483(2) 0.280(6)
N2 N 0.81389(15) 0.54092(17) 0.1276(4)
H53 H 0.7793(8) 0.525(2) 0.133(6)
N3 N 0.84472(13) 0.35071(14) 0.0166(3)
H54 H 0.8654(18) 0.3851(9) 0.024(5)
N4 N 0.81042(14) 0.37584(14) -0.1351(3)
H55 H 0.8355(16) 0.4074(12) -0.115(5)
N5 N 1.01140(14) 0.46257(14) 0.1538(3)
H56 H 0.9851(16) 0.455(2) 0.107(4)
N6 N 1.02138(14) 0.54553(14) 0.1482(3)
H57 H 0.9886(11) 0.5274(19) 0.122(5)
O1 O 1.1954(2) 0.3623(3) 0.0696(5)
O2 O 1.1364(3) 0.3087(3) -0.0602(7)
O3 O 0.87919(12) 0.51848(14) 0.1370(3)
O4 O 0.77390(12) 0.28759(12) -0.0838(3)
O5 O 1.07104(12) 0.52707(13) 0.2759(3)
loop_
_geom_bond_atom_site_label_1
_geom_bond_atom_site_label_2
_geom_bond_site_symmetry_1
_geom_bond_site_symmetry_2
C1 H1 1_555 1_555
H2 C1 1_555 1_555
C2 C1 1_555 1_555
H3 C2 1_555 1_555
H4 C2 1_555 1_555
C3 C2 1_555 1_555
H5 C3 1_555 1_555
C4 C3 1_555 1_555
H6 C4 1_555 1_555
H7 C4 1_555 1_555
C5 C4 1_555 1_555
H8 C5 1_555 1_555
C6 C5 1_555 1_555
H9 C6 1_555 1_555
H10 C6 1_555 1_555
C7 C6 1_555 1_555
H11 C7 1_555 1_555
C8 C7 1_555 1_555
H12 C8 1_555 1_555
C9 C1 1_555 1_555
C10 C8 1_555 1_555
H13 C10 1_555 1_555
C11 C10 1_555 1_555
H14 C11 1_555 1_555
H15 C11 1_555 1_555
C12 C11 1_555 1_555
H16 C12 1_555 1_555
C13 C12 1_555 1_555
C14 C8 1_555 1_555
H17 C14 1_555 1_555
C15 C14 1_555 1_555
H18 C15 1_555 1_555
H19 C15 1_555 1_555
C16 C15 1_555 1_555
H20 C16 1_555 1_555
H21 C16 1_555 1_555
C17 C13 1_555 1_555
H22 C17 1_555 1_555
C18 C9 1_555 1_555
H23 C18 1_555 1_555
H24 C18 1_555 1_555
H25 C18 1_555 1_555
C19 C13 1_555 1_555
H26 C19 1_555 1_555
H27 C19 1_555 1_555
H28 C19 1_555 1_555
C20 C17 1_555 1_555
H29 C20 1_555 1_555
C21 C20 1_555 1_555
H30 C21 1_555 1_555
H31 C21 1_555 1_555
H32 C21 1_555 1_555
C22 C20 1_555 1_555
H33 C22 1_555 1_555
H34 C22 1_555 1_555
C23 C22 1_555 1_555
H35 C23 1_555 1_555
H36 C23 1_555 1_555
C24 C23 1_555 1_555
C25 N1 1_555 1_555
C26 C27 1_555 1_555
C27 H37 1_555 1_555
C28 C27 1_555 1_555
H38 C28 1_555 1_555
C29 C28 1_555 1_555
H39 C29 1_555 1_555
C30 C29 1_555 1_555
H40 C30 1_555 1_555
C31 C26 1_555 1_555
H41 C31 1_555 1_555
C32 N3 1_555 1_555
C33 C34 1_555 1_555
C34 H42 1_555 1_555
C35 C34 1_555 1_555
H43 C35 1_555 1_555
C36 C35 1_555 1_555
H44 C36 1_555 1_555
C37 C36 1_555 1_555
H45 C37 1_555 1_555
C38 C33 1_555 1_555
H46 C38 1_555 1_555
C39 N5 1_555 1_555
C40 C41 1_555 1_555
C41 H47 1_555 1_555
C42 C41 1_555 1_555
H48 C42 1_555 1_555
C43 C42 1_555 1_555
H49 C43 1_555 1_555
C44 C43 1_555 1_555
H50 C44 1_555 1_555
C45 C40 1_555 1_555
H51 C45 1_555 1_555
C46 O2 1_555 1_555
N1 C3 1_555 1_555
H52 N1 1_555 1_555
N2 C25 1_555 1_555
H53 N2 1_555 1_555
N3 C7 1_555 1_555
H54 N3 1_555 1_555
N4 C32 1_555 1_555
H55 N4 1_555 1_555
N5 C12 1_555 1_555
H56 N5 1_555 1_555
N6 C39 1_555 1_555
H57 N6 1_555 1_555
O1 C24 1_555 1_555
O2 C24 1_555 1_555
O3 C25 1_555 1_555
O4 C32 1_555 1_555
O5 C39 1_555 1_555
O6 H58 1_555 1_555
H59 O6 1_555 1_555
C5 C9 1_555 1_555
C9 C10 1_555 1_555
C13 C14 1_555 1_555
C16 C17 1_555 1_555
C26 N2 1_555 1_555
C30 C31 1_555 1_555
C33 N4 1_555 1_555
C37 C38 1_555 1_555
C40 N6 1_555 1_555
C44 C45 1_555 1_555

#END
