
#######################################################################
#
#                 Cambridge Crystallographic Data Centre
#                                CCDC 
#
#######################################################################
#
# If this CIF has been generated from an entry in the Cambridge 
# Structural Database, then it will include bibliographic, chemical, 
# crystal, experimental, refinement or atomic coordinate data resulting 
# from the CCDC's data processing and validation procedures.
#
#######################################################################

data_OCURIP
_chemical_formula_moiety         'C10 H10 N1 O1 1+,Cl1 1-'
_chemical_name_systematic        '5-Methyl-2-phenyl-1,3-oxazol-3-ium chloride'
_symmetry_cell_setting           triclinic
_symmetry_space_group_name_H-M   'P -1'
_symmetry_Int_Tables_number      2
_space_group_name_Hall           '-P 1'
loop_
_symmetry_equiv_pos_site_id
_symmetry_equiv_pos_as_xyz
1 x,y,z
2 -x,-y,-z
_cell_length_a                   5.8142(9)
_cell_length_b                   7.4045(12)
_cell_length_c                   11.726(2)
_cell_angle_alpha                107.293(9)
_cell_angle_beta                 96.640(8)
_cell_angle_gamma                94.259(8)
_cell_volume                     475.615
_exptl_crystal_colour            colorless
_exptl_crystal_description       plate
_cell_formula_units_Z            2
loop_
_atom_site_label
_atom_site_type_symbol
_atom_site_fract_x
_atom_site_fract_y
_atom_site_fract_z
Cl1 Cl -0.90744(5) 0.07345(4) -0.18726(3)
O1 O 0.31132(14) 0.66142(12) 0.74531(7)
N1 N 0.64596(18) 0.83416(15) 0.79838(9)
H1 H 0.7748 0.9013 0.7948
C1 C 0.2115(3) 0.6075(2) 0.93139(13)
H2 H 0.2780 0.6366 1.0164
H3 H 0.1847 0.4692 0.8937
H4 H 0.0632 0.6615 0.9260
C2 C 0.3758(2) 0.69119(18) 0.86797(11)
C3 C 0.4804(2) 0.75190(16) 0.70789(11)
C4 C 0.4674(2) 0.74655(16) 0.58288(11)
C5 C 0.2585(2) 0.67729(17) 0.50504(11)
H5 H 0.1254 0.6345 0.5340
C6 C 0.2463(2) 0.67126(18) 0.38534(12)
H6 H 0.1045 0.6241 0.3318
C7 C 0.4414(2) 0.73417(18) 0.34340(12)
H7 H 0.4321 0.7296 0.2612
C8 C 0.6500(2) 0.80366(18) 0.42067(12)
H8 H 0.7825 0.8463 0.3913
C9 C 0.6640(2) 0.81051(17) 0.54067(11)
H9 H 0.8059 0.8582 0.5940
C10 C 0.5835(2) 0.79728(18) 0.90123(11)
H10 H 0.6713 0.8392 0.9798
loop_
_geom_bond_atom_site_label_1
_geom_bond_atom_site_label_2
_geom_bond_site_symmetry_1
_geom_bond_site_symmetry_2
O1 C2 1_555 1_555
N1 H1 1_555 1_555
C1 H2 1_555 1_555
H3 C1 1_555 1_555
H4 C1 1_555 1_555
C2 C1 1_555 1_555
C3 O1 1_555 1_555
C4 C3 1_555 1_555
C5 C4 1_555 1_555
H5 C5 1_555 1_555
C6 C5 1_555 1_555
H6 C6 1_555 1_555
C7 C6 1_555 1_555
H7 C7 1_555 1_555
C8 C7 1_555 1_555
H8 C8 1_555 1_555
C9 C4 1_555 1_555
H9 C9 1_555 1_555
C10 N1 1_555 1_555
H10 C10 1_555 1_555
N1 C3 1_555 1_555
C2 C10 1_555 1_555
C8 C9 1_555 1_555

#END
