
#######################################################################
#
#                 Cambridge Crystallographic Data Centre
#                                CCDC 
#
#######################################################################
#
# If this CIF has been generated from an entry in the Cambridge 
# Structural Database, then it will include bibliographic, chemical, 
# crystal, experimental, refinement or atomic coordinate data resulting 
# from the CCDC's data processing and validation procedures.
#
#######################################################################

data_OCUSUA02
_chemical_formula_moiety         'C15 H12 N2'
_chemical_name_systematic        4,5-Diphenyl-1H-imidazole
_symmetry_cell_setting           monoclinic
_symmetry_space_group_name_H-M   'P 21/n'
_symmetry_Int_Tables_number      14
_space_group_name_Hall           '-P 2yn'
loop_
_symmetry_equiv_pos_site_id
_symmetry_equiv_pos_as_xyz
1 x,y,z
2 1/2-x,1/2+y,1/2-z
3 -x,-y,-z
4 1/2+x,1/2-y,1/2+z
_cell_length_a                   13.2930(7)
_cell_length_b                   13.0212(7)
_cell_length_c                   14.4123(8)
_cell_angle_alpha                90
_cell_angle_beta                 109.655(2)
_cell_angle_gamma                90
_cell_volume                     2349.29
_exptl_crystal_colour            colorless
_exptl_crystal_description       plate
_cell_formula_units_Z            8
_exptl_crystal_recrystallization_method isopropanol
loop_
_atom_site_label
_atom_site_type_symbol
_atom_site_fract_x
_atom_site_fract_y
_atom_site_fract_z
N1 N 0.18536(9) 0.55261(9) 0.41565(9)
C1 C 0.16458(12) 0.64554(12) 0.37713(11)
H1 H 0.2184(10) 0.7003(10) 0.3861(9)
N2 N 0.06084(9) 0.65852(10) 0.32417(9)
H2 H 0.0308(12) 0.7190(12) 0.2915(11)
C2 C 0.00940(11) 0.56745(11) 0.32747(10)
C3 C 0.08730(11) 0.50237(11) 0.38482(10)
C4 C -0.10649(11) 0.55554(11) 0.27890(10)
C5 C -0.14949(12) 0.46553(12) 0.22920(11)
H3 H -0.1031 0.4123 0.2233
C6 C -0.25900(13) 0.45340(13) 0.18792(11)
H4 H -0.2874 0.3908 0.1560
C7 C -0.32708(13) 0.53174(14) 0.19297(11)
H5 H -0.4022 0.5235 0.1637
C8 C -0.28548(12) 0.62188(13) 0.24094(12)
H6 H -0.3320 0.6761 0.2441
C9 C -0.17629(12) 0.63375(12) 0.28425(11)
H7 H -0.1483 0.6956 0.3181
C10 C 0.07738(11) 0.39562(11) 0.41522(10)
C11 C -0.01301(12) 0.36247(11) 0.43531(10)
H8 H -0.0687 0.4098 0.4315
C12 C -0.02230(12) 0.26160(12) 0.46049(10)
H9 H -0.0849 0.2394 0.4724
C13 C 0.05910(13) 0.19214(12) 0.46876(11)
H10 H 0.0525 0.1228 0.4863
C14 C 0.15020(13) 0.22429(12) 0.45138(11)
H11 H 0.2068 0.1772 0.4581
C15 C 0.15880(12) 0.32527(11) 0.42406(11)
H12 H 0.2212 0.3464 0.4111
N3 N 0.46284(9) 0.66116(9) 0.72072(9)
C16 C 0.37376(12) 0.65471(12) 0.64460(12)
H13 H 0.3179(11) 0.7080(10) 0.6223(10)
N4 N 0.36613(10) 0.56568(9) 0.59541(10)
H14 H 0.3079(12) 0.5488(11) 0.5412(11)
C17 C 0.45621(11) 0.50886(11) 0.64313(10)
C18 C 0.51628(11) 0.56944(11) 0.72028(11)
C19 C 0.47201(11) 0.40563(11) 0.60970(11)
C20 C 0.43465(11) 0.38204(11) 0.50963(11)
H15 H 0.3988 0.4332 0.4633
C21 C 0.44921(12) 0.28505(12) 0.47689(12)
H16 H 0.4223 0.2695 0.4085
C22 C 0.50248(12) 0.21137(13) 0.54322(13)
H17 H 0.5137 0.1452 0.5206
C23 C 0.54010(12) 0.23276(12) 0.64306(13)
H18 H 0.5769 0.1815 0.6888
C24 C 0.52392(12) 0.32899(12) 0.67636(12)
H19 H 0.5482 0.3429 0.7451
C25 C 0.62121(11) 0.55019(11) 0.79603(11)
C26 C 0.70474(12) 0.50314(11) 0.77369(12)
H20 H 0.6952 0.4845 0.7075
C27 C 0.80153(12) 0.48364(12) 0.84703(13)
H21 H 0.8574 0.4506 0.8312
C28 C 0.81669(12) 0.51223(12) 0.94322(12)
H22 H 0.8824 0.4975 0.9937
C29 C 0.73598(13) 0.56208(11) 0.96592(11)
H23 H 0.7473 0.5840 1.0315
C30 C 0.63891(12) 0.58035(11) 0.89287(11)
H24 H 0.5836 0.6138 0.9092
loop_
_geom_bond_atom_site_label_1
_geom_bond_atom_site_label_2
_geom_bond_site_symmetry_1
_geom_bond_site_symmetry_2
N1 C1 1_555 1_555
C1 H1 1_555 1_555
N2 C1 1_555 1_555
H2 N2 1_555 1_555
C2 N2 1_555 1_555
C3 N1 1_555 1_555
C4 C2 1_555 1_555
C5 C4 1_555 1_555
H3 C5 1_555 1_555
C6 C5 1_555 1_555
H4 C6 1_555 1_555
C7 C6 1_555 1_555
H5 C7 1_555 1_555
C8 C7 1_555 1_555
H6 C8 1_555 1_555
C9 C4 1_555 1_555
H7 C9 1_555 1_555
C10 C3 1_555 1_555
C11 C10 1_555 1_555
H8 C11 1_555 1_555
C12 C11 1_555 1_555
H9 C12 1_555 1_555
C13 C12 1_555 1_555
H10 C13 1_555 1_555
C14 C13 1_555 1_555
H11 C14 1_555 1_555
C15 C10 1_555 1_555
H12 C15 1_555 1_555
N3 C16 1_555 1_555
C16 H13 1_555 1_555
N4 C16 1_555 1_555
H14 N4 1_555 1_555
C17 N4 1_555 1_555
C18 N3 1_555 1_555
C19 C17 1_555 1_555
C20 C19 1_555 1_555
H15 C20 1_555 1_555
C21 C20 1_555 1_555
H16 C21 1_555 1_555
C22 C21 1_555 1_555
H17 C22 1_555 1_555
C23 C22 1_555 1_555
H18 C23 1_555 1_555
C24 C19 1_555 1_555
H19 C24 1_555 1_555
C25 C18 1_555 1_555
C26 C25 1_555 1_555
H20 C26 1_555 1_555
C27 C26 1_555 1_555
H21 C27 1_555 1_555
C28 C27 1_555 1_555
H22 C28 1_555 1_555
C29 C28 1_555 1_555
H23 C29 1_555 1_555
C30 C25 1_555 1_555
H24 C30 1_555 1_555
C2 C3 1_555 1_555
C8 C9 1_555 1_555
C14 C15 1_555 1_555
C17 C18 1_555 1_555
C23 C24 1_555 1_555
C29 C30 1_555 1_555

#END
