
#######################################################################
#
#                 Cambridge Crystallographic Data Centre
#                                CCDC 
#
#######################################################################
#
# If this CIF has been generated from an entry in the Cambridge 
# Structural Database, then it will include bibliographic, chemical, 
# crystal, experimental, refinement or atomic coordinate data resulting 
# from the CCDC's data processing and validation procedures.
#
#######################################################################

data_OCUSOX
_chemical_formula_moiety         'C15 H20 O6'
_chemical_name_systematic        
7-hydroxy-2,16-dimethyl-4,11,13-trioxatetracyclo[7.4.3.0^1,9^.0^2,6^]hexadecane-5,12-dione
_symmetry_cell_setting           monoclinic
_symmetry_space_group_name_H-M   'P 21'
_symmetry_Int_Tables_number      4
_space_group_name_Hall           'P 2yb'
loop_
_symmetry_equiv_pos_site_id
_symmetry_equiv_pos_as_xyz
1 x,y,z
2 -x,1/2+y,-z
_cell_length_a                   6.6664(13)
_cell_length_b                   13.451(3)
_cell_length_c                   7.6500(15)
_cell_angle_alpha                90
_cell_angle_beta                 99.38(3)
_cell_angle_gamma                90
_cell_volume                     676.801
_exptl_crystal_colour            colorless
_exptl_crystal_description       block
_cell_formula_units_Z            2
loop_
_atom_site_label
_atom_site_type_symbol
_atom_site_fract_x
_atom_site_fract_y
_atom_site_fract_z
O1 O 0.4075(2) 0.59378(14) 0.5059(2)
O2 O 0.7927(3) 0.31960(13) 1.2574(2)
O3 O 1.0726(2) 0.55030(15) 1.0136(2)
H1 H 1.1671 0.5335 1.0904
O4 O 0.5693(2) 0.44447(12) 0.53028(19)
O5 O 0.5718(2) 0.30382(14) 1.0077(2)
C1 C 0.7096(4) 0.57142(19) 0.9669(3)
H2 H 0.7288 0.6389 1.0114
H3 H 0.5869 0.5457 1.0033
O6 O 0.3939(3) 0.49403(15) 0.2753(2)
C2 C 0.8655(3) 0.40001(19) 0.9884(3)
H4 H 1.0018 0.3712 0.9974
C3 C 0.4563(3) 0.51004(19) 0.4298(3)
C4 C 0.7465(3) 0.33862(18) 1.1026(3)
C5 C 0.8519(4) 0.2949(2) 0.7159(3)
H5 H 0.7811 0.2827 0.5982
H6 H 0.8468 0.2364 0.7869
H7 H 0.9911 0.3112 0.7110
C6 C 0.6785(3) 0.57441(16) 0.7624(3)
C7 C 0.7511(3) 0.38143(18) 0.7979(3)
C8 C 0.7329(3) 0.47405(18) 0.6788(3)
C9 C 0.4541(3) 0.5968(2) 0.6984(3)
H8 H 0.3711 0.5483 0.7476
H9 H 0.4216 0.6621 0.7397
C10 C 0.8192(3) 0.65362(19) 0.6939(3)
H10 H 0.9380 0.6617 0.7867
C11 C 0.8934(3) 0.6041(2) 0.5368(3)
H11 H 0.7940 0.6107 0.4297
H12 H 1.0213 0.6326 0.5165
C12 C 0.7278(4) 0.75638(19) 0.6551(3)
H13 H 0.8263 0.7991 0.6148
H14 H 0.6896 0.7835 0.7611
H15 H 0.6098 0.7515 0.5650
C13 C 0.5402(4) 0.3463(2) 0.8320(3)
H16 H 0.4466 0.4019 0.8253
H17 H 0.4845 0.2970 0.7449
C14 C 0.9198(3) 0.49598(19) 0.5936(3)
H18 H 0.9239 0.4531 0.4923
H19 H 1.0437 0.4869 0.6780
C15 C 0.8883(3) 0.5089(2) 1.0518(3)
H20 H 0.8927 0.5099 1.1805
loop_
_geom_bond_atom_site_label_1
_geom_bond_atom_site_label_2
_geom_bond_site_symmetry_1
_geom_bond_site_symmetry_2
O1 C3 1_555 1_555
O2 C4 1_555 1_555
O3 H1 1_555 1_555
O4 C3 1_555 1_555
O5 C4 1_555 1_555
C1 H2 1_555 1_555
H3 C1 1_555 1_555
O6 C3 1_555 1_555
C2 H4 1_555 1_555
C4 C2 1_555 1_555
C5 H5 1_555 1_555
H6 C5 1_555 1_555
H7 C5 1_555 1_555
C6 C1 1_555 1_555
C7 C2 1_555 1_555
C8 O4 1_555 1_555
C9 O1 1_555 1_555
H8 C9 1_555 1_555
H9 C9 1_555 1_555
C10 C6 1_555 1_555
H10 C10 1_555 1_555
C11 C10 1_555 1_555
H11 C11 1_555 1_555
H12 C11 1_555 1_555
C12 C10 1_555 1_555
H13 C12 1_555 1_555
H14 C12 1_555 1_555
H15 C12 1_555 1_555
C13 O5 1_555 1_555
H16 C13 1_555 1_555
H17 C13 1_555 1_555
C14 C8 1_555 1_555
H18 C14 1_555 1_555
H19 C14 1_555 1_555
C15 O3 1_555 1_555
H20 C15 1_555 1_555
C1 C15 1_555 1_555
C2 C15 1_555 1_555
C5 C7 1_555 1_555
C6 C8 1_555 1_555
C6 C9 1_555 1_555
C7 C8 1_555 1_555
C7 C13 1_555 1_555
C11 C14 1_555 1_555

#END
