
#######################################################################
#
#                 Cambridge Crystallographic Data Centre
#                                CCDC 
#
#######################################################################
#
# If this CIF has been generated from an entry in the Cambridge 
# Structural Database, then it will include bibliographic, chemical, 
# crystal, experimental, refinement or atomic coordinate data resulting 
# from the CCDC's data processing and validation procedures.
#
#######################################################################

data_OCUWAN
_chemical_formula_moiety         'C12 H12 O3'
_chemical_name_systematic        2-(1,4-dioxan-2-yl)-1-benzofuran
_symmetry_cell_setting           monoclinic
_symmetry_space_group_name_H-M   'C 2/c'
_symmetry_Int_Tables_number      15
_space_group_name_Hall           '-C 2yn'
loop_
_symmetry_equiv_pos_site_id
_symmetry_equiv_pos_as_xyz
1 x,y,z
2 -x,y,1/2-z
3 1/2+x,1/2+y,z
4 1/2-x,1/2+y,1/2-z
5 -x,-y,-z
6 x,-y,1/2+z
7 1/2-x,1/2-y,-z
8 1/2+x,1/2-y,1/2+z
_cell_length_a                   45.940(2)
_cell_length_b                   5.2291(2)
_cell_length_c                   8.7430(4)
_cell_angle_alpha                90
_cell_angle_beta                 103.163(5)
_cell_angle_gamma                90
_cell_volume                     2045.1
_exptl_crystal_colour            colorless
_exptl_crystal_description       prismatic
_cell_formula_units_Z            8
loop_
_atom_site_label
_atom_site_type_symbol
_atom_site_fract_x
_atom_site_fract_y
_atom_site_fract_z
C1 C 0.30030(3) 0.5627(3) 0.3052(2)
H1 H 0.2940 0.4255 0.2381
C2 C 0.27988(4) 0.7143(4) 0.3549(2)
H2 H 0.2596 0.6790 0.3210
C3 C 0.28900(4) 0.9190(4) 0.4548(2)
H3 H 0.2747 1.0181 0.4869
C4 C 0.31884(4) 0.9795(3) 0.5079(2)
H4 H 0.3251 1.1169 0.5748
C5 C 0.33888(3) 0.8248(3) 0.45607(16)
C6 C 0.33067(3) 0.6180(3) 0.35724(16)
C7 C 0.35820(3) 0.5149(3) 0.33159(17)
H5 H 0.3602 0.3742 0.2698
C8 C 0.38035(3) 0.6593(3) 0.41327(15)
C9 C 0.41309(3) 0.6545(3) 0.42844(15)
H6 H 0.4177 0.5295 0.3537
C10 C 0.42541(3) 0.9122(3) 0.39518(17)
H7 H 0.4163 0.9638 0.2885
H8 H 0.4204 1.0391 0.4660
C11 C 0.47076(3) 0.8214(3) 0.57028(18)
H9 H 0.4667 0.9456 0.6452
H10 H 0.4922 0.8110 0.5822
C12 C 0.45888(3) 0.5655(3) 0.60294(19)
H11 H 0.4639 0.4397 0.5315
H12 H 0.4682 0.5134 0.7093
O1 O 0.36951(2) 0.85284(18) 0.49255(11)
O2 O 0.45708(2) 0.9019(2) 0.41478(11)
O3 O 0.42723(2) 0.57395(18) 0.58451(11)
loop_
_geom_bond_atom_site_label_1
_geom_bond_atom_site_label_2
_geom_bond_site_symmetry_1
_geom_bond_site_symmetry_2
C1 H1 1_555 1_555
C2 C1 1_555 1_555
H2 C2 1_555 1_555
C3 C2 1_555 1_555
H3 C3 1_555 1_555
C4 C3 1_555 1_555
H4 C4 1_555 1_555
C5 C4 1_555 1_555
C6 C1 1_555 1_555
C7 C6 1_555 1_555
H5 C7 1_555 1_555
C8 C7 1_555 1_555
C9 C8 1_555 1_555
H6 C9 1_555 1_555
C10 C9 1_555 1_555
H7 C10 1_555 1_555
H8 C10 1_555 1_555
C11 H9 1_555 1_555
H10 C11 1_555 1_555
C12 C11 1_555 1_555
H11 C12 1_555 1_555
H12 C12 1_555 1_555
O1 C5 1_555 1_555
O2 C10 1_555 1_555
O3 C9 1_555 1_555
C5 C6 1_555 1_555
C8 O1 1_555 1_555
C11 O2 1_555 1_555
C12 O3 1_555 1_555

#END
