
#######################################################################
#
#                 Cambridge Crystallographic Data Centre
#                                CCDC 
#
#######################################################################
#
# If this CIF has been generated from an entry in the Cambridge 
# Structural Database, then it will include bibliographic, chemical, 
# crystal, experimental, refinement or atomic coordinate data resulting 
# from the CCDC's data processing and validation procedures.
#
#######################################################################

data_OCUWUH
_chemical_formula_moiety         'C18 H18 N2 2+,2(F6 P1 1-)'
_chemical_name_systematic        
"N,N'-dibenzyl-4,4'-bipyridinium bis(hexafluorophosphate)"
_symmetry_cell_setting           orthorhombic
_symmetry_space_group_name_H-M   'P 21 21 21'
_symmetry_Int_Tables_number      19
_space_group_name_Hall           'P 2ac 2ab'
loop_
_symmetry_equiv_pos_site_id
_symmetry_equiv_pos_as_xyz
1 x,y,z
2 1/2-x,-y,1/2+z
3 -x,1/2+y,1/2-z
4 1/2+x,1/2-y,-z
_cell_length_a                   9.955(6)
_cell_length_b                   9.955(6)
_cell_length_c                   22.426(1)
_cell_angle_alpha                90
_cell_angle_beta                 90
_cell_angle_gamma                90
_cell_volume                     2222.46
_exptl_crystal_colour            colorless
_exptl_crystal_description       block
_cell_formula_units_Z            4
loop_
_atom_site_label
_atom_site_type_symbol
_atom_site_fract_x
_atom_site_fract_y
_atom_site_fract_z
P1 P 0.11870(17) 0.45015(15) 0.84317(7)
F1 F 0.0204(4) 0.5603(4) 0.82060(19)
F2 F 0.2179(4) 0.3401(4) 0.8679(2)
F3 F 0.2384(4) 0.5485(4) 0.8381(3)
F4 F -0.0031(5) 0.3543(4) 0.8501(3)
F5 F 0.0958(5) 0.5040(5) 0.90885(18)
F6 F 0.1322(8) 0.3921(6) 0.78030(19)
P2 P 0.95092(16) 0.09830(17) 0.37190(7)
F7 F 0.8154(5) 0.1770(5) 0.3711(2)
F8 F 0.9751(6) 0.1444(9) 0.3086(2)
F9 F 1.0854(4) 0.0202(6) 0.3749(2)
F10 F 0.9284(5) 0.0546(9) 0.4372(2)
F11 F 0.8696(8) -0.0251(6) 0.3552(5)
F12 F 1.0268(10) 0.2169(7) 0.3935(5)
N1 N 0.1615(5) 0.0445(6) 0.20538(18)
N2 N 0.5766(4) 0.0619(6) 0.45410(19)
C1 C 0.3392(5) 0.0534(5) 0.29874(19)
C2 C 0.4242(5) 0.0577(5) 0.3515(2)
C3 C 0.2875(6) -0.0656(5) 0.2776(2)
H1 H 0.3125 -0.1464 0.2952
C4 C 0.1993(7) -0.0656(7) 0.2307(2)
H2 H 0.1659 -0.1470 0.2167
C5 C 0.1170(5) 0.0814(5) 0.0977(2)
C6 C 0.2993(6) 0.1693(5) 0.2694(2)
H3 H 0.3342 0.2517 0.2813
C7 C 0.4144(6) 0.1628(5) 0.3922(2)
H4 H 0.3545 0.2327 0.3851
C8 C 0.5151(5) -0.0422(6) 0.3655(2)
H5 H 0.5249 -0.1147 0.3397
C9 C 0.2093(6) 0.1649(6) 0.2231(2)
H6 H 0.1818 0.2434 0.2042
C10 C 0.6581(6) 0.0628(9) 0.5088(3)
H7 H 0.7020 -0.0225 0.5133
H8 H 0.6011 0.0788 0.5426
H9 H 0.7244 0.1325 0.5062
C11 C 0.5894(6) -0.0372(7) 0.4153(3)
H10 H 0.6514 -0.1051 0.4227
C12 C 0.4932(7) 0.1639(6) 0.4431(2)
H11 H 0.4880 0.2357 0.4696
C13 C 0.2215(6) 0.0081(7) 0.0728(2)
H12 H 0.2584 -0.0635 0.0939
C14 C 0.0684(7) 0.1908(6) 0.0661(3)
H13 H 0.0003 0.2438 0.0820
C15 C 0.2210(8) 0.1443(8) -0.0126(3)
H14 H 0.2546 0.1649 -0.0502
C16 C 0.2712(7) 0.0401(8) 0.0174(3)
H15 H 0.3399 -0.0110 0.0009
C17 C 0.0563(6) 0.0452(8) 0.1573(2)
H16 H -0.0132 0.1096 0.1674
H17 H 0.0151 -0.0429 0.1548
C18 C 0.1214(9) 0.2206(8) 0.0110(3)
H18 H 0.0887 0.2938 -0.0102
loop_
_geom_bond_atom_site_label_1
_geom_bond_atom_site_label_2
_geom_bond_site_symmetry_1
_geom_bond_site_symmetry_2
P1 F1 1_555 1_555
F2 P1 1_555 1_555
F3 P1 1_555 1_555
F4 P1 1_555 1_555
F5 P1 1_555 1_555
F6 P1 1_555 1_555
P2 F7 1_555 1_555
F8 P2 1_555 1_555
F9 P2 1_555 1_555
F10 P2 1_555 1_555
F11 P2 1_555 1_555
F12 P2 1_555 1_555
N1 C4 1_555 1_555
N2 C10 1_555 1_555
C1 C2 1_555 1_555
C2 C7 1_555 1_555
C3 C1 1_555 1_555
H1 C3 1_555 1_555
C4 C3 1_555 1_555
H2 C4 1_555 1_555
C5 C13 1_555 1_555
C6 C1 1_555 1_555
H3 C6 1_555 1_555
C7 H4 1_555 1_555
C8 C2 1_555 1_555
H5 C8 1_555 1_555
C9 N1 1_555 1_555
H6 C9 1_555 1_555
C10 H7 1_555 1_555
H8 C10 1_555 1_555
H9 C10 1_555 1_555
C11 N2 1_555 1_555
H10 C11 1_555 1_555
C12 N2 1_555 1_555
H11 C12 1_555 1_555
C13 H12 1_555 1_555
C14 C5 1_555 1_555
H13 C14 1_555 1_555
C15 H14 1_555 1_555
C16 C13 1_555 1_555
H15 C16 1_555 1_555
C17 N1 1_555 1_555
H16 C17 1_555 1_555
H17 C17 1_555 1_555
C18 C14 1_555 1_555
H18 C18 1_555 1_555
C5 C17 1_555 1_555
C6 C9 1_555 1_555
C7 C12 1_555 1_555
C8 C11 1_555 1_555
C15 C16 1_555 1_555
C15 C18 1_555 1_555

#END
