
#######################################################################
#
#                 Cambridge Crystallographic Data Centre
#                                CCDC 
#
#######################################################################
#
# If this CIF has been generated from an entry in the Cambridge 
# Structural Database, then it will include bibliographic, chemical, 
# crystal, experimental, refinement or atomic coordinate data resulting 
# from the CCDC's data processing and validation procedures.
#
#######################################################################

data_OCUXAO
_chemical_formula_moiety         'C36 H54 O12,C24 H22 N2 2+,2(F6 P1 1-),H2 O1'
_chemical_name_systematic        
"N,N'-dibenzyl-4,4'-bipyridinium bis(hexafluorophosphate) 4,7,10,13,16,22,25,28,31,34,38,45-dodecaoxatetracyclo[17.17.10.1^3,35^.1^17,21^]octatetraconta-1,3(47),17(48),18,20,35-hexaene monohydrate"
_symmetry_cell_setting           monoclinic
_symmetry_space_group_name_H-M   'P 21'
_symmetry_Int_Tables_number      4
_space_group_name_Hall           'P 2yb'
loop_
_symmetry_equiv_pos_site_id
_symmetry_equiv_pos_as_xyz
1 x,y,z
2 -x,1/2+y,-z
_cell_length_a                   10.3329(13)
_cell_length_b                   19.779(2)
_cell_length_c                   15.6615(19)
_cell_angle_alpha                90
_cell_angle_beta                 91.404(2)
_cell_angle_gamma                90
_cell_volume                     3199.85
_exptl_crystal_colour            red
_exptl_crystal_description       block
_cell_formula_units_Z            2
loop_
_atom_site_label
_atom_site_type_symbol
_atom_site_fract_x
_atom_site_fract_y
_atom_site_fract_z
O1 O 0.72984(19) 0.37512(10) 0.53901(11)
O2 O 0.61613(19) 0.38627(10) 0.37414(12)
O3 O 0.4141(2) 0.37318(11) 0.24648(12)
O4 O 0.1834(2) 0.31577(10) 0.31027(12)
O5 O 0.0476(2) 0.34967(10) 0.45539(12)
O6 O 0.0538(2) 0.28705(10) 0.74904(11)
O7 O 0.1576(2) 0.20093(11) 0.87507(14)
O8 O 0.3585(2) 0.09668(10) 0.88016(13)
O9 O 0.6057(2) 0.11627(10) 0.80497(13)
O10 O 0.7364(2) 0.24524(10) 0.79449(12)
O11 O 0.5709(2) 0.49063(10) 0.84613(12)
O12 O 0.1619(2) 0.55335(10) 0.68227(15)
C1 C 0.7153(3) 0.43313(15) 0.67576(18)
H1 H 0.7083 0.4765 0.6500
C2 C 0.7147(3) 0.42591(15) 0.76484(18)
C3 C 0.0537(3) 0.31723(15) 0.60532(17)
H2 H 0.0584 0.2705 0.5919
C4 C 0.0429(3) 0.43357(14) 0.56077(17)
H3 H 0.0390 0.4662 0.5163
C5 C 0.7322(3) 0.30563(15) 0.75109(18)
C6 C 0.7255(3) 0.42516(15) 0.40263(18)
H4 H 0.7280 0.4684 0.3709
H5 H 0.8063 0.4000 0.3916
C7 C 0.7359(3) 0.31151(14) 0.66339(17)
H6 H 0.7447 0.2724 0.6288
C8 C 0.0525(3) 0.33848(15) 0.69022(18)
C9 C 0.7232(3) 0.36322(15) 0.80239(18)
H7 H 0.7230 0.3590 0.8628
C10 C 0.0491(3) 0.40637(14) 0.71072(18)
H8 H 0.0505 0.4205 0.7687
C11 C 0.7265(3) 0.37514(15) 0.62605(17)
C12 C 0.7024(3) 0.48703(16) 0.8210(2)
H9 H 0.7606 0.4829 0.8719
H10 H 0.7262 0.5284 0.7894
C13 C 0.0551(3) 0.30560(16) 0.83730(17)
H11 H -0.0200 0.3350 0.8489
H12 H 0.1352 0.3310 0.8518
C14 C 0.0479(3) 0.36502(15) 0.54112(17)
C15 C 0.7158(3) 0.43876(14) 0.49599(18)
H13 H 0.7850 0.4703 0.5152
H14 H 0.6309 0.4592 0.5084
C16 C 0.0435(3) 0.45392(14) 0.64471(18)
C17 C 0.7418(3) 0.12603(15) 0.80265(18)
H15 H 0.7841 0.0854 0.7792
H16 H 0.7775 0.1342 0.8610
C18 C 0.7659(3) 0.18591(15) 0.74704(18)
H17 H 0.8576 0.1868 0.7301
H18 H 0.7105 0.1835 0.6947
C19 C 0.0677(3) 0.28028(15) 0.43375(18)
H19 H -0.0057 0.2525 0.4530
H20 H 0.1480 0.2633 0.4621
C20 C 0.6333(3) 0.36038(16) 0.29090(19)
H21 H 0.7074 0.3286 0.2914
H22 H 0.6528 0.3979 0.2514
C21 C 0.5138(3) 0.32465(15) 0.2606(2)
H23 H 0.5307 0.3001 0.2070
H24 H 0.4869 0.2914 0.3040
C22 C 0.0357(3) 0.52834(15) 0.6671(2)
H25 H -0.0067 0.5536 0.6195
H26 H -0.0165 0.5344 0.7187
C23 C 0.0488(3) 0.24300(17) 0.89023(19)
H27 H 0.0475 0.2553 0.9515
H28 H -0.0319 0.2181 0.8759
C24 C 0.5718(3) 0.05682(16) 0.8502(2)
H29 H 0.5939 0.0621 0.9117
H30 H 0.6201 0.0175 0.8282
C25 C 0.4300(4) 0.04580(16) 0.8380(2)
H31 H 0.4073 0.0464 0.7762
H32 H 0.4066 0.0009 0.8608
C26 C 0.1591(4) 0.62336(17) 0.7052(3)
H33 H 0.1060 0.6298 0.7563
H34 H 0.1204 0.6503 0.6577
C27 C 0.5045(4) 0.63040(18) 0.8088(3)
H35 H 0.5467 0.6078 0.7605
H36 H 0.5166 0.6797 0.8016
C28 C 0.3610(4) 0.61533(17) 0.8028(3)
H37 H 0.3190 0.6332 0.8543
H38 H 0.3481 0.5657 0.8017
C29 C 0.1477(3) 0.13758(19) 0.9177(2)
H39 H 0.0556 0.1240 0.9202
H40 H 0.1824 0.1417 0.9770
C30 C 0.0783(3) 0.27569(16) 0.33838(19)
H41 H 0.0919 0.2280 0.3216
H42 H -0.0032 0.2916 0.3106
C31 C 0.2296(3) 0.29501(18) 0.23028(18)
H43 H 0.1556 0.2846 0.1911
H44 H 0.2824 0.2536 0.2374
C32 C 0.5513(4) 0.53676(19) 0.9147(2)
H45 H 0.6107 0.5248 0.9629
H46 H 0.4616 0.5319 0.9345
C33 C 0.2223(4) 0.08503(18) 0.8709(3)
H47 H 0.2013 0.0397 0.8934
H48 H 0.1968 0.0861 0.8095
C34 C 0.5737(4) 0.60913(18) 0.8904(3)
H49 H 0.6678 0.6164 0.8841
H50 H 0.5449 0.6385 0.9374
C35 C 0.3101(3) 0.35031(18) 0.19302(19)
H51 H 0.3458 0.3339 0.1387
H52 H 0.2530 0.3892 0.1794
C36 C 0.2961(4) 0.64622(19) 0.7236(3)
H53 H 0.2961 0.6960 0.7301
H54 H 0.3489 0.6353 0.6736
N1 N 0.4098(2) 0.29504(12) 0.86771(13)
N2 N 0.3619(2) 0.45649(12) 0.47109(14)
C37 C 0.3821(3) 0.38910(14) 0.62500(17)
C38 C 0.3658(3) 0.35411(14) 0.54823(17)
H55 H 0.3621 0.3061 0.5485
C39 C 0.3902(2) 0.35505(13) 0.70920(17)
C40 C 0.3551(3) 0.38849(15) 0.47197(18)
H56 H 0.3428 0.3643 0.4200
C41 C 0.3794(3) 0.49173(15) 0.54370(18)
H57 H 0.3842 0.5397 0.5415
C42 C 0.4315(3) 0.25775(14) 0.79765(17)
H58 H 0.4533 0.2113 0.8033
C43 C 0.3904(3) 0.45960(14) 0.62072(17)
H59 H 0.4037 0.4852 0.6715
C44 C 0.2100(3) 0.52288(14) 0.38021(17)
C45 C 0.3452(3) 0.49458(16) 0.38921(18)
H60 H 0.3620 0.4641 0.3406
H61 H 0.4087 0.5320 0.3878
C46 C 0.3647(3) 0.39125(15) 0.78302(18)
H62 H 0.3392 0.4373 0.7793
C47 C 0.5577(3) 0.28003(15) 0.99323(16)
C48 C 0.3762(3) 0.36062(15) 0.86023(18)
H63 H 0.3603 0.3860 0.9104
C49 C 0.4254(3) 0.26434(16) 0.95423(17)
H64 H 0.4142 0.2147 0.9499
H65 H 0.3576 0.2821 0.9917
C50 C 0.4222(3) 0.28669(14) 0.71771(17)
H66 H 0.4376 0.2602 0.6684
C51 C 0.1168(3) 0.48864(15) 0.33141(18)
H67 H 0.1382 0.4475 0.3038
C52 C -0.0075(3) 0.51467(17) 0.3232(2)
H68 H -0.0699 0.4922 0.2879
C53 C 0.5872(3) 0.34401(16) 1.02492(18)
H69 H 0.5227 0.3782 1.0247
C54 C 0.1753(3) 0.58217(15) 0.42210(19)
H70 H 0.2382 0.6060 0.4555
C55 C 0.0502(4) 0.60658(17) 0.4155(2)
H71 H 0.0270 0.6465 0.4451
C56 C -0.0413(3) 0.57257(18) 0.3655(2)
H72 H -0.1273 0.5893 0.3605
C57 C 0.8035(3) 0.3078(2) 1.0594(2)
H73 H 0.8879 0.3174 1.0815
C58 C 0.7107(4) 0.35794(19) 1.0569(2)
H74 H 0.7314 0.4020 1.0771
C59 C 0.6511(3) 0.23003(17) 0.99681(18)
H75 H 0.6311 0.1859 0.9764
C60 C 0.7739(3) 0.2439(2) 1.0300(2)
H76 H 0.8376 0.2093 1.0325
P1 P 0.12121(9) 0.46979(5) 0.00637(6)
F1 F 0.1467(3) 0.54910(12) 0.00243(15)
F2 F 0.1440(2) 0.46428(12) -0.09363(12)
F3 F 0.1025(3) 0.39005(13) 0.01055(15)
F4 F 0.1054(2) 0.47540(15) 0.10613(13)
F5 F -0.0280(2) 0.4810(2) -0.00938(19)
F6 F 0.2731(2) 0.45703(11) 0.02213(13)
P2 P 0.36885(9) 0.14355(4) 0.48494(6)
F7 F 0.4147(3) 0.09559(13) 0.40992(16)
F8 F 0.2237(2) 0.12746(12) 0.45880(16)
F9 F 0.3725(2) 0.08008(9) 0.54771(14)
F10 F 0.3192(3) 0.18914(10) 0.56051(14)
F11 F 0.5148(2) 0.15732(14) 0.5113(2)
F12 F 0.3684(2) 0.20752(11) 0.42362(14)
O13 O 0.7393(4) 0.24294(16) 0.4563(2)
H77 H 0.7692 0.2096 0.4288
H78 H 0.7706 0.2410 0.5070
loop_
_geom_bond_atom_site_label_1
_geom_bond_atom_site_label_2
_geom_bond_site_symmetry_1
_geom_bond_site_symmetry_2
O1 C11 1_555 1_555
O2 C6 1_555 1_555
O3 C21 1_555 1_555
O4 C30 1_555 1_555
O5 C14 1_555 1_555
O6 C8 1_555 1_555
O7 C23 1_555 1_555
O8 C25 1_555 1_555
O9 C17 1_555 1_555
O10 C5 1_555 1_555
O11 C12 1_555 1_555
O12 C22 1_555 1_555
C1 H1 1_555 1_555
C2 C1 1_555 1_555
C3 H2 1_555 1_555
C4 H3 1_555 1_555
C5 C7 1_555 1_555
C6 H4 1_555 1_555
H5 C6 1_555 1_555
C7 H6 1_555 1_555
C8 C3 1_555 1_555
C9 C2 1_555 1_555
H7 C9 1_555 1_555
C10 C8 1_555 1_555
H8 C10 1_555 1_555
C11 C1 1_555 1_555
C12 C2 1_555 1_555
H9 C12 1_555 1_555
H10 C12 1_555 1_555
C13 O6 1_555 1_555
H11 C13 1_555 1_555
H12 C13 1_555 1_555
C14 C3 1_555 1_555
C15 O1 1_555 1_555
H13 C15 1_555 1_555
H14 C15 1_555 1_555
C16 C4 1_555 1_555
C17 H15 1_555 1_555
H16 C17 1_555 1_555
C18 O10 1_555 1_555
H17 C18 1_555 1_555
H18 C18 1_555 1_555
C19 O5 1_555 1_555
H19 C19 1_555 1_555
H20 C19 1_555 1_555
C20 O2 1_555 1_555
H21 C20 1_555 1_555
H22 C20 1_555 1_555
C21 C20 1_555 1_555
H23 C21 1_555 1_555
H24 C21 1_555 1_555
C22 C16 1_555 1_555
H25 C22 1_555 1_555
H26 C22 1_555 1_555
C23 C13 1_555 1_555
H27 C23 1_555 1_555
H28 C23 1_555 1_555
C24 O9 1_555 1_555
H29 C24 1_555 1_555
H30 C24 1_555 1_555
C25 C24 1_555 1_555
H31 C25 1_555 1_555
H32 C25 1_555 1_555
C26 O12 1_555 1_555
H33 C26 1_555 1_555
H34 C26 1_555 1_555
C27 H35 1_555 1_555
H36 C27 1_555 1_555
C28 C27 1_555 1_555
H37 C28 1_555 1_555
H38 C28 1_555 1_555
C29 O7 1_555 1_555
H39 C29 1_555 1_555
H40 C29 1_555 1_555
C30 C19 1_555 1_555
H41 C30 1_555 1_555
H42 C30 1_555 1_555
C31 O4 1_555 1_555
H43 C31 1_555 1_555
H44 C31 1_555 1_555
C32 O11 1_555 1_555
H45 C32 1_555 1_555
H46 C32 1_555 1_555
C33 O8 1_555 1_555
H47 C33 1_555 1_555
H48 C33 1_555 1_555
C34 C27 1_555 1_555
H49 C34 1_555 1_555
H50 C34 1_555 1_555
C35 O3 1_555 1_555
H51 C35 1_555 1_555
H52 C35 1_555 1_555
C36 C26 1_555 1_555
H53 C36 1_555 1_555
H54 C36 1_555 1_555
N1 C42 1_555 1_555
N2 C40 1_555 1_555
C37 C38 1_555 1_555
C38 H55 1_555 1_555
C39 C37 1_555 1_555
C40 C38 1_555 1_555
H56 C40 1_555 1_555
C41 N2 1_555 1_555
H57 C41 1_555 1_555
C42 H58 1_555 1_555
C43 C37 1_555 1_555
H59 C43 1_555 1_555
C44 C45 1_555 1_555
C45 N2 1_555 1_555
H60 C45 1_555 1_555
H61 C45 1_555 1_555
C46 C39 1_555 1_555
H62 C46 1_555 1_555
C47 C49 1_555 1_555
C48 N1 1_555 1_555
H63 C48 1_555 1_555
C49 N1 1_555 1_555
H64 C49 1_555 1_555
H65 C49 1_555 1_555
C50 C39 1_555 1_555
H66 C50 1_555 1_555
C51 C44 1_555 1_555
H67 C51 1_555 1_555
C52 C51 1_555 1_555
H68 C52 1_555 1_555
C53 C47 1_555 1_555
H69 C53 1_555 1_555
C54 C44 1_555 1_555
H70 C54 1_555 1_555
C55 C54 1_555 1_555
H71 C55 1_555 1_555
C56 C52 1_555 1_555
H72 C56 1_555 1_555
C57 H73 1_555 1_555
C58 C53 1_555 1_555
H74 C58 1_555 1_555
C59 C47 1_555 1_555
H75 C59 1_555 1_555
C60 C57 1_555 1_555
H76 C60 1_555 1_555
P1 F1 1_555 1_555
F2 P1 1_555 1_555
F3 P1 1_555 1_555
F4 P1 1_555 1_555
F5 P1 1_555 1_555
F6 P1 1_555 1_555
P2 F7 1_555 1_555
F8 P2 1_555 1_555
F9 P2 1_555 1_555
F10 P2 1_555 1_555
F11 P2 1_555 1_555
F12 P2 1_555 1_555
O13 H77 1_555 1_555
H78 O13 1_555 1_555
C4 C14 1_555 1_555
C5 C9 1_555 1_555
C6 C15 1_555 1_555
C7 C11 1_555 1_555
C10 C16 1_555 1_555
C17 C18 1_555 1_555
C28 C36 1_555 1_555
C29 C33 1_555 1_555
C31 C35 1_555 1_555
C32 C34 1_555 1_555
C41 C43 1_555 1_555
C42 C50 1_555 1_555
C46 C48 1_555 1_555
C55 C56 1_555 1_555
C57 C58 1_555 1_555
C59 C60 1_555 1_555

#END
