
#######################################################################
#
#                 Cambridge Crystallographic Data Centre
#                                CCDC 
#
#######################################################################
#
# If this CIF has been generated from an entry in the Cambridge 
# Structural Database, then it will include bibliographic, chemical, 
# crystal, experimental, refinement or atomic coordinate data resulting 
# from the CCDC's data processing and validation procedures.
#
#######################################################################

data_OCUXES
_chemical_formula_moiety         'C30 H38 Cl2 N2 O2 S2'
_chemical_name_systematic        
3,6-bis(5-chloro-2-thienyl)-2,5-bis(2-ethylhexyl)-2,5-dihydropyrrolo[3,4-c]pyrrole-1,4-dione
_symmetry_cell_setting           triclinic
_symmetry_space_group_name_H-M   'P -1'
_symmetry_Int_Tables_number      2
_space_group_name_Hall           '-P 1'
loop_
_symmetry_equiv_pos_site_id
_symmetry_equiv_pos_as_xyz
1 x,y,z
2 -x,-y,-z
_cell_length_a                   6.5747(4)
_cell_length_b                   7.8394(5)
_cell_length_c                   14.9616(10)
_cell_angle_alpha                100.785(3)
_cell_angle_beta                 100.795(3)
_cell_angle_gamma                90.027(3)
_cell_volume                     743.615
_exptl_crystal_colour            red
_exptl_crystal_description       plate
_cell_formula_units_Z            1
loop_
_atom_site_label
_atom_site_type_symbol
_atom_site_fract_x
_atom_site_fract_y
_atom_site_fract_z
C1 C 0.3571(3) 1.2670(3) 0.16755(14)
C2 C 0.4137(4) 1.3586(3) 0.10804(17)
H1 H 0.3519 1.4596 0.0943
C3 C 0.5787(4) 1.2816(3) 0.06921(16)
H2 H 0.6377 1.3275 0.0266
C4 C 0.6448(3) 1.1329(2) 0.09987(12)
C5 C 0.8112(3) 1.0319(2) 0.06968(12)
C6 C 0.9259(3) 1.0639(2) 0.00524(12)
C7 C 1.0529(3) 0.8167(2) 0.05561(12)
C8 C 0.8180(3) 0.7908(3) 0.16597(13)
H3 H 0.8627 0.6720 0.1552
H4 H 0.6677 0.7870 0.1540
C9 C 0.8981(3) 0.8741(3) 0.26831(14)
H5 H 0.8704 0.9982 0.2747
C10 C 0.7721(4) 0.8002(3) 0.33017(16)
H6 H 0.8034 0.8718 0.3917
H7 H 0.6262 0.8109 0.3059
C11 C 0.8080(4) 0.6116(3) 0.33920(16)
H8 H 0.7730 0.5381 0.2783
H9 H 0.9538 0.5989 0.3631
C12 C 0.6807(5) 0.5507(4) 0.4027(2)
H10 H 0.7070 0.6308 0.4619
H11 H 0.5349 0.5550 0.3760
C13 C 0.7251(6) 0.3700(4) 0.4195(2)
H12 H 0.6979 0.2894 0.3615
H13 H 0.6380 0.3398 0.4594
H14 H 0.8678 0.3655 0.4483
C14 C 1.1312(4) 0.8605(3) 0.29667(15)
H15 H 1.1632 0.7392 0.2945
H16 H 1.1987 0.9027 0.2522
C15 C 1.2184(5) 0.9619(4) 0.39257(19)
H17 H 1.1732 1.0791 0.3977
H18 H 1.3670 0.9625 0.4030
H19 H 1.1704 0.9084 0.4379
Cl1 Cl 0.16585(9) 1.31596(8) 0.23114(4)
N1 N 0.8893(3) 0.8827(2) 0.10057(10)
O1 O 1.1440(2) 0.68680(19) 0.07187(11)
S1 S 0.49889(8) 1.08680(7) 0.17765(4)
C1A C 1.6429(3) 0.7330(3) -0.16755(14)
C2A C 1.5863(4) 0.6414(3) -0.10804(17)
H1A H 1.6481 0.5404 -0.0943
C3A C 1.4213(4) 0.7184(3) -0.06921(16)
H2A H 1.3623 0.6725 -0.0266
C4A C 1.3552(3) 0.8671(2) -0.09987(12)
C5A C 1.1888(3) 0.9681(2) -0.06968(12)
C6A C 1.0741(3) 0.9361(2) -0.00524(12)
C7A C 0.9471(3) 1.1833(2) -0.05561(12)
C8A C 1.1820(3) 1.2092(3) -0.16597(13)
H3A H 1.1373 1.3280 -0.1552
H4A H 1.3323 1.2130 -0.1540
C9A C 1.1019(3) 1.1259(3) -0.26831(14)
H5A H 1.1296 1.0018 -0.2747
C10A C 1.2279(4) 1.1998(3) -0.33017(16)
H6A H 1.1966 1.1282 -0.3917
H7A H 1.3738 1.1891 -0.3059
C11A C 1.1920(4) 1.3884(3) -0.33920(16)
H8A H 1.2270 1.4619 -0.2783
H9A H 1.0462 1.4011 -0.3631
C12A C 1.3193(5) 1.4493(4) -0.4027(2)
H10A H 1.2930 1.3692 -0.4619
H11A H 1.4651 1.4450 -0.3760
C13A C 1.2749(6) 1.6300(4) -0.4195(2)
H12A H 1.3021 1.7106 -0.3615
H13A H 1.3620 1.6602 -0.4594
H14A H 1.1322 1.6345 -0.4483
C14A C 0.8688(4) 1.1395(3) -0.29667(15)
H15A H 0.8368 1.2608 -0.2945
H16A H 0.8013 1.0973 -0.2522
C15A C 0.7816(5) 1.0381(4) -0.39257(19)
H17A H 0.8268 0.9209 -0.3977
H18A H 0.6330 1.0375 -0.4030
H19A H 0.8296 1.0916 -0.4379
Cl1A Cl 1.83415(9) 0.68404(8) -0.23114(4)
N1A N 1.1107(3) 1.1173(2) -0.10057(10)
O1A O 0.8560(2) 1.31320(19) -0.07187(11)
S1A S 1.50111(8) 0.91320(7) -0.17765(4)
loop_
_geom_bond_atom_site_label_1
_geom_bond_atom_site_label_2
_geom_bond_site_symmetry_1
_geom_bond_site_symmetry_2
C1 C2 1_555 1_555
C2 H1 1_555 1_555
C3 C2 1_555 1_555
H2 C3 1_555 1_555
C4 C3 1_555 1_555
C5 C4 1_555 1_555
C6 C5 1_555 1_555
C7 N1 1_555 1_555
C8 H3 1_555 1_555
H4 C8 1_555 1_555
C9 C8 1_555 1_555
H5 C9 1_555 1_555
C10 C9 1_555 1_555
H6 C10 1_555 1_555
H7 C10 1_555 1_555
C11 C10 1_555 1_555
H8 C11 1_555 1_555
H9 C11 1_555 1_555
C12 C11 1_555 1_555
H10 C12 1_555 1_555
H11 C12 1_555 1_555
C13 C12 1_555 1_555
H12 C13 1_555 1_555
H13 C13 1_555 1_555
H14 C13 1_555 1_555
C14 C9 1_555 1_555
H15 C14 1_555 1_555
H16 C14 1_555 1_555
C15 C14 1_555 1_555
H17 C15 1_555 1_555
H18 C15 1_555 1_555
H19 C15 1_555 1_555
Cl1 C1 1_555 1_555
N1 C5 1_555 1_555
O1 C7 1_555 1_555
S1 C1 1_555 1_555
C1A C2A 1_555 1_555
C2A H1A 1_555 1_555
C3A C2A 1_555 1_555
H2A C3A 1_555 1_555
C4A C3A 1_555 1_555
C5A C4A 1_555 1_555
C6A C6 1_555 1_555
C7A C6 1_555 1_555
C8A H3A 1_555 1_555
H4A C8A 1_555 1_555
C9A C8A 1_555 1_555
H5A C9A 1_555 1_555
C10A C9A 1_555 1_555
H6A C10A 1_555 1_555
H7A C10A 1_555 1_555
C11A C10A 1_555 1_555
H8A C11A 1_555 1_555
H9A C11A 1_555 1_555
C12A C11A 1_555 1_555
H10A C12A 1_555 1_555
H11A C12A 1_555 1_555
C13A C12A 1_555 1_555
H12A C13A 1_555 1_555
H13A C13A 1_555 1_555
H14A C13A 1_555 1_555
C14A C9A 1_555 1_555
H15A C14A 1_555 1_555
H16A C14A 1_555 1_555
C15A C14A 1_555 1_555
H17A C15A 1_555 1_555
H18A C15A 1_555 1_555
H19A C15A 1_555 1_555
Cl1A C1A 1_555 1_555
N1A C5A 1_555 1_555
O1A C7A 1_555 1_555
S1A C1A 1_555 1_555
C4 S1 1_555 1_555
C7 C6A 1_555 1_555
C8 N1 1_555 1_555
C4A S1A 1_555 1_555
C5A C6A 1_555 1_555
C7A N1A 1_555 1_555
C8A N1A 1_555 1_555

#END
