
#######################################################################
#
#                 Cambridge Crystallographic Data Centre
#                                CCDC 
#
#######################################################################
#
# If this CIF has been generated from an entry in the Cambridge 
# Structural Database, then it will include bibliographic, chemical, 
# crystal, experimental, refinement or atomic coordinate data resulting 
# from the CCDC's data processing and validation procedures.
#
#######################################################################

data_OCUXIW
_chemical_formula_moiety         'C30 H38 Cl2 N2 O2 S2'
_chemical_name_systematic        
3,6-bis(5-chloro-2-thienyl)-2,5-dioctyl-2,5-dihydropyrrolo[3,4-c]pyrrole-1,4-dione
_symmetry_cell_setting           triclinic
_symmetry_space_group_name_H-M   'P -1'
_symmetry_Int_Tables_number      2
_space_group_name_Hall           '-P 1'
loop_
_symmetry_equiv_pos_site_id
_symmetry_equiv_pos_as_xyz
1 x,y,z
2 -x,-y,-z
_cell_length_a                   4.8304(8)
_cell_length_b                   8.6559(12)
_cell_length_c                   18.494(3)
_cell_angle_alpha                80.420(7)
_cell_angle_beta                 87.703(15)
_cell_angle_gamma                87.368(11)
_cell_volume                     761.26
_exptl_crystal_colour            red
_exptl_crystal_description       needle
_cell_formula_units_Z            1
loop_
_atom_site_label
_atom_site_type_symbol
_atom_site_fract_x
_atom_site_fract_y
_atom_site_fract_z
C1 C 0.7891(6) 0.8489(3) 0.82834(14)
C2 C 0.6899(6) 0.9100(3) 0.88726(15)
H1 H 0.7436 1.0044 0.8989
C3 C 0.4953(6) 0.8132(3) 0.92880(14)
H2 H 0.4043 0.8382 0.9708
C4 C 0.4517(5) 0.6781(3) 0.90168(12)
C5 C 0.2622(5) 0.5607(3) 0.93442(12)
C6 C 0.0747(5) 0.5694(3) 0.99243(12)
C7 C 0.0232(5) 0.3292(3) 0.95630(12)
C8 C 0.3828(5) 0.3447(3) 0.85604(13)
H3 H 0.4003 0.2323 0.8721
H4 H 0.5683 0.3845 0.8501
C9 C 0.2464(5) 0.3763(3) 0.78229(13)
H5 H 0.2185 0.4885 0.7672
H6 H 0.0661 0.3301 0.7871
C10 C 0.4209(6) 0.3093(4) 0.72382(14)
H7 H 0.5922 0.3647 0.7152
H8 H 0.4686 0.2000 0.7420
C11 C 0.2779(7) 0.3205(4) 0.65178(14)
H9 H 0.2142 0.4284 0.6360
H10 H 0.1160 0.2567 0.6595
C12 C 0.4608(8) 0.2681(5) 0.59122(16)
H11 H 0.6181 0.3351 0.5820
H12 H 0.5319 0.1620 0.6080
C13 C 0.3164(8) 0.2715(5) 0.52006(17)
H13 H 0.1707 0.1964 0.5283
H14 H 0.2292 0.3747 0.5059
C14 C 0.5035(10) 0.2348(6) 0.45742(18)
H15 H 0.5937 0.1324 0.4718
H16 H 0.6468 0.3112 0.4483
C15 C 0.3550(14) 0.2352(8) 0.3869(2)
H17 H 0.2163 0.1577 0.3949
H18 H 0.4861 0.2115 0.3495
H19 H 0.2683 0.3368 0.3716
Cl1 Cl 1.02614(17) 0.92852(10) 0.76296(4)
N1 N 0.2316(4) 0.4155(2) 0.91299(10)
O1 O -0.0406(4) 0.2000(2) 0.94621(10)
S1 S 0.65480(14) 0.67173(7) 0.82244(3)
C1A C -0.7891(6) 0.1511(3) 1.17166(14)
C2A C -0.6899(6) 0.0900(3) 1.11274(15)
H1A H -0.7436 -0.0044 1.1011
C3A C -0.4953(6) 0.1868(3) 1.07120(14)
H2A H -0.4043 0.1618 1.0292
C4A C -0.4517(5) 0.3219(3) 1.09832(12)
C5A C -0.2622(5) 0.4393(3) 1.06558(12)
C6A C -0.0747(5) 0.4306(3) 1.00757(12)
C7A C -0.0232(5) 0.6708(3) 1.04370(12)
C8A C -0.3828(5) 0.6553(3) 1.14396(13)
H3A H -0.4003 0.7677 1.1279
H4A H -0.5683 0.6155 1.1499
C9A C -0.2464(5) 0.6237(3) 1.21771(13)
H5A H -0.2185 0.5115 1.2328
H6A H -0.0661 0.6699 1.2129
C10A C -0.4209(6) 0.6907(4) 1.27618(14)
H7A H -0.5922 0.6353 1.2848
H8A H -0.4686 0.8000 1.2580
C11A C -0.2779(7) 0.6795(4) 1.34822(14)
H9A H -0.2142 0.5716 1.3640
H10A H -0.1160 0.7433 1.3405
C12A C -0.4608(8) 0.7319(5) 1.40878(16)
H11A H -0.6181 0.6649 1.4180
H12A H -0.5319 0.8380 1.3920
C13A C -0.3164(8) 0.7285(5) 1.47994(17)
H13A H -0.1707 0.8036 1.4717
H14A H -0.2292 0.6253 1.4941
C14A C -0.5035(10) 0.7652(6) 1.54258(18)
H15A H -0.5937 0.8676 1.5282
H16A H -0.6468 0.6888 1.5517
C15A C -0.3550(14) 0.7648(8) 1.6131(2)
H17A H -0.2163 0.8423 1.6051
H18A H -0.4861 0.7885 1.6505
H19A H -0.2683 0.6632 1.6284
Cl1A Cl -1.02614(17) 0.07148(10) 1.23704(4)
N1A N -0.2316(4) 0.5845(2) 1.08701(10)
O1A O 0.0406(4) 0.8000(2) 1.05379(10)
S1A S -0.65480(14) 0.32827(7) 1.17756(3)
loop_
_geom_bond_atom_site_label_1
_geom_bond_atom_site_label_2
_geom_bond_site_symmetry_1
_geom_bond_site_symmetry_2
C1 C2 1_555 1_555
C2 H1 1_555 1_555
C3 C2 1_555 1_555
H2 C3 1_555 1_555
C4 C3 1_555 1_555
C5 C4 1_555 1_555
C6 C5 1_555 1_555
C7 N1 1_555 1_555
C8 H3 1_555 1_555
H4 C8 1_555 1_555
C9 C8 1_555 1_555
H5 C9 1_555 1_555
H6 C9 1_555 1_555
C10 C9 1_555 1_555
H7 C10 1_555 1_555
H8 C10 1_555 1_555
C11 C10 1_555 1_555
H9 C11 1_555 1_555
H10 C11 1_555 1_555
C12 C11 1_555 1_555
H11 C12 1_555 1_555
H12 C12 1_555 1_555
C13 C12 1_555 1_555
H13 C13 1_555 1_555
H14 C13 1_555 1_555
C14 C13 1_555 1_555
H15 C14 1_555 1_555
H16 C14 1_555 1_555
C15 C14 1_555 1_555
H17 C15 1_555 1_555
H18 C15 1_555 1_555
H19 C15 1_555 1_555
Cl1 C1 1_555 1_555
N1 C5 1_555 1_555
O1 C7 1_555 1_555
S1 C1 1_555 1_555
C1A C2A 1_555 1_555
C2A H1A 1_555 1_555
C3A C2A 1_555 1_555
H2A C3A 1_555 1_555
C4A C3A 1_555 1_555
C5A C4A 1_555 1_555
C6A C6 1_555 1_555
C7A C6 1_555 1_555
C8A H3A 1_555 1_555
H4A C8A 1_555 1_555
C9A C8A 1_555 1_555
H5A C9A 1_555 1_555
H6A C9A 1_555 1_555
C10A C9A 1_555 1_555
H7A C10A 1_555 1_555
H8A C10A 1_555 1_555
C11A C10A 1_555 1_555
H9A C11A 1_555 1_555
H10A C11A 1_555 1_555
C12A C11A 1_555 1_555
H11A C12A 1_555 1_555
H12A C12A 1_555 1_555
C13A C12A 1_555 1_555
H13A C13A 1_555 1_555
H14A C13A 1_555 1_555
C14A C13A 1_555 1_555
H15A C14A 1_555 1_555
H16A C14A 1_555 1_555
C15A C14A 1_555 1_555
H17A C15A 1_555 1_555
H18A C15A 1_555 1_555
H19A C15A 1_555 1_555
Cl1A C1A 1_555 1_555
N1A C5A 1_555 1_555
O1A C7A 1_555 1_555
S1A C1A 1_555 1_555
C4 S1 1_555 1_555
C7 C6A 1_555 1_555
C8 N1 1_555 1_555
C4A S1A 1_555 1_555
C5A C6A 1_555 1_555
C7A N1A 1_555 1_555
C8A N1A 1_555 1_555

#END
