
#######################################################################
#
#                 Cambridge Crystallographic Data Centre
#                                CCDC 
#
#######################################################################
#
# If this CIF has been generated from an entry in the Cambridge 
# Structural Database, then it will include bibliographic, chemical, 
# crystal, experimental, refinement or atomic coordinate data resulting 
# from the CCDC's data processing and validation procedures.
#
#######################################################################

data_OCUYAP
_chemical_formula_moiety         'C36 H46 O12,C24 H22 N2 2+,2(F6 P1 1-),H2 O1'
_chemical_name_systematic        
"N,N'-dibenzyl-4,4'-bipyridinium bis(hexafluorophosphate) 4,7,10,13,16,22,25,28,31,34,38,45-dodecaoxatetracyclo[17.17.10.1^3,35^.1^17,21^]octatetraconta-1,3(47),17(48),18,20,35-hexaene-40,42-diyne monohydrate"
_symmetry_cell_setting           monoclinic
_symmetry_space_group_name_H-M   'P 21/c'
_symmetry_Int_Tables_number      14
_space_group_name_Hall           '-P 2ybc'
loop_
_symmetry_equiv_pos_site_id
_symmetry_equiv_pos_as_xyz
1 x,y,z
2 -x,1/2+y,1/2-z
3 -x,-y,-z
4 x,1/2-y,1/2+z
_cell_length_a                   17.269(6)
_cell_length_b                   19.311(7)
_cell_length_c                   21.265(7)
_cell_angle_alpha                90
_cell_angle_beta                 112.567(6)
_cell_angle_gamma                90
_cell_volume                     6548.5
_exptl_crystal_colour            red
_exptl_crystal_description       block
_cell_formula_units_Z            4
loop_
_atom_site_label
_atom_site_type_symbol
_atom_site_fract_x
_atom_site_fract_y
_atom_site_fract_z
C1 C -0.3193(8) 0.7491(9) 0.4202(7)
H1 H -0.3277 0.7187 0.3843
C2 C -0.2886(7) 0.7247(5) 0.4868(8)
H2 H -0.2764 0.6779 0.4954
C3 C -0.2761(5) 0.7702(6) 0.5405(5)
C4 C -0.2943(6) 0.8401(6) 0.5276(7)
H3 H -0.2860 0.8705 0.5635
C5 C -0.3250(7) 0.8646(6) 0.4610(9)
H4 H -0.3372 0.9114 0.4524
C6 C -0.3375(7) 0.8191(10) 0.4074(6)
H5 H -0.3580 0.8355 0.3628
N1 N 0.2890(6) 0.7393(7) 0.7722(5)
N2 N -0.1485(7) 0.7404(7) 0.6366(5)
C7 C -0.2439(7) 0.7431(7) 0.6102(7)
H6 H -0.2662 0.6971 0.6108
H7 H -0.2613 0.7729 0.6392
C8 C -0.1046(10) 0.7983(8) 0.6502(7)
H8 H -0.1330 0.8403 0.6424
C9 C -0.0225(9) 0.7990(6) 0.6743(7)
H9 H 0.0053 0.8413 0.6819
C10 C 0.0236(8) 0.7390(7) 0.6887(5)
C11 C -0.0213(9) 0.6772(7) 0.6772(6)
H10 H 0.0066 0.6349 0.6878
C12 C -0.1089(9) 0.6796(8) 0.6495(7)
H11 H -0.1397 0.6387 0.6400
C13 C 0.1164(8) 0.7369(7) 0.7180(6)
C14 C 0.1609(9) 0.7980(7) 0.7418(6)
H12 H 0.1325 0.8393 0.7400
C15 C 0.2457(9) 0.7967(7) 0.7674(6)
H13 H 0.2747 0.8380 0.7822
C16 C 0.2491(10) 0.6795(7) 0.7512(6)
H14 H 0.2794 0.6389 0.7545
C17 C 0.1650(9) 0.6779(6) 0.7254(6)
H15 H 0.1382 0.6355 0.7119
C18 C 0.3814(8) 0.7424(8) 0.7988(7)
H16 H 0.4037 0.6960 0.8111
H17 H 0.3986 0.7589 0.7631
C19 C 0.4172(8) 0.7870(9) 0.8576(9)
C20 C 0.4211(10) 0.7680(8) 0.9199(10)
H18 H 0.3978 0.7266 0.9264
C21 C 0.4622(12) 0.8136(14) 0.9751(9)
H19 H 0.4657 0.8012 1.0184
C22 C 0.4977(10) 0.8770(12) 0.9670(13)
H20 H 0.5236 0.9057 1.0042
C23 C 0.4937(10) 0.8952(11) 0.9053(14)
H21 H 0.5163 0.9368 0.8984
C24 C 0.4537(12) 0.8488(12) 0.8509(9)
H22 H 0.4520 0.8607 0.8080
O1 O -0.0520(5) 0.6718(4) 0.8264(4)
O2 O -0.2259(6) 0.6321(5) 0.7347(5)
O3 O -0.3005(6) 0.5611(6) 0.6093(5)
O4 O -0.2100(5) 0.5327(4) 0.5270(4)
O5 O -0.1064(5) 0.6305(4) 0.4992(4)
O6 O 0.1847(5) 0.6666(4) 0.5645(4)
O7 O 0.3516(5) 0.6365(5) 0.6587(5)
O8 O 0.4432(5) 0.5881(5) 0.7915(6)
O9 O 0.3690(5) 0.5998(5) 0.8900(5)
O10 O 0.2460(5) 0.6721(5) 0.9144(4)
O11 O 0.1087(6) 0.9184(4) 0.8294(5)
O12 O -0.0946(5) 0.8768(4) 0.4854(4)
C25 C 0.0056(8) 0.7863(6) 0.5122(5)
C26 C -0.0563(7) 0.7398(8) 0.5014(6)
H23 H -0.1117 0.7543 0.4875
C27 C -0.0364(8) 0.6700(7) 0.5112(5)
C28 C 0.0429(8) 0.6477(6) 0.5323(5)
H24 H 0.0542 0.6005 0.5383
C29 C 0.1081(8) 0.6942(7) 0.5451(5)
C30 C 0.0893(8) 0.7647(6) 0.5350(5)
H25 H 0.1320 0.7970 0.5434
C31 C -0.0994(7) 0.5592(6) 0.4919(6)
H26 H -0.0613 0.5391 0.5343
H27 H -0.0780 0.5496 0.4568
C32 C -0.1843(8) 0.5296(6) 0.4729(6)
H28 H -0.2235 0.5550 0.4346
H29 H -0.1841 0.4817 0.4590
C33 C -0.2909(8) 0.5118(7) 0.5123(8)
H30 H -0.3007 0.4686 0.4872
H31 H -0.3289 0.5462 0.4833
C34 C -0.3095(9) 0.5022(9) 0.5724(9)
H32 H -0.3667 0.4856 0.5589
H33 H -0.2725 0.4669 0.6009
C35 C -0.3153(14) 0.5487(11) 0.6698(12)
H34 H -0.3753 0.5422 0.6558
H35 H -0.2893 0.5046 0.6877
C36 C -0.2929(9) 0.5909(10) 0.7195(7)
H36 H -0.2844 0.5637 0.7600
H37 H -0.3405 0.6208 0.7127
C37 C -0.1955(9) 0.6532(10) 0.8032(8)
H38 H -0.1732 0.6134 0.8324
H39 H -0.2413 0.6721 0.8136
C38 C -0.1281(9) 0.7068(9) 0.8171(7)
H40 H -0.1424 0.7388 0.7791
H41 H -0.1220 0.7329 0.8577
C39 C 0.1040(9) 0.8887(6) 0.8890(7)
H42 H 0.0550 0.9064 0.8956
H43 H 0.1533 0.9014 0.9285
C40 C 0.0802(11) 0.9872(7) 0.8135(8)
H44 H 0.0403 0.9982 0.8340
H45 H 0.1270 1.0190 0.8312
C41 C 0.0419(10) 0.9935(7) 0.7427(9)
C42 C 0.0074(9) 0.9946(6) 0.6823(10)
C43 C -0.0385(9) 0.9863(7) 0.6132(9)
C44 C -0.0733(8) 0.9750(6) 0.5573(8)
C45 C -0.1084(8) 0.9496(7) 0.4879(8)
H46 H -0.1682 0.9590 0.4684
H47 H -0.0828 0.9738 0.4608
C46 C 0.2497(8) 0.7151(7) 0.5811(6)
H48 H 0.2505 0.7434 0.6190
H49 H 0.2412 0.7452 0.5425
C47 C 0.3318(8) 0.6767(8) 0.6000(7)
H50 H 0.3288 0.6469 0.5624
H51 H 0.3763 0.7100 0.6069
C48 C 0.4299(9) 0.6042(8) 0.6774(8)
H52 H 0.4743 0.6383 0.6947
H53 H 0.4344 0.5817 0.6382
C49 C 0.4377(9) 0.5521(9) 0.7310(9)
H54 H 0.3894 0.5217 0.7159
H55 H 0.4876 0.5242 0.7402
C50 C 0.4586(9) 0.5441(9) 0.8452(11)
H56 H 0.5150 0.5259 0.8580
H57 H 0.4201 0.5054 0.8301
C51 C 0.4514(9) 0.5727(10) 0.9038(9)
H58 H 0.4923 0.6096 0.9213
H59 H 0.4641 0.5373 0.9387
C52 C 0.3336(7) 0.5772(7) 0.9349(7)
H60 H 0.3647 0.5960 0.9800
H61 H 0.3361 0.5271 0.9380
C53 C 0.2453(8) 0.6005(8) 0.9104(6)
H62 H 0.2152 0.5857 0.8637
H63 H 0.2178 0.5810 0.9385
C54 C 0.1696(9) 0.7042(7) 0.8942(6)
C55 C 0.0937(8) 0.6702(6) 0.8682(6)
H64 H 0.0912 0.6225 0.8621
C56 C 0.0206(9) 0.7094(7) 0.8511(6)
C57 C 0.0220(9) 0.7815(7) 0.8561(6)
H65 H -0.0273 0.8072 0.8422
C58 C 0.0985(10) 0.8124(7) 0.8823(6)
C59 C 0.1701(9) 0.7767(7) 0.9008(6)
H66 H 0.2210 0.8001 0.9183
C60 C -0.0103(8) 0.8621(6) 0.5004(7)
H67 H 0.0244 0.8875 0.5407
H68 H 0.0045 0.8768 0.4628
P1 P 0.6921(2) 0.4279(2) 0.8583(2)
F1 F 0.7638(7) 0.4091(6) 0.9267(5)
F2 F 0.6365(11) 0.4333(11) 0.8958(9)
F3 F 0.7117(8) 0.5059(6) 0.8665(6)
F4 F 0.6192(7) 0.4479(5) 0.7931(5)
F5 F 0.6724(10) 0.3532(5) 0.8443(8)
F6 F 0.7489(11) 0.4280(9) 0.8225(10)
P2 P 0.1881(3) 0.4419(4) 0.7356(3)
F7 F 0.2480(12) 0.3926(15) 0.7856(11)
F8 F 0.1146(9) 0.4070(7) 0.7456(9)
F9 F 0.1183(10) 0.4648(17) 0.6681(9)
F10 F 0.2494(14) 0.4901(15) 0.7340(17)
F11 F 0.1624(16) 0.4953(12) 0.7720(16)
F12 F 0.207(2) 0.4032(13) 0.6896(11)
O13 O 0.4418(7) 0.2904(15) 0.8536(10)
loop_
_geom_bond_atom_site_label_1
_geom_bond_atom_site_label_2
_geom_bond_site_symmetry_1
_geom_bond_site_symmetry_2
C1 H1 1_555 1_555
C2 C1 1_555 1_555
H2 C2 1_555 1_555
C3 C2 1_555 1_555
C4 C3 1_555 1_555
H3 C4 1_555 1_555
C5 C4 1_555 1_555
H4 C5 1_555 1_555
C6 C1 1_555 1_555
H5 C6 1_555 1_555
N1 C15 1_555 1_555
N2 C7 1_555 1_555
C7 C3 1_555 1_555
H6 C7 1_555 1_555
H7 C7 1_555 1_555
C8 N2 1_555 1_555
H8 C8 1_555 1_555
C9 C8 1_555 1_555
H9 C9 1_555 1_555
C10 C9 1_555 1_555
C11 C10 1_555 1_555
H10 C11 1_555 1_555
C12 N2 1_555 1_555
H11 C12 1_555 1_555
C13 C10 1_555 1_555
C14 C13 1_555 1_555
H12 C14 1_555 1_555
C15 C14 1_555 1_555
H13 C15 1_555 1_555
C16 N1 1_555 1_555
H14 C16 1_555 1_555
C17 C13 1_555 1_555
H15 C17 1_555 1_555
C18 N1 1_555 1_555
H16 C18 1_555 1_555
H17 C18 1_555 1_555
C19 C18 1_555 1_555
C20 C19 1_555 1_555
H18 C20 1_555 1_555
C21 C20 1_555 1_555
H19 C21 1_555 1_555
C22 C21 1_555 1_555
H20 C22 1_555 1_555
C23 C22 1_555 1_555
H21 C23 1_555 1_555
C24 C19 1_555 1_555
H22 C24 1_555 1_555
O1 C38 1_555 1_555
O2 C36 1_555 1_555
O3 C34 1_555 1_555
O4 C32 1_555 1_555
O5 C27 1_555 1_555
O6 C29 1_555 1_555
O7 C47 1_555 1_555
O8 C49 1_555 1_555
O9 C51 1_555 1_555
O10 C53 1_555 1_555
O11 C39 1_555 1_555
O12 C45 1_555 1_555
C25 C26 1_555 1_555
C26 H23 1_555 1_555
C27 C26 1_555 1_555
C28 C27 1_555 1_555
H24 C28 1_555 1_555
C29 C28 1_555 1_555
C30 C25 1_555 1_555
H25 C30 1_555 1_555
C31 O5 1_555 1_555
H26 C31 1_555 1_555
H27 C31 1_555 1_555
C32 C31 1_555 1_555
H28 C32 1_555 1_555
H29 C32 1_555 1_555
C33 O4 1_555 1_555
H30 C33 1_555 1_555
H31 C33 1_555 1_555
C34 C33 1_555 1_555
H32 C34 1_555 1_555
H33 C34 1_555 1_555
C35 O3 1_555 1_555
H34 C35 1_555 1_555
H35 C35 1_555 1_555
C36 C35 1_555 1_555
H36 C36 1_555 1_555
H37 C36 1_555 1_555
C37 O2 1_555 1_555
H38 C37 1_555 1_555
H39 C37 1_555 1_555
C38 C37 1_555 1_555
H40 C38 1_555 1_555
H41 C38 1_555 1_555
C39 H42 1_555 1_555
H43 C39 1_555 1_555
C40 O11 1_555 1_555
H44 C40 1_555 1_555
H45 C40 1_555 1_555
C41 C40 1_555 1_555
C42 C41 1_555 1_555
C43 C42 1_555 1_555
C44 C43 1_555 1_555
C45 C44 1_555 1_555
H46 C45 1_555 1_555
H47 C45 1_555 1_555
C46 O6 1_555 1_555
H48 C46 1_555 1_555
H49 C46 1_555 1_555
C47 C46 1_555 1_555
H50 C47 1_555 1_555
H51 C47 1_555 1_555
C48 O7 1_555 1_555
H52 C48 1_555 1_555
H53 C48 1_555 1_555
C49 C48 1_555 1_555
H54 C49 1_555 1_555
H55 C49 1_555 1_555
C50 O8 1_555 1_555
H56 C50 1_555 1_555
H57 C50 1_555 1_555
C51 C50 1_555 1_555
H58 C51 1_555 1_555
H59 C51 1_555 1_555
C52 O9 1_555 1_555
H60 C52 1_555 1_555
H61 C52 1_555 1_555
C53 C52 1_555 1_555
H62 C53 1_555 1_555
H63 C53 1_555 1_555
C54 O10 1_555 1_555
C55 C54 1_555 1_555
H64 C55 1_555 1_555
C56 O1 1_555 1_555
C57 C56 1_555 1_555
H65 C57 1_555 1_555
C58 C39 1_555 1_555
C59 C54 1_555 1_555
H66 C59 1_555 1_555
C60 O12 1_555 1_555
H67 C60 1_555 1_555
H68 C60 1_555 1_555
P1 F1 1_555 1_555
F2 P1 1_555 1_555
F3 P1 1_555 1_555
F4 P1 1_555 1_555
F5 P1 1_555 1_555
F6 P1 1_555 1_555
P2 F7 1_555 1_555
F8 P2 1_555 1_555
F9 P2 1_555 1_555
F10 P2 1_555 1_555
F11 P2 1_555 1_555
F12 P2 1_555 1_555
C5 C6 1_555 1_555
C11 C12 1_555 1_555
C16 C17 1_555 1_555
C23 C24 1_555 1_555
C25 C60 1_555 1_555
C29 C30 1_555 1_555
C55 C56 1_555 1_555
C57 C58 1_555 1_555
C58 C59 1_555 1_555

#END
