
#######################################################################
#
#                 Cambridge Crystallographic Data Centre
#                                CCDC 
#
#######################################################################
#
# If this CIF has been generated from an entry in the Cambridge 
# Structural Database, then it will include bibliographic, chemical, 
# crystal, experimental, refinement or atomic coordinate data resulting 
# from the CCDC's data processing and validation procedures.
#
#######################################################################

data_OCUYET
_chemical_formula_moiety         'C36 H54 O12,C18 H18 N2 2+,2(F6 P1 1-)'
_chemical_name_systematic        
"N-benzyl-N'-methyl-4,4'-bipyridinium bis(hexafluorophosphate) 4,7,10,13,16,22,25,28,31,34,38,45-dodecaoxatetracyclo[17.17.10.1^3,35^.1^17,21^]octatetraconta-1,3(47),17(48),18,20,35-hexaene"
_symmetry_cell_setting           monoclinic
_symmetry_space_group_name_H-M   'P 21/c'
_symmetry_Int_Tables_number      14
_space_group_name_Hall           '-P 2ybc'
loop_
_symmetry_equiv_pos_site_id
_symmetry_equiv_pos_as_xyz
1 x,y,z
2 -x,1/2+y,1/2-z
3 -x,-y,-z
4 x,1/2-y,1/2+z
_cell_length_a                   11.069(3)
_cell_length_b                   20.233(6)
_cell_length_c                   26.763(8)
_cell_angle_alpha                90
_cell_angle_beta                 96.251(5)
_cell_angle_gamma                90
_cell_volume                     5958.18
_exptl_crystal_colour            red
_exptl_crystal_description       block
_cell_formula_units_Z            4
loop_
_atom_site_label
_atom_site_type_symbol
_atom_site_fract_x
_atom_site_fract_y
_atom_site_fract_z
O1 O -0.1842(5) 0.5110(3) 0.2625(2)
O2 O -0.1545(5) 0.5320(3) 0.3721(2)
O3 O 0.0274(8) 0.5923(4) 0.4368(3)
O4 O 0.2572(6) 0.6090(3) 0.4061(2)
O5 O 0.4090(5) 0.5467(3) 0.3432(2)
O6 O 0.4798(6) 0.5431(3) 0.1721(3)
O7 O 0.4307(6) 0.5935(3) 0.0747(2)
O8 O 0.2395(6) 0.6588(3) 0.0175(2)
O9 O -0.0094(5) 0.6253(3) 0.0286(2)
O10 O -0.1440(5) 0.5493(2) 0.09034(19)
O11 O -0.1223(9) 0.2931(3) 0.1277(3)
O12 O 0.3669(7) 0.3096(3) 0.2860(3)
C1 C -0.1608(6) 0.5079(4) 0.1296(3)
C2 C -0.1811(7) 0.4845(4) 0.2151(3)
C3 C 0.4391(7) 0.4453(4) 0.3050(3)
H1 H 0.4337 0.4248 0.3358
C4 C 0.4556(8) 0.4094(4) 0.2631(4)
C5 C -0.1961(7) 0.3979(4) 0.1548(4)
C6 C -0.1615(7) 0.5301(4) 0.1788(3)
H2 H -0.1492 0.5745 0.1869
C7 C -0.1173(7) 0.6169(4) 0.1009(3)
H3 H -0.0418 0.6207 0.1228
H4 H -0.1817 0.6367 0.1177
C8 C -0.1064(8) 0.6516(4) 0.0524(3)
H5 H -0.1816 0.6468 0.0304
H6 H -0.0928 0.6984 0.0586
C9 C 0.4306(7) 0.5137(4) 0.3003(4)
C10 C -0.1985(7) 0.4183(4) 0.2046(3)
H7 H -0.2114 0.3882 0.2297
C11 C 0.5067(9) 0.5073(5) 0.1290(4)
H8 H 0.4376 0.4805 0.1161
H9 H 0.5758 0.4784 0.1376
C12 C -0.1808(7) 0.4423(4) 0.1177(3)
H10 H -0.1840 0.4283 0.0845
C13 C 0.4438(7) 0.5451(4) 0.2556(4)
H11 H 0.4385 0.5909 0.2530
C14 C 0.3876(9) 0.6166(4) 0.3411(4)
H12 H 0.3187 0.6264 0.3166
H13 H 0.4583 0.6393 0.3311
C15 C -0.2593(8) 0.5123(5) 0.3417(3)
H14 H -0.3033 0.5511 0.3286
H15 H -0.3118 0.4878 0.3619
C16 C 0.3629(11) 0.6387(5) 0.3910(4)
H16 H 0.4318 0.6279 0.4152
H17 H 0.3531 0.6863 0.3907
C17 C 0.4697(7) 0.4392(4) 0.2182(4)
H18 H 0.4824 0.4136 0.1904
C18 C 0.1272(16) 0.6061(7) 0.4693(5)
H19 H 0.1561 0.5650 0.4850
H20 H 0.1019 0.6342 0.4957
C19 C 0.0311(10) 0.6677(5) -0.0090(3)
H21 H -0.0324 0.6995 -0.0194
H22 H 0.0453 0.6415 -0.0381
C20 C 0.4653(8) 0.5069(5) 0.2142(4)
C21 C -0.2295(8) 0.4706(5) 0.2996(3)
H23 H -0.1689 0.4381 0.3116
H24 H -0.3016 0.4474 0.2852
C22 C 0.3700(13) 0.2392(5) 0.2943(6)
H25 H 0.4532 0.2244 0.2940
H26 H 0.3469 0.2308 0.3276
C23 C 0.4499(10) 0.6415(6) 0.0377(4)
H27 H 0.4530 0.6200 0.0054
H28 H 0.5268 0.6637 0.0467
C24 C 0.2988(15) 0.2019(6) 0.2613(6)
H29 H 0.2768 0.1633 0.2798
H30 H 0.3508 0.1861 0.2369
C25 C 0.2233(13) 0.6361(6) 0.4505(5)
H31 H 0.2928 0.6344 0.4759
H32 H 0.2032 0.6823 0.4445
C26 C 0.0089(17) 0.2142(7) 0.1693(6)
H33 H 0.0345 0.2060 0.1364
H34 H -0.0549 0.1823 0.1731
C27 C -0.0746(17) 0.5838(7) 0.4475(6)
H35 H -0.0934 0.6225 0.4666
H36 H -0.0692 0.5471 0.4710
C28 C 0.1080(16) 0.1929(7) 0.2035(7)
H37 H 0.0717 0.1626 0.2256
H38 H 0.1556 0.1655 0.1832
C29 C -0.1788(9) 0.5717(6) 0.4140(4)
H39 H -0.2129 0.6135 0.4017
H40 H -0.2390 0.5496 0.4318
C30 C 0.5352(9) 0.5567(5) 0.0907(4)
H41 H 0.5991 0.5860 0.1050
H42 H 0.5637 0.5342 0.0622
C31 C 0.4682(11) 0.3356(5) 0.2676(4)
H43 H 0.4771 0.3167 0.2349
H44 H 0.5402 0.3248 0.2901
C32 C 0.1428(10) 0.7033(5) 0.0090(4)
H45 H 0.1607 0.7358 -0.0158
H46 H 0.1318 0.7264 0.0399
C33 C -0.0468(13) 0.2711(8) 0.1651(5)
H47 H 0.0172 0.3039 0.1698
H48 H -0.0908 0.2742 0.1945
C34 C 0.3502(11) 0.6899(5) 0.0341(4)
H49 H 0.3449 0.7098 0.0668
H50 H 0.3663 0.7247 0.0108
C35 C -0.2200(10) 0.3256(5) 0.1420(4)
H51 H -0.2462 0.3036 0.1712
H52 H -0.2860 0.3229 0.1151
C36 C 0.1880(17) 0.2242(8) 0.2327(6)
H53 H 0.1422 0.2448 0.2574
H54 H 0.2136 0.2601 0.2123
N1 N 0.1109(6) 0.4564(3) 0.3343(2)
N2 N 0.1739(6) 0.4998(3) 0.0801(2)
C37 C 0.1098(7) 0.5289(4) 0.2661(3)
H55 H 0.1007 0.5717 0.2535
C38 C 0.1372(6) 0.4780(3) 0.2346(3)
C39 C 0.0962(7) 0.5169(4) 0.3149(3)
H56 H 0.0762 0.5516 0.3352
C40 C 0.1891(7) 0.5524(4) 0.1104(3)
H57 H 0.2079 0.5931 0.0971
C41 C 0.1774(6) 0.5476(3) 0.1603(3)
H58 H 0.1878 0.5849 0.1806
C42 C 0.1469(7) 0.4412(4) 0.0991(3)
H59 H 0.1384 0.4045 0.0781
C43 C 0.1499(7) 0.4872(4) 0.1813(3)
C44 C 0.1317(7) 0.4344(4) 0.1484(3)
H60 H 0.1087 0.3936 0.1603
C45 C 0.1407(8) 0.4067(4) 0.3056(3)
H61 H 0.1524 0.3648 0.3195
C46 C 0.0901(9) 0.4436(4) 0.3875(3)
H62 H 0.0206 0.4146 0.3885
H63 H 0.0728 0.4848 0.4038
C47 C 0.1968(10) 0.3464(5) 0.4293(4)
H64 H 0.1258 0.3223 0.4214
C48 C 0.1544(7) 0.4162(4) 0.2560(3)
H65 H 0.1754 0.3807 0.2365
C49 C 0.2029(10) 0.4115(5) 0.4153(3)
C50 C 0.2980(13) 0.3171(6) 0.4555(5)
H66 H 0.2952 0.2727 0.4642
C51 C 0.3060(12) 0.4465(5) 0.4293(4)
H67 H 0.3088 0.4913 0.4217
C52 C 0.1937(9) 0.5043(4) 0.0268(3)
H68 H 0.2622 0.4775 0.0207
H69 H 0.2092 0.5495 0.0185
H70 H 0.1226 0.4889 0.0064
C53 C 0.4000(12) 0.3519(6) 0.4684(4)
H71 H 0.4661 0.3316 0.4866
C54 C 0.4076(11) 0.4161(6) 0.4550(4)
H72 H 0.4793 0.4397 0.4629
P1 P 0.3795(3) 0.29294(13) 0.09134(10)
F1 F 0.4609(7) 0.2677(3) 0.0513(2)
F2 F 0.3729(11) 0.2253(4) 0.1099(4)
F3 F 0.3031(7) 0.3211(4) 0.1324(2)
F4 F 0.4875(8) 0.3029(9) 0.1251(5)
F5 F 0.2684(10) 0.2876(7) 0.0582(4)
F6 F 0.3838(14) 0.3617(4) 0.0721(6)
P2 P 0.8562(3) 0.25705(15) 0.32765(12)
F7 F 0.9783(11) 0.2527(6) 0.3568(5)
F8 F 0.8147(11) 0.2063(3) 0.3635(3)
F9 F 0.8832(11) 0.1989(4) 0.2943(3)
F10 F 0.9188(9) 0.3053(4) 0.2936(3)
F11 F 0.8285(18) 0.3127(4) 0.3600(5)
F12 F 0.7490(10) 0.2673(8) 0.2974(7)
loop_
_geom_bond_atom_site_label_1
_geom_bond_atom_site_label_2
_geom_bond_site_symmetry_1
_geom_bond_site_symmetry_2
O1 C2 1_555 1_555
O2 C15 1_555 1_555
O3 C18 1_555 1_555
O4 C16 1_555 1_555
O5 C9 1_555 1_555
O6 C11 1_555 1_555
O7 C23 1_555 1_555
O8 C32 1_555 1_555
O9 C8 1_555 1_555
O10 C1 1_555 1_555
O11 C33 1_555 1_555
O12 C22 1_555 1_555
C1 C6 1_555 1_555
C2 C6 1_555 1_555
C3 H1 1_555 1_555
C4 C3 1_555 1_555
C5 C10 1_555 1_555
C6 H2 1_555 1_555
C7 O10 1_555 1_555
H3 C7 1_555 1_555
H4 C7 1_555 1_555
C8 C7 1_555 1_555
H5 C8 1_555 1_555
H6 C8 1_555 1_555
C9 C3 1_555 1_555
C10 C2 1_555 1_555
H7 C10 1_555 1_555
C11 H8 1_555 1_555
H9 C11 1_555 1_555
C12 C1 1_555 1_555
H10 C12 1_555 1_555
C13 C9 1_555 1_555
H11 C13 1_555 1_555
C14 O5 1_555 1_555
H12 C14 1_555 1_555
H13 C14 1_555 1_555
C15 H14 1_555 1_555
H15 C15 1_555 1_555
C16 C14 1_555 1_555
H16 C16 1_555 1_555
H17 C16 1_555 1_555
C17 C4 1_555 1_555
H18 C17 1_555 1_555
C18 H19 1_555 1_555
H20 C18 1_555 1_555
C19 O9 1_555 1_555
H21 C19 1_555 1_555
H22 C19 1_555 1_555
C20 O6 1_555 1_555
C21 O1 1_555 1_555
H23 C21 1_555 1_555
H24 C21 1_555 1_555
C22 H25 1_555 1_555
H26 C22 1_555 1_555
C23 H27 1_555 1_555
H28 C23 1_555 1_555
C24 C22 1_555 1_555
H29 C24 1_555 1_555
H30 C24 1_555 1_555
C25 O4 1_555 1_555
H31 C25 1_555 1_555
H32 C25 1_555 1_555
C26 H33 1_555 1_555
H34 C26 1_555 1_555
C27 O3 1_555 1_555
H35 C27 1_555 1_555
H36 C27 1_555 1_555
C28 C26 1_555 1_555
H37 C28 1_555 1_555
H38 C28 1_555 1_555
C29 O2 1_555 1_555
H39 C29 1_555 1_555
H40 C29 1_555 1_555
C30 O7 1_555 1_555
H41 C30 1_555 1_555
H42 C30 1_555 1_555
C31 O12 1_555 1_555
H43 C31 1_555 1_555
H44 C31 1_555 1_555
C32 C19 1_555 1_555
H45 C32 1_555 1_555
H46 C32 1_555 1_555
C33 C26 1_555 1_555
H47 C33 1_555 1_555
H48 C33 1_555 1_555
C34 O8 1_555 1_555
H49 C34 1_555 1_555
H50 C34 1_555 1_555
C35 O11 1_555 1_555
H51 C35 1_555 1_555
H52 C35 1_555 1_555
C36 C24 1_555 1_555
H53 C36 1_555 1_555
H54 C36 1_555 1_555
N1 C39 1_555 1_555
N2 C40 1_555 1_555
C37 H55 1_555 1_555
C38 C37 1_555 1_555
C39 C37 1_555 1_555
H56 C39 1_555 1_555
C40 H57 1_555 1_555
C41 C40 1_555 1_555
H58 C41 1_555 1_555
C42 N2 1_555 1_555
H59 C42 1_555 1_555
C43 C38 1_555 1_555
C44 C42 1_555 1_555
H60 C44 1_555 1_555
C45 N1 1_555 1_555
H61 C45 1_555 1_555
C46 N1 1_555 1_555
H62 C46 1_555 1_555
H63 C46 1_555 1_555
C47 H64 1_555 1_555
C48 C38 1_555 1_555
H65 C48 1_555 1_555
C49 C46 1_555 1_555
C50 C47 1_555 1_555
H66 C50 1_555 1_555
C51 C49 1_555 1_555
H67 C51 1_555 1_555
C52 N2 1_555 1_555
H68 C52 1_555 1_555
H69 C52 1_555 1_555
H70 C52 1_555 1_555
C53 C50 1_555 1_555
H71 C53 1_555 1_555
C54 C51 1_555 1_555
H72 C54 1_555 1_555
P1 F1 1_555 1_555
F2 P1 1_555 1_555
F3 P1 1_555 1_555
F4 P1 1_555 1_555
F5 P1 1_555 1_555
F6 P1 1_555 1_555
P2 F7 1_555 1_555
F8 P2 1_555 1_555
F9 P2 1_555 1_555
F10 P2 1_555 1_555
F11 P2 1_555 1_555
F12 P2 1_555 1_555
C4 C31 1_555 1_555
C5 C12 1_555 1_555
C5 C35 1_555 1_555
C11 C30 1_555 1_555
C13 C20 1_555 1_555
C15 C21 1_555 1_555
C17 C20 1_555 1_555
C18 C25 1_555 1_555
C23 C34 1_555 1_555
C27 C29 1_555 1_555
C28 C36 1_555 1_555
C41 C43 1_555 1_555
C43 C44 1_555 1_555
C45 C48 1_555 1_555
C47 C49 1_555 1_555
C53 C54 1_555 1_555

#END
