
#######################################################################
#
#                 Cambridge Crystallographic Data Centre
#                                CCDC 
#
#######################################################################
#
# If this CIF has been generated from an entry in the Cambridge 
# Structural Database, then it will include bibliographic, chemical, 
# crystal, experimental, refinement or atomic coordinate data resulting 
# from the CCDC's data processing and validation procedures.
#
#######################################################################

data_ODAFOR
_chemical_compound_source        'endophytic fungus Phoma sp. YN02-P-3'
_chemical_name_common            'phomone A'
_chemical_formula_moiety         'C24 H28 O14'
_chemical_name_systematic        
'methyl 11-(3,5-bis(hydroxymethyl)-4-methoxy-2-oxo-2H-pyran-6-yl)-4-(hydroxymethyl)-5-methoxy-9-(2-methoxy-2-oxoethyl)-3-oxo-2,8-dioxatricyclo[4.3.2.0^1,6^]undec-4-ene-10-carboxylate'
_symmetry_cell_setting           monoclinic
_symmetry_space_group_name_H-M   'P 21/c'
_symmetry_Int_Tables_number      14
_space_group_name_Hall           '-P 2ybc'
loop_
_symmetry_equiv_pos_site_id
_symmetry_equiv_pos_as_xyz
1 x,y,z
2 -x,1/2+y,1/2-z
3 -x,-y,-z
4 x,1/2-y,1/2+z
_cell_length_a                   11.6079(8)
_cell_length_b                   8.1273(3)
_cell_length_c                   25.7149(10)
_cell_angle_alpha                90
_cell_angle_beta                 92.286(4)
_cell_angle_gamma                90
_cell_volume                     2424.04
_cell_formula_units_Z            4
loop_
_atom_site_label
_atom_site_type_symbol
_atom_site_fract_x
_atom_site_fract_y
_atom_site_fract_z
O1 O 0.31294(11) 0.82545(17) 0.37839(5)
O2 O 0.16099(14) 0.84568(18) 0.24387(6)
O3 O 0.00137(13) 1.24561(18) 0.44420(6)
O4 O -0.03837(12) 1.05470(16) 0.38570(6)
O5 O -0.14703(12) 0.71419(18) 0.38345(6)
O6 O 0.46108(13) 0.37196(19) 0.37181(6)
O7 O -0.31515(13) 0.6915(2) 0.28566(7)
O8 O 0.45596(13) 0.9346(2) 0.42512(7)
O9 O 0.19683(13) 0.74878(18) 0.46759(6)
O10 O 0.29458(14) 1.1573(2) 0.46100(7)
H1 H 0.3381 1.0821 0.4510
O11 O 0.18853(14) 0.2990(2) 0.36797(6)
H2 H 0.2353 0.2745 0.3925
O12 O -0.40706(13) 0.9318(2) 0.29396(7)
C1 C 0.02652(18) 1.1118(2) 0.42746(8)
C2 C 0.13109(15) 0.7325(2) 0.34773(7)
H3 H 0.0943 0.6458 0.3250
C3 C -0.11491(16) 0.8166(2) 0.34044(8)
H4 H -0.0953 0.7456 0.3103
C4 C 0.11627(18) 1.0057(3) 0.45136(7)
C5 C -0.31581(17) 0.8323(3) 0.30015(8)
O13 O 0.00626(13) 1.0101(2) 0.24789(6)
C6 C 0.11999(17) 0.8434(2) 0.44085(7)
C7 C 0.42270(16) 0.5269(3) 0.37667(7)
C8 C 0.25468(16) 0.6925(2) 0.35855(7)
C9 C 0.30601(16) 0.5442(2) 0.35441(7)
C10 C 0.24510(16) 0.3962(2) 0.33095(8)
H5 H 0.1876 0.4340 0.3041
H6 H 0.3021 0.3270 0.3135
C11 C -0.04346(18) 0.6458(3) 0.40769(8)
H7 H -0.0264 0.5366 0.3928
H8 H -0.0515 0.6339 0.4457
C12 C -0.00592(16) 0.9044(2) 0.36166(8)
C13 C 0.05204(16) 0.7698(2) 0.39594(7)
C14 C 0.47922(17) 0.6566(3) 0.40028(8)
C15 C 0.1722(2) 0.5763(3) 0.47462(9)
H9 H 0.1507 0.5268 0.4409
H10 H 0.1084 0.5642 0.4982
H11 H 0.2408 0.5210 0.4896
C16 C 0.09868(16) 0.9059(2) 0.32631(8)
H12 H 0.1565 0.9880 0.3400
C17 C 0.08111(16) 0.9277(2) 0.26861(8)
C18 C -0.21572(17) 0.9241(3) 0.32526(9)
H13 H -0.1901 1.0095 0.3008
H14 H -0.2421 0.9807 0.3567
C19 C 0.2015(2) 1.0863(3) 0.48871(9)
H15 H 0.1625 1.1733 0.5084
H16 H 0.2325 1.0037 0.5139
C20 C 0.42017(17) 0.8112(3) 0.40306(8)
C21 C 0.1548(3) 0.8599(3) 0.18756(9)
H17 H 0.2107 0.7846 0.1727
H18 H 0.1727 0.9731 0.1776
H19 H 0.0770 0.8314 0.1744
C22 C -0.50830(19) 0.8610(4) 0.26792(10)
H20 H -0.4897 0.8279 0.2326
H21 H -0.5704 0.9428 0.2662
H22 H -0.5333 0.7646 0.2874
C23 C 0.6004(3) 0.6673(5) 0.42284(16)
H23 H 0.6515 0.5948 0.4031
H24 H 0.6290 0.7816 0.4201
O14 O 0.6021(2) 0.6185(3) 0.47585(10)
H25 H 0.5342 0.6098 0.4856
C24 C 0.5536(3) 0.3090(4) 0.40567(16)
H26 H 0.6280 0.3392 0.3917
H27 H 0.5477 0.1890 0.4078
H28 H 0.5476 0.3564 0.4405
O15? O 0.5846(6) 0.4773(8) 0.4700(3)
H29? H 0.6484 0.4289 0.4694
C25? C 0.5828(7) 0.3324(11) 0.3663(4)
H30? H 0.6174 0.4131 0.3432
H31? H 0.5897 0.2221 0.3513
H32? H 0.6230 0.3357 0.4005
C26? C 0.5875(11) 0.6236(16) 0.4379(6)
H33? H 0.6565 0.6173 0.4166
H34? H 0.5977 0.7199 0.4613
loop_
_geom_bond_atom_site_label_1
_geom_bond_atom_site_label_2
_geom_bond_site_symmetry_1
_geom_bond_site_symmetry_2
O1 C8 1_555 1_555
O2 C17 1_555 1_555
O3 C1 1_555 1_555
O4 C1 1_555 1_555
O5 C3 1_555 1_555
O6 C7 1_555 1_555
O7 C5 1_555 1_555
O8 C20 1_555 1_555
O9 C6 1_555 1_555
O10 H1 1_555 1_555
O11 H2 1_555 1_555
O12 C5 1_555 1_555
C1 C4 1_555 1_555
C2 H3 1_555 1_555
C3 H4 1_555 1_555
C4 C6 1_555 1_555
C5 C18 1_555 1_555
O13 C17 1_555 1_555
C6 C13 1_555 1_555
C7 C9 1_555 1_555
C8 C2 1_555 1_555
C9 C8 1_555 1_555
C10 O11 1_555 1_555
H5 C10 1_555 1_555
H6 C10 1_555 1_555
C11 O5 1_555 1_555
H7 C11 1_555 1_555
H8 C11 1_555 1_555
C12 O4 1_555 1_555
C13 C2 1_555 1_555
C14 C7 1_555 1_555
C15 O9 1_555 1_555
H9 C15 1_555 1_555
H10 C15 1_555 1_555
H11 C15 1_555 1_555
C16 C2 1_555 1_555
H12 C16 1_555 1_555
C17 C16 1_555 1_555
C18 C3 1_555 1_555
H13 C18 1_555 1_555
H14 C18 1_555 1_555
C19 O10 1_555 1_555
H15 C19 1_555 1_555
H16 C19 1_555 1_555
C20 O1 1_555 1_555
C21 O2 1_555 1_555
H17 C21 1_555 1_555
H18 C21 1_555 1_555
H19 C21 1_555 1_555
C22 O12 1_555 1_555
H20 C22 1_555 1_555
H21 C22 1_555 1_555
H22 C22 1_555 1_555
C23 C14 1_555 1_555
H23 C23 1_555 1_555
H24 C23 1_555 1_555
O14 C23 1_555 1_555
H25 O14 1_555 1_555
C24 O6 1_555 1_555
H26 C24 1_555 1_555
H27 C24 1_555 1_555
H28 C24 1_555 1_555
C3 C12 1_555 1_555
C4 C19 1_555 1_555
C9 C10 1_555 1_555
C11 C13 1_555 1_555
C12 C13 1_555 1_555
C12 C16 1_555 1_555
C14 C20 1_555 1_555

#END
