
#######################################################################
#
#                 Cambridge Crystallographic Data Centre
#                                CCDC 
#
#######################################################################
#
# If this CIF has been generated from an entry in the Cambridge 
# Structural Database, then it will include bibliographic, chemical, 
# crystal, experimental, refinement or atomic coordinate data resulting 
# from the CCDC's data processing and validation procedures.
#
#######################################################################

data_ODAFEH
_chemical_formula_moiety         'C24 H23 N1 O8,0.25(H2 O1)'
_chemical_name_systematic        
'tetramethyl 1-(2-phenyl-1H-indol-3-yl)ethane-1,1,2,2-tetracarboxylate hydrate'
_symmetry_cell_setting           monoclinic
_symmetry_space_group_name_H-M   'P 21/c'
_symmetry_Int_Tables_number      14
_space_group_name_Hall           '-P 2ybc'
loop_
_symmetry_equiv_pos_site_id
_symmetry_equiv_pos_as_xyz
1 x,y,z
2 -x,1/2+y,1/2-z
3 -x,-y,-z
4 x,1/2-y,1/2+z
_cell_length_a                   11.7614(5)
_cell_length_b                   10.6106(5)
_cell_length_c                   18.4099(6)
_cell_angle_alpha                90
_cell_angle_beta                 97.494(4)
_cell_angle_gamma                90
_cell_volume                     2277.85
_exptl_crystal_colour            colorless
_exptl_crystal_description       bulk
_chemical_melting_point          '223-225 deg.C'
_cell_formula_units_Z            4
loop_
_atom_site_label
_atom_site_type_symbol
_atom_site_fract_x
_atom_site_fract_y
_atom_site_fract_z
C1 C 0.8502(2) 1.0461(2) 0.31890(12)
H1 H 0.8430 1.0866 0.3629
C2 C 0.8978(3) 1.1079(3) 0.26429(14)
H2 H 0.9236 1.1903 0.2719
C3 C 0.9079(3) 1.0486(3) 0.19741(14)
H3 H 0.9405 1.0923 0.1615
C4 C 0.8706(2) 0.9273(3) 0.18391(12)
H4 H 0.8777 0.8879 0.1396
C5 C 0.82185(19) 0.8656(2) 0.23873(10)
C6 C 0.81290(18) 0.9214(2) 0.30731(10)
C7 C 0.75695(17) 0.83005(19) 0.34866(9)
C8 C 0.73123(17) 0.72834(19) 0.30454(9)
C9 C 0.73813(17) 0.85171(19) 0.42800(9)
C10 C 0.85433(17) 0.8807(2) 0.47685(10)
H5 H 0.8876 0.9541 0.4551
C11 C 0.66066(18) 0.9681(2) 0.43003(10)
C12 C 0.6781(2) 0.7408(2) 0.46236(10)
C13 C 0.83461(17) 0.9191(2) 0.55418(10)
C14 C 0.94181(18) 0.7744(2) 0.47764(11)
C15 C 0.66020(18) 0.6144(2) 0.31085(9)
C16 C 0.7041(2) 0.4949(2) 0.30400(12)
H6 H 0.7815 0.4843 0.2998
C17 C 0.6323(3) 0.3901(3) 0.30334(16)
H7 H 0.6619 0.3096 0.2993
C18 C 0.5171(3) 0.4061(3) 0.30865(16)
H8 H 0.4691 0.3363 0.3071
C19 C 0.4733(2) 0.5243(3) 0.31613(14)
H9 H 0.3959 0.5344 0.3205
C20 C 0.5439(2) 0.6284(2) 0.31726(11)
H10 H 0.5138 0.7085 0.3223
C21 C 0.4838(2) 1.0559(3) 0.38213(15)
H11 H 0.4288 1.0499 0.3389
H12 H 0.5195 1.1374 0.3840
H13 H 0.4459 1.0443 0.4248
C22 C 0.6850(5) 0.5360(5) 0.5082(3)
H14 H 0.6415 0.4883 0.4698
H15 H 0.6347 0.5668 0.5413
H16 H 0.7425 0.4830 0.5344
C23 C 0.8721(3) 1.0737(3) 0.64535(13)
H17 H 0.7925 1.0955 0.6430
H18 H 0.9181 1.1478 0.6561
H19 H 0.8914 1.0122 0.6832
C24 C 1.0890(3) 0.6681(3) 0.55147(18)
H20 H 1.0604 0.5869 0.5348
H21 H 1.1226 0.6623 0.6017
H22 H 1.1459 0.6956 0.5220
N1 N 0.77297(16) 0.74860(17) 0.23883(9)
H23 H 0.7689 0.6956 0.2032
O1 O 0.68100(16) 1.05466(17) 0.47115(9)
O2 O 0.56972(13) 0.96012(16) 0.38023(8)
O3 O 0.57841(14) 0.75407(17) 0.47513(9)
O4 O 0.74018(15) 0.64257(15) 0.47624(8)
O5 O 0.77321(13) 0.86252(15) 0.59023(7)
O6 O 0.89364(14) 1.02184(16) 0.57551(8)
O7 O 0.96513(15) 0.72003(18) 0.42515(9)
O8 O 0.99568(15) 0.75750(18) 0.54514(8)
O9 O 0.3310(11) 0.7401(15) 0.4272(9)
H27 H 0.3950 0.7211 0.4516
H28 H 0.3050 0.8067 0.4448
C25? C 0.5293(8) 0.6604(8) 0.5065(4)
H24? H 0.5098 0.5945 0.4713
H25? H 0.4609 0.6903 0.5242
H26? H 0.5813 0.6282 0.5467
loop_
_geom_bond_atom_site_label_1
_geom_bond_atom_site_label_2
_geom_bond_site_symmetry_1
_geom_bond_site_symmetry_2
C1 H1 1_555 1_555
C2 C1 1_555 1_555
H2 C2 1_555 1_555
C3 C2 1_555 1_555
H3 C3 1_555 1_555
C4 C3 1_555 1_555
H4 C4 1_555 1_555
C5 C4 1_555 1_555
C6 C1 1_555 1_555
C7 C6 1_555 1_555
C8 C7 1_555 1_555
C9 C7 1_555 1_555
C10 C9 1_555 1_555
H5 C10 1_555 1_555
C11 C9 1_555 1_555
C12 C9 1_555 1_555
C13 C10 1_555 1_555
C14 C10 1_555 1_555
C15 C8 1_555 1_555
C16 C15 1_555 1_555
H6 C16 1_555 1_555
C17 C16 1_555 1_555
H7 C17 1_555 1_555
C18 C17 1_555 1_555
H8 C18 1_555 1_555
C19 C18 1_555 1_555
H9 C19 1_555 1_555
C20 C15 1_555 1_555
H10 C20 1_555 1_555
C21 H11 1_555 1_555
H12 C21 1_555 1_555
H13 C21 1_555 1_555
C22 H14 1_555 1_555
H15 C22 1_555 1_555
H16 C22 1_555 1_555
C23 H17 1_555 1_555
H18 C23 1_555 1_555
H19 C23 1_555 1_555
C24 H20 1_555 1_555
H21 C24 1_555 1_555
H22 C24 1_555 1_555
N1 C5 1_555 1_555
H23 N1 1_555 1_555
O1 C11 1_555 1_555
O2 C11 1_555 1_555
O3 C12 1_555 1_555
O4 C12 1_555 1_555
O5 C13 1_555 1_555
O6 C13 1_555 1_555
O7 C14 1_555 1_555
O8 C14 1_555 1_555
O9 H27 1_555 1_555
H28 O9 1_555 1_555
C5 C6 1_555 1_555
C8 N1 1_555 1_555
C19 C20 1_555 1_555
C21 O2 1_555 1_555
C22 O4 1_555 1_555
C23 O6 1_555 1_555
C24 O8 1_555 1_555

#END
