
#######################################################################
#
#                 Cambridge Crystallographic Data Centre
#                                CCDC 
#
#######################################################################
#
# If this CIF has been generated from an entry in the Cambridge 
# Structural Database, then it will include bibliographic, chemical, 
# crystal, experimental, refinement or atomic coordinate data resulting 
# from the CCDC's data processing and validation procedures.
#
#######################################################################

data_ODAJOS
_chemical_compound_source        'Aerial parts of Mikania micrantha'
_chemical_formula_moiety         'C16 H14 O4,H2 O1'
_chemical_name_systematic        'Alpinetin monohydrate'
_symmetry_cell_setting           monoclinic
_symmetry_space_group_name_H-M   'P 21/c'
_symmetry_Int_Tables_number      14
_space_group_name_Hall           '-P 2ybc'
loop_
_symmetry_equiv_pos_site_id
_symmetry_equiv_pos_as_xyz
1 x,y,z
2 x,1/2-y,1/2+z
3 -x,-y,-z
4 -x,1/2+y,1/2-z
_cell_length_a                   5.1888(11)
_cell_length_b                   9.2377(19)
_cell_length_c                   29.243(6)
_cell_angle_alpha                90
_cell_angle_beta                 93.421(5)
_cell_angle_gamma                90
_cell_volume                     1399.19
_exptl_crystal_colour            colorless
_exptl_crystal_description       prism
_cell_formula_units_Z            4
_exptl_crystal_recrystallization_method methanol/DMSO
loop_
_atom_site_label
_atom_site_type_symbol
_atom_site_fract_x
_atom_site_fract_y
_atom_site_fract_z
O1 O 0.7869(9) -0.0939(4) 0.09214(15)
H1 H 0.629(13) -0.038(7) 0.095(2)
H2 H 0.917(13) -0.044(8) 0.088(2)
O2 O 0.3355(6) 0.4694(3) 0.15351(11)
O3 O 0.3325(8) 0.0721(4) 0.09211(13)
O4 O -0.0590(7) 0.1649(4) 0.03676(11)
O5 O -0.2975(8) 0.6566(4) 0.04771(13)
H3 H -0.2571 0.7312 0.0615
C1 C 0.4043(10) 0.3426(5) 0.18012(16)
H4 H 0.2467 0.3042 0.1925
C2 C 0.5096(10) 0.2296(6) 0.14989(16)
H5 H 0.5471 0.1428 0.1677
H6 H 0.6703 0.2639 0.1385
C3 C 0.3245(9) 0.1927(5) 0.10995(16)
C4 C -0.0374(9) 0.2972(5) 0.05681(16)
C5 C -0.1834(10) 0.4133(5) 0.04217(16)
H7 H -0.3059 0.4032 0.0178
C6 C -0.1479(10) 0.5471(5) 0.06391(16)
C7 C 0.0314(9) 0.5635(5) 0.10090(16)
H8 H 0.0553 0.6529 0.1151
C8 C 0.1725(9) 0.4449(5) 0.11601(15)
C9 C 0.1503(9) 0.3084(5) 0.09449(15)
C10 C -0.2490(11) 0.1483(6) -0.00092(18)
H9 H -0.2459 0.0505 -0.0120
H10 H -0.2102 0.2135 -0.0251
H11 H -0.4172 0.1698 0.0093
C11 C 0.5848(10) 0.3865(6) 0.21980(17)
C12 C 0.7853(11) 0.4815(7) 0.21597(19)
H12 H 0.8128 0.5230 0.1877
C13 C 0.9471(11) 0.5163(8) 0.2536(2)
H13 H 1.0807 0.5821 0.2506
C14 C 0.9116(13) 0.4547(8) 0.2948(2)
H14 H 1.0242 0.4762 0.3198
C15 C 0.7127(13) 0.3621(7) 0.2997(2)
H15 H 0.6881 0.3214 0.3282
C16 C 0.5459(12) 0.3274(7) 0.2626(2)
H16 H 0.4083 0.2649 0.2663
loop_
_geom_bond_atom_site_label_1
_geom_bond_atom_site_label_2
_geom_bond_site_symmetry_1
_geom_bond_site_symmetry_2
O1 H1 1_555 1_555
H2 O1 1_555 1_555
O2 C1 1_555 1_555
O3 C3 1_555 1_555
O4 C4 1_555 1_555
O5 H3 1_555 1_555
C1 H4 1_555 1_555
C2 C1 1_555 1_555
H5 C2 1_555 1_555
H6 C2 1_555 1_555
C3 C2 1_555 1_555
C4 C5 1_555 1_555
C5 H7 1_555 1_555
C6 O5 1_555 1_555
C7 C6 1_555 1_555
H8 C7 1_555 1_555
C8 O2 1_555 1_555
C9 C3 1_555 1_555
C10 O4 1_555 1_555
H9 C10 1_555 1_555
H10 C10 1_555 1_555
H11 C10 1_555 1_555
C11 C1 1_555 1_555
C12 C11 1_555 1_555
H12 C12 1_555 1_555
C13 C12 1_555 1_555
H13 C13 1_555 1_555
C14 C13 1_555 1_555
H14 C14 1_555 1_555
C15 C14 1_555 1_555
H15 C15 1_555 1_555
C16 C11 1_555 1_555
H16 C16 1_555 1_555
C4 C9 1_555 1_555
C5 C6 1_555 1_555
C7 C8 1_555 1_555
C8 C9 1_555 1_555
C15 C16 1_555 1_555

#END
