
#######################################################################
#
#                 Cambridge Crystallographic Data Centre
#                                CCDC 
#
#######################################################################
#
# If this CIF has been generated from an entry in the Cambridge 
# Structural Database, then it will include bibliographic, chemical, 
# crystal, experimental, refinement or atomic coordinate data resulting 
# from the CCDC's data processing and validation procedures.
#
#######################################################################

data_ODALAI
_chemical_formula_moiety         'C18 H22 Cl1 N1 O1'
_chemical_name_systematic        
3-(5-Chloro-2-methyl-1H-indol-3-yl)-2-cyclohexylpropanal
_symmetry_cell_setting           orthorhombic
_symmetry_space_group_name_H-M   'P 21 21 21'
_symmetry_Int_Tables_number      19
_space_group_name_Hall           'P 2ac 2ab'
loop_
_symmetry_equiv_pos_site_id
_symmetry_equiv_pos_as_xyz
1 x,y,z
2 1/2-x,-y,1/2+z
3 -x,1/2+y,1/2-z
4 1/2+x,1/2-y,-z
_cell_length_a                   7.5232(15)
_cell_length_b                   9.4114(19)
_cell_length_c                   22.978(5)
_cell_angle_alpha                90
_cell_angle_beta                 90
_cell_angle_gamma                90
_cell_volume                     1626.93
_exptl_crystal_colour            colorless
_exptl_crystal_description       block
_cell_formula_units_Z            4
loop_
_atom_site_label
_atom_site_type_symbol
_atom_site_fract_x
_atom_site_fract_y
_atom_site_fract_z
Cl1 Cl 0.67955(13) 0.80293(8) 0.92734(3)
O1 O 0.2545(3) 0.7493(2) 0.67409(11)
N1 N 0.0758(3) 1.0855(2) 0.81783(10)
H1 H -0.0323 1.1085 0.8290
C1 C 0.3174(3) 1.0639(2) 0.76137(10)
C2 C 0.3503(3) 0.9936(2) 0.81595(10)
C3 C 0.5004(4) 0.9297(2) 0.83987(10)
H2 H 0.6068 0.9200 0.8180
C4 C 0.4898(4) 0.8810(3) 0.89618(11)
C5 C 0.3363(4) 0.8912(3) 0.92930(11)
H3 H 0.3343 0.8542 0.9678
C6 C 0.1864(4) 0.9549(3) 0.90645(11)
H4 H 0.0803 0.9622 0.9287
C7 C 0.1945(3) 1.0084(2) 0.84992(11)
C8 C 0.1517(3) 1.1218(3) 0.76531(11)
C9 C 0.0548(4) 1.2191(3) 0.72437(13)
H5 H 0.0750 1.3180 0.7360
H6 H -0.0728 1.1982 0.7257
H7 H 0.0988 1.2045 0.6847
C10 C 0.4450(3) 1.0736(3) 0.71148(10)
H8 H 0.5614 1.1061 0.7265
H9 H 0.4013 1.1466 0.6839
C11 C 0.4725(3) 0.9336(3) 0.67805(11)
H10 H 0.5394 0.8665 0.7037
C12 C 0.5805(3) 0.9550(3) 0.62118(9)
H11 H 0.5124 1.0212 0.5955
C13 C 0.6048(4) 0.8138(3) 0.58837(13)
H12 H 0.4869 0.7766 0.5768
H13 H 0.6609 0.7434 0.6146
C14 C 0.7217(5) 0.8326(3) 0.53337(12)
H14 H 0.7405 0.7388 0.5149
H15 H 0.6585 0.8939 0.5051
C15 C 0.8953(4) 0.8964(3) 0.54711(14)
H16 H 0.9628 0.9115 0.5106
H17 H 0.9642 0.8303 0.5719
C16 C 0.8735(4) 1.0375(3) 0.57851(13)
H18 H 0.8160 1.1068 0.5521
H19 H 0.9921 1.0751 0.5891
C17 C 0.7615(4) 1.0216(3) 0.63336(12)
H20 H 0.7439 1.1164 0.6512
H21 H 0.8264 0.9618 0.6617
C18 C 0.3007(4) 0.8686(3) 0.66347(13)
H22 H 0.2175 0.9270 0.6436
loop_
_geom_bond_atom_site_label_1
_geom_bond_atom_site_label_2
_geom_bond_site_symmetry_1
_geom_bond_site_symmetry_2
Cl1 C4 1_555 1_555
O1 C18 1_555 1_555
N1 H1 1_555 1_555
C1 C2 1_555 1_555
C2 C3 1_555 1_555
C3 H2 1_555 1_555
C4 C3 1_555 1_555
C5 C4 1_555 1_555
H3 C5 1_555 1_555
C6 C5 1_555 1_555
H4 C6 1_555 1_555
C7 N1 1_555 1_555
C8 N1 1_555 1_555
C9 C8 1_555 1_555
H5 C9 1_555 1_555
H6 C9 1_555 1_555
H7 C9 1_555 1_555
C10 C1 1_555 1_555
H8 C10 1_555 1_555
H9 C10 1_555 1_555
C11 C10 1_555 1_555
H10 C11 1_555 1_555
C12 C11 1_555 1_555
H11 C12 1_555 1_555
C13 C12 1_555 1_555
H12 C13 1_555 1_555
H13 C13 1_555 1_555
C14 C13 1_555 1_555
H14 C14 1_555 1_555
H15 C14 1_555 1_555
C15 C14 1_555 1_555
H16 C15 1_555 1_555
H17 C15 1_555 1_555
C16 C15 1_555 1_555
H18 C16 1_555 1_555
H19 C16 1_555 1_555
C17 C12 1_555 1_555
H20 C17 1_555 1_555
H21 C17 1_555 1_555
C18 C11 1_555 1_555
H22 C18 1_555 1_555
C1 C8 1_555 1_555
C2 C7 1_555 1_555
C6 C7 1_555 1_555
C16 C17 1_555 1_555

#END
