
#######################################################################
#
#                 Cambridge Crystallographic Data Centre
#                                CCDC 
#
#######################################################################
#
# If this CIF has been generated from an entry in the Cambridge 
# Structural Database, then it will include bibliographic, chemical, 
# crystal, experimental, refinement or atomic coordinate data resulting 
# from the CCDC's data processing and validation procedures.
#
#######################################################################

data_ODAMOY
_chemical_formula_moiety         'C19 H21 N5 O3'
_chemical_name_systematic        
5-isopropyl-2,2,12-trimethyl-1,4-dihydro-2H-pyrano[4'',3'':4',5']pyrido[3',2':4,5]furo[3,2-d][1,2,4]triazolo[4,3-a]pyrimidin-8(12H)-one
_symmetry_cell_setting           orthorhombic
_symmetry_space_group_name_H-M   'P b c a'
_symmetry_Int_Tables_number      61
_space_group_name_Hall           '-P 2ac 2ab'
loop_
_symmetry_equiv_pos_site_id
_symmetry_equiv_pos_as_xyz
1 x,y,z
2 1/2-x,-y,1/2+z
3 -x,1/2+y,1/2-z
4 1/2+x,1/2-y,-z
5 -x,-y,-z
6 1/2+x,y,1/2-z
7 x,1/2-y,1/2+z
8 1/2-x,1/2+y,z
_cell_length_a                   9.5623(19)
_cell_length_b                   19.272(4)
_cell_length_c                   19.886(4)
_cell_angle_alpha                90
_cell_angle_beta                 90
_cell_angle_gamma                90
_cell_volume                     3664.68
_exptl_crystal_colour            colorless
_exptl_crystal_description       prism
_cell_formula_units_Z            8
loop_
_atom_site_label
_atom_site_type_symbol
_atom_site_fract_x
_atom_site_fract_y
_atom_site_fract_z
O1 O 0.52026(12) 0.04313(6) 0.17023(7)
C1 C 0.42164(18) 0.09896(9) 0.18009(9)
C2 C 0.3787(3) 0.10482(12) 0.25331(11)
H1 H 0.319(2) 0.0652(11) 0.2686(10)
H2 H 0.464(3) 0.1045(12) 0.2807(13)
H3 H 0.324(3) 0.1473(13) 0.2592(12)
C3 C 0.5008(2) 0.16324(11) 0.15837(13)
H4 H 0.530(2) 0.1592(11) 0.1101(12)
H5 H 0.441(2) 0.2045(12) 0.1625(11)
H6 H 0.587(3) 0.1696(12) 0.1833(12)
C4 C 0.29758(19) 0.08527(9) 0.13414(10)
H7 H 0.327(2) 0.0928(9) 0.0854(11)
H8 H 0.218(2) 0.1195(10) 0.1450(9)
C5 C 0.24506(17) 0.01226(8) 0.14148(8)
C6 C 0.11165(16) -0.00738(8) 0.11966(8)
C7 C -0.00661(16) 0.02585(9) 0.08833(8)
N1 N -0.02097(15) 0.09320(7) 0.06871(7)
C8 C -0.14433(18) 0.10340(9) 0.04163(8)
N2 N -0.19664(17) 0.16256(9) 0.01588(8)
C9 C -0.1263(14) 0.2290(9) 0.0056(9)
H9 H -0.045080 0.231370 0.033884
H10 H -0.189010 0.266098 0.016796
H11 H -0.098553 0.233045 -0.040619
N3 N -0.32905(17) 0.15296(10) -0.00934(9)
C10 C -0.3580(2) 0.08892(12) 0.00104(10)
H12 H -0.441(2) 0.0657(11) -0.0116(10)
N4 N -0.24890(15) 0.05488(8) 0.03255(7)
C11 C -0.23892(18) -0.01604(10) 0.05210(9)
O2 O -0.33488(13) -0.05627(7) 0.04219(7)
C12 C -0.10586(17) -0.02555(9) 0.08134(8)
O3 O -0.06075(12) -0.08888(6) 0.10571(6)
C13 C 0.07158(17) -0.07607(9) 0.12931(8)
N5 N 0.14292(15) -0.12578(7) 0.15874(8)
C14 C 0.27092(18) -0.10668(9) 0.18046(9)
C15 C 0.3497(2) -0.16229(9) 0.21792(11)
H13 H 0.437(2) -0.1422(9) 0.2344(9)
C16 C 0.2653(3) -0.18695(13) 0.27834(13)
H14 H 0.244(3) -0.1452(14) 0.3064(13)
H15 H 0.327(3) -0.2193(13) 0.3058(12)
H16 H 0.176(3) -0.2101(13) 0.2621(13)
C17 C 0.3853(3) -0.22245(14) 0.17107(14)
H17 H 0.450(3) -0.2049(12) 0.1361(13)
H18 H 0.299(3) -0.2436(13) 0.1527(14)
H19 H 0.438(2) -0.2597(12) 0.1976(11)
C18 C 0.32568(17) -0.03931(8) 0.17101(9)
C19 C 0.4735(2) -0.02258(10) 0.19281(13)
H20 H 0.545(2) -0.0577(11) 0.1723(11)
H21 H 0.475(2) -0.0248(11) 0.2415(13)
C20? C -0.122(2) 0.2265(14) 0.0156(15)
H22? H -0.159276 0.256310 -0.018582
H23? H -0.024841 0.217689 0.006616
H24? H -0.131080 0.248499 0.058705
loop_
_geom_bond_atom_site_label_1
_geom_bond_atom_site_label_2
_geom_bond_site_symmetry_1
_geom_bond_site_symmetry_2
O1 C1 1_555 1_555
C1 C2 1_555 1_555
C2 H1 1_555 1_555
H2 C2 1_555 1_555
H3 C2 1_555 1_555
C3 C1 1_555 1_555
H4 C3 1_555 1_555
H5 C3 1_555 1_555
H6 C3 1_555 1_555
C4 C1 1_555 1_555
H7 C4 1_555 1_555
H8 C4 1_555 1_555
C5 C4 1_555 1_555
C6 C5 1_555 1_555
C7 C6 1_555 1_555
N1 C7 1_555 1_555
C8 N1 1_555 1_555
N2 C8 1_555 1_555
C9 N2 1_555 1_555
H9 C9 1_555 1_555
H10 C9 1_555 1_555
H11 C9 1_555 1_555
N3 N2 1_555 1_555
C10 N3 1_555 1_555
H12 C10 1_555 1_555
N4 C8 1_555 1_555
C11 N4 1_555 1_555
O2 C11 1_555 1_555
C12 C7 1_555 1_555
O3 C12 1_555 1_555
C13 C6 1_555 1_555
N5 C13 1_555 1_555
C14 N5 1_555 1_555
C15 C14 1_555 1_555
H13 C15 1_555 1_555
C16 C15 1_555 1_555
H14 C16 1_555 1_555
H15 C16 1_555 1_555
H16 C16 1_555 1_555
C17 C15 1_555 1_555
H17 C17 1_555 1_555
H18 C17 1_555 1_555
H19 C17 1_555 1_555
C18 C5 1_555 1_555
C19 O1 1_555 1_555
H20 C19 1_555 1_555
H21 C19 1_555 1_555
C10 N4 1_555 1_555
C11 C12 1_555 1_555
O3 C13 1_555 1_555
C14 C18 1_555 1_555
C18 C19 1_555 1_555

#END
