
#######################################################################
#
#                 Cambridge Crystallographic Data Centre
#                                CCDC 
#
#######################################################################
#
# If this CIF has been generated from an entry in the Cambridge 
# Structural Database, then it will include bibliographic, chemical, 
# crystal, experimental, refinement or atomic coordinate data resulting 
# from the CCDC's data processing and validation procedures.
#
#######################################################################

data_ODAPOZ
_chemical_formula_moiety         'C18 H20 N2 O3'
_chemical_name_systematic        
N,N'-bis(4-Methylphenyl)-3-oxapentane-1,5-diamide
_symmetry_cell_setting           monoclinic
_symmetry_space_group_name_H-M   'C 2/c'
_symmetry_Int_Tables_number      15
_space_group_name_Hall           '-C 2yn'
loop_
_symmetry_equiv_pos_site_id
_symmetry_equiv_pos_as_xyz
1 x,y,z
2 1/2+x,1/2+y,z
3 -x,y,1/2-z
4 1/2-x,1/2+y,1/2-z
5 -x,-y,-z
6 1/2-x,1/2-y,-z
7 x,-y,1/2+z
8 1/2+x,1/2-y,1/2+z
_cell_length_a                   29.059(3)
_cell_length_b                   6.2798(7)
_cell_length_c                   8.9209(10)
_cell_angle_alpha                90
_cell_angle_beta                 90.299(2)
_cell_angle_gamma                90
_cell_volume                     1627.91
_exptl_crystal_colour            'dark brown'
_exptl_crystal_description       column
_cell_formula_units_Z            4
_exptl_crystal_recrystallization_method 'ethanol/ethyl acetate'
loop_
_atom_site_label
_atom_site_type_symbol
_atom_site_fract_x
_atom_site_fract_y
_atom_site_fract_z
O1 O 0.44624(4) 0.2291(2) 0.59977(12)
O2 O 0.5000 0.1581(2) 0.2500
N1 N 0.43010(4) 0.0061(2) 0.40447(13)
H1 H 0.4387 -0.0260 0.3152
C1 C 0.28081(7) -0.5011(4) 0.6230(2)
H2 H 0.2806 -0.6351 0.5713
H3 H 0.2524 -0.4276 0.6037
H4 H 0.2841 -0.5255 0.7288
C2 C 0.32059(6) -0.3675(3) 0.56842(18)
C3 C 0.34980(6) -0.4399(3) 0.45754(18)
H5 H 0.3451 -0.5748 0.4172
C4 C 0.38568(6) -0.3170(3) 0.40524(18)
H6 H 0.4046 -0.3692 0.3300
C5 C 0.39360(5) -0.1162(2) 0.46449(15)
C6 C 0.36468(5) -0.0405(3) 0.57568(17)
H7 H 0.3692 0.0945 0.6160
C7 C 0.32909(6) -0.1674(3) 0.62610(19)
H8 H 0.3102 -0.1160 0.7017
C8 C 0.45277(5) 0.1669(2) 0.47189(17)
C9 C 0.48804(6) 0.2789(3) 0.37662(17)
H9 H 0.4758 0.4152 0.3444
H10 H 0.5154 0.3058 0.4363
O1B O 0.55376(4) 0.2291(2) -0.09977(12)
N1B N 0.56990(4) 0.0061(2) 0.09553(13)
H1B H 0.5613 -0.0260 0.1848
C1B C 0.71919(7) -0.5011(4) -0.1230(2)
H2B H 0.7194 -0.6351 -0.0713
H3B H 0.7476 -0.4276 -0.1037
H4B H 0.7159 -0.5255 -0.2288
C2B C 0.67941(6) -0.3675(3) -0.06842(18)
C3B C 0.65020(6) -0.4399(3) 0.04246(18)
H5B H 0.6549 -0.5748 0.0828
C4B C 0.61432(6) -0.3170(3) 0.09476(18)
H6B H 0.5954 -0.3692 0.1700
C5B C 0.60640(5) -0.1162(2) 0.03551(15)
C6B C 0.63532(5) -0.0405(3) -0.07568(17)
H7B H 0.6308 0.0945 -0.1160
C7B C 0.67091(6) -0.1674(3) -0.12610(19)
H8B H 0.6898 -0.1160 -0.2017
C8B C 0.54723(5) 0.1669(2) 0.02811(17)
C9B C 0.51196(6) 0.2789(3) 0.12338(17)
H9B H 0.5242 0.4152 0.1556
H10B H 0.4846 0.3058 0.0637
loop_
_geom_bond_atom_site_label_1
_geom_bond_atom_site_label_2
_geom_bond_site_symmetry_1
_geom_bond_site_symmetry_2
O1 C8 1_555 1_555
O2 C9 1_555 1_555
N1 H1 1_555 1_555
C1 H2 1_555 1_555
H3 C1 1_555 1_555
H4 C1 1_555 1_555
C2 C1 1_555 1_555
C3 C2 1_555 1_555
H5 C3 1_555 1_555
C4 C3 1_555 1_555
H6 C4 1_555 1_555
C5 N1 1_555 1_555
C6 C5 1_555 1_555
H7 C6 1_555 1_555
C7 C2 1_555 1_555
H8 C7 1_555 1_555
C8 N1 1_555 1_555
C9 C8 1_555 1_555
H9 C9 1_555 1_555
H10 C9 1_555 1_555
O1B C8B 1_555 1_555
N1B H1B 1_555 1_555
C1B H2B 1_555 1_555
H3B C1B 1_555 1_555
H4B C1B 1_555 1_555
C2B C1B 1_555 1_555
C3B C2B 1_555 1_555
H5B C3B 1_555 1_555
C4B C3B 1_555 1_555
H6B C4B 1_555 1_555
C5B N1B 1_555 1_555
C6B C5B 1_555 1_555
H7B C6B 1_555 1_555
C7B C2B 1_555 1_555
H8B C7B 1_555 1_555
C8B N1B 1_555 1_555
C9B O2 1_555 1_555
H9B C9B 1_555 1_555
H10B C9B 1_555 1_555
C4 C5 1_555 1_555
C6 C7 1_555 1_555
C4B C5B 1_555 1_555
C6B C7B 1_555 1_555
C8B C9B 1_555 1_555

#END
