
#######################################################################
#
#                 Cambridge Crystallographic Data Centre
#                                CCDC 
#
#######################################################################
#
# If this CIF has been generated from an entry in the Cambridge 
# Structural Database, then it will include bibliographic, chemical, 
# crystal, experimental, refinement or atomic coordinate data resulting 
# from the CCDC's data processing and validation procedures.
#
#######################################################################

data_ODARIV
_chemical_formula_moiety         'C22 H27 N7,4.5(H2 O1)'
_chemical_name_systematic        
'1,4-bis(1H-Benzimidazol-2-ylmethyl)-1,4,7-triazacyclononane hydrate'
_symmetry_cell_setting           monoclinic
_symmetry_space_group_name_H-M   'P 21/c'
_symmetry_Int_Tables_number      14
_space_group_name_Hall           '-P 2ybc'
loop_
_symmetry_equiv_pos_site_id
_symmetry_equiv_pos_as_xyz
1 x,y,z
2 -x,1/2+y,1/2-z
3 -x,-y,-z
4 x,1/2-y,1/2+z
_cell_length_a                   7.4815(5)
_cell_length_b                   21.5452(14)
_cell_length_c                   37.968(3)
_cell_angle_alpha                90
_cell_angle_beta                 91.2610(10)
_cell_angle_gamma                90
_cell_volume                     6118.6
_exptl_crystal_colour            yellow
_exptl_crystal_description       block
_cell_formula_units_Z            8
_exptl_crystal_recrystallization_method 'diethyl ether/ethanol/water'
loop_
_atom_site_label
_atom_site_type_symbol
_atom_site_fract_x
_atom_site_fract_y
_atom_site_fract_z
C1 C 0.1859(3) 0.33911(11) 0.65638(6)
H1 H 0.1572 0.3824 0.6606
H2 H 0.0769 0.3151 0.6584
C2 C 0.2568(3) 0.33196(10) 0.61995(6)
H3 H 0.3490 0.3627 0.6159
H4 H 0.1613 0.3382 0.6026
C3 C 0.1928(3) 0.21736(10) 0.61558(6)
H5 H 0.1724 0.2030 0.5916
H6 H 0.0810 0.2331 0.6244
C4 C 0.2606(3) 0.16459(11) 0.63855(6)
H7 H 0.1645 0.1351 0.6419
H8 H 0.3562 0.1433 0.6266
C5 C 0.1938(3) 0.21461(10) 0.69520(6)
H9 H 0.1702 0.1871 0.7148
H10 H 0.0828 0.2201 0.6819
C6 C 0.2559(3) 0.27699(10) 0.70935(6)
H11 H 0.1580 0.2965 0.7215
H12 H 0.3523 0.2703 0.7264
C7 C 0.4474(3) 0.36577(11) 0.69455(6)
H13 H 0.5061 0.3823 0.6741
H14 H 0.5381 0.3459 0.7093
C8 C 0.3685(3) 0.41820(10) 0.71449(6)
C9 C 0.2640(3) 0.51055(10) 0.72740(6)
C10 C 0.1989(3) 0.57269(12) 0.72770(7)
H15 H 0.1891 0.5963 0.7072
C11 C 0.1520(3) 0.59554(11) 0.75964(6)
H16 H 0.1162 0.6368 0.7610
C12 C 0.1551(3) 0.56078(11) 0.78961(7)
H17 H 0.1147 0.5784 0.8103
C13 C 0.2163(3) 0.50021(11) 0.79030(6)
H18 H 0.2195 0.4772 0.8110
C14 C 0.2723(3) 0.47548(10) 0.75896(6)
C15 C 0.4561(3) 0.14630(10) 0.69067(6)
H19 H 0.5091 0.1692 0.7103
H20 H 0.5507 0.1362 0.6746
C16 C 0.3782(3) 0.08796(10) 0.70411(6)
C17 C 0.2759(3) -0.00859(11) 0.70774(6)
C18 C 0.2172(3) -0.06970(10) 0.70183(6)
H21 H 0.2159 -0.0873 0.6795
C19 C 0.1633(3) -0.10144(11) 0.72998(6)
H22 H 0.1253 -0.1423 0.7273
C20 C 0.1631(3) -0.07392(11) 0.76367(6)
H23 H 0.1251 -0.0982 0.7823
C21 C 0.2130(3) -0.01611(12) 0.77083(6)
H24 H 0.2101 0.0009 0.7933
C22 C 0.2716(3) 0.01772(11) 0.74090(6)
N1 N 0.3164(2) 0.31819(8) 0.68274(5)
N2 N 0.3328(3) 0.26782(8) 0.61641(5)
H49 H 0.4088 0.2608 0.6347
N3 N 0.3259(2) 0.18573(8) 0.67257(5)
N4 N 0.3261(2) 0.47259(8) 0.70186(5)
H50 H 0.3362 0.4831 0.6801
N5 N 0.3365(2) 0.41830(8) 0.74922(5)
N6 N 0.3445(2) 0.03607(9) 0.68581(5)
N7 N 0.3354(3) 0.07741(9) 0.73753(5)
H51 H 0.3460 0.1039 0.7544
C23 C 0.6629(3) 0.33514(10) 0.40561(5)
H25 H 0.6329 0.3786 0.4085
H26 H 0.5556 0.3108 0.4091
C24 C 0.7323(3) 0.32400(11) 0.36815(6)
H27 H 0.6339 0.3267 0.3512
H28 H 0.8193 0.3556 0.3625
C25 C 0.6911(3) 0.21078(11) 0.36742(6)
H29 H 0.6720 0.1948 0.3438
H30 H 0.5769 0.2252 0.3758
C26 C 0.7600(3) 0.15799(11) 0.39145(6)
H31 H 0.6651 0.1281 0.3950
H32 H 0.8581 0.1368 0.3803
C27 C 0.6860(3) 0.21283(10) 0.44638(6)
H33 H 0.6588 0.1864 0.4662
H34 H 0.5775 0.2176 0.4322
C28 C 0.7457(3) 0.27650(10) 0.46004(5)
H35 H 0.6481 0.2957 0.4724
H36 H 0.8448 0.2712 0.4767
C29 C 0.9279(3) 0.36555(11) 0.44192(6)
H37 H 0.9738 0.3843 0.4207
H38 H 1.0279 0.3461 0.4543
C30 C 0.8569(3) 0.41579(10) 0.46459(6)
C31 C 0.7454(3) 0.50426(11) 0.48498(6)
C32 C 0.6766(3) 0.56253(11) 0.48858(6)
H39 H 0.6518 0.5875 0.4691
C33 C 0.6457(3) 0.58242(12) 0.52186(6)
H40 H 0.5952 0.6213 0.5253
C34 C 0.6869(3) 0.54686(11) 0.54981(6)
H41 H 0.6705 0.5629 0.5723
C35 C 0.7528(3) 0.48724(11) 0.54654(7)
H42 H 0.7731 0.4624 0.5663
C36 C 0.7866(3) 0.46624(11) 0.51415(6)
C37 C 0.9505(3) 0.14493(10) 0.44515(6)
H43 H 1.0006 0.1692 0.4645
H44 H 1.0474 0.1343 0.4297
C38 C 0.8759(3) 0.08725(10) 0.45949(6)
C39 C 0.7794(3) -0.00917(10) 0.46648(6)
C40 C 0.7258(3) -0.06996(11) 0.46196(7)
H45 H 0.7290 -0.0898 0.4402
C41 C 0.6677(3) -0.09922(11) 0.49167(7)
H46 H 0.6312 -0.1404 0.4897
C42 C 0.6599(3) -0.07084(12) 0.52472(7)
H47 H 0.6220 -0.0933 0.5441
C43 C 0.7076(3) -0.01069(11) 0.52834(6)
H48 H 0.6989 0.0096 0.5499
C44 C 0.7710(3) 0.02040(11) 0.49839(6)
N8 N 0.8005(2) 0.31734(8) 0.43163(5)
N9 N 0.8145(2) 0.26305(8) 0.36621(5)
H52 H 0.8943 0.2593 0.3842
N10 N 0.8209(2) 0.18328(8) 0.42554(4)
N11 N 0.7912(2) 0.46896(9) 0.45497(5)
H53 H 0.7773 0.4811 0.4335
N12 N 0.8542(3) 0.41055(9) 0.50063(5)
N13 N 0.8444(2) 0.03517(8) 0.44374(5)
H54 H 0.8618 0.0288 0.4217
N14 N 0.8266(2) 0.08042(8) 0.49383(4)
O1 O 0.2163(4) 0.61291(15) 0.88526(8)
H55 H 0.3212 0.6171 0.8940
H56 H 0.1861 0.6460 0.8745
O2 O 0.4792(5) 0.72461(16) 0.45344(9)
H57 H 0.4984 0.7525 0.4382
H58 H 0.4939 0.6890 0.4443
O3 O 0.7144(5) 0.49975(17) 0.37789(10)
H59 H 0.6022 0.5028 0.3744
H60 H 0.7641 0.5340 0.3728
O4 O 0.7684(5) 0.24306(14) 0.23019(9)
H61 H 0.7968 0.2277 0.2105
H62 H 0.6571 0.2509 0.2300
O5 O 0.8409(5) 0.47745(16) 0.64193(9)
H63 H 0.8885 0.4417 0.6405
H64 H 0.7448 0.4783 0.6296
O6 O 0.8329(2) 0.17663(7) 0.54300(4)
H65 H 0.8985 0.1449 0.5400
H66 H 0.7640 0.1702 0.5601
O7 O 0.7212(5) 0.34956(17) 0.61338(10)
H67 H 0.7407 0.3181 0.6005
H68 H 0.7798 0.3460 0.6327
O8 O 0.3772(4) 0.18115(15) 0.79300(9)
H69 H 0.4138 0.1988 0.7745
H70 H 0.4584 0.1572 0.8012
O9 O 0.47605(19) 0.01240(7) 0.61949(4)
H71 H 0.4640 0.0313 0.6390
H72 H 0.5845 0.0145 0.6134
O10 O 0.2051(5) 0.14010(17) 0.86493(10)
H73 H 0.1556 0.1103 0.8756
H74 H 0.2284 0.1292 0.8440
O11 O 0.3473(2) 0.33101(7) 0.80130(4)
H75 H 0.3397 0.3625 0.8147
H76 H 0.2737 0.3348 0.7841
O12 O 0.9835(4) 0.00977(16) 0.37816(9)
H77 H 0.9416 -0.0268 0.3762
H78 H 0.9403 0.0324 0.3617
O13 O 0.28393(19) 0.11084(6) 0.37363(4)
H79 H 0.3835 0.0967 0.3813
H80 H 0.1998 0.0875 0.3804
O14 O 1.2258(5) 0.24921(17) 0.40344(9)
H81 H 1.1819 0.2864 0.4117
H82 H 1.1771 0.2396 0.3878
O15 O 0.9775(2) 0.30901(7) 0.54434(4)
H83 H 0.9464 0.2713 0.5417
H84 H 0.9524 0.3292 0.5257
loop_
_geom_bond_atom_site_label_1
_geom_bond_atom_site_label_2
_geom_bond_site_symmetry_1
_geom_bond_site_symmetry_2
C1 H1 1_555 1_555
H2 C1 1_555 1_555
C2 C1 1_555 1_555
H3 C2 1_555 1_555
H4 C2 1_555 1_555
C3 H5 1_555 1_555
H6 C3 1_555 1_555
C4 C3 1_555 1_555
H7 C4 1_555 1_555
H8 C4 1_555 1_555
C5 H9 1_555 1_555
H10 C5 1_555 1_555
C6 C5 1_555 1_555
H11 C6 1_555 1_555
H12 C6 1_555 1_555
C7 H13 1_555 1_555
H14 C7 1_555 1_555
C8 C7 1_555 1_555
C9 C10 1_555 1_555
C10 H15 1_555 1_555
C11 C10 1_555 1_555
H16 C11 1_555 1_555
C12 C11 1_555 1_555
H17 C12 1_555 1_555
C13 C12 1_555 1_555
H18 C13 1_555 1_555
C14 C9 1_555 1_555
C15 H19 1_555 1_555
H20 C15 1_555 1_555
C16 C15 1_555 1_555
C17 C18 1_555 1_555
C18 H21 1_555 1_555
C19 C18 1_555 1_555
H22 C19 1_555 1_555
C20 C19 1_555 1_555
H23 C20 1_555 1_555
C21 C20 1_555 1_555
H24 C21 1_555 1_555
C22 C17 1_555 1_555
C23 H25 1_555 1_555
H26 C23 1_555 1_555
C24 C23 1_555 1_555
H27 C24 1_555 1_555
H28 C24 1_555 1_555
C25 H29 1_555 1_555
H30 C25 1_555 1_555
C26 C25 1_555 1_555
H31 C26 1_555 1_555
H32 C26 1_555 1_555
C27 H33 1_555 1_555
H34 C27 1_555 1_555
C28 C27 1_555 1_555
H35 C28 1_555 1_555
H36 C28 1_555 1_555
C29 H37 1_555 1_555
H38 C29 1_555 1_555
C30 C29 1_555 1_555
C31 C32 1_555 1_555
C32 H39 1_555 1_555
C33 C32 1_555 1_555
H40 C33 1_555 1_555
C34 C33 1_555 1_555
H41 C34 1_555 1_555
C35 C34 1_555 1_555
H42 C35 1_555 1_555
C36 C31 1_555 1_555
C37 H43 1_555 1_555
H44 C37 1_555 1_555
C38 C37 1_555 1_555
C39 C40 1_555 1_555
C40 H45 1_555 1_555
C41 C40 1_555 1_555
H46 C41 1_555 1_555
C42 C41 1_555 1_555
H47 C42 1_555 1_555
C43 C42 1_555 1_555
H48 C43 1_555 1_555
C44 C39 1_555 1_555
N1 C1 1_555 1_555
N2 C2 1_555 1_555
H49 N2 1_555 1_555
N3 C4 1_555 1_555
N4 C8 1_555 1_555
H50 N4 1_555 1_555
N5 C8 1_555 1_555
N6 C16 1_555 1_555
N7 C16 1_555 1_555
H51 N7 1_555 1_555
N8 C23 1_555 1_555
N9 C24 1_555 1_555
H52 N9 1_555 1_555
N10 C26 1_555 1_555
N11 C30 1_555 1_555
H53 N11 1_555 1_555
N12 C30 1_555 1_555
N13 C38 1_555 1_555
H54 N13 1_555 1_555
N14 C38 1_555 1_555
O1 H55 1_555 1_555
H56 O1 1_555 1_555
O2 H57 1_555 1_555
H58 O2 1_555 1_555
O3 H59 1_555 1_555
H60 O3 1_555 1_555
O4 H61 1_555 1_555
H62 O4 1_555 1_555
O5 H63 1_555 1_555
H64 O5 1_555 1_555
O6 H65 1_555 1_555
H66 O6 1_555 1_555
O7 H67 1_555 1_555
H68 O7 1_555 1_555
O8 H69 1_555 1_555
H70 O8 1_555 1_555
O9 H71 1_555 1_555
H72 O9 1_555 1_555
O10 H73 1_555 1_555
H74 O10 1_555 1_555
O11 H75 1_555 1_555
H76 O11 1_555 1_555
O12 H77 1_555 1_555
H78 O12 1_555 1_555
O13 H79 1_555 1_555
H80 O13 1_555 1_555
O14 H81 1_555 1_555
H82 O14 1_555 1_555
O15 H83 1_555 1_555
H84 O15 1_555 1_555
C3 N2 1_555 1_555
C5 N3 1_555 1_555
C6 N1 1_555 1_555
C7 N1 1_555 1_555
C9 N4 1_555 1_555
C13 C14 1_555 1_555
C14 N5 1_555 1_555
C15 N3 1_555 1_555
C17 N6 1_555 1_555
C21 C22 1_555 1_555
C22 N7 1_555 1_555
C25 N9 1_555 1_555
C27 N10 1_555 1_555
C28 N8 1_555 1_555
C29 N8 1_555 1_555
C31 N11 1_555 1_555
C35 C36 1_555 1_555
C36 N12 1_555 1_555
C37 N10 1_555 1_555
C39 N13 1_555 1_555
C43 C44 1_555 1_555
C44 N14 1_555 1_555

#END
