
#######################################################################
#
#                 Cambridge Crystallographic Data Centre
#                                CCDC 
#
#######################################################################
#
# If this CIF has been generated from an entry in the Cambridge 
# Structural Database, then it will include bibliographic, chemical, 
# crystal, experimental, refinement or atomic coordinate data resulting 
# from the CCDC's data processing and validation procedures.
#
#######################################################################

data_ODAROB
_chemical_formula_moiety         'C14 H14 N3 O3 1+,Cl1 1-,0.5(H2 O1)'
_chemical_name_systematic        
'2-Hydroxy-3-methoxybenzaldehyde (pyridinium-4-ylcarbonyl)hydrazone chloride hemihydrate'
_symmetry_cell_setting           monoclinic
_symmetry_space_group_name_H-M   'P 21/n'
_symmetry_Int_Tables_number      14
_space_group_name_Hall           '-P 2yn'
loop_
_symmetry_equiv_pos_site_id
_symmetry_equiv_pos_as_xyz
1 x,y,z
2 1/2-x,1/2+y,1/2-z
3 -x,-y,-z
4 1/2+x,1/2-y,1/2+z
_cell_length_a                   12.925(3)
_cell_length_b                   7.4369(17)
_cell_length_c                   15.503(4)
_cell_angle_alpha                90
_cell_angle_beta                 90.978(4)
_cell_angle_gamma                90
_cell_volume                     1489.96
_exptl_crystal_colour            orange
_exptl_crystal_description       block
_chemical_melting_point          '577-579 K'
_cell_formula_units_Z            4
_exptl_crystal_recrystallization_method dichloromethane/ethanol
loop_
_atom_site_label
_atom_site_type_symbol
_atom_site_fract_x
_atom_site_fract_y
_atom_site_fract_z
Cl1 Cl 0.31325(7) 0.16185(15) 0.03481(7)
N1 N 0.4389(2) 0.7328(4) 0.4864(2)
H1 H 0.3763 0.7198 0.4677
N2 N 0.4683(2) 0.6687(4) 0.5659(2)
N3 N 0.4173(3) 1.0378(4) 0.1989(2)
H2 H 0.3997 1.0844 0.1500
O1 O 0.6002(2) 0.8312(4) 0.46072(19)
O2 O 0.60495(18) 0.5743(3) 0.68531(17)
H3 H 0.5855 0.6113 0.6379
O3 O 0.6416(2) 0.4348(4) 0.83758(17)
C1 C 0.5096(3) 0.8164(5) 0.4378(3)
C2 C 0.4722(3) 0.8914(5) 0.3531(2)
C3 C 0.3702(3) 0.8953(5) 0.3268(3)
H6 H 0.3192 0.8476 0.3617
C4 C 0.3444(3) 0.9703(5) 0.2486(3)
H7 H 0.2755 0.9737 0.2304
C5 C 0.5161(3) 1.0358(6) 0.2222(3)
H8 H 0.5655 1.0827 0.1856
C6 C 0.5458(3) 0.9648(5) 0.2999(3)
H9 H 0.6151 0.9660 0.3170
C7 C 0.3969(3) 0.6038(6) 0.6129(3)
H10 H 0.3292 0.6003 0.5918
C8 C 0.4204(3) 0.5357(5) 0.6985(3)
C9 C 0.5214(3) 0.5220(5) 0.7315(2)
C10 C 0.5401(3) 0.4503(5) 0.8136(3)
C11 C 0.4581(3) 0.4003(6) 0.8632(3)
H11 H 0.4700 0.3560 0.9185
C12 C 0.3579(4) 0.4150(7) 0.8316(3)
H12 H 0.3030 0.3805 0.8658
C13 C 0.3388(3) 0.4799(7) 0.7505(3)
H13 H 0.2711 0.4871 0.7296
C14 C 0.6644(3) 0.3643(6) 0.9216(3)
H14 H 0.7380 0.3589 0.9304
H15 H 0.6357 0.2457 0.9264
H16 H 0.6347 0.4410 0.9644
O4 O 0.8115(5) 0.6619(10) 0.4042(5)
H4 H 0.8242 0.5880 0.4448
H5 H 0.7490 0.6950 0.4093
loop_
_geom_bond_atom_site_label_1
_geom_bond_atom_site_label_2
_geom_bond_site_symmetry_1
_geom_bond_site_symmetry_2
N1 H1 1_555 1_555
N2 N1 1_555 1_555
N3 H2 1_555 1_555
O1 C1 1_555 1_555
O2 H3 1_555 1_555
O3 C10 1_555 1_555
O4 H4 1_555 1_555
H5 O4 1_555 1_555
C1 N1 1_555 1_555
C2 C1 1_555 1_555
C3 C2 1_555 1_555
H6 C3 1_555 1_555
C4 N3 1_555 1_555
H7 C4 1_555 1_555
C5 N3 1_555 1_555
H8 C5 1_555 1_555
C6 C2 1_555 1_555
H9 C6 1_555 1_555
C7 N2 1_555 1_555
H10 C7 1_555 1_555
C8 C7 1_555 1_555
C9 O2 1_555 1_555
C10 C9 1_555 1_555
C11 C10 1_555 1_555
H11 C11 1_555 1_555
C12 C11 1_555 1_555
H12 C12 1_555 1_555
C13 C8 1_555 1_555
H13 C13 1_555 1_555
C14 O3 1_555 1_555
H14 C14 1_555 1_555
H15 C14 1_555 1_555
H16 C14 1_555 1_555
C3 C4 1_555 1_555
C5 C6 1_555 1_555
C8 C9 1_555 1_555
C12 C13 1_555 1_555

#END
