
#######################################################################
#
#                 Cambridge Crystallographic Data Centre
#                                CCDC 
#
#######################################################################
#
# If this CIF has been generated from an entry in the Cambridge 
# Structural Database, then it will include bibliographic, chemical, 
# crystal, experimental, refinement or atomic coordinate data resulting 
# from the CCDC's data processing and validation procedures.
#
#######################################################################

data_ODAYOK
_chemical_formula_moiety         'C45 H46 Br1 N5 O2 S1,H2 O1'
_chemical_name_systematic        
"N-[3',6'-bis(diethylamino)-3-oxospiro[isoindole-1,9'-xanthen]-2(3H)-yl]-N'-[11-bromotricyclo[8.2.2.2^4,7^]hexadeca-1(12),4,6,10,13,15-hexaen-5-yl]thiourea monohydrate"
_symmetry_cell_setting           orthorhombic
_symmetry_space_group_name_H-M   'P 21 21 21'
_symmetry_Int_Tables_number      19
_space_group_name_Hall           'P 2ac 2ab'
loop_
_symmetry_equiv_pos_site_id
_symmetry_equiv_pos_as_xyz
1 x,y,z
2 1/2-x,-y,1/2+z
3 -x,1/2+y,1/2-z
4 1/2+x,1/2-y,-z
_cell_length_a                   13.7264(12)
_cell_length_b                   15.5990(13)
_cell_length_c                   20.3415(18)
_cell_angle_alpha                90
_cell_angle_beta                 90
_cell_angle_gamma                90
_cell_volume                     4355.48
_exptl_crystal_colour            colorless
_exptl_crystal_description       block
_cell_formula_units_Z            4
loop_
_atom_site_label
_atom_site_type_symbol
_atom_site_fract_x
_atom_site_fract_y
_atom_site_fract_z
Br1 Br 0.8576(2) 0.79641(18) 0.75399(13)
N1 N 0.7588(9) 0.5560(9) 0.6575(7)
N2 N 0.7969(9) 0.4212(9) 0.6952(7)
N3 N 0.8469(9) 0.4589(8) 0.7468(7)
N4 N 0.4920(10) 0.6826(9) 0.8587(8)
N5 N 0.6898(10) 0.1017(9) 0.8566(8)
O1 O 0.9899(9) 0.4883(9) 0.6898(7)
O2 O 0.6072(7) 0.3968(7) 0.8362(6)
S1 S 0.6916(4) 0.4195(4) 0.5887(3)
C1 C 0.9288(12) 0.6121(12) 0.5433(10)
H1 H 0.9768 0.6126 0.5083
H2 H 0.9526 0.5746 0.5777
C2 C 0.8328(12) 0.5765(12) 0.5165(10)
H3 H 0.8284 0.5157 0.5261
H4 H 0.8305 0.5838 0.4692
C3 C 0.7441(12) 0.6252(12) 0.5494(10)
C4 C 0.7199(13) 0.6228(12) 0.6131(10)
C5 C 0.6761(12) 0.6874(11) 0.6440(10)
H5 H 0.6652 0.6850 0.6891
C6 C 0.6468(13) 0.7588(12) 0.6077(10)
C7 C 0.6468(13) 0.7538(13) 0.5408(10)
H6 H 0.6141 0.7940 0.5153
C8 C 0.6948(13) 0.6902(12) 0.5138(10)
H7 H 0.6966 0.6875 0.4681
C9 C 0.6420(14) 0.8436(12) 0.6398(11)
H8 H 0.6194 0.8352 0.6845
H9 H 0.5930 0.8774 0.6172
C10 C 0.7382(14) 0.8976(13) 0.6426(11)
H10 H 0.7328 0.9457 0.6126
H11 H 0.7466 0.9203 0.6866
C11 C 0.8277(13) 0.8441(12) 0.6242(10)
C12 C 0.8723(12) 0.7837(12) 0.6637(9)
C13 C 0.9168(12) 0.7157(12) 0.6401(9)
H12 H 0.9464 0.6762 0.6679
C14 C 0.9181(12) 0.7047(12) 0.5713(10)
C15 C 0.8977(13) 0.7676(12) 0.5297(11)
H13 H 0.9144 0.7638 0.4855
C16 C 0.8509(13) 0.8386(13) 0.5543(10)
H14 H 0.8340 0.8833 0.5263
C17 C 0.7503(12) 0.4707(12) 0.6469(9)
C18 C 0.9420(12) 0.4819(10) 0.7405(10)
C19 C 0.9701(12) 0.4988(10) 0.8089(9)
C20 C 1.0610(13) 0.5363(11) 0.8328(10)
H15 H 1.1136 0.5460 0.8050
C21 C 1.0645(13) 0.5558(12) 0.8967(10)
H16 H 1.1175 0.5866 0.9126
C22 C 0.9922(13) 0.5319(12) 0.9396(10)
H17 H 1.0003 0.5425 0.9842
C23 C 0.9082(12) 0.4927(10) 0.9184(9)
H18 H 0.8597 0.4763 0.9477
C24 C 0.8988(11) 0.4785(10) 0.8499(9)
C25 C 0.8053(11) 0.4475(10) 0.8152(9)
C26 C 0.7244(11) 0.5070(11) 0.8282(8)
C27 C 0.7383(13) 0.5973(11) 0.8293(9)
H19 H 0.8007 0.6188 0.8226
C28 C 0.6603(13) 0.6561(12) 0.8403(10)
H20 H 0.6724 0.7148 0.8417
C29 C 0.5661(13) 0.6252(12) 0.8490(10)
C30 C 0.5513(14) 0.5373(12) 0.8468(10)
H21 H 0.4890 0.5150 0.8521
C31 C 0.6323(11) 0.4811(10) 0.8364(9)
C32 C 0.5091(15) 0.7763(10) 0.8497(11)
C33 C 0.557(2) 0.8080(16) 0.9121(14)
H22 H 0.5155 0.7967 0.9489
H23 H 0.5685 0.8686 0.9087
H24 H 0.6183 0.7790 0.9181
C34 C 0.3944(11) 0.6529(13) 0.8803(10)
C35 C 0.3245(18) 0.644(3) 0.8232(15)
H25 H 0.2723 0.6849 0.8282
H26 H 0.2983 0.5874 0.8222
H27 H 0.3584 0.6557 0.7828
C36 C 0.6819(11) 0.3362(10) 0.8341(8)
C37 C 0.6505(12) 0.2497(9) 0.8448(8)
H28 H 0.5848 0.2378 0.8515
C38 C 0.7167(12) 0.1853(11) 0.8453(9)
C39 C 0.8175(11) 0.2070(11) 0.8384(8)
H29 H 0.8640 0.1637 0.8401
C40 C 0.8466(12) 0.2879(10) 0.8295(8)
H30 H 0.9126 0.2996 0.8242
C41 C 0.7769(11) 0.3580(10) 0.8281(8)
C42 C 0.5877(14) 0.0763(13) 0.8727(11)
H31 H 0.5568 0.1211 0.8983
H32 H 0.5882 0.0243 0.8988
C43 C 0.5312(17) 0.0616(15) 0.8105(12)
H33 H 0.5226 0.1151 0.7880
H34 H 0.4686 0.0378 0.8211
H35 H 0.5661 0.0224 0.7828
C44 C 0.7593(14) 0.0294(12) 0.8503(11)
H36 H 0.7256 -0.0208 0.8337
H37 H 0.8103 0.0443 0.8194
C45 C 0.8024(16) 0.0099(14) 0.9148(13)
H38 H 0.8592 0.0447 0.9214
H39 H 0.8203 -0.0496 0.9164
H40 H 0.7557 0.0217 0.9488
O3 O 0.4010(7) 0.7402(6) 0.0769(4)
C46? C 0.435(4) 0.813(2) 0.802(3)
H41? H 0.3862 0.8441 0.8261
H42? H 0.4048 0.7672 0.7781
H43? H 0.4671 0.8511 0.7720
C47? C 0.396(3) 0.620(4) 0.9507(15)
H44? H 0.3742 0.5619 0.9517
H45? H 0.3528 0.6549 0.9771
H46? H 0.4607 0.6241 0.9679
H47? H 0.7513 0.3870 0.7131
H48? H 0.8394 0.3868 0.6743
loop_
_geom_bond_atom_site_label_1
_geom_bond_atom_site_label_2
_geom_bond_site_symmetry_1
_geom_bond_site_symmetry_2
Br1 C12 1_555 1_555
N1 C4 1_555 1_555
N2 N3 1_555 1_555
N3 C18 1_555 1_555
N4 C29 1_555 1_555
N5 C38 1_555 1_555
O1 C18 1_555 1_555
O2 C31 1_555 1_555
S1 C17 1_555 1_555
C1 H1 1_555 1_555
H2 C1 1_555 1_555
C2 C1 1_555 1_555
H3 C2 1_555 1_555
H4 C2 1_555 1_555
C3 C2 1_555 1_555
C4 C3 1_555 1_555
C5 C4 1_555 1_555
H5 C5 1_555 1_555
C6 C5 1_555 1_555
C7 C6 1_555 1_555
H6 C7 1_555 1_555
C8 C3 1_555 1_555
H7 C8 1_555 1_555
C9 C6 1_555 1_555
H8 C9 1_555 1_555
H9 C9 1_555 1_555
C10 C9 1_555 1_555
H10 C10 1_555 1_555
H11 C10 1_555 1_555
C11 C10 1_555 1_555
C12 C11 1_555 1_555
C13 C12 1_555 1_555
H12 C13 1_555 1_555
C14 C1 1_555 1_555
C15 C14 1_555 1_555
H13 C15 1_555 1_555
C16 C11 1_555 1_555
H14 C16 1_555 1_555
C17 N1 1_555 1_555
C18 C19 1_555 1_555
C19 C20 1_555 1_555
C20 H15 1_555 1_555
C21 C20 1_555 1_555
H16 C21 1_555 1_555
C22 C21 1_555 1_555
H17 C22 1_555 1_555
C23 C22 1_555 1_555
H18 C23 1_555 1_555
C24 C19 1_555 1_555
C25 N3 1_555 1_555
C26 C25 1_555 1_555
C27 C26 1_555 1_555
H19 C27 1_555 1_555
C28 C27 1_555 1_555
H20 C28 1_555 1_555
C29 C28 1_555 1_555
C30 C29 1_555 1_555
H21 C30 1_555 1_555
C31 C26 1_555 1_555
C32 N4 1_555 1_555
C33 C32 1_555 1_555
H22 C33 1_555 1_555
H23 C33 1_555 1_555
H24 C33 1_555 1_555
C34 N4 1_555 1_555
C35 C34 1_555 1_555
H25 C35 1_555 1_555
H26 C35 1_555 1_555
H27 C35 1_555 1_555
C36 O2 1_555 1_555
C37 C36 1_555 1_555
H28 C37 1_555 1_555
C38 C37 1_555 1_555
C39 C38 1_555 1_555
H29 C39 1_555 1_555
C40 C39 1_555 1_555
H30 C40 1_555 1_555
C41 C25 1_555 1_555
C42 N5 1_555 1_555
H31 C42 1_555 1_555
H32 C42 1_555 1_555
C43 C42 1_555 1_555
H33 C43 1_555 1_555
H34 C43 1_555 1_555
H35 C43 1_555 1_555
C44 N5 1_555 1_555
H36 C44 1_555 1_555
H37 C44 1_555 1_555
C45 C44 1_555 1_555
H38 C45 1_555 1_555
H39 C45 1_555 1_555
H40 C45 1_555 1_555
N2 C17 1_555 1_555
C7 C8 1_555 1_555
C13 C14 1_555 1_555
C15 C16 1_555 1_555
C23 C24 1_555 1_555
C24 C25 1_555 1_555
C30 C31 1_555 1_555
C36 C41 1_555 1_555
C40 C41 1_555 1_555

#END
