
#######################################################################
#
#                 Cambridge Crystallographic Data Centre
#                                CCDC 
#
#######################################################################
#
# If this CIF has been generated from an entry in the Cambridge 
# Structural Database, then it will include bibliographic, chemical, 
# crystal, experimental, refinement or atomic coordinate data resulting 
# from the CCDC's data processing and validation procedures.
#
#######################################################################

data_ODAZAV01
_chemical_formula_moiety         'C14 H11 N3 O1'
_chemical_name_systematic        3-Phenyl-1-(pyridin-2-yl)-1H-pyrazol-5-ol
_symmetry_cell_setting           monoclinic
_symmetry_space_group_name_H-M   'P 21/c'
_symmetry_Int_Tables_number      14
_space_group_name_Hall           '-P 2ybc'
loop_
_symmetry_equiv_pos_site_id
_symmetry_equiv_pos_as_xyz
1 x,y,z
2 -x,1/2+y,1/2-z
3 -x,-y,-z
4 x,1/2-y,1/2+z
_cell_length_a                   9.8059(4)
_cell_length_b                   10.6374(5)
_cell_length_c                   11.4730(5)
_cell_angle_alpha                90
_cell_angle_beta                 104.000(2)
_cell_angle_gamma                90
_cell_volume                     1161.19
_exptl_crystal_colour            silver
_exptl_crystal_description       block
_cell_formula_units_Z            4
loop_
_atom_site_label
_atom_site_type_symbol
_atom_site_fract_x
_atom_site_fract_y
_atom_site_fract_z
N1 N 0.81305(13) 0.02424(11) 0.95422(10)
N2 N 0.73806(13) -0.05387(11) 1.01162(11)
C1 C 0.72615(15) 0.01191(13) 1.10684(12)
C2 C 0.79164(16) 0.13085(14) 1.11326(13)
H1 H 0.7971 0.1920 1.1721
C3 C 0.84477(15) 0.13615(13) 1.01469(13)
C4 C 0.84175(15) -0.01042(13) 0.84461(12)
N3 N 0.91199(13) 0.07601(11) 0.79832(11)
C5 C 0.94290(17) 0.04901(15) 0.69327(14)
H2 H 0.9918 0.1081 0.6596
C6 C 0.90538(18) -0.06196(16) 0.63380(14)
H3 H 0.9286 -0.0779 0.5613
C7 C 0.83241(18) -0.14986(16) 0.68349(15)
H4 H 0.8057 -0.2256 0.6442
C8 C 0.79931(17) -0.12545(14) 0.79075(13)
H5 H 0.7505 -0.1834 0.8259
C9 C 0.64768(15) -0.04115(13) 1.19005(12)
C10 C 0.54157(17) -0.12885(15) 1.14951(15)
H6 H 0.5207 -0.1550 1.0698
C11 C 0.46691(18) -0.17733(18) 1.22740(18)
H7 H 0.3961 -0.2359 1.1996
C12 C 0.49627(19) -0.13977(19) 1.34527(17)
H8 H 0.4458 -0.1729 1.3970
C13 C 0.60059(19) -0.0530(2) 1.38658(16)
H9 H 0.6202 -0.0269 1.4663
C14 C 0.67675(17) -0.00401(16) 1.30943(14)
H10 H 0.7478 0.0541 1.3381
O1 O 0.91658(13) 0.22707(10) 0.97516(10)
H11 H 0.8816 0.2401 0.9037
loop_
_geom_bond_atom_site_label_1
_geom_bond_atom_site_label_2
_geom_bond_site_symmetry_1
_geom_bond_site_symmetry_2
N1 N2 1_555 1_555
N2 C1 1_555 1_555
C1 C2 1_555 1_555
C2 H1 1_555 1_555
C3 N1 1_555 1_555
C4 N1 1_555 1_555
N3 C4 1_555 1_555
C5 N3 1_555 1_555
H2 C5 1_555 1_555
C6 C5 1_555 1_555
H3 C6 1_555 1_555
C7 C6 1_555 1_555
H4 C7 1_555 1_555
C8 C4 1_555 1_555
H5 C8 1_555 1_555
C9 C1 1_555 1_555
C10 C9 1_555 1_555
H6 C10 1_555 1_555
C11 C10 1_555 1_555
H7 C11 1_555 1_555
C12 C11 1_555 1_555
H8 C12 1_555 1_555
C13 C12 1_555 1_555
H9 C13 1_555 1_555
C14 C9 1_555 1_555
H10 C14 1_555 1_555
O1 C3 1_555 1_555
H11 O1 1_555 1_555
C2 C3 1_555 1_555
C7 C8 1_555 1_555
C13 C14 1_555 1_555

#END
