
#######################################################################
#
#                 Cambridge Crystallographic Data Centre
#                                CCDC 
#
#######################################################################
#
# If this CIF has been generated from an entry in the Cambridge 
# Structural Database, then it will include bibliographic, chemical, 
# crystal, experimental, refinement or atomic coordinate data resulting 
# from the CCDC's data processing and validation procedures.
#
#######################################################################

data_ODEBOP
_chemical_formula_moiety         'C32 H30 N2 O2 P2'
_chemical_name_systematic        
N,N'-bis((Diphenylphosphinoyl)methyl)-1,4-phenylenediamine
_symmetry_cell_setting           monoclinic
_symmetry_space_group_name_H-M   'P 21/c'
_symmetry_Int_Tables_number      14
_space_group_name_Hall           '-P 2ybc'
loop_
_symmetry_equiv_pos_site_id
_symmetry_equiv_pos_as_xyz
1 x,y,z
2 -x,1/2+y,1/2-z
3 -x,-y,-z
4 x,1/2-y,1/2+z
_cell_length_a                   6.0688(7)
_cell_length_b                   11.0033(13)
_cell_length_c                   20.759(2)
_cell_angle_alpha                90
_cell_angle_beta                 91.284(2)
_cell_angle_gamma                90
_cell_volume                     1385.87
_exptl_crystal_colour            brown
_exptl_crystal_description       prism
_cell_formula_units_Z            2
loop_
_atom_site_label
_atom_site_type_symbol
_atom_site_fract_x
_atom_site_fract_y
_atom_site_fract_z
P1 P 0.21496(15) 0.69778(9) 0.14094(5)
O1 O 0.0314(4) 0.7388(3) 0.09785(15)
N1 N 0.5739(5) 0.8217(3) 0.09475(16)
H1 H 0.6845 0.7738 0.0904
C1 C 0.3389(6) 0.5596(4) 0.11406(18)
C2 C 0.5457(8) 0.5183(4) 0.1357(2)
H2 H 0.6260 0.5632 0.1660
C3 C 0.6302(8) 0.4127(5) 0.1124(3)
H3 H 0.7659 0.3850 0.1280
C4 C 0.5173(12) 0.3467(5) 0.0661(3)
H4 H 0.5777 0.2755 0.0501
C5 C 0.3147(10) 0.3861(5) 0.0436(2)
H5 H 0.2383 0.3416 0.0123
C6 C 0.2251(8) 0.4916(4) 0.0673(2)
H6 H 0.0878 0.5177 0.0521
C7 C 0.1224(8) 0.6772(4) 0.2222(2)
C8 C 0.2030(13) 0.5946(6) 0.2644(3)
H7 H 0.3130 0.5413 0.2519
C9 C 0.1210(15) 0.5884(7) 0.3280(3)
H8 H 0.1806 0.5334 0.3576
C10 C -0.0415(12) 0.6620(6) 0.3446(3)
H9 H -0.1024 0.6543 0.3851
C11 C -0.1194(10) 0.7473(6) 0.3039(3)
H10 H -0.2275 0.8012 0.3170
C12 C -0.0391(8) 0.7543(6) 0.2433(2)
H11 H -0.0953 0.8132 0.2152
C13 C 0.4367(7) 0.8078(4) 0.15031(19)
H12 H 0.3729 0.8861 0.1604
H13 H 0.5294 0.7837 0.1868
C14 C 0.5325(6) 0.9108(3) 0.04783(17)
C15 C 0.3301(6) 0.9671(3) 0.03903(17)
H14 H 0.2141 0.9457 0.0653
C16 C 0.7026(6) 0.9458(3) 0.00783(18)
H15 H 0.8404 0.9096 0.0129
P1B P 0.78504(15) 1.30222(9) -0.14094(5)
O1B O 0.9686(4) 1.2612(3) -0.09785(15)
N1B N 0.4261(5) 1.1783(3) -0.09475(16)
H1B H 0.3155 1.2262 -0.0904
C1B C 0.6611(6) 1.4404(4) -0.11406(18)
C2B C 0.4543(8) 1.4817(4) -0.1357(2)
H2B H 0.3740 1.4368 -0.1660
C3B C 0.3698(8) 1.5873(5) -0.1124(3)
H3B H 0.2341 1.6150 -0.1280
C4B C 0.4827(12) 1.6533(5) -0.0661(3)
H4B H 0.4223 1.7245 -0.0501
C5B C 0.6853(10) 1.6139(5) -0.0436(2)
H5B H 0.7617 1.6584 -0.0123
C6B C 0.7749(8) 1.5084(4) -0.0673(2)
H6B H 0.9122 1.4823 -0.0521
C7B C 0.8776(8) 1.3228(4) -0.2222(2)
C8B C 0.7970(13) 1.4054(6) -0.2644(3)
H7B H 0.6870 1.4587 -0.2519
C9B C 0.8790(15) 1.4116(7) -0.3280(3)
H8B H 0.8194 1.4666 -0.3576
C10B C 1.0415(12) 1.3380(6) -0.3446(3)
H9B H 1.1024 1.3457 -0.3851
C11B C 1.1194(10) 1.2527(6) -0.3039(3)
H10B H 1.2275 1.1988 -0.3170
C12B C 1.0391(8) 1.2457(6) -0.2433(2)
H11B H 1.0953 1.1868 -0.2152
C13B C 0.5633(7) 1.1922(4) -0.15031(19)
H12B H 0.6271 1.1139 -0.1604
H13B H 0.4706 1.2163 -0.1868
C14B C 0.4675(6) 1.0892(3) -0.04783(17)
C15B C 0.6699(6) 1.0329(3) -0.03903(17)
H14B H 0.7859 1.0543 -0.0653
C16B C 0.2974(6) 1.0542(3) -0.00783(18)
H15B H 0.1596 1.0904 -0.0129
loop_
_geom_bond_atom_site_label_1
_geom_bond_atom_site_label_2
_geom_bond_site_symmetry_1
_geom_bond_site_symmetry_2
P1 O1 1_555 1_555
N1 H1 1_555 1_555
C1 P1 1_555 1_555
C2 C1 1_555 1_555
H2 C2 1_555 1_555
C3 C2 1_555 1_555
H3 C3 1_555 1_555
C4 C3 1_555 1_555
H4 C4 1_555 1_555
C5 C4 1_555 1_555
H5 C5 1_555 1_555
C6 C1 1_555 1_555
H6 C6 1_555 1_555
C7 P1 1_555 1_555
C8 C7 1_555 1_555
H7 C8 1_555 1_555
C9 C8 1_555 1_555
H8 C9 1_555 1_555
C10 C9 1_555 1_555
H9 C10 1_555 1_555
C11 C10 1_555 1_555
H10 C11 1_555 1_555
C12 C7 1_555 1_555
H11 C12 1_555 1_555
C13 P1 1_555 1_555
H12 C13 1_555 1_555
H13 C13 1_555 1_555
C14 N1 1_555 1_555
C15 C14 1_555 1_555
H14 C15 1_555 1_555
C16 C14 1_555 1_555
H15 C16 1_555 1_555
P1B O1B 1_555 1_555
N1B H1B 1_555 1_555
C1B P1B 1_555 1_555
C2B C1B 1_555 1_555
H2B C2B 1_555 1_555
C3B C2B 1_555 1_555
H3B C3B 1_555 1_555
C4B C3B 1_555 1_555
H4B C4B 1_555 1_555
C5B C4B 1_555 1_555
H5B C5B 1_555 1_555
C6B C1B 1_555 1_555
H6B C6B 1_555 1_555
C7B P1B 1_555 1_555
C8B C7B 1_555 1_555
H7B C8B 1_555 1_555
C9B C8B 1_555 1_555
H8B C9B 1_555 1_555
C10B C9B 1_555 1_555
H9B C10B 1_555 1_555
C11B C10B 1_555 1_555
H10B C11B 1_555 1_555
C12B C7B 1_555 1_555
H11B C12B 1_555 1_555
C13B P1B 1_555 1_555
H12B C13B 1_555 1_555
H13B C13B 1_555 1_555
C14B N1B 1_555 1_555
C15B C16 1_555 1_555
H14B C15B 1_555 1_555
C16B C15 1_555 1_555
H15B C16B 1_555 1_555
N1 C13 1_555 1_555
C5 C6 1_555 1_555
C11 C12 1_555 1_555
N1B C13B 1_555 1_555
C5B C6B 1_555 1_555
C11B C12B 1_555 1_555
C14B C15B 1_555 1_555
C14B C16B 1_555 1_555

#END
