
#######################################################################
#
#                 Cambridge Crystallographic Data Centre
#                                CCDC 
#
#######################################################################
#
# If this CIF has been generated from an entry in the Cambridge 
# Structural Database, then it will include bibliographic, chemical, 
# crystal, experimental, refinement or atomic coordinate data resulting 
# from the CCDC's data processing and validation procedures.
#
#######################################################################

data_ODECIK
_chemical_formula_moiety         'C20 H24 N2 O6'
_chemical_name_systematic        
N,N'-bis(3,4,5-Trimethoxybenzylidene)hydrazine
_symmetry_cell_setting           monoclinic
_symmetry_space_group_name_H-M   'C 2/c'
_symmetry_Int_Tables_number      15
_space_group_name_Hall           '-C 2yn'
loop_
_symmetry_equiv_pos_site_id
_symmetry_equiv_pos_as_xyz
1 x,y,z
2 1/2+x,1/2+y,z
3 -x,y,1/2-z
4 1/2-x,1/2+y,1/2-z
5 -x,-y,-z
6 1/2-x,1/2-y,-z
7 x,-y,1/2+z
8 1/2+x,1/2-y,1/2+z
_cell_length_a                   29.879(10)
_cell_length_b                   4.9185(18)
_cell_length_c                   14.040(5)
_cell_angle_alpha                90
_cell_angle_beta                 103.754(6)
_cell_angle_gamma                90
_cell_volume                     2004.15
_exptl_crystal_colour            'light yellow'
_exptl_crystal_description       block
_chemical_melting_point          '473 K'
_cell_formula_units_Z            4
_exptl_crystal_recrystallization_method tetrahydrofuran
loop_
_atom_site_label
_atom_site_type_symbol
_atom_site_fract_x
_atom_site_fract_y
_atom_site_fract_z
O1 O 0.30854(4) 1.1611(3) 0.53842(9)
O2 O 0.30310(4) 0.8733(3) 0.69537(9)
O3 O 0.37243(5) 0.5506(3) 0.78858(10)
N1 N 0.47746(5) 1.0192(4) 0.50701(12)
C1 C 0.46992(6) 0.8740(5) 0.57631(14)
H1 H 0.4934 0.7624 0.6105
C2 C 0.42597(6) 0.8741(4) 0.60483(13)
C3 C 0.38897(6) 1.0327(4) 0.55562(13)
H2 H 0.3921 1.1442 0.5041
C4 C 0.34755(6) 1.0241(4) 0.58367(12)
C5 C 0.34321(6) 0.8628(4) 0.66375(12)
C6 C 0.38014(6) 0.7026(4) 0.71232(13)
C7 C 0.42127(6) 0.7063(4) 0.68239(13)
H3 H 0.4457 0.5971 0.7140
C8 C 0.31038(7) 1.3238(5) 0.45490(14)
H4 H 0.3327 1.4660 0.4744
H5 H 0.2806 1.4024 0.4282
H6 H 0.3190 1.2120 0.4062
C9 C 0.27385(6) 0.6405(5) 0.67018(16)
H7 H 0.2634 0.6284 0.6002
H8 H 0.2478 0.6579 0.6987
H9 H 0.2908 0.4792 0.6948
C10 C 0.40792(7) 0.3754(5) 0.83836(14)
H10 H 0.4166 0.2546 0.7921
H11 H 0.3971 0.2713 0.8863
H12 H 0.4341 0.4815 0.8705
O1D O 0.69146(4) 0.8389(3) 0.46158(9)
O2D O 0.69690(4) 1.1267(3) 0.30463(9)
O3D O 0.62757(5) 1.4494(3) 0.21142(10)
N1D N 0.52254(5) 0.9808(4) 0.49299(12)
C1D C 0.53008(6) 1.1260(5) 0.42369(14)
H1D H 0.5066 1.2376 0.3895
C2D C 0.57403(6) 1.1259(4) 0.39517(13)
C3D C 0.61103(6) 0.9673(4) 0.44438(13)
H2D H 0.6079 0.8558 0.4959
C4D C 0.65245(6) 0.9759(4) 0.41633(12)
C5D C 0.65679(6) 1.1372(4) 0.33625(12)
C6D C 0.61986(6) 1.2974(4) 0.28768(13)
C7D C 0.57873(6) 1.2937(4) 0.31761(13)
H3D H 0.5543 1.4029 0.2860
C8D C 0.68962(7) 0.6762(5) 0.54510(14)
H4D H 0.6673 0.5340 0.5256
H5D H 0.7194 0.5976 0.5718
H6D H 0.6810 0.7880 0.5938
C9D C 0.72615(6) 1.3595(5) 0.32982(16)
H7D H 0.7366 1.3716 0.3998
H8D H 0.7522 1.3421 0.3013
H9D H 0.7092 1.5208 0.3052
C10D C 0.59208(7) 1.6246(5) 0.16164(14)
H10D H 0.5834 1.7454 0.2079
H11D H 0.6029 1.7287 0.1137
H12D H 0.5659 1.5185 0.1295
loop_
_geom_bond_atom_site_label_1
_geom_bond_atom_site_label_2
_geom_bond_site_symmetry_1
_geom_bond_site_symmetry_2
O1 C4 1_555 1_555
O2 C5 1_555 1_555
O3 C6 1_555 1_555
N1 C1 1_555 1_555
C1 H1 1_555 1_555
C2 C1 1_555 1_555
C3 C2 1_555 1_555
H2 C3 1_555 1_555
C4 C3 1_555 1_555
C5 C4 1_555 1_555
C6 C5 1_555 1_555
C7 C2 1_555 1_555
H3 C7 1_555 1_555
C8 O1 1_555 1_555
H4 C8 1_555 1_555
H5 C8 1_555 1_555
H6 C8 1_555 1_555
C9 O2 1_555 1_555
H7 C9 1_555 1_555
H8 C9 1_555 1_555
H9 C9 1_555 1_555
C10 O3 1_555 1_555
H10 C10 1_555 1_555
H11 C10 1_555 1_555
H12 C10 1_555 1_555
O1D C4D 1_555 1_555
O2D C5D 1_555 1_555
O3D C6D 1_555 1_555
N1D N1 1_555 1_555
C1D N1D 1_555 1_555
H1D C1D 1_555 1_555
C2D C1D 1_555 1_555
C3D C2D 1_555 1_555
H2D C3D 1_555 1_555
C4D C3D 1_555 1_555
C5D C4D 1_555 1_555
C6D C5D 1_555 1_555
C7D C2D 1_555 1_555
H3D C7D 1_555 1_555
C8D O1D 1_555 1_555
H4D C8D 1_555 1_555
H5D C8D 1_555 1_555
H6D C8D 1_555 1_555
C9D O2D 1_555 1_555
H7D C9D 1_555 1_555
H8D C9D 1_555 1_555
H9D C9D 1_555 1_555
C10D O3D 1_555 1_555
H10D C10D 1_555 1_555
H11D C10D 1_555 1_555
H12D C10D 1_555 1_555
C6 C7 1_555 1_555
C6D C7D 1_555 1_555

#END
