
#######################################################################
#
#                 Cambridge Crystallographic Data Centre
#                                CCDC 
#
#######################################################################
#
# If this CIF has been generated from an entry in the Cambridge 
# Structural Database, then it will include bibliographic, chemical, 
# crystal, experimental, refinement or atomic coordinate data resulting 
# from the CCDC's data processing and validation procedures.
#
#######################################################################

data_ODEHUB
_chemical_formula_moiety         'C18 H18 Cl1 N5 O2'
_chemical_name_systematic        
'(E)-5-(3,5-Dimethylphenoxy)-1,3-dimethyl-1H-pyrazole-4-carbaldehyde O-(2-chloropyrimidin-4-yl)oxime'
_symmetry_cell_setting           triclinic
_symmetry_space_group_name_H-M   'P -1'
_symmetry_Int_Tables_number      2
_space_group_name_Hall           '-P 1'
loop_
_symmetry_equiv_pos_site_id
_symmetry_equiv_pos_as_xyz
1 x,y,z
2 -x,-y,-z
_cell_length_a                   8.217(2)
_cell_length_b                   8.4391(15)
_cell_length_c                   30.674(5)
_cell_angle_alpha                93.150(10)
_cell_angle_beta                 90.342(3)
_cell_angle_gamma                118.958(3)
_cell_volume                     1857.02
_exptl_crystal_colour            colorless
_exptl_crystal_description       block
_cell_formula_units_Z            4
_exptl_crystal_recrystallization_method 'ethyl acetate'
loop_
_atom_site_label
_atom_site_type_symbol
_atom_site_fract_x
_atom_site_fract_y
_atom_site_fract_z
Cl1 Cl 0.51047(14) -0.49841(11) 0.39047(3)
O1 O 0.8097(3) 0.1268(2) 0.35789(6)
O2 O 1.2226(3) 0.7954(3) 0.39136(6)
N1 N 0.4050(3) -0.3894(3) 0.32449(8)
N2 N 0.6599(3) -0.1664(3) 0.36949(7)
N3 N 0.8081(4) 0.2701(3) 0.33422(7)
N4 N 1.0988(4) 0.8888(3) 0.33576(7)
N5 N 0.9751(4) 0.8205(3) 0.30058(7)
C1 C 0.5267(4) -0.3321(4) 0.35717(9)
C2 C 0.4193(4) -0.2547(4) 0.30039(9)
H1 H 0.3369 -0.2850 0.2766
C3 C 0.5482(4) -0.0761(4) 0.30896(8)
H2 H 0.5543 0.0149 0.2921
C4 C 0.6689(4) -0.0399(3) 0.34433(8)
C5 C 0.9364(4) 0.4201(4) 0.35133(9)
H3 H 1.0102 0.4178 0.3741
C6 C 0.9725(4) 0.5930(3) 0.33697(8)
C7 C 0.8990(4) 0.6412(4) 0.30152(8)
C8 C 0.7566(5) 0.5202(4) 0.26745(10)
H4 H 0.7343 0.5926 0.2477
H5 H 0.6429 0.4420 0.2811
H6 H 0.8007 0.4482 0.2516
C9 C 1.2091(5) 1.0839(4) 0.34618(11)
H7 H 1.2646 1.1058 0.3750
H8 H 1.1302 1.1382 0.3449
H9 H 1.3052 1.1361 0.3255
C10 C 1.0995(4) 0.7572(3) 0.35770(8)
C11 C 1.1571(4) 0.7780(3) 0.43404(8)
C12 C 1.2726(4) 0.7712(3) 0.46568(8)
H10 H 1.3835 0.7743 0.4581
C13 C 1.2223(4) 0.7597(4) 0.50890(9)
C14 C 1.3464(5) 0.7530(5) 0.54446(10)
H11 H 1.4718 0.8052 0.5349
H12 H 1.3035 0.6290 0.5508
H13 H 1.3425 0.8203 0.5703
C15 C 1.0546(4) 0.7529(4) 0.51870(9)
H14 H 1.0193 0.7435 0.5476
C16 C 0.9380(4) 0.7595(4) 0.48698(9)
C17 C 0.7566(4) 0.7526(5) 0.49872(11)
H15 H 0.6606 0.6283 0.4990
H16 H 0.7234 0.8126 0.4775
H17 H 0.7703 0.8123 0.5271
C18 C 0.9913(4) 0.7731(3) 0.44373(8)
H18 H 0.9162 0.7788 0.4218
Cl2 Cl 1.01971(16) -0.00577(15) 0.10191(3)
O3 O 0.6676(3) 0.2922(3) 0.14041(6)
O4 O 0.4006(3) 0.7109(2) 0.11986(6)
N6 N 0.8249(4) -0.0782(3) 0.17097(8)
N7 N 0.8242(3) 0.1444(3) 0.12630(7)
N8 N 0.5251(4) 0.3016(3) 0.16579(7)
N9 N 0.1872(4) 0.6013(3) 0.17538(8)
N10 N 0.1335(4) 0.4805(3) 0.20755(7)
C19 C 0.8722(4) 0.0238(4) 0.13744(9)
C20 C 0.7119(5) -0.0473(4) 0.19779(9)
H19 H 0.6748 -0.1118 0.2228
C21 C 0.6488(4) 0.0720(4) 0.19063(9)
H20 H 0.5692 0.0886 0.2095
C22 C 0.7111(4) 0.1665(4) 0.15354(8)
C23 C 0.4959(4) 0.4246(4) 0.15097(9)
H21 H 0.5667 0.4894 0.1282
C24 C 0.3580(4) 0.4664(4) 0.16811(8)
C25 C 0.2358(4) 0.3993(4) 0.20276(8)
C26 C 0.2151(5) 0.2594(4) 0.23331(9)
H22 H 0.1189 0.2412 0.2533
H23 H 0.3305 0.2997 0.2494
H24 H 0.1824 0.1472 0.2169
C27 C 0.1006(6) 0.7148(5) 0.17064(13)
H25 H 0.1854 0.8237 0.1573
H26 H 0.0704 0.7457 0.1989
H27 H -0.0109 0.6499 0.1526
C28 C 0.3197(4) 0.5947(4) 0.15181(8)
C29 C 0.3528(4) 0.6416(3) 0.07602(8)
C30 C 0.4723(4) 0.7493(4) 0.04592(9)
H28 H 0.5769 0.8581 0.0550
C31 C 0.4361(4) 0.6951(4) 0.00190(9)
C32 C 0.5628(5) 0.8117(5) -0.03216(10)
H29 H 0.6436 0.9314 -0.0192
H30 H 0.4894 0.8187 -0.0557
H31 H 0.6363 0.7591 -0.0433
C33 C 0.2784(4) 0.5310(4) -0.01017(9)
H32 H 0.2536 0.4929 -0.0396
C34 C 0.1568(4) 0.4221(3) 0.02006(9)
C35 C -0.0120(4) 0.2462(4) 0.00598(10)
H33 H -0.0676 0.2609 -0.0200
H34 H -0.1001 0.2107 0.0288
H35 H 0.0234 0.1543 0.0002
C36 C 0.1955(4) 0.4809(3) 0.06414(9)
H36 H 0.1155 0.4122 0.0853
loop_
_geom_bond_atom_site_label_1
_geom_bond_atom_site_label_2
_geom_bond_site_symmetry_1
_geom_bond_site_symmetry_2
Cl1 C1 1_555 1_555
Cl2 C19 1_555 1_555
O1 N3 1_555 1_555
O2 C10 1_555 1_555
O3 N8 1_555 1_555
O4 C28 1_555 1_555
N1 C1 1_555 1_555
N2 C1 1_555 1_555
N3 C5 1_555 1_555
N4 N5 1_555 1_555
N5 C7 1_555 1_555
N6 C19 1_555 1_555
N7 C19 1_555 1_555
N8 C23 1_555 1_555
N9 N10 1_555 1_555
N10 C25 1_555 1_555
C2 N1 1_555 1_555
H1 C2 1_555 1_555
C3 C2 1_555 1_555
H2 C3 1_555 1_555
C4 O1 1_555 1_555
C5 H3 1_555 1_555
C6 C5 1_555 1_555
C7 C6 1_555 1_555
C8 C7 1_555 1_555
H4 C8 1_555 1_555
H5 C8 1_555 1_555
H6 C8 1_555 1_555
C9 N4 1_555 1_555
H7 C9 1_555 1_555
H8 C9 1_555 1_555
H9 C9 1_555 1_555
C10 N4 1_555 1_555
C11 O2 1_555 1_555
C12 C11 1_555 1_555
H10 C12 1_555 1_555
C13 C12 1_555 1_555
C14 C13 1_555 1_555
H11 C14 1_555 1_555
H12 C14 1_555 1_555
H13 C14 1_555 1_555
C15 C13 1_555 1_555
H14 C15 1_555 1_555
C16 C15 1_555 1_555
C17 C16 1_555 1_555
H15 C17 1_555 1_555
H16 C17 1_555 1_555
H17 C17 1_555 1_555
C18 C11 1_555 1_555
H18 C18 1_555 1_555
C20 N6 1_555 1_555
H19 C20 1_555 1_555
C21 C20 1_555 1_555
H20 C21 1_555 1_555
C22 O3 1_555 1_555
C23 H21 1_555 1_555
C24 C23 1_555 1_555
C25 C24 1_555 1_555
C26 C25 1_555 1_555
H22 C26 1_555 1_555
H23 C26 1_555 1_555
H24 C26 1_555 1_555
C27 N9 1_555 1_555
H25 C27 1_555 1_555
H26 C27 1_555 1_555
H27 C27 1_555 1_555
C28 N9 1_555 1_555
C29 O4 1_555 1_555
C30 C29 1_555 1_555
H28 C30 1_555 1_555
C31 C30 1_555 1_555
C32 C31 1_555 1_555
H29 C32 1_555 1_555
H30 C32 1_555 1_555
H31 C32 1_555 1_555
C33 C31 1_555 1_555
H32 C33 1_555 1_555
C34 C33 1_555 1_555
C35 C34 1_555 1_555
H33 C35 1_555 1_555
H34 C35 1_555 1_555
H35 C35 1_555 1_555
C36 C29 1_555 1_555
H36 C36 1_555 1_555
N2 C4 1_555 1_555
N7 C22 1_555 1_555
C3 C4 1_555 1_555
C6 C10 1_555 1_555
C16 C18 1_555 1_555
C21 C22 1_555 1_555
C24 C28 1_555 1_555
C34 C36 1_555 1_555

#END
