
#######################################################################
#
#                 Cambridge Crystallographic Data Centre
#                                CCDC 
#
#######################################################################
#
# If this CIF has been generated from an entry in the Cambridge 
# Structural Database, then it will include bibliographic, chemical, 
# crystal, experimental, refinement or atomic coordinate data resulting 
# from the CCDC's data processing and validation procedures.
#
#######################################################################

data_ODENUH
_chemical_formula_moiety         'C14 H12 O2'
_chemical_name_systematic        (2-hydroxy-5-methylphenyl)(phenyl)methanone
_symmetry_cell_setting           monoclinic
_symmetry_space_group_name_H-M   'P 21/c'
_symmetry_Int_Tables_number      14
_space_group_name_Hall           '-P 2ybc'
loop_
_symmetry_equiv_pos_site_id
_symmetry_equiv_pos_as_xyz
1 x,y,z
2 -x,1/2+y,1/2-z
3 -x,-y,-z
4 x,1/2-y,1/2+z
_cell_length_a                   15.9176(7)
_cell_length_b                   5.8509(2)
_cell_length_c                   12.1429(5)
_cell_angle_alpha                90
_cell_angle_beta                 105.745(2)
_cell_angle_gamma                90
_cell_volume                     1088.46
_exptl_crystal_colour            colorless
_exptl_crystal_description       plate
_cell_formula_units_Z            4
_exptl_crystal_recrystallization_method 'ethyl acetate'
loop_
_atom_site_label
_atom_site_type_symbol
_atom_site_fract_x
_atom_site_fract_y
_atom_site_fract_z
O1 O 0.71300(9) 0.5107(2) -0.19822(10)
H1 H 0.7462 0.5893 -0.1494
O2 O 0.80872(9) 0.6108(2) 0.00287(11)
C1 C 0.68806(10) 0.3263(3) -0.14813(14)
C2 C 0.62578(11) 0.1827(4) -0.21475(15)
H2 H 0.6047 0.2102 -0.2928
C3 C 0.59494(11) 0.0008(4) -0.16702(17)
H3 H 0.5532 -0.0938 -0.2137
C4 C 0.62445(10) -0.0476(3) -0.04969(15)
C5 C 0.68934(9) 0.0906(3) 0.01512(14)
H4 H 0.7114 0.0591 0.0927
C6 C 0.72332(9) 0.2763(3) -0.03130(13)
C7 C 0.58701(12) -0.2407(3) 0.00307(18)
H5 H 0.6231 -0.2681 0.0792
H6 H 0.5848 -0.3761 -0.0423
H7 H 0.5291 -0.2016 0.0061
C8 C 0.79057(10) 0.4252(3) 0.03944(14)
C9 C 0.83898(9) 0.3586(3) 0.15822(13)
C10 C 0.88182(10) 0.1502(3) 0.18194(14)
H8 H 0.8770 0.0428 0.1241
C11 C 0.93172(10) 0.1030(3) 0.29179(15)
H9 H 0.9622 -0.0342 0.3074
C12 C 0.93630(11) 0.2590(3) 0.37798(15)
H10 H 0.9692 0.2256 0.4520
C13 C 0.89262(12) 0.4636(3) 0.35563(15)
H11 H 0.8950 0.5670 0.4146
C14 C 0.84537(10) 0.5149(3) 0.24589(14)
H12 H 0.8175 0.6556 0.2303
loop_
_geom_bond_atom_site_label_1
_geom_bond_atom_site_label_2
_geom_bond_site_symmetry_1
_geom_bond_site_symmetry_2
O1 H1 1_555 1_555
O2 C8 1_555 1_555
C1 O1 1_555 1_555
C2 C1 1_555 1_555
H2 C2 1_555 1_555
C3 C2 1_555 1_555
H3 C3 1_555 1_555
C4 C3 1_555 1_555
C5 C4 1_555 1_555
H4 C5 1_555 1_555
C6 C1 1_555 1_555
C7 C4 1_555 1_555
H5 C7 1_555 1_555
H6 C7 1_555 1_555
H7 C7 1_555 1_555
C8 C6 1_555 1_555
C9 C8 1_555 1_555
C10 C9 1_555 1_555
H8 C10 1_555 1_555
C11 C10 1_555 1_555
H9 C11 1_555 1_555
C12 C11 1_555 1_555
H10 C12 1_555 1_555
C13 C12 1_555 1_555
H11 C13 1_555 1_555
C14 C9 1_555 1_555
H12 C14 1_555 1_555
C5 C6 1_555 1_555
C13 C14 1_555 1_555

#END
