
#######################################################################
#
#                 Cambridge Crystallographic Data Centre
#                                CCDC 
#
#######################################################################
#
# If this CIF has been generated from an entry in the Cambridge 
# Structural Database, then it will include bibliographic, chemical, 
# crystal, experimental, refinement or atomic coordinate data resulting 
# from the CCDC's data processing and validation procedures.
#
#######################################################################

data_ODEQOG
_chemical_formula_moiety         'C88 H36 F20 O4 S4,2(H2 O1)'
_chemical_name_systematic        
'2,12,22,32-tetrakis(pentafluorophenyl)-7,17,27,37-tetraphenyl-41,42,45,46-tetraoxa-43,44,47,48-tetrathianonacyclo[36.2.1.1^3,6^.1^8,11^.1^13,16^.1^18,21^.1^23,26^.1^28,31^.1^33,36^]octatetraconta-1,3,5,7,9,11,13,15,17,19,21,23,25,27,29,31,33,35,37,39-icosaene dihydrate'
_symmetry_cell_setting           orthorhombic
_symmetry_space_group_name_H-M   'I b a 2'
_symmetry_Int_Tables_number      45
_space_group_name_Hall           'I 2 -2c'
loop_
_symmetry_equiv_pos_site_id
_symmetry_equiv_pos_as_xyz
1 x,y,z
2 -x,-y,z
3 1/2+x,1/2-y,z
4 1/2-x,1/2+y,z
5 1/2+x,1/2+y,1/2+z
6 1/2-x,1/2-y,1/2+z
7 x,-y,1/2+z
8 -x,y,1/2+z
_cell_length_a                   13.0601(19)
_cell_length_b                   20.885(3)
_cell_length_c                   28.618(4)
_cell_angle_alpha                90
_cell_angle_beta                 90
_cell_angle_gamma                90
_cell_volume                     7805.85
_exptl_crystal_colour            green
_exptl_crystal_description       reactangular
_cell_formula_units_Z            4
loop_
_atom_site_label
_atom_site_type_symbol
_atom_site_fract_x
_atom_site_fract_y
_atom_site_fract_z
C1 C 0.8536(9) 0.5371(4) 0.3659(2)
C2 C 0.8507(9) 0.5985(4) 0.3472(3)
C3 C 0.8631(10) 0.6074(4) 0.2994(3)
C4 C 0.8783(11) 0.5549(6) 0.2703(2)
C5 C 0.8812(10) 0.4935(5) 0.2891(3)
C6 C 0.8688(9) 0.4846(4) 0.3369(3)
C7 C 1.0837(7) 0.6804(4) 0.6315(3)
C8 C 1.0218(6) 0.6676(4) 0.6682(3)
H1 H 1.0275 0.6846 0.6981
C9 C 0.9464(6) 0.6232(3) 0.6528(3)
H2 H 0.8942 0.6055 0.6707
C10 C 0.9663(6) 0.6115(3) 0.6057(3)
C11 C 0.9093(6) 0.5754(4) 0.5715(3)
C12 C 0.9268(7) 0.5762(4) 0.5250(3)
C13 C 1.0008(8) 0.6055(4) 0.4949(3)
H3 H 1.0552 0.6311 0.5045
C14 C 0.9783(10) 0.5897(5) 0.4501(3)
H4 H 1.0147 0.6022 0.4237
C15 C 0.8881(10) 0.5504(5) 0.4507(3)
C16 C 0.8281(11) 0.5247(5) 0.4164(4)
C17 C 0.7436(10) 0.4803(6) 0.4256(4)
C18 C 0.6682(13) 0.4594(7) 0.3954(4)
H5 H 0.6595 0.4760 0.3655
C19 C 0.6076(11) 0.4124(6) 0.4133(4)
H6 H 0.5534 0.3944 0.3969
C20 C 0.6339(8) 0.3938(5) 0.4584(3)
C21 C 0.5914(8) 0.3426(5) 0.4862(4)
C22 C 0.6370(8) 0.3168(6) 0.5250(4)
C23 C 0.6010(9) 0.2649(6) 0.5524(4)
H7 H 0.5400 0.2438 0.5457
C24 C 0.6608(9) 0.2480(6) 0.5888(4)
H8 H 0.6439 0.2152 0.6093
C25 C 0.7532(8) 0.2852(5) 0.5931(3)
C26 C 0.8249(8) 0.2811(4) 0.6270(3)
C27 C 0.8146(9) 0.2330(5) 0.6657(3)
C28 C 0.7403(10) 0.2388(6) 0.6999(4)
C29 C 0.7275(12) 0.1979(8) 0.7367(4)
C30 C 0.7988(15) 0.1471(8) 0.7398(4)
C31 C 0.8754(13) 0.1387(6) 0.7074(5)
C32 C 0.8828(11) 0.1832(6) 0.6706(4)
C33 C 0.4921(8) 0.3144(6) 0.4690(4)
C34 C 0.400(2) 0.3377(15) 0.4829(12)
H9 H 0.3975 0.3607 0.5107
C35 C 0.308(2) 0.3294(14) 0.4582(10)
H10 H 0.2564 0.3599 0.4546
C36 C 0.3062(10) 0.2653(10) 0.4393(6)
H11 H 0.2451 0.2427 0.4369
C37 C 0.3942(11) 0.2391(6) 0.4254(7)
H12 H 0.3935 0.2031 0.4063
C38 C 0.4881(9) 0.2658(5) 0.4395(7)
H13 H 0.5487 0.2489 0.4278
C39 C 0.8169(6) 0.5429(4) 0.5914(3)
C40 C 0.7196(7) 0.5621(5) 0.5784(4)
H14 H 0.7119 0.5958 0.5574
C41 C 0.6353(7) 0.5328(6) 0.5959(5)
H15 H 0.5708 0.5461 0.5860
C42 C 0.6428(7) 0.4838(5) 0.6279(4)
H16 H 0.5846 0.4651 0.6407
C43 C 0.7395(7) 0.4632(4) 0.6404(4)
H17 H 0.7465 0.4292 0.6612
C44 C 0.8250(6) 0.4921(4) 0.6228(3)
H18 H 0.8895 0.4778 0.6318
F1 F 0.6722(6) 0.2875(4) 0.6972(2)
F2 F 0.6558(7) 0.2044(5) 0.7679(3)
F3 F 0.7917(9) 0.1063(5) 0.7762(3)
F4 F 0.9426(9) 0.0895(4) 0.7102(4)
F5 F 0.9577(7) 0.1734(3) 0.6390(3)
F6 F 0.8348(10) 0.6481(5) 0.3754(3)
F7 F 0.8653(12) 0.6672(6) 0.2828(4)
F8 F 0.8959(14) 0.5648(8) 0.2239(3)
F9 F 0.9011(12) 0.4491(8) 0.2581(3)
F10 F 0.8789(9) 0.4262(5) 0.3501(3)
O1 O 1.0518(4) 0.6454(3) 0.5925(2)
O2 O 0.8589(5) 0.5420(3) 0.4971(2)
S1 S 0.73438(19) 0.44065(12) 0.47785(8)
S2 S 0.7555(2) 0.34227(13) 0.54830(9)
C1A C 1.1464(9) 0.4629(4) 0.3659(2)
C2A C 1.1493(9) 0.4015(4) 0.3472(3)
C3A C 1.1369(10) 0.3926(4) 0.2994(3)
C4A C 1.1217(11) 0.4451(6) 0.2703(2)
C5A C 1.1188(10) 0.5065(5) 0.2891(3)
C6A C 1.1312(9) 0.5154(4) 0.3369(3)
C7A C 0.9163(7) 0.3196(4) 0.6315(3)
C8A C 0.9782(6) 0.3324(4) 0.6682(3)
H1A H 0.9725 0.3154 0.6981
C9A C 1.0536(6) 0.3768(3) 0.6528(3)
H2A H 1.1058 0.3945 0.6707
C10A C 1.0337(6) 0.3885(3) 0.6057(3)
C11A C 1.0907(6) 0.4246(4) 0.5715(3)
C12A C 1.0732(7) 0.4238(4) 0.5250(3)
C13A C 0.9992(8) 0.3945(4) 0.4949(3)
H3A H 0.9448 0.3689 0.5045
C14A C 1.0217(10) 0.4103(5) 0.4501(3)
H4A H 0.9853 0.3978 0.4237
C15A C 1.1119(10) 0.4496(5) 0.4507(3)
C16A C 1.1719(11) 0.4753(5) 0.4164(4)
C17A C 1.2564(10) 0.5197(6) 0.4256(4)
C18A C 1.3318(13) 0.5406(7) 0.3954(4)
H5A H 1.3405 0.5240 0.3655
C19A C 1.3924(11) 0.5876(6) 0.4133(4)
H6A H 1.4466 0.6056 0.3969
C20A C 1.3661(8) 0.6062(5) 0.4584(3)
C21A C 1.4086(8) 0.6574(5) 0.4862(4)
C22A C 1.3630(8) 0.6832(6) 0.5250(4)
C23A C 1.3990(9) 0.7351(6) 0.5524(4)
H7A H 1.4600 0.7562 0.5457
C24A C 1.3392(9) 0.7520(6) 0.5888(4)
H8A H 1.3561 0.7848 0.6093
C25A C 1.2468(8) 0.7148(5) 0.5931(3)
C26A C 1.1751(8) 0.7189(4) 0.6270(3)
C27A C 1.1854(9) 0.7670(5) 0.6657(3)
C28A C 1.2597(10) 0.7612(6) 0.6999(4)
C29A C 1.2725(12) 0.8021(8) 0.7367(4)
C30A C 1.2012(15) 0.8529(8) 0.7398(4)
C31A C 1.1246(13) 0.8613(6) 0.7074(5)
C32A C 1.1172(11) 0.8168(6) 0.6706(4)
C33A C 1.5079(8) 0.6856(6) 0.4690(4)
C34A C 1.600(2) 0.6623(15) 0.4829(12)
H9A H 1.6025 0.6393 0.5107
C35A C 1.692(2) 0.6706(14) 0.4582(10)
H10A H 1.7436 0.6401 0.4546
C36A C 1.6938(10) 0.7347(10) 0.4393(6)
H11A H 1.7549 0.7573 0.4369
C37A C 1.6058(11) 0.7609(6) 0.4254(7)
H12A H 1.6065 0.7969 0.4063
C38A C 1.5119(9) 0.7342(5) 0.4395(7)
H13A H 1.4513 0.7511 0.4278
C39A C 1.1831(6) 0.4571(4) 0.5914(3)
C40A C 1.2804(7) 0.4379(5) 0.5784(4)
H14A H 1.2881 0.4042 0.5574
C41A C 1.3647(7) 0.4672(6) 0.5959(5)
H15A H 1.4292 0.4539 0.5860
C42A C 1.3572(7) 0.5162(5) 0.6279(4)
H16A H 1.4154 0.5349 0.6407
C43A C 1.2605(7) 0.5368(4) 0.6404(4)
H17A H 1.2535 0.5708 0.6612
C44A C 1.1750(6) 0.5079(4) 0.6228(3)
H18A H 1.1105 0.5222 0.6318
F1A F 1.3278(6) 0.7125(4) 0.6972(2)
F2A F 1.3442(7) 0.7956(5) 0.7679(3)
F3A F 1.2083(9) 0.8937(5) 0.7762(3)
F4A F 1.0574(9) 0.9105(4) 0.7102(4)
F5A F 1.0423(7) 0.8266(3) 0.6390(3)
F6A F 1.1652(10) 0.3519(5) 0.3754(3)
F7A F 1.1347(12) 0.3328(6) 0.2828(4)
F8A F 1.1041(14) 0.4352(8) 0.2239(3)
F9A F 1.0989(12) 0.5509(8) 0.2581(3)
F10A F 1.1211(9) 0.5738(5) 0.3501(3)
O1A O 0.9482(4) 0.3546(3) 0.5925(2)
O2A O 1.1411(5) 0.4580(3) 0.4971(2)
S1A S 1.26562(19) 0.55935(12) 0.47785(8)
S2A S 1.2445(2) 0.65773(13) 0.54830(9)
O3 O 0.080(5) 0.094(6) 0.8023(19)
loop_
_geom_bond_atom_site_label_1
_geom_bond_atom_site_label_2
_geom_bond_site_symmetry_1
_geom_bond_site_symmetry_2
C1 C2 1_555 1_555
C2 C3 1_555 1_555
C3 C4 1_555 1_555
C4 C5 1_555 1_555
C5 C6 1_555 1_555
C6 C1 1_555 1_555
C7 C8 1_555 1_555
C8 H1 1_555 1_555
C9 C8 1_555 1_555
H2 C9 1_555 1_555
C10 C9 1_555 1_555
C11 C10 1_555 1_555
C12 C11 1_555 1_555
C13 C12 1_555 1_555
H3 C13 1_555 1_555
C14 C13 1_555 1_555
H4 C14 1_555 1_555
C15 C14 1_555 1_555
C16 C1 1_555 1_555
C17 C16 1_555 1_555
C18 C17 1_555 1_555
H5 C18 1_555 1_555
C19 C18 1_555 1_555
H6 C19 1_555 1_555
C20 C19 1_555 1_555
C21 C20 1_555 1_555
C22 C21 1_555 1_555
C23 C22 1_555 1_555
H7 C23 1_555 1_555
C24 C23 1_555 1_555
H8 C24 1_555 1_555
C25 C24 1_555 1_555
C26 C25 1_555 1_555
C27 C26 1_555 1_555
C28 C27 1_555 1_555
C29 C28 1_555 1_555
C30 C29 1_555 1_555
C31 C30 1_555 1_555
C32 C27 1_555 1_555
C33 C21 1_555 1_555
C34 C33 1_555 1_555
H9 C34 1_555 1_555
C35 C34 1_555 1_555
H10 C35 1_555 1_555
C36 C35 1_555 1_555
H11 C36 1_555 1_555
C37 C36 1_555 1_555
H12 C37 1_555 1_555
C38 C33 1_555 1_555
H13 C38 1_555 1_555
C39 C11 1_555 1_555
C40 C39 1_555 1_555
H14 C40 1_555 1_555
C41 C40 1_555 1_555
H15 C41 1_555 1_555
C42 C41 1_555 1_555
H16 C42 1_555 1_555
C43 C42 1_555 1_555
H17 C43 1_555 1_555
C44 C39 1_555 1_555
H18 C44 1_555 1_555
F1 C28 1_555 1_555
F2 C29 1_555 1_555
F3 C30 1_555 1_555
F4 C31 1_555 1_555
F5 C32 1_555 1_555
F6 C2 1_555 1_555
F7 C3 1_555 1_555
F8 C4 1_555 1_555
F9 C5 1_555 1_555
F10 C6 1_555 1_555
O1 C7 1_555 1_555
O2 C12 1_555 1_555
S1 C17 1_555 1_555
S2 C22 1_555 1_555
C1A C2A 1_555 1_555
C2A C3A 1_555 1_555
C3A C4A 1_555 1_555
C4A C5A 1_555 1_555
C5A C6A 1_555 1_555
C6A C1A 1_555 1_555
C7A C26 1_555 1_555
C8A C7A 1_555 1_555
H1A C8A 1_555 1_555
C9A C8A 1_555 1_555
H2A C9A 1_555 1_555
C10A C9A 1_555 1_555
C11A C10A 1_555 1_555
C12A C11A 1_555 1_555
C13A C12A 1_555 1_555
H3A C13A 1_555 1_555
C14A C13A 1_555 1_555
H4A C14A 1_555 1_555
C15A C14A 1_555 1_555
C16A C1A 1_555 1_555
C17A C16A 1_555 1_555
C18A C17A 1_555 1_555
H5A C18A 1_555 1_555
C19A C18A 1_555 1_555
H6A C19A 1_555 1_555
C20A C19A 1_555 1_555
C21A C20A 1_555 1_555
C22A C21A 1_555 1_555
C23A C22A 1_555 1_555
H7A C23A 1_555 1_555
C24A C23A 1_555 1_555
H8A C24A 1_555 1_555
C25A C24A 1_555 1_555
C26A C7 1_555 1_555
C27A C26A 1_555 1_555
C28A C27A 1_555 1_555
C29A C28A 1_555 1_555
C30A C29A 1_555 1_555
C31A C30A 1_555 1_555
C32A C27A 1_555 1_555
C33A C21A 1_555 1_555
C34A C33A 1_555 1_555
H9A C34A 1_555 1_555
C35A C34A 1_555 1_555
H10A C35A 1_555 1_555
C36A C35A 1_555 1_555
H11A C36A 1_555 1_555
C37A C36A 1_555 1_555
H12A C37A 1_555 1_555
C38A C33A 1_555 1_555
H13A C38A 1_555 1_555
C39A C11A 1_555 1_555
C40A C39A 1_555 1_555
H14A C40A 1_555 1_555
C41A C40A 1_555 1_555
H15A C41A 1_555 1_555
C42A C41A 1_555 1_555
H16A C42A 1_555 1_555
C43A C42A 1_555 1_555
H17A C43A 1_555 1_555
C44A C39A 1_555 1_555
H18A C44A 1_555 1_555
F1A C28A 1_555 1_555
F2A C29A 1_555 1_555
F3A C30A 1_555 1_555
F4A C31A 1_555 1_555
F5A C32A 1_555 1_555
F6A C2A 1_555 1_555
F7A C3A 1_555 1_555
F8A C4A 1_555 1_555
F9A C5A 1_555 1_555
F10A C6A 1_555 1_555
O1A C7A 1_555 1_555
O2A C12A 1_555 1_555
S1A C17A 1_555 1_555
S2A C22A 1_555 1_555
C10 O1 1_555 1_555
C15 C16 1_555 1_555
C15 O2 1_555 1_555
C20 S1 1_555 1_555
C25 S2 1_555 1_555
C31 C32 1_555 1_555
C37 C38 1_555 1_555
C43 C44 1_555 1_555
C10A O1A 1_555 1_555
C15A C16A 1_555 1_555
C15A O2A 1_555 1_555
C20A S1A 1_555 1_555
C25A C26A 1_555 1_555
C25A S2A 1_555 1_555
C31A C32A 1_555 1_555
C37A C38A 1_555 1_555
C43A C44A 1_555 1_555

#END
