
#######################################################################
#
#                 Cambridge Crystallographic Data Centre
#                                CCDC 
#
#######################################################################
#
# If this CIF has been generated from an entry in the Cambridge 
# Structural Database, then it will include bibliographic, chemical, 
# crystal, experimental, refinement or atomic coordinate data resulting 
# from the CCDC's data processing and validation procedures.
#
#######################################################################

data_ODERUL
_chemical_formula_moiety         'C15 H21 B1 N2 O2'
_chemical_name_systematic        
4-(Dimethylamino)-2-(4,4,5,5-tetramethyl-1,3,2-dioxaborolan-2-yl)benzonitrile
_symmetry_cell_setting           orthorhombic
_symmetry_space_group_name_H-M   'P 21 21 21'
_symmetry_Int_Tables_number      19
_space_group_name_Hall           'P 2ac 2ab'
loop_
_symmetry_equiv_pos_site_id
_symmetry_equiv_pos_as_xyz
1 x,y,z
2 1/2-x,-y,1/2+z
3 -x,1/2+y,1/2-z
4 1/2+x,1/2-y,-z
_cell_length_a                   7.3178(14)
_cell_length_b                   10.551(2)
_cell_length_c                   20.587(4)
_cell_angle_alpha                90
_cell_angle_beta                 90
_cell_angle_gamma                90
_cell_volume                     1589.52
_exptl_crystal_colour            colorless
_exptl_crystal_description       plate
_cell_formula_units_Z            4
_exptl_crystal_preparation       fluorescent
loop_
_atom_site_label
_atom_site_type_symbol
_atom_site_fract_x
_atom_site_fract_y
_atom_site_fract_z
N1 N 0.0437(8) -0.1592(5) 0.0974(2)
N2 N 0.8502(7) 0.0951(5) 0.00612(19)
O1 O 0.2255(5) 0.0415(3) 0.20610(14)
O2 O 0.4238(5) 0.2015(4) 0.19671(16)
B1 B 0.3585(7) 0.0932(5) 0.1710(2)
C1 C 0.4380(6) 0.0385(4) 0.10533(18)
C2 C 0.3531(7) -0.0572(4) 0.06892(19)
C3 C 0.4364(8) -0.1013(5) 0.0129(2)
H1 H 0.3800 -0.1650 -0.0110
C4 C 0.5994(8) -0.0533(5) -0.0080(2)
H2 H 0.6521 -0.0852 -0.0457
C5 C 0.6902(7) 0.0446(4) 0.02690(19)
C6 C 0.6026(7) 0.0858(4) 0.08404(19)
H3 H 0.6591 0.1483 0.1087
C7 C 0.1811(9) -0.1120(5) 0.0865(2)
C8 C 0.9488(9) 0.1829(6) 0.0460(3)
H4 H 0.8764 0.2577 0.0525
H5 H 1.0613 0.2054 0.0250
H6 H 0.9748 0.1445 0.0872
C9 C 0.9393(10) 0.0501(7) -0.0520(3)
H7 H 0.9687 -0.0381 -0.0471
H8 H 1.0495 0.0975 -0.0591
H9 H 0.8591 0.0609 -0.0885
C10 C 0.3430(6) 0.2204(4) 0.2597(2)
C11 C 0.4894(9) 0.1924(7) 0.3087(3)
H10 H 0.5837 0.2554 0.3057
H11 H 0.5404 0.1102 0.3003
H12 H 0.4376 0.1938 0.3516
C12 C 0.2889(9) 0.3576(5) 0.2658(3)
H13 H 0.3965 0.4096 0.2658
H14 H 0.2233 0.3699 0.3057
H15 H 0.2123 0.3808 0.2299
C13 C 0.1806(7) 0.1256(5) 0.2590(2)
C14 C 0.1644(13) 0.0487(7) 0.3204(3)
H16 H 0.0619 -0.0077 0.3170
H17 H 0.1468 0.1046 0.3567
H18 H 0.2741 0.0004 0.3267
C15 C 0.0002(8) 0.1860(8) 0.2408(4)
H19 H -0.0943 0.1229 0.2413
H20 H 0.0092 0.2220 0.1981
H21 H -0.0287 0.2516 0.2715
loop_
_geom_bond_atom_site_label_1
_geom_bond_atom_site_label_2
_geom_bond_site_symmetry_1
_geom_bond_site_symmetry_2
N1 C7 1_555 1_555
N2 C5 1_555 1_555
O1 B1 1_555 1_555
O2 B1 1_555 1_555
B1 C1 1_555 1_555
C1 C2 1_555 1_555
C2 C3 1_555 1_555
C3 H1 1_555 1_555
C4 C3 1_555 1_555
H2 C4 1_555 1_555
C5 C4 1_555 1_555
C6 C1 1_555 1_555
H3 C6 1_555 1_555
C7 C2 1_555 1_555
C8 N2 1_555 1_555
H4 C8 1_555 1_555
H5 C8 1_555 1_555
H6 C8 1_555 1_555
C9 N2 1_555 1_555
H7 C9 1_555 1_555
H8 C9 1_555 1_555
H9 C9 1_555 1_555
C10 O2 1_555 1_555
C11 C10 1_555 1_555
H10 C11 1_555 1_555
H11 C11 1_555 1_555
H12 C11 1_555 1_555
C12 C10 1_555 1_555
H13 C12 1_555 1_555
H14 C12 1_555 1_555
H15 C12 1_555 1_555
C13 O1 1_555 1_555
C14 C13 1_555 1_555
H16 C14 1_555 1_555
H17 C14 1_555 1_555
H18 C14 1_555 1_555
C15 C13 1_555 1_555
H19 C15 1_555 1_555
H20 C15 1_555 1_555
H21 C15 1_555 1_555
C5 C6 1_555 1_555
C10 C13 1_555 1_555

#END
