
#######################################################################
#
#                 Cambridge Crystallographic Data Centre
#                                CCDC 
#
#######################################################################
#
# If this CIF has been generated from an entry in the Cambridge 
# Structural Database, then it will include bibliographic, chemical, 
# crystal, experimental, refinement or atomic coordinate data resulting 
# from the CCDC's data processing and validation procedures.
#
#######################################################################

data_ODEZOO02
_chemical_name_common            
'N,N-dimethylbiguanidinium bis(hydrogensquarate)'
_chemical_formula_moiety         'C4 H13 N5 2+,2(C4 H1 O4 1-)'
_chemical_name_systematic        
'(Amino((amino(dimethyliminio)methyl)amino)methylene)ammonium bis(2-hydroxy-3,4-dioxocyclobut-1-en-1-olate)'
_symmetry_cell_setting           triclinic
_symmetry_space_group_name_H-M   'P -1'
_symmetry_Int_Tables_number      2
_space_group_name_Hall           '-P 1'
loop_
_symmetry_equiv_pos_site_id
_symmetry_equiv_pos_as_xyz
1 x,y,z
2 -x,-y,-z
_cell_length_a                   7.0689(2)
_cell_length_b                   8.5538(2)
_cell_length_c                   13.0736(3)
_cell_angle_alpha                90.4260(9)
_cell_angle_beta                 105.1180(9)
_cell_angle_gamma                102.4250(10)
_cell_volume                     743.58
_exptl_crystal_colour            colorless
_exptl_crystal_description       plate
_cell_formula_units_Z            2
loop_
_atom_site_label
_atom_site_type_symbol
_atom_site_fract_x
_atom_site_fract_y
_atom_site_fract_z
O1 O 1.0273(3) 0.8197(2) 0.61322(17)
H1 H 0.9630(6) 0.7471(4) 0.5425(3)
O2 O 0.7594(3) 0.48481(18) 0.67219(16)
O3 O 0.9069(3) 0.62245(19) 0.91923(16)
O4 O 1.1864(3) 0.9356(2) 0.85841(16)
C1 C 0.9940(2) 0.75569(15) 0.69745(13)
C2 C 0.87228(19) 0.60890(15) 0.72189(12)
C3 C 0.9411(2) 0.66886(15) 0.83606(13)
C4 C 1.0685(2) 0.81410(15) 0.80731(13)
O5 O 0.6064(3) 0.3562(2) 0.48223(16)
H2 H 0.6819(5) 0.4211(4) 0.5524(3)
O6 O 0.9143(3) 0.6790(2) 0.43688(18)
O7 O 0.7644(3) 0.5772(2) 0.18796(16)
O8 O 0.4680(3) 0.2535(2) 0.23228(17)
C5 C 0.6560(2) 0.42020(16) 0.40033(13)
C6 C 0.7908(2) 0.56227(16) 0.38259(13)
C7 C 0.7247(2) 0.51746(16) 0.26726(13)
C8 C 0.5869(2) 0.36876(16) 0.28797(13)
N1 N 0.63032(15) 0.12227(11) 0.72094(9)
N2 N 0.52882(15) 0.16629(12) 0.87032(10)
H3 H 0.4059(5) 0.0713(4) 0.8443(3)
N3 N 0.39937(16) 0.18272(12) 1.01253(10)
H4 H 0.4083(6) 0.2284(4) 1.0859(3)
H5 H 0.3032(6) 0.0767(4) 0.9817(3)
N4 N 0.87128(15) 0.24078(13) 0.87288(10)
H6 H 0.9178(6) 0.2694(5) 0.9523(3)
H7 H 0.9744(5) 0.2791(5) 0.8324(4)
N5 N 0.65845(15) 0.38779(11) 0.99528(10)
H8 H 0.6660(6) 0.4443(4) 1.0659(3)
H9 H 0.7462(6) 0.4493(4) 0.9515(3)
C9 C 0.7821(2) 0.09005(19) 0.67127(15)
H10 H 0.8338(9) 0.1900(7) 0.6292(6)
H11 H 0.7154(8) -0.0186(7) 0.6194(5)
H12 H 0.9094(7) 0.0663(6) 0.7307(5)
C10 C 0.4254(2) 0.08860(19) 0.65261(15)
H13 H 0.3663(8) -0.0387(5) 0.6376(5)
H14 H 0.4263(7) 0.1434(7) 0.5789(4)
H15 H 0.3253(6) 0.1382(7) 0.6875(4)
C11 C 0.6816(2) 0.18013(15) 0.82042(13)
C12 C 0.5324(2) 0.24947(15) 0.96148(13)
loop_
_geom_bond_atom_site_label_1
_geom_bond_atom_site_label_2
_geom_bond_site_symmetry_1
_geom_bond_site_symmetry_2
O1 H1 1_555 1_555
O2 C2 1_555 1_555
O3 C3 1_555 1_555
O4 C4 1_555 1_555
C1 O1 1_555 1_555
C2 C1 1_555 1_555
C3 C2 1_555 1_555
C4 C1 1_555 1_555
O5 H2 1_555 1_555
O6 C6 1_555 1_555
O7 C7 1_555 1_555
O8 C8 1_555 1_555
C5 O5 1_555 1_555
C6 C5 1_555 1_555
C7 C6 1_555 1_555
C8 C5 1_555 1_555
N1 C9 1_555 1_555
N2 H3 1_555 1_555
N3 H4 1_555 1_555
H5 N3 1_555 1_555
N4 H6 1_555 1_555
H7 N4 1_555 1_555
N5 H8 1_555 1_555
H9 N5 1_555 1_555
C9 H10 1_555 1_555
H11 C9 1_555 1_555
H12 C9 1_555 1_555
C10 N1 1_555 1_555
H13 C10 1_555 1_555
H14 C10 1_555 1_555
H15 C10 1_555 1_555
C11 N1 1_555 1_555
C12 N2 1_555 1_555
C3 C4 1_555 1_555
C7 C8 1_555 1_555
N2 C11 1_555 1_555
N3 C12 1_555 1_555
N4 C11 1_555 1_555
N5 C12 1_555 1_555

#END
