
#######################################################################
#
#                 Cambridge Crystallographic Data Centre
#                                CCDC 
#
#######################################################################
#
# If this CIF has been generated from an entry in the Cambridge 
# Structural Database, then it will include bibliographic, chemical, 
# crystal, experimental, refinement or atomic coordinate data resulting 
# from the CCDC's data processing and validation procedures.
#
#######################################################################

data_ODEZOO
_chemical_name_common            
'N,N-dimethylbiguanidinium bis(hydrogensquarate)'
_chemical_formula_moiety         'C4 H13 N5 2+,2(C4 H1 O4 1-)'
_chemical_name_systematic        
'(Amino((amino(dimethyliminio)methyl)amino)methylene)ammonium bis(2-hydroxy-3,4-dioxocyclobut-1-en-1-olate)'
_symmetry_cell_setting           triclinic
_symmetry_space_group_name_H-M   'P -1'
_symmetry_Int_Tables_number      2
_space_group_name_Hall           '-P 1'
loop_
_symmetry_equiv_pos_site_id
_symmetry_equiv_pos_as_xyz
1 x,y,z
2 -x,-y,-z
_cell_length_a                   7.0689(2)
_cell_length_b                   8.5538(2)
_cell_length_c                   13.0736(3)
_cell_angle_alpha                90.4259(9)
_cell_angle_beta                 105.1185(9)
_cell_angle_gamma                102.4251(10)
_cell_volume                     743.578
_exptl_crystal_colour            colorless
_exptl_crystal_description       block
_cell_formula_units_Z            2
loop_
_atom_site_label
_atom_site_type_symbol
_atom_site_fract_x
_atom_site_fract_y
_atom_site_fract_z
O1 O 1.02728(7) 0.82013(6) 0.61291(3)
H1 H 0.9664(17) 0.7536(14) 0.5513(9)
O2 O 0.75953(7) 0.48456(5) 0.67218(3)
O3 O 0.90716(7) 0.62233(5) 0.91952(3)
O4 O 1.18711(7) 0.93588(6) 0.85855(3)
C1 C 0.99404(8) 0.75549(7) 0.69774(4)
C2 C 0.87282(8) 0.60914(7) 0.72196(4)
C3 C 0.94112(8) 0.66909(7) 0.83570(4)
C4 C 1.06825(8) 0.81400(7) 0.80734(4)
O5 O 0.60656(7) 0.35580(6) 0.48209(3)
H2 H 0.6708(17) 0.4186(14) 0.5423(9)
O6 O 0.91444(7) 0.67924(6) 0.43705(4)
O7 O 0.76472(7) 0.57743(6) 0.18786(3)
O8 O 0.46746(7) 0.25345(6) 0.23237(3)
C5 C 0.65640(8) 0.42058(7) 0.40000(4)
C6 C 0.79065(9) 0.56210(7) 0.38264(4)
C7 C 0.72452(8) 0.51730(7) 0.26748(4)
C8 C 0.58712(8) 0.36880(7) 0.28791(4)
N1 N 0.63044(7) 0.12212(6) 0.72119(4)
N2 N 0.52866(8) 0.16658(6) 0.87015(4)
H3 H 0.4262(13) 0.0901(11) 0.8482(7)
N3 N 0.39972(8) 0.18275(7) 1.01241(4)
H4 H 0.4056(13) 0.2263(12) 1.0734(7)
H5 H 0.3178(13) 0.0959(11) 0.9852(7)
N4 N 0.87102(8) 0.24052(7) 0.87271(4)
H6 H 0.9082(14) 0.2667(12) 0.9410(8)
H7 H 0.9620(13) 0.2700(10) 0.8380(7)
N5 N 0.65777(8) 0.38725(6) 0.99499(4)
H8 H 0.6627(14) 0.4359(12) 1.0556(8)
H9 H 0.7293(14) 0.4329(12) 0.9578(7)
C9 C 0.78222(10) 0.09007(9) 0.67128(5)
H10 H 0.8304(13) 0.1804(12) 0.6341(7)
H11 H 0.7220(14) -0.0065(11) 0.6255(7)
H12 H 0.8943(14) 0.0679(11) 0.7230(7)
C10 C 0.42488(10) 0.08860(9) 0.65249(5)
H13 H 0.3661(14) -0.0235(12) 0.6383(7)
H14 H 0.4293(14) 0.1421(11) 0.5864(7)
H15 H 0.3366(13) 0.1299(11) 0.6835(7)
C11 C 0.68078(8) 0.17996(7) 0.82051(4)
C12 C 0.53214(8) 0.24935(7) 0.96159(4)
loop_
_geom_bond_atom_site_label_1
_geom_bond_atom_site_label_2
_geom_bond_site_symmetry_1
_geom_bond_site_symmetry_2
O1 H1 1_555 1_555
O2 C2 1_555 1_555
O3 C3 1_555 1_555
O4 C4 1_555 1_555
C1 O1 1_555 1_555
C2 C1 1_555 1_555
C3 C2 1_555 1_555
C4 C1 1_555 1_555
O5 H2 1_555 1_555
O6 C6 1_555 1_555
O7 C7 1_555 1_555
O8 C8 1_555 1_555
C5 O5 1_555 1_555
C6 C5 1_555 1_555
C7 C6 1_555 1_555
C8 C5 1_555 1_555
N1 C9 1_555 1_555
N2 H3 1_555 1_555
N3 H4 1_555 1_555
H5 N3 1_555 1_555
N4 H6 1_555 1_555
H7 N4 1_555 1_555
N5 H8 1_555 1_555
H9 N5 1_555 1_555
C9 H10 1_555 1_555
H11 C9 1_555 1_555
H12 C9 1_555 1_555
C10 N1 1_555 1_555
H13 C10 1_555 1_555
H14 C10 1_555 1_555
H15 C10 1_555 1_555
C11 N1 1_555 1_555
C12 N2 1_555 1_555
C3 C4 1_555 1_555
C7 C8 1_555 1_555
N2 C11 1_555 1_555
N3 C12 1_555 1_555
N4 C11 1_555 1_555
N5 C12 1_555 1_555

#END
