
#######################################################################
#
#                 Cambridge Crystallographic Data Centre
#                                CCDC 
#
#######################################################################
#
# If this CIF has been generated from an entry in the Cambridge 
# Structural Database, then it will include bibliographic, chemical, 
# crystal, experimental, refinement or atomic coordinate data resulting 
# from the CCDC's data processing and validation procedures.
#
#######################################################################

data_ODIJUI
_chemical_formula_moiety         'C27 H30 S2'
_chemical_name_systematic        
2,8-Dipentyl-5H-thieno[2',3':6,7]fluoreno[3,2-b]thiophene
_symmetry_cell_setting           triclinic
_symmetry_space_group_name_H-M   'P -1'
_symmetry_Int_Tables_number      2
_space_group_name_Hall           '-P 1'
loop_
_symmetry_equiv_pos_site_id
_symmetry_equiv_pos_as_xyz
1 x,y,z
2 -x,-y,-z
_cell_length_a                   7.6535(9)
_cell_length_b                   11.5648(14)
_cell_length_c                   13.8466(17)
_cell_angle_alpha                67.639(3)
_cell_angle_beta                 84.037(4)
_cell_angle_gamma                81.169(4)
_cell_volume                     1118.6
_exptl_crystal_colour            colorless
_exptl_crystal_description       block
_cell_formula_units_Z            2
loop_
_atom_site_label
_atom_site_type_symbol
_atom_site_fract_x
_atom_site_fract_y
_atom_site_fract_z
S1 S 0.24250(6) 0.69288(4) 0.43423(4)
S2 S 0.46880(6) -0.11174(4) 0.77845(4)
C1 C -0.0411(4) 1.3460(2) 0.0039(2)
H1 H -0.0841 1.3902 -0.0650
H2 H 0.0773 1.3633 0.0048
H3 H -0.1164 1.3734 0.0530
C2 C -0.0414(3) 1.20641(19) 0.03348(16)
H4 H 0.0321 1.1798 -0.0176
H5 H -0.1611 1.1897 0.0314
C3 C 0.0261(3) 1.12996(17) 0.14111(15)
H6 H -0.0520 1.1540 0.1920
H7 H 0.1422 1.1519 0.1440
C4 C 0.0399(3) 0.98829(17) 0.17286(14)
H8 H 0.1179 0.9629 0.1226
H9 H -0.0760 0.9647 0.1720
C5 C 0.1108(2) 0.91958(16) 0.28132(14)
H10 H 0.2245 0.9467 0.2817
H11 H 0.0308 0.9451 0.3307
C6 C 0.1339(2) 0.77888(16) 0.31881(14)
C7 C 0.0811(2) 0.70213(17) 0.27784(14)
H12 H 0.0213 0.7322 0.2162
C8 C 0.1246(2) 0.57045(16) 0.33679(13)
C9 C 0.2143(2) 0.55010(16) 0.42730(14)
C10 C 0.2698(2) 0.43025(16) 0.49744(13)
H13 H 0.3278 0.4187 0.5568
C11 C 0.2359(2) 0.32847(16) 0.47599(13)
C12 C 0.1480(2) 0.34716(16) 0.38514(13)
C13 C 0.0915(2) 0.46600(17) 0.31695(14)
H14 H 0.0320 0.4770 0.2582
C14 C 0.1301(2) 0.22227(16) 0.37949(14)
H15 H 0.1910 0.2142 0.3169
H16 H 0.0067 0.2115 0.3803
C15 C 0.2163(2) 0.12834(16) 0.47664(13)
C16 C 0.2761(2) 0.19245(16) 0.53358(13)
C17 C 0.3565(2) 0.12610(16) 0.62756(14)
H17 H 0.3950 0.1676 0.6657
C18 C 0.3775(2) -0.00497(16) 0.66285(13)
C19 C 0.3228(2) -0.06979(16) 0.60505(14)
C20 C 0.2409(2) -0.00044(17) 0.51111(14)
H18 H 0.2033 -0.0414 0.4723
C21 C 0.3603(2) -0.20297(16) 0.65614(14)
H19 H 0.3343 -0.2593 0.6280
C22 C 0.4365(2) -0.24073(17) 0.74848(15)
C23 C 0.4907(3) -0.37257(17) 0.82269(15)
H20 H 0.4391 -0.3820 0.8919
H21 H 0.6185 -0.3859 0.8267
C24 C 0.4339(3) -0.47271(17) 0.79045(16)
H22 H 0.3069 -0.4562 0.7828
H23 H 0.4901 -0.4653 0.7226
C25 C 0.4785(3) -0.60608(17) 0.86612(16)
H24 H 0.4213 -0.6142 0.9339
H25 H 0.6053 -0.6230 0.8741
C26 C 0.4217(3) -0.70314(19) 0.83165(18)
H26 H 0.4818 -0.6964 0.7648
H27 H 0.2956 -0.6841 0.8212
C27 C 0.4595(4) -0.8373(2) 0.9078(2)
H28 H 0.4211 -0.8935 0.8804
H29 H 0.3972 -0.8459 0.9735
H30 H 0.5844 -0.8577 0.9178
loop_
_geom_bond_atom_site_label_1
_geom_bond_atom_site_label_2
_geom_bond_site_symmetry_1
_geom_bond_site_symmetry_2
S1 C6 1_555 1_555
S2 C18 1_555 1_555
C1 H1 1_555 1_555
H2 C1 1_555 1_555
H3 C1 1_555 1_555
C2 C1 1_555 1_555
H4 C2 1_555 1_555
H5 C2 1_555 1_555
C3 C2 1_555 1_555
H6 C3 1_555 1_555
H7 C3 1_555 1_555
C4 C3 1_555 1_555
H8 C4 1_555 1_555
H9 C4 1_555 1_555
C5 C4 1_555 1_555
H10 C5 1_555 1_555
H11 C5 1_555 1_555
C6 C5 1_555 1_555
C7 C6 1_555 1_555
H12 C7 1_555 1_555
C8 C7 1_555 1_555
C9 S1 1_555 1_555
C10 C9 1_555 1_555
H13 C10 1_555 1_555
C11 C10 1_555 1_555
C12 C11 1_555 1_555
C13 C8 1_555 1_555
H14 C13 1_555 1_555
C14 C12 1_555 1_555
H15 C14 1_555 1_555
H16 C14 1_555 1_555
C15 C14 1_555 1_555
C16 C11 1_555 1_555
C17 C16 1_555 1_555
H17 C17 1_555 1_555
C18 C17 1_555 1_555
C19 C18 1_555 1_555
C20 C15 1_555 1_555
H18 C20 1_555 1_555
C21 C19 1_555 1_555
H19 C21 1_555 1_555
C22 S2 1_555 1_555
C23 C22 1_555 1_555
H20 C23 1_555 1_555
H21 C23 1_555 1_555
C24 C23 1_555 1_555
H22 C24 1_555 1_555
H23 C24 1_555 1_555
C25 C24 1_555 1_555
H24 C25 1_555 1_555
H25 C25 1_555 1_555
C26 C25 1_555 1_555
H26 C26 1_555 1_555
H27 C26 1_555 1_555
C27 C26 1_555 1_555
H28 C27 1_555 1_555
H29 C27 1_555 1_555
H30 C27 1_555 1_555
C8 C9 1_555 1_555
C12 C13 1_555 1_555
C15 C16 1_555 1_555
C19 C20 1_555 1_555
C21 C22 1_555 1_555

#END
