
#######################################################################
#
#                 Cambridge Crystallographic Data Centre
#                                CCDC 
#
#######################################################################
#
# If this CIF has been generated from an entry in the Cambridge 
# Structural Database, then it will include bibliographic, chemical, 
# crystal, experimental, refinement or atomic coordinate data resulting 
# from the CCDC's data processing and validation procedures.
#
#######################################################################

data_ODILET
_chemical_formula_moiety         'C14 H10 F2 N2 O3 S1,2(C2 H1 F3 O2)'
_chemical_name_systematic        
'9-Cyclopropyl-6,7-difluoro-8-methoxy-9H-isothiazolo(5,4-b)quinoline-3,4-dione bis(trifluoroacetic acid)'
_symmetry_cell_setting           triclinic
_symmetry_space_group_name_H-M   'P -1'
_symmetry_Int_Tables_number      2
_space_group_name_Hall           '-P 1'
loop_
_symmetry_equiv_pos_site_id
_symmetry_equiv_pos_as_xyz
1 x,y,z
2 -x,-y,-z
_cell_length_a                   8.6649(17)
_cell_length_b                   9.1625(18)
_cell_length_c                   14.151(3)
_cell_angle_alpha                79.77(3)
_cell_angle_beta                 74.02(3)
_cell_angle_gamma                74.16(3)
_cell_volume                     1032.66
_exptl_crystal_colour            colorless
_exptl_crystal_description       block
_chemical_melting_point          '250 deg.C(dec.)'
_cell_formula_units_Z            2
_exptl_crystal_recrystallization_method dimethylformamide
loop_
_atom_site_label
_atom_site_type_symbol
_atom_site_fract_x
_atom_site_fract_y
_atom_site_fract_z
S1 S 0.35431(4) 0.57268(4) 0.32101(2)
F1 F 0.76957(11) 0.94344(10) 0.62792(7)
F2 F 0.97189(9) 0.88842(9) 0.45261(6)
O1 O 0.07894(11) 0.57812(11) 0.58056(7)
O2 O 0.28416(12) 0.73912(13) 0.64632(8)
O3 O 0.88624(12) 0.76734(11) 0.31496(8)
N1 N 0.19748(13) 0.54125(13) 0.41894(8)
H1 H 0.110(2) 0.498(2) 0.4013(13)
N2 N 0.56204(13) 0.71494(12) 0.35901(8)
C1 C 0.19080(16) 0.59208(15) 0.50437(10)
C2 C 0.32873(15) 0.66109(15) 0.49026(10)
C3 C 0.36930(16) 0.72820(15) 0.56120(10)
C4 C 0.52321(16) 0.78112(15) 0.52464(10)
C5 C 0.57181(17) 0.84187(15) 0.59291(11)
H2 H 0.5034 0.8540 0.6576
C6 C 0.71890(17) 0.88321(16) 0.56499(11)
C7 C 0.82217(16) 0.85945(15) 0.47206(11)
C8 C 0.77895(16) 0.80210(15) 0.40195(10)
C9 C 0.62045(15) 0.76689(14) 0.42765(10)
C10 C 0.42409(16) 0.65943(15) 0.39431(10)
C11 C 0.97879(18) 0.87870(19) 0.26042(13)
H3 H 1.0518 0.8396 0.1993
H4 H 1.0452 0.8972 0.3011
H5 H 0.9019 0.9744 0.2441
C12 C 0.63501(17) 0.71692(16) 0.25298(10)
H6 H 0.7194 0.6227 0.2313
C13 C 0.65781(19) 0.86244(19) 0.19111(11)
H7 H 0.7554 0.8576 0.1344
H8 H 0.6254 0.9559 0.2249
C14 C 0.52339(19) 0.79460(18) 0.18457(11)
H9 H 0.5382 0.7472 0.1240
H10 H 0.4080 0.8456 0.2146
C15 C 0.2267(2) 0.2441(2) 0.11592(14)
F3 F 0.38148(16) 0.2371(2) 0.08193(12)
F4 F 0.1553(2) 0.31571(19) 0.04548(9)
F5 F 0.2024(2) 0.10458(16) 0.13085(11)
C16 C 0.15679(18) 0.32195(18) 0.21071(11)
O4 O 0.24169(14) 0.36691(14) 0.24603(9)
O5 O 0.00024(14) 0.32601(18) 0.24306(9)
H11 H -0.038(3) 0.366(3) 0.2911(18)
C17 C 0.7690(3) 1.2757(3) 0.00297(14)
F6 F 0.6696(3) 1.3701(2) -0.05131(12)
F7 F 0.7403(3) 1.1429(2) 0.00262(14)
F8 F 0.9144(3) 1.2817(3) -0.03952(18)
C18 C 0.7240(2) 1.32505(19) 0.10669(13)
O6 O 0.6789(3) 1.45552(17) 0.11846(11)
O7 O 0.73899(16) 1.21103(13) 0.17351(9)
H12 H 0.732(2) 1.234(2) 0.2315(16)
F9? F 0.6994(6) 1.2068(8) -0.0207(4)
F10? F 0.9257(5) 1.1469(5) -0.0047(3)
F11? F 0.8696(7) 1.3569(5) -0.0637(3)
loop_
_geom_bond_atom_site_label_1
_geom_bond_atom_site_label_2
_geom_bond_site_symmetry_1
_geom_bond_site_symmetry_2
S1 N1 1_555 1_555
F1 C6 1_555 1_555
F2 C7 1_555 1_555
O1 C1 1_555 1_555
O2 C3 1_555 1_555
O3 C8 1_555 1_555
N1 H1 1_555 1_555
N2 C9 1_555 1_555
C1 N1 1_555 1_555
C2 C1 1_555 1_555
C3 C2 1_555 1_555
C4 C3 1_555 1_555
C5 C4 1_555 1_555
H2 C5 1_555 1_555
C6 C5 1_555 1_555
C7 C6 1_555 1_555
C8 C7 1_555 1_555
C9 C4 1_555 1_555
C10 S1 1_555 1_555
C11 O3 1_555 1_555
H3 C11 1_555 1_555
H4 C11 1_555 1_555
H5 C11 1_555 1_555
C12 N2 1_555 1_555
H6 C12 1_555 1_555
C13 C12 1_555 1_555
H7 C13 1_555 1_555
H8 C13 1_555 1_555
C14 C12 1_555 1_555
H9 C14 1_555 1_555
H10 C14 1_555 1_555
C15 F3 1_555 1_555
F4 C15 1_555 1_555
F5 C15 1_555 1_555
C16 C15 1_555 1_555
O4 C16 1_555 1_555
O5 C16 1_555 1_555
H11 O5 1_555 1_555
C17 F6 1_555 1_555
F7 C17 1_555 1_555
F8 C17 1_555 1_555
C18 C17 1_555 1_555
O6 C18 1_555 1_555
O7 C18 1_555 1_555
H12 O7 1_555 1_555
N2 C10 1_555 1_555
C2 C10 1_555 1_555
C8 C9 1_555 1_555
C13 C14 1_555 1_555

#END
