
#######################################################################
#
#                 Cambridge Crystallographic Data Centre
#                                CCDC 
#
#######################################################################
#
# If this CIF has been generated from an entry in the Cambridge 
# Structural Database, then it will include bibliographic, chemical, 
# crystal, experimental, refinement or atomic coordinate data resulting 
# from the CCDC's data processing and validation procedures.
#
#######################################################################

data_ODIMUL
_chemical_formula_moiety         'C26 H43 F3 Li1 N1 O8 S1'
_chemical_name_systematic        
(2,4-Di-t-butyl-6-((1,4,7,10-tetraoxa-13-azacyclopentadecan-13-yl)methyl)phenol)-(trifluoromethanesulfonato)-lithium
_symmetry_cell_setting           monoclinic
_symmetry_space_group_name_H-M   'P 21/n'
_symmetry_Int_Tables_number      14
_space_group_name_Hall           '-P 2yn'
loop_
_symmetry_equiv_pos_site_id
_symmetry_equiv_pos_as_xyz
1 x,y,z
2 1/2-x,1/2+y,1/2-z
3 -x,-y,-z
4 1/2+x,1/2-y,1/2+z
_cell_length_a                   9.4732(13)
_cell_length_b                   27.781(4)
_cell_length_c                   12.5458(14)
_cell_angle_alpha                90
_cell_angle_beta                 109.382(6)
_cell_angle_gamma                90
_cell_volume                     3114.62
_exptl_crystal_colour            colorless
_exptl_crystal_description       prism
_cell_formula_units_Z            4
loop_
_atom_site_label
_atom_site_type_symbol
_atom_site_fract_x
_atom_site_fract_y
_atom_site_fract_z
Li1 Li 0.8063(6) 0.20448(17) 0.4463(4)
N1 N 0.5821(3) 0.09835(7) 0.40357(19)
C1 C 0.4744(3) 0.11698(10) 0.2982(3)
H1 H 0.3718 0.1114 0.2997
H2 H 0.4853 0.0985 0.2339
C2 C 0.4928(3) 0.17007(11) 0.2785(3)
H3 H 0.426 0.1791 0.202
H4 H 0.4635 0.1893 0.3343
O1 O 0.6455(2) 0.18086(6) 0.28872(15)
C3 C 0.6534(4) 0.21550(12) 0.2065(3)
H5 H 0.6043 0.2458 0.2164
H6 H 0.6014 0.2031 0.1294
C4 C 0.8152(4) 0.22449(11) 0.2224(2)
H7 H 0.8663 0.194 0.2169
H8 H 0.825 0.247 0.164
O2 O 0.8787(3) 0.24504(7) 0.33243(17)
C5 C 1.0381(4) 0.24899(12) 0.3670(3)
H9 H 1.0719 0.2764 0.4197
H10 H 1.0691 0.2552 0.3002
C6 C 1.1089(4) 0.20380(12) 0.4235(3)
H11 H 1.091 0.1772 0.3682
H12 H 1.2182 0.2082 0.4594
O3 O 1.0393(2) 0.19347(7) 0.50810(17)
C7 C 1.0825(4) 0.14820(11) 0.5629(3)
H13 H 1.1883 0.1491 0.6127
H14 H 1.0708 0.1223 0.5064
C8 C 0.9810(4) 0.13956(12) 0.6309(3)
H15 H 0.9986 0.107 0.6651
H16 H 1.0005 0.1636 0.6924
O4 O 0.8281(2) 0.14372(7) 0.55515(16)
C9 C 0.7205(4) 0.12257(10) 0.5995(2)
H17 H 0.7135 0.1418 0.6639
H18 H 0.7516 0.0895 0.6264
C10 C 0.5709(4) 0.12150(10) 0.5063(3)
H19 H 0.4981 0.1036 0.5325
H20 H 0.5335 0.1548 0.4883
C11 C 0.5724(3) 0.04501(9) 0.4081(2)
H21 H 0.4665 0.0356 0.3912
H22 H 0.6288 0.0339 0.4855
C12 C 0.6339(3) 0.02034(9) 0.3255(2)
C13 C 0.5577(3) -0.01804(9) 0.2592(2)
H23 H 0.4621 -0.0269 0.262
C14 C 0.6178(3) -0.04364(9) 0.1890(2)
C15 C 0.7597(3) -0.02956(9) 0.1879(2)
H24 H 0.8035 -0.0473 0.1422
C16 C 0.8403(3) 0.00931(9) 0.2509(2)
C17 C 0.7741(3) 0.03433(9) 0.3190(2)
C18 C 0.5314(3) -0.08488(10) 0.1138(2)
C19 C 0.4165(8) -0.0651(2) 0.0112(5)
H25 H 0.3507 -0.0911 -0.0295
H26 H 0.466 -0.0504 -0.0381
H27 H 0.3571 -0.0406 0.0335
C20 C 0.4486(7) -0.1161(2) 0.1798(5)
H28 H 0.3726 -0.0964 0.1965
H29 H 0.5213 -0.1276 0.2507
H30 H 0.4003 -0.1437 0.1334
C21 C 0.6361(7) -0.1213(2) 0.0817(6)
H31 H 0.5764 -0.1481 0.0388
H32 H 0.7106 -0.1337 0.1507
H33 H 0.6871 -0.105 0.0355
C22 C 0.9955(3) 0.02375(10) 0.2467(2)
C23 C 1.0473(4) -0.00977(12) 0.1691(3)
H34 H 1.0488 -0.0431 0.195
H35 H 1.148 -0.0005 0.1714
H36 H 0.978 -0.0071 0.0915
C24 C 1.1116(3) 0.02041(12) 0.3656(3)
H37 H 1.0887 0.0444 0.4147
H38 H 1.2116 0.0265 0.3616
H39 H 1.1086 -0.0118 0.3964
C25 C 0.9901(4) 0.07571(12) 0.2001(3)
H40 H 0.9211 0.0768 0.1221
H41 H 1.0904 0.0852 0.2017
H42 H 0.9554 0.0979 0.247
O5 O 0.8470(2) 0.07279(7) 0.38230(17)
H43 H 0.7862 0.0891 0.4031
S1 S 0.60625(8) 0.26778(2) 0.56127(6)
O6 O 0.6596(2) 0.29663(8) 0.66185(18)
O7 O 0.5066(3) 0.22905(7) 0.56473(19)
O8 O 0.7188(3) 0.25497(9) 0.5111(2)
C26 C 0.4822(4) 0.30921(12) 0.4591(3)
F1 F 0.3690(3) 0.32264(8) 0.49316(19)
F2 F 0.4227(3) 0.28749(9) 0.35755(17)
F3 F 0.5500(3) 0.34774(8) 0.4420(2)
C27? C 0.5314(3) -0.08488(10) 0.1138(2)
C28? C 0.5279(14) -0.0747(3) -0.0113(9)
H44? H 0.4626 -0.0983 -0.0627
H45? H 0.6294 -0.0774 -0.0149
H46? H 0.4896 -0.0422 -0.0338
C29? C 0.3651(12) -0.0862(3) 0.1041(9)
H47? H 0.319 -0.055 0.0772
H48? H 0.3567 -0.0931 0.1783
H49? H 0.3137 -0.1114 0.0505
C30? C 0.6099(13) -0.1323(3) 0.1577(10)
H50? H 0.5735 -0.1572 0.0997
H51? H 0.5886 -0.1419 0.2259
H52? H 0.7181 -0.1284 0.1756
loop_
_geom_bond_atom_site_label_1
_geom_bond_atom_site_label_2
_geom_bond_site_symmetry_1
_geom_bond_site_symmetry_2
Li1 O1 1_555 1_555
N1 C1 1_555 1_555
C1 H1 1_555 1_555
H2 C1 1_555 1_555
C2 C1 1_555 1_555
H3 C2 1_555 1_555
H4 C2 1_555 1_555
O1 C2 1_555 1_555
C3 O1 1_555 1_555
H5 C3 1_555 1_555
H6 C3 1_555 1_555
C4 C3 1_555 1_555
H7 C4 1_555 1_555
H8 C4 1_555 1_555
O2 Li1 1_555 1_555
C5 O2 1_555 1_555
H9 C5 1_555 1_555
H10 C5 1_555 1_555
C6 C5 1_555 1_555
H11 C6 1_555 1_555
H12 C6 1_555 1_555
O3 Li1 1_555 1_555
C7 O3 1_555 1_555
H13 C7 1_555 1_555
H14 C7 1_555 1_555
C8 C7 1_555 1_555
H15 C8 1_555 1_555
H16 C8 1_555 1_555
O4 Li1 1_555 1_555
C9 O4 1_555 1_555
H17 C9 1_555 1_555
H18 C9 1_555 1_555
C10 N1 1_555 1_555
H19 C10 1_555 1_555
H20 C10 1_555 1_555
C11 N1 1_555 1_555
H21 C11 1_555 1_555
H22 C11 1_555 1_555
C12 C11 1_555 1_555
C13 C12 1_555 1_555
H23 C13 1_555 1_555
C14 C13 1_555 1_555
C15 C14 1_555 1_555
H24 C15 1_555 1_555
C16 C15 1_555 1_555
C17 C12 1_555 1_555
C18 C14 1_555 1_555
C19 C18 1_555 1_555
H25 C19 1_555 1_555
H26 C19 1_555 1_555
H27 C19 1_555 1_555
C20 C18 1_555 1_555
H28 C20 1_555 1_555
H29 C20 1_555 1_555
H30 C20 1_555 1_555
C21 C18 1_555 1_555
H31 C21 1_555 1_555
H32 C21 1_555 1_555
H33 C21 1_555 1_555
C22 C16 1_555 1_555
C23 C22 1_555 1_555
H34 C23 1_555 1_555
H35 C23 1_555 1_555
H36 C23 1_555 1_555
C24 C22 1_555 1_555
H37 C24 1_555 1_555
H38 C24 1_555 1_555
H39 C24 1_555 1_555
C25 C22 1_555 1_555
H40 C25 1_555 1_555
H41 C25 1_555 1_555
H42 C25 1_555 1_555
O5 C17 1_555 1_555
H43 O5 1_555 1_555
S1 O6 1_555 1_555
O7 S1 1_555 1_555
O8 Li1 1_555 1_555
C26 S1 1_555 1_555
F1 C26 1_555 1_555
F2 C26 1_555 1_555
F3 C26 1_555 1_555
C4 O2 1_555 1_555
C6 O3 1_555 1_555
C8 O4 1_555 1_555
C9 C10 1_555 1_555
C16 C17 1_555 1_555
S1 O8 1_555 1_555

#END
