
#######################################################################
#
#                 Cambridge Crystallographic Data Centre
#                                CCDC 
#
#######################################################################
#
# If this CIF has been generated from an entry in the Cambridge 
# Structural Database, then it will include bibliographic, chemical, 
# crystal, experimental, refinement or atomic coordinate data resulting 
# from the CCDC's data processing and validation procedures.
#
#######################################################################

data_ODIRAX
_chemical_formula_moiety         'C26 H34 N2 O4'
_chemical_name_systematic        
N'-[(3,5-di-t-butyl-2-hydroxyphenyl)methylidene]-2-hydroxy-3-methoxy-5-(prop-2-en-1-yl)benzohydrazide
_symmetry_cell_setting           orthorhombic
_symmetry_space_group_name_H-M   'P b c a'
_symmetry_Int_Tables_number      61
_space_group_name_Hall           '-P 2ac 2ab'
loop_
_symmetry_equiv_pos_site_id
_symmetry_equiv_pos_as_xyz
1 x,y,z
2 1/2-x,-y,1/2+z
3 -x,1/2+y,1/2-z
4 1/2+x,1/2-y,-z
5 -x,-y,-z
6 1/2+x,y,1/2-z
7 x,1/2-y,1/2+z
8 1/2-x,1/2+y,z
_cell_length_a                   23.436(2)
_cell_length_b                   8.3954(7)
_cell_length_c                   25.163(2)
_cell_angle_alpha                90
_cell_angle_beta                 90
_cell_angle_gamma                90
_cell_volume                     4950.94
_exptl_crystal_colour            colorless
_exptl_crystal_description       block
_cell_formula_units_Z            8
loop_
_atom_site_label
_atom_site_type_symbol
_atom_site_fract_x
_atom_site_fract_y
_atom_site_fract_z
C1 C 0.66862(9) -0.0220(2) 0.49656(9)
C2 C 0.64232(9) -0.0995(2) 0.45344(9)
C3 C 0.59537(9) -0.0233(3) 0.43120(9)
H1 H 0.5778 -0.0721 0.4024
C4 C 0.57259(9) 0.1214(3) 0.44891(9)
C5 C 0.60002(9) 0.1935(2) 0.49097(9)
H2 H 0.5865 0.2906 0.5035
C6 C 0.64777(9) 0.1244(2) 0.51538(9)
C7 C 0.67575(9) 0.2099(2) 0.55832(9)
H3 H 0.6628 0.3106 0.5678
C8 C 0.79416(9) 0.1807(2) 0.64217(9)
C9 C 0.82512(9) 0.2784(2) 0.68139(8)
C10 C 0.80122(9) 0.4160(2) 0.70499(9)
H4 H 0.7645 0.4470 0.6955
C11 C 0.83077(9) 0.5047(2) 0.74146(8)
C12 C 0.88683(9) 0.4586(2) 0.75502(9)
H5 H 0.9079 0.5206 0.7785
C13 C 0.91068(9) 0.3224(2) 0.73369(8)
C14 C 0.87975(9) 0.2303(2) 0.69688(8)
C15 C 0.66459(10) -0.2600(2) 0.43262(9)
C16 C 0.62954(12) -0.3199(3) 0.38530(10)
H6 H 0.5904 -0.3321 0.3958
H7 H 0.6443 -0.4208 0.3737
H8 H 0.6320 -0.2445 0.3567
C17 C 0.72675(11) -0.2444(3) 0.41394(11)
H9 H 0.7290 -0.1668 0.3860
H10 H 0.7399 -0.3455 0.4010
H11 H 0.7502 -0.2112 0.4432
C18 C 0.66032(10) -0.3865(2) 0.47663(10)
H12 H 0.6829 -0.3541 0.5066
H13 H 0.6741 -0.4866 0.4634
H14 H 0.6212 -0.3978 0.4874
C19 C 0.52098(10) 0.1956(3) 0.42064(9)
C20 C 0.80358(9) 0.6477(2) 0.76827(9)
H15 H 0.7642 0.6559 0.7568
H16 H 0.8035 0.6306 0.8064
C21 C 0.83349(10) 0.8022(2) 0.75648(9)
H17 H 0.8438 0.8222 0.7214
C22 C 0.84613(12) 0.9113(3) 0.79223(12)
C23 C 0.99939(9) 0.3603(3) 0.77892(10)
H18 H 1.0042 0.4627 0.7625
H19 H 1.0359 0.3098 0.7826
H20 H 0.9824 0.3734 0.8133
C24 C 0.47171(16) 0.0848(4) 0.41725(19)
H21 H 0.4827 -0.0094 0.3973
H22 H 0.4587 0.0556 0.4513
H23 H 0.4407 0.1336 0.3973
C25 C 0.49922(15) 0.3512(5) 0.45131(15)
H24 H 0.4666 0.3963 0.4321
H25 H 0.5286 0.4243 0.4541
H26 H 0.4856 0.3193 0.4861
C26 C 0.5397(2) 0.2550(5) 0.36606(18)
H27 H 0.5533 0.1673 0.3449
H28 H 0.5693 0.3323 0.3699
H29 H 0.5083 0.3043 0.3479
H30 H 0.8654(10) 1.005(3) 0.7819(10)
H31 H 0.8364(10) 0.890(3) 0.8317(11)
N1 N 0.71822(7) 0.14797(19) 0.58336(7)
N2 N 0.74547(7) 0.23841(19) 0.62149(7)
H32 H 0.7318 0.3285 0.6317
O1 O 0.71451(6) -0.09265(17) 0.51964(6)
H33 H 0.7263 -0.0363 0.5439
O2 O 0.81169(6) 0.04467(15) 0.62901(6)
O3 O 0.90582(6) 0.09797(16) 0.67791(6)
H34 H 0.8838 0.0495 0.6585
O4 O 0.96315(6) 0.26330(17) 0.74645(6)
C27? C 0.4911(5) 0.0532(10) 0.3828(5)
H35? H 0.4592 0.0940 0.3621
H36? H 0.5192 0.0120 0.3551
H37? H 0.4802 -0.0270 0.4041
C28? C 0.4771(4) 0.2349(14) 0.4591(4)
H38? H 0.4658 0.1365 0.4803
H39? H 0.4908 0.3095 0.4803
H40? H 0.4418 0.2625 0.4403
C29? C 0.5401(7) 0.3153(14) 0.3823(5)
H41? H 0.5070 0.3597 0.3620
H42? H 0.5660 0.2687 0.3610
H43? H 0.5560 0.4077 0.4020
loop_
_geom_bond_atom_site_label_1
_geom_bond_atom_site_label_2
_geom_bond_site_symmetry_1
_geom_bond_site_symmetry_2
C1 C2 1_555 1_555
C2 C3 1_555 1_555
C3 H1 1_555 1_555
C4 C3 1_555 1_555
C5 C4 1_555 1_555
H2 C5 1_555 1_555
C6 C1 1_555 1_555
C7 C6 1_555 1_555
H3 C7 1_555 1_555
C8 C9 1_555 1_555
C9 C10 1_555 1_555
C10 H4 1_555 1_555
C11 C10 1_555 1_555
C12 C11 1_555 1_555
H5 C12 1_555 1_555
C13 C12 1_555 1_555
C14 C9 1_555 1_555
C15 C2 1_555 1_555
C16 C15 1_555 1_555
H6 C16 1_555 1_555
H7 C16 1_555 1_555
H8 C16 1_555 1_555
C17 C15 1_555 1_555
H9 C17 1_555 1_555
H10 C17 1_555 1_555
H11 C17 1_555 1_555
C18 C15 1_555 1_555
H12 C18 1_555 1_555
H13 C18 1_555 1_555
H14 C18 1_555 1_555
C19 C4 1_555 1_555
C20 C11 1_555 1_555
H15 C20 1_555 1_555
H16 C20 1_555 1_555
C21 C20 1_555 1_555
H17 C21 1_555 1_555
C22 C21 1_555 1_555
C23 H18 1_555 1_555
H19 C23 1_555 1_555
H20 C23 1_555 1_555
C24 C19 1_555 1_555
H21 C24 1_555 1_555
H22 C24 1_555 1_555
H23 C24 1_555 1_555
C25 C19 1_555 1_555
H24 C25 1_555 1_555
H25 C25 1_555 1_555
H26 C25 1_555 1_555
C26 C19 1_555 1_555
H27 C26 1_555 1_555
H28 C26 1_555 1_555
H29 C26 1_555 1_555
H30 C22 1_555 1_555
H31 C22 1_555 1_555
N1 C7 1_555 1_555
N2 C8 1_555 1_555
H32 N2 1_555 1_555
O1 C1 1_555 1_555
H33 O1 1_555 1_555
O2 C8 1_555 1_555
O3 C14 1_555 1_555
H34 O3 1_555 1_555
O4 C13 1_555 1_555
C5 C6 1_555 1_555
C13 C14 1_555 1_555
C23 O4 1_555 1_555
N1 N2 1_555 1_555

#END
