
#######################################################################
#
#                 Cambridge Crystallographic Data Centre
#                                CCDC 
#
#######################################################################
#
# If this CIF has been generated from an entry in the Cambridge 
# Structural Database, then it will include bibliographic, chemical, 
# crystal, experimental, refinement or atomic coordinate data resulting 
# from the CCDC's data processing and validation procedures.
#
#######################################################################

data_ODIZUY
_chemical_formula_moiety         'C8 H9 F2 N1 O3 S1,H2 O1'
_chemical_name_systematic        
'2-Ammonio-1,1-difluoro-2-phenylethanesulfonate monohydrate'
_symmetry_cell_setting           monoclinic
_symmetry_space_group_name_H-M   'P 21'
_symmetry_Int_Tables_number      4
_space_group_name_Hall           'P 2yb'
loop_
_symmetry_equiv_pos_site_id
_symmetry_equiv_pos_as_xyz
1 x,y,z
2 -x,1/2+y,-z
_cell_length_a                   12.5875(17)
_cell_length_b                   6.3565(9)
_cell_length_c                   14.1927(19)
_cell_angle_alpha                90
_cell_angle_beta                 104.748(2)
_cell_angle_gamma                90
_cell_volume                     1098.18
_exptl_crystal_colour            colorless
_exptl_crystal_description       prism
_cell_formula_units_Z            4
loop_
_atom_site_label
_atom_site_type_symbol
_atom_site_fract_x
_atom_site_fract_y
_atom_site_fract_z
C1 C 0.59898(10) 0.1300(2) 0.33090(10)
H1 H 0.6182 0.0035 0.3036
C2 C 0.66715(11) 0.2103(3) 0.41639(10)
H2 H 0.7329 0.1383 0.4474
C3 C 0.63930(12) 0.3961(3) 0.45664(10)
H3 H 0.6858 0.4501 0.5152
C4 C 0.54425(15) 0.5013(3) 0.41138(11)
H4 H 0.5258 0.6284 0.4387
C5 C 0.47483(12) 0.4224(2) 0.32558(10)
H5 H 0.4093 0.4952 0.2947
C6 C 0.50248(10) 0.23578(19) 0.28558(8)
C7 C 0.42716(9) 0.13709(18) 0.19559(8)
H6 H 0.4666 0.015 0.1757
C8 C 0.32062(10) 0.05464(18) 0.21612(8)
F1 F 0.25145(6) 0.21876(13) 0.21897(6)
F2 F 0.34315(7) -0.03998(14) 0.30429(5)
N1 N 0.39691(8) 0.28612(16) 0.11132(7)
H7 H 0.362 0.3999 0.1283
H8 H 0.3515 0.2202 0.0596
H9 H 0.4588 0.3288 0.0949
O1 O 0.23499(6) -0.02904(13) 0.03378(6)
O2 O 0.14179(8) -0.16136(17) 0.15175(7)
O3 O 0.31667(9) -0.31525(15) 0.14274(8)
S1 S 0.24585(2) -0.13405(4) 0.12631(2)
C9 C -0.08656(10) -0.0119(2) 0.68546(8)
H10 H -0.1206 0.0685 0.726
C10 C -0.15057(10) -0.1233(2) 0.60629(8)
H11 H -0.2283 -0.1219 0.5943
C11 C -0.10159(11) -0.2359(2) 0.54508(8)
H12 H -0.1456 -0.3104 0.4911
C12 C 0.01236(11) -0.23947(19) 0.56302(9)
H13 H 0.0461 -0.3144 0.5205
C13 C 0.07682(9) -0.13372(19) 0.64301(8)
H14 H 0.1546 -0.1393 0.6559
C14 C 0.02773(9) -0.01936(16) 0.70454(8)
C15 C 0.10181(9) 0.08827(17) 0.79268(8)
H15 H 0.1723 0.0079 0.8117
C16 C 0.12894(9) 0.31666(17) 0.77133(8)
F3 F 0.16490(6) 0.31969(12) 0.68898(5)
F4 F 0.03664(5) 0.43622(11) 0.75460(5)
N2 N 0.05092(8) 0.08572(15) 0.87737(6)
H16 H -0.0099 0.169 0.8639
H17 H 0.1002 0.135 0.9314
H18 H 0.0316 -0.0483 0.8882
O4 O 0.24218(7) 0.65890(13) 0.83599(6)
O5 O 0.33288(8) 0.32001(15) 0.87357(8)
O6 O 0.19160(8) 0.42415(15) 0.95345(6)
S2 S 0.23509(2) 0.44457(4) 0.867716(19)
H19 H 0.631(2) 0.349(5) 0.0821(18)
H20 H 0.601(2) 0.528(6) 0.092(2)
O7 O 0.57624(8) 0.43197(18) 0.06259(8)
H21 H 0.0605(18) 0.631(4) 0.9472(14)
H22 H -0.0399(17) 0.623(4) 0.8965(15)
O8 O 0.00407(9) 0.68884(15) 0.93530(7)
loop_
_geom_bond_atom_site_label_1
_geom_bond_atom_site_label_2
_geom_bond_site_symmetry_1
_geom_bond_site_symmetry_2
C1 H1 1_555 1_555
C2 C1 1_555 1_555
H2 C2 1_555 1_555
C3 C2 1_555 1_555
H3 C3 1_555 1_555
C4 C3 1_555 1_555
H4 C4 1_555 1_555
C5 C4 1_555 1_555
H5 C5 1_555 1_555
C6 C1 1_555 1_555
C7 C6 1_555 1_555
H6 C7 1_555 1_555
C8 C7 1_555 1_555
F1 C8 1_555 1_555
F2 C8 1_555 1_555
N1 C7 1_555 1_555
H7 N1 1_555 1_555
H8 N1 1_555 1_555
H9 N1 1_555 1_555
O1 S1 1_555 1_555
O2 S1 1_555 1_555
O3 S1 1_555 1_555
S1 C8 1_555 1_555
C9 H10 1_555 1_555
C10 C9 1_555 1_555
H11 C10 1_555 1_555
C11 C10 1_555 1_555
H12 C11 1_555 1_555
C12 C11 1_555 1_555
H13 C12 1_555 1_555
C13 C12 1_555 1_555
H14 C13 1_555 1_555
C14 C9 1_555 1_555
C15 C14 1_555 1_555
H15 C15 1_555 1_555
C16 C15 1_555 1_555
F3 C16 1_555 1_555
F4 C16 1_555 1_555
N2 C15 1_555 1_555
H16 N2 1_555 1_555
H17 N2 1_555 1_555
H18 N2 1_555 1_555
O4 S2 1_555 1_555
O5 S2 1_555 1_555
O6 S2 1_555 1_555
S2 C16 1_555 1_555
H19 O7 1_555 1_555
H20 O7 1_555 1_555
H21 O8 1_555 1_555
H22 O8 1_555 1_555
C5 C6 1_555 1_555
C13 C14 1_555 1_555

#END
