
#######################################################################
#
#                 Cambridge Crystallographic Data Centre
#                                CCDC 
#
#######################################################################
#
# If this CIF has been generated from an entry in the Cambridge 
# Structural Database, then it will include bibliographic, chemical, 
# crystal, experimental, refinement or atomic coordinate data resulting 
# from the CCDC's data processing and validation procedures.
#
#######################################################################

data_ODOJAU
_chemical_formula_moiety         'C24 H20 F2 O2'
_chemical_name_systematic        
1,4-Bis(2-(4-fluorophenyl)vinyl)-2,5-dimethoxybenzene
_symmetry_cell_setting           monoclinic
_symmetry_space_group_name_H-M   'C 2/c'
_symmetry_Int_Tables_number      15
_space_group_name_Hall           '-C 2yn'
loop_
_symmetry_equiv_pos_site_id
_symmetry_equiv_pos_as_xyz
1 x,y,z
2 -x,y,1/2-z
3 1/2+x,1/2+y,z
4 1/2-x,1/2+y,1/2-z
5 -x,-y,-z
6 x,-y,1/2+z
7 1/2-x,1/2-y,-z
8 1/2+x,1/2-y,1/2+z
_cell_length_a                   21.86(6)
_cell_length_b                   4.534(13)
_cell_length_c                   19.76(5)
_cell_angle_alpha                90
_cell_angle_beta                 106.24(3)
_cell_angle_gamma                90
_cell_volume                     1880.33
_cell_formula_units_Z            4
loop_
_atom_site_label
_atom_site_type_symbol
_atom_site_fract_x
_atom_site_fract_y
_atom_site_fract_z
C1 C 0.2684(3) 1.0056(17) 0.0810(4)
H1 H 0.2492 1.0769 0.0360
C2 C 0.3302(3) 1.0820(16) 0.1129(5)
H2 H 0.3526 1.2015 0.0899
C3 C 0.3571(2) 0.9846(16) 0.1761(4)
C4 C 0.3268(3) 0.8069(19) 0.2092(3)
H3 H 0.3470 0.7350 0.2540
C5 C 0.2649(3) 0.7319(18) 0.1757(4)
H4 H 0.2432 0.6061 0.1980
C6 C 0.2349(2) 0.8370(13) 0.1109(3)
C7 C 0.1693(3) 0.7619(17) 0.0748(5)
H5 H 0.1575 0.8901 0.0366
C8 C 0.1287(3) 0.6307(18) 0.0714(4)
H6 H 0.1401 0.5017 0.1095
C9 C 0.0629(2) 0.5603(14) 0.0341(3)
C10 C 0.0329(3) 0.6896(13) -0.0298(4)
C11 C 0.0295(3) 0.3724(13) 0.0629(3)
C12 C 0.0104(3) 0.0348(13) 0.1537(3)
H7 H -0.0211 -0.0501 0.1147
H8 H -0.0102 0.1486 0.1819
H9 H 0.0350 -0.1197 0.1819
O1 O 0.05343(19) 0.2302(12) 0.1267(2)
F1 F 0.41827(13) 1.0559(8) 0.2096(2)
C1D C -0.2684(3) -0.0056(17) -0.0810(4)
H1D H -0.2492 -0.0769 -0.0360
C2D C -0.3302(3) -0.0820(16) -0.1129(5)
H2D H -0.3526 -0.2015 -0.0899
C3D C -0.3571(2) 0.0154(16) -0.1761(4)
C4D C -0.3268(3) 0.1931(19) -0.2092(3)
H3D H -0.3470 0.2650 -0.2540
C5D C -0.2649(3) 0.2681(18) -0.1757(4)
H4D H -0.2432 0.3939 -0.1980
C6D C -0.2349(2) 0.1630(13) -0.1109(3)
C7D C -0.1693(3) 0.2381(17) -0.0748(5)
H5D H -0.1575 0.1099 -0.0366
C8D C -0.1287(3) 0.3693(18) -0.0714(4)
H6D H -0.1401 0.4983 -0.1095
C9D C -0.0629(2) 0.4397(14) -0.0341(3)
C10D C -0.0329(3) 0.3104(13) 0.0298(4)
C11D C -0.0295(3) 0.6276(13) -0.0629(3)
C12D C -0.0104(3) 0.9652(13) -0.1537(3)
H7D H 0.0211 1.0501 -0.1147
H8D H 0.0102 0.8514 -0.1819
H9D H -0.0350 1.1197 -0.1819
O1D O -0.05343(19) 0.7698(12) -0.1267(2)
F1D F -0.41827(13) -0.0559(8) -0.2096(2)
H10? H 0.0458 -0.0640 0.1437
H11? H -0.0083 -0.0921 0.1813
H12? H 0.0251 0.2126 0.1795
O2? O 0.0442(4) 0.882(2) -0.0777(6)
loop_
_geom_bond_atom_site_label_1
_geom_bond_atom_site_label_2
_geom_bond_site_symmetry_1
_geom_bond_site_symmetry_2
C1 H1 1_555 1_555
C2 C1 1_555 1_555
H2 C2 1_555 1_555
C3 C2 1_555 1_555
C4 C3 1_555 1_555
H3 C4 1_555 1_555
C5 C4 1_555 1_555
H4 C5 1_555 1_555
C6 C1 1_555 1_555
C7 C6 1_555 1_555
H5 C7 1_555 1_555
C8 C7 1_555 1_555
H6 C8 1_555 1_555
C9 C8 1_555 1_555
C10 C9 1_555 1_555
C11 C9 1_555 1_555
C12 H7 1_555 1_555
H8 C12 1_555 1_555
H9 C12 1_555 1_555
O1 C11 1_555 1_555
F1 C3 1_555 1_555
C1D H1D 1_555 1_555
C2D C1D 1_555 1_555
H2D C2D 1_555 1_555
C3D C2D 1_555 1_555
C4D C3D 1_555 1_555
H3D C4D 1_555 1_555
C5D C4D 1_555 1_555
H4D C5D 1_555 1_555
C6D C1D 1_555 1_555
C7D C6D 1_555 1_555
H5D C7D 1_555 1_555
C8D C7D 1_555 1_555
H6D C8D 1_555 1_555
C9D C8D 1_555 1_555
C10D C11 1_555 1_555
C11D C10 1_555 1_555
C12D H7D 1_555 1_555
H8D C12D 1_555 1_555
H9D C12D 1_555 1_555
O1D C11D 1_555 1_555
F1D C3D 1_555 1_555
C5 C6 1_555 1_555
C12 O1 1_555 1_555
C5D C6D 1_555 1_555
C9D C10D 1_555 1_555
C9D C11D 1_555 1_555
C12D O1D 1_555 1_555

#END
