
#######################################################################
#
#                 Cambridge Crystallographic Data Centre
#                                CCDC 
#
#######################################################################
#
# If this CIF has been generated from an entry in the Cambridge 
# Structural Database, then it will include bibliographic, chemical, 
# crystal, experimental, refinement or atomic coordinate data resulting 
# from the CCDC's data processing and validation procedures.
#
#######################################################################

data_ODOJUP
_chemical_formula_moiety         'C13 H6 F6 I1 O3 S1 1+,C1 F3 O3 S1 1-'
_chemical_name_systematic        
'phenyl(3,4,5-trifluoro-2-{[(trifluoromethyl)sulfonyl]oxy}phenyl)iodanium trifluoromethanesulfonate'
_symmetry_cell_setting           monoclinic
_symmetry_space_group_name_H-M   'P 21/c'
_symmetry_Int_Tables_number      14
_space_group_name_Hall           '-P 2ybc'
loop_
_symmetry_equiv_pos_site_id
_symmetry_equiv_pos_as_xyz
1 x,y,z
2 -x,1/2+y,1/2-z
3 -x,-y,-z
4 x,1/2-y,1/2+z
_cell_length_a                   9.2444(4)
_cell_length_b                   22.5891(10)
_cell_length_c                   10.0293(4)
_cell_angle_alpha                90
_cell_angle_beta                 110.3420(10)
_cell_angle_gamma                90
_cell_volume                     1963.73
_exptl_crystal_colour            colorless
_exptl_crystal_description       prismatic
_cell_formula_units_Z            4
loop_
_atom_site_label
_atom_site_type_symbol
_atom_site_fract_x
_atom_site_fract_y
_atom_site_fract_z
I1 I 0.36531(2) 0.31045(2) 0.51603(2)
S1 S 0.25351(7) 0.47945(3) 0.40837(7)
F1 F 0.7771(2) 0.39826(9) 0.99406(17)
F2 F 0.6394(2) 0.50484(9) 0.96685(18)
F3 F 0.3770(2) 0.52664(7) 0.74853(19)
F4 F -0.0438(2) 0.47528(16) 0.3351(3)
F5 F 0.0424(3) 0.48098(10) 0.1642(2)
F6 F 0.0571(3) 0.39845(10) 0.2751(2)
O1 O 0.24537(19) 0.44411(8) 0.54355(19)
O2 O 0.2528(3) 0.54076(10) 0.4287(3)
O3 O 0.3650(2) 0.45272(10) 0.3607(2)
C1 C 0.4586(3) 0.37782(11) 0.6650(2)
C2 C 0.5910(3) 0.36531(12) 0.7803(3)
H1 H 0.6399 0.3278 0.7894
C3 C 0.6491(3) 0.40868(14) 0.8809(3)
C4 C 0.5799(3) 0.46282(13) 0.8701(3)
C5 C 0.4456(3) 0.47448(11) 0.7572(3)
C6 C 0.3854(3) 0.43182(11) 0.6532(3)
C7 C 0.5266(3) 0.31573(10) 0.4105(3)
C8 C 0.4700(3) 0.33224(12) 0.2693(3)
H2 H 0.3648 0.3430 0.2247
C9 C 0.5709(3) 0.33275(13) 0.1944(3)
H3 H 0.5347 0.3438 0.0969
C10 C 0.7240(3) 0.31730(13) 0.2610(3)
H4 H 0.7927 0.3183 0.2093
C11 C 0.7776(3) 0.30048(14) 0.4023(3)
H5 H 0.8828 0.2898 0.4471
C12 C 0.6783(3) 0.29915(13) 0.4795(3)
H6 H 0.7136 0.2872 0.5764
C13 C 0.0618(4) 0.45629(16) 0.2886(3)
S2 S 0.14307(7) 0.19971(3) 0.26444(7)
F7 F 0.0997(3) 0.16214(15) 0.4919(2)
F8 F 0.1803(3) 0.09610(11) 0.3807(3)
F9 F -0.0543(2) 0.12475(11) 0.2978(2)
O4 O 0.3011(2) 0.21279(10) 0.3518(2)
O5 O 0.0359(3) 0.24604(10) 0.2557(3)
O6 O 0.1301(2) 0.17096(10) 0.1330(2)
C14 C 0.0900(4) 0.14234(16) 0.3642(3)
loop_
_geom_bond_atom_site_label_1
_geom_bond_atom_site_label_2
_geom_bond_site_symmetry_1
_geom_bond_site_symmetry_2
I1 C1 1_555 1_555
S1 O1 1_555 1_555
F1 C3 1_555 1_555
F2 C4 1_555 1_555
F3 C5 1_555 1_555
F4 C13 1_555 1_555
F5 C13 1_555 1_555
F6 C13 1_555 1_555
O1 C6 1_555 1_555
O2 S1 1_555 1_555
O3 S1 1_555 1_555
C1 C2 1_555 1_555
C2 H1 1_555 1_555
C3 C2 1_555 1_555
C4 C3 1_555 1_555
C5 C4 1_555 1_555
C6 C1 1_555 1_555
C7 I1 1_555 1_555
C8 C7 1_555 1_555
H2 C8 1_555 1_555
C9 C8 1_555 1_555
H3 C9 1_555 1_555
C10 C9 1_555 1_555
H4 C10 1_555 1_555
C11 C10 1_555 1_555
H5 C11 1_555 1_555
C12 C7 1_555 1_555
H6 C12 1_555 1_555
C13 S1 1_555 1_555
S2 O4 1_555 1_555
F7 C14 1_555 1_555
F8 C14 1_555 1_555
F9 C14 1_555 1_555
O5 S2 1_555 1_555
O6 S2 1_555 1_555
C14 S2 1_555 1_555
C5 C6 1_555 1_555
C11 C12 1_555 1_555

#END
