
#######################################################################
#
#                 Cambridge Crystallographic Data Centre
#                                CCDC 
#
#######################################################################
#
# If this CIF has been generated from an entry in the Cambridge 
# Structural Database, then it will include bibliographic, chemical, 
# crystal, experimental, refinement or atomic coordinate data resulting 
# from the CCDC's data processing and validation procedures.
#
#######################################################################

data_ODOKAW
_chemical_formula_moiety         'C16 H16 N2 O4,6(H2 O1)'
_chemical_name_systematic        
"3,3'-([4,4'-bipyridin-1-ium]-1,1'-diyl)dipropanoate hexahydrate"
_symmetry_cell_setting           monoclinic
_symmetry_space_group_name_H-M   'I 2/a'
_symmetry_Int_Tables_number      15
_space_group_name_Hall           '-I 2ya'
loop_
_symmetry_equiv_pos_site_id
_symmetry_equiv_pos_as_xyz
1 x,y,z
2 1/2-x,y,-z
3 1/2+x,1/2+y,1/2+z
4 -x,1/2+y,1/2-z
5 -x,-y,-z
6 1/2+x,-y,z
7 1/2-x,1/2-y,1/2-z
8 x,1/2-y,1/2+z
_cell_length_a                   15.239(16)
_cell_length_b                   7.250(7)
_cell_length_c                   18.806(19)
_cell_angle_alpha                90
_cell_angle_beta                 96.75(11)
_cell_angle_gamma                90
_cell_volume                     2063.34
_exptl_crystal_colour            colorless
_exptl_crystal_description       sheet
_cell_formula_units_Z            4
loop_
_atom_site_label
_atom_site_type_symbol
_atom_site_fract_x
_atom_site_fract_y
_atom_site_fract_z
O1 O 0.53630(12) 0.2576(3) 0.18761(10)
O2 O 0.42701(13) 0.3506(3) 0.10791(10)
N1 N 0.38221(13) 0.2758(3) 0.35860(10)
C1 C 0.34818(16) 0.4339(3) 0.38036(13)
H1 H 0.3606 0.5442 0.3584
C2 C 0.29488(17) 0.4353(3) 0.43502(13)
H2 H 0.2710 0.5458 0.4489
C3 C 0.27689(15) 0.2722(3) 0.46914(12)
C4 C 0.31198(16) 0.1101(3) 0.44430(12)
H3 H 0.2998 -0.0021 0.4649
C5 C 0.36433(16) 0.1145(3) 0.38979(12)
H4 H 0.3877 0.0053 0.3742
C6 C 0.44288(17) 0.2799(4) 0.30160(13)
H5 H 0.4773 0.1670 0.3039
H6 H 0.4836 0.3823 0.3106
C7 C 0.39397(17) 0.2992(4) 0.22762(13)
H7 H 0.3600 0.4127 0.2249
H8 H 0.3530 0.1973 0.2185
C8 C 0.45813(18) 0.3016(3) 0.16964(13)
O1A O -0.03630(12) 0.2576(3) 0.81239(10)
O2A O 0.07299(13) 0.3506(3) 0.89209(10)
N1A N 0.11779(13) 0.2758(3) 0.64140(10)
C1A C 0.15182(16) 0.4339(3) 0.61964(13)
H1A H 0.1394 0.5442 0.6416
C2A C 0.20512(17) 0.4353(3) 0.56498(13)
H2A H 0.2290 0.5458 0.5511
C3A C 0.22311(15) 0.2722(3) 0.53086(12)
C4A C 0.18802(16) 0.1101(3) 0.55570(12)
H3A H 0.2002 -0.0021 0.5351
C5A C 0.13567(16) 0.1145(3) 0.61021(12)
H4A H 0.1123 0.0053 0.6258
C6A C 0.05712(17) 0.2799(4) 0.69840(13)
H5A H 0.0227 0.1670 0.6961
H6A H 0.0164 0.3823 0.6894
C7A C 0.10603(17) 0.2992(4) 0.77238(13)
H7A H 0.1400 0.4127 0.7751
H8A H 0.1470 0.1973 0.7815
C8A C 0.04187(18) 0.3016(3) 0.83036(13)
O3 O 0.68171(16) 0.3279(3) 0.28442(12)
H9 H 0.701(2) 0.220(2) 0.2932(18)
H10 H 0.6376(17) 0.310(4) 0.2520(16)
O4 O 0.51921(18) 0.1828(3) 0.00204(13)
H11 H 0.500(2) 0.245(4) 0.0356(15)
H12 H 0.5661(15) 0.237(5) -0.0075(18)
O5 O 0.14708(15) 0.8075(3) 0.41972(12)
H13 H 0.1986(10) 0.819(5) 0.4395(14)
H14 H 0.1495(19) 0.766(4) 0.3785(8)
loop_
_geom_bond_atom_site_label_1
_geom_bond_atom_site_label_2
_geom_bond_site_symmetry_1
_geom_bond_site_symmetry_2
O1 C8 1_555 1_555
O2 C8 1_555 1_555
N1 C1 1_555 1_555
C1 H1 1_555 1_555
C2 C1 1_555 1_555
H2 C2 1_555 1_555
C3 C2 1_555 1_555
C4 C3 1_555 1_555
H3 C4 1_555 1_555
C5 N1 1_555 1_555
H4 C5 1_555 1_555
C6 N1 1_555 1_555
H5 C6 1_555 1_555
H6 C6 1_555 1_555
C7 C6 1_555 1_555
H7 C7 1_555 1_555
H8 C7 1_555 1_555
C8 C7 1_555 1_555
O3 H9 1_555 1_555
H10 O3 1_555 1_555
O4 H11 1_555 1_555
H12 O4 1_555 1_555
O5 H13 1_555 1_555
H14 O5 1_555 1_555
O1A C8A 1_555 1_555
O2A C8A 1_555 1_555
N1A C1A 1_555 1_555
C1A H1A 1_555 1_555
C2A C1A 1_555 1_555
H2A C2A 1_555 1_555
C3A C3 1_555 1_555
C4A C3A 1_555 1_555
H3A C4A 1_555 1_555
C5A N1A 1_555 1_555
H4A C5A 1_555 1_555
C6A N1A 1_555 1_555
H5A C6A 1_555 1_555
H6A C6A 1_555 1_555
C7A C6A 1_555 1_555
H7A C7A 1_555 1_555
H8A C7A 1_555 1_555
C8A C7A 1_555 1_555
C4 C5 1_555 1_555
C2A C3A 1_555 1_555
C4A C5A 1_555 1_555

#END
