
#######################################################################
#
#                 Cambridge Crystallographic Data Centre
#                                CCDC 
#
#######################################################################
#
# If this CIF has been generated from an entry in the Cambridge 
# Structural Database, then it will include bibliographic, chemical, 
# crystal, experimental, refinement or atomic coordinate data resulting 
# from the CCDC's data processing and validation procedures.
#
#######################################################################

data_ODOMIG
_chemical_formula_moiety         'C16 H14 Cl1 N1 O3'
_chemical_name_systematic        
'methyl 6-(4-chlorophenyl)-8-oxo-5,6,7,8-tetrahydroindolizine-5-carboxylate'
_symmetry_cell_setting           orthorhombic
_symmetry_space_group_name_H-M   'P 21 21 21'
_symmetry_Int_Tables_number      19
_space_group_name_Hall           'P 2ac 2ab'
loop_
_symmetry_equiv_pos_site_id
_symmetry_equiv_pos_as_xyz
1 x,y,z
2 1/2-x,-y,1/2+z
3 1/2+x,1/2-y,-z
4 -x,1/2+y,1/2-z
_cell_length_a                   9.59447(7)
_cell_length_b                   10.99760(8)
_cell_length_c                   13.70970(10)
_cell_angle_alpha                90
_cell_angle_beta                 90
_cell_angle_gamma                90
_cell_volume                     1446.59
_exptl_crystal_colour            colorless
_exptl_crystal_description       prism
_cell_formula_units_Z            4
loop_
_atom_site_label
_atom_site_type_symbol
_atom_site_fract_x
_atom_site_fract_y
_atom_site_fract_z
Cl1 Cl 0.50001(6) 0.72643(5) -0.04452(3)
O1 O 0.63800(14) 0.92991(12) 0.59904(9)
O2 O 0.73892(13) 0.59406(14) 0.46524(11)
O3 O 0.63534(12) 0.53337(11) 0.32649(9)
N1 N 0.47751(14) 0.64407(13) 0.54436(9)
C1 C 0.43144(17) 0.55532(18) 0.60532(14)
H1 H 0.397623 0.477763 0.586051
C2 C 0.44211(18) 0.5970(2) 0.70005(13)
H2 H 0.415568 0.553950 0.757184
C3 C 0.49908(19) 0.71404(18) 0.69668(12)
H3 H 0.518602 0.764880 0.751011
C4 C 0.52187(16) 0.74219(15) 0.59894(12)
C5 C 0.58099(18) 0.84871(15) 0.55241(11)
C6 C 0.57624(19) 0.85308(15) 0.44215(11)
H4 H 0.670819 0.836038 0.416725
H5 H 0.550917 0.936580 0.421819
C7 C 0.47373(15) 0.76375(14) 0.39498(11)
H6 H 0.377613 0.791261 0.412542
C8 C 0.49371(16) 0.63498(14) 0.43912(11)
H7 H 0.420683 0.579269 0.412446
C9 C 0.63817(16) 0.58448(15) 0.41411(12)
C10 C 0.76928(18) 0.49593(17) 0.28780(15)
H8 H 0.756218 0.459467 0.223217
H9 H 0.830529 0.566915 0.282313
H10 H 0.811627 0.436106 0.331712
C11 C 0.48185(16) 0.75990(14) 0.28433(11)
C12 C 0.37473(17) 0.70316(15) 0.23222(12)
H11 H 0.297155 0.670653 0.266486
C13 C 0.37970(18) 0.69354(16) 0.13175(12)
H12 H 0.306113 0.655115 0.097115
C14 C 0.49329(19) 0.74061(15) 0.08225(12)
C15 C 0.60050(18) 0.79795(17) 0.13098(12)
H13 H 0.677735 0.830127 0.096134
C16 C 0.59362(17) 0.80787(16) 0.23204(12)
H14 H 0.666521 0.848114 0.266053
loop_
_geom_bond_atom_site_label_1
_geom_bond_atom_site_label_2
_geom_bond_site_symmetry_1
_geom_bond_site_symmetry_2
Cl1 C14 1_555 1_555
O1 C5 1_555 1_555
O2 C9 1_555 1_555
O3 C9 1_555 1_555
N1 C1 1_555 1_555
C1 H1 1_555 1_555
C2 C1 1_555 1_555
H2 C2 1_555 1_555
C3 C2 1_555 1_555
H3 C3 1_555 1_555
C4 N1 1_555 1_555
C5 C4 1_555 1_555
C6 C5 1_555 1_555
H4 C6 1_555 1_555
H5 C6 1_555 1_555
C7 C6 1_555 1_555
H6 C7 1_555 1_555
C8 N1 1_555 1_555
H7 C8 1_555 1_555
C9 C8 1_555 1_555
C10 O3 1_555 1_555
H8 C10 1_555 1_555
H9 C10 1_555 1_555
H10 C10 1_555 1_555
C11 C7 1_555 1_555
C12 C11 1_555 1_555
H11 C12 1_555 1_555
C13 C12 1_555 1_555
H12 C13 1_555 1_555
C14 C13 1_555 1_555
C15 C14 1_555 1_555
H13 C15 1_555 1_555
C16 C11 1_555 1_555
H14 C16 1_555 1_555
C3 C4 1_555 1_555
C7 C8 1_555 1_555
C15 C16 1_555 1_555

#END
