
#######################################################################
#
#                 Cambridge Crystallographic Data Centre
#                                CCDC 
#
#######################################################################
#
# If this CIF has been generated from an entry in the Cambridge 
# Structural Database, then it will include bibliographic, chemical, 
# crystal, experimental, refinement or atomic coordinate data resulting 
# from the CCDC's data processing and validation procedures.
#
#######################################################################

data_ODOMOM
_chemical_formula_moiety         'C17 H18 F1 N1 O4'
_chemical_name_systematic        
'dimethyl 3-(4-fluorophenyl)-2-(1H-pyrrol-1-yl)pentanedioate'
_symmetry_cell_setting           monoclinic
_symmetry_space_group_name_H-M   'P 21'
_symmetry_Int_Tables_number      4
_space_group_name_Hall           'P 2yb'
loop_
_symmetry_equiv_pos_site_id
_symmetry_equiv_pos_as_xyz
1 x,y,z
2 -x,1/2+y,-z
_cell_length_a                   5.69134(12)
_cell_length_b                   16.9607(4)
_cell_length_c                   16.9959(6)
_cell_angle_alpha                90
_cell_angle_beta                 99.274(2)
_cell_angle_gamma                90
_cell_volume                     1619.15
_exptl_crystal_colour            colorless
_exptl_crystal_description       plate
_cell_formula_units_Z            4
loop_
_atom_site_label
_atom_site_type_symbol
_atom_site_fract_x
_atom_site_fract_y
_atom_site_fract_z
F1 F 0.9951(4) 0.51854(13) 0.28156(15)
O1 O 0.8789(4) 0.30414(17) -0.02831(16)
O2 O 0.5115(4) 0.17702(16) 0.21328(16)
O3 O 0.7710(4) 0.11353(16) 0.30399(15)
O4 O 1.2773(4) 0.29977(17) 0.00167(15)
N1 N 1.0313(5) 0.13706(18) 0.02777(18)
C1 C 1.0580(6) 0.2777(2) 0.0099(2)
C2 C 1.0674(6) 0.2113(2) 0.0708(2)
H1 H 1.230296 0.210686 0.103289
C3 C 0.8846(6) 0.2230(2) 0.1280(2)
H2 H 0.721375 0.221025 0.095734
C4 C 0.9078(6) 0.1547(2) 0.1875(2)
H3 H 0.912991 0.104460 0.158041
H4 H 1.060277 0.159975 0.224426
C5 C 0.7091(6) 0.1510(2) 0.2349(2)
C6 C 0.5794(8) 0.1011(3) 0.3496(3)
H5 H 0.641091 0.073289 0.399159
H6 H 0.513981 0.152165 0.362203
H7 H 0.453861 0.069478 0.318183
C7 C 1.2970(7) 0.3593(3) -0.0585(3)
H8 H 1.465429 0.370813 -0.059154
H9 H 1.223230 0.339692 -0.110884
H10 H 1.215749 0.407506 -0.045863
C8 C 1.1940(7) 0.0762(2) 0.0343(2)
H11 H 1.348628 0.076564 0.065328
C9 C 1.0933(9) 0.0156(3) -0.0115(3)
H12 H 1.165610 -0.033882 -0.018426
C10 C 0.8654(9) 0.0388(3) -0.0465(3)
H13 H 0.754656 0.007970 -0.081544
C11 C 0.8298(7) 0.1139(3) -0.0214(3)
H14 H 0.689620 0.144502 -0.035744
C12 C 0.9167(6) 0.3028(2) 0.1684(2)
C13 C 1.1276(6) 0.3227(2) 0.2186(2)
H15 H 1.254458 0.285655 0.226921
C14 C 1.1555(6) 0.3948(2) 0.2565(2)
H16 H 1.299522 0.407750 0.290559
C15 C 0.9699(7) 0.4473(2) 0.2436(2)
C16 C 0.7594(6) 0.4318(2) 0.1945(2)
H17 H 0.634930 0.469695 0.186371
C17 C 0.7342(6) 0.3586(2) 0.1569(2)
H18 H 0.589748 0.346371 0.122730
F2 F 0.5541(5) 0.98488(14) 0.18118(15)
O5 O 0.5017(5) 0.61090(19) 0.24439(17)
O6 O 0.1566(5) 0.7707(2) 0.47266(17)
O7 O 0.4127(4) 0.79697(16) 0.58303(15)
O8 O 0.8363(5) 0.68069(16) 0.24468(16)
N2 N 0.6946(5) 0.59200(18) 0.41439(19)
C18 C 0.6684(7) 0.6477(2) 0.2797(2)
C19 C 0.7096(6) 0.6639(2) 0.3681(2)
H19 H 0.872996 0.686440 0.383163
C20 C 0.5261(6) 0.7259(2) 0.3876(2)
H20 H 0.364204 0.701740 0.375005
C21 C 0.5728(6) 0.7442(2) 0.4767(2)
H21 H 0.631809 0.695865 0.506061
H22 H 0.699864 0.784524 0.487080
C22 C 0.3592(6) 0.7733(2) 0.5083(2)
C23 C 0.2133(8) 0.8210(3) 0.6208(2)
H23 H 0.271514 0.837394 0.675761
H24 H 0.130434 0.865124 0.591164
H25 H 0.103059 0.776600 0.620996
C24 C 0.8113(13) 0.6700(3) 0.1596(3)
H26 H 0.943082 0.696410 0.139577
H27 H 0.813933 0.613607 0.147317
H28 H 0.659890 0.692823 0.133987
C25 C 0.4935(8) 0.5467(3) 0.4146(3)
H29 H 0.345701 0.552834 0.380119
C26 C 0.5449(9) 0.4915(3) 0.4731(3)
H30 H 0.440044 0.451924 0.486525
C27 C 0.7793(10) 0.5036(3) 0.5096(3)
H31 H 0.862125 0.473623 0.552557
C28 C 0.8698(8) 0.5656(3) 0.4734(3)
H32 H 1.025819 0.586742 0.486585
C29 C 0.5294(6) 0.7984(2) 0.3349(2)
C30 C 0.3394(7) 0.8147(2) 0.2743(2)
H33 H 0.202449 0.781850 0.268408
C31 C 0.3455(7) 0.8768(3) 0.2230(3)
H34 H 0.215177 0.887049 0.181787
C32 C 0.5443(7) 0.9239(2) 0.2325(2)
C33 C 0.7358(7) 0.9108(2) 0.2906(3)
H35 H 0.871800 0.943996 0.295483
C34 C 0.7276(7) 0.8481(2) 0.3424(2)
H36 H 0.858530 0.838777 0.383625
loop_
_geom_bond_atom_site_label_1
_geom_bond_atom_site_label_2
_geom_bond_site_symmetry_1
_geom_bond_site_symmetry_2
F1 C15 1_555 1_555
O1 C1 1_555 1_555
O2 C5 1_555 1_555
O3 C5 1_555 1_555
O4 C1 1_555 1_555
N1 C2 1_555 1_555
C1 C2 1_555 1_555
C2 H1 1_555 1_555
C3 C2 1_555 1_555
H2 C3 1_555 1_555
C4 C3 1_555 1_555
H3 C4 1_555 1_555
H4 C4 1_555 1_555
C5 C4 1_555 1_555
C6 O3 1_555 1_555
H5 C6 1_555 1_555
H6 C6 1_555 1_555
H7 C6 1_555 1_555
C7 O4 1_555 1_555
H8 C7 1_555 1_555
H9 C7 1_555 1_555
H10 C7 1_555 1_555
C8 N1 1_555 1_555
H11 C8 1_555 1_555
C9 C8 1_555 1_555
H12 C9 1_555 1_555
C10 C9 1_555 1_555
H13 C10 1_555 1_555
C11 N1 1_555 1_555
H14 C11 1_555 1_555
C12 C3 1_555 1_555
C13 C12 1_555 1_555
H15 C13 1_555 1_555
C14 C13 1_555 1_555
H16 C14 1_555 1_555
C15 C14 1_555 1_555
C16 C15 1_555 1_555
H17 C16 1_555 1_555
C17 C12 1_555 1_555
H18 C17 1_555 1_555
F2 C32 1_555 1_555
O5 C18 1_555 1_555
O6 C22 1_555 1_555
O7 C22 1_555 1_555
O8 C18 1_555 1_555
N2 C19 1_555 1_555
C18 C19 1_555 1_555
C19 H19 1_555 1_555
C20 C19 1_555 1_555
H20 C20 1_555 1_555
C21 C20 1_555 1_555
H21 C21 1_555 1_555
H22 C21 1_555 1_555
C22 C21 1_555 1_555
C23 O7 1_555 1_555
H23 C23 1_555 1_555
H24 C23 1_555 1_555
H25 C23 1_555 1_555
C24 O8 1_555 1_555
H26 C24 1_555 1_555
H27 C24 1_555 1_555
H28 C24 1_555 1_555
C25 N2 1_555 1_555
H29 C25 1_555 1_555
C26 C25 1_555 1_555
H30 C26 1_555 1_555
C27 C26 1_555 1_555
H31 C27 1_555 1_555
C28 N2 1_555 1_555
H32 C28 1_555 1_555
C29 C20 1_555 1_555
C30 C29 1_555 1_555
H33 C30 1_555 1_555
C31 C30 1_555 1_555
H34 C31 1_555 1_555
C32 C31 1_555 1_555
C33 C32 1_555 1_555
H35 C33 1_555 1_555
C34 C29 1_555 1_555
H36 C34 1_555 1_555
C10 C11 1_555 1_555
C16 C17 1_555 1_555
C27 C28 1_555 1_555
C33 C34 1_555 1_555

#END
