
#######################################################################
#
#                 Cambridge Crystallographic Data Centre
#                                CCDC 
#
#######################################################################
#
# If this CIF has been generated from an entry in the Cambridge 
# Structural Database, then it will include bibliographic, chemical, 
# crystal, experimental, refinement or atomic coordinate data resulting 
# from the CCDC's data processing and validation procedures.
#
#######################################################################

data_ODORUX
_chemical_formula_moiety         'C14 H21 Cl2 N2 O2 P1'
_chemical_name_systematic        
2-[bis(2-chloroethyl)amino]-3,4-dimethyl-5-phenyl-1,3,2-oxazaphospholidin-2-one
_symmetry_cell_setting           orthorhombic
_symmetry_space_group_name_H-M   'P 21 21 21'
_symmetry_Int_Tables_number      19
_space_group_name_Hall           'P 2ac 2ab'
loop_
_symmetry_equiv_pos_site_id
_symmetry_equiv_pos_as_xyz
1 x,y,z
2 1/2-x,-y,1/2+z
3 -x,1/2+y,1/2-z
4 1/2+x,1/2-y,-z
_cell_length_a                   10.6894(6)
_cell_length_b                   11.1623(6)
_cell_length_c                   14.0025(7)
_cell_angle_alpha                90
_cell_angle_beta                 90
_cell_angle_gamma                90
_cell_volume                     1670.75
_exptl_crystal_colour            colorless
_exptl_crystal_description       block
_cell_formula_units_Z            4
loop_
_atom_site_label
_atom_site_type_symbol
_atom_site_fract_x
_atom_site_fract_y
_atom_site_fract_z
Cl1 Cl 0.66219(3) 0.73317(2) 0.57271(2)
Cl2 Cl 0.65512(2) 0.50227(2) 0.93609(2)
P1 P 0.50144(2) 0.36754(2) 0.61478(2)
O1 O 0.53487(6) 0.37759(6) 0.50302(4)
O2 O 0.57173(7) 0.27440(6) 0.66701(5)
N1 N 0.35118(7) 0.34892(7) 0.59734(5)
N2 N 0.52864(7) 0.49876(6) 0.66359(5)
C1 C 0.25115(10) 0.44596(10) 0.45684(7)
H1 H 0.225400 0.430884 0.390754
H2 H 0.308943 0.514081 0.458548
H3 H 0.177284 0.464187 0.495673
C2 C 0.31606(8) 0.33532(8) 0.49651(6)
H4 H 0.259710 0.264373 0.489379
C3 C 0.44360(8) 0.30792(7) 0.44925(6)
H5 H 0.462543 0.220984 0.458637
C4 C 0.45200(8) 0.33538(7) 0.34439(6)
C5 C 0.53407(9) 0.41996(9) 0.30689(6)
H6 H 0.586804 0.464763 0.348205
C6 C 0.53872(10) 0.43884(9) 0.20819(7)
H7 H 0.595012 0.496426 0.182717
C7 C 0.46181(10) 0.37419(9) 0.14708(7)
H8 H 0.466005 0.386924 0.080071
C8 C 0.37859(10) 0.29068(10) 0.18454(7)
H9 H 0.325004 0.246904 0.143165
C9 C 0.37388(10) 0.27126(9) 0.28280(6)
H10 H 0.317110 0.213987 0.308112
C10 C 0.25759(9) 0.34159(10) 0.67220(7)
H11 H 0.215107 0.263908 0.668721
H12 H 0.196269 0.406006 0.663841
H13 H 0.298193 0.349897 0.734603
C11 C 0.45791(9) 0.60577(7) 0.63576(6)
H14 H 0.456531 0.662222 0.690283
H15 H 0.370414 0.582168 0.622219
C12 C 0.51026(11) 0.67006(8) 0.54911(6)
H16 H 0.452137 0.734821 0.530021
H17 H 0.516626 0.612916 0.495255
C13 C 0.61622(8) 0.50952(8) 0.74403(5)
H18 H 0.659371 0.587905 0.740990
H19 H 0.680260 0.445669 0.739828
C14 C 0.54620(8) 0.49888(8) 0.83801(6)
H20 H 0.498508 0.422870 0.839319
H21 H 0.486094 0.565913 0.844218
loop_
_geom_bond_atom_site_label_1
_geom_bond_atom_site_label_2
_geom_bond_site_symmetry_1
_geom_bond_site_symmetry_2
Cl1 C12 1_555 1_555
Cl2 C14 1_555 1_555
P1 O1 1_555 1_555
O1 C3 1_555 1_555
O2 P1 1_555 1_555
N1 P1 1_555 1_555
N2 P1 1_555 1_555
C1 H1 1_555 1_555
H2 C1 1_555 1_555
H3 C1 1_555 1_555
C2 N1 1_555 1_555
H4 C2 1_555 1_555
C3 C2 1_555 1_555
H5 C3 1_555 1_555
C4 C3 1_555 1_555
C5 C4 1_555 1_555
H6 C5 1_555 1_555
C6 C5 1_555 1_555
H7 C6 1_555 1_555
C7 C6 1_555 1_555
H8 C7 1_555 1_555
C8 C7 1_555 1_555
H9 C8 1_555 1_555
C9 C4 1_555 1_555
H10 C9 1_555 1_555
C10 N1 1_555 1_555
H11 C10 1_555 1_555
H12 C10 1_555 1_555
H13 C10 1_555 1_555
C11 N2 1_555 1_555
H14 C11 1_555 1_555
H15 C11 1_555 1_555
C12 C11 1_555 1_555
H16 C12 1_555 1_555
H17 C12 1_555 1_555
C13 N2 1_555 1_555
H18 C13 1_555 1_555
H19 C13 1_555 1_555
C14 C13 1_555 1_555
H20 C14 1_555 1_555
H21 C14 1_555 1_555
C1 C2 1_555 1_555
C8 C9 1_555 1_555

#END
