
#######################################################################
#
#                 Cambridge Crystallographic Data Centre
#                                CCDC 
#
#######################################################################
#
# If this CIF has been generated from an entry in the Cambridge 
# Structural Database, then it will include bibliographic, chemical, 
# crystal, experimental, refinement or atomic coordinate data resulting 
# from the CCDC's data processing and validation procedures.
#
#######################################################################

data_ODORUV
_chemical_formula_moiety         'C26 H20 N6 O2,3(H2 O1)'
_chemical_name_systematic        
"bis(Pyrid-2-ylmethylene)biphenyl-2,2'-dicarbohydrazide trihydrate"
_symmetry_cell_setting           triclinic
_symmetry_space_group_name_H-M   'P -1'
_symmetry_Int_Tables_number      2
_space_group_name_Hall           '-P 1'
loop_
_symmetry_equiv_pos_site_id
_symmetry_equiv_pos_as_xyz
1 x,y,z
2 -x,-y,-z
_cell_length_a                   8.370(2)
_cell_length_b                   8.681(2)
_cell_length_c                   17.919(5)
_cell_angle_alpha                79.523(5)
_cell_angle_beta                 88.226(6)
_cell_angle_gamma                85.725(5)
_cell_volume                     1276.52
_exptl_crystal_colour            yellow
_exptl_crystal_description       needle
_cell_formula_units_Z            2
_exptl_crystal_recrystallization_method methanol
loop_
_atom_site_label
_atom_site_type_symbol
_atom_site_fract_x
_atom_site_fract_y
_atom_site_fract_z
O1 O 0.0684(2) 0.1747(2) 0.49655(11)
O2 O -0.0709(2) 0.2912(2) 0.22498(10)
N1 N 0.5210(3) 0.0327(3) 0.23005(14)
N2 N 0.2390(3) 0.1085(2) 0.37194(13)
N3 N 0.0859(3) 0.1741(2) 0.37045(12)
H1 H 0.0358 0.1941 0.3282
N4 N -0.1065(3) 0.5052(2) 0.13341(12)
H2 H -0.0949 0.6038 0.1189
N5 N -0.1702(3) 0.4204(2) 0.08555(12)
N6 N -0.3687(3) 0.5300(3) -0.08845(13)
C1 C 0.6729(4) -0.0171(4) 0.22041(19)
H3 H 0.7128 -0.0128 0.1711
C2 C 0.7734(4) -0.0743(3) 0.2789(2)
H4 H 0.8793 -0.1071 0.2695
C3 C 0.7163(4) -0.0824(4) 0.3511(2)
H5 H 0.7820 -0.1224 0.3920
C4 C 0.5593(4) -0.0307(3) 0.36283(17)
H6 H 0.5173 -0.0361 0.4118
C5 C 0.4658(3) 0.0290(3) 0.30116(16)
C6 C 0.3011(3) 0.0933(3) 0.30792(16)
H7 H 0.2404 0.1239 0.2645
C7 C 0.0107(4) 0.2085(3) 0.43429(16)
C8 C -0.1517(3) 0.2882(3) 0.41915(15)
C9 C -0.2815(4) 0.2238(3) 0.45972(16)
H8 H -0.2650 0.1351 0.4972
C10 C -0.4348(4) 0.2894(4) 0.44522(18)
H9 H -0.5213 0.2453 0.4728
C11 C -0.4594(4) 0.4196(4) 0.39011(18)
H10 H -0.5630 0.4625 0.3791
C12 C -0.3318(4) 0.4870(3) 0.35112(17)
H11 H -0.3501 0.5767 0.3144
C13 C -0.1757(3) 0.4251(3) 0.36480(14)
C14 C -0.0397(3) 0.5158(3) 0.32923(15)
C15 C 0.0381(3) 0.5999(3) 0.37418(15)
H12 H 0.0120 0.5882 0.4256
C16 C 0.1532(4) 0.7006(3) 0.34436(17)
H13 H 0.2048 0.7547 0.3757
C17 C 0.1917(3) 0.7208(3) 0.26836(17)
H14 H 0.2678 0.7901 0.2478
C18 C 0.1166(3) 0.6374(3) 0.22264(15)
H15 H 0.1423 0.6512 0.1711
C19 C 0.0036(3) 0.5337(3) 0.25239(14)
C20 C -0.0623(3) 0.4322(3) 0.20358(15)
C21 C -0.2217(3) 0.5000(3) 0.02319(15)
H16 H -0.2041 0.6062 0.0109
C22 C -0.3081(3) 0.4273(3) -0.02947(15)
C23 C -0.3323(4) 0.2694(3) -0.01774(17)
H17 H -0.2864 0.2008 0.0232
C24 C -0.4257(4) 0.2155(4) -0.06798(19)
H18 H -0.4451 0.1097 -0.0613
C25 C -0.4892(4) 0.3195(4) -0.12765(19)
H19 H -0.5531 0.2860 -0.1622
C26 C -0.45771(14) 0.47265(12) -0.13592(6)
H20 H -0.5010 0.5420 -0.1773
O3 O 0.66586(14) -0.14697(12) -0.10485(6)
H21 H 0.6574 -0.2449 -0.1017
H22 H 0.6090 -0.1106 -0.1434
O4 O 0.90894(14) 0.82966(12) 0.06618(6)
H23 H 0.9463 0.8877 0.0939
H24 H 0.9510 0.8323 0.0222
O5 O 0.02374(14) 0.09484(12) 0.10122(6)
H25 H 0.1225 0.0956 0.1107
H26 H -0.0400 0.1531 0.1236
loop_
_geom_bond_atom_site_label_1
_geom_bond_atom_site_label_2
_geom_bond_site_symmetry_1
_geom_bond_site_symmetry_2
O1 C7 1_555 1_555
O2 C20 1_555 1_555
N1 C1 1_555 1_555
N2 N3 1_555 1_555
N3 H1 1_555 1_555
N4 H2 1_555 1_555
N5 N4 1_555 1_555
N6 C22 1_555 1_555
C1 H3 1_555 1_555
C2 C1 1_555 1_555
H4 C2 1_555 1_555
C3 C2 1_555 1_555
H5 C3 1_555 1_555
C4 C3 1_555 1_555
H6 C4 1_555 1_555
C5 N1 1_555 1_555
C6 N2 1_555 1_555
H7 C6 1_555 1_555
C7 N3 1_555 1_555
C8 C7 1_555 1_555
C9 C8 1_555 1_555
H8 C9 1_555 1_555
C10 C9 1_555 1_555
H9 C10 1_555 1_555
C11 C10 1_555 1_555
H10 C11 1_555 1_555
C12 C11 1_555 1_555
H11 C12 1_555 1_555
C13 C8 1_555 1_555
C14 C13 1_555 1_555
C15 C14 1_555 1_555
H12 C15 1_555 1_555
C16 C15 1_555 1_555
H13 C16 1_555 1_555
C17 C16 1_555 1_555
H14 C17 1_555 1_555
C18 C17 1_555 1_555
H15 C18 1_555 1_555
C19 C14 1_555 1_555
C20 N4 1_555 1_555
C21 N5 1_555 1_555
H16 C21 1_555 1_555
C22 C21 1_555 1_555
C23 C22 1_555 1_555
H17 C23 1_555 1_555
C24 C23 1_555 1_555
H18 C24 1_555 1_555
C25 C24 1_555 1_555
H19 C25 1_555 1_555
C26 N6 1_555 1_555
H20 C26 1_555 1_555
O3 H21 1_555 1_555
H22 O3 1_555 1_555
O4 H23 1_555 1_555
H24 O4 1_555 1_555
O5 H25 1_555 1_555
H26 O5 1_555 1_555
C4 C5 1_555 1_555
C5 C6 1_555 1_555
C12 C13 1_555 1_555
C18 C19 1_555 1_555
C19 C20 1_555 1_555
C25 C26 1_555 1_555

#END
