
#######################################################################
#
#                 Cambridge Crystallographic Data Centre
#                                CCDC 
#
#######################################################################
#
# If this CIF has been generated from an entry in the Cambridge 
# Structural Database, then it will include bibliographic, chemical, 
# crystal, experimental, refinement or atomic coordinate data resulting 
# from the CCDC's data processing and validation procedures.
#
#######################################################################

data_ODOVAE
_chemical_formula_moiety         'C20 H16 Cl2 O2'
_chemical_name_systematic        
exo,exo-5,11-Dichloro-4,10-dimethoxy-4,10-dihydrodibenzo(ef,kl)heptalene
_symmetry_cell_setting           monoclinic
_symmetry_space_group_name_H-M   'C c'
_symmetry_Int_Tables_number      9
_space_group_name_Hall           'C -2yc'
loop_
_symmetry_equiv_pos_site_id
_symmetry_equiv_pos_as_xyz
1 x,y,z
2 x,-y,1/2+z
3 1/2+x,1/2+y,z
4 1/2+x,1/2-y,1/2+z
_cell_length_a                   9.8062(7)
_cell_length_b                   22.3707(15)
_cell_length_c                   8.4900(6)
_cell_angle_alpha                90
_cell_angle_beta                 115.9140(10)
_cell_angle_gamma                90
_cell_volume                     1675.2
_exptl_crystal_colour            colorless
_exptl_crystal_description       columnar
_chemical_melting_point          223-224deg.C
_cell_formula_units_Z            4
_exptl_crystal_recrystallization_method chloroform
loop_
_atom_site_label
_atom_site_type_symbol
_atom_site_fract_x
_atom_site_fract_y
_atom_site_fract_z
Cl1 Cl 0.2314 0.87427(4) 0.7019
Cl2 Cl -0.28445(18) 0.77477(4) 1.3245(2)
O1 O 0.3137(3) 0.94994(11) 1.0143(4)
O2 O -0.2651(4) 0.90096(11) 1.2968(4)
C1 C 0.1779(4) 0.91931(15) 0.9764(5)
C2 C 0.1137(4) 0.88548(15) 0.8033(5)
C3 C -0.0246(5) 0.86265(15) 0.7366(5)
C4 C -0.1288(4) 0.86994(13) 0.8162(5)
C5 C -0.2824(5) 0.87740(15) 0.6971(5)
C6 C -0.3915(4) 0.88649(18) 0.7576(5)
C7 C -0.3502(5) 0.88841(16) 0.9366(5)
C8 C -0.1992(4) 0.87903(13) 1.0549(5)
C9 C -0.1580(4) 0.87514(13) 1.2489(5)
C10 C -0.1415(4) 0.80883(14) 1.2902(5)
C11 C -0.0282(5) 0.77790(14) 1.2879(5)
C12 C 0.0931(4) 0.80426(13) 1.2531(4)
C13 C 0.2391(5) 0.78232(16) 1.3521(5)
C14 C 0.3635(5) 0.80517(19) 1.3389(5)
C15 C 0.3451(5) 0.85132(17) 1.2207(5)
C16 C 0.2012(4) 0.87305(13) 1.1167(5)
C17 C 0.0705(4) 0.84988(13) 1.1269(4)
C18 C -0.0851(4) 0.86889(12) 0.9992(5)
C19 C 0.2937(7) 1.00272(19) 0.9158(7)
C20 C -0.2563(8) 0.96420(19) 1.3073(9)
H1 H 0.0989 0.9583 0.9823
H2 H -0.0563 0.8423 0.6367
H3 H -0.3206 0.8692 0.5591
H4 H -0.4976 0.8880 0.6772
H5 H -0.4308 0.8947 0.9940
H6 H -0.0538 0.8930 1.3148
H7 H -0.0218 0.7367 1.3175
H8 H 0.2412 0.7484 1.4191
H9 H 0.4768 0.7923 1.4021
H10 H 0.4313 0.8710 1.2162
H11 H 0.2393 1.0094 0.8009
H12 H 0.2368 1.0298 0.9415
H13 H 0.3843 1.0156 0.9332
H14 H -0.1696 0.9689 1.3912
H15 H -0.3248 0.9807 1.3381
H16 H -0.2305 0.9808 1.2102
loop_
_geom_bond_atom_site_label_1
_geom_bond_atom_site_label_2
_geom_bond_site_symmetry_1
_geom_bond_site_symmetry_2
Cl1 C2 1_555 1_555
Cl2 C10 1_555 1_555
O1 C1 1_555 1_555
O2 C9 1_555 1_555
C1 C2 1_555 1_555
C2 C3 1_555 1_555
C3 C4 1_555 1_555
C4 C5 1_555 1_555
C5 C6 1_555 1_555
C6 C7 1_555 1_555
C7 C8 1_555 1_555
C8 C9 1_555 1_555
C9 C10 1_555 1_555
C10 C11 1_555 1_555
C11 C12 1_555 1_555
C12 C13 1_555 1_555
C13 C14 1_555 1_555
C14 C15 1_555 1_555
C15 C16 1_555 1_555
C16 C1 1_555 1_555
C17 C12 1_555 1_555
C18 C4 1_555 1_555
C19 O1 1_555 1_555
C20 O2 1_555 1_555
H1 C1 1_555 1_555
H2 C3 1_555 1_555
H3 C5 1_555 1_555
H4 C6 1_555 1_555
H5 C7 1_555 1_555
H6 C9 1_555 1_555
H7 C11 1_555 1_555
H8 C13 1_555 1_555
H9 C14 1_555 1_555
H10 C15 1_555 1_555
H11 C19 1_555 1_555
H12 C19 1_555 1_555
H13 C19 1_555 1_555
H14 C20 1_555 1_555
H15 C20 1_555 1_555
H16 C20 1_555 1_555
C8 C18 1_555 1_555
C16 C17 1_555 1_555
C17 C18 1_555 1_555

#END
