
#######################################################################
#
#                 Cambridge Crystallographic Data Centre
#                                CCDC 
#
#######################################################################
#
# If this CIF has been generated from an entry in the Cambridge 
# Structural Database, then it will include bibliographic, chemical, 
# crystal, experimental, refinement or atomic coordinate data resulting 
# from the CCDC's data processing and validation procedures.
#
#######################################################################

data_ODOYIR
_chemical_formula_moiety         'C26 H52 Li4 N8'
_chemical_name_systematic        
bis(\m~3~-\h^5^-2-[(ethylazanidyl)methyl]-pyrrolato)-bis(N,N,N',N'-tetramethylethane-1,2-diamine)-tetra-lithium
_symmetry_cell_setting           monoclinic
_symmetry_space_group_name_H-M   'P 21/c'
_symmetry_Int_Tables_number      14
_space_group_name_Hall           '-P 2ybc'
loop_
_symmetry_equiv_pos_site_id
_symmetry_equiv_pos_as_xyz
1 x,y,z
2 -x,1/2+y,1/2-z
3 -x,-y,-z
4 x,1/2-y,1/2+z
_cell_length_a                   9.678(4)
_cell_length_b                   19.191(7)
_cell_length_c                   18.617(7)
_cell_angle_alpha                90
_cell_angle_beta                 104.494(9)
_cell_angle_gamma                90
_cell_volume                     3347.7
_cell_formula_units_Z            4
loop_
_atom_site_label
_atom_site_type_symbol
_atom_site_fract_x
_atom_site_fract_y
_atom_site_fract_z
Li1 Li 0.2489(10) 0.8091(5) 0.2352(6)
Li2 Li 0.3100(10) 0.6205(4) 0.1509(5)
Li3 Li 0.1205(9) 0.7238(5) 0.0987(5)
Li4 Li -0.0850(9) 0.8100(4) 0.0377(5)
N1 N 0.3250(5) 0.7033(2) 0.2220(3)
N2 N 0.2971(4) 0.6925(2) 0.0744(2)
N3 N 0.0753(4) 0.8361(2) 0.1315(2)
N4 N -0.0849(4) 0.7223(2) 0.0935(2)
N5 N 0.4883(5) 0.5529(2) 0.1811(3)
N6 N 0.1898(5) 0.5368(2) 0.1794(3)
N7 N -0.0397(7) 0.8394(3) -0.0620(3)
N8 N -0.2527(6) 0.8836(3) 0.0152(3)
C1 C 0.3578(7) 0.7179(3) 0.2973(3)
H1 H 0.3212 0.6910 0.3346
C2 C 0.4567(7) 0.7697(4) 0.3143(4)
H2 H 0.5020 0.7881 0.3650
C3 C 0.4905(6) 0.7886(3) 0.2487(4)
H3 H 0.5639 0.8234 0.2429
C4 C 0.4091(6) 0.7465(3) 0.1936(3)
C5 C 0.4043(6) 0.7411(3) 0.1123(3)
H4 H 0.3841 0.7876 0.0891
H5 H 0.4989 0.7259 0.1068
C6 C 0.3176(6) 0.6778(3) 0.0012(3)
H6 H 0.4169 0.6619 0.0062
H7 H 0.3035 0.7212 -0.0285
C7 C 0.2164(7) 0.6231(3) -0.0389(3)
H8 H 0.2339 0.6148 -0.0878
H9 H 0.1180 0.6390 -0.0449
H10 H 0.2313 0.5798 -0.0101
C8 C 0.1449(6) 0.8962(3) 0.1612(4)
H11 H 0.1962 0.9281 0.1341
C9 C 0.1231(6) 0.9100(3) 0.2297(4)
H12 H 0.1539 0.9528 0.2602
C10 C 0.0342(6) 0.8575(3) 0.2443(3)
H13 H -0.0084 0.8547 0.2880
C11 C 0.0047(5) 0.8142(3) 0.1831(3)
C12 C -0.0900(5) 0.7511(3) 0.1651(3)
H14 H -0.0584 0.7153 0.2041
H15 H -0.1894 0.7642 0.1640
C13 C -0.1933(6) 0.6683(3) 0.0732(3)
H16 H -0.2864 0.6874 0.0767
H17 H -0.1686 0.6291 0.1087
C14 C -0.2064(7) 0.6415(3) -0.0047(4)
H18 H -0.2797 0.6052 -0.0162
H19 H -0.1146 0.6221 -0.0082
H20 H -0.2333 0.6800 -0.0401
C15 C 0.4386(8) 0.5016(4) 0.2278(4)
H21 H 0.4998 0.4596 0.2324
H22 H 0.4517 0.5215 0.2781
C16 C 0.2963(8) 0.4811(3) 0.2019(4)
H23 H 0.2699 0.4533 0.2413
H24 H 0.2895 0.4498 0.1588
C17 C 0.6078(7) 0.5907(4) 0.2287(4)
H25 H 0.6905 0.5597 0.2433
H26 H 0.5808 0.6070 0.2732
H27 H 0.6321 0.6308 0.2016
C18 C 0.5304(7) 0.5247(4) 0.1170(4)
H28 H 0.6120 0.4934 0.1339
H29 H 0.5570 0.5629 0.0884
H30 H 0.4503 0.4988 0.0858
C19 C 0.1330(8) 0.5606(4) 0.2404(4)
H31 H 0.0765 0.5233 0.2550
H32 H 0.0722 0.6015 0.2245
H33 H 0.2119 0.5732 0.2826
C20 C 0.0738(7) 0.5100(3) 0.1197(4)
H34 H 0.0259 0.4717 0.1385
H35 H 0.1127 0.4930 0.0791
H36 H 0.0051 0.5474 0.1013
C21 C -0.1350(9) 0.8969(4) -0.0847(4)
H37 H -0.0751 0.9373 -0.0905
H38 H -0.1938 0.8854 -0.1349
C22 C -0.2259(9) 0.9198(4) -0.0457(4)
H39 H -0.3195 0.9260 -0.0818
H40 H -0.1929 0.9669 -0.0276
C23 C 0.1073(9) 0.8642(4) -0.0453(4)
H41 H 0.1307 0.8787 -0.0914
H42 H 0.1717 0.8266 -0.0222
H43 H 0.1184 0.9039 -0.0113
C24 C -0.0602(12) 0.7884(4) -0.1214(4)
H44 H -0.0355 0.8093 -0.1646
H45 H -0.1603 0.7736 -0.1352
H46 H 0.0011 0.7480 -0.1046
C25 C -0.2436(8) 0.9316(4) 0.0760(4)
H47 H -0.3230 0.9648 0.0632
H48 H -0.1529 0.9570 0.0854
H49 H -0.2488 0.9057 0.1206
C26 C -0.3945(8) 0.8526(4) -0.0042(5)
H50 H -0.4667 0.8895 -0.0136
H51 H -0.4070 0.8232 0.0368
H52 H -0.4053 0.8240 -0.0489
loop_
_geom_bond_atom_site_label_1
_geom_bond_atom_site_label_2
_geom_bond_site_symmetry_1
_geom_bond_site_symmetry_2
Li1 N1 1_555 1_555
Li2 N1 1_555 1_555
Li3 N2 1_555 1_555
Li4 N3 1_555 1_555
N1 C1 1_555 1_555
N2 Li2 1_555 1_555
N3 Li1 1_555 1_555
N4 Li3 1_555 1_555
N5 Li2 1_555 1_555
N6 Li2 1_555 1_555
N7 Li4 1_555 1_555
N8 Li4 1_555 1_555
C1 Li1 1_555 1_555
H1 C1 1_555 1_555
C2 Li1 1_555 1_555
H2 C2 1_555 1_555
C3 Li1 1_555 1_555
H3 C3 1_555 1_555
C4 Li1 1_555 1_555
C5 N2 1_555 1_555
H4 C5 1_555 1_555
H5 C5 1_555 1_555
C6 N2 1_555 1_555
H6 C6 1_555 1_555
H7 C6 1_555 1_555
C7 C6 1_555 1_555
H8 C7 1_555 1_555
H9 C7 1_555 1_555
H10 C7 1_555 1_555
C8 Li1 1_555 1_555
H11 C8 1_555 1_555
C9 Li1 1_555 1_555
H12 C9 1_555 1_555
C10 Li1 1_555 1_555
H13 C10 1_555 1_555
C11 Li1 1_555 1_555
C12 N4 1_555 1_555
H14 C12 1_555 1_555
H15 C12 1_555 1_555
C13 N4 1_555 1_555
H16 C13 1_555 1_555
H17 C13 1_555 1_555
C14 C13 1_555 1_555
H18 C14 1_555 1_555
H19 C14 1_555 1_555
H20 C14 1_555 1_555
C15 N5 1_555 1_555
H21 C15 1_555 1_555
H22 C15 1_555 1_555
C16 N6 1_555 1_555
H23 C16 1_555 1_555
H24 C16 1_555 1_555
C17 N5 1_555 1_555
H25 C17 1_555 1_555
H26 C17 1_555 1_555
H27 C17 1_555 1_555
C18 N5 1_555 1_555
H28 C18 1_555 1_555
H29 C18 1_555 1_555
H30 C18 1_555 1_555
C19 N6 1_555 1_555
H31 C19 1_555 1_555
H32 C19 1_555 1_555
H33 C19 1_555 1_555
C20 N6 1_555 1_555
H34 C20 1_555 1_555
H35 C20 1_555 1_555
H36 C20 1_555 1_555
C21 N7 1_555 1_555
H37 C21 1_555 1_555
H38 C21 1_555 1_555
C22 N8 1_555 1_555
H39 C22 1_555 1_555
H40 C22 1_555 1_555
C23 N7 1_555 1_555
H41 C23 1_555 1_555
H42 C23 1_555 1_555
H43 C23 1_555 1_555
C24 N7 1_555 1_555
H44 C24 1_555 1_555
H45 C24 1_555 1_555
H46 C24 1_555 1_555
C25 N8 1_555 1_555
H47 C25 1_555 1_555
H48 C25 1_555 1_555
H49 C25 1_555 1_555
C26 N8 1_555 1_555
H50 C26 1_555 1_555
H51 C26 1_555 1_555
H52 C26 1_555 1_555
Li3 N3 1_555 1_555
Li4 N4 1_555 1_555
N1 C4 1_555 1_555
N3 C8 1_555 1_555
N3 C11 1_555 1_555
C1 C2 1_555 1_555
C2 C3 1_555 1_555
C3 C4 1_555 1_555
C4 C5 1_555 1_555
C8 C9 1_555 1_555
C9 C10 1_555 1_555
C10 C11 1_555 1_555
C11 C12 1_555 1_555
C15 C16 1_555 1_555
C21 C22 1_555 1_555

#END
