
#######################################################################
#
#                 Cambridge Crystallographic Data Centre
#                                CCDC 
#
#######################################################################
#
# If this CIF has been generated from an entry in the Cambridge 
# Structural Database, then it will include bibliographic, chemical, 
# crystal, experimental, refinement or atomic coordinate data resulting 
# from the CCDC's data processing and validation procedures.
#
#######################################################################

data_ODOYUD
_chemical_formula_moiety         'C28 H56 Li4 N8'
_chemical_name_systematic        
bis(\m~3~-\h^5^-2-[(isopropylazanidyl)methyl]-pyrrolato)-bis(N,N,N',N'-tetramethylethane-1,2-diamine)-tri-lithium
_symmetry_cell_setting           monoclinic
_symmetry_space_group_name_H-M   'P 21/n'
_symmetry_Int_Tables_number      14
_space_group_name_Hall           '-P 2yn'
loop_
_symmetry_equiv_pos_site_id
_symmetry_equiv_pos_as_xyz
1 x,y,z
2 1/2-x,1/2+y,1/2-z
3 -x,-y,-z
4 1/2+x,1/2-y,1/2+z
_cell_length_a                   9.816(4)
_cell_length_b                   10.545(5)
_cell_length_c                   17.265(7)
_cell_angle_alpha                90
_cell_angle_beta                 103.845(9)
_cell_angle_gamma                90
_cell_volume                     1735.17
_cell_formula_units_Z            2
loop_
_atom_site_label
_atom_site_type_symbol
_atom_site_fract_x
_atom_site_fract_y
_atom_site_fract_z
Li1 Li 0.8764(4) 0.8248(3) 0.0950(2)
Li2 Li 1.1249(4) 0.8922(4) 0.0228(2)
N1 N 1.07582(17) 0.89217(17) 0.12410(9)
N2 N 0.80763(17) 1.00381(17) 0.07112(10)
N3 N 0.7870(2) 0.7328(2) 0.18193(13)
N4 N 0.7529(2) 0.6924(2) 0.01267(12)
C1 C 0.7033(2) 1.0877(2) 0.03832(14)
H1 H 0.6062 1.0628 0.0115
C2 C 0.7474(3) 1.2108(2) 0.05321(14)
H2 H 0.6904 1.2885 0.0387
C3 C 0.8858(3) 1.2040(2) 0.09794(14)
H3 H 0.9465 1.2763 0.1208
C4 C 0.9192(2) 1.0762(2) 0.10885(12)
C5 C 1.0485(2) 1.0137(2) 0.15718(12)
H4 H 1.1291 1.0698 0.1598
H5 H 1.0382 1.0010 0.2117
C6 C 1.1815(2) 0.8218(3) 0.18185(14)
H6 H 1.1491 0.8161 0.2318
C7 C 1.3263(3) 0.8834(3) 0.20193(18)
H7 H 1.3628 0.8864 0.1545
H8 H 1.3892 0.8342 0.2428
H9 H 1.3192 0.9690 0.2213
C8 C 1.1908(3) 0.6888(3) 0.15171(16)
H10 H 1.0991 0.6490 0.1417
H11 H 1.2569 0.6402 0.1914
H12 H 1.2224 0.6914 0.1026
C9 C 0.8786(4) 0.6687(4) 0.2492(2)
H13 H 0.8229 0.6338 0.2835
H14 H 0.9458 0.7289 0.2791
H15 H 0.9282 0.6008 0.2298
C10 C 0.7191(5) 0.8363(4) 0.2135(3)
H16 H 0.6590 0.8022 0.2457
H17 H 0.6630 0.8852 0.1698
H18 H 0.7898 0.8906 0.2463
C11 C 0.8293(4) 0.5874(4) -0.0097(3)
H19 H 0.8869 0.5485 0.0378
H20 H 0.8888 0.6178 -0.0433
H21 H 0.7637 0.5253 -0.0388
C12 C 0.6785(4) 0.7579(4) -0.0595(2)
H22 H 0.6167 0.6988 -0.0941
H23 H 0.7457 0.7918 -0.0870
H24 H 0.6236 0.8267 -0.0453
C13 C 0.6991(9) 0.6332(11) 0.1381(4)
H25 H 0.6194 0.6197 0.1621
H26 H 0.7534 0.5543 0.1439
C14 C 0.6450(8) 0.6596(10) 0.0523(4)
H27 H 0.5950 0.5846 0.0265
H28 H 0.5774 0.7295 0.0460
Li1B Li 1.1236(4) 1.1752(3) -0.0950(2)
Li2B Li 0.8751(4) 1.1078(4) -0.0228(2)
N1B N 0.92418(17) 1.10783(17) -0.12410(9)
N2B N 1.19237(17) 0.99619(17) -0.07112(10)
N3B N 1.2130(2) 1.2672(2) -0.18193(13)
N4B N 1.2471(2) 1.3076(2) -0.01267(12)
C1B C 1.2967(2) 0.9123(2) -0.03832(14)
H1B H 1.3938 0.9372 -0.0115
C2B C 1.2526(3) 0.7892(2) -0.05321(14)
H2B H 1.3096 0.7115 -0.0387
C3B C 1.1142(3) 0.7960(2) -0.09794(14)
H3B H 1.0535 0.7237 -0.1208
C4B C 1.0808(2) 0.9238(2) -0.10885(12)
C5B C 0.9515(2) 0.9863(2) -0.15718(12)
H4B H 0.8709 0.9302 -0.1598
H5B H 0.9618 0.9990 -0.2117
C6B C 0.8185(2) 1.1782(3) -0.18185(14)
H6B H 0.8509 1.1839 -0.2318
C7B C 0.6737(3) 1.1166(3) -0.20193(18)
H7B H 0.6372 1.1136 -0.1545
H8B H 0.6108 1.1658 -0.2428
H9B H 0.6808 1.0310 -0.2213
C8B C 0.8092(3) 1.3112(3) -0.15171(16)
H10B H 0.9009 1.3510 -0.1417
H11B H 0.7431 1.3598 -0.1914
H12B H 0.7776 1.3086 -0.1026
C9B C 1.1214(4) 1.3313(4) -0.2492(2)
H13B H 1.1771 1.3662 -0.2835
H14B H 1.0542 1.2711 -0.2791
H15B H 1.0718 1.3992 -0.2298
C10B C 1.2809(5) 1.1637(4) -0.2135(3)
H16B H 1.3410 1.1978 -0.2457
H17B H 1.3370 1.1148 -0.1698
H18B H 1.2102 1.1094 -0.2463
C11B C 1.1707(4) 1.4126(4) 0.0097(3)
H19B H 1.1131 1.4515 -0.0378
H20B H 1.1112 1.3822 0.0433
H21B H 1.2363 1.4747 0.0388
C12B C 1.3215(4) 1.2421(4) 0.0595(2)
H22B H 1.3833 1.3012 0.0941
H23B H 1.2543 1.2082 0.0870
H24B H 1.3764 1.1733 0.0453
C13B C 1.3009(9) 1.3668(11) -0.1381(4)
H25B H 1.3806 1.3803 -0.1621
H26B H 1.2466 1.4457 -0.1439
C14B C 1.3550(8) 1.3404(10) -0.0523(4)
H27B H 1.4050 1.4154 -0.0265
H28B H 1.4226 1.2705 -0.0460
C15? C 0.696(2) 0.6032(18) 0.0744(15)
C16? C 0.646(3) 0.702(2) 0.1280(17)
loop_
_geom_bond_atom_site_label_1
_geom_bond_atom_site_label_2
_geom_bond_site_symmetry_1
_geom_bond_site_symmetry_2
Li1 N1 1_555 1_555
Li2 N1 1_555 1_555
N1 C5 1_555 1_555
N2 Li1 1_555 1_555
N3 Li1 1_555 1_555
N4 Li1 1_555 1_555
C1 N2 1_555 1_555
H1 C1 1_555 1_555
C2 C1 1_555 1_555
H2 C2 1_555 1_555
C3 C2 1_555 1_555
H3 C3 1_555 1_555
C4 N2 1_555 1_555
C5 C4 1_555 1_555
H4 C5 1_555 1_555
H5 C5 1_555 1_555
C6 N1 1_555 1_555
H6 C6 1_555 1_555
C7 C6 1_555 1_555
H7 C7 1_555 1_555
H8 C7 1_555 1_555
H9 C7 1_555 1_555
C8 C6 1_555 1_555
H10 C8 1_555 1_555
H11 C8 1_555 1_555
H12 C8 1_555 1_555
C9 N3 1_555 1_555
H13 C9 1_555 1_555
H14 C9 1_555 1_555
H15 C9 1_555 1_555
C10 N3 1_555 1_555
H16 C10 1_555 1_555
H17 C10 1_555 1_555
H18 C10 1_555 1_555
C11 N4 1_555 1_555
H19 C11 1_555 1_555
H20 C11 1_555 1_555
H21 C11 1_555 1_555
C12 N4 1_555 1_555
H22 C12 1_555 1_555
H23 C12 1_555 1_555
H24 C12 1_555 1_555
C13 N3 1_555 1_555
H25 C13 1_555 1_555
H26 C13 1_555 1_555
C14 N4 1_555 1_555
H27 C14 1_555 1_555
H28 C14 1_555 1_555
Li1B N1B 1_555 1_555
Li2B N2 1_555 1_555
N1B Li2B 1_555 1_555
N2B Li2 1_555 1_555
N3B Li1B 1_555 1_555
N4B Li1B 1_555 1_555
C1B Li2 1_555 1_555
H1B C1B 1_555 1_555
C2B Li2 1_555 1_555
H2B C2B 1_555 1_555
C3B Li2 1_555 1_555
H3B C3B 1_555 1_555
C4B Li2 1_555 1_555
C5B N1B 1_555 1_555
H4B C5B 1_555 1_555
H5B C5B 1_555 1_555
C6B N1B 1_555 1_555
H6B C6B 1_555 1_555
C7B C6B 1_555 1_555
H7B C7B 1_555 1_555
H8B C7B 1_555 1_555
H9B C7B 1_555 1_555
C8B C6B 1_555 1_555
H10B C8B 1_555 1_555
H11B C8B 1_555 1_555
H12B C8B 1_555 1_555
C9B N3B 1_555 1_555
H13B C9B 1_555 1_555
H14B C9B 1_555 1_555
H15B C9B 1_555 1_555
C10B N3B 1_555 1_555
H16B C10B 1_555 1_555
H17B C10B 1_555 1_555
H18B C10B 1_555 1_555
C11B N4B 1_555 1_555
H19B C11B 1_555 1_555
H20B C11B 1_555 1_555
H21B C11B 1_555 1_555
C12B N4B 1_555 1_555
H22B C12B 1_555 1_555
H23B C12B 1_555 1_555
H24B C12B 1_555 1_555
C13B N3B 1_555 1_555
H25B C13B 1_555 1_555
H26B C13B 1_555 1_555
C14B N4B 1_555 1_555
H27B C14B 1_555 1_555
H28B C14B 1_555 1_555
C1 Li2B 1_555 1_555
C2 Li2B 1_555 1_555
C3 C4 1_555 1_555
C3 Li2B 1_555 1_555
C4 Li2B 1_555 1_555
C13 C14 1_555 1_555
Li1B N2B 1_555 1_555
N2B C1B 1_555 1_555
N2B C4B 1_555 1_555
C1B C2B 1_555 1_555
C2B C3B 1_555 1_555
C3B C4B 1_555 1_555
C4B C5B 1_555 1_555
C13B C14B 1_555 1_555

#END
