
#######################################################################
#
#                 Cambridge Crystallographic Data Centre
#                                CCDC 
#
#######################################################################
#
# If this CIF has been generated from an entry in the Cambridge 
# Structural Database, then it will include bibliographic, chemical, 
# crystal, experimental, refinement or atomic coordinate data resulting 
# from the CCDC's data processing and validation procedures.
#
#######################################################################

data_ODUBOH
_chemical_formula_moiety         'C15 H13 N3 O2'
_chemical_name_systematic        'methyl (2H-benzotriazol-2-yl)(phenyl)acetate'
_symmetry_cell_setting           triclinic
_symmetry_space_group_name_H-M   'P -1'
_symmetry_Int_Tables_number      2
_space_group_name_Hall           '-P 1'
loop_
_symmetry_equiv_pos_site_id
_symmetry_equiv_pos_as_xyz
1 x,y,z
2 -x,-y,-z
_cell_length_a                   8.591(3)
_cell_length_b                   8.923(3)
_cell_length_c                   10.357(3)
_cell_angle_alpha                88.178(6)
_cell_angle_beta                 68.758(6)
_cell_angle_gamma                68.143(6)
_cell_volume                     681.911
_exptl_crystal_colour            colorless
_exptl_crystal_description       block
_cell_formula_units_Z            2
loop_
_atom_site_label
_atom_site_type_symbol
_atom_site_fract_x
_atom_site_fract_y
_atom_site_fract_z
C1 C 0.4931(2) -0.13293(17) 0.82643(16)
C2 C 0.6133(2) -0.2757(2) 0.8532(2)
H1 H 0.7245 -0.3378 0.7844
C3 C 0.5601(3) -0.3190(2) 0.9840(2)
H2 H 0.6373 -0.4124 1.0052
C4 C 0.3924(3) -0.2273(2) 1.0878(2)
H3 H 0.3617 -0.2623 1.1756
C5 C 0.2722(3) -0.0885(2) 1.06517(18)
H4 H 0.1609 -0.0285 1.1349
C6 C 0.3257(2) -0.04134(17) 0.93052(15)
C7 C 0.3105(2) 0.18090(16) 0.64702(13)
H5 H 0.4209 0.1500 0.5625
C8 C 0.1681(2) 0.15427(18) 0.60618(15)
C9 C 0.26680(19) 0.35281(16) 0.70098(13)
C10 C 0.0999(2) 0.44862(17) 0.79865(15)
H6 H 0.0084 0.4089 0.8311
C11 C 0.0678(2) 0.60348(18) 0.84870(16)
H7 H -0.0449 0.6673 0.9148
C12 C 0.2012(3) 0.6629(2) 0.80129(19)
H8 H 0.1789 0.7673 0.8350
C13 C 0.3670(3) 0.5698(2) 0.7047(2)
H9 H 0.4573 0.6110 0.6727
C14 C 0.4017(2) 0.4144(2) 0.65395(16)
H10 H 0.5152 0.3513 0.5884
C15 C -0.0294(3) 0.2592(3) 0.4878(2)
H11 H 0.0366 0.1723 0.4124
H12 H -0.0842 0.3585 0.4536
H13 H -0.1220 0.2342 0.5588
N1 N 0.23676(17) 0.08752(14) 0.87587(12)
N2 N 0.35288(16) 0.06741(13) 0.74610(11)
N3 N 0.50829(17) -0.06137(14) 0.70751(13)
O1 O 0.09293(15) 0.27799(13) 0.54559(11)
O2 O 0.1392(2) 0.03380(17) 0.62012(16)
loop_
_geom_bond_atom_site_label_1
_geom_bond_atom_site_label_2
_geom_bond_site_symmetry_1
_geom_bond_site_symmetry_2
C1 C2 1_555 1_555
C2 H1 1_555 1_555
C3 C2 1_555 1_555
H2 C3 1_555 1_555
C4 C3 1_555 1_555
H3 C4 1_555 1_555
C5 C4 1_555 1_555
H4 C5 1_555 1_555
C6 C1 1_555 1_555
C7 H5 1_555 1_555
C8 C7 1_555 1_555
C9 C7 1_555 1_555
C10 C9 1_555 1_555
H6 C10 1_555 1_555
C11 C10 1_555 1_555
H7 C11 1_555 1_555
C12 C11 1_555 1_555
H8 C12 1_555 1_555
C13 C12 1_555 1_555
H9 C13 1_555 1_555
C14 C9 1_555 1_555
H10 C14 1_555 1_555
C15 H11 1_555 1_555
H12 C15 1_555 1_555
H13 C15 1_555 1_555
N1 C6 1_555 1_555
N2 C7 1_555 1_555
N3 C1 1_555 1_555
O1 C8 1_555 1_555
O2 C8 1_555 1_555
C5 C6 1_555 1_555
C13 C14 1_555 1_555
C15 O1 1_555 1_555
N1 N2 1_555 1_555
N2 N3 1_555 1_555

#END
