
#######################################################################
#
#                 Cambridge Crystallographic Data Centre
#                                CCDC 
#
#######################################################################
#
# If this CIF has been generated from an entry in the Cambridge 
# Structural Database, then it will include bibliographic, chemical, 
# crystal, experimental, refinement or atomic coordinate data resulting 
# from the CCDC's data processing and validation procedures.
#
#######################################################################

data_ODUCAU
_chemical_formula_moiety         'C20 H17 N3 O2'
_chemical_name_systematic        
1-{5-[(2H-benzotriazol-2-yl)(phenyl)methyl]-2-methylfuran-3-yl}ethan-1-one
_symmetry_cell_setting           orthorhombic
_symmetry_space_group_name_H-M   'P 21 21 21'
_symmetry_Int_Tables_number      19
_space_group_name_Hall           'P 2ac 2ab'
loop_
_symmetry_equiv_pos_site_id
_symmetry_equiv_pos_as_xyz
1 x,y,z
2 1/2-x,-y,1/2+z
3 -x,1/2+y,1/2-z
4 1/2+x,1/2-y,-z
_cell_length_a                   8.6240(18)
_cell_length_b                   11.301(2)
_cell_length_c                   17.559(4)
_cell_angle_alpha                90
_cell_angle_beta                 90
_cell_angle_gamma                90
_cell_volume                     1711.3
_exptl_crystal_colour            colorless
_exptl_crystal_description       block
_cell_formula_units_Z            4
loop_
_atom_site_label
_atom_site_type_symbol
_atom_site_fract_x
_atom_site_fract_y
_atom_site_fract_z
C1 C 0.9402(4) 0.3974(3) 0.2518(2)
C2 C 1.0021(5) 0.3415(4) 0.1875(2)
H1 H 0.946292 0.284665 0.160730
C3 C 1.1473(5) 0.3741(4) 0.1657(2)
H2 H 1.191864 0.337657 0.123558
C4 C 1.2327(5) 0.4617(4) 0.2053(2)
H3 H 1.331282 0.481404 0.188060
C5 C 1.1748(5) 0.5183(4) 0.2681(2)
H4 H 1.231035 0.576021 0.293851
C6 C 1.0257(4) 0.4841(3) 0.2915(2)
N1 N 0.8155(4) 0.4543(2) 0.34808(16)
C7 C 0.6927(4) 0.4686(3) 0.40498(19)
H5 H 0.742975 0.478911 0.454582
C8 C 0.5968(4) 0.5787(3) 0.3899(2)
C9 C 0.5677(5) 0.6184(3) 0.3167(2)
H6 H 0.608081 0.577707 0.275126
C10 C 0.4785(5) 0.7187(3) 0.3052(2)
H7 H 0.458574 0.744772 0.255936
C11 C 0.4193(5) 0.7800(4) 0.3663(2)
H8 H 0.359611 0.847389 0.358271
C12 C 0.4485(5) 0.7415(4) 0.4397(2)
H9 H 0.408062 0.782760 0.480995
C13 C 0.5384(5) 0.6411(3) 0.4516(2)
H10 H 0.559419 0.615796 0.500899
C14 C 0.5962(5) 0.3603(3) 0.40947(19)
C15 C 0.4512(5) 0.3318(3) 0.38998(19)
H11 H 0.378331 0.381912 0.367997
C16 C 0.4285(5) 0.2094(3) 0.40924(18)
C17 C 0.5648(5) 0.1718(3) 0.43996(19)
C18 C 0.6207(5) 0.0583(3) 0.4732(2)
H12 H 0.596610 0.056229 0.526553
H13 H 0.730842 0.052185 0.466406
H14 H 0.570588 -0.006751 0.448039
C19 C 0.2895(5) 0.1374(3) 0.39801(19)
C20 C 0.1522(5) 0.1941(3) 0.3602(2)
H15 H 0.069524 0.137535 0.356167
H16 H 0.181014 0.220635 0.310208
H17 H 0.118165 0.260451 0.389966
N2 N 0.9435(4) 0.5200(3) 0.35293(17)
N3 N 0.8043(4) 0.3800(2) 0.28887(16)
O1 O 0.6693(3) 0.2622(2) 0.44086(12)
O2 O 0.2837(3) 0.0343(2) 0.41963(13)
loop_
_geom_bond_atom_site_label_1
_geom_bond_atom_site_label_2
_geom_bond_site_symmetry_1
_geom_bond_site_symmetry_2
C1 C2 1_555 1_555
C2 H1 1_555 1_555
C3 C2 1_555 1_555
H2 C3 1_555 1_555
C4 C3 1_555 1_555
H3 C4 1_555 1_555
C5 C4 1_555 1_555
H4 C5 1_555 1_555
C6 C1 1_555 1_555
N1 C7 1_555 1_555
C7 H5 1_555 1_555
C8 C7 1_555 1_555
C9 C8 1_555 1_555
H6 C9 1_555 1_555
C10 C9 1_555 1_555
H7 C10 1_555 1_555
C11 C10 1_555 1_555
H8 C11 1_555 1_555
C12 C11 1_555 1_555
H9 C12 1_555 1_555
C13 C8 1_555 1_555
H10 C13 1_555 1_555
C14 C7 1_555 1_555
C15 C14 1_555 1_555
H11 C15 1_555 1_555
C16 C15 1_555 1_555
C17 C16 1_555 1_555
C18 C17 1_555 1_555
H12 C18 1_555 1_555
H13 C18 1_555 1_555
H14 C18 1_555 1_555
C19 C16 1_555 1_555
C20 C19 1_555 1_555
H15 C20 1_555 1_555
H16 C20 1_555 1_555
H17 C20 1_555 1_555
N2 C6 1_555 1_555
N3 C1 1_555 1_555
O1 C14 1_555 1_555
O2 C19 1_555 1_555
C5 C6 1_555 1_555
N1 N2 1_555 1_555
N1 N3 1_555 1_555
C12 C13 1_555 1_555
C17 O1 1_555 1_555

#END
