
#######################################################################
#
#                 Cambridge Crystallographic Data Centre
#                                CCDC 
#
#######################################################################
#
# If this CIF has been generated from an entry in the Cambridge 
# Structural Database, then it will include bibliographic, chemical, 
# crystal, experimental, refinement or atomic coordinate data resulting 
# from the CCDC's data processing and validation procedures.
#
#######################################################################

data_ODUDAV
_chemical_name_common            buprofezin
_chemical_formula_moiety         'C16 H23 N3 O1 S1'
_chemical_name_systematic        
2-(t-butylimino)-5-phenyl-3-isopropyl-1,3,5-thiadiazinan-4-one
_chemical_properties_biological  insecticide
_symmetry_cell_setting           orthorhombic
_symmetry_space_group_name_H-M   'P b c a'
_symmetry_Int_Tables_number      61
_space_group_name_Hall           '-P 2ac 2ab'
loop_
_symmetry_equiv_pos_site_id
_symmetry_equiv_pos_as_xyz
1 x,y,z
2 1/2-x,-y,1/2+z
3 -x,1/2+y,1/2-z
4 1/2+x,1/2-y,-z
5 -x,-y,-z
6 1/2+x,y,1/2-z
7 x,1/2-y,1/2+z
8 1/2-x,1/2+y,z
_cell_length_a                   11.5237(9)
_cell_length_b                   10.8717(8)
_cell_length_c                   26.538(2)
_cell_angle_alpha                90
_cell_angle_beta                 90
_cell_angle_gamma                90
_cell_volume                     3324.74
_exptl_crystal_colour            colorless
_exptl_crystal_description       block
_cell_formula_units_Z            8
loop_
_atom_site_label
_atom_site_type_symbol
_atom_site_fract_x
_atom_site_fract_y
_atom_site_fract_z
S1 S 0.50786(9) 0.85869(10) 0.42935(4)
O1 O 0.1693(3) 0.7109(3) 0.45926(12)
N1 N 0.2745(3) 0.8517(3) 0.41355(13)
N2 N 0.3437(3) 0.7721(3) 0.48981(13)
N3 N 0.3847(3) 0.8848(3) 0.34265(14)
C1 C 0.3841(3) 0.8675(3) 0.38919(16)
C2 C 0.2573(4) 0.7724(4) 0.45465(15)
C3 C 0.1664(3) 0.8792(4) 0.38456(16)
H1 H 0.102420 0.874448 0.408812
C4 C 0.3454(3) 0.6819(4) 0.52932(16)
C5 C 0.4295(4) 0.8676(4) 0.48834(16)
H2 H 0.482980 0.858013 0.516305
H3 H 0.392329 0.947281 0.491348
C6 C 0.3527(4) 0.5578(4) 0.51704(19)
H4 H 0.354976 0.533101 0.483502
C7 C 0.3436(4) 0.7184(5) 0.57876(18)
H5 H 0.340024 0.801592 0.586737
C8 C 0.1662(4) 1.0111(4) 0.36439(18)
H6 H 0.201101 1.064827 0.388786
H7 H 0.087813 1.036755 0.358170
H8 H 0.209681 1.014490 0.333555
C9 C 0.4868(4) 0.9054(4) 0.30998(18)
C10 C 0.1406(4) 0.7837(4) 0.34423(19)
H9 H 0.198947 0.787699 0.318472
H10 H 0.065874 0.799938 0.329670
H11 H 0.140624 0.703212 0.359096
C11 C 0.3470(5) 0.6317(6) 0.61668(19)
H12 H 0.345236 0.656452 0.650212
C12 C 0.3564(5) 0.4714(5) 0.5554(2)
H13 H 0.361297 0.388227 0.547489
C13 C 0.3530(4) 0.5075(5) 0.6048(2)
H14 H 0.354668 0.448939 0.630345
C14 C 0.5651(4) 1.0109(5) 0.3267(2)
H15 H 0.519598 1.084277 0.330645
H16 H 0.623949 1.024573 0.301695
H17 H 0.601026 0.990392 0.358215
C15 C 0.4347(6) 0.9389(7) 0.2585(2)
H18 H 0.386606 0.872572 0.246914
H19 H 0.496134 0.952795 0.234771
H20 H 0.388814 1.012141 0.261729
C16 C 0.5565(6) 0.7862(5) 0.3059(2)
H21 H 0.590001 0.766831 0.338020
H22 H 0.617148 0.796324 0.281410
H23 H 0.506138 0.720468 0.295561
loop_
_geom_bond_atom_site_label_1
_geom_bond_atom_site_label_2
_geom_bond_site_symmetry_1
_geom_bond_site_symmetry_2
S1 C1 1_555 1_555
O1 C2 1_555 1_555
N1 C1 1_555 1_555
N2 C2 1_555 1_555
N3 C1 1_555 1_555
C2 N1 1_555 1_555
C3 N1 1_555 1_555
H1 C3 1_555 1_555
C4 N2 1_555 1_555
C5 S1 1_555 1_555
H2 C5 1_555 1_555
H3 C5 1_555 1_555
C6 C4 1_555 1_555
H4 C6 1_555 1_555
C7 C4 1_555 1_555
H5 C7 1_555 1_555
C8 C3 1_555 1_555
H6 C8 1_555 1_555
H7 C8 1_555 1_555
H8 C8 1_555 1_555
C9 N3 1_555 1_555
C10 C3 1_555 1_555
H9 C10 1_555 1_555
H10 C10 1_555 1_555
H11 C10 1_555 1_555
C11 C7 1_555 1_555
H12 C11 1_555 1_555
C12 C6 1_555 1_555
H13 C12 1_555 1_555
C13 C11 1_555 1_555
H14 C13 1_555 1_555
C14 C9 1_555 1_555
H15 C14 1_555 1_555
H16 C14 1_555 1_555
H17 C14 1_555 1_555
C15 C9 1_555 1_555
H18 C15 1_555 1_555
H19 C15 1_555 1_555
H20 C15 1_555 1_555
C16 C9 1_555 1_555
H21 C16 1_555 1_555
H22 C16 1_555 1_555
H23 C16 1_555 1_555
N2 C5 1_555 1_555
C12 C13 1_555 1_555

#END
