
#######################################################################
#
#                 Cambridge Crystallographic Data Centre
#                                CCDC 
#
#######################################################################
#
# If this CIF has been generated from an entry in the Cambridge 
# Structural Database, then it will include bibliographic, chemical, 
# crystal, experimental, refinement or atomic coordinate data resulting 
# from the CCDC's data processing and validation procedures.
#
#######################################################################

data_ODUJUT01
_chemical_formula_moiety         'C23 H33 O1 P1'
_chemical_name_systematic        
(S~P~)-(2,4,6-Tri-isopropylphenyl)-methyl-(4-methoxyphenyl)phosphine
_symmetry_cell_setting           monoclinic
_symmetry_space_group_name_H-M   'P 21'
_symmetry_Int_Tables_number      4
_space_group_name_Hall           'P 2yb'
loop_
_symmetry_equiv_pos_site_id
_symmetry_equiv_pos_as_xyz
1 x,y,z
2 -x,1/2+y,-z
_cell_length_a                   14.9713(10)
_cell_length_b                   9.4608(6)
_cell_length_c                   15.0844(10)
_cell_angle_alpha                90
_cell_angle_beta                 102.2370(10)
_cell_angle_gamma                90
_cell_volume                     2088.02
_exptl_crystal_colour            colorless
_exptl_crystal_description       block
_cell_formula_units_Z            4
loop_
_atom_site_label
_atom_site_type_symbol
_atom_site_fract_x
_atom_site_fract_y
_atom_site_fract_z
P1 P 0.56490(3) 0.60301(4) 0.97459(3)
O1 O 0.56271(8) 0.24614(13) 0.64577(8)
C1 C 0.44965(11) 0.67745(19) 0.96428(13)
H1 H 0.4063 0.6011 0.9680
H2 H 0.4313 0.7258 0.9058
H3 H 0.4499 0.7451 1.0135
C3 C 0.56243(11) 0.50788(17) 0.86896(12)
C5 C 0.48278(11) 0.47269(19) 0.80598(12)
H7 H 0.4257 0.5084 0.8139
C7 C 0.48552(11) 0.38684(19) 0.73237(12)
H9 H 0.4305 0.3645 0.6903
C9 C 0.56828(11) 0.33303(18) 0.71953(12)
C11 C 0.64884(11) 0.36761(18) 0.78040(12)
H11 H 0.7059 0.3331 0.7716
C13 C 0.64458(11) 0.45317(18) 0.85405(12)
H13 H 0.6997 0.4754 0.8959
C15 C 0.64500(12) 0.18234(19) 0.63239(13)
H15 H 0.6318 0.1234 0.5777
H16 H 0.6710 0.1235 0.6850
H17 H 0.6888 0.2562 0.6252
C17 C 0.63968(10) 0.75604(17) 0.96611(11)
C19 C 0.62596(11) 0.85406(17) 0.89354(11)
C21 C 0.68716(11) 0.96627(17) 0.89681(11)
H21 H 0.6776 1.0317 0.8479
C23 C 0.76137(11) 0.98630(18) 0.96840(11)
C25 C 0.77407(11) 0.88916(18) 1.03890(12)
H23 H 0.8237 0.9022 1.0891
C27 C 0.71667(11) 0.77305(17) 1.03885(11)
C29 C 0.54895(11) 0.84252(17) 0.80965(11)
H25 H 0.5076 0.7643 0.8205
C31 C 0.58642(12) 0.8034(2) 0.72579(12)
H27 H 0.5358 0.7970 0.6728
H28 H 0.6178 0.7120 0.7358
H29 H 0.6296 0.8762 0.7153
C33 C 0.49176(11) 0.97860(19) 0.79312(12)
H33 H 0.4679 1.0008 0.8472
H34 H 0.4407 0.9650 0.7412
H35 H 0.5302 1.0567 0.7804
C35 C 0.82668(11) 1.1099(2) 0.96909(12)
H39 H 0.8087 1.1595 0.9094
C37 C 0.81899(14) 1.2153(2) 1.04305(14)
H41 H 0.8614 1.2938 1.0418
H42 H 0.8342 1.1684 1.1023
H43 H 0.7564 1.2517 1.0328
C39 C 0.92557(12) 1.0595(2) 0.97903(14)
H47 H 0.9656 1.1413 0.9787
H48 H 0.9298 0.9968 0.9284
H49 H 0.9445 1.0081 1.0364
C41 C 0.74198(12) 0.66853(19) 1.11705(12)
H53 H 0.6999 0.5856 1.1032
C43 C 0.72939(16) 0.7319(3) 1.20601(14)
H55 H 0.6665 0.7658 1.1992
H56 H 0.7718 0.8111 1.2227
H57 H 0.7418 0.6597 1.2536
C45 C 0.83939(13) 0.6146(2) 1.12667(13)
H61 H 0.8535 0.5481 1.1775
H62 H 0.8820 0.6945 1.1380
H63 H 0.8453 0.5666 1.0706
P2 P 0.94277(3) 0.10950(4) 0.51782(3)
O2 O 0.93138(8) -0.28025(13) 0.82874(8)
C2 C 1.05987(11) 0.17955(19) 0.54063(13)
H4 H 1.1027 0.1031 0.5356
H5 H 1.0749 0.2192 0.6020
H6 H 1.0645 0.2537 0.4965
C4 C 0.93892(11) 0.00326(16) 0.61790(11)
C6 C 0.85663(11) -0.02333(18) 0.64388(12)
H8 H 0.8030 0.0238 0.6130
C8 C 0.85030(12) -0.11653(18) 0.71353(12)
H10 H 0.7932 -0.1326 0.7298
C10 C 0.92867(11) -0.18613(17) 0.75918(11)
C12 C 1.01149(11) -0.16230(18) 0.73383(11)
H12 H 1.0649 -0.2102 0.7645
C14 C 1.01648(11) -0.06943(18) 0.66433(11)
H14 H 1.0735 -0.0545 0.6477
C16 C 0.84713(12) -0.31630(19) 0.85277(13)
H18 H 0.8587 -0.3831 0.9036
H19 H 0.8062 -0.3599 0.8006
H20 H 0.8186 -0.2307 0.8706
C18 C 0.86933(10) 0.26264(16) 0.52957(11)
C20 C 0.79843(11) 0.29359(17) 0.45292(11)
C22 C 0.73850(11) 0.40469(17) 0.45784(11)
H22 H 0.6911 0.4244 0.4067
C24 C 0.74590(11) 0.48780(17) 0.53543(11)
C26 C 0.81681(11) 0.45838(16) 0.60847(11)
H24 H 0.8238 0.5160 0.6611
C28 C 0.87834(10) 0.34760(16) 0.60798(11)
C30 C 0.78385(11) 0.20367(18) 0.36724(11)
H26 H 0.8454 0.1729 0.3588
C32 C 0.72992(13) 0.0703(2) 0.37953(13)
H30 H 0.7216 0.0125 0.3245
H31 H 0.6700 0.0971 0.3907
H32 H 0.7636 0.0160 0.4312
C34 C 0.73672(12) 0.2803(2) 0.28056(12)
H36 H 0.7718 0.3650 0.2723
H37 H 0.6748 0.3078 0.2854
H38 H 0.7334 0.2173 0.2284
C36 C 0.67925(11) 0.60745(19) 0.54003(11)
H40 H 0.6912 0.6414 0.6042
C38 C 0.69490(13) 0.7315(2) 0.48135(14)
H44 H 0.6508 0.8064 0.4854
H45 H 0.6869 0.7004 0.4182
H46 H 0.7571 0.7677 0.5025
C40 C 0.57992(12) 0.5584(2) 0.51528(14)
H50 H 0.5394 0.6387 0.5188
H51 H 0.5698 0.4847 0.5578
H52 H 0.5667 0.5204 0.4534
C42 C 0.95189(11) 0.32484(17) 0.69362(11)
H54 H 0.9871 0.2381 0.6846
C44 C 0.90967(12) 0.3002(2) 0.77651(12)
H58 H 0.8674 0.2199 0.7649
H59 H 0.8764 0.3851 0.7880
H60 H 0.9583 0.2799 0.8296
C46 C 1.01884(11) 0.44931(18) 0.70984(12)
H64 H 1.0456 0.4624 0.6565
H65 H 1.0675 0.4297 0.7630
H66 H 0.9862 0.5354 0.7204
loop_
_geom_bond_atom_site_label_1
_geom_bond_atom_site_label_2
_geom_bond_site_symmetry_1
_geom_bond_site_symmetry_2
P1 C1 1_555 1_555
P2 C2 1_555 1_555
O1 C9 1_555 1_555
O2 C10 1_555 1_555
C1 H1 1_555 1_555
H2 C1 1_555 1_555
H3 C1 1_555 1_555
C2 H4 1_555 1_555
H5 C2 1_555 1_555
H6 C2 1_555 1_555
C3 P1 1_555 1_555
C4 P2 1_555 1_555
C5 C3 1_555 1_555
H7 C5 1_555 1_555
C6 C4 1_555 1_555
H8 C6 1_555 1_555
C7 C5 1_555 1_555
H9 C7 1_555 1_555
C8 C6 1_555 1_555
H10 C8 1_555 1_555
C9 C7 1_555 1_555
C10 C8 1_555 1_555
C11 C9 1_555 1_555
H11 C11 1_555 1_555
C12 C10 1_555 1_555
H12 C12 1_555 1_555
C13 C3 1_555 1_555
H13 C13 1_555 1_555
C14 C4 1_555 1_555
H14 C14 1_555 1_555
C15 O1 1_555 1_555
H15 C15 1_555 1_555
H16 C15 1_555 1_555
H17 C15 1_555 1_555
C16 O2 1_555 1_555
H18 C16 1_555 1_555
H19 C16 1_555 1_555
H20 C16 1_555 1_555
C17 P1 1_555 1_555
C18 P2 1_555 1_555
C19 C17 1_555 1_555
C20 C18 1_555 1_555
C21 C19 1_555 1_555
H21 C21 1_555 1_555
C22 C20 1_555 1_555
H22 C22 1_555 1_555
C23 C21 1_555 1_555
C24 C22 1_555 1_555
C25 C23 1_555 1_555
H23 C25 1_555 1_555
C26 C24 1_555 1_555
H24 C26 1_555 1_555
C27 C17 1_555 1_555
C28 C18 1_555 1_555
C29 C19 1_555 1_555
H25 C29 1_555 1_555
C30 C20 1_555 1_555
H26 C30 1_555 1_555
C31 C29 1_555 1_555
H27 C31 1_555 1_555
H28 C31 1_555 1_555
H29 C31 1_555 1_555
C32 C30 1_555 1_555
H30 C32 1_555 1_555
H31 C32 1_555 1_555
H32 C32 1_555 1_555
C33 C29 1_555 1_555
H33 C33 1_555 1_555
H34 C33 1_555 1_555
H35 C33 1_555 1_555
C34 C30 1_555 1_555
H36 C34 1_555 1_555
H37 C34 1_555 1_555
H38 C34 1_555 1_555
C35 C23 1_555 1_555
H39 C35 1_555 1_555
C36 C24 1_555 1_555
H40 C36 1_555 1_555
C37 C35 1_555 1_555
H41 C37 1_555 1_555
H42 C37 1_555 1_555
H43 C37 1_555 1_555
C38 C36 1_555 1_555
H44 C38 1_555 1_555
H45 C38 1_555 1_555
H46 C38 1_555 1_555
C39 C35 1_555 1_555
H47 C39 1_555 1_555
H48 C39 1_555 1_555
H49 C39 1_555 1_555
C40 C36 1_555 1_555
H50 C40 1_555 1_555
H51 C40 1_555 1_555
H52 C40 1_555 1_555
C41 C27 1_555 1_555
H53 C41 1_555 1_555
C42 C28 1_555 1_555
H54 C42 1_555 1_555
C43 C41 1_555 1_555
H55 C43 1_555 1_555
H56 C43 1_555 1_555
H57 C43 1_555 1_555
C44 C42 1_555 1_555
H58 C44 1_555 1_555
H59 C44 1_555 1_555
H60 C44 1_555 1_555
C45 C41 1_555 1_555
H61 C45 1_555 1_555
H62 C45 1_555 1_555
H63 C45 1_555 1_555
C46 C42 1_555 1_555
H64 C46 1_555 1_555
H65 C46 1_555 1_555
H66 C46 1_555 1_555
C11 C13 1_555 1_555
C12 C14 1_555 1_555
C25 C27 1_555 1_555
C26 C28 1_555 1_555

#END
