
#######################################################################
#
#                 Cambridge Crystallographic Data Centre
#                                CCDC 
#
#######################################################################
#
# If this CIF has been generated from an entry in the Cambridge 
# Structural Database, then it will include bibliographic, chemical, 
# crystal, experimental, refinement or atomic coordinate data resulting 
# from the CCDC's data processing and validation procedures.
#
#######################################################################

data_ODUKAA
_chemical_formula_moiety         'C23 H33 P1'
_chemical_name_systematic        
rac-(2,4,6-Tri-isopropylphenyl)-methyl-(p-tolyl)phosphine
_symmetry_cell_setting           monoclinic
_symmetry_space_group_name_H-M   'P 21/n'
_symmetry_Int_Tables_number      14
_space_group_name_Hall           '-P 2yn'
loop_
_symmetry_equiv_pos_site_id
_symmetry_equiv_pos_as_xyz
1 x,y,z
2 1/2-x,1/2+y,1/2-z
3 -x,-y,-z
4 1/2+x,1/2-y,1/2+z
_cell_length_a                   9.0974(8)
_cell_length_b                   16.3968(14)
_cell_length_c                   13.6909(12)
_cell_angle_alpha                90
_cell_angle_beta                 96.950(2)
_cell_angle_gamma                90
_cell_volume                     2027.24
_exptl_crystal_colour            colorless
_exptl_crystal_description       block
_cell_formula_units_Z            4
loop_
_atom_site_label
_atom_site_type_symbol
_atom_site_fract_x
_atom_site_fract_y
_atom_site_fract_z
P1 P 0.84030(7) 0.41546(4) 0.85026(5)
C1 C 0.7653(3) 0.31588(14) 0.87780(17)
C2 C 0.8085(3) 0.24288(15) 0.83722(18)
H1 H 0.8725 0.2443 0.7873
C3 C 0.7593(3) 0.16796(15) 0.86877(19)
H2 H 0.7902 0.1191 0.8399
C4 C 0.6662(3) 0.16343(15) 0.94143(18)
C5 C 0.6239(3) 0.23605(16) 0.98226(19)
H3 H 0.5604 0.2345 1.0325
C6 C 0.6723(3) 0.31073(15) 0.95131(18)
H4 H 0.6416 0.3593 0.9807
C7 C 0.6132(4) 0.08275(16) 0.9758(2)
H5 H 0.6543 0.0386 0.9392
H6 H 0.5048 0.0808 0.9644
H7 H 0.6459 0.0763 1.0463
C8 C 0.9157(3) 0.39856(17) 0.7324(2)
H8 H 1.0053 0.3650 0.7439
H9 H 0.9402 0.4512 0.7046
H10 H 0.8417 0.3705 0.6864
C9 C 0.6738(2) 0.47901(13) 0.81729(16)
C10 C 0.5547(3) 0.45829(14) 0.74441(16)
C11 C 0.4373(3) 0.51201(15) 0.72462(17)
H11 H 0.3590 0.4978 0.6752
C12 C 0.4285(3) 0.58584(14) 0.77381(17)
C13 C 0.5443(3) 0.60481(14) 0.84543(17)
H12 H 0.5403 0.6546 0.8805
C14 C 0.6668(3) 0.55391(14) 0.86835(17)
C15 C 0.5470(3) 0.37903(14) 0.68603(17)
H13 H 0.6366 0.3460 0.7097
C16 C 0.4099(3) 0.32919(16) 0.7032(2)
H14 H 0.4106 0.3190 0.7738
H15 H 0.4112 0.2770 0.6683
H16 H 0.3204 0.3596 0.6784
C17 C 0.5488(3) 0.39558(16) 0.57622(18)
H17 H 0.6372 0.4273 0.5666
H18 H 0.4600 0.4264 0.5508
H19 H 0.5503 0.3437 0.5409
C18 C 0.2964(3) 0.64194(15) 0.75058(18)
H20 H 0.3139 0.6914 0.7932
C19 C 0.1543(3) 0.6015(2) 0.7749(3)
H21 H 0.1670 0.5840 0.8438
H22 H 0.1321 0.5540 0.7322
H23 H 0.0724 0.6406 0.7643
C20 C 0.2798(3) 0.67022(18) 0.6434(2)
H24 H 0.3719 0.6963 0.6293
H25 H 0.1982 0.7094 0.6323
H26 H 0.2587 0.6231 0.5999
C21 C 0.7835(3) 0.58179(15) 0.95136(18)
H27 H 0.8687 0.5429 0.9548
C22 C 0.8418(3) 0.66706(18) 0.9334(2)
H28 H 0.9163 0.6824 0.9881
H29 H 0.7597 0.7062 0.9288
H30 H 0.8867 0.6674 0.8719
C23 C 0.7207(4) 0.5787(2) 1.0495(2)
H31 H 0.6843 0.5236 1.0603
H32 H 0.6390 0.6177 1.0487
H33 H 0.7986 0.5928 1.1027
loop_
_geom_bond_atom_site_label_1
_geom_bond_atom_site_label_2
_geom_bond_site_symmetry_1
_geom_bond_site_symmetry_2
P1 C1 1_555 1_555
C1 C2 1_555 1_555
C2 H1 1_555 1_555
C3 C2 1_555 1_555
H2 C3 1_555 1_555
C4 C3 1_555 1_555
C5 C4 1_555 1_555
H3 C5 1_555 1_555
C6 C1 1_555 1_555
H4 C6 1_555 1_555
C7 C4 1_555 1_555
H5 C7 1_555 1_555
H6 C7 1_555 1_555
H7 C7 1_555 1_555
C8 P1 1_555 1_555
H8 C8 1_555 1_555
H9 C8 1_555 1_555
H10 C8 1_555 1_555
C9 P1 1_555 1_555
C10 C9 1_555 1_555
C11 C10 1_555 1_555
H11 C11 1_555 1_555
C12 C11 1_555 1_555
C13 C12 1_555 1_555
H12 C13 1_555 1_555
C14 C9 1_555 1_555
C15 C10 1_555 1_555
H13 C15 1_555 1_555
C16 C15 1_555 1_555
H14 C16 1_555 1_555
H15 C16 1_555 1_555
H16 C16 1_555 1_555
C17 C15 1_555 1_555
H17 C17 1_555 1_555
H18 C17 1_555 1_555
H19 C17 1_555 1_555
C18 C12 1_555 1_555
H20 C18 1_555 1_555
C19 C18 1_555 1_555
H21 C19 1_555 1_555
H22 C19 1_555 1_555
H23 C19 1_555 1_555
C20 C18 1_555 1_555
H24 C20 1_555 1_555
H25 C20 1_555 1_555
H26 C20 1_555 1_555
C21 C14 1_555 1_555
H27 C21 1_555 1_555
C22 C21 1_555 1_555
H28 C22 1_555 1_555
H29 C22 1_555 1_555
H30 C22 1_555 1_555
C23 C21 1_555 1_555
H31 C23 1_555 1_555
H32 C23 1_555 1_555
H33 C23 1_555 1_555
C5 C6 1_555 1_555
C13 C14 1_555 1_555

#END
