
#######################################################################
#
#                 Cambridge Crystallographic Data Centre
#                                CCDC 
#
#######################################################################
#
# If this CIF has been generated from an entry in the Cambridge 
# Structural Database, then it will include bibliographic, chemical, 
# crystal, experimental, refinement or atomic coordinate data resulting 
# from the CCDC's data processing and validation procedures.
#
#######################################################################

data_ODUNAC
_chemical_formula_moiety         '2(C16 H12 S9 1+),2(Cl1 O4 1-),C4 H8 O1'
_chemical_name_systematic        
'bis(syn-2,5-bis(4,5-Ethylenedithiodithiafulvenylidenemethyl)thiophene cation radical) diperchlorate tetrahydrofuran solvate'
_symmetry_cell_setting           orthorhombic
_symmetry_space_group_name_H-M   'P b c a'
_symmetry_Int_Tables_number      61
_space_group_name_Hall           '-P 2ac 2ab'
loop_
_symmetry_equiv_pos_site_id
_symmetry_equiv_pos_as_xyz
1 x,y,z
2 1/2+x,y,1/2-z
3 x,1/2-y,1/2+z
4 1/2-x,1/2+y,z
5 -x,-y,-z
6 1/2-x,-y,1/2+z
7 -x,1/2+y,1/2-z
8 1/2+x,1/2-y,-z
_cell_length_a                   13.971(4)
_cell_length_b                   26.23(1)
_cell_length_c                   26.75(1)
_cell_angle_alpha                90
_cell_angle_beta                 90
_cell_angle_gamma                90
_cell_volume                     9802.79
_exptl_crystal_colour            black
_exptl_crystal_description       plate
_cell_formula_units_Z            8
loop_
_atom_site_label
_atom_site_type_symbol
_atom_site_fract_x
_atom_site_fract_y
_atom_site_fract_z
Cl1 Cl 0.4703(8) 0.1809(3) 0.2538(3)
O1 O 0.564(5) 0.169(2) 0.268(2)
O2 O 0.469(3) 0.215(1) 0.216(1)
O3 O 0.397(2) 0.149(1) 0.238(1)
O4 O 0.411(2) 0.203(1) 0.292(1)
Cl2 Cl 0.2354(5) 0.1791(2) 0.5164(2)
O5 O 0.280(1) 0.1301(6) 0.5198(6)
O6 O 0.251(1) 0.2066(6) 0.5619(6)
O7 O 0.271(1) 0.2056(7) 0.4753(8)
O8 O 0.134(1) 0.1732(6) 0.5101(7)
S1 S 0.1311(4) 0.4857(2) 0.3729(2)
S2 S 0.1017(4) 0.4119(2) 0.4596(2)
S3 S 0.1082(4) 0.4577(2) 0.5577(2)
S4 S 0.0622(6) 0.3079(2) 0.4944(2)
S5 S 0.0685(5) 0.3630(2) 0.6135(2)
S6 S 0.1255(4) 0.4234(2) 0.2756(2)
S7 S 0.1232(4) 0.4863(2) 0.1859(2)
S8 S 0.1126(5) 0.3258(2) 0.2231(2)
S9 S 0.1031(5) 0.3974(2) 0.1170(2)
C1 C 0.120(1) 0.4661(7) 0.4940(7)
C2 C 0.143(1) 0.5119(7) 0.4737(7)
C3 C 0.148(1) 0.5264(7) 0.4238(7)
C4 C 0.169(1) 0.5759(7) 0.4070(7)
C5 C 0.169(1) 0.5795(7) 0.3558(7)
C6 C 0.149(1) 0.5343(6) 0.3303(7)
C7 C 0.147(1) 0.5274(7) 0.2778(7)
C8 C 0.136(1) 0.4837(6) 0.2511(7)
C9 C 0.116(1) 0.4195(7) 0.1778(7)
C10 C 0.120(1) 0.3912(7) 0.2186(7)
C11 C 0.028(2) 0.348(1) 0.132(1)
C12 C 0.059(2) 0.309(1) 0.164(1)
C13 C 0.083(1) 0.3714(7) 0.5095(7)
C14 C 0.085(1) 0.3925(7) 0.5557(7)
C15 C 0.031(2) 0.282(1) 0.552(1)
C16 C -0.006(2) 0.3137(9) 0.5899(9)
H1 H 0.1546 0.5575 0.2585
H2 H 0.1809 0.6107 0.3389
H3 H 0.1818 0.6037 0.4286
H4 H 0.1590 0.5378 0.4971
H5 H 0.0049 0.2883 0.1717
H6 H 0.1050 0.2892 0.1466
H7 H 0.0111 0.3320 0.1010
H8 H -0.0277 0.3626 0.1462
H9 H 0.0865 0.2669 0.5656
H10 H -0.0164 0.2570 0.5461
H11 H -0.0623 0.3294 0.5770
H12 H -0.0228 0.2923 0.6173
S10 S 0.3868(4) 0.5129(2) 0.3756(2)
S11 S 0.3748(4) 0.4361(2) 0.4621(2)
S12 S 0.3594(4) 0.4837(2) 0.5588(2)
S13 S 0.3532(5) 0.3310(2) 0.4998(2)
S14 S 0.3359(5) 0.3901(2) 0.6173(2)
S15 S 0.3776(4) 0.4511(2) 0.2787(2)
S16 S 0.3790(5) 0.5118(2) 0.1889(2)
S17 S 0.3672(5) 0.3524(2) 0.2292(2)
S18 S 0.3632(5) 0.4256(2) 0.1190(2)
C17 C 0.372(1) 0.4947(7) 0.4953(7)
C18 C 0.382(2) 0.5405(7) 0.4745(8)
C19 C 0.387(1) 0.5547(7) 0.4269(7)
C20 C 0.394(1) 0.6044(7) 0.4091(7)
C21 C 0.400(2) 0.6074(8) 0.3583(8)
C22 C 0.392(1) 0.5607(7) 0.3323(7)
C23 C 0.392(1) 0.5566(7) 0.2785(7)
C24 C 0.384(1) 0.5107(6) 0.2529(7)
C25 C 0.371(2) 0.4466(7) 0.1803(8)
C26 C 0.372(1) 0.4180(7) 0.2226(7)
C27 C 0.409(2) 0.3627(8) 0.1296(8)
C28 C 0.356(2) 0.3308(8) 0.1666(9)
C29 C 0.360(2) 0.3972(7) 0.5137(7)
C30 C 0.351(2) 0.4180(8) 0.5592(8)
C31 C 0.392(2) 0.3067(9) 0.5582(9)
C32 C 0.334(2) 0.3235(9) 0.6021(9)
H13 H 0.3966 0.5871 0.2595
H14 H 0.4083 0.6390 0.3414
H15 H 0.3941 0.6335 0.4303
H16 H 0.3858 0.5678 0.4977
H17 H 0.2905 0.3307 0.1579
H18 H 0.3807 0.2970 0.1648
H19 H 0.4730 0.3659 0.1410
H20 H 0.4081 0.3451 0.0986
H21 H 0.4561 0.3173 0.5633
H22 H 0.3894 0.2706 0.5566
H23 H 0.2695 0.3143 0.5959
H24 H 0.3570 0.3054 0.6305
O9 O 0.139(1) 0.3269(7) 0.3640(7)
C33 C 0.233(2) 0.333(1) 0.368(1)
C34 C 0.282(2) 0.281(1) 0.363(1)
C35 C 0.201(2) 0.244(1) 0.354(1)
C36 C 0.113(2) 0.276(1) 0.358(1)
H25 H 0.2480 0.3477 0.4000
H26 H 0.2555 0.3554 0.3426
H27 H 0.3151 0.2729 0.3932
H28 H 0.3261 0.2815 0.3361
H29 H 0.2017 0.2176 0.3776
H30 H 0.2062 0.2301 0.3210
H31 H 0.0752 0.2717 0.3293
H32 H 0.0780 0.2648 0.3868
loop_
_geom_bond_atom_site_label_1
_geom_bond_atom_site_label_2
_geom_bond_site_symmetry_1
_geom_bond_site_symmetry_2
Cl1 O1 1_555 1_555
Cl2 O5 1_555 1_555
S1 C3 1_555 1_555
S2 C1 1_555 1_555
S3 C1 1_555 1_555
S4 C13 1_555 1_555
S5 C14 1_555 1_555
S6 C8 1_555 1_555
S7 C8 1_555 1_555
S8 C10 1_555 1_555
S9 C9 1_555 1_555
S10 C19 1_555 1_555
S11 C17 1_555 1_555
S12 C17 1_555 1_555
S13 C29 1_555 1_555
S14 C30 1_555 1_555
S15 C24 1_555 1_555
S16 C24 1_555 1_555
S17 C26 1_555 1_555
S18 C25 1_555 1_555
O2 Cl1 1_555 1_555
O3 Cl1 1_555 1_555
O4 Cl1 1_555 1_555
O6 Cl2 1_555 1_555
O7 Cl2 1_555 1_555
O8 Cl2 1_555 1_555
O9 C33 1_555 1_555
C1 C2 1_555 1_555
C2 C3 1_555 1_555
C3 C4 1_555 1_555
C4 C5 1_555 1_555
C5 C6 1_555 1_555
C6 S1 1_555 1_555
C7 C6 1_555 1_555
C8 C7 1_555 1_555
C9 S7 1_555 1_555
C10 S6 1_555 1_555
C11 S9 1_555 1_555
C12 S8 1_555 1_555
C13 S2 1_555 1_555
C14 S3 1_555 1_555
C15 S4 1_555 1_555
C16 S5 1_555 1_555
C17 C18 1_555 1_555
C18 C19 1_555 1_555
C19 C20 1_555 1_555
C20 C21 1_555 1_555
C21 C22 1_555 1_555
C22 S10 1_555 1_555
C23 C22 1_555 1_555
C24 C23 1_555 1_555
C25 S16 1_555 1_555
C26 S15 1_555 1_555
C27 S18 1_555 1_555
C28 S17 1_555 1_555
C29 S11 1_555 1_555
C30 S12 1_555 1_555
C31 S13 1_555 1_555
C32 S14 1_555 1_555
C33 C34 1_555 1_555
C34 C35 1_555 1_555
C35 C36 1_555 1_555
C36 O9 1_555 1_555
H1 C7 1_555 1_555
H2 C5 1_555 1_555
H3 C4 1_555 1_555
H4 C2 1_555 1_555
H5 C12 1_555 1_555
H6 C12 1_555 1_555
H7 C11 1_555 1_555
H8 C11 1_555 1_555
H9 C15 1_555 1_555
H10 C15 1_555 1_555
H11 C16 1_555 1_555
H12 C16 1_555 1_555
H13 C23 1_555 1_555
H14 C21 1_555 1_555
H15 C20 1_555 1_555
H16 C18 1_555 1_555
H17 C28 1_555 1_555
H18 C28 1_555 1_555
H19 C27 1_555 1_555
H20 C27 1_555 1_555
H21 C31 1_555 1_555
H22 C31 1_555 1_555
H23 C32 1_555 1_555
H24 C32 1_555 1_555
H25 C33 1_555 1_555
H26 C33 1_555 1_555
H27 C34 1_555 1_555
H28 C34 1_555 1_555
H29 C35 1_555 1_555
H30 C35 1_555 1_555
H31 C36 1_555 1_555
H32 C36 1_555 1_555
C9 C10 1_555 1_555
C11 C12 1_555 1_555
C13 C14 1_555 1_555
C15 C16 1_555 1_555
C25 C26 1_555 1_555
C27 C28 1_555 1_555
C29 C30 1_555 1_555
C31 C32 1_555 1_555

#END
