
#######################################################################
#
#                 Cambridge Crystallographic Data Centre
#                                CCDC 
#
#######################################################################
#
# If this CIF has been generated from an entry in the Cambridge 
# Structural Database, then it will include bibliographic, chemical, 
# crystal, experimental, refinement or atomic coordinate data resulting 
# from the CCDC's data processing and validation procedures.
#
#######################################################################

data_ODUNIK
_chemical_formula_moiety         'C18 H12 S6 1+,Cl1 O4 1-,C1 H2 Cl2'
_chemical_name_systematic        
'syn-(1,2-bis(5-(dithiafulvenylidenemethyl)-2-thienyl)ethene cation radical) perchlorate dichloromethane solvate'
_symmetry_cell_setting           orthorhombic
_symmetry_space_group_name_H-M   'P b c a'
_symmetry_Int_Tables_number      61
_space_group_name_Hall           '-P 2ac 2ab'
loop_
_symmetry_equiv_pos_site_id
_symmetry_equiv_pos_as_xyz
1 x,y,z
2 1/2+x,y,1/2-z
3 x,1/2-y,1/2+z
4 1/2-x,1/2+y,z
5 -x,-y,-z
6 1/2-x,-y,1/2+z
7 -x,1/2+y,1/2-z
8 1/2+x,1/2-y,-z
_cell_length_a                   36.83(1)
_cell_length_b                   12.613(8)
_cell_length_c                   10.493(3)
_cell_angle_alpha                90
_cell_angle_beta                 90
_cell_angle_gamma                90
_cell_volume                     4874.38
_exptl_crystal_colour            black
_exptl_crystal_description       prism
_cell_formula_units_Z            8
loop_
_atom_site_label
_atom_site_type_symbol
_atom_site_fract_x
_atom_site_fract_y
_atom_site_fract_z
Cl1 Cl 0.3184(3) -0.512(1) 0.480(1)
O1 O 0.3036(9) -0.525(3) 0.354(3)
O2 O 0.345(1) -0.575(4) 0.508(5)
O3 O 0.330(1) -0.403(3) 0.495(4)
O4 O 0.2886(9) -0.525(3) 0.563(3)
Cl2 Cl 0.4318(6) -0.089(2) 0.189(2)
Cl3 Cl 0.4585(6) 0.076(2) 0.056(2)
C19 C 0.417(2) 0.054(5) 0.138(5)
H13 H 0.4134 0.1009 0.2084
H14 H 0.3962 0.0558 0.0850
S1 S 0.4182(3) 0.154(1) 0.494(1)
S2 S 0.5743(3) 0.135(1) 0.445(1)
S3 S 0.3412(3) 0.154(1) 0.373(1)
S4 S 0.2844(3) 0.137(1) 0.559(1)
S5 S 0.7111(3) 0.135(1) 0.424(1)
S6 S 0.6476(3) 0.142(1) 0.589(1)
C1 C 0.3302(8) 0.133(3) 0.536(3)
C2 C 0.3531(8) 0.123(3) 0.628(3)
C3 C 0.3909(9) 0.144(4) 0.624(3)
C4 C 0.4131(9) 0.122(3) 0.725(3)
C5 C 0.450(1) 0.119(4) 0.713(4)
C6 C 0.4579(9) 0.128(3) 0.583(3)
C7 C 0.499(1) 0.135(3) 0.526(4)
C8 C 0.504(1) 0.146(4) 0.399(4)
C9 C 0.5407(8) 0.139(3) 0.351(3)
C10 C 0.548(1) 0.142(3) 0.218(3)
C11 C 0.585(1) 0.151(4) 0.203(3)
C12 C 0.6070(9) 0.131(3) 0.324(3)
C13 C 0.643(1) 0.149(4) 0.331(4)
C14 C 0.6643(9) 0.157(3) 0.430(3)
C15 C 0.692(1) 0.134(4) 0.657(3)
C16 C 0.7203(8) 0.127(3) 0.581(3)
C17 C 0.301(1) 0.151(4) 0.319(3)
C18 C 0.272(1) 0.151(4) 0.394(4)
H1 H 0.3436 0.0987 0.7069
H2 H 0.4026 0.1095 0.8064
H3 H 0.4677 0.1119 0.7793
H4 H 0.5195 0.1317 0.5813
H5 H 0.4838 0.1579 0.3440
H6 H 0.5300 0.1381 0.1523
H7 H 0.5956 0.1677 0.1233
H8 H 0.6546 0.1577 0.2511
H9 H 0.6947 0.1359 0.7470
H10 H 0.7443 0.1171 0.6126
H11 H 0.2979 0.1498 0.2293
H12 H 0.2483 0.1583 0.3641
loop_
_geom_bond_atom_site_label_1
_geom_bond_atom_site_label_2
_geom_bond_site_symmetry_1
_geom_bond_site_symmetry_2
Cl1 O1 1_555 1_555
Cl2 C19 1_555 1_555
Cl3 C19 1_555 1_555
S1 C3 1_555 1_555
S2 C9 1_555 1_555
S3 C1 1_555 1_555
S4 C1 1_555 1_555
S5 C14 1_555 1_555
S6 C14 1_555 1_555
O2 Cl1 1_555 1_555
O3 Cl1 1_555 1_555
O4 Cl1 1_555 1_555
C1 C2 1_555 1_555
C2 C3 1_555 1_555
C3 C4 1_555 1_555
C4 C5 1_555 1_555
C5 C6 1_555 1_555
C6 S1 1_555 1_555
C7 C6 1_555 1_555
C8 C7 1_555 1_555
C9 C8 1_555 1_555
C10 C9 1_555 1_555
C11 C10 1_555 1_555
C12 S2 1_555 1_555
C13 C12 1_555 1_555
C14 C13 1_555 1_555
C15 S6 1_555 1_555
C16 S5 1_555 1_555
C17 S3 1_555 1_555
C18 S4 1_555 1_555
C19 H13 1_555 1_555
H1 C2 1_555 1_555
H2 C4 1_555 1_555
H3 C5 1_555 1_555
H4 C7 1_555 1_555
H5 C8 1_555 1_555
H6 C10 1_555 1_555
H7 C11 1_555 1_555
H8 C13 1_555 1_555
H9 C15 1_555 1_555
H10 C16 1_555 1_555
H11 C17 1_555 1_555
H12 C18 1_555 1_555
H14 C19 1_555 1_555
C11 C12 1_555 1_555
C15 C16 1_555 1_555
C17 C18 1_555 1_555

#END
