
#######################################################################
#
#                 Cambridge Crystallographic Data Centre
#                                CCDC 
#
#######################################################################
#
# If this CIF has been generated from an entry in the Cambridge 
# Structural Database, then it will include bibliographic, chemical, 
# crystal, experimental, refinement or atomic coordinate data resulting 
# from the CCDC's data processing and validation procedures.
#
#######################################################################

data_ODUSEM
_chemical_formula_moiety         'C8 H2 F4 O4'
_chemical_name_systematic        
'2,4,5,6-Tetrafluorobenzene-1,3-dicarboxylic acid'
_symmetry_cell_setting           monoclinic
_symmetry_space_group_name_H-M   'P 21/n'
_symmetry_Int_Tables_number      14
_space_group_name_Hall           '-P 2yn'
loop_
_symmetry_equiv_pos_site_id
_symmetry_equiv_pos_as_xyz
1 x,y,z
2 1/2-x,1/2+y,1/2-z
3 -x,-y,-z
4 1/2+x,1/2-y,1/2+z
_cell_length_a                   8.9853(13)
_cell_length_b                   8.4483(12)
_cell_length_c                   11.3454(16)
_cell_angle_alpha                90
_cell_angle_beta                 110.804(2)
_cell_angle_gamma                90
_cell_volume                     805.083
_exptl_crystal_colour            colorless
_exptl_crystal_description       chunk
_cell_formula_units_Z            4
_exptl_crystal_recrystallization_method benzene/ethanol
loop_
_atom_site_label
_atom_site_type_symbol
_atom_site_fract_x
_atom_site_fract_y
_atom_site_fract_z
F1 F 0.32177(10) 0.20807(10) 0.68087(8)
F2 F 0.59954(11) 0.21582(10) 0.40527(8)
F3 F 0.36144(10) 0.10460(10) 0.47169(8)
F4 F 0.74889(9) 0.56351(10) 0.75147(7)
O1 O 0.95235(12) 0.46926(13) 0.64162(9)
H1 H 1.0263 0.4952 0.6164
O2 O 0.80705(12) 0.46702(12) 0.43472(9)
O3 O 0.54033(14) 0.58745(12) 0.87096(11)
H2 H 0.5318 0.6054 0.9411
O4 O 0.48713(14) 0.33864(13) 0.91222(10)
C1 C 0.82201(15) 0.44722(15) 0.54485(12)
C2 C 0.45983(16) 0.21622(15) 0.54290(13)
C3 C 0.44044(16) 0.26933(16) 0.65133(13)
C4 C 0.53825(15) 0.38689(15) 0.72551(12)
C5 C 0.58174(16) 0.27532(16) 0.50789(13)
C6 C 0.51911(15) 0.43930(16) 0.84548(13)
C7 C 0.68527(15) 0.39071(15) 0.58005(12)
C8 C 0.65715(15) 0.44602(16) 0.68582(12)
loop_
_geom_bond_atom_site_label_1
_geom_bond_atom_site_label_2
_geom_bond_site_symmetry_1
_geom_bond_site_symmetry_2
F1 C3 1_555 1_555
F2 C5 1_555 1_555
F3 C2 1_555 1_555
F4 C8 1_555 1_555
O1 H1 1_555 1_555
O2 C1 1_555 1_555
O3 H2 1_555 1_555
O4 C6 1_555 1_555
C1 O1 1_555 1_555
C2 C3 1_555 1_555
C3 C4 1_555 1_555
C4 C6 1_555 1_555
C5 C2 1_555 1_555
C6 O3 1_555 1_555
C7 C1 1_555 1_555
C8 C4 1_555 1_555
C5 C7 1_555 1_555
C7 C8 1_555 1_555

#END
