
#######################################################################
#
#                 Cambridge Crystallographic Data Centre
#                                CCDC 
#
#######################################################################
#
# If this CIF has been generated from an entry in the Cambridge 
# Structural Database, then it will include bibliographic, chemical, 
# crystal, experimental, refinement or atomic coordinate data resulting 
# from the CCDC's data processing and validation procedures.
#
#######################################################################

data_ODUSAJ
_chemical_formula_moiety         'C23 H35 N1 O6,H2 O1'
_chemical_name_systematic        
'4-Methoxy-6,6,9a-trimethyl-3-oxo-1,3,4,5,5a,6,7,8,9,9a-decahydronaphtho[1,2-c]furan-9-yl N-acetylvalinate monohydrate'
_symmetry_cell_setting           orthorhombic
_symmetry_space_group_name_H-M   'P 21 21 21'
_symmetry_Int_Tables_number      19
_space_group_name_Hall           'P 2ac 2ab'
loop_
_symmetry_equiv_pos_site_id
_symmetry_equiv_pos_as_xyz
1 x,y,z
2 1/2-x,-y,1/2+z
3 -x,1/2+y,1/2-z
4 1/2+x,1/2-y,-z
_cell_length_a                   10.9086(10)
_cell_length_b                   13.3669(13)
_cell_length_c                   17.8986(15)
_cell_angle_alpha                90
_cell_angle_beta                 90
_cell_angle_gamma                90
_cell_volume                     2609.87
_cell_formula_units_Z            4
loop_
_atom_site_label
_atom_site_type_symbol
_atom_site_fract_x
_atom_site_fract_y
_atom_site_fract_z
N1 N 0.4991(3) 0.3339(2) 0.67891(19)
H1 H 0.5120 0.3833 0.7086
O1 O 0.6315(2) 0.42774(17) 0.56639(12)
O2 O 0.8123(2) 0.57259(18) 0.76351(12)
O3 O 0.8868(3) 0.2692(2) 0.70417(17)
O4 O 0.9482(3) 0.3496(2) 0.80770(17)
O5 O 0.5501(3) 0.3094(2) 0.49155(17)
O6 O 0.5131(3) 0.1691(2) 0.66026(16)
C1 C 0.7340(3) 0.4429(3) 0.51388(18)
H2 H 0.7539 0.3794 0.4893
C2 C 0.6960(4) 0.5203(3) 0.4549(2)
H3 H 0.7605 0.5263 0.4179
H4 H 0.6225 0.4975 0.4297
C3 C 0.6721(3) 0.6222(3) 0.4897(2)
H5 H 0.6005 0.6172 0.5216
H6 H 0.6530 0.6692 0.4501
C4 C 0.7787(3) 0.6645(3) 0.53590(18)
C5 C 0.8183(3) 0.5831(2) 0.59269(16)
H7 H 0.7460 0.5742 0.6245
C6 C 0.9197(3) 0.6133(3) 0.64747(18)
H8 H 0.9990 0.6059 0.6236
H9 H 0.9097 0.6830 0.6613
C7 C 0.9149(3) 0.5485(3) 0.71710(19)
H10 H 0.9912 0.5559 0.7456
C8 C 0.8975(3) 0.4407(3) 0.6950(2)
C9 C 0.8626(3) 0.4098(3) 0.62755(19)
C10 C 0.8423(3) 0.4774(2) 0.56040(17)
C11 C 0.8536(4) 0.2978(3) 0.6294(2)
H11 H 0.7707 0.2763 0.6180
H12 H 0.9092 0.2681 0.5934
C12 C 0.9151(4) 0.3553(4) 0.7434(3)
C13 C 0.7304(4) 0.7559(3) 0.5779(2)
H13 H 0.6782 0.7344 0.6180
H14 H 0.6847 0.7975 0.5443
H15 H 0.7981 0.7931 0.5979
C14 C 0.8831(4) 0.7020(3) 0.4848(2)
H16 H 0.9542 0.7164 0.5145
H17 H 0.8572 0.7616 0.4594
H18 H 0.9027 0.6513 0.4488
C15 C 0.9599(3) 0.4660(3) 0.5115(2)
H19 H 0.9772 0.3963 0.5041
H20 H 1.0279 0.4972 0.5363
H21 H 0.9469 0.4975 0.4639
C16 C 0.5463(4) 0.3591(3) 0.5477(2)
C17 C 0.4465(3) 0.3545(3) 0.6070(3)
H22 H 0.3916 0.2990 0.5944
C18 C 0.5292(4) 0.2425(3) 0.7021(2)
C19 C 0.5847(5) 0.2295(4) 0.7771(2)
H23 H 0.5394 0.1800 0.8045
H24 H 0.5823 0.2919 0.8036
H25 H 0.6682 0.2081 0.7718
C20 C 0.3703(4) 0.4510(3) 0.6073(4)
H26 H 0.4237 0.5052 0.6246
C21 C 0.3255(5) 0.4790(4) 0.5310(4)
H27 H 0.2859 0.4224 0.5085
H28 H 0.3937 0.4992 0.5006
H29 H 0.2682 0.5332 0.5350
C22 C 0.2637(5) 0.4424(5) 0.6633(4)
H30 H 0.2084 0.4975 0.6564
H31 H 0.2955 0.4437 0.7133
H32 H 0.2207 0.3807 0.6551
C23 C 0.8264(4) 0.6637(3) 0.8039(2)
H33 H 0.9032 0.6629 0.8301
H34 H 0.7606 0.6705 0.8391
H35 H 0.8251 0.7190 0.7697
O7 O 0.4237(3) -0.0109(2) 0.72002(19)
H36 H 0.4612 0.0390 0.7015
H37 H 0.3496 0.0060 0.7275
loop_
_geom_bond_atom_site_label_1
_geom_bond_atom_site_label_2
_geom_bond_site_symmetry_1
_geom_bond_site_symmetry_2
N1 H1 1_555 1_555
O1 C1 1_555 1_555
O2 C7 1_555 1_555
O3 C11 1_555 1_555
O4 C12 1_555 1_555
O5 C16 1_555 1_555
O6 C18 1_555 1_555
C1 H2 1_555 1_555
C2 C1 1_555 1_555
H3 C2 1_555 1_555
H4 C2 1_555 1_555
C3 C2 1_555 1_555
H5 C3 1_555 1_555
H6 C3 1_555 1_555
C4 C3 1_555 1_555
C5 C4 1_555 1_555
H7 C5 1_555 1_555
C6 C5 1_555 1_555
H8 C6 1_555 1_555
H9 C6 1_555 1_555
C7 C6 1_555 1_555
H10 C7 1_555 1_555
C8 C7 1_555 1_555
C9 C8 1_555 1_555
C10 C1 1_555 1_555
C11 C9 1_555 1_555
H11 C11 1_555 1_555
H12 C11 1_555 1_555
C12 O3 1_555 1_555
C13 C4 1_555 1_555
H13 C13 1_555 1_555
H14 C13 1_555 1_555
H15 C13 1_555 1_555
C14 C4 1_555 1_555
H16 C14 1_555 1_555
H17 C14 1_555 1_555
H18 C14 1_555 1_555
C15 C10 1_555 1_555
H19 C15 1_555 1_555
H20 C15 1_555 1_555
H21 C15 1_555 1_555
C16 O1 1_555 1_555
C17 N1 1_555 1_555
H22 C17 1_555 1_555
C18 N1 1_555 1_555
C19 C18 1_555 1_555
H23 C19 1_555 1_555
H24 C19 1_555 1_555
H25 C19 1_555 1_555
C20 C17 1_555 1_555
H26 C20 1_555 1_555
C21 C20 1_555 1_555
H27 C21 1_555 1_555
H28 C21 1_555 1_555
H29 C21 1_555 1_555
C22 C20 1_555 1_555
H30 C22 1_555 1_555
H31 C22 1_555 1_555
H32 C22 1_555 1_555
C23 O2 1_555 1_555
H33 C23 1_555 1_555
H34 C23 1_555 1_555
H35 C23 1_555 1_555
O7 H36 1_555 1_555
H37 O7 1_555 1_555
C5 C10 1_555 1_555
C8 C12 1_555 1_555
C9 C10 1_555 1_555
C16 C17 1_555 1_555

#END
