
#######################################################################
#
#                 Cambridge Crystallographic Data Centre
#                                CCDC 
#
#######################################################################
#
# If this CIF has been generated from an entry in the Cambridge 
# Structural Database, then it will include bibliographic, chemical, 
# crystal, experimental, refinement or atomic coordinate data resulting 
# from the CCDC's data processing and validation procedures.
#
#######################################################################

data_ODUVAK
_chemical_formula_moiety         'C19 H19 N1 O2'
_chemical_name_systematic        
(1S,5'R)-5'-Phenyl-1,2,2',3,3',4,5',6'-octahydro-spiro(naphthalene-1,3'-(1',4')oxazine)-2'-one
_symmetry_cell_setting           monoclinic
_symmetry_space_group_name_H-M   'P 21'
_symmetry_Int_Tables_number      4
_space_group_name_Hall           'P 2yb'
loop_
_symmetry_equiv_pos_site_id
_symmetry_equiv_pos_as_xyz
1 x,y,z
2 -x,1/2+y,-z
_cell_length_a                   6.3011(7)
_cell_length_b                   10.3292(13)
_cell_length_c                   11.8036(15)
_cell_angle_alpha                90
_cell_angle_beta                 96.589(2)
_cell_angle_gamma                90
_cell_volume                     763.167
_exptl_crystal_colour            colorless
_chemical_melting_point          '118 deg.C'
_cell_formula_units_Z            2
loop_
_atom_site_label
_atom_site_type_symbol
_atom_site_fract_x
_atom_site_fract_y
_atom_site_fract_z
N1 N 0.2107(3) 0.5205(2) 0.8455(1)
O1 O 0.6075(3) 0.3517(2) 0.7105(1)
O2 O 0.4308(2) 0.2878(1) 0.8496(1)
C1 C 0.4216(3) 0.6034(2) 0.7052(2)
C2 C 0.3521(4) 0.6726(2) 0.6064(2)
C3 C 0.4663(5) 0.7835(2) 0.5818(2)
C4 C 0.6414(5) 0.8256(3) 0.6528(2)
C5 C 0.7071(4) 0.7579(2) 0.7522(2)
C6 C 0.5970(4) 0.6484(2) 0.7776(2)
C7 C 0.1577(4) 0.6314(2) 0.5272(2)
C8 C 0.0121(4) 0.5401(3) 0.5819(2)
C9 C 0.1422(4) 0.4309(2) 0.6423(2)
C10 C 0.3049(3) 0.4839(3) 0.7410(1)
C11 C 0.4649(3) 0.3730(2) 0.7672(2)
C12 C 0.3001(3) 0.3199(2) 0.9396(2)
C13 C 0.1199(3) 0.4129(2) 0.9038(1)
C14 C 0.0330(3) 0.4595(2) 1.0121(2)
C15 C -0.1503(3) 0.4052(2) 1.0462(2)
C16 C -0.2201(4) 0.4399(3) 1.1499(2)
C17 C -0.1074(4) 0.5309(2) 1.2188(2)
C18 C 0.0750(4) 0.5862(2) 1.1858(2)
C19 C 0.1468(4) 0.5510(2) 1.0829(2)
H1 H 0.1173 0.5781 0.8304
H2 H 0.4324 0.8303 0.5187
H3 H 0.7030 0.8911 0.6278
H4 H 0.8184 0.7924 0.7968
H5 H 0.6540 0.6030 0.8400
H6 H 0.0846 0.6944 0.5044
H7 H 0.2101 0.5898 0.4644
H8 H -0.0870 0.4921 0.5208
H9 H -0.0423 0.5975 0.6362
H10 H 0.0628 0.3670 0.6778
H11 H 0.2419 0.3862 0.5944
H12 H 0.3943 0.3562 1.0050
H13 H 0.2505 0.2408 0.9619
H14 H 0.0047 0.3729 0.8594
H15 H -0.2206 0.3440 0.9932
H16 H -0.3459 0.4029 1.1652
H17 H -0.1433 0.5715 1.2789
H18 H 0.1489 0.6543 1.2266
H19 H 0.2686 0.5912 1.0631
loop_
_geom_bond_atom_site_label_1
_geom_bond_atom_site_label_2
_geom_bond_site_symmetry_1
_geom_bond_site_symmetry_2
N1 C10 1_555 1_555
O1 C11 1_555 1_555
O2 C11 1_555 1_555
C1 C2 1_555 1_555
C2 C3 1_555 1_555
C3 C4 1_555 1_555
C4 C5 1_555 1_555
C5 C6 1_555 1_555
C6 C1 1_555 1_555
C7 C2 1_555 1_555
C8 C7 1_555 1_555
C9 C8 1_555 1_555
C10 C1 1_555 1_555
C11 C10 1_555 1_555
C12 O2 1_555 1_555
C13 N1 1_555 1_555
C14 C13 1_555 1_555
C15 C14 1_555 1_555
C16 C15 1_555 1_555
C17 C16 1_555 1_555
C18 C17 1_555 1_555
C19 C14 1_555 1_555
H1 N1 1_555 1_555
H2 C3 1_555 1_555
H3 C4 1_555 1_555
H4 C5 1_555 1_555
H5 C6 1_555 1_555
H6 C7 1_555 1_555
H7 C7 1_555 1_555
H8 C8 1_555 1_555
H9 C8 1_555 1_555
H10 C9 1_555 1_555
H11 C9 1_555 1_555
H12 C12 1_555 1_555
H13 C12 1_555 1_555
H14 C13 1_555 1_555
H15 C15 1_555 1_555
H16 C16 1_555 1_555
H17 C17 1_555 1_555
H18 C18 1_555 1_555
H19 C19 1_555 1_555
C9 C10 1_555 1_555
C12 C13 1_555 1_555
C18 C19 1_555 1_555

#END
