
#######################################################################
#
#                 Cambridge Crystallographic Data Centre
#                                CCDC 
#
#######################################################################
#
# If this CIF has been generated from an entry in the Cambridge 
# Structural Database, then it will include bibliographic, chemical, 
# crystal, experimental, refinement or atomic coordinate data resulting 
# from the CCDC's data processing and validation procedures.
#
#######################################################################

data_ODUWIV
_chemical_formula_moiety         'C23 H18 F1 N1 O3'
_chemical_name_systematic        
1-Benzyl-3-(2-(4-fluorophenyl)-2-oxoethyl)-3-hydroxy-1,3-dihydro-2H-indol-2-one
_symmetry_cell_setting           monoclinic
_symmetry_space_group_name_H-M   'C 2/c'
_symmetry_Int_Tables_number      15
_space_group_name_Hall           '-C 2yn'
loop_
_symmetry_equiv_pos_site_id
_symmetry_equiv_pos_as_xyz
1 x,y,z
2 -x,y,1/2-z
3 1/2+x,1/2+y,z
4 1/2-x,1/2+y,1/2-z
5 -x,-y,-z
6 x,-y,1/2+z
7 1/2-x,1/2-y,-z
8 1/2+x,1/2-y,1/2+z
_cell_length_a                   17.9074(18)
_cell_length_b                   12.6049(12)
_cell_length_c                   17.3136(17)
_cell_angle_alpha                90
_cell_angle_beta                 109.254(2)
_cell_angle_gamma                90
_cell_volume                     3689.45
_exptl_crystal_colour            colorless
_exptl_crystal_description       prism
_cell_formula_units_Z            8
loop_
_atom_site_label
_atom_site_type_symbol
_atom_site_fract_x
_atom_site_fract_y
_atom_site_fract_z
O1 O 0.28328(6) 0.35772(8) 0.11327(7)
H1 H 0.3003 0.3086 0.0928
O2 O 0.04438(7) 0.27780(9) 0.04711(8)
O3 O 0.16698(7) 0.32799(9) -0.05724(7)
C1 C 0.17887(9) 0.23559(11) 0.11220(10)
H2 H 0.2038 0.1852 0.0860
H3 H 0.2012 0.2246 0.1708
C2 C 0.17106(9) 0.43645(11) 0.13399(9)
N1 N 0.12397(8) 0.47213(9) -0.00347(7)
C3 C 0.12922(9) 0.61535(12) -0.10033(9)
C4 C 0.12809(8) 0.50851(11) 0.07505(9)
C5 C 0.19969(9) 0.34778(11) 0.09258(9)
C6 C 0.09164(9) 0.21197(12) 0.08567(9)
C7 C 0.16130(9) 0.37738(12) 0.00127(9)
C8 C 0.06375(9) 0.10796(11) 0.10632(9)
C9 C 0.09540(9) 0.59905(11) 0.09481(10)
H4 H 0.0665 0.6463 0.0548
C10 C 0.18254(10) 0.45537(12) 0.21553(10)
H5 H 0.2111 0.4079 0.2555
C11 C 0.15047(11) 0.54690(13) 0.23693(10)
H6 H 0.1580 0.5610 0.2917
C12 C 0.10758(10) 0.61674(12) 0.17759(11)
H7 H 0.0862 0.6771 0.1931
C13 C 0.08298(9) 0.52593(12) -0.07994(9)
H8 H 0.0335 0.5540 -0.0772
H9 H 0.0703 0.4744 -0.1240
F1 F -0.02265(8) -0.17301(9) 0.15994(10)
C14 C 0.21093(10) 0.61983(14) -0.07137(10)
H10 H 0.2396 0.5668 -0.0369
C15 C -0.01689(10) 0.08559(13) 0.07688(11)
H11 H -0.0516 0.1353 0.0444
C16 C 0.08842(12) 0.69512(14) -0.15161(11)
H12 H 0.0334 0.6934 -0.1717
C17 C 0.00632(12) -0.08022(13) 0.14298(13)
C18 C 0.12842(14) 0.77772(15) -0.17354(13)
H13 H 0.1001 0.8308 -0.2083
C19 C 0.11449(11) 0.03346(13) 0.15517(12)
H14 H 0.1685 0.0473 0.1755
C20 C -0.04606(12) -0.00879(14) 0.09501(13)
H15 H -0.0999 -0.0235 0.0751
C21 C 0.20906(15) 0.78156(15) -0.14446(12)
H16 H 0.2358 0.8372 -0.1591
C22 C 0.25028(12) 0.70311(16) -0.09361(12)
H17 H 0.3052 0.7056 -0.0737
C23 C 0.08572(13) -0.06147(14) 0.17414(14)
H18 H 0.1197 -0.1113 0.2073
loop_
_geom_bond_atom_site_label_1
_geom_bond_atom_site_label_2
_geom_bond_site_symmetry_1
_geom_bond_site_symmetry_2
O1 H1 1_555 1_555
O2 C6 1_555 1_555
O3 C7 1_555 1_555
C1 H2 1_555 1_555
H3 C1 1_555 1_555
C2 C4 1_555 1_555
N1 C4 1_555 1_555
C3 C13 1_555 1_555
C4 C9 1_555 1_555
C5 O1 1_555 1_555
C6 C1 1_555 1_555
C7 N1 1_555 1_555
C8 C6 1_555 1_555
C9 H4 1_555 1_555
C10 C2 1_555 1_555
H5 C10 1_555 1_555
C11 C10 1_555 1_555
H6 C11 1_555 1_555
C12 C9 1_555 1_555
H7 C12 1_555 1_555
C13 N1 1_555 1_555
H8 C13 1_555 1_555
H9 C13 1_555 1_555
F1 C17 1_555 1_555
C14 C3 1_555 1_555
H10 C14 1_555 1_555
C15 C8 1_555 1_555
H11 C15 1_555 1_555
C16 C3 1_555 1_555
H12 C16 1_555 1_555
C17 C20 1_555 1_555
C18 C16 1_555 1_555
H13 C18 1_555 1_555
C19 C8 1_555 1_555
H14 C19 1_555 1_555
C20 C15 1_555 1_555
H15 C20 1_555 1_555
C21 C18 1_555 1_555
H16 C21 1_555 1_555
C22 C14 1_555 1_555
H17 C22 1_555 1_555
C23 C17 1_555 1_555
H18 C23 1_555 1_555
C1 C5 1_555 1_555
C2 C5 1_555 1_555
C5 C7 1_555 1_555
C11 C12 1_555 1_555
C19 C23 1_555 1_555
C21 C22 1_555 1_555

#END
