
#######################################################################
#
#                 Cambridge Crystallographic Data Centre
#                                CCDC 
#
#######################################################################
#
# If this CIF has been generated from an entry in the Cambridge 
# Structural Database, then it will include bibliographic, chemical, 
# crystal, experimental, refinement or atomic coordinate data resulting 
# from the CCDC's data processing and validation procedures.
#
#######################################################################

data_OFAHAH
_chemical_formula_moiety         'C10 H12 N4 O6'
_chemical_name_systematic        
3,7a-dinitro-1,2-dioxo-3a,4,5,6,7,7a-hexahydro-3H-5,3,7-propane[1,2,3]triylindazole
_symmetry_cell_setting           orthorhombic
_symmetry_space_group_name_H-M   'P c a 21'
_symmetry_Int_Tables_number      29
_space_group_name_Hall           'P 2c -2ac'
loop_
_symmetry_equiv_pos_site_id
_symmetry_equiv_pos_as_xyz
1 x,y,z
2 -x,-y,1/2+z
3 1/2+x,-y,z
4 1/2-x,y,1/2+z
_cell_length_a                   16.593(3)
_cell_length_b                   8.1562(17)
_cell_length_c                   17.054(3)
_cell_angle_alpha                90
_cell_angle_beta                 90
_cell_angle_gamma                90
_cell_volume                     2308.02
_cell_formula_units_Z            8
loop_
_atom_site_label
_atom_site_type_symbol
_atom_site_fract_x
_atom_site_fract_y
_atom_site_fract_z
C1 C 0.4699(11) 1.180(2) 0.3990(10)
H1 H 0.4453 1.2788 0.3768
C2 C 0.5606(10) 1.205(2) 0.4134(9)
H2 H 0.5865 1.2338 0.3643
H3 H 0.5681 1.2954 0.4496
C3 C 0.6006(10) 1.0536(18) 0.4466(9)
H4 H 0.6575 1.0771 0.4568
C4 C 0.5579(12) 1.003(3) 0.5257(11)
H5 H 0.5825 0.9048 0.5470
H6 H 0.5629 1.0903 0.5640
C5 C 0.4690(11) 0.972(2) 0.5065(11)
H7 H 0.4409 0.9373 0.5542
C6 C 0.5945(9) 0.919(2) 0.3898(9)
H8 H 0.6199 0.8214 0.4112
H9 H 0.6224 0.9483 0.3419
C7 C 0.4324(11) 1.137(2) 0.4773(11)
H10 H 0.3744 1.1261 0.4717
H11 H 0.4432 1.2228 0.5151
C8 C 0.5058(8) 0.8825(16) 0.3717(7)
H12 H 0.5012 0.7926 0.3338
C9 C 0.4572(10) 1.0305(19) 0.3448(9)
C10 C 0.4565(9) 0.8467(18) 0.4444(9)
N1 N 0.4624(10) 0.6647(19) 0.4679(9)
N2 N 0.4698(10) 1.0661(19) 0.2610(9)
N3 N 0.3730(8) 0.8599(16) 0.4132(7)
N4 N 0.3728(8) 0.9658(15) 0.3543(7)
O1 O 0.4975(9) 1.1992(17) 0.2419(8)
O2 O 0.4522(10) 0.9520(18) 0.2129(7)
O3 O 0.4847(9) 0.6400(19) 0.5367(7)
O4 O 0.4497(11) 0.5651(18) 0.4207(12)
O5 O 0.3092(7) 0.8029(14) 0.4432(7)
O6 O 0.3122(9) 1.0325(15) 0.3244(7)
C11 C 0.2312(9) 0.7119(19) 0.6895(9)
H13 H 0.2217 0.8286 0.6997
C12 C 0.2528(13) 0.623(2) 0.7676(10)
H14 H 0.3022 0.6693 0.7886
H15 H 0.2103 0.6420 0.8056
C13 C 0.2637(11) 0.441(2) 0.7562(11)
H16 H 0.2757 0.3842 0.8056
C14 C 0.1828(13) 0.375(3) 0.7165(12)
H17 H 0.1869 0.2570 0.7088
H18 H 0.1376 0.3951 0.7513
C15 C 0.1676(13) 0.456(2) 0.6392(12)
H19 H 0.1196 0.4098 0.6139
C16 C 0.1582(14) 0.638(3) 0.6512(14)
H20 H 0.1494 0.6907 0.6008
H21 H 0.1113 0.6588 0.6836
C17 C 0.3043(10) 0.6921(18) 0.6345(9)
H22 H 0.2950 0.7511 0.5859
H23 H 0.3522 0.7369 0.6591
C18 C 0.3281(10) 0.4105(19) 0.6943(9)
C19 C 0.3166(10) 0.5078(19) 0.6173(8)
H24 H 0.3622 0.4906 0.5816
C20 C 0.2445(10) 0.4197(19) 0.5897(9)
N5 N 0.4151(14) 0.419(3) 0.7237(13)
N6 N 0.2295(10) 0.4342(18) 0.4994(9)
N7 N 0.2712(8) 0.2459(15) 0.5994(7)
N8 N 0.3214(9) 0.2379(16) 0.6595(8)
O7 O 0.4652(13) 0.392(3) 0.6747(14)
O8 O 0.4171(12) 0.4485(19) 0.7940(12)
O9 O 0.2919(11) 0.4115(17) 0.4596(7)
O10 O 0.1664(12) 0.478(2) 0.4769(11)
O11 O 0.2420(8) 0.1229(16) 0.5658(7)
O12 O 0.3451(7) 0.1081(15) 0.6907(7)
loop_
_geom_bond_atom_site_label_1
_geom_bond_atom_site_label_2
_geom_bond_site_symmetry_1
_geom_bond_site_symmetry_2
C1 H1 1_555 1_555
C2 C1 1_555 1_555
H2 C2 1_555 1_555
H3 C2 1_555 1_555
C3 C2 1_555 1_555
H4 C3 1_555 1_555
C4 C3 1_555 1_555
H5 C4 1_555 1_555
H6 C4 1_555 1_555
C5 C4 1_555 1_555
H7 C5 1_555 1_555
C6 C3 1_555 1_555
H8 C6 1_555 1_555
H9 C6 1_555 1_555
C7 C1 1_555 1_555
H10 C7 1_555 1_555
H11 C7 1_555 1_555
C8 C6 1_555 1_555
H12 C8 1_555 1_555
C9 C1 1_555 1_555
C10 C5 1_555 1_555
N1 C10 1_555 1_555
N2 C9 1_555 1_555
N3 C10 1_555 1_555
N4 C9 1_555 1_555
O1 N2 1_555 1_555
O2 N2 1_555 1_555
O3 N1 1_555 1_555
O4 N1 1_555 1_555
O5 N3 1_555 1_555
O6 N4 1_555 1_555
C11 H13 1_555 1_555
C12 C11 1_555 1_555
H14 C12 1_555 1_555
H15 C12 1_555 1_555
C13 C12 1_555 1_555
H16 C13 1_555 1_555
C14 C13 1_555 1_555
H17 C14 1_555 1_555
H18 C14 1_555 1_555
C15 C14 1_555 1_555
H19 C15 1_555 1_555
C16 C11 1_555 1_555
H20 C16 1_555 1_555
H21 C16 1_555 1_555
C17 C11 1_555 1_555
H22 C17 1_555 1_555
H23 C17 1_555 1_555
C18 C13 1_555 1_555
C19 C17 1_555 1_555
H24 C19 1_555 1_555
C20 C15 1_555 1_555
N5 C18 1_555 1_555
N6 C20 1_555 1_555
N7 C20 1_555 1_555
N8 C18 1_555 1_555
O7 N5 1_555 1_555
O8 N5 1_555 1_555
O9 N6 1_555 1_555
O10 N6 1_555 1_555
O11 N7 1_555 1_555
O12 N8 1_555 1_555
C5 C7 1_555 1_555
C8 C9 1_555 1_555
C8 C10 1_555 1_555
N3 N4 1_555 1_555
C15 C16 1_555 1_555
C18 C19 1_555 1_555
C19 C20 1_555 1_555
N7 N8 1_555 1_555

#END
