
#######################################################################
#
#                 Cambridge Crystallographic Data Centre
#                                CCDC 
#
#######################################################################
#
# If this CIF has been generated from an entry in the Cambridge 
# Structural Database, then it will include bibliographic, chemical, 
# crystal, experimental, refinement or atomic coordinate data resulting 
# from the CCDC's data processing and validation procedures.
#
#######################################################################

data_OFAJUD
_chemical_compound_source        'Pogonatherum crinitum'
_chemical_name_common            pogonatherumol
_chemical_formula_moiety         'C14 H16 O3'
_chemical_name_systematic        
2-ethylidene-4,5-dihydroxy-7-isopropyl-2,3-dihydro-1H-inden-1-one
_chemical_properties_biological  
'inhibition of NO production in the mouse peritoneal macrophage; inactive against A2780 and HCT-116 human cancer cell lines'
_symmetry_cell_setting           orthorhombic
_symmetry_space_group_name_H-M   'P n m a'
_symmetry_Int_Tables_number      62
_space_group_name_Hall           '-P 2ac 2n'
loop_
_symmetry_equiv_pos_site_id
_symmetry_equiv_pos_as_xyz
1 x,y,z
2 1/2-x,-y,1/2+z
3 -x,1/2+y,-z
4 1/2+x,1/2-y,1/2-z
5 -x,-y,-z
6 1/2+x,y,1/2-z
7 x,1/2-y,z
8 1/2-x,1/2+y,1/2+z
_cell_length_a                   8.214(4)
_cell_length_b                   6.783(3)
_cell_length_c                   22.236(11)
_cell_angle_alpha                90
_cell_angle_beta                 90
_cell_angle_gamma                90
_cell_volume                     1238.89
_exptl_crystal_colour            colorless
_exptl_crystal_description       block
_cell_formula_units_Z            4
loop_
_atom_site_label
_atom_site_type_symbol
_atom_site_fract_x
_atom_site_fract_y
_atom_site_fract_z
O1 O -0.2808(3) 0.750000 -0.01509(13)
O2 O -0.3383(3) 0.750000 0.11543(14)
O3 O 0.4198(3) 0.750000 0.03247(14)
C1 C 0.2099(13) 0.897(2) 0.2088(4)
H1 H 0.308328 0.911916 0.231620
H2 H 0.125493 0.846211 0.234297
H3 H 0.177407 1.022786 0.193049
C2 C 0.1277(5) 0.750000 0.04837(18)
C3 C -0.1897(5) 0.750000 0.08993(18)
C4 C -0.0039(5) 0.750000 0.00831(17)
C5 C -0.1620(5) 0.750000 0.02803(18)
C6 C 0.2773(5) 0.750000 0.01338(19)
C7 C 0.0507(5) 0.750000 -0.05602(17)
H4 H 0.012232 0.866484 -0.076965
C8 C 0.1030(5) 0.750000 0.11068(18)
C9 C -0.0570(5) 0.750000 0.12929(19)
H5 H -0.077853 0.750000 0.170395
C10 C 0.2346(5) 0.750000 -0.05094(19)
C11 C 0.3397(6) 0.750000 -0.0957(2)
H6 H 0.449391 0.750000 -0.085395
C12 C 0.2402(6) 0.750000 0.1554(2)
H7 H 0.351119 0.750000 0.139165
C13 C 0.3015(7) 0.750000 -0.1608(2)
C1F C 0.2099(13) 0.603(2) 0.2088(4)
H1F H 0.308328 0.588084 0.231620
H2F H 0.125493 0.653789 0.234297
H3F H 0.177407 0.477214 0.193049
H4F H 0.012232 0.633516 -0.076965
H8? H 0.012232 0.866484 -0.076965
C14? C 0.2834(13) 0.5581(18) 0.1736(5)
H9? H 0.193248 1.001794 0.194125
H10? H 0.375380 0.935605 0.200145
H11? H 0.375555 0.663964 -0.181413
H12? H 0.191960 0.704688 -0.166697
H13? H 0.312219 0.881348 -0.176336
H14? H -0.365918 0.791842 -0.000641
H15? H -0.404418 0.701547 0.092074
H16? H 0.310933 0.480828 0.138876
loop_
_geom_bond_atom_site_label_1
_geom_bond_atom_site_label_2
_geom_bond_site_symmetry_1
_geom_bond_site_symmetry_2
O1 C5 1_555 1_555
O2 C3 1_555 1_555
O3 C6 1_555 1_555
C1 H1 1_555 1_555
H2 C1 1_555 1_555
H3 C1 1_555 1_555
C2 C4 1_555 1_555
C3 C5 1_555 1_555
C4 C5 1_555 1_555
C6 C2 1_555 1_555
C7 C4 1_555 1_555
H4 C7 1_555 1_555
C8 C2 1_555 1_555
C9 C3 1_555 1_555
H5 C9 1_555 1_555
C10 C6 1_555 1_555
C11 C10 1_555 1_555
H6 C11 1_555 1_555
C12 C1 1_555 1_555
H7 C12 1_555 1_555
C13 C11 1_555 1_555
C1F C12 1_555 1_555
H1F C1F 1_555 1_555
H2F C1F 1_555 1_555
H3F C1F 1_555 1_555
H4F C7 1_555 1_555
C7 C10 1_555 1_555
C8 C9 1_555 1_555
C8 C12 1_555 1_555

#END
