
#######################################################################
#
#                 Cambridge Crystallographic Data Centre
#                                CCDC 
#
#######################################################################
#
# If this CIF has been generated from an entry in the Cambridge 
# Structural Database, then it will include bibliographic, chemical, 
# crystal, experimental, refinement or atomic coordinate data resulting 
# from the CCDC's data processing and validation procedures.
#
#######################################################################

data_OFALIT
_chemical_formula_moiety         'C30 H24 N4 O2'
_chemical_name_systematic        
"3-methoxy-6b,7,8,9-tetrahydro-6H-spiro[1-benzopyrano[3,4-a]pyrrolizine-11,11'-indeno[1,2-b]quinoxaline]-6a(11aH)-carbonitrile unknown solvate"
_symmetry_cell_setting           rhombohedral
_symmetry_space_group_name_H-M   'R -3'
_symmetry_Int_Tables_number      148
_space_group_name_Hall           '-R 3'
loop_
_symmetry_equiv_pos_site_id
_symmetry_equiv_pos_as_xyz
1 x,y,z
2 -y,x-y,z
3 -x+y,-x,z
4 2/3+x,1/3+y,1/3+z
5 2/3-y,1/3+x-y,1/3+z
6 2/3-x+y,1/3-x,1/3+z
7 1/3+x,2/3+y,2/3+z
8 1/3-y,2/3+x-y,2/3+z
9 1/3-x+y,2/3-x,2/3+z
10 -x,-y,-z
11 y,-x+y,-z
12 x-y,x,-z
13 1/3-x,2/3-y,2/3-z
14 1/3+y,2/3-x+y,2/3-z
15 1/3+x-y,2/3+x,2/3-z
16 2/3-x,1/3-y,1/3-z
17 2/3+y,1/3-x+y,1/3-z
18 2/3+x-y,1/3+x,1/3-z
_cell_length_a                   38.5629(8)
_cell_length_b                   38.5629(8)
_cell_length_c                   11.3134(2)
_cell_angle_alpha                90
_cell_angle_beta                 90
_cell_angle_gamma                120
_cell_volume                     14570.1
_exptl_crystal_colour            yellow
_exptl_crystal_description       block
_cell_formula_units_Z            18
loop_
_atom_site_label
_atom_site_type_symbol
_atom_site_fract_x
_atom_site_fract_y
_atom_site_fract_z
C1 C 0.25500(5) 0.21144(4) 0.21565(11)
C2 C 0.29072(5) 0.23532(4) 0.15182(11)
C3 C 0.32116(4) 0.20774(4) 0.25485(10)
C4 C 0.28526(4) 0.18383(4) 0.31970(10)
C5 C 0.22082(5) 0.21407(5) 0.18861(13)
H1 H 0.1973 0.1987 0.2308
C6 C 0.22181(6) 0.23897(6) 0.10083(14)
H2 H 0.1990 0.2404 0.0833
C7 C 0.25704(6) 0.26219(5) 0.03772(14)
H3 H 0.2574 0.2789 -0.0221
C8 C 0.29110(6) 0.26087(5) 0.06206(12)
H4 H 0.3144 0.2768 0.0196
C9 C 0.35124(4) 0.19790(4) 0.29303(10)
C10 C 0.39071(5) 0.21394(5) 0.25879(12)
H5 H 0.4018 0.2341 0.2023
C11 C 0.41327(5) 0.19940(5) 0.30989(13)
H6 H 0.4398 0.2097 0.2870
C12 C 0.39693(5) 0.16974(5) 0.39482(12)
H7 H 0.4127 0.1605 0.4290
C13 C 0.35754(4) 0.15361(4) 0.42974(11)
H8 H 0.3468 0.1338 0.4874
C14 C 0.33411(4) 0.16738(4) 0.37770(10)
C15 C 0.29058(4) 0.15517(4) 0.40239(10)
C16 C 0.26963(5) 0.08195(4) 0.39906(14)
H9 H 0.2809 0.0856 0.4779
H10 H 0.2880 0.0808 0.3426
C17 C 0.22894(6) 0.04513(6) 0.3924(2)
H11 H 0.2277 0.0240 0.4419
H12 H 0.2226 0.0354 0.3117
C18 C 0.20005(6) 0.05818(5) 0.43646(17)
H13 H 0.1917 0.0490 0.5168
H14 H 0.1765 0.0476 0.3863
C19 C 0.22363(5) 0.10393(4) 0.43105(12)
H15 H 0.2085 0.1132 0.3836
C20 C 0.23655(4) 0.12827(4) 0.55128(11)
C21 C 0.22902(5) 0.10250(4) 0.65482(13)
C22 C 0.21432(4) 0.15142(4) 0.56900(12)
H16 H 0.2167 0.1665 0.4979
H17 H 0.1861 0.1326 0.5819
C23 C 0.28203(4) 0.15748(4) 0.53730(10)
H18 H 0.2956 0.1457 0.5807
C24 C 0.29589(4) 0.19807(4) 0.59140(10)
C25 C 0.26983(4) 0.20583(4) 0.65629(10)
C26 C 0.28307(4) 0.24127(4) 0.71797(11)
H19 H 0.2651 0.2455 0.7614
C27 C 0.32312(5) 0.27033(4) 0.71480(10)
C28 C 0.34985(4) 0.26373(4) 0.64998(10)
H20 H 0.3768 0.2832 0.6469
C29 C 0.33590(4) 0.22788(4) 0.59005(10)
H21 H 0.3540 0.2236 0.5472
C30 C 0.37297(6) 0.33704(5) 0.76249(16)
H22 H 0.3766 0.3591 0.8108
H23 H 0.3919 0.3290 0.7855
H24 H 0.3771 0.3451 0.6810
N1 N 0.25261(4) 0.18533(4) 0.30332(9)
N2 N 0.32503(4) 0.23382(3) 0.17349(9)
N3 N 0.26087(4) 0.11390(3) 0.36879(9)
N4 N 0.22290(5) 0.08241(5) 0.73533(13)
O1 O 0.22971(3) 0.17805(3) 0.66660(8)
O2 O 0.33342(4) 0.30440(3) 0.77758(9)
loop_
_geom_bond_atom_site_label_1
_geom_bond_atom_site_label_2
_geom_bond_site_symmetry_1
_geom_bond_site_symmetry_2
C1 C2 1_555 1_555
C2 C8 1_555 1_555
C3 C4 1_555 1_555
C4 C15 1_555 1_555
C5 C1 1_555 1_555
H1 C5 1_555 1_555
C6 C5 1_555 1_555
H2 C6 1_555 1_555
C7 C6 1_555 1_555
H3 C7 1_555 1_555
C8 C7 1_555 1_555
H4 C8 1_555 1_555
C9 C3 1_555 1_555
C10 C9 1_555 1_555
H5 C10 1_555 1_555
C11 C10 1_555 1_555
H6 C11 1_555 1_555
C12 C11 1_555 1_555
H7 C12 1_555 1_555
C13 C12 1_555 1_555
H8 C13 1_555 1_555
C14 C9 1_555 1_555
C15 C14 1_555 1_555
C16 H9 1_555 1_555
H10 C16 1_555 1_555
C17 C16 1_555 1_555
H11 C17 1_555 1_555
H12 C17 1_555 1_555
C18 C17 1_555 1_555
H13 C18 1_555 1_555
H14 C18 1_555 1_555
C19 C18 1_555 1_555
H15 C19 1_555 1_555
C20 C19 1_555 1_555
C21 C20 1_555 1_555
C22 C20 1_555 1_555
H16 C22 1_555 1_555
H17 C22 1_555 1_555
C23 C15 1_555 1_555
H18 C23 1_555 1_555
C24 C23 1_555 1_555
C25 C24 1_555 1_555
C26 C25 1_555 1_555
H19 C26 1_555 1_555
C27 C26 1_555 1_555
C28 C27 1_555 1_555
H20 C28 1_555 1_555
C29 C24 1_555 1_555
H21 C29 1_555 1_555
C30 H22 1_555 1_555
H23 C30 1_555 1_555
H24 C30 1_555 1_555
N1 C1 1_555 1_555
N2 C2 1_555 1_555
N3 C15 1_555 1_555
N4 C21 1_555 1_555
O1 C22 1_555 1_555
O2 C27 1_555 1_555
C3 N2 1_555 1_555
C4 N1 1_555 1_555
C13 C14 1_555 1_555
C16 N3 1_555 1_555
C19 N3 1_555 1_555
C20 C23 1_555 1_555
C25 O1 1_555 1_555
C28 C29 1_555 1_555
C30 O2 1_555 1_555

#END
