
#######################################################################
#
#                 Cambridge Crystallographic Data Centre
#                                CCDC 
#
#######################################################################
#
# If this CIF has been generated from an entry in the Cambridge 
# Structural Database, then it will include bibliographic, chemical, 
# crystal, experimental, refinement or atomic coordinate data resulting 
# from the CCDC's data processing and validation procedures.
#
#######################################################################

data_OFALUD
_chemical_name_common            
"bis(Tetrabutylammonium) 5,5'-bis(fluorodimesitylboranyl)-2,2'-bipyridine dichloromethane solvate"
_chemical_formula_moiety         
'C46 H50 B2 F2 N2 2-,2(C16 H36 N1 1+),C1 H2 Cl2'
_chemical_name_systematic        
"bis(Tetrabutylammonium) 5,5'-bis(fluorobis(2,4,6-trimethylphenyl)boranyl)-2,2'-bipyridine dichloromethane solvate"
_symmetry_cell_setting           triclinic
_symmetry_space_group_name_H-M   'P -1'
_symmetry_Int_Tables_number      2
_space_group_name_Hall           '-P 1'
loop_
_symmetry_equiv_pos_site_id
_symmetry_equiv_pos_as_xyz
1 x,y,z
2 -x,-y,-z
_cell_length_a                   11.402(3)
_cell_length_b                   17.934(5)
_cell_length_c                   21.197(5)
_cell_angle_alpha                78.656(3)
_cell_angle_beta                 77.688(3)
_cell_angle_gamma                72.650(3)
_cell_volume                     4000.68
_cell_formula_units_Z            2
loop_
_atom_site_label
_atom_site_type_symbol
_atom_site_fract_x
_atom_site_fract_y
_atom_site_fract_z
N2 N 0.7603(4) 0.2457(2) 0.15917(19)
C24 C 0.7485(6) 0.2121(4) 0.0990(3)
H26 H 0.842(3) 0.192(3) 0.083(2)
H27 H 0.722(4) 0.2619(17) 0.0666(19)
C25 C 0.6521(12) 0.1713(7) 0.1061(6)
H28 H 0.6492 0.1402 0.1502
H29 H 0.5721 0.2128 0.1067
C26 C 0.6503(12) 0.1189(7) 0.0623(6)
H30 H 0.5936 0.1507 0.0316
H31 H 0.7348 0.1056 0.0362
C27 C 0.6175(17) 0.0478(9) 0.0836(10)
H32 H 0.6109 0.0262 0.0459
H33 H 0.5371 0.0573 0.1129
H34 H 0.6814 0.0101 0.1069
C28 C 0.8687(6) 0.3353(4) 0.1899(3)
H35 H 0.7888 0.3678 0.2109
H36 H 0.9058 0.2935 0.2236
C29 C 0.9567(8) 0.3863(5) 0.1593(4)
H37 H 1.0371 0.3535 0.1392
H38 H 0.9204 0.4272 0.1248
C30 C 0.9775(10) 0.4251(6) 0.2117(5)
H39 H 1.0346 0.4580 0.1924
H40 H 1.0137 0.3843 0.2456
H41 H 0.8977 0.4580 0.2311
C31 C 0.8106(5) 0.1788(3) 0.2095(2)
H42 H 0.8066 0.2011 0.2493
H43 H 0.7540 0.1439 0.2208
C32 C 0.9408(5) 0.1285(3) 0.1922(3)
H44 H 1.0010 0.1604 0.1858
H45 H 0.9493 0.1075 0.1511
C33 C 0.9682(6) 0.0595(4) 0.2483(3)
H46 H 0.9527 0.0812 0.2897
H47 H 0.9104 0.0265 0.2526
C34 C 1.1017(6) 0.0082(4) 0.2371(3)
H48 H 1.1150 -0.0342 0.2740
H49 H 1.1594 0.0405 0.2332
H50 H 1.1168 -0.0148 0.1969
C35 C 0.6310(5) 0.2916(3) 0.1887(3)
H51 H 0.5743 0.2571 0.1967
H52 H 0.6360 0.3035 0.2315
C36 C 0.8462(5) 0.2981(3) 0.1359(3)
H53 H 0.8109 0.3409 0.1023
H54 H 0.9273 0.2669 0.1149
C37 C 0.5741(5) 0.3678(3) 0.1481(3)
H55 H 0.5884 0.3592 0.1020
H56 H 0.6165 0.4079 0.1501
C38 C 0.4356(6) 0.3991(4) 0.1707(3)
H57 H 0.4189 0.3943 0.2189
H58 H 0.4088 0.4558 0.1531
C39 C 0.3619(7) 0.3561(4) 0.1495(4)
H59 H 0.2734 0.3765 0.1668
H60 H 0.3895 0.2998 0.1658
H61 H 0.3738 0.3636 0.1017
N3 N 0.2587(4) 0.7148(2) 0.35829(19)
C40 C 0.1364(4) 0.7647(3) 0.3406(2)
H62 H 0.0882 0.7297 0.3343
H63 H 0.1519 0.7984 0.2984
C41 C 0.0577(5) 0.8173(3) 0.3911(3)
H64 H 0.1041 0.8534 0.3970
H65 H 0.0415 0.7841 0.4335
C42 C -0.0667(5) 0.8657(3) 0.3696(3)
H66 H -0.0503 0.8927 0.3244
H67 H -0.1176 0.8296 0.3695
C43 C -0.1395(6) 0.9267(4) 0.4139(3)
H68 H -0.2223 0.9514 0.4019
H69 H -0.0950 0.9671 0.4091
H70 H -0.1481 0.9010 0.4593
C44 C 0.2438(5) 0.6587(3) 0.4216(2)
H71 H 0.2078 0.6905 0.4578
H72 H 0.3276 0.6259 0.4294
C45 C 0.1629(5) 0.6038(3) 0.4244(3)
H73 H 0.2022 0.5680 0.3912
H74 H 0.0805 0.6356 0.4135
C46 C 0.1446(6) 0.5547(3) 0.4914(3)
H75 H 0.1046 0.5139 0.4879
H76 H 0.2276 0.5269 0.5033
C47 C 0.0675(7) 0.5998(4) 0.5459(4)
H77 H 0.0570 0.5629 0.5861
H78 H -0.0144 0.6288 0.5344
H79 H 0.1097 0.6371 0.5527
C48 C 0.3407(5) 0.7640(3) 0.3670(2)
H80 H 0.4222 0.7280 0.3756
H81 H 0.3016 0.7904 0.4061
C49 C 0.3639(5) 0.8267(3) 0.3095(3)
H82 H 0.2903 0.8731 0.3100
H83 H 0.3766 0.8053 0.2681
C50 C 0.4785(6) 0.8518(4) 0.3132(3)
H84 H 0.4728 0.8628 0.3579
H85 H 0.5540 0.8080 0.3042
C51 C 0.4903(7) 0.9245(4) 0.2649(4)
H86 H 0.5649 0.9388 0.2686
H87 H 0.4165 0.9683 0.2742
H88 H 0.4973 0.9135 0.2205
C52 C 0.3216(5) 0.6676(3) 0.3011(2)
H89 H 0.2739 0.6297 0.3009
H90 H 0.3168 0.7046 0.2598
C53 C 0.4563(6) 0.6225(4) 0.3026(3)
H91 H 0.4623 0.5859 0.3441
H92 H 0.5054 0.6601 0.3014
C54 C 0.5122(6) 0.5754(4) 0.2454(3)
H93 H 0.4775 0.5294 0.2528
H94 H 0.4869 0.6091 0.2049
C55 C 0.6497(7) 0.5472(5) 0.2360(4)
H95 H 0.6790 0.5121 0.2025
H96 H 0.6759 0.5184 0.2771
H97 H 0.6852 0.5925 0.2221
F2 F 0.7585(2) 0.27854(14) -0.16125(12)
N4 N 1.0117(4) 0.1004(2) -0.00536(18)
B2 B 0.8719(5) 0.2765(3) -0.1360(3)
C56 C 0.9791(4) 0.0391(3) -0.0192(2)
C57 C 0.9071(4) 0.0513(3) -0.0675(2)
H98 H 0.8808 0.0091 -0.0757
C58 C 0.8737(5) 0.1258(3) -0.1037(2)
H99 H 0.8260 0.1331 -0.1372
C59 C 0.9077(4) 0.1903(3) -0.0927(2)
C60 C 0.9749(4) 0.1724(3) -0.0416(2)
H100 H 0.9974 0.2147 -0.0308
C61 C 0.8404(5) 0.3441(2) -0.0874(2)
C62 C 0.7180(5) 0.3737(3) -0.0545(2)
C63 C 0.6904(5) 0.4367(3) -0.0182(2)
H101 H 0.6069 0.4562 0.0024
C64 C 0.7793(5) 0.4711(3) -0.0113(3)
C65 C 0.9001(5) 0.4380(3) -0.0398(3)
H102 H 0.9649 0.4574 -0.0333
C66 C 0.9313(5) 0.3770(3) -0.0779(2)
C67 C 0.6113(5) 0.3397(3) -0.0542(3)
H103 H 0.5414 0.3599 -0.0207
H104 H 0.6387 0.2820 -0.0448
H105 H 0.5847 0.3551 -0.0970
C68 C 0.7457(6) 0.5392(3) 0.0275(3)
H106 H 0.8047 0.5286 0.0578
H107 H 0.6612 0.5450 0.0522
H108 H 0.7496 0.5879 -0.0023
C69 C 1.0688(5) 0.3495(3) -0.1065(3)
H109 H 1.1190 0.3616 -0.0797
H110 H 1.0837 0.3768 -0.1511
H111 H 1.0921 0.2924 -0.1072
C70 C 0.9680(4) 0.2952(2) -0.2052(2)
C71 C 1.0818(4) 0.2427(3) -0.2297(2)
C72 C 1.1547(5) 0.2656(3) -0.2887(3)
H112 H 1.2291 0.2287 -0.3047
C73 C 1.1219(5) 0.3393(3) -0.3238(3)
C74 C 1.0120(5) 0.3905(3) -0.3005(3)
H113 H 0.9869 0.4413 -0.3250
C75 C 0.9354(4) 0.3710(3) -0.2423(2)
C76 C 1.1338(5) 0.1598(3) -0.1975(3)
H114 H 1.2129 0.1354 -0.2238
H115 H 1.0745 0.1287 -0.1940
H116 H 1.1479 0.1613 -0.1539
C77 C 1.2046(6) 0.3621(4) -0.3890(3)
H117 H 1.1554 0.4077 -0.4147
H118 H 1.2348 0.3174 -0.4138
H119 H 1.2758 0.3755 -0.3796
C78 C 0.8186(5) 0.4352(3) -0.2226(2)
H120 H 0.8004 0.4752 -0.2606
H121 H 0.8319 0.4599 -0.1884
H122 H 0.7483 0.4120 -0.2062
F2A F 1.2415(2) -0.27854(14) 0.16125(12)
N4A N 0.9883(4) -0.1004(2) 0.00536(18)
B2A B 1.1281(5) -0.2765(3) 0.1360(3)
C56A C 1.0209(4) -0.0391(3) 0.0192(2)
C57A C 1.0929(4) -0.0513(3) 0.0675(2)
H98A H 1.1192 -0.0091 0.0757
C58A C 1.1263(5) -0.1258(3) 0.1037(2)
H99A H 1.1740 -0.1331 0.1372
C59A C 1.0923(4) -0.1903(3) 0.0927(2)
C60A C 1.0251(4) -0.1724(3) 0.0416(2)
H100A H 1.0026 -0.2147 0.0308
C61A C 1.1596(5) -0.3441(2) 0.0874(2)
C62A C 1.2820(5) -0.3737(3) 0.0545(2)
C63A C 1.3096(5) -0.4367(3) 0.0182(2)
H101A H 1.3931 -0.4562 -0.0024
C64A C 1.2207(5) -0.4711(3) 0.0113(3)
C65A C 1.0999(5) -0.4380(3) 0.0398(3)
H102A H 1.0351 -0.4574 0.0333
C66A C 1.0687(5) -0.3770(3) 0.0779(2)
C67A C 1.3887(5) -0.3397(3) 0.0542(3)
H103A H 1.4586 -0.3599 0.0207
H104A H 1.3613 -0.2820 0.0448
H105A H 1.4153 -0.3551 0.0970
C68A C 1.2543(6) -0.5392(3) -0.0275(3)
H106A H 1.1953 -0.5286 -0.0578
H107A H 1.3388 -0.5450 -0.0522
H108A H 1.2504 -0.5879 0.0023
C69A C 0.9312(5) -0.3495(3) 0.1065(3)
H109A H 0.8810 -0.3616 0.0797
H110A H 0.9163 -0.3768 0.1511
H111A H 0.9079 -0.2924 0.1072
C70A C 1.0320(4) -0.2952(2) 0.2052(2)
C71A C 0.9182(4) -0.2427(3) 0.2297(2)
C72A C 0.8453(5) -0.2656(3) 0.2887(3)
H112A H 0.7709 -0.2287 0.3047
C73A C 0.8781(5) -0.3393(3) 0.3238(3)
C74A C 0.9880(5) -0.3905(3) 0.3005(3)
H113A H 1.0131 -0.4413 0.3250
C75A C 1.0646(4) -0.3710(3) 0.2423(2)
C76A C 0.8662(5) -0.1598(3) 0.1975(3)
H114A H 0.7871 -0.1354 0.2238
H115A H 0.9255 -0.1287 0.1940
H116A H 0.8521 -0.1613 0.1539
C77A C 0.7954(6) -0.3621(4) 0.3890(3)
H117A H 0.8446 -0.4077 0.4147
H118A H 0.7652 -0.3174 0.4138
H119A H 0.7242 -0.3755 0.3796
C78A C 1.1814(5) -0.4352(3) 0.2226(2)
H120A H 1.1996 -0.4752 0.2606
H121A H 1.1681 -0.4599 0.1884
H122A H 1.2517 -0.4120 0.2062
F1 F 0.6882(2) 0.24976(13) 0.34002(12)
N1 N 0.4721(3) 0.4025(2) 0.52022(18)
B1 B 0.5876(5) 0.2449(3) 0.3984(2)
C1 C 0.4993(4) 0.3369(2) 0.4914(2)
H1 H 0.4717 0.2935 0.5167
C2 C 0.5637(4) 0.3263(3) 0.4284(2)
C3 C 0.6101(5) 0.3894(2) 0.3960(2)
H2 H 0.6588 0.3859 0.3538
C4 C 0.5873(4) 0.4572(3) 0.4236(2)
H3 H 0.6204 0.4995 0.4006
C5 C 0.5154(4) 0.4630(2) 0.4852(2)
C6 C 0.4755(4) 0.2368(3) 0.3632(2)
C7 C 0.3602(5) 0.2934(3) 0.3553(2)
C8 C 0.2965(6) 0.2118(3) 0.2972(3)
C9 C 0.4100(6) 0.1570(3) 0.3025(3)
H4 H 0.4293 0.1105 0.2829
C10 C 0.2750(6) 0.2796(3) 0.3237(3)
H5 H 0.1986 0.3189 0.3202
C11 C 0.4965(5) 0.1664(3) 0.3348(2)
C12 C 0.3182(5) 0.3722(3) 0.3812(3)
H6 H 0.2428 0.4050 0.3643
H7 H 0.3844 0.3993 0.3670
H8 H 0.3005 0.3632 0.4290
C13 C 0.6111(5) 0.0972(3) 0.3416(3)
H9 H 0.6264 0.0659 0.3062
H10 H 0.5973 0.0641 0.3837
H11 H 0.6835 0.1171 0.3393
C14 C 0.2029(7) 0.1979(4) 0.2620(4)
H12 H 0.2419 0.1512 0.2399
H13 H 0.1767 0.2441 0.2296
H14 H 0.1301 0.1896 0.2937
C15 C 0.6415(4) 0.1715(2) 0.4533(2)
C16 C 0.7682(4) 0.1495(2) 0.4601(2)
C17 C 0.8159(5) 0.0852(3) 0.5061(2)
H15 H 0.9012 0.0731 0.5101
C18 C 0.7426(5) 0.0386(3) 0.5460(2)
C19 C 0.6173(5) 0.0614(3) 0.5407(3)
H16 H 0.5639 0.0321 0.5679
C20 C 0.5668(5) 0.1260(3) 0.4968(3)
C21 C 0.4249(4) 0.1450(3) 0.5009(3)
H17 H 0.3863 0.1334 0.5464
H18 H 0.4061 0.1128 0.4741
H19 H 0.3920 0.2011 0.4850
C22 C 0.8601(5) 0.1949(3) 0.4211(3)
H20 H 0.8180 0.2515 0.4154
H21 H 0.8917 0.1772 0.3783
H22 H 0.9297 0.1853 0.4446
C23 C 0.7966(6) -0.0316(3) 0.5936(3)
H23 H 0.7360 -0.0346 0.6338
H24 H 0.8730 -0.0256 0.6037
H25 H 0.8158 -0.0800 0.5742
F1A F 0.3118(2) 0.75024(13) 0.65998(12)
N1A N 0.5279(3) 0.5975(2) 0.47978(18)
B1A B 0.4124(5) 0.7551(3) 0.6016(2)
C1A C 0.5007(4) 0.6631(2) 0.5086(2)
H1A H 0.5283 0.7065 0.4833
C2A C 0.4363(4) 0.6737(3) 0.5716(2)
C3A C 0.3899(5) 0.6106(2) 0.6040(2)
H2A H 0.3412 0.6141 0.6462
C4A C 0.4127(4) 0.5428(3) 0.5764(2)
H3A H 0.3796 0.5005 0.5994
C5A C 0.4846(4) 0.5370(2) 0.5148(2)
C6A C 0.5245(4) 0.7632(3) 0.6368(2)
C7A C 0.6398(5) 0.7066(3) 0.6447(2)
C8A C 0.7035(6) 0.7882(3) 0.7028(3)
C9A C 0.5900(6) 0.8430(3) 0.6975(3)
H4A H 0.5707 0.8895 0.7171
C10A C 0.7250(6) 0.7204(3) 0.6763(3)
H5A H 0.8014 0.6811 0.6798
C11A C 0.5035(5) 0.8336(3) 0.6652(2)
C12A C 0.6818(5) 0.6278(3) 0.6188(3)
H6A H 0.7572 0.5950 0.6357
H7A H 0.6156 0.6007 0.6330
H8A H 0.6995 0.6368 0.5710
C13A C 0.3889(5) 0.9028(3) 0.6584(3)
H9A H 0.3736 0.9341 0.6938
H10A H 0.4027 0.9359 0.6163
H11A H 0.3165 0.8829 0.6607
C14A C 0.7971(7) 0.8021(4) 0.7380(4)
H12A H 0.7581 0.8488 0.7601
H13A H 0.8233 0.7559 0.7704
H14A H 0.8699 0.8104 0.7063
C15A C 0.3585(4) 0.8285(2) 0.5467(2)
C16A C 0.2318(4) 0.8505(2) 0.5399(2)
C17A C 0.1841(5) 0.9148(3) 0.4939(2)
H15A H 0.0988 0.9269 0.4899
C18A C 0.2574(5) 0.9614(3) 0.4540(2)
C19A C 0.3827(5) 0.9386(3) 0.4593(3)
H16A H 0.4361 0.9679 0.4321
C20A C 0.4332(5) 0.8740(3) 0.5032(3)
C21A C 0.5751(4) 0.8550(3) 0.4991(3)
H17A H 0.6137 0.8666 0.4536
H18A H 0.5939 0.8872 0.5259
H19A H 0.6080 0.7989 0.5150
C22A C 0.1399(5) 0.8051(3) 0.5789(3)
H20A H 0.1820 0.7485 0.5846
H21A H 0.1083 0.8228 0.6217
H22A H 0.0703 0.8147 0.5554
C23A C 0.2034(6) 1.0316(3) 0.4064(3)
H23A H 0.2640 1.0346 0.3662
H24A H 0.1270 1.0256 0.3963
H25A H 0.1842 1.0800 0.4258
C79? C 0.7053(18) 0.1390(8) 0.1134(9)
H123? H 0.6510 0.1473 0.1560
H124? H 0.6463 0.1526 0.0822
C80? C 0.7362(19) 0.0556(9) 0.1200(10)
H125? H 0.8274 0.0359 0.1068
H126? H 0.7160 0.0350 0.1667
C81? C 0.679(3) 0.0242(17) 0.0850(15)
H127? H 0.6922 -0.0325 0.1003
H128? H 0.7139 0.0325 0.0386
H129? H 0.5892 0.0503 0.0913
loop_
_geom_bond_atom_site_label_1
_geom_bond_atom_site_label_2
_geom_bond_site_symmetry_1
_geom_bond_site_symmetry_2
F1 B1 1_555 1_555
N1 C1 1_555 1_555
B1 C2 1_555 1_555
C1 H1 1_555 1_555
C2 C1 1_555 1_555
C3 C2 1_555 1_555
H2 C3 1_555 1_555
C4 C3 1_555 1_555
H3 C4 1_555 1_555
C5 N1 1_555 1_555
C6 B1 1_555 1_555
C7 C6 1_555 1_555
C8 C9 1_555 1_555
C9 H4 1_555 1_555
C10 C7 1_555 1_555
H5 C10 1_555 1_555
C11 C6 1_555 1_555
C12 C7 1_555 1_555
H6 C12 1_555 1_555
H7 C12 1_555 1_555
H8 C12 1_555 1_555
C13 C11 1_555 1_555
H9 C13 1_555 1_555
H10 C13 1_555 1_555
H11 C13 1_555 1_555
C14 C8 1_555 1_555
H12 C14 1_555 1_555
H13 C14 1_555 1_555
H14 C14 1_555 1_555
C15 B1 1_555 1_555
C16 C15 1_555 1_555
C17 C16 1_555 1_555
H15 C17 1_555 1_555
C18 C17 1_555 1_555
C19 C18 1_555 1_555
H16 C19 1_555 1_555
C20 C15 1_555 1_555
C21 C20 1_555 1_555
H17 C21 1_555 1_555
H18 C21 1_555 1_555
H19 C21 1_555 1_555
C22 C16 1_555 1_555
H20 C22 1_555 1_555
H21 C22 1_555 1_555
H22 C22 1_555 1_555
C23 C18 1_555 1_555
H23 C23 1_555 1_555
H24 C23 1_555 1_555
H25 C23 1_555 1_555
N2 C24 1_555 1_555
C24 H26 1_555 1_555
H27 C24 1_555 1_555
C25 C24 1_555 1_555
H28 C25 1_555 1_555
H29 C25 1_555 1_555
C26 C25 1_555 1_555
H30 C26 1_555 1_555
H31 C26 1_555 1_555
C27 C26 1_555 1_555
H32 C27 1_555 1_555
H33 C27 1_555 1_555
H34 C27 1_555 1_555
C28 H35 1_555 1_555
H36 C28 1_555 1_555
C29 C28 1_555 1_555
H37 C29 1_555 1_555
H38 C29 1_555 1_555
C30 C29 1_555 1_555
H39 C30 1_555 1_555
H40 C30 1_555 1_555
H41 C30 1_555 1_555
C31 N2 1_555 1_555
H42 C31 1_555 1_555
H43 C31 1_555 1_555
C32 C31 1_555 1_555
H44 C32 1_555 1_555
H45 C32 1_555 1_555
C33 C32 1_555 1_555
H46 C33 1_555 1_555
H47 C33 1_555 1_555
C34 C33 1_555 1_555
H48 C34 1_555 1_555
H49 C34 1_555 1_555
H50 C34 1_555 1_555
C35 N2 1_555 1_555
H51 C35 1_555 1_555
H52 C35 1_555 1_555
C36 N2 1_555 1_555
H53 C36 1_555 1_555
H54 C36 1_555 1_555
C37 C35 1_555 1_555
H55 C37 1_555 1_555
H56 C37 1_555 1_555
C38 C37 1_555 1_555
H57 C38 1_555 1_555
H58 C38 1_555 1_555
C39 C38 1_555 1_555
H59 C39 1_555 1_555
H60 C39 1_555 1_555
H61 C39 1_555 1_555
N3 C40 1_555 1_555
C40 H62 1_555 1_555
H63 C40 1_555 1_555
C41 C40 1_555 1_555
H64 C41 1_555 1_555
H65 C41 1_555 1_555
C42 C41 1_555 1_555
H66 C42 1_555 1_555
H67 C42 1_555 1_555
C43 C42 1_555 1_555
H68 C43 1_555 1_555
H69 C43 1_555 1_555
H70 C43 1_555 1_555
C44 N3 1_555 1_555
H71 C44 1_555 1_555
H72 C44 1_555 1_555
C45 C44 1_555 1_555
H73 C45 1_555 1_555
H74 C45 1_555 1_555
C46 C45 1_555 1_555
H75 C46 1_555 1_555
H76 C46 1_555 1_555
C47 C46 1_555 1_555
H77 C47 1_555 1_555
H78 C47 1_555 1_555
H79 C47 1_555 1_555
C48 N3 1_555 1_555
H80 C48 1_555 1_555
H81 C48 1_555 1_555
C49 C48 1_555 1_555
H82 C49 1_555 1_555
H83 C49 1_555 1_555
C50 C49 1_555 1_555
H84 C50 1_555 1_555
H85 C50 1_555 1_555
C51 C50 1_555 1_555
H86 C51 1_555 1_555
H87 C51 1_555 1_555
H88 C51 1_555 1_555
C52 N3 1_555 1_555
H89 C52 1_555 1_555
H90 C52 1_555 1_555
C53 C52 1_555 1_555
H91 C53 1_555 1_555
H92 C53 1_555 1_555
C54 C53 1_555 1_555
H93 C54 1_555 1_555
H94 C54 1_555 1_555
C55 C54 1_555 1_555
H95 C55 1_555 1_555
H96 C55 1_555 1_555
H97 C55 1_555 1_555
F2 B2 1_555 1_555
N4 C56 1_555 1_555
B2 C59 1_555 1_555
C56 C57 1_555 1_555
C57 H98 1_555 1_555
C58 C57 1_555 1_555
H99 C58 1_555 1_555
C59 C58 1_555 1_555
C60 N4 1_555 1_555
H100 C60 1_555 1_555
C61 B2 1_555 1_555
C62 C61 1_555 1_555
C63 C62 1_555 1_555
H101 C63 1_555 1_555
C64 C63 1_555 1_555
C65 C64 1_555 1_555
H102 C65 1_555 1_555
C66 C61 1_555 1_555
C67 C62 1_555 1_555
H103 C67 1_555 1_555
H104 C67 1_555 1_555
H105 C67 1_555 1_555
C68 C64 1_555 1_555
H106 C68 1_555 1_555
H107 C68 1_555 1_555
H108 C68 1_555 1_555
C69 C66 1_555 1_555
H109 C69 1_555 1_555
H110 C69 1_555 1_555
H111 C69 1_555 1_555
C70 B2 1_555 1_555
C71 C70 1_555 1_555
C72 C71 1_555 1_555
H112 C72 1_555 1_555
C73 C72 1_555 1_555
C74 C73 1_555 1_555
H113 C74 1_555 1_555
C75 C70 1_555 1_555
C76 C71 1_555 1_555
H114 C76 1_555 1_555
H115 C76 1_555 1_555
H116 C76 1_555 1_555
C77 C73 1_555 1_555
H117 C77 1_555 1_555
H118 C77 1_555 1_555
H119 C77 1_555 1_555
C78 C75 1_555 1_555
H120 C78 1_555 1_555
H121 C78 1_555 1_555
H122 C78 1_555 1_555
F1A B1A 1_555 1_555
N1A C1A 1_555 1_555
B1A C2A 1_555 1_555
C1A H1A 1_555 1_555
C2A C1A 1_555 1_555
C3A C2A 1_555 1_555
H2A C3A 1_555 1_555
C4A C3A 1_555 1_555
H3A C4A 1_555 1_555
C5A C5 1_555 1_555
C6A B1A 1_555 1_555
C7A C6A 1_555 1_555
C8A C9A 1_555 1_555
C9A H4A 1_555 1_555
C10A C7A 1_555 1_555
H5A C10A 1_555 1_555
C11A C6A 1_555 1_555
C12A C7A 1_555 1_555
H6A C12A 1_555 1_555
H7A C12A 1_555 1_555
H8A C12A 1_555 1_555
C13A C11A 1_555 1_555
H9A C13A 1_555 1_555
H10A C13A 1_555 1_555
H11A C13A 1_555 1_555
C14A C8A 1_555 1_555
H12A C14A 1_555 1_555
H13A C14A 1_555 1_555
H14A C14A 1_555 1_555
C15A B1A 1_555 1_555
C16A C15A 1_555 1_555
C17A C16A 1_555 1_555
H15A C17A 1_555 1_555
C18A C17A 1_555 1_555
C19A C18A 1_555 1_555
H16A C19A 1_555 1_555
C20A C15A 1_555 1_555
C21A C20A 1_555 1_555
H17A C21A 1_555 1_555
H18A C21A 1_555 1_555
H19A C21A 1_555 1_555
C22A C16A 1_555 1_555
H20A C22A 1_555 1_555
H21A C22A 1_555 1_555
H22A C22A 1_555 1_555
C23A C18A 1_555 1_555
H23A C23A 1_555 1_555
H24A C23A 1_555 1_555
H25A C23A 1_555 1_555
F2A B2A 1_555 1_555
N4A C56A 1_555 1_555
B2A C59A 1_555 1_555
C56A C56 1_555 1_555
C57A C56A 1_555 1_555
H98A C57A 1_555 1_555
C58A C57A 1_555 1_555
H99A C58A 1_555 1_555
C59A C58A 1_555 1_555
C60A N4A 1_555 1_555
H100A C60A 1_555 1_555
C61A B2A 1_555 1_555
C62A C61A 1_555 1_555
C63A C62A 1_555 1_555
H101A C63A 1_555 1_555
C64A C63A 1_555 1_555
C65A C64A 1_555 1_555
H102A C65A 1_555 1_555
C66A C61A 1_555 1_555
C67A C62A 1_555 1_555
H103A C67A 1_555 1_555
H104A C67A 1_555 1_555
H105A C67A 1_555 1_555
C68A C64A 1_555 1_555
H106A C68A 1_555 1_555
H107A C68A 1_555 1_555
H108A C68A 1_555 1_555
C69A C66A 1_555 1_555
H109A C69A 1_555 1_555
H110A C69A 1_555 1_555
H111A C69A 1_555 1_555
C70A B2A 1_555 1_555
C71A C70A 1_555 1_555
C72A C71A 1_555 1_555
H112A C72A 1_555 1_555
C73A C72A 1_555 1_555
C74A C73A 1_555 1_555
H113A C74A 1_555 1_555
C75A C70A 1_555 1_555
C76A C71A 1_555 1_555
H114A C76A 1_555 1_555
H115A C76A 1_555 1_555
H116A C76A 1_555 1_555
C77A C73A 1_555 1_555
H117A C77A 1_555 1_555
H118A C77A 1_555 1_555
H119A C77A 1_555 1_555
C78A C75A 1_555 1_555
H120A C78A 1_555 1_555
H121A C78A 1_555 1_555
H122A C78A 1_555 1_555
C4 C5 1_555 1_555
C8 C10 1_555 1_555
C9 C11 1_555 1_555
C19 C20 1_555 1_555
C28 C36 1_555 1_555
C59 C60 1_555 1_555
C65 C66 1_555 1_555
C74 C75 1_555 1_555
N1A C5A 1_555 1_555
C4A C5A 1_555 1_555
C8A C10A 1_555 1_555
C9A C11A 1_555 1_555
C19A C20A 1_555 1_555
C59A C60A 1_555 1_555
C65A C66A 1_555 1_555
C74A C75A 1_555 1_555

#END
