
#######################################################################
#
#                 Cambridge Crystallographic Data Centre
#                                CCDC 
#
#######################################################################
#
# If this CIF has been generated from an entry in the Cambridge 
# Structural Database, then it will include bibliographic, chemical, 
# crystal, experimental, refinement or atomic coordinate data resulting 
# from the CCDC's data processing and validation procedures.
#
#######################################################################

data_OFAPER
_chemical_formula_moiety         'C46 H50 Li2 N4 O2 Si2'
_chemical_name_systematic        
bis(\m~2~-2-Benzyloxy-N-(2-(2-pyridyl)-1-(trimethylsilyl)ethenyl)anilide-N,N,N',O)-di-lithium
_symmetry_cell_setting           monoclinic
_symmetry_space_group_name_H-M   'P 21/c'
_symmetry_Int_Tables_number      14
_space_group_name_Hall           '-P 2ybc'
loop_
_symmetry_equiv_pos_site_id
_symmetry_equiv_pos_as_xyz
1 x,y,z
2 -x,1/2+y,1/2-z
3 -x,-y,-z
4 x,1/2-y,1/2+z
_cell_length_a                   11.1979(19)
_cell_length_b                   23.748(4)
_cell_length_c                   17.346(3)
_cell_angle_alpha                90
_cell_angle_beta                 107.884(3)
_cell_angle_gamma                90
_cell_volume                     4389.89
_chemical_melting_point          181-182deg.C
_cell_formula_units_Z            4
loop_
_atom_site_label
_atom_site_type_symbol
_atom_site_fract_x
_atom_site_fract_y
_atom_site_fract_z
Li1 Li 0.0630(7) 0.4029(3) 0.7425(4)
Li2 Li -0.0726(7) 0.3677(3) 0.8226(4)
Si1 Si 0.29302(12) 0.27014(5) 0.81746(8)
Si2 Si -0.37115(12) 0.37404(6) 0.62263(8)
N1 N 0.1090(3) 0.34730(14) 0.8421(2)
N2 N -0.1395(3) 0.29103(14) 0.8277(2)
N3 N -0.1226(3) 0.41029(14) 0.7130(2)
N4 N 0.0753(3) 0.37605(14) 0.6380(2)
O1 O 0.1813(3) 0.45312(12) 0.82932(18)
O2 O -0.1254(3) 0.44223(13) 0.86052(19)
C1 C 0.1322(4) 0.29216(18) 0.8215(2)
C2 C 0.0415(4) 0.25203(17) 0.7961(2)
H1 H 0.0640 0.2223 0.7686
C3 C -0.0820(4) 0.24689(18) 0.8038(2)
C4 C -0.1414(4) 0.19411(19) 0.7913(3)
H2 H -0.1046 0.1644 0.7718
C5 C -0.2508(5) 0.1857(2) 0.8069(3)
H3 H -0.2886 0.1504 0.7986
C6 C -0.3068(5) 0.2294(2) 0.8352(3)
H4 H -0.3809 0.2244 0.8479
C7 C -0.2478(4) 0.2807(2) 0.8437(3)
H5 H -0.2855 0.3107 0.8620
C8 C 0.2016(4) 0.37117(19) 0.9071(3)
C9 C 0.2369(4) 0.42764(19) 0.9037(3)
C10 C 0.3237(5) 0.4526(2) 0.9688(3)
H6 H 0.3447 0.4903 0.9661
C11 C 0.3802(5) 0.4215(3) 1.0386(3)
H7 H 0.4396 0.4382 1.0822
C12 C 0.3484(5) 0.3668(3) 1.0427(3)
H8 H 0.3870 0.3459 1.0889
C13 C 0.2591(4) 0.3420(2) 0.9787(3)
H9 H 0.2365 0.3048 0.9834
C14 C 0.2139(7) 0.5108(2) 0.8200(3)
H10 H 0.2995 0.5178 0.8533
H11 H 0.1591 0.5356 0.8381
C15 C 0.2020(7) 0.5228(2) 0.7359(4)
C16 C 0.0915(8) 0.5373(2) 0.6813(5)
H12 H 0.0209 0.5404 0.6985
C17 C 0.0797(11) 0.5474(3) 0.6012(7)
H13 H 0.0027 0.5563 0.5639
C18 C 0.1868(16) 0.5437(4) 0.5791(7)
H14 H 0.1824 0.5517 0.5258
C19 C 0.2951(13) 0.5294(4) 0.6304(8)
H15 H 0.3656 0.5265 0.6131
C20 C 0.3040(7) 0.5188(2) 0.7086(6)
H16 H 0.3812 0.5085 0.7445
C21 C 0.2753(5) 0.23895(19) 0.7161(3)
H17 H 0.2372 0.2660 0.6747
H18 H 0.2233 0.2060 0.7087
H19 H 0.3564 0.2288 0.7125
C22 C 0.3593(5) 0.21399(19) 0.8938(3)
H20 H 0.4316 0.1977 0.8838
H21 H 0.2972 0.1854 0.8898
H22 H 0.3832 0.2300 0.9472
C23 C 0.4039(4) 0.32946(19) 0.8311(3)
H23 H 0.4344 0.3394 0.8875
H24 H 0.3619 0.3612 0.8004
H25 H 0.4732 0.3186 0.8127
C24 C -0.1947(4) 0.37956(18) 0.6465(3)
C25 C -0.1443(4) 0.34738(18) 0.5992(3)
H26 H -0.1995 0.3209 0.5681
C26 C -0.0217(4) 0.34645(17) 0.5882(3)
C27 C -0.0053(5) 0.31771(19) 0.5211(3)
H27 H -0.0700 0.2956 0.4887
C28 C 0.1044(5) 0.3220(2) 0.5032(3)
H28 H 0.1144 0.3032 0.4586
C29 C 0.1990(5) 0.3539(2) 0.5507(3)
H29 H 0.2738 0.3583 0.5386
C30 C 0.1813(4) 0.37941(19) 0.6172(3)
H30 H 0.2472 0.4005 0.6503
C31 C -0.1705(4) 0.46298(18) 0.7227(3)
C32 C -0.1654(5) 0.4821(2) 0.7992(3)
C33 C -0.2065(6) 0.5363(2) 0.8108(4)
H31 H -0.2020 0.5489 0.8624
C34 C -0.2544(7) 0.5711(3) 0.7434(5)
H32 H -0.2797 0.6076 0.7503
C35 C -0.2640(6) 0.5524(3) 0.6692(4)
H33 H -0.3002 0.5750 0.6243
C36 C -0.2205(4) 0.5000(2) 0.6592(3)
H34 H -0.2246 0.4887 0.6071
C37 C -0.1566(9) 0.4556(3) 0.9318(4)
H35 H -0.2411 0.4707 0.9169
H36 H -0.0998 0.4845 0.9619
C38 C -0.1487(8) 0.4059(2) 0.9839(3)
C39 C -0.2605(8) 0.3883(3) 0.9981(4)
H37 H -0.3360 0.4067 0.9736
C40 C -0.2551(10) 0.3425(4) 1.0498(7)
H38 H -0.3258 0.3306 1.0627
C41 C -0.1460(14) 0.3170(4) 1.0797(5)
H39 H -0.1415 0.2863 1.1139
C42 C -0.0392(9) 0.3330(4) 1.0633(5)
H40 H 0.0352 0.3131 1.0841
C43 C -0.0451(8) 0.3781(3) 1.0165(5)
H41 H 0.0279 0.3902 1.0068
C44 C -0.4552(5) 0.4080(2) 0.5241(3)
H42 H -0.5427 0.3985 0.5091
H43 H -0.4206 0.3948 0.4832
H44 H -0.4457 0.4481 0.5293
C45 C -0.4287(5) 0.4049(2) 0.7026(3)
H45 H -0.4292 0.4452 0.6985
H46 H -0.3744 0.3938 0.7549
H47 H -0.5123 0.3917 0.6961
C46 C -0.4136(4) 0.29814(19) 0.6151(3)
H48 H -0.3632 0.2788 0.6625
H49 H -0.3989 0.2823 0.5679
H50 H -0.5007 0.2941 0.6109
loop_
_geom_bond_atom_site_label_1
_geom_bond_atom_site_label_2
_geom_bond_site_symmetry_1
_geom_bond_site_symmetry_2
Li1 N1 1_555 1_555
Li2 N1 1_555 1_555
Si1 C1 1_555 1_555
Si2 C24 1_555 1_555
N1 C1 1_555 1_555
N2 Li2 1_555 1_555
N3 Li1 1_555 1_555
N4 Li1 1_555 1_555
O1 Li1 1_555 1_555
O2 Li2 1_555 1_555
C1 C2 1_555 1_555
C2 H1 1_555 1_555
C3 N2 1_555 1_555
C4 C3 1_555 1_555
H2 C4 1_555 1_555
C5 C4 1_555 1_555
H3 C5 1_555 1_555
C6 C5 1_555 1_555
H4 C6 1_555 1_555
C7 N2 1_555 1_555
H5 C7 1_555 1_555
C8 N1 1_555 1_555
C9 O1 1_555 1_555
C10 C9 1_555 1_555
H6 C10 1_555 1_555
C11 C10 1_555 1_555
H7 C11 1_555 1_555
C12 C11 1_555 1_555
H8 C12 1_555 1_555
C13 C8 1_555 1_555
H9 C13 1_555 1_555
C14 O1 1_555 1_555
H10 C14 1_555 1_555
H11 C14 1_555 1_555
C15 C14 1_555 1_555
C16 C15 1_555 1_555
H12 C16 1_555 1_555
C17 C16 1_555 1_555
H13 C17 1_555 1_555
C18 C17 1_555 1_555
H14 C18 1_555 1_555
C19 C18 1_555 1_555
H15 C19 1_555 1_555
C20 C15 1_555 1_555
H16 C20 1_555 1_555
C21 Si1 1_555 1_555
H17 C21 1_555 1_555
H18 C21 1_555 1_555
H19 C21 1_555 1_555
C22 Si1 1_555 1_555
H20 C22 1_555 1_555
H21 C22 1_555 1_555
H22 C22 1_555 1_555
C23 Si1 1_555 1_555
H23 C23 1_555 1_555
H24 C23 1_555 1_555
H25 C23 1_555 1_555
C24 N3 1_555 1_555
C25 C24 1_555 1_555
H26 C25 1_555 1_555
C26 N4 1_555 1_555
C27 C26 1_555 1_555
H27 C27 1_555 1_555
C28 C27 1_555 1_555
H28 C28 1_555 1_555
C29 C28 1_555 1_555
H29 C29 1_555 1_555
C30 N4 1_555 1_555
H30 C30 1_555 1_555
C31 N3 1_555 1_555
C32 O2 1_555 1_555
C33 C32 1_555 1_555
H31 C33 1_555 1_555
C34 C33 1_555 1_555
H32 C34 1_555 1_555
C35 C34 1_555 1_555
H33 C35 1_555 1_555
C36 C31 1_555 1_555
H34 C36 1_555 1_555
C37 O2 1_555 1_555
H35 C37 1_555 1_555
H36 C37 1_555 1_555
C38 C37 1_555 1_555
C39 C38 1_555 1_555
H37 C39 1_555 1_555
C40 C39 1_555 1_555
H38 C40 1_555 1_555
C41 C40 1_555 1_555
H39 C41 1_555 1_555
C42 C41 1_555 1_555
H40 C42 1_555 1_555
C43 C38 1_555 1_555
H41 C43 1_555 1_555
C44 Si2 1_555 1_555
H42 C44 1_555 1_555
H43 C44 1_555 1_555
H44 C44 1_555 1_555
C45 Si2 1_555 1_555
H45 C45 1_555 1_555
H46 C45 1_555 1_555
H47 C45 1_555 1_555
C46 Si2 1_555 1_555
H48 C46 1_555 1_555
H49 C46 1_555 1_555
H50 C46 1_555 1_555
Li2 N3 1_555 1_555
C2 C3 1_555 1_555
C6 C7 1_555 1_555
C8 C9 1_555 1_555
C12 C13 1_555 1_555
C19 C20 1_555 1_555
C25 C26 1_555 1_555
C29 C30 1_555 1_555
C31 C32 1_555 1_555
C35 C36 1_555 1_555
C42 C43 1_555 1_555

#END
