
#######################################################################
#
#                 Cambridge Crystallographic Data Centre
#                                CCDC 
#
#######################################################################
#
# If this CIF has been generated from an entry in the Cambridge 
# Structural Database, then it will include bibliographic, chemical, 
# crystal, experimental, refinement or atomic coordinate data resulting 
# from the CCDC's data processing and validation procedures.
#
#######################################################################

data_OFASIZ
_chemical_formula_moiety         'C32 H20 O6 P2 S2'
_chemical_name_systematic        
"6,6'-(2,2'-Bithiene-5,5'-diyl)bis(dibenzo[d,f][1,3,2]dioxaphosphepine) 6,6'-dioxide"
_symmetry_cell_setting           monoclinic
_symmetry_space_group_name_H-M   'P 21/c'
_symmetry_Int_Tables_number      14
_space_group_name_Hall           '-P 2ybc'
loop_
_symmetry_equiv_pos_site_id
_symmetry_equiv_pos_as_xyz
1 x,y,z
2 -x,1/2+y,1/2-z
3 -x,-y,-z
4 x,1/2-y,1/2+z
_cell_length_a                   8.5662(17)
_cell_length_b                   14.881(3)
_cell_length_c                   11.645(2)
_cell_angle_alpha                90
_cell_angle_beta                 102.53(3)
_cell_angle_gamma                90
_cell_volume                     1449.07
_cell_formula_units_Z            2
loop_
_atom_site_label
_atom_site_type_symbol
_atom_site_fract_x
_atom_site_fract_y
_atom_site_fract_z
C1 C 0.4254(4) 0.2514(3) 0.9393(3)
C2 C 0.4751(5) 0.1704(4) 0.9017(4)
H1 H 0.4238 0.1468 0.8294
C3 C 0.6005(6) 0.1245(4) 0.9711(5)
H2 H 0.6336 0.0695 0.9467
C4 C 0.6758(6) 0.1611(5) 1.0767(5)
H3 H 0.7626 0.1315 1.1231
C5 C 0.6246(5) 0.2414(4) 1.1152(4)
H4 H 0.6761 0.2643 1.1878
C6 C 0.4971(4) 0.2890(3) 1.0472(3)
C7 C 0.4417(5) 0.3761(3) 1.0859(3)
C8 C 0.5497(7) 0.4411(4) 1.1402(4)
H5 H 0.6587 0.4296 1.1512
C9 C 0.5003(10) 0.5221(4) 1.1782(4)
H6 H 0.5750 0.5639 1.2156
C10 C 0.3385(10) 0.5403(3) 1.1601(4)
H7 H 0.3047 0.5954 1.1836
C11 C 0.2271(7) 0.4782(3) 1.1077(4)
H8 H 0.1183 0.4903 1.0959
C12 C 0.2801(5) 0.3981(2) 1.0733(3)
C13 C 0.0629(4) 0.1927(2) 0.9028(3)
C14 C 0.0026(4) 0.1373(2) 0.8103(3)
H9 H -0.0165 0.1554 0.7320
C15 C -0.0272(4) 0.0501(2) 0.8464(3)
H10 H -0.0679 0.0041 0.7944
C16 C 0.0096(3) 0.0398(2) 0.9657(3)
O1 O 0.3017(3) 0.29800(17) 0.86417(19)
O2 O 0.1653(3) 0.33149(16) 1.02885(19)
O3 O 0.0276(3) 0.36247(16) 0.8109(2)
P1 P 0.13001(10) 0.30363(6) 0.89431(7)
S1 S 0.08425(11) 0.13737(5) 1.03466(7)
C1B C -0.4254(4) -0.2514(3) 1.0607(3)
C2B C -0.4751(5) -0.1704(4) 1.0983(4)
H1B H -0.4238 -0.1468 1.1706
C3B C -0.6005(6) -0.1245(4) 1.0289(5)
H2B H -0.6336 -0.0695 1.0533
C4B C -0.6758(6) -0.1611(5) 0.9233(5)
H3B H -0.7626 -0.1315 0.8769
C5B C -0.6246(5) -0.2414(4) 0.8848(4)
H4B H -0.6761 -0.2643 0.8122
C6B C -0.4971(4) -0.2890(3) 0.9528(3)
C7B C -0.4417(5) -0.3761(3) 0.9141(3)
C8B C -0.5497(7) -0.4411(4) 0.8598(4)
H5B H -0.6587 -0.4296 0.8488
C9B C -0.5003(10) -0.5221(4) 0.8218(4)
H6B H -0.5750 -0.5639 0.7844
C10B C -0.3385(10) -0.5403(3) 0.8399(4)
H7B H -0.3047 -0.5954 0.8164
C11B C -0.2271(7) -0.4782(3) 0.8923(4)
H8B H -0.1183 -0.4903 0.9041
C12B C -0.2801(5) -0.3981(2) 0.9267(3)
C13B C -0.0629(4) -0.1927(2) 1.0972(3)
C14B C -0.0026(4) -0.1373(2) 1.1897(3)
H9B H 0.0165 -0.1554 1.2680
C15B C 0.0272(4) -0.0501(2) 1.1536(3)
H10B H 0.0679 -0.0041 1.2056
C16B C -0.0096(3) -0.0398(2) 1.0343(3)
O1B O -0.3017(3) -0.29800(17) 1.13583(19)
O2B O -0.1653(3) -0.33149(16) 0.97115(19)
O3B O -0.0276(3) -0.36247(16) 1.1891(2)
P1B P -0.13001(10) -0.30363(6) 1.10569(7)
S1B S -0.08425(11) -0.13737(5) 0.96534(7)
loop_
_geom_bond_atom_site_label_1
_geom_bond_atom_site_label_2
_geom_bond_site_symmetry_1
_geom_bond_site_symmetry_2
C1 C2 1_555 1_555
C2 H1 1_555 1_555
C3 C2 1_555 1_555
H2 C3 1_555 1_555
C4 C3 1_555 1_555
H3 C4 1_555 1_555
C5 C4 1_555 1_555
H4 C5 1_555 1_555
C6 C1 1_555 1_555
C7 C6 1_555 1_555
C8 C7 1_555 1_555
H5 C8 1_555 1_555
C9 C8 1_555 1_555
H6 C9 1_555 1_555
C10 C9 1_555 1_555
H7 C10 1_555 1_555
C11 C10 1_555 1_555
H8 C11 1_555 1_555
C12 C7 1_555 1_555
C13 C14 1_555 1_555
C14 H9 1_555 1_555
C15 C14 1_555 1_555
H10 C15 1_555 1_555
C16 C15 1_555 1_555
O1 C1 1_555 1_555
O2 C12 1_555 1_555
O3 P1 1_555 1_555
P1 C13 1_555 1_555
S1 C13 1_555 1_555
C1B C2B 1_555 1_555
C2B H1B 1_555 1_555
C3B C2B 1_555 1_555
H2B C3B 1_555 1_555
C4B C3B 1_555 1_555
H3B C4B 1_555 1_555
C5B C4B 1_555 1_555
H4B C5B 1_555 1_555
C6B C1B 1_555 1_555
C7B C6B 1_555 1_555
C8B C7B 1_555 1_555
H5B C8B 1_555 1_555
C9B C8B 1_555 1_555
H6B C9B 1_555 1_555
C10B C9B 1_555 1_555
H7B C10B 1_555 1_555
C11B C10B 1_555 1_555
H8B C11B 1_555 1_555
C12B C7B 1_555 1_555
C13B C14B 1_555 1_555
C14B H9B 1_555 1_555
C15B C14B 1_555 1_555
H10B C15B 1_555 1_555
C16B C16 1_555 1_555
O1B C1B 1_555 1_555
O2B C12B 1_555 1_555
O3B P1B 1_555 1_555
P1B C13B 1_555 1_555
S1B C13B 1_555 1_555
C5 C6 1_555 1_555
C11 C12 1_555 1_555
C16 S1 1_555 1_555
O1 P1 1_555 1_555
O2 P1 1_555 1_555
C5B C6B 1_555 1_555
C11B C12B 1_555 1_555
C15B C16B 1_555 1_555
C16B S1B 1_555 1_555
O1B P1B 1_555 1_555
O2B P1B 1_555 1_555

#END
