
#######################################################################
#
#                 Cambridge Crystallographic Data Centre
#                                CCDC 
#
#######################################################################
#
# If this CIF has been generated from an entry in the Cambridge 
# Structural Database, then it will include bibliographic, chemical, 
# crystal, experimental, refinement or atomic coordinate data resulting 
# from the CCDC's data processing and validation procedures.
#
#######################################################################

data_OFAXID
_chemical_formula_moiety         
'C42 H70 O35,C12 H10 O1,0.5(C2 H6 O1),7.5(H2 O1)'
_chemical_name_systematic        
'\b-Cyclodextrin 4-hydroxybiphenyl clathrate ethanol solvate hydrate'
_symmetry_cell_setting           triclinic
_symmetry_space_group_name_H-M   'P 1'
_symmetry_Int_Tables_number      1
_space_group_name_Hall           'P 1'
loop_
_symmetry_equiv_pos_site_id
_symmetry_equiv_pos_as_xyz
1 x,y,z
_cell_length_a                   15.257(3)
_cell_length_b                   15.564(3)
_cell_length_c                   15.592(2)
_cell_angle_alpha                104.485(15)
_cell_angle_beta                 101.066(14)
_cell_angle_gamma                104.330(17)
_cell_volume                     3343.67
_exptl_crystal_colour            colorless
_exptl_crystal_description       block
_cell_formula_units_Z            2
loop_
_atom_site_label
_atom_site_type_symbol
_atom_site_fract_x
_atom_site_fract_y
_atom_site_fract_z
C1 C 0.7010(3) 0.1733(3) 0.6933(3)
H1 H 0.7472 0.1403 0.7028
C2 C 0.6295(3) 0.1208(3) 0.6005(3)
H2 H 0.5985 0.0580 0.6015
C3 C 0.5551(3) 0.1683(3) 0.5862(2)
H3 H 0.5846 0.2313 0.5848
C4 C 0.5095(3) 0.1751(3) 0.6657(2)
H4 H 0.4743 0.1124 0.6635
C5 C 0.5843(3) 0.2231(3) 0.7578(3)
H5 H 0.6128 0.2887 0.7632
C6 C 0.5444(4) 0.2189(6) 0.8383(4)
H6 H 0.5946 0.2475 0.8950
H7 H 0.4998 0.2537 0.8403
C7 C 0.3518(3) 0.1889(3) 0.6536(2)
H8 H 0.3408 0.1238 0.6523
C8 C 0.2886(3) 0.1923(3) 0.5666(2)
H9 H 0.2229 0.1633 0.5638
C9 C 0.3029(3) 0.2930(3) 0.5689(2)
H10 H 0.3674 0.3211 0.5676
C10 C 0.2862(3) 0.3474(3) 0.6563(2)
H11 H 0.2197 0.3246 0.6543
C11 C 0.3470(3) 0.3361(3) 0.7412(2)
H12 H 0.4135 0.3664 0.7479
C12 C 0.3210(3) 0.3796(3) 0.8276(3)
H13 H 0.3292 0.4451 0.8348
H14 H 0.2553 0.3491 0.8208
C13 C 0.2407(3) 0.4873(3) 0.6649(2)
H15 H 0.1801 0.4405 0.6544
C14 C 0.2345(3) 0.5339(3) 0.5894(2)
H16 H 0.1873 0.5663 0.5940
C15 C 0.3275(3) 0.6056(3) 0.6041(2)
H17 H 0.3763 0.5751 0.6013
C16 C 0.3519(3) 0.6773(3) 0.6986(2)
H18 H 0.3077 0.7135 0.6993
C17 C 0.3492(3) 0.6291(3) 0.7738(2)
H19 H 0.4008 0.6020 0.7790
C18 C 0.3588(3) 0.6957(3) 0.8677(2)
H20 H 0.3569 0.6617 0.9120
H21 H 0.4192 0.7440 0.8879
C19 C 0.4602(3) 0.8361(3) 0.7471(3)
H22 H 0.4006 0.8470 0.7525
C20 C 0.4933(3) 0.8775(3) 0.6757(3)
H23 H 0.4979 0.9438 0.6940
C21 C 0.5900(3) 0.8697(3) 0.6716(2)
H24 H 0.5871 0.8039 0.6524
C22 C 0.6563(3) 0.9194(3) 0.7673(2)
H25 H 0.6598 0.9854 0.7857
C23 C 0.6217(3) 0.8745(3) 0.8361(2)
H26 H 0.6210 0.8092 0.8190
C24 C 0.6819(3) 0.9249(4) 0.9334(3)
H27 H 0.6516 0.9021 0.9762
H28 H 0.7424 0.9139 0.9408
C25 C 0.8261(3) 0.9923(3) 0.8049(3)
H31 H 0.8053 1.0475 0.8215
C26 C 0.8809(3) 0.9997(3) 0.7335(3)
H32 H 0.9358 1.0559 0.7600
C27 C 0.9145(3) 0.9150(3) 0.7095(3)
H33 H 0.8594 0.8595 0.6796
C28 C 0.9705(3) 0.9028(3) 0.7965(2)
H34 H 1.0310 0.9524 0.8225
C29 C 0.9138(3) 0.9045(3) 0.8670(3)
H35 H 0.8579 0.8492 0.8422
C30 C 0.9664(3) 0.9047(3) 0.9602(3)
H36 H 0.9230 0.8977 0.9980
H37 H 0.9899 0.8516 0.9519
C31 C 1.0772(3) 0.8089(3) 0.7920(3)
H38 H 1.1222 0.8715 0.8092
C32 C 1.0893(3) 0.7466(3) 0.7055(3)
H39 H 1.1535 0.7430 0.7196
C33 C 1.0217(3) 0.6482(3) 0.6793(2)
H40 H 0.9567 0.6494 0.6656
C34 C 1.0421(3) 0.6119(3) 0.7606(2)
H41 H 1.1062 0.6080 0.7719
C35 C 1.0317(3) 0.6776(3) 0.8469(2)
H42 H 0.9665 0.6783 0.8367
C36 C 1.0583(3) 0.6488(3) 0.9313(3)
H43 H 1.0537 0.6934 0.9849
H44 H 1.0160 0.5879 0.9237
C37 C 1.0151(3) 0.4493(3) 0.7530(2)
H45 H 1.0838 0.4745 0.7705
C38 C 0.9824(3) 0.3702(3) 0.6617(2)
H46 H 1.0106 0.3218 0.6703
C39 C 0.8763(3) 0.3275(3) 0.6358(2)
H47 H 0.8468 0.3751 0.6269
C40 C 0.8475(3) 0.2935(3) 0.7127(2)
H48 H 0.8708 0.2412 0.7175
C41 C 0.8864(3) 0.3722(3) 0.8044(2)
H49 H 0.8552 0.4198 0.8015
C42 C 0.8708(3) 0.3385(3) 0.8856(3)
H50 H 0.9044 0.3890 0.9423
H51 H 0.8044 0.3226 0.8826
O1 O 0.74728(18) 0.26355(18) 0.69105(17)
O2 O 0.6748(2) 0.11119(19) 0.52872(19)
H131 H 0.7189 0.1587 0.5401
O3 O 0.4863(2) 0.1162(2) 0.50051(19)
H132 H 0.4440 0.1399 0.4944
O4 O 0.6563(2) 0.1791(2) 0.76530(18)
O5 O 0.4978(4) 0.1228(6) 0.8308(5)
H133 H 0.5219 0.0882 0.8015
O6 O 0.44676(19) 0.22804(19) 0.65387(18)
O7 O 0.3098(2) 0.1415(2) 0.48808(19)
H134 H 0.2614 0.1150 0.4461
O8 O 0.2383(2) 0.2966(2) 0.49052(19)
H135 H 0.2519 0.2738 0.4435
O9 O 0.3316(2) 0.23943(19) 0.73248(17)
O10 O 0.3772(3) 0.3716(2) 0.9083(2)
H136 H 0.3508 0.3234 0.9176
O11 O 0.31052(18) 0.44283(18) 0.66057(17)
O12 O 0.2046(2) 0.4655(2) 0.50060(18)
H137 H 0.2262 0.4225 0.5030
O13 O 0.3203(3) 0.6498(2) 0.5345(2)
H138 H 0.3214 0.7037 0.5572
O14 O 0.26217(19) 0.55582(19) 0.75171(17)
O15 O 0.2857(2) 0.7377(2) 0.8647(2)
H139 H 0.2425 0.7072 0.8796
O16 O 0.44592(19) 0.73829(19) 0.71747(18)
O17 O 0.4262(2) 0.8321(2) 0.5886(2)
H140 H 0.3972 0.7793 0.5863
O18 O 0.6226(2) 0.9137(2) 0.60901(19)
H141 H 0.5828 0.8927 0.5592
O19 O 0.5275(2) 0.8778(2) 0.83420(18)
O20 O 0.74691(18) 0.91152(18) 0.76324(18)
O21 O 0.8231(2) 1.0078(2) 0.6544(2)
H142 H 0.7694 0.9730 0.6433
O22 O 0.9726(2) 0.9210(2) 0.6481(2)
H143 H 0.9396 0.9084 0.5958
O23 O 0.8834(2) 0.98557(19) 0.88465(18)
O24 O 1.0429(2) 0.9878(3) 1.0070(2)
H144 H 1.0924 0.9754 1.0112
O25 O 0.98479(18) 0.81395(18) 0.77039(18)
O26 O 1.0786(2) 0.7866(2) 0.6329(2)
H145 H 1.0292 0.7992 0.6264
O27 O 1.0358(2) 0.5875(2) 0.60282(19)
H146 H 1.0385 0.6124 0.5624
O28 O 1.0929(2) 0.77070(19) 0.86576(18)
O29 O 1.1527(2) 0.6457(2) 0.9434(2)
H147 H 1.1615 0.6120 0.9749
O30 O 0.97635(19) 0.52047(18) 0.73977(17)
O31 O 1.0131(2) 0.40214(19) 0.59148(18)
H148 H 1.0086 0.4545 0.5968
O32 O 0.8439(2) 0.25010(19) 0.55283(17)
H149 H 0.8579 0.2680 0.5106
O33 O 0.9866(2) 0.41494(19) 0.82255(17)
O34 O 0.9012(2) 0.2594(2) 0.8876(2)
H150 H 0.9580 0.2736 0.8940
O88 O 0.6939(4) 1.0186(4) 0.9508(3)
H175 H 0.7274 1.0472 1.0032
C43 C 0.3384(3) 0.0691(3) 0.1533(2)
H52 H 0.2723 0.0306 0.1341
C44 C 0.3896(3) 0.0527(3) 0.2387(2)
H53 H 0.3853 -0.0135 0.2238
C45 C 0.4929(3) 0.1106(3) 0.2671(3)
H54 H 0.4984 0.1771 0.2854
C46 C 0.5355(3) 0.0875(3) 0.1868(2)
H55 H 0.5383 0.0235 0.1741
C47 C 0.4784(3) 0.0985(3) 0.1006(3)
H56 H 0.4839 0.1646 0.1112
C48 C 0.5101(3) 0.0635(3) 0.0161(3)
H57 H 0.4693 0.0677 -0.0376
H58 H 0.5737 0.1014 0.0235
C49 C 0.7024(3) 0.1141(3) 0.1999(2)
H59 H 0.6792 0.0459 0.1835
C50 C 0.7784(3) 0.1537(3) 0.2911(2)
H60 H 0.8292 0.1270 0.2833
C51 C 0.8189(3) 0.2590(3) 0.3149(2)
H61 H 0.7695 0.2872 0.3251
C52 C 0.8529(3) 0.2832(3) 0.2351(2)
H62 H 0.9057 0.2595 0.2276
C53 C 0.7728(3) 0.2383(3) 0.1464(2)
H63 H 0.7213 0.2640 0.1543
C54 C 0.8005(3) 0.2544(3) 0.0618(3)
H64 H 0.7484 0.2192 0.0075
H65 H 0.8139 0.3201 0.0671
C55 C 0.9758(3) 0.4251(3) 0.2552(3)
H66 H 1.0086 0.3782 0.2454
C56 C 1.0261(3) 0.4993(3) 0.3485(3)
H67 H 1.0914 0.5276 0.3495
C57 C 0.9792(3) 0.5742(3) 0.3631(3)
H68 H 0.9140 0.5464 0.3627
C58 C 0.9800(3) 0.6169(3) 0.2855(2)
H69 H 1.0449 0.6496 0.2888
C59 C 0.9344(3) 0.5405(3) 0.1916(3)
H70 H 0.8670 0.5146 0.1846
C60 C 0.9479(4) 0.5777(3) 0.1121(3)
H71 H 0.9143 0.5288 0.0542
H72 H 0.9223 0.6291 0.1147
C61 C 0.9749(3) 0.7754(3) 0.3011(3)
H73 H 1.0410 0.7825 0.3034
C62 C 0.9697(3) 0.8411(3) 0.3901(3)
H74 H 1.0031 0.9055 0.3952
C63 C 0.8679(3) 0.8332(3) 0.3872(3)
H75 H 0.8338 0.7699 0.3847
C64 C 0.8247(3) 0.8543(3) 0.3021(3)
H76 H 0.8516 0.9207 0.3095
C65 C 0.8381(4) 0.7950(4) 0.2151(3)
H77 H 0.7969 0.7305 0.1971
C66 C 0.8184(5) 0.8386(5) 0.1354(4)
H78 H 0.8263 0.7998 0.0800
H79 H 0.7537 0.8389 0.1228
C67 C 0.6832(3) 0.9037(3) 0.2894(3)
H80 H 0.7325 0.9618 0.2988
C68 C 0.6344(3) 0.9174(3) 0.3652(2)
H81 H 0.6059 0.9670 0.3631
C69 C 0.5587(3) 0.8290(3) 0.3533(2)
H82 H 0.5871 0.7795 0.3567
C70 C 0.4892(3) 0.8004(3) 0.2582(2)
H83 H 0.4552 0.8460 0.2558
C71 C 0.5419(3) 0.7926(3) 0.1834(3)
H84 H 0.5686 0.7412 0.1814
C72 C 0.4774(4) 0.7750(3) 0.0890(3)
H85 H 0.5145 0.7759 0.0450
H86 H 0.4319 0.7133 0.0698
C73 C 0.3276(3) 0.7000(3) 0.2171(3)
H87 H 0.3193 0.7606 0.2177
C74 C 0.2845(3) 0.6664(3) 0.2882(3)
H88 H 0.2175 0.6609 0.2727
C75 C 0.2945(3) 0.5704(3) 0.2859(3)
H89 H 0.3610 0.5743 0.3002
C76 C 0.2432(3) 0.5033(3) 0.1893(2)
H90 H 0.1761 0.4971 0.1757
C77 C 0.2867(3) 0.5409(3) 0.1194(3)
H91 H 0.3523 0.5416 0.1305
C78 C 0.2337(4) 0.4829(3) 0.0206(3)
H92 H 0.2630 0.5089 -0.0211
H93 H 0.2360 0.4194 0.0099
C79 C 0.1759(3) 0.3339(3) 0.1505(2)
H94 H 0.1197 0.3531 0.1365
C80 C 0.1698(3) 0.2860(3) 0.2241(2)
H95 H 0.1138 0.2309 0.2002
C81 C 0.2558(3) 0.2543(3) 0.2457(3)
H96 H 0.3126 0.3086 0.2682
C82 C 0.2590(3) 0.1875(3) 0.1564(3)
H97 H 0.2048 0.1308 0.1359
C83 C 0.2594(3) 0.2349(3) 0.0812(3)
H98 H 0.3183 0.2860 0.0982
C84 C 0.2489(4) 0.1661(3) -0.0106(3)
H99 H 0.2936 0.1320 -0.0031
H100 H 0.1863 0.1215 -0.0321
O35 O 0.34421(19) 0.16452(18) 0.17605(17)
O36 O 0.3481(2) 0.0751(2) 0.3106(2)
H151 H 0.3099 0.1017 0.2964
O37 O 0.5465(2) 0.0905(2) 0.34122(19)
H152 H 0.5261 0.1028 0.3862
O38 O 0.38079(19) 0.04560(19) 0.08009(17)
O39 O 0.5070(3) -0.0312(2) 0.0039(2)
H153 H 0.5091 -0.0554 -0.0485
O40 O 0.6283(2) 0.15142(19) 0.21270(18)
O41 O 0.7443(2) 0.1280(2) 0.36288(18)
H154 H 0.6883 0.1231 0.3533
O42 O 0.8931(2) 0.2929(2) 0.3977(2)
H155 H 0.9310 0.3410 0.3984
O43 O 0.7391(2) 0.1396(2) 0.12906(17)
O44 O 0.8798(3) 0.2267(3) 0.0518(2)
H156 H 0.8852 0.2226 -0.0003
O45 O 0.8830(2) 0.38182(19) 0.25553(18)
O46 O 1.0255(2) 0.4566(2) 0.41966(19)
H157 H 1.0797 0.4672 0.4494
O47 O 1.0274(2) 0.6436(2) 0.44976(19)
H158 H 1.0092 0.6894 0.4531
O48 O 0.9759(2) 0.4673(2) 0.18357(18)
O49 O 1.0461(3) 0.6089(2) 0.1167(2)
H159 H 1.0538 0.6390 0.0810
O50 O 0.9286(2) 0.6815(2) 0.2962(2)
O51 O 1.0124(3) 0.8201(2) 0.4677(2)
H160 H 1.0632 0.8602 0.4948
O52 O 0.8670(3) 0.8995(3) 0.4689(2)
H161 H 0.8251 0.9224 0.4568
O53 O 0.9334(3) 0.7975(3) 0.2242(2)
O54 O 0.8782(4) 0.9301(3) 0.1571(3)
H162 H 0.8870 0.9578 0.2118
O55 O 0.7243(2) 0.8322(2) 0.29352(19)
O56 O 0.7032(2) 0.94506(19) 0.45278(17)
H163 H 0.7127 1.0004 0.4796
O57 O 0.5122(2) 0.8437(2) 0.4242(2)
H164 H 0.4932 0.8886 0.4250
O58 O 0.6173(2) 0.8788(2) 0.20233(18)
O59 O 0.4280(3) 0.8426(3) 0.0871(2)
H165 H 0.3714 0.8155 0.0657
O60 O 0.4249(2) 0.71047(19) 0.24250(18)
O61 O 0.3291(2) 0.7325(2) 0.3770(2)
H166 H 0.3314 0.7850 0.3746
O62 O 0.2526(2) 0.5385(2) 0.35092(18)
H167 H 0.2029 0.4967 0.3237
O63 O 0.2826(2) 0.63464(19) 0.12823(18)
O64 O 0.1394(3) 0.4825(2) 0.0039(2)
H168 H 0.1079 0.4410 -0.0439
O65 O 0.25664(19) 0.41448(18) 0.18493(19)
O66 O 0.1609(2) 0.3477(2) 0.3049(2)
H169 H 0.2131 0.3753 0.3410
O67 O 0.2505(2) 0.2082(2) 0.3136(2)
H170 H 0.2430 0.1525 0.2903
O68 O 0.1805(2) 0.2712(2) 0.06946(18)
O69 O 0.2643(3) 0.2116(2) -0.0773(2)
H171 H 0.2701 0.1749 -0.1222
C85 C 0.6911(6) 0.5594(9) 0.8848(7)
C86 C 0.7636(6) 0.5743(7) 0.8459(6)
H101 H 0.8220 0.5718 0.8743
C87 C 0.7491(7) 0.5933(7) 0.7637(6)
H102 H 0.7991 0.6051 0.7377
C88 C 0.6623(7) 0.5953(6) 0.7183(6)
C103 C 0.5784(12) 0.545(2) 0.7471(11)
H117 H 0.5168 0.5307 0.7124
C104 C 0.5994(9) 0.523(2) 0.8279(11)
H118 H 0.5527 0.4844 0.8439
C105 C 0.6227(19) 0.6033(12) 0.6204(15)
C106 C 0.6818(13) 0.6753(9) 0.6010(11)
H119 H 0.7401 0.7114 0.6416
C107 C 0.6498(17) 0.6914(15) 0.5168(16)
H120 H 0.6869 0.7412 0.5041
C108 C 0.5687(13) 0.6385(11) 0.4550(13)
H121 H 0.5535 0.6511 0.3997
C109 C 0.5059(14) 0.5654(13) 0.4692(11)
H122 H 0.4483 0.5304 0.4268
C110 C 0.5361(10) 0.5485(12) 0.5531(10)
H123 H 0.4976 0.4989 0.5650
O70 O 0.7090(6) 0.5363(11) 0.9655(7)
H172 H 0.6595 0.5185 0.9787
C89 C 0.5603(6) 0.4726(10) 0.0992(6)
C90 C 0.6270(9) 0.5431(10) 0.1750(8)
H103 H 0.6576 0.5996 0.1682
C91 C 0.6473(7) 0.5289(7) 0.2600(5)
H104 H 0.6882 0.5771 0.3111
C92 C 0.6049(5) 0.4392(5) 0.2685(4)
C93 C 0.5335(8) 0.3855(9) 0.2000(6)
H105 H 0.4945 0.3334 0.2078
C94 C 0.5115(7) 0.4015(8) 0.1136(6)
H106 H 0.4603 0.3590 0.0667
C95 C 0.6264(4) 0.4218(4) 0.3586(4)
C96 C 0.7159(5) 0.4618(5) 0.4187(5)
H107 H 0.7634 0.5004 0.4035
C97 C 0.7339(5) 0.4433(5) 0.5025(5)
H108 H 0.7947 0.4683 0.5413
C98 C 0.6665(6) 0.3907(5) 0.5293(5)
H109 H 0.6797 0.3799 0.5857
C99 C 0.5764(6) 0.3530(5) 0.4693(5)
H110 H 0.5285 0.3172 0.4865
C100 C 0.5572(5) 0.3672(4) 0.3875(5)
H111 H 0.4965 0.3402 0.3488
O71 O 0.5428(6) 0.4835(12) 0.0140(6)
H173 H 0.5012 0.4373 -0.0224
C101 C 0.0352(7) 0.1877(6) 0.4371(7)
H112 H -0.0042 0.2112 0.4729
H113 H 0.0956 0.2027 0.4808
C102 C -0.0072(9) 0.0767(7) 0.4099(8)
H114 H -0.0629 0.0547 0.3596
H115 H -0.0224 0.0603 0.4618
H116 H 0.0384 0.0484 0.3919
O87 O 0.0514(9) 0.2458(15) 0.387(2)
H174 H 0.1063 0.2574 0.3845
O72 O 0.0769(3) 0.9553(3) 0.1823(3)
O73 O 0.2959(3) 0.9256(2) 0.8902(2)
O74 O 0.1421(3) 0.7991(3) 0.1747(3)
O75 O 0.9309(3) 0.1158(3) 0.5665(3)
O76 O 0.2411(3) 0.8492(3) 0.0595(3)
O77 O 0.0838(3) 0.2845(3) 0.8915(3)
O78 O 0.9580(3) 0.0997(3) 0.1095(3)
O79 O 0.0965(3) 0.2038(3) 0.7150(3)
O80 O 0.2997(3) 0.0628(3) 0.8048(3)
O81 O 0.1844(4) 0.9470(4) 0.5101(4)
O82 O 0.1496(3) 0.0360(3) 0.6658(3)
O83 O 0.1315(4) 0.0462(4) 0.3752(3)
O84 O 0.2691(5) 0.9140(4) 0.3351(4)
O85 O 0.2033(5) 0.7615(5) 0.4663(7)
O86 O 0.3693(6) 0.9505(4) 0.5128(6)
H29? H 0.7454 0.9134 0.9354
H30? H 0.6958 0.9911 0.9491
C111? C 0.6046(17) 0.605(3) 0.7671(15)
H124? H 0.5569 0.6297 0.7486
C112? C 0.6128(18) 0.580(2) 0.8491(19)
H125? H 0.5650 0.5779 0.8784
C113? C 0.6709(14) 0.6310(11) 0.6395(10)
C114? C 0.7601(13) 0.6810(11) 0.6236(11)
H126? H 0.8173 0.6989 0.6676
C115? C 0.7546(12) 0.7008(11) 0.5369(11)
H127? H 0.8104 0.7296 0.5257
C116? C 0.6753(13) 0.6805(13) 0.4729(14)
H128? H 0.6740 0.6912 0.4166
C117? C 0.5981(16) 0.6437(16) 0.4947(11)
H129? H 0.5425 0.6417 0.4561
C118? C 0.5868(15) 0.6058(19) 0.5701(17)
H130? H 0.5296 0.5688 0.5720
O89? O 0.6491(7) 0.8899(8) 0.9998(6)
H176? H 0.6938 0.8918 1.0397
loop_
_geom_bond_atom_site_label_1
_geom_bond_atom_site_label_2
_geom_bond_site_symmetry_1
_geom_bond_site_symmetry_2
C1 H1 1_555 1_555
C2 C1 1_555 1_555
H2 C2 1_555 1_555
C3 C2 1_555 1_555
H3 C3 1_555 1_555
C4 C3 1_555 1_555
H4 C4 1_555 1_555
C5 C4 1_555 1_555
H5 C5 1_555 1_555
C6 C5 1_555 1_555
H6 C6 1_555 1_555
H7 C6 1_555 1_555
C7 H8 1_555 1_555
C8 C7 1_555 1_555
H9 C8 1_555 1_555
C9 C8 1_555 1_555
H10 C9 1_555 1_555
C10 C9 1_555 1_555
H11 C10 1_555 1_555
C11 C10 1_555 1_555
H12 C11 1_555 1_555
C12 C11 1_555 1_555
H13 C12 1_555 1_555
H14 C12 1_555 1_555
C13 H15 1_555 1_555
C14 C13 1_555 1_555
H16 C14 1_555 1_555
C15 C14 1_555 1_555
H17 C15 1_555 1_555
C16 C15 1_555 1_555
H18 C16 1_555 1_555
C17 C16 1_555 1_555
H19 C17 1_555 1_555
C18 C17 1_555 1_555
H20 C18 1_555 1_555
H21 C18 1_555 1_555
C19 H22 1_555 1_555
C20 C19 1_555 1_555
H23 C20 1_555 1_555
C21 C20 1_555 1_555
H24 C21 1_555 1_555
C22 C21 1_555 1_555
H25 C22 1_555 1_555
C23 C22 1_555 1_555
H26 C23 1_555 1_555
C24 C23 1_555 1_555
H27 C24 1_555 1_555
H28 C24 1_555 1_555
C25 H31 1_555 1_555
C26 C25 1_555 1_555
H32 C26 1_555 1_555
C27 C26 1_555 1_555
H33 C27 1_555 1_555
C28 C27 1_555 1_555
H34 C28 1_555 1_555
C29 C28 1_555 1_555
H35 C29 1_555 1_555
C30 C29 1_555 1_555
H36 C30 1_555 1_555
H37 C30 1_555 1_555
C31 H38 1_555 1_555
C32 C31 1_555 1_555
H39 C32 1_555 1_555
C33 C32 1_555 1_555
H40 C33 1_555 1_555
C34 C33 1_555 1_555
H41 C34 1_555 1_555
C35 C34 1_555 1_555
H42 C35 1_555 1_555
C36 C35 1_555 1_555
H43 C36 1_555 1_555
H44 C36 1_555 1_555
C37 H45 1_555 1_555
C38 C37 1_555 1_555
H46 C38 1_555 1_555
C39 C38 1_555 1_555
H47 C39 1_555 1_555
C40 C39 1_555 1_555
H48 C40 1_555 1_555
C41 C40 1_555 1_555
H49 C41 1_555 1_555
C42 C41 1_555 1_555
H50 C42 1_555 1_555
H51 C42 1_555 1_555
C43 H52 1_555 1_555
C44 C43 1_555 1_555
H53 C44 1_555 1_555
C45 C44 1_555 1_555
H54 C45 1_555 1_555
C46 C45 1_555 1_555
H55 C46 1_555 1_555
C47 C46 1_555 1_555
H56 C47 1_555 1_555
C48 C47 1_555 1_555
H57 C48 1_555 1_555
H58 C48 1_555 1_555
C49 H59 1_555 1_555
C50 C49 1_555 1_555
H60 C50 1_555 1_555
C51 C50 1_555 1_555
H61 C51 1_555 1_555
C52 C51 1_555 1_555
H62 C52 1_555 1_555
C53 C52 1_555 1_555
H63 C53 1_555 1_555
C54 C53 1_555 1_555
H64 C54 1_555 1_555
H65 C54 1_555 1_555
C55 H66 1_555 1_555
C56 C55 1_555 1_555
H67 C56 1_555 1_555
C57 C56 1_555 1_555
H68 C57 1_555 1_555
C58 C57 1_555 1_555
H69 C58 1_555 1_555
C59 C58 1_555 1_555
H70 C59 1_555 1_555
C60 C59 1_555 1_555
H71 C60 1_555 1_555
H72 C60 1_555 1_555
C61 H73 1_555 1_555
C62 C61 1_555 1_555
H74 C62 1_555 1_555
C63 C62 1_555 1_555
H75 C63 1_555 1_555
C64 C63 1_555 1_555
H76 C64 1_555 1_555
C65 C64 1_555 1_555
H77 C65 1_555 1_555
C66 C65 1_555 1_555
H78 C66 1_555 1_555
H79 C66 1_555 1_555
C67 H80 1_555 1_555
C68 C67 1_555 1_555
H81 C68 1_555 1_555
C69 C68 1_555 1_555
H82 C69 1_555 1_555
C70 C69 1_555 1_555
H83 C70 1_555 1_555
C71 C70 1_555 1_555
H84 C71 1_555 1_555
C72 C71 1_555 1_555
H85 C72 1_555 1_555
H86 C72 1_555 1_555
C73 H87 1_555 1_555
C74 C73 1_555 1_555
H88 C74 1_555 1_555
C75 C74 1_555 1_555
H89 C75 1_555 1_555
C76 C75 1_555 1_555
H90 C76 1_555 1_555
C77 C76 1_555 1_555
H91 C77 1_555 1_555
C78 C77 1_555 1_555
H92 C78 1_555 1_555
H93 C78 1_555 1_555
C79 H94 1_555 1_555
C80 C79 1_555 1_555
H95 C80 1_555 1_555
C81 C80 1_555 1_555
H96 C81 1_555 1_555
C82 C81 1_555 1_555
H97 C82 1_555 1_555
C83 C82 1_555 1_555
H98 C83 1_555 1_555
C84 C83 1_555 1_555
H99 C84 1_555 1_555
H100 C84 1_555 1_555
C85 C86 1_555 1_555
C86 H101 1_555 1_555
C87 C86 1_555 1_555
H102 C87 1_555 1_555
C88 C87 1_555 1_555
C89 C90 1_555 1_555
C90 H103 1_555 1_555
C91 C90 1_555 1_555
H104 C91 1_555 1_555
C92 C91 1_555 1_555
C93 C92 1_555 1_555
H105 C93 1_555 1_555
C94 C89 1_555 1_555
H106 C94 1_555 1_555
C95 C92 1_555 1_555
C96 C95 1_555 1_555
H107 C96 1_555 1_555
C97 C96 1_555 1_555
H108 C97 1_555 1_555
C98 C97 1_555 1_555
H109 C98 1_555 1_555
C99 C98 1_555 1_555
H110 C99 1_555 1_555
C100 C95 1_555 1_555
H111 C100 1_555 1_555
C101 H112 1_555 1_555
H113 C101 1_555 1_555
C102 C101 1_555 1_555
H114 C102 1_555 1_555
H115 C102 1_555 1_555
H116 C102 1_555 1_555
C103 C88 1_555 1_555
H117 C103 1_555 1_555
C104 C85 1_555 1_555
H118 C104 1_555 1_555
C105 C88 1_555 1_555
C106 C105 1_555 1_555
H119 C106 1_555 1_555
C107 C106 1_555 1_555
H120 C107 1_555 1_555
C108 C107 1_555 1_555
H121 C108 1_555 1_555
C109 C108 1_555 1_555
H122 C109 1_555 1_555
C110 C105 1_555 1_555
H123 C110 1_555 1_555
O1 C1 1_555 1_555
O2 C2 1_555 1_555
H131 O2 1_555 1_555
O3 C3 1_555 1_555
H132 O3 1_555 1_555
O4 C1 1_555 1_555
O5 C6 1_555 1_555
H133 O5 1_555 1_555
O6 C4 1_555 1_555
O7 C8 1_555 1_555
H134 O7 1_555 1_555
O8 C9 1_555 1_555
H135 O8 1_555 1_555
O9 C7 1_555 1_555
O10 C12 1_555 1_555
H136 O10 1_555 1_555
O11 C10 1_555 1_555
O12 C14 1_555 1_555
H137 O12 1_555 1_555
O13 C15 1_555 1_555
H138 O13 1_555 1_555
O14 C13 1_555 1_555
O15 C18 1_555 1_555
H139 O15 1_555 1_555
O16 C16 1_555 1_555
O17 C20 1_555 1_555
H140 O17 1_555 1_555
O18 C21 1_555 1_555
H141 O18 1_555 1_555
O19 C19 1_555 1_555
O20 C22 1_555 1_555
O21 C26 1_555 1_555
H142 O21 1_555 1_555
O22 C27 1_555 1_555
H143 O22 1_555 1_555
O23 C25 1_555 1_555
O24 C30 1_555 1_555
H144 O24 1_555 1_555
O25 C28 1_555 1_555
O26 C32 1_555 1_555
H145 O26 1_555 1_555
O27 C33 1_555 1_555
H146 O27 1_555 1_555
O28 C31 1_555 1_555
O29 C36 1_555 1_555
H147 O29 1_555 1_555
O30 C34 1_555 1_555
O31 C38 1_555 1_555
H148 O31 1_555 1_555
O32 C39 1_555 1_555
H149 O32 1_555 1_555
O33 C37 1_555 1_555
O34 C42 1_555 1_555
H150 O34 1_555 1_555
O35 C43 1_555 1_555
O36 C44 1_555 1_555
H151 O36 1_555 1_555
O37 C45 1_555 1_555
H152 O37 1_555 1_555
O38 C43 1_555 1_555
O39 C48 1_555 1_555
H153 O39 1_555 1_555
O40 C46 1_555 1_555
O41 C50 1_555 1_555
H154 O41 1_555 1_555
O42 C51 1_555 1_555
H155 O42 1_555 1_555
O43 C49 1_555 1_555
O44 C54 1_555 1_555
H156 O44 1_555 1_555
O45 C52 1_555 1_555
O46 C56 1_555 1_555
H157 O46 1_555 1_555
O47 C57 1_555 1_555
H158 O47 1_555 1_555
O48 C55 1_555 1_555
O49 C60 1_555 1_555
H159 O49 1_555 1_555
O50 C58 1_555 1_555
O51 C62 1_555 1_555
H160 O51 1_555 1_555
O52 C63 1_555 1_555
H161 O52 1_555 1_555
O53 C61 1_555 1_555
O54 C66 1_555 1_555
H162 O54 1_555 1_555
O55 C64 1_555 1_555
O56 C68 1_555 1_555
H163 O56 1_555 1_555
O57 C69 1_555 1_555
H164 O57 1_555 1_555
O58 C67 1_555 1_555
O59 C72 1_555 1_555
H165 O59 1_555 1_555
O60 C70 1_555 1_555
O61 C74 1_555 1_555
H166 O61 1_555 1_555
O62 C75 1_555 1_555
H167 O62 1_555 1_555
O63 C73 1_555 1_555
O64 C78 1_555 1_555
H168 O64 1_555 1_555
O65 C76 1_555 1_555
O66 C80 1_555 1_555
H169 O66 1_555 1_555
O67 C81 1_555 1_555
H170 O67 1_555 1_555
O68 C79 1_555 1_555
O69 C84 1_555 1_555
H171 O69 1_555 1_555
O70 C85 1_555 1_555
H172 O70 1_555 1_555
O71 C89 1_555 1_555
H173 O71 1_555 1_555
O87 C101 1_555 1_555
H174 O87 1_555 1_555
O88 C24 1_555 1_555
H175 O88 1_555 1_555
C5 O4 1_555 1_555
C7 O6 1_555 1_555
C11 O9 1_555 1_555
C13 O11 1_555 1_555
C17 O14 1_555 1_555
C19 O16 1_555 1_555
C23 O19 1_555 1_555
C25 O20 1_555 1_555
C29 O23 1_555 1_555
C31 O25 1_555 1_555
C35 O28 1_555 1_555
C37 O30 1_555 1_555
C40 O1 1_555 1_555
C41 O33 1_555 1_555
C47 O38 1_555 1_555
C49 O40 1_555 1_555
C53 O43 1_555 1_555
C55 O45 1_555 1_555
C59 O48 1_555 1_555
C61 O50 1_555 1_555
C65 O53 1_555 1_555
C67 O55 1_555 1_555
C71 O58 1_555 1_555
C73 O60 1_555 1_555
C77 O63 1_555 1_555
C79 O65 1_555 1_555
C82 O35 1_555 1_555
C83 O68 1_555 1_555
C93 C94 1_555 1_555
C99 C100 1_555 1_555
C103 C104 1_555 1_555
C109 C110 1_555 1_555

#END
