
#######################################################################
#
#                 Cambridge Crystallographic Data Centre
#                                CCDC 
#
#######################################################################
#
# If this CIF has been generated from an entry in the Cambridge 
# Structural Database, then it will include bibliographic, chemical, 
# crystal, experimental, refinement or atomic coordinate data resulting 
# from the CCDC's data processing and validation procedures.
#
#######################################################################

data_OFEBAC
_chemical_name_common            
'5-((E)-2-Cyano-2-diethylcarbamoyl-vinyl)-2-hydroxy-3-nitrophenyl 2,2-dimethylpropionic acid ester'
_chemical_formula_moiety         'C19 H23 N3 O6'
_chemical_name_systematic        'Entacapone monopivaloate'
_symmetry_cell_setting           triclinic
_symmetry_space_group_name_H-M   'P -1'
_symmetry_Int_Tables_number      2
_space_group_name_Hall           '-P 1'
loop_
_symmetry_equiv_pos_site_id
_symmetry_equiv_pos_as_xyz
1 x,y,z
2 -x,-y,-z
_cell_length_a                   7.792(3)
_cell_length_b                   9.2656(14)
_cell_length_c                   14.1102(17)
_cell_angle_alpha                108.223(11)
_cell_angle_beta                 92.453(19)
_cell_angle_gamma                95.32(2)
_cell_volume                     960.681
_exptl_crystal_colour            yellow
_exptl_crystal_description       block
_cell_formula_units_Z            2
_exptl_crystal_recrystallization_method 'ethyl acetate/petroleum ether'
loop_
_atom_site_label
_atom_site_type_symbol
_atom_site_fract_x
_atom_site_fract_y
_atom_site_fract_z
O1 O -0.45959(15) 0.57793(14) -0.10794(9)
O2 O -0.04928(15) 0.14953(14) 0.19014(8)
O3 O 0.13942(19) 0.34783(15) 0.28114(10)
O4 O 0.24522(16) 0.08836(14) 0.10685(9)
H1 H 0.3315 0.0681 0.0734
O5 O 0.35444(16) 0.21518(16) -0.14245(9)
O6 O 0.42472(17) 0.09010(16) -0.04345(10)
N1 N -0.49979(18) 0.40896(17) -0.26441(10)
N2 N -0.0423(2) 0.3226(2) -0.28619(12)
N3 N 0.32581(18) 0.16709(17) -0.07316(11)
C1 C -0.1061(2) 0.30019(19) -0.02181(12)
C2 C -0.1362(2) 0.2610(2) 0.06532(12)
H2 H -0.2412 0.2814 0.0962
C3 C -0.0162(2) 0.19386(19) 0.10629(12)
C4 C 0.1394(2) 0.15788(19) 0.06261(12)
C5 C 0.1676(2) 0.19847(19) -0.02295(12)
C6 C 0.0494(2) 0.26964(19) -0.06407(12)
H3 H 0.0753 0.2977 -0.1216
C7 C -0.2414(2) 0.37016(19) -0.06162(13)
H4 H -0.3294 0.4038 -0.0179
C8 C -0.2597(2) 0.39378(19) -0.15053(12)
C9 C -0.4158(2) 0.4677(2) -0.17322(12)
C10 C -0.4846(2) 0.2580(2) -0.33512(13)
H5 H -0.5989 0.1963 -0.348
H6 H -0.4037 0.2058 -0.3047
C11 C -0.4209(3) 0.2651(3) -0.43369(15)
H7 H -0.5016 0.315 -0.4649
H8 H -0.4135 0.1612 -0.4783
H9 H -0.3063 0.3237 -0.4217
C12 C -0.6452(2) 0.4868(2) -0.28627(14)
H10 H -0.7175 0.5105 -0.2285
H11 H -0.7177 0.417 -0.3449
C13 C -0.5867(3) 0.6329(3) -0.30743(19)
H12 H -0.5186 0.7041 -0.2486
H13 H -0.688 0.6794 -0.3226
H14 H -0.5156 0.6101 -0.3648
C14 C -0.1376(2) 0.3550(2) -0.22514(13)
C15 C 0.0516(2) 0.2332(2) 0.27631(13)
C16 C 0.0433(2) 0.1588(2) 0.35775(13)
C17 C 0.2017(3) 0.0681(3) 0.34707(17)
H15 H 0.1935 -0.0085 0.2805
H16 H 0.2048 0.017 0.3982
H17 H 0.3075 0.1384 0.3557
C18 C -0.1208(3) 0.0495(2) 0.34726(15)
H18 H -0.2222 0.1051 0.3488
H19 H -0.1196 0.0068 0.4027
H20 H -0.1259 -0.0337 0.2836
C19 C 0.0593(3) 0.2847(3) 0.45857(14)
H21 H 0.165 0.3538 0.4639
H22 H 0.0646 0.239 0.5124
H23 H -0.0412 0.3423 0.4643
loop_
_geom_bond_atom_site_label_1
_geom_bond_atom_site_label_2
_geom_bond_site_symmetry_1
_geom_bond_site_symmetry_2
O1 C9 1_555 1_555
O2 C3 1_555 1_555
O3 C15 1_555 1_555
O4 H1 1_555 1_555
O5 N3 1_555 1_555
O6 N3 1_555 1_555
N1 C9 1_555 1_555
N2 C14 1_555 1_555
N3 C5 1_555 1_555
C1 C2 1_555 1_555
C2 H2 1_555 1_555
C3 C2 1_555 1_555
C4 O4 1_555 1_555
C5 C4 1_555 1_555
C6 C1 1_555 1_555
H3 C6 1_555 1_555
C7 C1 1_555 1_555
H4 C7 1_555 1_555
C8 C7 1_555 1_555
C9 C8 1_555 1_555
C10 N1 1_555 1_555
H5 C10 1_555 1_555
H6 C10 1_555 1_555
C11 C10 1_555 1_555
H7 C11 1_555 1_555
H8 C11 1_555 1_555
H9 C11 1_555 1_555
C12 N1 1_555 1_555
H10 C12 1_555 1_555
H11 C12 1_555 1_555
C13 C12 1_555 1_555
H12 C13 1_555 1_555
H13 C13 1_555 1_555
H14 C13 1_555 1_555
C14 C8 1_555 1_555
C15 O2 1_555 1_555
C16 C15 1_555 1_555
C17 C16 1_555 1_555
H15 C17 1_555 1_555
H16 C17 1_555 1_555
H17 C17 1_555 1_555
C18 C16 1_555 1_555
H18 C18 1_555 1_555
H19 C18 1_555 1_555
H20 C18 1_555 1_555
C19 C16 1_555 1_555
H21 C19 1_555 1_555
H22 C19 1_555 1_555
H23 C19 1_555 1_555
C3 C4 1_555 1_555
C5 C6 1_555 1_555

#END
