
#######################################################################
#
#                 Cambridge Crystallographic Data Centre
#                                CCDC 
#
#######################################################################
#
# If this CIF has been generated from an entry in the Cambridge 
# Structural Database, then it will include bibliographic, chemical, 
# crystal, experimental, refinement or atomic coordinate data resulting 
# from the CCDC's data processing and validation procedures.
#
#######################################################################

data_OFEBIK
_chemical_name_common            
'5-((Z)-2-Cyano-2-diethylcarbamoyl-vinyl)-3-nitrophenyl bis(benzoic acid) ester'
_chemical_formula_moiety         'C28 H23 N3 O7'
_chemical_name_systematic        'Entacapone dibenzoate'
_symmetry_cell_setting           triclinic
_symmetry_space_group_name_H-M   'P -1'
_symmetry_Int_Tables_number      2
_space_group_name_Hall           '-P 1'
loop_
_symmetry_equiv_pos_site_id
_symmetry_equiv_pos_as_xyz
1 x,y,z
2 -x,-y,-z
_cell_length_a                   8.8839(2)
_cell_length_b                   14.1085(6)
_cell_length_c                   20.5846(9)
_cell_angle_alpha                82.117(2)
_cell_angle_beta                 84.376(2)
_cell_angle_gamma                88.912(2)
_cell_volume                     2543.32
_exptl_crystal_colour            colorless
_exptl_crystal_description       block
_cell_formula_units_Z            4
_exptl_crystal_recrystallization_method 'dichloromethane/diisopropyl ether'
loop_
_atom_site_label
_atom_site_type_symbol
_atom_site_fract_x
_atom_site_fract_y
_atom_site_fract_z
N1 N 0.3235(2) 0.80892(15) 0.19312(10)
N2 N 0.5679(3) 0.64956(18) 0.07114(13)
N3 N 0.1258(2) 1.12381(17) -0.09750(11)
O1 O 0.54731(19) 0.88620(13) 0.16416(9)
O2 O 0.22071(19) 1.15882(13) 0.12755(9)
O3 O 0.4346(2) 1.24026(17) 0.09345(11)
O4 O 0.11792(17) 1.23743(12) 0.00927(9)
O5 O -0.1038(2) 1.17622(15) 0.05537(13)
O6 O 0.0761(2) 1.06366(15) -0.12682(11)
O7 O 0.1255(2) 1.20975(14) -0.11731(10)
C1 C 0.3218(2) 0.96522(17) 0.02808(12)
C2 C 0.3130(3) 1.02115(18) 0.07951(13)
H1 H 0.3569 0.9984 0.1190
C3 C 0.2410(3) 1.10901(18) 0.07329(13)
C4 C 0.1805(2) 1.14637(17) 0.01564(13)
C5 C 0.1901(2) 1.09066(18) -0.03507(13)
C6 C 0.2583(2) 1.00185(18) -0.02959(13)
H2 H 0.2621 0.9653 -0.0652
C7 C 0.3954(2) 0.87077(18) 0.02964(13)
H3 H 0.4101 0.8464 -0.0113
C8 C 0.4442(2) 0.81457(18) 0.08130(13)
C9 C 0.4413(3) 0.83973(18) 0.15043(13)
C10 C 0.3155(3) 0.8347(2) 0.26004(14)
H4 H 0.4192 0.8434 0.2719
H5 H 0.2679 0.7818 0.2915
C11 C 0.2248(4) 0.9261(2) 0.26571(17)
H6 H 0.2733 0.9790 0.2355
H7 H 0.2207 0.9409 0.3110
H8 H 0.1219 0.9176 0.2543
C12 C 0.1946(3) 0.7560(2) 0.17681(14)
H9 H 0.1918 0.7651 0.1284
H10 H 0.0997 0.7828 0.1965
C13 C 0.2020(3) 0.6502(2) 0.20124(17)
H11 H 0.2901 0.6219 0.1784
H12 H 0.1097 0.6193 0.1924
H13 H 0.2110 0.6408 0.2488
C14 C 0.5122(3) 0.7235(2) 0.07334(13)
C15 C 0.3280(3) 1.22449(19) 0.13384(14)
C16 C 0.2920(3) 1.2719(2) 0.19316(15)
C17 C 0.3744(4) 1.3506(2) 0.20041(17)
H14 H 0.4535 1.3730 0.1678
C18 C 0.3421(4) 1.3975(3) 0.2552(2)
H15 H 0.3979 1.4524 0.2600
C19 C 0.2289(5) 1.3638(3) 0.3024(2)
H16 H 0.2056 1.3965 0.3395
C20 C 0.1494(5) 1.2842(3) 0.2968(2)
H17 H 0.0738 1.2604 0.3306
C21 C 0.1787(4) 1.2379(3) 0.24163(17)
H18 H 0.1217 1.1833 0.2370
C22 C -0.0358(3) 1.2429(2) 0.02576(14)
C23 C -0.0974(3) 1.3375(2) 0.00311(15)
C24 C -0.0243(4) 1.3982(2) -0.04847(16)
H19 H 0.0707 1.3807 -0.0690
C25 C -0.0925(4) 1.4859(2) -0.07003(18)
H20 H -0.0454 1.5279 -0.1060
C26 C -0.2301(4) 1.5106(3) -0.0381(2)
H21 H -0.2759 1.5703 -0.0522
C27 C -0.3014(4) 1.4499(3) 0.0137(2)
H22 H -0.3944 1.4684 0.0355
C28 C -0.2366(3) 1.3621(2) 0.03360(19)
H23 H -0.2870 1.3188 0.0679
N4 N 0.6583(2) 0.66674(16) 0.29805(11)
N5 N 0.4248(2) 0.84164(17) 0.41905(12)
N6 N 0.8906(2) 0.38215(16) 0.58875(11)
O8 O 0.42795(18) 0.60162(13) 0.33164(9)
O9 O 0.74600(18) 0.32158(12) 0.37488(9)
O10 O 0.5177(2) 0.26368(16) 0.41530(12)
O11 O 0.87214(16) 0.25547(12) 0.48778(9)
O12 O 1.1097(2) 0.31078(14) 0.47418(11)
O13 O 0.89590(19) 0.29733(13) 0.61133(9)
O14 O 0.9414(2) 0.44616(14) 0.61449(10)
C29 C 0.6750(2) 0.52907(17) 0.46462(12)
C30 C 0.6716(3) 0.46759(18) 0.41692(13)
H24 H 0.6208 0.4868 0.3787
C31 C 0.7414(3) 0.37940(17) 0.42507(12)
C32 C 0.8147(2) 0.34738(17) 0.48072(12)
C33 C 0.8178(2) 0.40935(17) 0.52751(12)
C34 C 0.7501(2) 0.49828(17) 0.52001(12)
H25 H 0.7548 0.5389 0.5529
C35 C 0.6017(2) 0.62300(18) 0.46155(13)
H26 H 0.5919 0.6504 0.5014
C36 C 0.5464(2) 0.67566(18) 0.40960(13)
C37 C 0.5407(3) 0.64516(18) 0.34240(13)
C38 C 0.6563(3) 0.6405(2) 0.23119(14)
H27 H 0.7065 0.6914 0.1988
H28 H 0.5501 0.6364 0.2211
C39 C 0.7356(4) 0.5457(2) 0.22389(17)
H29 H 0.8405 0.5492 0.2343
H30 H 0.7344 0.5323 0.1785
H31 H 0.6830 0.4945 0.2542
C40 C 0.7942(3) 0.7166(2) 0.31170(15)
H32 H 0.8837 0.6928 0.2861
H33 H 0.8089 0.7007 0.3590
C41 C 0.7849(3) 0.8241(2) 0.29485(17)
H34 H 0.7733 0.8407 0.2478
H35 H 0.8777 0.8530 0.3051
H36 H 0.6977 0.8485 0.3207
C42 C 0.4790(3) 0.76756(19) 0.41660(13)
C43 C 0.6226(3) 0.26529(19) 0.37382(15)
C44 C 0.6400(3) 0.2084(2) 0.31934(15)
C45 C 0.7498(4) 0.2273(3) 0.26734(16)
H37 H 0.8147 0.2807 0.2646
C46 C 0.7643(5) 0.1667(3) 0.2184(2)
H38 H 0.8381 0.1797 0.1817
C47 C 0.6728(6) 0.0891(3) 0.2234(2)
H39 H 0.6855 0.0475 0.1907
C48 C 0.5641(5) 0.0704(3) 0.2741(2)
H40 H 0.5006 0.0163 0.2769
C49 C 0.5463(4) 0.1311(2) 0.32181(19)
H41 H 0.4681 0.1192 0.3568
C50 C 1.0258(3) 0.2453(2) 0.49267(14)
C51 C 1.0664(3) 0.14876(19) 0.52214(14)
C52 C 0.9600(3) 0.08727(19) 0.55850(14)
H42 H 0.8565 0.1058 0.5627
C53 C 1.0048(3) -0.0011(2) 0.58861(15)
H43 H 0.9319 -0.0433 0.6135
C54 C 1.1530(4) -0.0276(2) 0.58269(18)
H44 H 1.1828 -0.0884 0.6035
C55 C 1.2602(4) 0.0325(2) 0.5469(2)
H45 H 1.3632 0.0128 0.5429
C56 C 1.2188(3) 0.1220(2) 0.51647(17)
H46 H 1.2927 0.1642 0.4923
loop_
_geom_bond_atom_site_label_1
_geom_bond_atom_site_label_2
_geom_bond_site_symmetry_1
_geom_bond_site_symmetry_2
N1 C9 1_555 1_555
N2 C14 1_555 1_555
N3 O6 1_555 1_555
O1 C9 1_555 1_555
O2 C3 1_555 1_555
O3 C15 1_555 1_555
O4 C4 1_555 1_555
O5 C22 1_555 1_555
O7 N3 1_555 1_555
C1 C2 1_555 1_555
C2 H1 1_555 1_555
C3 C2 1_555 1_555
C4 C3 1_555 1_555
C5 N3 1_555 1_555
C6 C1 1_555 1_555
H2 C6 1_555 1_555
C7 C1 1_555 1_555
H3 C7 1_555 1_555
C8 C7 1_555 1_555
C9 C8 1_555 1_555
C10 N1 1_555 1_555
H4 C10 1_555 1_555
H5 C10 1_555 1_555
C11 C10 1_555 1_555
H6 C11 1_555 1_555
H7 C11 1_555 1_555
H8 C11 1_555 1_555
C12 N1 1_555 1_555
H9 C12 1_555 1_555
H10 C12 1_555 1_555
C13 C12 1_555 1_555
H11 C13 1_555 1_555
H12 C13 1_555 1_555
H13 C13 1_555 1_555
C14 C8 1_555 1_555
C15 O2 1_555 1_555
C16 C15 1_555 1_555
C17 C16 1_555 1_555
H14 C17 1_555 1_555
C18 C17 1_555 1_555
H15 C18 1_555 1_555
C19 C18 1_555 1_555
H16 C19 1_555 1_555
C20 C19 1_555 1_555
H17 C20 1_555 1_555
C21 C16 1_555 1_555
H18 C21 1_555 1_555
C22 O4 1_555 1_555
C23 C22 1_555 1_555
C24 C23 1_555 1_555
H19 C24 1_555 1_555
C25 C24 1_555 1_555
H20 C25 1_555 1_555
C26 C25 1_555 1_555
H21 C26 1_555 1_555
C27 C26 1_555 1_555
H22 C27 1_555 1_555
C28 C23 1_555 1_555
H23 C28 1_555 1_555
N4 C37 1_555 1_555
N5 C42 1_555 1_555
N6 O13 1_555 1_555
O8 C37 1_555 1_555
O9 C31 1_555 1_555
O10 C43 1_555 1_555
O11 C32 1_555 1_555
O12 C50 1_555 1_555
O14 N6 1_555 1_555
C29 C30 1_555 1_555
C30 H24 1_555 1_555
C31 C30 1_555 1_555
C32 C31 1_555 1_555
C33 N6 1_555 1_555
C34 C29 1_555 1_555
H25 C34 1_555 1_555
C35 C29 1_555 1_555
H26 C35 1_555 1_555
C36 C35 1_555 1_555
C37 C36 1_555 1_555
C38 N4 1_555 1_555
H27 C38 1_555 1_555
H28 C38 1_555 1_555
C39 C38 1_555 1_555
H29 C39 1_555 1_555
H30 C39 1_555 1_555
H31 C39 1_555 1_555
C40 N4 1_555 1_555
H32 C40 1_555 1_555
H33 C40 1_555 1_555
C41 C40 1_555 1_555
H34 C41 1_555 1_555
H35 C41 1_555 1_555
H36 C41 1_555 1_555
C42 C36 1_555 1_555
C43 O9 1_555 1_555
C44 C43 1_555 1_555
C45 C44 1_555 1_555
H37 C45 1_555 1_555
C46 C45 1_555 1_555
H38 C46 1_555 1_555
C47 C46 1_555 1_555
H39 C47 1_555 1_555
C48 C47 1_555 1_555
H40 C48 1_555 1_555
C49 C44 1_555 1_555
H41 C49 1_555 1_555
C50 O11 1_555 1_555
C51 C50 1_555 1_555
C52 C51 1_555 1_555
H42 C52 1_555 1_555
C53 C52 1_555 1_555
H43 C53 1_555 1_555
C54 C53 1_555 1_555
H44 C54 1_555 1_555
C55 C54 1_555 1_555
H45 C55 1_555 1_555
C56 C51 1_555 1_555
H46 C56 1_555 1_555
C4 C5 1_555 1_555
C5 C6 1_555 1_555
C20 C21 1_555 1_555
C27 C28 1_555 1_555
C32 C33 1_555 1_555
C33 C34 1_555 1_555
C48 C49 1_555 1_555
C55 C56 1_555 1_555

#END
