
#######################################################################
#
#                 Cambridge Crystallographic Data Centre
#                                CCDC 
#
#######################################################################
#
# If this CIF has been generated from an entry in the Cambridge 
# Structural Database, then it will include bibliographic, chemical, 
# crystal, experimental, refinement or atomic coordinate data resulting 
# from the CCDC's data processing and validation procedures.
#
#######################################################################

data_OFEBEG
_chemical_name_common            
'5-((E)-2-cyano-2-diethylcarbamoyl-vinyl)-3-nitrophenyl bis(acetic acid) ester'
_chemical_formula_moiety         'C18 H19 N3 O7'
_chemical_name_systematic        'Entacapone diacetate'
_symmetry_cell_setting           monoclinic
_symmetry_space_group_name_H-M   'P 21/c'
_symmetry_Int_Tables_number      14
_space_group_name_Hall           '-P 2ybc'
loop_
_symmetry_equiv_pos_site_id
_symmetry_equiv_pos_as_xyz
1 x,y,z
2 -x,1/2+y,1/2-z
3 -x,-y,-z
4 x,1/2-y,1/2+z
_cell_length_a                   7.4059(16)
_cell_length_b                   18.050(3)
_cell_length_c                   14.7245(13)
_cell_angle_alpha                90
_cell_angle_beta                 103.033(12)
_cell_angle_gamma                90
_cell_volume                     1917.62
_exptl_crystal_colour            yellow
_exptl_crystal_description       block
_cell_formula_units_Z            4
_exptl_crystal_recrystallization_method 'ethyl acetate/petroleum ether'
loop_
_atom_site_label
_atom_site_type_symbol
_atom_site_fract_x
_atom_site_fract_y
_atom_site_fract_z
O1 O -0.0336(3) 0.39992(10) 1.05478(13)
O2 O 0.3869(3) 0.59737(9) 0.74276(12)
O3 O 0.2868(4) 0.52693(14) 0.61917(16)
O4 O 0.6942(2) 0.52689(9) 0.72613(11)
O5 O 0.6607(3) 0.42625(11) 0.63485(14)
O6 O 0.8166(3) 0.32519(12) 0.85471(17)
O7 O 0.9397(2) 0.42307(13) 0.81285(15)
N1 N 0.1176(3) 0.30228(11) 1.13205(13)
N2 N 0.3124(4) 0.23949(13) 0.92644(19)
N3 N 0.8125(3) 0.39056(14) 0.83449(14)
C1 C 0.3839(3) 0.44640(12) 0.90876(15)
C2 C 0.3364(3) 0.51064(12) 0.85691(16)
H1 H 0.2349 0.5384 0.8643
C3 C 0.4380(3) 0.53333(12) 0.79506(16)
C4 C 0.5962(3) 0.49557(13) 0.78522(15)
C5 C 0.6441(3) 0.43241(13) 0.83836(16)
C6 C 0.5388(3) 0.40707(13) 0.89867(15)
H2 H 0.572 0.3637 0.9324
C7 C 0.2678(3) 0.42596(12) 0.97397(15)
H3 H 0.2159 0.4655 0.9996
C8 C 0.2262(3) 0.35922(12) 1.00158(15)
C9 C 0.0933(3) 0.35471(12) 1.06630(16)
C10 C 0.2835(4) 0.25674(18) 1.1623(2)
H4 H 0.3367 0.2667 1.2276
H5 H 0.3741 0.271 1.1272
C11 C 0.2469(6) 0.1753(2) 1.1499(3)
H6 H 0.3607 0.1485 1.1709
H7 H 0.1971 0.1647 1.0852
H8 H 0.1596 0.1604 1.1857
C12 C -0.0201(3) 0.29890(15) 1.19042(17)
H9 H -0.0448 0.3487 1.2091
H10 H 0.0315 0.2709 1.2465
C13 C -0.1986(4) 0.26384(18) 1.1414(2)
H11 H -0.283 0.263 1.1822
H12 H -0.1755 0.2141 1.1239
H13 H -0.2518 0.2919 1.0865
C14 C 0.2786(3) 0.29284(14) 0.96125(18)
C15 C 0.3113(4) 0.58670(16) 0.6503(2)
C16 C 0.2704(5) 0.65751(18) 0.6004(2)
H14 H 0.3045 0.6978 0.6434
H15 H 0.1403 0.6603 0.5724
H16 H 0.3397 0.6607 0.5527
C17 C 0.7152(4) 0.48777(16) 0.64908(18)
C18 C 0.8129(6) 0.5345(2) 0.5929(2)
H17 H 0.8394 0.582 0.6223
H18 H 0.7359 0.5409 0.5316
H19 H 0.9267 0.5109 0.5884
loop_
_geom_bond_atom_site_label_1
_geom_bond_atom_site_label_2
_geom_bond_site_symmetry_1
_geom_bond_site_symmetry_2
O1 C9 1_555 1_555
O2 C3 1_555 1_555
O3 C15 1_555 1_555
O4 C4 1_555 1_555
O5 C17 1_555 1_555
O6 N3 1_555 1_555
O7 N3 1_555 1_555
N1 C9 1_555 1_555
N2 C14 1_555 1_555
N3 C5 1_555 1_555
C1 C2 1_555 1_555
C2 H1 1_555 1_555
C3 C2 1_555 1_555
C4 C3 1_555 1_555
C5 C4 1_555 1_555
C6 C1 1_555 1_555
H2 C6 1_555 1_555
C7 C1 1_555 1_555
H3 C7 1_555 1_555
C8 C7 1_555 1_555
C9 C8 1_555 1_555
C10 N1 1_555 1_555
H4 C10 1_555 1_555
H5 C10 1_555 1_555
C11 C10 1_555 1_555
H6 C11 1_555 1_555
H7 C11 1_555 1_555
H8 C11 1_555 1_555
C12 N1 1_555 1_555
H9 C12 1_555 1_555
H10 C12 1_555 1_555
C13 C12 1_555 1_555
H11 C13 1_555 1_555
H12 C13 1_555 1_555
H13 C13 1_555 1_555
C14 C8 1_555 1_555
C15 O2 1_555 1_555
C16 C15 1_555 1_555
H14 C16 1_555 1_555
H15 C16 1_555 1_555
H16 C16 1_555 1_555
C17 O4 1_555 1_555
C18 C17 1_555 1_555
H17 C18 1_555 1_555
H18 C18 1_555 1_555
H19 C18 1_555 1_555
C5 C6 1_555 1_555

#END
