
#######################################################################
#
#                 Cambridge Crystallographic Data Centre
#                                CCDC 
#
#######################################################################
#
# If this CIF has been generated from an entry in the Cambridge 
# Structural Database, then it will include bibliographic, chemical, 
# crystal, experimental, refinement or atomic coordinate data resulting 
# from the CCDC's data processing and validation procedures.
#
#######################################################################

data_OFEFOW
_chemical_formula_moiety         'C22 H19 O3 P1'
_chemical_name_systematic        
3,5,8-Triphenyl-2,6,7-trioxa-1-phosphabicyclo[2.2.2]octane
_symmetry_cell_setting           triclinic
_symmetry_space_group_name_H-M   'P 1'
_symmetry_Int_Tables_number      1
_space_group_name_Hall           'P 1'
loop_
_symmetry_equiv_pos_site_id
_symmetry_equiv_pos_as_xyz
1 x,y,z
_cell_length_a                   9.8705(13)
_cell_length_b                   9.9566(14)
_cell_length_c                   10.0980(14)
_cell_angle_alpha                91.203(3)
_cell_angle_beta                 105.564(3)
_cell_angle_gamma                104.905(3)
_cell_volume                     919.513
_exptl_crystal_colour            colorless
_exptl_crystal_description       prismatic
_cell_formula_units_Z            2
loop_
_atom_site_label
_atom_site_type_symbol
_atom_site_fract_x
_atom_site_fract_y
_atom_site_fract_z
P1 P 0.73038(10) 0.97951(11) 0.08941(10)
O1 O 0.5826(3) 0.8836(3) -0.0192(3)
O2 O 0.6642(3) 1.0207(3) 0.2090(3)
O3 O 0.8029(2) 0.8606(3) 0.1563(3)
C1 C 0.4892(3) 0.7734(4) 0.0319(3)
H1 H 0.4843 0.6847 -0.0156
C2 C 0.5746(4) 0.9104(4) 0.2637(3)
H2 H 0.4766 0.9243 0.2422
C3 C 0.7151(3) 0.7470(4) 0.2100(4)
H3 H 0.7600 0.7531 0.3098
C4 C 0.5615(3) 0.7706(4) 0.1871(3)
H4 H 0.5002 0.6946 0.2228
C5 C 0.3366(4) 0.7898(4) -0.0027(3)
C6 C 0.3066(4) 0.9173(4) -0.0263(4)
H5 H 0.3824 0.9974 -0.0199
C7 C 0.1637(5) 0.9251(5) -0.0594(4)
H6 H 0.1440 1.0108 -0.0744
C8 C 0.0510(4) 0.8076(5) -0.0703(5)
H7 H -0.0449 0.8134 -0.0931
C9 C 0.0800(4) 0.6828(5) -0.0477(5)
H8 H 0.0035 0.6031 -0.0550
C10 C 0.2217(4) 0.6728(4) -0.0141(4)
H9 H 0.2399 0.5864 0.0009
C11 C 0.6339(3) 0.9220(4) 0.4190(4)
C12 C 0.5372(4) 0.8843(5) 0.4971(4)
H10 H 0.4379 0.8480 0.4536
C13 C 0.5873(5) 0.9004(6) 0.6401(4)
H11 H 0.5215 0.8755 0.6922
C14 C 0.7325(5) 0.9525(6) 0.7041(4)
H12 H 0.7662 0.9640 0.8000
C15 C 0.8291(4) 0.9879(5) 0.6273(4)
H13 H 0.9286 1.0214 0.6713
C16 C 0.7804(4) 0.9744(4) 0.4857(4)
H14 H 0.8468 1.0008 0.4346
C17 C 0.7171(3) 0.6092(4) 0.1487(4)
C18 C 0.7312(4) 0.5040(4) 0.2325(4)
H15 H 0.7397 0.5198 0.3258
C19 C 0.7332(5) 0.3759(5) 0.1815(5)
H16 H 0.7427 0.3059 0.2400
C20 C 0.7209(4) 0.3511(5) 0.0432(5)
H17 H 0.7218 0.2643 0.0079
C21 C 0.7075(4) 0.4552(5) -0.0416(5)
H18 H 0.6982 0.4387 -0.1350
C22 C 0.7077(4) 0.5845(4) 0.0107(4)
H19 H 0.7014 0.6554 -0.0472
P2 P 0.14417(10) 0.32547(10) 0.45357(10)
O4 O 0.2136(3) 0.4036(3) 0.3389(3)
O5 O 0.2891(3) 0.3033(3) 0.5605(3)
O6 O 0.0694(3) 0.1706(3) 0.3754(3)
C23 C 0.2999(4) 0.3365(3) 0.2781(3)
H20 H 0.3986 0.4002 0.3000
C24 C 0.3855(3) 0.2447(4) 0.5061(3)
H21 H 0.3928 0.1590 0.5501
C25 C 0.1600(3) 0.1005(4) 0.3242(4)
H22 H 0.1176 0.0797 0.2241
C26 C 0.3125(3) 0.2039(3) 0.3505(3)
H23 H 0.3738 0.1596 0.3127
C27 C 0.2396(3) 0.3178(4) 0.1241(3)
C28 C 0.0921(4) 0.2980(4) 0.0582(4)
H24 H 0.0267 0.2937 0.1103
C29 C 0.0423(4) 0.2849(5) -0.0831(4)
H25 H -0.0568 0.2708 -0.1263
C30 C 0.1380(5) 0.2926(5) -0.1616(4)
H26 H 0.1038 0.2855 -0.2574
C31 C 0.2825(5) 0.3105(5) -0.0988(4)
H27 H 0.3473 0.3146 -0.1516
C32 C 0.3330(4) 0.3227(4) 0.0437(4)
H28 H 0.4319 0.3345 0.0860
C33 C 0.5365(4) 0.3441(4) 0.5423(3)
C34 C 0.5624(5) 0.4865(4) 0.5705(4)
H29 H 0.4846 0.5245 0.5661
C35 C 0.7040(5) 0.5727(5) 0.6052(5)
H30 H 0.7210 0.6685 0.6235
C36 C 0.8181(5) 0.5177(6) 0.6128(5)
H31 H 0.9131 0.5757 0.6372
C37 C 0.7934(4) 0.3765(6) 0.5844(5)
H32 H 0.8715 0.3391 0.5890
C38 C 0.6526(4) 0.2901(4) 0.5490(4)
H33 H 0.6363 0.1946 0.5296
C39 C 0.1568(3) -0.0362(4) 0.3861(4)
C40 C 0.1450(4) -0.1519(4) 0.3020(4)
H34 H 0.1408 -0.1436 0.2095
C41 C 0.1396(5) -0.2795(4) 0.3534(5)
H35 H 0.1309 -0.3569 0.2953
C42 C 0.1468(5) -0.2930(5) 0.4900(6)
H36 H 0.1446 -0.3789 0.5251
C43 C 0.1573(5) -0.1788(5) 0.5741(5)
H37 H 0.1615 -0.1874 0.6666
C44 C 0.1616(4) -0.0506(4) 0.5222(4)
H38 H 0.1679 0.0262 0.5798
loop_
_geom_bond_atom_site_label_1
_geom_bond_atom_site_label_2
_geom_bond_site_symmetry_1
_geom_bond_site_symmetry_2
P1 O1 1_555 1_555
O1 C1 1_555 1_555
O2 P1 1_555 1_555
O3 P1 1_555 1_555
C1 H1 1_555 1_555
C2 O2 1_555 1_555
H2 C2 1_555 1_555
C3 O3 1_555 1_555
H3 C3 1_555 1_555
C4 C1 1_555 1_555
H4 C4 1_555 1_555
C5 C1 1_555 1_555
C6 C5 1_555 1_555
H5 C6 1_555 1_555
C7 C6 1_555 1_555
H6 C7 1_555 1_555
C8 C7 1_555 1_555
H7 C8 1_555 1_555
C9 C8 1_555 1_555
H8 C9 1_555 1_555
C10 C5 1_555 1_555
H9 C10 1_555 1_555
C11 C2 1_555 1_555
C12 C11 1_555 1_555
H10 C12 1_555 1_555
C13 C12 1_555 1_555
H11 C13 1_555 1_555
C14 C13 1_555 1_555
H12 C14 1_555 1_555
C15 C14 1_555 1_555
H13 C15 1_555 1_555
C16 C11 1_555 1_555
H14 C16 1_555 1_555
C17 C3 1_555 1_555
C18 C17 1_555 1_555
H15 C18 1_555 1_555
C19 C18 1_555 1_555
H16 C19 1_555 1_555
C20 C19 1_555 1_555
H17 C20 1_555 1_555
C21 C20 1_555 1_555
H18 C21 1_555 1_555
C22 C17 1_555 1_555
H19 C22 1_555 1_555
P2 O4 1_555 1_555
O4 C23 1_555 1_555
O5 P2 1_555 1_555
O6 P2 1_555 1_555
C23 H20 1_555 1_555
C24 O5 1_555 1_555
H21 C24 1_555 1_555
C25 O6 1_555 1_555
H22 C25 1_555 1_555
C26 C23 1_555 1_555
H23 C26 1_555 1_555
C27 C23 1_555 1_555
C28 C27 1_555 1_555
H24 C28 1_555 1_555
C29 C28 1_555 1_555
H25 C29 1_555 1_555
C30 C29 1_555 1_555
H26 C30 1_555 1_555
C31 C30 1_555 1_555
H27 C31 1_555 1_555
C32 C27 1_555 1_555
H28 C32 1_555 1_555
C33 C24 1_555 1_555
C34 C33 1_555 1_555
H29 C34 1_555 1_555
C35 C34 1_555 1_555
H30 C35 1_555 1_555
C36 C35 1_555 1_555
H31 C36 1_555 1_555
C37 C36 1_555 1_555
H32 C37 1_555 1_555
C38 C33 1_555 1_555
H33 C38 1_555 1_555
C39 C25 1_555 1_555
C40 C39 1_555 1_555
H34 C40 1_555 1_555
C41 C40 1_555 1_555
H35 C41 1_555 1_555
C42 C41 1_555 1_555
H36 C42 1_555 1_555
C43 C42 1_555 1_555
H37 C43 1_555 1_555
C44 C39 1_555 1_555
H38 C44 1_555 1_555
C2 C4 1_555 1_555
C3 C4 1_555 1_555
C9 C10 1_555 1_555
C15 C16 1_555 1_555
C21 C22 1_555 1_555
C24 C26 1_555 1_555
C25 C26 1_555 1_555
C31 C32 1_555 1_555
C37 C38 1_555 1_555
C43 C44 1_555 1_555

#END
