
#######################################################################
#
#                 Cambridge Crystallographic Data Centre
#                                CCDC 
#
#######################################################################
#
# If this CIF has been generated from an entry in the Cambridge 
# Structural Database, then it will include bibliographic, chemical, 
# crystal, experimental, refinement or atomic coordinate data resulting 
# from the CCDC's data processing and validation procedures.
#
#######################################################################

data_OFEFOX
_chemical_formula_moiety         'C21 H18 Br1 N1 O1'
_chemical_name_systematic        N-[4-bromo-2-(diphenylmethyl)phenyl]acetamide
_symmetry_cell_setting           monoclinic
_symmetry_space_group_name_H-M   'P 21/n'
_symmetry_Int_Tables_number      14
_space_group_name_Hall           '-P 2yn'
loop_
_symmetry_equiv_pos_site_id
_symmetry_equiv_pos_as_xyz
1 x,y,z
2 1/2-x,1/2+y,1/2-z
3 -x,-y,-z
4 1/2+x,1/2-y,1/2+z
_cell_length_a                   11.3526(6)
_cell_length_b                   38.9014(18)
_cell_length_c                   13.5468(7)
_cell_angle_alpha                90
_cell_angle_beta                 114.621(2)
_cell_angle_gamma                90
_cell_volume                     5438.77
_exptl_crystal_colour            colorless
_exptl_crystal_description       block
_cell_formula_units_Z            12
loop_
_atom_site_label
_atom_site_type_symbol
_atom_site_fract_x
_atom_site_fract_y
_atom_site_fract_z
Br1 Br -0.36766(2) 0.03325(2) 0.51959(3)
N1 N 0.08626(17) 0.13281(4) 0.65789(15)
H1 H 0.1575 0.1271 0.7146
O1 O -0.00634(16) 0.17458(4) 0.53152(14)
C1 C 0.0040(2) 0.07393(5) 0.63209(17)
C2 C -0.0195(2) 0.10953(6) 0.62742(17)
C3 C -0.1459(2) 0.12179(6) 0.59467(18)
H2 H -0.1610 0.1458 0.5940
C4 C -0.2495(2) 0.09921(6) 0.56314(18)
H3 H -0.3355 0.1076 0.5398
C5 C -0.2262(2) 0.06444(6) 0.56605(18)
C6 C -0.1015(2) 0.05173(6) 0.60137(18)
H4 H -0.0877 0.0276 0.6047
C7 C 0.1617(2) 0.02362(5) 0.71073(18)
C8 C 0.1415(2) 0.01698(6) 0.80348(19)
H5 H 0.1089 0.0346 0.8337
C9 C 0.1686(2) -0.01520(6) 0.8522(2)
H6 H 0.1551 -0.0193 0.9159
C10 C 0.2151(2) -0.04129(6) 0.8087(2)
H7 H 0.2337 -0.0633 0.8421
C11 C 0.2343(2) -0.03499(6) 0.7163(2)
H8 H 0.2657 -0.0528 0.6858
C12 C 0.2080(2) -0.00276(6) 0.66730(19)
H9 H 0.2218 0.0013 0.6037
C13 C 0.1822(2) 0.06434(5) 0.57196(18)
C14 C 0.3021(2) 0.07827(6) 0.5915(2)
H10 H 0.3555 0.0868 0.6617
C15 C 0.3446(2) 0.07981(7) 0.5096(2)
H11 H 0.4267 0.0896 0.5237
C16 C 0.2684(2) 0.06716(6) 0.4074(2)
H12 H 0.2987 0.0678 0.3518
C17 C 0.1481(2) 0.05357(6) 0.3867(2)
H13 H 0.0950 0.0450 0.3165
C18 C 0.1049(2) 0.05247(6) 0.46811(18)
H14 H 0.0213 0.0435 0.4529
C19 C 0.1415(2) 0.06029(5) 0.66477(18)
H15 H 0.2000 0.0755 0.7247
C20 C 0.2163(2) 0.18113(6) 0.6526(2)
H16 H 0.2794 0.1679 0.7132
H17 H 0.2472 0.1834 0.5953
H18 H 0.2059 0.2040 0.6783
C21 C 0.0881(2) 0.16277(6) 0.60834(18)
Br2 Br -0.24990(3) 0.32578(2) 0.84701(3)
N2 N 0.27540(18) 0.35050(5) 0.84455(15)
H19 H 0.3398 0.3455 0.9072
O2 O 0.22522(18) 0.37238(5) 0.67721(14)
C22 C 0.1483(2) 0.34417(6) 0.83528(18)
C23 C 0.0567(2) 0.37024(7) 0.8048(2)
H20 H 0.0767 0.3920 0.7841
C24 C -0.0639(3) 0.36458(7) 0.8045(2)
H21 H -0.1274 0.3823 0.7829
C25 C -0.0901(2) 0.33300(8) 0.8359(2)
C26 C -0.0019(2) 0.30613(7) 0.8624(2)
H22 H -0.0235 0.2843 0.8818
C27 C 0.1183(2) 0.31124(6) 0.86048(18)
C28 C 0.1767(2) 0.24967(6) 0.9223(2)
C29 C 0.2190(3) 0.24416(7) 1.0329(2)
H23 H 0.2776 0.2599 1.0829
C30 C 0.1764(3) 0.21567(8) 1.0714(3)
H24 H 0.2056 0.2123 1.1474
C31 C 0.0926(3) 0.19252(8) 1.0003(3)
H25 H 0.0632 0.1733 1.0269
C32 C 0.0511(3) 0.19729(7) 0.8901(3)
H26 H -0.0063 0.1812 0.8406
C33 C 0.0930(3) 0.22564(7) 0.8512(2)
H27 H 0.0643 0.2287 0.7751
C34 C 0.2499(2) 0.27658(5) 0.7857(2)
C35 C 0.3779(2) 0.27015(6) 0.8029(2)
H28 H 0.4430 0.2686 0.8750
C36 C 0.4115(3) 0.26597(7) 0.7166(3)
H29 H 0.4992 0.2617 0.7298
C37 C 0.3185(3) 0.26795(7) 0.6116(3)
H30 H 0.3418 0.2651 0.5524
C38 C 0.1911(3) 0.27412(6) 0.5927(2)
H31 H 0.1266 0.2754 0.5203
C39 C 0.1571(2) 0.27845(6) 0.6793(2)
H32 H 0.0693 0.2828 0.6656
C40 C 0.2174(2) 0.28222(6) 0.88299(19)
H33 H 0.2990 0.2903 0.9439
C41 C 0.4489(3) 0.36605(8) 0.7955(2)
H34 H 0.4978 0.3577 0.8697
H35 H 0.4704 0.3521 0.7449
H36 H 0.4716 0.3901 0.7907
C42 C 0.3066(2) 0.36338(6) 0.7665(2)
Br3 Br 0.64413(3) -0.01748(2) 0.79194(3)
N3 N 0.51922(17) 0.11171(5) 0.98029(15)
H37 H 0.5754 0.1194 1.0434
O3 O 0.32420(15) 0.11927(4) 0.84109(13)
C43 C 0.5507(2) 0.08149(6) 0.93645(17)
C44 C 0.4745(2) 0.05244(6) 0.92094(19)
H38 H 0.4027 0.0530 0.9397
C45 C 0.5016(2) 0.02273(6) 0.87860(19)
H39 H 0.4497 0.0027 0.8682
C46 C 0.6063(2) 0.02292(6) 0.8517(2)
C47 C 0.6845(2) 0.05150(6) 0.86766(19)
H40 H 0.7562 0.0507 0.8488
C48 C 0.6582(2) 0.08133(6) 0.91126(17)
C49 C 0.6857(2) 0.13996(6) 0.83977(19)
C50 C 0.6007(2) 0.13174(6) 0.73444(19)
H41 H 0.5735 0.1086 0.7166
C51 C 0.5548(2) 0.15700(6) 0.6543(2)
H42 H 0.4958 0.1510 0.5827
C52 C 0.5940(3) 0.19035(7) 0.6782(2)
H43 H 0.5624 0.2075 0.6234
C53 C 0.6798(3) 0.19895(7) 0.7823(3)
H44 H 0.7084 0.2220 0.7989
C54 C 0.7242(3) 0.17415(6) 0.8624(2)
H45 H 0.7818 0.1805 0.9341
C55 C 0.8838(2) 0.10489(6) 0.95582(18)
C56 C 0.9626(2) 0.09311(7) 1.0590(2)
H46 H 0.9272 0.0903 1.1109
C57 C 1.0917(3) 0.08539(8) 1.0879(2)
H47 H 1.1437 0.0771 1.1588
C58 C 1.1450(2) 0.08971(7) 1.0140(2)
H48 H 1.2339 0.0847 1.0337
C59 C 1.0679(2) 0.10136(6) 0.9115(2)
H49 H 1.1040 0.1045 0.8602
C60 C 0.9377(2) 0.10864(6) 0.88185(19)
H50 H 0.8853 0.1162 0.8102
C61 C 0.7424(2) 0.11348(6) 0.93029(18)
H51 H 0.7432 0.1246 0.9971
C62 C 0.3915(2) 0.16010(7) 0.9867(2)
H52 H 0.4685 0.1631 1.0550
H53 H 0.3806 0.1803 0.9406
H54 H 0.3149 0.1574 1.0019
C63 C 0.4077(2) 0.12871(6) 0.92918(19)
loop_
_geom_bond_atom_site_label_1
_geom_bond_atom_site_label_2
_geom_bond_site_symmetry_1
_geom_bond_site_symmetry_2
Br1 C5 1_555 1_555
N1 H1 1_555 1_555
O1 C21 1_555 1_555
C1 C2 1_555 1_555
C2 N1 1_555 1_555
C3 C2 1_555 1_555
H2 C3 1_555 1_555
C4 C3 1_555 1_555
H3 C4 1_555 1_555
C5 C4 1_555 1_555
C6 C1 1_555 1_555
H4 C6 1_555 1_555
C7 C8 1_555 1_555
C8 H5 1_555 1_555
C9 C8 1_555 1_555
H6 C9 1_555 1_555
C10 C9 1_555 1_555
H7 C10 1_555 1_555
C11 C10 1_555 1_555
H8 C11 1_555 1_555
C12 C7 1_555 1_555
H9 C12 1_555 1_555
C13 C14 1_555 1_555
C14 H10 1_555 1_555
C15 C14 1_555 1_555
H11 C15 1_555 1_555
C16 C15 1_555 1_555
H12 C16 1_555 1_555
C17 C16 1_555 1_555
H13 C17 1_555 1_555
C18 C13 1_555 1_555
H14 C18 1_555 1_555
C19 C1 1_555 1_555
H15 C19 1_555 1_555
C20 H16 1_555 1_555
H17 C20 1_555 1_555
H18 C20 1_555 1_555
C21 N1 1_555 1_555
Br2 C25 1_555 1_555
N2 H19 1_555 1_555
O2 C42 1_555 1_555
C22 N2 1_555 1_555
C23 C22 1_555 1_555
H20 C23 1_555 1_555
C24 C23 1_555 1_555
H21 C24 1_555 1_555
C25 C24 1_555 1_555
C26 C25 1_555 1_555
H22 C26 1_555 1_555
C27 C22 1_555 1_555
C28 C29 1_555 1_555
C29 H23 1_555 1_555
C30 C29 1_555 1_555
H24 C30 1_555 1_555
C31 C30 1_555 1_555
H25 C31 1_555 1_555
C32 C31 1_555 1_555
H26 C32 1_555 1_555
C33 C28 1_555 1_555
H27 C33 1_555 1_555
C34 C35 1_555 1_555
C35 H28 1_555 1_555
C36 C35 1_555 1_555
H29 C36 1_555 1_555
C37 C36 1_555 1_555
H30 C37 1_555 1_555
C38 C37 1_555 1_555
H31 C38 1_555 1_555
C39 C34 1_555 1_555
H32 C39 1_555 1_555
C40 C27 1_555 1_555
H33 C40 1_555 1_555
C41 H34 1_555 1_555
H35 C41 1_555 1_555
H36 C41 1_555 1_555
C42 N2 1_555 1_555
Br3 C46 1_555 1_555
N3 H37 1_555 1_555
O3 C63 1_555 1_555
C43 N3 1_555 1_555
C44 C43 1_555 1_555
H38 C44 1_555 1_555
C45 C44 1_555 1_555
H39 C45 1_555 1_555
C46 C45 1_555 1_555
C47 C46 1_555 1_555
H40 C47 1_555 1_555
C48 C43 1_555 1_555
C49 C50 1_555 1_555
C50 H41 1_555 1_555
C51 C50 1_555 1_555
H42 C51 1_555 1_555
C52 C51 1_555 1_555
H43 C52 1_555 1_555
C53 C52 1_555 1_555
H44 C53 1_555 1_555
C54 C49 1_555 1_555
H45 C54 1_555 1_555
C55 C56 1_555 1_555
C56 H46 1_555 1_555
C57 C56 1_555 1_555
H47 C57 1_555 1_555
C58 C57 1_555 1_555
H48 C58 1_555 1_555
C59 C58 1_555 1_555
H49 C59 1_555 1_555
C60 C55 1_555 1_555
H50 C60 1_555 1_555
C61 C48 1_555 1_555
H51 C61 1_555 1_555
C62 H52 1_555 1_555
H53 C62 1_555 1_555
H54 C62 1_555 1_555
C63 N3 1_555 1_555
C5 C6 1_555 1_555
C7 C19 1_555 1_555
C11 C12 1_555 1_555
C13 C19 1_555 1_555
C17 C18 1_555 1_555
C20 C21 1_555 1_555
C26 C27 1_555 1_555
C28 C40 1_555 1_555
C32 C33 1_555 1_555
C34 C40 1_555 1_555
C38 C39 1_555 1_555
C41 C42 1_555 1_555
C47 C48 1_555 1_555
C49 C61 1_555 1_555
C53 C54 1_555 1_555
C55 C61 1_555 1_555
C59 C60 1_555 1_555
C62 C63 1_555 1_555

#END
