
#######################################################################
#
#                 Cambridge Crystallographic Data Centre
#                                CCDC 
#
#######################################################################
#
# If this CIF has been generated from an entry in the Cambridge 
# Structural Database, then it will include bibliographic, chemical, 
# crystal, experimental, refinement or atomic coordinate data resulting 
# from the CCDC's data processing and validation procedures.
#
#######################################################################

data_OFEFOV
_chemical_formula_moiety         'C18 H28 N6 O6'
_chemical_name_systematic        
'Diethyl 2,6-diethyl-4,8-dioxo-2,3,6,7-tetrahydro-1H,5H-2,3a,4a,6,7a,8a-hexaazacyclopenta(def)fluorene-8b,8c-dicarboxylate'
_symmetry_cell_setting           monoclinic
_symmetry_space_group_name_H-M   'C 2/c'
_symmetry_Int_Tables_number      15
_space_group_name_Hall           '-C 2yn'
loop_
_symmetry_equiv_pos_site_id
_symmetry_equiv_pos_as_xyz
1 x,y,z
2 1/2+x,1/2+y,z
3 -x,y,1/2-z
4 1/2-x,1/2+y,1/2-z
5 -x,-y,-z
6 1/2-x,1/2-y,-z
7 x,-y,1/2+z
8 1/2+x,1/2-y,1/2+z
_cell_length_a                   20.3689(13)
_cell_length_b                   7.8804(5)
_cell_length_c                   25.9921(16)
_cell_angle_alpha                90
_cell_angle_beta                 91.6970(10)
_cell_angle_gamma                90
_cell_volume                     4170.29
_exptl_crystal_colour            colorless
_exptl_crystal_description       block
_cell_formula_units_Z            8
_exptl_crystal_recrystallization_method chloroform/methanol
loop_
_atom_site_label
_atom_site_type_symbol
_atom_site_fract_x
_atom_site_fract_y
_atom_site_fract_z
C1 C 0.5192(2) 0.4727(9) 0.3310(2)
H1 H 0.5198 0.3943 0.3027
H2 H 0.5529 0.4427 0.3559
H3 H 0.5270 0.5855 0.3186
C2 C 0.45446(17) 0.4660(5) 0.35513(14)
H4 H 0.4509 0.3599 0.3738
H5 H 0.4517 0.5578 0.3799
C3 C 0.39338(16) 0.6401(4) 0.29128(11)
H6 H 0.3668 0.6243 0.2601
H7 H 0.4368 0.6758 0.2813
C4 C 0.33661(15) 0.4321(4) 0.33911(11)
H8 H 0.3429 0.3321 0.3605
H9 H 0.3063 0.4023 0.3111
C5 C 0.39979(14) 0.8907(4) 0.35146(11)
C6 C 0.31809(13) 0.5820(3) 0.42271(10)
C7 C 0.30321(13) 0.7315(3) 0.34576(10)
C8 C 0.24532(14) 0.7504(4) 0.30633(11)
C9 C 0.14594(14) 0.6412(4) 0.27281(13)
H10 H 0.1584 0.6089 0.2384
H11 H 0.1296 0.7569 0.2716
C10 C 0.09497(19) 0.5268(6) 0.29102(18)
H12 H 0.1120 0.4134 0.2932
H13 H 0.0579 0.5292 0.2674
H14 H 0.0816 0.5629 0.3244
C11 C 0.30001(13) 0.8576(3) 0.39207(10)
C12 C 0.23560(15) 0.9608(4) 0.39291(12)
C13 C 0.1855(2) 1.2302(6) 0.3808(2)
H15 H 0.1944 1.3313 0.3610
H16 H 0.1498 1.1688 0.3637
C14 C 0.1675(3) 1.2762(8) 0.4321(3)
H17 H 0.1501 1.1787 0.4491
H18 H 0.1348 1.3639 0.4303
H19 H 0.2055 1.3168 0.4510
C15 C 0.38474(15) 1.0349(4) 0.43596(12)
H20 H 0.4276 1.0836 0.4299
H21 H 0.3559 1.1264 0.4459
C16 C 0.32934(15) 0.8260(4) 0.48422(11)
H22 H 0.2969 0.9055 0.4963
H23 H 0.3354 0.7390 0.5103
C17 C 0.44876(16) 0.8037(4) 0.47574(13)
H24 H 0.4868 0.8714 0.4674
H25 H 0.4417 0.7211 0.4485
C18 C 0.4623(2) 0.7123(5) 0.52582(16)
H26 H 0.4609 0.7917 0.5538
H27 H 0.5050 0.6608 0.5253
H28 H 0.4296 0.6261 0.5303
N1 N 0.39898(13) 0.4795(3) 0.31793(9)
N2 N 0.36403(11) 0.7760(3) 0.32213(8)
N3 N 0.30724(11) 0.5667(3) 0.36995(8)
N4 N 0.35879(11) 0.9595(3) 0.38760(9)
N5 N 0.30415(11) 0.7466(3) 0.43647(8)
N6 N 0.39087(12) 0.9148(3) 0.47816(9)
O1 O 0.45657(11) 0.9299(3) 0.34542(9)
O2 O 0.33390(12) 0.4685(3) 0.45184(8)
O3 O 0.24162(13) 0.8728(4) 0.27949(11)
O4 O 0.20263(9) 0.6294(2) 0.30835(7)
O5 O 0.18423(11) 0.8918(3) 0.39870(10)
O6 O 0.24504(12) 1.1218(3) 0.38462(13)
loop_
_geom_bond_atom_site_label_1
_geom_bond_atom_site_label_2
_geom_bond_site_symmetry_1
_geom_bond_site_symmetry_2
C1 H1 1_555 1_555
H2 C1 1_555 1_555
H3 C1 1_555 1_555
C2 C1 1_555 1_555
H4 C2 1_555 1_555
H5 C2 1_555 1_555
C3 H6 1_555 1_555
H7 C3 1_555 1_555
C4 H8 1_555 1_555
H9 C4 1_555 1_555
C5 N2 1_555 1_555
C6 N3 1_555 1_555
C7 C8 1_555 1_555
C8 O3 1_555 1_555
C9 H10 1_555 1_555
H11 C9 1_555 1_555
C10 C9 1_555 1_555
H12 C10 1_555 1_555
H13 C10 1_555 1_555
H14 C10 1_555 1_555
C11 C7 1_555 1_555
C12 C11 1_555 1_555
C13 H15 1_555 1_555
H16 C13 1_555 1_555
C14 C13 1_555 1_555
H17 C14 1_555 1_555
H18 C14 1_555 1_555
H19 C14 1_555 1_555
C15 H20 1_555 1_555
H21 C15 1_555 1_555
C16 H22 1_555 1_555
H23 C16 1_555 1_555
C17 H24 1_555 1_555
H25 C17 1_555 1_555
C18 C17 1_555 1_555
H26 C18 1_555 1_555
H27 C18 1_555 1_555
H28 C18 1_555 1_555
N1 C2 1_555 1_555
N2 C3 1_555 1_555
N3 C4 1_555 1_555
N4 C5 1_555 1_555
N5 C6 1_555 1_555
N6 C15 1_555 1_555
O1 C5 1_555 1_555
O2 C6 1_555 1_555
O4 C8 1_555 1_555
O5 C12 1_555 1_555
O6 C12 1_555 1_555
C3 N1 1_555 1_555
C4 N1 1_555 1_555
C7 N2 1_555 1_555
C7 N3 1_555 1_555
C9 O4 1_555 1_555
C11 N4 1_555 1_555
C11 N5 1_555 1_555
C13 O6 1_555 1_555
C15 N4 1_555 1_555
C16 N5 1_555 1_555
C16 N6 1_555 1_555
C17 N6 1_555 1_555

#END
