
#######################################################################
#
#                 Cambridge Crystallographic Data Centre
#                                CCDC 
#
#######################################################################
#
# If this CIF has been generated from an entry in the Cambridge 
# Structural Database, then it will include bibliographic, chemical, 
# crystal, experimental, refinement or atomic coordinate data resulting 
# from the CCDC's data processing and validation procedures.
#
#######################################################################

data_OFEFUD
_chemical_formula_moiety         'C21 H18 Br1 N1 O1'
_chemical_name_systematic        N-[2-bromo-4-(diphenylmethyl)phenyl]acetamide
_symmetry_cell_setting           triclinic
_symmetry_space_group_name_H-M   'P -1'
_symmetry_Int_Tables_number      2
_space_group_name_Hall           '-P 1'
loop_
_symmetry_equiv_pos_site_id
_symmetry_equiv_pos_as_xyz
1 x,y,z
2 -x,-y,-z
_cell_length_a                   9.5843(5)
_cell_length_b                   10.5582(5)
_cell_length_c                   19.2410(9)
_cell_angle_alpha                77.8330(10)
_cell_angle_beta                 83.4690(10)
_cell_angle_gamma                66.8000(10)
_cell_volume                     1748.38
_exptl_crystal_colour            colorless
_exptl_crystal_description       block
_cell_formula_units_Z            4
loop_
_atom_site_label
_atom_site_type_symbol
_atom_site_fract_x
_atom_site_fract_y
_atom_site_fract_z
Br1 Br -0.26903(3) 0.88347(3) 0.37651(2)
O1 O 0.2180(2) 0.5794(3) 0.28168(11)
N1 N -0.0213(3) 0.6234(3) 0.32731(12)
H1 H -0.1126 0.6289 0.3198
C1 C -0.0926(3) 0.7543(3) 0.42477(15)
C2 C 0.0632(3) 0.6855(3) 0.52615(15)
C3 C 0.1337(3) 0.5484(3) 0.43228(16)
H2 H 0.2021 0.4691 0.4135
C4 C 0.0864(3) 0.5972(3) 0.27400(16)
C5 C 0.0068(3) 0.6423(3) 0.39452(15)
C6 C -0.0651(3) 0.7770(3) 0.48970(15)
H3 H -0.1344 0.8553 0.5089
C7 C 0.1602(3) 0.5704(3) 0.49696(15)
H4 H 0.2470 0.5051 0.5222
C8 C 0.2793(3) 0.8186(3) 0.51594(16)
H5 H 0.2105 0.8478 0.4785
C9 C 0.2479(3) 0.7478(3) 0.58100(15)
C10 C 0.3499(3) 0.7078(3) 0.63527(16)
H6 H 0.3286 0.6617 0.6807
C11 C -0.1453(3) 0.7763(3) 0.66240(15)
H7 H -0.1466 0.6888 0.6581
C12 C 0.4105(3) 0.8473(3) 0.50479(17)
H8 H 0.4299 0.8974 0.4601
C13 C -0.0240(3) 0.9398(3) 0.64042(16)
H9 H 0.0583 0.9661 0.6209
C14 C -0.0226(3) 0.8120(3) 0.63258(15)
C15 C -0.2635(4) 0.8648(3) 0.69770(16)
H10 H -0.3459 0.8386 0.7173
C16 C 0.4817(4) 0.7344(3) 0.62379(18)
H11 H 0.5509 0.7050 0.6610
C17 C 0.1077(3) 0.7096(3) 0.59507(15)
H12 H 0.1391 0.6173 0.6283
C18 C 0.5130(3) 0.8035(3) 0.55833(18)
H13 H 0.6041 0.8208 0.5502
C19 C -0.2631(4) 0.9930(3) 0.70497(16)
H14 H -0.3450 1.0543 0.7295
C20 C 0.0333(4) 0.5891(4) 0.20533(17)
H15 H -0.0753 0.6064 0.2101
H16 H 0.0502 0.6600 0.1672
H17 H 0.0902 0.4958 0.1937
C21 C -0.1434(4) 1.0309(3) 0.67636(17)
H18 H -0.1423 1.1182 0.6811
Br2 Br 0.25349(3) 0.85214(3) 0.13654(2)
O2 O 0.6972(2) 0.6299(3) 0.28468(12)
N2 N 0.4912(3) 0.6255(2) 0.24062(12)
H19 H 0.4030 0.6174 0.2512
C22 C 0.8403(3) 0.7365(3) -0.05704(16)
C23 C 0.4526(3) 0.7292(3) 0.11479(16)
C24 C 0.5682(3) 0.6304(3) 0.29381(16)
C25 C 1.0244(3) 0.8082(3) -0.13337(17)
H20 H 1.0708 0.8215 -0.1792
C26 C 0.6511(3) 0.6571(3) 0.02598(15)
C27 C 0.5046(3) 0.7423(3) 0.04481(16)
H21 H 0.4401 0.8099 0.0093
C28 C 0.5446(3) 0.6328(3) 0.16855(15)
C29 C 0.9106(3) 0.7565(3) -0.12413(16)
H22 H 0.8795 0.7343 -0.1636
C30 C 0.8863(4) 0.7727(4) -0.00093(17)
H23 H 0.8382 0.7624 0.0447
C31 C 0.7405(3) 0.5558(3) 0.07875(16)
H24 H 0.8389 0.4935 0.0665
C32 C 0.6880(3) 0.5444(3) 0.14901(16)
H25 H 0.7513 0.4749 0.1844
C33 C 0.7177(3) 0.6739(3) -0.05014(16)
H26 H 0.7695 0.5774 -0.0613
C34 C 0.4856(3) 0.6370(3) 0.36480(16)
H27 H 0.3848 0.6363 0.3609
H28 H 0.5433 0.5558 0.3997
H29 H 0.4746 0.7233 0.3802
C35 C 1.0017(4) 0.8237(4) -0.01051(18)
H30 H 1.0326 0.8470 0.0286
C36 C 0.5386(4) 0.6827(4) -0.13841(17)
H31 H 0.5797 0.5832 -0.1289
C37 C 1.0712(4) 0.8407(4) -0.07634(19)
H32 H 1.1510 0.8745 -0.0827
C38 C 0.3640(4) 0.8966(5) -0.19968(18)
H33 H 0.2846 0.9447 -0.2324
C39 C 0.4173(4) 0.9726(4) -0.16694(18)
H34 H 0.3748 1.0722 -0.1767
C40 C 0.4239(4) 0.7529(5) -0.18564(18)
H35 H 0.3861 0.7020 -0.2085
C41 C 0.5957(3) 0.7547(4) -0.10426(15)
C42 C 0.5354(4) 0.9004(4) -0.11913(17)
H36 H 0.5742 0.9513 -0.0968
loop_
_geom_bond_atom_site_label_1
_geom_bond_atom_site_label_2
_geom_bond_site_symmetry_1
_geom_bond_site_symmetry_2
Br1 C1 1_555 1_555
O1 C4 1_555 1_555
N1 H1 1_555 1_555
C1 C5 1_555 1_555
C2 C6 1_555 1_555
C3 H2 1_555 1_555
C4 N1 1_555 1_555
C5 N1 1_555 1_555
C6 C1 1_555 1_555
H3 C6 1_555 1_555
C7 C2 1_555 1_555
H4 C7 1_555 1_555
C8 H5 1_555 1_555
C9 C8 1_555 1_555
C10 C9 1_555 1_555
H6 C10 1_555 1_555
C11 H7 1_555 1_555
C12 C8 1_555 1_555
H8 C12 1_555 1_555
C13 H9 1_555 1_555
C14 C11 1_555 1_555
C15 C11 1_555 1_555
H10 C15 1_555 1_555
C16 C10 1_555 1_555
H11 C16 1_555 1_555
C17 C2 1_555 1_555
H12 C17 1_555 1_555
C18 C12 1_555 1_555
H13 C18 1_555 1_555
C19 C15 1_555 1_555
H14 C19 1_555 1_555
C20 C4 1_555 1_555
H15 C20 1_555 1_555
H16 C20 1_555 1_555
H17 C20 1_555 1_555
C21 C13 1_555 1_555
H18 C21 1_555 1_555
Br2 C23 1_555 1_555
O2 C24 1_555 1_555
N2 H19 1_555 1_555
C22 C29 1_555 1_555
C23 C27 1_555 1_555
C24 N2 1_555 1_555
C25 H20 1_555 1_555
C26 C27 1_555 1_555
C27 H21 1_555 1_555
C28 N2 1_555 1_555
C29 C25 1_555 1_555
H22 C29 1_555 1_555
C30 C22 1_555 1_555
H23 C30 1_555 1_555
C31 C26 1_555 1_555
H24 C31 1_555 1_555
C32 C28 1_555 1_555
H25 C32 1_555 1_555
C33 C22 1_555 1_555
H26 C33 1_555 1_555
C34 C24 1_555 1_555
H27 C34 1_555 1_555
H28 C34 1_555 1_555
H29 C34 1_555 1_555
C35 C30 1_555 1_555
H30 C35 1_555 1_555
C36 H31 1_555 1_555
C37 C25 1_555 1_555
H32 C37 1_555 1_555
C38 H33 1_555 1_555
C39 C38 1_555 1_555
H34 C39 1_555 1_555
C40 C36 1_555 1_555
H35 C40 1_555 1_555
C41 C33 1_555 1_555
C42 C39 1_555 1_555
H36 C42 1_555 1_555
C3 C5 1_555 1_555
C3 C7 1_555 1_555
C9 C17 1_555 1_555
C13 C14 1_555 1_555
C14 C17 1_555 1_555
C16 C18 1_555 1_555
C19 C21 1_555 1_555
C23 C28 1_555 1_555
C26 C33 1_555 1_555
C31 C32 1_555 1_555
C35 C37 1_555 1_555
C36 C41 1_555 1_555
C38 C40 1_555 1_555
C41 C42 1_555 1_555

#END
