
#######################################################################
#
#                 Cambridge Crystallographic Data Centre
#                                CCDC 
#
#######################################################################
#
# If this CIF has been generated from an entry in the Cambridge 
# Structural Database, then it will include bibliographic, chemical, 
# crystal, experimental, refinement or atomic coordinate data resulting 
# from the CCDC's data processing and validation procedures.
#
#######################################################################

data_OFEFEN
_chemical_formula_moiety         'C21 H17 F2 N1 O1'
_chemical_name_systematic        
N-[2-(diphenylmethyl)-4,5-difluorophenyl]acetamide
_symmetry_cell_setting           monoclinic
_symmetry_space_group_name_H-M   'P 21/n'
_symmetry_Int_Tables_number      14
_space_group_name_Hall           '-P 2yn'
loop_
_symmetry_equiv_pos_site_id
_symmetry_equiv_pos_as_xyz
1 x,y,z
2 1/2-x,1/2+y,1/2-z
3 -x,-y,-z
4 1/2+x,1/2-y,1/2+z
_cell_length_a                   10.143(4)
_cell_length_b                   9.497(3)
_cell_length_c                   19.050(7)
_cell_angle_alpha                90
_cell_angle_beta                 99.453(11)
_cell_angle_gamma                90
_cell_volume                     1810.13
_cell_formula_units_Z            4
loop_
_atom_site_label
_atom_site_type_symbol
_atom_site_fract_x
_atom_site_fract_y
_atom_site_fract_z
O1 O 0.8206(2) 0.08604(15) 0.27797(10)
N1 N 0.7525(2) 0.28873(16) 0.22356(10)
H1 H 0.7422 0.3778 0.2287
F1 F 0.64278(18) 0.07091(15) -0.04725(8)
C1 C 0.7212(2) 0.2313(2) 0.15433(12)
F2 F 0.88897(17) 0.04459(17) 0.02924(10)
C2 C 0.5919(2) 0.24378(19) 0.11593(11)
C3 C 0.5674(3) 0.1880(2) 0.04745(13)
H2 H 0.4825 0.1954 0.0205
C4 C 0.6670(3) 0.1225(2) 0.01958(14)
C5 C 0.7923(3) 0.1091(2) 0.05821(15)
C6 C 0.8212(3) 0.1638(2) 0.12504(14)
H3 H 0.9070 0.1560 0.1509
C7 C 0.4483(2) 0.2444(3) 0.21235(13)
C8 C 0.4078(3) 0.3253(4) 0.26550(16)
H4 H 0.4075 0.4230 0.2623
C9 C 0.3676(5) 0.2591(8) 0.3240(2)
H5 H 0.3400 0.3122 0.3599
C10 C 0.3692(5) 0.1151(9) 0.3278(3)
H6 H 0.3424 0.0713 0.3668
C11 C 0.4085(4) 0.0354(5) 0.2769(3)
H7 H 0.4088 -0.0623 0.2805
C12 C 0.4485(3) 0.1006(3) 0.21861(16)
H8 H 0.4760 0.0457 0.1832
C13 C 0.3620(2) 0.3517(2) 0.09258(11)
C14 C 0.2521(3) 0.2648(2) 0.08003(14)
H9 H 0.2492 0.1846 0.1077
C15 C 0.1460(3) 0.2950(3) 0.02682(15)
H10 H 0.0728 0.2347 0.0190
C16 C 0.1474(3) 0.4122(3) -0.01441(14)
H11 H 0.0758 0.4323 -0.0501
C17 C 0.2556(3) 0.4996(3) -0.00243(14)
H12 H 0.2575 0.5798 -0.0302
C18 C 0.3614(3) 0.4704(2) 0.05020(13)
H13 H 0.4342 0.5313 0.0576
C19 C 0.4844(2) 0.3195(2) 0.14783(11)
H14 H 0.5223 0.4106 0.1648
C20 C 0.8166(4) 0.2888(3) 0.35048(14)
H15 H 0.7932 0.3860 0.3422
H16 H 0.7607 0.2479 0.3811
H17 H 0.9085 0.2820 0.3727
C21 C 0.7973(3) 0.2121(2) 0.28151(13)
loop_
_geom_bond_atom_site_label_1
_geom_bond_atom_site_label_2
_geom_bond_site_symmetry_1
_geom_bond_site_symmetry_2
O1 C21 1_555 1_555
N1 H1 1_555 1_555
F1 C4 1_555 1_555
C1 N1 1_555 1_555
F2 C5 1_555 1_555
C2 C1 1_555 1_555
C3 C2 1_555 1_555
H2 C3 1_555 1_555
C4 C3 1_555 1_555
C5 C4 1_555 1_555
C6 C1 1_555 1_555
H3 C6 1_555 1_555
C7 C8 1_555 1_555
C8 H4 1_555 1_555
C9 C8 1_555 1_555
H5 C9 1_555 1_555
C10 C9 1_555 1_555
H6 C10 1_555 1_555
C11 C10 1_555 1_555
H7 C11 1_555 1_555
C12 C7 1_555 1_555
H8 C12 1_555 1_555
C13 C14 1_555 1_555
C14 H9 1_555 1_555
C15 C14 1_555 1_555
H10 C15 1_555 1_555
C16 C15 1_555 1_555
H11 C16 1_555 1_555
C17 C16 1_555 1_555
H12 C17 1_555 1_555
C18 C13 1_555 1_555
H13 C18 1_555 1_555
C19 C2 1_555 1_555
H14 C19 1_555 1_555
C20 H15 1_555 1_555
H16 C20 1_555 1_555
H17 C20 1_555 1_555
C21 N1 1_555 1_555
C5 C6 1_555 1_555
C7 C19 1_555 1_555
C11 C12 1_555 1_555
C13 C19 1_555 1_555
C17 C18 1_555 1_555
C20 C21 1_555 1_555

#END
