
#######################################################################
#
#                 Cambridge Crystallographic Data Centre
#                                CCDC 
#
#######################################################################
#
# If this CIF has been generated from an entry in the Cambridge 
# Structural Database, then it will include bibliographic, chemical, 
# crystal, experimental, refinement or atomic coordinate data resulting 
# from the CCDC's data processing and validation procedures.
#
#######################################################################

data_OFEKOC
_chemical_formula_moiety         'C13 H12 N2 O2'
_chemical_name_systematic        
1-(1H-imidazol-1-yl)-3-(4-methoxyphenyl)prop-2-en-1-one
_symmetry_cell_setting           triclinic
_symmetry_space_group_name_H-M   'P -1'
_symmetry_Int_Tables_number      2
_space_group_name_Hall           '-P 1'
loop_
_symmetry_equiv_pos_site_id
_symmetry_equiv_pos_as_xyz
1 x,y,z
2 -x,-y,-z
_cell_length_a                   8.0800(1)
_cell_length_b                   11.3397(2)
_cell_length_c                   12.6188(2)
_cell_angle_alpha                92.225(1)
_cell_angle_beta                 105.158(1)
_cell_angle_gamma                92.194(1)
_cell_volume                     1113.72
_exptl_crystal_colour            colorless
_exptl_crystal_description       block
_cell_formula_units_Z            4
loop_
_atom_site_label
_atom_site_type_symbol
_atom_site_fract_x
_atom_site_fract_y
_atom_site_fract_z
O1 O 0.25281(18) 0.42307(13) 0.25627(11)
O2 O 0.17918(18) 0.45929(12) -0.42443(10)
N1 N 0.02851(14) 0.28674(10) 0.22571(9)
C1 C 0.03399(17) 0.26931(13) 0.33214(9)
H1 H 0.1013 0.3078 0.3875
C2 C -0.08787(19) 0.18453(14) 0.33395(11)
H2 H -0.1148 0.1574 0.3949
N2 N -0.16867(17) 0.14959(13) 0.22863(11)
C3 C -0.09676(16) 0.21275(12) 0.16173(10)
H3 H -0.1372 0.2083 0.0805
C4 C 0.1426(2) 0.36556(15) 0.18854(14)
C5 C 0.1146(2) 0.36624(16) 0.06991(15)
H4 H 0.0248 0.3168 0.0238
C6 C 0.2120(2) 0.43452(15) 0.02437(15)
H5 H 0.2981 0.4843 0.0733
C7 C 0.2006(2) 0.44111(14) -0.09220(14)
C8 C 0.0813(2) 0.37351(16) -0.17489(15)
H6 H 0.0008 0.3210 -0.1554
C9 C 0.0785(3) 0.38181(17) -0.28338(16)
H7 H -0.0034 0.3348 -0.3380
C10 C 0.1941(2) 0.45827(16) -0.31458(14)
C11 C 0.3136(2) 0.52616(16) -0.23471(15)
H8 H 0.3939 0.5784 -0.2546
C12 C 0.3147(2) 0.51695(16) -0.12532(15)
H9 H 0.3965 0.5643 -0.0709
C13 C 0.2882(3) 0.5420(2) -0.46032(17)
H10 H 0.2672 0.5327 -0.5403
H11 H 0.4085 0.5275 -0.4252
H12 H 0.2637 0.6225 -0.4400
O3 O -0.36025(17) 0.28781(11) -0.07771(10)
O4 O -0.90477(19) -0.09493(12) 0.29613(11)
N3 N -0.53329(19) 0.21423(13) -0.23967(12)
C14 C -0.4573(3) 0.27966(17) -0.30618(16)
H13 H -0.3640 0.3366 -0.2831
C15 C -0.5420(3) 0.2464(2) -0.40955(16)
H14 H -0.5177 0.2778 -0.4729
N4 N -0.6697(3) 0.16044(19) -0.41232(15)
C16 C -0.6610(3) 0.1440(2) -0.30940(16)
H15 H -0.7345 0.0898 -0.2855
C17 C -0.4831(2) 0.22317(15) -0.12306(14)
C18 C -0.5852(2) 0.15229(16) -0.06700(15)
H16 H -0.6724 0.0977 -0.1085
C19 C -0.5576(2) 0.16324(15) 0.04212(14)
H17 H -0.4709 0.2202 0.0799
C20 C -0.6462(2) 0.09733(14) 0.10923(14)
C21 C -0.6056(2) 0.11927(16) 0.22267(15)
H18 H -0.5195 0.1787 0.2557
C22 C -0.6867(2) 0.05718(16) 0.28924(15)
H19 H -0.6561 0.0736 0.3665
C23 C -0.8127(2) -0.02883(15) 0.24145(15)
C24 C -0.8549(3) -0.05251(17) 0.12877(16)
H20 H -0.9413 -0.1118 0.0960
C25 C -0.7728(2) 0.00903(16) 0.06405(15)
H21 H -0.8028 -0.0089 -0.0130
C26 C -0.8616(3) -0.0798(2) 0.41265(18)
H22 H -0.866(3) 0.006(2) 0.437(2)
H23 H -0.745(3) -0.105(2) 0.446(2)
H24 H -0.950(3) -0.131(2) 0.435(2)
loop_
_geom_bond_atom_site_label_1
_geom_bond_atom_site_label_2
_geom_bond_site_symmetry_1
_geom_bond_site_symmetry_2
O1 C4 1_555 1_555
O2 C10 1_555 1_555
N1 C1 1_555 1_555
C1 H1 1_555 1_555
C2 C1 1_555 1_555
H2 C2 1_555 1_555
N2 C2 1_555 1_555
C3 N1 1_555 1_555
H3 C3 1_555 1_555
C4 N1 1_555 1_555
C5 C4 1_555 1_555
H4 C5 1_555 1_555
C6 C5 1_555 1_555
H5 C6 1_555 1_555
C7 C6 1_555 1_555
C8 C7 1_555 1_555
H6 C8 1_555 1_555
C9 C8 1_555 1_555
H7 C9 1_555 1_555
C10 C9 1_555 1_555
C11 C10 1_555 1_555
H8 C11 1_555 1_555
C12 C7 1_555 1_555
H9 C12 1_555 1_555
C13 O2 1_555 1_555
H10 C13 1_555 1_555
H11 C13 1_555 1_555
H12 C13 1_555 1_555
O3 C17 1_555 1_555
O4 C23 1_555 1_555
N3 C14 1_555 1_555
C14 H13 1_555 1_555
C15 C14 1_555 1_555
H14 C15 1_555 1_555
N4 C15 1_555 1_555
C16 N3 1_555 1_555
H15 C16 1_555 1_555
C17 N3 1_555 1_555
C18 C17 1_555 1_555
H16 C18 1_555 1_555
C19 C18 1_555 1_555
H17 C19 1_555 1_555
C20 C19 1_555 1_555
C21 C20 1_555 1_555
H18 C21 1_555 1_555
C22 C21 1_555 1_555
H19 C22 1_555 1_555
C23 C22 1_555 1_555
C24 C23 1_555 1_555
H20 C24 1_555 1_555
C25 C20 1_555 1_555
H21 C25 1_555 1_555
C26 O4 1_555 1_555
H22 C26 1_555 1_555
H23 C26 1_555 1_555
H24 C26 1_555 1_555
N2 C3 1_555 1_555
C11 C12 1_555 1_555
N4 C16 1_555 1_555
C24 C25 1_555 1_555

#END
