
#######################################################################
#
#                 Cambridge Crystallographic Data Centre
#                                CCDC 
#
#######################################################################
#
# If this CIF has been generated from an entry in the Cambridge 
# Structural Database, then it will include bibliographic, chemical, 
# crystal, experimental, refinement or atomic coordinate data resulting 
# from the CCDC's data processing and validation procedures.
#
#######################################################################

data_OFELAP
_chemical_name_common            1-(2,4,6-trimethylbenzoyl)imidazole
_chemical_formula_moiety         'C13 H14 N2 O1'
_chemical_name_systematic        1H-imidazol-1-yl(mesityl)methanone
_symmetry_cell_setting           orthorhombic
_symmetry_space_group_name_H-M   'P b c n'
_symmetry_Int_Tables_number      60
_space_group_name_Hall           '-P 2n 2ab'
loop_
_symmetry_equiv_pos_site_id
_symmetry_equiv_pos_as_xyz
1 x,y,z
2 1/2+x,1/2-y,-z
3 -x,y,1/2-z
4 1/2-x,1/2-y,1/2+z
5 -x,-y,-z
6 1/2-x,1/2+y,z
7 x,-y,1/2+z
8 1/2+x,1/2+y,1/2-z
_cell_length_a                   24.1067(3)
_cell_length_b                   5.90250(10)
_cell_length_c                   15.9323(3)
_cell_angle_alpha                90
_cell_angle_beta                 90
_cell_angle_gamma                90
_cell_volume                     2267
_exptl_crystal_colour            colorless
_exptl_crystal_description       block
_cell_formula_units_Z            8
_exptl_crystal_recrystallization_method 
'Re-crystallisation from solvent: acetone'
loop_
_atom_site_label
_atom_site_type_symbol
_atom_site_fract_x
_atom_site_fract_y
_atom_site_fract_z
O1 O 0.12721(5) 0.47137(17) 0.47848(7)
N1 N 0.07921(4) 0.17220(17) 0.52842(6)
N2 N 0.02931(5) -0.08910(19) 0.59436(7)
C1 C 0.11671(5) 0.2728(2) 0.47174(8)
C2 C 0.13952(5) 0.1223(2) 0.40459(8)
C3 C 0.17894(5) -0.0436(2) 0.42337(8)
C4 C 0.19735(5) -0.1835(2) 0.35886(8)
H1 H 0.2243 -0.2965 0.3709
C5 C 0.17756(5) -0.1627(2) 0.27750(8)
C6 C 0.13983(5) 0.0095(2) 0.26016(8)
H2 H 0.1270 0.0283 0.2042
C7 C 0.12038(5) 0.1547(2) 0.32215(8)
C8 C 0.20220(6) -0.0757(2) 0.51058(8)
H3 H 0.2427 -0.0895 0.5075
H4 H 0.1866 -0.2136 0.5354
H5 H 0.1924 0.0551 0.5454
C9 C 0.19650(6) -0.3249(2) 0.21013(9)
H6 H 0.2013 -0.4762 0.2344
H7 H 0.2319 -0.2726 0.1868
H8 H 0.1686 -0.3312 0.1655
C10 C 0.07923(6) 0.3388(2) 0.30066(9)
H9 H 0.0670 0.3206 0.2424
H10 H 0.0969 0.4873 0.3074
H11 H 0.0471 0.3281 0.3382
C11 C 0.04803(5) 0.2858(2) 0.58851(8)
H12 H 0.0479 0.4439 0.5998
C12 C 0.01816(6) 0.1245(2) 0.62717(8)
H13 H -0.0074 0.1527 0.6714
C13 C 0.06535(5) -0.0538(2) 0.53535(8)
H14 H 0.0804 -0.1699 0.5009
loop_
_geom_bond_atom_site_label_1
_geom_bond_atom_site_label_2
_geom_bond_site_symmetry_1
_geom_bond_site_symmetry_2
O1 C1 1_555 1_555
N1 C1 1_555 1_555
N2 C12 1_555 1_555
C1 C2 1_555 1_555
C2 C3 1_555 1_555
C3 C4 1_555 1_555
C4 H1 1_555 1_555
C5 C4 1_555 1_555
C6 C5 1_555 1_555
H2 C6 1_555 1_555
C7 C2 1_555 1_555
C8 C3 1_555 1_555
H3 C8 1_555 1_555
H4 C8 1_555 1_555
H5 C8 1_555 1_555
C9 C5 1_555 1_555
H6 C9 1_555 1_555
H7 C9 1_555 1_555
H8 C9 1_555 1_555
C10 C7 1_555 1_555
H9 C10 1_555 1_555
H10 C10 1_555 1_555
H11 C10 1_555 1_555
C11 N1 1_555 1_555
H12 C11 1_555 1_555
C12 C11 1_555 1_555
H13 C12 1_555 1_555
C13 N1 1_555 1_555
H14 C13 1_555 1_555
N2 C13 1_555 1_555
C6 C7 1_555 1_555

#END
