
#######################################################################
#
#                 Cambridge Crystallographic Data Centre
#                                CCDC 
#
#######################################################################
#
# If this CIF has been generated from an entry in the Cambridge 
# Structural Database, then it will include bibliographic, chemical, 
# crystal, experimental, refinement or atomic coordinate data resulting 
# from the CCDC's data processing and validation procedures.
#
#######################################################################

data_OFEMOE
_chemical_formula_moiety         'C17 H19 N5 O1'
_chemical_name_systematic        
5-{4-[(morpholin-4-yl)methyl]phenyl}[1,2,4]triazolo[1,5-a]pyridin-2-amine
_symmetry_cell_setting           monoclinic
_symmetry_space_group_name_H-M   'P 21/n'
_symmetry_Int_Tables_number      14
_space_group_name_Hall           '-P 2yn'
loop_
_symmetry_equiv_pos_site_id
_symmetry_equiv_pos_as_xyz
1 x,y,z
2 1/2-x,1/2+y,1/2-z
3 -x,-y,-z
4 1/2+x,1/2-y,1/2+z
_cell_length_a                   13.0312(3)
_cell_length_b                   6.95170(10)
_cell_length_c                   17.3917(3)
_cell_angle_alpha                90
_cell_angle_beta                 90.2910(10)
_cell_angle_gamma                90
_cell_volume                     1575.48
_exptl_crystal_colour            colorless
_exptl_crystal_description       block
_cell_formula_units_Z            4
loop_
_atom_site_label
_atom_site_type_symbol
_atom_site_fract_x
_atom_site_fract_y
_atom_site_fract_z
C1 C 0.38226(10) 0.1250(2) 0.56892(7)
H1 H 0.3216 0.0647 0.5504
C2 C 0.46416(10) 0.01317(19) 0.59184(7)
H2 H 0.4584 -0.1230 0.5899
N1 N 0.75956(8) 0.15233(16) 0.55758(6)
N2 N 0.91244(9) 0.22941(18) 0.49368(7)
H3 H 0.9552 0.1600 0.4682
H4 H 0.8711 0.2857 0.4621
O1 O 0.08167(9) 0.42354(18) 0.72493(6)
C3 C 0.63503(10) -0.18688(19) 0.68625(7)
H5 H 0.5710 -0.2173 0.7091
C4 C 0.72071(10) -0.30426(19) 0.70155(7)
H6 H 0.7138 -0.4109 0.7353
N3 N 0.90000(8) -0.04057(16) 0.57728(6)
N4 N 0.21010(8) 0.47130(17) 0.59540(6)
C5 C 0.38700(10) 0.32461(19) 0.57244(7)
C6 C 0.55486(9) 0.09580(18) 0.61773(7)
C7 C 0.64209(9) -0.02939(18) 0.63900(7)
N5 N 0.73671(8) 0.00662(15) 0.60808(6)
C8 C 0.85819(10) 0.11507(19) 0.54141(7)
C9 C 0.82223(10) -0.10842(19) 0.61940(7)
C10 C 0.13618(12) 0.5977(2) 0.71284(9)
H7 H 0.1526 0.6572 0.7631
H8 H 0.0923 0.6885 0.6836
C11 C 0.23464(11) 0.5625(2) 0.66896(8)
H9 H 0.2704 0.6861 0.6600
H10 H 0.2807 0.4782 0.6993
C12 C 0.29889(10) 0.4491(2) 0.54411(8)
H11 H 0.3264 0.5788 0.5330
H12 H 0.2739 0.3948 0.4948
C13 C 0.05724(13) 0.3366(3) 0.65296(10)
H13 H 0.0129 0.4243 0.6227
H14 H 0.0188 0.2159 0.6618
C14 C 0.15349(11) 0.2932(2) 0.60826(8)
H15 H 0.1968 0.2013 0.6374
H16 H 0.1352 0.2338 0.5583
C15 C 0.81385(11) -0.2673(2) 0.66866(7)
H17 H 0.8714 -0.3473 0.6789
C16 C 0.56038(10) 0.2954(2) 0.62150(8)
H18 H 0.6217 0.3556 0.6389
C17 C 0.47709(10) 0.4065(2) 0.59997(9)
H19 H 0.4816 0.5425 0.6041
loop_
_geom_bond_atom_site_label_1
_geom_bond_atom_site_label_2
_geom_bond_site_symmetry_1
_geom_bond_site_symmetry_2
C1 H1 1_555 1_555
C2 C1 1_555 1_555
H2 C2 1_555 1_555
N1 N5 1_555 1_555
N2 H3 1_555 1_555
H4 N2 1_555 1_555
O1 C10 1_555 1_555
C3 H5 1_555 1_555
C4 C3 1_555 1_555
H6 C4 1_555 1_555
N3 C8 1_555 1_555
N4 C11 1_555 1_555
C5 C1 1_555 1_555
C6 C2 1_555 1_555
C7 C3 1_555 1_555
N5 C7 1_555 1_555
C8 N1 1_555 1_555
C9 N3 1_555 1_555
C10 H7 1_555 1_555
H8 C10 1_555 1_555
C11 C10 1_555 1_555
H9 C11 1_555 1_555
H10 C11 1_555 1_555
C12 N4 1_555 1_555
H11 C12 1_555 1_555
H12 C12 1_555 1_555
C13 O1 1_555 1_555
H13 C13 1_555 1_555
H14 C13 1_555 1_555
C14 N4 1_555 1_555
H15 C14 1_555 1_555
H16 C14 1_555 1_555
C15 C4 1_555 1_555
H17 C15 1_555 1_555
C16 C6 1_555 1_555
H18 C16 1_555 1_555
C17 C5 1_555 1_555
H19 C17 1_555 1_555
N2 C8 1_555 1_555
C5 C12 1_555 1_555
C6 C7 1_555 1_555
N5 C9 1_555 1_555
C9 C15 1_555 1_555
C13 C14 1_555 1_555
C16 C17 1_555 1_555

#END
