
#######################################################################
#
#                 Cambridge Crystallographic Data Centre
#                                CCDC 
#
#######################################################################
#
# If this CIF has been generated from an entry in the Cambridge 
# Structural Database, then it will include bibliographic, chemical, 
# crystal, experimental, refinement or atomic coordinate data resulting 
# from the CCDC's data processing and validation procedures.
#
#######################################################################

data_OFENEU
_chemical_formula_moiety         'C22 H17 Br1 N2 O3 S1'
_chemical_name_systematic        
7-Bromo-4-(2-furyl)-5-((4-methylphenyl)sulfonyl)-4,5-dihydropyrrolo[1,2-a]quinoxaline
_symmetry_cell_setting           orthorhombic
_symmetry_space_group_name_H-M   'P 21 21 21'
_symmetry_Int_Tables_number      19
_space_group_name_Hall           'P 2ac 2ab'
loop_
_symmetry_equiv_pos_site_id
_symmetry_equiv_pos_as_xyz
1 x,y,z
2 1/2-x,-y,1/2+z
3 1/2+x,1/2-y,-z
4 -x,1/2+y,1/2-z
_cell_length_a                   9.0110(3)
_cell_length_b                   10.3134(5)
_cell_length_c                   22.7196(9)
_cell_angle_alpha                90
_cell_angle_beta                 90
_cell_angle_gamma                90
_cell_volume                     2111.42
_cell_formula_units_Z            4
loop_
_atom_site_label
_atom_site_type_symbol
_atom_site_fract_x
_atom_site_fract_y
_atom_site_fract_z
Br1 Br 1.04571(8) 1.26981(7) 0.98352(3)
S1 S 1.46274(17) 1.46588(17) 1.16921(7)
N1 N 1.3309(4) 1.5579(5) 1.14033(19)
O1 O 1.4586(5) 1.3455(5) 1.13857(19)
N2 N 1.0740(4) 1.6005(4) 1.2038(2)
C1 C 1.0548(6) 1.3729(6) 1.0523(2)
C2 C 1.1941(5) 1.4994(6) 1.1209(2)
O2 O 1.5943(4) 1.5429(6) 1.1685(2)
C3 C 1.0627(6) 1.5248(5) 1.1522(2)
C4 C 1.1881(6) 1.4220(6) 1.0708(2)
H1 H 1.2744 1.4036 1.0500
C5 C 1.3087(6) 1.6902(6) 1.1675(3)
H2 H 1.4027 1.7186 1.1850
C6 C 1.4145(5) 1.4385(6) 1.2433(3)
C7 C 1.2657(7) 1.7836(8) 1.1202(3)
C8 C 0.9244(6) 1.4006(6) 1.0826(3)
H3 H 0.8341 1.3674 1.0696
C9 C 1.1797(6) 1.7270(7) 1.2701(3)
H4 H 1.2451 1.7826 1.2892
C10 C 1.3010(7) 1.3535(7) 1.2565(3)
H5 H 1.2541 1.3077 1.2266
O3 O 1.3494(7) 1.7866(7) 1.0697(3)
C11 C 0.9309(6) 1.4778(6) 1.1318(2)
H6 H 0.8437 1.4983 1.1517
C12 C 1.1954(6) 1.6790(5) 1.2151(3)
C13 C 0.9836(6) 1.5986(6) 1.2518(3)
H7 H 0.8956 1.5523 1.2556
C14 C 1.2576(8) 1.3367(8) 1.3136(4)
H8 H 1.1812 1.2793 1.3224
C15 C 1.4847(7) 1.5076(7) 1.2875(3)
H9 H 1.5612 1.5650 1.2789
C16 C 1.1700(10) 1.8779(10) 1.1229(5)
H10 H 1.1082 1.8998 1.1542
C17 C 1.2762(11) 1.8873(11) 1.0379(5)
H11 H 1.2988 1.9099 0.9993
C18 C 1.0461(8) 1.6773(7) 1.2932(3)
H12 H 1.0073 1.6951 1.3303
C19 C 1.4381(9) 1.4890(8) 1.3450(3)
H13 H 1.4840 1.5352 1.3751
C20 C 1.1817(11) 1.9397(11) 1.0670(4)
H14 H 1.1249 2.0100 1.0547
C21 C 1.3265(9) 1.4045(9) 1.3585(4)
C22 C 1.2717(11) 1.3881(11) 1.4228(4)
H15 H 1.1864 1.4422 1.4292
H16 H 1.3493 1.4129 1.4495
H17 H 1.2454 1.2992 1.4295
loop_
_geom_bond_atom_site_label_1
_geom_bond_atom_site_label_2
_geom_bond_site_symmetry_1
_geom_bond_site_symmetry_2
Br1 C1 1_555 1_555
S1 N1 1_555 1_555
N1 C2 1_555 1_555
O1 S1 1_555 1_555
N2 C3 1_555 1_555
C1 C4 1_555 1_555
C2 C3 1_555 1_555
O2 S1 1_555 1_555
C3 C11 1_555 1_555
C4 C2 1_555 1_555
H1 C4 1_555 1_555
C5 N1 1_555 1_555
H2 C5 1_555 1_555
C6 S1 1_555 1_555
C7 C5 1_555 1_555
C8 C1 1_555 1_555
H3 C8 1_555 1_555
C9 H4 1_555 1_555
C10 C6 1_555 1_555
H5 C10 1_555 1_555
O3 C7 1_555 1_555
C11 C8 1_555 1_555
H6 C11 1_555 1_555
C12 N2 1_555 1_555
C13 N2 1_555 1_555
H7 C13 1_555 1_555
C14 C10 1_555 1_555
H8 C14 1_555 1_555
C15 C6 1_555 1_555
H9 C15 1_555 1_555
C16 C7 1_555 1_555
H10 C16 1_555 1_555
C17 O3 1_555 1_555
H11 C17 1_555 1_555
C18 C9 1_555 1_555
H12 C18 1_555 1_555
C19 C15 1_555 1_555
H13 C19 1_555 1_555
C20 C16 1_555 1_555
H14 C20 1_555 1_555
C21 C14 1_555 1_555
C22 C21 1_555 1_555
H15 C22 1_555 1_555
H16 C22 1_555 1_555
H17 C22 1_555 1_555
C5 C12 1_555 1_555
C9 C12 1_555 1_555
C13 C18 1_555 1_555
C17 C20 1_555 1_555
C19 C21 1_555 1_555

#END
