
#######################################################################
#
#                 Cambridge Crystallographic Data Centre
#                                CCDC 
#
#######################################################################
#
# If this CIF has been generated from an entry in the Cambridge 
# Structural Database, then it will include bibliographic, chemical, 
# crystal, experimental, refinement or atomic coordinate data resulting 
# from the CCDC's data processing and validation procedures.
#
#######################################################################

data_OFEPAR
_chemical_formula_moiety         'C29 H18 N2 O4'
_chemical_name_systematic        N,N'-(Methylenedi-p-phenylene)diphthalimide
_symmetry_cell_setting           monoclinic
_symmetry_space_group_name_H-M   'C 2'
_symmetry_Int_Tables_number      5
_space_group_name_Hall           'C 2y'
loop_
_symmetry_equiv_pos_site_id
_symmetry_equiv_pos_as_xyz
1 x,y,z
2 -x,y,-z
3 1/2+x,1/2+y,z
4 1/2-x,1/2+y,-z
_cell_length_a                   31.669(6)
_cell_length_b                   4.9130(10)
_cell_length_c                   7.1543(14)
_cell_angle_alpha                90
_cell_angle_beta                 101.087(3)
_cell_angle_gamma                90
_cell_volume                     1092.36
_exptl_crystal_colour            colorless
_exptl_crystal_description       plate
_cell_formula_units_Z            2
_exptl_crystal_recrystallization_method DMF
loop_
_atom_site_label
_atom_site_type_symbol
_atom_site_fract_x
_atom_site_fract_y
_atom_site_fract_z
C1 C 0.0000 1.2197(11) 0.5000
H1 H 0.0149 1.3359 0.4244
H2 H -0.0149 1.3359 0.5756
O1 O 0.08076(7) 0.4639(6) 1.2283(3)
N1 N 0.12141(7) 0.5510(6) 0.9965(3)
C2 C 0.03274(8) 1.0474(6) 0.6323(4)
C3 C 0.08665(9) 0.6935(7) 0.6772(4)
H3 H 0.1027 0.5654 0.6253
C4 C 0.09194(9) 0.7230(7) 0.8729(4)
C5 C 0.06775(10) 0.9128(7) 0.9478(4)
H4 H 0.0711 0.9328 1.0791
C6 C 0.11301(9) 0.4301(7) 1.1647(4)
C7 C 0.03847(10) 1.0736(7) 0.8271(4)
H5 H 0.0224 1.2017 0.8788
C8 C 0.05731(9) 0.8558(7) 0.5600(4)
H6 H 0.0540 0.8359 0.4287
C9 C 0.15041(9) 0.2547(7) 1.2393(4)
C10 C 0.16170(9) 0.4632(8) 0.9611(4)
C11 C 0.17918(9) 0.2712(7) 1.1170(4)
O2 O 0.17754(7) 0.5373(7) 0.8300(4)
C12 C 0.22405(11) -0.0462(9) 1.3047(5)
H7 H 0.2492 -0.1487 1.3296
C13 C 0.19526(12) -0.0669(10) 1.4255(5)
H8 H 0.2009 -0.1861 1.5283
C14 C 0.15807(11) 0.0869(8) 1.3963(5)
H9 H 0.1389 0.0775 1.4796
C15 C 0.21666(10) 0.1221(8) 1.1479(5)
H10 H 0.2362 0.1344 1.0663
O1A O -0.08076(7) 0.4639(6) -0.2283(3)
N1A N -0.12141(7) 0.5510(6) 0.0035(3)
C2A C -0.03274(8) 1.0474(6) 0.3677(4)
C3A C -0.08665(9) 0.6935(7) 0.3228(4)
H3A H -0.1027 0.5654 0.3747
C4A C -0.09194(9) 0.7230(7) 0.1271(4)
C5A C -0.06775(10) 0.9128(7) 0.0522(4)
H4A H -0.0711 0.9328 -0.0791
C6A C -0.11301(9) 0.4301(7) -0.1647(4)
C7A C -0.03847(10) 1.0736(7) 0.1729(4)
H5A H -0.0224 1.2017 0.1212
C8A C -0.05731(9) 0.8558(7) 0.4400(4)
H6A H -0.0540 0.8359 0.5713
C9A C -0.15041(9) 0.2547(7) -0.2393(4)
C10A C -0.16170(9) 0.4632(8) 0.0389(4)
C11A C -0.17918(9) 0.2712(7) -0.1170(4)
O2A O -0.17754(7) 0.5373(7) 0.1700(4)
C12A C -0.22405(11) -0.0462(9) -0.3047(5)
H7A H -0.2492 -0.1487 -0.3296
C13A C -0.19526(12) -0.0669(10) -0.4255(5)
H8A H -0.2009 -0.1861 -0.5283
C14A C -0.15807(11) 0.0869(8) -0.3963(5)
H9A H -0.1389 0.0775 -0.4796
C15A C -0.21666(10) 0.1221(8) -0.1479(5)
H10A H -0.2362 0.1344 -0.0663
loop_
_geom_bond_atom_site_label_1
_geom_bond_atom_site_label_2
_geom_bond_site_symmetry_1
_geom_bond_site_symmetry_2
C1 H1 1_555 1_555
H2 C1 1_555 1_555
O1 C6 1_555 1_555
N1 C4 1_555 1_555
C2 C1 1_555 1_555
C3 H3 1_555 1_555
C4 C3 1_555 1_555
C5 C4 1_555 1_555
H4 C5 1_555 1_555
C6 N1 1_555 1_555
C7 C2 1_555 1_555
H5 C7 1_555 1_555
C8 C2 1_555 1_555
H6 C8 1_555 1_555
C9 C6 1_555 1_555
C10 N1 1_555 1_555
C11 C9 1_555 1_555
O2 C10 1_555 1_555
C12 H7 1_555 1_555
C13 C12 1_555 1_555
H8 C13 1_555 1_555
C14 C9 1_555 1_555
H9 C14 1_555 1_555
C15 C11 1_555 1_555
H10 C15 1_555 1_555
O1A C6A 1_555 1_555
N1A C4A 1_555 1_555
C2A C1 1_555 1_555
C3A H3A 1_555 1_555
C4A C3A 1_555 1_555
C5A C4A 1_555 1_555
H4A C5A 1_555 1_555
C6A N1A 1_555 1_555
C7A C2A 1_555 1_555
H5A C7A 1_555 1_555
C8A C2A 1_555 1_555
H6A C8A 1_555 1_555
C9A C6A 1_555 1_555
C10A N1A 1_555 1_555
C11A C9A 1_555 1_555
O2A C10A 1_555 1_555
C12A H7A 1_555 1_555
C13A C12A 1_555 1_555
H8A C13A 1_555 1_555
C14A C9A 1_555 1_555
H9A C14A 1_555 1_555
C15A C11A 1_555 1_555
H10A C15A 1_555 1_555
C3 C8 1_555 1_555
C5 C7 1_555 1_555
C10 C11 1_555 1_555
C12 C15 1_555 1_555
C13 C14 1_555 1_555
C3A C8A 1_555 1_555
C5A C7A 1_555 1_555
C10A C11A 1_555 1_555
C12A C15A 1_555 1_555
C13A C14A 1_555 1_555

#END
