
#######################################################################
#
#                 Cambridge Crystallographic Data Centre
#                                CCDC 
#
#######################################################################
#
# If this CIF has been generated from an entry in the Cambridge 
# Structural Database, then it will include bibliographic, chemical, 
# crystal, experimental, refinement or atomic coordinate data resulting 
# from the CCDC's data processing and validation procedures.
#
#######################################################################

data_OFEVON
_chemical_formula_moiety         'C13 H13 Se1 1+,B1 F4 1-'
_chemical_name_systematic        'methyl(diphenyl)selanium tetrafluoroborate'
_symmetry_cell_setting           orthorhombic
_symmetry_space_group_name_H-M   'P b c a'
_symmetry_Int_Tables_number      61
_space_group_name_Hall           '-P 2ac 2ab'
loop_
_symmetry_equiv_pos_site_id
_symmetry_equiv_pos_as_xyz
1 x,y,z
2 1/2-x,-y,1/2+z
3 -x,1/2+y,1/2-z
4 1/2+x,1/2-y,-z
5 -x,-y,-z
6 1/2+x,y,1/2-z
7 x,1/2-y,1/2+z
8 1/2-x,1/2+y,z
_cell_length_a                   16.1351(14)
_cell_length_b                   10.0130(9)
_cell_length_c                   17.1042(15)
_cell_angle_alpha                90
_cell_angle_beta                 90
_cell_angle_gamma                90
_cell_volume                     2763.37
_exptl_crystal_colour            orange
_exptl_crystal_description       block
_cell_formula_units_Z            8
loop_
_atom_site_label
_atom_site_type_symbol
_atom_site_fract_x
_atom_site_fract_y
_atom_site_fract_z
Se1 Se 0.01135(2) 0.76008(3) 0.10413(2)
C1 C -0.0562(2) 0.7076(3) 0.1922(2)
H1 H -0.1037 0.6591 0.1739
H2 H -0.0243 0.6518 0.2265
H3 H -0.0741 0.7857 0.2199
C2 C 0.06671(16) 0.5946(3) 0.07928(16)
C3 C 0.0425(2) 0.4746(3) 0.11023(19)
H4 H 0.0013 0.4703 0.1482
C4 C 0.0812(3) 0.3595(3) 0.0834(3)
H5 H 0.0651 0.2769 0.1032
C5 C 0.1422(2) 0.3658(4) 0.0286(2)
H6 H 0.1681 0.2880 0.0118
C6 C 0.1655(2) 0.4866(4) -0.0017(2)
H7 H 0.2072 0.4906 -0.0391
C7 C 0.1273(2) 0.6027(3) 0.0230(2)
H8 H 0.1423 0.6848 0.0020
C8 C 0.09994(18) 0.8532(3) 0.15639(15)
C9 C 0.1354(2) 0.8045(3) 0.22371(19)
H9 H 0.1168 0.7252 0.2458
C10 C 0.1990(2) 0.8754(3) 0.2577(2)
H10 H 0.2236 0.8438 0.3033
C11 C 0.2262(2) 0.9926(3) 0.2249(2)
H11 H 0.2695 1.0398 0.2479
C12 C 0.1898(2) 1.0399(3) 0.15833(19)
H12 H 0.2084 1.1195 0.1365
C13 C 0.1254(2) 0.9710(3) 0.12272(18)
H13 H 0.1004 1.0033 0.0776
B1 B -0.1175(2) 1.0531(3) 0.10758(18)
F1 F -0.14776(14) 0.9326(2) 0.08094(15)
F2 F -0.07859(13) 1.0307(2) 0.17889(11)
F3 F -0.06162(15) 1.0993(3) 0.05461(14)
F4 F -0.18171(13) 1.14071(19) 0.11630(11)
loop_
_geom_bond_atom_site_label_1
_geom_bond_atom_site_label_2
_geom_bond_site_symmetry_1
_geom_bond_site_symmetry_2
Se1 C1 1_555 1_555
C1 H1 1_555 1_555
H2 C1 1_555 1_555
H3 C1 1_555 1_555
C2 Se1 1_555 1_555
C3 C2 1_555 1_555
H4 C3 1_555 1_555
C4 C3 1_555 1_555
H5 C4 1_555 1_555
C5 C4 1_555 1_555
H6 C5 1_555 1_555
C6 C5 1_555 1_555
H7 C6 1_555 1_555
C7 C2 1_555 1_555
H8 C7 1_555 1_555
C8 Se1 1_555 1_555
C9 C8 1_555 1_555
H9 C9 1_555 1_555
C10 C9 1_555 1_555
H10 C10 1_555 1_555
C11 C10 1_555 1_555
H11 C11 1_555 1_555
C12 C11 1_555 1_555
H12 C12 1_555 1_555
C13 C8 1_555 1_555
H13 C13 1_555 1_555
B1 F1 1_555 1_555
F2 B1 1_555 1_555
F3 B1 1_555 1_555
F4 B1 1_555 1_555
C6 C7 1_555 1_555
C12 C13 1_555 1_555

#END
