
#######################################################################
#
#                 Cambridge Crystallographic Data Centre
#                                CCDC 
#
#######################################################################
#
# If this CIF has been generated from an entry in the Cambridge 
# Structural Database, then it will include bibliographic, chemical, 
# crystal, experimental, refinement or atomic coordinate data resulting 
# from the CCDC's data processing and validation procedures.
#
#######################################################################

data_OFEVUT
_chemical_formula_moiety         'C15 H11 F6 Se1 1+,B1 F4 1-'
_chemical_name_systematic        
'methylbis[4-(trifluoromethyl)phenyl]selanium tetrafluoroborate'
_symmetry_cell_setting           monoclinic
_symmetry_space_group_name_H-M   'P 21/c'
_symmetry_Int_Tables_number      14
_space_group_name_Hall           '-P 2ybc'
loop_
_symmetry_equiv_pos_site_id
_symmetry_equiv_pos_as_xyz
1 x,y,z
2 -x,1/2+y,1/2-z
3 -x,-y,-z
4 x,1/2-y,1/2+z
_cell_length_a                   29.1031(14)
_cell_length_b                   9.5554(4)
_cell_length_c                   13.0940(6)
_cell_angle_alpha                90
_cell_angle_beta                 102.4110(14)
_cell_angle_gamma                90
_cell_volume                     3556.24
_exptl_crystal_colour            colorless
_exptl_crystal_description       block
_cell_formula_units_Z            8
loop_
_atom_site_label
_atom_site_type_symbol
_atom_site_fract_x
_atom_site_fract_y
_atom_site_fract_z
Se1 Se 0.30742(2) 0.39355(5) 0.06263(4)
C1 C 0.3061(2) 0.1985(5) 0.1024(5)
H1 H 0.2836 0.1860 0.1457
H2 H 0.2972 0.1419 0.0407
H3 H 0.3367 0.1708 0.1404
C2 C 0.35421(15) 0.3883(4) -0.0219(3)
C3 C 0.34860(17) 0.4770(5) -0.1056(4)
H4 H 0.3219 0.5328 -0.1237
C4 C 0.38289(19) 0.4823(6) -0.1620(4)
H5 H 0.3796 0.5420 -0.2192
C5 C 0.42216(17) 0.4002(5) -0.1349(3)
C6 C 0.42683(17) 0.3092(6) -0.0533(4)
H6 H 0.4531 0.2516 -0.0367
C7 C 0.39284(17) 0.3026(5) 0.0042(4)
H7 H 0.3958 0.2409 0.0602
C8 C 0.4613(3) 0.4111(10) -0.1937(5)
C9 C 0.34578(14) 0.4656(4) 0.1913(3)
C10 C 0.38826(19) 0.5282(7) 0.1934(4)
H8 H 0.4004 0.5328 0.1334
C11 C 0.4124(2) 0.5839(7) 0.2853(4)
H9 H 0.4413 0.6264 0.2872
C12 C 0.39533(17) 0.5791(5) 0.3746(4)
C13 C 0.35168(19) 0.5218(6) 0.3695(4)
H10 H 0.3387 0.5229 0.4285
C14 C 0.32691(17) 0.4628(6) 0.2784(4)
H11 H 0.2978 0.4216 0.2760
C15 C 0.4230(2) 0.6389(8) 0.4739(5)
F1 F 0.4650(7) 0.5476(13) -0.2312(17)
F2 F 0.4547(7) 0.346(3) -0.2771(15)
F3 F 0.5026(5) 0.396(3) -0.1360(14)
F4 F 0.4277(10) 0.7681(11) 0.4732(12)
F5 F 0.4010(4) 0.611(3) 0.5582(6)
F6 F 0.4615(5) 0.574(2) 0.5094(15)
Se2 Se 0.19400(2) 0.59244(5) 0.26887(4)
C16 C 0.1972(2) 0.7868(5) 0.3137(5)
H12 H 0.2179 0.7948 0.3812
H13 H 0.2089 0.8432 0.2642
H14 H 0.1663 0.8185 0.3177
C17 C 0.15123(15) 0.6051(4) 0.1343(4)
C18 C 0.11708(19) 0.7041(6) 0.1130(4)
H15 H 0.1159 0.7748 0.1612
C19 C 0.0845(2) 0.7002(6) 0.0210(4)
H16 H 0.0601 0.7649 0.0078
C20 C 0.0881(2) 0.6000(6) -0.0520(4)
C21 C 0.1239(2) 0.5040(6) -0.0319(4)
H17 H 0.1264 0.4372 -0.0821
C22 C 0.15603(18) 0.5059(5) 0.0620(4)
H18 H 0.1805 0.4412 0.0760
C23 C 0.0517(3) 0.5948(11) -0.1521(5)
C24 C 0.15134(15) 0.5180(4) 0.3501(3)
C25 C 0.16810(19) 0.5002(7) 0.4555(4)
H19 H 0.1985 0.5284 0.4863
C26 C 0.1402(2) 0.4411(7) 0.5152(4)
H20 H 0.1518 0.4287 0.5866
C27 C 0.09483(18) 0.3995(5) 0.4707(4)
C28 C 0.0790(2) 0.4162(7) 0.3650(4)
H21 H 0.0487 0.3872 0.3337
C29 C 0.10719(19) 0.4755(7) 0.3042(4)
H22 H 0.0961 0.4862 0.2326
C30 C 0.0641(2) 0.3384(8) 0.5354(5)
F13 F 0.0705(7) 0.572(3) -0.2309(11)
F14 F 0.0302(8) 0.7203(18) -0.1748(14)
F15 F 0.0220(10) 0.505(3) -0.1564(16)
F16 F 0.0815(8) 0.249(3) 0.602(2)
F17 F 0.0468(10) 0.434(3) 0.5846(19)
F18 F 0.0254(7) 0.280(3) 0.4788(12)
B1 B 0.21779(19) 0.1901(5) 0.3007(4)
F25 F 0.1787(2) 0.1590(9) 0.3174(9)
F26 F 0.21137(19) 0.2864(4) 0.2241(4)
F27 F 0.2398(2) 0.0800(5) 0.2758(6)
F28 F 0.2463(3) 0.2527(8) 0.3790(5)
B2 B 0.2843(2) 0.7087(5) 0.5831(5)
F29 F 0.30530(16) 0.8057(4) 0.5280(3)
F30 F 0.27061(14) 0.6038(4) 0.5093(4)
F31 F 0.24715(16) 0.7665(6) 0.6073(4)
F32 F 0.31635(18) 0.6640(6) 0.6613(4)
F7? F 0.4452(9) 0.428(5) -0.2877(15)
F8? F 0.4818(10) 0.281(2) -0.196(3)
F9? F 0.4929(10) 0.483(4) -0.154(2)
F10? F 0.4607(7) 0.719(4) 0.4518(12)
F11? F 0.4026(6) 0.721(3) 0.5181(19)
F12? F 0.4444(14) 0.553(3) 0.528(2)
F19? F 0.0571(11) 0.675(4) -0.2197(19)
F20? F 0.0083(6) 0.578(3) -0.1324(15)
F21? F 0.0526(10) 0.462(3) -0.1993(15)
F22? F 0.0902(10) 0.294(4) 0.6260(18)
F23? F 0.0342(9) 0.425(3) 0.558(2)
F24? F 0.0417(11) 0.227(3) 0.493(2)
loop_
_geom_bond_atom_site_label_1
_geom_bond_atom_site_label_2
_geom_bond_site_symmetry_1
_geom_bond_site_symmetry_2
Se1 C1 1_555 1_555
C1 H1 1_555 1_555
H2 C1 1_555 1_555
H3 C1 1_555 1_555
C2 Se1 1_555 1_555
C3 C2 1_555 1_555
H4 C3 1_555 1_555
C4 C3 1_555 1_555
H5 C4 1_555 1_555
C5 C4 1_555 1_555
C6 C5 1_555 1_555
H6 C6 1_555 1_555
C7 C2 1_555 1_555
H7 C7 1_555 1_555
C8 C5 1_555 1_555
C9 Se1 1_555 1_555
C10 C9 1_555 1_555
H8 C10 1_555 1_555
C11 C10 1_555 1_555
H9 C11 1_555 1_555
C12 C11 1_555 1_555
C13 C12 1_555 1_555
H10 C13 1_555 1_555
C14 C9 1_555 1_555
H11 C14 1_555 1_555
C15 C12 1_555 1_555
F1 C8 1_555 1_555
F2 C8 1_555 1_555
F3 C8 1_555 1_555
F4 C15 1_555 1_555
F5 C15 1_555 1_555
F6 C15 1_555 1_555
Se2 C16 1_555 1_555
C16 H12 1_555 1_555
H13 C16 1_555 1_555
H14 C16 1_555 1_555
C17 Se2 1_555 1_555
C18 C17 1_555 1_555
H15 C18 1_555 1_555
C19 C18 1_555 1_555
H16 C19 1_555 1_555
C20 C19 1_555 1_555
C21 C20 1_555 1_555
H17 C21 1_555 1_555
C22 C17 1_555 1_555
H18 C22 1_555 1_555
C23 C20 1_555 1_555
C24 Se2 1_555 1_555
C25 C24 1_555 1_555
H19 C25 1_555 1_555
C26 C25 1_555 1_555
H20 C26 1_555 1_555
C27 C26 1_555 1_555
C28 C27 1_555 1_555
H21 C28 1_555 1_555
C29 C24 1_555 1_555
H22 C29 1_555 1_555
C30 C27 1_555 1_555
F13 C23 1_555 1_555
F14 C23 1_555 1_555
F15 C23 1_555 1_555
F16 C30 1_555 1_555
F17 C30 1_555 1_555
F18 C30 1_555 1_555
B1 F25 1_555 1_555
F26 B1 1_555 1_555
F27 B1 1_555 1_555
F28 B1 1_555 1_555
B2 F29 1_555 1_555
F30 B2 1_555 1_555
F31 B2 1_555 1_555
F32 B2 1_555 1_555
C6 C7 1_555 1_555
C13 C14 1_555 1_555
C21 C22 1_555 1_555
C28 C29 1_555 1_555

#END
