
#######################################################################
#
#                 Cambridge Crystallographic Data Centre
#                                CCDC 
#
#######################################################################
#
# If this CIF has been generated from an entry in the Cambridge 
# Structural Database, then it will include bibliographic, chemical, 
# crystal, experimental, refinement or atomic coordinate data resulting 
# from the CCDC's data processing and validation procedures.
#
#######################################################################

data_OFEWOO
_chemical_formula_moiety         'C23 H29 N1 O7'
_chemical_name_systematic        
"1',2-di-t-butyl 3-ethyl 2'-oxospiro[cyclopropane-1,3'-indole]-1',2,3(2'H)-tricarboxylate"
_symmetry_cell_setting           triclinic
_symmetry_space_group_name_H-M   'P -1'
_symmetry_Int_Tables_number      2
_space_group_name_Hall           '-P 1'
loop_
_symmetry_equiv_pos_site_id
_symmetry_equiv_pos_as_xyz
1 x,y,z
2 -x,-y,-z
_cell_length_a                   9.1478(5)
_cell_length_b                   11.1131(4)
_cell_length_c                   12.5164(7)
_cell_angle_alpha                94.766(4)
_cell_angle_beta                 106.162(5)
_cell_angle_gamma                107.468(4)
_cell_volume                     1146.33
_exptl_crystal_colour            colorless
_exptl_crystal_description       block
_cell_formula_units_Z            2
loop_
_atom_site_label
_atom_site_type_symbol
_atom_site_fract_x
_atom_site_fract_y
_atom_site_fract_z
O1 O 0.57597(13) 0.14670(10) 0.35354(10)
O2 O -0.07728(13) 0.18112(12) 0.14690(9)
O3 O 0.24883(16) 0.14659(10) 0.49323(9)
O4 O 0.25323(15) 0.28854(11) 0.67428(9)
O5 O 0.34375(15) -0.01301(11) 0.32800(11)
N1 N 0.27389(14) 0.36424(11) 0.51616(10)
O6 O 0.11822(16) 0.22015(15) 0.06410(10)
C1 C 0.26567(16) 0.24572(13) 0.45896(11)
O7 O 0.2543(3) 0.48905(15) 0.66191(13)
C2 C 0.29543(16) 0.40423(13) 0.34203(12)
C3 C 0.27409(16) 0.26759(13) 0.34341(11)
C4 C 0.41609(18) 0.09461(14) 0.32238(11)
C5 C 0.29268(16) 0.45902(14) 0.44566(12)
C6 C 0.33950(18) 0.18894(14) 0.27451(12)
H1 H 0.3864 0.2335 0.2213
C7 C 0.06765(18) 0.18961(15) 0.14038(12)
C8 C 0.16219(17) 0.15690(14) 0.24523(12)
H2 H 0.1054 0.0781 0.2674
C9 C 0.3183(2) 0.47869(16) 0.26085(13)
H3 H 0.3223 0.4433 0.1922
C10 C 0.2592(2) 0.38888(15) 0.62482(13)
C11 C 0.3101(2) 0.58745(15) 0.46917(14)
H4 H 0.3079 0.6236 0.5382
C12 C 0.3350(2) 0.60782(16) 0.28430(15)
H5 H 0.3492 0.6590 0.2303
C13 C 0.3309(2) 0.66042(16) 0.38634(16)
H6 H 0.3422 0.7468 0.4001
C14 C 0.6687(2) 0.06635(17) 0.40108(16)
H7 H 0.6377 -0.0124 0.3478
H8 H 0.6485 0.0445 0.4703
C15 C -0.1971(2) 0.2138(2) 0.05708(14)
C16 C 0.2167(2) 0.28506(17) 0.78290(13)
C17 C 0.3459(3) 0.3910(2) 0.87510(16)
H9 H 0.4504 0.3868 0.8788
H10 H 0.3284 0.3806 0.9464
H11 H 0.3406 0.4727 0.8585
C18 C -0.2476(3) 0.1184(2) -0.05094(17)
H12 H -0.1565 0.1278 -0.0773
H13 H -0.3321 0.1338 -0.1074
H14 H -0.2864 0.0329 -0.0367
C19 C 0.8427(2) 0.1407(2) 0.42479(19)
H15 H 0.8612 0.1619 0.3558
H16 H 0.9070 0.0902 0.4559
H17 H 0.8721 0.2182 0.4780
C20 C -0.1264(3) 0.3506(2) 0.0432(2)
H18 H -0.0831 0.4060 0.1158
H19 H -0.2094 0.3756 -0.0055
H20 H -0.0417 0.3574 0.0104
C21 C 0.2247(4) 0.1560(2) 0.80726(19)
H21 H 0.1496 0.0901 0.7449
H22 H 0.1974 0.1410 0.8748
H23 H 0.3322 0.1548 0.8175
C22 C 0.0501(3) 0.2925(3) 0.7652(2)
H24 H 0.0474 0.3728 0.7435
H25 H 0.0241 0.2860 0.8342
H26 H -0.0275 0.2233 0.7066
C23 C -0.3340(3) 0.1984(3) 0.1066(2)
H27 H -0.3718 0.1122 0.1195
H28 H -0.4210 0.2161 0.0547
H29 H -0.2958 0.2573 0.1770
loop_
_geom_bond_atom_site_label_1
_geom_bond_atom_site_label_2
_geom_bond_site_symmetry_1
_geom_bond_site_symmetry_2
O1 C4 1_555 1_555
O2 C7 1_555 1_555
O3 C1 1_555 1_555
O4 C10 1_555 1_555
O5 C4 1_555 1_555
N1 C1 1_555 1_555
O6 C7 1_555 1_555
C1 C3 1_555 1_555
O7 C10 1_555 1_555
C2 C3 1_555 1_555
C3 C6 1_555 1_555
C4 C6 1_555 1_555
C5 N1 1_555 1_555
C6 H1 1_555 1_555
C7 C8 1_555 1_555
C8 C3 1_555 1_555
H2 C8 1_555 1_555
C9 C2 1_555 1_555
H3 C9 1_555 1_555
C10 N1 1_555 1_555
C11 C5 1_555 1_555
H4 C11 1_555 1_555
C12 C9 1_555 1_555
H5 C12 1_555 1_555
C13 C11 1_555 1_555
H6 C13 1_555 1_555
C14 O1 1_555 1_555
H7 C14 1_555 1_555
H8 C14 1_555 1_555
C15 O2 1_555 1_555
C16 O4 1_555 1_555
C17 C16 1_555 1_555
H9 C17 1_555 1_555
H10 C17 1_555 1_555
H11 C17 1_555 1_555
C18 C15 1_555 1_555
H12 C18 1_555 1_555
H13 C18 1_555 1_555
H14 C18 1_555 1_555
C19 C14 1_555 1_555
H15 C19 1_555 1_555
H16 C19 1_555 1_555
H17 C19 1_555 1_555
C20 C15 1_555 1_555
H18 C20 1_555 1_555
H19 C20 1_555 1_555
H20 C20 1_555 1_555
C21 C16 1_555 1_555
H21 C21 1_555 1_555
H22 C21 1_555 1_555
H23 C21 1_555 1_555
C22 C16 1_555 1_555
H24 C22 1_555 1_555
H25 C22 1_555 1_555
H26 C22 1_555 1_555
C23 C15 1_555 1_555
H27 C23 1_555 1_555
H28 C23 1_555 1_555
H29 C23 1_555 1_555
C2 C5 1_555 1_555
C6 C8 1_555 1_555
C12 C13 1_555 1_555

#END
