
#######################################################################
#
#                 Cambridge Crystallographic Data Centre
#                                CCDC 
#
#######################################################################
#
# If this CIF has been generated from an entry in the Cambridge 
# Structural Database, then it will include bibliographic, chemical, 
# crystal, experimental, refinement or atomic coordinate data resulting 
# from the CCDC's data processing and validation procedures.
#
#######################################################################

data_OFEZEG
_chemical_formula_moiety         'C19 H22 I1 N1 O3'
_chemical_name_systematic        
'Methyl \a-(2-(2-iodophenyl)ethyl)-O-methyltyrosinate'
_symmetry_cell_setting           orthorhombic
_symmetry_space_group_name_H-M   'P 21 21 21'
_symmetry_Int_Tables_number      19
_space_group_name_Hall           'P 2ac 2ab'
loop_
_symmetry_equiv_pos_site_id
_symmetry_equiv_pos_as_xyz
1 x,y,z
2 1/2-x,-y,1/2+z
3 1/2+x,1/2-y,-z
4 -x,1/2+y,1/2-z
_cell_length_a                   5.8480(2)
_cell_length_b                   11.0146(3)
_cell_length_c                   29.0584(10)
_cell_angle_alpha                90
_cell_angle_beta                 90
_cell_angle_gamma                90
_cell_volume                     1871.75
_exptl_crystal_description       block
_cell_formula_units_Z            4
loop_
_atom_site_label
_atom_site_type_symbol
_atom_site_fract_x
_atom_site_fract_y
_atom_site_fract_z
I1 I 0.17919(6) 0.48764(4) 0.325517(13)
C1 C 0.6325(8) 0.5027(5) 0.62727(16)
H1 H 0.7561 0.5210 0.6462
O1 O 0.5036(7) 0.3393(3) 0.67767(13)
C2 C 0.2637(8) 0.4509(4) 0.57091(17)
H2 H 0.1386 0.4328 0.5524
C3 C 0.5958(9) 0.5680(5) 0.58644(18)
H3 H 0.6963 0.6301 0.5787
C4 C 0.4776(9) 0.6418(5) 0.42954(17)
H4 H 0.3162 0.6370 0.4220
H5 H 0.5112 0.7254 0.4375
C5 C 0.7015(11) 0.3595(6) 0.7057(2)
H6 H 0.8367 0.3515 0.6872
H7 H 0.7051 0.3008 0.7301
H8 H 0.6953 0.4397 0.7185
C6 C 0.5239(8) 0.5613(4) 0.47191(17)
C7 C 0.4822(9) 0.4107(5) 0.63902(17)
C8 C 0.3842(8) 0.6111(4) 0.51287(16)
H9 H 0.4276 0.6950 0.5180
H10 H 0.2235 0.6101 0.5046
C9 C 0.4136(8) 0.5425(4) 0.55721(17)
C10 C 0.2951(9) 0.3865(4) 0.61112(17)
H11 H 0.1909 0.3267 0.6195
O2 O 0.2259(6) 0.4203(3) 0.45521(13)
O3 O 0.5819(6) 0.3476(3) 0.45452(15)
C11 C 0.4546(9) 0.4315(5) 0.46033(19)
N1 N 0.7687(7) 0.5677(4) 0.48349(18)
C12 C 0.1479(10) 0.3003(5) 0.4421(2)
H12 H 0.2134 0.2786 0.4129
H13 H -0.0158 0.3003 0.4397
H14 H 0.1944 0.2425 0.4650
C13 C 0.6160(9) 0.6079(5) 0.38678(17)
H15 H 0.7771 0.6213 0.3929
H16 H 0.5949 0.5222 0.3803
C14 C 0.5456(9) 0.6813(5) 0.34497(17)
C15 C 0.6598(11) 0.7893(5) 0.33559(18)
H17 H 0.7778 0.8137 0.3550
C16 C 0.3119(11) 0.7204(6) 0.27752(18)
H18 H 0.1946 0.6960 0.2580
C17 C 0.3712(10) 0.6496(5) 0.31565(18)
C18 C 0.6029(11) 0.8620(6) 0.29801(19)
H19 H 0.6817 0.9338 0.2925
C19 C 0.4288(11) 0.8262(6) 0.26922(19)
H20 H 0.3900 0.8740 0.2440
H21 H 0.834(9) 0.541(5) 0.464(2)
H22 H 0.801(11) 0.524(6) 0.510(2)
loop_
_geom_bond_atom_site_label_1
_geom_bond_atom_site_label_2
_geom_bond_site_symmetry_1
_geom_bond_site_symmetry_2
I1 C17 1_555 1_555
C1 H1 1_555 1_555
O1 C5 1_555 1_555
C2 H2 1_555 1_555
C3 C1 1_555 1_555
H3 C3 1_555 1_555
C4 H4 1_555 1_555
H5 C4 1_555 1_555
C5 H6 1_555 1_555
H7 C5 1_555 1_555
H8 C5 1_555 1_555
C6 C4 1_555 1_555
C7 C1 1_555 1_555
C8 C6 1_555 1_555
H9 C8 1_555 1_555
H10 C8 1_555 1_555
C9 C2 1_555 1_555
C10 C2 1_555 1_555
H11 C10 1_555 1_555
O2 C11 1_555 1_555
O3 C11 1_555 1_555
C11 C6 1_555 1_555
N1 C6 1_555 1_555
C12 O2 1_555 1_555
H12 C12 1_555 1_555
H13 C12 1_555 1_555
H14 C12 1_555 1_555
C13 C4 1_555 1_555
H15 C13 1_555 1_555
H16 C13 1_555 1_555
C14 C13 1_555 1_555
C15 C14 1_555 1_555
H17 C15 1_555 1_555
C16 H18 1_555 1_555
C17 C14 1_555 1_555
C18 C15 1_555 1_555
H19 C18 1_555 1_555
C19 C16 1_555 1_555
H20 C19 1_555 1_555
H21 N1 1_555 1_555
H22 N1 1_555 1_555
O1 C7 1_555 1_555
C3 C9 1_555 1_555
C7 C10 1_555 1_555
C8 C9 1_555 1_555
C16 C17 1_555 1_555
C18 C19 1_555 1_555

#END
