
#######################################################################
#
#                 Cambridge Crystallographic Data Centre
#                                CCDC 
#
#######################################################################
#
# If this CIF has been generated from an entry in the Cambridge 
# Structural Database, then it will include bibliographic, chemical, 
# crystal, experimental, refinement or atomic coordinate data resulting 
# from the CCDC's data processing and validation procedures.
#
#######################################################################

data_OFEZAD
_chemical_formula_moiety         'C24 H27 Br1 N2 O5'
_chemical_name_systematic        
"2'-t-butyl 3'-ethyl 8'-bromo-7-methyl-2-oxo-1,2,2',3'-tetrahydro-8a'H-spiro[indole-3,1'-indolizine]-2',3'-dicarboxylate"
_symmetry_cell_setting           monoclinic
_symmetry_space_group_name_H-M   'P 21/c'
_symmetry_Int_Tables_number      14
_space_group_name_Hall           '-P 2ybc'
loop_
_symmetry_equiv_pos_site_id
_symmetry_equiv_pos_as_xyz
1 x,y,z
2 -x,1/2+y,1/2-z
3 -x,-y,-z
4 x,1/2-y,1/2+z
_cell_length_a                   9.6554(6)
_cell_length_b                   21.3633(15)
_cell_length_c                   11.9415(9)
_cell_angle_alpha                90
_cell_angle_beta                 97.497(7)
_cell_angle_gamma                90
_cell_volume                     2442.13
_cell_formula_units_Z            4
loop_
_atom_site_label
_atom_site_type_symbol
_atom_site_fract_x
_atom_site_fract_y
_atom_site_fract_z
Br1 Br 0.71118(6) 0.31564(3) 0.58925(7)
O1 O 0.4179(3) 0.42484(13) 0.4499(2)
O2 O 0.0354(4) 0.39046(19) 0.6892(4)
O3 O 0.1810(3) 0.46268(14) 0.6355(3)
O4 O 0.0180(5) 0.2188(2) 0.5037(4)
N1 N 0.3043(4) 0.25731(16) 0.6090(3)
N2 N 0.5119(3) 0.45367(14) 0.6290(2)
H1 H 0.5583 0.4860 0.6124
C1 C 0.3264(7) 0.2109(2) 0.6907(4)
H2 H 0.2495 0.1918 0.7156
C2 C 0.4536(8) 0.1928(2) 0.7345(4)
H3 H 0.4652 0.1597 0.7856
C3 C 0.5728(7) 0.2248(2) 0.7022(4)
H4 H 0.6622 0.2121 0.7317
C4 C 0.5566(5) 0.2723(2) 0.6310(4)
C5 C 0.4175(5) 0.29688(18) 0.5790(3)
H5 H 0.4149 0.2963 0.4967
C6 C 0.3741(4) 0.36363(17) 0.6149(3)
C7 C 0.2146(4) 0.36053(19) 0.5799(3)
H6 H 0.1970 0.3713 0.4995
C8 C 0.1740(5) 0.2918(2) 0.5908(4)
H7 H 0.1226 0.2865 0.6558
C9 C 0.4368(4) 0.41687(17) 0.5521(3)
C10 C 0.5050(4) 0.43268(17) 0.7396(3)
C11 C 0.5695(4) 0.45912(19) 0.8390(3)
C12 C 0.5420(5) 0.4291(2) 0.9371(3)
H8 H 0.5809 0.4453 1.0064
C13 C 0.4604(5) 0.3768(2) 0.9363(3)
H9 H 0.4461 0.3583 1.0044
C14 C 0.3984(5) 0.35064(19) 0.8354(3)
H10 H 0.3426 0.3151 0.8348
C15 C 0.4224(4) 0.37931(17) 0.7363(3)
C16 C 0.6610(5) 0.5159(2) 0.8393(4)
H11 H 0.7321 0.5086 0.7917
H12 H 0.7038 0.5242 0.9149
H13 H 0.6055 0.5513 0.8114
C17 C 0.1321(5) 0.4055(2) 0.6417(4)
C18 C 0.1290(5) 0.5164(2) 0.6985(5)
C19 C -0.0225(6) 0.5278(3) 0.6598(5)
H14 H -0.0351 0.5380 0.5809
H15 H -0.0548 0.5619 0.7019
H16 H -0.0750 0.4908 0.6719
C20 C 0.1522(8) 0.5013(4) 0.8219(6)
H17 H 0.0903 0.4682 0.8375
H18 H 0.1342 0.5378 0.8645
H19 H 0.2472 0.4882 0.8427
C21 C 0.2166(11) 0.5689(3) 0.6661(12)
H20 H 0.3133 0.5599 0.6902
H21 H 0.1911 0.6068 0.7017
H22 H 0.2019 0.5741 0.5856
C22 C 0.0856(6) 0.2683(3) 0.4834(5)
C23 C -0.0676(13) 0.1910(5) 0.4036(8)
H23 H -0.1410 0.2197 0.3733
H24 H -0.0100 0.1817 0.3450
C24 C -0.1223(13) 0.1384(5) 0.4406(8)
H25 H -0.1670 0.1150 0.3773
H26 H -0.1897 0.1489 0.4899
H27 H -0.0493 0.1135 0.4809
O5 O 0.0865(11) 0.2899(4) 0.3907(5)
O6? O -0.003(5) 0.3030(16) 0.430(4)
loop_
_geom_bond_atom_site_label_1
_geom_bond_atom_site_label_2
_geom_bond_site_symmetry_1
_geom_bond_site_symmetry_2
Br1 C4 1_555 1_555
O1 C9 1_555 1_555
O2 C17 1_555 1_555
O3 C17 1_555 1_555
O4 C22 1_555 1_555
N1 C1 1_555 1_555
N2 H1 1_555 1_555
C1 H2 1_555 1_555
C2 C1 1_555 1_555
H3 C2 1_555 1_555
C3 C2 1_555 1_555
H4 C3 1_555 1_555
C4 C3 1_555 1_555
C5 N1 1_555 1_555
H5 C5 1_555 1_555
C6 C5 1_555 1_555
C7 C6 1_555 1_555
H6 C7 1_555 1_555
C8 N1 1_555 1_555
H7 C8 1_555 1_555
C9 N2 1_555 1_555
C10 N2 1_555 1_555
C11 C10 1_555 1_555
C12 C11 1_555 1_555
H8 C12 1_555 1_555
C13 C12 1_555 1_555
H9 C13 1_555 1_555
C14 C13 1_555 1_555
H10 C14 1_555 1_555
C15 C6 1_555 1_555
C16 C11 1_555 1_555
H11 C16 1_555 1_555
H12 C16 1_555 1_555
H13 C16 1_555 1_555
C17 C7 1_555 1_555
C18 O3 1_555 1_555
C19 C18 1_555 1_555
H14 C19 1_555 1_555
H15 C19 1_555 1_555
H16 C19 1_555 1_555
C20 C18 1_555 1_555
H17 C20 1_555 1_555
H18 C20 1_555 1_555
H19 C20 1_555 1_555
C21 C18 1_555 1_555
H20 C21 1_555 1_555
H21 C21 1_555 1_555
H22 C21 1_555 1_555
C22 C8 1_555 1_555
C23 O4 1_555 1_555
H23 C23 1_555 1_555
H24 C23 1_555 1_555
C24 C23 1_555 1_555
H25 C24 1_555 1_555
H26 C24 1_555 1_555
H27 C24 1_555 1_555
O5 C22 1_555 1_555
C4 C5 1_555 1_555
C6 C9 1_555 1_555
C7 C8 1_555 1_555
C10 C15 1_555 1_555
C14 C15 1_555 1_555

#END
