
#######################################################################
#
#                 Cambridge Crystallographic Data Centre
#                                CCDC 
#
#######################################################################
#
# If this CIF has been generated from an entry in the Cambridge 
# Structural Database, then it will include bibliographic, chemical, 
# crystal, experimental, refinement or atomic coordinate data resulting 
# from the CCDC's data processing and validation procedures.
#
#######################################################################

data_OFEZIL
_chemical_formula_moiety         'C23 H24 Br1 F1 N2 O5'
_chemical_name_systematic        
"2'-t-butyl 3'-ethyl 6'-bromo-8'-fluoro-2-oxo-1,2,2',3'-tetrahydro-8a'H-spiro[indole-3,1'-indolizine]-2',3'-dicarboxylate unknown solvate"
_symmetry_cell_setting           triclinic
_symmetry_space_group_name_H-M   'P -1'
_symmetry_Int_Tables_number      2
_space_group_name_Hall           '-P 1'
loop_
_symmetry_equiv_pos_site_id
_symmetry_equiv_pos_as_xyz
1 x,y,z
2 -x,-y,-z
_cell_length_a                   10.4373(4)
_cell_length_b                   11.9148(4)
_cell_length_c                   11.9155(5)
_cell_angle_alpha                64.3950(10)
_cell_angle_beta                 70.5770(10)
_cell_angle_gamma                83.5330(10)
_cell_volume                     1259.38
_exptl_crystal_colour            colorless
_exptl_crystal_description       block
_cell_formula_units_Z            2
loop_
_atom_site_label
_atom_site_type_symbol
_atom_site_fract_x
_atom_site_fract_y
_atom_site_fract_z
Br1 Br 0.85361(3) 0.13623(3) 0.73007(3)
H1 H 0.615(4) -0.033(3) 0.900(4)
N1 N 0.1076(2) 0.1215(2) 0.9734(3)
C1 C 0.6760(3) 0.1272(3) 0.7269(3)
F1 F 0.36672(17) -0.06923(17) 0.93463(17)
H2 H 0.687(3) 0.278(3) 0.561(3)
O1 O 0.1021(2) 0.05268(19) 0.8214(2)
C2 C 0.5857(3) 0.0260(3) 0.8346(3)
O2 O 0.0916(2) 0.3872(2) 0.7071(2)
H3 H 0.474(4) 0.344(4) 0.781(4)
C3 C 0.0859(11) 0.5430(9) 0.7872(13)
H4 H 0.1609 0.5948 0.7119
H5 H 0.0273 0.5947 0.8274
H6 H 0.1227 0.4773 0.8518
C4 C -0.1099(10) 0.4057(8) 0.8481(14)
H7 H -0.0744 0.3425 0.9153
H8 H -0.1724 0.4577 0.8853
H9 H -0.1585 0.3647 0.8176
O3 O 0.3767(9) 0.3612(17) 0.3491(5)
O4 O 0.2757(9) 0.5110(6) 0.624(3)
O5 O 0.5607(5) 0.2732(4) 0.3622(4)
C5 C 0.7241(9) 0.2335(8) 0.1844(8)
H10 H 0.7486 0.2413 0.0944
H11 H 0.7937 0.2767 0.1913
H12 H 0.7181 0.1453 0.2451
C6 C 0.4537(4) 0.3238(6) 0.4129(4)
C7 C 0.5962(8) 0.2878(8) 0.2168(7)
H13 H 0.5251 0.2450 0.2097
H14 H 0.6011 0.3769 0.1557
H15 H 0.041(4) 0.075(4) 1.034(4)
C8 C -0.0127(5) 0.5871(5) 0.6198(5)
H16 H 0.0776 0.6241 0.5609
H17 H -0.0553 0.5570 0.5756
H18 H -0.0692 0.6500 0.6433
H19 H 0.101(4) 0.186(4) 1.170(4)
N2 N 0.5054(2) 0.1998(2) 0.6238(3)
H20 H 0.284(5) 0.312(5) 1.150(5)
H21 H 0.475(5) 0.391(4) 0.949(4)
C9 C 0.4600(3) 0.0210(2) 0.8347(3)
C10 C 0.1962(3) 0.1948(3) 0.9836(3)
C11 C 0.1530(3) 0.1147(2) 0.8566(3)
C12 C 0.6330(3) 0.2109(3) 0.6302(3)
C13 C 0.3056(3) 0.2396(3) 0.8670(3)
C14 C 0.2864(3) 0.1920(2) 0.7757(3)
C15 C 0.4015(3) 0.1096(3) 0.7323(3)
H22 H 0.3657 0.0613 0.6975
C16 C 0.4075(4) 0.3140(3) 0.8557(5)
C17 C 0.2873(3) 0.2913(3) 0.6377(3)
H23 H 0.2356 0.2559 0.6025
C18 C 0.1835(4) 0.2206(3) 1.0893(4)
C19 C 0.3971(4) 0.3401(4) 0.9609(5)
C20 C 0.2224(3) 0.4101(3) 0.6410(4)
C21 C 0.2873(4) 0.2947(4) 1.0755(5)
C22 C 0.4391(3) 0.3089(3) 0.5519(4)
H24 H 0.4785 0.3852 0.5450
C23 C 0.0007(4) 0.4822(3) 0.7396(4)
C24? C 0.0143(14) 0.4953(11) 0.8530(13)
H25? H 0.0217 0.4128 0.9205
H26? H 0.0960 0.5465 0.8245
H27? H -0.0658 0.5354 0.8891
C25? C -0.1512(9) 0.4209(9) 0.7867(12)
H28? H -0.1651 0.3458 0.8691
H29? H -0.2196 0.4812 0.8002
H30? H -0.1599 0.3990 0.7192
O6? O 0.3986(7) 0.4383(17) 0.3608(9)
O7? O 0.2866(6) 0.5044(6) 0.561(2)
loop_
_geom_bond_atom_site_label_1
_geom_bond_atom_site_label_2
_geom_bond_site_symmetry_1
_geom_bond_site_symmetry_2
Br1 C1 1_555 1_555
H1 C2 1_555 1_555
N1 H15 1_555 1_555
C1 C2 1_555 1_555
F1 C9 1_555 1_555
H2 C12 1_555 1_555
O1 C11 1_555 1_555
C2 C9 1_555 1_555
O2 C20 1_555 1_555
H3 C16 1_555 1_555
C3 H4 1_555 1_555
H5 C3 1_555 1_555
H6 C3 1_555 1_555
C4 H7 1_555 1_555
H8 C4 1_555 1_555
H9 C4 1_555 1_555
O3 C6 1_555 1_555
O4 C20 1_555 1_555
O5 C6 1_555 1_555
C5 H10 1_555 1_555
H11 C5 1_555 1_555
H12 C5 1_555 1_555
C6 C22 1_555 1_555
C7 O5 1_555 1_555
H13 C7 1_555 1_555
H14 C7 1_555 1_555
C8 H16 1_555 1_555
H17 C8 1_555 1_555
H18 C8 1_555 1_555
H19 C18 1_555 1_555
N2 C12 1_555 1_555
H20 C21 1_555 1_555
H21 C19 1_555 1_555
C9 C15 1_555 1_555
C10 N1 1_555 1_555
C11 N1 1_555 1_555
C12 C1 1_555 1_555
C13 C10 1_555 1_555
C14 C11 1_555 1_555
C15 N2 1_555 1_555
H22 C15 1_555 1_555
C16 C13 1_555 1_555
C17 C14 1_555 1_555
H23 C17 1_555 1_555
C18 C10 1_555 1_555
C19 C16 1_555 1_555
C20 C17 1_555 1_555
C21 C18 1_555 1_555
C22 N2 1_555 1_555
H24 C22 1_555 1_555
C23 O2 1_555 1_555
C3 C23 1_555 1_555
C4 C23 1_555 1_555
C5 C7 1_555 1_555
C8 C23 1_555 1_555
C13 C14 1_555 1_555
C14 C15 1_555 1_555
C17 C22 1_555 1_555
C19 C21 1_555 1_555

#END
