
#######################################################################
#
#                 Cambridge Crystallographic Data Centre
#                                CCDC 
#
#######################################################################
#
# If this CIF has been generated from an entry in the Cambridge 
# Structural Database, then it will include bibliographic, chemical, 
# crystal, experimental, refinement or atomic coordinate data resulting 
# from the CCDC's data processing and validation procedures.
#
#######################################################################

data_OFEZUW
_chemical_formula_moiety         'C34 H32 O5 P1 1+,Br1 1-'
_chemical_name_systematic        
'(5-Methoxy-3-(methoxycarbonyl)-5-oxo-3-(2-oxo-2-phenylethyl)pent-1-en-1-yl)(triphenyl)phosphonium bromide'
_symmetry_cell_setting           triclinic
_symmetry_space_group_name_H-M   'P -1'
_symmetry_Int_Tables_number      2
_space_group_name_Hall           '-P 1'
loop_
_symmetry_equiv_pos_site_id
_symmetry_equiv_pos_as_xyz
1 x,y,z
2 -x,-y,-z
_cell_length_a                   10.1818(9)
_cell_length_b                   10.1888(9)
_cell_length_c                   16.6826(14)
_cell_angle_alpha                83.565(2)
_cell_angle_beta                 88.407(2)
_cell_angle_gamma                64.827(2)
_cell_volume                     1556.05
_exptl_crystal_colour            colorless
_exptl_crystal_description       prismatic
_cell_formula_units_Z            2
loop_
_atom_site_label
_atom_site_type_symbol
_atom_site_fract_x
_atom_site_fract_y
_atom_site_fract_z
Br1 Br 0.39867(3) 0.81664(3) 0.336419(16)
P1 P -0.06696(6) 0.12962(7) 0.27057(4)
O1 O 0.2262(2) 0.3990(2) 0.17597(12)
O2 O 0.1992(3) -0.0194(2) -0.00588(13)
O3 O 0.2333(2) -0.1900(2) 0.09729(11)
O4 O 0.3826(2) 0.2172(2) 0.01654(12)
O5 O 0.14121(18) 0.30272(19) 0.01233(10)
C1 C 0.1009(2) 0.0937(3) 0.22346(14)
H1 H 0.1826 0.0167 0.2478
C2 C 0.1215(2) 0.1652(2) 0.15746(12)
H2 H 0.0418 0.2406 0.1305
C3 C 0.2720(2) 0.1280(3) 0.12386(13)
C4 C 0.3697(2) 0.1443(3) 0.18715(14)
H3 H 0.3843 0.0713 0.2328
H4 H 0.4638 0.1242 0.1639
C5 C 0.3112(3) 0.2921(3) 0.21732(14)
C6 C 0.3618(2) 0.3042(3) 0.29790(14)
C7 C 0.4031(3) 0.1909(3) 0.35981(16)
H5 H 0.4042 0.1020 0.3509
C8 C 0.4426(4) 0.2095(3) 0.43461(17)
H6 H 0.4689 0.1335 0.4761
C9 C 0.4435(4) 0.3395(4) 0.44824(18)
H7 H 0.4706 0.3513 0.4987
C10 C 0.4042(4) 0.4521(3) 0.38695(19)
H8 H 0.4062 0.5398 0.3958
C11 C 0.3619(3) 0.4353(3) 0.31261(17)
H9 H 0.3331 0.5127 0.2718
C12 C 0.3453(3) -0.0343(3) 0.10751(15)
H10 H 0.4348 -0.0521 0.0792
H11 H 0.3704 -0.0955 0.1587
C13 C 0.2518(3) -0.0780(3) 0.05885(16)
C14 C 0.1374(4) -0.2377(4) 0.0600(2)
H12 H 0.0386 -0.1688 0.0655
H13 H 0.1508 -0.3317 0.0860
H14 H 0.1589 -0.2444 0.0038
C15 C 0.2721(3) 0.2218(3) 0.04586(14)
C16 C 0.1396(4) 0.3840(4) -0.06469(16)
H15 H 0.1860 0.4471 -0.0589
H16 H 0.0410 0.4415 -0.0831
H17 H 0.1906 0.3175 -0.1032
C17 C -0.2171(2) 0.2727(3) 0.21430(14)
C18 C -0.2782(3) 0.4121(3) 0.23740(18)
H18 H -0.2414 0.4332 0.2822
C19 C -0.3945(4) 0.5196(3) 0.1933(2)
H19 H -0.4352 0.6141 0.2079
C20 C -0.4495(3) 0.4880(4) 0.1287(2)
H20 H -0.5275 0.5613 0.0993
C21 C -0.3917(3) 0.3491(4) 0.10632(18)
H21 H -0.4314 0.3281 0.0626
C22 C -0.2744(3) 0.2412(3) 0.14905(16)
H22 H -0.2340 0.1472 0.1339
C23 C -0.0958(3) -0.0324(3) 0.27891(15)
C24 C -0.2332(3) -0.0231(4) 0.2991(2)
H23 H -0.3077 0.0665 0.3078
C25 C -0.2585(4) -0.1452(4) 0.3061(2)
H24 H -0.3494 -0.1394 0.3209
C26 C -0.1494(4) -0.2763(4) 0.2911(2)
H25 H -0.1673 -0.3589 0.2951
C27 C -0.0149(4) -0.2872(4) 0.2704(2)
H26 H 0.0579 -0.3767 0.2599
C28 C 0.0134(3) -0.1654(3) 0.26515(16)
H27 H 0.1057 -0.1732 0.2524
C29 C -0.0559(3) 0.1846(3) 0.36738(15)
C30 C -0.1388(4) 0.1670(4) 0.43042(18)
H28 H -0.1982 0.1200 0.4246
C31 C -0.1333(5) 0.2192(5) 0.5024(2)
H29 H -0.1900 0.2075 0.5448
C32 C -0.0487(5) 0.2857(6) 0.5123(2)
H30 H -0.0463 0.3196 0.5614
C33 C 0.0349(6) 0.3045(7) 0.4507(3)
H31 H 0.0938 0.3517 0.4572
C34 C 0.0304(4) 0.2522(6) 0.3788(2)
H32 H 0.0881 0.2635 0.3368
loop_
_geom_bond_atom_site_label_1
_geom_bond_atom_site_label_2
_geom_bond_site_symmetry_1
_geom_bond_site_symmetry_2
P1 C1 1_555 1_555
O1 C5 1_555 1_555
O2 C13 1_555 1_555
O3 C13 1_555 1_555
O4 C15 1_555 1_555
O5 C15 1_555 1_555
C1 H1 1_555 1_555
C2 C1 1_555 1_555
H2 C2 1_555 1_555
C3 C2 1_555 1_555
C4 C3 1_555 1_555
H3 C4 1_555 1_555
H4 C4 1_555 1_555
C5 C4 1_555 1_555
C6 C5 1_555 1_555
C7 C6 1_555 1_555
H5 C7 1_555 1_555
C8 C7 1_555 1_555
H6 C8 1_555 1_555
C9 C8 1_555 1_555
H7 C9 1_555 1_555
C10 C9 1_555 1_555
H8 C10 1_555 1_555
C11 C6 1_555 1_555
H9 C11 1_555 1_555
C12 C3 1_555 1_555
H10 C12 1_555 1_555
H11 C12 1_555 1_555
C13 C12 1_555 1_555
C14 O3 1_555 1_555
H12 C14 1_555 1_555
H13 C14 1_555 1_555
H14 C14 1_555 1_555
C15 C3 1_555 1_555
C16 O5 1_555 1_555
H15 C16 1_555 1_555
H16 C16 1_555 1_555
H17 C16 1_555 1_555
C17 P1 1_555 1_555
C18 C17 1_555 1_555
H18 C18 1_555 1_555
C19 C18 1_555 1_555
H19 C19 1_555 1_555
C20 C19 1_555 1_555
H20 C20 1_555 1_555
C21 C20 1_555 1_555
H21 C21 1_555 1_555
C22 C17 1_555 1_555
H22 C22 1_555 1_555
C23 P1 1_555 1_555
C24 C23 1_555 1_555
H23 C24 1_555 1_555
C25 C24 1_555 1_555
H24 C25 1_555 1_555
C26 C25 1_555 1_555
H25 C26 1_555 1_555
C27 C26 1_555 1_555
H26 C27 1_555 1_555
C28 C23 1_555 1_555
H27 C28 1_555 1_555
C29 P1 1_555 1_555
C30 C29 1_555 1_555
H28 C30 1_555 1_555
C31 C30 1_555 1_555
H29 C31 1_555 1_555
C32 C31 1_555 1_555
H30 C32 1_555 1_555
C33 C32 1_555 1_555
H31 C33 1_555 1_555
C34 C29 1_555 1_555
H32 C34 1_555 1_555
C10 C11 1_555 1_555
C21 C22 1_555 1_555
C27 C28 1_555 1_555
C33 C34 1_555 1_555

#END
