
#######################################################################
#
#                 Cambridge Crystallographic Data Centre
#                                CCDC 
#
#######################################################################
#
# If this CIF has been generated from an entry in the Cambridge 
# Structural Database, then it will include bibliographic, chemical, 
# crystal, experimental, refinement or atomic coordinate data resulting 
# from the CCDC's data processing and validation procedures.
#
#######################################################################

data_OFICEO
_chemical_formula_moiety         'C68 H86 N4 O8 S4'
_chemical_name_systematic        
11,12,17,18,29,30,35,36-octabutoxy-39,40,43,44-tetrathia-37,38,41,42-tetra-azanonacyclo[32.2.1.1^2,5^.1^6,9^.1^10,13^.1^16,19^.1^20,23^.1^24,27^.1^28,31^]tetratetraconta-1(37),2,4,6,8,10,12,14,16(41),17,19,21,23,25,27,29,31,33,35-nonadecaene
_symmetry_cell_setting           triclinic
_symmetry_space_group_name_H-M   'P -1'
_symmetry_Int_Tables_number      2
_space_group_name_Hall           '-P 1'
loop_
_symmetry_equiv_pos_site_id
_symmetry_equiv_pos_as_xyz
1 x,y,z
2 -x,-y,-z
_cell_length_a                   11.6268(5)
_cell_length_b                   14.3201(5)
_cell_length_c                   20.7425(8)
_cell_angle_alpha                101.074(2)
_cell_angle_beta                 106.237(2)
_cell_angle_gamma                98.075(2)
_cell_volume                     3184.22
_exptl_crystal_colour            purple
_exptl_crystal_description       plate
_cell_formula_units_Z            2
loop_
_atom_site_label
_atom_site_type_symbol
_atom_site_fract_x
_atom_site_fract_y
_atom_site_fract_z
S1 S 0.63820(9) 0.07800(7) 0.42323(5)
S2 S 0.65336(9) 0.13022(8) 0.64072(5)
S3 S 0.39407(10) 0.34666(8) 0.33521(5)
S4 S 0.40681(9) 0.39107(7) 0.55146(5)
O1 O 0.8976(3) -0.0831(2) 0.21130(16)
O2 O 0.9368(3) -0.0932(2) 0.36678(15)
O3 O 0.6339(3) 0.1237(2) 0.78511(15)
O4 O 0.4922(3) 0.2090(2) 0.88310(15)
O5 O 0.1219(3) 0.5426(2) 0.75464(15)
O6 O 0.1357(3) 0.5793(2) 0.61053(16)
O7 O 0.3912(3) 0.3369(2) 0.18701(15)
O8 O 0.4966(3) 0.2217(2) 0.07944(15)
N1 N 0.7284(3) 0.0568(3) 0.29829(18)
N2 N 0.4271(3) 0.2701(2) 0.72044(17)
H1 H 0.3898 0.2987 0.6890
N3 N 0.3071(3) 0.4077(2) 0.67383(18)
N4 N 0.6033(3) 0.1928(2) 0.25027(18)
H2 H 0.6487 0.1699 0.2828
C1 C 0.8501(4) -0.0407(3) 0.2594(2)
C2 C 0.8631(4) -0.0451(3) 0.3261(2)
C3 C 0.7840(4) 0.0143(3) 0.3484(2)
C4 C 0.7610(4) 0.0274(3) 0.4131(2)
C5 C 0.8258(4) 0.0083(3) 0.4746(2)
H3 H 0.8949 -0.0213 0.4793
C6 C 0.7795(4) 0.0365(3) 0.5289(2)
H4 H 0.8151 0.0294 0.5744
C7 C 0.6763(4) 0.0762(3) 0.5099(2)
C8 C 0.6060(4) 0.1143(3) 0.5513(2)
C9 C 0.5277(4) 0.1791(3) 0.6479(2)
C10 C 0.4527(4) 0.1801(3) 0.5831(2)
H5 H 0.3786 0.2034 0.5761
C11 C 0.4962(4) 0.1439(3) 0.5293(2)
H6 H 0.4546 0.1398 0.4821
C12 C 0.5073(4) 0.2105(3) 0.7125(2)
C13 C 0.5495(4) 0.1817(3) 0.7746(2)
C14 C 0.4895(4) 0.2210(3) 0.8192(2)
C15 C 0.4139(4) 0.2784(3) 0.7852(2)
C16 C 0.3408(4) 0.3339(3) 0.8125(2)
H7 H 0.3374 0.3264 0.8565
C17 C 0.2726(4) 0.3979(3) 0.7864(2)
H8 H 0.2268 0.4232 0.8146
C18 C 0.2580(4) 0.4328(3) 0.7264(2)
C19 C 0.1842(4) 0.5046(3) 0.7118(2)
C20 C 0.1872(4) 0.5208(3) 0.6496(2)
C21 C 0.2646(4) 0.4595(3) 0.6270(2)
C22 C 0.2920(4) 0.4509(3) 0.5640(2)
C23 C 0.2356(4) 0.4800(3) 0.5046(2)
H9 H 0.1721 0.5157 0.5015
C24 C 0.2814(4) 0.4515(3) 0.4500(2)
H10 H 0.2512 0.4651 0.4060
C25 C 0.3755(4) 0.4015(3) 0.4665(2)
C26 C 0.4427(4) 0.3603(3) 0.4242(2)
C27 C 0.5491(4) 0.3256(3) 0.4449(2)
H11 H 0.5895 0.3262 0.4916
C28 C 0.5911(4) 0.2896(3) 0.3901(2)
H12 H 0.6642 0.2650 0.3962
C29 C 0.5160(4) 0.2933(3) 0.3264(2)
C30 C 0.5291(4) 0.2568(3) 0.2605(2)
C31 C 0.4729(4) 0.2765(3) 0.1960(2)
C32 C 0.5153(4) 0.2236(3) 0.1475(2)
C33 C 0.5961(4) 0.1695(3) 0.1813(2)
C34 C 0.6565(4) 0.1052(3) 0.1504(2)
H13 H 0.6428 0.1010 0.1025
C35 C 0.7332(4) 0.0462(3) 0.1776(2)
H14 H 0.7695 0.0147 0.1462
C36 C 0.7667(4) 0.0247(3) 0.2424(2)
C37 C 0.9853(5) -0.1418(4) 0.2340(3)
H15 H 0.9464 -0.1964 0.2488
H16 H 1.0552 -0.1020 0.2737
C38 C 1.0294(5) -0.1806(4) 0.1741(3)
H17 H 1.0532 -0.1262 0.1543
H18 H 1.1034 -0.2066 0.1918
C39 C 0.9363(6) -0.2588(4) 0.1178(3)
H19 H 0.8625 -0.2329 0.0994
H20 H 0.9121 -0.3135 0.1373
C40 C 0.9853(7) -0.2965(5) 0.0583(3)
H21 H 1.0123 -0.2422 0.0400
H22 H 0.9203 -0.3447 0.0215
H23 H 1.0546 -0.3268 0.0756
C41 C 0.8730(4) -0.1869(3) 0.3687(2)
H24 H 0.8320 -0.2272 0.3209
H25 H 0.8097 -0.1776 0.3914
C42 C 0.9640(4) -0.2378(3) 0.4084(2)
H26 H 0.9183 -0.2941 0.4183
H27 H 1.0129 -0.1925 0.4533
C43 C 1.0514(4) -0.2737(3) 0.3709(2)
H28 H 1.0034 -0.3167 0.3250
H29 H 1.1015 -0.2173 0.3635
C44 C 1.1359(5) -0.3292(4) 0.4122(3)
H30 H 1.1812 -0.2876 0.4584
H31 H 1.1939 -0.3476 0.3881
H32 H 1.0870 -0.3878 0.4164
C45 C 0.5805(4) 0.0264(3) 0.7865(2)
H33 H 0.5199 -0.0074 0.7409
H34 H 0.5382 0.0298 0.8219
C46 C 0.6825(4) -0.0282(3) 0.8035(2)
H35 H 0.6500 -0.0900 0.8129
H36 H 0.7468 0.0108 0.8463
C47 C 0.7403(5) -0.0508(4) 0.7464(3)
H37 H 0.7708 0.0106 0.7357
H38 H 0.6772 -0.0922 0.7040
C48 C 0.8457(6) -0.1026(4) 0.7669(3)
H39 H 0.9076 -0.0624 0.8094
H40 H 0.8824 -0.1134 0.7297
H41 H 0.8149 -0.1653 0.7749
C49 C 0.6135(4) 0.2196(4) 0.9317(2)
H42 H 0.6602 0.1783 0.9095
H43 H 0.6057 0.1968 0.9727
C50 C 0.6831(4) 0.3240(4) 0.9547(2)
H44 H 0.6922 0.3459 0.9136
H45 H 0.7662 0.3271 0.9858
C51 C 0.6216(5) 0.3935(4) 0.9922(3)
H46 H 0.5402 0.3932 0.9604
H47 H 0.6088 0.3700 1.0320
C52 C 0.6957(6) 0.4972(4) 1.0182(3)
H48 H 0.7754 0.4985 1.0509
H49 H 0.6515 0.5387 1.0414
H50 H 0.7077 0.5214 0.9789
C53 C 0.1978(4) 0.6232(3) 0.8108(2)
H51 H 0.2245 0.6783 0.7923
H52 H 0.2716 0.6035 0.8372
C54 C 0.1231(4) 0.6532(4) 0.8574(2)
H53 H 0.1757 0.7059 0.8975
H54 H 0.0977 0.5971 0.8754
C55 C 0.0094(5) 0.6881(4) 0.8223(3)
H55 H -0.0428 0.6366 0.7813
H56 H 0.0341 0.7462 0.8061
C56 C -0.0638(5) 0.7135(4) 0.8715(3)
H57 H -0.0824 0.6577 0.8905
H58 H -0.1403 0.7293 0.8462
H59 H -0.0156 0.7696 0.9093
C57 C 0.0740(4) 0.6460(3) 0.6422(2)
H60 H 0.1317 0.6882 0.6862
H61 H 0.0054 0.6094 0.6526
C58 C 0.0261(4) 0.7073(3) 0.5933(2)
H62 H -0.0273 0.6648 0.5482
H63 H 0.0953 0.7469 0.5852
C59 C -0.0464(4) 0.7737(3) 0.6246(2)
H64 H -0.1073 0.7340 0.6389
H65 H 0.0103 0.8210 0.6667
C60 C -0.1128(5) 0.8292(4) 0.5753(3)
H66 H -0.0527 0.8727 0.5638
H67 H -0.1610 0.8675 0.5974
H68 H -0.1673 0.7830 0.5329
C61 C 0.4495(4) 0.4355(3) 0.1912(3)
H69 H 0.4931 0.4348 0.1564
H70 H 0.5099 0.4640 0.2377
C62 C 0.3524(4) 0.4957(3) 0.1776(3)
H71 H 0.2872 0.4610 0.1339
H72 H 0.3894 0.5581 0.1708
C63 C 0.2937(5) 0.5176(4) 0.2343(3)
H73 H 0.3581 0.5515 0.2785
H74 H 0.2535 0.4557 0.2404
C64 C 0.1992(6) 0.5806(4) 0.2174(3)
H75 H 0.2393 0.6431 0.2132
H76 H 0.1623 0.5919 0.2546
H77 H 0.1353 0.5474 0.1736
C65 C 0.3761(5) 0.2293(4) 0.0392(3)
H78 H 0.3761 0.2289 -0.0086
H79 H 0.3597 0.2927 0.0592
C66 C 0.2750(5) 0.1510(5) 0.0360(3)
H80 H 0.1975 0.1585 0.0041
H81 H 0.2655 0.1575 0.0825
C67 C 0.2975(6) 0.0521(5) 0.0118(3)
H82 H 0.3607 0.0377 0.0496
H83 H 0.3297 0.0516 -0.0277
C68 C 0.1787(7) -0.0297(5) -0.0112(4)
H84 H 0.1498 -0.0327 0.0286
H85 H 0.1973 -0.0924 -0.0288
H86 H 0.1150 -0.0148 -0.0477
loop_
_geom_bond_atom_site_label_1
_geom_bond_atom_site_label_2
_geom_bond_site_symmetry_1
_geom_bond_site_symmetry_2
S1 C4 1_555 1_555
S2 C8 1_555 1_555
S3 C26 1_555 1_555
S4 C22 1_555 1_555
O1 C1 1_555 1_555
O2 C2 1_555 1_555
O3 C13 1_555 1_555
O4 C14 1_555 1_555
O5 C19 1_555 1_555
O6 C20 1_555 1_555
O7 C31 1_555 1_555
O8 C32 1_555 1_555
N1 C3 1_555 1_555
N2 H1 1_555 1_555
N3 C18 1_555 1_555
N4 H2 1_555 1_555
C1 C2 1_555 1_555
C2 C3 1_555 1_555
C3 C4 1_555 1_555
C4 C5 1_555 1_555
C5 H3 1_555 1_555
C6 C5 1_555 1_555
H4 C6 1_555 1_555
C7 S1 1_555 1_555
C8 C7 1_555 1_555
C9 S2 1_555 1_555
C10 C9 1_555 1_555
H5 C10 1_555 1_555
C11 C8 1_555 1_555
H6 C11 1_555 1_555
C12 N2 1_555 1_555
C13 C12 1_555 1_555
C14 C13 1_555 1_555
C15 N2 1_555 1_555
C16 C15 1_555 1_555
H7 C16 1_555 1_555
C17 C16 1_555 1_555
H8 C17 1_555 1_555
C18 C17 1_555 1_555
C19 C18 1_555 1_555
C20 C19 1_555 1_555
C21 N3 1_555 1_555
C22 C21 1_555 1_555
C23 C22 1_555 1_555
H9 C23 1_555 1_555
C24 C23 1_555 1_555
H10 C24 1_555 1_555
C25 S4 1_555 1_555
C26 C25 1_555 1_555
C27 C26 1_555 1_555
H11 C27 1_555 1_555
C28 C27 1_555 1_555
H12 C28 1_555 1_555
C29 S3 1_555 1_555
C30 N4 1_555 1_555
C31 C30 1_555 1_555
C32 C31 1_555 1_555
C33 N4 1_555 1_555
C34 C33 1_555 1_555
H13 C34 1_555 1_555
C35 C34 1_555 1_555
H14 C35 1_555 1_555
C36 N1 1_555 1_555
C37 O1 1_555 1_555
H15 C37 1_555 1_555
H16 C37 1_555 1_555
C38 C37 1_555 1_555
H17 C38 1_555 1_555
H18 C38 1_555 1_555
C39 C38 1_555 1_555
H19 C39 1_555 1_555
H20 C39 1_555 1_555
C40 C39 1_555 1_555
H21 C40 1_555 1_555
H22 C40 1_555 1_555
H23 C40 1_555 1_555
C41 O2 1_555 1_555
H24 C41 1_555 1_555
H25 C41 1_555 1_555
C42 C41 1_555 1_555
H26 C42 1_555 1_555
H27 C42 1_555 1_555
C43 C42 1_555 1_555
H28 C43 1_555 1_555
H29 C43 1_555 1_555
C44 C43 1_555 1_555
H30 C44 1_555 1_555
H31 C44 1_555 1_555
H32 C44 1_555 1_555
C45 O3 1_555 1_555
H33 C45 1_555 1_555
H34 C45 1_555 1_555
C46 C45 1_555 1_555
H35 C46 1_555 1_555
H36 C46 1_555 1_555
C47 C46 1_555 1_555
H37 C47 1_555 1_555
H38 C47 1_555 1_555
C48 C47 1_555 1_555
H39 C48 1_555 1_555
H40 C48 1_555 1_555
H41 C48 1_555 1_555
C49 O4 1_555 1_555
H42 C49 1_555 1_555
H43 C49 1_555 1_555
C50 C49 1_555 1_555
H44 C50 1_555 1_555
H45 C50 1_555 1_555
C51 C50 1_555 1_555
H46 C51 1_555 1_555
H47 C51 1_555 1_555
C52 C51 1_555 1_555
H48 C52 1_555 1_555
H49 C52 1_555 1_555
H50 C52 1_555 1_555
C53 O5 1_555 1_555
H51 C53 1_555 1_555
H52 C53 1_555 1_555
C54 C53 1_555 1_555
H53 C54 1_555 1_555
H54 C54 1_555 1_555
C55 C54 1_555 1_555
H55 C55 1_555 1_555
H56 C55 1_555 1_555
C56 C55 1_555 1_555
H57 C56 1_555 1_555
H58 C56 1_555 1_555
H59 C56 1_555 1_555
C57 O6 1_555 1_555
H60 C57 1_555 1_555
H61 C57 1_555 1_555
C58 C57 1_555 1_555
H62 C58 1_555 1_555
H63 C58 1_555 1_555
C59 C58 1_555 1_555
H64 C59 1_555 1_555
H65 C59 1_555 1_555
C60 C59 1_555 1_555
H66 C60 1_555 1_555
H67 C60 1_555 1_555
H68 C60 1_555 1_555
C61 O7 1_555 1_555
H69 C61 1_555 1_555
H70 C61 1_555 1_555
C62 C61 1_555 1_555
H71 C62 1_555 1_555
H72 C62 1_555 1_555
C63 C62 1_555 1_555
H73 C63 1_555 1_555
H74 C63 1_555 1_555
C64 C63 1_555 1_555
H75 C64 1_555 1_555
H76 C64 1_555 1_555
H77 C64 1_555 1_555
C65 O8 1_555 1_555
H78 C65 1_555 1_555
H79 C65 1_555 1_555
C66 C65 1_555 1_555
H80 C66 1_555 1_555
H81 C66 1_555 1_555
C67 C66 1_555 1_555
H82 C67 1_555 1_555
H83 C67 1_555 1_555
C68 C67 1_555 1_555
H84 C68 1_555 1_555
H85 C68 1_555 1_555
H86 C68 1_555 1_555
C1 C36 1_555 1_555
C6 C7 1_555 1_555
C9 C12 1_555 1_555
C10 C11 1_555 1_555
C14 C15 1_555 1_555
C20 C21 1_555 1_555
C24 C25 1_555 1_555
C28 C29 1_555 1_555
C29 C30 1_555 1_555
C32 C33 1_555 1_555
C35 C36 1_555 1_555

#END
