
#######################################################################
#
#                 Cambridge Crystallographic Data Centre
#                                CCDC 
#
#######################################################################
#
# If this CIF has been generated from an entry in the Cambridge 
# Structural Database, then it will include bibliographic, chemical, 
# crystal, experimental, refinement or atomic coordinate data resulting 
# from the CCDC's data processing and validation procedures.
#
#######################################################################

data_OFIDAK
_chemical_name_common            
'6,7,14-Trihydroxy-1-(4-phenyl-1H-1,2,3-triazol-1-yl)-7,20-epoxykaura-2,16-dien-15-one methanol solvate'
_chemical_formula_moiety         'C28 H31 N3 O5,C1 H4 O1'
_chemical_name_systematic        
'(1S,4aR,5S,6S,6aR,9S,11aS,11bR,14R)-5,6,14-trihydroxy-4,4-dimethyl-8-methylene-1-(4-phenyl-1H-1,2,3-triazol-1-yl)-4,4a,5,6,9,10,11,11a-octahydro-1H-6,11b-(epoxymethano)-6a,9-methanocyclohepta[a]naphthalen-7(8H)-one methanol solvate'
_symmetry_cell_setting           monoclinic
_symmetry_space_group_name_H-M   'P 21'
_symmetry_Int_Tables_number      4
_space_group_name_Hall           'P 2yb'
loop_
_symmetry_equiv_pos_site_id
_symmetry_equiv_pos_as_xyz
1 x,y,z
2 -x,1/2+y,-z
_cell_length_a                   6.2382(6)
_cell_length_b                   13.1872(11)
_cell_length_c                   15.8280(14)
_cell_angle_alpha                90
_cell_angle_beta                 92.814(7)
_cell_angle_gamma                90
_cell_volume                     1300.51
_exptl_crystal_colour            colorless
_exptl_crystal_description       hornblende-like
_cell_formula_units_Z            2
loop_
_atom_site_label
_atom_site_type_symbol
_atom_site_fract_x
_atom_site_fract_y
_atom_site_fract_z
O1 O -0.1660(2) 0.73070(13) 0.32971(10)
C1 C -0.0362(3) 0.78040(17) 0.39589(14)
O2 O -0.1732(3) 0.80598(14) 0.45892(11)
C2 C 0.0421(4) 0.87841(17) 0.35551(15)
O3 O 0.1672(3) 0.94223(13) 0.41034(11)
C3 C 0.1614(3) 0.85170(16) 0.27579(14)
C4 C 0.1799(3) 0.73439(16) 0.26586(13)
C5 C -0.0459(3) 0.68912(18) 0.26266(15)
C6 C 0.2984(3) 0.69375(17) 0.34911(14)
C7 C 0.1450(3) 0.70672(16) 0.42459(14)
C8 C 0.0643(3) 0.60217(18) 0.45485(15)
O4 O -0.0880(3) 0.62231(14) 0.51735(12)
C9 C 0.2713(4) 0.55588(18) 0.49473(16)
C10 C 0.3525(4) 0.6426(2) 0.54845(15)
C11 C 0.2787(4) 0.73727(19) 0.50488(15)
O5 O 0.3215(4) 0.82205(16) 0.52881(12)
C12 C 0.4629(6) 0.6436(3) 0.6212(2)
C13 C 0.4262(4) 0.5295(2) 0.42598(17)
C14 C 0.3744(4) 0.58333(18) 0.34195(15)
C15 C 0.3141(4) 0.71255(18) 0.18810(14)
N1 N 0.2835(3) 0.60942(16) 0.15159(12)
N2 N 0.0925(4) 0.58103(19) 0.11629(15)
N3 N 0.1122(4) 0.48794(19) 0.08924(16)
C16 C 0.3174(4) 0.4558(2) 0.10697(15)
C17 C 0.4269(4) 0.5340(2) 0.14570(16)
C18 C 0.3843(4) 0.3505(2) 0.08945(15)
C19 C 0.2495(5) 0.2837(2) 0.04585(16)
C20 C 0.3107(5) 0.1844(2) 0.03247(18)
C21 C 0.5069(6) 0.1506(2) 0.06314(19)
C22 C 0.6434(6) 0.2158(3) 0.1062(2)
C23 C 0.5845(5) 0.3158(2) 0.1187(2)
C24 C 0.2829(4) 0.7873(2) 0.11641(16)
C25 C 0.1788(4) 0.8745(2) 0.12008(16)
C26 C 0.0746(4) 0.91332(18) 0.19706(15)
C27 C 0.1413(6) 1.0246(2) 0.21099(19)
C28 C -0.1722(5) 0.9115(3) 0.1789(2)
H1 H -0.0899 0.9164 0.3397
H2 H 0.3057 0.8763 0.2870
H3 H -0.1181 0.7048 0.2086
H4 H -0.0363 0.6156 0.2701
H5 H 0.4263 0.7367 0.3638
H6 H 0.0070 0.5617 0.4074
H7 H 0.2394 0.4989 0.5282
H8 H 0.5085 0.7056 0.6454
H9 H 0.4905 0.5826 0.6489
H10 H 0.5705 0.5474 0.4454
H11 H 0.4204 0.4583 0.4150
H12 H 0.5015 0.5821 0.3098
H13 H 0.2582 0.5451 0.3114
H14 H 0.4651 0.7142 0.2078
H15 H 0.5746 0.5373 0.1643
H16 H 0.1106 0.3064 0.0286
H17 H 0.3391 0.7697 0.0649
H18 H 0.1700 0.9142 0.0706
H19 H 0.0995 1.0625 0.1613
H20 H 0.0780 1.0500 0.2598
H21 H 0.2957 1.0272 0.2183
H22 H -0.2068 0.9451 0.1262
H23 H -0.2438 0.9454 0.2227
H24 H -0.2279 0.8438 0.1741
H25 H 0.6799 0.3599 0.1443
H26 H 0.7817 0.1942 0.1247
H27 H 0.5509 0.0825 0.0500
H28 H 0.2188 0.1393 0.0039
H29 H -0.1995 0.7585 0.4911
H30 H -0.1136 0.5763 0.5499
H31 H 0.2067 0.9126 0.4539
O6 O 0.8606(14) 0.4056(5) 0.3094(4)
C29 C 1.0262(15) 0.3291(8) 0.2959(6)
loop_
_geom_bond_atom_site_label_1
_geom_bond_atom_site_label_2
_geom_bond_site_symmetry_1
_geom_bond_site_symmetry_2
O1 C1 1_555 1_555
C1 O2 1_555 1_555
O2 H29 1_555 1_555
C2 C1 1_555 1_555
O3 C2 1_555 1_555
C3 C2 1_555 1_555
C4 C3 1_555 1_555
C5 O1 1_555 1_555
C6 C4 1_555 1_555
C7 C1 1_555 1_555
C8 C7 1_555 1_555
O4 C8 1_555 1_555
C9 C8 1_555 1_555
C10 C9 1_555 1_555
C11 C7 1_555 1_555
O5 C11 1_555 1_555
C12 C10 1_555 1_555
C13 C9 1_555 1_555
C14 C6 1_555 1_555
C15 C4 1_555 1_555
N1 C15 1_555 1_555
N2 N1 1_555 1_555
N3 N2 1_555 1_555
C16 N3 1_555 1_555
C17 N1 1_555 1_555
C18 C16 1_555 1_555
C19 C18 1_555 1_555
C20 C19 1_555 1_555
C21 C20 1_555 1_555
C22 C21 1_555 1_555
C23 C18 1_555 1_555
C24 C15 1_555 1_555
C25 C24 1_555 1_555
C26 C3 1_555 1_555
C27 C26 1_555 1_555
C28 C26 1_555 1_555
H1 C2 1_555 1_555
H2 C3 1_555 1_555
H3 C5 1_555 1_555
H4 C5 1_555 1_555
H5 C6 1_555 1_555
H6 C8 1_555 1_555
H7 C9 1_555 1_555
H8 C12 1_555 1_555
H9 C12 1_555 1_555
H10 C13 1_555 1_555
H11 C13 1_555 1_555
H12 C14 1_555 1_555
H13 C14 1_555 1_555
H14 C15 1_555 1_555
H15 C17 1_555 1_555
H16 C19 1_555 1_555
H17 C24 1_555 1_555
H18 C25 1_555 1_555
H19 C27 1_555 1_555
H20 C27 1_555 1_555
H21 C27 1_555 1_555
H22 C28 1_555 1_555
H23 C28 1_555 1_555
H24 C28 1_555 1_555
H25 C23 1_555 1_555
H26 C22 1_555 1_555
H27 C21 1_555 1_555
H28 C20 1_555 1_555
H30 O4 1_555 1_555
H31 O3 1_555 1_555
O6 C29 1_555 1_555
C4 C5 1_555 1_555
C6 C7 1_555 1_555
C10 C11 1_555 1_555
C13 C14 1_555 1_555
C16 C17 1_555 1_555
C22 C23 1_555 1_555
C25 C26 1_555 1_555

#END
