
#######################################################################
#
#                 Cambridge Crystallographic Data Centre
#                                CCDC 
#
#######################################################################
#
# If this CIF has been generated from an entry in the Cambridge 
# Structural Database, then it will include bibliographic, chemical, 
# crystal, experimental, refinement or atomic coordinate data resulting 
# from the CCDC's data processing and validation procedures.
#
#######################################################################

data_OFIFOB
_chemical_formula_moiety         'C18 H21 N3 O5'
_chemical_name_systematic        
"4'-t-butyl 5'-ethyl 2-oxo-1,2,2',4'-tetrahydrospiro[indole-3,3'-pyrazole]-4',5'-dicarboxylate"
_symmetry_cell_setting           trigonal
_symmetry_space_group_name_H-M   'P 32'
_symmetry_Int_Tables_number      145
_space_group_name_Hall           'P 32'
loop_
_symmetry_equiv_pos_site_id
_symmetry_equiv_pos_as_xyz
1 x,y,z
2 -y,x-y,2/3+z
3 -x+y,-x,1/3+z
_cell_length_a                   15.6536(11)
_cell_length_b                   15.6536(11)
_cell_length_c                   6.7751(5)
_cell_angle_alpha                90
_cell_angle_beta                 90
_cell_angle_gamma                120
_cell_volume                     1437.72
_exptl_crystal_colour            colorless
_exptl_crystal_description       needle
_cell_formula_units_Z            3
loop_
_atom_site_label
_atom_site_type_symbol
_atom_site_fract_x
_atom_site_fract_y
_atom_site_fract_z
O1 O 0.5732(2) 0.3144(2) 0.9051(5)
O2 O 0.2770(2) 0.2817(3) 0.5016(5)
N1 N 0.4732(2) 0.1624(3) 0.7673(5)
H1 H 0.4744 0.1258 0.8605
N2 N 0.5478(3) 0.4415(3) 0.4134(5)
C1 C 0.5187(3) 0.2614(3) 0.7756(6)
O3 O 0.3745(4) 0.5055(4) 0.5610(7)
O4 O 0.2831(3) 0.2415(5) 0.8163(6)
N3 N 0.5710(3) 0.3763(3) 0.4890(5)
H2 H 0.6277 0.3806 0.4775
O5 O 0.4671(4) 0.5478(3) 0.2890(7)
C2 C 0.4234(3) 0.1265(3) 0.5875(6)
C3 C 0.4700(3) 0.4320(3) 0.4971(6)
C4 C 0.4295(3) 0.2039(3) 0.4763(6)
C5 C 0.3214(4) 0.2859(4) 0.6702(7)
C6 C 0.4871(3) 0.2972(3) 0.5933(6)
C7 C 0.4319(3) 0.3530(3) 0.6534(6)
H3 H 0.4571 0.3845 0.7817
C8 C 0.3894(3) 0.1863(4) 0.2894(6)
H4 H 0.3946 0.2379 0.2128
C9 C 0.4316(4) 0.4985(4) 0.4547(8)
C10 C 0.1700(4) 0.2204(5) 0.4743(10)
C11 C 0.3347(4) 0.0151(4) 0.3317(8)
H5 H 0.3013 -0.0489 0.2821
C12 C 0.3762(4) 0.0313(4) 0.5188(8)
H6 H 0.3723 -0.0202 0.5943
C13 C 0.3414(3) 0.0911(5) 0.2175(7)
H7 H 0.3137 0.0782 0.0919
C14 C 0.4274(7) 0.6089(6) 0.2246(14)
H8 H 0.4769 0.6643 0.1493
H9 H 0.4100 0.6345 0.3386
C15 C 0.1384(5) 0.1146(6) 0.5100(17)
H10 H 0.1740 0.0949 0.4235
H11 H 0.0689 0.0747 0.4847
H12 H 0.1517 0.1061 0.6446
C16 C 0.1576(5) 0.2373(8) 0.2606(13)
H13 H 0.1891 0.3069 0.2354
H14 H 0.0887 0.2071 0.2301
H15 H 0.1872 0.2087 0.1797
C17 C 0.1198(6) 0.2585(9) 0.6085(16)
H16 H 0.1259 0.2429 0.7430
H17 H 0.0512 0.2282 0.5742
H18 H 0.1502 0.3288 0.5940
C18 C 0.3384(9) 0.5501(9) 0.1001(14)
H19 H 0.3571 0.5311 -0.0198
H20 H 0.3086 0.5892 0.0691
H21 H 0.2920 0.4921 0.1708
loop_
_geom_bond_atom_site_label_1
_geom_bond_atom_site_label_2
_geom_bond_site_symmetry_1
_geom_bond_site_symmetry_2
O1 C1 1_555 1_555
O2 C5 1_555 1_555
N1 H1 1_555 1_555
N2 N3 1_555 1_555
C1 N1 1_555 1_555
O3 C9 1_555 1_555
O4 C5 1_555 1_555
N3 H2 1_555 1_555
O5 C9 1_555 1_555
C2 N1 1_555 1_555
C3 N2 1_555 1_555
C4 C2 1_555 1_555
C5 C7 1_555 1_555
C6 C1 1_555 1_555
C7 C3 1_555 1_555
H3 C7 1_555 1_555
C8 C4 1_555 1_555
H4 C8 1_555 1_555
C9 C3 1_555 1_555
C10 O2 1_555 1_555
C11 H5 1_555 1_555
C12 C2 1_555 1_555
H6 C12 1_555 1_555
C13 C8 1_555 1_555
H7 C13 1_555 1_555
C14 O5 1_555 1_555
H8 C14 1_555 1_555
H9 C14 1_555 1_555
C15 C10 1_555 1_555
H10 C15 1_555 1_555
H11 C15 1_555 1_555
H12 C15 1_555 1_555
C16 C10 1_555 1_555
H13 C16 1_555 1_555
H14 C16 1_555 1_555
H15 C16 1_555 1_555
C17 C10 1_555 1_555
H16 C17 1_555 1_555
H17 C17 1_555 1_555
H18 C17 1_555 1_555
C18 C14 1_555 1_555
H19 C18 1_555 1_555
H20 C18 1_555 1_555
H21 C18 1_555 1_555
N3 C6 1_555 1_555
C4 C6 1_555 1_555
C6 C7 1_555 1_555
C11 C12 1_555 1_555
C11 C13 1_555 1_555

#END
