
#######################################################################
#
#                 Cambridge Crystallographic Data Centre
#                                CCDC 
#
#######################################################################
#
# If this CIF has been generated from an entry in the Cambridge 
# Structural Database, then it will include bibliographic, chemical, 
# crystal, experimental, refinement or atomic coordinate data resulting 
# from the CCDC's data processing and validation procedures.
#
#######################################################################

data_OFIGIT01
_chemical_formula_moiety         'C31 H56 O6 Si1'
_chemical_name_systematic        
7,10-Dihydroxy-6,6,9,16-tetramethyl-11-methylene-15-(tri-isopropylsiloxy)-5-vinyl-4,17-dioxabicyclo(11.3.1)heptadecan-3-one
_symmetry_cell_setting           monoclinic
_symmetry_space_group_name_H-M   'I 2'
_symmetry_Int_Tables_number      5
_space_group_name_Hall           'I 2y'
loop_
_symmetry_equiv_pos_site_id
_symmetry_equiv_pos_as_xyz
1 x,y,z
2 -x,y,-z
3 1/2+x,1/2+y,1/2+z
4 1/2-x,1/2+y,1/2-z
_cell_length_a                   22.109(1)
_cell_length_b                   8.375(1)
_cell_length_c                   19.320(1)
_cell_angle_alpha                90
_cell_angle_beta                 103.04(1)
_cell_angle_gamma                90
_cell_volume                     3485.1
_exptl_crystal_colour            colorless
_exptl_crystal_description       prism
_cell_formula_units_Z            4
loop_
_atom_site_label
_atom_site_type_symbol
_atom_site_fract_x
_atom_site_fract_y
_atom_site_fract_z
C1 C -0.06241(18) 0.2233(5) 0.8477(2)
H1 H -0.0287 0.2549 0.8875
C2 C -0.0352(2) 0.1656(6) 0.7872(2)
H2 H -0.0105 0.2502 0.7731
H3 H -0.0685 0.1402 0.7467
C3 C 0.0116(2) -0.2535(6) 0.8645(2)
H4 H 0.0279 -0.2953 0.8262
H5 H -0.0122 -0.3345 0.8813
H6 H 0.0453 -0.2207 0.9025
C4 C 0.00516(18) 0.0191(6) 0.8079(2)
H7 H 0.0423 0.0493 0.8437
C5 C -0.02984(18) -0.1104(5) 0.83833(19)
H8 H -0.0640 -0.1473 0.8001
C6 C -0.05800(17) -0.0382(5) 0.89659(18)
H9 H -0.0245 -0.0029 0.9360
C7 C -0.09966(19) -0.1528(5) 0.9243(2)
H10 H -0.1290 -0.1995 0.8844
H11 H -0.0747 -0.2386 0.9497
C8 C -0.13434(18) -0.0738(5) 0.9723(2)
C9 C -0.1346(2) 0.4244(5) 0.88770(19)
C10 C -0.19875(19) 0.4935(5) 0.86668(19)
H12 H -0.2075 0.5446 0.9090
C11 C -0.2497(2) 0.3657(6) 0.8418(2)
H13 H -0.2401 0.3098 0.8010
C12 C -0.2477(2) 0.2439(6) 0.9004(2)
H14 H -0.2589 0.2968 0.9404
H15 H -0.2053 0.2061 0.9162
C13 C -0.2899(2) 0.1006(6) 0.8798(2)
H16 H -0.3310 0.1434 0.8575
C14 C -0.29915(19) -0.0046(6) 0.9424(2)
C15 C -0.23636(19) -0.0416(6) 0.9947(2)
H17 H -0.2183 0.0586 1.0161
C16 C -0.2416(3) -0.1556(8) 1.0528(2)
H18 H -0.2666 -0.1230 1.0830
C17 C -0.2160(3) -0.2915(8) 1.0658(3)
H19 H -0.1904 -0.3303 1.0374
H20 H -0.2227 -0.3521 1.1037
C18 C 0.1508(3) 0.0522(12) 0.7825(4)
H21 H 0.1510 -0.0226 0.8216
C19 C 0.1508(4) 0.2171(13) 0.8135(5)
H22 H 0.1133 0.2327 0.8298
H23 H 0.1531 0.2950 0.7777
H24 H 0.1860 0.2287 0.8526
C20 C 0.0943(5) -0.1891(13) 0.6639(5)
H25 H 0.1280 -0.1664 0.6399
C21 C 0.0590(3) 0.1717(11) 0.6492(4)
H26 H 0.0596 0.2650 0.6799
C22 C 0.2133(3) 0.0248(16) 0.7589(6)
H27 H 0.2132 -0.0797 0.7385
H28 H 0.2474 0.0336 0.7994
H29 H 0.2175 0.1038 0.7243
C23 C 0.1181(5) -0.3245(12) 0.7184(6)
H30 H 0.1546 -0.2889 0.7518
H31 H 0.1279 -0.4171 0.6938
H32 H 0.0864 -0.3509 0.7433
C24 C 0.0385(6) -0.2409(19) 0.6061(6)
H33 H 0.0263 -0.1551 0.5729
H34 H 0.0045 -0.2676 0.6273
H35 H 0.0495 -0.3325 0.5817
C25 C 0.1065(4) 0.2085(14) 0.6043(5)
H36 H 0.1474 0.2133 0.6346
H37 H 0.0967 0.3093 0.5808
H38 H 0.1052 0.1260 0.5695
C26 C -0.0050(4) 0.1677(14) 0.6026(4)
H39 H -0.0345 0.1453 0.6309
H40 H -0.0072 0.0859 0.5673
H41 H -0.0143 0.2693 0.5796
C27 C -0.3137(2) 0.4424(7) 0.8172(3)
H42 H -0.3129 0.5161 0.7793
H43 H -0.3243 0.4984 0.8562
H44 H -0.3440 0.3609 0.8006
C28 C -0.3319(3) -0.1590(8) 0.9129(3)
H45 H -0.3377 -0.2250 0.9515
H46 H -0.3069 -0.2150 0.8861
H47 H -0.3715 -0.1341 0.8827
C29 C -0.3400(3) 0.0887(9) 0.9833(3)
H48 H -0.3193 0.1855 1.0019
H49 H -0.3473 0.0245 1.0218
H50 H -0.3790 0.1142 0.9518
O1 O -0.09712(12) 0.0955(4) 0.87005(12)
O2 O 0.02382(13) -0.0449(5) 0.74663(15)
C30 C -0.1071(2) 0.3612(5) 0.8281(2)
H51 H -0.1408 0.3276 0.7895
H52 H -0.0856 0.4480 0.8106
C31 C -0.1051(2) 0.4200(6) 0.9555(2)
H53 H -0.1242 0.4598 0.9902
H54 H -0.0653 0.3772 0.9685
O3 O -0.20131(15) 0.6164(4) 0.81384(14)
H55 H -0.2102 0.5764 0.7741
O4 O -0.27018(14) 0.0102(4) 0.82601(13)
H56 H -0.2347 -0.0221 0.8415
O5 O -0.19595(12) -0.1085(4) 0.95275(12)
O6 O -0.11244(13) 0.0093(4) 1.02296(14)
Si1 Si 0.08084(7) 0.0000 0.71060(8)
loop_
_geom_bond_atom_site_label_1
_geom_bond_atom_site_label_2
_geom_bond_site_symmetry_1
_geom_bond_site_symmetry_2
C1 H1 1_555 1_555
C2 C1 1_555 1_555
H2 C2 1_555 1_555
H3 C2 1_555 1_555
C3 H4 1_555 1_555
H5 C3 1_555 1_555
H6 C3 1_555 1_555
C4 C2 1_555 1_555
H7 C4 1_555 1_555
C5 C3 1_555 1_555
H8 C5 1_555 1_555
C6 C5 1_555 1_555
H9 C6 1_555 1_555
C7 C6 1_555 1_555
H10 C7 1_555 1_555
H11 C7 1_555 1_555
C8 C7 1_555 1_555
C9 C10 1_555 1_555
C10 H12 1_555 1_555
C11 C10 1_555 1_555
H13 C11 1_555 1_555
C12 C11 1_555 1_555
H14 C12 1_555 1_555
H15 C12 1_555 1_555
C13 C12 1_555 1_555
H16 C13 1_555 1_555
C14 C13 1_555 1_555
C15 C14 1_555 1_555
H17 C15 1_555 1_555
C16 C15 1_555 1_555
H18 C16 1_555 1_555
C17 C16 1_555 1_555
H19 C17 1_555 1_555
H20 C17 1_555 1_555
C18 H21 1_555 1_555
C19 C18 1_555 1_555
H22 C19 1_555 1_555
H23 C19 1_555 1_555
H24 C19 1_555 1_555
C20 H25 1_555 1_555
C21 H26 1_555 1_555
C22 C18 1_555 1_555
H27 C22 1_555 1_555
H28 C22 1_555 1_555
H29 C22 1_555 1_555
C23 C20 1_555 1_555
H30 C23 1_555 1_555
H31 C23 1_555 1_555
H32 C23 1_555 1_555
C24 C20 1_555 1_555
H33 C24 1_555 1_555
H34 C24 1_555 1_555
H35 C24 1_555 1_555
C25 C21 1_555 1_555
H36 C25 1_555 1_555
H37 C25 1_555 1_555
H38 C25 1_555 1_555
C26 C21 1_555 1_555
H39 C26 1_555 1_555
H40 C26 1_555 1_555
H41 C26 1_555 1_555
C27 C11 1_555 1_555
H42 C27 1_555 1_555
H43 C27 1_555 1_555
H44 C27 1_555 1_555
C28 C14 1_555 1_555
H45 C28 1_555 1_555
H46 C28 1_555 1_555
H47 C28 1_555 1_555
C29 C14 1_555 1_555
H48 C29 1_555 1_555
H49 C29 1_555 1_555
H50 C29 1_555 1_555
O1 C1 1_555 1_555
O2 C4 1_555 1_555
C30 C1 1_555 1_555
H51 C30 1_555 1_555
H52 C30 1_555 1_555
C31 C9 1_555 1_555
H53 C31 1_555 1_555
H54 C31 1_555 1_555
O3 C10 1_555 1_555
H55 O3 1_555 1_555
O4 C13 1_555 1_555
H56 O4 1_555 1_555
O5 C8 1_555 1_555
O6 C8 1_555 1_555
Si1 C18 1_555 1_555
C4 C5 1_555 1_555
C6 O1 1_555 1_555
C9 C30 1_555 1_555
C15 O5 1_555 1_555
C20 Si1 1_555 1_555
C21 Si1 1_555 1_555
O2 Si1 1_555 1_555

#END
