
#######################################################################
#
#                 Cambridge Crystallographic Data Centre
#                                CCDC 
#
#######################################################################
#
# If this CIF has been generated from an entry in the Cambridge 
# Structural Database, then it will include bibliographic, chemical, 
# crystal, experimental, refinement or atomic coordinate data resulting 
# from the CCDC's data processing and validation procedures.
#
#######################################################################

data_OFIHEQ
_chemical_formula_moiety         'C22 H25 N1 O1'
_chemical_name_systematic        
1-((S)-Isopropyl-(((1'S)-1'-phenylethyl)amino)methyl)-2-naphthol
_symmetry_cell_setting           orthorhombic
_symmetry_space_group_name_H-M   'P 21 21 21'
_symmetry_Int_Tables_number      19
_space_group_name_Hall           'P 2ac 2ab'
loop_
_symmetry_equiv_pos_site_id
_symmetry_equiv_pos_as_xyz
1 x,y,z
2 1/2-x,-y,1/2+z
3 1/2+x,1/2-y,-z
4 -x,1/2+y,1/2-z
_cell_length_a                   9.7303(14)
_cell_length_b                   10.5655(15)
_cell_length_c                   35.924(5)
_cell_angle_alpha                90
_cell_angle_beta                 90
_cell_angle_gamma                90
_cell_volume                     3693.18
_chemical_melting_point          '134-135 deg.C'
_cell_formula_units_Z            8
loop_
_atom_site_label
_atom_site_type_symbol
_atom_site_fract_x
_atom_site_fract_y
_atom_site_fract_z
O1 O -0.2257(1) -0.8887(1) -0.2186(1)
N1 N -0.4427(1) -0.9128(1) -0.1767(1)
C1 C -0.4795(2) -1.0948(2) -0.0962(1)
C2 C -0.5754(2) -1.1653(2) -0.0767(1)
C3 C -0.7075(2) -1.1253(2) -0.0743(1)
C4 C -0.7455(2) -1.0148(2) -0.0909(1)
C5 C -0.6499(2) -0.9445(2) -0.1104(1)
C6 C -0.5152(2) -0.9825(1) -0.1136(1)
C7 C -0.4136(2) -0.9082(1) -0.1364(1)
C8 C -0.4046(2) -0.7674(2) -0.1246(1)
C9 C -0.4500(1) -1.0411(1) -0.1930(1)
C10 C -0.5338(2) -1.0348(1) -0.2294(1)
C11 C -0.6800(2) -0.9902(2) -0.2222(1)
C12 C -0.5361(2) -1.1602(2) -0.2501(1)
C13 C -0.3055(1) -1.0927(1) -0.1983(1)
C14 C -0.2032(2) -1.0146(1) -0.2116(1)
C15 C -0.0706(2) -1.0599(2) -0.2192(1)
C16 C -0.0393(2) -1.1826(2) -0.2131(1)
C17 C -0.1374(2) -1.2675(1) -0.1985(1)
C18 C -0.1045(2) -1.3965(2) -0.1917(1)
C19 C -0.1988(2) -1.4782(2) -0.1777(1)
C20 C -0.3310(2) -1.4352(2) -0.1703(1)
C21 C -0.3666(2) -1.3112(1) -0.1765(1)
C22 C -0.2716(1) -1.2223(1) -0.1910(1)
H1 H -0.5300(15) -0.8777(12) -0.1827(4)
H2 H -0.3851(17) -1.1296(15) -0.0965(5)
H3 H -0.5290(20) -1.2326(17) -0.0613(5)
H4 H -0.7653(19) -1.1709(16) -0.0577(5)
H5 H -0.8490(20) -0.9900(20) -0.0881(7)
H6 H -0.6773 -0.8695 -0.1217
H7 H -0.3310(14) -0.9539(13) -0.1340(4)
H8 H -0.5051(12) -1.0939(11) -0.1754(3)
H9 H -0.4922(13) -0.9695(11) -0.2457(3)
H10 H -0.7381 -1.0539 -0.2074
H11 H -0.6754 -0.9124 -0.2084
H12 H -0.7255 -0.9727 -0.2453
H13 H -0.5782 -1.1555 -0.2745
H14 H -0.4439 -1.1912 -0.2527
H15 H -0.5862 -1.2196 -0.2351
H16 H -0.0040 -1.0051 -0.2284
H17 H 0.0497(14) -1.2190(12) -0.2186(4)
H18 H -0.0164 -1.4256 -0.1969
H19 H -0.1752 -1.5620 -0.1731
H20 H -0.4016(16) -1.4994(14) -0.1572(4)
H21 H -0.4653(14) -1.2826(12) -0.1689(4)
O2 O -1.1016(1) -1.8058(1) -0.0765(1)
N2 N -1.1069(1) -1.5865(1) -0.0427(1)
C23 C -1.1482(2) -1.3055(2) -0.0257(1)
C24 C -1.1107(3) -1.1796(2) -0.0230(1)
C25 C -1.0862(2) -1.1102(2) -0.0537(1)
C26 C -1.0953(2) -1.1668(2) -0.0870(1)
C27 C -1.1319(2) -1.2937(2) -0.0906(1)
C28 C -1.1592(1) -1.3636(1) -0.0597(1)
C29 C -1.2010(2) -1.5017(1) -0.0621(1)
C30 C -1.3458(2) -1.5227(2) -0.0472(1)
C31 C -0.9617(2) -1.5812(1) -0.0551(1)
C32 C -0.8697(2) -1.6509(2) -0.0266(1)
C33 C -0.8853(2) -1.5925(2) 0.0123(1)
C34 C -0.7199(2) -1.6475(2) -0.0387(1)
C35 C -0.9519(1) -1.6371(1) -0.0940(1)
C36 C -1.0196(2) -1.7484(1) -0.1023(1)
C37 C -0.8594(2) -1.6401(2) -0.1580(1)
C38 C -0.9305(2) -1.7544(2) -0.1641(1)
C39 C -1.0089(2) -1.8060(1) -0.1371(1)
C40 C -0.7806(2) -1.5823(2) -0.1861(1)
C41 C -0.7166(2) -1.4701(2) -0.1807(1)
C42 C -0.7291(2) -1.4085(2) -0.1467(1)
C43 C -0.8035(2) -1.4605(2) -0.1182(1)
C44 C -0.8721(1) -1.5791(1) -0.1226(1)
H22 H -1.1339 -1.6363 -0.0252
H23 H -1.1700(20) -1.3660(19) -0.0017(5)
H24 H -1.1024 -1.1424 0.0004
H25 H -1.0550(20) -1.0251(18) -0.0493(5)
H26 H -1.0766 -1.1199 -0.1083
H27 H -1.1377 -1.3305 -0.1141
H28 H -1.1994(14) -1.5303(13) -0.0859(4)
H29 H -1.3501 -1.4833 -0.0204
H30 H -1.4136 -1.4836 -0.0629
H31 H -1.3650 -1.6117 -0.0460
H32 H -0.9285(14) -1.4794(12) -0.0534(4)
H33 H -0.9034(17) -1.7491(15) -0.0261(5)
H34 H -0.9801 -1.5956 0.0197
H35 H -0.8550 -1.5061 0.0118
H36 H -0.8307 -1.6394 0.0298
H37 H -0.6488 -1.6679 -0.0212
H38 H -0.7099 -1.7038 -0.0595
H39 H -0.7021 -1.5636 -0.0477
H40 H -0.9205(17) -1.7976(15) -0.1885(5)
H41 H -1.0564 -1.8808 -0.1417
H42 H -0.7690(15) -1.6209(14) -0.2081(4)
H43 H -0.6644 -1.4344 -0.1997
H44 H -0.6863 -1.3307 -0.1433
H45 H -0.8124(14) -1.4159(13) -0.0930(4)
loop_
_geom_bond_atom_site_label_1
_geom_bond_atom_site_label_2
_geom_bond_site_symmetry_1
_geom_bond_site_symmetry_2
O1 C14 1_555 1_555
N1 C7 1_555 1_555
C1 C2 1_555 1_555
C2 C3 1_555 1_555
C3 C4 1_555 1_555
C4 C5 1_555 1_555
C5 C6 1_555 1_555
C6 C1 1_555 1_555
C7 C6 1_555 1_555
C8 C7 1_555 1_555
C9 N1 1_555 1_555
C10 C9 1_555 1_555
C11 C10 1_555 1_555
C12 C10 1_555 1_555
C13 C9 1_555 1_555
C14 C13 1_555 1_555
C15 C14 1_555 1_555
C16 C15 1_555 1_555
C17 C16 1_555 1_555
C18 C17 1_555 1_555
C19 C18 1_555 1_555
C20 C19 1_555 1_555
C21 C20 1_555 1_555
C22 C13 1_555 1_555
O2 C36 1_555 1_555
N2 C29 1_555 1_555
C23 C24 1_555 1_555
C24 C25 1_555 1_555
C25 C26 1_555 1_555
C26 C27 1_555 1_555
C27 C28 1_555 1_555
C28 C23 1_555 1_555
C29 C28 1_555 1_555
C30 C29 1_555 1_555
C31 N2 1_555 1_555
C32 C31 1_555 1_555
C33 C32 1_555 1_555
C34 C32 1_555 1_555
C35 C31 1_555 1_555
C36 C35 1_555 1_555
C37 C38 1_555 1_555
C38 C39 1_555 1_555
C39 C36 1_555 1_555
C40 C37 1_555 1_555
C41 C40 1_555 1_555
C42 C41 1_555 1_555
C43 C42 1_555 1_555
C44 C35 1_555 1_555
H1 N1 1_555 1_555
H2 C1 1_555 1_555
H3 C2 1_555 1_555
H4 C3 1_555 1_555
H5 C4 1_555 1_555
H6 C5 1_555 1_555
H7 C7 1_555 1_555
H8 C9 1_555 1_555
H9 C10 1_555 1_555
H10 C11 1_555 1_555
H11 C11 1_555 1_555
H12 C11 1_555 1_555
H13 C12 1_555 1_555
H14 C12 1_555 1_555
H15 C12 1_555 1_555
H16 C15 1_555 1_555
H17 C16 1_555 1_555
H18 C18 1_555 1_555
H19 C19 1_555 1_555
H20 C20 1_555 1_555
H21 C21 1_555 1_555
H22 N2 1_555 1_555
H23 C23 1_555 1_555
H24 C24 1_555 1_555
H25 C25 1_555 1_555
H26 C26 1_555 1_555
H27 C27 1_555 1_555
H28 C29 1_555 1_555
H29 C30 1_555 1_555
H30 C30 1_555 1_555
H31 C30 1_555 1_555
H32 C31 1_555 1_555
H33 C32 1_555 1_555
H34 C33 1_555 1_555
H35 C33 1_555 1_555
H36 C33 1_555 1_555
H37 C34 1_555 1_555
H38 C34 1_555 1_555
H39 C34 1_555 1_555
H40 C38 1_555 1_555
H41 C39 1_555 1_555
H42 C40 1_555 1_555
H43 C41 1_555 1_555
H44 C42 1_555 1_555
H45 C43 1_555 1_555
C17 C22 1_555 1_555
C21 C22 1_555 1_555
C37 C44 1_555 1_555
C43 C44 1_555 1_555

#END
