
#######################################################################
#
#                 Cambridge Crystallographic Data Centre
#                                CCDC 
#
#######################################################################
#
# If this CIF has been generated from an entry in the Cambridge 
# Structural Database, then it will include bibliographic, chemical, 
# crystal, experimental, refinement or atomic coordinate data resulting 
# from the CCDC's data processing and validation procedures.
#
#######################################################################

data_OFIMAS
_chemical_formula_moiety         'C32 H25 N7 O10'
_chemical_name_systematic        
"Ethyl 6-(6'-(6''-(6'''-(ethoxycarbonyl)pyrid-2'''-ylcarbonylcarbamoyl)pyrid-2''-ylcarbonylcarbamoyl)pyrid-2'-ylcarbonylcarbamoyl)pyridine-2-carboxylate"
_symmetry_cell_setting           triclinic
_symmetry_space_group_name_H-M   'P -1'
_symmetry_Int_Tables_number      2
_space_group_name_Hall           '-P 1'
loop_
_symmetry_equiv_pos_site_id
_symmetry_equiv_pos_as_xyz
1 x,y,z
2 -x,-y,-z
_cell_length_a                   11.556(2)
_cell_length_b                   12.222(2)
_cell_length_c                   12.249(2)
_cell_angle_alpha                67.75(3)
_cell_angle_beta                 82.17(3)
_cell_angle_gamma                88.75(3)
_cell_volume                     1585.44
_exptl_crystal_colour            colorless
_exptl_crystal_description       plate
_cell_formula_units_Z            2
_exptl_crystal_recrystallization_method 'DMF/diethyl ether'
loop_
_atom_site_label
_atom_site_type_symbol
_atom_site_fract_x
_atom_site_fract_y
_atom_site_fract_z
O1 O 0.9803(4) 0.2343(4) 0.4337(4)
O2 O 1.0121(5) 0.3460(7) 0.5308(7)
O3 O 0.4469(3) 0.2131(4) 0.4677(4)
O4 O 0.4682(3) 0.0444(3) 0.3540(4)
O5 O 1.0463(3) 0.1187(3) 0.0745(4)
O6 O 1.1222(3) 0.3393(3) 0.0775(4)
O7 O 0.6256(3) 0.5896(3) 0.2688(3)
O8 O 0.4311(3) 0.4804(3) 0.2176(4)
O9 O 0.7818(3) 0.2583(4) -0.0549(4)
O10 O 0.6696(3) 0.1466(3) -0.1067(4)
N1 N 0.7468(4) 0.2643(3) 0.4679(4)
N2 N 0.6126(3) 0.1520(3) 0.3838(4)
H1 H 0.6871 0.1642 0.3696
N3 N 0.7642(3) 0.0961(3) 0.2342(3)
N4 N 0.9426(3) 0.2457(3) 0.1437(4)
H2 H 0.8737 0.2540 0.1758
N5 N 0.8553(3) 0.4359(3) 0.1774(3)
N6 N 0.6265(3) 0.4495(3) 0.1871(4)
H3 H 0.6739 0.4056 0.1629
N7 N 0.5899(3) 0.3199(3) 0.0643(4)
C1 C 1.1382(11) 0.1118(12) 0.4991(16)
H4 H 1.2211 0.1030 0.4858
H5 H 1.0983 0.0466 0.4933
H6 H 1.1165 0.1133 0.5770
C2 C 1.1081(7) 0.2152(9) 0.4153(11)
H7 H 1.1445 0.2864 0.3547
C3 C 0.9461(7) 0.3036(6) 0.4926(7)
C4 C 0.8171(5) 0.3224(5) 0.5052(5)
C5 C 0.7769(7) 0.3994(6) 0.5598(6)
H8 H 0.8292 0.4411 0.5821
C6 C 0.6594(8) 0.4133(6) 0.5803(6)
H9 H 0.6306 0.4639 0.6175
C7 C 0.5848(6) 0.3516(5) 0.5453(5)
H10 H 0.5043 0.3577 0.5599
C8 C 0.6324(5) 0.2796(4) 0.4875(4)
C9 C 0.5515(5) 0.2124(5) 0.4475(5)
C10 C 0.5694(5) 0.0747(4) 0.3400(5)
C11 C 0.6639(5) 0.0324(4) 0.2699(5)
C12 C 0.6465(5) -0.0658(5) 0.2439(5)
H11 H 0.5749 -0.1071 0.2678
C13 C 0.7369(6) -0.1009(5) 0.1826(6)
H12 H 0.7280 -0.1684 0.1664
C14 C 0.8409(5) -0.0374(5) 0.1444(5)
H13 H 0.9033 -0.0614 0.1032
C15 C 0.8505(4) 0.0629(4) 0.1688(4)
C16 C 0.9584(4) 0.1431(4) 0.1230(4)
C17 C 1.0213(4) 0.3367(4) 0.1203(4)
C18 C 0.9723(4) 0.4344(4) 0.1562(4)
C19 C 1.0440(5) 0.5157(5) 0.1695(5)
H14 H 1.1246 0.5151 0.1509
C20 C 0.9937(5) 0.5974(5) 0.2108(5)
H15 H 1.0404 0.6521 0.2223
C21 C 0.8747(5) 0.5989(4) 0.2354(5)
H16 H 0.8394 0.6523 0.2659
C22 C 0.8086(4) 0.5184(4) 0.2134(4)
C23 C 0.6773(4) 0.5239(4) 0.2280(4)
C24 C 0.5107(4) 0.4346(4) 0.1792(5)
C25 C 0.4935(4) 0.3555(4) 0.1140(4)
C26 C 0.3825(4) 0.3265(5) 0.1035(5)
H17 H 0.3176 0.3544 0.1376
C27 C 0.3695(4) 0.2553(5) 0.0415(5)
H18 H 0.2954 0.2325 0.0349
C28 C 0.4672(4) 0.2184(4) -0.0105(5)
H19 H 0.4605 0.1712 -0.0538
C29 C 0.5756(4) 0.2528(4) 0.0030(4)
C30 C 0.6878(4) 0.2213(4) -0.0549(4)
C31 C 0.7718(5) 0.1137(6) -0.1686(6)
H20 H 0.8168 0.1841 -0.2222
H21 H 0.8210 0.0652 -0.1117
C32 C 0.7346(6) 0.0486(6) -0.2353(6)
H22 H 0.8019 0.0264 -0.2766
H23 H 0.6866 0.0974 -0.2920
H24 H 0.6905 -0.0212 -0.1817
C33? C 1.141(3) 0.125(3) 0.385(4)
H25? H 1.2246 0.1240 0.3720
H26? H 1.1111 0.1334 0.3125
H27? H 1.1106 0.0524 0.4470
H28? H 1.1383 0.2060 0.4894
loop_
_geom_bond_atom_site_label_1
_geom_bond_atom_site_label_2
_geom_bond_site_symmetry_1
_geom_bond_site_symmetry_2
O1 C2 1_555 1_555
O2 C3 1_555 1_555
O3 C9 1_555 1_555
O4 C10 1_555 1_555
O5 C16 1_555 1_555
O6 C17 1_555 1_555
O7 C23 1_555 1_555
O8 C24 1_555 1_555
O9 C30 1_555 1_555
O10 C30 1_555 1_555
N1 C4 1_555 1_555
N2 H1 1_555 1_555
N3 C11 1_555 1_555
N4 H2 1_555 1_555
N5 C18 1_555 1_555
N6 H3 1_555 1_555
N7 C25 1_555 1_555
C1 H4 1_555 1_555
H5 C1 1_555 1_555
H6 C1 1_555 1_555
C2 C1 1_555 1_555
H7 C2 1_555 1_555
C3 O1 1_555 1_555
C4 C3 1_555 1_555
C5 C4 1_555 1_555
H8 C5 1_555 1_555
C6 C5 1_555 1_555
H9 C6 1_555 1_555
C7 C6 1_555 1_555
H10 C7 1_555 1_555
C8 N1 1_555 1_555
C9 N2 1_555 1_555
C10 N2 1_555 1_555
C11 C10 1_555 1_555
C12 C11 1_555 1_555
H11 C12 1_555 1_555
C13 C12 1_555 1_555
H12 C13 1_555 1_555
C14 C13 1_555 1_555
H13 C14 1_555 1_555
C15 N3 1_555 1_555
C16 N4 1_555 1_555
C17 N4 1_555 1_555
C18 C17 1_555 1_555
C19 C18 1_555 1_555
H14 C19 1_555 1_555
C20 C19 1_555 1_555
H15 C20 1_555 1_555
C21 C20 1_555 1_555
H16 C21 1_555 1_555
C22 N5 1_555 1_555
C23 N6 1_555 1_555
C24 N6 1_555 1_555
C25 C24 1_555 1_555
C26 C25 1_555 1_555
H17 C26 1_555 1_555
C27 C26 1_555 1_555
H18 C27 1_555 1_555
C28 C27 1_555 1_555
H19 C28 1_555 1_555
C29 N7 1_555 1_555
C30 C29 1_555 1_555
C31 O10 1_555 1_555
H20 C31 1_555 1_555
H21 C31 1_555 1_555
C32 C31 1_555 1_555
H22 C32 1_555 1_555
H23 C32 1_555 1_555
H24 C32 1_555 1_555
C7 C8 1_555 1_555
C8 C9 1_555 1_555
C14 C15 1_555 1_555
C15 C16 1_555 1_555
C21 C22 1_555 1_555
C22 C23 1_555 1_555
C28 C29 1_555 1_555

#END
