
#######################################################################
#
#                 Cambridge Crystallographic Data Centre
#                                CCDC 
#
#######################################################################
#
# If this CIF has been generated from an entry in the Cambridge 
# Structural Database, then it will include bibliographic, chemical, 
# crystal, experimental, refinement or atomic coordinate data resulting 
# from the CCDC's data processing and validation procedures.
#
#######################################################################

data_OFIPUQ
_chemical_formula_moiety         'C18 H28 O7,C14 H24 N1 O1 1+,F6 P1 1-'
_chemical_name_systematic        
'(2)-(N-(3,5-Dimethylbenzyl)-5-hydroxypentan-1-aminium hexafluorophosphate 2,3,5,6,8,9,11,12,14,15,17,18-dodecahydro-1,4,7,10,13,16,19-benzoheptaoxacyclohenicosine) rotaxane hexafluorophosphate'
_symmetry_cell_setting           monoclinic
_symmetry_space_group_name_H-M   'P 21/c'
_symmetry_Int_Tables_number      14
_space_group_name_Hall           '-P 2ybc'
loop_
_symmetry_equiv_pos_site_id
_symmetry_equiv_pos_as_xyz
1 x,y,z
2 -x,1/2+y,1/2-z
3 -x,-y,-z
4 x,1/2-y,1/2+z
_cell_length_a                   16.4538(11)
_cell_length_b                   16.4429(8)
_cell_length_c                   15.0752(8)
_cell_angle_alpha                90
_cell_angle_beta                 112.737(7)
_cell_angle_gamma                90
_cell_volume                     3761.62
_exptl_crystal_colour            colorless
_exptl_crystal_description       block
_cell_formula_units_Z            4
loop_
_atom_site_label
_atom_site_type_symbol
_atom_site_fract_x
_atom_site_fract_y
_atom_site_fract_z
P1 P 0.18992(9) -0.32137(9) 0.61053(10)
F1 F 0.1493(4) -0.2688(5) 0.5211(5)
F2 F 0.1125(4) -0.3766(5) 0.5783(6)
F3 F 0.2378(3) -0.3716(3) 0.5592(3)
F4 F 0.2378(3) -0.3703(4) 0.7021(4)
F5 F 0.2745(3) -0.2653(3) 0.6430(4)
F6 F 0.1498(4) -0.2716(5) 0.6677(4)
O1 O 0.07048(17) 0.08259(16) 0.4883(2)
O2 O 0.1120(2) 0.17854(16) 0.6614(2)
O3 O 0.2724(2) 0.23522(17) 0.8051(2)
O4 O 0.4405(2) 0.19517(18) 0.79969(19)
O5 O 0.4779(2) 0.0566(2) 0.7024(2)
O6 O 0.3641(2) -0.02376(19) 0.5218(2)
O7 O 0.1728(2) -0.00729(18) 0.4304(2)
C1 C 0.1029(3) 0.0301(3) 0.3593(3)
C2 C 0.0835(4) 0.0219(4) 0.2622(4)
H1 H 0.1184 -0.0111 0.2412
C3 C 0.0127(6) 0.0624(5) 0.1964(4)
H2 H 0.0005 0.0574 0.1310
C4 C -0.0397(4) 0.1101(5) 0.2266(5)
H3 H -0.0876 0.1373 0.1819
C5 C -0.0216(3) 0.1177(3) 0.3230(4)
H4 H -0.0577 0.1501 0.3429
C6 C 0.0489(3) 0.0784(3) 0.3909(3)
C7 C 0.0078(3) 0.1217(3) 0.5188(4)
H5 H -0.0478 0.0928 0.4929
H6 H -0.0021 0.1769 0.4945
C8 C 0.0407(3) 0.1226(3) 0.6240(4)
H7 H -0.0063 0.1385 0.6441
H8 H 0.0604 0.0686 0.6488
C9 C 0.1197(4) 0.2165(3) 0.7499(4)
H9 H 0.1322 0.1758 0.8000
H10 H 0.0647 0.2431 0.7420
C10 C 0.1921(4) 0.2773(3) 0.7778(4)
H11 H 0.1848 0.3130 0.7240
H12 H 0.1914 0.3102 0.8309
C11 C 0.3483(5) 0.2871(3) 0.8373(4)
H13 H 0.3463 0.3231 0.8874
H14 H 0.3490 0.3201 0.7843
C12 C 0.4280(4) 0.2365(3) 0.8748(4)
H15 H 0.4787 0.2706 0.9082
H16 H 0.4226 0.1975 0.9204
C13 C 0.5207(4) 0.1496(4) 0.8340(4)
H17 H 0.5159 0.1051 0.8740
H18 H 0.5689 0.1844 0.8731
C14 C 0.5393(3) 0.1169(4) 0.7522(4)
H19 H 0.5371 0.1608 0.7084
H20 H 0.5982 0.0940 0.7759
C15 C 0.5040(4) 0.0116(5) 0.6373(4)
H21 H 0.5622 -0.0112 0.6717
H22 H 0.5075 0.0478 0.5881
C16 C 0.4427(4) -0.0536(4) 0.5919(5)
H23 H 0.4698 -0.0914 0.5621
H24 H 0.4293 -0.0830 0.6404
C17 C 0.3016(5) -0.0873(3) 0.4818(5)
H25 H 0.2802 -0.1070 0.5295
H26 H 0.3293 -0.1323 0.4626
C18 C 0.2282(4) -0.0561(3) 0.3983(4)
H27 H 0.2504 -0.0237 0.3588
H28 H 0.1945 -0.1010 0.3597
N1 N 0.2796(2) 0.12580(15) 0.65886(18)
H29 H 0.2346 0.1512 0.6671
H30 H 0.3298 0.1430 0.7056
C19 C 0.2014(3) 0.2840(2) 0.5254(3)
H31 H 0.1484 0.2560 0.5083
C20 C 0.2010(3) 0.3683(3) 0.5203(3)
C21 C 0.2813(4) 0.4079(2) 0.5452(3)
H32 H 0.2818 0.4643 0.5421
C22 C 0.3595(3) 0.3670(2) 0.5739(3)
C23 C 0.3579(3) 0.2843(2) 0.5793(2)
H33 H 0.4107 0.2557 0.5993
C24 C 0.2795(2) 0.24149(19) 0.5556(2)
C25 C 0.1139(5) 0.4148(4) 0.4874(5)
H34 H 0.0977 0.4318 0.4219
H35 H 0.1205 0.4616 0.5276
H36 H 0.0688 0.3800 0.4920
C26 C 0.4451(4) 0.4127(4) 0.5964(4)
H37 H 0.4356 0.4569 0.5518
H38 H 0.4887 0.3765 0.5908
H39 H 0.4653 0.4338 0.6607
C27 C 0.2804(3) 0.1504(2) 0.5643(2)
H40 H 0.2292 0.1279 0.5130
H41 H 0.3327 0.1289 0.5578
C28 C 0.2708(2) 0.03643(19) 0.6701(2)
H42 H 0.3125 0.0080 0.6500
H43 H 0.2120 0.0193 0.6285
C29 C 0.2872(3) 0.0135(2) 0.7720(3)
H44 H 0.2424 0.0378 0.7905
H45 H 0.3441 0.0343 0.8146
C30 C 0.2855(3) -0.0794(2) 0.7827(3)
H46 H 0.2276 -0.0993 0.7417
H47 H 0.3280 -0.1034 0.7602
C31 C 0.3057(3) -0.1072(2) 0.8833(3)
H48 H 0.3639 -0.0879 0.9243
H49 H 0.2636 -0.0830 0.9060
C32 C 0.3030(4) -0.1975(3) 0.8927(3)
H50 H 0.3115 -0.2106 0.9584
H51 H 0.2450 -0.2167 0.8513
O8 O 0.3665(3) -0.2395(2) 0.8692(3)
H52 H 0.4000 -0.2639 0.9168
loop_
_geom_bond_atom_site_label_1
_geom_bond_atom_site_label_2
_geom_bond_site_symmetry_1
_geom_bond_site_symmetry_2
P1 F1 1_555 1_555
F2 P1 1_555 1_555
F3 P1 1_555 1_555
F4 P1 1_555 1_555
F5 P1 1_555 1_555
F6 P1 1_555 1_555
O1 C6 1_555 1_555
O2 C8 1_555 1_555
O3 C10 1_555 1_555
O4 C12 1_555 1_555
O5 C14 1_555 1_555
O6 C16 1_555 1_555
O7 C1 1_555 1_555
C1 C2 1_555 1_555
C2 H1 1_555 1_555
C3 C2 1_555 1_555
H2 C3 1_555 1_555
C4 C3 1_555 1_555
H3 C4 1_555 1_555
C5 C4 1_555 1_555
H4 C5 1_555 1_555
C6 C1 1_555 1_555
C7 O1 1_555 1_555
H5 C7 1_555 1_555
H6 C7 1_555 1_555
C8 C7 1_555 1_555
H7 C8 1_555 1_555
H8 C8 1_555 1_555
C9 O2 1_555 1_555
H9 C9 1_555 1_555
H10 C9 1_555 1_555
C10 C9 1_555 1_555
H11 C10 1_555 1_555
H12 C10 1_555 1_555
C11 O3 1_555 1_555
H13 C11 1_555 1_555
H14 C11 1_555 1_555
C12 C11 1_555 1_555
H15 C12 1_555 1_555
H16 C12 1_555 1_555
C13 O4 1_555 1_555
H17 C13 1_555 1_555
H18 C13 1_555 1_555
C14 C13 1_555 1_555
H19 C14 1_555 1_555
H20 C14 1_555 1_555
C15 O5 1_555 1_555
H21 C15 1_555 1_555
H22 C15 1_555 1_555
C16 C15 1_555 1_555
H23 C16 1_555 1_555
H24 C16 1_555 1_555
C17 O6 1_555 1_555
H25 C17 1_555 1_555
H26 C17 1_555 1_555
C18 O7 1_555 1_555
H27 C18 1_555 1_555
H28 C18 1_555 1_555
N1 H29 1_555 1_555
H30 N1 1_555 1_555
C19 H31 1_555 1_555
C20 C19 1_555 1_555
C21 C20 1_555 1_555
H32 C21 1_555 1_555
C22 C21 1_555 1_555
C23 C22 1_555 1_555
H33 C23 1_555 1_555
C24 C19 1_555 1_555
C25 C20 1_555 1_555
H34 C25 1_555 1_555
H35 C25 1_555 1_555
H36 C25 1_555 1_555
C26 C22 1_555 1_555
H37 C26 1_555 1_555
H38 C26 1_555 1_555
H39 C26 1_555 1_555
C27 N1 1_555 1_555
H40 C27 1_555 1_555
H41 C27 1_555 1_555
C28 N1 1_555 1_555
H42 C28 1_555 1_555
H43 C28 1_555 1_555
C29 C28 1_555 1_555
H44 C29 1_555 1_555
H45 C29 1_555 1_555
C30 C29 1_555 1_555
H46 C30 1_555 1_555
H47 C30 1_555 1_555
C31 C30 1_555 1_555
H48 C31 1_555 1_555
H49 C31 1_555 1_555
C32 C31 1_555 1_555
H50 C32 1_555 1_555
H51 C32 1_555 1_555
O8 C32 1_555 1_555
H52 O8 1_555 1_555
C5 C6 1_555 1_555
C17 C18 1_555 1_555
C23 C24 1_555 1_555
C24 C27 1_555 1_555

#END
