
#######################################################################
#
#                 Cambridge Crystallographic Data Centre
#                                CCDC 
#
#######################################################################
#
# If this CIF has been generated from an entry in the Cambridge 
# Structural Database, then it will include bibliographic, chemical, 
# crystal, experimental, refinement or atomic coordinate data resulting 
# from the CCDC's data processing and validation procedures.
#
#######################################################################

data_OFIQEB
_chemical_formula_moiety         'C18 H28 O7,C17 H23 F5 N1 O2 1+,F6 P1 1-'
_chemical_name_systematic        
'(2)-(N-(3,5-Dimethylbenzyl)-5-((2,2,3,3,3-pentafluoropropanoyl)oxy)pentan-1-aminium hexafluorophosphate 2,3,5,6,8,9,11,12,14,15,17,18-dodecahydro-1,4,7,10,13,16,19-benzoheptaoxacyclohenicosine) rotaxane hexafluorophosphate'
_symmetry_cell_setting           triclinic
_symmetry_space_group_name_H-M   'P -1'
_symmetry_Int_Tables_number      2
_space_group_name_Hall           '-P 1'
loop_
_symmetry_equiv_pos_site_id
_symmetry_equiv_pos_as_xyz
1 x,y,z
2 -x,-y,-z
_cell_length_a                   12.2398(6)
_cell_length_b                   12.5467(7)
_cell_length_c                   15.3468(10)
_cell_angle_alpha                66.650(6)
_cell_angle_beta                 79.220(5)
_cell_angle_gamma                89.399(4)
_cell_volume                     2120.29
_exptl_crystal_colour            colorless
_exptl_crystal_description       block
_cell_formula_units_Z            2
loop_
_atom_site_label
_atom_site_type_symbol
_atom_site_fract_x
_atom_site_fract_y
_atom_site_fract_z
P1 P 0.26792(9) 0.76426(10) 0.01174(8)
F1 F 0.2910(3) 0.8648(4) 0.0449(3)
F2 F 0.2588(3) 0.8572(4) -0.0891(2)
F3 F 0.1384(2) 0.7692(3) 0.0515(2)
F4 F 0.2768(3) 0.6764(4) 0.1148(2)
F5 F 0.3957(2) 0.7628(4) -0.0265(2)
F6 F 0.2415(4) 0.6675(4) -0.0189(4)
F7 F 0.0661(3) 1.0209(4) 0.4077(2)
F8 F 0.1236(4) 1.1937(4) 0.3873(4)
F9 F 0.3074(3) 1.1829(4) 0.2704(4)
F10 F 0.2832(4) 1.0456(4) 0.4091(3)
F11 F 0.2555(3) 1.0174(4) 0.2860(3)
O1 O 0.0576(2) 1.0953(2) 0.2196(2)
O2 O 0.0736(3) 1.2780(3) 0.2095(3)
N1 N -0.2685(2) 0.6563(2) 0.2493(2)
H1 H -0.2121 0.6203 0.2253
H2 H -0.3070 0.6936 0.2008
C1 C -0.3262(3) 0.3657(3) 0.3318(3)
H3 H -0.2758 0.3519 0.3746
C2 C -0.3485(4) 0.2805(4) 0.2992(3)
C3 C -0.4236(4) 0.3029(4) 0.2378(3)
H4 H -0.4395 0.2453 0.2154
C4 C -0.4766(3) 0.4058(4) 0.2077(3)
C5 C -0.4523(3) 0.4885(3) 0.2411(2)
H5 H -0.4880 0.5595 0.2216
C6 C -0.3770(3) 0.4710(3) 0.3025(2)
C7 C -0.2906(5) 0.1693(4) 0.3293(4)
H6 H -0.2226 0.1808 0.3506
H7 H -0.2711 0.1469 0.2743
H8 H -0.3403 0.1078 0.3828
C8 C -0.5579(4) 0.4285(5) 0.1403(3)
H9 H -0.6337 0.4030 0.1784
H10 H -0.5387 0.3852 0.0992
H11 H -0.5539 0.5119 0.0995
C9 C -0.3464(3) 0.5644(3) 0.3321(2)
H12 H -0.3099 0.5308 0.3886
H13 H -0.4145 0.5996 0.3513
C10 C -0.2177(3) 0.7453(3) 0.2741(2)
H14 H -0.1732 0.7068 0.3243
H15 H -0.2775 0.7841 0.3009
C11 C -0.1434(3) 0.8355(3) 0.1853(3)
H16 H -0.0767 0.7990 0.1653
H17 H -0.1842 0.8641 0.1314
C12 C -0.1069(3) 0.9374(3) 0.2052(3)
H18 H -0.0742 0.9077 0.2641
H19 H -0.1730 0.9791 0.2180
C13 C -0.0211(3) 1.0230(3) 0.1204(3)
H20 H 0.0484 0.9837 0.1127
H21 H -0.0503 1.0454 0.0601
C14 C 0.0058(3) 1.1311(3) 0.1343(3)
H22 H 0.0577 1.1859 0.0764
H23 H -0.0631 1.1703 0.1445
C15 C 0.0833(3) 1.1768(4) 0.2465(3)
C16 C 0.1299(5) 1.1225(5) 0.3426(4)
C17 C 0.2453(5) 1.0902(5) 0.3236(5)
O3 O -0.09437(19) 0.4850(2) 0.39808(17)
O4 O -0.0905(2) 0.5404(2) 0.19347(18)
O5 O -0.2096(2) 0.6659(2) 0.04969(17)
O6 O -0.3963(2) 0.7816(2) 0.10263(18)
O7 O -0.4724(2) 0.8218(3) 0.2788(2)
O8 O -0.4116(2) 0.7070(2) 0.46809(18)
O9 O -0.22492(19) 0.5593(2) 0.51637(17)
C18 C -0.1859(3) 0.4508(3) 0.5570(3)
C19 C -0.2113(3) 0.3797(4) 0.6557(3)
H24 H -0.2593 0.4057 0.6983
C20 C -0.1688(4) 0.2735(4) 0.6923(3)
H25 H -0.1858 0.2271 0.7600
C21 C -0.1017(4) 0.2341(4) 0.6313(3)
H26 H -0.0732 0.1596 0.6564
C22 C -0.0746(4) 0.3035(4) 0.5315(3)
H27 H -0.0275 0.2761 0.4893
C23 C -0.1164(3) 0.4113(3) 0.4949(3)
C24 C -0.0158(3) 0.4464(4) 0.3366(3)
H28 H -0.0457 0.3727 0.3378
H29 H 0.0550 0.4319 0.3604
C25 C 0.0052(3) 0.5369(4) 0.2359(3)
H30 H 0.0212 0.6138 0.2363
H31 H 0.0709 0.5191 0.1967
C26 C -0.0657(3) 0.5413(4) 0.0985(3)
H32 H -0.0336 0.4677 0.1009
H33 H -0.0104 0.6066 0.0555
C27 C -0.1705(3) 0.5547(4) 0.0604(3)
H34 H -0.1563 0.5484 -0.0030
H35 H -0.2274 0.4924 0.1057
C28 C -0.3016(3) 0.6924(4) 0.0025(3)
H36 H -0.3604 0.6279 0.0353
H37 H -0.2777 0.7016 -0.0656
C29 C -0.3466(3) 0.8022(4) 0.0052(3)
H38 H -0.2857 0.8643 -0.0197
H39 H -0.4029 0.8279 -0.0363
C30 C -0.4574(4) 0.8770(4) 0.1091(3)
H40 H -0.5011 0.9055 0.0570
H41 H -0.4049 0.9416 0.1001
C31 C -0.5338(4) 0.8399(4) 0.2049(3)
H42 H -0.5868 0.9004 0.2037
H43 H -0.5773 0.7669 0.2187
C32 C -0.5415(4) 0.8017(5) 0.3696(3)
H44 H -0.5815 0.7237 0.3967
H45 H -0.5975 0.8606 0.3614
C33 C -0.4707(4) 0.8088(4) 0.4377(3)
H46 H -0.4175 0.8784 0.4045
H47 H -0.5185 0.8157 0.4946
C34 C -0.3385(3) 0.7112(4) 0.5288(3)
H48 H -0.3770 0.7415 0.5760
H49 H -0.2724 0.7647 0.4890
C35 C -0.3024(3) 0.5931(4) 0.5813(3)
H50 H -0.2670 0.5932 0.6343
H51 H -0.3682 0.5364 0.6104
loop_
_geom_bond_atom_site_label_1
_geom_bond_atom_site_label_2
_geom_bond_site_symmetry_1
_geom_bond_site_symmetry_2
P1 F1 1_555 1_555
F2 P1 1_555 1_555
F3 P1 1_555 1_555
F4 P1 1_555 1_555
F5 P1 1_555 1_555
F6 P1 1_555 1_555
F7 C16 1_555 1_555
F8 C16 1_555 1_555
F9 C17 1_555 1_555
F10 C17 1_555 1_555
F11 C17 1_555 1_555
O1 C14 1_555 1_555
O2 C15 1_555 1_555
N1 H1 1_555 1_555
H2 N1 1_555 1_555
C1 H3 1_555 1_555
C2 C1 1_555 1_555
C3 C2 1_555 1_555
H4 C3 1_555 1_555
C4 C3 1_555 1_555
C5 C4 1_555 1_555
H5 C5 1_555 1_555
C6 C1 1_555 1_555
C7 C2 1_555 1_555
H6 C7 1_555 1_555
H7 C7 1_555 1_555
H8 C7 1_555 1_555
C8 C4 1_555 1_555
H9 C8 1_555 1_555
H10 C8 1_555 1_555
H11 C8 1_555 1_555
C9 N1 1_555 1_555
H12 C9 1_555 1_555
H13 C9 1_555 1_555
C10 N1 1_555 1_555
H14 C10 1_555 1_555
H15 C10 1_555 1_555
C11 C10 1_555 1_555
H16 C11 1_555 1_555
H17 C11 1_555 1_555
C12 C11 1_555 1_555
H18 C12 1_555 1_555
H19 C12 1_555 1_555
C13 C12 1_555 1_555
H20 C13 1_555 1_555
H21 C13 1_555 1_555
C14 C13 1_555 1_555
H22 C14 1_555 1_555
H23 C14 1_555 1_555
C15 O1 1_555 1_555
C16 C15 1_555 1_555
C17 C16 1_555 1_555
O3 C23 1_555 1_555
O4 C25 1_555 1_555
O5 C27 1_555 1_555
O6 C29 1_555 1_555
O7 C31 1_555 1_555
O8 C33 1_555 1_555
O9 C18 1_555 1_555
C18 C19 1_555 1_555
C19 H24 1_555 1_555
C20 C19 1_555 1_555
H25 C20 1_555 1_555
C21 C20 1_555 1_555
H26 C21 1_555 1_555
C22 C21 1_555 1_555
H27 C22 1_555 1_555
C23 C18 1_555 1_555
C24 O3 1_555 1_555
H28 C24 1_555 1_555
H29 C24 1_555 1_555
C25 C24 1_555 1_555
H30 C25 1_555 1_555
H31 C25 1_555 1_555
C26 O4 1_555 1_555
H32 C26 1_555 1_555
H33 C26 1_555 1_555
C27 C26 1_555 1_555
H34 C27 1_555 1_555
H35 C27 1_555 1_555
C28 O5 1_555 1_555
H36 C28 1_555 1_555
H37 C28 1_555 1_555
C29 C28 1_555 1_555
H38 C29 1_555 1_555
H39 C29 1_555 1_555
C30 O6 1_555 1_555
H40 C30 1_555 1_555
H41 C30 1_555 1_555
C31 C30 1_555 1_555
H42 C31 1_555 1_555
H43 C31 1_555 1_555
C32 O7 1_555 1_555
H44 C32 1_555 1_555
H45 C32 1_555 1_555
C33 C32 1_555 1_555
H46 C33 1_555 1_555
H47 C33 1_555 1_555
C34 O8 1_555 1_555
H48 C34 1_555 1_555
H49 C34 1_555 1_555
C35 O9 1_555 1_555
H50 C35 1_555 1_555
H51 C35 1_555 1_555
C5 C6 1_555 1_555
C6 C9 1_555 1_555
C22 C23 1_555 1_555
C34 C35 1_555 1_555

#END
