
#######################################################################
#
#                 Cambridge Crystallographic Data Centre
#                                CCDC 
#
#######################################################################
#
# If this CIF has been generated from an entry in the Cambridge 
# Structural Database, then it will include bibliographic, chemical, 
# crystal, experimental, refinement or atomic coordinate data resulting 
# from the CCDC's data processing and validation procedures.
#
#######################################################################

data_OFIXUX
_chemical_formula_moiety         'C26 H16 N2 S4'
_chemical_name_systematic        
5,5'''-bis(Pyrid-3-yl)-2,2':5',2'':5'',2'''-quaterthiophene
_symmetry_cell_setting           monoclinic
_symmetry_space_group_name_H-M   'P 21/c'
_symmetry_Int_Tables_number      14
_space_group_name_Hall           '-P 2ybc'
loop_
_symmetry_equiv_pos_site_id
_symmetry_equiv_pos_as_xyz
1 x,y,z
2 -x,1/2+y,1/2-z
3 -x,-y,-z
4 x,1/2-y,1/2+z
_cell_length_a                   21.339(8)
_cell_length_b                   5.714(2)
_cell_length_c                   8.900(3)
_cell_angle_alpha                90
_cell_angle_beta                 90.529(5)
_cell_angle_gamma                90
_cell_volume                     1085.14
_exptl_crystal_colour            red
_chemical_melting_point          '304 deg.C(dec.)'
_cell_formula_units_Z            2
_exptl_crystal_recrystallization_method sublimation
loop_
_atom_site_label
_atom_site_type_symbol
_atom_site_fract_x
_atom_site_fract_y
_atom_site_fract_z
N1 N 0.07797(9) 0.4036(4) -0.1825(2)
S1 S 0.43502(2) 0.34220(8) 0.33697(5)
S2 S 0.25744(2) 0.65001(8) 0.18550(5)
C1 C 0.47015(7) 0.5307(3) 0.46503(19)
C2 C 0.43465(8) 0.7284(3) 0.4837(2)
H1 H 0.4461 0.8508 0.5471
C3 C 0.37902(8) 0.7274(3) 0.3970(2)
H2 H 0.3501 0.8492 0.3974
C4 C 0.37186(8) 0.5294(3) 0.31228(19)
C5 C 0.32092(8) 0.4648(3) 0.21061(18)
C6 C 0.31368(8) 0.2665(3) 0.1274(2)
H3 H 0.3428 0.1454 0.1271
C7 C 0.25795(9) 0.2627(4) 0.0418(2)
H4 H 0.2467 0.1390 -0.0208
C8 C 0.22174(8) 0.4586(3) 0.05936(19)
C9 C 0.16105(8) 0.5160(3) -0.0111(2)
C10 C 0.12897(10) 0.7206(4) 0.0210(3)
H5 H 0.1456 0.8286 0.0886
C11 C 0.07191(10) 0.7620(5) -0.0489(3)
H6 H 0.0498 0.8987 -0.0293
C12 C 0.04838(11) 0.6000(5) -0.1469(3)
H7 H 0.0095 0.6287 -0.1912
C13 C 0.13341(11) 0.3668(4) -0.1150(3)
H8 H 0.1550 0.2309 -0.1396
N1B N 0.92203(9) 0.5964(4) 1.1825(2)
S1B S 0.56498(2) 0.65780(8) 0.66303(5)
S2B S 0.74256(2) 0.34999(8) 0.81450(5)
C1B C 0.52985(7) 0.4693(3) 0.53497(19)
C2B C 0.56535(8) 0.2716(3) 0.5163(2)
H1B H 0.5539 0.1492 0.4529
C3B C 0.62098(8) 0.2726(3) 0.6030(2)
H2B H 0.6499 0.1508 0.6026
C4B C 0.62814(8) 0.4706(3) 0.68772(19)
C5B C 0.67908(8) 0.5352(3) 0.78939(18)
C6B C 0.68632(8) 0.7335(3) 0.8726(2)
H3B H 0.6572 0.8546 0.8729
C7B C 0.74205(9) 0.7373(4) 0.9582(2)
H4B H 0.7533 0.8610 1.0208
C8B C 0.77826(8) 0.5414(3) 0.94064(19)
C9B C 0.83895(8) 0.4840(3) 1.0111(2)
C10B C 0.87103(10) 0.2794(4) 0.9790(3)
H5B H 0.8544 0.1714 0.9114
C11B C 0.92809(10) 0.2380(5) 1.0489(3)
H6B H 0.9502 0.1013 1.0293
C12B C 0.95162(11) 0.4000(5) 1.1469(3)
H7B H 0.9905 0.3713 1.1912
C13B C 0.86659(11) 0.6332(4) 1.1150(3)
H8B H 0.8450 0.7691 1.1396
loop_
_geom_bond_atom_site_label_1
_geom_bond_atom_site_label_2
_geom_bond_site_symmetry_1
_geom_bond_site_symmetry_2
N1 C12 1_555 1_555
S1 C1 1_555 1_555
S2 C5 1_555 1_555
C1 C2 1_555 1_555
C2 H1 1_555 1_555
C3 C2 1_555 1_555
H2 C3 1_555 1_555
C4 S1 1_555 1_555
C5 C4 1_555 1_555
C6 C5 1_555 1_555
H3 C6 1_555 1_555
C7 C6 1_555 1_555
H4 C7 1_555 1_555
C8 S2 1_555 1_555
C9 C8 1_555 1_555
C10 C9 1_555 1_555
H5 C10 1_555 1_555
C11 C10 1_555 1_555
H6 C11 1_555 1_555
C12 C11 1_555 1_555
H7 C12 1_555 1_555
C13 N1 1_555 1_555
H8 C13 1_555 1_555
N1B C12B 1_555 1_555
S1B C1B 1_555 1_555
S2B C5B 1_555 1_555
C1B C1 1_555 1_555
C2B C1B 1_555 1_555
H1B C2B 1_555 1_555
C3B C2B 1_555 1_555
H2B C3B 1_555 1_555
C4B S1B 1_555 1_555
C5B C4B 1_555 1_555
C6B C5B 1_555 1_555
H3B C6B 1_555 1_555
C7B C6B 1_555 1_555
H4B C7B 1_555 1_555
C8B S2B 1_555 1_555
C9B C8B 1_555 1_555
C10B C9B 1_555 1_555
H5B C10B 1_555 1_555
C11B C10B 1_555 1_555
H6B C11B 1_555 1_555
C12B C11B 1_555 1_555
H7B C12B 1_555 1_555
C13B N1B 1_555 1_555
H8B C13B 1_555 1_555
C3 C4 1_555 1_555
C7 C8 1_555 1_555
C9 C13 1_555 1_555
C3B C4B 1_555 1_555
C7B C8B 1_555 1_555
C9B C13B 1_555 1_555

#END
