
#######################################################################
#
#                 Cambridge Crystallographic Data Centre
#                                CCDC 
#
#######################################################################
#
# If this CIF has been generated from an entry in the Cambridge 
# Structural Database, then it will include bibliographic, chemical, 
# crystal, experimental, refinement or atomic coordinate data resulting 
# from the CCDC's data processing and validation procedures.
#
#######################################################################

data_OFIYEI
_chemical_formula_moiety         'C26 H16 N2 S4'
_chemical_name_systematic        
5,5'''-bis(Pyrid-4-yl)-2,2':5',2'':5'',2'''-quaterthiophene
_symmetry_cell_setting           monoclinic
_symmetry_space_group_name_H-M   'P 21/c'
_symmetry_Int_Tables_number      14
_space_group_name_Hall           '-P 2ybc'
loop_
_symmetry_equiv_pos_site_id
_symmetry_equiv_pos_as_xyz
1 x,y,z
2 -x,1/2+y,1/2-z
3 -x,-y,-z
4 x,1/2-y,1/2+z
_cell_length_a                   23.490(3)
_cell_length_b                   7.7172(10)
_cell_length_c                   5.9857(8)
_cell_angle_alpha                90
_cell_angle_beta                 94.968(2)
_cell_angle_gamma                90
_cell_volume                     1080.99
_cell_formula_units_Z            2
_exptl_crystal_recrystallization_method sublimation
loop_
_atom_site_label
_atom_site_type_symbol
_atom_site_fract_x
_atom_site_fract_y
_atom_site_fract_z
C1 C 0.46984(7) 0.5131(2) 0.4703(3)
C2 C 0.43050(7) 0.5962(2) 0.5877(3)
H1 H 0.4394 0.6475 0.7269
C3 C 0.37509(7) 0.5963(2) 0.4767(3)
H2 H 0.3439 0.6479 0.5357
C4 C 0.37157(7) 0.5136(2) 0.2741(3)
C5 C 0.32215(7) 0.4875(2) 0.1156(3)
C6 C 0.31914(7) 0.4072(2) -0.0884(3)
H3 H 0.3507 0.3589 -0.1489
C7 C 0.26356(8) 0.4046(2) -0.1981(3)
H4 H 0.2549 0.3545 -0.3383
C8 C 0.22367(7) 0.4824(2) -0.0797(3)
C9 C 0.16202(7) 0.4985(2) -0.1378(3)
C10 C 0.13614(9) 0.4297(3) -0.3366(4)
H5 H 0.1581 0.3747 -0.4376
C11 C 0.07778(9) 0.4437(3) -0.3825(4)
H6 H 0.0616 0.3968 -0.5163
C12 C 0.06822(9) 0.5863(3) -0.0601(4)
H7 H 0.0451 0.6415 0.0366
C13 C 0.12591(8) 0.5796(3) 0.0024(4)
H8 H 0.1407 0.6288 0.1370
N1 N 0.04305(8) 0.5201(3) -0.2476(3)
S1 S 0.437915(18) 0.43292(6) 0.21843(7)
S2 S 0.255500(18) 0.56301(6) 0.17249(7)
C1B C 0.53016(7) 0.4869(2) 0.5297(3)
C2B C 0.56950(7) 0.4038(2) 0.4123(3)
H1B H 0.5606 0.3525 0.2731
C3B C 0.62491(7) 0.4037(2) 0.5233(3)
H2B H 0.6561 0.3521 0.4643
C4B C 0.62843(7) 0.4864(2) 0.7259(3)
C5B C 0.67785(7) 0.5125(2) 0.8844(3)
C6B C 0.68086(7) 0.5928(2) 1.0884(3)
H3B H 0.6493 0.6411 1.1489
C7B C 0.73644(8) 0.5954(2) 1.1981(3)
H4B H 0.7451 0.6455 1.3383
C8B C 0.77633(7) 0.5176(2) 1.0797(3)
C9B C 0.83798(7) 0.5015(2) 1.1378(3)
C10B C 0.86386(9) 0.5703(3) 1.3366(4)
H5B H 0.8419 0.6253 1.4376
C11B C 0.92222(9) 0.5563(3) 1.3825(4)
H6B H 0.9384 0.6032 1.5163
C12B C 0.93178(9) 0.4137(3) 1.0601(4)
H7B H 0.9549 0.3585 0.9634
C13B C 0.87409(8) 0.4204(3) 0.9976(4)
H8B H 0.8593 0.3712 0.8630
N1B N 0.95695(8) 0.4799(3) 1.2476(3)
S1B S 0.562085(18) 0.56708(6) 0.78157(7)
S2B S 0.744500(18) 0.43699(6) 0.82751(7)
loop_
_geom_bond_atom_site_label_1
_geom_bond_atom_site_label_2
_geom_bond_site_symmetry_1
_geom_bond_site_symmetry_2
C1 C2 1_555 1_555
C2 H1 1_555 1_555
C3 C2 1_555 1_555
H2 C3 1_555 1_555
C4 C3 1_555 1_555
C5 C4 1_555 1_555
C6 C5 1_555 1_555
H3 C6 1_555 1_555
C7 C6 1_555 1_555
H4 C7 1_555 1_555
C8 C7 1_555 1_555
C9 C8 1_555 1_555
C10 C9 1_555 1_555
H5 C10 1_555 1_555
C11 C10 1_555 1_555
H6 C11 1_555 1_555
C12 H7 1_555 1_555
C13 C9 1_555 1_555
H8 C13 1_555 1_555
N1 C11 1_555 1_555
S1 C1 1_555 1_555
S2 C5 1_555 1_555
C1B C1 1_555 1_555
C2B C1B 1_555 1_555
H1B C2B 1_555 1_555
C3B C2B 1_555 1_555
H2B C3B 1_555 1_555
C4B C3B 1_555 1_555
C5B C4B 1_555 1_555
C6B C5B 1_555 1_555
H3B C6B 1_555 1_555
C7B C6B 1_555 1_555
H4B C7B 1_555 1_555
C8B C7B 1_555 1_555
C9B C8B 1_555 1_555
C10B C9B 1_555 1_555
H5B C10B 1_555 1_555
C11B C10B 1_555 1_555
H6B C11B 1_555 1_555
C12B H7B 1_555 1_555
C13B C9B 1_555 1_555
H8B C13B 1_555 1_555
N1B C11B 1_555 1_555
S1B C1B 1_555 1_555
S2B C5B 1_555 1_555
C4 S1 1_555 1_555
C8 S2 1_555 1_555
C12 C13 1_555 1_555
C12 N1 1_555 1_555
C4B S1B 1_555 1_555
C8B S2B 1_555 1_555
C12B C13B 1_555 1_555
C12B N1B 1_555 1_555

#END
