
#######################################################################
#
#                 Cambridge Crystallographic Data Centre
#                                CCDC 
#
#######################################################################
#
# If this CIF has been generated from an entry in the Cambridge 
# Structural Database, then it will include bibliographic, chemical, 
# crystal, experimental, refinement or atomic coordinate data resulting 
# from the CCDC's data processing and validation procedures.
#
#######################################################################

data_OFIYIM
_chemical_formula_moiety         'C26 H16 N2 S2'
_chemical_name_systematic        5,5'-bis(Quinol-3-yl)-2,2'-bithiophene
_symmetry_cell_setting           triclinic
_symmetry_space_group_name_H-M   'P -1'
_symmetry_Int_Tables_number      2
_space_group_name_Hall           '-P 1'
loop_
_symmetry_equiv_pos_site_id
_symmetry_equiv_pos_as_xyz
1 x,y,z
2 -x,-y,-z
_cell_length_a                   6.1928(11)
_cell_length_b                   8.2608(14)
_cell_length_c                   9.9612(17)
_cell_angle_alpha                85.299(2)
_cell_angle_beta                 75.535(2)
_cell_angle_gamma                76.100(2)
_cell_volume                     478.856
_cell_formula_units_Z            1
loop_
_atom_site_label
_atom_site_type_symbol
_atom_site_fract_x
_atom_site_fract_y
_atom_site_fract_z
C1 C 0.5483(3) 0.01089(19) 0.05726(15)
C2 C 0.7567(3) -0.0623(2) 0.08162(17)
H1 H 0.8666 -0.1388 0.0223
C3 C 0.7912(3) -0.0118(2) 0.20486(17)
H2 H 0.9256 -0.0515 0.2347
C4 C 0.6077(3) 0.10114(19) 0.27601(15)
C5 C 0.5790(3) 0.17997(18) 0.40800(15)
C6 C 0.3752(3) 0.27353(19) 0.47945(16)
H3 H 0.2454 0.2902 0.4445
C7 C 0.3617(3) 0.34481(19) 0.60616(16)
C8 C 0.1564(3) 0.4439(2) 0.68450(17)
H4 H 0.0235 0.4651 0.6523
C9 C 0.1525(3) 0.5087(2) 0.80740(18)
H5 H 0.0171 0.5742 0.8579
C10 C 0.3506(3) 0.4771(2) 0.85754(17)
H6 H 0.3459 0.5221 0.9411
C11 C 0.5511(3) 0.3808(2) 0.78508(17)
H7 H 0.6812 0.3593 0.8202
C12 C 0.5614(3) 0.31368(19) 0.65694(15)
C13 C 0.7698(3) 0.1591(2) 0.46734(17)
H8 H 0.9093 0.0972 0.4181
N1 N 0.7662(2) 0.21952(19) 0.58568(14)
S1 S 0.38985(7) 0.14543(5) 0.18897(4)
C1A C 0.4517(3) -0.01089(19) -0.05726(15)
C2A C 0.2433(3) 0.0623(2) -0.08162(17)
H1A H 0.1334 0.1388 -0.0223
C3A C 0.2088(3) 0.0118(2) -0.20486(17)
H2A H 0.0744 0.0515 -0.2347
C4A C 0.3923(3) -0.10114(19) -0.27601(15)
C5A C 0.4210(3) -0.17997(18) -0.40800(15)
C6A C 0.6248(3) -0.27353(19) -0.47945(16)
H3A H 0.7546 -0.2902 -0.4445
C7A C 0.6383(3) -0.34481(19) -0.60616(16)
C8A C 0.8436(3) -0.4439(2) -0.68450(17)
H4A H 0.9765 -0.4651 -0.6523
C9A C 0.8475(3) -0.5087(2) -0.80740(18)
H5A H 0.9829 -0.5742 -0.8579
C10A C 0.6494(3) -0.4771(2) -0.85754(17)
H6A H 0.6541 -0.5221 -0.9411
C11A C 0.4489(3) -0.3808(2) -0.78508(17)
H7A H 0.3188 -0.3593 -0.8202
C12A C 0.4386(3) -0.31368(19) -0.65694(15)
C13A C 0.2302(3) -0.1591(2) -0.46734(17)
H8A H 0.0907 -0.0972 -0.4181
N1A N 0.2338(2) -0.21952(19) -0.58568(14)
S1A S 0.61015(7) -0.14543(5) -0.18897(4)
loop_
_geom_bond_atom_site_label_1
_geom_bond_atom_site_label_2
_geom_bond_site_symmetry_1
_geom_bond_site_symmetry_2
C1 C2 1_555 1_555
C2 H1 1_555 1_555
C3 C2 1_555 1_555
H2 C3 1_555 1_555
C4 C3 1_555 1_555
C5 C4 1_555 1_555
C6 C5 1_555 1_555
H3 C6 1_555 1_555
C7 C6 1_555 1_555
C8 C7 1_555 1_555
H4 C8 1_555 1_555
C9 C8 1_555 1_555
H5 C9 1_555 1_555
C10 C9 1_555 1_555
H6 C10 1_555 1_555
C11 C10 1_555 1_555
H7 C11 1_555 1_555
C12 C7 1_555 1_555
C13 C5 1_555 1_555
H8 C13 1_555 1_555
N1 C12 1_555 1_555
S1 C1 1_555 1_555
C1A C1 1_555 1_555
C2A C1A 1_555 1_555
H1A C2A 1_555 1_555
C3A C2A 1_555 1_555
H2A C3A 1_555 1_555
C4A C3A 1_555 1_555
C5A C4A 1_555 1_555
C6A C5A 1_555 1_555
H3A C6A 1_555 1_555
C7A C6A 1_555 1_555
C8A C7A 1_555 1_555
H4A C8A 1_555 1_555
C9A C8A 1_555 1_555
H5A C9A 1_555 1_555
C10A C9A 1_555 1_555
H6A C10A 1_555 1_555
C11A C10A 1_555 1_555
H7A C11A 1_555 1_555
C12A C7A 1_555 1_555
C13A C5A 1_555 1_555
H8A C13A 1_555 1_555
N1A C12A 1_555 1_555
S1A C1A 1_555 1_555
C4 S1 1_555 1_555
C11 C12 1_555 1_555
C13 N1 1_555 1_555
C4A S1A 1_555 1_555
C11A C12A 1_555 1_555
C13A N1A 1_555 1_555

#END
