
#######################################################################
#
#                 Cambridge Crystallographic Data Centre
#                                CCDC 
#
#######################################################################
#
# If this CIF has been generated from an entry in the Cambridge 
# Structural Database, then it will include bibliographic, chemical, 
# crystal, experimental, refinement or atomic coordinate data resulting 
# from the CCDC's data processing and validation procedures.
#
#######################################################################

data_OFOCUK
_chemical_formula_moiety         'C11 H20 B10 O1'
_chemical_name_systematic        
7-methoxy-3,4-dihydronaphtho(1,2)-1,2-dicarba-closo-dodecaborane
_symmetry_cell_setting           monoclinic
_symmetry_space_group_name_H-M   'P 21/c'
_symmetry_Int_Tables_number      14
_space_group_name_Hall           '-P 2ybc'
loop_
_symmetry_equiv_pos_site_id
_symmetry_equiv_pos_as_xyz
1 x,y,z
2 -x,1/2+y,1/2-z
3 -x,-y,-z
4 x,1/2-y,1/2+z
_cell_length_a                   11.0361(6)
_cell_length_b                   7.5396(3)
_cell_length_c                   18.8965(10)
_cell_angle_alpha                90
_cell_angle_beta                 98.7759(17)
_cell_angle_gamma                90
_cell_volume                     1553.93
_exptl_crystal_colour            colorless
_exptl_crystal_description       block
_cell_formula_units_Z            4
loop_
_atom_site_label
_atom_site_type_symbol
_atom_site_fract_x
_atom_site_fract_y
_atom_site_fract_z
O1 O 0.29915(13) 0.52036(18) 0.07764(8)
C1 C 0.69296(16) 1.1138(2) 0.14063(10)
C2 C 0.64674(15) 0.9070(2) 0.13324(9)
C3 C 0.59366(19) 1.2527(2) 0.13985(13)
H1 H 0.6288 1.3574 0.1648
H2 H 0.5646 1.2862 0.0906
C4 C 0.48602(18) 1.1918(3) 0.17397(13)
H3 H 0.5107 1.1864 0.2254
H4 H 0.4209 1.2790 0.1643
C5 C 0.43672(17) 1.0138(2) 0.14793(10)
C6 C 0.31258(18) 0.9779(3) 0.14288(11)
H5 H 0.2611 1.0667 0.1552
C7 C 0.26183(17) 0.8167(3) 0.12050(10)
H6 H 0.1781 0.7970 0.1183
C8 C 0.33740(17) 0.6847(2) 0.10140(10)
C9 C 0.46198(16) 0.7164(2) 0.10586(9)
H7 H 0.5129 0.6273 0.0932
C10 C 0.51182(15) 0.8785(2) 0.12883(9)
C11 C 0.1719(2) 0.4816(3) 0.07174(14)
H8 H 0.1572 0.3625 0.0546
H9 H 0.1464 0.4931 0.1179
H10 H 0.1263 0.5630 0.0388
B1 B 0.6965(2) 1.0052(3) 0.06068(12)
H11 H 0.6371 1.0357 0.0099
B2 B 0.8162(2) 1.1481(4) 0.09841(15)
H12 H 0.8350 1.2729 0.0720
B3 B 0.8323(2) 1.1313(3) 0.19304(14)
H13 H 0.8617 1.2451 0.2279
B4 B 0.7225(2) 0.9793(3) 0.21461(12)
H14 H 0.6797 0.9935 0.2632
B5 B 0.7385(2) 0.7861(3) 0.08612(13)
H15 H 0.7066 0.6726 0.0516
B6 B 0.8493(2) 0.9379(4) 0.06410(15)
H16 H 0.8913 0.9241 0.0152
B7 B 0.9338(2) 1.0165(4) 0.14579(16)
H17 H 1.0309 1.0542 0.1499
B8 B 0.8751(2) 0.9112(4) 0.21759(14)
H18 H 0.9339 0.8797 0.2684
B9 B 0.7538(2) 0.7700(3) 0.18018(13)
H19 H 0.7316 0.6465 0.2065
B10 B 0.8851(2) 0.7919(4) 0.13805(16)
H20 H 0.9507 0.6824 0.1372
loop_
_geom_bond_atom_site_label_1
_geom_bond_atom_site_label_2
_geom_bond_site_symmetry_1
_geom_bond_site_symmetry_2
O1 C8 1_555 1_555
C1 C2 1_555 1_555
C2 C10 1_555 1_555
C3 C1 1_555 1_555
H1 C3 1_555 1_555
H2 C3 1_555 1_555
C4 C3 1_555 1_555
H3 C4 1_555 1_555
H4 C4 1_555 1_555
C5 C4 1_555 1_555
C6 C5 1_555 1_555
H5 C6 1_555 1_555
C7 C6 1_555 1_555
H6 C7 1_555 1_555
C8 C7 1_555 1_555
C9 C8 1_555 1_555
H7 C9 1_555 1_555
C10 C5 1_555 1_555
C11 O1 1_555 1_555
H8 C11 1_555 1_555
H9 C11 1_555 1_555
H10 C11 1_555 1_555
B1 C1 1_555 1_555
H11 B1 1_555 1_555
B2 C1 1_555 1_555
H12 B2 1_555 1_555
B3 C1 1_555 1_555
H13 B3 1_555 1_555
B4 C1 1_555 1_555
H14 B4 1_555 1_555
B5 C2 1_555 1_555
H15 B5 1_555 1_555
B6 B1 1_555 1_555
H16 B6 1_555 1_555
B7 B2 1_555 1_555
H17 B7 1_555 1_555
B8 B3 1_555 1_555
H18 B8 1_555 1_555
B9 C2 1_555 1_555
H19 B9 1_555 1_555
B10 B5 1_555 1_555
H20 B10 1_555 1_555
C2 B1 1_555 1_555
C2 B4 1_555 1_555
C9 C10 1_555 1_555
B1 B2 1_555 1_555
B1 B5 1_555 1_555
B2 B3 1_555 1_555
B2 B6 1_555 1_555
B3 B4 1_555 1_555
B3 B7 1_555 1_555
B4 B8 1_555 1_555
B4 B9 1_555 1_555
B5 B6 1_555 1_555
B5 B9 1_555 1_555
B6 B7 1_555 1_555
B6 B10 1_555 1_555
B7 B8 1_555 1_555
B7 B10 1_555 1_555
B8 B9 1_555 1_555
B8 B10 1_555 1_555
B9 B10 1_555 1_555

#END
