
#######################################################################
#
#                 Cambridge Crystallographic Data Centre
#                                CCDC 
#
#######################################################################
#
# If this CIF has been generated from an entry in the Cambridge 
# Structural Database, then it will include bibliographic, chemical, 
# crystal, experimental, refinement or atomic coordinate data resulting 
# from the CCDC's data processing and validation procedures.
#
#######################################################################

data_OFODEV
_chemical_formula_moiety         'C10 H17 B10 Cl1'
_chemical_name_systematic        
5-chloro-3,4-dihydronaphtho(1,2)-1,2-dicarba-closo-dodecaborane
_symmetry_cell_setting           monoclinic
_symmetry_space_group_name_H-M   'P 21/c'
_symmetry_Int_Tables_number      14
_space_group_name_Hall           '-P 2ybc'
loop_
_symmetry_equiv_pos_site_id
_symmetry_equiv_pos_as_xyz
1 x,y,z
2 -x,1/2+y,1/2-z
3 -x,-y,-z
4 x,1/2-y,1/2+z
_cell_length_a                   7.1341(2)
_cell_length_b                   10.0629(3)
_cell_length_c                   20.4753(7)
_cell_angle_alpha                90
_cell_angle_beta                 90.1952(18)
_cell_angle_gamma                90
_cell_volume                     1469.91
_exptl_crystal_colour            colorless
_exptl_crystal_description       block
_cell_formula_units_Z            4
loop_
_atom_site_label
_atom_site_type_symbol
_atom_site_fract_x
_atom_site_fract_y
_atom_site_fract_z
Cl1 Cl 0.24911(10) 0.66553(7) 0.49335(4)
C1 C 0.2839(3) 0.2366(2) 0.33237(10)
C2 C 0.2365(3) 0.1772(2) 0.40522(10)
C3 C 0.3433(4) 0.3809(3) 0.32969(12)
H1 H 0.3134 0.4160 0.2868
H2 H 0.4782 0.3857 0.3352
C4 C 0.2512(4) 0.4685(2) 0.38110(12)
H3 H 0.3151 0.5536 0.3820
H4 H 0.1222 0.4846 0.3683
C5 C 0.2532(3) 0.4107(2) 0.44867(11)
C6 C 0.2532(3) 0.4941(3) 0.50383(12)
C7 C 0.2556(4) 0.4452(3) 0.56707(13)
H5 H 0.2573 0.5031 0.6025
C8 C 0.2554(4) 0.3111(3) 0.57672(12)
H6 H 0.2574 0.2775 0.6190
C9 C 0.2521(3) 0.2239(3) 0.52389(11)
H7 H 0.2519 0.1325 0.5307
C10 C 0.2491(3) 0.2748(2) 0.46101(10)
B1 B 0.0527(4) 0.2027(3) 0.35070(13)
H8 H -0.0574 0.2784 0.3563
B2 B 0.1474(4) 0.1630(3) 0.27372(13)
H9 H 0.0987 0.2128 0.2290
B3 B 0.3853(4) 0.1182(3) 0.28424(14)
H10 H 0.4897 0.1396 0.2463
B4 B 0.4431(4) 0.1291(3) 0.36818(14)
H11 H 0.5840 0.1570 0.3853
B5 B 0.0635(4) 0.0609(3) 0.40073(14)
H12 H -0.0404 0.0442 0.4394
B6 B 0.0064(4) 0.0461(3) 0.31676(14)
H13 H -0.1348 0.0178 0.3001
B7 B 0.2126(5) -0.0070(3) 0.27491(14)
H14 H 0.2045 -0.0696 0.2309
B8 B 0.3951(5) -0.0264(3) 0.33299(15)
H15 H 0.5058 -0.1013 0.3266
B9 B 0.3022(4) 0.0141(3) 0.41095(14)
H16 H 0.3521 -0.0337 0.4561
B10 B 0.1608(5) -0.0702(3) 0.35389(15)
H17 H 0.1191 -0.1742 0.3616
loop_
_geom_bond_atom_site_label_1
_geom_bond_atom_site_label_2
_geom_bond_site_symmetry_1
_geom_bond_site_symmetry_2
Cl1 C6 1_555 1_555
C1 C2 1_555 1_555
C2 C10 1_555 1_555
C3 C1 1_555 1_555
H1 C3 1_555 1_555
H2 C3 1_555 1_555
C4 C3 1_555 1_555
H3 C4 1_555 1_555
H4 C4 1_555 1_555
C5 C4 1_555 1_555
C6 C5 1_555 1_555
C7 C6 1_555 1_555
H5 C7 1_555 1_555
C8 C7 1_555 1_555
H6 C8 1_555 1_555
C9 C8 1_555 1_555
H7 C9 1_555 1_555
C10 C5 1_555 1_555
B1 C1 1_555 1_555
H8 B1 1_555 1_555
B2 C1 1_555 1_555
H9 B2 1_555 1_555
B3 C1 1_555 1_555
H10 B3 1_555 1_555
B4 C1 1_555 1_555
H11 B4 1_555 1_555
B5 C2 1_555 1_555
H12 B5 1_555 1_555
B6 B1 1_555 1_555
H13 B6 1_555 1_555
B7 B2 1_555 1_555
H14 B7 1_555 1_555
B8 B3 1_555 1_555
H15 B8 1_555 1_555
B9 C2 1_555 1_555
H16 B9 1_555 1_555
B10 B5 1_555 1_555
H17 B10 1_555 1_555
C2 B1 1_555 1_555
C2 B4 1_555 1_555
C9 C10 1_555 1_555
B1 B2 1_555 1_555
B1 B5 1_555 1_555
B2 B3 1_555 1_555
B2 B6 1_555 1_555
B3 B4 1_555 1_555
B3 B7 1_555 1_555
B4 B8 1_555 1_555
B4 B9 1_555 1_555
B5 B6 1_555 1_555
B5 B9 1_555 1_555
B6 B7 1_555 1_555
B6 B10 1_555 1_555
B7 B8 1_555 1_555
B7 B10 1_555 1_555
B8 B9 1_555 1_555
B8 B10 1_555 1_555
B9 B10 1_555 1_555

#END
