
#######################################################################
#
#                 Cambridge Crystallographic Data Centre
#                                CCDC 
#
#######################################################################
#
# If this CIF has been generated from an entry in the Cambridge 
# Structural Database, then it will include bibliographic, chemical, 
# crystal, experimental, refinement or atomic coordinate data resulting 
# from the CCDC's data processing and validation procedures.
#
#######################################################################

data_OFODOF
_chemical_formula_moiety         'C16 H22 B10'
_chemical_name_systematic        
(3-phenyl-1,2,3,4-tetrahydronaphthalene-1,2-diyl)-1,2-dicarba-closo-dodecaborane
_symmetry_cell_setting           orthorhombic
_symmetry_space_group_name_H-M   'P n m a'
_symmetry_Int_Tables_number      62
_space_group_name_Hall           '-P 2ac 2n'
loop_
_symmetry_equiv_pos_site_id
_symmetry_equiv_pos_as_xyz
1 x,y,z
2 1/2-x,-y,1/2+z
3 -x,1/2+y,-z
4 1/2+x,1/2-y,1/2-z
5 -x,-y,-z
6 1/2+x,y,1/2-z
7 x,1/2-y,z
8 1/2-x,1/2+y,1/2+z
_cell_length_a                   10.2673(3)
_cell_length_b                   10.0990(4)
_cell_length_c                   17.9376(6)
_cell_angle_alpha                90
_cell_angle_beta                 90
_cell_angle_gamma                90
_cell_volume                     1859.94
_exptl_crystal_colour            colorless
_exptl_crystal_description       block
_cell_formula_units_Z            4
loop_
_atom_site_label
_atom_site_type_symbol
_atom_site_fract_x
_atom_site_fract_y
_atom_site_fract_z
C1 C 0.8079(4) 0.2500 0.0237(2)
C2 C 0.9408(3) 0.2500 0.0755(2)
C3 C 0.8341(5) 0.2500 -0.0604(3)
C4 C 0.9564(5) 0.2500 -0.0872(3)
H1 H 0.9629 0.3269 -0.1194
C5 C 1.0761(4) 0.2500 -0.0407(2)
C6 C 1.1987(4) 0.2500 -0.0740(3)
H2 H 1.2044 0.2500 -0.1257
C7 C 1.3108(4) 0.2500 -0.0328(3)
H3 H 1.3916 0.2500 -0.0562
C8 C 1.3023(5) 0.2500 0.0433(3)
H4 H 1.3778 0.2500 0.0719
C9 C 1.1823(4) 0.2500 0.0777(3)
H5 H 1.1774 0.2500 0.1294
C10 C 1.0693(4) 0.2500 0.0360(2)
C11 C 0.7177(4) 0.2500 -0.1098(2)
C12 C 0.6642(5) 0.3651(5) -0.1341(3)
H6 H 0.7002 0.4449 -0.1183
B1 B 0.8493(4) 0.1084(4) 0.0705(2)
H7 H 0.8816 0.0166 0.0431
B2 B 0.6865(3) 0.1625(5) 0.0663(2)
H8 H 0.6116 0.1054 0.0365
B3 B 0.9163(4) 0.1619(5) 0.1551(2)
H9 H 0.9924 0.1044 0.1837
B4 B 0.7532(4) 0.1091(5) 0.1512(3)
H10 H 0.7213 0.0167 0.1780
B5 B 0.6524(5) 0.2500 0.1484(3)
H11 H 0.5545 0.2500 0.1732
B6 B 0.7950(6) 0.2500 0.2037(3)
H12 H 0.7910 0.2500 0.2650
C13 C 0.5589(8) 0.3677(11) -0.1811(4)
H13 H 0.5204 0.4463 -0.1967
C14 C 0.5160(13) 0.2500 -0.2026(6)
H14 H 0.4479 0.2500 -0.2368
H1F H 0.9629 0.1731 -0.1194
C12F C 0.6642(5) 0.1349(5) -0.1341(3)
H6F H 0.7002 0.0551 -0.1183
B1F B 0.8493(4) 0.3916(4) 0.0705(2)
H7F H 0.8816 0.4834 0.0431
B2F B 0.6865(3) 0.3375(5) 0.0663(2)
H8F H 0.6116 0.3946 0.0365
B3F B 0.9163(4) 0.3381(5) 0.1551(2)
H9F H 0.9924 0.3956 0.1837
B4F B 0.7532(4) 0.3909(5) 0.1512(3)
H10F H 0.7213 0.4833 0.1780
C13F C 0.5589(8) 0.1323(11) -0.1811(4)
H13F H 0.5204 0.0537 -0.1967
H15? H 0.9629 0.3269 -0.1194
loop_
_geom_bond_atom_site_label_1
_geom_bond_atom_site_label_2
_geom_bond_site_symmetry_1
_geom_bond_site_symmetry_2
C1 C2 1_555 1_555
C2 C10 1_555 1_555
C3 C1 1_555 1_555
C4 C3 1_555 1_555
H1 C4 1_555 1_555
C5 C4 1_555 1_555
C6 C5 1_555 1_555
H2 C6 1_555 1_555
C7 C6 1_555 1_555
H3 C7 1_555 1_555
C8 C7 1_555 1_555
H4 C8 1_555 1_555
C9 C8 1_555 1_555
H5 C9 1_555 1_555
C10 C5 1_555 1_555
C11 C3 1_555 1_555
C12 C11 1_555 1_555
H6 C12 1_555 1_555
B1 C1 1_555 1_555
H7 B1 1_555 1_555
B2 C1 1_555 1_555
H8 B2 1_555 1_555
B3 C2 1_555 1_555
H9 B3 1_555 1_555
B4 B1 1_555 1_555
H10 B4 1_555 1_555
B5 B2 1_555 1_555
H11 B5 1_555 1_555
B6 B3 1_555 1_555
H12 B6 1_555 1_555
C13 C12 1_555 1_555
H13 C13 1_555 1_555
C14 C13 1_555 1_555
H14 C14 1_555 1_555
H1F C4 1_555 1_555
C12F C11 1_555 1_555
H6F C12F 1_555 1_555
B1F C1 1_555 1_555
H7F B1F 1_555 1_555
B2F C1 1_555 1_555
H8F B2F 1_555 1_555
B3F C2 1_555 1_555
H9F B3F 1_555 1_555
B4F B5 1_555 1_555
H10F B4F 1_555 1_555
C13F C14 1_555 1_555
H13F C13F 1_555 1_555
C2 B1 1_555 1_555
C2 B1F 1_555 1_555
C9 C10 1_555 1_555
B1 B2 1_555 1_555
B1 B3 1_555 1_555
B2 B4 1_555 1_555
B2 B2F 1_555 1_555
B3 B4 1_555 1_555
B3 B3F 1_555 1_555
B4 B5 1_555 1_555
B4 B6 1_555 1_555
B5 B6 1_555 1_555
B5 B2F 1_555 1_555
B6 B3F 1_555 1_555
B6 B4F 1_555 1_555
C12F C13F 1_555 1_555
B1F B2F 1_555 1_555
B1F B3F 1_555 1_555
B1F B4F 1_555 1_555
B2F B4F 1_555 1_555
B3F B4F 1_555 1_555

#END
