
#######################################################################
#
#                 Cambridge Crystallographic Data Centre
#                                CCDC 
#
#######################################################################
#
# If this CIF has been generated from an entry in the Cambridge 
# Structural Database, then it will include bibliographic, chemical, 
# crystal, experimental, refinement or atomic coordinate data resulting 
# from the CCDC's data processing and validation procedures.
#
#######################################################################

data_OFODIZ
_chemical_formula_moiety         'C10 H17 B10 F1'
_chemical_name_systematic        
6-fluoro-3,4-dihydronaphtho(1,2)-1,2-dicarba-closo-dodecaborane
_symmetry_cell_setting           monoclinic
_symmetry_space_group_name_H-M   'P 21/c'
_symmetry_Int_Tables_number      14
_space_group_name_Hall           '-P 2ybc'
loop_
_symmetry_equiv_pos_site_id
_symmetry_equiv_pos_as_xyz
1 x,y,z
2 -x,1/2+y,1/2-z
3 -x,-y,-z
4 x,1/2-y,1/2+z
_cell_length_a                   7.07460(10)
_cell_length_b                   9.7091(2)
_cell_length_c                   21.0343(4)
_cell_angle_alpha                90
_cell_angle_beta                 91.8497(11)
_cell_angle_gamma                90
_cell_volume                     1444.05
_exptl_crystal_colour            colorless
_exptl_crystal_description       block
_cell_formula_units_Z            4
loop_
_atom_site_label
_atom_site_type_symbol
_atom_site_fract_x
_atom_site_fract_y
_atom_site_fract_z
F1 F 0.2447(2) 1.09269(18) -0.08196(8)
C1 C 0.2091(3) 0.7067(2) 0.16963(8)
C2 C 0.2675(3) 0.66742(19) 0.09698(8)
C3 C 0.1451(3) 0.8537(2) 0.18058(10)
H1 H 0.1686 0.8771 0.2250
H2 H 0.0098 0.8595 0.1719
C4 C 0.2442(4) 0.9584(2) 0.13940(11)
H3 H 0.1814 1.0467 0.1433
H4 H 0.3734 0.9692 0.1554
C5 C 0.2467(3) 0.9199(2) 0.07031(10)
C6 C 0.2415(3) 1.0235(2) 0.02414(11)
H5 H 0.2329 1.1154 0.0362
C7 C 0.2491(3) 0.9894(3) -0.03847(11)
C8 C 0.2604(3) 0.8576(3) -0.05929(10)
H6 H 0.2647 0.8379 -0.1025
C9 C 0.2653(3) 0.7534(2) -0.01463(9)
H7 H 0.2729 0.6622 -0.0279
C10 C 0.2590(3) 0.7831(2) 0.04976(9)
B1 B 0.4453(3) 0.6788(3) 0.15532(10)
H8 H 0.5556 0.7586 0.1572
B2 B 0.3419(4) 0.6158(3) 0.22477(11)
H9 H 0.3853 0.6547 0.2721
B3 B 0.1031(4) 0.5724(3) 0.20570(12)
H10 H -0.0077 0.5837 0.2408
B4 B 0.0559(3) 0.6059(2) 0.12399(11)
H11 H -0.0844 0.6384 0.1056
B5 B 0.4438(3) 0.5463(3) 0.09795(11)
H12 H 0.5536 0.5399 0.0622
B6 B 0.4896(4) 0.5089(3) 0.17965(12)
H13 H 0.6303 0.4761 0.1976
B7 B 0.2787(4) 0.4420(3) 0.21147(13)
H14 H 0.2821 0.3659 0.2502
B8 B 0.1023(4) 0.4367(3) 0.14925(13)
H15 H -0.0086 0.3572 0.1477
B9 B 0.2051(4) 0.5005(2) 0.07912(12)
H16 H 0.1618 0.4639 0.0313
B10 B 0.3419(4) 0.3984(3) 0.13285(13)
H17 H 0.3868 0.2937 0.1203
loop_
_geom_bond_atom_site_label_1
_geom_bond_atom_site_label_2
_geom_bond_site_symmetry_1
_geom_bond_site_symmetry_2
F1 C7 1_555 1_555
C1 C2 1_555 1_555
C2 C10 1_555 1_555
C3 C1 1_555 1_555
H1 C3 1_555 1_555
H2 C3 1_555 1_555
C4 C3 1_555 1_555
H3 C4 1_555 1_555
H4 C4 1_555 1_555
C5 C4 1_555 1_555
C6 C5 1_555 1_555
H5 C6 1_555 1_555
C7 C6 1_555 1_555
C8 C7 1_555 1_555
H6 C8 1_555 1_555
C9 C8 1_555 1_555
H7 C9 1_555 1_555
C10 C5 1_555 1_555
B1 C1 1_555 1_555
H8 B1 1_555 1_555
B2 C1 1_555 1_555
H9 B2 1_555 1_555
B3 C1 1_555 1_555
H10 B3 1_555 1_555
B4 C1 1_555 1_555
H11 B4 1_555 1_555
B5 C2 1_555 1_555
H12 B5 1_555 1_555
B6 B1 1_555 1_555
H13 B6 1_555 1_555
B7 B2 1_555 1_555
H14 B7 1_555 1_555
B8 B3 1_555 1_555
H15 B8 1_555 1_555
B9 C2 1_555 1_555
H16 B9 1_555 1_555
B10 B5 1_555 1_555
H17 B10 1_555 1_555
C2 B1 1_555 1_555
C2 B4 1_555 1_555
C9 C10 1_555 1_555
B1 B2 1_555 1_555
B1 B5 1_555 1_555
B2 B3 1_555 1_555
B2 B6 1_555 1_555
B3 B4 1_555 1_555
B3 B7 1_555 1_555
B4 B8 1_555 1_555
B4 B9 1_555 1_555
B5 B6 1_555 1_555
B5 B9 1_555 1_555
B6 B7 1_555 1_555
B6 B10 1_555 1_555
B7 B8 1_555 1_555
B7 B10 1_555 1_555
B8 B9 1_555 1_555
B8 B10 1_555 1_555
B9 B10 1_555 1_555

#END
