
#######################################################################
#
#                 Cambridge Crystallographic Data Centre
#                                CCDC 
#
#######################################################################
#
# If this CIF has been generated from an entry in the Cambridge 
# Structural Database, then it will include bibliographic, chemical, 
# crystal, experimental, refinement or atomic coordinate data resulting 
# from the CCDC's data processing and validation procedures.
#
#######################################################################

data_OFOFAR
_chemical_name_common            
'5,5,8,8-Tetrapropyl-1,2-dihydroimidazo(1,2,3-ij)(1,8)naphthyridine-4,6,7,9(5H,8H)-tetraone tetrahydrofuran solvate'
_chemical_formula_moiety         'C22 H32 N2 O4,C4 H8 O1'
_chemical_name_systematic        
'5,5,8,8-Tetrapropyl-1,2-dihydro-4H,7H-imidazo[1,2,3-ij][1,8]naphthyridine-4,6,7,9(5H,8H)-tetrone tetrahydrofuran solvate'
_symmetry_cell_setting           monoclinic
_symmetry_space_group_name_H-M   'P 21/c'
_symmetry_Int_Tables_number      14
_space_group_name_Hall           '-P 2ybc'
loop_
_symmetry_equiv_pos_site_id
_symmetry_equiv_pos_as_xyz
1 x,y,z
2 -x,1/2+y,1/2-z
3 -x,-y,-z
4 x,1/2-y,1/2+z
_cell_length_a                   10.815(9)
_cell_length_b                   21.724(18)
_cell_length_c                   11.663(10)
_cell_angle_alpha                90
_cell_angle_beta                 104.101(15)
_cell_angle_gamma                90
_cell_volume                     2657.6
_exptl_crystal_colour            colorless
_exptl_crystal_description       cubic
_cell_formula_units_Z            4
_exptl_crystal_recrystallization_method pentane/tetrahydrofuran
loop_
_atom_site_label
_atom_site_type_symbol
_atom_site_fract_x
_atom_site_fract_y
_atom_site_fract_z
N1 N 0.2093(2) 0.34202(9) 0.11441(16)
N2 N 0.4197(2) 0.34330(9) 0.16261(16)
O1 O 0.18425(17) 0.28708(10) -0.22363(15)
O2 O 0.45391(18) 0.28695(11) -0.16047(17)
O3 O -0.0025(2) 0.34382(11) 0.09109(18)
O4 O 0.6300(2) 0.35019(13) 0.2351(2)
C1 C 0.3171(2) 0.31353(10) -0.03843(18)
C2 C 0.3157(2) 0.33181(10) 0.07403(19)
C3 C 0.0702(2) 0.31815(12) -0.0827(2)
C4 C 0.1952(2) 0.30442(11) -0.1218(2)
C5 C 0.4414(2) 0.30467(12) -0.0646(2)
C6 C 0.5634(2) 0.31785(13) 0.0319(2)
C7 C 0.0867(3) 0.33490(12) 0.0470(2)
C8 C 0.3848(3) 0.36112(14) 0.2726(2)
H1 H 0.4164 0.4019 0.2979
H2 H 0.4187 0.3321 0.3356
C9 C 0.5440(3) 0.33833(14) 0.1509(2)
C10 C 0.0037(3) 0.37360(14) -0.1558(3)
H3 H -0.0056 0.3646 -0.2390
H4 H -0.0813 0.3776 -0.1431
C11 C 0.2405(3) 0.36000(14) 0.2398(2)
H5 H 0.2080 0.3302 0.2871
H6 H 0.2058 0.4002 0.2501
C12 C -0.0174(2) 0.26128(14) -0.1106(2)
H7 H -0.0998 0.2719 -0.0969
H8 H -0.0304 0.2516 -0.1938
C13 C 0.0312(3) 0.20467(14) -0.0399(3)
H9 H 0.0346 0.2124 0.0427
H10 H 0.1173 0.1962 -0.0464
C14 C 0.6454(3) 0.25815(15) 0.0508(3)
H11 H 0.6613 0.2460 -0.0243
H12 H 0.7272 0.2673 0.1043
C15 C 0.6440(3) 0.36716(16) -0.0146(3)
H13 H 0.7276 0.3693 0.0396
H14 H 0.6557 0.3536 -0.0905
C16 C 0.5867(4) 0.20529(17) 0.0994(3)
H15 H 0.5032 0.1969 0.0484
H16 H 0.5754 0.2161 0.1769
C17 C 0.0022(4) 0.48675(19) -0.2069(4)
H17 H 0.0485 0.5245 -0.1861
H18 H -0.0823 0.4913 -0.1954
H19 H -0.0028 0.4772 -0.2882
C18 C 0.6678(4) 0.47395(18) -0.0857(4)
H20 H 0.6291 0.5140 -0.0938
H21 H 0.6708 0.4587 -0.1622
H22 H 0.7528 0.4767 -0.0364
C19 C 0.0709(4) 0.43470(15) -0.1286(3)
H23 H 0.1568 0.4310 -0.1393
H24 H 0.0773 0.4450 -0.0464
C20 C 0.5883(4) 0.42956(17) -0.0286(4)
H25 H 0.5843 0.4454 0.0482
H26 H 0.5020 0.4275 -0.0777
C21 C -0.0520(4) 0.14824(17) -0.0811(4)
H27 H -0.0171 0.1134 -0.0335
H28 H -0.0543 0.1399 -0.1624
H29 H -0.1369 0.1560 -0.0731
C22 C 0.6687(5) 0.1475(2) 0.1096(4)
H30 H 0.6280 0.1144 0.1408
H31 H 0.7508 0.1554 0.1614
H32 H 0.6790 0.1363 0.0328
O5 O 0.2974(10) 0.4192(3) 0.5017(7)
C23 C 0.3070(16) 0.4812(5) 0.4907(9)
H33 H 0.2264 0.4974 0.4453
H34 H 0.3715 0.4903 0.4482
C24 C 0.340(2) 0.5107(7) 0.6047(14)
H35 H 0.4212 0.5321 0.6170
H36 H 0.2750 0.5396 0.6137
C25 C 0.3485(17) 0.4595(9) 0.6840(9)
H37 H 0.3049 0.4690 0.7453
H38 H 0.4370 0.4505 0.7213
C26 C 0.288(2) 0.4061(8) 0.6140(12)
H39 H 0.3326 0.3683 0.6427
H40 H 0.1995 0.4021 0.6171
O6? O 0.249(2) 0.5019(6) 0.575(2)
C27? C 0.278(4) 0.4630(16) 0.670(2)
H41? H 0.2017 0.4500 0.6924
H42? H 0.3343 0.4832 0.7376
C28? C 0.344(3) 0.4091(10) 0.631(3)
H43? H 0.4227 0.3992 0.6889
H44? H 0.2893 0.3731 0.6181
C29? C 0.369(2) 0.4322(17) 0.520(2)
H45? H 0.3799 0.3993 0.4673
H46? H 0.4403 0.4604 0.5331
C30? C 0.242(2) 0.4643(15) 0.4797(18)
H47? H 0.2366 0.4876 0.4076
H48? H 0.1713 0.4358 0.4686
loop_
_geom_bond_atom_site_label_1
_geom_bond_atom_site_label_2
_geom_bond_site_symmetry_1
_geom_bond_site_symmetry_2
N1 C2 1_555 1_555
N2 C2 1_555 1_555
O1 C4 1_555 1_555
O2 C5 1_555 1_555
O3 C7 1_555 1_555
O4 C9 1_555 1_555
C1 C2 1_555 1_555
C3 C4 1_555 1_555
C4 C1 1_555 1_555
C5 C1 1_555 1_555
C6 C5 1_555 1_555
C7 N1 1_555 1_555
C8 N2 1_555 1_555
H1 C8 1_555 1_555
H2 C8 1_555 1_555
C9 N2 1_555 1_555
C10 C3 1_555 1_555
H3 C10 1_555 1_555
H4 C10 1_555 1_555
C11 N1 1_555 1_555
H5 C11 1_555 1_555
H6 C11 1_555 1_555
C12 C3 1_555 1_555
H7 C12 1_555 1_555
H8 C12 1_555 1_555
C13 C12 1_555 1_555
H9 C13 1_555 1_555
H10 C13 1_555 1_555
C14 C6 1_555 1_555
H11 C14 1_555 1_555
H12 C14 1_555 1_555
C15 C6 1_555 1_555
H13 C15 1_555 1_555
H14 C15 1_555 1_555
C16 C14 1_555 1_555
H15 C16 1_555 1_555
H16 C16 1_555 1_555
C17 H17 1_555 1_555
H18 C17 1_555 1_555
H19 C17 1_555 1_555
C18 H20 1_555 1_555
H21 C18 1_555 1_555
H22 C18 1_555 1_555
C19 C10 1_555 1_555
H23 C19 1_555 1_555
H24 C19 1_555 1_555
C20 C15 1_555 1_555
H25 C20 1_555 1_555
H26 C20 1_555 1_555
C21 C13 1_555 1_555
H27 C21 1_555 1_555
H28 C21 1_555 1_555
H29 C21 1_555 1_555
C22 C16 1_555 1_555
H30 C22 1_555 1_555
H31 C22 1_555 1_555
H32 C22 1_555 1_555
O5 C23 1_555 1_555
C23 H33 1_555 1_555
H34 C23 1_555 1_555
C24 C23 1_555 1_555
H35 C24 1_555 1_555
H36 C24 1_555 1_555
C25 C24 1_555 1_555
H37 C25 1_555 1_555
H38 C25 1_555 1_555
C26 O5 1_555 1_555
H39 C26 1_555 1_555
H40 C26 1_555 1_555
C3 C7 1_555 1_555
C6 C9 1_555 1_555
C8 C11 1_555 1_555
C17 C19 1_555 1_555
C18 C20 1_555 1_555
C25 C26 1_555 1_555

#END
