
#######################################################################
#
#                 Cambridge Crystallographic Data Centre
#                                CCDC 
#
#######################################################################
#
# If this CIF has been generated from an entry in the Cambridge 
# Structural Database, then it will include bibliographic, chemical, 
# crystal, experimental, refinement or atomic coordinate data resulting 
# from the CCDC's data processing and validation procedures.
#
#######################################################################

data_OFOGAR
_chemical_compound_source        'fruit of Melicope elleryana'
_chemical_formula_moiety         'C22 H22 O7'
_chemical_name_systematic        
3',5-Dihydroxy-3,4'-dimethoxy-7-(3-methylbut-2-enyloxy)flavone
_symmetry_cell_setting           triclinic
_symmetry_space_group_name_H-M   'P -1'
_symmetry_Int_Tables_number      2
_space_group_name_Hall           '-P 1'
loop_
_symmetry_equiv_pos_site_id
_symmetry_equiv_pos_as_xyz
1 x,y,z
2 -x,-y,-z
_cell_length_a                   10.755(3)
_cell_length_b                   11.282(5)
_cell_length_c                   8.2298(17)
_cell_angle_alpha                103.06(3)
_cell_angle_beta                 94.16(2)
_cell_angle_gamma                82.59(3)
_cell_volume                     963.659
_exptl_crystal_colour            yellow
_exptl_crystal_description       prismatic
_cell_formula_units_Z            2
loop_
_atom_site_label
_atom_site_type_symbol
_atom_site_fract_x
_atom_site_fract_y
_atom_site_fract_z
O1 O 0.87000(11) 0.06659(11) 0.23026(15)
O2 O 1.18086(12) 0.04323(12) 0.43267(17)
O3 O 1.08412(14) 0.27872(13) 0.57699(18)
O4 O 0.89707(16) 0.45022(13) 0.61711(19)
O5 O 0.51979(13) 0.37448(15) 0.31078(19)
O6 O 0.87561(12) -0.30885(12) -0.18080(17)
O7 O 1.08841(12) -0.45287(12) -0.13489(16)
C1 C 0.99075(16) 0.02128(16) 0.2681(2)
C2 C 1.06255(17) 0.09057(17) 0.3864(2)
C3 C 0.89004(17) 0.25655(16) 0.4271(2)
C4 C 1.01748(17) 0.21386(17) 0.4718(2)
C5 C 0.83066(19) 0.37373(18) 0.5020(2)
C6 C 0.70786(19) 0.40920(18) 0.4604(2)
C7 C 0.64182(17) 0.32986(18) 0.3409(2)
C8 C 0.81976(17) 0.18118(16) 0.3089(2)
C9 C 0.69610(17) 0.21547(17) 0.2617(2)
C10 C 1.02277(16) -0.10299(16) 0.1668(2)
C11 C 0.93748(16) -0.15110(16) 0.0388(2)
C12 C 0.96192(15) -0.26708(16) -0.0583(2)
C13 C 1.07375(16) -0.33947(16) -0.0306(2)
C14 C 1.15851(17) -0.29321(18) 0.0951(2)
C15 C 1.13311(17) -0.17627(18) 0.1927(2)
C16 C 1.2793(2) 0.0883(2) 0.3657(4)
C17 C 0.44687(19) 0.3055(2) 0.1778(3)
C18 C 0.48345(19) 0.3168(2) 0.0105(3)
C19 C 0.46414(19) 0.2431(2) -0.1351(3)
C20 C 1.20146(19) -0.53099(18) -0.1135(3)
C21 C 0.4991(3) 0.2711(3) -0.2949(3)
C22 C 0.4019(3) 0.1293(3) -0.1569(4)
H1 H 0.976(3) 0.411(3) 0.626(4)
H2 H 0.6682 0.4873 0.5127
H3 H 0.6508 0.1626 0.1787
H4 H 0.8614 -0.1024 0.0190
H5 H 0.895(3) -0.382(4) -0.236(4)
H6 H 1.2346 -0.3419 0.1146
H7 H 1.1921 -0.1458 0.2787
H8 H 0.5222 0.3924 0.0148
H9 H 1.2090 -0.5429 -0.0024
H10 H 1.1989 -0.6079 -0.1895
H11 H 1.2715 -0.4941 -0.1345
H12 H 1.3577 0.0621 0.4150
H13 H 1.2794 0.0575 0.2483
H14 H 1.2665 0.1752 0.3891
H15 H 0.4598 0.2217 0.1838
H16 H 0.3606 0.3353 0.1908
H17 H 0.5395 0.3436 -0.2701
H18 H 0.5544 0.2048 -0.3521
H19 H 0.4255 0.2826 -0.3633
H20 H 0.3992 0.1086 -0.0518
H21 H 0.4479 0.0642 -0.2308
H22 H 0.3188 0.1429 -0.2023
loop_
_geom_bond_atom_site_label_1
_geom_bond_atom_site_label_2
_geom_bond_site_symmetry_1
_geom_bond_site_symmetry_2
O1 C1 1_555 1_555
O2 C2 1_555 1_555
O3 C4 1_555 1_555
O4 C5 1_555 1_555
O5 C7 1_555 1_555
O6 C12 1_555 1_555
O7 C13 1_555 1_555
C1 C2 1_555 1_555
C2 C4 1_555 1_555
C3 C4 1_555 1_555
C5 C3 1_555 1_555
C6 C5 1_555 1_555
C7 C6 1_555 1_555
C8 O1 1_555 1_555
C9 C7 1_555 1_555
C10 C1 1_555 1_555
C11 C10 1_555 1_555
C12 C11 1_555 1_555
C13 C12 1_555 1_555
C14 C13 1_555 1_555
C15 C10 1_555 1_555
C16 O2 1_555 1_555
C17 O5 1_555 1_555
C18 C17 1_555 1_555
C19 C18 1_555 1_555
C20 O7 1_555 1_555
C21 C19 1_555 1_555
C22 C19 1_555 1_555
H1 O4 1_555 1_555
H2 C6 1_555 1_555
H3 C9 1_555 1_555
H4 C11 1_555 1_555
H5 O6 1_555 1_555
H6 C14 1_555 1_555
H7 C15 1_555 1_555
H8 C18 1_555 1_555
H9 C20 1_555 1_555
H10 C20 1_555 1_555
H11 C20 1_555 1_555
H12 C16 1_555 1_555
H13 C16 1_555 1_555
H14 C16 1_555 1_555
H15 C17 1_555 1_555
H16 C17 1_555 1_555
H17 C21 1_555 1_555
H18 C21 1_555 1_555
H19 C21 1_555 1_555
H20 C22 1_555 1_555
H21 C22 1_555 1_555
H22 C22 1_555 1_555
C3 C8 1_555 1_555
C8 C9 1_555 1_555
C14 C15 1_555 1_555

#END
