
#######################################################################
#
#                 Cambridge Crystallographic Data Centre
#                                CCDC 
#
#######################################################################
#
# If this CIF has been generated from an entry in the Cambridge 
# Structural Database, then it will include bibliographic, chemical, 
# crystal, experimental, refinement or atomic coordinate data resulting 
# from the CCDC's data processing and validation procedures.
#
#######################################################################

data_OFOHIC
_chemical_name_common            
'1,2-(1,4-Dimethoxypillar[3]arene[2]quinone) dichloromethane solvate'
_chemical_formula_moiety         'C41 H38 O10,2(C1 H2 Cl2)'
_chemical_name_systematic        
'14,19,24,26,28,30-Hexamethoxyhexacyclo[21.2.2.2^3,6^.2^8,11^.2^13,16^.2^18,21^]pentatriaconta-1(25),3(35),5,8(33),10,13,15,18,20,23,26,28,30-tridecaene-4,9,32,34-tetrone dichloromethane solvate'
_symmetry_cell_setting           triclinic
_symmetry_space_group_name_H-M   'P -1'
_symmetry_Int_Tables_number      2
_space_group_name_Hall           '-P 1'
loop_
_symmetry_equiv_pos_site_id
_symmetry_equiv_pos_as_xyz
1 x,y,z
2 -x,-y,-z
_cell_length_a                   12.2807(4)
_cell_length_b                   16.9836(5)
_cell_length_c                   22.1238(7)
_cell_angle_alpha                80.843(3)
_cell_angle_beta                 75.330(3)
_cell_angle_gamma                73.131(3)
_cell_volume                     4253.54
_exptl_crystal_colour            red
_exptl_crystal_description       platelet
_cell_formula_units_Z            4
loop_
_atom_site_label
_atom_site_type_symbol
_atom_site_fract_x
_atom_site_fract_y
_atom_site_fract_z
Cl1 Cl 0.5309(7) 0.8269(8) 0.9911(4)
Cl2 Cl 0.5398(5) 0.6609(6) 0.9864(4)
C1 C 0.5503(12) 0.7495(9) 0.9495(5)
H1 H 0.4927 0.7668 0.9225
H2 H 0.6286 0.7414 0.9213
Cl3 Cl 0.7805(4) 0.8359(3) 0.4368(2)
Cl4 Cl 0.9297(4) 0.6731(3) 0.45465(16)
C2 C 0.8237(11) 0.7405(7) 0.4161(5)
H3 H 0.8560 0.7421 0.3703
H4 H 0.7549 0.7178 0.4250
Cl5 Cl 0.2705(6) 0.9698(4) 0.6467(2)
Cl6 Cl 0.1381(7) 0.8524(4) 0.7062(4)
C3 C 0.1993(11) 0.8968(8) 0.6341(5)
H5 H 0.1377 0.9253 0.6107
H6 H 0.2566 0.8534 0.6089
Cl7 Cl 0.1821(4) 0.6466(5) 0.7618(2)
Cl8 Cl 0.3743(4) 0.5584(2) 0.67892(18)
C4 C 0.2809(13) 0.6417(13) 0.7035(9)
H7 H 0.3273 0.6780 0.7088
H8 H 0.2435 0.6687 0.6681
O1 O 0.9121(3) 0.8091(2) 0.97446(14)
O2 O 0.8610(4) 0.5747(2) 0.84434(16)
O3 O 0.7444(3) 0.8924(2) 0.77982(17)
O4 O 0.4871(3) 0.6736(2) 0.78131(15)
O5 O 0.3030(3) 0.9686(2) 0.86259(15)
O6 O 0.1834(3) 0.6819(2) 0.97569(15)
O7 O 0.1958(3) 0.9194(2) 1.10510(16)
O8 O 0.3683(3) 0.6011(2) 1.16583(17)
O9 O 0.5660(3) 0.8325(2) 1.15394(16)
O10 O 0.8186(4) 0.5291(3) 1.1164(3)
C5 C 0.9153(4) 0.6531(3) 1.03943(19)
H9 H 0.9563 0.5940 1.0458
H10 H 0.9645 0.6860 1.0471
C6 C 0.9013(4) 0.6735(3) 0.9711(2)
C7 C 0.8892(4) 0.6135(3) 0.93949(19)
H11 H 0.8892 0.5602 0.9606
C8 C 0.8773(4) 0.6294(3) 0.8782(2)
C9 C 0.8808(4) 0.7080(3) 0.8466(2)
C10 C 0.8934(4) 0.7671(3) 0.8783(2)
H12 H 0.8966 0.8198 0.8570
C11 C 0.9017(4) 0.7514(3) 0.9407(2)
C12 C 0.9199(5) 0.8871(3) 0.9417(3)
H13 H 0.9841 0.8789 0.9045
H14 H 0.9345 0.9209 0.9693
H15 H 0.8466 0.9153 0.9287
C13 C 0.8484(6) 0.4981(3) 0.8743(3)
H16 H 0.8146 0.4728 0.8493
H17 H 0.7968 0.5057 0.9159
H18 H 0.9249 0.4622 0.8788
C14 C 0.8641(4) 0.7277(3) 0.77954(19)
H19 H 0.9036 0.7709 0.7580
H20 H 0.9004 0.6776 0.7567
C15 C 0.7367(4) 0.7572(3) 0.77810(17)
C16 C 0.6727(4) 0.7012(3) 0.77828(19)
H21 H 0.7115 0.6441 0.7768
C17 C 0.5538(4) 0.7272(3) 0.78056(18)
C18 C 0.4943(4) 0.8108(3) 0.78267(18)
C19 C 0.5593(4) 0.8666(3) 0.78093(19)
H22 H 0.5215 0.9240 0.7806
C20 C 0.6778(4) 0.8402(3) 0.77972(19)
C21 C 0.6912(7) 0.9764(4) 0.7848(5)
H23 H 0.6616 1.0009 0.7470
H24 H 0.7482 1.0040 0.7894
H25 H 0.6262 0.9832 0.8217
C22 C 0.5406(5) 0.5882(3) 0.7895(3)
H26 H 0.6073 0.5729 0.7543
H27 H 0.4842 0.5569 0.7909
H28 H 0.5676 0.5754 0.8289
C23 C 0.3650(4) 0.8391(3) 0.78733(19)
H29 H 0.3425 0.8044 0.7631
H30 H 0.3441 0.8969 0.7687
C24 C 0.2975(4) 0.8336(3) 0.85529(19)
C25 C 0.2673(4) 0.7609(3) 0.8826(2)
H31 H 0.2852 0.7160 0.8580
C26 C 0.2110(4) 0.7534(3) 0.9456(2)
C27 C 0.1826(4) 0.8194(3) 0.9817(2)
C28 C 0.2118(4) 0.8915(3) 0.9546(2)
H32 H 0.1919 0.9370 0.9789
C29 C 0.2699(4) 0.8988(3) 0.8922(2)
C30 C 0.2626(7) 1.0397(4) 0.8963(3)
H33 H 0.2883 1.0858 0.8699
H34 H 0.2944 1.0281 0.9342
H35 H 0.1772 1.0544 0.9083
C31 C 0.2041(6) 0.6169(3) 0.9389(3)
H36 H 0.1705 0.6378 0.9019
H37 H 0.1679 0.5742 0.9636
H38 H 0.2883 0.5932 0.9256
C32 C 0.1187(4) 0.8128(3) 1.0502(2)
H39 H 0.0679 0.8678 1.0614
H40 H 0.0685 0.7747 1.0561
C33 C 0.2025(4) 0.7818(3) 1.09301(19)
C34 C 0.2493(4) 0.7031(3) 1.1077(2)
H41 H 0.2296 0.6629 1.0902
C35 C 0.3324(4) 0.6746(3) 1.1507(2)
C36 C 0.3658(4) 0.7387(3) 1.17467(19)
C37 C 0.3195(4) 0.8174(3) 1.1596(2)
H42 H 0.3406 0.8576 1.1763
C38 C 0.2362(4) 0.8459(3) 1.1179(2)
C39 C 0.4552(4) 0.7089(3) 1.2153(2)
H43 H 0.4462 0.7519 1.2429
H44 H 0.4426 0.6584 1.2422
C40 C 0.5773(4) 0.6902(3) 1.17406(19)
C41 C 0.6444(5) 0.6151(3) 1.1642(2)
H45 H 0.6167 0.5693 1.1858
C42 C 0.7595(5) 0.5989(3) 1.1217(2)
C43 C 0.8005(4) 0.6708(3) 1.08635(19)
C44 C 0.7359(4) 0.7450(3) 1.0976(2)
H46 H 0.7633 0.7907 1.0754
C45 C 0.6226(4) 0.7619(3) 1.14291(19)
O11 O 0.9492(3) 0.8932(2) 0.20765(17)
O12 O 1.2431(3) 0.6686(2) 0.34341(15)
O13 O 0.5496(3) 0.8212(2) 0.31010(16)
O14 O 0.9561(3) 0.5711(2) 0.26255(18)
O15 O 0.4377(4) 0.8529(2) 0.53587(18)
O16 O 0.6248(4) 0.5413(2) 0.45454(16)
O17 O 0.7204(4) 0.9436(2) 0.61192(19)
O18 O 0.7512(4) 0.6235(2) 0.62932(17)
O19 O 1.0232(3) 0.9613(2) 0.40083(15)
O20 O 1.1479(4) 0.7151(3) 0.56846(17)
C46 C 1.2176(4) 0.8343(3) 0.3529(2)
H47 H 1.2975 0.7975 0.3493
H48 H 1.2240 0.8911 0.3372
C47 C 1.1544(4) 0.8063(3) 0.31316(19)
C48 C 1.1671(4) 0.7227(3) 0.31056(19)
C49 C 1.1067(4) 0.6977(3) 0.2745(2)
H49 H 1.1157 0.6405 0.2733
C50 C 1.0338(4) 0.7553(3) 0.24051(19)
C51 C 1.0199(4) 0.8399(3) 0.2431(2)
C52 C 1.0798(4) 0.8638(3) 0.2790(2)
H50 H 1.0702 0.9211 0.2805
C53 C 0.9379(6) 0.9787(4) 0.2078(3)
H51 H 0.9020 0.9954 0.2503
H52 H 0.8887 1.0105 0.1789
H53 H 1.0152 0.9893 0.1943
C54 C 1.2630(6) 0.5827(4) 0.3394(3)
H54 H 1.3276 0.5517 0.3593
H55 H 1.2828 0.5718 0.2952
H56 H 1.1924 0.5653 0.3610
C55 C 0.9656(4) 0.7274(4) 0.2035(2)
H57 H 1.0146 0.6765 0.1841
H58 H 0.9461 0.7706 0.1694
C56 C 0.8537(4) 0.7106(3) 0.2451(2)
C57 C 0.8521(4) 0.6314(3) 0.2743(2)
C58 C 0.7499(4) 0.6177(3) 0.3129(2)
H59 H 0.7490 0.5636 0.3320
C59 C 0.6495(4) 0.6811(3) 0.32409(19)
C60 C 0.6511(4) 0.7610(3) 0.2966(2)
C61 C 0.7546(4) 0.7738(3) 0.2569(2)
H60 H 0.7559 0.8277 0.2376
C62 C 0.5583(6) 0.9039(4) 0.2941(3)
H61 H 0.4879 0.9416 0.3162
H62 H 0.5662 0.9176 0.2487
H63 H 0.6268 0.9097 0.3063
C63 C 0.9659(7) 0.4948(5) 0.3001(5)
H64 H 0.9502 0.5045 0.3443
H65 H 1.0450 0.4592 0.2878
H66 H 0.9095 0.4677 0.2940
C64 C 0.5393(4) 0.6648(3) 0.3685(2)
H67 H 0.4700 0.7010 0.3538
H68 H 0.5391 0.6067 0.3679
C65 C 0.5322(4) 0.6811(3) 0.4351(2)
C66 C 0.5791(4) 0.6166(3) 0.4766(2)
C67 C 0.5743(4) 0.6333(3) 0.5375(2)
H69 H 0.6044 0.5892 0.5660
C68 C 0.5272(4) 0.7117(3) 0.5571(2)
C69 C 0.4830(4) 0.7756(3) 0.5144(2)
C70 C 0.4849(4) 0.7592(3) 0.4543(2)
H70 H 0.4528 0.8028 0.4261
C71 C 0.4002(8) 0.9201(4) 0.4912(4)
H71 H 0.3756 0.9722 0.5106
H72 H 0.3346 0.9119 0.4775
H73 H 0.4648 0.9219 0.4548
C72 C 0.6693(7) 0.4734(4) 0.4967(3)
H74 H 0.6071 0.4673 0.5334
H75 H 0.7336 0.4840 0.5102
H76 H 0.6978 0.4226 0.4754
C73 C 0.5274(5) 0.7292(4) 0.6221(2)
H77 H 0.4546 0.7710 0.6380
H78 H 0.5290 0.6780 0.6508
C74 C 0.6306(5) 0.7601(3) 0.6223(2)
C75 C 0.7423(5) 0.6974(3) 0.6248(2)
C76 C 0.8455(5) 0.7279(3) 0.6222(2)
H79 H 0.9181 0.6884 0.6231
C77 C 0.8412(5) 0.8074(3) 0.61864(19)
C78 C 0.7283(5) 0.8694(3) 0.6166(2)
C79 C 0.6257(5) 0.8397(3) 0.6194(2)
H80 H 0.5529 0.8791 0.6192
C80 C 0.9446(5) 0.8386(3) 0.6144(2)
H81 H 0.9940 0.8019 0.6421
H82 H 0.9185 0.8946 0.6290
C81 C 1.0155(4) 0.8418(3) 0.5478(2)
C82 C 1.1182(5) 0.7724(3) 0.5298(2)
C83 C 1.1831(4) 0.7725(3) 0.4648(2)
H83 H 1.2488 0.7275 0.4533
C84 C 1.1543(4) 0.8330(3) 0.4208(2)
C85 C 1.0509(4) 0.9028(3) 0.4387(2)
C86 C 0.9838(5) 0.9018(3) 0.5037(2)
H84 H 0.9156 0.9453 0.5149
loop_
_geom_bond_atom_site_label_1
_geom_bond_atom_site_label_2
_geom_bond_site_symmetry_1
_geom_bond_site_symmetry_2
Cl1 C1 1_555 1_555
Cl2 C1 1_555 1_555
C1 H1 1_555 1_555
H2 C1 1_555 1_555
Cl3 C2 1_555 1_555
Cl4 C2 1_555 1_555
C2 H3 1_555 1_555
H4 C2 1_555 1_555
Cl5 C3 1_555 1_555
Cl6 C3 1_555 1_555
C3 H5 1_555 1_555
H6 C3 1_555 1_555
Cl7 C4 1_555 1_555
Cl8 C4 1_555 1_555
C4 H7 1_555 1_555
H8 C4 1_555 1_555
O1 C11 1_555 1_555
O2 C8 1_555 1_555
O3 C20 1_555 1_555
O4 C17 1_555 1_555
O5 C29 1_555 1_555
O6 C26 1_555 1_555
O7 C38 1_555 1_555
O8 C35 1_555 1_555
O9 C45 1_555 1_555
O10 C42 1_555 1_555
C5 H9 1_555 1_555
H10 C5 1_555 1_555
C6 C5 1_555 1_555
C7 C6 1_555 1_555
H11 C7 1_555 1_555
C8 C7 1_555 1_555
C9 C8 1_555 1_555
C10 C9 1_555 1_555
H12 C10 1_555 1_555
C11 C6 1_555 1_555
C12 O1 1_555 1_555
H13 C12 1_555 1_555
H14 C12 1_555 1_555
H15 C12 1_555 1_555
C13 O2 1_555 1_555
H16 C13 1_555 1_555
H17 C13 1_555 1_555
H18 C13 1_555 1_555
C14 C9 1_555 1_555
H19 C14 1_555 1_555
H20 C14 1_555 1_555
C15 C14 1_555 1_555
C16 C15 1_555 1_555
H21 C16 1_555 1_555
C17 C16 1_555 1_555
C18 C17 1_555 1_555
C19 C18 1_555 1_555
H22 C19 1_555 1_555
C20 C15 1_555 1_555
C21 O3 1_555 1_555
H23 C21 1_555 1_555
H24 C21 1_555 1_555
H25 C21 1_555 1_555
C22 O4 1_555 1_555
H26 C22 1_555 1_555
H27 C22 1_555 1_555
H28 C22 1_555 1_555
C23 C18 1_555 1_555
H29 C23 1_555 1_555
H30 C23 1_555 1_555
C24 C23 1_555 1_555
C25 C24 1_555 1_555
H31 C25 1_555 1_555
C26 C25 1_555 1_555
C27 C26 1_555 1_555
C28 C27 1_555 1_555
H32 C28 1_555 1_555
C29 C24 1_555 1_555
C30 O5 1_555 1_555
H33 C30 1_555 1_555
H34 C30 1_555 1_555
H35 C30 1_555 1_555
C31 O6 1_555 1_555
H36 C31 1_555 1_555
H37 C31 1_555 1_555
H38 C31 1_555 1_555
C32 C27 1_555 1_555
H39 C32 1_555 1_555
H40 C32 1_555 1_555
C33 C32 1_555 1_555
C34 C33 1_555 1_555
H41 C34 1_555 1_555
C35 C34 1_555 1_555
C36 C35 1_555 1_555
C37 C36 1_555 1_555
H42 C37 1_555 1_555
C38 C33 1_555 1_555
C39 C36 1_555 1_555
H43 C39 1_555 1_555
H44 C39 1_555 1_555
C40 C39 1_555 1_555
C41 C40 1_555 1_555
H45 C41 1_555 1_555
C42 C41 1_555 1_555
C43 C5 1_555 1_555
C44 C43 1_555 1_555
H46 C44 1_555 1_555
C45 C40 1_555 1_555
O11 C51 1_555 1_555
O12 C48 1_555 1_555
O13 C60 1_555 1_555
O14 C57 1_555 1_555
O15 C69 1_555 1_555
O16 C66 1_555 1_555
O17 C78 1_555 1_555
O18 C75 1_555 1_555
O19 C85 1_555 1_555
O20 C82 1_555 1_555
C46 H47 1_555 1_555
H48 C46 1_555 1_555
C47 C46 1_555 1_555
C48 C47 1_555 1_555
C49 C48 1_555 1_555
H49 C49 1_555 1_555
C50 C49 1_555 1_555
C51 C50 1_555 1_555
C52 C47 1_555 1_555
H50 C52 1_555 1_555
C53 O11 1_555 1_555
H51 C53 1_555 1_555
H52 C53 1_555 1_555
H53 C53 1_555 1_555
C54 O12 1_555 1_555
H54 C54 1_555 1_555
H55 C54 1_555 1_555
H56 C54 1_555 1_555
C55 C50 1_555 1_555
H57 C55 1_555 1_555
H58 C55 1_555 1_555
C56 C55 1_555 1_555
C57 C56 1_555 1_555
C58 C57 1_555 1_555
H59 C58 1_555 1_555
C59 C58 1_555 1_555
C60 C59 1_555 1_555
C61 C56 1_555 1_555
H60 C61 1_555 1_555
C62 O13 1_555 1_555
H61 C62 1_555 1_555
H62 C62 1_555 1_555
H63 C62 1_555 1_555
C63 O14 1_555 1_555
H64 C63 1_555 1_555
H65 C63 1_555 1_555
H66 C63 1_555 1_555
C64 C59 1_555 1_555
H67 C64 1_555 1_555
H68 C64 1_555 1_555
C65 C64 1_555 1_555
C66 C65 1_555 1_555
C67 C66 1_555 1_555
H69 C67 1_555 1_555
C68 C67 1_555 1_555
C69 C68 1_555 1_555
C70 C65 1_555 1_555
H70 C70 1_555 1_555
C71 O15 1_555 1_555
H71 C71 1_555 1_555
H72 C71 1_555 1_555
H73 C71 1_555 1_555
C72 O16 1_555 1_555
H74 C72 1_555 1_555
H75 C72 1_555 1_555
H76 C72 1_555 1_555
C73 C68 1_555 1_555
H77 C73 1_555 1_555
H78 C73 1_555 1_555
C74 C73 1_555 1_555
C75 C74 1_555 1_555
C76 C75 1_555 1_555
H79 C76 1_555 1_555
C77 C76 1_555 1_555
C78 C77 1_555 1_555
C79 C74 1_555 1_555
H80 C79 1_555 1_555
C80 C77 1_555 1_555
H81 C80 1_555 1_555
H82 C80 1_555 1_555
C81 C80 1_555 1_555
C82 C81 1_555 1_555
C83 C82 1_555 1_555
H83 C83 1_555 1_555
C84 C46 1_555 1_555
C85 C84 1_555 1_555
C86 C81 1_555 1_555
H84 C86 1_555 1_555
C10 C11 1_555 1_555
C19 C20 1_555 1_555
C28 C29 1_555 1_555
C37 C38 1_555 1_555
C42 C43 1_555 1_555
C44 C45 1_555 1_555
C51 C52 1_555 1_555
C60 C61 1_555 1_555
C69 C70 1_555 1_555
C78 C79 1_555 1_555
C83 C84 1_555 1_555
C85 C86 1_555 1_555

#END
