
#######################################################################
#
#                 Cambridge Crystallographic Data Centre
#                                CCDC 
#
#######################################################################
#
# If this CIF has been generated from an entry in the Cambridge 
# Structural Database, then it will include bibliographic, chemical, 
# crystal, experimental, refinement or atomic coordinate data resulting 
# from the CCDC's data processing and validation procedures.
#
#######################################################################

data_OFOKOM
_chemical_formula_moiety         'C12 H14 I1 N1 O4'
_chemical_name_systematic        3-iodo-2-[(4-nitrophenyl)methoxy]oxane
_symmetry_cell_setting           monoclinic
_symmetry_space_group_name_H-M   'P 21'
_symmetry_Int_Tables_number      4
_space_group_name_Hall           'P 2yb'
loop_
_symmetry_equiv_pos_site_id
_symmetry_equiv_pos_as_xyz
1 x,y,z
2 -x,1/2+y,-z
_cell_length_a                   5.9472(5)
_cell_length_b                   13.4481(10)
_cell_length_c                   8.6949(7)
_cell_angle_alpha                90
_cell_angle_beta                 101.777(8)
_cell_angle_gamma                90
_cell_volume                     680.767
_exptl_crystal_description       block
_cell_formula_units_Z            2
loop_
_atom_site_label
_atom_site_type_symbol
_atom_site_fract_x
_atom_site_fract_y
_atom_site_fract_z
I1 I 0.92733(11) 0.17664(12) 0.05578(7)
O1 O 0.5137(14) 0.1593(7) -0.2526(9)
O2 O 0.3957(19) 0.3198(8) -0.2855(12)
N1 N 0.3800(18) -0.3015(8) -0.4122(11)
O3 O 0.564(2) -0.3402(8) -0.3705(12)
O4 O 0.2065(19) -0.3472(7) -0.4732(13)
C1 C 0.132(2) -0.0490(9) -0.4079(13)
H1 H -0.0100 -0.0179 -0.4373
C2 C 0.3586(19) -0.1952(8) -0.3900(11)
C3 C 0.507(2) 0.2489(9) -0.1764(12)
H2 H 0.4276 0.2418 -0.0887
C4 C 0.3233(18) 0.0080(9) -0.3369(11)
C5 C 0.555(2) -0.1427(10) -0.3204(14)
H3 H 0.6960 -0.1746 -0.2926
C6 C 0.1472(19) -0.1496(9) -0.4355(12)
H4 H 0.0186 -0.1858 -0.4835
C7 C 0.7547(19) 0.2816(9) -0.1179(12)
H5 H 0.8336 0.2838 -0.2064
C8 C 0.292(2) 0.1139(11) -0.3007(15)
H6 H 0.2066 0.1475 -0.3930
H7 H 0.2067 0.1195 -0.2174
C9 C 0.762(3) 0.3851(9) -0.0420(14)
H8 H 0.6981 0.3820 0.0518
H9 H 0.9201 0.4076 -0.0122
C10 C 0.624(3) 0.4574(12) -0.1595(19)
H10 H 0.6995 0.4671 -0.2473
H11 H 0.6134 0.5212 -0.1096
C11 C 0.5351(19) -0.0409(10) -0.2933(15)
H12 H 0.6644 -0.0051 -0.2457
C12 C 0.382(3) 0.4139(11) -0.218(2)
H13 H 0.3036 0.4083 -0.1310
H14 H 0.2932 0.4583 -0.2956
loop_
_geom_bond_atom_site_label_1
_geom_bond_atom_site_label_2
_geom_bond_site_symmetry_1
_geom_bond_site_symmetry_2
I1 C7 1_555 1_555
O1 C3 1_555 1_555
O2 C3 1_555 1_555
N1 O3 1_555 1_555
O4 N1 1_555 1_555
C1 H1 1_555 1_555
C2 N1 1_555 1_555
C3 H2 1_555 1_555
C4 C1 1_555 1_555
C5 C2 1_555 1_555
H3 C5 1_555 1_555
C6 C1 1_555 1_555
H4 C6 1_555 1_555
C7 C3 1_555 1_555
H5 C7 1_555 1_555
C8 O1 1_555 1_555
H6 C8 1_555 1_555
H7 C8 1_555 1_555
C9 C7 1_555 1_555
H8 C9 1_555 1_555
H9 C9 1_555 1_555
C10 C9 1_555 1_555
H10 C10 1_555 1_555
H11 C10 1_555 1_555
C11 C4 1_555 1_555
H12 C11 1_555 1_555
C12 O2 1_555 1_555
H13 C12 1_555 1_555
H14 C12 1_555 1_555
C2 C6 1_555 1_555
C4 C8 1_555 1_555
C5 C11 1_555 1_555
C10 C12 1_555 1_555

#END
