
#######################################################################
#
#                 Cambridge Crystallographic Data Centre
#                                CCDC 
#
#######################################################################
#
# If this CIF has been generated from an entry in the Cambridge 
# Structural Database, then it will include bibliographic, chemical, 
# crystal, experimental, refinement or atomic coordinate data resulting 
# from the CCDC's data processing and validation procedures.
#
#######################################################################

data_OFOKAV
_chemical_formula_moiety         'C56 H38 F36 O8 S2'
_chemical_name_systematic        
(S)-2,2'-bis((1S)-Camphor-10-sulfonyl)-4,4',6,6'-tetrakis(perfluorobutyl)-1,1'-binaphthyl
_symmetry_cell_setting           triclinic
_symmetry_space_group_name_H-M   'P 1'
_symmetry_Int_Tables_number      1
_space_group_name_Hall           'P 1'
loop_
_symmetry_equiv_pos_site_id
_symmetry_equiv_pos_as_xyz
1 x,y,z
_cell_length_a                   11.390(2)
_cell_length_b                   17.121(3)
_cell_length_c                   19.013(4)
_cell_angle_alpha                116.51(1)
_cell_angle_beta                 104.67(1)
_cell_angle_gamma                90.02(1)
_cell_volume                     3182.04
_exptl_crystal_colour            colorless
_exptl_crystal_description       prism
_chemical_melting_point          '134-135 deg.C'
_cell_formula_units_Z            2
_exptl_crystal_recrystallization_method 'hexane/dichloromethane 3:5'
loop_
_atom_site_label
_atom_site_type_symbol
_atom_site_fract_x
_atom_site_fract_y
_atom_site_fract_z
S1 S 0.1160(2) 0.61507(16) 0.17661(15)
S2 S 0.4373(2) 0.38252(16) 0.14988(15)
O1 O 0.1907(8) 0.5712(6) 0.1266(6)
O2 O 0.1736(7) 0.6857(5) 0.2564(4)
O3 O 0.0405(5) 0.5432(4) 0.1879(3)
O4 O 0.0008(16) 0.6735(8) -0.0111(7)
O5 O 0.4957(9) 0.3932(6) 0.0971(5)
O6 O 0.4090(8) 0.2964(5) 0.1435(7)
O7 O 0.3127(5) 0.4244(4) 0.1426(4)
O8 O 0.7570(8) 0.4801(8) 0.2431(6)
C1 C 0.0964(8) 0.5166(5) 0.2481(5)
C2 C 0.1152(8) 0.5767(6) 0.3305(5)
H1 H 0.0941 0.6332 0.3448
C3 C 0.1643(8) 0.5527(6) 0.3895(5)
C4 C 0.2463(10) 0.4323(6) 0.4235(6)
H2 H 0.2501 0.4671 0.4783
C5 C 0.2833(10) 0.3479(7) 0.3992(6)
C6 C 0.2734(10) 0.2929(7) 0.3162(7)
H3 H 0.2994 0.2377 0.3000
C7 C 0.2248(8) 0.3213(6) 0.2587(6)
H4 H 0.2167 0.2842 0.2037
C8 C 0.1337(8) 0.4335(6) 0.2220(5)
C9 C 0.1870(7) 0.4058(5) 0.2821(5)
C10 C 0.2036(8) 0.4657(6) 0.3671(5)
C11 C 0.1994(7) 0.3677(6) 0.0939(5)
C12 C 0.1798(8) 0.3156(6) 0.0103(5)
H5 H 0.2418 0.3167 -0.0132
C13 C 0.0729(8) 0.2635(6) -0.0378(5)
C14 C -0.1357(8) 0.2030(6) -0.0458(5)
H6 H -0.1475 0.1617 -0.1002
C15 C -0.2254(8) 0.2061(7) -0.0097(6)
C16 C -0.2095(9) 0.2690(7) 0.0724(6)
H7 H -0.2732 0.2730 0.0958
C17 C -0.1055(9) 0.3228(7) 0.1171(5)
H8 H -0.0974 0.3630 0.1714
C18 C 0.1118(7) 0.3759(5) 0.1342(5)
C19 C -0.0052(8) 0.3202(5) 0.0832(4)
C20 C -0.0209(7) 0.2630(5) -0.0015(5)
C21 C -0.0825(7) 0.5863(6) 0.0386(5)
C22 C -0.0492(12) 0.4875(6) -0.0058(6)
H9 H 0.0219 0.4868 -0.0253
H10 H -0.0333 0.4614 0.0311
C23 C -0.1671(11) 0.4377(7) -0.0791(6)
H11 H -0.1481 0.4115 -0.1312
H12 H -0.2075 0.3923 -0.0729
C24 C -0.2445(12) 0.5111(12) -0.0720(8)
H13 H -0.3310 0.4904 -0.1028
C25 C -0.1815(19) 0.5693(10) -0.0975(8)
H14 H -0.1544 0.5343 -0.1455
H15 H -0.2351 0.6090 -0.1085
C26 C -0.0762(14) 0.6180(7) -0.0236(6)
C27 C -0.2224(10) 0.5661(10) 0.0223(7)
C28 C -0.2563(18) 0.5170(16) 0.0659(11)
H16 H -0.3437 0.5081 0.0542
H17 H -0.2204 0.5510 0.1240
H18 H -0.2262 0.4610 0.0471
C29 C -0.2748(15) 0.658(2) 0.0450(12)
H19 H -0.2499 0.6855 0.0155
H20 H -0.2434 0.6963 0.1028
H21 H -0.3626 0.6488 0.0302
C30 C -0.0094(9) 0.6490(6) 0.1268(5)
H22 H -0.0663 0.6648 0.1598
H23 H 0.0201 0.7024 0.1273
C31 C 0.5730(7) 0.5464(6) 0.2728(5)
C32 C 0.5173(9) 0.5924(7) 0.2207(7)
H24 H 0.5386 0.5671 0.1694
H25 H 0.4288 0.5862 0.2087
C33 C 0.5710(13) 0.6886(8) 0.2717(9)
H26 H 0.5081 0.7259 0.2862
H27 H 0.6142 0.7078 0.2431
C34 C 0.6599(11) 0.6887(7) 0.3481(7)
H28 H 0.6861 0.7468 0.3960
C35 C 0.7647(9) 0.6391(8) 0.3190(6)
H29 H 0.7920 0.6578 0.2839
H30 H 0.8337 0.6480 0.3651
C36 C 0.7070(9) 0.5445(8) 0.2722(7)
C37 C 0.5885(8) 0.6213(6) 0.3610(5)
C38 C 0.6637(13) 0.5971(10) 0.4272(7)
H31 H 0.6722 0.6451 0.4806
H32 H 0.7433 0.5859 0.4195
H33 H 0.6222 0.5454 0.4223
C39 C 0.4644(12) 0.6494(11) 0.3736(9)
H34 H 0.4213 0.6622 0.3304
H35 H 0.4774 0.7010 0.4254
H36 H 0.4170 0.6026 0.3730
C40 C 0.5091(9) 0.4557(6) 0.2550(5)
H37 H 0.4479 0.4669 0.2845
H38 H 0.5699 0.4265 0.2767
C41 C 0.1807(9) 0.6190(7) 0.4783(5)
C42 C 0.0787(10) 0.6087(8) 0.5145(6)
C43 C 0.1030(17) 0.6588(12) 0.6050(9)
C44 C -0.0021(19) 0.6691(14) 0.6409(9)
C45 C 0.3227(12) 0.3153(9) 0.4627(7)
C46 C 0.4457(13) 0.3611(10) 0.5244(7)
C47 C 0.497(2) 0.3317(12) 0.5890(13)
C48 C 0.609(3) 0.392(3) 0.6603(12)
C49 C 0.0593(9) 0.2099(7) -0.1286(5)
C50 C 0.0876(11) 0.1161(7) -0.1549(5)
C51 C 0.0758(19) 0.0542(10) -0.2495(8)
C52 C 0.101(3) -0.0349(15) -0.2806(14)
C53 C -0.3415(10) 0.1403(9) -0.0593(7)
C54 C -0.4504(12) 0.1678(9) -0.0946(11)
C55 C -0.4492(17) 0.2195(15) -0.1380(16)
C56 C -0.5465(17) 0.2423(15) -0.1862(13)
F1 F 0.1850(8) 0.7018(4) 0.4841(4)
F2 F 0.2905(5) 0.6172(5) 0.5271(3)
F3 F -0.0176(9) 0.6352(13) 0.4789(7)
F4 F 0.0507(12) 0.5255(7) 0.4925(7)
F5 F 0.1693(9) 0.7378(6) 0.6385(4)
F6 F 0.1812(11) 0.6130(9) 0.6390(6)
F7 F -0.0797(14) 0.5973(15) 0.6046(10)
F8 F 0.0306(18) 0.7063(14) 0.7201(6)
F9 F -0.0659(17) 0.7249(12) 0.6318(15)
F10 F 0.3302(14) 0.2299(6) 0.4265(6)
F11 F 0.2432(9) 0.3286(10) 0.5054(8)
F12 F 0.5203(11) 0.360(2) 0.4856(11)
F13 F 0.435(2) 0.4441(10) 0.5668(13)
F14 F 0.555(2) 0.2585(17) 0.5419(15)
F16 F 0.4282(12) 0.2783(10) 0.5938(9)
F17 F 0.6534(18) 0.3515(12) 0.7029(12)
F18 F 0.6799(16) 0.4263(18) 0.6428(14)
F19 F 0.548(2) 0.4524(17) 0.7186(11)
F20 F 0.1353(7) 0.2516(5) -0.1511(4)
F21 F -0.0567(6) 0.2091(5) -0.1744(3)
F22 F 0.2043(8) 0.1193(6) -0.1167(5)
F23 F 0.0210(11) 0.0746(5) -0.1331(6)
F24 F -0.028(2) 0.0585(15) -0.2901(6)
F25 F 0.089(2) 0.0973(13) -0.2843(14)
F27 F 0.083(3) -0.0725(9) -0.2443(11)
F28 F 0.214(4) -0.0305(18) -0.258(3)
F29 F 0.087(3) -0.0794(9) -0.3513(7)
F30 F -0.3734(10) 0.1090(9) -0.0120(6)
F31 F -0.3178(7) 0.0670(6) -0.1177(6)
F32 F -0.5008(12) 0.2206(9) -0.0308(8)
F33 F -0.5380(8) 0.0961(6) -0.1483(7)
F34 F -0.3651(8) 0.1761(12) -0.1876(5)
F35 F -0.3847(12) 0.3044(7) -0.0729(10)
F36 F -0.6165(16) 0.282(2) -0.1343(18)
F37 F -0.5173(17) 0.2893(19) -0.2133(15)
F38 F -0.612(2) 0.1750(13) -0.2449(9)
S3 S 0.1934(2) -0.09434(18) 0.19591(15)
S4 S 0.5144(2) 0.11082(15) 0.16851(15)
O9 O 0.2199(8) -0.1732(6) 0.2024(6)
O10 O 0.1374(8) -0.0298(7) 0.2501(5)
O11 O 0.3187(5) -0.0453(4) 0.2028(4)
O12 O -0.1228(9) -0.0921(8) 0.1023(6)
O13 O 0.4413(7) 0.1186(5) 0.2215(6)
O14 O 0.4576(8) 0.1017(5) 0.0884(5)
O15 O 0.5920(6) 0.0283(4) 0.1577(4)
O16 O 0.6306(16) 0.3572(8) 0.3573(7)
C57 C 0.4322(7) -0.0533(5) 0.2505(5)
C58 C 0.4468(8) -0.0212(6) 0.3357(5)
H39 H 0.3840 0.0018 0.3588
C59 C 0.5599(8) -0.0258(6) 0.3832(5)
C60 C 0.7686(8) -0.0783(7) 0.3921(5)
H40 H 0.7827 -0.0638 0.4471
C61 C 0.8547(8) -0.1119(7) 0.3550(6)
C62 C 0.8405(8) -0.1312(7) 0.2726(6)
H41 H 0.9038 -0.1516 0.2490
C63 C 0.7356(8) -0.1202(6) 0.2284(5)
H42 H 0.7269 -0.1328 0.1743
C64 C 0.5183(7) -0.0845(5) 0.2140(5)
C65 C 0.6370(7) -0.0893(5) 0.2631(5)
C66 C 0.6518(7) -0.0638(5) 0.3476(5)
C67 C 0.5315(8) -0.0569(6) 0.0993(5)
C68 C 0.5161(8) -0.0812(6) 0.0143(5)
H43 H 0.5410 -0.0408 -0.0010
C69 C 0.4647(8) -0.1640(6) -0.0430(5)
C70 C 0.3813(9) -0.3185(6) -0.0790(5)
H44 H 0.3700 -0.3375 -0.1346
C71 C 0.3515(9) -0.3767(6) -0.0535(5)
C72 C 0.3560(10) -0.3501(6) 0.0294(6)
H45 H 0.3263 -0.3887 0.0449
C73 C 0.4068(8) -0.2639(6) 0.0867(5)
H46 H 0.4156 -0.2464 0.1418
C74 C 0.4994(7) -0.1141(5) 0.1240(5)
C75 C 0.4450(8) -0.2024(6) 0.0643(5)
C76 C 0.4294(7) -0.2289(6) -0.0219(5)
C77 C 0.0565(7) -0.0544(5) 0.0739(5)
C78 C 0.1140(9) 0.0438(6) 0.1275(6)
H47 H 0.0909 0.0693 0.1782
H48 H 0.2025 0.0488 0.1406
C79 C 0.0626(12) 0.0914(8) 0.0751(8)
H49 H 0.1262 0.1112 0.0588
H50 H 0.0226 0.1411 0.1039
C80 C -0.0329(11) 0.0139(8) -0.0013(7)
H51 H -0.0606 0.0242 -0.0492
C81 C -0.1320(8) -0.0033(8) 0.0283(7)
H52 H -0.2030 -0.0382 -0.0171
H53 H -0.1559 0.0512 0.0644
C82 C -0.0754(9) -0.0551(7) 0.0752(6)
C83 C 0.0420(8) -0.0670(7) -0.0156(6)
C84 C 0.1633(13) -0.0569(13) -0.0322(9)
H54 H 0.2097 -0.0014 0.0091
H55 H 0.1484 -0.0590 -0.0851
H56 H 0.2086 -0.1038 -0.0311
C85 C -0.0313(12) -0.1560(10) -0.0824(7)
H57 H -0.1085 -0.1628 -0.0727
H58 H 0.0140 -0.2028 -0.0812
H59 H -0.0453 -0.1578 -0.1352
C86 C 0.1217(9) -0.1262(6) 0.0893(6)
H60 H 0.1837 -0.1420 0.0602
H61 H 0.0627 -0.1782 0.0666
C87 C 0.7137(7) 0.2206(5) 0.3075(5)
C88 C 0.6811(12) 0.1663(7) 0.3522(6)
H62 H 0.6099 0.1846 0.3717
H63 H 0.6663 0.1034 0.3158
C89 C 0.7992(12) 0.1911(8) 0.4250(7)
H64 H 0.7802 0.2165 0.4771
H65 H 0.8409 0.1401 0.4193
C90 C 0.8743(12) 0.2569(11) 0.4180(7)
H66 H 0.9606 0.2664 0.4489
C91 C 0.8154(19) 0.3402(10) 0.4440(9)
H67 H 0.8693 0.3900 0.4537
H68 H 0.7894 0.3538 0.4926
C92 C 0.7054(14) 0.3132(7) 0.3676(6)
C93 C 0.8548(10) 0.2166(12) 0.3233(7)
C94 C 0.8841(17) 0.1212(17) 0.2796(10)
H69 H 0.9712 0.1215 0.2906
H70 H 0.8474 0.0972 0.2216
H71 H 0.8520 0.0858 0.2996
C95 C 0.9104(18) 0.283(3) 0.2994(12)
H72 H 0.8881 0.3401 0.3284
H73 H 0.8790 0.2626 0.2415
H74 H 0.9980 0.2856 0.3139
C96 C 0.6416(10) 0.1966(6) 0.2205(6)
H75 H 0.6987 0.1806 0.1877
H76 H 0.6114 0.2495 0.2204
C97 C 0.5738(9) 0.0126(7) 0.4749(6)
C98 C 0.5406(11) -0.0549(8) 0.5028(6)
C99 C 0.5567(17) -0.0231(9) 0.5920(7)
C100 C 0.531(2) -0.078(2) 0.6278(13)
C101 C 0.9722(11) -0.1268(9) 0.4044(7)
C102 C 1.0814(13) -0.0653(11) 0.4391(9)
C103 C 1.0827(19) 0.0273(13) 0.4782(15)
C104 C 1.179(2) 0.1015(15) 0.5279(13)
C105 C 0.4483(9) -0.1863(8) -0.1336(5)
C106 C 0.5513(10) -0.2325(8) -0.1693(7)
C107 C 0.5262(16) -0.2749(13) -0.2622(9)
C108 C 0.637(2) -0.2972(17) -0.2935(10)
C109 C 0.3063(12) -0.4756(7) -0.1165(6)
C110 C 0.1883(12) -0.4909(9) -0.1788(9)
C111 C 0.132(2) -0.5850(11) -0.2469(13)
C112 C 0.043(3) -0.605(2) -0.3270(19)
F39 F 0.6877(6) 0.0542(4) 0.5204(3)
F40 F 0.4966(7) 0.0756(5) 0.4962(4)
F41 F 0.6120(9) -0.1196(5) 0.4784(6)
F42 F 0.4267(8) -0.0937(8) 0.4598(6)
F43 F 0.443(2) 0.0195(14) 0.6021(13)
F45 F 0.690(2) -0.0002(17) 0.6325(15)
F47 F 0.488(3) -0.1643(17) 0.5744(15)
F49 F 0.547(2) -0.0568(10) 0.6972(7)
F50 F 0.401(4) -0.089(2) 0.602(2)
F51 F 0.9484(7) -0.1449(8) 0.4614(6)
F52 F 1.0040(10) -0.2070(8) 0.3596(8)
F53 F 1.1675(7) -0.0840(7) 0.4938(8)
F54 F 1.1308(15) -0.0778(14) 0.3761(10)
F55 F 1.0149(11) 0.0500(8) 0.4198(10)
F56 F 0.9962(9) 0.0350(12) 0.5340(6)
F57 F 1.2415(19) 0.0915(16) 0.5874(12)
F58 F 1.2556(13) 0.0874(18) 0.4805(15)
F59 F 1.157(2) 0.1783(15) 0.5528(16)
F60 F 0.3411(5) -0.2357(5) -0.1809(3)
F61 F 0.4484(8) -0.1103(5) -0.1390(4)
F62 F 0.5779(11) -0.2946(8) -0.1472(7)
F63 F 0.6477(10) -0.1679(10) -0.1340(7)
F64 F 0.4619(9) -0.2273(8) -0.2926(5)
F65 F 0.4505(12) -0.3557(9) -0.2935(8)
F66 F 0.605(2) -0.3465(18) -0.3722(9)
F67 F 0.7133(15) -0.3294(13) -0.2552(9)
F68 F 0.701(2) -0.232(2) -0.2865(19)
F69 F 0.3887(8) -0.5036(6) -0.1615(8)
F70 F 0.2992(15) -0.5239(5) -0.0825(6)
F71 F 0.1063(11) -0.4438(14) -0.1444(11)
F72 F 0.197(2) -0.4484(11) -0.2219(10)
F73 F 0.1969(12) -0.6431(7) -0.2493(10)
F74 F 0.074(3) -0.6056(17) -0.1954(14)
F75 F -0.0413(14) -0.5434(12) -0.3015(11)
F76 F 0.115(6) -0.583(2) -0.351(3)
F77 F -0.0216(15) -0.6813(10) -0.3615(7)
F15? F 0.667(4) 0.302(3) 0.601(3)
F26? F 0.181(2) 0.0884(14) -0.2612(13)
C113? C 0.0181 -0.5930 -0.2857
F44? F 0.544(2) 0.0601(13) 0.6325(12)
F46? F 0.6327(19) 0.0447(12) 0.6416(11)
F48? F 0.573(2) -0.1569(13) 0.5930(12)
loop_
_geom_bond_atom_site_label_1
_geom_bond_atom_site_label_2
_geom_bond_site_symmetry_1
_geom_bond_site_symmetry_2
S1 O1 1_555 1_555
S2 O5 1_555 1_555
O2 S1 1_555 1_555
O3 S1 1_555 1_555
O4 C26 1_555 1_555
O6 S2 1_555 1_555
O7 S2 1_555 1_555
O8 C36 1_555 1_555
C1 O3 1_555 1_555
C2 C1 1_555 1_555
H1 C2 1_555 1_555
C3 C2 1_555 1_555
C4 H2 1_555 1_555
C5 C4 1_555 1_555
C6 C5 1_555 1_555
H3 C6 1_555 1_555
C7 C6 1_555 1_555
H4 C7 1_555 1_555
C8 C1 1_555 1_555
C9 C7 1_555 1_555
C10 C3 1_555 1_555
C11 O7 1_555 1_555
C12 C11 1_555 1_555
H5 C12 1_555 1_555
C13 C12 1_555 1_555
C14 H6 1_555 1_555
C15 C14 1_555 1_555
C16 C15 1_555 1_555
H7 C16 1_555 1_555
C17 C16 1_555 1_555
H8 C17 1_555 1_555
C18 C8 1_555 1_555
C19 C17 1_555 1_555
C20 C13 1_555 1_555
C21 C22 1_555 1_555
C22 H9 1_555 1_555
H10 C22 1_555 1_555
C23 C22 1_555 1_555
H11 C23 1_555 1_555
H12 C23 1_555 1_555
C24 C23 1_555 1_555
H13 C24 1_555 1_555
C25 C24 1_555 1_555
H14 C25 1_555 1_555
H15 C25 1_555 1_555
C26 C21 1_555 1_555
C27 C21 1_555 1_555
C28 C27 1_555 1_555
H16 C28 1_555 1_555
H17 C28 1_555 1_555
H18 C28 1_555 1_555
C29 C27 1_555 1_555
H19 C29 1_555 1_555
H20 C29 1_555 1_555
H21 C29 1_555 1_555
C30 S1 1_555 1_555
H22 C30 1_555 1_555
H23 C30 1_555 1_555
C31 C32 1_555 1_555
C32 H24 1_555 1_555
H25 C32 1_555 1_555
C33 C32 1_555 1_555
H26 C33 1_555 1_555
H27 C33 1_555 1_555
C34 C33 1_555 1_555
H28 C34 1_555 1_555
C35 C34 1_555 1_555
H29 C35 1_555 1_555
H30 C35 1_555 1_555
C36 C31 1_555 1_555
C37 C31 1_555 1_555
C38 C37 1_555 1_555
H31 C38 1_555 1_555
H32 C38 1_555 1_555
H33 C38 1_555 1_555
C39 C37 1_555 1_555
H34 C39 1_555 1_555
H35 C39 1_555 1_555
H36 C39 1_555 1_555
C40 S2 1_555 1_555
H37 C40 1_555 1_555
H38 C40 1_555 1_555
C41 C3 1_555 1_555
C42 C41 1_555 1_555
C43 C42 1_555 1_555
C44 C43 1_555 1_555
C45 C5 1_555 1_555
C46 C45 1_555 1_555
C47 C46 1_555 1_555
C48 C47 1_555 1_555
C49 C13 1_555 1_555
C50 C49 1_555 1_555
C51 C50 1_555 1_555
C52 C51 1_555 1_555
C53 C15 1_555 1_555
C54 C53 1_555 1_555
C55 C54 1_555 1_555
C56 C55 1_555 1_555
F1 C41 1_555 1_555
F2 C41 1_555 1_555
F3 C42 1_555 1_555
F4 C42 1_555 1_555
F5 C43 1_555 1_555
F6 C43 1_555 1_555
F7 C44 1_555 1_555
F8 C44 1_555 1_555
F9 C44 1_555 1_555
F10 C45 1_555 1_555
F11 C45 1_555 1_555
F12 C46 1_555 1_555
F13 C46 1_555 1_555
F14 C47 1_555 1_555
F16 C47 1_555 1_555
F17 C48 1_555 1_555
F18 C48 1_555 1_555
F19 C48 1_555 1_555
F20 C49 1_555 1_555
F21 C49 1_555 1_555
F22 C50 1_555 1_555
F23 C50 1_555 1_555
F24 C51 1_555 1_555
F25 C51 1_555 1_555
F27 C52 1_555 1_555
F28 C52 1_555 1_555
F29 C52 1_555 1_555
F30 C53 1_555 1_555
F31 C53 1_555 1_555
F32 C54 1_555 1_555
F33 C54 1_555 1_555
F34 C55 1_555 1_555
F35 C55 1_555 1_555
F36 C56 1_555 1_555
F37 C56 1_555 1_555
F38 C56 1_555 1_555
S3 O9 1_555 1_555
S4 O13 1_555 1_555
O10 S3 1_555 1_555
O11 S3 1_555 1_555
O12 C82 1_555 1_555
O14 S4 1_555 1_555
O15 S4 1_555 1_555
O16 C92 1_555 1_555
C57 O11 1_555 1_555
C58 C57 1_555 1_555
H39 C58 1_555 1_555
C59 C58 1_555 1_555
C60 H40 1_555 1_555
C61 C60 1_555 1_555
C62 C61 1_555 1_555
H41 C62 1_555 1_555
C63 C62 1_555 1_555
H42 C63 1_555 1_555
C64 C57 1_555 1_555
C65 C63 1_555 1_555
C66 C59 1_555 1_555
C67 O15 1_555 1_555
C68 C67 1_555 1_555
H43 C68 1_555 1_555
C69 C68 1_555 1_555
C70 H44 1_555 1_555
C71 C70 1_555 1_555
C72 C71 1_555 1_555
H45 C72 1_555 1_555
C73 C72 1_555 1_555
H46 C73 1_555 1_555
C74 C64 1_555 1_555
C75 C73 1_555 1_555
C76 C69 1_555 1_555
C77 C78 1_555 1_555
C78 H47 1_555 1_555
H48 C78 1_555 1_555
C79 C78 1_555 1_555
H49 C79 1_555 1_555
H50 C79 1_555 1_555
C80 C79 1_555 1_555
H51 C80 1_555 1_555
C81 C80 1_555 1_555
H52 C81 1_555 1_555
H53 C81 1_555 1_555
C82 C77 1_555 1_555
C83 C77 1_555 1_555
C84 C83 1_555 1_555
H54 C84 1_555 1_555
H55 C84 1_555 1_555
H56 C84 1_555 1_555
C85 C83 1_555 1_555
H57 C85 1_555 1_555
H58 C85 1_555 1_555
H59 C85 1_555 1_555
C86 S3 1_555 1_555
H60 C86 1_555 1_555
H61 C86 1_555 1_555
C87 C88 1_555 1_555
C88 H62 1_555 1_555
H63 C88 1_555 1_555
C89 C88 1_555 1_555
H64 C89 1_555 1_555
H65 C89 1_555 1_555
C90 C89 1_555 1_555
H66 C90 1_555 1_555
C91 C90 1_555 1_555
H67 C91 1_555 1_555
H68 C91 1_555 1_555
C92 C87 1_555 1_555
C93 C87 1_555 1_555
C94 C93 1_555 1_555
H69 C94 1_555 1_555
H70 C94 1_555 1_555
H71 C94 1_555 1_555
C95 C93 1_555 1_555
H72 C95 1_555 1_555
H73 C95 1_555 1_555
H74 C95 1_555 1_555
C96 S4 1_555 1_555
H75 C96 1_555 1_555
H76 C96 1_555 1_555
C97 C59 1_555 1_555
C98 C97 1_555 1_555
C99 C98 1_555 1_555
C100 C99 1_555 1_555
C101 C61 1_555 1_555
C102 C101 1_555 1_555
C103 C102 1_555 1_555
C104 C103 1_555 1_555
C105 C69 1_555 1_555
C106 C105 1_555 1_555
C107 C106 1_555 1_555
C108 C107 1_555 1_555
C109 C71 1_555 1_555
C110 C109 1_555 1_555
C111 C110 1_555 1_555
C112 C111 1_555 1_555
F39 C97 1_555 1_555
F40 C97 1_555 1_555
F41 C98 1_555 1_555
F42 C98 1_555 1_555
F43 C99 1_555 1_555
F45 C99 1_555 1_555
F47 C100 1_555 1_555
F49 C100 1_555 1_555
F50 C100 1_555 1_555
F51 C101 1_555 1_555
F52 C101 1_555 1_555
F53 C102 1_555 1_555
F54 C102 1_555 1_555
F55 C103 1_555 1_555
F56 C103 1_555 1_555
F57 C104 1_555 1_555
F58 C104 1_555 1_555
F59 C104 1_555 1_555
F60 C105 1_555 1_555
F61 C105 1_555 1_555
F62 C106 1_555 1_555
F63 C106 1_555 1_555
F64 C107 1_555 1_555
F65 C107 1_555 1_555
F66 C108 1_555 1_555
F67 C108 1_555 1_555
F68 C108 1_555 1_555
F69 C109 1_555 1_555
F70 C109 1_555 1_555
F71 C110 1_555 1_555
F72 C110 1_555 1_555
F73 C111 1_555 1_555
F74 C111 1_555 1_555
F75 C112 1_555 1_555
F76 C112 1_555 1_555
F77 C112 1_555 1_555
C4 C10 1_555 1_555
C8 C9 1_555 1_555
C9 C10 1_555 1_555
C11 C18 1_555 1_555
C14 C20 1_555 1_555
C18 C19 1_555 1_555
C19 C20 1_555 1_555
C21 C30 1_555 1_555
C24 C27 1_555 1_555
C25 C26 1_555 1_555
C31 C40 1_555 1_555
C34 C37 1_555 1_555
C35 C36 1_555 1_555
C60 C66 1_555 1_555
C64 C65 1_555 1_555
C65 C66 1_555 1_555
C67 C74 1_555 1_555
C70 C76 1_555 1_555
C74 C75 1_555 1_555
C75 C76 1_555 1_555
C77 C86 1_555 1_555
C80 C83 1_555 1_555
C81 C82 1_555 1_555
C87 C96 1_555 1_555
C90 C93 1_555 1_555
C91 C92 1_555 1_555

#END
