
#######################################################################
#
#                 Cambridge Crystallographic Data Centre
#                                CCDC 
#
#######################################################################
#
# If this CIF has been generated from an entry in the Cambridge 
# Structural Database, then it will include bibliographic, chemical, 
# crystal, experimental, refinement or atomic coordinate data resulting 
# from the CCDC's data processing and validation procedures.
#
#######################################################################

data_OFOLOL
_chemical_formula_moiety         'C34 H38 N20 O10,16(H2 O1)'
_chemical_name_systematic        
'\a,\g-Tetramethylcucurbit(5)uril monohydrate clathrate pentadecahydrate'
_symmetry_cell_setting           orthorhombic
_symmetry_space_group_name_H-M   'P m c n'
_symmetry_Int_Tables_number      62
_space_group_name_Hall           '-P 2n 2a'
loop_
_symmetry_equiv_pos_site_id
_symmetry_equiv_pos_as_xyz
1 x,y,z
2 1/2-x,1/2-y,1/2+z
3 1/2+x,-y,-z
4 -x,1/2+y,1/2-z
5 -x,-y,-z
6 1/2+x,1/2+y,1/2-z
7 1/2-x,y,z
8 x,1/2-y,1/2+z
_cell_length_a                   11.5037(6)
_cell_length_b                   15.1581(8)
_cell_length_c                   28.5401(15)
_cell_angle_alpha                90
_cell_angle_beta                 90
_cell_angle_gamma                90
_cell_volume                     4976.66
_cell_formula_units_Z            4
_exptl_crystal_recrystallization_method water/acetone
loop_
_atom_site_label
_atom_site_type_symbol
_atom_site_fract_x
_atom_site_fract_y
_atom_site_fract_z
C1 C 0.6017(4) 0.6012(3) 0.08914(17)
H1 H 0.5175 0.5978 0.0898
H2 H 0.6226 0.6579 0.0759
C2 C 0.5828(4) 0.4584(3) 0.04958(16)
C3 C 0.7500 0.5380(4) 0.0319(2)
H3 H 0.7500 0.5892 0.0109
C4 C 0.7500 0.4508(4) 0.0045(2)
H4 H 0.7500 0.4615 -0.0294
C5 C 0.6010(5) 0.3236(3) 0.00169(16)
H5 H 0.5168 0.3233 0.0036
H6 H 0.6219 0.3185 -0.0311
C6 C 0.5814(4) 0.2064(3) 0.06006(16)
C7 C 0.7500 0.2025(4) 0.0149(2)
H7 H 0.7500 0.1829 -0.0178
C8 C 0.7500 0.1227(4) 0.0489(2)
H8 H 0.7500 0.0664 0.0321
C9 C 0.6003(4) 0.0729(3) 0.10956(15)
H9 H 0.5162 0.0774 0.1101
H10 H 0.6201 0.0135 0.0997
C10 C 0.5859(3) 0.1415(2) 0.18703(13)
C11 C 0.7500 0.0501(3) 0.17613(19)
C12 C 0.7500 0.0905(3) 0.22738(17)
C13 C 0.6009(3) 0.1970(2) 0.26628(13)
H11 H 0.5166 0.1983 0.2651
H12 H 0.6233 0.1692 0.2955
C14 C 0.5779(3) 0.3566(2) 0.25385(12)
C15 C 0.7500 0.3109(3) 0.28962(17)
H13 H 0.7500 0.2915 0.3224
C16 C 0.7500 0.4132(3) 0.28558(17)
H14 H 0.7500 0.4409 0.3166
C17 C 0.6012(3) 0.5196(2) 0.25356(14)
H15 H 0.5170 0.5171 0.2521
H16 H 0.6220 0.5557 0.2803
C18 C 0.5859(3) 0.5540(2) 0.17068(15)
C19 C 0.7500 0.6136(3) 0.2078(2)
C20 C 0.7500 0.6393(3) 0.1540(2)
C21 C 0.7500 -0.0498(3) 0.1741(2)
C22 C 0.7500 0.0232(3) 0.2675(2)
C23 C 0.7500 0.6889(3) 0.2424(2)
C24 C 0.7500 0.7384(4) 0.1448(3)
N1 N 0.6446(3) 0.5328(3) 0.05866(14)
N2 N 0.6435(4) 0.4080(3) 0.01922(13)
N3 N 0.6449(3) 0.2479(3) 0.02618(13)
N4 N 0.6454(3) 0.1349(2) 0.07564(13)
N5 N 0.6440(2) 0.08685(19) 0.15625(11)
N6 N 0.6438(2) 0.14375(16) 0.22748(10)
N7 N 0.6439(2) 0.28650(17) 0.26591(10)
N8 N 0.6450(2) 0.43147(17) 0.26109(11)
N9 N 0.6437(2) 0.56158(18) 0.21171(12)
N10 N 0.6445(3) 0.5973(2) 0.13684(12)
O1 O 0.4850(3) 0.4418(2) 0.06420(12)
O2 O 0.4854(3) 0.2267(2) 0.07417(11)
O3 O 0.49343(19) 0.17754(15) 0.17873(9)
O4 O 0.47822(18) 0.35607(15) 0.24025(10)
O5 O 0.4914(2) 0.51700(17) 0.16581(11)
C1F C 0.8983(4) 0.6012(3) 0.08914(17)
H1F H 0.9825 0.5978 0.0898
H2F H 0.8774 0.6579 0.0759
C2F C 0.9172(4) 0.4584(3) 0.04958(16)
C5F C 0.8990(5) 0.3236(3) 0.00169(16)
H5F H 0.9832 0.3233 0.0036
H6F H 0.8781 0.3185 -0.0311
C6F C 0.9186(4) 0.2064(3) 0.06006(16)
C9F C 0.8997(4) 0.0729(3) 0.10956(15)
H9F H 0.9838 0.0774 0.1101
H10F H 0.8799 0.0135 0.0997
C10F C 0.9141(3) 0.1415(2) 0.18703(13)
C13F C 0.8991(3) 0.1970(2) 0.26628(13)
H11F H 0.9834 0.1983 0.2651
H12F H 0.8767 0.1692 0.2955
C14F C 0.9221(3) 0.3566(2) 0.25385(12)
C17F C 0.8988(3) 0.5196(2) 0.25356(14)
H15F H 0.9830 0.5171 0.2521
H16F H 0.8780 0.5557 0.2803
C18F C 0.9141(3) 0.5540(2) 0.17068(15)
N1F N 0.8554(3) 0.5328(3) 0.05866(14)
N2F N 0.8565(4) 0.4080(3) 0.01922(13)
N3F N 0.8551(3) 0.2479(3) 0.02618(13)
N4F N 0.8546(3) 0.1349(2) 0.07564(13)
N5F N 0.8560(2) 0.08685(19) 0.15625(11)
N6F N 0.8562(2) 0.14375(16) 0.22748(10)
N7F N 0.8561(2) 0.28650(17) 0.26591(10)
N8F N 0.8550(2) 0.43147(17) 0.26109(11)
N9F N 0.8563(2) 0.56158(18) 0.21171(12)
N10F N 0.8555(3) 0.5973(2) 0.13684(12)
O1F O 1.0150(3) 0.4418(2) 0.06420(12)
O2F O 1.0146(3) 0.2267(2) 0.07417(11)
O3F O 1.00657(19) 0.17754(15) 0.17873(9)
O4F O 1.02178(18) 0.35607(15) 0.24025(10)
O5F O 1.0086(2) 0.51700(17) 0.16581(11)
O6 O 0.7500 0.1894(2) 0.39074(11)
O7 O 0.3811(4) 0.3421(2) 0.15138(16)
O8 O 0.2500 0.4940(5) 0.1127(2)
O9 O 0.2500 0.1436(5) 0.1331(4)
O10 O 0.5513(5) 0.3240(5) 0.3769(2)
O11 O 0.6197(7) 0.8547(5) 0.0459(2)
O12 O 0.2500 0.3057(7) 0.0511(4)
O13 O 0.7500 0.4802(7) 0.4142(5)
O15 O 0.5000 1.0000 0.0000
O16 O 0.7500 0.7710(8) 0.0211(6)
O17 O 0.7500 0.3346(11) 0.1432(6)
H17? H 0.8209 -0.0719 0.1874
H18? H 0.7442 -0.0686 0.1420
H19? H 0.6850 -0.0722 0.1915
H20? H 0.6796 -0.0108 0.2665
H21? H 0.7547 0.0536 0.2970
H22? H 0.8157 -0.0154 0.2643
H23? H 0.8210 0.7216 0.2395
H24? H 0.7438 0.6658 0.2737
H25? H 0.6852 0.7270 0.2362
H26? H 0.8207 0.7637 0.1566
H27? H 0.6847 0.7649 0.1603
H28? H 0.7446 0.7490 0.1117
O14? O 0.451(2) 0.955(3) 0.0257(16)
loop_
_geom_bond_atom_site_label_1
_geom_bond_atom_site_label_2
_geom_bond_site_symmetry_1
_geom_bond_site_symmetry_2
C1 H1 1_555 1_555
H2 C1 1_555 1_555
C2 N1 1_555 1_555
C3 H3 1_555 1_555
C4 C3 1_555 1_555
H4 C4 1_555 1_555
C5 H5 1_555 1_555
H6 C5 1_555 1_555
C6 N3 1_555 1_555
C7 H7 1_555 1_555
C8 C7 1_555 1_555
H8 C8 1_555 1_555
C9 H9 1_555 1_555
H10 C9 1_555 1_555
C10 N5 1_555 1_555
C11 C12 1_555 1_555
C12 C22 1_555 1_555
C13 H11 1_555 1_555
H12 C13 1_555 1_555
C14 N7 1_555 1_555
C15 H13 1_555 1_555
C16 C15 1_555 1_555
H14 C16 1_555 1_555
C17 H15 1_555 1_555
H16 C17 1_555 1_555
C18 N9 1_555 1_555
C19 C20 1_555 1_555
C20 C24 1_555 1_555
C21 C11 1_555 1_555
C23 C19 1_555 1_555
N1 C1 1_555 1_555
N2 C2 1_555 1_555
N3 C5 1_555 1_555
N4 C6 1_555 1_555
N5 C9 1_555 1_555
N6 C10 1_555 1_555
N7 C13 1_555 1_555
N8 C14 1_555 1_555
N9 C17 1_555 1_555
N10 C1 1_555 1_555
O1 C2 1_555 1_555
O2 C6 1_555 1_555
O3 C10 1_555 1_555
O4 C14 1_555 1_555
O5 C18 1_555 1_555
C1F H1F 1_555 1_555
H2F C1F 1_555 1_555
C2F N1F 1_555 1_555
C5F H5F 1_555 1_555
H6F C5F 1_555 1_555
C6F N3F 1_555 1_555
C9F H9F 1_555 1_555
H10F C9F 1_555 1_555
C10F N5F 1_555 1_555
C13F H11F 1_555 1_555
H12F C13F 1_555 1_555
C14F N7F 1_555 1_555
C17F H15F 1_555 1_555
H16F C17F 1_555 1_555
C18F N9F 1_555 1_555
N1F C3 1_555 1_555
N2F C4 1_555 1_555
N3F C7 1_555 1_555
N4F C8 1_555 1_555
N5F C11 1_555 1_555
N6F C12 1_555 1_555
N7F C15 1_555 1_555
N8F C16 1_555 1_555
N9F C19 1_555 1_555
N10F C20 1_555 1_555
O1F C2F 1_555 1_555
O2F C6F 1_555 1_555
O3F C10F 1_555 1_555
O4F C14F 1_555 1_555
O5F C18F 1_555 1_555
C3 N1 1_555 1_555
C4 N2 1_555 1_555
C5 N2 1_555 1_555
C7 N3 1_555 1_555
C8 N4 1_555 1_555
C9 N4 1_555 1_555
C11 N5 1_555 1_555
C12 N6 1_555 1_555
C13 N6 1_555 1_555
C15 N7 1_555 1_555
C16 N8 1_555 1_555
C17 N8 1_555 1_555
C18 N10 1_555 1_555
C19 N9 1_555 1_555
C20 N10 1_555 1_555
C1F N1F 1_555 1_555
C1F N10F 1_555 1_555
C2F N2F 1_555 1_555
C5F N2F 1_555 1_555
C5F N3F 1_555 1_555
C6F N4F 1_555 1_555
C9F N4F 1_555 1_555
C9F N5F 1_555 1_555
C10F N6F 1_555 1_555
C13F N6F 1_555 1_555
C13F N7F 1_555 1_555
C14F N8F 1_555 1_555
C17F N8F 1_555 1_555
C17F N9F 1_555 1_555
C18F N10F 1_555 1_555

#END
