
#######################################################################
#
#                 Cambridge Crystallographic Data Centre
#                                CCDC 
#
#######################################################################
#
# If this CIF has been generated from an entry in the Cambridge 
# Structural Database, then it will include bibliographic, chemical, 
# crystal, experimental, refinement or atomic coordinate data resulting 
# from the CCDC's data processing and validation procedures.
#
#######################################################################

data_OFOLUR
_chemical_formula_moiety         'C39 H48 N20 O10,14(H2 O1)'
_chemical_name_systematic        
'Nonamethylcucurbit(5)uril monohydrate clathrate tridecahydrate'
_symmetry_cell_setting           monoclinic
_symmetry_space_group_name_H-M   'P 21/a'
_symmetry_Int_Tables_number      14
_space_group_name_Hall           '-P 2yab'
loop_
_symmetry_equiv_pos_site_id
_symmetry_equiv_pos_as_xyz
1 x,y,z
2 1/2-x,1/2+y,-z
3 -x,-y,-z
4 1/2+x,1/2-y,z
_cell_length_a                   12.6377(14)
_cell_length_b                   30.535(3)
_cell_length_c                   15.0165(17)
_cell_angle_alpha                90.00
_cell_angle_beta                 102.115(2)
_cell_angle_gamma                90.00
_cell_volume                     5665.69
_cell_formula_units_Z            4
_exptl_crystal_recrystallization_method water
loop_
_atom_site_label
_atom_site_type_symbol
_atom_site_fract_x
_atom_site_fract_y
_atom_site_fract_z
C1 C 0.9214(6) 0.0149(2) 0.8647(5)
C2 C 0.7638(5) 0.0073(2) 0.9244(5)
C3 C 0.7553(5) -0.0218(2) 0.8386(5)
C4 C 0.6148(6) 0.0285(2) 0.8151(5)
C5 C 0.8906(6) -0.0340(2) 0.7332(5)
H1 H 0.9691 -0.0341 0.7454
H2 H 0.8668 -0.0643 0.7295
C6 C 0.6114(5) -0.0221(2) 0.6895(5)
H3 H 0.5346 -0.0155 0.6769
H4 H 0.6190 -0.0537 0.6927
C7 C 0.9143(6) 0.0132(2) 0.6095(5)
C8 C 0.7484(5) -0.0238(2) 0.5846(5)
C9 C 0.7564(5) 0.0049(2) 0.4991(5)
C10 C 0.6082(5) 0.0276(2) 0.5613(5)
C11 C 0.9113(5) 0.0546(2) 0.4697(5)
H5 H 0.9893 0.0511 0.4861
H6 H 0.8881 0.0463 0.4062
C12 C 0.6345(5) 0.0699(2) 0.4288(4)
H7 H 0.5575 0.0751 0.4224
H8 H 0.6461 0.0593 0.3708
C13 C 0.9559(6) 0.1281(2) 0.5340(5)
C14 C 0.7920(5) 0.1224(2) 0.4250(4)
C15 C 0.8092(5) 0.1716(2) 0.4580(4)
C16 C 0.6473(6) 0.1451(2) 0.4880(4)
C17 C 0.9625(5) 0.2055(2) 0.5805(5)
H9 H 1.0397 0.2003 0.5988
H10 H 0.9521 0.2322 0.5447
C18 C 0.6864(5) 0.2216(2) 0.5308(4)
H11 H 0.7143 0.2444 0.4971
H12 H 0.6081 0.2239 0.5171
C19 C 0.9760(5) 0.20102(19) 0.7445(5)
C20 C 0.8337(4) 0.24317(19) 0.6664(4)
H13 H 0.8500 0.2718 0.6428
C21 C 0.8324(5) 0.24560(19) 0.7706(4)
C22 C 0.6662(5) 0.21934(19) 0.6908(4)
C23 C 0.9630(5) 0.2089(2) 0.9045(4)
H14 H 1.0405 0.2039 0.9164
H15 H 0.9507 0.2346 0.9391
C24 C 0.6881(5) 0.2215(2) 0.8564(4)
H16 H 0.7137 0.2459 0.8966
H17 H 0.6098 0.2233 0.8400
C25 C 0.9585(5) 0.1317(2) 0.9488(4)
C26 C 0.8155(5) 0.1750(2) 0.9745(4)
C27 C 0.8005(6) 0.1269(2) 1.0070(4)
C28 C 0.6507(5) 0.1456(2) 0.8945(5)
C29 C 0.9203(5) 0.0590(2) 1.0032(4)
H18 H 0.8991 0.0512 1.0595
H19 H 0.9982 0.0558 1.0129
C30 C 0.6459(5) 0.0720(2) 0.9562(5)
H20 H 0.5682 0.0764 0.9399
H21 H 0.6633 0.0617 1.0187
C31 C 0.7525(8) -0.0193(3) 1.0054(7)
H22 H 0.8125 -0.0392 1.0207
H23 H 0.6862 -0.0357 0.9914
H24 H 0.7515 -0.0003 1.0560
C32 C 0.7487(8) -0.0710(4) 0.8601(8)
H25 H 0.8141 -0.0799 0.9010
H26 H 0.7399 -0.0876 0.8046
H27 H 0.6880 -0.0761 0.8879
C33 C 0.7378(6) -0.0735(2) 0.5670(6)
H28 H 0.8003 -0.0839 0.5466
H29 H 0.6740 -0.0793 0.5212
H30 H 0.7325 -0.0883 0.6223
C34 C 0.7430(5) -0.0200(2) 0.4093(5)
H31 H 0.6723 -0.0330 0.3946
H32 H 0.7969 -0.0426 0.4151
H33 H 0.7516 -0.0002 0.3617
C35 C 0.7868(8) 0.1165(4) 0.3256(6)
H34 H 0.7244 0.1315 0.2916
H35 H 0.7816 0.0859 0.3109
H36 H 0.8510 0.1284 0.3102
C36 C 0.8141(11) 0.2031(4) 0.3811(8)
H37 H 0.7451 0.2037 0.3395
H38 H 0.8686 0.1936 0.3495
H39 H 0.8315 0.2319 0.4055
C37 C 0.8429(5) 0.2920(2) 0.8076(5)
H40 H 0.9123 0.3036 0.8035
H41 H 0.8364 0.2917 0.8702
H42 H 0.7868 0.3099 0.7727
C38 C 0.8298(10) 0.2085(4) 1.0515(9)
H43 H 0.7649 0.2098 1.0751
H44 H 0.8441 0.2368 1.0287
H45 H 0.8894 0.2000 1.0992
C39 C 0.8011(8) 0.1230(4) 1.1083(6)
H46 H 0.7399 0.1384 1.1215
H47 H 0.8665 0.1356 1.1430
H48 H 0.7971 0.0927 1.1241
N1 N 0.8700(5) 0.02849(19) 0.9325(4)
N2 N 0.8561(4) -0.01340(17) 0.8088(4)
N3 N 0.6755(4) 0.03824(19) 0.8977(4)
N4 N 0.6611(4) -0.00371(19) 0.7770(4)
N5 N 0.8519(4) -0.01385(17) 0.6477(4)
N6 N 0.8623(4) 0.02514(17) 0.5245(4)
N7 N 0.6570(4) -0.00612(16) 0.6150(4)
N8 N 0.6676(4) 0.03656(16) 0.4967(4)
N9 N 0.8847(4) 0.10031(16) 0.4796(4)
N10 N 0.9116(4) 0.16887(17) 0.5243(4)
N11 N 0.6915(4) 0.11102(16) 0.4498(3)
N12 N 0.7165(4) 0.17907(16) 0.4989(3)
N13 N 0.9177(4) 0.21130(15) 0.6612(3)
N14 N 0.9272(4) 0.21849(16) 0.8105(3)
N15 N 0.7250(4) 0.22899(16) 0.6255(3)
N16 N 0.7309(4) 0.22592(16) 0.7747(3)
N17 N 0.9135(4) 0.17236(18) 0.9380(4)
N18 N 0.8930(4) 0.1039(2) 0.9833(4)
N19 N 0.7179(4) 0.18131(18) 0.9047(3)
N20 N 0.6983(4) 0.11329(18) 0.9516(3)
O1 O 1.0132(4) 0.02580(14) 0.8597(3)
O2 O 1.0075(4) 0.02403(14) 0.6463(3)
O3 O 1.0436(4) 0.11814(14) 0.5803(3)
O4 O 1.0604(4) 0.18018(15) 0.7615(3)
O5 O 1.0462(4) 0.12154(15) 0.9320(3)
O6 O 0.5282(4) 0.04712(17) 0.7794(3)
O7 O 0.5245(3) 0.04623(14) 0.5683(3)
O8 O 0.5565(4) 0.14453(14) 0.5068(3)
O9 O 0.5706(4) 0.20758(13) 0.6742(3)
O10 O 0.5617(4) 0.14364(15) 0.8438(3)
O11 O 1.2513(4) 0.15370(17) 0.5945(4)
O12 O 0.4651(5) 0.12351(18) 0.6593(4)
O13 O 1.1164(4) 0.08966(18) 0.7697(4)
O14 O 1.0560(5) 0.2948(2) 1.0733(5)
O15 O 1.2344(5) 0.1717(2) 1.0009(5)
O16 O 0.3424(4) 0.0826(3) 0.8273(5)
O17 O 0.4173(6) 0.1257(3) 0.9934(5)
O18 O 0.9395(7) -0.1528(3) 0.7291(9)
O19 O 1.3643(13) 0.1930(4) 0.4645(9)
O20 O 0.7953(15) 0.1041(4) 0.7131(10)
O21 O 1.195(2) 0.2178(14) 1.1471(14)
O22 O 0.8016(17) 0.0452(11) 0.2067(11)
O23 O 0.643(2) 0.0302(5) 0.1907(9)
O24 O 0.5341(14) 0.0692(9) 1.1598(8)
O25 O 0.468(3) 0.1399(10) 1.276(2)
O26 O 0.890(2) -0.1749(9) 0.617(2)
O27? O 1.248(4) 0.1844(7) 0.4282(16)
loop_
_geom_bond_atom_site_label_1
_geom_bond_atom_site_label_2
_geom_bond_site_symmetry_1
_geom_bond_site_symmetry_2
C1 N1 1_555 1_555
C2 C3 1_555 1_555
C3 C32 1_555 1_555
C4 N3 1_555 1_555
C5 H1 1_555 1_555
H2 C5 1_555 1_555
C6 H3 1_555 1_555
H4 C6 1_555 1_555
C7 N5 1_555 1_555
C8 C9 1_555 1_555
C9 C34 1_555 1_555
C10 N7 1_555 1_555
C11 H5 1_555 1_555
H6 C11 1_555 1_555
C12 H7 1_555 1_555
H8 C12 1_555 1_555
C13 N9 1_555 1_555
C14 C15 1_555 1_555
C15 C36 1_555 1_555
C16 N11 1_555 1_555
C17 H9 1_555 1_555
H10 C17 1_555 1_555
C18 H11 1_555 1_555
H12 C18 1_555 1_555
C19 N13 1_555 1_555
C20 H13 1_555 1_555
C21 C20 1_555 1_555
C22 N15 1_555 1_555
C23 H14 1_555 1_555
H15 C23 1_555 1_555
C24 H16 1_555 1_555
H17 C24 1_555 1_555
C25 N17 1_555 1_555
C26 C27 1_555 1_555
C27 C39 1_555 1_555
C28 N19 1_555 1_555
C29 H18 1_555 1_555
H19 C29 1_555 1_555
C30 H20 1_555 1_555
H21 C30 1_555 1_555
C31 C2 1_555 1_555
H22 C31 1_555 1_555
H23 C31 1_555 1_555
H24 C31 1_555 1_555
C32 H25 1_555 1_555
H26 C32 1_555 1_555
H27 C32 1_555 1_555
C33 C8 1_555 1_555
H28 C33 1_555 1_555
H29 C33 1_555 1_555
H30 C33 1_555 1_555
C34 H31 1_555 1_555
H32 C34 1_555 1_555
H33 C34 1_555 1_555
C35 C14 1_555 1_555
H34 C35 1_555 1_555
H35 C35 1_555 1_555
H36 C35 1_555 1_555
C36 H37 1_555 1_555
H38 C36 1_555 1_555
H39 C36 1_555 1_555
C37 C21 1_555 1_555
H40 C37 1_555 1_555
H41 C37 1_555 1_555
H42 C37 1_555 1_555
C38 C26 1_555 1_555
H43 C38 1_555 1_555
H44 C38 1_555 1_555
H45 C38 1_555 1_555
C39 H46 1_555 1_555
H47 C39 1_555 1_555
H48 C39 1_555 1_555
N1 C2 1_555 1_555
N2 C1 1_555 1_555
N3 C2 1_555 1_555
N4 C3 1_555 1_555
N5 C5 1_555 1_555
N6 C7 1_555 1_555
N7 C6 1_555 1_555
N8 C9 1_555 1_555
N9 C11 1_555 1_555
N10 C13 1_555 1_555
N11 C12 1_555 1_555
N12 C15 1_555 1_555
N13 C17 1_555 1_555
N14 C19 1_555 1_555
N15 C18 1_555 1_555
N16 C21 1_555 1_555
N17 C23 1_555 1_555
N18 C25 1_555 1_555
N19 C24 1_555 1_555
N20 C27 1_555 1_555
O1 C1 1_555 1_555
O2 C7 1_555 1_555
O3 C13 1_555 1_555
O4 C19 1_555 1_555
O5 C25 1_555 1_555
O6 C4 1_555 1_555
O7 C10 1_555 1_555
O8 C16 1_555 1_555
O9 C22 1_555 1_555
O10 C28 1_555 1_555
C3 N2 1_555 1_555
C4 N4 1_555 1_555
C5 N2 1_555 1_555
C6 N4 1_555 1_555
C8 N5 1_555 1_555
C8 N7 1_555 1_555
C9 N6 1_555 1_555
C10 N8 1_555 1_555
C11 N6 1_555 1_555
C12 N8 1_555 1_555
C14 N9 1_555 1_555
C14 N11 1_555 1_555
C15 N10 1_555 1_555
C16 N12 1_555 1_555
C17 N10 1_555 1_555
C18 N12 1_555 1_555
C20 N13 1_555 1_555
C20 N15 1_555 1_555
C21 N14 1_555 1_555
C22 N16 1_555 1_555
C23 N14 1_555 1_555
C24 N16 1_555 1_555
C26 N17 1_555 1_555
C26 N19 1_555 1_555
C27 N18 1_555 1_555
C28 N20 1_555 1_555
C29 N1 1_555 1_555
C29 N18 1_555 1_555
C30 N3 1_555 1_555
C30 N20 1_555 1_555

#END
