
#######################################################################
#
#                 Cambridge Crystallographic Data Centre
#                                CCDC 
#
#######################################################################
#
# If this CIF has been generated from an entry in the Cambridge 
# Structural Database, then it will include bibliographic, chemical, 
# crystal, experimental, refinement or atomic coordinate data resulting 
# from the CCDC's data processing and validation procedures.
#
#######################################################################

data_OFONOP
_chemical_formula_moiety         'C58 H70 N2 O2 S4'
_chemical_name_systematic        
'2-cyano-3-[4^5^-(9-ethyl-9H-carbazol-3-yl)-1^4^,2^3^,3^3^,4^3^-tetrahexyl[1^2^,2^2^:2^5^,3^2^:3^5^,4^2^-quaterthiophen]-1^5^-yl]prop-2-enoic acid'
_symmetry_cell_setting           monoclinic
_symmetry_space_group_name_H-M   'P 21/n'
_symmetry_Int_Tables_number      14
_space_group_name_Hall           '-P 2yn'
loop_
_symmetry_equiv_pos_site_id
_symmetry_equiv_pos_as_xyz
1 x,y,z
2 1/2-x,1/2+y,1/2-z
3 -x,-y,-z
4 1/2+x,1/2-y,1/2+z
_cell_length_a                   19.841
_cell_length_b                   10.611
_cell_length_c                   24.928
_cell_angle_alpha                90
_cell_angle_beta                 101.79
_cell_angle_gamma                90
_cell_volume                     5137.44
_exptl_crystal_colour            'dark red'
_exptl_crystal_description       needle
_cell_formula_units_Z            4
loop_
_atom_site_label
_atom_site_type_symbol
_atom_site_fract_x
_atom_site_fract_y
_atom_site_fract_z
S1 S 0.11687(4) 0.08973(7) 0.50983(3)
O1 O 0.00967(13) -0.3795(2) 0.46359(9)
N1 N 0.37613(15) 1.7220(2) 0.39760(11)
C1 C 0.35560(19) 1.8016(3) 0.30088(15)
H1 H 0.3726 1.8841 0.3100
S2 S 0.14164(4) 0.44103(7) 0.42658(3)
O2 O 0.04589(14) -0.3957(2) 0.55455(9)
H2 H 0.0300 -0.4691 0.5490
N2 N 0.12290(17) -0.1214(3) 0.60780(13)
C2 C 0.3315(2) 1.7667(4) 0.24695(15)
H3 H 0.3329 1.8259 0.2186
S3 S 0.24370(4) 0.77858(7) 0.50125(3)
C3 C 0.3052(2) 1.6466(3) 0.23342(14)
H4 H 0.2885 1.6251 0.1961
S4 S 0.27535(4) 1.13035(7) 0.41930(3)
C4 C 0.30324(18) 1.5587(3) 0.27374(13)
H5 H 0.2849 1.4771 0.2643
C5 C 0.32828(17) 1.5903(3) 0.32827(13)
C6 C 0.35419(17) 1.7123(3) 0.34130(13)
C7 C 0.36636(17) 1.6069(3) 0.42098(14)
C8 C 0.33586(16) 1.5235(3) 0.37960(12)
C9 C 0.31868(16) 1.4028(3) 0.39391(12)
H6 H 0.2962 1.3462 0.3665
C10 C 0.33447(17) 1.3655(3) 0.44840(13)
C11 C 0.36768(19) 1.4513(3) 0.48840(13)
H7 H 0.3791 1.4246 0.5255
C12 C 0.38414(18) 1.5712(3) 0.47598(13)
H8 H 0.4066 1.6278 0.5034
C13 C 0.11611(16) 0.2111(3) 0.46408(13)
C14 C 0.08221(17) 0.1760(3) 0.41175(13)
H9 H 0.0762 0.2314 0.3812
C15 C 0.05786(15) 0.0522(3) 0.40805(12)
C16 C 0.07255(15) -0.0082(3) 0.45844(12)
C17 C 0.05425(15) -0.1348(3) 0.46696(13)
H10 H 0.0317 -0.1774 0.4348
C18 C 0.06346(16) -0.2053(3) 0.51314(13)
C19 C 0.03732(17) -0.3354(3) 0.50808(13)
C20 C 0.09626(17) -0.1609(3) 0.56624(14)
C21 C 0.40831(18) 1.8320(3) 0.42763(15)
H11 H 0.3955 1.8356 0.4639
H12 H 0.3911 1.9095 0.4073
C22 C 0.48586(19) 1.8264(4) 0.43522(18)
H13 H 0.5061 1.9011 0.4554
H14 H 0.4986 1.8240 0.3993
H15 H 0.5030 1.7504 0.4560
C23 C 0.02093(18) -0.0086(3) 0.35584(13)
H16 H -0.0251 -0.0361 0.3608
H17 H 0.0468 -0.0850 0.3493
C24 C 0.0118(2) 0.0745(4) 0.30552(14)
H18 H -0.0173 0.1474 0.3107
H19 H 0.0574 0.1075 0.3020
C25 C -0.0205(2) 0.0079(4) 0.25291(14)
H20 H 0.0030 -0.0742 0.2524
H21 H -0.0691 -0.0103 0.2543
C26 C -0.020(3) 0.071(5) 0.2009(12)
H22 H -0.0484 0.1484 0.1999
H23 H 0.0279 0.0999 0.2022
C27 C -0.0424(14) 0.008(4) 0.1494(11)
H24 H -0.0083 -0.0581 0.1464
H25 H -0.0414 0.0699 0.1198
C28 C -0.1118(3) -0.0514(7) 0.1388(2)
H26 H -0.129(3) -0.089(5) 0.100(2)
H27 H -0.115(3) -0.113(6) 0.170(3)
C29 C 0.18715(16) 0.5520(3) 0.46966(13)
C30 C 0.20635(18) 0.5033(3) 0.52182(13)
H28 H 0.2318 0.5507 0.5515
C31 C 0.18547(18) 0.3781(3) 0.52794(14)
C32 C 0.14779(16) 0.3318(3) 0.47890(13)
C33 C 0.20410(18) 0.3062(3) 0.58120(14)
H29 H 0.2461 0.3434 0.6040
H30 H 0.2145 0.2176 0.5734
C34 C 0.14642(19) 0.3090(3) 0.61269(14)
H31 H 0.1025 0.2886 0.5874
H32 H 0.1425 0.3952 0.6269
C35 C 0.1577(2) 0.2155(4) 0.66098(15)
H33 H 0.1162 0.2164 0.6772
H34 H 0.1618 0.1298 0.6463
C36 C 0.2202(2) 0.2398(4) 0.70647(15)
H35 H 0.2199 0.3288 0.7182
H36 H 0.2626 0.2257 0.6921
C37 C 0.2214(3) 0.1543(5) 0.75585(18)
H37 H 0.1767 0.1619 0.7674
H38 H 0.2260 0.0659 0.7445
C38 C 0.2778(3) 0.1821(6) 0.80396(19)
H39 H 0.2752 0.1231 0.8337
H40 H 0.2729 0.2685 0.8165
H41 H 0.3225 0.1731 0.7933
C39 C 0.24579(15) 0.8961(3) 0.45370(12)
C40 C 0.21520(16) 0.8556(3) 0.40224(13)
H42 H 0.2112 0.9071 0.3706
C41 C 0.19025(15) 0.7308(3) 0.40041(12)
C42 C 0.20254(16) 0.6760(3) 0.45163(12)
C43 C 0.15398(18) 0.6645(3) 0.34862(13)
H43 H 0.1795 0.5860 0.3449
H44 H 0.1076 0.6397 0.3537
C44 C 0.14554(18) 0.7361(3) 0.29519(12)
H45 H 0.1915 0.7568 0.2880
H46 H 0.1211 0.8163 0.2983
C45 C 0.1056(2) 0.6606(3) 0.24763(14)
H47 H 0.1330 0.5843 0.2438
H48 H 0.0626 0.6318 0.2580
C46 C 0.0865(2) 0.7192(3) 0.19316(14)
H49 H 0.0637 0.8003 0.1978
H50 H 0.1298 0.7398 0.1811
C47 C 0.0427(3) 0.6522(4) 0.14869(16)
H51 H 0.0004 0.6302 0.1618
H52 H 0.0663 0.5717 0.1446
C48 C 0.0201(2) 0.7025(4) 0.09354(15)
H53 H -0.0087 0.6401 0.0706
H54 H 0.0604 0.7216 0.0779
H55 H -0.0065 0.7798 0.0951
C49 C 0.31812(16) 1.2394(3) 0.46584(12)
C50 C 0.33200(17) 1.1883(3) 0.51718(13)
H56 H 0.3554 1.2335 0.5484
C51 C 0.30882(16) 1.0629(3) 0.52041(12)
C52 C 0.27660(15) 1.0172(3) 0.46970(12)
C53 C 0.31700(19) 0.9909(3) 0.57344(13)
H57 H 0.3394 0.9092 0.5691
H58 H 0.2707 0.9724 0.5804
C54 C 0.3583(2) 1.0572(3) 0.62289(14)
H59 H 0.3352 1.1376 0.6283
H60 H 0.4044 1.0777 0.6158
C55 C 0.3670(2) 0.9800(4) 0.67508(14)
H61 H 0.3850 0.8956 0.6685
H62 H 0.3215 0.9685 0.6849
C56 C 0.4158(2) 1.0422(4) 0.72265(14)
H63 H 0.4603 1.0583 0.7117
H64 H 0.3964 1.1248 0.7301
C57 C 0.4292(2) 0.9660(4) 0.77457(15)
H65 H 0.4486 0.8834 0.7672
H66 H 0.3848 0.9502 0.7858
C58 C 0.4782(2) 1.0296(5) 0.82156(16)
H67 H 0.4847 0.9755 0.8541
H68 H 0.4589 1.1107 0.8297
H69 H 0.5227 1.0435 0.8112
C59? C -0.033(2) 0.104(4) 0.2030(11)
H70? H -0.0686 0.1646 0.2077
H71? H 0.0105 0.1514 0.2037
C60? C -0.058(5) 0.100(4) 0.207(2)
H72? H -0.0827 0.1625 0.2252
H73? H -0.0211 0.1473 0.1939
C61? C -0.054(2) 0.040(3) 0.1468(9)
H74? H -0.0664 0.1071 0.1189
H75? H -0.0133 -0.0043 0.1388
C62? C -0.110(2) 0.056(2) 0.1537(10)
H76? H -0.1571 0.0776 0.1592
H77? H -0.1019 0.1091 0.1230
loop_
_geom_bond_atom_site_label_1
_geom_bond_atom_site_label_2
_geom_bond_site_symmetry_1
_geom_bond_site_symmetry_2
S1 C13 1_555 1_555
O1 C19 1_555 1_555
N1 C6 1_555 1_555
C1 H1 1_555 1_555
S2 C29 1_555 1_555
O2 H2 1_555 1_555
N2 C20 1_555 1_555
C2 C1 1_555 1_555
H3 C2 1_555 1_555
S3 C39 1_555 1_555
C3 C2 1_555 1_555
H4 C3 1_555 1_555
S4 C49 1_555 1_555
C4 C3 1_555 1_555
H5 C4 1_555 1_555
C5 C4 1_555 1_555
C6 C1 1_555 1_555
C7 N1 1_555 1_555
C8 C5 1_555 1_555
C9 C8 1_555 1_555
H6 C9 1_555 1_555
C10 C9 1_555 1_555
C11 C10 1_555 1_555
H7 C11 1_555 1_555
C12 C7 1_555 1_555
H8 C12 1_555 1_555
C13 C14 1_555 1_555
C14 H9 1_555 1_555
C15 C14 1_555 1_555
C16 S1 1_555 1_555
C17 C16 1_555 1_555
H10 C17 1_555 1_555
C18 C17 1_555 1_555
C19 O2 1_555 1_555
C20 C18 1_555 1_555
C21 N1 1_555 1_555
H11 C21 1_555 1_555
H12 C21 1_555 1_555
C22 C21 1_555 1_555
H13 C22 1_555 1_555
H14 C22 1_555 1_555
H15 C22 1_555 1_555
C23 C15 1_555 1_555
H16 C23 1_555 1_555
H17 C23 1_555 1_555
C24 C23 1_555 1_555
H18 C24 1_555 1_555
H19 C24 1_555 1_555
C25 C24 1_555 1_555
H20 C25 1_555 1_555
H21 C25 1_555 1_555
C26 C25 1_555 1_555
H22 C26 1_555 1_555
H23 C26 1_555 1_555
C27 C26 1_555 1_555
H24 C27 1_555 1_555
H25 C27 1_555 1_555
C28 C27 1_555 1_555
H26 C28 1_555 1_555
H27 C28 1_555 1_555
C29 C30 1_555 1_555
C30 H28 1_555 1_555
C31 C30 1_555 1_555
C32 S2 1_555 1_555
C33 C31 1_555 1_555
H29 C33 1_555 1_555
H30 C33 1_555 1_555
C34 C33 1_555 1_555
H31 C34 1_555 1_555
H32 C34 1_555 1_555
C35 C34 1_555 1_555
H33 C35 1_555 1_555
H34 C35 1_555 1_555
C36 C35 1_555 1_555
H35 C36 1_555 1_555
H36 C36 1_555 1_555
C37 C36 1_555 1_555
H37 C37 1_555 1_555
H38 C37 1_555 1_555
C38 C37 1_555 1_555
H39 C38 1_555 1_555
H40 C38 1_555 1_555
H41 C38 1_555 1_555
C39 C40 1_555 1_555
C40 H42 1_555 1_555
C41 C40 1_555 1_555
C42 S3 1_555 1_555
C43 C41 1_555 1_555
H43 C43 1_555 1_555
H44 C43 1_555 1_555
C44 C43 1_555 1_555
H45 C44 1_555 1_555
H46 C44 1_555 1_555
C45 C44 1_555 1_555
H47 C45 1_555 1_555
H48 C45 1_555 1_555
C46 C45 1_555 1_555
H49 C46 1_555 1_555
H50 C46 1_555 1_555
C47 C46 1_555 1_555
H51 C47 1_555 1_555
H52 C47 1_555 1_555
C48 C47 1_555 1_555
H53 C48 1_555 1_555
H54 C48 1_555 1_555
H55 C48 1_555 1_555
C49 C10 1_555 1_555
C50 C49 1_555 1_555
H56 C50 1_555 1_555
C51 C50 1_555 1_555
C52 S4 1_555 1_555
C53 C51 1_555 1_555
H57 C53 1_555 1_555
H58 C53 1_555 1_555
C54 C53 1_555 1_555
H59 C54 1_555 1_555
H60 C54 1_555 1_555
C55 C54 1_555 1_555
H61 C55 1_555 1_555
H62 C55 1_555 1_555
C56 C55 1_555 1_555
H63 C56 1_555 1_555
H64 C56 1_555 1_555
C57 C56 1_555 1_555
H65 C57 1_555 1_555
H66 C57 1_555 1_555
C58 C57 1_555 1_555
H67 C58 1_555 1_555
H68 C58 1_555 1_555
H69 C58 1_555 1_555
C5 C6 1_555 1_555
C7 C8 1_555 1_555
C11 C12 1_555 1_555
C13 C32 1_555 1_555
C15 C16 1_555 1_555
C18 C19 1_555 1_555
C29 C42 1_555 1_555
C31 C32 1_555 1_555
C39 C52 1_555 1_555
C41 C42 1_555 1_555
C51 C52 1_555 1_555

#END
