
#######################################################################
#
#                 Cambridge Crystallographic Data Centre
#                                CCDC 
#
#######################################################################
#
# If this CIF has been generated from an entry in the Cambridge 
# Structural Database, then it will include bibliographic, chemical, 
# crystal, experimental, refinement or atomic coordinate data resulting 
# from the CCDC's data processing and validation procedures.
#
#######################################################################

data_OFOPEH
_chemical_formula_moiety         'C36 H23 N5,C1 H2 Cl2'
_chemical_name_systematic        
"9,9'-[2-([1,2,4]triazolo[1,5-a]pyridin-2-yl)-1,3-phenylene]bis(9H-carbazole) dichloromethane solvate"
_symmetry_cell_setting           monoclinic
_symmetry_space_group_name_H-M   'P 21/c'
_symmetry_Int_Tables_number      14
_space_group_name_Hall           '-P 2ybc'
loop_
_symmetry_equiv_pos_site_id
_symmetry_equiv_pos_as_xyz
1 x,y,z
2 -x,1/2+y,1/2-z
3 -x,-y,-z
4 x,1/2-y,1/2+z
_cell_length_a                   13.8123(14)
_cell_length_b                   17.7997(19)
_cell_length_c                   13.9287(15)
_cell_angle_alpha                90
_cell_angle_beta                 116.496(2)
_cell_angle_gamma                90
_cell_volume                     3064.75
_exptl_crystal_colour            colorless
_exptl_crystal_description       prismatic
_cell_formula_units_Z            4
loop_
_atom_site_label
_atom_site_type_symbol
_atom_site_fract_x
_atom_site_fract_y
_atom_site_fract_z
Cl1 Cl 0.18004(8) 0.65949(6) 0.62341(9)
Cl2 Cl 0.33707(7) 0.65673(7) 0.84552(9)
C1 C 0.2100(3) 0.62894(17) 0.7507(3)
H1 H 0.2060 0.5745 0.7505
H2 H 0.1561 0.6483 0.7710
N1 N 0.40670(13) 0.31230(9) 0.94081(14)
N2 N 0.09254(13) 0.45919(10) 0.90194(15)
N3 N 0.19695(14) 0.31409(9) 0.74673(15)
N4 N 0.18000(15) 0.44088(10) 0.73981(15)
C2 C 0.33875(16) 0.34162(11) 0.98381(18)
C3 C 0.37148(17) 0.33689(12) 1.09298(19)
H3 H 0.4338 0.3103 1.1363
C4 C 0.31239(18) 0.37132(13) 1.13775(19)
H4 H 0.3336 0.3672 1.2110
C5 C 0.22131(18) 0.41217(13) 1.07353(19)
H5 H 0.1833 0.4376 1.1044
C6 C 0.18624(16) 0.41561(11) 0.96438(17)
C7 C 0.24300(16) 0.37878(11) 0.91646(17)
C8 C 0.20526(16) 0.37849(11) 0.79921(17)
C9 C 0.1444(2) 0.29617(15) 0.5547(2)
H6 H 0.1511 0.2441 0.5582
C10 C 0.1142(2) 0.33266(17) 0.4616(2)
H7 H 0.1003 0.3056 0.3997
C11 C 0.1034(2) 0.41013(18) 0.4561(2)
H8 H 0.0815 0.4342 0.3904
C12 C 0.1240(2) 0.45131(15) 0.5445(2)
H9 H 0.1177 0.5034 0.5408
C13 C 0.43540(16) 0.23733(12) 0.94021(17)
C14 C 0.4061(2) 0.17471(14) 0.9796(2)
H10 H 0.3610 0.1784 1.0130
C15 C 0.4469(3) 0.10596(15) 0.9673(2)
H11 H 0.4283 0.0626 0.9925
C16 C 0.5143(3) 0.10058(17) 0.9184(3)
H12 H 0.5411 0.0538 0.9124
C17 C 0.5422(2) 0.16198(15) 0.8791(2)
H13 H 0.5873 0.1574 0.8460
C18 C 0.50255(16) 0.23193(13) 0.88868(18)
C19 C 0.51342(17) 0.30676(13) 0.85530(18)
C20 C 0.5681(2) 0.33783(18) 0.8009(2)
H14 H 0.6076 0.3073 0.7771
C21 C 0.5627(2) 0.41339(19) 0.7833(2)
H15 H 0.5983 0.4342 0.7466
C22 C 0.5052(2) 0.45964(16) 0.8192(2)
H16 H 0.5037 0.5111 0.8068
C23 C 0.45033(18) 0.43145(13) 0.8727(2)
H17 H 0.4120 0.4628 0.8970
C24 C 0.45424(16) 0.35486(12) 0.88913(18)
C25 C 0.08785(17) 0.53649(12) 0.90997(18)
C26 C 0.1676(2) 0.58587(14) 0.9743(2)
H18 H 0.2358 0.5688 1.0222
C27 C 0.1427(2) 0.66092(14) 0.9651(3)
H19 H 0.1951 0.6951 1.0079
C28 C 0.0413(2) 0.68706(15) 0.8934(3)
H20 H 0.0272 0.7384 0.8884
C29 C -0.0383(2) 0.63804(14) 0.8298(2)
H21 H -0.1063 0.6558 0.7823
C30 C -0.01596(17) 0.56109(12) 0.83757(18)
C31 C -0.07705(17) 0.49515(13) 0.78545(18)
C32 C -0.18344(19) 0.48264(16) 0.7093(2)
H22 H -0.2311 0.5227 0.6815
C33 C -0.2171(2) 0.41062(18) 0.6758(2)
H23 H -0.2880 0.4019 0.6249
C34 C -0.1462(2) 0.35068(17) 0.7172(3)
H24 H -0.1704 0.3023 0.6932
C35 C -0.04100(19) 0.36101(14) 0.7929(2)
H25 H 0.0060 0.3206 0.8206
C36 C -0.00753(16) 0.43350(12) 0.82635(17)
C37 C 0.16511(15) 0.33795(11) 0.64529(16)
N5 N 0.15502(17) 0.41383(12) 0.64134(17)
N6? N 0.16511(15) 0.33795(11) 0.64529(16)
C38? C 0.15502(17) 0.41383(12) 0.64134(17)
loop_
_geom_bond_atom_site_label_1
_geom_bond_atom_site_label_2
_geom_bond_site_symmetry_1
_geom_bond_site_symmetry_2
Cl1 C1 1_555 1_555
Cl2 C1 1_555 1_555
C1 H1 1_555 1_555
H2 C1 1_555 1_555
N1 C2 1_555 1_555
N2 C6 1_555 1_555
N3 C8 1_555 1_555
N4 C8 1_555 1_555
C2 C3 1_555 1_555
C3 H3 1_555 1_555
C4 C3 1_555 1_555
H4 C4 1_555 1_555
C5 C4 1_555 1_555
H5 C5 1_555 1_555
C6 C5 1_555 1_555
C7 C2 1_555 1_555
C8 C7 1_555 1_555
C9 H6 1_555 1_555
C10 C9 1_555 1_555
H7 C10 1_555 1_555
C11 C10 1_555 1_555
H8 C11 1_555 1_555
C12 C11 1_555 1_555
H9 C12 1_555 1_555
C13 N1 1_555 1_555
C14 C13 1_555 1_555
H10 C14 1_555 1_555
C15 C14 1_555 1_555
H11 C15 1_555 1_555
C16 C15 1_555 1_555
H12 C16 1_555 1_555
C17 C16 1_555 1_555
H13 C17 1_555 1_555
C18 C13 1_555 1_555
C19 C18 1_555 1_555
C20 C19 1_555 1_555
H14 C20 1_555 1_555
C21 C20 1_555 1_555
H15 C21 1_555 1_555
C22 C21 1_555 1_555
H16 C22 1_555 1_555
C23 C22 1_555 1_555
H17 C23 1_555 1_555
C24 N1 1_555 1_555
C25 N2 1_555 1_555
C26 C25 1_555 1_555
H18 C26 1_555 1_555
C27 C26 1_555 1_555
H19 C27 1_555 1_555
C28 C27 1_555 1_555
H20 C28 1_555 1_555
C29 C28 1_555 1_555
H21 C29 1_555 1_555
C30 C25 1_555 1_555
C31 C30 1_555 1_555
C32 C31 1_555 1_555
H22 C32 1_555 1_555
C33 C32 1_555 1_555
H23 C33 1_555 1_555
C34 C33 1_555 1_555
H24 C34 1_555 1_555
C35 C34 1_555 1_555
H25 C35 1_555 1_555
C36 N2 1_555 1_555
C37 N3 1_555 1_555
N5 N4 1_555 1_555
C6 C7 1_555 1_555
C9 C37 1_555 1_555
C12 N5 1_555 1_555
C17 C18 1_555 1_555
C19 C24 1_555 1_555
C23 C24 1_555 1_555
C29 C30 1_555 1_555
C31 C36 1_555 1_555
C35 C36 1_555 1_555
C37 N5 1_555 1_555

#END
