
#######################################################################
#
#                 Cambridge Crystallographic Data Centre
#                                CCDC 
#
#######################################################################
#
# If this CIF has been generated from an entry in the Cambridge 
# Structural Database, then it will include bibliographic, chemical, 
# crystal, experimental, refinement or atomic coordinate data resulting 
# from the CCDC's data processing and validation procedures.
#
#######################################################################

data_OFOQAE
_chemical_formula_moiety         'C48 H48 N12,3.5(C4 H8 O2),0.5(H2 O1)'
_chemical_name_systematic        
'5,8,16,19,27,30,38,41,46,49,54,57-dodecaazaheptacyclo[21.21.6.6^12,34^.1^3,43^.1^10,14^.1^21,25^.1^32,36^]hexaconta-1,3(51),4,8,10(60),11,13,15,19,21(59),22,24,26,30,32(52),33,35,37,41,43,45,49,53,57-tetracosaene 1,4-dioxane solvate hemihydrate'
_symmetry_cell_setting           monoclinic
_symmetry_space_group_name_H-M   'P 21/c'
_symmetry_Int_Tables_number      14
_space_group_name_Hall           '-P 2ybc'
loop_
_symmetry_equiv_pos_site_id
_symmetry_equiv_pos_as_xyz
1 x,y,z
2 -x,1/2+y,1/2-z
3 -x,-y,-z
4 x,1/2-y,1/2+z
_cell_length_a                   27.968(2)
_cell_length_b                   18.6492(14)
_cell_length_c                   26.4967(18)
_cell_angle_alpha                90
_cell_angle_beta                 116.638(2)
_cell_angle_gamma                90
_cell_volume                     12353.3
_exptl_crystal_colour            colorless
_exptl_crystal_description       block
_cell_formula_units_Z            8
loop_
_atom_site_label
_atom_site_type_symbol
_atom_site_fract_x
_atom_site_fract_y
_atom_site_fract_z
O1 O 0.09294(8) -0.05286(10) 0.39949(8)
O2 O 0.18417(7) 0.02254(10) 0.40974(8)
C1 C 0.14370(12) -0.05934(17) 0.44829(12)
H1 H 0.1473 -0.1083 0.4640
H2 H 0.1453 -0.0249 0.4775
C2 C 0.18852(12) -0.04534(16) 0.43475(13)
H3 H 0.2226 -0.0480 0.4698
H4 H 0.1892 -0.0828 0.4086
C3 C 0.13423(12) 0.02821(17) 0.36043(13)
H5 H 0.1332 -0.0069 0.3319
H6 H 0.1307 0.0768 0.3441
C4 C 0.08908(11) 0.01473(16) 0.37361(13)
H7 H 0.0881 0.0529 0.3991
H8 H 0.0552 0.0170 0.3383
O3 O 0.31892(9) 0.51608(14) 0.59675(10)
O4 O 0.41174(10) 0.44921(14) 0.60391(10)
C5 C 0.31880(14) 0.4712(2) 0.55399(14)
H9 H 0.3206 0.5014 0.5242
H10 H 0.2845 0.4446 0.5368
C6 C 0.36262(15) 0.4198(2) 0.57346(18)
H11 H 0.3564 0.3832 0.5969
H12 H 0.3623 0.3951 0.5402
C7 C 0.41343(13) 0.4944(2) 0.64710(15)
H13 H 0.4474 0.5217 0.6625
H14 H 0.4135 0.4644 0.6780
C8 C 0.36906(15) 0.5448(2) 0.62918(18)
H15 H 0.3692 0.5668 0.6633
H16 H 0.3753 0.5836 0.6073
O7 O 0.22638(8) 0.24638(10) 0.49065(8)
O8 O 0.29944(8) 0.15184(11) 0.57271(8)
C11 C 0.24750(13) 0.18439(15) 0.47530(13)
H25 H 0.2798 0.1983 0.4712
H26 H 0.2206 0.1661 0.4384
C12 C 0.26156(13) 0.12693(17) 0.51814(12)
H27 H 0.2288 0.1103 0.5201
H28 H 0.2769 0.0857 0.5068
C13 C 0.27815(13) 0.21257(18) 0.58825(13)
H29 H 0.3047 0.2307 0.6254
H30 H 0.2456 0.1984 0.5917
C14 C 0.26461(13) 0.27025(17) 0.54517(14)
H31 H 0.2500 0.3120 0.5567
H32 H 0.2976 0.2859 0.5432
O9 O 0.20039(8) -0.31770(10) 0.41325(9)
O10 O 0.26570(8) -0.26107(11) 0.52209(8)
C15 C 0.20114(14) -0.34833(17) 0.46316(14)
H33 H 0.1941 -0.4005 0.4577
H34 H 0.1726 -0.3263 0.4705
C16 C 0.25434(14) -0.33580(17) 0.51262(14)
H35 H 0.2545 -0.3577 0.5468
H36 H 0.2826 -0.3593 0.5057
C17 C 0.26461(11) -0.22973(16) 0.47239(12)
H37 H 0.2937 -0.2504 0.4654
H38 H 0.2707 -0.1774 0.4780
C18 C 0.21188(11) -0.24328(15) 0.42230(13)
H39 H 0.1832 -0.2193 0.4282
H40 H 0.2124 -0.2222 0.3883
O11 O 0.08382(15) 0.00830(19) 0.18158(15)
O12 O 0.04724(12) 0.13465(16) 0.11863(13)
C19 C 0.0632(2) 0.0671(3) 0.2001(2)
H41 H 0.0930 0.0993 0.2239
H42 H 0.0465 0.0490 0.2236
C20 C 0.02385(17) 0.1075(2) 0.15282(18)
H43 H -0.0068 0.0760 0.1298
H44 H 0.0103 0.1478 0.1671
C21 C 0.06618(17) 0.0769(2) 0.09840(17)
H45 H 0.0832 0.0960 0.0755
H46 H 0.0355 0.0469 0.0734
C22 C 0.1047(4) 0.0324(5) 0.1434(3)
H47 H 0.1137 -0.0098 0.1267
H48 H 0.1379 0.0601 0.1648
O15 O 0.03233(13) -0.1258(2) 0.13486(14)
O16 O 0.03745(7) -0.03579(10) 0.54817(7)
C27 C 0.0206(3) -0.0640(3) 0.4906(2)
H57 H -0.0121 -0.0935 0.4787
H58 H 0.0492 -0.0942 0.4894
C28 C 0.0099(3) -0.0009(4) 0.4525(3)
H59 H 0.0411 0.0318 0.4669
H60 H 0.0025 -0.0166 0.4140
O16B O -0.03745(7) 0.03579(10) 0.45183(7)
C27B C -0.0206(3) 0.0640(3) 0.5094(2)
H57B H 0.0121 0.0935 0.5213
H58B H -0.0492 0.0942 0.5106
C28B C -0.0099(3) 0.0009(4) 0.5475(3)
H59B H -0.0411 -0.0318 0.5331
H60B H -0.0025 0.0166 0.5860
O17 O 0.46691(9) 0.47290(12) 0.83953(10)
O18 O 0.41691(10) 0.59633(15) 0.85428(11)
C31 C 0.44750(14) 0.5290(2) 0.79898(13)
H65 H 0.4103 0.5180 0.7712
H66 H 0.4696 0.5315 0.7785
C32 C 0.44880(14) 0.59910(19) 0.82541(15)
H67 H 0.4861 0.6113 0.8522
H68 H 0.4352 0.6368 0.7960
C33 C 0.43712(16) 0.5402(3) 0.89565(15)
H69 H 0.4156 0.5377 0.9168
H70 H 0.4746 0.5509 0.9229
C34 C 0.43486(13) 0.4704(2) 0.86815(16)
H71 H 0.4478 0.4319 0.8970
H72 H 0.3974 0.4594 0.8410
O19 O 0.46899(7) 0.44498(9) 0.46331(7)
C35 C 0.46734(13) 0.46046(18) 0.51569(12)
H73 H 0.4601 0.4156 0.5311
H74 H 0.4376 0.4942 0.5085
C36 C 0.51685(14) 0.49139(17) 0.55696(12)
H75 H 0.5133 0.5029 0.5916
H76 H 0.5459 0.4557 0.5671
O19B O 0.53101(7) 0.55502(9) 0.53669(7)
C35B C 0.53266(13) 0.53954(18) 0.48431(12)
H73B H 0.5399 0.5844 0.4689
H74B H 0.5624 0.5058 0.4915
C36B C 0.48315(14) 0.50861(17) 0.44304(12)
H75B H 0.4867 0.4971 0.4084
H76B H 0.4541 0.5443 0.4329
O20 O -0.0704(6) 0.0803(9) 0.1782(7)
N1 N 0.34790(8) -0.07633(13) 0.59417(9)
N2 N 0.37298(8) -0.02856(11) 0.50242(8)
N3 N 0.12670(9) -0.21776(12) 0.56942(8)
N4 N 0.06475(9) -0.28106(12) 0.45516(9)
N5 N 0.17170(9) 0.11966(13) 0.62286(9)
N6 N 0.08577(8) 0.20725(12) 0.53264(9)
N7 N 0.21203(8) 0.17535(11) 0.29832(8)
N8 N 0.13419(9) 0.26056(11) 0.31984(9)
N9 N 0.20595(8) -0.16121(11) 0.26132(8)
N10 N 0.09850(8) -0.22148(11) 0.23125(8)
N11 N -0.07941(8) 0.09460(11) 0.28098(9)
N12 N -0.08774(8) -0.06123(11) 0.26773(9)
C37 C 0.26580(10) -0.04551(15) 0.59834(10)
C38 C 0.24376(10) -0.11437(15) 0.58653(10)
H77 H 0.2625 -0.1519 0.5787
C39 C 0.19457(10) -0.12872(15) 0.58605(10)
C40 C 0.16711(11) -0.07217(15) 0.59690(10)
H78 H 0.1337 -0.0814 0.5969
C41 C 0.18784(10) -0.00364(15) 0.60747(10)
C42 C 0.23808(10) 0.00924(16) 0.60901(10)
H79 H 0.2531 0.0560 0.6175
C43 C 0.31902(10) -0.02953(16) 0.60193(10)
H80 H 0.3322 0.0181 0.6105
C44 C 0.17277(11) -0.20166(15) 0.57410(10)
H81 H 0.1940 -0.2386 0.5696
C45 C 0.15727(11) 0.05463(16) 0.61676(11)
H82 H 0.1249 0.0428 0.6183
C46 C 0.25814(9) 0.07098(13) 0.34968(10)
C47 C 0.22709(10) 0.02451(13) 0.30569(10)
H83 H 0.2005 0.0438 0.2714
C48 C 0.23421(9) -0.04877(13) 0.31104(10)
C49 C 0.27317(9) -0.07709(14) 0.36173(10)
H84 H 0.2784 -0.1275 0.3657
C50 C 0.30415(9) -0.03250(13) 0.40607(10)
C51 C 0.29638(9) 0.04179(13) 0.39933(10)
H85 H 0.3179 0.0727 0.4295
C52 C 0.24955(10) 0.14870(13) 0.34251(10)
H86 H 0.2726 0.1799 0.3716
C53 C 0.20118(10) -0.09411(14) 0.26256(10)
H87 H 0.1745 -0.0714 0.2300
C54 C 0.34373(9) -0.06494(14) 0.45890(10)
H88 H 0.3476 -0.1156 0.4606
C55 C 0.07128(10) 0.20444(13) 0.43541(11)
C56 C 0.02169(10) 0.16918(13) 0.41275(11)
H89 H 0.0059 0.1569 0.4367
C57 C -0.00444(10) 0.15206(13) 0.35599(11)
C58 C 0.01847(10) 0.17281(13) 0.32061(11)
H90 H 0.0002 0.1626 0.2814
C59 C 0.06720(10) 0.20788(13) 0.34218(11)
C60 C 0.09392(10) 0.22240(13) 0.39986(11)
H91 H 0.1280 0.2448 0.4151
C61 C 0.10088(11) 0.22284(14) 0.49545(11)
H92 H 0.1336 0.2482 0.5073
C62 C -0.05486(10) 0.11173(13) 0.33281(11)
H93 H -0.0696 0.0980 0.3574
C63 C 0.08978(11) 0.22832(13) 0.30359(11)
H94 H 0.0702 0.2168 0.2647
C64 C 0.03028(9) -0.21111(13) 0.36920(10)
C65 C 0.06495(10) -0.23804(13) 0.34845(10)
H95 H 0.0901 -0.2742 0.3689
C66 C 0.06261(10) -0.21208(13) 0.29812(10)
C67 C 0.02465(10) -0.15968(13) 0.26791(10)
H96 H 0.0230 -0.1418 0.2336
C68 C -0.01047(10) -0.13356(13) 0.28728(10)
C69 C -0.00720(10) -0.15982(13) 0.33801(10)
H97 H -0.0312 -0.1421 0.3515
C70 C 0.03146(10) -0.23587(14) 0.42236(10)
H98 H 0.0057 -0.2168 0.4328
C71 C 0.09939(10) -0.24121(13) 0.27737(10)
H99 H 0.1248 -0.2762 0.2995
C72 C -0.05162(10) -0.08079(14) 0.25425(10)
H100 H -0.0511 -0.0606 0.2216
C73 C 0.40081(10) -0.05214(16) 0.60259(11)
H101 H 0.4287 -0.0759 0.6364
H102 H 0.4039 0.0003 0.6093
C74 C 0.40992(10) -0.06929(15) 0.55163(10)
H103 H 0.4472 -0.0573 0.5600
H104 H 0.4045 -0.1212 0.5433
C75 C 0.11027(11) -0.29254(15) 0.55795(11)
H105 H 0.1062 -0.3126 0.5904
H106 H 0.1385 -0.3202 0.5538
C76 C 0.05829(11) -0.30082(15) 0.50519(10)
H107 H 0.0460 -0.3512 0.5017
H108 H 0.0307 -0.2699 0.5078
C77 C 0.13685(11) 0.17068(15) 0.63210(12)
H109 H 0.1557 0.1903 0.6708
H110 H 0.1045 0.1454 0.6289
C78 C 0.12032(11) 0.23162(15) 0.59030(11)
H111 H 0.1011 0.2681 0.6013
H112 H 0.1527 0.2545 0.5913
C79 C 0.20801(10) 0.25325(13) 0.29454(11)
H113 H 0.2203 0.2705 0.2670
H114 H 0.2315 0.2744 0.3318
C80 C 0.15096(10) 0.27733(14) 0.27632(11)
H115 H 0.1482 0.3297 0.2693
H116 H 0.1270 0.2529 0.2407
C81 C 0.17144(10) -0.19545(14) 0.20777(10)
H117 H 0.1937 -0.2166 0.1912
H118 H 0.1479 -0.1589 0.1811
C82 C 0.13761(10) -0.25339(14) 0.21540(11)
H119 H 0.1188 -0.2806 0.1798
H120 H 0.1608 -0.2871 0.2452
C83 C -0.12928(10) 0.05543(14) 0.26238(11)
H121 H -0.1595 0.0865 0.2379
H122 H -0.1346 0.0413 0.2955
C84 C -0.12788(11) -0.01079(14) 0.22999(11)
H123 H -0.1635 -0.0340 0.2131
H124 H -0.1192 0.0031 0.1990
N13 N 0.44480(8) 0.22304(11) 0.54111(8)
N14 N 0.35460(8) 0.26945(11) 0.43314(8)
N15 N 0.39892(8) 0.25968(12) 0.75552(8)
N16 N 0.30827(8) 0.33631(11) 0.75726(8)
N17 N 0.58788(8) 0.44103(11) 0.73902(9)
N18 N 0.58008(8) 0.59128(11) 0.70472(9)
N19 N 0.15036(9) 0.45328(12) 0.41007(9)
N20 N 0.13296(8) 0.44761(11) 0.51303(8)
N21 N 0.34541(9) 0.61338(11) 0.38965(8)
N22 N 0.39825(8) 0.72876(11) 0.47589(8)
N23 N 0.28466(8) 0.66994(11) 0.70288(8)
N24 N 0.37805(8) 0.74899(11) 0.70910(9)
C85 C 0.45307(10) 0.26717(13) 0.62963(10)
C86 C 0.43361(10) 0.26415(14) 0.66945(10)
H125 H 0.4048 0.2329 0.6637
C87 C 0.45618(10) 0.30686(14) 0.71806(10)
C88 C 0.49843(10) 0.35176(14) 0.72676(10)
H126 H 0.5138 0.3805 0.7598
C89 C 0.51879(9) 0.35524(13) 0.68704(10)
C90 C 0.49580(9) 0.31319(13) 0.63929(10)
H127 H 0.5093 0.3155 0.6122
C91 C 0.42838(10) 0.22269(13) 0.57881(10)
H128 H 0.3992 0.1926 0.5738
C92 C 0.43599(10) 0.30232(14) 0.76060(10)
H129 H 0.4513 0.3324 0.7929
C93 C 0.56382(10) 0.40219(13) 0.69553(10)
H130 H 0.5756 0.4036 0.6670
C94 C 0.23595(10) 0.42756(14) 0.41236(10)
C95 C 0.27335(10) 0.37488(14) 0.42024(10)
H131 H 0.2667 0.3271 0.4278
C96 C 0.32129(10) 0.39105(13) 0.41719(10)
C97 C 0.33065(11) 0.46129(14) 0.40649(10)
H132 H 0.3627 0.4727 0.4040
C98 C 0.29329(11) 0.51554(14) 0.39924(10)
C99 C 0.24612(10) 0.49806(14) 0.40141(10)
H133 H 0.2203 0.5343 0.3954
C100 C 0.18601(10) 0.40780(15) 0.41526(10)
H134 H 0.1804 0.3589 0.4213
C101 C 0.36093(10) 0.33481(14) 0.42436(10)
H135 H 0.3928 0.3482 0.4223
C102 C 0.30243(11) 0.59075(14) 0.38912(10)
H136 H 0.2745 0.6243 0.3818
C103 C 0.25679(9) 0.41465(13) 0.68059(10)
C104 C 0.21747(9) 0.42230(13) 0.62567(10)
H137 H 0.2003 0.3809 0.6044
C105 C 0.20267(9) 0.49016(13) 0.60101(10)
C106 C 0.22819(9) 0.55012(13) 0.63208(10)
H138 H 0.2187 0.5963 0.6154
C107 C 0.26788(9) 0.54348(13) 0.68776(10)
C108 C 0.28145(9) 0.47629(13) 0.71139(10)
H139 H 0.3081 0.4716 0.7494
C109 C 0.27312(10) 0.34361(14) 0.70664(10)
H140 H 0.2569 0.3021 0.6849
C110 C 0.16048(10) 0.49913(14) 0.54298(10)
H141 H 0.1535 0.5460 0.5272
C111 C 0.29470(9) 0.60656(14) 0.72200(10)
H142 H 0.3206 0.5995 0.7600
C112 C 0.49676(10) 0.65524(13) 0.67081(10)
C113 C 0.45965(10) 0.68666(13) 0.68537(11)
H143 H 0.4646 0.6834 0.7232
C114 C 0.41504(10) 0.72313(13) 0.64524(10)
C115 C 0.40800(10) 0.72780(14) 0.59011(11)
H144 H 0.3779 0.7525 0.5626
C116 C 0.44506(10) 0.69623(13) 0.57454(10)
C117 C 0.48904(10) 0.66046(13) 0.61493(10)
H145 H 0.5143 0.6392 0.6046
C118 C 0.54369(10) 0.61917(14) 0.71429(11)
H146 H 0.5470 0.6166 0.7515
C119 C 0.37489(10) 0.75497(13) 0.66024(11)
H147 H 0.3458 0.7808 0.6323
C120 C 0.43791(10) 0.69915(14) 0.51609(11)
H148 H 0.4645 0.6777 0.5080
C121 C 0.41675(10) 0.17660(14) 0.49262(10)
H149 H 0.3862 0.1535 0.4954
H150 H 0.4412 0.1384 0.4923
C122 C 0.39661(10) 0.21932(13) 0.43830(10)
H151 H 0.4267 0.2462 0.4374
H152 H 0.3825 0.1860 0.4057
C123 C 0.38429(10) 0.25700(15) 0.80176(10)
H153 H 0.4025 0.2962 0.8288
H154 H 0.3961 0.2108 0.8221
C124 C 0.32420(10) 0.26456(13) 0.77941(10)
H155 H 0.3057 0.2289 0.7492
H156 H 0.3141 0.2556 0.8102
C125 C 0.63326(10) 0.48314(14) 0.74221(11)
H157 H 0.6360 0.4786 0.7064
H158 H 0.6668 0.4647 0.7731
C126 C 0.62600(10) 0.56119(14) 0.75294(11)
H159 H 0.6205 0.5653 0.7872
H160 H 0.6586 0.5885 0.7594
C127 C 0.10239(10) 0.42567(15) 0.41229(11)
H161 H 0.1069 0.3738 0.4212
H162 H 0.0712 0.4316 0.3749
C128 C 0.09192(10) 0.46451(14) 0.45646(10)
H163 H 0.0914 0.5169 0.4501
H164 H 0.0564 0.4504 0.4529
C129 C 0.34728(11) 0.68948(13) 0.37741(10)
H165 H 0.3156 0.7138 0.3769
H166 H 0.3456 0.6945 0.3394
C130 C 0.39740(10) 0.72577(14) 0.42031(10)
H167 H 0.4292 0.6991 0.4232
H168 H 0.3993 0.7751 0.4075
C131 C 0.31180(10) 0.72716(13) 0.74326(10)
H169 H 0.3407 0.7064 0.7779
H170 H 0.2860 0.7511 0.7539
C132 C 0.33520(10) 0.78151(13) 0.71854(11)
H171 H 0.3069 0.7996 0.6823
H172 H 0.3495 0.8227 0.7447
O5? O 0.3212(5) 0.4483(7) 0.6028(5)
O6? O 0.4101(4) 0.5179(6) 0.6012(5)
C9? C 0.3618(8) 0.5320(10) 0.5619(8)
H17? H 0.3633 0.5388 0.5256
H18? H 0.3496 0.5777 0.5713
C10? C 0.3700(8) 0.4414(11) 0.6435(9)
H19? H 0.3825 0.3925 0.6408
H20? H 0.3678 0.4439 0.6798
H21? H 0.2825 0.4903 0.5302
H22? H 0.3246 0.4300 0.5338
H23? H 0.4129 0.5358 0.6702
H24? H 0.4486 0.4706 0.6676
O13? O 0.0172(4) -0.0088(5) 0.1643(4)
O14? O 0.1079(8) 0.0462(11) 0.1610(7)
C23? C 0.0504(8) 0.0389(10) 0.2054(8)
H49? H 0.0796 0.0130 0.2366
H50? H 0.0299 0.0667 0.2210
C24? C 0.0757(6) 0.0947(8) 0.1712(7)
H51? H 0.0471 0.1141 0.1357
H52? H 0.0967 0.1347 0.1957
C25? C 0.0696(7) -0.0126(9) 0.1210(7)
H53? H 0.0401 0.0100 0.0878
H54? H 0.0895 -0.0450 0.1075
C26? C 0.0500(6) -0.0498(9) 0.1519(7)
H55? H 0.0302 -0.0924 0.1303
H56? H 0.0801 -0.0668 0.1873
C29? C 0.0447(2) -0.0285(4) 0.4964(2)
H61? H 0.0661 -0.0688 0.4930
H62? H 0.0631 0.0171 0.4969
C30? C -0.0110(3) -0.0292(4) 0.4478(3)
H63? H -0.0093 -0.0308 0.4114
H64? H -0.0310 -0.0718 0.4504
loop_
_geom_bond_atom_site_label_1
_geom_bond_atom_site_label_2
_geom_bond_site_symmetry_1
_geom_bond_site_symmetry_2
O1 C1 1_555 1_555
O2 C2 1_555 1_555
C1 H1 1_555 1_555
H2 C1 1_555 1_555
C2 C1 1_555 1_555
H3 C2 1_555 1_555
H4 C2 1_555 1_555
C3 O2 1_555 1_555
H5 C3 1_555 1_555
H6 C3 1_555 1_555
C4 O1 1_555 1_555
H7 C4 1_555 1_555
H8 C4 1_555 1_555
O3 C5 1_555 1_555
O4 C6 1_555 1_555
C5 H9 1_555 1_555
H10 C5 1_555 1_555
C6 C5 1_555 1_555
H11 C6 1_555 1_555
H12 C6 1_555 1_555
C7 O4 1_555 1_555
H13 C7 1_555 1_555
H14 C7 1_555 1_555
C8 O3 1_555 1_555
H15 C8 1_555 1_555
H16 C8 1_555 1_555
O7 C11 1_555 1_555
O8 C12 1_555 1_555
C11 H25 1_555 1_555
H26 C11 1_555 1_555
C12 C11 1_555 1_555
H27 C12 1_555 1_555
H28 C12 1_555 1_555
C13 O8 1_555 1_555
H29 C13 1_555 1_555
H30 C13 1_555 1_555
C14 O7 1_555 1_555
H31 C14 1_555 1_555
H32 C14 1_555 1_555
O9 C15 1_555 1_555
O10 C16 1_555 1_555
C15 H33 1_555 1_555
H34 C15 1_555 1_555
C16 C15 1_555 1_555
H35 C16 1_555 1_555
H36 C16 1_555 1_555
C17 O10 1_555 1_555
H37 C17 1_555 1_555
H38 C17 1_555 1_555
C18 O9 1_555 1_555
H39 C18 1_555 1_555
H40 C18 1_555 1_555
O11 C19 1_555 1_555
O12 C20 1_555 1_555
C19 H41 1_555 1_555
H42 C19 1_555 1_555
C20 C19 1_555 1_555
H43 C20 1_555 1_555
H44 C20 1_555 1_555
C21 O12 1_555 1_555
H45 C21 1_555 1_555
H46 C21 1_555 1_555
C22 O11 1_555 1_555
H47 C22 1_555 1_555
H48 C22 1_555 1_555
O16 C27 1_555 1_555
C27 H57 1_555 1_555
H58 C27 1_555 1_555
C28 C27 1_555 1_555
H59 C28 1_555 1_555
H60 C28 1_555 1_555
O17 C31 1_555 1_555
O18 C32 1_555 1_555
C31 H65 1_555 1_555
H66 C31 1_555 1_555
C32 C31 1_555 1_555
H67 C32 1_555 1_555
H68 C32 1_555 1_555
C33 O18 1_555 1_555
H69 C33 1_555 1_555
H70 C33 1_555 1_555
C34 O17 1_555 1_555
H71 C34 1_555 1_555
H72 C34 1_555 1_555
O19 C35 1_555 1_555
C35 H73 1_555 1_555
H74 C35 1_555 1_555
C36 C35 1_555 1_555
H75 C36 1_555 1_555
H76 C36 1_555 1_555
N1 C43 1_555 1_555
N2 C54 1_555 1_555
N3 C44 1_555 1_555
N4 C70 1_555 1_555
N5 C45 1_555 1_555
N6 C61 1_555 1_555
N7 C52 1_555 1_555
N8 C63 1_555 1_555
N9 C53 1_555 1_555
N10 C71 1_555 1_555
N11 C62 1_555 1_555
N12 C72 1_555 1_555
C37 C38 1_555 1_555
C38 H77 1_555 1_555
C39 C38 1_555 1_555
C40 C39 1_555 1_555
H78 C40 1_555 1_555
C41 C40 1_555 1_555
C42 C37 1_555 1_555
H79 C42 1_555 1_555
C43 C37 1_555 1_555
H80 C43 1_555 1_555
C44 C39 1_555 1_555
H81 C44 1_555 1_555
C45 C41 1_555 1_555
H82 C45 1_555 1_555
C46 C47 1_555 1_555
C47 H83 1_555 1_555
C48 C47 1_555 1_555
C49 C48 1_555 1_555
H84 C49 1_555 1_555
C50 C49 1_555 1_555
C51 C46 1_555 1_555
H85 C51 1_555 1_555
C52 C46 1_555 1_555
H86 C52 1_555 1_555
C53 C48 1_555 1_555
H87 C53 1_555 1_555
C54 C50 1_555 1_555
H88 C54 1_555 1_555
C55 C56 1_555 1_555
C56 H89 1_555 1_555
C57 C56 1_555 1_555
C58 C57 1_555 1_555
H90 C58 1_555 1_555
C59 C58 1_555 1_555
C60 C55 1_555 1_555
H91 C60 1_555 1_555
C61 C55 1_555 1_555
H92 C61 1_555 1_555
C62 C57 1_555 1_555
H93 C62 1_555 1_555
C63 C59 1_555 1_555
H94 C63 1_555 1_555
C64 C65 1_555 1_555
C65 H95 1_555 1_555
C66 C65 1_555 1_555
C67 C66 1_555 1_555
H96 C67 1_555 1_555
C68 C67 1_555 1_555
C69 C64 1_555 1_555
H97 C69 1_555 1_555
C70 C64 1_555 1_555
H98 C70 1_555 1_555
C71 C66 1_555 1_555
H99 C71 1_555 1_555
C72 C68 1_555 1_555
H100 C72 1_555 1_555
C73 N1 1_555 1_555
H101 C73 1_555 1_555
H102 C73 1_555 1_555
C74 N2 1_555 1_555
H103 C74 1_555 1_555
H104 C74 1_555 1_555
C75 N3 1_555 1_555
H105 C75 1_555 1_555
H106 C75 1_555 1_555
C76 N4 1_555 1_555
H107 C76 1_555 1_555
H108 C76 1_555 1_555
C77 N5 1_555 1_555
H109 C77 1_555 1_555
H110 C77 1_555 1_555
C78 N6 1_555 1_555
H111 C78 1_555 1_555
H112 C78 1_555 1_555
C79 N7 1_555 1_555
H113 C79 1_555 1_555
H114 C79 1_555 1_555
C80 N8 1_555 1_555
H115 C80 1_555 1_555
H116 C80 1_555 1_555
C81 N9 1_555 1_555
H117 C81 1_555 1_555
H118 C81 1_555 1_555
C82 N10 1_555 1_555
H119 C82 1_555 1_555
H120 C82 1_555 1_555
C83 N11 1_555 1_555
H121 C83 1_555 1_555
H122 C83 1_555 1_555
C84 N12 1_555 1_555
H123 C84 1_555 1_555
H124 C84 1_555 1_555
N13 C91 1_555 1_555
N14 C101 1_555 1_555
N15 C92 1_555 1_555
N16 C109 1_555 1_555
N17 C93 1_555 1_555
N18 C118 1_555 1_555
N19 C100 1_555 1_555
N20 C110 1_555 1_555
N21 C102 1_555 1_555
N22 C120 1_555 1_555
N23 C111 1_555 1_555
N24 C119 1_555 1_555
C85 C86 1_555 1_555
C86 H125 1_555 1_555
C87 C86 1_555 1_555
C88 C87 1_555 1_555
H126 C88 1_555 1_555
C89 C88 1_555 1_555
C90 C85 1_555 1_555
H127 C90 1_555 1_555
C91 C85 1_555 1_555
H128 C91 1_555 1_555
C92 C87 1_555 1_555
H129 C92 1_555 1_555
C93 C89 1_555 1_555
H130 C93 1_555 1_555
C94 C95 1_555 1_555
C95 H131 1_555 1_555
C96 C95 1_555 1_555
C97 C96 1_555 1_555
H132 C97 1_555 1_555
C98 C97 1_555 1_555
C99 C94 1_555 1_555
H133 C99 1_555 1_555
C100 C94 1_555 1_555
H134 C100 1_555 1_555
C101 C96 1_555 1_555
H135 C101 1_555 1_555
C102 C98 1_555 1_555
H136 C102 1_555 1_555
C103 C104 1_555 1_555
C104 H137 1_555 1_555
C105 C104 1_555 1_555
C106 C105 1_555 1_555
H138 C106 1_555 1_555
C107 C106 1_555 1_555
C108 C103 1_555 1_555
H139 C108 1_555 1_555
C109 C103 1_555 1_555
H140 C109 1_555 1_555
C110 C105 1_555 1_555
H141 C110 1_555 1_555
C111 C107 1_555 1_555
H142 C111 1_555 1_555
C112 C113 1_555 1_555
C113 H143 1_555 1_555
C114 C113 1_555 1_555
C115 C114 1_555 1_555
H144 C115 1_555 1_555
C116 C115 1_555 1_555
C117 C112 1_555 1_555
H145 C117 1_555 1_555
C118 C112 1_555 1_555
H146 C118 1_555 1_555
C119 C114 1_555 1_555
H147 C119 1_555 1_555
C120 C116 1_555 1_555
H148 C120 1_555 1_555
C121 N13 1_555 1_555
H149 C121 1_555 1_555
H150 C121 1_555 1_555
C122 N14 1_555 1_555
H151 C122 1_555 1_555
H152 C122 1_555 1_555
C123 N15 1_555 1_555
H153 C123 1_555 1_555
H154 C123 1_555 1_555
C124 N16 1_555 1_555
H155 C124 1_555 1_555
H156 C124 1_555 1_555
C125 N17 1_555 1_555
H157 C125 1_555 1_555
H158 C125 1_555 1_555
C126 N18 1_555 1_555
H159 C126 1_555 1_555
H160 C126 1_555 1_555
C127 N19 1_555 1_555
H161 C127 1_555 1_555
H162 C127 1_555 1_555
C128 N20 1_555 1_555
H163 C128 1_555 1_555
H164 C128 1_555 1_555
C129 N21 1_555 1_555
H165 C129 1_555 1_555
H166 C129 1_555 1_555
C130 N22 1_555 1_555
H167 C130 1_555 1_555
H168 C130 1_555 1_555
C131 N23 1_555 1_555
H169 C131 1_555 1_555
H170 C131 1_555 1_555
C132 N24 1_555 1_555
H171 C132 1_555 1_555
H172 C132 1_555 1_555
O16B C28 1_555 1_555
C27B O16B 1_555 1_555
H57B C27B 1_555 1_555
H58B C27B 1_555 1_555
C28B O16 1_555 1_555
H59B C28B 1_555 1_555
H60B C28B 1_555 1_555
O19B C36 1_555 1_555
C35B O19B 1_555 1_555
H73B C35B 1_555 1_555
H74B C35B 1_555 1_555
C36B O19 1_555 1_555
H75B C36B 1_555 1_555
H76B C36B 1_555 1_555
C3 C4 1_555 1_555
C7 C8 1_555 1_555
C13 C14 1_555 1_555
C17 C18 1_555 1_555
C21 C22 1_555 1_555
C33 C34 1_555 1_555
C41 C42 1_555 1_555
C50 C51 1_555 1_555
C59 C60 1_555 1_555
C68 C69 1_555 1_555
C73 C74 1_555 1_555
C75 C76 1_555 1_555
C77 C78 1_555 1_555
C79 C80 1_555 1_555
C81 C82 1_555 1_555
C83 C84 1_555 1_555
C89 C90 1_555 1_555
C98 C99 1_555 1_555
C107 C108 1_555 1_555
C116 C117 1_555 1_555
C121 C122 1_555 1_555
C123 C124 1_555 1_555
C125 C126 1_555 1_555
C127 C128 1_555 1_555
C129 C130 1_555 1_555
C131 C132 1_555 1_555
C27B C28B 1_555 1_555
C35B C36B 1_555 1_555

#END
