
#######################################################################
#
#                 Cambridge Crystallographic Data Centre
#                                CCDC 
#
#######################################################################
#
# If this CIF has been generated from an entry in the Cambridge 
# Structural Database, then it will include bibliographic, chemical, 
# crystal, experimental, refinement or atomic coordinate data resulting 
# from the CCDC's data processing and validation procedures.
#
#######################################################################

data_OFOQOR
_chemical_formula_moiety         'C5 H6 N1 O4 P1'
_chemical_name_systematic        'Hydrogen 6-hydroxy-2-pyridiniophosphonate'
_symmetry_cell_setting           monoclinic
_symmetry_space_group_name_H-M   'P 21/n'
_symmetry_Int_Tables_number      14
_space_group_name_Hall           '-P 2yn'
loop_
_symmetry_equiv_pos_site_id
_symmetry_equiv_pos_as_xyz
1 x,y,z
2 1/2-x,1/2+y,1/2-z
3 -x,-y,-z
4 1/2+x,1/2-y,1/2+z
_cell_length_a                   7.3808(15)
_cell_length_b                   7.0347(14)
_cell_length_c                   12.711(3)
_cell_angle_alpha                90
_cell_angle_beta                 91.91(3)
_cell_angle_gamma                90
_cell_volume                     659.61
_exptl_crystal_colour            colorless
_exptl_crystal_description       block
_cell_formula_units_Z            4
loop_
_atom_site_label
_atom_site_type_symbol
_atom_site_fract_x
_atom_site_fract_y
_atom_site_fract_z
P1 P 0.63966(7) 0.44477(7) 0.31252(4)
O1 O 0.8222(2) 0.4532(2) 0.26168(12)
O2 O 0.6078(2) 0.5832(2) 0.39930(12)
O3 O 0.5986(2) 0.2392(2) 0.35069(12)
O4 O 0.3166(2) 0.8820(2) 0.05899(14)
C1 C 0.4698(3) 0.4836(3) 0.20708(16)
C2 C 0.3764(3) 0.3367(3) 0.16030(18)
H1 H 0.3906 0.2137 0.1860
C3 C 0.2590(3) 0.3722(3) 0.07329(18)
H2 H 0.1953 0.2724 0.0415
C4 C 0.2378(3) 0.5529(3) 0.03501(17)
H3 H 0.1626 0.5759 -0.0238
C5 C 0.3307(3) 0.7031(3) 0.08539(16)
N1 N 0.4431(2) 0.6642(2) 0.16845(13)
H4 H 0.510(4) 0.769(4) 0.196(2)
H5 H 0.631(5) 0.149(6) 0.310(3)
H6 H 0.252(5) 0.891(5) 0.004(3)
loop_
_geom_bond_atom_site_label_1
_geom_bond_atom_site_label_2
_geom_bond_site_symmetry_1
_geom_bond_site_symmetry_2
P1 O1 1_555 1_555
O2 P1 1_555 1_555
O3 P1 1_555 1_555
O4 C5 1_555 1_555
C1 P1 1_555 1_555
C2 C1 1_555 1_555
H1 C2 1_555 1_555
C3 C2 1_555 1_555
H2 C3 1_555 1_555
C4 C3 1_555 1_555
H3 C4 1_555 1_555
C5 C4 1_555 1_555
N1 C1 1_555 1_555
H4 N1 1_555 1_555
H5 O3 1_555 1_555
H6 O4 1_555 1_555
C5 N1 1_555 1_555

#END
