
#######################################################################
#
#                 Cambridge Crystallographic Data Centre
#                                CCDC 
#
#######################################################################
#
# If this CIF has been generated from an entry in the Cambridge 
# Structural Database, then it will include bibliographic, chemical, 
# crystal, experimental, refinement or atomic coordinate data resulting 
# from the CCDC's data processing and validation procedures.
#
#######################################################################

data_OFOQEI
_chemical_formula_moiety         'C60 H72 N12,3(C4 H8 O2)'
_chemical_name_systematic        
'6,6,17,17,28,28,39,39,47,47,55,55-dodecamethyl-5,8,16,19,27,30,38,41,46,49,54,57-dodecaazaheptacyclo[21.21.6.6^12,34^.1^3,43^.1^10,14^.1^21,25^.1^32,36^]hexaconta-1,3(51),4,8,10(60),11,13,15,19,21(59),22,24,26,30,32(52),33,35,37,41,43,45,49,53,57-tetracosaene 1,4-dioxane solvate'
_symmetry_cell_setting           cubic
_symmetry_space_group_name_H-M   'F d -3'
_symmetry_Int_Tables_number      203
_space_group_name_Hall           '-F 2uv 2vw 3'
loop_
_symmetry_equiv_pos_site_id
_symmetry_equiv_pos_as_xyz
1 x,y,z
2 1/4-x,1/4-y,z
3 1/4-x,y,1/4-z
4 x,1/4-y,1/4-z
5 z,x,y
6 z,1/4-x,1/4-y
7 1/4-z,1/4-x,y
8 1/4-z,x,1/4-y
9 y,z,x
10 1/4-y,z,1/4-x
11 y,1/4-z,1/4-x
12 1/4-y,1/4-z,x
13 x,1/2+y,1/2+z
14 1/4-x,3/4-y,1/2+z
15 1/4-x,1/2+y,3/4-z
16 x,3/4-y,3/4-z
17 z,1/2+x,1/2+y
18 z,3/4-x,3/4-y
19 1/4-z,3/4-x,1/2+y
20 1/4-z,1/2+x,3/4-y
21 y,1/2+z,1/2+x
22 1/4-y,1/2+z,3/4-x
23 y,3/4-z,3/4-x
24 1/4-y,3/4-z,1/2+x
25 1/2+x,y,1/2+z
26 3/4-x,1/4-y,1/2+z
27 3/4-x,y,3/4-z
28 1/2+x,1/4-y,3/4-z
29 1/2+z,x,1/2+y
30 1/2+z,1/4-x,3/4-y
31 3/4-z,1/4-x,1/2+y
32 3/4-z,x,3/4-y
33 1/2+y,z,1/2+x
34 3/4-y,z,3/4-x
35 1/2+y,1/4-z,3/4-x
36 3/4-y,1/4-z,1/2+x
37 1/2+x,1/2+y,z
38 3/4-x,3/4-y,z
39 3/4-x,1/2+y,1/4-z
40 1/2+x,3/4-y,1/4-z
41 1/2+z,1/2+x,y
42 1/2+z,3/4-x,1/4-y
43 3/4-z,3/4-x,y
44 3/4-z,1/2+x,1/4-y
45 1/2+y,1/2+z,x
46 3/4-y,1/2+z,1/4-x
47 1/2+y,3/4-z,1/4-x
48 3/4-y,3/4-z,x
49 -x,-y,-z
50 3/4+x,3/4+y,-z
51 3/4+x,-y,3/4+z
52 -x,3/4+y,3/4+z
53 -z,-x,-y
54 -z,3/4+x,3/4+y
55 3/4+z,3/4+x,-y
56 3/4+z,-x,3/4+y
57 -y,-z,-x
58 3/4+y,-z,3/4+x
59 -y,3/4+z,3/4+x
60 3/4+y,3/4+z,-x
61 -x,1/2-y,1/2-z
62 3/4+x,1/4+y,1/2-z
63 3/4+x,1/2-y,1/4+z
64 -x,1/4+y,1/4+z
65 -z,1/2-x,1/2-y
66 -z,1/4+x,1/4+y
67 3/4+z,1/4+x,1/2-y
68 3/4+z,1/2-x,1/4+y
69 -y,1/2-z,1/2-x
70 3/4+y,1/2-z,1/4+x
71 -y,1/4+z,1/4+x
72 3/4+y,1/4+z,1/2-x
73 1/2-x,-y,1/2-z
74 1/4+x,3/4+y,1/2-z
75 1/4+x,-y,1/4+z
76 1/2-x,3/4+y,1/4+z
77 1/2-z,-x,1/2-y
78 1/2-z,3/4+x,1/4+y
79 1/4+z,3/4+x,1/2-y
80 1/4+z,-x,1/4+y
81 1/2-y,-z,1/2-x
82 1/4+y,-z,1/4+x
83 1/2-y,3/4+z,1/4+x
84 1/4+y,3/4+z,1/2-x
85 1/2-x,1/2-y,-z
86 1/4+x,1/4+y,-z
87 1/4+x,1/2-y,3/4+z
88 1/2-x,1/4+y,3/4+z
89 1/2-z,1/2-x,-y
90 1/2-z,1/4+x,3/4+y
91 1/4+z,1/4+x,-y
92 1/4+z,1/2-x,3/4+y
93 1/2-y,1/2-z,-x
94 1/4+y,1/2-z,3/4+x
95 1/2-y,1/4+z,3/4+x
96 1/4+y,1/4+z,-x
_cell_length_a                   25.8504(9)
_cell_length_b                   25.8504(9)
_cell_length_c                   25.8504(9)
_cell_angle_alpha                90
_cell_angle_beta                 90
_cell_angle_gamma                90
_cell_volume                     17274.4
_exptl_crystal_colour            colorless
_exptl_crystal_description       prism
_cell_formula_units_Z            8
loop_
_atom_site_label
_atom_site_type_symbol
_atom_site_fract_x
_atom_site_fract_y
_atom_site_fract_z
N1 N 0.3405(17) 0.5806(19) 0.589(2)
C1 C 0.235(2) 0.570(2) 0.4972(19)
H1 H 0.2429 0.5990 0.4763
C2 C 0.2654(18) 0.558(2) 0.539(2)
C3 C 0.311(2) 0.590(2) 0.552(2)
H2 H 0.3178 0.6190 0.5305
C4 C 0.390(7) 0.605(6) 0.605(9)
C5 C 0.382(6) 0.624(8) 0.660(7)
H3 H 0.4149 0.6367 0.6749
H4 H 0.3694 0.5952 0.6824
C6 C 0.397(5) 0.651(5) 0.567(6)
H5 H 0.3657 0.6731 0.5688
H6 H 0.4010 0.6383 0.5317
H7 H 0.4270 0.6716 0.5770
C7 C 0.432(4) 0.568(4) 0.600(5)
H8 H 0.4359 0.5577 0.5641
H9 H 0.4241 0.5374 0.6214
H10 H 0.4641 0.5838 0.6126
N1C N 0.3405(17) 0.6694(19) 0.661(2)
C1C C 0.235(2) 0.680(2) 0.7528(19)
H1C H 0.2429 0.6510 0.7737
C2C C 0.2654(18) 0.692(2) 0.711(2)
C3C C 0.311(2) 0.660(2) 0.698(2)
H2C H 0.3178 0.6310 0.7195
C4C C 0.390(7) 0.645(6) 0.645(9)
C5C C 0.382(6) 0.626(8) 0.590(7)
H3C H 0.4149 0.6133 0.5751
H4C H 0.3694 0.6548 0.5676
C6C C 0.397(5) 0.599(5) 0.683(6)
H5C H 0.3657 0.5769 0.6812
H6C H 0.4010 0.6117 0.7183
H7C H 0.4270 0.5784 0.6730
C7C C 0.432(4) 0.682(4) 0.650(5)
H8C H 0.4359 0.6923 0.6859
H9C H 0.4241 0.7126 0.6286
H10C H 0.4641 0.6662 0.6374
N1GA N 0.1694(19) 0.589(2) 0.4095(17)
C1GA C 0.180(2) 0.4972(19) 0.515(2)
H1GA H 0.1510 0.4763 0.5071
C2GA C 0.192(2) 0.539(2) 0.4846(18)
C3GA C 0.160(2) 0.552(2) 0.439(2)
H2GA H 0.1310 0.5305 0.4322
C4GA C 0.145(6) 0.605(9) 0.360(7)
C5GA C 0.126(8) 0.660(7) 0.368(6)
H3GA H 0.1133 0.6749 0.3351
H4GA H 0.1548 0.6824 0.3806
C6GA C 0.099(5) 0.567(6) 0.353(5)
H5GA H 0.0769 0.5688 0.3843
H6GA H 0.1117 0.5317 0.3490
H7GA H 0.0784 0.5770 0.3230
C7GA C 0.182(4) 0.600(5) 0.318(4)
H8GA H 0.1923 0.5641 0.3141
H9GA H 0.2126 0.6214 0.3259
H10GA H 0.1662 0.6126 0.2859
N1PA N 0.161(2) 0.4095(17) 0.5806(19)
C1PA C 0.2528(19) 0.515(2) 0.570(2)
H1PA H 0.2737 0.5071 0.5990
C2PA C 0.211(2) 0.4846(18) 0.558(2)
C3PA C 0.198(2) 0.439(2) 0.590(2)
H2PA H 0.2195 0.4322 0.6190
C4PA C 0.145(9) 0.360(7) 0.605(6)
C5PA C 0.090(7) 0.368(6) 0.624(8)
H3PA H 0.0751 0.3351 0.6367
H4PA H 0.0676 0.3806 0.5952
C6PA C 0.183(6) 0.353(5) 0.651(5)
H5PA H 0.1812 0.3843 0.6731
H6PA H 0.2183 0.3490 0.6383
H7PA H 0.1730 0.3230 0.6716
C7PA C 0.150(5) 0.318(4) 0.568(4)
H8PA H 0.1859 0.3141 0.5577
H9PA H 0.1286 0.3259 0.5374
H10PA H 0.1374 0.2859 0.5838
N1QA N 0.161(2) 0.8405(17) 0.6694(19)
C1QA C 0.2528(19) 0.735(2) 0.680(2)
H1QA H 0.2737 0.7429 0.6510
C2QA C 0.211(2) 0.7654(18) 0.692(2)
C3QA C 0.198(2) 0.811(2) 0.660(2)
H2QA H 0.2195 0.8178 0.6310
C4QA C 0.145(9) 0.890(7) 0.645(6)
C5QA C 0.090(7) 0.882(6) 0.626(8)
H3QA H 0.0751 0.9149 0.6133
H4QA H 0.0676 0.8694 0.6548
C6QA C 0.183(6) 0.897(5) 0.599(5)
H5QA H 0.1812 0.8657 0.5769
H6QA H 0.2183 0.9010 0.6117
H7QA H 0.1730 0.9270 0.5784
C7QA C 0.150(5) 0.932(4) 0.682(4)
H8QA H 0.1859 0.9359 0.6923
H9QA H 0.1286 0.9241 0.7126
H10QA H 0.1374 0.9641 0.6662
N1HA N 0.0806(19) 0.661(2) 0.4095(17)
C1HA C 0.070(2) 0.7528(19) 0.515(2)
H1HA H 0.0990 0.7737 0.5071
C2HA C 0.058(2) 0.711(2) 0.4846(18)
C3HA C 0.090(2) 0.698(2) 0.439(2)
H2HA H 0.1190 0.7195 0.4322
C4HA C 0.105(6) 0.645(9) 0.360(7)
C5HA C 0.124(8) 0.590(7) 0.368(6)
H3HA H 0.1367 0.5751 0.3351
H4HA H 0.0952 0.5676 0.3806
C6HA C 0.151(5) 0.683(6) 0.353(5)
H5HA H 0.1731 0.6812 0.3843
H6HA H 0.1383 0.7183 0.3490
H7HA H 0.1716 0.6730 0.3230
C7HA C 0.068(4) 0.650(5) 0.318(4)
H8HA H 0.0577 0.6859 0.3141
H9HA H 0.0374 0.6286 0.3259
H10HA H 0.0838 0.6374 0.2859
N1IA N 0.1694(19) 0.661(2) 0.8405(17)
C1IA C 0.180(2) 0.7528(19) 0.735(2)
H1IA H 0.1510 0.7737 0.7429
C2IA C 0.192(2) 0.711(2) 0.7654(18)
C3IA C 0.160(2) 0.698(2) 0.811(2)
H2IA H 0.1310 0.7195 0.8178
C4IA C 0.145(6) 0.645(9) 0.890(7)
C5IA C 0.126(8) 0.590(7) 0.882(6)
H3IA H 0.1133 0.5751 0.9149
H4IA H 0.1548 0.5676 0.8694
C6IA C 0.099(5) 0.683(6) 0.897(5)
H5IA H 0.0769 0.6812 0.8657
H6IA H 0.1117 0.7183 0.9010
H7IA H 0.0784 0.6730 0.9270
C7IA C 0.182(4) 0.650(5) 0.932(4)
H8IA H 0.1923 0.6859 0.9359
H9IA H 0.2126 0.6286 0.9241
H10IA H 0.1662 0.6374 0.9641
N1NA N 0.089(2) 0.8405(17) 0.5806(19)
C1NA C -0.0028(19) 0.735(2) 0.570(2)
H1NA H -0.0237 0.7429 0.5990
C2NA C 0.039(2) 0.7654(18) 0.558(2)
C3NA C 0.052(2) 0.811(2) 0.590(2)
H2NA H 0.0305 0.8178 0.6190
C4NA C 0.105(9) 0.890(7) 0.605(6)
C5NA C 0.160(7) 0.882(6) 0.624(8)
H3NA H 0.1749 0.9149 0.6367
H4NA H 0.1824 0.8694 0.5952
C6NA C 0.067(6) 0.897(5) 0.651(5)
H5NA H 0.0688 0.8657 0.6731
H6NA H 0.0317 0.9010 0.6383
H7NA H 0.0770 0.9270 0.6716
C7NA C 0.100(5) 0.932(4) 0.568(4)
H8NA H 0.0641 0.9359 0.5577
H9NA H 0.1214 0.9241 0.5374
H10NA H 0.1126 0.9641 0.5838
N1OA N 0.089(2) 0.4095(17) 0.6694(19)
C1OA C -0.0028(19) 0.515(2) 0.680(2)
H1OA H -0.0237 0.5071 0.6510
C2OA C 0.039(2) 0.4846(18) 0.692(2)
C3OA C 0.052(2) 0.439(2) 0.660(2)
H2OA H 0.0305 0.4322 0.6310
C4OA C 0.105(9) 0.360(7) 0.645(6)
C5OA C 0.160(7) 0.368(6) 0.626(8)
H3OA H 0.1749 0.3351 0.6133
H4OA H 0.1824 0.3806 0.6548
C6OA C 0.067(6) 0.353(5) 0.599(5)
H5OA H 0.0688 0.3843 0.5769
H6OA H 0.0317 0.3490 0.6117
H7OA H 0.0770 0.3230 0.5784
C7OA C 0.100(5) 0.318(4) 0.682(4)
H8OA H 0.0641 0.3141 0.6923
H9OA H 0.1214 0.3259 0.7126
H10OA H 0.1126 0.2859 0.6662
N1A N -0.0905(17) 0.6694(19) 0.589(2)
C1A C 0.015(2) 0.680(2) 0.4972(19)
H1A H 0.0071 0.6510 0.4763
C2A C -0.0154(18) 0.692(2) 0.539(2)
C3A C -0.061(2) 0.660(2) 0.552(2)
H2A H -0.0678 0.6310 0.5305
C4A C -0.140(7) 0.645(6) 0.605(9)
C5A C -0.132(6) 0.626(8) 0.660(7)
H3A H -0.1649 0.6133 0.6749
H4A H -0.1194 0.6548 0.6824
C6A C -0.147(5) 0.599(5) 0.567(6)
H5A H -0.1157 0.5769 0.5688
H6A H -0.1510 0.6117 0.5317
H7A H -0.1770 0.5784 0.5770
C7A C -0.182(4) 0.682(4) 0.600(5)
H8A H -0.1859 0.6923 0.5641
H9A H -0.1741 0.7126 0.6214
H10A H -0.2141 0.6662 0.6126
N1B N -0.0905(17) 0.5806(19) 0.661(2)
C1B C 0.015(2) 0.570(2) 0.7528(19)
H1B H 0.0071 0.5990 0.7737
C2B C -0.0154(18) 0.558(2) 0.711(2)
C3B C -0.061(2) 0.590(2) 0.698(2)
H2B H -0.0678 0.6190 0.7195
C4B C -0.140(7) 0.605(6) 0.645(9)
C5B C -0.132(6) 0.624(8) 0.590(7)
H3B H -0.1649 0.6367 0.5751
H4B H -0.1194 0.5952 0.5676
C6B C -0.147(5) 0.651(5) 0.683(6)
H5B H -0.1157 0.6731 0.6812
H6B H -0.1510 0.6383 0.7183
H7B H -0.1770 0.6716 0.6730
C7B C -0.182(4) 0.568(4) 0.650(5)
H8B H -0.1859 0.5577 0.6859
H9B H -0.1741 0.5374 0.6286
H10B H -0.2141 0.5838 0.6374
N1FA N 0.0806(19) 0.589(2) 0.8405(17)
C1FA C 0.070(2) 0.4972(19) 0.735(2)
H1FA H 0.0990 0.4763 0.7429
C2FA C 0.058(2) 0.539(2) 0.7654(18)
C3FA C 0.090(2) 0.552(2) 0.811(2)
H2FA H 0.1190 0.5305 0.8178
C4FA C 0.105(6) 0.605(9) 0.890(7)
C5FA C 0.124(8) 0.660(7) 0.882(6)
H3FA H 0.1367 0.6749 0.9149
H4FA H 0.0952 0.6824 0.8694
C6FA C 0.151(5) 0.567(6) 0.897(5)
H5FA H 0.1731 0.5688 0.8657
H6FA H 0.1383 0.5317 0.9010
H7FA H 0.1716 0.5770 0.9270
C7FA C 0.068(4) 0.600(5) 0.932(4)
H8FA H 0.0577 0.5641 0.9359
H9FA H 0.0374 0.6214 0.9241
H10FA H 0.0838 0.6126 0.9641
O1? O 0.296(3) 0.723(3) 0.502(4)
C8? C 0.296(3) 0.723(3) 0.502(4)
H11? H 0.3309 0.7101 0.5110
H12? H 0.2665 0.7002 0.5121
C9? C 0.246(5) 0.715(5) 0.540(5)
H13? H 0.2673 0.6830 0.5404
H14? H 0.2250 0.7136 0.5724
O2? O 0.168(6) 0.598(10) 0.620(6)
C10? C 0.168(6) 0.598(10) 0.620(6)
H15? H 0.2003 0.5811 0.6327
H16? H 0.1640 0.5905 0.5827
loop_
_geom_bond_atom_site_label_1
_geom_bond_atom_site_label_2
_geom_bond_site_symmetry_1
_geom_bond_site_symmetry_2
N1 C3 1_555 1_555
C1 H1 1_555 1_555
C2 C1 1_555 1_555
C3 C2 1_555 1_555
H2 C3 1_555 1_555
C4 N1 1_555 1_555
C5 C4 1_555 1_555
H3 C5 1_555 1_555
H4 C5 1_555 1_555
C6 C4 1_555 1_555
H5 C6 1_555 1_555
H6 C6 1_555 1_555
H7 C6 1_555 1_555
C7 C4 1_555 1_555
H8 C7 1_555 1_555
H9 C7 1_555 1_555
H10 C7 1_555 1_555
N1C C5 1_555 1_555
C1C H1C 1_555 1_555
C2C C1C 1_555 1_555
C3C N1C 1_555 1_555
H2C C3C 1_555 1_555
C4C C4 1_555 1_555
C5C N1 1_555 1_555
H3C C4 1_555 1_555
H4C C6 1_555 1_555
C6C C5 1_555 1_555
H5C C6C 1_555 1_555
H6C C6C 1_555 1_555
H7C C6C 1_555 1_555
C7C C4C 1_555 1_555
H8C C7C 1_555 1_555
H9C C7C 1_555 1_555
H10C C7C 1_555 1_555
N1GA C3GA 1_555 1_555
C1GA H1GA 1_555 1_555
C2GA C1 1_555 1_555
C3GA C2GA 1_555 1_555
H2GA C3GA 1_555 1_555
C4GA N1GA 1_555 1_555
C5GA C4GA 1_555 1_555
H3GA C5GA 1_555 1_555
H4GA C5GA 1_555 1_555
C6GA C4GA 1_555 1_555
H5GA C6GA 1_555 1_555
H6GA C6GA 1_555 1_555
H7GA C6GA 1_555 1_555
C7GA C4GA 1_555 1_555
H8GA C7GA 1_555 1_555
H9GA C7GA 1_555 1_555
H10GA C7GA 1_555 1_555
N1PA C3PA 1_555 1_555
C1PA C2 1_555 1_555
H1PA C1PA 1_555 1_555
C2PA C1GA 1_555 1_555
C3PA C2PA 1_555 1_555
H2PA C3PA 1_555 1_555
C4PA N1PA 1_555 1_555
C5PA C4PA 1_555 1_555
H3PA C5PA 1_555 1_555
H4PA C5PA 1_555 1_555
C6PA C4PA 1_555 1_555
H5PA C6PA 1_555 1_555
H6PA C6PA 1_555 1_555
H7PA C6PA 1_555 1_555
C7PA C4PA 1_555 1_555
H8PA C7PA 1_555 1_555
H9PA C7PA 1_555 1_555
H10PA C7PA 1_555 1_555
N1QA C3QA 1_555 1_555
C1QA C2C 1_555 1_555
H1QA C1QA 1_555 1_555
C2QA C1QA 1_555 1_555
C3QA C2QA 1_555 1_555
H2QA C3QA 1_555 1_555
C4QA N1QA 1_555 1_555
C5QA C4QA 1_555 1_555
H3QA C5QA 1_555 1_555
H4QA C5QA 1_555 1_555
C6QA C4QA 1_555 1_555
H5QA C6QA 1_555 1_555
H6QA C6QA 1_555 1_555
H7QA C6QA 1_555 1_555
C7QA C4QA 1_555 1_555
H8QA C7QA 1_555 1_555
H9QA C7QA 1_555 1_555
H10QA C7QA 1_555 1_555
N1HA C5GA 1_555 1_555
C1HA H1HA 1_555 1_555
C2HA C1HA 1_555 1_555
C3HA N1HA 1_555 1_555
H2HA C3HA 1_555 1_555
C4HA C4GA 1_555 1_555
C5HA N1GA 1_555 1_555
H3HA C4GA 1_555 1_555
H4HA C6GA 1_555 1_555
C6HA C5GA 1_555 1_555
H5HA C6HA 1_555 1_555
H6HA C6HA 1_555 1_555
H7HA C6HA 1_555 1_555
C7HA C4HA 1_555 1_555
H8HA C7HA 1_555 1_555
H9HA C7HA 1_555 1_555
H10HA C7HA 1_555 1_555
N1IA C3IA 1_555 1_555
C1IA C2QA 1_555 1_555
H1IA C1IA 1_555 1_555
C2IA C1C 1_555 1_555
C3IA C2IA 1_555 1_555
H2IA C3IA 1_555 1_555
C4IA N1IA 1_555 1_555
C5IA C4IA 1_555 1_555
H3IA C5IA 1_555 1_555
H4IA C5IA 1_555 1_555
C6IA C4IA 1_555 1_555
H5IA C6IA 1_555 1_555
H6IA C6IA 1_555 1_555
H7IA C6IA 1_555 1_555
C7IA C4IA 1_555 1_555
H8IA C7IA 1_555 1_555
H9IA C7IA 1_555 1_555
H10IA C7IA 1_555 1_555
N1NA C5QA 1_555 1_555
C1NA H1NA 1_555 1_555
C2NA C1HA 1_555 1_555
C3NA N1NA 1_555 1_555
H2NA C3NA 1_555 1_555
C4NA C4QA 1_555 1_555
C5NA N1QA 1_555 1_555
H3NA C4QA 1_555 1_555
H4NA C6QA 1_555 1_555
C6NA C5QA 1_555 1_555
H5NA C6NA 1_555 1_555
H6NA C6NA 1_555 1_555
H7NA C6NA 1_555 1_555
C7NA C4NA 1_555 1_555
H8NA C7NA 1_555 1_555
H9NA C7NA 1_555 1_555
H10NA C7NA 1_555 1_555
N1OA C5PA 1_555 1_555
C1OA H1OA 1_555 1_555
C2OA C1OA 1_555 1_555
C3OA N1OA 1_555 1_555
H2OA C3OA 1_555 1_555
C4OA C4PA 1_555 1_555
C5OA N1PA 1_555 1_555
H3OA C4PA 1_555 1_555
H4OA C6PA 1_555 1_555
C6OA C5PA 1_555 1_555
H5OA C6OA 1_555 1_555
H6OA C6OA 1_555 1_555
H7OA C6OA 1_555 1_555
C7OA C4OA 1_555 1_555
H8OA C7OA 1_555 1_555
H9OA C7OA 1_555 1_555
H10OA C7OA 1_555 1_555
N1A C3A 1_555 1_555
C1A C2HA 1_555 1_555
H1A C1A 1_555 1_555
C2A C1NA 1_555 1_555
C3A C2A 1_555 1_555
H2A C3A 1_555 1_555
C4A N1A 1_555 1_555
C5A C4A 1_555 1_555
H3A C5A 1_555 1_555
H4A C5A 1_555 1_555
C6A C4A 1_555 1_555
H5A C6A 1_555 1_555
H6A C6A 1_555 1_555
H7A C6A 1_555 1_555
C7A C4A 1_555 1_555
H8A C7A 1_555 1_555
H9A C7A 1_555 1_555
H10A C7A 1_555 1_555
N1B C5A 1_555 1_555
C1B H1B 1_555 1_555
C2B C1OA 1_555 1_555
C3B N1B 1_555 1_555
H2B C3B 1_555 1_555
C4B C4A 1_555 1_555
C5B N1A 1_555 1_555
H3B C4A 1_555 1_555
H4B C6A 1_555 1_555
C6B C5A 1_555 1_555
H5B C6B 1_555 1_555
H6B C6B 1_555 1_555
H7B C6B 1_555 1_555
C7B C4B 1_555 1_555
H8B C7B 1_555 1_555
H9B C7B 1_555 1_555
H10B C7B 1_555 1_555
N1FA C5IA 1_555 1_555
C1FA C2OA 1_555 1_555
H1FA C1FA 1_555 1_555
C2FA C1B 1_555 1_555
C3FA N1FA 1_555 1_555
H2FA C3FA 1_555 1_555
C4FA C4IA 1_555 1_555
C5FA N1IA 1_555 1_555
H3FA C4IA 1_555 1_555
H4FA C6IA 1_555 1_555
C6FA C5IA 1_555 1_555
H5FA C6FA 1_555 1_555
H6FA C6FA 1_555 1_555
H7FA C6FA 1_555 1_555
C7FA C4FA 1_555 1_555
H8FA C7FA 1_555 1_555
H9FA C7FA 1_555 1_555
H10FA C7FA 1_555 1_555
C4 C5C 1_555 1_555
C5 C4C 1_555 1_555
H3 C4C 1_555 1_555
H3 C6C 1_555 1_555
H4 C6C 1_555 1_555
C6 C5C 1_555 1_555
C6 H3C 1_555 1_555
N1C C4C 1_555 1_555
C2C C3C 1_555 1_555
C4C C5C 1_555 1_555
C4C C6C 1_555 1_555
C5C H3C 1_555 1_555
C5C H4C 1_555 1_555
C1GA C2GA 1_555 1_555
C4GA C5HA 1_555 1_555
C5GA C4HA 1_555 1_555
H3GA C4HA 1_555 1_555
H3GA C6HA 1_555 1_555
H4GA C6HA 1_555 1_555
C6GA C5HA 1_555 1_555
C6GA H3HA 1_555 1_555
C1PA C2PA 1_555 1_555
C4PA C5OA 1_555 1_555
C5PA C4OA 1_555 1_555
H3PA C4OA 1_555 1_555
H3PA C6OA 1_555 1_555
H4PA C6OA 1_555 1_555
C6PA C5OA 1_555 1_555
C6PA H3OA 1_555 1_555
C4QA C5NA 1_555 1_555
C5QA C4NA 1_555 1_555
H3QA C4NA 1_555 1_555
H3QA C6NA 1_555 1_555
H4QA C6NA 1_555 1_555
C6QA C5NA 1_555 1_555
C6QA H3NA 1_555 1_555
N1HA C4HA 1_555 1_555
C2HA C3HA 1_555 1_555
C4HA C5HA 1_555 1_555
C4HA C6HA 1_555 1_555
C5HA H3HA 1_555 1_555
C5HA H4HA 1_555 1_555
C1IA C2IA 1_555 1_555
C4IA C5FA 1_555 1_555
C5IA C4FA 1_555 1_555
H3IA C4FA 1_555 1_555
H3IA C6FA 1_555 1_555
H4IA C6FA 1_555 1_555
C6IA C5FA 1_555 1_555
C6IA H3FA 1_555 1_555
N1NA C4NA 1_555 1_555
C1NA C2NA 1_555 1_555
C2NA C3NA 1_555 1_555
C4NA C5NA 1_555 1_555
C4NA C6NA 1_555 1_555
C5NA H3NA 1_555 1_555
C5NA H4NA 1_555 1_555
N1OA C4OA 1_555 1_555
C2OA C3OA 1_555 1_555
C4OA C5OA 1_555 1_555
C4OA C6OA 1_555 1_555
C5OA H3OA 1_555 1_555
C5OA H4OA 1_555 1_555
C1A C2A 1_555 1_555
C4A C5B 1_555 1_555
C5A C4B 1_555 1_555
H3A C4B 1_555 1_555
H3A C6B 1_555 1_555
H4A C6B 1_555 1_555
C6A C5B 1_555 1_555
C6A H3B 1_555 1_555
N1B C4B 1_555 1_555
C1B C2B 1_555 1_555
C2B C3B 1_555 1_555
C4B C5B 1_555 1_555
C4B C6B 1_555 1_555
C5B H3B 1_555 1_555
C5B H4B 1_555 1_555
N1FA C4FA 1_555 1_555
C1FA C2FA 1_555 1_555
C2FA C3FA 1_555 1_555
C4FA C5FA 1_555 1_555
C4FA C6FA 1_555 1_555
C5FA H3FA 1_555 1_555
C5FA H4FA 1_555 1_555

#END
