
#######################################################################
#
#                 Cambridge Crystallographic Data Centre
#                                CCDC 
#
#######################################################################
#
# If this CIF has been generated from an entry in the Cambridge 
# Structural Database, then it will include bibliographic, chemical, 
# crystal, experimental, refinement or atomic coordinate data resulting 
# from the CCDC's data processing and validation procedures.
#
#######################################################################

data_OFOQIM
_chemical_formula_moiety         'C60 H72 N12,3.67(C1 H2 Cl2)'
_chemical_name_systematic        
'6,6,17,17,28,28,40,40,48,48,56,56-dodecamethyl-5,8,16,19,27,30,38,41,46,49,54,57-dodecaazaheptacyclo[21.21.6.6^12,34^.1^3,43^.1^10,14^.1^21,25^.1^32,36^]hexaconta-1,3(51),4,8,10(60),11,13,15,19,21(59),22,24,26,30,32(52),33,35,37,41,43,45,49,53,57-tetracosaene dichloromethane solvate'
_symmetry_cell_setting           trigonal
_symmetry_space_group_name_H-M   'P 3'
_symmetry_Int_Tables_number      143
_space_group_name_Hall           'P 3'
loop_
_symmetry_equiv_pos_site_id
_symmetry_equiv_pos_as_xyz
1 x,y,z
2 -y,x-y,z
3 -x+y,-x,z
_cell_length_a                   24.075(2)
_cell_length_b                   24.075(2)
_cell_length_c                   10.7146(12)
_cell_angle_alpha                90
_cell_angle_beta                 90
_cell_angle_gamma                120
_cell_volume                     5378.23
_exptl_crystal_colour            colorless
_exptl_crystal_description       needle
_cell_formula_units_Z            3
loop_
_atom_site_label
_atom_site_type_symbol
_atom_site_fract_x
_atom_site_fract_y
_atom_site_fract_z
N5 N -0.7224(4) -0.5083(4) 0.0626(5)
N6 N -0.7323(4) -0.5815(3) -0.1600(6)
N7 N -0.5671(3) -0.4590(2) -0.6460(5)
N8 N -0.4659(2) -0.3265(3) -0.6348(4)
C21 C -0.6108(5) -0.3356(6) 0.0410(6)
H25 H -0.5711 -0.3351 0.0393
C22 C -0.6634(5) -0.3923(5) 0.0422(6)
C23 C -0.6695(5) -0.4567(5) 0.0477(6)
H26 H -0.6317 -0.4594 0.0395
C24 C -0.7240(5) -0.5722(5) 0.0643(7)
H27 H -0.7402 -0.5930 0.1463
H28 H -0.6798 -0.5644 0.0544
C25 C -0.7666(5) -0.6178(5) -0.0396(8)
C26 C -0.8212(7) -0.6175(6) 0.0048(12)
H29 H -0.8577 -0.6441 -0.0496
H30 H -0.8133 -0.5735 0.0053
H31 H -0.8307 -0.6349 0.0898
C27 C -0.7364(7) -0.6586(4) 0.0012(15)
H32 H -0.6990 -0.6481 -0.0513
H33 H -0.7681 -0.7043 -0.0080
H34 H -0.7229 -0.6494 0.0886
C28 C -0.7690(4) -0.5747(3) -0.2322(6)
H35 H -0.8127 -0.5894 -0.2132
C29 C -0.65262(16) -0.49450(18) -0.5038(3)
C30 C -0.6945(2) -0.49190(18) -0.5899(2)
H36 H -0.6796 -0.4751 -0.6711
C31 C -0.75800(18) -0.51394(18) -0.5574(3)
C32 C -0.77971(16) -0.53856(17) -0.4387(4)
H37 H -0.8231 -0.5536 -0.4164
C33 C -0.7379(2) -0.54116(16) -0.3526(3)
C34 C -0.6743(2) -0.51912(18) -0.3852(3)
H38 H -0.6457 -0.5209 -0.3263
C35 C -0.5889(3) -0.4735(3) -0.5437(6)
H39 H -0.5599 -0.4706 -0.4804
C36 C -0.4967(3) -0.4333(3) -0.6833(7)
C37 C -0.4709(3) -0.3696(3) -0.7318(6)
H40 H -0.4280 -0.3552 -0.7681
H41 H -0.4991 -0.3695 -0.7990
C38 C -0.4973(3) -0.4733(4) -0.7845(7)
H42 H -0.5166 -0.5178 -0.7556
H43 H -0.4533 -0.4583 -0.8123
H44 H -0.5225 -0.4710 -0.8540
C39 C -0.4598(4) -0.4396(3) -0.5873(7)
H45 H -0.4813 -0.4841 -0.5579
H46 H -0.4553 -0.4112 -0.5178
H47 H -0.4173 -0.4279 -0.6196
C40 C -0.4924(3) -0.2899(3) -0.6508(5)
H48 H -0.5159 -0.2942 -0.7249
N5A N -0.4917(4) -0.2141(6) 0.0626(5)
N6A N -0.4185(3) -0.1508(5) -0.1600(6)
N7A N -0.5410(2) -0.1081(4) -0.6460(5)
N8A N -0.6735(3) -0.1394(4) -0.6348(4)
C21A C -0.6644(6) -0.2752(8) 0.0410(6)
H25A H -0.6649 -0.2360 0.0393
C22A C -0.6077(5) -0.2711(7) 0.0422(6)
C23A C -0.5433(5) -0.2128(7) 0.0477(6)
H26A H -0.5406 -0.1723 0.0395
C24A C -0.4278(5) -0.1518(7) 0.0643(7)
H27A H -0.4070 -0.1472 0.1463
H28A H -0.4356 -0.1154 0.0544
C25A C -0.3822(5) -0.1488(7) -0.0396(8)
C26A C -0.3825(6) -0.2037(9) 0.0048(12)
H29A H -0.3559 -0.2136 -0.0496
H30A H -0.4265 -0.2398 0.0053
H31A H -0.3651 -0.1958 0.0898
C27A C -0.3414(4) -0.0778(8) 0.0012(15)
H32A H -0.3519 -0.0509 -0.0513
H33A H -0.2957 -0.0638 -0.0080
H34A H -0.3506 -0.0735 0.0886
C28A C -0.4253(3) -0.1943(5) -0.2322(6)
H35A H -0.4106 -0.2233 -0.2132
C29A C -0.50550(18) -0.15812(24) -0.5038(3)
C30A C -0.50810(18) -0.20260(27) -0.5899(2)
H36A H -0.5249 -0.2045 -0.6711
C31A C -0.48606(18) -0.24406(25) -0.5574(3)
C32A C -0.46144(17) -0.24115(23) -0.4387(4)
H37A H -0.4464 -0.2695 -0.4164
C33A C -0.45884(16) -0.19674(26) -0.3526(3)
C34A C -0.48088(18) -0.15518(27) -0.3852(3)
H38A H -0.4791 -0.1248 -0.3263
C35A C -0.5265(3) -0.1154(4) -0.5437(6)
H39A H -0.5294 -0.0893 -0.4804
C36A C -0.5667(3) -0.0634(4) -0.6833(7)
C37A C -0.6304(3) -0.1013(4) -0.7318(6)
H40A H -0.6448 -0.0728 -0.7681
H41A H -0.6305 -0.1296 -0.7990
C38A C -0.5267(4) -0.0240(5) -0.7845(7)
H42A H -0.4822 0.0012 -0.7556
H43A H -0.5417 0.0050 -0.8123
H44A H -0.5290 -0.0515 -0.8540
C39A C -0.5604(3) -0.0202(5) -0.5873(7)
H45A H -0.5159 0.0028 -0.5579
H46A H -0.5888 -0.0441 -0.5178
H47A H -0.5721 0.0106 -0.6196
C40A C -0.7101(3) -0.2025(4) -0.6508(5)
H48A H -0.7058 -0.2217 -0.7249
N5B N -0.7859(6) -0.2776(4) 0.0626(5)
N6B N -0.8492(5) -0.2677(4) -0.1600(6)
N7B N -0.8919(4) -0.4329(3) -0.6460(5)
N8B N -0.8606(4) -0.5341(2) -0.6348(4)
C21B C -0.7248(8) -0.3892(5) 0.0410(6)
H25B H -0.7640 -0.4289 0.0393
C22B C -0.7289(7) -0.3366(5) 0.0422(6)
C23B C -0.7872(7) -0.3305(5) 0.0477(6)
H26B H -0.8277 -0.3683 0.0395
C24B C -0.8482(7) -0.2760(5) 0.0643(7)
H27B H -0.8528 -0.2598 0.1463
H28B H -0.8846 -0.3202 0.0544
C25B C -0.8512(7) -0.2334(5) -0.0396(8)
C26B C -0.7963(9) -0.1788(7) 0.0048(12)
H29B H -0.7864 -0.1423 -0.0496
H30B H -0.7602 -0.1867 0.0053
H31B H -0.8042 -0.1693 0.0898
C27B C -0.9222(8) -0.2636(7) 0.0012(15)
H32B H -0.9491 -0.3010 -0.0513
H33B H -0.9362 -0.2319 -0.0080
H34B H -0.9265 -0.2771 0.0886
C28B C -0.8057(5) -0.2310(4) -0.2322(6)
H35B H -0.7767 -0.1873 -0.2132
C29B C -0.84188(24) -0.34738(16) -0.5038(3)
C30B C -0.79740(27) -0.3055(2) -0.5899(2)
H36B H -0.7955 -0.3204 -0.6711
C31B C -0.75594(25) -0.24200(18) -0.5574(3)
C32B C -0.75885(23) -0.22029(16) -0.4387(4)
H37B H -0.7305 -0.1769 -0.4164
C33B C -0.80326(26) -0.2621(2) -0.3526(3)
C34B C -0.84482(27) -0.3257(2) -0.3852(3)
H38B H -0.8752 -0.3543 -0.3263
C35B C -0.8846(4) -0.4111(3) -0.5437(6)
H39B H -0.9107 -0.4401 -0.4804
C36B C -0.9366(4) -0.5033(3) -0.6833(7)
C37B C -0.8987(4) -0.5291(3) -0.7318(6)
H40B H -0.9272 -0.5720 -0.7681
H41B H -0.8704 -0.5009 -0.7990
C38B C -0.9760(5) -0.5027(3) -0.7845(7)
H42B H -1.0012 -0.4834 -0.7556
H43B H -1.0050 -0.5467 -0.8123
H44B H -0.9485 -0.4775 -0.8540
C39B C -0.9798(5) -0.5402(4) -0.5873(7)
H45B H -1.0028 -0.5187 -0.5579
H46B H -0.9559 -0.5447 -0.5178
H47B H -1.0106 -0.5827 -0.6196
C40B C -0.7975(4) -0.5076(3) -0.6508(5)
H48B H -0.7783 -0.4841 -0.7249
N9 N -0.2816(4) -0.4976(4) -0.9253(5)
N10 N -0.2728(2) -0.42098(19) -0.7116(4)
N11 N -0.4380(2) -0.5464(2) -0.2101(4)
N12 N -0.5375(2) -0.6791(3) -0.2271(4)
C41 C -0.2779(4) -0.6122(4) -0.9071(5)
H49 H -0.2372 -0.5744 -0.9142
C42 C -0.3263(7) -0.6095(4) -0.9021(6)
C43 C -0.3305(4) -0.5486(5) -0.9068(6)
H50 H -0.3705 -0.5503 -0.8957
C44 C -0.2878(5) -0.4429(5) -0.9302(7)
H51 H -0.3333 -0.4554 -0.9167
H52 H -0.2752 -0.4233 -1.0142
C45 C -0.2476(3) -0.3951(3) -0.8350(6)
C46 C -0.2673(6) -0.3439(5) -0.8546(8)
H53 H -0.3121 -0.3613 -0.8294
H54 H -0.2626 -0.3318 -0.9429
H55 H -0.2398 -0.3060 -0.8040
C47 C -0.1868(7) -0.3817(5) -0.8718(9)
H56 H -0.1548 -0.3512 -0.8132
H57 H -0.1778 -0.3631 -0.9557
H58 H -0.1849 -0.4214 -0.8723
C48 C -0.2387(3) -0.4271(2) -0.6270(6)
H59 H -0.1952 -0.4131 -0.6469
C49 C -0.26119(17) -0.45409(16) -0.5011(2)
C50 C -0.22024(14) -0.45881(16) -0.4158(3)
H60 H -0.1764 -0.4424 -0.4363
C51 C -0.24348(19) -0.48759(17) -0.3005(3)
C52 C -0.3077(2) -0.51166(16) -0.2705(3)
H61 H -0.3236 -0.5313 -0.1917
C53 C -0.34863(15) -0.50694(16) -0.3558(3)
C54 C -0.32538(16) -0.47815(17) -0.4711(3)
H62 H -0.3534 -0.4749 -0.5294
C55 C -0.4212(3) -0.5310(3) -0.3258(5)
H63 H -0.4506 -0.5340 -0.3881
C56 C -0.5044(3) -0.5674(3) -0.1803(6)
C57 C -0.5324(3) -0.6375(3) -0.1294(6)
C58 C -0.5538(5) -0.5760(5) -0.2894(9)
H64 H -0.5408 -0.5343 -0.3274
H65 H -0.5970 -0.5939 -0.2543
H66 H -0.5538 -0.6053 -0.3530
C59 C -0.4940(5) -0.5250(5) -0.0559(9)
H67 H -0.4660 -0.5309 0.0024
H68 H -0.5356 -0.5389 -0.0161
H69 H -0.4742 -0.4796 -0.0787
C60 C -0.5115(2) -0.7113(3) -0.2093(5)
H70 H -0.4900 -0.7066 -0.1324
N9A N -0.5024(4) -0.7840(6) -0.9253(5)
N10A N -0.57902(19) -0.85182(28) -0.7116(4)
N11A N -0.4536(2) -0.8916(3) -0.2101(4)
N12A N -0.3209(3) -0.8584(4) -0.2271(4)
C41A C -0.3878(4) -0.6657(6) -0.9071(5)
H49A H -0.4256 -0.6628 -0.9142
C42A C -0.3905(4) -0.7168(8) -0.9021(6)
C43A C -0.4514(5) -0.7819(6) -0.9068(6)
H50A H -0.4497 -0.8202 -0.8957
C44A C -0.5571(5) -0.8449(7) -0.9302(7)
H51A H -0.5446 -0.8779 -0.9167
H52A H -0.5767 -0.8519 -1.0142
C45A C -0.6049(3) -0.8525(4) -0.8350(6)
C46A C -0.6561(5) -0.9234(8) -0.8546(8)
H53A H -0.6387 -0.9508 -0.8294
H54A H -0.6682 -0.9308 -0.9429
H55A H -0.6940 -0.9338 -0.8040
C47A C -0.6183(5) -0.8051(9) -0.8718(9)
H56A H -0.6488 -0.8036 -0.8132
H57A H -0.6369 -0.8147 -0.9557
H58A H -0.5786 -0.7635 -0.8723
C48A C -0.5729(2) -0.8116(4) -0.6270(6)
H59A H -0.5869 -0.7821 -0.6469
C49A C -0.54591(16) -0.80710(23) -0.5011(2)
C50A C -0.54119(16) -0.76143(21) -0.4158(3)
H60A H -0.5576 -0.7340 -0.4363
C51A C -0.51241(17) -0.75589(25) -0.3005(3)
C52A C -0.48834(16) -0.79604(26) -0.2705(3)
H61A H -0.4687 -0.7923 -0.1917
C53A C -0.49306(16) -0.84169(22) -0.3558(3)
C54A C -0.52185(17) -0.84723(23) -0.4711(3)
H62A H -0.5251 -0.8785 -0.5294
C55A C -0.4690(3) -0.8902(4) -0.3258(5)
H63A H -0.4660 -0.9166 -0.3881
C56A C -0.4326(3) -0.9370(4) -0.1803(6)
C57A C -0.3625(3) -0.8949(4) -0.1294(6)
C58A C -0.4240(5) -0.9778(7) -0.2894(9)
H64A H -0.4657 -1.0065 -0.3274
H65A H -0.4061 -1.0031 -0.2543
H66A H -0.3947 -0.9485 -0.3530
C59A C -0.4750(5) -0.9690(7) -0.0559(9)
H67A H -0.4691 -0.9351 0.0024
H68A H -0.4611 -0.9967 -0.0161
H69A H -0.5204 -0.9946 -0.0787
C60A C -0.2887(3) -0.8002(4) -0.2093(5)
H70A H -0.2934 -0.7834 -0.1324
N9B N -0.2160(6) -0.7184(4) -0.9253(5)
N10B N -0.14818(28) -0.7272(2) -0.7116(4)
N11B N -0.1084(3) -0.5620(2) -0.2101(4)
N12B N -0.1416(4) -0.4625(2) -0.2271(4)
C41B C -0.3343(6) -0.7221(4) -0.9071(5)
H49B H -0.3372 -0.7628 -0.9142
C42B C -0.2832(8) -0.6737(7) -0.9021(6)
C43B C -0.2181(6) -0.6695(4) -0.9068(6)
H50B H -0.1798 -0.6295 -0.8957
C44B C -0.1551(7) -0.7122(5) -0.9302(7)
H51B H -0.1221 -0.6667 -0.9167
H52B H -0.1481 -0.7248 -1.0142
C45B C -0.1475(4) -0.7524(3) -0.8350(6)
C46B C -0.0766(8) -0.7327(6) -0.8546(8)
H53B H -0.0492 -0.6879 -0.8294
H54B H -0.0692 -0.7374 -0.9429
H55B H -0.0662 -0.7602 -0.8040
C47B C -0.1949(9) -0.8132(7) -0.8718(9)
H56B H -0.1964 -0.8452 -0.8132
H57B H -0.1853 -0.8222 -0.9557
H58B H -0.2365 -0.8151 -0.8723
C48B C -0.1884(4) -0.7613(3) -0.6270(6)
H59B H -0.2179 -0.8048 -0.6469
C49B C -0.19290(23) -0.73881(17) -0.5011(2)
C50B C -0.23857(21) -0.77976(14) -0.4158(3)
H60B H -0.2660 -0.8236 -0.4363
C51B C -0.24411(25) -0.75652(19) -0.3005(3)
C52B C -0.20396(26) -0.6923(2) -0.2705(3)
H61B H -0.2077 -0.6764 -0.1917
C53B C -0.15831(22) -0.65137(15) -0.3558(3)
C54B C -0.15277(23) -0.67462(16) -0.4711(3)
H62B H -0.1215 -0.6466 -0.5294
C55B C -0.1098(4) -0.5788(3) -0.3258(5)
H63B H -0.0834 -0.5494 -0.3881
C56B C -0.0630(4) -0.4956(3) -0.1803(6)
C57B C -0.1051(4) -0.4676(3) -0.1294(6)
C58B C -0.0222(7) -0.4462(5) -0.2894(9)
H64B H 0.0065 -0.4592 -0.3274
H65B H 0.0031 -0.4030 -0.2543
H66B H -0.0515 -0.4462 -0.3530
C59B C -0.0310(7) -0.5060(5) -0.0559(9)
H67B H -0.0649 -0.5340 0.0024
H68B H -0.0033 -0.4644 -0.0161
H69B H -0.0054 -0.5258 -0.0787
C60B C -0.1998(4) -0.4885(2) -0.2093(5)
H70B H -0.2166 -0.5100 -0.1324
N1 N -0.8343(4) -0.8660(4) -1.3468(6)
N2 N -0.7679(3) -0.8012(3) -1.1265(6)
N3 N -0.9039(3) -0.7749(3) -0.6243(7)
N4 N -1.0403(3) -0.8252(3) -0.6460(5)
C1 C -0.9359(6) -0.9937(6) -1.3264(6)
H1 H -0.8945 -0.9896 -1.3269
C2 C -0.9470(6) -0.9410(4) -1.3260(6)
C3 C -0.8905(5) -0.8764(5) -1.3280(7)
H2 H -0.8965 -0.8408 -1.3145
C4 C -0.7840(5) -0.8002(4) -1.3417(9)
H3 H -0.8022 -0.7725 -1.3203
H4 H -0.7630 -0.7867 -1.4243
C5 C -0.7346(4) -0.7929(4) -1.2425(8)
C6 C -0.7282(6) -0.8249(7) -1.2989(10)
H5 H -0.6973 -0.8346 -1.2595
H6 H -0.7121 -0.8054 -1.3808
H7 H -0.7694 -0.8646 -1.3091
C7 C -0.6975(9) -0.7125(8) -1.2929(16)
H8 H -0.7088 -0.6879 -1.2360
H9 H -0.7122 -0.7109 -1.3773
H10 H -0.6509 -0.6942 -1.2934
C8 C -0.7759(3) -0.8425(4) -1.0507(7)
H11 H -0.7642 -0.8733 -1.0739
C9 C -0.8031(2) -0.8470(2) -0.9240(3)
C10 C -0.80228(19) -0.8902(2) -0.8392(4)
H12 H -0.7837 -0.9155 -0.8620
C11 C -0.8286(2) -0.8965(2) -0.7210(4)
C12 C -0.85581(18) -0.8595(2) -0.6877(3)
H13 H -0.8738 -0.8638 -0.6070
C13 C -0.85663(19) -0.8162(2) -0.7725(5)
C14 C -0.8303(2) -0.80995(19) -0.8907(4)
H14 H -0.8308 -0.7804 -0.9486
C15 C -0.8880(3) -0.7799(3) -0.7360(7)
H15 H -0.8973 -0.7585 -0.8001
C16 C -0.9374(5) -0.7402(4) -0.5867(9)
C17 C -1.0024(5) -0.7839(4) -0.5303(9)
H16 H -1.0220 -0.7593 -0.4969
H17 H -0.9999 -0.8108 -0.4631
C18 C -0.9358(5) -0.6998(5) -0.6973(10)
H18 H -0.8917 -0.6742 -0.7278
H19 H -0.9517 -0.6712 -0.6713
H20 H -0.9631 -0.7280 -0.7642
C19 C -0.8986(5) -0.7040(4) -0.4633(11)
H21 H -0.9042 -0.7357 -0.3999
H22 H -0.9150 -0.6768 -0.4313
H23 H -0.8529 -0.6774 -0.4833
C20 C -1.0638(3) -0.8824(4) -0.6307(6)
H24 H -1.0559 -0.8962 -0.5531
N1A N -1.1340(4) -0.9683(6) -1.3468(6)
N2A N -1.1988(3) -0.9667(4) -1.1265(6)
N3A N -1.2251(3) -1.1290(4) -0.6243(7)
N4A N -1.1748(3) -1.2151(4) -0.6460(5)
C1A C -1.0063(6) -0.9422(8) -1.3264(6)
H1A H -1.0104 -0.9049 -1.3269
C2A C -1.0590(4) -1.0060(7) -1.3260(6)
C3A C -1.1236(5) -1.0141(7) -1.3280(7)
H2A H -1.1592 -1.0557 -1.3145
C4A C -1.1998(4) -0.9838(6) -1.3417(9)
H3A H -1.2275 -1.0297 -1.3203
H4A H -1.2133 -0.9763 -1.4243
C5A C -1.2071(4) -0.9417(6) -1.2425(8)
C6A C -1.1751(7) -0.9033(9) -1.2989(10)
H5A H -1.1654 -0.8627 -1.2595
H6A H -1.1946 -0.9067 -1.3808
H7A H -1.1354 -0.9048 -1.3091
C7A C -1.2875(8) -0.9850(12) -1.2929(16)
H8A H -1.3121 -1.0209 -1.2360
H9A H -1.2891 -1.0013 -1.3773
H10A H -1.3058 -0.9567 -1.2934
C8A C -1.1575(4) -0.9334(5) -1.0507(7)
H11A H -1.1267 -0.8909 -1.0739
C9A C -1.1530(2) -0.9561(3) -0.9240(3)
C10A C -1.1098(2) -0.91208(28) -0.8392(4)
H12A H -1.0845 -0.8682 -0.8620
C11A C -1.1035(2) -0.9321(3) -0.7210(4)
C12A C -1.1405(2) -0.99631(27) -0.6877(3)
H13A H -1.1362 -1.0100 -0.6070
C13A C -1.1838(2) -1.04043(28) -0.7725(5)
C14A C -1.19005(19) -1.02035(28) -0.8907(4)
H14A H -1.2196 -1.0504 -0.9486
C15A C -1.2201(3) -1.1081(4) -0.7360(7)
H15A H -1.2415 -1.1388 -0.8001
C16A C -1.2598(4) -1.1972(6) -0.5867(9)
C17A C -1.2161(4) -1.2185(6) -0.5303(9)
H16A H -1.2407 -1.2627 -0.4969
H17A H -1.1892 -1.1891 -0.4631
C18A C -1.3002(5) -1.2360(7) -0.6973(10)
H18A H -1.3258 -1.2175 -0.7278
H19A H -1.3288 -1.2805 -0.6713
H20A H -1.2720 -1.2351 -0.7642
C19A C -1.2960(4) -1.1946(6) -0.4633(11)
H21A H -1.2643 -1.1685 -0.3999
H22A H -1.3232 -1.2382 -0.4313
H23A H -1.3226 -1.1755 -0.4833
C20A C -1.1176(4) -1.1814(5) -0.6307(6)
H24A H -1.1038 -1.1597 -0.5531
N1B N -1.0317(6) -1.1657(4) -1.3468(6)
N2B N -1.0333(4) -1.2321(3) -1.1265(6)
N3B N -0.8710(4) -1.0961(3) -0.6243(7)
N4B N -0.7849(4) -0.9597(3) -0.6460(5)
C1B C -1.0578(8) -1.0641(6) -1.3264(6)
H1B H -1.0951 -1.1055 -1.3269
C2B C -0.9940(7) -1.0530(6) -1.3260(6)
C3B C -0.9859(7) -1.1095(5) -1.3280(7)
H2B H -0.9443 -1.1035 -1.3145
C4B C -1.0162(6) -1.2160(5) -1.3417(9)
H3B H -0.9703 -1.1978 -1.3203
H4B H -1.0237 -1.2370 -1.4243
C5B C -1.0583(6) -1.2654(4) -1.2425(8)
C6B C -1.0967(9) -1.2718(6) -1.2989(10)
H5B H -1.1373 -1.3027 -1.2595
H6B H -1.0933 -1.2879 -1.3808
H7B H -1.0952 -1.2306 -1.3091
C7B C -1.0150(12) -1.3025(9) -1.2929(16)
H8B H -0.9791 -1.2912 -1.2360
H9B H -0.9987 -1.2878 -1.3773
H10B H -1.0433 -1.3491 -1.2934
C8B C -1.0666(5) -1.2241(3) -1.0507(7)
H11B H -1.1091 -1.2358 -1.0739
C9B C -1.0439(3) -1.1969(2) -0.9240(3)
C10B C -1.08792(28) -1.19772(19) -0.8392(4)
H12B H -1.1318 -1.2163 -0.8620
C11B C -1.0679(3) -1.1714(2) -0.7210(4)
C12B C -1.00369(27) -1.14419(18) -0.6877(3)
H13B H -0.9900 -1.1262 -0.6070
C13B C -0.95957(28) -1.14337(19) -0.7725(5)
C14B C -0.97965(28) -1.1697(2) -0.8907(4)
H14B H -0.9496 -1.1692 -0.9486
C15B C -0.8919(4) -1.1120(3) -0.7360(7)
H15B H -0.8612 -1.1027 -0.8001
C16B C -0.8028(6) -1.0626(5) -0.5867(9)
C17B C -0.7815(6) -0.9976(5) -0.5303(9)
H16B H -0.7373 -0.9780 -0.4969
H17B H -0.8109 -1.0001 -0.4631
C18B C -0.7640(7) -1.0642(5) -0.6973(10)
H18B H -0.7825 -1.1083 -0.7278
H19B H -0.7195 -1.0483 -0.6713
H20B H -0.7649 -1.0369 -0.7642
C19B C -0.8054(6) -1.1014(5) -0.4633(11)
H21B H -0.8315 -1.0958 -0.3999
H22B H -0.7618 -1.0850 -0.4313
H23B H -0.8245 -1.1471 -0.4833
C20B C -0.8186(5) -0.9362(3) -0.6307(6)
H24B H -0.8403 -0.9441 -0.5531
H71? H -0.7221 -0.8260 -1.2530
H72? H -0.6957 -0.7500 -1.2470
C61? C -0.7185(10) -0.7929(8) -1.4496(10)
H73? H -0.7183 -0.8335 -1.4506
H74? H -0.6769 -0.7585 -1.4200
H75? H -0.7264 -0.7829 -1.5342
C62? C -0.7731(9) -0.7318(6) -1.3507(11)
H76? H -0.7473 -0.7106 -1.4249
H77? H -0.7504 -0.7076 -1.2761
H78? H -0.8145 -0.7335 -1.3569
H79? H -0.7684 -0.6597 -0.0345
H80? H -0.8107 -0.6248 -0.0350
C63? C -0.7738(7) -0.6220(6) 0.1642(12)
H81? H -0.7578 -0.6072 0.2488
H82? H -0.7783 -0.6644 0.1508
H83? H -0.8156 -0.6249 0.1538
C64? C -0.6605(7) -0.5748(6) 0.0665(14)
H84? H -0.6331 -0.5478 0.1345
H85? H -0.6381 -0.5590 -0.0133
H86? H -0.6705 -0.6191 0.0795
H87? H -0.2027 -0.3857 -0.8420
H88? H -0.2481 -0.3547 -0.8480
C65? C -0.3365(8) -0.4215(8) -0.9129(14)
H89? H -0.3734 -0.4543 -0.8662
H90? H -0.3508 -0.4153 -0.9948
H91? H -0.3169 -0.3810 -0.8665
C66? C -0.2355(6) -0.3811(6) -1.0408(10)
H92? H -0.2004 -0.3883 -1.0650
H93? H -0.2180 -0.3388 -1.0018
H94? H -0.2602 -0.3831 -1.1151
H95? H -0.5041 -0.6381 -0.0631
H96? H -0.5753 -0.6522 -0.0927
C67? C -0.5039(8) -0.6162(11) -0.0189(16)
H97? H -0.5130 -0.6528 0.0346
H98? H -0.5204 -0.5906 0.0208
H99? H -0.4575 -0.5896 -0.0309
C68? C -0.6057(9) -0.6246(8) -0.1102(16)
H100? H -0.6326 -0.6399 -0.1851
H101? H -0.5905 -0.5788 -0.0985
H102? H -0.6309 -0.6485 -0.0373
H103? H -0.5280 -0.5669 -0.2556
H104? H -0.5072 -0.5393 -0.1161
loop_
_geom_bond_atom_site_label_1
_geom_bond_atom_site_label_2
_geom_bond_site_symmetry_1
_geom_bond_site_symmetry_2
N1 C3 1_555 1_555
N2 C5 1_555 1_555
N3 C15 1_555 1_555
N4 C17 1_555 1_555
C1 H1 1_555 1_555
C2 C1 1_555 1_555
C3 C2 1_555 1_555
H2 C3 1_555 1_555
C4 N1 1_555 1_555
H3 C4 1_555 1_555
H4 C4 1_555 1_555
C5 C4 1_555 1_555
C6 C5 1_555 1_555
H5 C6 1_555 1_555
H6 C6 1_555 1_555
H7 C6 1_555 1_555
C7 C5 1_555 1_555
H8 C7 1_555 1_555
H9 C7 1_555 1_555
H10 C7 1_555 1_555
C8 N2 1_555 1_555
H11 C8 1_555 1_555
C9 C8 1_555 1_555
C10 C9 1_555 1_555
H12 C10 1_555 1_555
C11 C10 1_555 1_555
C12 C11 1_555 1_555
H13 C12 1_555 1_555
C13 C12 1_555 1_555
C14 C9 1_555 1_555
H14 C14 1_555 1_555
C15 C13 1_555 1_555
H15 C15 1_555 1_555
C16 N3 1_555 1_555
C17 C16 1_555 1_555
H16 C17 1_555 1_555
H17 C17 1_555 1_555
C18 C16 1_555 1_555
H18 C18 1_555 1_555
H19 C18 1_555 1_555
H20 C18 1_555 1_555
C19 C16 1_555 1_555
H21 C19 1_555 1_555
H22 C19 1_555 1_555
H23 C19 1_555 1_555
C20 N4 1_555 1_555
H24 C20 1_555 1_555
N5 C23 1_555 1_555
N6 C25 1_555 1_555
N7 C35 1_555 1_555
N8 C37 1_555 1_555
C21 H25 1_555 1_555
C22 C21 1_555 1_555
C23 C22 1_555 1_555
H26 C23 1_555 1_555
C24 N5 1_555 1_555
H27 C24 1_555 1_555
H28 C24 1_555 1_555
C25 C24 1_555 1_555
C26 C25 1_555 1_555
H29 C26 1_555 1_555
H30 C26 1_555 1_555
H31 C26 1_555 1_555
C27 C25 1_555 1_555
H32 C27 1_555 1_555
H33 C27 1_555 1_555
H34 C27 1_555 1_555
C28 N6 1_555 1_555
H35 C28 1_555 1_555
C29 C30 1_555 1_555
C30 H36 1_555 1_555
C31 C30 1_555 1_555
C32 C31 1_555 1_555
H37 C32 1_555 1_555
C33 C28 1_555 1_555
C34 C29 1_555 1_555
H38 C34 1_555 1_555
C35 C29 1_555 1_555
H39 C35 1_555 1_555
C36 N7 1_555 1_555
C37 C36 1_555 1_555
H40 C37 1_555 1_555
H41 C37 1_555 1_555
C38 C36 1_555 1_555
H42 C38 1_555 1_555
H43 C38 1_555 1_555
H44 C38 1_555 1_555
C39 C36 1_555 1_555
H45 C39 1_555 1_555
H46 C39 1_555 1_555
H47 C39 1_555 1_555
C40 N8 1_555 1_555
H48 C40 1_555 1_555
N9 C43 1_555 1_555
N10 C45 1_555 1_555
N11 C55 1_555 1_555
N12 C57 1_555 1_555
C41 H49 1_555 1_555
C42 C41 1_555 1_555
C43 C42 1_555 1_555
H50 C43 1_555 1_555
C44 N9 1_555 1_555
H51 C44 1_555 1_555
H52 C44 1_555 1_555
C45 C44 1_555 1_555
C46 C45 1_555 1_555
H53 C46 1_555 1_555
H54 C46 1_555 1_555
H55 C46 1_555 1_555
C47 C45 1_555 1_555
H56 C47 1_555 1_555
H57 C47 1_555 1_555
H58 C47 1_555 1_555
C48 N10 1_555 1_555
H59 C48 1_555 1_555
C49 C48 1_555 1_555
C50 C49 1_555 1_555
H60 C50 1_555 1_555
C51 C50 1_555 1_555
C52 C51 1_555 1_555
H61 C52 1_555 1_555
C53 C52 1_555 1_555
C54 C49 1_555 1_555
H62 C54 1_555 1_555
C55 C53 1_555 1_555
H63 C55 1_555 1_555
C56 N11 1_555 1_555
C57 C56 1_555 1_555
C58 C56 1_555 1_555
H64 C58 1_555 1_555
H65 C58 1_555 1_555
H66 C58 1_555 1_555
C59 C56 1_555 1_555
H67 C59 1_555 1_555
H68 C59 1_555 1_555
H69 C59 1_555 1_555
C60 N12 1_555 1_555
H70 C60 1_555 1_555
N1A C3A 1_555 1_555
N2A C5A 1_555 1_555
N3A C15A 1_555 1_555
N4A C17A 1_555 1_555
C1A C2 1_555 1_555
H1A C1A 1_555 1_555
C2A C1A 1_555 1_555
C3A C2A 1_555 1_555
H2A C3A 1_555 1_555
C4A N1A 1_555 1_555
H3A C4A 1_555 1_555
H4A C4A 1_555 1_555
C5A C4A 1_555 1_555
C6A C5A 1_555 1_555
H5A C6A 1_555 1_555
H6A C6A 1_555 1_555
H7A C6A 1_555 1_555
C7A C5A 1_555 1_555
H8A C7A 1_555 1_555
H9A C7A 1_555 1_555
H10A C7A 1_555 1_555
C8A N2A 1_555 1_555
H11A C8A 1_555 1_555
C9A C8A 1_555 1_555
C10A C9A 1_555 1_555
H12A C10A 1_555 1_555
C11A C20 1_555 1_555
C12A C11A 1_555 1_555
H13A C12A 1_555 1_555
C13A C12A 1_555 1_555
C14A C9A 1_555 1_555
H14A C14A 1_555 1_555
C15A C13A 1_555 1_555
H15A C15A 1_555 1_555
C16A N3A 1_555 1_555
C17A C16A 1_555 1_555
H16A C17A 1_555 1_555
H17A C17A 1_555 1_555
C18A C16A 1_555 1_555
H18A C18A 1_555 1_555
H19A C18A 1_555 1_555
H20A C18A 1_555 1_555
C19A C16A 1_555 1_555
H21A C19A 1_555 1_555
H22A C19A 1_555 1_555
H23A C19A 1_555 1_555
C20A N4A 1_555 1_555
H24A C20A 1_555 1_555
N1B C3B 1_555 1_555
N2B C5B 1_555 1_555
N3B C15B 1_555 1_555
N4B C17B 1_555 1_555
C1B C2A 1_555 1_555
H1B C1B 1_555 1_555
C2B C1 1_555 1_555
C3B C2B 1_555 1_555
H2B C3B 1_555 1_555
C4B N1B 1_555 1_555
H3B C4B 1_555 1_555
H4B C4B 1_555 1_555
C5B C4B 1_555 1_555
C6B C5B 1_555 1_555
H5B C6B 1_555 1_555
H6B C6B 1_555 1_555
H7B C6B 1_555 1_555
C7B C5B 1_555 1_555
H8B C7B 1_555 1_555
H9B C7B 1_555 1_555
H10B C7B 1_555 1_555
C8B N2B 1_555 1_555
H11B C8B 1_555 1_555
C9B C8B 1_555 1_555
C10B C9B 1_555 1_555
H12B C10B 1_555 1_555
C11B C20A 1_555 1_555
C12B C11B 1_555 1_555
H13B C12B 1_555 1_555
C13B C12B 1_555 1_555
C14B C9B 1_555 1_555
H14B C14B 1_555 1_555
C15B C13B 1_555 1_555
H15B C15B 1_555 1_555
C16B N3B 1_555 1_555
C17B C16B 1_555 1_555
H16B C17B 1_555 1_555
H17B C17B 1_555 1_555
C18B C16B 1_555 1_555
H18B C18B 1_555 1_555
H19B C18B 1_555 1_555
H20B C18B 1_555 1_555
C19B C16B 1_555 1_555
H21B C19B 1_555 1_555
H22B C19B 1_555 1_555
H23B C19B 1_555 1_555
C20B C11 1_555 1_555
H24B C20B 1_555 1_555
N5A C23A 1_555 1_555
N6A C25A 1_555 1_555
N7A C35A 1_555 1_555
N8A C37A 1_555 1_555
C21A H25A 1_555 1_555
C22A C21 1_555 1_555
C23A C22A 1_555 1_555
H26A C23A 1_555 1_555
C24A N5A 1_555 1_555
H27A C24A 1_555 1_555
H28A C24A 1_555 1_555
C25A C24A 1_555 1_555
C26A C25A 1_555 1_555
H29A C26A 1_555 1_555
H30A C26A 1_555 1_555
H31A C26A 1_555 1_555
C27A C25A 1_555 1_555
H32A C27A 1_555 1_555
H33A C27A 1_555 1_555
H34A C27A 1_555 1_555
C28A N6A 1_555 1_555
H35A C28A 1_555 1_555
C29A C30A 1_555 1_555
C30A H36A 1_555 1_555
C31A C40 1_555 1_555
C32A C31A 1_555 1_555
H37A C32A 1_555 1_555
C33A C28A 1_555 1_555
C34A C29A 1_555 1_555
H38A C34A 1_555 1_555
C35A C29A 1_555 1_555
H39A C35A 1_555 1_555
C36A N7A 1_555 1_555
C37A C36A 1_555 1_555
H40A C37A 1_555 1_555
H41A C37A 1_555 1_555
C38A C36A 1_555 1_555
H42A C38A 1_555 1_555
H43A C38A 1_555 1_555
H44A C38A 1_555 1_555
C39A C36A 1_555 1_555
H45A C39A 1_555 1_555
H46A C39A 1_555 1_555
H47A C39A 1_555 1_555
C40A N8A 1_555 1_555
H48A C40A 1_555 1_555
N5B C23B 1_555 1_555
N6B C25B 1_555 1_555
N7B C35B 1_555 1_555
N8B C37B 1_555 1_555
C21B C22 1_555 1_555
H25B C21B 1_555 1_555
C22B C21A 1_555 1_555
C23B C22B 1_555 1_555
H26B C23B 1_555 1_555
C24B N5B 1_555 1_555
H27B C24B 1_555 1_555
H28B C24B 1_555 1_555
C25B C24B 1_555 1_555
C26B C25B 1_555 1_555
H29B C26B 1_555 1_555
H30B C26B 1_555 1_555
H31B C26B 1_555 1_555
C27B C25B 1_555 1_555
H32B C27B 1_555 1_555
H33B C27B 1_555 1_555
H34B C27B 1_555 1_555
C28B N6B 1_555 1_555
H35B C28B 1_555 1_555
C29B C30B 1_555 1_555
C30B H36B 1_555 1_555
C31B C40A 1_555 1_555
C32B C31B 1_555 1_555
H37B C32B 1_555 1_555
C33B C28B 1_555 1_555
C34B C29B 1_555 1_555
H38B C34B 1_555 1_555
C35B C29B 1_555 1_555
H39B C35B 1_555 1_555
C36B N7B 1_555 1_555
C37B C36B 1_555 1_555
H40B C37B 1_555 1_555
H41B C37B 1_555 1_555
C38B C36B 1_555 1_555
H42B C38B 1_555 1_555
H43B C38B 1_555 1_555
H44B C38B 1_555 1_555
C39B C36B 1_555 1_555
H45B C39B 1_555 1_555
H46B C39B 1_555 1_555
H47B C39B 1_555 1_555
C40B C31 1_555 1_555
H48B C40B 1_555 1_555
N9A C43A 1_555 1_555
N10A C45A 1_555 1_555
N11A C55A 1_555 1_555
N12A C57A 1_555 1_555
C41A C42 1_555 1_555
H49A C41A 1_555 1_555
C42A C41A 1_555 1_555
C43A C42A 1_555 1_555
H50A C43A 1_555 1_555
C44A N9A 1_555 1_555
H51A C44A 1_555 1_555
H52A C44A 1_555 1_555
C45A C44A 1_555 1_555
C46A C45A 1_555 1_555
H53A C46A 1_555 1_555
H54A C46A 1_555 1_555
H55A C46A 1_555 1_555
C47A C45A 1_555 1_555
H56A C47A 1_555 1_555
H57A C47A 1_555 1_555
H58A C47A 1_555 1_555
C48A N10A 1_555 1_555
H59A C48A 1_555 1_555
C49A C48A 1_555 1_555
C50A C49A 1_555 1_555
H60A C50A 1_555 1_555
C51A C60 1_555 1_555
C52A C51A 1_555 1_555
H61A C52A 1_555 1_555
C53A C52A 1_555 1_555
C54A C49A 1_555 1_555
H62A C54A 1_555 1_555
C55A C53A 1_555 1_555
H63A C55A 1_555 1_555
C56A N11A 1_555 1_555
C57A C56A 1_555 1_555
C58A C56A 1_555 1_555
H64A C58A 1_555 1_555
H65A C58A 1_555 1_555
H66A C58A 1_555 1_555
C59A C56A 1_555 1_555
H67A C59A 1_555 1_555
H68A C59A 1_555 1_555
H69A C59A 1_555 1_555
C60A N12A 1_555 1_555
H70A C60A 1_555 1_555
N9B C43B 1_555 1_555
N10B C45B 1_555 1_555
N11B C55B 1_555 1_555
N12B C57B 1_555 1_555
C41B C42A 1_555 1_555
H49B C41B 1_555 1_555
C42B C41 1_555 1_555
C43B C42B 1_555 1_555
H50B C43B 1_555 1_555
C44B N9B 1_555 1_555
H51B C44B 1_555 1_555
H52B C44B 1_555 1_555
C45B C44B 1_555 1_555
C46B C45B 1_555 1_555
H53B C46B 1_555 1_555
H54B C46B 1_555 1_555
H55B C46B 1_555 1_555
C47B C45B 1_555 1_555
H56B C47B 1_555 1_555
H57B C47B 1_555 1_555
H58B C47B 1_555 1_555
C48B N10B 1_555 1_555
H59B C48B 1_555 1_555
C49B C48B 1_555 1_555
C50B C49B 1_555 1_555
H60B C50B 1_555 1_555
C51B C60A 1_555 1_555
C52B C51B 1_555 1_555
H61B C52B 1_555 1_555
C53B C52B 1_555 1_555
C54B C49B 1_555 1_555
H62B C54B 1_555 1_555
C55B C53B 1_555 1_555
H63B C55B 1_555 1_555
C56B N11B 1_555 1_555
C57B C56B 1_555 1_555
C58B C56B 1_555 1_555
H64B C58B 1_555 1_555
H65B C58B 1_555 1_555
H66B C58B 1_555 1_555
C59B C56B 1_555 1_555
H67B C59B 1_555 1_555
H68B C59B 1_555 1_555
H69B C59B 1_555 1_555
C60B C51 1_555 1_555
H70B C60B 1_555 1_555
C13 C14 1_555 1_555
C32 C33 1_555 1_555
C33 C34 1_555 1_555
C53 C54 1_555 1_555
C10A C11A 1_555 1_555
C13A C14A 1_555 1_555
N4B C20B 1_555 1_555
C1B C2B 1_555 1_555
C10B C11B 1_555 1_555
C13B C14B 1_555 1_555
C21A C22A 1_555 1_555
C30A C31A 1_555 1_555
C32A C33A 1_555 1_555
C33A C34A 1_555 1_555
N8B C40B 1_555 1_555
C21B C22B 1_555 1_555
C30B C31B 1_555 1_555
C32B C33B 1_555 1_555
C33B C34B 1_555 1_555
C50A C51A 1_555 1_555
C53A C54A 1_555 1_555
N12B C60B 1_555 1_555
C41B C42B 1_555 1_555
C50B C51B 1_555 1_555
C53B C54B 1_555 1_555

#END
