
#######################################################################
#
#                 Cambridge Crystallographic Data Centre
#                                CCDC 
#
#######################################################################
#
# If this CIF has been generated from an entry in the Cambridge 
# Structural Database, then it will include bibliographic, chemical, 
# crystal, experimental, refinement or atomic coordinate data resulting 
# from the CCDC's data processing and validation procedures.
#
#######################################################################

data_OFORAF
_chemical_formula_moiety         'C16 H20 N6 O6 S1'
_chemical_name_systematic        
'methyl 4-(dimethylamino)-2-{[(4-methoxy-6-methyl-1,3,5-triazin-2-yl)carbamoyl]sulfamoyl}benzoate'
_symmetry_cell_setting           monoclinic
_symmetry_space_group_name_H-M   'P 21/c'
_symmetry_Int_Tables_number      14
_space_group_name_Hall           '-P 2ybc'
loop_
_symmetry_equiv_pos_site_id
_symmetry_equiv_pos_as_xyz
1 x,y,z
2 -x,1/2+y,1/2-z
3 -x,-y,-z
4 x,1/2-y,1/2+z
_cell_length_a                   13.5479(19)
_cell_length_b                   9.9822(12)
_cell_length_c                   15.552(2)
_cell_angle_alpha                90
_cell_angle_beta                 114.145(3)
_cell_angle_gamma                90
_cell_volume                     1919.22
_exptl_crystal_colour            colorless
_exptl_crystal_description       Prism
_cell_formula_units_Z            4
loop_
_atom_site_label
_atom_site_type_symbol
_atom_site_fract_x
_atom_site_fract_y
_atom_site_fract_z
S1 S 0.21670(10) 0.74594(14) -0.00291(9)
O1 O 0.2606(3) 0.7028(4) 0.0922(3)
O2 O 0.4218(3) 0.5985(4) 0.0315(3)
N1 N 0.1918(4) 0.5242(5) -0.2351(3)
C1 C 0.2857(4) 0.8931(5) -0.0119(4)
N2 N 0.3544(3) 0.4849(5) -0.1057(3)
H1 H 0.4155 0.4397 -0.0852
C2 C 0.2828(4) 0.4543(6) -0.1971(4)
N3 N 0.2438(3) 0.6312(5) -0.0668(3)
H2 H 0.1911 0.6044 -0.1195
N4 N 0.3154(4) 0.3573(5) -0.2376(3)
N5 N 0.1546(4) 0.4004(5) -0.3747(3)
C3 C 0.3455(4) 0.5749(5) -0.0415(4)
O3 O 0.1384(4) 1.0340(5) -0.2454(3)
N6 N 0.5127(4) 1.0852(5) 0.1594(3)
C4 C 0.3704(4) 0.9303(6) 0.0712(4)
H3 H 0.3885 0.8750 0.1252
C5 C 0.1308(4) 0.4942(6) -0.3257(3)
O4 O 0.1032(3) 0.7662(4) -0.0486(3)
O5 O 0.1375(4) 0.8175(5) -0.2099(3)
C6 C 0.2454(4) 0.3338(6) -0.3263(4)
O6 O 0.2718(4) 0.2326(4) -0.3681(3)
C7 C 0.4307(4) 1.0484(5) 0.0780(4)
C8 C 0.2566(4) 0.9699(6) -0.0941(4)
C9 C 0.1721(5) 0.9297(6) -0.1866(4)
C10 C 0.4003(5) 1.1244(6) -0.0048(4)
H4 H 0.4384 1.2047 -0.0037
C11 C 0.3169(5) 1.0857(6) -0.0872(4)
H5 H 0.2996 1.1399 -0.1416
C12 C 0.0302(4) 0.5747(7) -0.3753(4)
H6 H 0.0159 0.6294 -0.3293
H7 H -0.0310 0.5142 -0.4071
H8 H 0.0397 0.6332 -0.4219
C13 C 0.1993(6) 0.1970(8) -0.4605(5)
H9 H 0.2069 0.2601 -0.5056
H10 H 0.1250 0.2000 -0.4652
H11 H 0.2158 0.1062 -0.4746
C14 C 0.5490(5) 0.9985(7) 0.2408(4)
H12 H 0.4931 0.9933 0.2654
H13 H 0.6158 1.0345 0.2895
H14 H 0.5629 0.9087 0.2227
C15 C 0.5654(5) 1.2138(6) 0.1686(5)
H15 H 0.6150 1.2107 0.1372
H16 H 0.6061 1.2346 0.2355
H17 H 0.5107 1.2833 0.1394
C16 C 0.0581(7) 1.0003(9) -0.3378(5)
H18 H 0.0921 0.9487 -0.3720
H19 H 0.0269 1.0826 -0.3726
H20 H 0.0009 0.9466 -0.3315
loop_
_geom_bond_atom_site_label_1
_geom_bond_atom_site_label_2
_geom_bond_site_symmetry_1
_geom_bond_site_symmetry_2
S1 O1 1_555 1_555
O2 C3 1_555 1_555
N1 C2 1_555 1_555
C1 S1 1_555 1_555
N2 H1 1_555 1_555
C2 N2 1_555 1_555
N3 S1 1_555 1_555
H2 N3 1_555 1_555
N4 C2 1_555 1_555
N5 C5 1_555 1_555
C3 N2 1_555 1_555
O3 C9 1_555 1_555
N6 C7 1_555 1_555
C4 C1 1_555 1_555
H3 C4 1_555 1_555
C5 N1 1_555 1_555
O4 S1 1_555 1_555
O5 C9 1_555 1_555
C6 N4 1_555 1_555
O6 C6 1_555 1_555
C7 C4 1_555 1_555
C8 C1 1_555 1_555
C9 C8 1_555 1_555
C10 C7 1_555 1_555
H4 C10 1_555 1_555
C11 C8 1_555 1_555
H5 C11 1_555 1_555
C12 C5 1_555 1_555
H6 C12 1_555 1_555
H7 C12 1_555 1_555
H8 C12 1_555 1_555
C13 O6 1_555 1_555
H9 C13 1_555 1_555
H10 C13 1_555 1_555
H11 C13 1_555 1_555
C14 N6 1_555 1_555
H12 C14 1_555 1_555
H13 C14 1_555 1_555
H14 C14 1_555 1_555
C15 N6 1_555 1_555
H15 C15 1_555 1_555
H16 C15 1_555 1_555
H17 C15 1_555 1_555
C16 O3 1_555 1_555
H18 C16 1_555 1_555
H19 C16 1_555 1_555
H20 C16 1_555 1_555
N3 C3 1_555 1_555
N5 C6 1_555 1_555
C10 C11 1_555 1_555

#END
