
#######################################################################
#
#                 Cambridge Crystallographic Data Centre
#                                CCDC 
#
#######################################################################
#
# If this CIF has been generated from an entry in the Cambridge 
# Structural Database, then it will include bibliographic, chemical, 
# crystal, experimental, refinement or atomic coordinate data resulting 
# from the CCDC's data processing and validation procedures.
#
#######################################################################

data_OFOREJ
_chemical_formula_moiety         'C24 H35 N1 O2'
_chemical_name_systematic        
2,5,5,8a-tetramethyl-1-[(5-phenyl-4,5-dihydro-1,2-oxazol-3-yl)methyl]decahydronaphthalen-2-ol
_symmetry_cell_setting           monoclinic
_symmetry_space_group_name_H-M   'P 21'
_symmetry_Int_Tables_number      4
_space_group_name_Hall           'P 2yb'
loop_
_symmetry_equiv_pos_site_id
_symmetry_equiv_pos_as_xyz
1 x,y,z
2 -x,1/2+y,-z
_cell_length_a                   9.67127(7)
_cell_length_b                   7.05127(7)
_cell_length_c                   15.44464(12)
_cell_angle_alpha                90
_cell_angle_beta                 93.4847(6)
_cell_angle_gamma                90
_cell_volume                     1051.3
_exptl_crystal_colour            colorless
_exptl_crystal_description       block
_cell_formula_units_Z            2
loop_
_atom_site_label
_atom_site_type_symbol
_atom_site_fract_x
_atom_site_fract_y
_atom_site_fract_z
O1 O 0.37096(14) 0.8607(2) 0.03508(9)
O2 O 0.62355(13) 0.1158(2) 0.17928(8)
H1 H 0.5709 0.0317 0.1611
N1 N 0.46158(16) 0.7925(2) 0.10513(10)
C1 C 0.44327(17) 0.6148(3) 0.11437(11)
C2 C 0.46468(17) 0.3488(3) 0.23201(11)
H2 H 0.3978 0.2861 0.1913
C3 C 0.57396(18) 0.1942(3) 0.25796(12)
C4 C 0.31055(18) 0.2430(3) 0.34788(11)
H3 H 0.2640 0.1775 0.2983
C5 C 0.42303(19) 0.1041(3) 0.38228(11)
H4 H 0.4839 0.1667 0.4256
H5 H 0.3803 -0.0032 0.4095
C6 C 0.53342(17) 0.5039(3) 0.17794(11)
H6 H 0.5790 0.5930 0.2181
H7 H 0.6052 0.4437 0.1464
C7 C 0.1937(2) 0.2796(3) 0.41135(11)
C8 C 0.08621(19) 0.4122(3) 0.36639(12)
H8 H 0.0390 0.3450 0.3184
H9 H 0.0176 0.4451 0.4072
C9 C 0.26499(19) 0.7188(3) 0.01921(11)
H10 H 0.2392 0.7118 -0.0431
C10 C 0.13791(19) 0.7651(3) 0.06852(11)
C11 C 0.33631(18) 0.5350(3) 0.04910(11)
H11 H 0.2730 0.4493 0.0758
H12 H 0.3787 0.4708 0.0019
C12 C 0.25961(19) 0.5482(3) 0.26896(12)
H13 H 0.2992 0.6660 0.2494
H14 H 0.2160 0.4851 0.2186
C13 C 0.4661(2) 0.5394(3) 0.37438(12)
H15 H 0.5079 0.4567 0.4179
H16 H 0.4086 0.6304 0.4013
H17 H 0.5373 0.6045 0.3454
C14 C 0.50721(19) 0.0346(3) 0.30772(12)
H18 H 0.5794 -0.0500 0.3309
H19 H 0.4469 -0.0378 0.2676
C15 C 0.1486(2) 0.5946(3) 0.33211(12)
H20 H 0.1892 0.6682 0.3802
H21 H 0.0761 0.6701 0.3028
C16 C 0.37717(18) 0.4218(3) 0.30781(11)
C17 C 0.70558(19) 0.2660(3) 0.30730(13)
H22 H 0.7714 0.1644 0.3141
H23 H 0.6832 0.3112 0.3634
H24 H 0.7447 0.3676 0.2754
C18 C 0.1320(2) 0.9246(3) 0.12101(13)
H25 H 0.2083 1.0046 0.1283
C19 C 0.2458(2) 0.3597(3) 0.49986(12)
H26 H 0.3220 0.2844 0.5231
H27 H 0.1722 0.3563 0.5388
H28 H 0.2758 0.4883 0.4930
C20 C 0.0238(2) 0.6469(3) 0.05924(13)
H29 H 0.0275 0.5385 0.0252
C21 C 0.0116(2) 0.9645(4) 0.16272(14)
H30 H 0.0082 1.0709 0.1981
C22 C 0.1190(2) 0.0922(3) 0.42811(14)
H31 H 0.0955 0.0302 0.3738
H32 H 0.0360 0.1176 0.4572
H33 H 0.1788 0.0115 0.4637
C23 C -0.1025(2) 0.8481(4) 0.15209(15)
H34 H -0.1831 0.8764 0.1794
C24 C -0.0963(2) 0.6887(4) 0.10041(16)
H35 H -0.1728 0.6091 0.0932
loop_
_geom_bond_atom_site_label_1
_geom_bond_atom_site_label_2
_geom_bond_site_symmetry_1
_geom_bond_site_symmetry_2
O1 N1 1_555 1_555
O2 H1 1_555 1_555
N1 C1 1_555 1_555
C1 C6 1_555 1_555
C2 H2 1_555 1_555
C3 O2 1_555 1_555
C4 H3 1_555 1_555
C5 C4 1_555 1_555
H4 C5 1_555 1_555
H5 C5 1_555 1_555
C6 C2 1_555 1_555
H6 C6 1_555 1_555
H7 C6 1_555 1_555
C7 C4 1_555 1_555
C8 C7 1_555 1_555
H8 C8 1_555 1_555
H9 C8 1_555 1_555
C9 O1 1_555 1_555
H10 C9 1_555 1_555
C10 C9 1_555 1_555
C11 C1 1_555 1_555
H11 C11 1_555 1_555
H12 C11 1_555 1_555
C12 H13 1_555 1_555
H14 C12 1_555 1_555
C13 H15 1_555 1_555
H16 C13 1_555 1_555
H17 C13 1_555 1_555
C14 C3 1_555 1_555
H18 C14 1_555 1_555
H19 C14 1_555 1_555
C15 C8 1_555 1_555
H20 C15 1_555 1_555
H21 C15 1_555 1_555
C16 C2 1_555 1_555
C17 C3 1_555 1_555
H22 C17 1_555 1_555
H23 C17 1_555 1_555
H24 C17 1_555 1_555
C18 C10 1_555 1_555
H25 C18 1_555 1_555
C19 C7 1_555 1_555
H26 C19 1_555 1_555
H27 C19 1_555 1_555
H28 C19 1_555 1_555
C20 C10 1_555 1_555
H29 C20 1_555 1_555
C21 C18 1_555 1_555
H30 C21 1_555 1_555
C22 C7 1_555 1_555
H31 C22 1_555 1_555
H32 C22 1_555 1_555
H33 C22 1_555 1_555
C23 C21 1_555 1_555
H34 C23 1_555 1_555
C24 C20 1_555 1_555
H35 C24 1_555 1_555
C2 C3 1_555 1_555
C4 C16 1_555 1_555
C5 C14 1_555 1_555
C9 C11 1_555 1_555
C12 C15 1_555 1_555
C12 C16 1_555 1_555
C13 C16 1_555 1_555
C23 C24 1_555 1_555

#END
