
#######################################################################
#
#                 Cambridge Crystallographic Data Centre
#                                CCDC 
#
#######################################################################
#
# If this CIF has been generated from an entry in the Cambridge 
# Structural Database, then it will include bibliographic, chemical, 
# crystal, experimental, refinement or atomic coordinate data resulting 
# from the CCDC's data processing and validation procedures.
#
#######################################################################

data_OFORIN
_chemical_formula_moiety         'C25 H35 N3 O1'
_chemical_name_systematic        
1-[(2-amino-6-phenylpyrimidin-4-yl)methyl]-2,5,5,8a-tetramethyldecahydronaphthalen-2-ol
_symmetry_cell_setting           orthorhombic
_symmetry_space_group_name_H-M   'P 21 21 21'
_symmetry_Int_Tables_number      19
_space_group_name_Hall           'P 2ac 2ab'
loop_
_symmetry_equiv_pos_site_id
_symmetry_equiv_pos_as_xyz
1 x,y,z
2 1/2-x,-y,1/2+z
3 -x,1/2+y,1/2-z
4 1/2+x,1/2-y,-z
_cell_length_a                   6.04476(8)
_cell_length_b                   13.48040(17)
_cell_length_c                   26.4744(3)
_cell_angle_alpha                90
_cell_angle_beta                 90
_cell_angle_gamma                90
_cell_volume                     2157.29
_exptl_crystal_colour            colorless
_exptl_crystal_description       block
_cell_formula_units_Z            4
loop_
_atom_site_label
_atom_site_type_symbol
_atom_site_fract_x
_atom_site_fract_y
_atom_site_fract_z
O1 O 0.8418(2) 0.74506(10) 0.45376(5)
H1 H 0.7491 0.7007 0.4547
N1 N 0.5918(3) 0.55829(11) 0.45123(6)
N2 N 0.3742(3) 0.41084(11) 0.46433(6)
N3 N 0.2839(3) 0.55760(12) 0.50266(6)
H2 H 0.3065 0.6195 0.5087
H3 H 0.1736 0.5276 0.5164
C1 C 0.4645(3) 0.25251(14) 0.42716(7)
C2 C 0.4214(3) 0.50767(13) 0.47171(7)
C3 C 0.7276(3) 0.50628(13) 0.42106(7)
C4 C 0.9338(3) 0.75134(14) 0.40323(7)
C5 C 0.8947(3) 0.85269(13) 0.32234(7)
H4 H 1.0533 0.8551 0.3170
H5 H 0.8309 0.9130 0.3087
C6 C 0.6226(3) 0.18878(13) 0.40698(7)
H6 H 0.7623 0.2130 0.3989
C7 C 0.9188(3) 0.56160(13) 0.39850(7)
H7 H 0.9906 0.5195 0.3737
H8 H 1.0256 0.5756 0.4249
C8 C 0.5138(3) 0.36013(14) 0.43484(7)
C9 C 0.9003(3) 0.66409(13) 0.31478(7)
C10 C 0.2569(3) 0.21471(14) 0.43986(7)
H9 H 0.1502 0.2562 0.4538
C11 C 1.1497(3) 0.65211(14) 0.30410(7)
H10 H 1.2188 0.7162 0.3036
H11 H 1.1699 0.6204 0.2720
H12 H 1.2157 0.6122 0.3301
C12 C 0.8512(3) 0.66066(13) 0.37274(7)
H13 H 0.6896 0.6630 0.3754
C13 C 0.2090(4) 0.11480(14) 0.43169(8)
H14 H 0.0703 0.0900 0.4402
C14 C 0.7978(3) 0.76252(13) 0.29457(7)
H15 H 0.6431 0.7601 0.3055
C15 C 0.5740(4) 0.08933(14) 0.39873(8)
H16 H 0.6805 0.0475 0.3849
C16 C 0.7754(3) 0.57709(13) 0.28988(7)
H17 H 0.8449 0.5153 0.2999
H18 H 0.6244 0.5762 0.3023
C17 C 0.6944(3) 0.40560(13) 0.41193(7)
H19 H 0.7899 0.3699 0.3912
C18 C 0.7848(3) 0.77381(14) 0.23621(7)
C19 C 0.8463(3) 0.84653(13) 0.37873(7)
H20 H 0.6877 0.8502 0.3839
H21 H 0.9127 0.9032 0.3954
C20 C 0.6715(3) 0.68103(14) 0.21432(7)
H22 H 0.5163 0.6823 0.2236
H23 H 0.6801 0.6838 0.1778
C21 C 0.3668(4) 0.05231(13) 0.41105(8)
H24 H 0.3339 -0.0142 0.4055
C22 C 0.7715(4) 0.58323(14) 0.23216(7)
H25 H 0.9212 0.5773 0.2193
H26 H 0.6855 0.5285 0.2188
C23 C 1.0082(3) 0.78972(16) 0.21005(8)
H27 H 1.0869 0.8423 0.2266
H28 H 0.9841 0.8070 0.1753
H29 H 1.0935 0.7298 0.2118
C24 C 0.6392(4) 0.86352(15) 0.22296(8)
H30 H 0.5052 0.8610 0.2424
H31 H 0.6037 0.8620 0.1876
H32 H 0.7176 0.9236 0.2306
C25 C 1.1841(3) 0.75928(14) 0.41108(8)
H33 H 1.2143 0.8050 0.4380
H34 H 1.2524 0.7826 0.3806
H35 H 1.2427 0.6952 0.4196
loop_
_geom_bond_atom_site_label_1
_geom_bond_atom_site_label_2
_geom_bond_site_symmetry_1
_geom_bond_site_symmetry_2
O1 H1 1_555 1_555
N1 C2 1_555 1_555
N2 C2 1_555 1_555
N3 H2 1_555 1_555
H3 N3 1_555 1_555
C1 C6 1_555 1_555
C2 N3 1_555 1_555
C3 N1 1_555 1_555
C4 O1 1_555 1_555
C5 H4 1_555 1_555
H5 C5 1_555 1_555
C6 H6 1_555 1_555
C7 C3 1_555 1_555
H7 C7 1_555 1_555
H8 C7 1_555 1_555
C8 N2 1_555 1_555
C9 C11 1_555 1_555
C10 C1 1_555 1_555
H9 C10 1_555 1_555
C11 H10 1_555 1_555
H11 C11 1_555 1_555
H12 C11 1_555 1_555
C12 C4 1_555 1_555
H13 C12 1_555 1_555
C13 C10 1_555 1_555
H14 C13 1_555 1_555
C14 C5 1_555 1_555
H15 C14 1_555 1_555
C15 C6 1_555 1_555
H16 C15 1_555 1_555
C16 C9 1_555 1_555
H17 C16 1_555 1_555
H18 C16 1_555 1_555
C17 C3 1_555 1_555
H19 C17 1_555 1_555
C18 C14 1_555 1_555
C19 C4 1_555 1_555
H20 C19 1_555 1_555
H21 C19 1_555 1_555
C20 C18 1_555 1_555
H22 C20 1_555 1_555
H23 C20 1_555 1_555
C21 C13 1_555 1_555
H24 C21 1_555 1_555
C22 C16 1_555 1_555
H25 C22 1_555 1_555
H26 C22 1_555 1_555
C23 C18 1_555 1_555
H27 C23 1_555 1_555
H28 C23 1_555 1_555
H29 C23 1_555 1_555
C24 C18 1_555 1_555
H30 C24 1_555 1_555
H31 C24 1_555 1_555
H32 C24 1_555 1_555
C25 C4 1_555 1_555
H33 C25 1_555 1_555
H34 C25 1_555 1_555
H35 C25 1_555 1_555
C1 C8 1_555 1_555
C5 C19 1_555 1_555
C7 C12 1_555 1_555
C8 C17 1_555 1_555
C9 C12 1_555 1_555
C9 C14 1_555 1_555
C15 C21 1_555 1_555
C20 C22 1_555 1_555

#END
