
#######################################################################
#
#                 Cambridge Crystallographic Data Centre
#                                CCDC 
#
#######################################################################
#
# If this CIF has been generated from an entry in the Cambridge 
# Structural Database, then it will include bibliographic, chemical, 
# crystal, experimental, refinement or atomic coordinate data resulting 
# from the CCDC's data processing and validation procedures.
#
#######################################################################

data_OFOSEH
_chemical_formula_moiety         'C79 H86 N8 O1,C1 H2 Cl2'
_chemical_name_systematic        
'4,5-bis(2,8,13,17-Tetraethyl-3,7,12,18-tetramethyl-5-porphyrinyl)-9,9-dimethylxanthene dichloromethane solvate'
_symmetry_cell_setting           triclinic
_symmetry_space_group_name_H-M   'P -1'
_symmetry_Int_Tables_number      2
_space_group_name_Hall           '-P 1'
loop_
_symmetry_equiv_pos_site_id
_symmetry_equiv_pos_as_xyz
1 x,y,z
2 -x,-y,-z
_cell_length_a                   13.5167(12)
_cell_length_b                   21.7008(18)
_cell_length_c                   23.808(2)
_cell_angle_alpha                80.116(2)
_cell_angle_beta                 76.832(2)
_cell_angle_gamma                80.4070(10)
_cell_volume                     6639.41
_exptl_crystal_colour            red-purple
_exptl_crystal_description       parallelepiped
_cell_formula_units_Z            4
_exptl_crystal_recrystallization_method methanol/dichloromethane
loop_
_atom_site_label
_atom_site_type_symbol
_atom_site_fract_x
_atom_site_fract_y
_atom_site_fract_z
N1 N 0.61910(19) 0.23124(12) 0.18336(12)
H1 H 0.6532 0.2072 0.2070
N2 N 0.8202(2) 0.21455(12) 0.20461(12)
N3 N 0.7599(2) 0.10878(13) 0.30399(12)
H3 H 0.7265 0.1334 0.2803
N4 N 0.5564(2) 0.12876(12) 0.28607(11)
N5 N 0.66978(19) 0.35376(12) 0.29081(11)
N6 N 0.87460(19) 0.32700(12) 0.30371(11)
H6 H 0.8167 0.3156 0.3223
N7 N 0.8226(2) 0.21945(12) 0.40271(11)
N8 N 0.6214(2) 0.24020(12) 0.38214(11)
H8 H 0.6770 0.2565 0.3671
O1 O 0.76793(16) 0.41323(9) 0.12455(9)
C1 C 0.5184(2) 0.23275(15) 0.18391(15)
C2 C 0.4889(2) 0.27930(15) 0.13741(15)
C3 C 0.3837(3) 0.29527(17) 0.12286(16)
H17 H 0.3677 0.3408 0.1151
H18 H 0.3335 0.2803 0.1564
C4 C 0.3750(3) 0.2666(2) 0.07049(19)
H19 H 0.4219 0.2830 0.0366
H20 H 0.3063 0.2771 0.0640
H21 H 0.3914 0.2215 0.0777
C5 C 0.5742(2) 0.30587(15) 0.10908(15)
C6 C 0.5747(3) 0.35986(18) 0.05967(17)
H22 H 0.5068 0.3716 0.0521
H23 H 0.6207 0.3470 0.0253
H24 H 0.5970 0.3953 0.0702
C7 C 0.6565(2) 0.27473(14) 0.13863(14)
C8 C 0.7603(3) 0.28590(14) 0.12387(14)
C9 C 0.8368(2) 0.25764(15) 0.15492(14)
C10 C 0.9444(2) 0.26561(15) 0.14262(15)
C11 C 1.0030(3) 0.30708(17) 0.09293(17)
H25 H 1.0732 0.3026 0.0966
H26 H 0.9730 0.3503 0.0940
H27 H 0.9999 0.2947 0.0566
C12 C 0.9876(2) 0.22718(15) 0.18455(15)
C13 C 1.0990(3) 0.21634(17) 0.18788(17)
H28 H 1.1054 0.1997 0.2276
H29 H 1.1262 0.2563 0.1777
C14 C 1.1615(3) 0.17053(19) 0.1473(2)
H30 H 1.1339 0.1312 0.1567
H31 H 1.2315 0.1636 0.1517
H32 H 1.1586 0.1880 0.1077
C15 C 0.9102(2) 0.19412(15) 0.22373(15)
C16 C 0.9259(3) 0.14730(16) 0.26930(15)
H33 H 0.9918 0.1410 0.2765
C19 C 0.8599(3) 0.10800(15) 0.30617(14)
C20 C 0.8888(3) 0.05905(16) 0.35154(15)
C21 C 0.9937(3) 0.04275(18) 0.36566(17)
H40 H 0.9893 0.0170 0.4030
H41 H 1.0203 0.0808 0.3667
H42 H 1.0384 0.0200 0.3364
C22 C 0.8032(3) 0.03178(16) 0.37756(15)
C23 C 0.7890(3) -0.01877(18) 0.43052(19)
H43 H 0.8323 -0.0138 0.4564
H44 H 0.7183 -0.0131 0.4515
C24 C 0.8147(3) -0.0834(2) 0.41435(19)
H45 H 0.7727 -0.0883 0.3883
H46 H 0.8026 -0.1137 0.4488
H47 H 0.8856 -0.0900 0.3954
C25 C 0.7231(3) 0.06289(16) 0.34658(15)
C26 C 0.6232(3) 0.04917(17) 0.35809(15)
H48 H 0.6070 0.0161 0.3875
C27 C 0.5450(3) 0.07961(16) 0.33038(14)
C28 C 0.4400(3) 0.06749(16) 0.34216(15)
C29 C 0.3961(3) 0.01614(16) 0.38724(15)
H49 H 0.3256 0.0310 0.4041
H50 H 0.4345 0.0070 0.4182
C30 C 0.3992(3) -0.04421(18) 0.36214(17)
H51 H 0.3539 -0.0368 0.3352
H52 H 0.3778 -0.0769 0.3931
H53 H 0.4679 -0.0570 0.3422
C31 C 0.3913(3) 0.11009(16) 0.30471(15)
C32 C 0.2803(3) 0.11704(18) 0.30025(17)
H54 H 0.2487 0.0827 0.3247
H55 H 0.2762 0.1166 0.2606
H56 H 0.2455 0.1562 0.3126
C33 C 0.4659(2) 0.14845(15) 0.26837(15)
C34 C 0.4493(3) 0.19537(15) 0.22308(15)
H57 H 0.3822 0.2037 0.2175
C35 C 0.5658(2) 0.35758(15) 0.29821(14)
C36 C 0.5313(2) 0.41725(15) 0.26694(14)
C37 C 0.4230(3) 0.43893(17) 0.26013(15)
H58 H 0.4126 0.4846 0.2519
H59 H 0.3766 0.4265 0.2964
C38 C 0.3983(3) 0.4113(2) 0.21148(17)
H60 H 0.4449 0.4229 0.1757
H61 H 0.3293 0.4273 0.2074
H62 H 0.4051 0.3661 0.2205
C39 C 0.6153(2) 0.44721(15) 0.24155(14)
C40 C 0.6096(3) 0.51305(15) 0.20954(16)
H63 H 0.6209 0.5116 0.1685
H64 H 0.6612 0.5341 0.2173
H65 H 0.5431 0.5357 0.2224
C41 C 0.7051(2) 0.40532(15) 0.25492(13)
C42 C 0.8100(2) 0.41184(15) 0.23419(13)
C43 C 0.8901(2) 0.37212(15) 0.25602(13)
C44 C 1.0011(2) 0.37474(15) 0.23557(14)
C45 C 1.0588(3) 0.41138(18) 0.18204(16)
H66 H 1.0672 0.4515 0.1909
H67 H 1.0210 0.4179 0.1514
H68 H 1.1249 0.3881 0.1696
C46 C 1.0473(2) 0.33371(16) 0.27448(14)
C47 C 1.1586(3) 0.32281(17) 0.27699(16)
H69 H 1.1990 0.3316 0.2380
H70 H 1.1773 0.2788 0.2914
C48 C 1.1838(3) 0.3639(2) 0.31595(17)
H71 H 1.1691 0.4075 0.3006
H72 H 1.2551 0.3542 0.3175
H73 H 1.1431 0.3559 0.3545
C49 C 0.9674(2) 0.30380(15) 0.31620(14)
C50 C 0.9879(3) 0.25768(15) 0.36229(14)
H74 H 1.0554 0.2513 0.3671
C51 C 0.9236(2) 0.21997(15) 0.40193(14)
C52 C 0.9510(3) 0.17218(16) 0.44731(15)
C53 C 1.0544(3) 0.15754(18) 0.46282(17)
H75 H 1.0597 0.1857 0.4887
H76 H 1.1064 0.1627 0.4281
H77 H 1.0634 0.1148 0.4817
C54 C 0.8667(3) 0.14274(16) 0.47297(15)
C55 C 0.8579(3) 0.08901(17) 0.52297(15)
H78 H 0.8002 0.0678 0.5228
H79 H 0.9194 0.0586 0.5172
C56 C 0.8438(3) 0.11087(19) 0.58121(16)
H80 H 0.9022 0.1301 0.5823
H81 H 0.8369 0.0754 0.6114
H82 H 0.7831 0.1411 0.5871
C57 C 0.7842(3) 0.17282(15) 0.44435(14)
C58 C 0.6856(3) 0.15856(16) 0.45330(15)
H83 H 0.6683 0.1247 0.4817
C59 C 0.6093(3) 0.18984(15) 0.42407(14)
C60 C 0.5045(3) 0.17485(16) 0.43627(15)
C61 C 0.4653(3) 0.12133(18) 0.48090(16)
H84 H 0.4068 0.1089 0.4705
H85 H 0.5184 0.0852 0.4806
C62 C 0.4345(3) 0.13962(19) 0.54060(17)
H86 H 0.4911 0.1542 0.5501
H87 H 0.4148 0.1037 0.5682
H88 H 0.3776 0.1728 0.5420
C63 C 0.4534(3) 0.21906(16) 0.40270(15)
C64 C 0.3418(3) 0.22756(19) 0.39995(18)
H89 H 0.3105 0.1925 0.4233
H90 H 0.3355 0.2296 0.3603
H91 H 0.3083 0.2660 0.4145
C65 C 0.5277(2) 0.25994(15) 0.36853(14)
C66 C 0.5040(2) 0.31376(15) 0.33084(14)
H92 H 0.4361 0.3217 0.3268
C67 C 0.7935(2) 0.32955(15) 0.06915(14)
C68 C 0.8260(3) 0.30831(16) 0.01525(15)
H93 H 0.8269 0.2659 0.0129
C69 C 0.8572(3) 0.34887(17) -0.03489(15)
H94 H 0.8804 0.3334 -0.0703
C70 C 0.8538(3) 0.41210(17) -0.03243(15)
H95 H 0.8735 0.4393 -0.0665
C71 C 0.8211(2) 0.43596(15) 0.02055(13)
C72 C 0.8055(3) 0.50628(15) 0.02682(14)
C73 C 0.6899(3) 0.53061(17) 0.03290(16)
H96 H 0.6517 0.5061 0.0656
H97 H 0.6684 0.5267 -0.0019
H98 H 0.6779 0.5741 0.0388
C74 C 0.8647(3) 0.54565(16) -0.02581(15)
H99 H 0.8534 0.5890 -0.0196
H100 H 0.8413 0.5422 -0.0602
H101 H 0.9366 0.5304 -0.0307
C75 C 0.8375(2) 0.51009(14) 0.08387(13)
C76 C 0.8844(2) 0.55918(15) 0.09248(15)
H102 H 0.9020 0.5908 0.0617
C77 C 0.9052(3) 0.56139(16) 0.14625(15)
H103 H 0.9366 0.5944 0.1515
C78 C 0.8796(2) 0.51507(15) 0.19200(15)
H104 H 0.8927 0.5178 0.2281
C79 C 0.8346(2) 0.46400(15) 0.18564(13)
C80 C 0.8145(2) 0.46355(14) 0.13078(14)
C81 C 0.7945(2) 0.39353(15) 0.06998(13)
N9 N 0.10950(19) 0.73666(12) 0.17040(11)
H9 H 0.1420 0.7136 0.1953
N10 N 0.3112(2) 0.72137(12) 0.19340(12)
N11 N 0.2449(2) 0.62573(12) 0.29947(12)
H11 H 0.2135 0.6477 0.2735
N12 N 0.0425(2) 0.64235(12) 0.27756(11)
N13 N 0.16891(19) 0.84464(12) 0.28669(11)
N14 N 0.37198(19) 0.82120(12) 0.30122(11)
H14 H 0.3138 0.8109 0.3207
N15 N 0.3167(2) 0.72848(12) 0.41189(11)
N16 N 0.1158(2) 0.74446(12) 0.39187(11)
H16 H 0.1733 0.7564 0.3731
O2 O 0.26481(16) 0.91328(9) 0.11832(9)
C17 C 0.1896(3) 1.03643(17) 0.03130(16)
H34 H 0.1505 1.0110 0.0629
H35 H 0.1683 1.0348 -0.0042
H36 H 0.1783 1.0793 0.0391
C18 C 0.3650(3) 1.05238(17) -0.02514(15)
H37 H 0.3541 1.0949 -0.0166
H38 H 0.3423 1.0516 -0.0604
H39 H 0.4367 1.0366 -0.0300
C82 C 0.0097(2) 0.73744(15) 0.16957(14)
C83 C -0.0168(2) 0.78228(15) 0.12132(14)
C84 C -0.1207(3) 0.79754(17) 0.10551(15)
H105 H -0.1360 0.8429 0.0960
H106 H -0.1720 0.7840 0.1391
C85 C -0.1286(3) 0.7664(2) 0.05443(18)
H107 H -0.0785 0.7798 0.0209
H108 H -0.1959 0.7784 0.0461
H109 H -0.1163 0.7214 0.0641
C86 C 0.0681(2) 0.80921(15) 0.09379(14)
C87 C 0.0704(3) 0.86278(17) 0.04415(16)
H110 H 0.1169 0.8495 0.0102
H111 H 0.0927 0.8982 0.0547
H112 H 0.0029 0.8748 0.0360
C88 C 0.1501(2) 0.77909(14) 0.12463(14)
C89 C 0.2535(2) 0.78956(14) 0.11040(14)
C90 C 0.3296(2) 0.76153(14) 0.14174(14)
C91 C 0.4385(2) 0.76737(15) 0.12767(15)
C92 C 0.4992(3) 0.80382(17) 0.07585(16)
H113 H 0.5691 0.7996 0.0800
H114 H 0.4707 0.8476 0.0732
H115 H 0.4967 0.7877 0.0412
C93 C 0.4807(3) 0.73025(15) 0.17076(15)
C94 C 0.5929(3) 0.71663(17) 0.17266(17)
H116 H 0.6002 0.6999 0.2122
H117 H 0.6227 0.7557 0.1618
C95 C 0.6510(3) 0.67006(18) 0.13245(19)
H118 H 0.6194 0.6321 0.1415
H119 H 0.7207 0.6603 0.1374
H120 H 0.6499 0.6881 0.0928
C96 C 0.4010(2) 0.70134(15) 0.21222(15)
C97 C 0.4141(3) 0.65928(15) 0.26201(15)
H121 H 0.4797 0.6532 0.2697
C98 C 0.3446(3) 0.62521(15) 0.30175(15)
C99 C 0.3683(3) 0.58225(16) 0.35210(15)
C100 C 0.4709(3) 0.56855(18) 0.36862(17)
H122 H 0.4633 0.5494 0.4086
H123 H 0.4996 0.6072 0.3638
H124 H 0.5157 0.5403 0.3441
C101 C 0.2811(3) 0.55752(16) 0.37940(15)
C102 C 0.2662(3) 0.51037(17) 0.43354(16)
H125 H 0.1945 0.5157 0.4528
H126 H 0.3058 0.5190 0.4598
C103 C 0.2977(3) 0.44220(19) 0.42228(18)
H127 H 0.2568 0.4326 0.3977
H128 H 0.2875 0.4146 0.4586
H129 H 0.3688 0.4364 0.4035
C104 C 0.2041(3) 0.58516(16) 0.34562(15)
C105 C 0.1041(3) 0.57160(17) 0.35686(15)
H130 H 0.0855 0.5418 0.3890
C106 C 0.0283(3) 0.59766(15) 0.32537(14)
C107 C -0.0755(3) 0.58359(16) 0.33654(15)
C108 C -0.1207(3) 0.53514(17) 0.38382(15)
H131 H -0.1926 0.5497 0.3976
H132 H -0.0865 0.5305 0.4163
C109 C -0.1108(4) 0.47097(18) 0.36366(18)
H133 H -0.1513 0.4741 0.3348
H134 H -0.1345 0.4406 0.3963
H135 H -0.0403 0.4578 0.3472
C110 C -0.1218(3) 0.62172(15) 0.29542(14)
C111 C -0.2310(3) 0.62551(17) 0.28987(16)
H136 H -0.2559 0.5861 0.3067
H137 H -0.2349 0.6341 0.2494
H138 H -0.2722 0.6588 0.3099
C112 C -0.0459(2) 0.65836(15) 0.25780(14)
C113 C -0.0599(3) 0.70182(15) 0.20927(14)
H139 H -0.1258 0.7083 0.2020
C114 C 0.0653(2) 0.84688(15) 0.29334(14)
C115 C 0.0297(2) 0.90548(15) 0.26050(14)
C116 C -0.0780(2) 0.92663(16) 0.25327(15)
H140 H -0.0894 0.9724 0.2460
H141 H -0.1247 0.9130 0.2890
C117 C -0.1003(3) 0.90016(19) 0.20350(17)
H142 H -0.0536 0.9131 0.1682
H143 H -0.1694 0.9156 0.1992
H144 H -0.0923 0.8549 0.2115
C118 C 0.1123(2) 0.93673(14) 0.23659(13)
C119 C 0.1052(3) 1.00321(16) 0.20546(16)
H145 H 0.1164 1.0025 0.1643
H146 H 0.1562 1.0244 0.2136
H147 H 0.0383 1.0252 0.2186
C120 C 0.2029(2) 0.89661(14) 0.25059(13)
C121 C 0.3070(2) 0.90407(14) 0.23033(13)
C122 C 0.3880(2) 0.86447(14) 0.25223(13)
C123 C 0.4983(2) 0.86516(15) 0.22975(14)
C124 C 0.5537(3) 0.89925(17) 0.17427(15)
H148 H 0.5629 0.9402 0.1807
H149 H 0.5142 0.9039 0.1447
H150 H 0.6194 0.8755 0.1619
C125 C 0.5452(2) 0.82440(15) 0.26824(14)
C126 C 0.6573(3) 0.81065(17) 0.26813(15)
H151 H 0.6955 0.8181 0.2284
H152 H 0.6739 0.7664 0.2827
C127 C 0.6905(3) 0.8504(2) 0.30472(18)
H153 H 0.6772 0.8942 0.2894
H154 H 0.7625 0.8392 0.3039
H155 H 0.6529 0.8433 0.3441
C128 C 0.4655(2) 0.79756(14) 0.31307(13)
C129 C 0.4859(2) 0.75622(15) 0.36221(14)
H156 H 0.5547 0.7467 0.3643
C130 C 0.4189(3) 0.72730(15) 0.40830(14)
C131 C 0.4428(3) 0.69148(16) 0.46195(15)
C132 C 0.5469(3) 0.67890(19) 0.47651(17)
H157 H 0.5401 0.6715 0.5181
H158 H 0.5826 0.7147 0.4607
H159 H 0.5847 0.6424 0.4601
C133 C 0.3536(3) 0.67315(16) 0.49594(14)
C134 C 0.3398(3) 0.63687(16) 0.55668(15)
H160 H 0.3786 0.6536 0.5788
H161 H 0.2680 0.6440 0.5754
C135 C 0.3723(4) 0.56775(19) 0.55920(19)
H162 H 0.3265 0.5494 0.5435
H163 H 0.3707 0.5491 0.5990
H164 H 0.4407 0.5601 0.5368
C136 C 0.2738(3) 0.69576(15) 0.46374(14)
C137 C 0.1721(3) 0.68587(16) 0.47849(15)
H165 H 0.1506 0.6625 0.5146
C138 C 0.0985(2) 0.70768(15) 0.44434(14)
C139 C -0.0082(3) 0.69667(15) 0.46098(15)
C140 C -0.0549(3) 0.65960(16) 0.51850(16)
H166 H -0.0281 0.6703 0.5495
H167 H -0.1286 0.6719 0.5266
C141 C -0.0330(3) 0.58974(18) 0.51828(18)
H168 H -0.0639 0.5784 0.4897
H169 H -0.0608 0.5686 0.5560
H170 H 0.0398 0.5774 0.5090
C142 C -0.0539(2) 0.72676(15) 0.41709(15)
C143 C -0.1627(3) 0.72985(18) 0.41201(17)
H171 H -0.1981 0.7039 0.4447
H172 H -0.1646 0.7149 0.3766
H173 H -0.1954 0.7727 0.4114
C144 C 0.0241(2) 0.75883(15) 0.37482(14)
C145 C 0.0034(2) 0.80474(15) 0.32950(14)
H174 H -0.0620 0.8079 0.3220
C146 C 0.2874(2) 0.83481(15) 0.05717(14)
C147 C 0.3201(3) 0.81683(16) 0.00198(15)
H175 H 0.3193 0.7753 -0.0028
C148 C 0.3537(3) 0.85949(17) -0.04583(15)
H176 H 0.3778 0.8463 -0.0822
C149 C 0.3516(2) 0.92143(16) -0.03961(14)
H177 H 0.3724 0.9501 -0.0723
C150 C 0.3189(2) 0.94222(15) 0.01453(13)
C151 C 0.3044(3) 1.01098(15) 0.02511(14)
C152 C 0.3357(2) 1.01038(14) 0.08326(14)
C153 C 0.3837(2) 1.05724(15) 0.09531(15)
H178 H 0.4025 1.0901 0.0661
C154 C 0.4037(2) 1.05567(15) 0.14995(15)
H179 H 0.4348 1.0877 0.1574
C155 C 0.3779(2) 1.00693(15) 0.19338(15)
H180 H 0.3913 1.0067 0.2300
C156 C 0.3322(2) 0.95788(14) 0.18352(13)
C157 C 0.3128(2) 0.96154(14) 0.12776(13)
C158 C 0.2913(2) 0.89735(15) 0.06188(13)
C159 C 0.2169(4) 0.9185(2) 0.8355(2)
H181 H 0.2486 0.8770 0.8495
H182 H 0.1909 0.9149 0.8017
Cl1 Cl 0.30698(11) 0.96746(6) 0.81526(6)
Cl2 Cl 0.11211(13) 0.94336(10) 0.89080(7)
C160 C 0.2863(5) 0.5884(2) 0.1559(3)
H183 H 0.3119 0.5939 0.1894
H184 H 0.2558 0.6296 0.1401
Cl3 Cl 0.39652(16) 0.55939(12) 0.09995(10)
Cl4 Cl 0.20014(13) 0.54414(8) 0.17721(7)
H2? H 0.7619 0.2022 0.2213
H4? H 0.6123 0.1448 0.2716
H5? H 0.7080 0.3230 0.3066
H7? H 0.7878 0.2449 0.3802
H10? H 0.2523 0.7106 0.2111
H12? H 0.0987 0.6579 0.2624
H13? H 0.2076 0.8147 0.3030
H15? H 0.2838 0.7471 0.3854
loop_
_geom_bond_atom_site_label_1
_geom_bond_atom_site_label_2
_geom_bond_site_symmetry_1
_geom_bond_site_symmetry_2
N1 H1 1_555 1_555
N2 C9 1_555 1_555
N3 H3 1_555 1_555
N4 C27 1_555 1_555
N5 C35 1_555 1_555
N6 H6 1_555 1_555
N7 C51 1_555 1_555
N8 H8 1_555 1_555
N9 H9 1_555 1_555
N10 C90 1_555 1_555
N11 H11 1_555 1_555
N12 C106 1_555 1_555
N13 C114 1_555 1_555
N14 H14 1_555 1_555
N15 C130 1_555 1_555
N16 H16 1_555 1_555
O1 C80 1_555 1_555
O2 C157 1_555 1_555
C1 N1 1_555 1_555
C2 C1 1_555 1_555
C3 C2 1_555 1_555
H17 C3 1_555 1_555
H18 C3 1_555 1_555
C4 C3 1_555 1_555
H19 C4 1_555 1_555
H20 C4 1_555 1_555
H21 C4 1_555 1_555
C5 C2 1_555 1_555
C6 C5 1_555 1_555
H22 C6 1_555 1_555
H23 C6 1_555 1_555
H24 C6 1_555 1_555
C7 N1 1_555 1_555
C8 C7 1_555 1_555
C9 C8 1_555 1_555
C10 C9 1_555 1_555
C11 C10 1_555 1_555
H25 C11 1_555 1_555
H26 C11 1_555 1_555
H27 C11 1_555 1_555
C12 C10 1_555 1_555
C13 C12 1_555 1_555
H28 C13 1_555 1_555
H29 C13 1_555 1_555
C14 C13 1_555 1_555
H30 C14 1_555 1_555
H31 C14 1_555 1_555
H32 C14 1_555 1_555
C15 N2 1_555 1_555
C16 C15 1_555 1_555
H33 C16 1_555 1_555
C17 H34 1_555 1_555
H35 C17 1_555 1_555
H36 C17 1_555 1_555
C18 H37 1_555 1_555
H38 C18 1_555 1_555
H39 C18 1_555 1_555
C19 N3 1_555 1_555
C20 C19 1_555 1_555
C21 C20 1_555 1_555
H40 C21 1_555 1_555
H41 C21 1_555 1_555
H42 C21 1_555 1_555
C22 C20 1_555 1_555
C23 C22 1_555 1_555
H43 C23 1_555 1_555
H44 C23 1_555 1_555
C24 C23 1_555 1_555
H45 C24 1_555 1_555
H46 C24 1_555 1_555
H47 C24 1_555 1_555
C25 N3 1_555 1_555
C26 C25 1_555 1_555
H48 C26 1_555 1_555
C27 C26 1_555 1_555
C28 C27 1_555 1_555
C29 C28 1_555 1_555
H49 C29 1_555 1_555
H50 C29 1_555 1_555
C30 C29 1_555 1_555
H51 C30 1_555 1_555
H52 C30 1_555 1_555
H53 C30 1_555 1_555
C31 C28 1_555 1_555
C32 C31 1_555 1_555
H54 C32 1_555 1_555
H55 C32 1_555 1_555
H56 C32 1_555 1_555
C33 N4 1_555 1_555
C34 C1 1_555 1_555
H57 C34 1_555 1_555
C35 C36 1_555 1_555
C36 C37 1_555 1_555
C37 H58 1_555 1_555
H59 C37 1_555 1_555
C38 C37 1_555 1_555
H60 C38 1_555 1_555
H61 C38 1_555 1_555
H62 C38 1_555 1_555
C39 C36 1_555 1_555
C40 C39 1_555 1_555
H63 C40 1_555 1_555
H64 C40 1_555 1_555
H65 C40 1_555 1_555
C41 N5 1_555 1_555
C42 C41 1_555 1_555
C43 N6 1_555 1_555
C44 C43 1_555 1_555
C45 C44 1_555 1_555
H66 C45 1_555 1_555
H67 C45 1_555 1_555
H68 C45 1_555 1_555
C46 C44 1_555 1_555
C47 C46 1_555 1_555
H69 C47 1_555 1_555
H70 C47 1_555 1_555
C48 C47 1_555 1_555
H71 C48 1_555 1_555
H72 C48 1_555 1_555
H73 C48 1_555 1_555
C49 N6 1_555 1_555
C50 C49 1_555 1_555
H74 C50 1_555 1_555
C51 C50 1_555 1_555
C52 C51 1_555 1_555
C53 C52 1_555 1_555
H75 C53 1_555 1_555
H76 C53 1_555 1_555
H77 C53 1_555 1_555
C54 C52 1_555 1_555
C55 C54 1_555 1_555
H78 C55 1_555 1_555
H79 C55 1_555 1_555
C56 C55 1_555 1_555
H80 C56 1_555 1_555
H81 C56 1_555 1_555
H82 C56 1_555 1_555
C57 N7 1_555 1_555
C58 C57 1_555 1_555
H83 C58 1_555 1_555
C59 N8 1_555 1_555
C60 C59 1_555 1_555
C61 C60 1_555 1_555
H84 C61 1_555 1_555
H85 C61 1_555 1_555
C62 C61 1_555 1_555
H86 C62 1_555 1_555
H87 C62 1_555 1_555
H88 C62 1_555 1_555
C63 C60 1_555 1_555
C64 C63 1_555 1_555
H89 C64 1_555 1_555
H90 C64 1_555 1_555
H91 C64 1_555 1_555
C65 N8 1_555 1_555
C66 C35 1_555 1_555
H92 C66 1_555 1_555
C67 C8 1_555 1_555
C68 C67 1_555 1_555
H93 C68 1_555 1_555
C69 C68 1_555 1_555
H94 C69 1_555 1_555
C70 C69 1_555 1_555
H95 C70 1_555 1_555
C71 C70 1_555 1_555
C72 C71 1_555 1_555
C73 C72 1_555 1_555
H96 C73 1_555 1_555
H97 C73 1_555 1_555
H98 C73 1_555 1_555
C74 C72 1_555 1_555
H99 C74 1_555 1_555
H100 C74 1_555 1_555
H101 C74 1_555 1_555
C75 C72 1_555 1_555
C76 C75 1_555 1_555
H102 C76 1_555 1_555
C77 C76 1_555 1_555
H103 C77 1_555 1_555
C78 C77 1_555 1_555
H104 C78 1_555 1_555
C79 C42 1_555 1_555
C80 C75 1_555 1_555
C81 O1 1_555 1_555
C82 N9 1_555 1_555
C83 C82 1_555 1_555
C84 C83 1_555 1_555
H105 C84 1_555 1_555
H106 C84 1_555 1_555
C85 C84 1_555 1_555
H107 C85 1_555 1_555
H108 C85 1_555 1_555
H109 C85 1_555 1_555
C86 C83 1_555 1_555
C87 C86 1_555 1_555
H110 C87 1_555 1_555
H111 C87 1_555 1_555
H112 C87 1_555 1_555
C88 N9 1_555 1_555
C89 C88 1_555 1_555
C90 C89 1_555 1_555
C91 C90 1_555 1_555
C92 C91 1_555 1_555
H113 C92 1_555 1_555
H114 C92 1_555 1_555
H115 C92 1_555 1_555
C93 C91 1_555 1_555
C94 C93 1_555 1_555
H116 C94 1_555 1_555
H117 C94 1_555 1_555
C95 C94 1_555 1_555
H118 C95 1_555 1_555
H119 C95 1_555 1_555
H120 C95 1_555 1_555
C96 N10 1_555 1_555
C97 C96 1_555 1_555
H121 C97 1_555 1_555
C98 N11 1_555 1_555
C99 C98 1_555 1_555
C100 C99 1_555 1_555
H122 C100 1_555 1_555
H123 C100 1_555 1_555
H124 C100 1_555 1_555
C101 C99 1_555 1_555
C102 C101 1_555 1_555
H125 C102 1_555 1_555
H126 C102 1_555 1_555
C103 C102 1_555 1_555
H127 C103 1_555 1_555
H128 C103 1_555 1_555
H129 C103 1_555 1_555
C104 N11 1_555 1_555
C105 C104 1_555 1_555
H130 C105 1_555 1_555
C106 C105 1_555 1_555
C107 C106 1_555 1_555
C108 C107 1_555 1_555
H131 C108 1_555 1_555
H132 C108 1_555 1_555
C109 C108 1_555 1_555
H133 C109 1_555 1_555
H134 C109 1_555 1_555
H135 C109 1_555 1_555
C110 C107 1_555 1_555
C111 C110 1_555 1_555
H136 C111 1_555 1_555
H137 C111 1_555 1_555
H138 C111 1_555 1_555
C112 N12 1_555 1_555
C113 C82 1_555 1_555
H139 C113 1_555 1_555
C114 C115 1_555 1_555
C115 C116 1_555 1_555
C116 H140 1_555 1_555
H141 C116 1_555 1_555
C117 C116 1_555 1_555
H142 C117 1_555 1_555
H143 C117 1_555 1_555
H144 C117 1_555 1_555
C118 C115 1_555 1_555
C119 C118 1_555 1_555
H145 C119 1_555 1_555
H146 C119 1_555 1_555
H147 C119 1_555 1_555
C120 N13 1_555 1_555
C121 C120 1_555 1_555
C122 N14 1_555 1_555
C123 C122 1_555 1_555
C124 C123 1_555 1_555
H148 C124 1_555 1_555
H149 C124 1_555 1_555
H150 C124 1_555 1_555
C125 C123 1_555 1_555
C126 C125 1_555 1_555
H151 C126 1_555 1_555
H152 C126 1_555 1_555
C127 C126 1_555 1_555
H153 C127 1_555 1_555
H154 C127 1_555 1_555
H155 C127 1_555 1_555
C128 N14 1_555 1_555
C129 C128 1_555 1_555
H156 C129 1_555 1_555
C130 C129 1_555 1_555
C131 C130 1_555 1_555
C132 C131 1_555 1_555
H157 C132 1_555 1_555
H158 C132 1_555 1_555
H159 C132 1_555 1_555
C133 C131 1_555 1_555
C134 C133 1_555 1_555
H160 C134 1_555 1_555
H161 C134 1_555 1_555
C135 C134 1_555 1_555
H162 C135 1_555 1_555
H163 C135 1_555 1_555
H164 C135 1_555 1_555
C136 N15 1_555 1_555
C137 C136 1_555 1_555
H165 C137 1_555 1_555
C138 N16 1_555 1_555
C139 C138 1_555 1_555
C140 C139 1_555 1_555
H166 C140 1_555 1_555
H167 C140 1_555 1_555
C141 C140 1_555 1_555
H168 C141 1_555 1_555
H169 C141 1_555 1_555
H170 C141 1_555 1_555
C142 C139 1_555 1_555
C143 C142 1_555 1_555
H171 C143 1_555 1_555
H172 C143 1_555 1_555
H173 C143 1_555 1_555
C144 N16 1_555 1_555
C145 C114 1_555 1_555
H174 C145 1_555 1_555
C146 C89 1_555 1_555
C147 C146 1_555 1_555
H175 C147 1_555 1_555
C148 C147 1_555 1_555
H176 C148 1_555 1_555
C149 C148 1_555 1_555
H177 C149 1_555 1_555
C150 C149 1_555 1_555
C151 C17 1_555 1_555
C152 C151 1_555 1_555
C153 C152 1_555 1_555
H178 C153 1_555 1_555
C154 C153 1_555 1_555
H179 C154 1_555 1_555
C155 C154 1_555 1_555
H180 C155 1_555 1_555
C156 C121 1_555 1_555
C157 C152 1_555 1_555
C158 O2 1_555 1_555
C159 H181 1_555 1_555
H182 C159 1_555 1_555
Cl1 C159 1_555 1_555
Cl2 C159 1_555 1_555
C160 H183 1_555 1_555
H184 C160 1_555 1_555
Cl3 C160 1_555 1_555
Cl4 C160 1_555 1_555
C5 C7 1_555 1_555
C12 C15 1_555 1_555
C16 C19 1_555 1_555
C18 C151 1_555 1_555
C22 C25 1_555 1_555
C31 C33 1_555 1_555
C33 C34 1_555 1_555
C39 C41 1_555 1_555
C42 C43 1_555 1_555
C46 C49 1_555 1_555
C54 C57 1_555 1_555
C58 C59 1_555 1_555
C63 C65 1_555 1_555
C65 C66 1_555 1_555
C67 C81 1_555 1_555
C71 C81 1_555 1_555
C78 C79 1_555 1_555
C79 C80 1_555 1_555
C86 C88 1_555 1_555
C93 C96 1_555 1_555
C97 C98 1_555 1_555
C101 C104 1_555 1_555
C110 C112 1_555 1_555
C112 C113 1_555 1_555
C118 C120 1_555 1_555
C121 C122 1_555 1_555
C125 C128 1_555 1_555
C133 C136 1_555 1_555
C137 C138 1_555 1_555
C142 C144 1_555 1_555
C144 C145 1_555 1_555
C146 C158 1_555 1_555
C150 C151 1_555 1_555
C150 C158 1_555 1_555
C155 C156 1_555 1_555
C156 C157 1_555 1_555

#END
