
#######################################################################
#
#                 Cambridge Crystallographic Data Centre
#                                CCDC 
#
#######################################################################
#
# If this CIF has been generated from an entry in the Cambridge 
# Structural Database, then it will include bibliographic, chemical, 
# crystal, experimental, refinement or atomic coordinate data resulting 
# from the CCDC's data processing and validation procedures.
#
#######################################################################

data_OFOTAH
_chemical_formula_moiety         'C18 H29 Cl1 O4,H2 O1'
_chemical_name_systematic        
'6-chloro-1-(dec-1-en-1-yl)-1,3,4,5,6,7-hexahydro-2-benzofuran-4,5,7-triol monohydrate'
_symmetry_cell_setting           monoclinic
_symmetry_space_group_name_H-M   'P 21'
_symmetry_Int_Tables_number      4
_space_group_name_Hall           'P 2yb'
loop_
_symmetry_equiv_pos_site_id
_symmetry_equiv_pos_as_xyz
1 x,y,z
2 -x,1/2+y,-z
_cell_length_a                   4.6368(6)
_cell_length_b                   7.8718(9)
_cell_length_c                   25.885(3)
_cell_angle_alpha                90
_cell_angle_beta                 93.657(2)
_cell_angle_gamma                90
_cell_volume                     942.878
_exptl_crystal_colour            colorless
_exptl_crystal_description       plate
_cell_formula_units_Z            2
loop_
_atom_site_label
_atom_site_type_symbol
_atom_site_fract_x
_atom_site_fract_y
_atom_site_fract_z
Cl1 Cl 0.86539(8) 0.83460(5) 0.91987(2)
O1 O 0.7777(3) 0.56409(16) 0.99866(4)
H1 H 0.917(5) 0.618(3) 1.0037(9)
O2 O 0.5063(3) 0.72026(16) 0.81921(5)
H2 H 0.636(6) 0.774(3) 0.8074(9)
O3 O 0.6999(3) 0.21287(15) 0.96452(5)
H3 H 0.567(5) 0.149(3) 0.9747(8)
O4 O 0.2073(3) 0.20092(17) 0.81543(4)
C1 C 0.5275(5) 0.4089(3) 0.32557(7)
H4 H 0.4031 0.3082 0.3231
H5 H 0.6463 0.4131 0.2956
H6 H 0.4073 0.5112 0.3262
C2 C 0.7238(4) 0.3998(3) 0.37537(7)
H7 H 0.8439 0.2959 0.3747
H8 H 0.8552 0.4990 0.3769
C3 C 0.5527(4) 0.3973(3) 0.42378(6)
H9 H 0.4247 0.2965 0.4224
H10 H 0.4283 0.4996 0.4238
C4 C 0.7437(4) 0.3928(3) 0.47438(7)
H11 H 0.8660 0.2897 0.4748
H12 H 0.8732 0.4929 0.4757
C5 C 0.5677(4) 0.3928(3) 0.52231(6)
H13 H 0.4437 0.2903 0.5215
H14 H 0.4392 0.4933 0.5209
C6 C 0.7520(4) 0.3953(3) 0.57348(6)
H15 H 0.8767 0.2932 0.5756
H16 H 0.8791 0.4965 0.5743
C7 C 0.5666(4) 0.3994(3) 0.62019(7)
H17 H 0.4473 0.2951 0.6200
H18 H 0.4334 0.4976 0.6166
C8 C 0.7399(4) 0.4123(3) 0.67246(7)
H19 H 0.8609 0.3095 0.6780
H20 H 0.8699 0.5121 0.6723
C9 C 0.5423(4) 0.4295(2) 0.71581(7)
H21 H 0.4070 0.5202 0.7133
C10 C 0.5373(3) 0.3308(3) 0.75737(6)
H22 H 0.6684 0.2382 0.7608
C11 C 0.3322(3) 0.3600(2) 0.79917(6)
H23 H 0.1741 0.4381 0.7859
C12 C 0.4738(3) 0.4314(2) 0.84857(6)
C13 C 0.6372(3) 0.59585(19) 0.85274(6)
H24 H 0.8402 0.5763 0.8432
C14 C 0.6404(3) 0.65118(19) 0.90950(6)
H25 H 0.4389 0.6806 0.9179
C15 C 0.7547(3) 0.50972(19) 0.94613(6)
H26 H 0.9491 0.4727 0.9358
C16 C 0.4389(3) 0.3268(2) 0.88815(6)
C17 C 0.5497(3) 0.35814(19) 0.94319(6)
H27 H 0.3819 0.3832 0.9644
C18 C 0.2671(4) 0.1741(2) 0.87023(6)
H28 H 0.3798 0.0686 0.8767
H29 H 0.0854 0.1663 0.8882
O5 O -0.0225(3) 0.87130(16) 0.78343(5)
H30 H 0.130(4) 0.825(3) 0.7942(9)
H31 H 0.011(5) 0.9732(16) 0.7871(10)
loop_
_geom_bond_atom_site_label_1
_geom_bond_atom_site_label_2
_geom_bond_site_symmetry_1
_geom_bond_site_symmetry_2
Cl1 C14 1_555 1_555
O1 H1 1_555 1_555
O2 H2 1_555 1_555
O3 H3 1_555 1_555
O4 C11 1_555 1_555
C1 H4 1_555 1_555
H5 C1 1_555 1_555
H6 C1 1_555 1_555
C2 C1 1_555 1_555
H7 C2 1_555 1_555
H8 C2 1_555 1_555
C3 C2 1_555 1_555
H9 C3 1_555 1_555
H10 C3 1_555 1_555
C4 C3 1_555 1_555
H11 C4 1_555 1_555
H12 C4 1_555 1_555
C5 C4 1_555 1_555
H13 C5 1_555 1_555
H14 C5 1_555 1_555
C6 C5 1_555 1_555
H15 C6 1_555 1_555
H16 C6 1_555 1_555
C7 C6 1_555 1_555
H17 C7 1_555 1_555
H18 C7 1_555 1_555
C8 C7 1_555 1_555
H19 C8 1_555 1_555
H20 C8 1_555 1_555
C9 C8 1_555 1_555
H21 C9 1_555 1_555
C10 C9 1_555 1_555
H22 C10 1_555 1_555
C11 C10 1_555 1_555
H23 C11 1_555 1_555
C12 C11 1_555 1_555
C13 O2 1_555 1_555
H24 C13 1_555 1_555
C14 C13 1_555 1_555
H25 C14 1_555 1_555
C15 O1 1_555 1_555
H26 C15 1_555 1_555
C16 C12 1_555 1_555
C17 O3 1_555 1_555
H27 C17 1_555 1_555
C18 O4 1_555 1_555
H28 C18 1_555 1_555
H29 C18 1_555 1_555
O5 H30 1_555 1_555
H31 O5 1_555 1_555
C12 C13 1_555 1_555
C14 C15 1_555 1_555
C15 C17 1_555 1_555
C16 C17 1_555 1_555
C16 C18 1_555 1_555

#END
