
#######################################################################
#
#                 Cambridge Crystallographic Data Centre
#                                CCDC 
#
#######################################################################
#
# If this CIF has been generated from an entry in the Cambridge 
# Structural Database, then it will include bibliographic, chemical, 
# crystal, experimental, refinement or atomic coordinate data resulting 
# from the CCDC's data processing and validation procedures.
#
#######################################################################

data_OFOVAJ
_chemical_formula_moiety         'C17 H23 F3 N1 O4 P1'
_chemical_name_systematic        
'diisopropyl {2-(acetylamino)-2-[4-(trifluoromethyl)phenyl]ethenyl}phosphonate'
_symmetry_cell_setting           monoclinic
_symmetry_space_group_name_H-M   'P 21/n'
_symmetry_Int_Tables_number      14
_space_group_name_Hall           '-P 2yn'
loop_
_symmetry_equiv_pos_site_id
_symmetry_equiv_pos_as_xyz
1 x,y,z
2 1/2-x,1/2+y,1/2-z
3 -x,-y,-z
4 1/2+x,1/2-y,1/2+z
_cell_length_a                   12.912(3)
_cell_length_b                   10.983(2)
_cell_length_c                   13.909(3)
_cell_angle_alpha                90
_cell_angle_beta                 99.70(3)
_cell_angle_gamma                90
_cell_volume                     1944.27
_exptl_crystal_colour            colorless
_exptl_crystal_description       block
_cell_formula_units_Z            4
loop_
_atom_site_label
_atom_site_type_symbol
_atom_site_fract_x
_atom_site_fract_y
_atom_site_fract_z
P1 P 0.26923(6) 0.25243(6) 0.22763(5)
F1 F 0.1507(6) 0.7863(4) 0.6603(4)
F2 F 0.0381(4) 0.6640(7) 0.7051(5)
F3 F 0.2002(5) 0.6559(5) 0.7743(3)
O1 O 0.19496(16) 0.2799(2) 0.12808(14)
O2 O 0.37207(15) 0.30589(19) 0.19794(14)
O3 O 0.27439(18) 0.12383(18) 0.25875(15)
O4 O 0.07730(18) 0.18526(19) 0.52023(17)
N1 N 0.21137(19) 0.1894(2) 0.43163(16)
H1 H 0.258948 0.145182 0.412444
C1 C 0.0846(2) 0.2451(3) 0.1136(2)
H2 H 0.063827 0.228476 0.176872
C2 C 0.0235(3) 0.3533(4) 0.0663(3)
H3 H 0.036824 0.422831 0.108391
H4 H -0.050222 0.334868 0.055605
H5 H 0.045157 0.370687 0.005050
C3 C 0.0709(3) 0.1324(3) 0.0522(3)
H6 H 0.099164 0.145822 -0.006523
H7 H -0.002452 0.113266 0.035866
H8 H 0.107344 0.065964 0.087877
C4 C 0.4666(2) 0.3221(3) 0.2707(2)
H9 H 0.447648 0.325358 0.335964
C5 C 0.5124(3) 0.4427(4) 0.2472(3)
H10 H 0.534478 0.437777 0.184711
H11 H 0.571804 0.461857 0.296263
H12 H 0.460230 0.505240 0.245557
C6 C 0.5393(3) 0.2162(5) 0.2645(3)
H13 H 0.504433 0.141762 0.276077
H14 H 0.601395 0.225488 0.312698
H15 H 0.558444 0.213873 0.200744
C7 C 0.2331(2) 0.3485(2) 0.31841(19)
H16 H 0.231610 0.431706 0.305869
C8 C 0.2076(2) 0.3126(2) 0.40427(19)
C9 C 0.1456(2) 0.1326(2) 0.4866(2)
C10 C 0.1688(3) -0.0011(3) 0.5036(2)
H17 H 0.215475 -0.011542 0.564458
H18 H 0.201323 -0.032551 0.451517
H19 H 0.104519 -0.044106 0.505470
C11 C 0.1864(2) 0.4038(2) 0.47715(18)
C12 C 0.1318(2) 0.5107(2) 0.44766(19)
H20 H 0.105540 0.523061 0.381925
C13 C 0.1162(2) 0.5986(3) 0.5152(2)
H21 H 0.079772 0.669725 0.495037
C14 C 0.1554(2) 0.5796(2) 0.6135(2)
C15 C 0.2102(2) 0.4745(3) 0.64358(19)
H22 H 0.236677 0.462453 0.709327
C16 C 0.2257(2) 0.3872(2) 0.5758(2)
H23 H 0.262812 0.316692 0.596282
C17 C 0.1360(2) 0.6719(3) 0.6866(2)
F4? F 0.0358(4) 0.7139(7) 0.6744(5)
F5? F 0.1930(6) 0.7757(5) 0.6800(5)
F6? F 0.1582(7) 0.6367(6) 0.7791(4)
loop_
_geom_bond_atom_site_label_1
_geom_bond_atom_site_label_2
_geom_bond_site_symmetry_1
_geom_bond_site_symmetry_2
P1 O1 1_555 1_555
F1 C17 1_555 1_555
F2 C17 1_555 1_555
F3 C17 1_555 1_555
O1 C1 1_555 1_555
O2 P1 1_555 1_555
O3 P1 1_555 1_555
O4 C9 1_555 1_555
N1 H1 1_555 1_555
C1 H2 1_555 1_555
C2 C1 1_555 1_555
H3 C2 1_555 1_555
H4 C2 1_555 1_555
H5 C2 1_555 1_555
C3 C1 1_555 1_555
H6 C3 1_555 1_555
H7 C3 1_555 1_555
H8 C3 1_555 1_555
C4 O2 1_555 1_555
H9 C4 1_555 1_555
C5 C4 1_555 1_555
H10 C5 1_555 1_555
H11 C5 1_555 1_555
H12 C5 1_555 1_555
C6 C4 1_555 1_555
H13 C6 1_555 1_555
H14 C6 1_555 1_555
H15 C6 1_555 1_555
C7 P1 1_555 1_555
H16 C7 1_555 1_555
C8 N1 1_555 1_555
C9 N1 1_555 1_555
C10 C9 1_555 1_555
H17 C10 1_555 1_555
H18 C10 1_555 1_555
H19 C10 1_555 1_555
C11 C8 1_555 1_555
C12 C11 1_555 1_555
H20 C12 1_555 1_555
C13 C12 1_555 1_555
H21 C13 1_555 1_555
C14 C13 1_555 1_555
C15 C14 1_555 1_555
H22 C15 1_555 1_555
C16 C11 1_555 1_555
H23 C16 1_555 1_555
C17 C14 1_555 1_555
C7 C8 1_555 1_555
C15 C16 1_555 1_555

#END
