
#######################################################################
#
#                 Cambridge Crystallographic Data Centre
#                                CCDC 
#
#######################################################################
#
# If this CIF has been generated from an entry in the Cambridge 
# Structural Database, then it will include bibliographic, chemical, 
# crystal, experimental, refinement or atomic coordinate data resulting 
# from the CCDC's data processing and validation procedures.
#
#######################################################################

data_OFOXEN
_chemical_formula_moiety         'C36 H34 N4 O6'
_chemical_name_systematic        
5,9,14,18-Tetrahydro-1,4,10,13-tetramethoxy-19,20-diphenyl-7H,16H-6,17:8,15-dimethanodibenzo[e,l][1,3,8,10]tetraazacyclotetradecine-7,16-dione
_symmetry_cell_setting           monoclinic
_symmetry_space_group_name_H-M   'C 2/c'
_symmetry_Int_Tables_number      15
_space_group_name_Hall           '-C 2yn'
loop_
_symmetry_equiv_pos_site_id
_symmetry_equiv_pos_as_xyz
1 x,y,z
2 1/2+x,1/2+y,z
3 -x,y,1/2-z
4 1/2-x,1/2+y,1/2-z
5 -x,-y,-z
6 1/2-x,1/2-y,-z
7 x,-y,1/2+z
8 1/2+x,1/2-y,1/2+z
_cell_length_a                   19.677(2)
_cell_length_b                   12.2903(15)
_cell_length_c                   13.9591(17)
_cell_angle_alpha                90
_cell_angle_beta                 116.232(2)
_cell_angle_gamma                90
_cell_volume                     3028.15
_exptl_crystal_colour            colorless
_exptl_crystal_description       block
_chemical_melting_point          'above 300 deg.C'
_cell_formula_units_Z            4
_exptl_crystal_recrystallization_method chloroform
loop_
_atom_site_label
_atom_site_type_symbol
_atom_site_fract_x
_atom_site_fract_y
_atom_site_fract_z
C1 C 0.25323(14) 1.03413(19) 0.3521(2)
H1 H 0.2132 1.0869 0.3305
H2 H 0.2727 1.0312 0.3000
H3 H 0.2931 1.0545 0.4201
C2 C 0.04867(16) 0.9451(2) 0.6504(2)
H4 H 0.0877 0.9879 0.7043
H5 H 0.0167 0.9143 0.6790
H6 H 0.0189 0.9905 0.5904
C3 C 0.18812(11) 0.92042(15) 0.42417(15)
C4 C 0.18588(12) 1.00155(16) 0.49114(17)
H7 H 0.2092 1.0680 0.4936
C5 C 0.14944(14) 0.98487(17) 0.55422(17)
H8 H 0.1475 1.0404 0.5983
C6 C 0.11563(13) 0.88572(16) 0.55228(15)
C7 C 0.11673(11) 0.80234(14) 0.48467(14)
C8 C 0.15303(10) 0.81983(14) 0.41960(14)
C9 C 0.15622(10) 0.73181(15) 0.34551(15)
H9 H 0.1820 0.7605 0.3056
H10 H 0.1861 0.6715 0.3883
C10 C 0.04762(11) 0.71814(13) 0.16516(14)
C11 C 0.03921(10) 0.61485(13) 0.30168(13)
C12 C 0.07631(10) 0.50331(14) 0.33050(14)
C13 C 0.11964(11) 0.46646(16) 0.28139(16)
H11 H 0.1305 0.5130 0.2375
C14 C 0.14681(14) 0.36096(18) 0.29708(19)
H12 H 0.1760 0.3368 0.2640
C15 C 0.13066(15) 0.29203(17) 0.3616(2)
H13 H 0.1482 0.2207 0.3712
C16 C 0.08872(14) 0.32783(16) 0.41184(18)
H14 H 0.0787 0.2811 0.4565
C17 C 0.06125(12) 0.43311(14) 0.39634(15)
H15 H 0.0326 0.4569 0.4303
C18 C 0.07980(12) 0.69433(14) 0.48524(14)
H16 H 0.1188 0.6387 0.5103
H17 H 0.0589 0.6988 0.5363
N1 N 0.08240(8) 0.69123(11) 0.27064(12)
N2 N 0.01950(9) 0.65941(11) 0.38226(11)
O1 O 0.22480(9) 0.93059(11) 0.36046(13)
O2 O 0.08186(12) 0.86133(13) 0.61740(13)
O3 O 0.07171(9) 0.77937(11) 0.11942(11)
C1B C -0.25323(14) 1.03413(19) 0.1479(2)
H1B H -0.2132 1.0869 0.1695
H2B H -0.2727 1.0312 0.2000
H3B H -0.2931 1.0545 0.0799
C2B C -0.04867(16) 0.9451(2) -0.1504(2)
H4B H -0.0877 0.9879 -0.2043
H5B H -0.0167 0.9143 -0.1790
H6B H -0.0189 0.9905 -0.0904
C3B C -0.18812(11) 0.92042(15) 0.07583(15)
C4B C -0.18588(12) 1.00155(16) 0.00886(17)
H7B H -0.2092 1.0680 0.0064
C5B C -0.14944(14) 0.98487(17) -0.05422(17)
H8B H -0.1475 1.0404 -0.0983
C6B C -0.11563(13) 0.88572(16) -0.05228(15)
C7B C -0.11673(11) 0.80234(14) 0.01533(14)
C8B C -0.15303(10) 0.81983(14) 0.08040(14)
C9B C -0.15622(10) 0.73181(15) 0.15449(15)
H9B H -0.1820 0.7605 0.1944
H10B H -0.1861 0.6715 0.1117
C10B C -0.04762(11) 0.71814(13) 0.33484(14)
C11B C -0.03921(10) 0.61485(13) 0.19832(13)
C12B C -0.07631(10) 0.50331(14) 0.16950(14)
C13B C -0.11964(11) 0.46646(16) 0.21861(16)
H11B H -0.1305 0.5130 0.2625
C14B C -0.14681(14) 0.36096(18) 0.20292(19)
H12B H -0.1760 0.3368 0.2360
C15B C -0.13066(15) 0.29203(17) 0.1384(2)
H13B H -0.1482 0.2207 0.1288
C16B C -0.08872(14) 0.32783(16) 0.08816(18)
H14B H -0.0787 0.2811 0.0435
C17B C -0.06125(12) 0.43311(14) 0.10366(15)
H15B H -0.0326 0.4569 0.0697
C18B C -0.07980(12) 0.69433(14) 0.01476(14)
H16B H -0.1188 0.6387 -0.0103
H17B H -0.0589 0.6988 -0.0363
N1B N -0.08240(8) 0.69123(11) 0.22936(12)
N2B N -0.01950(9) 0.65941(11) 0.11774(11)
O1B O -0.22480(9) 0.93059(11) 0.13954(13)
O2B O -0.08186(12) 0.86133(13) -0.11740(13)
O3B O -0.07171(9) 0.77937(11) 0.38058(11)
loop_
_geom_bond_atom_site_label_1
_geom_bond_atom_site_label_2
_geom_bond_site_symmetry_1
_geom_bond_site_symmetry_2
C1 H1 1_555 1_555
H2 C1 1_555 1_555
H3 C1 1_555 1_555
C2 H4 1_555 1_555
H5 C2 1_555 1_555
H6 C2 1_555 1_555
C3 C4 1_555 1_555
C4 H7 1_555 1_555
C5 C4 1_555 1_555
H8 C5 1_555 1_555
C6 C5 1_555 1_555
C7 C6 1_555 1_555
C8 C3 1_555 1_555
C9 C8 1_555 1_555
H9 C9 1_555 1_555
H10 C9 1_555 1_555
C10 N1 1_555 1_555
C11 C12 1_555 1_555
C12 C13 1_555 1_555
C13 H11 1_555 1_555
C14 C13 1_555 1_555
H12 C14 1_555 1_555
C15 C14 1_555 1_555
H13 C15 1_555 1_555
C16 C15 1_555 1_555
H14 C16 1_555 1_555
C17 C12 1_555 1_555
H15 C17 1_555 1_555
C18 C7 1_555 1_555
H16 C18 1_555 1_555
H17 C18 1_555 1_555
N1 C9 1_555 1_555
N2 C11 1_555 1_555
O1 C1 1_555 1_555
O2 C2 1_555 1_555
O3 C10 1_555 1_555
C1B H1B 1_555 1_555
H2B C1B 1_555 1_555
H3B C1B 1_555 1_555
C2B H4B 1_555 1_555
H5B C2B 1_555 1_555
H6B C2B 1_555 1_555
C3B C4B 1_555 1_555
C4B H7B 1_555 1_555
C5B C4B 1_555 1_555
H8B C5B 1_555 1_555
C6B C5B 1_555 1_555
C7B C6B 1_555 1_555
C8B C3B 1_555 1_555
C9B C8B 1_555 1_555
H9B C9B 1_555 1_555
H10B C9B 1_555 1_555
C10B N2 1_555 1_555
C11B C11 1_555 1_555
C12B C11B 1_555 1_555
C13B C12B 1_555 1_555
H11B C13B 1_555 1_555
C14B C13B 1_555 1_555
H12B C14B 1_555 1_555
C15B C14B 1_555 1_555
H13B C15B 1_555 1_555
C16B C15B 1_555 1_555
H14B C16B 1_555 1_555
C17B C12B 1_555 1_555
H15B C17B 1_555 1_555
C18B C7B 1_555 1_555
H16B C18B 1_555 1_555
H17B C18B 1_555 1_555
N1B C9B 1_555 1_555
N2B C10 1_555 1_555
O1B C1B 1_555 1_555
O2B C2B 1_555 1_555
O3B C10B 1_555 1_555
C3 O1 1_555 1_555
C6 O2 1_555 1_555
C7 C8 1_555 1_555
C11 N1 1_555 1_555
C16 C17 1_555 1_555
C18 N2 1_555 1_555
C3B O1B 1_555 1_555
C6B O2B 1_555 1_555
C7B C8B 1_555 1_555
C10B N1B 1_555 1_555
C11B N1B 1_555 1_555
C11B N2B 1_555 1_555
C16B C17B 1_555 1_555
C18B N2B 1_555 1_555

#END
