
#######################################################################
#
#                 Cambridge Crystallographic Data Centre
#                                CCDC 
#
#######################################################################
#
# If this CIF has been generated from an entry in the Cambridge 
# Structural Database, then it will include bibliographic, chemical, 
# crystal, experimental, refinement or atomic coordinate data resulting 
# from the CCDC's data processing and validation procedures.
#
#######################################################################

data_OFUBOG
_chemical_formula_moiety         'C20 H56 Br2 Mg2 N8 O2 P2'
_chemical_name_systematic        
bis(\m~2~-Diethylamido-N,N)-dibromo-bis(hexamethylphosphoramide-O)-di-magnesium
_symmetry_cell_setting           orthorhombic
_symmetry_space_group_name_H-M   'P b c n'
_symmetry_Int_Tables_number      60
_space_group_name_Hall           '-P 2n 2ab'
loop_
_symmetry_equiv_pos_site_id
_symmetry_equiv_pos_as_xyz
1 x,y,z
2 1/2-x,1/2+y,z
3 x,-y,1/2+z
4 1/2+x,1/2+y,1/2-z
5 -x,-y,-z
6 1/2+x,1/2-y,-z
7 -x,y,1/2-z
8 1/2-x,1/2-y,1/2+z
_cell_length_a                   10.272(3)
_cell_length_b                   16.6235(18)
_cell_length_c                   21.666(3)
_cell_angle_alpha                90
_cell_angle_beta                 90
_cell_angle_gamma                90
_cell_volume                     3699.61
_exptl_crystal_colour            colorless
_exptl_crystal_description       plate
_chemical_melting_point          'decomposes above 63 deg.C'
_cell_formula_units_Z            4
loop_
_atom_site_label
_atom_site_type_symbol
_atom_site_fract_x
_atom_site_fract_y
_atom_site_fract_z
Mg1 Mg 0.0011(3) 0.35778(24) 0.18327(16)
Br1 Br -0.18519(14) 0.36825(13) 0.11128(8)
P1 P 0.2664(3) 0.34354(23) 0.09092(16)
O1 O 0.1547(6) 0.3517(5) 0.1335(3)
N1 N 0.00000 0.4471(7) 0.25000
N2 N 0.00000 0.2686(8) 0.25000
N3 N 0.4000(10) 0.3800(9) 0.1172(6)
N4 N 0.2325(11) 0.3869(7) 0.0253(4)
N5 N 0.2967(10) 0.2506(7) 0.0777(5)
C1 C 0.1194(18) 0.4963(9) 0.2489(7)
C2 C 0.133(3) 0.5507(11) 0.1945(8)
C3 C 0.1191(17) 0.2202(8) 0.2522(7)
C4 C 0.133(3) 0.1648(11) 0.3060(8)
C5 C 0.4429(16) 0.3588(24) 0.1753(9)
C6 C 0.4555(18) 0.4526(12) 0.0950(15)
C7 C 0.1464(15) 0.4498(8) 0.0180(6)
C8 C 0.2962(23) 0.3662(14) -0.0312(8)
C9 C 0.1934(17) 0.1948(9) 0.0675(7)
C10 C 0.4234(18) 0.2165(12) 0.0621(10)
H1 H 0.141 0.521 0.289
H2 H 0.201 0.455 0.247
H3 H 0.203 0.582 0.193
H4 H 0.113 0.522 0.158
H5 H 0.053 0.588 0.200
H6 H 0.129 0.190 0.213
H7 H 0.194 0.257 0.253
H8 H 0.207 0.132 0.307
H9 H 0.121 0.191 0.345
H10 H 0.056 0.124 0.305
H11 H 0.521 0.372 0.189
H12 H 0.377 0.352 0.206
H13 H 0.459 0.291 0.168
H14 H 0.534 0.470 0.108
H15 H 0.479 0.440 0.045
H16 H 0.397 0.497 0.086
H17 H 0.141 0.470 -0.024
H18 H 0.059 0.437 0.031
H19 H 0.169 0.498 0.043
H20 H 0.257 0.394 -0.067
H21 H 0.379 0.361 -0.033
H22 H 0.258 0.306 -0.042
H23 H 0.227 0.140 0.057
H24 H 0.133 0.190 0.098
H25 H 0.146 0.209 0.028
H26 H 0.426 0.159 0.054
H27 H 0.461 0.241 0.024
H28 H 0.489 0.227 0.093
Mg1F Mg -0.0011(3) 0.35778(24) 0.31673(16)
Br1F Br 0.18519(14) 0.36825(13) 0.38872(8)
O1F O -0.1547(6) 0.3517(5) 0.3665(3)
P1F P -0.2664(3) 0.34354(23) 0.40908(16)
N3F N -0.4000(10) 0.3800(9) 0.3828(6)
C5F C -0.4429(16) 0.3588(24) 0.3247(9)
H11F H -0.521 0.372 0.311
H12F H -0.377 0.352 0.294
H13F H -0.459 0.291 0.332
C6F C -0.4555(18) 0.4526(12) 0.4050(15)
H14F H -0.534 0.470 0.392
H15F H -0.479 0.440 0.455
H16F H -0.397 0.497 0.414
N4F N -0.2325(11) 0.3869(7) 0.4747(4)
C7F C -0.1464(15) 0.4498(8) 0.4820(6)
H17F H -0.141 0.470 0.524
H18F H -0.059 0.437 0.469
H19F H -0.169 0.498 0.457
C8F C -0.2962(23) 0.3662(14) 0.5312(8)
H20F H -0.257 0.394 0.567
H21F H -0.379 0.361 0.533
H22F H -0.258 0.306 0.542
N5F N -0.2967(10) 0.2506(7) 0.4223(5)
C9F C -0.1934(17) 0.1948(9) 0.4325(7)
H23F H -0.227 0.140 0.443
H24F H -0.133 0.190 0.402
H25F H -0.146 0.209 0.472
C10F C -0.4234(18) 0.2165(12) 0.4379(10)
H26F H -0.426 0.159 0.446
H27F H -0.461 0.241 0.476
H28F H -0.489 0.227 0.407
C3F C -0.1191(17) 0.2202(8) 0.2478(7)
C4F C -0.133(3) 0.1648(11) 0.1940(8)
H8F H -0.207 0.132 0.193
H9F H -0.121 0.191 0.155
H10F H -0.056 0.124 0.195
H6F H -0.129 0.190 0.287
H7F H -0.194 0.257 0.247
C1F C -0.1194(18) 0.4963(9) 0.2511(7)
C2F C -0.133(3) 0.5507(11) 0.3055(8)
H3F H -0.203 0.582 0.307
H4F H -0.113 0.522 0.342
H5F H -0.053 0.588 0.300
H1F H -0.141 0.521 0.211
H2F H -0.201 0.455 0.253
loop_
_geom_bond_atom_site_label_1
_geom_bond_atom_site_label_2
_geom_bond_site_symmetry_1
_geom_bond_site_symmetry_2
Mg1 Br1 1_555 1_555
P1 O1 1_555 1_555
O1 Mg1 1_555 1_555
N1 Mg1 1_555 1_555
N2 Mg1 1_555 1_555
N3 P1 1_555 1_555
N4 P1 1_555 1_555
N5 P1 1_555 1_555
C1 N1 1_555 1_555
C2 C1 1_555 1_555
C3 N2 1_555 1_555
C4 C3 1_555 1_555
C5 N3 1_555 1_555
C6 N3 1_555 1_555
C7 N4 1_555 1_555
C8 N4 1_555 1_555
C9 N5 1_555 1_555
C10 N5 1_555 1_555
H1 C1 1_555 1_555
H2 C1 1_555 1_555
H3 C2 1_555 1_555
H4 C2 1_555 1_555
H5 C2 1_555 1_555
H6 C3 1_555 1_555
H7 C3 1_555 1_555
H8 C4 1_555 1_555
H9 C4 1_555 1_555
H10 C4 1_555 1_555
H11 C5 1_555 1_555
H12 C5 1_555 1_555
H13 C5 1_555 1_555
H14 C6 1_555 1_555
H15 C6 1_555 1_555
H16 C6 1_555 1_555
H17 C7 1_555 1_555
H18 C7 1_555 1_555
H19 C7 1_555 1_555
H20 C8 1_555 1_555
H21 C8 1_555 1_555
H22 C8 1_555 1_555
H23 C9 1_555 1_555
H24 C9 1_555 1_555
H25 C9 1_555 1_555
H26 C10 1_555 1_555
H27 C10 1_555 1_555
H28 C10 1_555 1_555
Mg1F N1 1_555 1_555
Br1F Mg1F 1_555 1_555
O1F Mg1F 1_555 1_555
P1F O1F 1_555 1_555
N3F P1F 1_555 1_555
C5F N3F 1_555 1_555
H11F C5F 1_555 1_555
H12F C5F 1_555 1_555
H13F C5F 1_555 1_555
C6F N3F 1_555 1_555
H14F C6F 1_555 1_555
H15F C6F 1_555 1_555
H16F C6F 1_555 1_555
N4F P1F 1_555 1_555
C7F N4F 1_555 1_555
H17F C7F 1_555 1_555
H18F C7F 1_555 1_555
H19F C7F 1_555 1_555
C8F N4F 1_555 1_555
H20F C8F 1_555 1_555
H21F C8F 1_555 1_555
H22F C8F 1_555 1_555
N5F P1F 1_555 1_555
C9F N5F 1_555 1_555
H23F C9F 1_555 1_555
H24F C9F 1_555 1_555
H25F C9F 1_555 1_555
C10F N5F 1_555 1_555
H26F C10F 1_555 1_555
H27F C10F 1_555 1_555
H28F C10F 1_555 1_555
C3F N2 1_555 1_555
C4F C3F 1_555 1_555
H8F C4F 1_555 1_555
H9F C4F 1_555 1_555
H10F C4F 1_555 1_555
H6F C3F 1_555 1_555
H7F C3F 1_555 1_555
C1F N1 1_555 1_555
C2F C1F 1_555 1_555
H3F C2F 1_555 1_555
H4F C2F 1_555 1_555
H5F C2F 1_555 1_555
H1F C1F 1_555 1_555
H2F C1F 1_555 1_555
N2 Mg1F 1_555 1_555

#END
