
#######################################################################
#
#                 Cambridge Crystallographic Data Centre
#                                CCDC 
#
#######################################################################
#
# If this CIF has been generated from an entry in the Cambridge 
# Structural Database, then it will include bibliographic, chemical, 
# crystal, experimental, refinement or atomic coordinate data resulting 
# from the CCDC's data processing and validation procedures.
#
#######################################################################

data_OFUBAV
_chemical_name_common            'peniroquesine C'
_chemical_formula_moiety         'C25 H40 O2'
_chemical_name_systematic        
8a-(hydroxymethyl)-1,6,6,10a,11b-pentamethyl-2,3,3a,4,5,5a,5b,5c,6,7,8,8a,9,10,10a,11b-hexadecahydro-1H-dicyclopenta[a,g]fluoren-10-ol
_symmetry_cell_setting           monoclinic
_symmetry_space_group_name_H-M   'P 21'
_symmetry_Int_Tables_number      4
_space_group_name_Hall           'P 2yb'
loop_
_symmetry_equiv_pos_site_id
_symmetry_equiv_pos_as_xyz
1 x,y,z
2 -x,1/2+y,-z
_cell_length_a                   12.1713(3)
_cell_length_b                   7.0138(2)
_cell_length_c                   13.6888(3)
_cell_angle_alpha                90
_cell_angle_beta                 110.0380(10)
_cell_angle_gamma                90
_cell_volume                     1097.83
_exptl_crystal_colour            colorless
_exptl_crystal_description       prism
_cell_formula_units_Z            2
_exptl_crystal_recrystallization_method chloroform
loop_
_atom_site_label
_atom_site_type_symbol
_atom_site_fract_x
_atom_site_fract_y
_atom_site_fract_z
O1 O 0.42016(11) 0.63755(18) 0.05921(9)
H1 H 0.428(2) 0.522(4) 0.0629(17)
O2 O 0.45747(11) 1.25629(17) 0.06079(10)
H2 H 0.494(2) 1.225(4) 0.0225(18)
C1 C 0.80985(16) 0.8363(3) 0.22917(15)
H3 H 0.8711 0.9321 0.2578
H4 H 0.7402 0.8976 0.1806
H5 H 0.8381 0.7385 0.1925
C2 C 0.77913(14) 0.7442(3) 0.31715(13)
H6 H 0.7184 0.6446 0.2860
C3 C 0.73056(14) 0.8815(3) 0.38232(13)
C4 C 0.60677(14) 0.9423(2) 0.32197(12)
C5 C 0.50755(13) 0.8018(2) 0.30452(12)
H7 H 0.5113 0.7039 0.2526
C6 C 0.39631(13) 0.9256(2) 0.25681(12)
H8 H 0.3733 0.9694 0.3166
C7 C 0.28975(13) 0.8131(2) 0.18394(12)
H9 H 0.3128 0.6759 0.1961
C8 C 0.25553(14) 0.8419(2) 0.06307(12)
C9 C 0.29689(16) 0.6714(3) 0.01431(13)
H10 H 0.2545 0.5557 0.0230
H11 H 0.2766 0.6944 -0.0612
C10 C 0.29781(15) 1.0314(2) 0.03275(13)
H12 H 0.2920 1.0248 -0.0411
H13 H 0.2452 1.1346 0.0392
C11 C 0.42299(14) 1.0825(2) 0.09853(13)
H14 H 0.4757 0.9775 0.0921
C12 C 0.43867(14) 1.1074(2) 0.21417(12)
C13 C 0.17370(14) 0.8293(3) 0.20796(13)
C14 C 0.18077(15) 0.7135(3) 0.30443(14)
H15 H 0.2423 0.7661 0.3651
H16 H 0.1991 0.5804 0.2944
H17 H 0.1055 0.7197 0.3157
C15 C 0.08617(14) 0.7421(3) 0.10889(13)
H18 H 0.0937 0.6015 0.1092
H19 H 0.0049 0.7755 0.1021
C16 C 0.11944(15) 0.8301(3) 0.02079(13)
H20 H 0.0847 0.9587 0.0032
H21 H 0.0919 0.7492 -0.0422
C17 C 0.13794(15) 1.0345(3) 0.22182(15)
H22 H 0.0625 1.0336 0.2328
H23 H 0.1311 1.1087 0.1593
H24 H 0.1974 1.0922 0.2822
C18 C 0.51708(14) 0.7030(2) 0.40673(13)
H25 H 0.5064 0.7976 0.4564
H26 H 0.4549 0.6055 0.3939
C19 C 0.63702(14) 0.6083(3) 0.45315(13)
H27 H 0.6462 0.5118 0.4038
H28 H 0.6414 0.5417 0.5181
C20 C 0.73767(14) 0.7535(3) 0.47690(13)
H29 H 0.7385 0.8353 0.5370
C21 C 0.56834(14) 1.1078(2) 0.27616(13)
H30 H 0.6172 1.2157 0.2817
C22 C 0.81003(16) 1.0558(3) 0.41938(15)
H31 H 0.8095 1.1317 0.3591
H32 H 0.8900 1.0134 0.4576
H33 H 0.7814 1.1336 0.4651
C23 C 0.88333(16) 0.6466(3) 0.39983(14)
H34 H 0.9568 0.7160 0.4081
H35 H 0.8917 0.5135 0.3793
C24 C 0.85677(15) 0.6506(3) 0.50257(14)
H36 H 0.9187 0.7207 0.5570
H37 H 0.8521 0.5194 0.5275
C25 C 0.38169(15) 1.2914(2) 0.23336(13)
H38 H 0.3855 1.2956 0.3060
H39 H 0.2998 1.2950 0.1875
H40 H 0.4233 1.4014 0.2189
loop_
_geom_bond_atom_site_label_1
_geom_bond_atom_site_label_2
_geom_bond_site_symmetry_1
_geom_bond_site_symmetry_2
O1 H1 1_555 1_555
O2 H2 1_555 1_555
C1 H3 1_555 1_555
H4 C1 1_555 1_555
H5 C1 1_555 1_555
C2 C1 1_555 1_555
H6 C2 1_555 1_555
C3 C2 1_555 1_555
C4 C3 1_555 1_555
C5 C4 1_555 1_555
H7 C5 1_555 1_555
C6 C5 1_555 1_555
H8 C6 1_555 1_555
C7 C6 1_555 1_555
H9 C7 1_555 1_555
C8 C7 1_555 1_555
C9 O1 1_555 1_555
H10 C9 1_555 1_555
H11 C9 1_555 1_555
C10 C8 1_555 1_555
H12 C10 1_555 1_555
H13 C10 1_555 1_555
C11 O2 1_555 1_555
H14 C11 1_555 1_555
C12 C6 1_555 1_555
C13 C7 1_555 1_555
C14 C13 1_555 1_555
H15 C14 1_555 1_555
H16 C14 1_555 1_555
H17 C14 1_555 1_555
C15 C13 1_555 1_555
H18 C15 1_555 1_555
H19 C15 1_555 1_555
C16 C8 1_555 1_555
H20 C16 1_555 1_555
H21 C16 1_555 1_555
C17 C13 1_555 1_555
H22 C17 1_555 1_555
H23 C17 1_555 1_555
H24 C17 1_555 1_555
C18 C5 1_555 1_555
H25 C18 1_555 1_555
H26 C18 1_555 1_555
C19 C18 1_555 1_555
H27 C19 1_555 1_555
H28 C19 1_555 1_555
C20 C3 1_555 1_555
H29 C20 1_555 1_555
C21 C4 1_555 1_555
H30 C21 1_555 1_555
C22 C3 1_555 1_555
H31 C22 1_555 1_555
H32 C22 1_555 1_555
H33 C22 1_555 1_555
C23 C2 1_555 1_555
H34 C23 1_555 1_555
H35 C23 1_555 1_555
C24 C20 1_555 1_555
H36 C24 1_555 1_555
H37 C24 1_555 1_555
C25 C12 1_555 1_555
H38 C25 1_555 1_555
H39 C25 1_555 1_555
H40 C25 1_555 1_555
C8 C9 1_555 1_555
C10 C11 1_555 1_555
C11 C12 1_555 1_555
C12 C21 1_555 1_555
C15 C16 1_555 1_555
C19 C20 1_555 1_555
C23 C24 1_555 1_555

#END
