
#######################################################################
#
#                 Cambridge Crystallographic Data Centre
#                                CCDC 
#
#######################################################################
#
# If this CIF has been generated from an entry in the Cambridge 
# Structural Database, then it will include bibliographic, chemical, 
# crystal, experimental, refinement or atomic coordinate data resulting 
# from the CCDC's data processing and validation procedures.
#
#######################################################################

data_OFUBIA
_chemical_formula_moiety         'C24 H62 Mg2 N2 O4 Si4'
_chemical_name_systematic        
bis(\m~2~-Ethoxo-O,O)-bis(tetrahydrofuran)-bis(bis(trimethylsilyl)amido-N)-di-magnesium
_symmetry_cell_setting           monoclinic
_symmetry_space_group_name_H-M   'P 21/n'
_symmetry_Int_Tables_number      14
_space_group_name_Hall           '-P 2yn'
loop_
_symmetry_equiv_pos_site_id
_symmetry_equiv_pos_as_xyz
1 x,y,z
2 1/2+x,1/2-y,1/2+z
3 -x,-y,-z
4 1/2-x,1/2+y,1/2-z
_cell_length_a                   10.737(3)
_cell_length_b                   12.4791(19)
_cell_length_c                   14.3045(18)
_cell_angle_alpha                90
_cell_angle_beta                 94.79(3)
_cell_angle_gamma                90
_cell_volume                     1909.94
_exptl_crystal_colour            colorless
_exptl_crystal_description       block
_chemical_melting_point          '132-134 deg.C'
_cell_formula_units_Z            2
loop_
_atom_site_label
_atom_site_type_symbol
_atom_site_fract_x
_atom_site_fract_y
_atom_site_fract_z
Mg1 Mg 0.07348(10) 0.90494(9) 0.02890(7)
Si1 Si 0.33795(9) 0.89678(9) 0.14777(7)
Si2 Si 0.28745(10) 0.73722(9) -0.00586(7)
O1 O -0.00541(20) 1.02773(18) 0.08663(14)
O2 O -0.04237(21) 0.78378(19) 0.06507(17)
N1 N 0.24511(24) 0.84372(22) 0.05769(18)
C1 C -0.0231(4) 1.0418(4) 0.1819(3)
C2 C -0.1362(6) 1.0059(6) 0.2117(4)
C3 C -0.0122(4) 0.7071(4) 0.1384(3)
C4 C -0.1099(6) 0.6295(5) 0.1329(5)
C5 C -0.2070(6) 0.6657(5) 0.0695(5)
C6 C -0.1684(4) 0.7653(4) 0.0271(3)
C7 C 0.3018(4) 0.8433(4) 0.2636(3)
C8 C 0.3179(4) 1.0445(3) 0.1550(3)
C9 C 0.5095(4) 0.8754(4) 0.1408(4)
C10 C 0.3423(5) 0.6187(4) 0.0660(4)
C11 C 0.4142(5) 0.7658(5) -0.0838(3)
C12 C 0.1542(4) 0.6879(4) -0.0859(3)
H1 H 0.041 1.004 0.219
H2 H -0.013 1.115 0.199
H3 H -0.146 1.017 0.276
H4 H -0.204 1.044 0.176
H5 H -0.149 0.933 0.196
H6 H 0.070 0.678 0.136
H7 H -0.009 0.742 0.199
H8 H -0.137 0.610 0.192
H9 H -0.078 0.563 0.108
H10 H -0.235 0.615 0.024
H11 H -0.279 0.682 0.105
H12 H -0.221 0.825 0.039
H13 H -0.173 0.759 -0.040
H14 H 0.354 0.873 0.313
H15 H 0.217 0.858 0.275
H16 H 0.312 0.768 0.266
H17 H 0.370 1.074 0.205
H18 H 0.337 1.078 0.098
H19 H 0.233 1.062 0.164
H20 H 0.559 0.906 0.192
H21 H 0.531 0.801 0.141
H22 H 0.539 0.905 0.086
H23 H 0.365 0.561 0.028
H24 H 0.412 0.635 0.108
H25 H 0.278 0.593 0.103
H26 H 0.436 0.705 -0.118
H27 H 0.392 0.821 -0.128
H28 H 0.489 0.789 -0.049
H29 H 0.178 0.630 -0.124
H30 H 0.085 0.668 -0.053
H31 H 0.126 0.744 -0.128
Mg1B Mg -0.07348(10) 1.09506(9) -0.02890(7)
O1B O 0.00541(20) 0.97227(18) -0.08663(14)
C1B C 0.0231(4) 0.9582(4) -0.1819(3)
C2B C 0.1362(6) 0.9941(6) -0.2117(4)
H3B H 0.146 0.983 -0.276
H4B H 0.204 0.956 -0.176
H5B H 0.149 1.067 -0.196
H1B H -0.041 0.996 -0.219
H2B H 0.013 0.885 -0.199
O2B O 0.04237(21) 1.21622(19) -0.06507(17)
C3B C 0.0122(4) 1.2929(4) -0.1384(3)
C4B C 0.1099(6) 1.3705(5) -0.1329(5)
C5B C 0.2070(6) 1.3343(5) -0.0695(5)
C6B C 0.1684(4) 1.2347(4) -0.0271(3)
H12B H 0.221 1.175 -0.039
H13B H 0.173 1.241 0.040
H10B H 0.235 1.385 -0.024
H11B H 0.279 1.318 -0.105
H8B H 0.137 1.390 -0.192
H9B H 0.078 1.437 -0.108
H6B H -0.070 1.322 -0.136
H7B H 0.009 1.258 -0.199
N1B N -0.24511(24) 1.15628(22) -0.05769(18)
Si1B Si -0.33795(9) 1.10322(9) -0.14777(7)
C7B C -0.3018(4) 1.1567(4) -0.2636(3)
H14B H -0.354 1.127 -0.313
H15B H -0.217 1.142 -0.275
H16B H -0.312 1.232 -0.266
C8B C -0.3179(4) 0.9555(3) -0.1550(3)
H17B H -0.370 0.926 -0.205
H18B H -0.337 0.922 -0.098
H19B H -0.233 0.938 -0.164
C9B C -0.5095(4) 1.1246(4) -0.1408(4)
H20B H -0.559 1.094 -0.192
H21B H -0.531 1.199 -0.141
H22B H -0.539 1.095 -0.086
Si2B Si -0.28745(10) 1.26278(9) 0.00586(7)
C10B C -0.3423(5) 1.3813(4) -0.0660(4)
H23B H -0.365 1.439 -0.028
H24B H -0.412 1.365 -0.108
H25B H -0.278 1.407 -0.103
C11B C -0.4142(5) 1.2342(5) 0.0838(3)
H26B H -0.436 1.295 0.118
H27B H -0.392 1.179 0.128
H28B H -0.489 1.211 0.049
C12B C -0.1542(4) 1.3121(4) 0.0859(3)
H29B H -0.178 1.370 0.124
H30B H -0.085 1.332 0.053
H31B H -0.126 1.256 0.128
loop_
_geom_bond_atom_site_label_1
_geom_bond_atom_site_label_2
_geom_bond_site_symmetry_1
_geom_bond_site_symmetry_2
Mg1 O1 1_555 1_555
Si1 N1 1_555 1_555
Si2 N1 1_555 1_555
O1 C1 1_555 1_555
O2 Mg1 1_555 1_555
N1 Mg1 1_555 1_555
C1 C2 1_555 1_555
C2 H3 1_555 1_555
C3 O2 1_555 1_555
C4 C3 1_555 1_555
C5 C4 1_555 1_555
C6 O2 1_555 1_555
C7 Si1 1_555 1_555
C8 Si1 1_555 1_555
C9 Si1 1_555 1_555
C10 Si2 1_555 1_555
C11 Si2 1_555 1_555
C12 Si2 1_555 1_555
H1 C1 1_555 1_555
H2 C1 1_555 1_555
H4 C2 1_555 1_555
H5 C2 1_555 1_555
H6 C3 1_555 1_555
H7 C3 1_555 1_555
H8 C4 1_555 1_555
H9 C4 1_555 1_555
H10 C5 1_555 1_555
H11 C5 1_555 1_555
H12 C6 1_555 1_555
H13 C6 1_555 1_555
H14 C7 1_555 1_555
H15 C7 1_555 1_555
H16 C7 1_555 1_555
H17 C8 1_555 1_555
H18 C8 1_555 1_555
H19 C8 1_555 1_555
H20 C9 1_555 1_555
H21 C9 1_555 1_555
H22 C9 1_555 1_555
H23 C10 1_555 1_555
H24 C10 1_555 1_555
H25 C10 1_555 1_555
H26 C11 1_555 1_555
H27 C11 1_555 1_555
H28 C11 1_555 1_555
H29 C12 1_555 1_555
H30 C12 1_555 1_555
H31 C12 1_555 1_555
Mg1B O1 1_555 1_555
O1B Mg1 1_555 1_555
C1B O1B 1_555 1_555
C2B C1B 1_555 1_555
H3B C2B 1_555 1_555
H4B C2B 1_555 1_555
H5B C2B 1_555 1_555
H1B C1B 1_555 1_555
H2B C1B 1_555 1_555
O2B Mg1B 1_555 1_555
C3B O2B 1_555 1_555
C4B C3B 1_555 1_555
C5B C4B 1_555 1_555
C6B O2B 1_555 1_555
H12B C6B 1_555 1_555
H13B C6B 1_555 1_555
H10B C5B 1_555 1_555
H11B C5B 1_555 1_555
H8B C4B 1_555 1_555
H9B C4B 1_555 1_555
H6B C3B 1_555 1_555
H7B C3B 1_555 1_555
N1B Mg1B 1_555 1_555
Si1B N1B 1_555 1_555
C7B Si1B 1_555 1_555
H14B C7B 1_555 1_555
H15B C7B 1_555 1_555
H16B C7B 1_555 1_555
C8B Si1B 1_555 1_555
H17B C8B 1_555 1_555
H18B C8B 1_555 1_555
H19B C8B 1_555 1_555
C9B Si1B 1_555 1_555
H20B C9B 1_555 1_555
H21B C9B 1_555 1_555
H22B C9B 1_555 1_555
Si2B N1B 1_555 1_555
C10B Si2B 1_555 1_555
H23B C10B 1_555 1_555
H24B C10B 1_555 1_555
H25B C10B 1_555 1_555
C11B Si2B 1_555 1_555
H26B C11B 1_555 1_555
H27B C11B 1_555 1_555
H28B C11B 1_555 1_555
C12B Si2B 1_555 1_555
H29B C12B 1_555 1_555
H30B C12B 1_555 1_555
H31B C12B 1_555 1_555
C5 C6 1_555 1_555
Mg1B O1B 1_555 1_555
C5B C6B 1_555 1_555

#END
