
#######################################################################
#
#                 Cambridge Crystallographic Data Centre
#                                CCDC 
#
#######################################################################
#
# If this CIF has been generated from an entry in the Cambridge 
# Structural Database, then it will include bibliographic, chemical, 
# crystal, experimental, refinement or atomic coordinate data resulting 
# from the CCDC's data processing and validation procedures.
#
#######################################################################

data_OFUCEX
_chemical_formula_moiety         'C44 H80 Mg3 N2 O2'
_chemical_name_systematic        
bis(\m~2~-Di-isopropylamido-N,N)-bis(\m~2~-\h^2^-2-t-butylethynyl)-bis(2-t-butylethynyl)-bis(tetrahydrofuran)-tri-magnesium
_symmetry_cell_setting           triclinic
_symmetry_space_group_name_H-M   'P -1'
_symmetry_Int_Tables_number      2
_space_group_name_Hall           '-P 1'
loop_
_symmetry_equiv_pos_site_id
_symmetry_equiv_pos_as_xyz
1 x,y,z
2 -x,-y,-z
_cell_length_a                   12.1898(2)
_cell_length_b                   13.2651(2)
_cell_length_c                   16.1646(2)
_cell_angle_alpha                80.096(1)
_cell_angle_beta                 77.953(1)
_cell_angle_gamma                74.469(1)
_cell_volume                     2444.12
_exptl_crystal_colour            colorless
_exptl_crystal_description       block
_cell_formula_units_Z            2
loop_
_atom_site_label
_atom_site_type_symbol
_atom_site_fract_x
_atom_site_fract_y
_atom_site_fract_z
Mg1 Mg 0.03237(7) 0.18998(6) 0.29768(5)
Mg2 Mg 0.13561(6) 0.37851(6) 0.24781(5)
Mg3 Mg 0.34871(6) 0.46146(6) 0.18708(5)
O1 O 0.16493(15) 0.08087(15) 0.34700(13)
O2 O 0.45895(15) 0.35398(15) 0.11086(12)
N1 N 0.0016(2) 0.3360(2) 0.34507(12)
N2 N 0.1722(2) 0.52075(15) 0.17306(12)
C1 C 0.1358(2) 0.2513(2) 0.1760(2)
C2 C 0.1237(2) 0.1850(2) 0.13693(15)
C3 C 0.1102(3) 0.1091(2) 0.0838(2)
C4 C -0.0174(3) 0.1350(3) 0.0709(2)
H1 H -0.0265(3) 0.0852(3) 0.0360(2)
H2 H -0.0386(3) 0.2070(3) 0.0420(2)
H3 H -0.0677(3) 0.1292(3) 0.1264(2)
C5 C 0.1875(4) 0.1205(3) -0.0027(2)
H4 H 0.1793(4) 0.0710(3) -0.0382(2)
H5 H 0.2682(4) 0.1052(3) 0.0052(2)
H6 H 0.1649(4) 0.1928(3) -0.0306(2)
C6 C 0.1413(3) -0.0032(2) 0.1287(2)
H7 H 0.1322(3) -0.0526(2) 0.0935(2)
H8 H 0.0901(3) -0.0086(2) 0.1839(2)
H9 H 0.2217(3) -0.0205(2) 0.1377(2)
C7 C -0.0896(2) 0.0998(2) 0.3117(2)
C8 C -0.1469(2) 0.0384(2) 0.31016(15)
C9 C -0.2146(2) -0.0377(2) 0.3047(2)
C10 C -0.2948(4) 0.0063(3) 0.2401(3)
H10 H -0.3382(4) -0.0452(3) 0.2378(3)
H11 H -0.2492(4) 0.0210(3) 0.1838(3)
H12 H -0.3488(4) 0.0717(3) 0.2570(3)
C11 C -0.2867(4) -0.0637(3) 0.3923(2)
H13 H -0.3309(4) -0.1138(3) 0.3879(2)
H14 H -0.3401(4) 0.0012(3) 0.4109(2)
H15 H -0.2351(4) -0.0949(3) 0.4339(2)
C12 C -0.1324(4) -0.1427(3) 0.2778(3)
H16 H -0.1781(4) -0.1920(3) 0.2745(3)
H17 H -0.0816(4) -0.1736(3) 0.3200(3)
H18 H -0.0854(4) -0.1288(3) 0.2219(3)
C16 C 0.3014(2) 0.3406(2) 0.29406(15)
C17 C 0.3775(2) 0.3378(2) 0.33345(15)
C18 C 0.4643(3) 0.3311(3) 0.3875(2)
C19 C 0.4597(3) 0.2372(3) 0.4570(2)
H28 H 0.5166(3) 0.2316(3) 0.4934(2)
H29 H 0.4773(3) 0.1723(3) 0.4305(2)
H30 H 0.3822(3) 0.2477(3) 0.4916(2)
C20 C 0.5850(3) 0.3164(4) 0.3323(3)
H31 H 0.6423(3) 0.3120(4) 0.3681(3)
H32 H 0.5862(3) 0.3766(4) 0.2877(3)
H33 H 0.6034(3) 0.2514(4) 0.3059(3)
C21 C 0.4341(5) 0.4320(4) 0.4285(3)
H34 H 0.4910(5) 0.4283(4) 0.4644(3)
H35 H 0.3570(5) 0.4406(4) 0.4636(3)
H36 H 0.4347(5) 0.4923(4) 0.3839(3)
C22 C 0.4500(2) 0.5669(2) 0.1851(2)
C23 C 0.4961(2) 0.6335(2) 0.1951(2)
C24 C 0.5483(3) 0.7161(2) 0.2110(2)
C25 C 0.4781(4) 0.8250(3) 0.1802(3)
H37 H 0.5127(4) 0.8793(3) 0.1907(3)
H38 H 0.3985(4) 0.8355(3) 0.2110(3)
H39 H 0.4782(4) 0.8300(3) 0.1190(3)
C26 C 0.5450(3) 0.7088(2) 0.3072(2)
H40 H 0.5793(3) 0.7630(2) 0.3184(2)
H41 H 0.5891(3) 0.6390(2) 0.3279(2)
H42 H 0.4647(3) 0.7199(2) 0.3368(2)
C27 C 0.6726(3) 0.6989(3) 0.1642(2)
H43 H 0.7070(3) 0.7534(3) 0.1747(2)
H44 H 0.6738(3) 0.7031(3) 0.1029(2)
H45 H 0.7170(3) 0.6293(3) 0.1849(2)
C28 C -0.0182(5) 0.3432(4) 0.4389(3)
H46 H -0.0775(5) 0.4093(4) 0.4524(3)
C30 C 0.0889(3) 0.3390(4) 0.4715(2)
H48 H 0.1214(3) 0.3984(4) 0.4425(2)
H49 H 0.1455(3) 0.2726(4) 0.4606(2)
H50 H 0.0701(3) 0.3432(4) 0.5330(2)
C31 C -0.0612(5) 0.2438(4) 0.4905(2)
H54 H -0.1322(5) 0.2406(4) 0.4727(2)
H55 H -0.0768(5) 0.2499(4) 0.5517(2)
H56 H -0.0014(5) 0.1793(4) 0.4792(2)
C32 C -0.1174(2) 0.3961(3) 0.3346(3)
H60 H -0.1765(2) 0.3719(3) 0.3811(3)
C33 C -0.1386(5) 0.5294(4) 0.3221(5)
H62 H -0.1266(5) 0.5516(4) 0.3736(5)
H63 H -0.2177(5) 0.5625(4) 0.3123(5)
H64 H -0.0837(5) 0.5510(4) 0.2731(5)
C35 C -0.1420(3) 0.3924(2) 0.2481(2)
H68 H -0.1347(3) 0.3191(2) 0.2402(2)
H69 H -0.0867(3) 0.4222(2) 0.2041(2)
H70 H -0.2207(3) 0.4337(2) 0.2433(2)
C36 C 0.1200(3) 0.6142(2) 0.2208(2)
H74 H 0.0343(3) 0.6295(2) 0.2246(2)
C37 C 0.1450(3) 0.5908(2) 0.3111(2)
H75 H 0.1210(3) 0.5267(2) 0.3392(2)
H76 H 0.1022(3) 0.6501(2) 0.3427(2)
H77 H 0.2280(3) 0.5805(2) 0.3096(2)
C38 C 0.1586(4) 0.7156(2) 0.1779(2)
H78 H 0.1431(4) 0.7319(2) 0.1194(2)
H79 H 0.2416(4) 0.7048(2) 0.1771(2)
H80 H 0.1157(4) 0.7743(2) 0.2102(2)
C39 C 0.1524(2) 0.5483(2) 0.0829(2)
H81 H 0.1845(2) 0.6110(2) 0.0583(2)
C40 C 0.0243(3) 0.5792(3) 0.0752(2)
H82 H -0.0165(3) 0.6360(3) 0.1100(2)
H83 H -0.0089(3) 0.5180(3) 0.0951(2)
H84 H 0.0165(3) 0.6035(3) 0.0155(2)
C41 C 0.2164(2) 0.4606(2) 0.0294(2)
H85 H 0.2983(2) 0.4412(2) 0.0347(2)
H86 H 0.2089(2) 0.4847(2) -0.0304(2)
H87 H 0.1835(2) 0.3991(2) 0.0493(2)
C42 C 0.2889(2) 0.0679(2) 0.3164(2)
H88 H 0.3111(2) 0.1352(2) 0.3127(2)
H89 H 0.3111(2) 0.0431(2) 0.2595(2)
C43 C 0.3458(2) -0.0132(2) 0.3813(2)
H90 H 0.3578(2) 0.0201(2) 0.4279(2)
H91 H 0.4211(2) -0.0552(2) 0.3548(2)
C44 C 0.2591(3) -0.0810(3) 0.4137(3)
H92 H 0.2710(3) -0.1362(3) 0.3763(3)
H93 H 0.2660(3) -0.1153(3) 0.4724(3)
C45 C 0.1457(3) -0.0066(3) 0.4115(3)
H94 H 0.0910(3) -0.0410(3) 0.3965(3)
H95 H 0.1133(3) 0.0186(3) 0.4678(3)
C46 C 0.5711(2) 0.3636(2) 0.0634(2)
H96 H 0.6060(2) 0.4042(2) 0.0922(2)
H97 H 0.5648(2) 0.3991(2) 0.0049(2)
C47 C 0.6413(3) 0.2527(3) 0.0618(3)
H98 H 0.6950(3) 0.2444(3) 0.0069(3)
H99 H 0.6867(3) 0.2315(3) 0.1087(3)
C48 C 0.5548(4) 0.1883(3) 0.0726(3)
H100 H 0.5484(4) 0.1718(3) 0.0166(3)
H101 H 0.5782(4) 0.1213(3) 0.1095(3)
C49 C 0.4509(3) 0.2475(3) 0.1097(4)
H102 H 0.4294(3) 0.2150(3) 0.1688(4)
H103 H 0.3898(3) 0.2488(3) 0.0774(4)
C13? C -0.3442(12) 0.0092(12) 0.3371(9)
H19? H -0.3708(12) 0.0757(12) 0.3018(9)
H20? H -0.3548(12) 0.0222(12) 0.3964(9)
H21? H -0.3892(12) -0.0407(12) 0.3335(9)
C14? C -0.1687(11) -0.1361(10) 0.3536(9)
H22? H -0.2120(11) -0.1877(10) 0.3510(9)
H23? H -0.1760(11) -0.1248(10) 0.4131(9)
H24? H -0.0871(11) -0.1626(10) 0.3300(9)
C15? C -0.1973(11) -0.0461(10) 0.2081(8)
H25? H -0.2300(11) 0.0227(10) 0.1781(8)
H26? H -0.2364(11) -0.0981(10) 0.1994(8)
H27? H -0.1145(11) -0.0682(10) 0.1856(8)
C29? C 0.0493(5) 0.2855(5) 0.4314(3)
H47? H 0.1123(5) 0.2215(5) 0.4182(3)
H51? H 0.0459(3) 0.3415(4) 0.5284(2)
H52? H 0.1688(3) 0.3066(4) 0.4738(2)
H53? H 0.0815(3) 0.4093(4) 0.4424(2)
H57? H -0.0770(5) 0.2668(4) 0.5459(2)
H58? H -0.1278(5) 0.2720(4) 0.4634(2)
H59? H -0.0435(5) 0.1681(4) 0.4964(2)
H61? H -0.1615(2) 0.3492(3) 0.3692(3)
C34? C -0.1486(6) 0.4821(7) 0.3882(7)
H65? H -0.1179(6) 0.4564(7) 0.4414(7)
H66? H -0.2329(6) 0.5064(7) 0.4012(7)
H67? H -0.1157(6) 0.5406(7) 0.3577(7)
H71? H -0.1102(3) 0.3226(2) 0.2322(2)
H72? H -0.2240(3) 0.4112(2) 0.2490(2)
H73? H -0.1071(3) 0.4415(2) 0.2074(2)
loop_
_geom_bond_atom_site_label_1
_geom_bond_atom_site_label_2
_geom_bond_site_symmetry_1
_geom_bond_site_symmetry_2
Mg1 O1 1_555 1_555
Mg2 N1 1_555 1_555
Mg3 O2 1_555 1_555
O1 C42 1_555 1_555
O2 C46 1_555 1_555
N1 Mg1 1_555 1_555
N2 Mg2 1_555 1_555
C1 Mg1 1_555 1_555
C2 Mg1 1_555 1_555
C3 C2 1_555 1_555
C4 C3 1_555 1_555
H1 C4 1_555 1_555
H2 C4 1_555 1_555
H3 C4 1_555 1_555
C5 C3 1_555 1_555
H4 C5 1_555 1_555
H5 C5 1_555 1_555
H6 C5 1_555 1_555
C6 C3 1_555 1_555
H7 C6 1_555 1_555
H8 C6 1_555 1_555
H9 C6 1_555 1_555
C7 Mg1 1_555 1_555
C8 C7 1_555 1_555
C9 C8 1_555 1_555
C10 C9 1_555 1_555
H10 C10 1_555 1_555
H11 C10 1_555 1_555
H12 C10 1_555 1_555
C11 C9 1_555 1_555
H13 C11 1_555 1_555
H14 C11 1_555 1_555
H15 C11 1_555 1_555
C12 C9 1_555 1_555
H16 C12 1_555 1_555
H17 C12 1_555 1_555
H18 C12 1_555 1_555
C16 Mg2 1_555 1_555
C17 Mg3 1_555 1_555
C18 C17 1_555 1_555
C19 C18 1_555 1_555
H28 C19 1_555 1_555
H29 C19 1_555 1_555
H30 C19 1_555 1_555
C20 C18 1_555 1_555
H31 C20 1_555 1_555
H32 C20 1_555 1_555
H33 C20 1_555 1_555
C21 C18 1_555 1_555
H34 C21 1_555 1_555
H35 C21 1_555 1_555
H36 C21 1_555 1_555
C22 Mg3 1_555 1_555
C23 C22 1_555 1_555
C24 C23 1_555 1_555
C25 C24 1_555 1_555
H37 C25 1_555 1_555
H38 C25 1_555 1_555
H39 C25 1_555 1_555
C26 C24 1_555 1_555
H40 C26 1_555 1_555
H41 C26 1_555 1_555
H42 C26 1_555 1_555
C27 C24 1_555 1_555
H43 C27 1_555 1_555
H44 C27 1_555 1_555
H45 C27 1_555 1_555
C28 N1 1_555 1_555
H46 C28 1_555 1_555
C30 C28 1_555 1_555
H48 C30 1_555 1_555
H49 C30 1_555 1_555
H50 C30 1_555 1_555
C31 C28 1_555 1_555
H54 C31 1_555 1_555
H55 C31 1_555 1_555
H56 C31 1_555 1_555
C32 N1 1_555 1_555
H60 C32 1_555 1_555
C33 C32 1_555 1_555
H62 C33 1_555 1_555
H63 C33 1_555 1_555
H64 C33 1_555 1_555
C35 C32 1_555 1_555
H68 C35 1_555 1_555
H69 C35 1_555 1_555
H70 C35 1_555 1_555
C36 N2 1_555 1_555
H74 C36 1_555 1_555
C37 C36 1_555 1_555
H75 C37 1_555 1_555
H76 C37 1_555 1_555
H77 C37 1_555 1_555
C38 C36 1_555 1_555
H78 C38 1_555 1_555
H79 C38 1_555 1_555
H80 C38 1_555 1_555
C39 N2 1_555 1_555
H81 C39 1_555 1_555
C40 C39 1_555 1_555
H82 C40 1_555 1_555
H83 C40 1_555 1_555
H84 C40 1_555 1_555
C41 C39 1_555 1_555
H85 C41 1_555 1_555
H86 C41 1_555 1_555
H87 C41 1_555 1_555
C42 H88 1_555 1_555
H89 C42 1_555 1_555
C43 C42 1_555 1_555
H90 C43 1_555 1_555
H91 C43 1_555 1_555
C44 C43 1_555 1_555
H92 C44 1_555 1_555
H93 C44 1_555 1_555
C45 O1 1_555 1_555
H94 C45 1_555 1_555
H95 C45 1_555 1_555
C46 H96 1_555 1_555
H97 C46 1_555 1_555
C47 C46 1_555 1_555
H98 C47 1_555 1_555
H99 C47 1_555 1_555
C48 C47 1_555 1_555
H100 C48 1_555 1_555
H101 C48 1_555 1_555
C49 O2 1_555 1_555
H102 C49 1_555 1_555
H103 C49 1_555 1_555
Mg2 C1 1_555 1_555
Mg3 N2 1_555 1_555
Mg3 C16 1_555 1_555
C1 C2 1_555 1_555
C16 C17 1_555 1_555
C44 C45 1_555 1_555
C48 C49 1_555 1_555

#END
