
#######################################################################
#
#                 Cambridge Crystallographic Data Centre
#                                CCDC 
#
#######################################################################
#
# If this CIF has been generated from an entry in the Cambridge 
# Structural Database, then it will include bibliographic, chemical, 
# crystal, experimental, refinement or atomic coordinate data resulting 
# from the CCDC's data processing and validation procedures.
#
#######################################################################

data_OFULOT
_chemical_formula_moiety         'C14 H15 N1 O3'
_chemical_name_systematic        
(R)-3-((S)-2-oxocyclohexyl)-3,4-dihydro-2H-1,4-benzoxazin-2-one
_symmetry_cell_setting           monoclinic
_symmetry_space_group_name_H-M   'P 21'
_symmetry_Int_Tables_number      4
_space_group_name_Hall           'P 2yb'
loop_
_symmetry_equiv_pos_site_id
_symmetry_equiv_pos_as_xyz
1 x,y,z
2 -x,1/2+y,-z
_cell_length_a                   5.73690(10)
_cell_length_b                   10.4261(2)
_cell_length_c                   10.2824(2)
_cell_angle_alpha                90
_cell_angle_beta                 104.0100(10)
_cell_angle_gamma                90
_cell_volume                     596.731
_exptl_crystal_colour            silver
_exptl_crystal_description       block
_cell_formula_units_Z            2
_exptl_crystal_recrystallization_method 
'Re-crystallisation from solvent: Ethyl acetate/ Hexanes'
loop_
_atom_site_label
_atom_site_type_symbol
_atom_site_fract_x
_atom_site_fract_y
_atom_site_fract_z
O1 O 0.2291(3) 0.09559(17) 0.95084(16)
O2 O 0.1682(3) 0.19328(17) 0.65821(15)
O3 O 0.1028(3) 0.3439(2) 0.79308(19)
N1 N 0.6383(3) 0.1580(3) 0.81389(18)
H1 H 0.7743 0.1388 0.8669
C1 C 0.3576(3) 0.1624(2) 1.03499(18)
C2 C 0.3689(3) 0.1503(3) 1.1821(2)
H2 H 0.2898 0.0716 1.1976
H3 H 0.2830 0.2214 1.2096
C3 C 0.6279(4) 0.1494(3) 1.2674(2)
H4 H 0.6269 0.1528 1.3615
H5 H 0.7057 0.0702 1.2519
C4 C 0.7685(4) 0.2623(2) 1.2337(2)
H6 H 0.9327 0.2581 1.2873
H7 H 0.6979 0.3415 1.2557
C5 C 0.7685(3) 0.2625(2) 1.08566(19)
H8 H 0.8470 0.1855 1.0648
H9 H 0.8587 0.3359 1.0666
C6 C 0.5112(3) 0.26824(19) 0.99704(19)
H10 H 0.4419 0.3502 1.0154
C7 C 0.5035(3) 0.2655(2) 0.84656(19)
H11 H 0.5813 0.3439 0.8259
C8 C 0.5546(3) 0.0860(2) 0.70043(17)
C9 C 0.6959(4) -0.0073(2) 0.65985(19)
H12 H 0.8548 -0.0180 0.7071
C10 C 0.6019(4) -0.0844(3) 0.5496(2)
H13 H 0.6982 -0.1464 0.5239
C11 C 0.3664(5) -0.0697(3) 0.4777(2)
H14 H 0.3035 -0.1223 0.4046
C12 C 0.2250(4) 0.0241(2) 0.51561(19)
H15 H 0.0669 0.0354 0.4673
C13 C 0.3190(3) 0.1001(2) 0.62462(17)
C14 C 0.2434(4) 0.2695(2) 0.7666(2)
loop_
_geom_bond_atom_site_label_1
_geom_bond_atom_site_label_2
_geom_bond_site_symmetry_1
_geom_bond_site_symmetry_2
O1 C1 1_555 1_555
O2 C13 1_555 1_555
O3 C14 1_555 1_555
N1 H1 1_555 1_555
C1 C2 1_555 1_555
C2 H2 1_555 1_555
H3 C2 1_555 1_555
C3 C2 1_555 1_555
H4 C3 1_555 1_555
H5 C3 1_555 1_555
C4 C3 1_555 1_555
H6 C4 1_555 1_555
H7 C4 1_555 1_555
C5 C4 1_555 1_555
H8 C5 1_555 1_555
H9 C5 1_555 1_555
C6 C1 1_555 1_555
H10 C6 1_555 1_555
C7 N1 1_555 1_555
H11 C7 1_555 1_555
C8 N1 1_555 1_555
C9 C8 1_555 1_555
H12 C9 1_555 1_555
C10 C9 1_555 1_555
H13 C10 1_555 1_555
C11 C10 1_555 1_555
H14 C11 1_555 1_555
C12 C11 1_555 1_555
H15 C12 1_555 1_555
C13 C8 1_555 1_555
C14 O2 1_555 1_555
C5 C6 1_555 1_555
C6 C7 1_555 1_555
C7 C14 1_555 1_555
C12 C13 1_555 1_555

#END
