
#######################################################################
#
#                 Cambridge Crystallographic Data Centre
#                                CCDC 
#
#######################################################################
#
# If this CIF has been generated from an entry in the Cambridge 
# Structural Database, then it will include bibliographic, chemical, 
# crystal, experimental, refinement or atomic coordinate data resulting 
# from the CCDC's data processing and validation procedures.
#
#######################################################################

data_OFUPEN
_chemical_formula_moiety         'C66 H74 S2'
_chemical_name_systematic        
4,9-bis[bis(4-hexylphenyl)methylidene]-4,9-dihydro-s-indaceno[1,2-b:5,6-b']bisthiophene
_symmetry_cell_setting           triclinic
_symmetry_space_group_name_H-M   'P -1'
_symmetry_Int_Tables_number      2
_space_group_name_Hall           '-P 1'
loop_
_symmetry_equiv_pos_site_id
_symmetry_equiv_pos_as_xyz
1 x,y,z
2 -x,-y,-z
_cell_length_a                   8.9555(9)
_cell_length_b                   11.3673(11)
_cell_length_c                   13.8592(14)
_cell_angle_alpha                99.556(2)
_cell_angle_beta                 93.199(2)
_cell_angle_gamma                101.959(2)
_cell_volume                     1355.13
_exptl_crystal_colour            colorless
_exptl_crystal_description       block
_cell_formula_units_Z            1
loop_
_atom_site_label
_atom_site_type_symbol
_atom_site_fract_x
_atom_site_fract_y
_atom_site_fract_z
S1 S 0.67036(10) 0.19811(8) -0.15978(7)
C1 C 0.7973(3) 0.2770(3) -0.0641(2)
C2 C 0.9216(3) 0.4886(3) -0.0939(2)
H1 H 0.8697 0.4799 -0.1555
C3 C 0.9093(4) 0.1336(3) 0.1923(2)
C4 C 0.9505(3) 0.2612(3) 0.1788(2)
C5 C 1.0282(4) 0.3500(3) 0.2648(2)
C6 C 0.8943(3) 0.3983(2) -0.0395(2)
C7 C 0.9174(3) 0.2906(3) 0.0898(2)
C8 C 0.8112(3) 0.2126(3) 0.0088(2)
C9 C 0.6327(4) 0.0773(3) -0.1005(3)
H2 H 0.5626 0.0049 -0.1269
C10 C 1.1459(5) 0.3282(3) 0.3225(3)
H3 H 1.1753 0.2539 0.3077
C11 C 0.9698(3) 0.4057(3) 0.0535(2)
C12 C 0.9840(4) 0.4575(3) 0.2941(3)
H4 H 0.9021 0.4742 0.2587
C13 C 1.0571(5) 0.5417(3) 0.3746(3)
H5 H 1.0226 0.6132 0.3927
C14 C 0.7122(4) 0.0947(3) -0.0128(3)
H6 H 0.7037 0.0374 0.0284
C15 C 0.9735(4) 0.0465(3) 0.1419(3)
H7 H 1.0431 0.0676 0.0969
C16 C 1.1792(5) 0.5223(3) 0.4282(3)
C17 C 1.6262(5) 0.8756(4) 0.5314(3)
H8 H 1.5980 0.9075 0.4739
H9 H 1.6992 0.8255 0.5130
C18 C 0.8359(6) -0.1067(3) 0.2209(3)
C19 C 1.7036(5) 0.9805(4) 0.6096(3)
H10 H 1.6297 1.0295 0.6287
H11 H 1.7329 0.9482 0.6666
C20 C 1.2206(5) 0.4131(4) 0.4008(3)
H12 H 1.3021 0.3963 0.4366
C21 C 1.4040(5) 0.6959(3) 0.4788(3)
H13 H 1.3713 0.7310 0.4242
H14 H 1.4739 0.6451 0.4554
C22 C 0.8092(5) 0.0989(3) 0.2566(3)
H15 H 0.7659 0.1570 0.2935
C23 C 1.2685(5) 0.6178(4) 0.5096(3)
H16 H 1.2017 0.6692 0.5371
H17 H 1.3018 0.5781 0.5611
C24 C 1.8412(6) 1.0618(5) 0.5835(4)
H18 H 1.8820 1.1259 0.6386
H19 H 1.9171 1.0153 0.5665
H20 H 1.8136 1.0968 0.5285
C25 C 1.4889(5) 0.7975(3) 0.5582(3)
H21 H 1.4189 0.8488 0.5805
H22 H 1.5186 0.7620 0.6133
C26 C 0.9369(5) -0.0728(3) 0.1566(3)
H23 H 0.9826 -0.1308 0.1217
C27 C 0.7700(6) -0.0203(4) 0.2687(3)
H24 H 0.6963 -0.0423 0.3110
C28 C 0.7952(8) -0.2346(4) 0.2402(5)
H25 H 0.8892 -0.2638 0.2452
H26 H 0.7550 -0.2313 0.3039
C29 C 0.6261(8) -0.4394(5) 0.2047(6)
H27 H 0.7110 -0.4711 0.2286
H28 H 0.5671 -0.4221 0.2599
C30 C 0.6915(7) -0.3207(5) 0.1735(6)
H29 H 0.7412 -0.3386 0.1140
H30 H 0.6070 -0.2842 0.1567
C31 C 0.5307(11) -0.5345(7) 0.1332(7)
H31 H 0.5842 -0.5472 0.0747
H32 H 0.4382 -0.5084 0.1150
C32 C 0.3822(12) -0.7382(8) 0.0968(7)
H33 H 0.3551 -0.8138 0.1205
H34 H 0.2917 -0.7078 0.0855
H35 H 0.4289 -0.7517 0.0364
C33 C 0.4878(10) -0.6508(6) 0.1682(7)
H36 H 0.5788 -0.6818 0.1803
H37 H 0.4413 -0.6377 0.2295
S1A S 1.32964(10) 0.80189(8) 0.15978(7)
C1A C 1.2027(3) 0.7230(3) 0.0641(2)
C2A C 1.0784(3) 0.5114(3) 0.0939(2)
H1A H 1.1303 0.5201 0.1555
C3A C 1.0907(4) 0.8664(3) -0.1923(2)
C4A C 1.0495(3) 0.7388(3) -0.1788(2)
C5A C 0.9718(4) 0.6500(3) -0.2648(2)
C6A C 1.1057(3) 0.6017(2) 0.0395(2)
C7A C 1.0826(3) 0.7094(3) -0.0898(2)
C8A C 1.1888(3) 0.7874(3) -0.0088(2)
C9A C 1.3673(4) 0.9227(3) 0.1005(3)
H2A H 1.4374 0.9951 0.1269
C10A C 0.8541(5) 0.6718(3) -0.3225(3)
H3A H 0.8247 0.7461 -0.3077
C11A C 1.0302(3) 0.5943(3) -0.0535(2)
C12A C 1.0160(4) 0.5425(3) -0.2941(3)
H4A H 1.0979 0.5258 -0.2587
C13A C 0.9429(5) 0.4583(3) -0.3746(3)
H5A H 0.9774 0.3868 -0.3927
C14A C 1.2878(4) 0.9053(3) 0.0128(3)
H6A H 1.2963 0.9626 -0.0284
C15A C 1.0265(4) 0.9535(3) -0.1419(3)
H7A H 0.9569 0.9324 -0.0969
C16A C 0.8208(5) 0.4777(3) -0.4282(3)
C17A C 0.3738(5) 0.1244(4) -0.5314(3)
H8A H 0.4020 0.0925 -0.4739
H9A H 0.3008 0.1745 -0.5130
C18A C 1.1641(6) 1.1067(3) -0.2209(3)
C19A C 0.2964(5) 0.0195(4) -0.6096(3)
H10A H 0.3703 -0.0295 -0.6287
H11A H 0.2671 0.0518 -0.6666
C20A C 0.7794(5) 0.5869(4) -0.4008(3)
H12A H 0.6979 0.6037 -0.4366
C21A C 0.5960(5) 0.3041(3) -0.4788(3)
H13A H 0.6287 0.2690 -0.4242
H14A H 0.5261 0.3549 -0.4554
C22A C 1.1908(5) 0.9011(3) -0.2566(3)
H15A H 1.2341 0.8430 -0.2935
C23A C 0.7315(5) 0.3822(4) -0.5096(3)
H16A H 0.7983 0.3308 -0.5371
H17A H 0.6982 0.4219 -0.5611
C24A C 0.1588(6) -0.0618(5) -0.5835(4)
H18A H 0.1180 -0.1259 -0.6386
H19A H 0.0829 -0.0153 -0.5665
H20A H 0.1864 -0.0968 -0.5285
C25A C 0.5111(5) 0.2025(3) -0.5582(3)
H21A H 0.5811 0.1512 -0.5805
H22A H 0.4814 0.2380 -0.6133
C26A C 1.0631(5) 1.0728(3) -0.1566(3)
H23A H 1.0174 1.1308 -0.1217
C27A C 1.2300(6) 1.0203(4) -0.2687(3)
H24A H 1.3037 1.0423 -0.3110
C28A C 1.2048(8) 1.2346(4) -0.2402(5)
H25A H 1.1108 1.2638 -0.2452
H26A H 1.2450 1.2313 -0.3039
C29A C 1.3739(8) 1.4394(5) -0.2047(6)
H27A H 1.2890 1.4711 -0.2286
H28A H 1.4329 1.4221 -0.2599
C30A C 1.3085(7) 1.3207(5) -0.1735(6)
H29A H 1.2588 1.3386 -0.1140
H30A H 1.3930 1.2842 -0.1567
C31A C 1.4693(11) 1.5345(7) -0.1332(7)
H31A H 1.4158 1.5472 -0.0747
H32A H 1.5618 1.5084 -0.1150
C32A C 1.6178(12) 1.7382(8) -0.0968(7)
H33A H 1.6449 1.8138 -0.1205
H34A H 1.7083 1.7078 -0.0855
H35A H 1.5711 1.7517 -0.0364
C33A C 1.5122(10) 1.6508(6) -0.1682(7)
H36A H 1.4212 1.6818 -0.1803
H37A H 1.5587 1.6377 -0.2295
loop_
_geom_bond_atom_site_label_1
_geom_bond_atom_site_label_2
_geom_bond_site_symmetry_1
_geom_bond_site_symmetry_2
S1 C1 1_555 1_555
C1 C6 1_555 1_555
C2 H1 1_555 1_555
C3 C4 1_555 1_555
C4 C5 1_555 1_555
C5 C10 1_555 1_555
C6 C2 1_555 1_555
C7 C4 1_555 1_555
C8 C1 1_555 1_555
C9 S1 1_555 1_555
H2 C9 1_555 1_555
C10 H3 1_555 1_555
C11 C6 1_555 1_555
C12 C5 1_555 1_555
H4 C12 1_555 1_555
C13 C12 1_555 1_555
H5 C13 1_555 1_555
C14 C8 1_555 1_555
H6 C14 1_555 1_555
C15 C3 1_555 1_555
H7 C15 1_555 1_555
C16 C13 1_555 1_555
C17 H8 1_555 1_555
H9 C17 1_555 1_555
C18 C26 1_555 1_555
C19 C17 1_555 1_555
H10 C19 1_555 1_555
H11 C19 1_555 1_555
C20 C10 1_555 1_555
H12 C20 1_555 1_555
C21 H13 1_555 1_555
H14 C21 1_555 1_555
C22 C3 1_555 1_555
H15 C22 1_555 1_555
C23 C16 1_555 1_555
H16 C23 1_555 1_555
H17 C23 1_555 1_555
C24 C19 1_555 1_555
H18 C24 1_555 1_555
H19 C24 1_555 1_555
H20 C24 1_555 1_555
C25 C17 1_555 1_555
H21 C25 1_555 1_555
H22 C25 1_555 1_555
C26 C15 1_555 1_555
H23 C26 1_555 1_555
C27 C18 1_555 1_555
H24 C27 1_555 1_555
C28 C18 1_555 1_555
H25 C28 1_555 1_555
H26 C28 1_555 1_555
C29 H27 1_555 1_555
H28 C29 1_555 1_555
C30 C28 1_555 1_555
H29 C30 1_555 1_555
H30 C30 1_555 1_555
C31 C29 1_555 1_555
H31 C31 1_555 1_555
H32 C31 1_555 1_555
C32 H33 1_555 1_555
H34 C32 1_555 1_555
H35 C32 1_555 1_555
C33 C31 1_555 1_555
H36 C33 1_555 1_555
H37 C33 1_555 1_555
S1A C1A 1_555 1_555
C1A C6A 1_555 1_555
C2A C11 1_555 1_555
H1A C2A 1_555 1_555
C3A C4A 1_555 1_555
C4A C5A 1_555 1_555
C5A C10A 1_555 1_555
C6A C2A 1_555 1_555
C7A C4A 1_555 1_555
C8A C1A 1_555 1_555
C9A S1A 1_555 1_555
H2A C9A 1_555 1_555
C10A H3A 1_555 1_555
C11A C2 1_555 1_555
C12A C5A 1_555 1_555
H4A C12A 1_555 1_555
C13A C12A 1_555 1_555
H5A C13A 1_555 1_555
C14A C8A 1_555 1_555
H6A C14A 1_555 1_555
C15A C3A 1_555 1_555
H7A C15A 1_555 1_555
C16A C13A 1_555 1_555
C17A H8A 1_555 1_555
H9A C17A 1_555 1_555
C18A C26A 1_555 1_555
C19A C17A 1_555 1_555
H10A C19A 1_555 1_555
H11A C19A 1_555 1_555
C20A C10A 1_555 1_555
H12A C20A 1_555 1_555
C21A H13A 1_555 1_555
H14A C21A 1_555 1_555
C22A C3A 1_555 1_555
H15A C22A 1_555 1_555
C23A C16A 1_555 1_555
H16A C23A 1_555 1_555
H17A C23A 1_555 1_555
C24A C19A 1_555 1_555
H18A C24A 1_555 1_555
H19A C24A 1_555 1_555
H20A C24A 1_555 1_555
C25A C17A 1_555 1_555
H21A C25A 1_555 1_555
H22A C25A 1_555 1_555
C26A C15A 1_555 1_555
H23A C26A 1_555 1_555
C27A C18A 1_555 1_555
H24A C27A 1_555 1_555
C28A C18A 1_555 1_555
H25A C28A 1_555 1_555
H26A C28A 1_555 1_555
C29A H27A 1_555 1_555
H28A C29A 1_555 1_555
C30A C28A 1_555 1_555
H29A C30A 1_555 1_555
H30A C30A 1_555 1_555
C31A C29A 1_555 1_555
H31A C31A 1_555 1_555
H32A C31A 1_555 1_555
C32A H33A 1_555 1_555
H34A C32A 1_555 1_555
H35A C32A 1_555 1_555
C33A C31A 1_555 1_555
H36A C33A 1_555 1_555
H37A C33A 1_555 1_555
C7 C8 1_555 1_555
C7 C11 1_555 1_555
C9 C14 1_555 1_555
C16 C20 1_555 1_555
C21 C23 1_555 1_555
C21 C25 1_555 1_555
C22 C27 1_555 1_555
C29 C30 1_555 1_555
C32 C33 1_555 1_555
C6A C11A 1_555 1_555
C7A C8A 1_555 1_555
C7A C11A 1_555 1_555
C9A C14A 1_555 1_555
C16A C20A 1_555 1_555
C21A C23A 1_555 1_555
C21A C25A 1_555 1_555
C22A C27A 1_555 1_555
C29A C30A 1_555 1_555
C32A C33A 1_555 1_555

#END
