
#######################################################################
#
#                 Cambridge Crystallographic Data Centre
#                                CCDC 
#
#######################################################################
#
# If this CIF has been generated from an entry in the Cambridge 
# Structural Database, then it will include bibliographic, chemical, 
# crystal, experimental, refinement or atomic coordinate data resulting 
# from the CCDC's data processing and validation procedures.
#
#######################################################################

data_OFUVOC
_chemical_formula_moiety         'C38 H51 N5 O3 S2'
_chemical_name_systematic        
"N-(3',6'-bis(diethylamino)-3-oxospiro[isoindole-1,9'-xanthen]-2(3H)-yl)-N^2^,N^2^-bis(2-(ethylsulfanyl)ethyl)glycinamide (methylsulfanyl)ethane"
_symmetry_cell_setting           triclinic
_symmetry_space_group_name_H-M   'P -1'
_symmetry_Int_Tables_number      2
_space_group_name_Hall           '-P 1'
loop_
_symmetry_equiv_pos_site_id
_symmetry_equiv_pos_as_xyz
1 x,y,z
2 -x,-y,-z
_cell_length_a                   9.536(5)
_cell_length_b                   11.665(5)
_cell_length_c                   19.178(5)
_cell_angle_alpha                79.850(5)
_cell_angle_beta                 86.907(5)
_cell_angle_gamma                67.101(5)
_cell_volume                     1934.18
_cell_formula_units_Z            2
loop_
_atom_site_label
_atom_site_type_symbol
_atom_site_fract_x
_atom_site_fract_y
_atom_site_fract_z
C1 C 0.8835(13) 0.3128(11) 0.5989(5)
H1 H 0.9505 0.2933 0.5596
H2 H 0.9142 0.2416 0.6366
H3 H 0.8883 0.3845 0.6151
C2 C 0.7329(12) 0.3409(9) 0.5772(3)
H4 H 0.6621 0.3500 0.6160
H5 H 0.7253 0.2820 0.5491
C3 C 0.6445(6) 0.5836(4) 0.56307(19)
H6 H 0.5983 0.5599 0.6066
H7 H 0.5631 0.6440 0.5315
C4 C 0.7437(9) 0.6457(6) 0.5794(3)
H8 H 0.7900 0.6073 0.6254
H9 H 0.6843 0.7337 0.5791
H10 H 0.8215 0.6364 0.5445
C5 C 0.7560(4) 0.4796(3) 0.46015(14)
C6 C 0.7134(4) 0.5954(3) 0.41451(14)
H11 H 0.6622 0.6697 0.4324
C7 C 0.7457(3) 0.6014(2) 0.34396(13)
H12 H 0.7143 0.6802 0.3151
C8 C 0.8238(2) 0.4941(2) 0.31340(11)
C9 C 0.8703(3) 0.3819(2) 0.35881(12)
C10 C 0.8533(2) 0.50286(18) 0.23496(10)
C11 C 0.9687(2) 0.37753(18) 0.21987(10)
C12 C 1.0089(3) 0.2692(2) 0.26971(11)
C13 C 1.1057(3) 0.1523(2) 0.25495(14)
H13 H 1.1302 0.0819 0.2905
C14 C 1.1669(2) 0.1383(2) 0.18797(13)
C15 C 1.1259(3) 0.2493(2) 0.13634(13)
H14 H 1.1636 0.2450 0.0907
C16 C 1.0308(2) 0.3626(2) 0.15356(12)
H15 H 1.0065 0.4339 0.1186
C17 C 1.3214(4) 0.0057(3) 0.1026(2)
H16 H 1.4175 -0.0666 0.1061
H17 H 1.3400 0.0796 0.0800
C18 C 1.2134(6) -0.0141(4) 0.0587(2)
H18 H 1.1872 -0.0821 0.0830
H19 H 1.2596 -0.0347 0.0144
H20 H 1.1231 0.0616 0.0499
C19 C 1.2987(3) -0.0912(2) 0.2260(2)
H21 H 1.3277 -0.1639 0.2023
H22 H 1.2078 -0.0856 0.2528
C20 C 1.4224(4) -0.1094(3) 0.2750(3)
H23 H 1.5082 -0.1036 0.2484
H24 H 1.4519 -0.1911 0.3043
H25 H 1.3876 -0.0453 0.3044
C21 C 0.8914(2) 0.61486(19) 0.20367(11)
C22 C 1.0135(3) 0.6429(3) 0.21952(14)
H26 H 1.0881 0.5880 0.2524
C23 C 1.0210(4) 0.7544(3) 0.18513(19)
H27 H 1.1018 0.7749 0.1952
C24 C 0.9116(4) 0.8362(3) 0.1362(2)
H28 H 0.9181 0.9121 0.1151
C25 C 0.7937(3) 0.8079(2) 0.11808(16)
H29 H 0.7218 0.8618 0.0838
C26 C 0.7847(2) 0.69530(19) 0.15273(11)
C27 C 0.6706(2) 0.64254(18) 0.14429(11)
C28 C 0.4988(3) 0.4783(2) 0.22834(12)
C29 C 0.4405(3) 0.3763(3) 0.22485(19)
H30 H 0.3942 0.3596 0.2698
H31 H 0.3612 0.4079 0.1886
C30 C 0.8367(4) 0.3723(3) 0.43098(14)
H32 H 0.8687 0.2933 0.4596
N1 N 1.2643(3) 0.02298(19) 0.17264(13)
N2 N 0.7203(5) 0.4728(3) 0.53086(14)
N3 N 0.70903(18) 0.53706(14) 0.19405(9)
N4 N 0.63875(18) 0.45304(15) 0.19982(10)
N5 N 0.5519(3) 0.2602(2) 0.21013(14)
O1 O 0.9539(3) 0.26793(15) 0.33736(9)
O2 O 0.56462(18) 0.68231(16) 0.10190(9)
O3 O 0.4242(2) 0.57253(18) 0.25274(11)
S1 S 0.7595(13) -0.0403(5) 0.3624(7)
C31 C 0.592(2) 0.1728(11) 0.2861(8)
H33 H 0.5935 0.2231 0.3210
H34 H 0.5124 0.1406 0.2990
C32 C 0.7262(15) 0.0755(10) 0.2874(8)
H35 H 0.8065 0.1076 0.2842
H36 H 0.7321 0.0369 0.2459
C33 C 0.795(2) 0.0473(12) 0.4214(10)
H37 H 0.8994 0.0419 0.4179
H38 H 0.7266 0.1353 0.4117
C34 C 0.771(6) -0.006(4) 0.483(3)
H39 H 0.6648 0.0078 0.4869
H40 H 0.7989 0.0288 0.5190
H41 H 0.8305 -0.0954 0.4889
C35 C 0.5359(8) 0.1921(9) 0.1595(5)
H42 H 0.4350 0.1901 0.1614
H43 H 0.6105 0.1060 0.1682
C36 C 0.5626(18) 0.2648(15) 0.0828(9)
H44 H 0.4970 0.3536 0.0775
H45 H 0.5367 0.2298 0.0454
S2 S 0.7566(7) 0.2477(6) 0.0753(4)
C37 C 0.762(2) 0.3240(18) -0.0069(7)
H46 H 0.8179 0.2599 -0.0353
H47 H 0.6579 0.3619 -0.0251
C38 C 0.8232(15) 0.4205(14) -0.0221(6)
H48 H 0.7899 0.4746 0.0130
H49 H 0.7882 0.4695 -0.0681
H50 H 0.9324 0.3819 -0.0212
S3? S 0.685(2) -0.0079(15) 0.3860(5)
C39? C 0.5698(17) 0.1486(14) 0.2504(12)
H51? H 0.6020 0.0816 0.2222
H52? H 0.4762 0.1520 0.2742
C40? C 0.721(4) 0.126(5) 0.315(2)
H53? H 0.7033 0.2013 0.3343
H54? H 0.8219 0.0952 0.2951
C41? C 0.682(4) 0.062(4) 0.455(2)
H55? H 0.7116 0.1322 0.4382
H56? H 0.5768 0.0968 0.4699
C42? C 0.779(6) -0.016(4) 0.5197(13)
H57? H 0.7336 0.0196 0.5609
H58? H 0.8791 -0.0154 0.5139
H59? H 0.7849 -0.1012 0.5254
C43? C 0.4923(10) 0.2792(14) 0.1309(6)
H60? H 0.4067 0.2537 0.1320
H61? H 0.4568 0.3680 0.1104
C44? C 0.602(2) 0.2113(14) 0.0895(12)
H62? H 0.5603 0.2285 0.0421
H63? H 0.6282 0.1223 0.1075
S4? S 0.7719(6) 0.2394(5) 0.0833(4)
C45? C 0.7081(14) 0.3830(16) 0.0047(9)
H64? H 0.6797 0.3567 -0.0357
H65? H 0.6185 0.4500 0.0187
C46? C 0.799(5) 0.422(3) -0.0119(19)
H66? H 0.8909 0.3550 -0.0227
H67? H 0.8195 0.4576 0.0260
H68? H 0.7648 0.4861 -0.0531
loop_
_geom_bond_atom_site_label_1
_geom_bond_atom_site_label_2
_geom_bond_site_symmetry_1
_geom_bond_site_symmetry_2
C1 H1 1_555 1_555
H2 C1 1_555 1_555
H3 C1 1_555 1_555
C2 C1 1_555 1_555
H4 C2 1_555 1_555
H5 C2 1_555 1_555
C3 H6 1_555 1_555
H7 C3 1_555 1_555
C4 C3 1_555 1_555
H8 C4 1_555 1_555
H9 C4 1_555 1_555
H10 C4 1_555 1_555
C5 C6 1_555 1_555
C6 H11 1_555 1_555
C7 C6 1_555 1_555
H12 C7 1_555 1_555
C8 C7 1_555 1_555
C9 C8 1_555 1_555
C10 C8 1_555 1_555
C11 C10 1_555 1_555
C12 C11 1_555 1_555
C13 C12 1_555 1_555
H13 C13 1_555 1_555
C14 C13 1_555 1_555
C15 C14 1_555 1_555
H14 C15 1_555 1_555
C16 C11 1_555 1_555
H15 C16 1_555 1_555
C17 H16 1_555 1_555
H17 C17 1_555 1_555
C18 C17 1_555 1_555
H18 C18 1_555 1_555
H19 C18 1_555 1_555
H20 C18 1_555 1_555
C19 H21 1_555 1_555
H22 C19 1_555 1_555
C20 C19 1_555 1_555
H23 C20 1_555 1_555
H24 C20 1_555 1_555
H25 C20 1_555 1_555
C21 C10 1_555 1_555
C22 C21 1_555 1_555
H26 C22 1_555 1_555
C23 C22 1_555 1_555
H27 C23 1_555 1_555
C24 C23 1_555 1_555
H28 C24 1_555 1_555
C25 C24 1_555 1_555
H29 C25 1_555 1_555
C26 C21 1_555 1_555
C27 C26 1_555 1_555
C28 C29 1_555 1_555
C29 H30 1_555 1_555
H31 C29 1_555 1_555
C30 C5 1_555 1_555
H32 C30 1_555 1_555
N1 C14 1_555 1_555
N2 C2 1_555 1_555
N3 C10 1_555 1_555
N4 C28 1_555 1_555
N5 C29 1_555 1_555
O1 C9 1_555 1_555
O2 C27 1_555 1_555
O3 C28 1_555 1_555
S1 C32 1_555 1_555
C31 N5 1_555 1_555
H33 C31 1_555 1_555
H34 C31 1_555 1_555
C32 C31 1_555 1_555
H35 C32 1_555 1_555
H36 C32 1_555 1_555
C33 S1 1_555 1_555
H37 C33 1_555 1_555
H38 C33 1_555 1_555
C34 C33 1_555 1_555
H39 C34 1_555 1_555
H40 C34 1_555 1_555
H41 C34 1_555 1_555
C35 N5 1_555 1_555
H42 C35 1_555 1_555
H43 C35 1_555 1_555
C36 C35 1_555 1_555
H44 C36 1_555 1_555
H45 C36 1_555 1_555
S2 C36 1_555 1_555
C37 S2 1_555 1_555
H46 C37 1_555 1_555
H47 C37 1_555 1_555
C38 C37 1_555 1_555
H48 C38 1_555 1_555
H49 C38 1_555 1_555
H50 C38 1_555 1_555
C3 N2 1_555 1_555
C5 N2 1_555 1_555
C9 C30 1_555 1_555
C12 O1 1_555 1_555
C15 C16 1_555 1_555
C17 N1 1_555 1_555
C19 N1 1_555 1_555
C25 C26 1_555 1_555
C27 N3 1_555 1_555
N3 N4 1_555 1_555

#END
