
#######################################################################
#
#                 Cambridge Crystallographic Data Centre
#                                CCDC 
#
#######################################################################
#
# If this CIF has been generated from an entry in the Cambridge 
# Structural Database, then it will include bibliographic, chemical, 
# crystal, experimental, refinement or atomic coordinate data resulting 
# from the CCDC's data processing and validation procedures.
#
#######################################################################

data_OFUYOF
_chemical_formula_moiety         'C22 H30 O8'
_chemical_name_systematic        
"Dimethyl 3,3'-dibutyl-5,5'-dimethoxy-2,2'-bifuran-4,4'-dicarboxylate"
_symmetry_cell_setting           monoclinic
_symmetry_space_group_name_H-M   'C 2/c'
_symmetry_Int_Tables_number      15
_space_group_name_Hall           '-C 2yn'
loop_
_symmetry_equiv_pos_site_id
_symmetry_equiv_pos_as_xyz
1 x,y,z
2 -x,y,1/2-z
3 1/2+x,1/2+y,z
4 1/2-x,1/2+y,1/2-z
5 -x,-y,-z
6 x,-y,1/2+z
7 1/2-x,1/2-y,-z
8 1/2+x,1/2-y,1/2+z
_cell_length_a                   22.579(7)
_cell_length_b                   4.8945(14)
_cell_length_c                   22.195(7)
_cell_angle_alpha                90
_cell_angle_beta                 110.560(4)
_cell_angle_gamma                90
_cell_volume                     2296.6
_cell_formula_units_Z            4
loop_
_atom_site_label
_atom_site_type_symbol
_atom_site_fract_x
_atom_site_fract_y
_atom_site_fract_z
C1 C 0.10951(9) 0.2801(4) -0.01775(10)
C2 C 0.06488(9) 0.1308(4) -0.06294(9)
C3 C 0.00456(9) 0.2192(4) -0.05989(9)
C4 C 0.01797(8) 0.4157(4) -0.01403(9)
C5 C 0.20716(11) 0.4767(6) 0.04705(13)
H1 H 0.1934 0.6570 0.0313
H2 H 0.2515 0.4580 0.0543
H3 H 0.2000 0.4474 0.0867
C6 C 0.07769(11) -0.0710(4) -0.10532(10)
C7 C -0.05945(10) 0.1065(5) -0.09890(10)
H4 H -0.0877(10) 0.127(4) -0.0739(10)
H5 H -0.0543(9) -0.102(4) -0.1048(9)
C8 C -0.09016(11) 0.2368(5) -0.16479(11)
H6 H -0.0927(10) 0.439(5) -0.1608(10)
H7 H -0.0606(11) 0.228(4) -0.1895(10)
C9 C -0.15455(13) 0.1138(7) -0.20115(14)
H8 H -0.1471(13) -0.083(6) -0.2058(13)
H9 H -0.1823(13) 0.145(6) -0.1773(13)
C10 C -0.18551(14) 0.2263(7) -0.26776(14)
H10 H -0.1592 0.1903 -0.2928
H11 H -0.1911 0.4199 -0.2654
H12 H -0.2260 0.1407 -0.2877
C11 C 0.0435(2) -0.3504(11) -0.1951(2)
H13 H 0.0047 -0.3899 -0.2296
H14 H 0.0618 -0.5173 -0.1740
H15 H 0.0725 -0.2632 -0.2120
O1 O 0.08349(6) 0.4564(3) 0.01284(6)
O2 O 0.17218(6) 0.2783(3) 0.00035(7)
O3 O 0.03105(8) -0.1734(4) -0.15007(8)
O4 O 0.13448(8) -0.1367(4) -0.09590(8)
C1D C -0.10951(9) 0.7199(4) 0.01775(10)
C2D C -0.06488(9) 0.8692(4) 0.06294(9)
C3D C -0.00456(9) 0.7808(4) 0.05989(9)
C4D C -0.01797(8) 0.5843(4) 0.01403(9)
C5D C -0.20716(11) 0.5233(6) -0.04705(13)
H1D H -0.1934 0.3430 -0.0313
H2D H -0.2515 0.5420 -0.0543
H3D H -0.2000 0.5526 -0.0867
C6D C -0.07769(11) 1.0710(4) 0.10532(10)
C7D C 0.05945(10) 0.8935(5) 0.09890(10)
H4D H 0.0877(10) 0.873(4) 0.0739(10)
H5D H 0.0543(9) 1.102(4) 0.1048(9)
C8D C 0.09016(11) 0.7632(5) 0.16479(11)
H6D H 0.0927(10) 0.561(5) 0.1608(10)
H7D H 0.0606(11) 0.772(4) 0.1895(10)
C9D C 0.15455(13) 0.8862(7) 0.20115(14)
H8D H 0.1471(13) 1.083(6) 0.2058(13)
H9D H 0.1823(13) 0.855(6) 0.1773(13)
C10D C 0.18551(14) 0.7737(7) 0.26776(14)
H10D H 0.1592 0.8097 0.2928
H11D H 0.1911 0.5801 0.2654
H12D H 0.2260 0.8593 0.2877
C11D C -0.0435(2) 1.3504(11) 0.1951(2)
H13D H -0.0047 1.3899 0.2296
H14D H -0.0618 1.5173 0.1740
H15D H -0.0725 1.2632 0.2120
O1D O -0.08349(6) 0.5436(3) -0.01284(6)
O2D O -0.17218(6) 0.7217(3) -0.00035(7)
O3D O -0.03105(8) 1.1734(4) 0.15007(8)
O4D O -0.13448(8) 1.1367(4) 0.09590(8)
C12? C 0.1455(3) -0.3415(11) -0.1361(3)
H16? H 0.1320 -0.2762 -0.1796
H17? H 0.1222 -0.5031 -0.1342
H18? H 0.1899 -0.3834 -0.1216
loop_
_geom_bond_atom_site_label_1
_geom_bond_atom_site_label_2
_geom_bond_site_symmetry_1
_geom_bond_site_symmetry_2
C1 C2 1_555 1_555
C2 C3 1_555 1_555
C3 C4 1_555 1_555
C4 O1 1_555 1_555
C5 H1 1_555 1_555
H2 C5 1_555 1_555
H3 C5 1_555 1_555
C6 C2 1_555 1_555
C7 C3 1_555 1_555
H4 C7 1_555 1_555
H5 C7 1_555 1_555
C8 C7 1_555 1_555
H6 C8 1_555 1_555
H7 C8 1_555 1_555
C9 C8 1_555 1_555
H8 C9 1_555 1_555
H9 C9 1_555 1_555
C10 C9 1_555 1_555
H10 C10 1_555 1_555
H11 C10 1_555 1_555
H12 C10 1_555 1_555
C11 H13 1_555 1_555
H14 C11 1_555 1_555
H15 C11 1_555 1_555
O1 C1 1_555 1_555
O2 C1 1_555 1_555
O3 C6 1_555 1_555
O4 C6 1_555 1_555
C1D C2D 1_555 1_555
C2D C3D 1_555 1_555
C3D C4D 1_555 1_555
C4D C4 1_555 1_555
C5D H1D 1_555 1_555
H2D C5D 1_555 1_555
H3D C5D 1_555 1_555
C6D C2D 1_555 1_555
C7D C3D 1_555 1_555
H4D C7D 1_555 1_555
H5D C7D 1_555 1_555
C8D C7D 1_555 1_555
H6D C8D 1_555 1_555
H7D C8D 1_555 1_555
C9D C8D 1_555 1_555
H8D C9D 1_555 1_555
H9D C9D 1_555 1_555
C10D C9D 1_555 1_555
H10D C10D 1_555 1_555
H11D C10D 1_555 1_555
H12D C10D 1_555 1_555
C11D H13D 1_555 1_555
H14D C11D 1_555 1_555
H15D C11D 1_555 1_555
O1D C1D 1_555 1_555
O2D C1D 1_555 1_555
O3D C6D 1_555 1_555
O4D C6D 1_555 1_555
C5 O2 1_555 1_555
C11 O3 1_555 1_555
C4D O1D 1_555 1_555
C5D O2D 1_555 1_555
C11D O3D 1_555 1_555

#END
