
#######################################################################
#
#                 Cambridge Crystallographic Data Centre
#                                CCDC 
#
#######################################################################
#
# If this CIF has been generated from an entry in the Cambridge 
# Structural Database, then it will include bibliographic, chemical, 
# crystal, experimental, refinement or atomic coordinate data resulting 
# from the CCDC's data processing and validation procedures.
#
#######################################################################

data_OFUZUN
_chemical_formula_moiety         'C37 H23 N1 O1'
_chemical_name_systematic        
9-(spiro[fluorene-9,9'-xanthen]-3'-yl)-9H-carbazole
_symmetry_cell_setting           monoclinic
_symmetry_space_group_name_H-M   'P 21/n'
_symmetry_Int_Tables_number      14
_space_group_name_Hall           '-P 2yn'
loop_
_symmetry_equiv_pos_site_id
_symmetry_equiv_pos_as_xyz
1 x,y,z
2 1/2-x,1/2+y,1/2-z
3 -x,-y,-z
4 1/2+x,1/2-y,1/2+z
_cell_length_a                   12.115(2)
_cell_length_b                   11.1281(19)
_cell_length_c                   19.686(3)
_cell_angle_alpha                90
_cell_angle_beta                 106.472(2)
_cell_angle_gamma                90
_cell_volume                     2545.08
_exptl_crystal_colour            white
_exptl_crystal_description       block
_cell_formula_units_Z            4
loop_
_atom_site_label
_atom_site_type_symbol
_atom_site_fract_x
_atom_site_fract_y
_atom_site_fract_z
C1 C 1.2447(2) 0.4272(2) 0.35945(11)
C2 C 1.1689(2) 0.3707(2) 0.38946(12)
H1 H 1.0899 0.3747 0.3683
C3 C 1.2132(3) 0.3079(3) 0.45193(13)
H2 H 1.1638 0.2676 0.4727
C4 C 1.3314(3) 0.3051(3) 0.48368(16)
H3 H 1.3598 0.2646 0.5264
C5 C 1.4069(3) 0.3600(3) 0.45380(16)
H4 H 1.4857 0.3559 0.4756
C6 C 1.3648(2) 0.4225(2) 0.39007(13)
C7 C 1.4179(2) 0.4897(2) 0.34506(13)
C8 C 1.5316(2) 0.5124(3) 0.34638(18)
H5 H 1.5920 0.4850 0.3838
C9 C 1.5533(3) 0.5758(3) 0.2918(2)
H6 H 1.6289 0.5904 0.2920
C10 C 1.4637(2) 0.6184(2) 0.23640(16)
H7 H 1.4806 0.6610 0.1999
C11 C 1.3509(2) 0.5995(2) 0.23391(13)
H8 H 1.2913 0.6290 0.1968
C12 C 1.32878(19) 0.5345(2) 0.28899(12)
C13 C 1.11273(18) 0.5290(2) 0.25276(10)
C14 C 1.08471(19) 0.6483(2) 0.23555(12)
H9 H 1.1377 0.7086 0.2543
C15 C 0.97790(18) 0.6772(2) 0.19046(11)
H10 H 0.9600 0.7575 0.1794
C16 C 0.89670(18) 0.5892(2) 0.16131(10)
C17 C 0.92676(18) 0.4716(2) 0.18061(10)
C18 C 1.03359(18) 0.4406(2) 0.22522(10)
H11 H 1.0516 0.3604 0.2364
C19 C 0.78224(17) 0.6154(2) 0.10640(10)
C20 C 0.69658(18) 0.5173(2) 0.11087(10)
C21 C 0.7354(2) 0.4038(2) 0.13365(11)
C22 C 0.6616(2) 0.3100(3) 0.13524(12)
H12 H 0.6908 0.2342 0.1504
C23 C 0.5455(2) 0.3289(3) 0.11450(13)
H13 H 0.4954 0.2660 0.1154
C24 C 0.5029(2) 0.4414(3) 0.09222(13)
H14 H 0.4239 0.4550 0.0787
C25 C 0.5782(2) 0.5343(2) 0.09004(12)
H15 H 0.5487 0.6097 0.0743
C26 C 0.73518(17) 0.7411(2) 0.11082(10)
C27 C 0.70549(19) 0.7947(2) 0.16637(12)
H16 H 0.7169 0.7549 0.2093
C28 C 0.6581(2) 0.9100(3) 0.15683(15)
H17 H 0.6389 0.9478 0.1941
C29 C 0.6394(2) 0.9680(3) 0.09300(15)
H18 H 0.6054 1.0437 0.0871
C30 C 0.6701(2) 0.9160(2) 0.03770(14)
H19 H 0.6581 0.9561 -0.0052
C31 C 0.71913(17) 0.8029(2) 0.04702(11)
C32 C 0.79912(17) 0.6182(2) 0.03162(10)
C33 C 0.84533(18) 0.5318(2) -0.00224(11)
H20 H 0.8710 0.4591 0.0199
C34 C 0.8530(2) 0.5550(3) -0.07010(12)
H21 H 0.8834 0.4972 -0.0937
C35 C 0.8157(2) 0.6632(3) -0.10267(13)
H22 H 0.8212 0.6772 -0.1482
C36 C 0.7706(2) 0.7505(2) -0.06907(12)
H23 H 0.7463 0.8236 -0.0912
C37 C 0.76212(17) 0.7275(2) -0.00159(10)
N1 N 1.22328(15) 0.49739(18) 0.29793(9)
O1 O 0.85237(13) 0.37665(14) 0.15633(9)
loop_
_geom_bond_atom_site_label_1
_geom_bond_atom_site_label_2
_geom_bond_site_symmetry_1
_geom_bond_site_symmetry_2
C1 C2 1_555 1_555
C2 H1 1_555 1_555
C3 C2 1_555 1_555
H2 C3 1_555 1_555
C4 C3 1_555 1_555
H3 C4 1_555 1_555
C5 C4 1_555 1_555
H4 C5 1_555 1_555
C6 C1 1_555 1_555
C7 C6 1_555 1_555
C8 C7 1_555 1_555
H5 C8 1_555 1_555
C9 C8 1_555 1_555
H6 C9 1_555 1_555
C10 C9 1_555 1_555
H7 C10 1_555 1_555
C11 C10 1_555 1_555
H8 C11 1_555 1_555
C12 C7 1_555 1_555
C13 C14 1_555 1_555
C14 H9 1_555 1_555
C15 C14 1_555 1_555
H10 C15 1_555 1_555
C16 C15 1_555 1_555
C17 C16 1_555 1_555
C18 C13 1_555 1_555
H11 C18 1_555 1_555
C19 C16 1_555 1_555
C20 C19 1_555 1_555
C21 C20 1_555 1_555
C22 C21 1_555 1_555
H12 C22 1_555 1_555
C23 C22 1_555 1_555
H13 C23 1_555 1_555
C24 C23 1_555 1_555
H14 C24 1_555 1_555
C25 C20 1_555 1_555
H15 C25 1_555 1_555
C26 C19 1_555 1_555
C27 C26 1_555 1_555
H16 C27 1_555 1_555
C28 C27 1_555 1_555
H17 C28 1_555 1_555
C29 C28 1_555 1_555
H18 C29 1_555 1_555
C30 C29 1_555 1_555
H19 C30 1_555 1_555
C31 C26 1_555 1_555
C32 C19 1_555 1_555
C33 C32 1_555 1_555
H20 C33 1_555 1_555
C34 C33 1_555 1_555
H21 C34 1_555 1_555
C35 C34 1_555 1_555
H22 C35 1_555 1_555
C36 C35 1_555 1_555
H23 C36 1_555 1_555
C37 C31 1_555 1_555
N1 C1 1_555 1_555
O1 C17 1_555 1_555
C5 C6 1_555 1_555
C11 C12 1_555 1_555
C12 N1 1_555 1_555
C13 N1 1_555 1_555
C17 C18 1_555 1_555
C21 O1 1_555 1_555
C24 C25 1_555 1_555
C30 C31 1_555 1_555
C32 C37 1_555 1_555
C36 C37 1_555 1_555

#END
