
#######################################################################
#
#                 Cambridge Crystallographic Data Centre
#                                CCDC 
#
#######################################################################
#
# If this CIF has been generated from an entry in the Cambridge 
# Structural Database, then it will include bibliographic, chemical, 
# crystal, experimental, refinement or atomic coordinate data resulting 
# from the CCDC's data processing and validation procedures.
#
#######################################################################

data_OFUZEX
_chemical_formula_moiety         'C20 H17 N1 O5'
_chemical_name_systematic        
5,11a-dimethyl-4,5,5a,11a-tetrahydro-2H,8H,11H-[1,3]dioxolo[4,5-h][1,3]dioxolo[5,6]indeno[1,2-c]isoquinolin-11-one
_symmetry_cell_setting           monoclinic
_symmetry_space_group_name_H-M   'C 2/c'
_symmetry_Int_Tables_number      15
_space_group_name_Hall           '-C 2yn'
loop_
_symmetry_equiv_pos_site_id
_symmetry_equiv_pos_as_xyz
1 x,y,z
2 -x,y,1/2-z
3 1/2+x,1/2+y,z
4 1/2-x,1/2+y,1/2-z
5 -x,-y,-z
6 x,-y,1/2+z
7 1/2-x,1/2-y,-z
8 1/2+x,1/2-y,1/2+z
_cell_length_a                   14.641(4)
_cell_length_b                   19.583(5)
_cell_length_c                   13.055(6)
_cell_angle_alpha                90
_cell_angle_beta                 118.154(7)
_cell_angle_gamma                90
_cell_volume                     3300.19
_exptl_crystal_colour            colorless
_exptl_crystal_description       prismatic
_cell_formula_units_Z            8
loop_
_atom_site_label
_atom_site_type_symbol
_atom_site_fract_x
_atom_site_fract_y
_atom_site_fract_z
O1 O 0.02743(8) 0.33394(7) -0.00477(10)
O2 O 0.12342(9) 0.30987(6) -0.09997(10)
O3 O 0.48055(9) 0.37516(7) 0.42289(12)
O4 O 0.20613(10) 0.32289(6) 0.67610(10)
O5 O 0.35210(10) 0.25982(6) 0.71679(10)
N1 N 0.13683(9) 0.46791(6) 0.29560(10)
C1 C 0.02664(13) 0.29966(9) -0.10112(14)
H1 H -0.0290 0.3173 -0.1729
H2 H 0.0149 0.2512 -0.0968
C2 C 0.12682(10) 0.35864(7) 0.05824(12)
C3 C 0.18391(12) 0.34382(7) 0.00217(13)
C4 C 0.28558(12) 0.36278(8) 0.04789(14)
H3 H 0.3242 0.3534 0.0098
C5 C 0.32832(12) 0.39654(8) 0.15356(14)
H4 H 0.3975 0.4096 0.1872
C6 C 0.27142(11) 0.41177(7) 0.21152(12)
C7 C 0.16657(10) 0.39216(7) 0.16283(12)
C8 C 0.10245(10) 0.40717(7) 0.22266(12)
H5 H 0.0308 0.4132 0.1644
H6 H 0.1056 0.3683 0.2702
C9 C 0.24687(11) 0.46268(7) 0.37819(12)
H7 H 0.2681 0.5060 0.4205
C10 C 0.32472(11) 0.44666(7) 0.33019(13)
C11 C 0.39845(11) 0.39296(8) 0.41678(13)
C12 C 0.35393(11) 0.36867(7) 0.48912(12)
C13 C 0.26642(11) 0.40692(7) 0.46616(12)
C14 C 0.20888(11) 0.39471(8) 0.52429(12)
H8 H 0.1493 0.4192 0.5085
C15 C 0.24621(12) 0.34422(8) 0.60591(13)
C16 C 0.33513(12) 0.30614(7) 0.63066(13)
C17 C 0.39142(12) 0.31619(8) 0.57343(14)
H9 H 0.4499 0.2905 0.5886
C18 C 0.27658(16) 0.27393(10) 0.75269(17)
H10 H 0.3098 0.2915 0.8315
H11 H 0.2399 0.2324 0.7512
C19 C 0.38701(13) 0.51010(9) 0.33020(16)
H12 H 0.4447 0.4962 0.3192
H13 H 0.4120 0.5335 0.4031
H14 H 0.3432 0.5401 0.2683
C20 C 0.11214(14) 0.53060(8) 0.22631(16)
H15 H 0.1454 0.5296 0.1782
H16 H 0.1363 0.5694 0.2771
H17 H 0.0385 0.5339 0.1782
loop_
_geom_bond_atom_site_label_1
_geom_bond_atom_site_label_2
_geom_bond_site_symmetry_1
_geom_bond_site_symmetry_2
O1 C1 1_555 1_555
O2 C1 1_555 1_555
O3 C11 1_555 1_555
O4 C15 1_555 1_555
O5 C16 1_555 1_555
N1 C8 1_555 1_555
C1 H1 1_555 1_555
H2 C1 1_555 1_555
C2 O1 1_555 1_555
C3 O2 1_555 1_555
C4 C3 1_555 1_555
H3 C4 1_555 1_555
C5 C4 1_555 1_555
H4 C5 1_555 1_555
C6 C5 1_555 1_555
C7 C2 1_555 1_555
C8 C7 1_555 1_555
H5 C8 1_555 1_555
H6 C8 1_555 1_555
C9 N1 1_555 1_555
H7 C9 1_555 1_555
C10 C6 1_555 1_555
C11 C10 1_555 1_555
C12 C11 1_555 1_555
C13 C9 1_555 1_555
C14 C13 1_555 1_555
H8 C14 1_555 1_555
C15 C14 1_555 1_555
C16 C15 1_555 1_555
C17 C12 1_555 1_555
H9 C17 1_555 1_555
C18 O4 1_555 1_555
H10 C18 1_555 1_555
H11 C18 1_555 1_555
C19 C10 1_555 1_555
H12 C19 1_555 1_555
H13 C19 1_555 1_555
H14 C19 1_555 1_555
C20 N1 1_555 1_555
H15 C20 1_555 1_555
H16 C20 1_555 1_555
H17 C20 1_555 1_555
O5 C18 1_555 1_555
C2 C3 1_555 1_555
C6 C7 1_555 1_555
C9 C10 1_555 1_555
C12 C13 1_555 1_555
C16 C17 1_555 1_555

#END
