
#######################################################################
#
#                 Cambridge Crystallographic Data Centre
#                                CCDC 
#
#######################################################################
#
# If this CIF has been generated from an entry in the Cambridge 
# Structural Database, then it will include bibliographic, chemical, 
# crystal, experimental, refinement or atomic coordinate data resulting 
# from the CCDC's data processing and validation procedures.
#
#######################################################################

data_OFUZIB
_chemical_formula_moiety         'C37 H23 N1 O1'
_chemical_name_systematic        
9-(spiro[fluorene-9,9'-xanthen]-2-yl)-9H-carbazole
_symmetry_cell_setting           triclinic
_symmetry_space_group_name_H-M   'P -1'
_symmetry_Int_Tables_number      2
_space_group_name_Hall           '-P 1'
loop_
_symmetry_equiv_pos_site_id
_symmetry_equiv_pos_as_xyz
1 x,y,z
2 -x,-y,-z
_cell_length_a                   8.581(2)
_cell_length_b                   9.167(2)
_cell_length_c                   17.575(4)
_cell_angle_alpha                89.893(6)
_cell_angle_beta                 79.223(7)
_cell_angle_gamma                70.216(6)
_cell_volume                     1275.12
_exptl_crystal_colour            colorless
_exptl_crystal_description       block
_cell_formula_units_Z            2
loop_
_atom_site_label
_atom_site_type_symbol
_atom_site_fract_x
_atom_site_fract_y
_atom_site_fract_z
O1 O 0.33466(16) 0.00515(15) 0.40826(7)
N1 N 0.28141(17) 0.18269(14) 0.01801(7)
C1 C 0.13166(17) 0.27800(15) 0.22880(7)
C2 C 0.22829(18) 0.19884(16) 0.15950(8)
H1 H 0.3118 0.1023 0.1590
C3 C 0.19718(19) 0.26750(17) 0.09079(8)
C4 C 0.0775(2) 0.41577(19) 0.09291(9)
H2 H 0.0631 0.4631 0.0466
C5 C -0.0202(2) 0.49428(18) 0.16215(9)
H3 H -0.1004 0.5927 0.1627
C6 C 0.00419(18) 0.42288(16) 0.23078(8)
C7 C -0.08334(18) 0.47161(16) 0.31162(8)
C8 C -0.22324(19) 0.60108(17) 0.34345(9)
H4 H -0.2757 0.6760 0.3119
C9 C -0.2825(2) 0.6157(2) 0.42302(10)
H5 H -0.3760 0.7010 0.4450
C10 C -0.2036(2) 0.5046(2) 0.47016(9)
H6 H -0.2447 0.5165 0.5235
C11 C -0.0634(2) 0.37511(18) 0.43880(8)
H7 H -0.0105 0.3012 0.4707
C12 C -0.00486(17) 0.35896(16) 0.35942(8)
C13 C 0.14536(17) 0.22767(15) 0.31104(7)
C14 C 0.13033(17) 0.06824(15) 0.32422(8)
C15 C 0.0217(2) 0.01812(19) 0.29022(10)
H8 H -0.0385 0.0804 0.2562
C16 C 0.0018(2) -0.1234(2) 0.30645(11)
H9 H -0.0711 -0.1553 0.2831
C17 C 0.0892(3) -0.2168(2) 0.35680(11)
H10 H 0.0736 -0.3106 0.3684
C18 C 0.1996(2) -0.1715(2) 0.38996(10)
H11 H 0.2606 -0.2350 0.4234
C19 C 0.2195(2) -0.02990(18) 0.37308(9)
C20 C 0.39238(19) 0.12167(18) 0.37905(8)
C21 C 0.5381(2) 0.1257(2) 0.40163(10)
H12 H 0.5916 0.0522 0.4335
C22 C 0.6017(2) 0.2399(2) 0.37611(11)
H13 H 0.6981 0.2444 0.3914
C23 C 0.5238(2) 0.3475(2) 0.32814(10)
H14 H 0.5679 0.4240 0.3108
C24 C 0.3800(2) 0.34172(18) 0.30568(9)
H15 H 0.3283 0.4145 0.2730
C25 C 0.31108(17) 0.22850(16) 0.33123(7)
C26 C 0.2603(2) 0.04568(17) -0.00627(9)
C27 C 0.1933(2) -0.05342(19) 0.03735(11)
H16 H 0.1567 -0.0360 0.0909
C28 C 0.1833(3) -0.1786(2) -0.00215(15)
H17 H 0.1393 -0.2472 0.0254
C29 C 0.2374(3) -0.2052(2) -0.08246(16)
H18 H 0.2269 -0.2898 -0.1074
C30 C 0.3060(3) -0.1085(2) -0.12525(13)
H19 H 0.3437 -0.1279 -0.1786
C31 C 0.3183(2) 0.01984(19) -0.08704(9)
C32 C 0.3804(2) 0.14271(18) -0.11309(9)
C33 C 0.4617(2) 0.1744(2) -0.18447(9)
H20 H 0.4803 0.1104 -0.2287
C34 C 0.5138(3) 0.3003(2) -0.18892(11)
H21 H 0.5684 0.3212 -0.2363
C35 C 0.4860(3) 0.3972(2) -0.12330(11)
H22 H 0.5228 0.4819 -0.1276
C36 C 0.4046(2) 0.3704(2) -0.05153(10)
H23 H 0.3845 0.4365 -0.0080
C37 C 0.3543(2) 0.24171(17) -0.04712(8)
loop_
_geom_bond_atom_site_label_1
_geom_bond_atom_site_label_2
_geom_bond_site_symmetry_1
_geom_bond_site_symmetry_2
O1 C19 1_555 1_555
N1 C3 1_555 1_555
C1 C2 1_555 1_555
C2 H1 1_555 1_555
C3 C2 1_555 1_555
C4 C3 1_555 1_555
H2 C4 1_555 1_555
C5 C4 1_555 1_555
H3 C5 1_555 1_555
C6 C1 1_555 1_555
C7 C6 1_555 1_555
C8 C7 1_555 1_555
H4 C8 1_555 1_555
C9 C8 1_555 1_555
H5 C9 1_555 1_555
C10 C9 1_555 1_555
H6 C10 1_555 1_555
C11 C10 1_555 1_555
H7 C11 1_555 1_555
C12 C7 1_555 1_555
C13 C1 1_555 1_555
C14 C13 1_555 1_555
C15 C14 1_555 1_555
H8 C15 1_555 1_555
C16 C15 1_555 1_555
H9 C16 1_555 1_555
C17 C16 1_555 1_555
H10 C17 1_555 1_555
C18 C17 1_555 1_555
H11 C18 1_555 1_555
C19 C14 1_555 1_555
C20 O1 1_555 1_555
C21 C20 1_555 1_555
H12 C21 1_555 1_555
C22 C21 1_555 1_555
H13 C22 1_555 1_555
C23 C22 1_555 1_555
H14 C23 1_555 1_555
C24 C23 1_555 1_555
H15 C24 1_555 1_555
C25 C13 1_555 1_555
C26 N1 1_555 1_555
C27 C26 1_555 1_555
H16 C27 1_555 1_555
C28 C27 1_555 1_555
H17 C28 1_555 1_555
C29 C28 1_555 1_555
H18 C29 1_555 1_555
C30 C29 1_555 1_555
H19 C30 1_555 1_555
C31 C26 1_555 1_555
C32 C31 1_555 1_555
C33 C32 1_555 1_555
H20 C33 1_555 1_555
C34 C33 1_555 1_555
H21 C34 1_555 1_555
C35 C34 1_555 1_555
H22 C35 1_555 1_555
C36 C35 1_555 1_555
H23 C36 1_555 1_555
C37 N1 1_555 1_555
C5 C6 1_555 1_555
C11 C12 1_555 1_555
C12 C13 1_555 1_555
C18 C19 1_555 1_555
C20 C25 1_555 1_555
C24 C25 1_555 1_555
C30 C31 1_555 1_555
C32 C37 1_555 1_555
C36 C37 1_555 1_555

#END
