
#######################################################################
#
#                 Cambridge Crystallographic Data Centre
#                                CCDC 
#
#######################################################################
#
# If this CIF has been generated from an entry in the Cambridge 
# Structural Database, then it will include bibliographic, chemical, 
# crystal, experimental, refinement or atomic coordinate data resulting 
# from the CCDC's data processing and validation procedures.
#
#######################################################################

data_OGACIL
_chemical_formula_moiety         'C21 H27 N1 O4'
_chemical_name_systematic        
'diethyl 1,3-dimethyl-8-phenyl-2-azabicyclo[4.2.0]oct-3-ene-4,6-dicarboxylate'
_symmetry_cell_setting           monoclinic
_symmetry_space_group_name_H-M   'P 21/c'
_symmetry_Int_Tables_number      14
_space_group_name_Hall           '-P 2ybc'
loop_
_symmetry_equiv_pos_site_id
_symmetry_equiv_pos_as_xyz
1 x,y,z
2 -x,1/2+y,1/2-z
3 -x,-y,-z
4 x,1/2-y,1/2+z
_cell_length_a                   9.9109(12)
_cell_length_b                   17.7633(17)
_cell_length_c                   10.9397(12)
_cell_angle_alpha                90
_cell_angle_beta                 100.598(11)
_cell_angle_gamma                90
_cell_volume                     1893.08
_exptl_crystal_colour            colorless
_exptl_crystal_description       block
_cell_formula_units_Z            4
loop_
_atom_site_label
_atom_site_type_symbol
_atom_site_fract_x
_atom_site_fract_y
_atom_site_fract_z
O1 O 0.5947(2) -0.03332(11) 0.40765(19)
O2 O 0.81424(19) 0.00255(10) 0.44072(18)
O3 O 0.9551(2) 0.17744(11) 0.04123(18)
O4 O 0.8347(2) 0.07162(10) 0.00519(15)
N1 N 0.82372(19) 0.19121(11) 0.38469(17)
H1 H 0.8682 0.2175 0.4449
C1 C 0.3923(3) 0.2467(2) 0.4478(3)
H2 H 0.3721 0.1983 0.4713
C2 C 0.3252(3) 0.3081(2) 0.4889(3)
H3 H 0.2585 0.3004 0.5374
C3 C 0.3575(3) 0.3798(2) 0.4579(3)
H4 H 0.3128 0.4208 0.4852
C4 C 0.4540(4) 0.39060(19) 0.3878(3)
H5 H 0.4778 0.4392 0.3685
C5 C 0.5176(3) 0.33009(17) 0.3446(3)
H6 H 0.5826 0.3387 0.2948
C6 C 0.4881(3) 0.25698(15) 0.3728(2)
C7 C 0.5614(2) 0.19367(14) 0.3227(2)
H7 H 0.5827 0.2102 0.2429
C8 C 0.6957(2) 0.15902(13) 0.4005(2)
C9 C 0.6538(2) 0.08484(13) 0.3267(2)
C10 C 0.5050(3) 0.11326(15) 0.3052(2)
H8 H 0.4537 0.1031 0.2225
H9 H 0.4541 0.0975 0.3685
C11 C 0.7112(3) 0.08033(15) 0.2043(2)
H10 H 0.7435 0.0294 0.1959
H11 H 0.6359 0.0891 0.1355
C12 C 0.8260(2) 0.13376(13) 0.1909(2)
C13 C 0.8794(2) 0.18321(13) 0.2822(2)
C14 C 0.6929(3) 0.15416(15) 0.5382(2)
H12 H 0.7691 0.1244 0.5787
H13 H 0.6086 0.1311 0.5500
H14 H 0.6992 0.2039 0.5733
C15 C 0.6811(3) 0.01189(14) 0.3958(2)
C16 C 0.8558(3) -0.07056(16) 0.4938(3)
H15 H 0.7891 -0.0883 0.5418
H16 H 0.9439 -0.0662 0.5492
C17 C 0.8666(4) -0.1253(2) 0.3933(3)
H17 H 0.9291 -0.1064 0.3433
H18 H 0.7778 -0.1324 0.3422
H19 H 0.8997 -0.1726 0.4295
C18 C 0.8797(3) 0.13154(14) 0.0771(2)
C19 C 0.8822(4) 0.0688(2) -0.1123(3)
H20 H 0.9816 0.0657 -0.0976
H21 H 0.8544 0.1140 -0.1599
C20 C 0.8234(5) 0.0032(2) -0.1809(3)
H22 H 0.8588 -0.0010 -0.2565
H23 H 0.7253 0.0083 -0.2002
H24 H 0.8470 -0.0411 -0.1313
C21 C 1.0034(3) 0.23121(15) 0.2827(3)
H25 H 0.9791 0.2738 0.2291
H26 H 1.0729 0.2023 0.2535
H27 H 1.0378 0.2484 0.3658
loop_
_geom_bond_atom_site_label_1
_geom_bond_atom_site_label_2
_geom_bond_site_symmetry_1
_geom_bond_site_symmetry_2
O1 C15 1_555 1_555
O2 C15 1_555 1_555
O3 C18 1_555 1_555
O4 C18 1_555 1_555
N1 H1 1_555 1_555
C1 H2 1_555 1_555
C2 C1 1_555 1_555
H3 C2 1_555 1_555
C3 C2 1_555 1_555
H4 C3 1_555 1_555
C4 C3 1_555 1_555
H5 C4 1_555 1_555
C5 C4 1_555 1_555
H6 C5 1_555 1_555
C6 C1 1_555 1_555
C7 C6 1_555 1_555
H7 C7 1_555 1_555
C8 N1 1_555 1_555
C9 C8 1_555 1_555
C10 C7 1_555 1_555
H8 C10 1_555 1_555
H9 C10 1_555 1_555
C11 C9 1_555 1_555
H10 C11 1_555 1_555
H11 C11 1_555 1_555
C12 C11 1_555 1_555
C13 N1 1_555 1_555
C14 C8 1_555 1_555
H12 C14 1_555 1_555
H13 C14 1_555 1_555
H14 C14 1_555 1_555
C15 C9 1_555 1_555
C16 O2 1_555 1_555
H15 C16 1_555 1_555
H16 C16 1_555 1_555
C17 C16 1_555 1_555
H17 C17 1_555 1_555
H18 C17 1_555 1_555
H19 C17 1_555 1_555
C18 C12 1_555 1_555
C19 O4 1_555 1_555
H20 C19 1_555 1_555
H21 C19 1_555 1_555
C20 C19 1_555 1_555
H22 C20 1_555 1_555
H23 C20 1_555 1_555
H24 C20 1_555 1_555
C21 C13 1_555 1_555
H25 C21 1_555 1_555
H26 C21 1_555 1_555
H27 C21 1_555 1_555
C5 C6 1_555 1_555
C7 C8 1_555 1_555
C9 C10 1_555 1_555
C12 C13 1_555 1_555

#END
