
#######################################################################
#
#                 Cambridge Crystallographic Data Centre
#                                CCDC 
#
#######################################################################
#
# If this CIF has been generated from an entry in the Cambridge 
# Structural Database, then it will include bibliographic, chemical, 
# crystal, experimental, refinement or atomic coordinate data resulting 
# from the CCDC's data processing and validation procedures.
#
#######################################################################

data_OGACEG
_chemical_name_common            
14beta-Hydrogen-6beta,7beta:15beta,16beta-dimethano-3-oxo-17beta-pregn-4-en-21,17-carbolactone
_chemical_formula_moiety         'C24 H30 O3'
_chemical_name_systematic        
5a,7a-Dimethyl-1,1a,5,5a,5b,6,7,7a,8a,9,9a,9b,9c,9d-tetradecahydro-3'H-spiro[cyclopropa[4,5]cyclopenta[1,2-a]cyclopropa[l]phenanthrene-8,2'-furan]-3,5'(4H,4'H)-dione
_symmetry_cell_setting           monoclinic
_symmetry_space_group_name_H-M   'P 21'
_symmetry_Int_Tables_number      4
_space_group_name_Hall           'P 2yb'
loop_
_symmetry_equiv_pos_site_id
_symmetry_equiv_pos_as_xyz
1 x,y,z
2 -x,1/2+y,-z
_cell_length_a                   6.9415(9)
_cell_length_b                   13.2918(17)
_cell_length_c                   10.6904(14)
_cell_angle_alpha                90
_cell_angle_beta                 96.511(2)
_cell_angle_gamma                90
_cell_volume                     979.988
_cell_formula_units_Z            2
loop_
_atom_site_label
_atom_site_type_symbol
_atom_site_fract_x
_atom_site_fract_y
_atom_site_fract_z
C1 C -0.0154(4) 0.2210(3) 0.3891(3)
C2 C 0.0507(5) 0.1207(3) 0.3523(3)
H1 H 0.1297 0.1282 0.2837
H2 H -0.0614 0.0803 0.3221
C3 C 0.1678(4) 0.0659(2) 0.4611(2)
H3 H 0.2229 0.0054 0.4289
H4 H 0.0810 0.0455 0.5214
C4 C 0.3327(3) 0.12957(18) 0.5295(2)
C5 C 0.2479(4) 0.2296(2) 0.5654(2)
C6 C 0.0866(4) 0.2671(3) 0.5011(3)
H5 H 0.0366 0.3265 0.5302
C7 C 0.3424(4) 0.28579(19) 0.6748(2)
H6 H 0.2533 0.3272 0.7177
C8 C 0.5449(5) 0.3268(2) 0.6823(3)
H7 H 0.6177 0.3146 0.6116
H8 H 0.5703 0.3910 0.7240
C9 C 0.5034(4) 0.23934(18) 0.7613(2)
H9 H 0.5011 0.2537 0.8511
C10 C 0.5733(3) 0.13494(15) 0.73054(19)
H10 H 0.6814 0.1435 0.6800
C11 C 0.4171(3) 0.07386(17) 0.65163(19)
H11 H 0.3101 0.0643 0.7029
C12 C 0.4980(4) -0.03064(19) 0.6271(2)
H12 H 0.3970 -0.0710 0.5813
H13 H 0.6030 -0.0240 0.5751
C13 C 0.5723(4) -0.08407(18) 0.7491(2)
H14 H 0.6240 -0.1491 0.7287
H15 H 0.4639 -0.0960 0.7970
C14 C 0.7288(3) -0.02627(16) 0.8317(2)
C15 C 0.6533(3) 0.08153(17) 0.85263(19)
H16 H 0.7628 0.1213 0.8917
C16 C 0.5124(3) 0.0683(2) 0.9496(2)
H17 H 0.3742 0.0817 0.9261
C17 C 0.5955(5) 0.0768(2) 1.0847(2)
H18 H 0.5078 0.0939 1.1459
H19 H 0.7255 0.1037 1.1026
C18 C 0.5731(3) -0.0248(2) 1.0231(2)
H20 H 0.4721 -0.0700 1.0472
C19 C 0.7454(3) -0.07035(18) 0.9673(2)
C20 C 0.9412(4) -0.0595(2) 1.0488(3)
H21 H 1.0125 -0.0020 1.0223
H22 H 0.9230 -0.0515 1.1369
C21 C 1.0470(4) -0.1571(2) 1.0275(3)
H23 H 1.1327 -0.1489 0.9626
H24 H 1.1224 -0.1794 1.1044
C22 C 0.8890(4) -0.2293(2) 0.9873(3)
C23 C 0.4878(4) 0.1479(3) 0.4398(2)
H25 H 0.4308 0.1835 0.3666
H26 H 0.5377 0.0846 0.4149
H27 H 0.5915 0.1873 0.4821
C24 C 0.9187(4) -0.0259(2) 0.7724(3)
H28 H 0.9687 -0.0932 0.7712
H29 H 1.0110 0.0165 0.8209
H30 H 0.8957 -0.0007 0.6879
O1 O -0.1503(3) 0.2643(2) 0.3270(3)
O2 O 0.8972(3) -0.31930(15) 0.9771(3)
O3 O 0.7193(2) -0.18036(13) 0.96032(17)
loop_
_geom_bond_atom_site_label_1
_geom_bond_atom_site_label_2
_geom_bond_site_symmetry_1
_geom_bond_site_symmetry_2
C1 C2 1_555 1_555
C2 H1 1_555 1_555
H2 C2 1_555 1_555
C3 C2 1_555 1_555
H3 C3 1_555 1_555
H4 C3 1_555 1_555
C4 C3 1_555 1_555
C5 C4 1_555 1_555
C6 C1 1_555 1_555
H5 C6 1_555 1_555
C7 C5 1_555 1_555
H6 C7 1_555 1_555
C8 C7 1_555 1_555
H7 C8 1_555 1_555
H8 C8 1_555 1_555
C9 C7 1_555 1_555
H9 C9 1_555 1_555
C10 C9 1_555 1_555
H10 C10 1_555 1_555
C11 C4 1_555 1_555
H11 C11 1_555 1_555
C12 C11 1_555 1_555
H12 C12 1_555 1_555
H13 C12 1_555 1_555
C13 C12 1_555 1_555
H14 C13 1_555 1_555
H15 C13 1_555 1_555
C14 C13 1_555 1_555
C15 C10 1_555 1_555
H16 C15 1_555 1_555
C16 C15 1_555 1_555
H17 C16 1_555 1_555
C17 C16 1_555 1_555
H18 C17 1_555 1_555
H19 C17 1_555 1_555
C18 C16 1_555 1_555
H20 C18 1_555 1_555
C19 C14 1_555 1_555
C20 C19 1_555 1_555
H21 C20 1_555 1_555
H22 C20 1_555 1_555
C21 C20 1_555 1_555
H23 C21 1_555 1_555
H24 C21 1_555 1_555
C22 C21 1_555 1_555
C23 C4 1_555 1_555
H25 C23 1_555 1_555
H26 C23 1_555 1_555
H27 C23 1_555 1_555
C24 C14 1_555 1_555
H28 C24 1_555 1_555
H29 C24 1_555 1_555
H30 C24 1_555 1_555
O1 C1 1_555 1_555
O2 C22 1_555 1_555
O3 C19 1_555 1_555
C5 C6 1_555 1_555
C8 C9 1_555 1_555
C10 C11 1_555 1_555
C14 C15 1_555 1_555
C17 C18 1_555 1_555
C18 C19 1_555 1_555
C22 O3 1_555 1_555

#END
