
#######################################################################
#
#                 Cambridge Crystallographic Data Centre
#                                CCDC 
#
#######################################################################
#
# If this CIF has been generated from an entry in the Cambridge 
# Structural Database, then it will include bibliographic, chemical, 
# crystal, experimental, refinement or atomic coordinate data resulting 
# from the CCDC's data processing and validation procedures.
#
#######################################################################

data_OGACEH
_chemical_formula_moiety         'C21 H27 N1 O4'
_chemical_name_systematic        
'diethyl 1,3-dimethyl-8-phenyl-2-azabicyclo[4.2.0]oct-3-ene-4,6-dicarboxylate'
_symmetry_cell_setting           monoclinic
_symmetry_space_group_name_H-M   'P 21/n'
_symmetry_Int_Tables_number      14
_space_group_name_Hall           '-P 2yn'
loop_
_symmetry_equiv_pos_site_id
_symmetry_equiv_pos_as_xyz
1 x,y,z
2 1/2-x,1/2+y,1/2-z
3 -x,-y,-z
4 1/2+x,1/2-y,1/2+z
_cell_length_a                   8.5401(6)
_cell_length_b                   11.6431(12)
_cell_length_c                   19.9467(16)
_cell_angle_alpha                90
_cell_angle_beta                 98.271(7)
_cell_angle_gamma                90
_cell_volume                     1962.74
_exptl_crystal_colour            colorless
_exptl_crystal_description       plate
_cell_formula_units_Z            4
loop_
_atom_site_label
_atom_site_type_symbol
_atom_site_fract_x
_atom_site_fract_y
_atom_site_fract_z
O1 O 1.1478(3) 1.0018(2) 0.20792(12)
O2 O 0.9647(2) 1.00455(18) 0.11549(10)
O3 O 0.6731(3) 0.6140(2) 0.05250(13)
O4 O 0.5402(3) 0.5993(3) 0.13937(14)
N1 N 1.0696(2) 0.6390(2) 0.20730(12)
H1 H 1.1452 0.5904 0.2173
C1 C 1.1102(3) 0.7518(3) 0.20555(14)
C2 C 1.0150(3) 0.8284(3) 0.16770(14)
C3 C 0.8710(3) 0.7821(3) 0.12372(15)
H2 H 0.9014 0.7520 0.0821
H3 H 0.7960 0.8440 0.1119
C4 C 0.7925(3) 0.6875(3) 0.15971(14)
C5 C 0.9094(3) 0.5932(2) 0.19368(13)
C6 C 0.8230(3) 0.6019(3) 0.25826(14)
H4 H 0.7407 0.5427 0.2556
C7 C 0.7484(3) 0.7150(3) 0.22989(15)
H5 H 0.6352 0.7191 0.2305
H6 H 0.8009 0.7827 0.2506
C8 C 1.2684(3) 0.7785(3) 0.24504(18)
H7 H 1.2550 0.8035 0.2897
H8 H 1.3182 0.8384 0.2226
H9 H 1.3334 0.7110 0.2481
C9 C 1.0528(3) 0.9499(3) 0.16776(15)
C10 C 0.9862(4) 1.1265(3) 0.11194(18)
H10 H 1.0979 1.1447 0.1150
H11 H 0.9447 1.1641 0.1490
C11 C 0.8993(5) 1.1665(4) 0.0455(2)
H12 H 0.9427 1.1299 0.0092
H13 H 0.9100 1.2483 0.0420
H14 H 0.7893 1.1470 0.0428
C12 C 0.6638(4) 0.6324(3) 0.11002(18)
C13 C 0.4115(5) 0.5310(5) 0.0990(3)
H15 H 0.4549 0.4818 0.0670
H16 H 0.3585 0.4833 0.1287
C14 C 0.3034(6) 0.6111(6) 0.0640(3)
H17 H 0.3510 0.6473 0.0287
H18 H 0.2771 0.6683 0.0952
H19 H 0.2089 0.5716 0.0446
C15 C 0.9133(4) 0.4763(3) 0.16058(17)
H20 H 0.9508 0.4842 0.1177
H21 H 0.8086 0.4443 0.1537
H22 H 0.9828 0.4264 0.1894
C16 C 0.9237(3) 0.5951(3) 0.32609(14)
C17 C 0.9725(4) 0.4886(3) 0.35190(15)
H23 H 0.9360 0.4228 0.3282
C18 C 1.0746(5) 0.4778(4) 0.41226(18)
H24 H 1.1080 0.4055 0.4282
C19 C 1.1259(5) 0.5735(4) 0.44810(18)
H25 H 1.1934 0.5666 0.4889
C20 C 1.0781(5) 0.6798(4) 0.42421(19)
H26 H 1.1126 0.7450 0.4489
C21 C 0.9787(4) 0.6905(3) 0.36338(17)
H27 H 0.9483 0.7633 0.3473
loop_
_geom_bond_atom_site_label_1
_geom_bond_atom_site_label_2
_geom_bond_site_symmetry_1
_geom_bond_site_symmetry_2
O1 C9 1_555 1_555
O2 C9 1_555 1_555
O3 C12 1_555 1_555
O4 C12 1_555 1_555
N1 H1 1_555 1_555
C1 N1 1_555 1_555
C2 C1 1_555 1_555
C3 C2 1_555 1_555
H2 C3 1_555 1_555
H3 C3 1_555 1_555
C4 C3 1_555 1_555
C5 N1 1_555 1_555
C6 C5 1_555 1_555
H4 C6 1_555 1_555
C7 C4 1_555 1_555
H5 C7 1_555 1_555
H6 C7 1_555 1_555
C8 C1 1_555 1_555
H7 C8 1_555 1_555
H8 C8 1_555 1_555
H9 C8 1_555 1_555
C9 C2 1_555 1_555
C10 O2 1_555 1_555
H10 C10 1_555 1_555
H11 C10 1_555 1_555
C11 C10 1_555 1_555
H12 C11 1_555 1_555
H13 C11 1_555 1_555
H14 C11 1_555 1_555
C12 C4 1_555 1_555
C13 O4 1_555 1_555
H15 C13 1_555 1_555
H16 C13 1_555 1_555
C14 C13 1_555 1_555
H17 C14 1_555 1_555
H18 C14 1_555 1_555
H19 C14 1_555 1_555
C15 C5 1_555 1_555
H20 C15 1_555 1_555
H21 C15 1_555 1_555
H22 C15 1_555 1_555
C16 C6 1_555 1_555
C17 C16 1_555 1_555
H23 C17 1_555 1_555
C18 C17 1_555 1_555
H24 C18 1_555 1_555
C19 C18 1_555 1_555
H25 C19 1_555 1_555
C20 C19 1_555 1_555
H26 C20 1_555 1_555
C21 C16 1_555 1_555
H27 C21 1_555 1_555
C4 C5 1_555 1_555
C6 C7 1_555 1_555
C20 C21 1_555 1_555

#END
