
#######################################################################
#
#                 Cambridge Crystallographic Data Centre
#                                CCDC 
#
#######################################################################
#
# If this CIF has been generated from an entry in the Cambridge 
# Structural Database, then it will include bibliographic, chemical, 
# crystal, experimental, refinement or atomic coordinate data resulting 
# from the CCDC's data processing and validation procedures.
#
#######################################################################

data_OGACAC
_chemical_formula_moiety         'C23 H30 O3'
_chemical_name_systematic        
14\b-Hydrogen-15\b,16\b-methano-3-oxo-17\b-pregn-4-ene-21,17-carbolactone
_symmetry_cell_setting           orthorhombic
_symmetry_space_group_name_H-M   'P 21 21 21'
_symmetry_Int_Tables_number      19
_space_group_name_Hall           'P 2ac 2ab'
loop_
_symmetry_equiv_pos_site_id
_symmetry_equiv_pos_as_xyz
1 x,y,z
2 1/2-x,-y,1/2+z
3 -x,1/2+y,1/2-z
4 1/2+x,1/2-y,-z
_cell_length_a                   6.2123(8)
_cell_length_b                   14.7435(19)
_cell_length_c                   20.723(3)
_cell_angle_alpha                90
_cell_angle_beta                 90
_cell_angle_gamma                90
_cell_volume                     1898.04
_cell_formula_units_Z            4
loop_
_atom_site_label
_atom_site_type_symbol
_atom_site_fract_x
_atom_site_fract_y
_atom_site_fract_z
C1 C 1.0127(3) 1.05415(14) 1.09681(9)
H1 H 1.0679 0.9983 1.1151
H2 H 1.1324 1.0859 1.0770
C2 C 0.9207(4) 1.11281(15) 1.15111(9)
H3 H 0.8130 1.0784 1.1746
H4 H 1.0350 1.1284 1.1810
C3 C 0.8217(4) 1.19728(15) 1.12585(10)
C4 C 0.7178(3) 1.19021(13) 1.06301(9)
H5 H 0.6442 1.2407 1.0476
C5 C 0.7216(3) 1.11566(11) 1.02602(8)
C6 C 0.5914(3) 1.11093(13) 0.96536(9)
H6 H 0.5379 1.1710 0.9551
H7 H 0.4682 1.0718 0.9724
C7 C 0.7208(3) 1.07518(12) 0.90855(8)
H8 H 0.8329 1.1183 0.8976
H9 H 0.6272 1.0687 0.8714
C8 C 0.8222(2) 0.98392(10) 0.92448(7)
H10 H 0.7047 0.9424 0.9356
C9 C 0.9664(3) 0.99217(11) 0.98432(7)
H11 H 1.0799 1.0357 0.9735
C10 C 0.8467(3) 1.03099(11) 1.04463(8)
C11 C 1.0783(3) 0.90185(13) 0.99813(9)
H12 H 1.1794 0.9099 1.0333
H13 H 0.9718 0.8577 1.0116
C12 C 1.1983(3) 0.86561(13) 0.93916(9)
H14 H 1.2644 0.8080 0.9502
H15 H 1.3125 0.9076 0.9280
C13 C 1.0519(3) 0.85216(11) 0.88002(8)
C14 C 0.9389(2) 0.94349(10) 0.86639(7)
H16 H 0.8307 0.9326 0.8329
C15 C 1.1165(3) 1.00168(11) 0.83632(8)
H17 H 1.1725 1.0540 0.8602
C16 C 1.2714(3) 0.93691(12) 0.80486(9)
H18 H 1.4260 0.9491 0.8086
C17 C 1.1918(3) 0.84173(12) 0.81826(9)
C18 C 0.8950(3) 0.77387(12) 0.89257(11)
H19 H 0.9744 0.7185 0.8978
H20 H 0.7982 0.7681 0.8567
H21 H 0.8143 0.7860 0.9311
C19 C 0.6818(3) 0.96218(13) 1.07149(10)
H22 H 0.5957 0.9909 1.1041
H23 H 0.7567 0.9115 1.0899
H24 H 0.5905 0.9414 1.0371
C20 C 1.0831(4) 0.79503(14) 0.76033(10)
H25 H 0.9280 0.7936 0.7656
H26 H 1.1173 0.8262 0.7204
C21 C 1.1746(4) 0.70110(15) 0.76044(13)
H27 H 1.0710 0.6584 0.7779
H28 H 1.2114 0.6825 0.7169
C22 C 1.3684(4) 0.70399(13) 0.80112(9)
C23 C 1.1376(3) 0.99922(13) 0.76434(9)
H29 H 1.0203 0.9729 0.7398
H30 H 1.2095 1.0497 0.7435
O1 O 0.8192(4) 1.26756(11) 1.15671(8)
O2 O 1.5038(3) 0.64717(10) 0.80960(8)
O3 O 1.3788(2) 0.78441(9) 0.83158(7)
loop_
_geom_bond_atom_site_label_1
_geom_bond_atom_site_label_2
_geom_bond_site_symmetry_1
_geom_bond_site_symmetry_2
C1 H1 1_555 1_555
H2 C1 1_555 1_555
C2 C1 1_555 1_555
H3 C2 1_555 1_555
H4 C2 1_555 1_555
C3 C2 1_555 1_555
C4 C3 1_555 1_555
H5 C4 1_555 1_555
C5 C4 1_555 1_555
C6 C5 1_555 1_555
H6 C6 1_555 1_555
H7 C6 1_555 1_555
C7 C6 1_555 1_555
H8 C7 1_555 1_555
H9 C7 1_555 1_555
C8 C7 1_555 1_555
H10 C8 1_555 1_555
C9 C8 1_555 1_555
H11 C9 1_555 1_555
C10 C1 1_555 1_555
C11 C9 1_555 1_555
H12 C11 1_555 1_555
H13 C11 1_555 1_555
C12 C11 1_555 1_555
H14 C12 1_555 1_555
H15 C12 1_555 1_555
C13 C12 1_555 1_555
C14 C8 1_555 1_555
H16 C14 1_555 1_555
C15 C14 1_555 1_555
H17 C15 1_555 1_555
C16 C15 1_555 1_555
H18 C16 1_555 1_555
C17 C13 1_555 1_555
C18 C13 1_555 1_555
H19 C18 1_555 1_555
H20 C18 1_555 1_555
H21 C18 1_555 1_555
C19 C10 1_555 1_555
H22 C19 1_555 1_555
H23 C19 1_555 1_555
H24 C19 1_555 1_555
C20 C17 1_555 1_555
H25 C20 1_555 1_555
H26 C20 1_555 1_555
C21 C20 1_555 1_555
H27 C21 1_555 1_555
H28 C21 1_555 1_555
C22 C21 1_555 1_555
C23 C15 1_555 1_555
H29 C23 1_555 1_555
H30 C23 1_555 1_555
O1 C3 1_555 1_555
O2 C22 1_555 1_555
O3 C17 1_555 1_555
C5 C10 1_555 1_555
C9 C10 1_555 1_555
C13 C14 1_555 1_555
C16 C17 1_555 1_555
C16 C23 1_555 1_555
C22 O3 1_555 1_555

#END
