
#######################################################################
#
#                 Cambridge Crystallographic Data Centre
#                                CCDC 
#
#######################################################################
#
# If this CIF has been generated from an entry in the Cambridge 
# Structural Database, then it will include bibliographic, chemical, 
# crystal, experimental, refinement or atomic coordinate data resulting 
# from the CCDC's data processing and validation procedures.
#
#######################################################################

data_OGAGEK
_chemical_formula_moiety         'C19 H18 I1 N3 O2'
_chemical_name_systematic        
2-(2-Cyclopropyl-1-(3,4-dimethoxyphenyl)-2-iodovinyl)-2H-benzotriazole
_symmetry_cell_setting           monoclinic
_symmetry_space_group_name_H-M   'P 21/c'
_symmetry_Int_Tables_number      14
_space_group_name_Hall           '-P 2ybc'
loop_
_symmetry_equiv_pos_site_id
_symmetry_equiv_pos_as_xyz
1 x,y,z
2 -x,1/2+y,1/2-z
3 -x,-y,-z
4 x,1/2-y,1/2+z
_cell_length_a                   14.964(3)
_cell_length_b                   7.6020(15)
_cell_length_c                   16.564(3)
_cell_angle_alpha                90
_cell_angle_beta                 103.44(3)
_cell_angle_gamma                90
_cell_volume                     1832.66
_cell_formula_units_Z            4
loop_
_atom_site_label
_atom_site_type_symbol
_atom_site_fract_x
_atom_site_fract_y
_atom_site_fract_z
I1 I 0.19817(4) 0.14746(8) 0.83516(3)
N1 N 0.2873(3) -0.1241(6) 1.0700(3)
O1 O -0.1018(3) -0.4187(7) 0.8721(3)
C1 C 0.3727(4) -0.2681(8) 1.1646(4)
O2 O 0.0175(3) -0.4304(7) 0.7821(3)
N2 N 0.3463(3) -0.2563(7) 1.0807(3)
C2 C 0.4336(5) -0.3849(10) 1.2163(5)
H1 H 0.4657 -0.4704 1.1944
N3 N 0.2724(4) -0.0459(7) 1.1372(3)
C3 C 0.4433(6) -0.3665(11) 1.2999(5)
H2 H 0.4819 -0.4432 1.3357
C4 C 0.3971(5) -0.2363(13) 1.3334(4)
H3 H 0.4073 -0.2277 1.3908
C5 C 0.3378(5) -0.1216(11) 1.2859(4)
H4 H 0.3066 -0.0368 1.3091
C6 C 0.3263(4) -0.1387(8) 1.1992(4)
C7 C 0.2377(4) -0.0718(8) 0.9860(3)
C8 C 0.1493(4) -0.1702(8) 0.9587(4)
C9 C 0.0868(4) -0.1741(9) 1.0072(4)
H5 H 0.1016 -0.1212 1.0593
C10 C 0.0019(4) -0.2551(9) 0.9806(4)
H6 H -0.0403 -0.2520 1.0139
C11 C -0.0199(4) -0.3398(8) 0.9055(4)
C12 C 0.0443(4) -0.3418(8) 0.8565(4)
C13 C 0.1285(4) -0.2591(9) 0.8826(4)
H7 H 0.1710 -0.2626 0.8496
C14 C -0.1725(5) -0.4008(10) 0.9152(5)
H8 H -0.2267 -0.4597 0.8850
H9 H -0.1856 -0.2783 0.9205
H10 H -0.1530 -0.4522 0.9694
C15 C 0.0689(5) -0.4039(11) 0.7210(4)
H11 H 0.0428 -0.4728 0.6727
H12 H 0.1314 -0.4392 0.7428
H13 H 0.0671 -0.2817 0.7061
C16 C 0.2725(4) 0.0570(8) 0.9511(3)
C17 C 0.3701(4) 0.1578(7) 0.9909(3)
H14 H 0.4077 0.1049 1.0415
C18 C 0.3709(6) 0.3442(10) 0.9880(5)
H15 H 0.4078 0.4066 1.0352
H16 H 0.3149 0.4036 0.9600
C19 C 0.4194(5) 0.2343(10) 0.9369(5)
H17 H 0.3931 0.2271 0.8777
H18 H 0.4860 0.2301 0.9529
loop_
_geom_bond_atom_site_label_1
_geom_bond_atom_site_label_2
_geom_bond_site_symmetry_1
_geom_bond_site_symmetry_2
I1 C16 1_555 1_555
N1 N2 1_555 1_555
O1 C11 1_555 1_555
C1 N2 1_555 1_555
O2 C12 1_555 1_555
C2 C1 1_555 1_555
H1 C2 1_555 1_555
N3 N1 1_555 1_555
C3 C2 1_555 1_555
H2 C3 1_555 1_555
C4 C3 1_555 1_555
H3 C4 1_555 1_555
C5 C4 1_555 1_555
H4 C5 1_555 1_555
C6 C1 1_555 1_555
C7 N1 1_555 1_555
C8 C7 1_555 1_555
C9 C8 1_555 1_555
H5 C9 1_555 1_555
C10 C9 1_555 1_555
H6 C10 1_555 1_555
C11 C10 1_555 1_555
C12 C11 1_555 1_555
C13 C8 1_555 1_555
H7 C13 1_555 1_555
C14 O1 1_555 1_555
H8 C14 1_555 1_555
H9 C14 1_555 1_555
H10 C14 1_555 1_555
C15 O2 1_555 1_555
H11 C15 1_555 1_555
H12 C15 1_555 1_555
H13 C15 1_555 1_555
C16 C7 1_555 1_555
C17 C16 1_555 1_555
H14 C17 1_555 1_555
C18 C17 1_555 1_555
H15 C18 1_555 1_555
H16 C18 1_555 1_555
C19 C17 1_555 1_555
H17 C19 1_555 1_555
H18 C19 1_555 1_555
N3 C6 1_555 1_555
C5 C6 1_555 1_555
C12 C13 1_555 1_555
C18 C19 1_555 1_555

#END
