
#######################################################################
#
#                 Cambridge Crystallographic Data Centre
#                                CCDC 
#
#######################################################################
#
# If this CIF has been generated from an entry in the Cambridge 
# Structural Database, then it will include bibliographic, chemical, 
# crystal, experimental, refinement or atomic coordinate data resulting 
# from the CCDC's data processing and validation procedures.
#
#######################################################################

data_OGAGOU
_chemical_formula_moiety         'C15 H12 I1 N3 O1'
_chemical_name_systematic        
2-(2-Iodo-1-(4-methoxyphenyl)vinyl)-2H-benzotriazole
_symmetry_cell_setting           monoclinic
_symmetry_space_group_name_H-M   'P 21/c'
_symmetry_Int_Tables_number      14
_space_group_name_Hall           '-P 2ybc'
loop_
_symmetry_equiv_pos_site_id
_symmetry_equiv_pos_as_xyz
1 x,y,z
2 -x,1/2+y,1/2-z
3 -x,-y,-z
4 x,1/2-y,1/2+z
_cell_length_a                   15.870(3)
_cell_length_b                   15.196(3)
_cell_length_c                   6.0290(12)
_cell_angle_alpha                90
_cell_angle_beta                 90.95(3)
_cell_angle_gamma                90
_cell_volume                     1453.76
_cell_formula_units_Z            4
loop_
_atom_site_label
_atom_site_type_symbol
_atom_site_fract_x
_atom_site_fract_y
_atom_site_fract_z
I1 I 0.35309(4) 0.82744(4) 0.23488(9)
O1 O -0.0436(4) 0.8356(4) 0.5119(12)
C1 C 0.3793(6) 1.0777(6) 1.0241(14)
N1 N 0.2502(4) 1.0375(4) 0.9054(11)
N2 N 0.3113(4) 1.0030(4) 0.7857(10)
C2 C 0.4382(7) 1.1202(6) 1.1635(16)
H1 H 0.4956 1.1159 1.1375
C3 C 0.4095(8) 1.1674(6) 1.3361(17)
H2 H 0.4474 1.1965 1.4299
N3 N 0.3883(5) 1.0233(5) 0.8469(12)
C4 C 0.3226(9) 1.1730(6) 1.3747(16)
H3 H 0.3057 1.2031 1.5006
C5 C 0.2608(7) 1.1374(6) 1.2412(16)
H4 H 0.2036 1.1455 1.2656
C6 C 0.2926(6) 1.0860(5) 1.0588(13)
C7 C 0.2924(6) 0.9437(5) 0.6083(13)
C8 C 0.2064(6) 0.9143(5) 0.5842(13)
C9 C 0.1629(6) 0.8688(6) 0.7471(13)
H5 H 0.1909 0.8553 0.8794
C10 C 0.0818(7) 0.8434(6) 0.7209(14)
H6 H 0.0551 0.8125 0.8328
C11 C 0.0383(6) 0.8641(6) 0.5244(14)
C12 C 0.0801(6) 0.9087(6) 0.3617(14)
H7 H 0.0520 0.9225 0.2297
C13 C 0.1607(7) 0.9327(6) 0.3905(14)
H8 H 0.1873 0.9629 0.2769
C14 C -0.0922(6) 0.8534(7) 0.3172(16)
H9 H -0.1477 0.8294 0.3328
H10 H -0.0657 0.8270 0.1917
H11 H -0.0960 0.9159 0.2955
C15 C 0.3604(6) 0.9205(5) 0.4843(13)
H12 H 0.4118 0.9478 0.5134
loop_
_geom_bond_atom_site_label_1
_geom_bond_atom_site_label_2
_geom_bond_site_symmetry_1
_geom_bond_site_symmetry_2
I1 C15 1_555 1_555
O1 C11 1_555 1_555
C1 C2 1_555 1_555
N1 N2 1_555 1_555
N2 N3 1_555 1_555
C2 H1 1_555 1_555
C3 C2 1_555 1_555
H2 C3 1_555 1_555
N3 C1 1_555 1_555
C4 C3 1_555 1_555
H3 C4 1_555 1_555
C5 C4 1_555 1_555
H4 C5 1_555 1_555
C6 C1 1_555 1_555
C7 N2 1_555 1_555
C8 C7 1_555 1_555
C9 C8 1_555 1_555
H5 C9 1_555 1_555
C10 C9 1_555 1_555
H6 C10 1_555 1_555
C11 C10 1_555 1_555
C12 C11 1_555 1_555
H7 C12 1_555 1_555
C13 C8 1_555 1_555
H8 C13 1_555 1_555
C14 O1 1_555 1_555
H9 C14 1_555 1_555
H10 C14 1_555 1_555
H11 C14 1_555 1_555
C15 C7 1_555 1_555
H12 C15 1_555 1_555
N1 C6 1_555 1_555
C5 C6 1_555 1_555
C12 C13 1_555 1_555

#END
