
#######################################################################
#
#                 Cambridge Crystallographic Data Centre
#                                CCDC 
#
#######################################################################
#
# If this CIF has been generated from an entry in the Cambridge 
# Structural Database, then it will include bibliographic, chemical, 
# crystal, experimental, refinement or atomic coordinate data resulting 
# from the CCDC's data processing and validation procedures.
#
#######################################################################

data_OGAVUO
_chemical_formula_moiety         'C14 H13 N3 O1'
_chemical_name_systematic        
8-Methoxy-3-methyl-5-phenylimidazo[1,5-a]pyrazine
_symmetry_cell_setting           monoclinic
_symmetry_space_group_name_H-M   'C 2/m'
_symmetry_Int_Tables_number      12
_space_group_name_Hall           '-C 2y'
loop_
_symmetry_equiv_pos_site_id
_symmetry_equiv_pos_as_xyz
1 x,y,z
2 1/2+x,1/2+y,z
3 -x,y,-z
4 1/2-x,1/2+y,-z
5 -x,-y,-z
6 1/2-x,1/2-y,-z
7 x,-y,z
8 1/2+x,1/2-y,z
_cell_length_a                   32.053(3)
_cell_length_b                   6.9499(6)
_cell_length_c                   11.3869(9)
_cell_angle_alpha                90
_cell_angle_beta                 103.186(3)
_cell_angle_gamma                90
_cell_volume                     2469.73
_exptl_crystal_colour            colorless
_exptl_crystal_description       needle
_chemical_melting_point          '136-137 deg.C'
_cell_formula_units_Z            8
_exptl_crystal_recrystallization_method 'hexanes/ethyl acetate'
loop_
_atom_site_label
_atom_site_type_symbol
_atom_site_fract_x
_atom_site_fract_y
_atom_site_fract_z
O1 O 0.24427(8) 0.0000 0.28574(19)
N1 N 0.12957(8) 0.0000 0.1811(2)
N2 N 0.19242(9) 0.0000 0.3945(2)
N3 N 0.13389(11) 0.0000 -0.0103(2)
C1 C 0.11723(11) 0.0000 0.2916(3)
C2 C 0.14910(12) 0.0000 0.3893(3)
H1 H 0.1412 0.0000 0.4630
C3 C 0.20291(11) 0.0000 0.2915(4)
C4 C 0.17306(11) 0.0000 0.1786(3)
C5 C 0.17425(12) 0.0000 0.0603(3)
H2 H 0.1992 0.0000 0.0316
C6 C 0.10729(11) 0.0000 0.0634(3)
C7 C 0.27520(15) 0.0000 0.4008(5)
H3 H 0.2721(10) -0.125(5) 0.442(3)
H4 H 0.3019(12) 0.0000 0.381(3)
C8 C 0.07163(11) 0.0000 0.2980(2)
C9 C 0.05026(8) 0.1697(4) 0.3049(2)
H5 H 0.0639 0.2862 0.2991
C10 C 0.00862(9) 0.1693(4) 0.3202(2)
H6 H -0.0055 0.2850 0.3248
C11 C -0.01152(16) 0.0000 0.3285(3)
H7 H -0.0404(13) 0.0000 0.342(3)
C12 C 0.05997(14) 0.0000 0.0231(4)
H8 H 0.0534(10) 0.0000 -0.063(3)
H9 H 0.0471(8) 0.114(4) 0.049(2)
H3F H 0.2721(10) 0.125(5) 0.442(3)
C9F C 0.05026(8) -0.1697(4) 0.3049(2)
H5F H 0.0639 -0.2862 0.2991
C10F C 0.00862(9) -0.1693(4) 0.3202(2)
H6F H -0.0055 -0.2850 0.3248
H9F H 0.0471(8) -0.114(4) 0.049(2)
O2 O 0.26353(9) 0.0000 -0.2727(2)
N4 N 0.26804(8) 0.0000 -0.0690(3)
N5 N 0.35728(9) 0.0000 -0.0302(3)
N6 N 0.39989(11) 0.0000 -0.1582(3)
C13 C 0.33804(12) 0.0000 0.0690(3)
C14 C 0.29557(13) 0.0000 0.0442(3)
H10 H 0.2829 0.0000 0.1099
C15 C 0.28657(13) 0.0000 -0.1581(4)
C16 C 0.33118(12) 0.0000 -0.1466(3)
C17 C 0.35883(16) 0.0000 -0.2218(3)
H11 H 0.3505 0.0000 -0.3055
C18 C 0.39871(12) 0.0000 -0.0431(4)
C19 C 0.36445(10) 0.0000 0.1940(3)
C20 C 0.37607(7) 0.1708(4) 0.2541(3)
H12 H 0.3688 0.2872 0.2145
C21 C 0.39856(8) 0.1691(4) 0.3733(3)
H13 H 0.4061 0.2849 0.4135
C22 C 0.40975(13) 0.0000 0.4325(5)
H14 H 0.4252(10) 0.0000 0.512(3)
C23 C 0.21789(18) 0.0000 -0.2873(6)
H15 H 0.2089(16) 0.0000 -0.369(5)
H16 H 0.2097(10) 0.119(5) -0.259(3)
C24 C 0.43708(15) 0.0000 0.0586(5)
H17 H 0.4592(12) 0.0000 0.022(3)
H18 H 0.4390(8) 0.115(4) 0.106(3)
C20F C 0.37607(7) -0.1708(4) 0.2541(3)
H12F H 0.3688 -0.2872 0.2145
C21F C 0.39856(8) -0.1691(4) 0.3733(3)
H13F H 0.4061 -0.2849 0.4135
H16F H 0.2097(10) -0.119(5) -0.259(3)
H18F H 0.4390(8) -0.115(4) 0.106(3)
loop_
_geom_bond_atom_site_label_1
_geom_bond_atom_site_label_2
_geom_bond_site_symmetry_1
_geom_bond_site_symmetry_2
O1 C3 1_555 1_555
O2 C15 1_555 1_555
N1 C1 1_555 1_555
N2 C2 1_555 1_555
N3 C5 1_555 1_555
N4 C14 1_555 1_555
N5 C13 1_555 1_555
N6 C17 1_555 1_555
C1 C2 1_555 1_555
C2 H1 1_555 1_555
C3 N2 1_555 1_555
C4 N1 1_555 1_555
C5 C4 1_555 1_555
H2 C5 1_555 1_555
C6 N1 1_555 1_555
C7 O1 1_555 1_555
H3 C7 1_555 1_555
H4 C7 1_555 1_555
C8 C1 1_555 1_555
C9 C8 1_555 1_555
H5 C9 1_555 1_555
C10 C9 1_555 1_555
H6 C10 1_555 1_555
C11 C10 1_555 1_555
H7 C11 1_555 1_555
C12 C6 1_555 1_555
H8 C12 1_555 1_555
H9 C12 1_555 1_555
C13 C14 1_555 1_555
C14 H10 1_555 1_555
C15 N4 1_555 1_555
C16 N5 1_555 1_555
C17 C16 1_555 1_555
H11 C17 1_555 1_555
C18 N5 1_555 1_555
C19 C13 1_555 1_555
C20 C19 1_555 1_555
H12 C20 1_555 1_555
C21 C20 1_555 1_555
H13 C21 1_555 1_555
C22 C21 1_555 1_555
H14 C22 1_555 1_555
C23 O2 1_555 1_555
H15 C23 1_555 1_555
H16 C23 1_555 1_555
C24 C18 1_555 1_555
H17 C24 1_555 1_555
H18 C24 1_555 1_555
H3F C7 1_555 1_555
C9F C8 1_555 1_555
H5F C9F 1_555 1_555
C10F C11 1_555 1_555
H6F C10F 1_555 1_555
H9F C12 1_555 1_555
C20F C19 1_555 1_555
H12F C20F 1_555 1_555
C21F C22 1_555 1_555
H13F C21F 1_555 1_555
H16F C23 1_555 1_555
H18F C24 1_555 1_555
N3 C6 1_555 1_555
N6 C18 1_555 1_555
C3 C4 1_555 1_555
C15 C16 1_555 1_555
C9F C10F 1_555 1_555
C20F C21F 1_555 1_555

#END
