
#######################################################################
#
#                 Cambridge Crystallographic Data Centre
#                                CCDC 
#
#######################################################################
#
# If this CIF has been generated from an entry in the Cambridge 
# Structural Database, then it will include bibliographic, chemical, 
# crystal, experimental, refinement or atomic coordinate data resulting 
# from the CCDC's data processing and validation procedures.
#
#######################################################################

data_OGECEJ
_chemical_formula_moiety         'C19 H13 Cl1 F2 N2 O3'
_chemical_name_systematic        
'(Z)-Ethyl 3-(4-chlorophenyl)-2-cyano-3-(2,6-difluorobenzamido)acrylate'
_chemical_properties_biological  
'inhibitor of Pyricularia oryzae, Rhizoctonia solani, Botrytis cinerea and Gibberella zeae'
_symmetry_cell_setting           triclinic
_symmetry_space_group_name_H-M   'P -1'
_symmetry_Int_Tables_number      2
_space_group_name_Hall           '-P 1'
loop_
_symmetry_equiv_pos_site_id
_symmetry_equiv_pos_as_xyz
1 x,y,z
2 -x,-y,-z
_cell_length_a                   8.919(5)
_cell_length_b                   9.7560(6)
_cell_length_c                   11.2717(7)
_cell_angle_alpha                91.9710(10)
_cell_angle_beta                 110.0940(10)
_cell_angle_gamma                91.4490(10)
_cell_volume                     919.828
_exptl_crystal_colour            colorless
_exptl_crystal_description       block
_cell_formula_units_Z            2
_exptl_crystal_recrystallization_method 'ethyl acetate/petroleum ether'
loop_
_atom_site_label
_atom_site_type_symbol
_atom_site_fract_x
_atom_site_fract_y
_atom_site_fract_z
C1 C 0.7937(2) 0.8595(2) 0.98955(19)
C2 C 0.9102(3) 0.7653(3) 1.0005(2)
C3 C 1.0531(3) 0.7682(3) 1.0992(3)
H1 H 1.1291 0.7036 1.1024
C4 C 1.0803(3) 0.8678(3) 1.1917(3)
H2 H 1.1756 0.8699 1.2601
C5 C 0.9711(3) 0.9653(3) 1.1869(2)
H3 H 0.9911 1.0336 1.2506
C6 C 0.8309(3) 0.9595(2) 1.0850(2)
C7 C 0.6359(3) 0.8440(2) 0.8831(2)
C8 C 0.4458(2) 0.97457(19) 0.71787(19)
C9 C 0.3884(2) 0.85359(19) 0.62766(19)
C10 C 0.2296(3) 0.8088(2) 0.5863(2)
H4 H 0.1586 0.8521 0.6180
C11 C 0.1759(3) 0.7012(2) 0.4989(2)
H5 H 0.0695 0.6703 0.4725
C12 C 0.2800(4) 0.6397(2) 0.4511(2)
C13 C 0.4383(3) 0.6827(2) 0.4905(2)
H6 H 0.5082 0.6400 0.4573
C14 C 0.4923(3) 0.7894(2) 0.5793(2)
H7 H 0.5994 0.8184 0.6069
C15 C 0.3749(2) 1.09761(19) 0.6912(2)
C16 C 0.2483(2) 1.1126(2) 0.5730(2)
C17 C 0.4278(3) 1.2223(2) 0.7746(2)
C18 C 0.3811(12) 1.4663(7) 0.7837(10)
H8 H 0.3563 1.5287 0.7150
H9 H 0.4946 1.4746 0.8316
C19 C 0.2853(15) 1.4949(11) 0.8666(11)
H10 H 0.1736 1.4875 0.8169
H11 H 0.3120 1.5860 0.9044
H12 H 0.3087 1.4296 0.9317
Cl1 Cl 0.21456(12) 0.50444(8) 0.33944(8)
F1 F 0.72205(17) 1.05606(16) 1.07956(13)
F2 F 0.8855(2) 0.66854(19) 0.90845(19)
N1 N 0.57876(19) 0.96329(16) 0.82386(16)
H18 H 0.6319 1.0382 0.8567
N2 N 0.1517(2) 1.1285(2) 0.4780(2)
O1 O 0.5673(2) 0.73410(15) 0.85157(17)
O2 O 0.5482(2) 1.23045(16) 0.86745(17)
O3 O 0.3324(2) 1.32363(15) 0.73535(19)
H13? H 0.3968 1.4029 0.9188
H14? H 0.4638 1.4940 0.8343
H15? H 0.1927 1.5423 0.7192
H16? H 0.2613 1.6103 0.8561
H17? H 0.1498 1.4776 0.8294
loop_
_geom_bond_atom_site_label_1
_geom_bond_atom_site_label_2
_geom_bond_site_symmetry_1
_geom_bond_site_symmetry_2
C1 C2 1_555 1_555
C2 C3 1_555 1_555
C3 H1 1_555 1_555
C4 C3 1_555 1_555
H2 C4 1_555 1_555
C5 C4 1_555 1_555
H3 C5 1_555 1_555
C6 C1 1_555 1_555
C7 C1 1_555 1_555
C8 C9 1_555 1_555
C9 C10 1_555 1_555
C10 H4 1_555 1_555
C11 C10 1_555 1_555
H5 C11 1_555 1_555
C12 C11 1_555 1_555
C13 C12 1_555 1_555
H6 C13 1_555 1_555
C14 C9 1_555 1_555
H7 C14 1_555 1_555
C15 C8 1_555 1_555
C16 C15 1_555 1_555
C17 C15 1_555 1_555
C18 H8 1_555 1_555
H9 C18 1_555 1_555
C19 C18 1_555 1_555
H10 C19 1_555 1_555
H11 C19 1_555 1_555
H12 C19 1_555 1_555
Cl1 C12 1_555 1_555
F1 C6 1_555 1_555
F2 C2 1_555 1_555
N1 C7 1_555 1_555
H18 N1 1_555 1_555
N2 C16 1_555 1_555
O1 C7 1_555 1_555
O2 C17 1_555 1_555
O3 C17 1_555 1_555
C5 C6 1_555 1_555
C8 N1 1_555 1_555
C13 C14 1_555 1_555
C18 O3 1_555 1_555

#END
