
#######################################################################
#
#                 Cambridge Crystallographic Data Centre
#                                CCDC 
#
#######################################################################
#
# If this CIF has been generated from an entry in the Cambridge 
# Structural Database, then it will include bibliographic, chemical, 
# crystal, experimental, refinement or atomic coordinate data resulting 
# from the CCDC's data processing and validation procedures.
#
#######################################################################

data_OGEDOU
_chemical_formula_moiety         'C12 H15 Br1 N4 O2'
_chemical_name_systematic        
't-Butyl N-(5-bromo-1H-imidazo(4,5-b)pyridin-2-ylmethyl)carbamate'
_symmetry_cell_setting           orthorhombic
_symmetry_space_group_name_H-M   'P b c a'
_symmetry_Int_Tables_number      61
_space_group_name_Hall           '-P 2ac 2ab'
loop_
_symmetry_equiv_pos_site_id
_symmetry_equiv_pos_as_xyz
1 x,y,z
2 1/2-x,-y,1/2+z
3 -x,1/2+y,1/2-z
4 1/2+x,1/2-y,-z
5 -x,-y,-z
6 1/2+x,y,1/2-z
7 x,1/2-y,1/2+z
8 1/2-x,1/2+y,z
_cell_length_a                   10.7400(11)
_cell_length_b                   9.6717(9)
_cell_length_c                   28.215(3)
_cell_angle_alpha                90
_cell_angle_beta                 90
_cell_angle_gamma                90
_cell_volume                     2930.81
_exptl_crystal_colour            colorless
_exptl_crystal_description       plate
_chemical_melting_point          475-476K
_cell_formula_units_Z            8
_exptl_crystal_recrystallization_method dichloromethane/methanol
loop_
_atom_site_label
_atom_site_type_symbol
_atom_site_fract_x
_atom_site_fract_y
_atom_site_fract_z
Br1 Br 0.13230(4) 0.06577(4) 0.356022(12)
O1 O 0.2545(2) 0.37496(19) 0.61523(7)
O2 O 0.1723(2) 0.55519(18) 0.65633(7)
N1 N 0.0365(2) 0.3710(2) 0.45039(8)
N2 N 0.1726(2) 0.4846(2) 0.50653(8)
N3 N 0.35221(19) 0.3775(2) 0.48963(8)
N4 N 0.2808(2) 0.5942(2) 0.59153(8)
C1 C 0.0386(3) 0.2736(3) 0.41650(10)
H1 H -0.0350 0.2529 0.4006
C2 C 0.1457(3) 0.2029(3) 0.40420(9)
C3 C 0.2584(3) 0.2271(3) 0.42539(9)
H2 H 0.3301 0.1795 0.4167
C4 C 0.2590(2) 0.3268(3) 0.46047(8)
C5 C 0.1455(2) 0.3930(3) 0.47101(9)
C6 C 0.2964(2) 0.4704(3) 0.51590(9)
C7 C 0.3610(2) 0.5565(3) 0.55229(10)
H3 H 0.4320 0.5056 0.5644
H4 H 0.3920 0.6400 0.5374
C8 C 0.2370(2) 0.4976(3) 0.62088(9)
C9 C 0.1098(3) 0.4696(3) 0.69213(10)
C10 C 0.2031(4) 0.3846(5) 0.71874(13)
H5 H 0.2389 0.3172 0.6978
H6 H 0.1625 0.3384 0.7446
H7 H 0.2675 0.4436 0.7308
C11 C 0.0119(4) 0.3815(5) 0.66859(16)
H8 H 0.0515 0.3131 0.6491
H9 H -0.0406 0.4389 0.6493
H10 H -0.0375 0.3366 0.6924
C12 C 0.0497(4) 0.5769(4) 0.72365(14)
H11 H 0.1132 0.6315 0.7386
H12 H 0.0005 0.5317 0.7474
H13 H -0.0027 0.6358 0.7049
H14 H 0.124(3) 0.537(3) 0.5189(11)
H15 H 0.272(2) 0.678(3) 0.5990(8)
loop_
_geom_bond_atom_site_label_1
_geom_bond_atom_site_label_2
_geom_bond_site_symmetry_1
_geom_bond_site_symmetry_2
Br1 C2 1_555 1_555
O1 C8 1_555 1_555
O2 C8 1_555 1_555
N1 C1 1_555 1_555
N2 C5 1_555 1_555
N3 C4 1_555 1_555
N4 C7 1_555 1_555
C1 H1 1_555 1_555
C2 C1 1_555 1_555
C3 C2 1_555 1_555
H2 C3 1_555 1_555
C4 C3 1_555 1_555
C5 N1 1_555 1_555
C6 N2 1_555 1_555
C7 C6 1_555 1_555
H3 C7 1_555 1_555
H4 C7 1_555 1_555
C8 N4 1_555 1_555
C9 O2 1_555 1_555
C10 C9 1_555 1_555
H5 C10 1_555 1_555
H6 C10 1_555 1_555
H7 C10 1_555 1_555
C11 C9 1_555 1_555
H8 C11 1_555 1_555
H9 C11 1_555 1_555
H10 C11 1_555 1_555
C12 C9 1_555 1_555
H11 C12 1_555 1_555
H12 C12 1_555 1_555
H13 C12 1_555 1_555
H14 N2 1_555 1_555
H15 N4 1_555 1_555
N3 C6 1_555 1_555
C4 C5 1_555 1_555

#END
