
#######################################################################
#
#                 Cambridge Crystallographic Data Centre
#                                CCDC 
#
#######################################################################
#
# If this CIF has been generated from an entry in the Cambridge 
# Structural Database, then it will include bibliographic, chemical, 
# crystal, experimental, refinement or atomic coordinate data resulting 
# from the CCDC's data processing and validation procedures.
#
#######################################################################

data_OGEGOY
_chemical_formula_moiety         'C26 H25 N3 O6 S1'
_chemical_name_systematic        
'Methyl 1-((4-methylphenyl)sulfonyl)-2-(4-nitrophenyl)-1,2,3,5,6,10b-hexahydroimidazo[2,1-a]isoquinoline-3-carboxylate'
_symmetry_cell_setting           monoclinic
_symmetry_space_group_name_H-M   'P 21/c'
_symmetry_Int_Tables_number      14
_space_group_name_Hall           '-P 2ybc'
loop_
_symmetry_equiv_pos_site_id
_symmetry_equiv_pos_as_xyz
1 x,y,z
2 -x,1/2+y,1/2-z
3 -x,-y,-z
4 x,1/2-y,1/2+z
_cell_length_a                   12.1265(5)
_cell_length_b                   9.3400(3)
_cell_length_c                   21.7279(7)
_cell_angle_alpha                90
_cell_angle_beta                 92.861(3)
_cell_angle_gamma                90
_cell_volume                     2457.87
_cell_formula_units_Z            4
loop_
_atom_site_label
_atom_site_type_symbol
_atom_site_fract_x
_atom_site_fract_y
_atom_site_fract_z
S1 S 0.64399(5) 0.45487(6) 0.20558(3)
O1 O 0.66784(14) 0.40081(18) 0.26635(7)
O2 O 1.0292(3) 0.7970(3) -0.00714(16)
O3 O 0.68124(14) 0.08812(18) -0.02697(7)
N1 N 0.69848(14) 0.34131(17) 0.15857(7)
O4 O 0.68260(14) 0.59327(16) 0.18871(8)
C1 C 0.50020(18) 0.4543(2) 0.19088(9)
C2 C 0.69268(17) 0.2086(2) 0.06728(9)
H1 H 0.7715 0.1924 0.0621
N2 N 0.65352(15) 0.12021(17) 0.11804(8)
O5 O 0.53684(17) 0.2219(2) -0.00632(9)
N3 N 0.9326(3) 0.7907(3) -0.02139(15)
C3 C 0.67306(17) 0.3604(2) 0.09136(9)
H2 H 0.5948 0.3847 0.0845
C4 C 0.2731(2) 0.4532(3) 0.16768(11)
C5 C 0.8709(2) 0.0261(2) 0.15620(10)
C6 C 0.74201(18) 0.4739(2) 0.06276(9)
C7 C 0.8934(2) 0.2204(2) 0.22758(11)
H3 H 0.8638 0.2977 0.2481
C8 C 0.4512(2) 0.5588(2) 0.15425(11)
H4 H 0.4939 0.6298 0.1371
C9 C 0.6939(2) 0.5672(2) 0.01993(11)
H5 H 0.6187 0.5604 0.0098
C10 C 0.8013(2) -0.0629(2) 0.11127(11)
H6 H 0.8234 -0.0434 0.0698
H7 H 0.8150 -0.1635 0.1197
C11 C 0.70659(17) 0.1860(2) 0.17320(9)
H8 H 0.6638 0.1645 0.2092
C12 C 0.6262(2) 0.1764(2) 0.00769(10)
C13 C 0.6797(2) -0.0334(2) 0.11460(11)
H9 H 0.6411 -0.0739 0.0785
H10 H 0.6528 -0.0810 0.1506
C14 C 0.6291(3) 0.0418(3) -0.08494(11)
H11 H 0.6829 -0.0037 -0.1093
H12 H 0.5986 0.1232 -0.1067
H13 H 0.5711 -0.0248 -0.0772
C15 C 0.82655(18) 0.1429(2) 0.18609(9)
C16 C 0.9825(2) -0.0054(3) 0.16746(13)
H14 H 1.0133 -0.0817 0.1468
C17 C 0.7557(3) 0.6704(3) -0.00808(12)
H15 H 0.7229 0.7327 -0.0369
C18 C 0.4362(2) 0.3496(3) 0.21567(12)
H16 H 0.4688 0.2787 0.2405
C19 C 0.3383(2) 0.5572(3) 0.14325(12)
H17 H 0.3053 0.6283 0.1187
C20 C 1.0028(2) 0.1850(3) 0.23896(13)
H18 H 1.0461 0.2371 0.2675
C21 C 1.0478(2) 0.0727(3) 0.20803(14)
H19 H 1.1221 0.0500 0.2147
C22 C 0.8651(3) 0.6789(3) 0.00730(13)
C23 C 0.9157(2) 0.5898(3) 0.04938(14)
H20 H 0.9909 0.5984 0.0592
O6 O 0.8832(3) 0.8725(3) -0.05802(14)
C24 C 0.3239(2) 0.3502(3) 0.20360(13)
H21 H 0.2814 0.2785 0.2203
C25 C 0.8539(2) 0.4862(3) 0.07745(12)
H22 H 0.8877 0.4246 0.1063
C26 C 0.1492(2) 0.4540(3) 0.15523(15)
H23 H 0.1258 0.3625 0.1393
H24 H 0.1297 0.5271 0.1256
H25 H 0.1136 0.4729 0.1929
loop_
_geom_bond_atom_site_label_1
_geom_bond_atom_site_label_2
_geom_bond_site_symmetry_1
_geom_bond_site_symmetry_2
S1 O1 1_555 1_555
O2 N3 1_555 1_555
O3 C12 1_555 1_555
N1 S1 1_555 1_555
O4 S1 1_555 1_555
C1 S1 1_555 1_555
C2 H1 1_555 1_555
N2 C2 1_555 1_555
O5 C12 1_555 1_555
N3 C22 1_555 1_555
C3 N1 1_555 1_555
H2 C3 1_555 1_555
C4 C19 1_555 1_555
C5 C10 1_555 1_555
C6 C3 1_555 1_555
C7 H3 1_555 1_555
C8 C1 1_555 1_555
H4 C8 1_555 1_555
C9 C6 1_555 1_555
H5 C9 1_555 1_555
C10 H6 1_555 1_555
H7 C10 1_555 1_555
C11 N1 1_555 1_555
H8 C11 1_555 1_555
C12 C2 1_555 1_555
C13 N2 1_555 1_555
H9 C13 1_555 1_555
H10 C13 1_555 1_555
C14 O3 1_555 1_555
H11 C14 1_555 1_555
H12 C14 1_555 1_555
H13 C14 1_555 1_555
C15 C5 1_555 1_555
C16 C5 1_555 1_555
H14 C16 1_555 1_555
C17 C9 1_555 1_555
H15 C17 1_555 1_555
C18 C1 1_555 1_555
H16 C18 1_555 1_555
C19 C8 1_555 1_555
H17 C19 1_555 1_555
C20 C7 1_555 1_555
H18 C20 1_555 1_555
C21 C16 1_555 1_555
H19 C21 1_555 1_555
C22 C17 1_555 1_555
C23 C22 1_555 1_555
H20 C23 1_555 1_555
O6 N3 1_555 1_555
C24 C4 1_555 1_555
H21 C24 1_555 1_555
C25 C6 1_555 1_555
H22 C25 1_555 1_555
C26 C4 1_555 1_555
H23 C26 1_555 1_555
H24 C26 1_555 1_555
H25 C26 1_555 1_555
C2 C3 1_555 1_555
N2 C11 1_555 1_555
C7 C15 1_555 1_555
C10 C13 1_555 1_555
C11 C15 1_555 1_555
C18 C24 1_555 1_555
C20 C21 1_555 1_555
C23 C25 1_555 1_555

#END
