
#######################################################################
#
#                 Cambridge Crystallographic Data Centre
#                                CCDC 
#
#######################################################################
#
# If this CIF has been generated from an entry in the Cambridge 
# Structural Database, then it will include bibliographic, chemical, 
# crystal, experimental, refinement or atomic coordinate data resulting 
# from the CCDC's data processing and validation procedures.
#
#######################################################################

data_OGEJAN
_chemical_formula_moiety         'C19 H26 N2 O8,3(H2 O1)'
_chemical_name_systematic        
"2,2',2'',2'''-((2,4,6-Trimethyl-1,3-phenylene)bis(methylenenitrilo))tetraacetic acid trihydrate"
_symmetry_cell_setting           orthorhombic
_symmetry_space_group_name_H-M   'A m a 2'
_symmetry_Int_Tables_number      40
_space_group_name_Hall           'A 2 -2a'
loop_
_symmetry_equiv_pos_site_id
_symmetry_equiv_pos_as_xyz
1 x,y,z
2 -x,-y,z
3 1/2+x,-y,z
4 1/2-x,y,z
5 x,1/2+y,1/2+z
6 -x,1/2-y,1/2+z
7 1/2+x,1/2-y,1/2+z
8 1/2-x,1/2+y,1/2+z
_cell_length_a                   20.451(4)
_cell_length_b                   11.840(2)
_cell_length_c                   8.9336(19)
_cell_angle_alpha                90
_cell_angle_beta                 90
_cell_angle_gamma                90
_cell_volume                     2163.18
_exptl_crystal_colour            brown
_exptl_crystal_description       BLOCK
_cell_formula_units_Z            4
loop_
_atom_site_label
_atom_site_type_symbol
_atom_site_fract_x
_atom_site_fract_y
_atom_site_fract_z
C1 C 0.40628(14) 0.0149(2) 0.3408(3)
C2 C 0.39769(15) 0.0896(2) 0.2040(3)
H1 H 0.4367 0.0853 0.1425
H2 H 0.3612 0.0621 0.1451
C3 C 0.44050(14) 0.2609(2) 0.3353(3)
H3 H 0.4714 0.2023 0.3631
H4 H 0.4634 0.3162 0.2746
C4 C 0.41440(15) 0.3167(2) 0.4736(4)
C5 C 0.37231(13) 0.2814(2) 0.1075(3)
H5 H 0.3706 0.3604 0.1358
H6 H 0.4081 0.2719 0.0374
C6 C 0.30954(13) 0.2499(2) 0.0318(3)
C7 C 0.30939(14) 0.1859(2) -0.0995(3)
C8 C 0.37081(15) 0.1439(3) -0.1757(4)
H7 H 0.3613 0.1261 -0.2782
H8 H 0.3863 0.0775 -0.1253
H9 H 0.4038 0.2016 -0.1717
C9 C 0.2500 0.1579(3) -0.1630(5)
H10 H 0.2500 0.1183 -0.2528
C10 C 0.2500 0.2879(3) 0.0926(4)
C11 C 0.2500 0.3700(4) 0.2204(6)
O1 O 0.39319(13) 0.0505(2) 0.4658(3)
O2 O 0.42800(12) -0.08373(17) 0.3120(3)
H11 H 0.4333 -0.1185 0.3905
O3 O 0.45913(11) 0.35153(19) 0.5642(3)
H12 H 0.4773 0.2971 0.6028
O4 O 0.35554(12) 0.3282(2) 0.4926(3)
N1 N 0.38556(11) 0.21015(18) 0.2466(3)
C1C C 0.09372(14) 0.0149(2) 0.3408(3)
C2C C 0.10231(15) 0.0896(2) 0.2040(3)
H1C H 0.0633 0.0853 0.1425
H2C H 0.1388 0.0621 0.1451
C3C C 0.05950(14) 0.2609(2) 0.3353(3)
H3C H 0.0286 0.2023 0.3631
H4C H 0.0366 0.3162 0.2746
C4C C 0.08560(15) 0.3167(2) 0.4736(4)
C5C C 0.12769(13) 0.2814(2) 0.1075(3)
H5C H 0.1294 0.3604 0.1358
H6C H 0.0919 0.2719 0.0374
C6C C 0.19046(13) 0.2499(2) 0.0318(3)
C7C C 0.19061(14) 0.1859(2) -0.0995(3)
C8C C 0.12919(15) 0.1439(3) -0.1757(4)
H7C H 0.1387 0.1261 -0.2782
H8C H 0.1137 0.0775 -0.1253
H9C H 0.0962 0.2016 -0.1717
O1C O 0.10681(13) 0.0505(2) 0.4658(3)
O2C O 0.07200(12) -0.08373(17) 0.3120(3)
H11C H 0.0667 -0.1185 0.3905
O3C O 0.04087(11) 0.35153(19) 0.5642(3)
H12C H 0.0227 0.2971 0.6028
O4C O 0.14446(12) 0.3282(2) 0.4926(3)
N1C N 0.11444(11) 0.21015(18) 0.2466(3)
O5 O 0.2500 0.1160(3) 0.3489(5)
H13 H 0.2500 0.0983 0.4368
H14 H 0.2500 0.0511 0.3087
O6 O 0.5000 0.0000 0.6710(4)
O7 O 0.2500 0.9298(3) 0.1642(5)
H15 H 0.2614 0.9533 0.1044
H15C H 0.2386 0.9533 0.1044
H16? H 0.2952 0.8929 0.0863
H17? H 0.2068 0.4002 0.2334
H18? H 0.2800 0.4304 0.1993
H19? H 0.2632 0.3320 0.3103
H20? H 0.5432 -0.0202 0.5821
H21? H 0.4884 0.0658 0.6431
loop_
_geom_bond_atom_site_label_1
_geom_bond_atom_site_label_2
_geom_bond_site_symmetry_1
_geom_bond_site_symmetry_2
C1 C2 1_555 1_555
C2 H1 1_555 1_555
H2 C2 1_555 1_555
C3 H3 1_555 1_555
H4 C3 1_555 1_555
C4 C3 1_555 1_555
C5 H5 1_555 1_555
H6 C5 1_555 1_555
C6 C5 1_555 1_555
C7 C6 1_555 1_555
C8 C7 1_555 1_555
H7 C8 1_555 1_555
H8 C8 1_555 1_555
H9 C8 1_555 1_555
C9 C7 1_555 1_555
H10 C9 1_555 1_555
C10 C6 1_555 1_555
C11 C10 1_555 1_555
O1 C1 1_555 1_555
O2 C1 1_555 1_555
H11 O2 1_555 1_555
O3 C4 1_555 1_555
H12 O3 1_555 1_555
O4 C4 1_555 1_555
N1 C2 1_555 1_555
O5 H13 1_555 1_555
H14 O5 1_555 1_555
O7 H15 1_555 1_555
C1C C2C 1_555 1_555
C2C H1C 1_555 1_555
H2C C2C 1_555 1_555
C3C H3C 1_555 1_555
H4C C3C 1_555 1_555
C4C C3C 1_555 1_555
C5C H5C 1_555 1_555
H6C C5C 1_555 1_555
C6C C10 1_555 1_555
C7C C9 1_555 1_555
C8C C7C 1_555 1_555
H7C C8C 1_555 1_555
H8C C8C 1_555 1_555
H9C C8C 1_555 1_555
O1C C1C 1_555 1_555
O2C C1C 1_555 1_555
H11C O2C 1_555 1_555
O3C C4C 1_555 1_555
H12C O3C 1_555 1_555
O4C C4C 1_555 1_555
N1C C2C 1_555 1_555
H15C O7 1_555 1_555
C3 N1 1_555 1_555
C5 N1 1_555 1_555
C3C N1C 1_555 1_555
C5C C6C 1_555 1_555
C5C N1C 1_555 1_555
C6C C7C 1_555 1_555

#END
