
#######################################################################
#
#                 Cambridge Crystallographic Data Centre
#                                CCDC 
#
#######################################################################
#
# If this CIF has been generated from an entry in the Cambridge 
# Structural Database, then it will include bibliographic, chemical, 
# crystal, experimental, refinement or atomic coordinate data resulting 
# from the CCDC's data processing and validation procedures.
#
#######################################################################

data_OGEKUH
_chemical_formula_moiety         'C11 H8 Cl1 N3 O1 S1'
_chemical_name_systematic        
N-((Z)-3-(4-Chlorobenzoyl)-1,3-thiazolidin-2-ylidene)cyanamide
_symmetry_cell_setting           monoclinic
_symmetry_space_group_name_H-M   'P 21/c'
_symmetry_Int_Tables_number      14
_space_group_name_Hall           '-P 2ybc'
loop_
_symmetry_equiv_pos_site_id
_symmetry_equiv_pos_as_xyz
1 x,y,z
2 -x,1/2+y,1/2-z
3 -x,-y,-z
4 x,1/2-y,1/2+z
_cell_length_a                   16.442(3)
_cell_length_b                   5.6798(11)
_cell_length_c                   13.313(3)
_cell_angle_alpha                90
_cell_angle_beta                 112.76(3)
_cell_angle_gamma                90
_cell_volume                     1146.46
_exptl_crystal_colour            colorless
_exptl_crystal_description       block
_cell_formula_units_Z            4
_exptl_crystal_recrystallization_method ethanol
loop_
_atom_site_label
_atom_site_type_symbol
_atom_site_fract_x
_atom_site_fract_y
_atom_site_fract_z
S1 S 0.07965(3) 0.52934(7) 0.33331(3)
Cl1 Cl 0.46689(3) 0.71315(8) 0.06338(3)
O1 O 0.27367(8) 1.17756(19) 0.37317(10)
N1 N 0.16368(9) 0.5912(2) 0.19639(11)
C1 C 0.40564(10) 0.7898(3) 0.13961(12)
N2 N 0.20390(8) 0.8283(2) 0.35254(10)
C2 C 0.15500(10) 0.6503(3) 0.28595(12)
C3 C 0.40148(10) 0.6326(3) 0.21690(12)
H1 H 0.4315 0.4901 0.2281
N3 N 0.08333(10) 0.2509(3) 0.08619(14)
C4 C 0.26182(10) 0.9843(3) 0.33103(12)
C5 C 0.30963(9) 0.9060(3) 0.26219(12)
C6 C 0.16984(11) 0.9017(3) 0.43566(13)
H2 H 0.1270 1.0272 0.4077
H3 H 0.2176 0.9574 0.5007
C7 C 0.31667(10) 1.0641(3) 0.18625(13)
H4 H 0.2896 1.2106 0.1779
C8 C 0.12728(11) 0.6865(3) 0.46101(13)
H5 H 0.0820 0.7312 0.4872
H6 H 0.1708 0.5901 0.5158
C9 C 0.11795(11) 0.4075(3) 0.14112(14)
C10 C 0.35225(10) 0.6895(3) 0.27740(12)
H7 H 0.3477 0.5833 0.3281
C11 C 0.36370(10) 1.0057(3) 0.12284(13)
H8 H 0.3669 1.1093 0.0704
loop_
_geom_bond_atom_site_label_1
_geom_bond_atom_site_label_2
_geom_bond_site_symmetry_1
_geom_bond_site_symmetry_2
S1 C2 1_555 1_555
Cl1 C1 1_555 1_555
O1 C4 1_555 1_555
N1 C2 1_555 1_555
C1 C3 1_555 1_555
N2 C2 1_555 1_555
C3 H1 1_555 1_555
N3 C9 1_555 1_555
C4 N2 1_555 1_555
C5 C4 1_555 1_555
C6 N2 1_555 1_555
H2 C6 1_555 1_555
H3 C6 1_555 1_555
C7 C5 1_555 1_555
H4 C7 1_555 1_555
C8 S1 1_555 1_555
H5 C8 1_555 1_555
H6 C8 1_555 1_555
C9 N1 1_555 1_555
C10 C3 1_555 1_555
H7 C10 1_555 1_555
C11 C1 1_555 1_555
H8 C11 1_555 1_555
C5 C10 1_555 1_555
C6 C8 1_555 1_555
C7 C11 1_555 1_555

#END
