
#######################################################################
#
#                 Cambridge Crystallographic Data Centre
#                                CCDC 
#
#######################################################################
#
# If this CIF has been generated from an entry in the Cambridge 
# Structural Database, then it will include bibliographic, chemical, 
# crystal, experimental, refinement or atomic coordinate data resulting 
# from the CCDC's data processing and validation procedures.
#
#######################################################################

data_OGELIY
_chemical_formula_moiety         'C40 H52 Si4'
_chemical_name_systematic        
(butatriene-1,1,4,4-tetrayltetra-4,1-phenylene)tetrakis(trimethylsilane)
_symmetry_cell_setting           triclinic
_symmetry_space_group_name_H-M   'P -1'
_symmetry_Int_Tables_number      2
_space_group_name_Hall           '-P 1'
loop_
_symmetry_equiv_pos_site_id
_symmetry_equiv_pos_as_xyz
1 x,y,z
2 -x,-y,-z
_cell_length_a                   11.1962(7)
_cell_length_b                   11.4527(7)
_cell_length_c                   16.6957(10)
_cell_angle_alpha                104.961(2)
_cell_angle_beta                 104.164(2)
_cell_angle_gamma                96.492(2)
_cell_volume                     1969.58
_exptl_crystal_colour            yellow
_exptl_crystal_description       plate
_cell_formula_units_Z            2
_exptl_crystal_recrystallization_method 'slow evaporation from n-pentane'
loop_
_atom_site_label
_atom_site_type_symbol
_atom_site_fract_x
_atom_site_fract_y
_atom_site_fract_z
Si1 Si 0.09432(5) 0.45926(5) 0.73388(4)
Si2 Si 0.86841(5) 1.04945(5) 0.30087(4)
Si3 Si 0.27630(6) 0.24045(5) 0.11236(4)
Si4 Si 0.69795(5) 1.25966(5) 0.92639(4)
C1 C 0.17935(18) 0.49668(18) 0.65733(13)
C2 C 0.80310(18) 1.00025(18) 0.38255(13)
C3 C 0.44831(18) 0.70235(18) 0.50578(12)
C4 C 0.75758(18) 0.87724(18) 0.37499(13)
H1 H 0.7671 0.8137 0.3289
C5 C 0.52670(18) 0.80076(18) 0.53139(12)
C6 C 0.30333(18) 0.56022(17) 0.54069(13)
C7 C 0.69941(18) 0.84590(18) 0.43250(13)
H2 H 0.6695 0.7617 0.4250
C8 C 0.12287(19) 0.45974(18) 0.56848(13)
H3 H 0.0405 0.4118 0.5464
C9 C 0.67315(18) 1.14998(18) 0.81642(13)
C10 C 0.63421(17) 0.98803(17) 0.64766(12)
C11 C 0.30263(18) 0.35146(18) 0.22216(13)
C12 C 0.18234(18) 0.49032(18) 0.51120(13)
H4 H 0.1402 0.4634 0.4510
C13 C 0.73137(18) 1.05883(18) 0.51130(13)
H5 H 0.7239 1.1222 0.5584
C14 C 0.29299(17) 0.30721(18) 0.29160(13)
H6 H 0.2733 0.2209 0.2820
C15 C 0.30153(19) 0.56578(19) 0.68581(13)
H7 H 0.3442 0.5918 0.7459
C16 C 0.78924(18) 1.08891(18) 0.45296(13)
H8 H 0.8207 1.1731 0.4612
C17 C 0.68382(17) 0.93633(18) 0.50162(12)
C18 C 0.31125(17) 0.38532(18) 0.37329(13)
H9 H 0.3029 0.3519 0.4186
C19 C 0.75405(18) 1.04942(18) 0.69931(13)
H10 H 0.8242 1.0373 0.6778
C20 C 0.61376(17) 0.90445(17) 0.55969(12)
C21 C 0.77223(19) 1.12766(18) 0.78147(13)
H11 H 0.8551 1.1675 0.8152
C22 C 0.36211(19) 0.59734(19) 0.62896(13)
H12 H 0.4447 0.6448 0.6507
C23 C 0.35265(18) 0.55814(18) 0.32244(13)
H13 H 0.3736 0.6444 0.3324
C24 C 0.53468(19) 1.00655(19) 0.68255(13)
H14 H 0.4524 0.9634 0.6499
C25 C 0.36610(17) 0.59551(18) 0.47951(13)
C26 C 0.33340(18) 0.47943(18) 0.24053(13)
H15 H 0.3412 0.5130 0.1952
C27 C 0.55379(19) 1.0869(2) 0.76407(13)
H16 H 0.4834 1.0997 0.7852
C28 C 0.34179(17) 0.51286(17) 0.39085(12)
C29 C -0.0352(2) 0.32487(19) 0.67298(14)
H17 H -0.0961 0.3473 0.6291
H18 H -0.0767 0.3007 0.7131
H19 H -0.0008 0.2559 0.6447
C30 C 0.2093(2) 0.4280(2) 0.82377(13)
H20 H 0.2530 0.3641 0.7998
H21 H 0.1650 0.3999 0.8612
H22 H 0.2705 0.5036 0.8576
C31 C 0.8962(2) 0.91461(19) 0.22252(14)
H23 H 0.9519 0.8709 0.2539
H24 H 0.9353 0.9428 0.1826
H25 H 0.8160 0.8590 0.1897
C32 C 0.0227(2) 0.59060(19) 0.77984(14)
H26 H 0.0880 0.6646 0.8082
H27 H -0.0168 0.5711 0.8223
H28 H -0.0407 0.6052 0.7332
C33 C 0.8478(2) 1.3698(2) 0.95380(15)
H29 H 0.9177 1.3253 0.9580
H30 H 0.8596 1.4319 1.0093
H31 H 0.8450 1.4103 0.9085
C34 C 0.7522(2) 1.1200(2) 0.23876(16)
H32 H 0.6753 1.0587 0.2076
H33 H 0.7868 1.1489 0.1973
H34 H 0.7330 1.1897 0.2786
C35 C 1.0144(2) 1.1653(2) 0.35858(15)
H35 H 0.9937 1.2412 0.3906
H36 H 1.0560 1.1827 0.3166
H37 H 1.0705 1.1332 0.3991
C36 C 0.7087(2) 1.1763(2) 1.00873(14)
H38 H 0.6330 1.1132 0.9921
H39 H 0.7163 1.2344 1.0651
H40 H 0.7825 1.1371 1.0125
C37 C 0.5611(2) 1.3387(2) 0.92563(15)
H41 H 0.5464 1.3745 0.8776
H42 H 0.5785 1.4041 0.9804
H43 H 0.4864 1.2790 0.9186
C38 C 0.1397(2) 0.1173(2) 0.09188(16)
H44 H 0.1591 0.0710 0.1338
H45 H 0.1215 0.0616 0.0331
H46 H 0.0665 0.1544 0.0980
C39 C 0.4190(2) 0.1732(2) 0.10953(17)
H47 H 0.4908 0.2390 0.1217
H48 H 0.4061 0.1154 0.0521
H49 H 0.4354 0.1295 0.1533
C40 C 0.2430(3) 0.3198(2) 0.02809(15)
H50 H 0.1683 0.3563 0.0302
H51 H 0.2282 0.2604 -0.0290
H52 H 0.3148 0.3847 0.0384
loop_
_geom_bond_atom_site_label_1
_geom_bond_atom_site_label_2
_geom_bond_site_symmetry_1
_geom_bond_site_symmetry_2
Si1 C1 1_555 1_555
Si2 C2 1_555 1_555
Si3 C11 1_555 1_555
Si4 C9 1_555 1_555
C1 C8 1_555 1_555
C2 C4 1_555 1_555
C3 C5 1_555 1_555
C4 H1 1_555 1_555
C5 C20 1_555 1_555
C6 C12 1_555 1_555
C7 C4 1_555 1_555
H2 C7 1_555 1_555
C8 H3 1_555 1_555
C9 C21 1_555 1_555
C10 C19 1_555 1_555
C11 C14 1_555 1_555
C12 C8 1_555 1_555
H4 C12 1_555 1_555
C13 H5 1_555 1_555
C14 H6 1_555 1_555
C15 C1 1_555 1_555
H7 C15 1_555 1_555
C16 C2 1_555 1_555
H8 C16 1_555 1_555
C17 C7 1_555 1_555
C18 C14 1_555 1_555
H9 C18 1_555 1_555
C19 H10 1_555 1_555
C20 C10 1_555 1_555
C21 C19 1_555 1_555
H11 C21 1_555 1_555
C22 C6 1_555 1_555
H12 C22 1_555 1_555
C23 H13 1_555 1_555
C24 C10 1_555 1_555
H14 C24 1_555 1_555
C25 C3 1_555 1_555
C26 C11 1_555 1_555
H15 C26 1_555 1_555
C27 C9 1_555 1_555
H16 C27 1_555 1_555
C28 C18 1_555 1_555
C29 Si1 1_555 1_555
H17 C29 1_555 1_555
H18 C29 1_555 1_555
H19 C29 1_555 1_555
C30 Si1 1_555 1_555
H20 C30 1_555 1_555
H21 C30 1_555 1_555
H22 C30 1_555 1_555
C31 Si2 1_555 1_555
H23 C31 1_555 1_555
H24 C31 1_555 1_555
H25 C31 1_555 1_555
C32 Si1 1_555 1_555
H26 C32 1_555 1_555
H27 C32 1_555 1_555
H28 C32 1_555 1_555
C33 Si4 1_555 1_555
H29 C33 1_555 1_555
H30 C33 1_555 1_555
H31 C33 1_555 1_555
C34 Si2 1_555 1_555
H32 C34 1_555 1_555
H33 C34 1_555 1_555
H34 C34 1_555 1_555
C35 Si2 1_555 1_555
H35 C35 1_555 1_555
H36 C35 1_555 1_555
H37 C35 1_555 1_555
C36 Si4 1_555 1_555
H38 C36 1_555 1_555
H39 C36 1_555 1_555
H40 C36 1_555 1_555
C37 Si4 1_555 1_555
H41 C37 1_555 1_555
H42 C37 1_555 1_555
H43 C37 1_555 1_555
C38 Si3 1_555 1_555
H44 C38 1_555 1_555
H45 C38 1_555 1_555
H46 C38 1_555 1_555
C39 Si3 1_555 1_555
H47 C39 1_555 1_555
H48 C39 1_555 1_555
H49 C39 1_555 1_555
C40 Si3 1_555 1_555
H50 C40 1_555 1_555
H51 C40 1_555 1_555
H52 C40 1_555 1_555
C6 C25 1_555 1_555
C13 C16 1_555 1_555
C13 C17 1_555 1_555
C15 C22 1_555 1_555
C17 C20 1_555 1_555
C23 C26 1_555 1_555
C23 C28 1_555 1_555
C24 C27 1_555 1_555
C25 C28 1_555 1_555

#END
