
#######################################################################
#
#                 Cambridge Crystallographic Data Centre
#                                CCDC 
#
#######################################################################
#
# If this CIF has been generated from an entry in the Cambridge 
# Structural Database, then it will include bibliographic, chemical, 
# crystal, experimental, refinement or atomic coordinate data resulting 
# from the CCDC's data processing and validation procedures.
#
#######################################################################

data_OGELUI01
_chemical_formula_moiety         'C22 H8 F14 N2 O4'
_chemical_name_systematic        
2,7-bis(2,2,3,3,4,4,4-heptafluorobutyl)benzo[lmn][3,8]phenanthroline-1,3,6,8(2H,7H)-tetrone
_symmetry_cell_setting           monoclinic
_symmetry_space_group_name_H-M   'P 2/c'
_symmetry_Int_Tables_number      13
_space_group_name_Hall           '-P 2yc'
loop_
_symmetry_equiv_pos_site_id
_symmetry_equiv_pos_as_xyz
1 x,y,z
2 -x,y,1/2-z
3 -x,-y,-z
4 x,-y,1/2+z
_cell_length_a                   17.379(4)
_cell_length_b                   7.7605(16)
_cell_length_c                   16.708(3)
_cell_angle_alpha                90
_cell_angle_beta                 101.77(3)
_cell_angle_gamma                90
_cell_volume                     2206.02
_exptl_crystal_colour            colorless
_exptl_crystal_description       plate
_cell_formula_units_Z            4
loop_
_atom_site_label
_atom_site_type_symbol
_atom_site_fract_x
_atom_site_fract_y
_atom_site_fract_z
F1 F 0.49286(15) 0.9521(3) 0.34922(16)
F2 F 0.38476(17) 0.9121(4) 0.26291(16)
F3 F 0.41273(19) 0.7558(3) 0.3698(2)
F4 F 0.38286(13) 1.1972(3) 0.35422(13)
F5 F 0.41883(13) 1.0500(3) 0.46591(12)
F6 F 0.25134(12) 0.9737(2) 0.31549(11)
F7 F 0.28844(13) 0.8655(2) 0.43720(12)
O1 O 0.24286(14) 1.0531(3) 0.57943(13)
O2 O 0.11602(14) 1.2066(3) 0.32416(13)
N1 N 0.18037(16) 1.1112(3) 0.44863(15)
C1 C 0.4181(3) 0.9109(5) 0.3418(3)
C2 C 0.3778(2) 1.0420(4) 0.3887(2)
C3 C 0.2917(2) 1.0103(4) 0.39230(18)
C4 C 0.25523(19) 1.1609(4) 0.42858(19)
H1 H 0.2916 1.2010 0.4787
H2 H 0.2467 1.2573 0.3890
C5 C 0.1123(2) 1.1435(4) 0.39019(18)
C6 C 0.03652(19) 1.0959(4) 0.41234(18)
C7 C 0.03626(18) 1.0236(4) 0.49020(17)
C8 C 0.1065(2) 0.9991(4) 0.54858(18)
C9 C 0.1821(2) 1.0547(4) 0.52930(18)
C10 C 0.1043(2) 0.9285(4) 0.62362(18)
H3 H 0.1517 0.9129 0.6628
C11 C 0.0326(2) 0.8795(4) 0.64266(18)
H4 H 0.0319 0.8287 0.6942
F1B F -0.49286(15) 1.0479(3) 0.65078(16)
F2B F -0.38476(17) 1.0879(4) 0.73709(16)
F3B F -0.41273(19) 1.2442(3) 0.6302(2)
F4B F -0.38286(13) 0.8028(3) 0.64578(13)
F5B F -0.41883(13) 0.9500(3) 0.53409(12)
F6B F -0.25134(12) 1.0263(2) 0.68451(11)
F7B F -0.28844(13) 1.1345(2) 0.56280(12)
O1B O -0.24286(14) 0.9469(3) 0.42057(13)
O2B O -0.11602(14) 0.7934(3) 0.67584(13)
N1B N -0.18037(16) 0.8888(3) 0.55137(15)
C1B C -0.4181(3) 1.0891(5) 0.6582(3)
C2B C -0.3778(2) 0.9580(4) 0.6113(2)
C3B C -0.2917(2) 0.9897(4) 0.60770(18)
C4B C -0.25523(19) 0.8391(4) 0.57142(19)
H1B H -0.2916 0.7990 0.5213
H2B H -0.2467 0.7427 0.6110
C5B C -0.1123(2) 0.8565(4) 0.60981(18)
C6B C -0.03652(19) 0.9041(4) 0.58766(18)
C7B C -0.03626(18) 0.9764(4) 0.50980(17)
C8B C -0.1065(2) 1.0009(4) 0.45142(18)
C9B C -0.1821(2) 0.9453(4) 0.47070(18)
C10B C -0.1043(2) 1.0715(4) 0.37638(18)
H3B H -0.1517 1.0871 0.3372
C11B C -0.0326(2) 1.1205(4) 0.35734(18)
H4B H -0.0319 1.1713 0.3058
F8 F 0.47549(16) 0.4409(4) 0.08354(18)
F9 F 0.39936(15) 0.6473(3) 0.10142(15)
F10 F 0.35948(17) 0.4620(4) 0.00866(15)
F11 F 0.41429(13) 0.4089(3) 0.21952(13)
F12 F 0.38167(14) 0.2066(3) 0.12783(16)
F13 F 0.23908(12) 0.3440(2) 0.07779(11)
F14 F 0.26915(12) 0.2841(2) 0.20744(12)
O3 O 0.24310(14) 0.5562(3) 0.32799(13)
O4 O 0.12484(14) 0.6085(3) 0.05936(13)
N2 N 0.18449(16) 0.5842(3) 0.19352(15)
C12 C 0.4021(3) 0.4817(5) 0.0835(3)
C13 C 0.3704(2) 0.3724(4) 0.1456(2)
C14 C 0.2839(2) 0.3976(4) 0.15045(19)
C15 C 0.2617(2) 0.5777(4) 0.17128(19)
H5 H 0.3019 0.6219 0.2174
H6 H 0.2614 0.6539 0.1237
C16 C 0.1180(2) 0.6003(4) 0.13054(18)
C17 C 0.0409(2) 0.6067(4) 0.15485(17)
C18 C 0.03691(19) 0.6051(4) 0.23910(18)
C19 C 0.1061(2) 0.5998(4) 0.30093(18)
C20 C 0.1832(2) 0.5783(4) 0.27821(18)
C21 C 0.1007(2) 0.6054(4) 0.38220(18)
H7 H 0.1471 0.6053 0.4236
C22 C 0.0272(2) 0.6111(4) 0.40383(18)
H8 H 0.0242 0.6181 0.4599
F8A F -0.47549(16) 0.4409(4) 0.41646(18)
F9A F -0.39936(15) 0.6473(3) 0.39858(15)
F10A F -0.35948(17) 0.4620(4) 0.49134(15)
F11A F -0.41429(13) 0.4089(3) 0.28048(13)
F12A F -0.38167(14) 0.2066(3) 0.37217(16)
F13A F -0.23908(12) 0.3440(2) 0.42221(11)
F14A F -0.26915(12) 0.2841(2) 0.29256(12)
O3A O -0.24310(14) 0.5562(3) 0.17201(13)
O4A O -0.12484(14) 0.6085(3) 0.44064(13)
N2A N -0.18449(16) 0.5842(3) 0.30648(15)
C12A C -0.4021(3) 0.4817(5) 0.4165(3)
C13A C -0.3704(2) 0.3724(4) 0.3544(2)
C14A C -0.2839(2) 0.3976(4) 0.34955(19)
C15A C -0.2617(2) 0.5777(4) 0.32872(19)
H5A H -0.3019 0.6219 0.2826
H6A H -0.2614 0.6539 0.3763
C16A C -0.1180(2) 0.6003(4) 0.36946(18)
C17A C -0.0409(2) 0.6067(4) 0.34515(17)
C18A C -0.03691(19) 0.6051(4) 0.26090(18)
C19A C -0.1061(2) 0.5998(4) 0.19907(18)
C20A C -0.1832(2) 0.5783(4) 0.22179(18)
C21A C -0.1007(2) 0.6054(4) 0.11780(18)
H7A H -0.1471 0.6053 0.0764
C22A C -0.0272(2) 0.6111(4) 0.09617(18)
H8A H -0.0242 0.6181 0.0401
loop_
_geom_bond_atom_site_label_1
_geom_bond_atom_site_label_2
_geom_bond_site_symmetry_1
_geom_bond_site_symmetry_2
F1 C1 1_555 1_555
F2 C1 1_555 1_555
F3 C1 1_555 1_555
F4 C2 1_555 1_555
F5 C2 1_555 1_555
F6 C3 1_555 1_555
F7 C3 1_555 1_555
F8 C12 1_555 1_555
F9 C12 1_555 1_555
F10 C12 1_555 1_555
F11 C13 1_555 1_555
F12 C13 1_555 1_555
F13 C14 1_555 1_555
F14 C14 1_555 1_555
O1 C9 1_555 1_555
O2 C5 1_555 1_555
O3 C20 1_555 1_555
O4 C16 1_555 1_555
N1 C4 1_555 1_555
N2 C15 1_555 1_555
C1 C2 1_555 1_555
C2 C3 1_555 1_555
C3 C4 1_555 1_555
C4 H1 1_555 1_555
H2 C4 1_555 1_555
C5 N1 1_555 1_555
C6 C5 1_555 1_555
C7 C6 1_555 1_555
C8 C7 1_555 1_555
C9 N1 1_555 1_555
C10 C8 1_555 1_555
H3 C10 1_555 1_555
C11 C10 1_555 1_555
H4 C11 1_555 1_555
C12 C13 1_555 1_555
C13 C14 1_555 1_555
C14 C15 1_555 1_555
C15 H5 1_555 1_555
H6 C15 1_555 1_555
C16 N2 1_555 1_555
C17 C16 1_555 1_555
C18 C17 1_555 1_555
C19 C18 1_555 1_555
C20 N2 1_555 1_555
C21 C19 1_555 1_555
H7 C21 1_555 1_555
C22 C21 1_555 1_555
H8 C22 1_555 1_555
F1B C1B 1_555 1_555
F2B C1B 1_555 1_555
F3B C1B 1_555 1_555
F4B C2B 1_555 1_555
F5B C2B 1_555 1_555
F6B C3B 1_555 1_555
F7B C3B 1_555 1_555
F8A C12A 1_555 1_555
F9A C12A 1_555 1_555
F10A C12A 1_555 1_555
F11A C13A 1_555 1_555
F12A C13A 1_555 1_555
F13A C14A 1_555 1_555
F14A C14A 1_555 1_555
O1B C9B 1_555 1_555
O2B C5B 1_555 1_555
O3A C20A 1_555 1_555
O4A C16A 1_555 1_555
N1B C4B 1_555 1_555
N2A C15A 1_555 1_555
C1B C2B 1_555 1_555
C2B C3B 1_555 1_555
C3B C4B 1_555 1_555
C4B H1B 1_555 1_555
H2B C4B 1_555 1_555
C5B N1B 1_555 1_555
C6B C11 1_555 1_555
C7B C7 1_555 1_555
C8B C7B 1_555 1_555
C9B N1B 1_555 1_555
C10B C8B 1_555 1_555
H3B C10B 1_555 1_555
C11B C6 1_555 1_555
H4B C11B 1_555 1_555
C12A C13A 1_555 1_555
C13A C14A 1_555 1_555
C14A C15A 1_555 1_555
C15A H5A 1_555 1_555
H6A C15A 1_555 1_555
C16A N2A 1_555 1_555
C17A C22 1_555 1_555
C18A C18 1_555 1_555
C19A C18A 1_555 1_555
C20A N2A 1_555 1_555
C21A C19A 1_555 1_555
H7A C21A 1_555 1_555
C22A C17 1_555 1_555
H8A C22A 1_555 1_555
C8 C9 1_555 1_555
C19 C20 1_555 1_555
C5B C6B 1_555 1_555
C6B C7B 1_555 1_555
C8B C9B 1_555 1_555
C10B C11B 1_555 1_555
C16A C17A 1_555 1_555
C17A C18A 1_555 1_555
C19A C20A 1_555 1_555
C21A C22A 1_555 1_555

#END
