
#######################################################################
#
#                 Cambridge Crystallographic Data Centre
#                                CCDC 
#
#######################################################################
#
# If this CIF has been generated from an entry in the Cambridge 
# Structural Database, then it will include bibliographic, chemical, 
# crystal, experimental, refinement or atomic coordinate data resulting 
# from the CCDC's data processing and validation procedures.
#
#######################################################################

data_OGENOF
_chemical_formula_moiety         'C18 H12 N2 O1'
_chemical_name_systematic        4-Phenylbenzo[f]quinoxalin-3(4H)-one
_symmetry_cell_setting           monoclinic
_symmetry_space_group_name_H-M   'P c'
_symmetry_Int_Tables_number      7
_space_group_name_Hall           'P -2yc'
loop_
_symmetry_equiv_pos_site_id
_symmetry_equiv_pos_as_xyz
1 x,y,z
2 x,-y,1/2+z
_cell_length_a                   5.4055(3)
_cell_length_b                   9.6991(14)
_cell_length_c                   12.7818(7)
_cell_angle_alpha                90
_cell_angle_beta                 100.422(7)
_cell_angle_gamma                90
_cell_volume                     659.075
_cell_formula_units_Z            2
loop_
_atom_site_label
_atom_site_type_symbol
_atom_site_fract_x
_atom_site_fract_y
_atom_site_fract_z
O1 O -0.1545(5) 0.1457(4) 0.3233(2)
N1 N 0.2101(5) 0.2414(4) 0.4129(2)
C1 C 0.0005(6) 0.2387(5) 0.3331(3)
C2 C -0.0135(7) 0.3551(5) 0.2604(3)
H1 H -0.1527 0.3581 0.2057
N2 N 0.1457(5) 0.4544(4) 0.2635(2)
C3 C 0.3490(6) 0.4551(5) 0.3471(3)
C4 C 0.3822(6) 0.3495(5) 0.4230(2)
C5 C 0.5889(6) 0.3543(5) 0.5085(3)
H2 H 0.6075 0.2864 0.5608
C6 C 0.7603(7) 0.4579(5) 0.5146(3)
H3 H 0.8959 0.4587 0.5709
C7 C 0.7391(6) 0.5644(5) 0.4381(3)
C8 C 0.9189(7) 0.6700(6) 0.4437(3)
H4 H 1.0607 0.6678 0.4971
C9 C 0.8894(8) 0.7759(6) 0.3721(3)
H5 H 1.0093 0.8455 0.3771
C10 C 0.6755(9) 0.7788(6) 0.2905(3)
H6 H 0.6541 0.8513 0.2420
C11 C 0.4992(7) 0.6765(6) 0.2819(3)
H7 H 0.3596 0.6798 0.2274
C12 C 0.5267(6) 0.5655(5) 0.3548(2)
C13 C 0.2548(6) 0.1250(5) 0.4855(3)
C14 C 0.4358(7) 0.0293(5) 0.4741(3)
H8 H 0.5277 0.0379 0.4195
C15 C 0.4796(8) -0.0797(6) 0.5443(3)
H9 H 0.6012 -0.1450 0.5370
C16 C 0.3434(8) -0.0923(6) 0.6257(3)
H10 H 0.3752 -0.1648 0.6738
C17 C 0.1605(8) 0.0033(6) 0.6349(3)
H11 H 0.0663 -0.0060 0.6886
C18 C 0.1156(7) 0.1124(6) 0.5654(3)
H12 H -0.0075 0.1771 0.5722
loop_
_geom_bond_atom_site_label_1
_geom_bond_atom_site_label_2
_geom_bond_site_symmetry_1
_geom_bond_site_symmetry_2
O1 C1 1_555 1_555
N1 C1 1_555 1_555
C1 C2 1_555 1_555
C2 H1 1_555 1_555
N2 C2 1_555 1_555
C3 N2 1_555 1_555
C4 N1 1_555 1_555
C5 C4 1_555 1_555
H2 C5 1_555 1_555
C6 C5 1_555 1_555
H3 C6 1_555 1_555
C7 C6 1_555 1_555
C8 C7 1_555 1_555
H4 C8 1_555 1_555
C9 C8 1_555 1_555
H5 C9 1_555 1_555
C10 C9 1_555 1_555
H6 C10 1_555 1_555
C11 C10 1_555 1_555
H7 C11 1_555 1_555
C12 C3 1_555 1_555
C13 N1 1_555 1_555
C14 C13 1_555 1_555
H8 C14 1_555 1_555
C15 C14 1_555 1_555
H9 C15 1_555 1_555
C16 C15 1_555 1_555
H10 C16 1_555 1_555
C17 C16 1_555 1_555
H11 C17 1_555 1_555
C18 C13 1_555 1_555
H12 C18 1_555 1_555
C3 C4 1_555 1_555
C7 C12 1_555 1_555
C11 C12 1_555 1_555
C17 C18 1_555 1_555

#END
