
#######################################################################
#
#                 Cambridge Crystallographic Data Centre
#                                CCDC 
#
#######################################################################
#
# If this CIF has been generated from an entry in the Cambridge 
# Structural Database, then it will include bibliographic, chemical, 
# crystal, experimental, refinement or atomic coordinate data resulting 
# from the CCDC's data processing and validation procedures.
#
#######################################################################

data_OGEPIC
_chemical_formula_moiety         'C20 H10 B1 F2 N3 S4'
_chemical_name_systematic        
5,5-difluoro-2,3-bis(thieno[3,2-b]thiophen-2-yl)-5H-imidazo[1',2':3,4][1,3,2]diazaborolo[1,5-a]pyridine
_symmetry_cell_setting           triclinic
_symmetry_space_group_name_H-M   'P -1'
_symmetry_Int_Tables_number      2
_space_group_name_Hall           '-P 1'
loop_
_symmetry_equiv_pos_site_id
_symmetry_equiv_pos_as_xyz
1 x,y,z
2 -x,-y,-z
_cell_length_a                   7.4908(8)
_cell_length_b                   11.9940(9)
_cell_length_c                   12.0878(12)
_cell_angle_alpha                65.066(5)
_cell_angle_beta                 83.917(8)
_cell_angle_gamma                77.770(7)
_cell_volume                     962.28
_exptl_crystal_colour            colorless
_exptl_crystal_description       Prism
_cell_formula_units_Z            2
loop_
_atom_site_label
_atom_site_type_symbol
_atom_site_fract_x
_atom_site_fract_y
_atom_site_fract_z
S1 S 0.30869(8) 0.77418(5) 0.47677(5)
S2 S 0.17298(8) 0.96112(5) 0.11139(5)
S3 S 0.11050(7) 0.56302(5) 0.82242(5)
S4 S 0.55475(8) 0.67364(5) 0.89746(5)
F1 F 0.10481(17) 0.22977(12) 0.86975(11)
F2 F 0.41283(18) 0.19091(12) 0.85910(12)
N1 N 0.2290(2) 0.44938(16) 0.47511(15)
N2 N 0.2499(2) 0.35701(15) 0.68013(15)
N3 N 0.2446(2) 0.14792(16) 0.72094(16)
C1 C 0.2536(3) 0.53491(18) 0.51844(18)
C2 C 0.2546(3) 0.66407(18) 0.43346(18)
C3 C 0.2064(2) 0.71159(18) 0.30756(18)
H1 H 0.1758 0.6657 0.2669
C4 C 0.2140(3) 0.84549(18) 0.25477(18)
C5 C 0.2680(3) 0.88955(19) 0.33231(19)
C6 C 0.2807(3) 1.02164(17) 0.27843(18)
H2 H 0.3151 1.0675 0.3179
C7 C 0.2303(3) 1.0681(2) 0.1531(2)
H3 H 0.2291 1.1526 0.0974
C8 C 0.2674(3) 0.47900(18) 0.64498(18)
C9 C 0.2936(3) 0.53076(18) 0.73096(18)
C10 C 0.4490(3) 0.56432(18) 0.74661(18)
H4 H 0.5617 0.5536 0.7049
C11 C 0.4196(3) 0.61732(18) 0.83363(18)
C12 C 0.2451(3) 0.62301(19) 0.88323(19)
C13 C 0.2183(3) 0.6731(2) 0.9733(2)
H5 H 0.1066 0.6830 1.0163
C14 C 0.3746(4) 0.7044(2) 0.9888(2)
H6 H 0.3843 0.7397 1.0445
C15 C 0.2286(3) 0.34613(19) 0.57528(18)
C16 C 0.2200(3) 0.21837(18) 0.59947(18)
C17 C 0.1924(3) 0.1657(2) 0.5218(2)
H7 H 0.1734 0.2151 0.4372
C18 C 0.1937(3) 0.0375(2) 0.5726(2)
H8 H 0.1739 -0.0014 0.5221
C19 C 0.2237(3) -0.0340(2) 0.6962(2)
H9 H 0.2272 -0.1217 0.7301
C20 C 0.2482(3) 0.02430(19) 0.7694(2)
H10 H 0.2677 -0.0235 0.8542
B1 B 0.2566(3) 0.2323(2) 0.7942(2)
loop_
_geom_bond_atom_site_label_1
_geom_bond_atom_site_label_2
_geom_bond_site_symmetry_1
_geom_bond_site_symmetry_2
S1 C2 1_555 1_555
S2 C4 1_555 1_555
S3 C9 1_555 1_555
S4 C11 1_555 1_555
F1 B1 1_555 1_555
F2 B1 1_555 1_555
N1 C1 1_555 1_555
N2 C8 1_555 1_555
N3 C16 1_555 1_555
C1 C2 1_555 1_555
C2 C3 1_555 1_555
C3 H1 1_555 1_555
C4 C3 1_555 1_555
C5 S1 1_555 1_555
C6 C5 1_555 1_555
H2 C6 1_555 1_555
C7 S2 1_555 1_555
H3 C7 1_555 1_555
C8 C1 1_555 1_555
C9 C8 1_555 1_555
C10 C9 1_555 1_555
H4 C10 1_555 1_555
C11 C10 1_555 1_555
C12 S3 1_555 1_555
C13 C12 1_555 1_555
H5 C13 1_555 1_555
C14 S4 1_555 1_555
H6 C14 1_555 1_555
C15 N1 1_555 1_555
C16 C15 1_555 1_555
C17 C16 1_555 1_555
H7 C17 1_555 1_555
C18 C17 1_555 1_555
H8 C18 1_555 1_555
C19 C18 1_555 1_555
H9 C19 1_555 1_555
C20 N3 1_555 1_555
H10 C20 1_555 1_555
B1 N2 1_555 1_555
N2 C15 1_555 1_555
N3 B1 1_555 1_555
C4 C5 1_555 1_555
C6 C7 1_555 1_555
C11 C12 1_555 1_555
C13 C14 1_555 1_555
C19 C20 1_555 1_555

#END
