
#######################################################################
#
#                 Cambridge Crystallographic Data Centre
#                                CCDC 
#
#######################################################################
#
# If this CIF has been generated from an entry in the Cambridge 
# Structural Database, then it will include bibliographic, chemical, 
# crystal, experimental, refinement or atomic coordinate data resulting 
# from the CCDC's data processing and validation procedures.
#
#######################################################################

data_OGEPEX
_chemical_formula_moiety         'C18 H13 Br3 N2 O1'
_chemical_name_systematic        
8,9,10-Tribromo-1-(2-naphthyl)-1,4-diazaspiro[4.5]deca-3,6-dien-2-one
_symmetry_cell_setting           triclinic
_symmetry_space_group_name_H-M   'P -1'
_symmetry_Int_Tables_number      2
_space_group_name_Hall           '-P 1'
loop_
_symmetry_equiv_pos_site_id
_symmetry_equiv_pos_as_xyz
1 x,y,z
2 -x,-y,-z
_cell_length_a                   8.1390(7)
_cell_length_b                   10.3526(11)
_cell_length_c                   11.1111(8)
_cell_angle_alpha                74.383(8)
_cell_angle_beta                 86.920(6)
_cell_angle_gamma                81.255(8)
_cell_volume                     891.094
_exptl_crystal_colour            'light colorless'
_exptl_crystal_description       block
_cell_formula_units_Z            2
loop_
_atom_site_label
_atom_site_type_symbol
_atom_site_fract_x
_atom_site_fract_y
_atom_site_fract_z
Br1 Br 0.57165(5) 0.12086(5) 0.12700(4)
Br2 Br 0.70903(6) 0.44261(4) 0.04456(4)
Br3 Br 1.16868(5) 0.14748(5) -0.01545(4)
O1 O 0.6839(3) -0.0631(3) 0.5472(2)
N1 N 0.8314(4) 0.0215(3) 0.3653(3)
N2 N 0.7006(4) 0.2452(3) 0.3260(3)
C1 C 0.8432(5) 0.2697(4) 0.0421(3)
H1 H 0.8277 0.2517 -0.0384
C2 C 0.7975(4) 0.1519(4) 0.1447(3)
H2 H 0.8697 0.0717 0.1322
C3 C 1.0235(5) 0.2860(4) 0.0510(3)
H3 H 1.0410 0.3763 0.0004
C4 C 0.9461(6) -0.3379(4) 0.3669(4)
H4 H 0.8956 -0.4159 0.3847
C5 C 1.1150(6) -0.3458(4) 0.3316(3)
C6 C 0.8542(5) -0.2194(4) 0.3758(4)
H5 H 0.7423 -0.2169 0.3985
C7 C 1.0913(5) -0.1041(4) 0.3136(3)
H6 H 1.1395 -0.0250 0.2959
C8 C 0.9288(5) -0.1001(4) 0.3507(3)
C9 C 0.7154(5) 0.0290(5) 0.4589(4)
C10 C 0.9918(5) 0.2123(4) 0.2804(4)
H7 H 1.0344 0.2056 0.3582
C11 C 1.1879(5) -0.2245(4) 0.3015(3)
C12 C 0.8308(5) 0.1575(4) 0.2775(3)
C13 C 0.6419(5) 0.1744(4) 0.4250(4)
H8 H 0.5593 0.2103 0.4729
C14 C 1.3563(5) -0.2317(5) 0.2649(4)
H9 H 1.4057 -0.1531 0.2444
C15 C 1.0760(5) 0.2690(4) 0.1807(4)
H10 H 1.1738 0.3001 0.1922
C16 C 1.4491(6) -0.3512(5) 0.2586(4)
H11 H 1.5607 -0.3540 0.2349
C17 C 1.3756(7) -0.4690(5) 0.2880(4)
H12 H 1.4389 -0.5501 0.2830
C18 C 1.2141(7) -0.4682(5) 0.3238(4)
H13 H 1.1680 -0.5483 0.3434
loop_
_geom_bond_atom_site_label_1
_geom_bond_atom_site_label_2
_geom_bond_site_symmetry_1
_geom_bond_site_symmetry_2
Br1 C2 1_555 1_555
Br2 C1 1_555 1_555
Br3 C3 1_555 1_555
O1 C9 1_555 1_555
N1 C8 1_555 1_555
N2 C12 1_555 1_555
C1 H1 1_555 1_555
C2 C1 1_555 1_555
H2 C2 1_555 1_555
C3 C1 1_555 1_555
H3 C3 1_555 1_555
C4 H4 1_555 1_555
C5 C4 1_555 1_555
C6 C4 1_555 1_555
H5 C6 1_555 1_555
C7 H6 1_555 1_555
C8 C6 1_555 1_555
C9 N1 1_555 1_555
C10 H7 1_555 1_555
C11 C5 1_555 1_555
C12 N1 1_555 1_555
C13 N2 1_555 1_555
H8 C13 1_555 1_555
C14 C11 1_555 1_555
H9 C14 1_555 1_555
C15 C3 1_555 1_555
H10 C15 1_555 1_555
C16 C14 1_555 1_555
H11 C16 1_555 1_555
C17 C16 1_555 1_555
H12 C17 1_555 1_555
C18 C5 1_555 1_555
H13 C18 1_555 1_555
C2 C12 1_555 1_555
C7 C8 1_555 1_555
C7 C11 1_555 1_555
C9 C13 1_555 1_555
C10 C12 1_555 1_555
C10 C15 1_555 1_555
C17 C18 1_555 1_555

#END
