
#######################################################################
#
#                 Cambridge Crystallographic Data Centre
#                                CCDC 
#
#######################################################################
#
# If this CIF has been generated from an entry in the Cambridge 
# Structural Database, then it will include bibliographic, chemical, 
# crystal, experimental, refinement or atomic coordinate data resulting 
# from the CCDC's data processing and validation procedures.
#
#######################################################################

data_OGEQEX
_chemical_formula_moiety         '2(C11 H10 N3 O4 S1 1+),F6 Si1 2-'
_chemical_name_systematic        
'bis(4-(2-Nitrobenzenesulfonamido)pyridinium) hexafluorosilicate'
_symmetry_cell_setting           monoclinic
_symmetry_space_group_name_H-M   'C 2/c'
_symmetry_Int_Tables_number      15
_space_group_name_Hall           '-C 2yn'
loop_
_symmetry_equiv_pos_site_id
_symmetry_equiv_pos_as_xyz
1 x,y,z
2 1/2+x,1/2+y,z
3 -x,y,1/2-z
4 1/2-x,1/2+y,1/2-z
5 -x,-y,-z
6 1/2-x,1/2-y,-z
7 x,-y,1/2+z
8 1/2+x,1/2-y,1/2+z
_cell_length_a                   22.691(5)
_cell_length_b                   8.524(2)
_cell_length_c                   14.776(3)
_cell_angle_alpha                90
_cell_angle_beta                 110.95(3)
_cell_angle_gamma                90
_cell_volume                     2669.01
_exptl_crystal_colour            colorless
_exptl_crystal_description       block
_cell_formula_units_Z            4
loop_
_atom_site_label
_atom_site_type_symbol
_atom_site_fract_x
_atom_site_fract_y
_atom_site_fract_z
S1 S 0.61983(2) 0.29097(5) 0.52758(4)
O1 O 0.58452(8) 0.32136(18) 0.42794(11)
O2 O 0.63133(8) 0.13308(16) 0.56235(12)
O3 O 0.69576(9) 0.3188(2) 0.75056(13)
O4 O 0.78705(10) 0.2230(3) 0.7737(2)
N1 N 0.56160(8) 0.8430(2) 0.63088(13)
H1 H 0.5583(14) 0.942(3) 0.639(2)
N2 N 0.58416(9) 0.3725(2) 0.59405(14)
H2 H 0.5795(14) 0.315(3) 0.628(2)
N3 N 0.74149(10) 0.3008(2) 0.72703(15)
C1 C 0.57577(9) 0.5317(2) 0.60418(14)
C2 C 0.57532(9) 0.6398(2) 0.53308(14)
H3 H 0.5800 0.6058 0.4748
C3 C 0.56798(9) 0.7955(2) 0.54852(15)
H4 H 0.5674 0.8704 0.5006
C4 C 0.56074(9) 0.7410(2) 0.70051(14)
H5 H 0.5555 0.7784 0.7577
C5 C 0.56742(9) 0.5837(2) 0.68832(14)
H6 H 0.5664 0.5109 0.7364
C6 C 0.69299(10) 0.3905(2) 0.55358(15)
C7 C 0.70103(11) 0.4743(2) 0.47788(16)
H7 H 0.6675 0.4795 0.4169
C8 C 0.75749(12) 0.5503(3) 0.49066(18)
H8 H 0.7620 0.6078 0.4385
C9 C 0.80672(11) 0.5435(3) 0.57748(19)
H9 H 0.8451 0.5965 0.5854
C10 C 0.80059(10) 0.4591(3) 0.65379(18)
H10 H 0.8347 0.4530 0.7141
C11 C 0.74405(10) 0.3839(3) 0.64084(16)
Si1 Si 1.0000 0.65155(9) 0.7500
F1 F 0.94232(7) 0.64561(14) 0.79977(10)
F2 F 0.96119(6) 0.51233(14) 0.67115(9)
F3 F 0.96052(7) 0.79039(14) 0.67359(9)
F1B F 1.05768(7) 0.64561(14) 0.70023(10)
F2B F 1.03881(6) 0.51233(14) 0.82885(9)
F3B F 1.03948(7) 0.79039(14) 0.82641(9)
loop_
_geom_bond_atom_site_label_1
_geom_bond_atom_site_label_2
_geom_bond_site_symmetry_1
_geom_bond_site_symmetry_2
S1 O1 1_555 1_555
O2 S1 1_555 1_555
O3 N3 1_555 1_555
O4 N3 1_555 1_555
N1 H1 1_555 1_555
N2 S1 1_555 1_555
H2 N2 1_555 1_555
N3 C11 1_555 1_555
C1 N2 1_555 1_555
C2 C1 1_555 1_555
H3 C2 1_555 1_555
C3 N1 1_555 1_555
H4 C3 1_555 1_555
C4 N1 1_555 1_555
H5 C4 1_555 1_555
C5 C1 1_555 1_555
H6 C5 1_555 1_555
C6 S1 1_555 1_555
C7 C6 1_555 1_555
H7 C7 1_555 1_555
C8 C7 1_555 1_555
H8 C8 1_555 1_555
C9 C8 1_555 1_555
H9 C9 1_555 1_555
C10 C9 1_555 1_555
H10 C10 1_555 1_555
C11 C6 1_555 1_555
Si1 F1 1_555 1_555
F2 Si1 1_555 1_555
F3 Si1 1_555 1_555
F1B Si1 1_555 1_555
F2B Si1 1_555 1_555
F3B Si1 1_555 1_555
C2 C3 1_555 1_555
C4 C5 1_555 1_555
C10 C11 1_555 1_555

#END
