
#######################################################################
#
#                 Cambridge Crystallographic Data Centre
#                                CCDC 
#
#######################################################################
#
# If this CIF has been generated from an entry in the Cambridge 
# Structural Database, then it will include bibliographic, chemical, 
# crystal, experimental, refinement or atomic coordinate data resulting 
# from the CCDC's data processing and validation procedures.
#
#######################################################################

data_OGERIC
_chemical_formula_moiety         'C17 H11 Cl3 N2 O2'
_chemical_name_systematic        
'5-(4-Chlorophenyl)-1-(2,4-dichlorophenyl)-4-methyl-1H-pyrazole-3-carboxylic acid'
_symmetry_cell_setting           monoclinic
_symmetry_space_group_name_H-M   'P 2/c'
_symmetry_Int_Tables_number      13
_space_group_name_Hall           '-P 2yc'
loop_
_symmetry_equiv_pos_site_id
_symmetry_equiv_pos_as_xyz
1 x,y,z
2 -x,y,1/2-z
3 -x,-y,-z
4 x,-y,1/2+z
_cell_length_a                   13.192(3)
_cell_length_b                   8.8170(18)
_cell_length_c                   30.012(6)
_cell_angle_alpha                90
_cell_angle_beta                 102.42(3)
_cell_angle_gamma                90
_cell_volume                     3409.12
_exptl_crystal_colour            colorless
_exptl_crystal_description       block
_cell_formula_units_Z            8
_exptl_crystal_recrystallization_method 'acetic acid'
loop_
_atom_site_label
_atom_site_type_symbol
_atom_site_fract_x
_atom_site_fract_y
_atom_site_fract_z
Cl1 Cl 0.3235(2) 0.6137(2) 0.22847(7)
Cl2 Cl 0.41462(12) 0.2754(2) 0.37992(6)
Cl3 Cl 0.42824(16) 0.8503(2) 0.49709(6)
O1 O 0.0459(3) -0.1244(5) 0.43492(13)
O2 O 0.0428(3) -0.1317(5) 0.35970(14)
H1 H 0.0228 -0.2219 0.3629
N1 N 0.1830(3) 0.2661(5) 0.37220(15)
N2 N 0.1338(3) 0.1348(5) 0.36084(15)
C1 C 0.2820(7) 0.5083(7) 0.2692(2)
C2 C 0.1789(7) 0.4874(8) 0.2669(2)
H3 H 0.1303 0.5256 0.2423
C3 C 0.1464(5) 0.4081(7) 0.3017(2)
H4 H 0.0759 0.3967 0.3009
C4 C 0.2182(4) 0.3469(6) 0.33725(18)
C5 C 0.3238(5) 0.3634(7) 0.3377(2)
C6 C 0.3555(6) 0.4459(7) 0.3041(2)
H5 H 0.4258 0.4592 0.3049
C7 C 0.3576(5) 0.6908(7) 0.4752(2)
C8 C 0.2851(5) 0.7026(7) 0.4350(2)
H6 H 0.2715 0.7959 0.4205
C9 C 0.2321(4) 0.5733(6) 0.4163(2)
H7 H 0.1836 0.5801 0.3888
C10 C 0.2507(4) 0.4355(6) 0.43793(19)
C11 C 0.3227(4) 0.4274(7) 0.4789(2)
H8 H 0.3356 0.3349 0.4940
C12 C 0.3753(5) 0.5553(8) 0.4976(2)
H9 H 0.4226 0.5494 0.5254
C13 C 0.1975(4) 0.2945(6) 0.41780(18)
C14 C 0.1523(4) 0.1770(6) 0.43595(19)
C15 C 0.1141(4) 0.0811(6) 0.39951(18)
C16 C 0.1457(5) 0.1614(7) 0.4862(2)
H10 H 0.1098 0.0694 0.4902
H11 H 0.1086 0.2465 0.4948
H12 H 0.2144 0.1587 0.5050
C17 C 0.0649(4) -0.0666(7) 0.3986(2)
Cl4 Cl -0.31722(17) -1.1411(2) 0.16706(6)
Cl5 Cl -0.38786(12) -0.7789(2) 0.29976(6)
Cl6 Cl -0.45426(14) -1.3607(2) 0.39707(6)
O3 O -0.0346(3) -0.4099(5) 0.42547(14)
H2 H -0.0097 -0.3220 0.4233
O4 O -0.0241(3) -0.4055(5) 0.35213(14)
N3 N -0.1099(3) -0.6749(5) 0.33613(15)
N4 N -0.1607(3) -0.8069(5) 0.33785(14)
C18 C -0.2676(5) -1.0395(7) 0.21641(19)
C19 C -0.3380(5) -0.9630(7) 0.2361(2)
H13 H -0.4084 -0.9654 0.2227
C20 C -0.3033(4) -0.8837(6) 0.27553(19)
C21 C -0.1980(4) -0.8850(6) 0.29602(18)
C22 C -0.1292(5) -0.9617(7) 0.2757(2)
H14 H -0.0588 -0.9621 0.2892
C23 C -0.1643(5) -1.0374(7) 0.2354(2)
H15 H -0.1177 -1.0871 0.2212
C24 C -0.3712(5) -1.2088(8) 0.3953(2)
C25 C -0.3943(5) -1.0715(8) 0.4093(2)
H16 H -0.4533 -1.0587 0.4212
C26 C -0.3309(5) -0.9481(7) 0.4061(2)
H17 H -0.3466 -0.8535 0.4165
C27 C -0.2438(4) -0.9654(7) 0.38723(19)
C28 C -0.2201(4) -1.1102(7) 0.37496(19)
H18 H -0.1604 -1.1255 0.3637
C29 C -0.2827(5) -1.2322(7) 0.3790(2)
H19 H -0.2654 -1.3290 0.3707
C30 C -0.1821(4) -0.8338(6) 0.38025(18)
C31 C -0.1414(4) -0.7112(6) 0.40758(17)
C32 C -0.0975(4) -0.6191(6) 0.37874(18)
C33 C -0.1414(5) -0.6905(7) 0.45721(18)
H20 H -0.1783 -0.7728 0.4674
H21 H -0.1748 -0.5964 0.4614
H22 H -0.0712 -0.6891 0.4746
C34 C -0.0488(4) -0.4708(7) 0.3863(2)
loop_
_geom_bond_atom_site_label_1
_geom_bond_atom_site_label_2
_geom_bond_site_symmetry_1
_geom_bond_site_symmetry_2
Cl1 C1 1_555 1_555
Cl2 C5 1_555 1_555
Cl3 C7 1_555 1_555
Cl4 C18 1_555 1_555
Cl5 C20 1_555 1_555
Cl6 C24 1_555 1_555
O1 C17 1_555 1_555
O2 H1 1_555 1_555
O3 H2 1_555 1_555
O4 C34 1_555 1_555
N1 N2 1_555 1_555
N2 C15 1_555 1_555
N3 N4 1_555 1_555
N4 C21 1_555 1_555
C1 C2 1_555 1_555
C2 H3 1_555 1_555
C3 C2 1_555 1_555
H4 C3 1_555 1_555
C4 N1 1_555 1_555
C5 C4 1_555 1_555
C6 C1 1_555 1_555
H5 C6 1_555 1_555
C7 C8 1_555 1_555
C8 H6 1_555 1_555
C9 C8 1_555 1_555
H7 C9 1_555 1_555
C10 C9 1_555 1_555
C11 C10 1_555 1_555
H8 C11 1_555 1_555
C12 C7 1_555 1_555
H9 C12 1_555 1_555
C13 N1 1_555 1_555
C14 C13 1_555 1_555
C15 C14 1_555 1_555
C16 C14 1_555 1_555
H10 C16 1_555 1_555
H11 C16 1_555 1_555
H12 C16 1_555 1_555
C17 O2 1_555 1_555
C18 C19 1_555 1_555
C19 H13 1_555 1_555
C20 C19 1_555 1_555
C21 C20 1_555 1_555
C22 C21 1_555 1_555
H14 C22 1_555 1_555
C23 C18 1_555 1_555
H15 C23 1_555 1_555
C24 C25 1_555 1_555
C25 H16 1_555 1_555
C26 C25 1_555 1_555
H17 C26 1_555 1_555
C27 C26 1_555 1_555
C28 C27 1_555 1_555
H18 C28 1_555 1_555
C29 C24 1_555 1_555
H19 C29 1_555 1_555
C30 N4 1_555 1_555
C31 C30 1_555 1_555
C32 N3 1_555 1_555
C33 C31 1_555 1_555
H20 C33 1_555 1_555
H21 C33 1_555 1_555
H22 C33 1_555 1_555
C34 O3 1_555 1_555
C3 C4 1_555 1_555
C5 C6 1_555 1_555
C10 C13 1_555 1_555
C11 C12 1_555 1_555
C15 C17 1_555 1_555
C22 C23 1_555 1_555
C27 C30 1_555 1_555
C28 C29 1_555 1_555
C31 C32 1_555 1_555
C32 C34 1_555 1_555

#END
