
#######################################################################
#
#                 Cambridge Crystallographic Data Centre
#                                CCDC 
#
#######################################################################
#
# If this CIF has been generated from an entry in the Cambridge 
# Structural Database, then it will include bibliographic, chemical, 
# crystal, experimental, refinement or atomic coordinate data resulting 
# from the CCDC's data processing and validation procedures.
#
#######################################################################

data_OGERAU
_chemical_formula_moiety         'C26 H26 N2 O2 S1'
_chemical_name_systematic        
5-t-Butyl-2-(5-(5-t-butyl-1,3-benzoxazol-2-yl)-2-thienyl)-1,3-benzoxazole
_symmetry_cell_setting           triclinic
_symmetry_space_group_name_H-M   'P -1'
_symmetry_Int_Tables_number      2
_space_group_name_Hall           '-P 1'
loop_
_symmetry_equiv_pos_site_id
_symmetry_equiv_pos_as_xyz
1 x,y,z
2 -x,-y,-z
_cell_length_a                   6.0852(12)
_cell_length_b                   11.520(2)
_cell_length_c                   16.986(3)
_cell_angle_alpha                72.79(3)
_cell_angle_beta                 88.88(3)
_cell_angle_gamma                79.32(3)
_cell_volume                     1116.94
_exptl_crystal_colour            yellow
_exptl_crystal_description       block
_cell_formula_units_Z            2
_exptl_crystal_recrystallization_method ethanol
loop_
_atom_site_label
_atom_site_type_symbol
_atom_site_fract_x
_atom_site_fract_y
_atom_site_fract_z
S1 S 0.58719(14) 0.77701(8) 0.00117(5)
O1 O 0.2519(4) 1.00117(19) -0.08466(12)
O2 O 1.1731(3) 0.55542(18) 0.07064(12)
N1 N 0.3847(5) 1.0267(3) -0.21200(16)
N2 N 0.8447(4) 0.5523(2) 0.13353(16)
C1 C -0.1548(7) 1.4283(4) -0.4007(3)
C2 C -0.3823(7) 1.2682(4) -0.3939(2)
C3 C -0.4984(8) 1.4230(4) -0.3198(3)
C4 C -0.2957(6) 1.3431(3) -0.34509(19)
C5 C -0.1536(5) 1.2540(3) -0.27123(18)
C6 C 0.0494(5) 1.1872(3) -0.28414(18)
C7 C 0.1771(5) 1.1053(3) -0.21673(18)
C8 C 0.0973(5) 1.0894(3) -0.13912(17)
C9 C -0.1032(6) 1.1522(3) -0.1232(2)
C10 C -0.2260(6) 1.2345(3) -0.19051(19)
C11 C 0.4174(5) 0.9704(3) -0.13440(18)
C12 C 0.6087(5) 0.8788(3) -0.09425(18)
C13 C 0.8153(6) 0.8580(3) -0.12375(19)
C14 C 0.9600(6) 0.7598(3) -0.06945(19)
C15 C 0.8597(5) 0.7069(3) 0.00045(18)
C16 C 0.9503(5) 0.6044(3) 0.07071(19)
C17 C 1.2069(5) 0.4605(3) 0.14351(17)
C18 C 1.0079(5) 0.4580(3) 0.18216(18)
C19 C 0.9930(5) 0.3697(3) 0.25628(18)
C20 C 1.1818(5) 0.2826(3) 0.29081(18)
C21 C 1.3811(5) 0.2891(3) 0.24862(19)
C22 C 1.4005(5) 0.3778(3) 0.17496(19)
C23 C 1.1718(5) 0.1827(3) 0.37112(19)
C24 C 1.3987(10) 0.1150(10) 0.4102(6)
C25 C 1.0524(16) 0.0853(6) 0.3523(4)
C26 C 1.0314(17) 0.2331(7) 0.4322(4)
H1 H -0.24570 1.48400 -0.44690
H2 H -0.03250 1.37960 -0.42020
H3 H -0.09720 1.47480 -0.37020
H4 H -0.47220 1.32330 -0.44060
H5 H -0.44820 1.47120 -0.28870
H6 H -0.59200 1.37060 -0.28640
H7 H 0.10010 1.19690 -0.33730
H8 H -0.15400 1.14010 -0.06990
H9 H -0.47120 1.21410 -0.35930
H10 H -0.25800 1.21990 -0.41260
H11 H -0.58200 1.47730 -0.36820
H12 H 0.85790 0.36850 0.28280
H13 H 1.50760 0.23040 0.27150
H14 H 1.53530 0.38140 0.14850
H15 H 1.44840 0.04530 0.39010
H16 H 1.38780 0.08690 0.46900
H17 H 1.50390 0.17000 0.39630
H18 H 0.99670 0.11480 0.29600
H19 H 0.93010 0.07220 0.38830
H20 H 1.15680 0.00880 0.36080
H21 H 0.87580 0.23900 0.41970
H22 H 1.05960 0.31370 0.42880
H23 H 1.06940 0.17870 0.48700
H24 H -0.36330 1.27920 -0.18190
H25 H 0.85680 0.90420 -0.17470
H26 H 1.10850 0.73370 -0.08010
C27? C 0.9370(10) 0.1644(12) 0.3948(8)
C28? C 1.273(2) 0.2224(8) 0.4398(5)
C29? C 1.3145(18) 0.0592(6) 0.3717(6)
H27? H 1.33780 0.29410 0.41540
H28? H 1.38710 0.15600 0.47090
H29? H 1.15780 0.24140 0.47580
H30? H 1.24530 0.02460 0.33590
H31? H 1.32770 0.00360 0.42680
H32? H 1.46060 0.07150 0.35280
H33? H 0.86350 0.14870 0.35050
H34? H 0.85490 0.23750 0.40530
H35? H 0.94360 0.09520 0.44350
loop_
_geom_bond_atom_site_label_1
_geom_bond_atom_site_label_2
_geom_bond_site_symmetry_1
_geom_bond_site_symmetry_2
S1 C12 1_555 1_555
O1 C8 1_555 1_555
O2 C16 1_555 1_555
N1 C7 1_555 1_555
N2 C16 1_555 1_555
C1 C4 1_555 1_555
C2 C4 1_555 1_555
C3 C4 1_555 1_555
C4 C5 1_555 1_555
C5 C6 1_555 1_555
C6 C7 1_555 1_555
C7 C8 1_555 1_555
C8 C9 1_555 1_555
C9 C10 1_555 1_555
C10 C5 1_555 1_555
C11 O1 1_555 1_555
C12 C11 1_555 1_555
C13 C12 1_555 1_555
C14 C13 1_555 1_555
C15 S1 1_555 1_555
C16 C15 1_555 1_555
C17 O2 1_555 1_555
C18 N2 1_555 1_555
C19 C18 1_555 1_555
C20 C19 1_555 1_555
C21 C20 1_555 1_555
C22 C17 1_555 1_555
C23 C20 1_555 1_555
C24 C23 1_555 1_555
C25 C23 1_555 1_555
C26 C23 1_555 1_555
H1 C1 1_555 1_555
H2 C1 1_555 1_555
H3 C1 1_555 1_555
H4 C2 1_555 1_555
H5 C3 1_555 1_555
H6 C3 1_555 1_555
H7 C6 1_555 1_555
H8 C9 1_555 1_555
H9 C2 1_555 1_555
H10 C2 1_555 1_555
H11 C3 1_555 1_555
H12 C19 1_555 1_555
H13 C21 1_555 1_555
H14 C22 1_555 1_555
H15 C24 1_555 1_555
H16 C24 1_555 1_555
H17 C24 1_555 1_555
H18 C25 1_555 1_555
H19 C25 1_555 1_555
H20 C25 1_555 1_555
H21 C26 1_555 1_555
H22 C26 1_555 1_555
H23 C26 1_555 1_555
H24 C10 1_555 1_555
H25 C13 1_555 1_555
H26 C14 1_555 1_555
N1 C11 1_555 1_555
C14 C15 1_555 1_555
C17 C18 1_555 1_555
C21 C22 1_555 1_555

#END
