
#######################################################################
#
#                 Cambridge Crystallographic Data Centre
#                                CCDC 
#
#######################################################################
#
# If this CIF has been generated from an entry in the Cambridge 
# Structural Database, then it will include bibliographic, chemical, 
# crystal, experimental, refinement or atomic coordinate data resulting 
# from the CCDC's data processing and validation procedures.
#
#######################################################################

data_OGESEZ
_chemical_formula_moiety         'C16 H15 N1 O4,C1 H4 O1'
_chemical_name_systematic        
'2-(4-Dimethylamino-2-hydroxybenzoyl)benzoic acid methanol solvate'
_symmetry_cell_setting           triclinic
_symmetry_space_group_name_H-M   'P -1'
_symmetry_Int_Tables_number      2
_space_group_name_Hall           '-P 1'
loop_
_symmetry_equiv_pos_site_id
_symmetry_equiv_pos_as_xyz
1 x,y,z
2 -x,-y,-z
_cell_length_a                   7.1438(14)
_cell_length_b                   7.3021(15)
_cell_length_c                   16.613(3)
_cell_angle_alpha                83.92(3)
_cell_angle_beta                 80.21(3)
_cell_angle_gamma                64.94(3)
_cell_volume                     773.044
_exptl_crystal_colour            yellow
_exptl_crystal_description       block
_cell_formula_units_Z            2
_exptl_crystal_recrystallization_method methanol/dichloromethane
loop_
_atom_site_label
_atom_site_type_symbol
_atom_site_fract_x
_atom_site_fract_y
_atom_site_fract_z
O1 O 0.70462(14) -0.28138(12) 0.19780(5)
H1 H 0.651(2) -0.228(2) 0.2486(10)
O2 O 0.54875(13) -0.02370(12) 0.31294(5)
O3 O 0.88960(13) 0.13445(13) 0.30456(5)
O4 O 0.83287(14) 0.32743(14) 0.40966(6)
H2 H 0.973(3) 0.242(3) 0.4146(10)
N1 N 0.81331(15) -0.03715(16) -0.07467(6)
C1 C 0.61529(16) 0.07774(16) 0.17518(7)
C2 C 0.60924(17) 0.23363(17) 0.11636(7)
H3 H 0.5611 0.3674 0.1342
C3 C 0.66995(18) 0.19999(18) 0.03453(7)
H4 H 0.6602 0.3099 -0.0032
C4 C 0.74787(17) -0.00015(18) 0.00592(7)
C5 C 0.75624(17) -0.15813(17) 0.06392(7)
H5 H 0.8070 -0.2923 0.0461
C6 C 0.69205(17) -0.12142(16) 0.14605(7)
C7 C 0.7924(2) 0.1273(2) -0.13552(7)
H6 H 0.6454 0.2228 -0.1325
H7 H 0.8422 0.0720 -0.1902
H8 H 0.8754 0.1975 -0.1247
C8 C 0.9050(2) -0.2431(2) -0.10245(8)
H9 H 1.0167 -0.3284 -0.0704
H10 H 0.9627 -0.2441 -0.1604
H11 H 0.7975 -0.2956 -0.0953
C9 C 0.54677(17) 0.11448(17) 0.26072(7)
C10 C 0.45044(17) 0.32664(16) 0.29110(6)
C11 C 0.24430(18) 0.44749(17) 0.28008(7)
H12 H 0.1761 0.4021 0.2476
C12 C 0.13725(18) 0.63378(17) 0.31616(7)
H13 H -0.0030 0.7156 0.3079
C13 C 0.23498(18) 0.70024(17) 0.36419(7)
H14 H 0.1615 0.8270 0.3893
C14 C 0.44038(18) 0.58132(17) 0.37548(7)
H15 H 0.5068 0.6272 0.4086
C15 C 0.55075(17) 0.39511(16) 0.33878(6)
C16 C 0.77429(17) 0.27111(16) 0.34857(7)
O5 O 0.21609(13) 0.11128(13) 0.44162(5)
H16 H 0.322(3) 0.069(2) 0.4029(10)
C17 C 0.2575(2) 0.2154(2) 0.49935(7)
H17 H 0.1589 0.3581 0.4986
H18 H 0.4004 0.2052 0.4851
H19 H 0.2418 0.1545 0.5541
loop_
_geom_bond_atom_site_label_1
_geom_bond_atom_site_label_2
_geom_bond_site_symmetry_1
_geom_bond_site_symmetry_2
O1 H1 1_555 1_555
O2 C9 1_555 1_555
O3 C16 1_555 1_555
O4 H2 1_555 1_555
N1 C4 1_555 1_555
C1 C2 1_555 1_555
C2 H3 1_555 1_555
C3 C2 1_555 1_555
H4 C3 1_555 1_555
C4 C3 1_555 1_555
C5 C4 1_555 1_555
H5 C5 1_555 1_555
C6 O1 1_555 1_555
C7 N1 1_555 1_555
H6 C7 1_555 1_555
H7 C7 1_555 1_555
H8 C7 1_555 1_555
C8 N1 1_555 1_555
H9 C8 1_555 1_555
H10 C8 1_555 1_555
H11 C8 1_555 1_555
C9 C1 1_555 1_555
C10 C9 1_555 1_555
C11 C10 1_555 1_555
H12 C11 1_555 1_555
C12 C11 1_555 1_555
H13 C12 1_555 1_555
C13 C12 1_555 1_555
H14 C13 1_555 1_555
C14 C13 1_555 1_555
H15 C14 1_555 1_555
C15 C10 1_555 1_555
C16 O4 1_555 1_555
O5 H16 1_555 1_555
C17 O5 1_555 1_555
H17 C17 1_555 1_555
H18 C17 1_555 1_555
H19 C17 1_555 1_555
C1 C6 1_555 1_555
C5 C6 1_555 1_555
C14 C15 1_555 1_555
C15 C16 1_555 1_555

#END
