
#######################################################################
#
#                 Cambridge Crystallographic Data Centre
#                                CCDC 
#
#######################################################################
#
# If this CIF has been generated from an entry in the Cambridge 
# Structural Database, then it will include bibliographic, chemical, 
# crystal, experimental, refinement or atomic coordinate data resulting 
# from the CCDC's data processing and validation procedures.
#
#######################################################################

data_OGESAU
_chemical_formula_moiety         'C6 H3 N2 O6 1-,H3 O1 1+'
_chemical_name_systematic        
'oxonium 2,3-dioxo-1,4-dihydropyrazine-5-carboxylate-6-carboxylic acid'
_symmetry_cell_setting           monoclinic
_symmetry_space_group_name_H-M   'C 2/m'
_symmetry_Int_Tables_number      12
_space_group_name_Hall           '-C 2y'
loop_
_symmetry_equiv_pos_site_id
_symmetry_equiv_pos_as_xyz
1 x,y,z
2 1/2+x,1/2+y,z
3 -x,y,-z
4 1/2-x,1/2+y,-z
5 -x,-y,-z
6 1/2-x,1/2-y,-z
7 x,-y,z
8 1/2+x,1/2-y,z
_cell_length_a                   8.8928(18)
_cell_length_b                   18.176(4)
_cell_length_c                   5.0350(10)
_cell_angle_alpha                90
_cell_angle_beta                 96.65(3)
_cell_angle_gamma                90
_cell_volume                     808.359
_exptl_crystal_colour            brown
_exptl_crystal_description       Tablet
_cell_formula_units_Z            4
loop_
_atom_site_label
_atom_site_type_symbol
_atom_site_fract_x
_atom_site_fract_y
_atom_site_fract_z
N1 N 0.09263(15) 0.28836(8) 0.8078(3)
H1 H 0.146(3) 0.2865(14) 0.689(5)
O1 O 0.20678(16) 0.17262(8) 0.6100(3)
O2 O 0.08215(17) 0.09230(7) 0.8287(3)
H2 H 0.0000 0.092(4) 1.0000
O3 O 0.09148(17) 0.41313(7) 0.8018(3)
C1 C 0.05135(18) 0.35519(9) 0.8906(3)
C2 C 0.04743(16) 0.22143(8) 0.9029(3)
C3 C 0.11675(19) 0.15785(9) 0.7703(3)
C1B C -0.05135(18) 0.35519(9) 1.1094(3)
N1B N -0.09263(15) 0.28836(8) 1.1922(3)
H1B H -0.146(3) 0.2865(14) 1.311(5)
C2B C -0.04743(16) 0.22143(8) 1.0971(3)
O2B O -0.08215(17) 0.09230(7) 1.1713(3)
C3B C -0.11675(19) 0.15785(9) 1.2297(3)
O1B O -0.20678(16) 0.17262(8) 1.3900(3)
O3B O -0.09148(17) 0.41313(7) 1.1982(3)
O4 O 0.1982(3) 0.5000 0.3838(5)
H3 H 0.230(4) 0.448(2) 0.517(8)
H4 H 0.303(5) 0.5000 0.316(8)
H3F H 0.230(4) 0.552(2) 0.517(8)
loop_
_geom_bond_atom_site_label_1
_geom_bond_atom_site_label_2
_geom_bond_site_symmetry_1
_geom_bond_site_symmetry_2
N1 H1 1_555 1_555
O1 C3 1_555 1_555
O2 H2 1_555 1_555
H2 O2B 1_555 1_555
O3 C1 1_555 1_555
C1 N1 1_555 1_555
C2 N1 1_555 1_555
C3 O2 1_555 1_555
O4 H3 1_555 1_555
H4 O4 1_555 1_555
C1B C1 1_555 1_555
N1B C1B 1_555 1_555
H1B N1B 1_555 1_555
C2B C2 1_555 1_555
O2B C3B 1_555 1_555
C3B C2B 1_555 1_555
O1B C3B 1_555 1_555
O3B C1B 1_555 1_555
H3F O4 1_555 1_555
C2 C3 1_555 1_555
N1B C2B 1_555 1_555

#END
