
#######################################################################
#
#                 Cambridge Crystallographic Data Centre
#                                CCDC 
#
#######################################################################
#
# If this CIF has been generated from an entry in the Cambridge 
# Structural Database, then it will include bibliographic, chemical, 
# crystal, experimental, refinement or atomic coordinate data resulting 
# from the CCDC's data processing and validation procedures.
#
#######################################################################

data_OGEVAY
_chemical_formula_moiety         'C15 H17 F1 O1'
_chemical_name_systematic        (E)-2-(4-Fluorobenzylidene)cyclooctanone
_symmetry_cell_setting           orthorhombic
_symmetry_space_group_name_H-M   'P n a 21'
_symmetry_Int_Tables_number      33
_space_group_name_Hall           'P 2c -2n'
loop_
_symmetry_equiv_pos_site_id
_symmetry_equiv_pos_as_xyz
1 x,y,z
2 -x,-y,1/2+z
3 1/2+x,1/2-y,z
4 1/2-x,1/2+y,1/2+z
_cell_length_a                   12.0310(2)
_cell_length_b                   8.60560(10)
_cell_length_c                   12.2438(2)
_cell_angle_alpha                90
_cell_angle_beta                 90
_cell_angle_gamma                90
_cell_volume                     1267.65
_exptl_crystal_colour            colorless
_exptl_crystal_description       block
_cell_formula_units_Z            4
_exptl_crystal_recrystallization_method ethanol
loop_
_atom_site_label
_atom_site_type_symbol
_atom_site_fract_x
_atom_site_fract_y
_atom_site_fract_z
C1 C 0.1978(2) 1.3725(3) 0.0997(2)
H1 H 0.1549 1.4428 0.1392
C2 C 0.1992(2) 1.3747(3) -0.0114(3)
C3 C 0.2606(2) 1.2750(3) -0.0732(2)
H2 H 0.2605 1.2816 -0.1490
C4 C 0.32327(19) 1.1634(2) -0.01984(19)
H3 H 0.3655 1.0940 -0.0607
C5 C 0.32435(18) 1.1529(2) 0.09343(18)
C6 C 0.26236(18) 1.2618(2) 0.1518(2)
H4 H 0.2645 1.2601 0.2277
C7 C 0.39214(17) 1.0387(2) 0.15185(19)
H5 H 0.4307 1.0764 0.2121
C8 C 0.40628(16) 0.8869(2) 0.13044(17)
C9 C 0.4813(2) 0.8002(3) 0.20544(19)
C10 C 0.4617(2) 0.6306(3) 0.2298(2)
H6 H 0.3849 0.6052 0.2133
H7 H 0.4735 0.6124 0.3071
C11 C 0.5378(2) 0.5233(3) 0.1644(2)
H8 H 0.6138 0.5581 0.1745
H9 H 0.5323 0.4197 0.1951
C12 C 0.5154(2) 0.5126(3) 0.0430(2)
H10 H 0.4396 0.4768 0.0327
H11 H 0.5643 0.4345 0.0122
C13 C 0.53068(18) 0.6639(3) -0.0216(2)
H12 H 0.5763 0.7339 0.0214
H13 H 0.5715 0.6403 -0.0879
C14 C 0.42430(19) 0.7491(3) -0.05315(19)
H14 H 0.3820 0.6829 -0.1020
H15 H 0.4446 0.8417 -0.0937
C15 C 0.34864(16) 0.7973(2) 0.0413(2)
H16 H 0.2886 0.8604 0.0125
H17 H 0.3159 0.7046 0.0728
F1 F 0.13754(15) 1.48509(16) -0.06379(17)
O1 O 0.56001(15) 0.86558(19) 0.24861(14)
loop_
_geom_bond_atom_site_label_1
_geom_bond_atom_site_label_2
_geom_bond_site_symmetry_1
_geom_bond_site_symmetry_2
C1 H1 1_555 1_555
C2 C1 1_555 1_555
C3 C2 1_555 1_555
H2 C3 1_555 1_555
C4 C3 1_555 1_555
H3 C4 1_555 1_555
C5 C4 1_555 1_555
C6 C1 1_555 1_555
H4 C6 1_555 1_555
C7 C5 1_555 1_555
H5 C7 1_555 1_555
C8 C7 1_555 1_555
C9 C8 1_555 1_555
C10 C9 1_555 1_555
H6 C10 1_555 1_555
H7 C10 1_555 1_555
C11 C10 1_555 1_555
H8 C11 1_555 1_555
H9 C11 1_555 1_555
C12 C11 1_555 1_555
H10 C12 1_555 1_555
H11 C12 1_555 1_555
C13 C12 1_555 1_555
H12 C13 1_555 1_555
H13 C13 1_555 1_555
C14 C13 1_555 1_555
H14 C14 1_555 1_555
H15 C14 1_555 1_555
C15 C8 1_555 1_555
H16 C15 1_555 1_555
H17 C15 1_555 1_555
F1 C2 1_555 1_555
O1 C9 1_555 1_555
C5 C6 1_555 1_555
C14 C15 1_555 1_555

#END
