
#######################################################################
#
#                 Cambridge Crystallographic Data Centre
#                                CCDC 
#
#######################################################################
#
# If this CIF has been generated from an entry in the Cambridge 
# Structural Database, then it will include bibliographic, chemical, 
# crystal, experimental, refinement or atomic coordinate data resulting 
# from the CCDC's data processing and validation procedures.
#
#######################################################################

data_OGEXAC
_chemical_formula_moiety         'C28 H25 N1 O3'
_chemical_name_systematic        
3-hydroxy-1-methyl-3-[3-methyl-5-(4-methylphenyl)-2-oxo-4-phenylcyclopent-3-en-1-yl]-1,3-dihydro-2H-indol-2-one
_symmetry_cell_setting           orthorhombic
_symmetry_space_group_name_H-M   'P 21 21 21'
_symmetry_Int_Tables_number      19
_space_group_name_Hall           'P 2ac 2ab'
loop_
_symmetry_equiv_pos_site_id
_symmetry_equiv_pos_as_xyz
1 x,y,z
2 1/2-x,-y,1/2+z
3 -x,1/2+y,1/2-z
4 1/2+x,1/2-y,-z
_cell_length_a                   8.39070(10)
_cell_length_b                   16.3415(3)
_cell_length_c                   16.4985(3)
_cell_angle_alpha                90
_cell_angle_beta                 90
_cell_angle_gamma                90
_cell_volume                     2262.22
_exptl_crystal_colour            'light yellow'
_exptl_crystal_description       block
_cell_formula_units_Z            4
_exptl_crystal_recrystallization_method dichloromethane
loop_
_atom_site_label
_atom_site_type_symbol
_atom_site_fract_x
_atom_site_fract_y
_atom_site_fract_z
O1 O 0.5391(2) 0.12756(10) 0.87140(11)
H1 H 0.523658 0.092243 0.836974
O2 O 0.2498(2) 0.19313(12) 0.78182(13)
O3 O 0.5462(3) 0.06974(10) 0.71373(12)
N1 N 0.3136(2) 0.29564(13) 0.87116(13)
C1 C 0.7254(3) 0.28442(18) 0.92734(16)
H2 H 0.810992 0.250452 0.915079
C2 C 0.7443(4) 0.3502(2) 0.98012(19)
H3 H 0.843445 0.360394 1.003163
C3 C 0.6184(5) 0.3997(2) 0.99829(19)
H4 H 0.633579 0.443347 1.033602
C4 C 0.4673(4) 0.38653(17) 0.96526(17)
H5 H 0.381502 0.420089 0.978176
C5 C 0.4513(3) 0.32161(14) 0.91270(14)
C6 C 0.5788(3) 0.27065(14) 0.89384(14)
C7 C 0.5231(3) 0.20653(13) 0.83539(14)
C8 C 0.3442(3) 0.22852(14) 0.82489(15)
C9 C 0.6101(3) 0.20936(12) 0.75339(14)
H6 H 0.724390 0.203410 0.764146
C10 C 0.5620(3) 0.14174(13) 0.69512(16)
C11 C 0.5407(3) 0.17634(14) 0.61406(15)
C12 C 0.5532(3) 0.25829(13) 0.61831(14)
C13 C 0.5869(3) 0.28876(12) 0.70429(13)
H7 H 0.491285 0.316529 0.724470
C14 C 0.5023(4) 0.12142(17) 0.54442(18)
H8 H 0.446075 0.151847 0.503685
H9 H 0.436906 0.076981 0.562915
H10 H 0.599291 0.100114 0.521885
C15 C 0.5370(3) 0.31765(14) 0.55136(14)
C16 C 0.5955(4) 0.30147(17) 0.47453(17)
H11 H 0.643119 0.251195 0.464028
C17 C 0.5842(4) 0.3591(2) 0.41282(18)
H12 H 0.624283 0.347451 0.361567
C18 C 0.5136(5) 0.4333(2) 0.42786(19)
H13 H 0.505360 0.471821 0.386538
C19 C 0.4550(5) 0.45115(18) 0.5035(2)
H14 H 0.407538 0.501592 0.513420
C20 C 0.4667(4) 0.39376(16) 0.56501(16)
H15 H 0.427094 0.406179 0.616199
C21 C 0.7245(3) 0.34860(13) 0.70724(13)
C22 C 0.8737(3) 0.32740(17) 0.67912(17)
H16 H 0.892325 0.274180 0.661522
C23 C 0.9953(4) 0.3837(2) 0.67671(18)
H17 H 1.095104 0.367694 0.657984
C24 C 0.9722(4) 0.46386(19) 0.70164(17)
C25 C 0.8237(4) 0.48418(16) 0.7309(2)
H18 H 0.804920 0.537387 0.748446
C26 C 0.7023(3) 0.42757(14) 0.73477(17)
H19 H 0.604145 0.442734 0.756199
C27 C 1.1044(5) 0.5264(3) 0.6963(3)
H20 H 1.061092 0.580196 0.704452
H21 H 1.153286 0.523561 0.643762
H22 H 1.182701 0.515326 0.737241
C28 C 0.1569(4) 0.3321(2) 0.8803(2)
H23 H 0.123386 0.327574 0.935788
H24 H 0.082287 0.304000 0.846085
H25 H 0.161356 0.388750 0.865190
loop_
_geom_bond_atom_site_label_1
_geom_bond_atom_site_label_2
_geom_bond_site_symmetry_1
_geom_bond_site_symmetry_2
O1 H1 1_555 1_555
O2 C8 1_555 1_555
O3 C10 1_555 1_555
N1 C5 1_555 1_555
C1 H2 1_555 1_555
C2 C1 1_555 1_555
H3 C2 1_555 1_555
C3 C2 1_555 1_555
H4 C3 1_555 1_555
C4 C3 1_555 1_555
H5 C4 1_555 1_555
C5 C4 1_555 1_555
C6 C1 1_555 1_555
C7 O1 1_555 1_555
C8 N1 1_555 1_555
C9 C7 1_555 1_555
H6 C9 1_555 1_555
C10 C9 1_555 1_555
C11 C10 1_555 1_555
C12 C11 1_555 1_555
C13 C9 1_555 1_555
H7 C13 1_555 1_555
C14 C11 1_555 1_555
H8 C14 1_555 1_555
H9 C14 1_555 1_555
H10 C14 1_555 1_555
C15 C12 1_555 1_555
C16 C15 1_555 1_555
H11 C16 1_555 1_555
C17 C16 1_555 1_555
H12 C17 1_555 1_555
C18 C17 1_555 1_555
H13 C18 1_555 1_555
C19 C18 1_555 1_555
H14 C19 1_555 1_555
C20 C15 1_555 1_555
H15 C20 1_555 1_555
C21 C13 1_555 1_555
C22 C21 1_555 1_555
H16 C22 1_555 1_555
C23 C22 1_555 1_555
H17 C23 1_555 1_555
C24 C23 1_555 1_555
C25 C24 1_555 1_555
H18 C25 1_555 1_555
C26 C21 1_555 1_555
H19 C26 1_555 1_555
C27 C24 1_555 1_555
H20 C27 1_555 1_555
H21 C27 1_555 1_555
H22 C27 1_555 1_555
C28 N1 1_555 1_555
H23 C28 1_555 1_555
H24 C28 1_555 1_555
H25 C28 1_555 1_555
C5 C6 1_555 1_555
C6 C7 1_555 1_555
C7 C8 1_555 1_555
C12 C13 1_555 1_555
C19 C20 1_555 1_555
C25 C26 1_555 1_555

#END
