
#######################################################################
#
#                 Cambridge Crystallographic Data Centre
#                                CCDC 
#
#######################################################################
#
# If this CIF has been generated from an entry in the Cambridge 
# Structural Database, then it will include bibliographic, chemical, 
# crystal, experimental, refinement or atomic coordinate data resulting 
# from the CCDC's data processing and validation procedures.
#
#######################################################################

data_OGIMEY
_chemical_formula_moiety         'C40 H40 Ca2 N8 O12,5.2(H2 O1)'
_chemical_name_systematic        
"bis(\m~2~-6,6'-(((Pyridin-2-ylmethyl)imino)bis(methylene))bis(pyridine-2-carboxylato))-tetra-aqua-di-calcium hydrate"
_symmetry_cell_setting           monoclinic
_symmetry_space_group_name_H-M   'P 21/n'
_symmetry_Int_Tables_number      14
_space_group_name_Hall           '-P 2yn'
loop_
_symmetry_equiv_pos_site_id
_symmetry_equiv_pos_as_xyz
1 x,y,z
2 1/2-x,1/2+y,1/2-z
3 -x,-y,-z
4 1/2+x,1/2-y,1/2+z
_cell_length_a                   10.1802(5)
_cell_length_b                   23.6482(6)
_cell_length_c                   10.2620(4)
_cell_angle_alpha                90
_cell_angle_beta                 113.840(5)
_cell_angle_gamma                90
_cell_volume                     2259.72
_exptl_crystal_colour            colorless
_exptl_crystal_description       block
_cell_formula_units_Z            2
loop_
_atom_site_label
_atom_site_type_symbol
_atom_site_fract_x
_atom_site_fract_y
_atom_site_fract_z
Ca1 Ca 0.36397(4) 0.436691(16) 0.90633(4)
O1 O 0.38011(13) 0.53266(5) 1.00576(13)
O2 O 0.27525(16) 0.59625(6) 1.0924(2)
O3 O 0.44935(14) 0.41890(5) 1.16005(14)
O4 O 0.46629(15) 0.36666(5) 1.34807(14)
N1 N 0.12495(17) 0.38401(7) 0.70734(18)
N2 N 0.12366(16) 0.48164(6) 0.86264(16)
N3 N 0.28032(17) 0.34430(6) 0.97699(18)
N4 N 0.06400(18) 0.32593(7) 0.39894(18)
C1 C -0.0041(2) 0.39969(9) 0.7307(2)
H1 H -0.092(2) 0.3912(9) 0.649(2)
H2 H -0.009(2) 0.3761(9) 0.806(2)
C2 C -0.0034(2) 0.46040(8) 0.77310(19)
C3 C -0.1289(2) 0.49194(10) 0.7290(2)
H3 H -0.216(2) 0.4771(9) 0.659(2)
C4 C -0.1253(2) 0.54511(10) 0.7850(2)
H4 H -0.209(2) 0.5663(9) 0.756(2)
C5 C 0.0030(2) 0.56604(9) 0.8828(2)
H5 H 0.015(2) 0.6023(9) 0.927(2)
C6 C 0.1258(2) 0.53341(8) 0.9167(2)
C7 C 0.2718(2) 0.55578(8) 1.0134(2)
C8 C 0.1478(2) 0.32271(9) 0.7262(2)
H6 H 0.063(2) 0.3000(9) 0.670(2)
H7 H 0.226(2) 0.3110(8) 0.691(2)
C9 C 0.2002(2) 0.30613(8) 0.8813(2)
C10 C 0.1696(2) 0.25331(9) 0.9217(2)
H8 H 0.110(2) 0.2287(9) 0.853(2)
C11 C 0.2209(2) 0.23981(9) 1.0635(3)
H9 H 0.202(2) 0.2051(10) 1.096(2)
C12 C 0.3025(2) 0.27920(8) 1.1635(2)
H10 H 0.340(2) 0.2725(8) 1.258(2)
C13 C 0.3304(2) 0.33072(8) 1.1157(2)
C14 C 0.4229(2) 0.37568(8) 1.2172(2)
C15 C 0.1151(2) 0.40358(9) 0.5661(2)
H11 H 0.0902(19) 0.4433(8) 0.5576(19)
H12 H 0.210(2) 0.4009(8) 0.561(2)
C16 C 0.0105(2) 0.37181(8) 0.4384(2)
C17 C -0.1311(2) 0.38866(9) 0.3666(2)
H13 H -0.163(2) 0.4218(9) 0.396(2)
C18 C -0.2206(2) 0.35731(10) 0.2509(2)
H14 H -0.318(2) 0.3700(9) 0.199(2)
C19 C -0.1668(2) 0.31013(9) 0.2112(2)
H15 H -0.226(2) 0.2878(9) 0.131(2)
C20 C -0.0251(2) 0.29589(9) 0.2867(2)
H16 H 0.015(2) 0.2628(9) 0.263(2)
O5 O 0.36148(16) 0.49367(6) 0.70860(16)
H17 H 0.414(3) 0.5220(11) 0.741(3)
H18 H 0.399(3) 0.4755(12) 0.658(3)
O6 O 0.46021(18) 0.36536(7) 0.80019(19)
H19 H 0.437(3) 0.3491(13) 0.722(3)
H20 H 0.554(3) 0.3747(12) 0.835(3)
Ca1B Ca 0.63603(4) 0.563309(16) 1.09367(4)
O1B O 0.61989(13) 0.46734(5) 0.99424(13)
O2B O 0.72475(16) 0.40375(6) 0.9076(2)
O3B O 0.55065(14) 0.58110(5) 0.83995(14)
O4B O 0.53371(15) 0.63334(5) 0.65193(14)
N1B N 0.87505(17) 0.61599(7) 1.29266(18)
N2B N 0.87634(16) 0.51836(6) 1.13736(16)
N3B N 0.71968(17) 0.65570(6) 1.02301(18)
N4B N 0.93600(18) 0.67407(7) 1.60106(18)
C1B C 1.0041(2) 0.60031(9) 1.2693(2)
H1B H 1.092(2) 0.6088(9) 1.351(2)
H2B H 1.009(2) 0.6239(9) 1.194(2)
C2B C 1.0034(2) 0.53960(8) 1.22690(19)
C3B C 1.1289(2) 0.50806(10) 1.2710(2)
H3B H 1.216(2) 0.5229(9) 1.341(2)
C4B C 1.1253(2) 0.45489(10) 1.2150(2)
H4B H 1.209(2) 0.4337(9) 1.244(2)
C5B C 0.9970(2) 0.43396(9) 1.1172(2)
H5B H 0.985(2) 0.3977(9) 1.073(2)
C6B C 0.8742(2) 0.46659(8) 1.0833(2)
C7B C 0.7282(2) 0.44422(8) 0.9866(2)
C8B C 0.8522(2) 0.67729(9) 1.2738(2)
H6B H 0.937(2) 0.7000(9) 1.330(2)
H7B H 0.774(2) 0.6890(8) 1.309(2)
C9B C 0.7998(2) 0.69387(8) 1.1187(2)
C10B C 0.8304(2) 0.74669(9) 1.0783(2)
H8B H 0.890(2) 0.7713(9) 1.147(2)
C11B C 0.7791(2) 0.76019(9) 0.9365(3)
H9B H 0.798(2) 0.7949(10) 0.904(2)
C12B C 0.6975(2) 0.72080(8) 0.8365(2)
H10B H 0.660(2) 0.7275(8) 0.742(2)
C13B C 0.6696(2) 0.66928(8) 0.8843(2)
C14B C 0.5771(2) 0.62432(8) 0.7828(2)
C15B C 0.8849(2) 0.59642(9) 1.4339(2)
H11B H 0.9098(19) 0.5567(8) 1.4424(19)
H12B H 0.790(2) 0.5991(8) 1.439(2)
C16B C 0.9895(2) 0.62819(8) 1.5616(2)
C17B C 1.1311(2) 0.61134(9) 1.6334(2)
H13B H 1.163(2) 0.5782(9) 1.604(2)
C18B C 1.2206(2) 0.64269(10) 1.7491(2)
H14B H 1.318(2) 0.6300(9) 1.801(2)
C19B C 1.1668(2) 0.68987(9) 1.7888(2)
H15B H 1.226(2) 0.7122(9) 1.869(2)
C20B C 1.0251(2) 0.70411(9) 1.7133(2)
H16B H 0.985(2) 0.7372(9) 1.737(2)
O5B O 0.63852(16) 0.50633(6) 1.29140(16)
H17B H 0.586(3) 0.4780(11) 1.259(3)
H18B H 0.601(3) 0.5245(12) 1.342(3)
O6B O 0.53979(18) 0.63464(7) 1.19981(19)
H19B H 0.563(3) 0.6509(13) 1.278(3)
H20B H 0.446(3) 0.6253(12) 1.165(3)
O7 O 0.36604(18) 0.30815(6) 0.52925(17)
H21 H 0.272(3) 0.3134(11) 0.486(3)
H22 H 0.401(3) 0.3231(12) 0.474(3)
O8 O 0.3846(4) 0.19194(11) 0.4134(4)
H23 H 0.329(4) 0.1656(14) 0.416(5)
H24 H 0.379(4) 0.2209(12) 0.459(4)
O9 O 0.5304(10) 0.4382(5) 0.5827(15)
H25 H 0.599(7) 0.428(3) 0.655(8)
H26 H 0.505(4) 0.4229(16) 0.491(4)
O10? O 0.4888(16) 0.4548(5) 0.5279(17)
H27? H 0.474(7) 0.480(2) 0.487(7)
loop_
_geom_bond_atom_site_label_1
_geom_bond_atom_site_label_2
_geom_bond_site_symmetry_1
_geom_bond_site_symmetry_2
Ca1 O1 1_555 1_555
O1 C7 1_555 1_555
O2 C7 1_555 1_555
O3 Ca1 1_555 1_555
O4 C14 1_555 1_555
N1 Ca1 1_555 1_555
N2 Ca1 1_555 1_555
N3 Ca1 1_555 1_555
N4 C16 1_555 1_555
C1 N1 1_555 1_555
H1 C1 1_555 1_555
H2 C1 1_555 1_555
C2 N2 1_555 1_555
C3 C2 1_555 1_555
H3 C3 1_555 1_555
C4 C3 1_555 1_555
H4 C4 1_555 1_555
C5 C4 1_555 1_555
H5 C5 1_555 1_555
C6 N2 1_555 1_555
C7 C6 1_555 1_555
C8 N1 1_555 1_555
H6 C8 1_555 1_555
H7 C8 1_555 1_555
C9 N3 1_555 1_555
C10 C9 1_555 1_555
H8 C10 1_555 1_555
C11 C10 1_555 1_555
H9 C11 1_555 1_555
C12 C11 1_555 1_555
H10 C12 1_555 1_555
C13 N3 1_555 1_555
C14 O3 1_555 1_555
C15 N1 1_555 1_555
H11 C15 1_555 1_555
H12 C15 1_555 1_555
C16 C15 1_555 1_555
C17 C16 1_555 1_555
H13 C17 1_555 1_555
C18 C17 1_555 1_555
H14 C18 1_555 1_555
C19 C18 1_555 1_555
H15 C19 1_555 1_555
C20 N4 1_555 1_555
H16 C20 1_555 1_555
O5 Ca1 1_555 1_555
H17 O5 1_555 1_555
H18 O5 1_555 1_555
O6 Ca1 1_555 1_555
H19 O6 1_555 1_555
H20 O6 1_555 1_555
O7 H21 1_555 1_555
H22 O7 1_555 1_555
O8 H23 1_555 1_555
H24 O8 1_555 1_555
O9 H25 1_555 1_555
H26 O9 1_555 1_555
Ca1B O1 1_555 1_555
O1B Ca1 1_555 1_555
O2B C7B 1_555 1_555
O3B Ca1B 1_555 1_555
O4B C14B 1_555 1_555
N1B Ca1B 1_555 1_555
N2B Ca1B 1_555 1_555
N3B Ca1B 1_555 1_555
N4B C16B 1_555 1_555
C1B N1B 1_555 1_555
H1B C1B 1_555 1_555
H2B C1B 1_555 1_555
C2B N2B 1_555 1_555
C3B C2B 1_555 1_555
H3B C3B 1_555 1_555
C4B C3B 1_555 1_555
H4B C4B 1_555 1_555
C5B C4B 1_555 1_555
H5B C5B 1_555 1_555
C6B N2B 1_555 1_555
C7B O1B 1_555 1_555
C8B N1B 1_555 1_555
H6B C8B 1_555 1_555
H7B C8B 1_555 1_555
C9B N3B 1_555 1_555
C10B C9B 1_555 1_555
H8B C10B 1_555 1_555
C11B C10B 1_555 1_555
H9B C11B 1_555 1_555
C12B C11B 1_555 1_555
H10B C12B 1_555 1_555
C13B N3B 1_555 1_555
C14B O3B 1_555 1_555
C15B N1B 1_555 1_555
H11B C15B 1_555 1_555
H12B C15B 1_555 1_555
C16B C15B 1_555 1_555
C17B C16B 1_555 1_555
H13B C17B 1_555 1_555
C18B C17B 1_555 1_555
H14B C18B 1_555 1_555
C19B C18B 1_555 1_555
H15B C19B 1_555 1_555
C20B N4B 1_555 1_555
H16B C20B 1_555 1_555
O5B Ca1B 1_555 1_555
H17B O5B 1_555 1_555
H18B O5B 1_555 1_555
O6B Ca1B 1_555 1_555
H19B O6B 1_555 1_555
H20B O6B 1_555 1_555
C1 C2 1_555 1_555
C5 C6 1_555 1_555
C8 C9 1_555 1_555
C12 C13 1_555 1_555
C13 C14 1_555 1_555
C19 C20 1_555 1_555
Ca1B O1B 1_555 1_555
C1B C2B 1_555 1_555
C5B C6B 1_555 1_555
C6B C7B 1_555 1_555
C8B C9B 1_555 1_555
C12B C13B 1_555 1_555
C13B C14B 1_555 1_555
C19B C20B 1_555 1_555

#END
