
#######################################################################
#
#                 Cambridge Crystallographic Data Centre
#                                CCDC 
#
#######################################################################
#
# If this CIF has been generated from an entry in the Cambridge 
# Structural Database, then it will include bibliographic, chemical, 
# crystal, experimental, refinement or atomic coordinate data resulting 
# from the CCDC's data processing and validation procedures.
#
#######################################################################

data_OGIMUO
_chemical_formula_moiety         'C24 H40 Cl2 N4 Si2'
_chemical_name_systematic        
N^1^,N^1^,N^1^,N^1^,N^2^,N^2^,N^2^,N^2^-Octa-allyl-1,2-dichlorodisilane-1,1,2,2-tetramine
_symmetry_cell_setting           triclinic
_symmetry_space_group_name_H-M   'P -1'
_symmetry_Int_Tables_number      2
_space_group_name_Hall           '-P 1'
loop_
_symmetry_equiv_pos_site_id
_symmetry_equiv_pos_as_xyz
1 x,y,z
2 -x,-y,-z
_cell_length_a                   10.506(5)
_cell_length_b                   11.813(6)
_cell_length_c                   14.203(7)
_cell_angle_alpha                105.178(7)
_cell_angle_beta                 97.976(9)
_cell_angle_gamma                112.585(7)
_cell_volume                     1513.04
_cell_formula_units_Z            2
loop_
_atom_site_label
_atom_site_type_symbol
_atom_site_fract_x
_atom_site_fract_y
_atom_site_fract_z
C1 C 1.2481(4) 0.4941(4) 0.2459(3)
H1 H 1.2658 0.4273 0.2649
H2 H 1.3114 0.5778 0.2978
C2 C 1.2817(5) 0.4943(5) 0.1475(4)
H3 H 1.2282 0.4174 0.0926
C3 C 1.3738(7) 0.5861(7) 0.1301(5)
H4 H 1.4305 0.6653 0.1822
H5 H 1.3854 0.5749 0.0650
C4 C 1.0664(5) 0.5772(4) 0.2392(4)
H6 H 0.9634 0.5464 0.2233
H7 H 1.0990 0.6070 0.1857
C5 C 1.1351(6) 0.6916(5) 0.3388(4)
H8 H 1.1199 0.6739 0.3974
C6 C 0.8639(7) -0.1831(6) 0.1419(4)
H9 H 0.9574 -0.1655 0.1397
C7 C 1.2115(7) 0.8094(5) 0.3482(5)
H10 H 1.2291 0.8310 0.2913
H11 H 1.2498 0.8740 0.4119
C8 C 0.8350(4) 0.2793(4) 0.0466(3)
H12 H 0.7758 0.3196 0.0269
H13 H 0.9333 0.3361 0.0520
C9 C 0.7909(6) 0.1531(5) -0.0327(4)
H14 H 0.8431 0.1066 -0.0241
C10 C 0.6867(7) 0.1013(5) -0.1126(4)
H15 H 0.6317 0.1445 -0.1241
H16 H 0.6660 0.0206 -0.1591
C11 C 0.6774(4) 0.2005(4) 0.1497(3)
H17 H 0.6771 0.1751 0.2093
H18 H 0.6270 0.1218 0.0905
C12 C 0.6021(5) 0.2853(6) 0.1523(4)
H19 H 0.6424 0.3650 0.2051
C13 C 0.4873(7) 0.2579(8) 0.0884(5)
H20 H 0.4434 0.1792 0.0343
H21 H 0.4475 0.3166 0.0958
C14 C 0.8256(5) -0.0680(4) 0.1607(3)
H22 H 0.8351 -0.0345 0.1052
H23 H 0.7271 -0.0968 0.1640
C15 C 0.7808(9) -0.2993(7) 0.1293(5)
H24 H 0.6863 -0.3216 0.1308
H25 H 0.8140 -0.3629 0.1183
C16 C 0.8818(5) 0.0060(5) 0.3444(3)
H26 H 0.9597 0.0670 0.4039
H27 H 0.8701 -0.0813 0.3386
C17 C 0.7492(7) 0.0155(6) 0.3580(4)
H28 H 0.7495 0.0965 0.3670
C18 C 0.6345(7) -0.0750(7) 0.3588(5)
H29 H 0.6284 -0.1579 0.3502
H30 H 0.5566 -0.0583 0.3681
C19 C 1.2610(4) 0.1562(4) 0.3816(3)
H31 H 1.2072 0.0694 0.3314
H32 H 1.2642 0.1480 0.4480
C20 C 1.4113(6) 0.2129(5) 0.3712(4)
H33 H 1.4229 0.2300 0.3119
C21 C 1.5249(6) 0.2397(7) 0.4375(5)
H34 H 1.5179 0.2240 0.4979
H35 H 1.6140 0.2746 0.4251
C22 C 1.2468(4) 0.3644(4) 0.4503(3)
H36 H 1.3485 0.4100 0.4577
H37 H 1.2017 0.4157 0.4307
C23 C 1.2244(6) 0.3538(5) 0.5489(4)
H38 H 1.1302 0.3127 0.5513
C24 C 1.3212(9) 0.3952(6) 0.6305(4)
H39 H 1.4171 0.4370 0.6319
H40 H 1.2964 0.3839 0.6888
Cl1 Cl 1.12221(12) 0.13812(11) 0.13182(8)
Cl2 Cl 0.89752(11) 0.37428(11) 0.37648(7)
N1 N 1.0994(3) 0.4697(3) 0.2416(2)
N2 N 1.1875(3) 0.2352(3) 0.3691(2)
N3 N 0.9197(4) 0.0339(3) 0.2546(2)
N4 N 0.8240(3) 0.2685(3) 0.1464(2)
Si1 Si 0.97080(11) 0.33262(10) 0.24751(7)
Si2 Si 1.05333(11) 0.17943(10) 0.26297(8)
Si3? Si 1.0034(13) 0.2781(12) 0.1763(9)
Si4? Si 0.9915(13) 0.2134(12) 0.3183(9)
loop_
_geom_bond_atom_site_label_1
_geom_bond_atom_site_label_2
_geom_bond_site_symmetry_1
_geom_bond_site_symmetry_2
C1 H1 1_555 1_555
H2 C1 1_555 1_555
C2 C1 1_555 1_555
H3 C2 1_555 1_555
C3 C2 1_555 1_555
H4 C3 1_555 1_555
H5 C3 1_555 1_555
C4 H6 1_555 1_555
H7 C4 1_555 1_555
C5 C4 1_555 1_555
H8 C5 1_555 1_555
C6 H9 1_555 1_555
C7 C5 1_555 1_555
H10 C7 1_555 1_555
H11 C7 1_555 1_555
C8 H12 1_555 1_555
H13 C8 1_555 1_555
C9 C8 1_555 1_555
H14 C9 1_555 1_555
C10 C9 1_555 1_555
H15 C10 1_555 1_555
H16 C10 1_555 1_555
C11 H17 1_555 1_555
H18 C11 1_555 1_555
C12 C11 1_555 1_555
H19 C12 1_555 1_555
C13 C12 1_555 1_555
H20 C13 1_555 1_555
H21 C13 1_555 1_555
C14 C6 1_555 1_555
H22 C14 1_555 1_555
H23 C14 1_555 1_555
C15 C6 1_555 1_555
H24 C15 1_555 1_555
H25 C15 1_555 1_555
C16 H26 1_555 1_555
H27 C16 1_555 1_555
C17 C16 1_555 1_555
H28 C17 1_555 1_555
C18 C17 1_555 1_555
H29 C18 1_555 1_555
H30 C18 1_555 1_555
C19 H31 1_555 1_555
H32 C19 1_555 1_555
C20 C19 1_555 1_555
H33 C20 1_555 1_555
C21 C20 1_555 1_555
H34 C21 1_555 1_555
H35 C21 1_555 1_555
C22 H36 1_555 1_555
H37 C22 1_555 1_555
C23 C22 1_555 1_555
H38 C23 1_555 1_555
C24 C23 1_555 1_555
H39 C24 1_555 1_555
H40 C24 1_555 1_555
Cl1 Si2 1_555 1_555
Cl2 Si1 1_555 1_555
N1 C1 1_555 1_555
N2 C19 1_555 1_555
N3 C14 1_555 1_555
N4 C8 1_555 1_555
Si1 N1 1_555 1_555
Si2 N2 1_555 1_555
C4 N1 1_555 1_555
C11 N4 1_555 1_555
C16 N3 1_555 1_555
C22 N2 1_555 1_555
N3 Si2 1_555 1_555
N4 Si1 1_555 1_555
Si1 Si2 1_555 1_555

#END
