
#######################################################################
#
#                 Cambridge Crystallographic Data Centre
#                                CCDC 
#
#######################################################################
#
# If this CIF has been generated from an entry in the Cambridge 
# Structural Database, then it will include bibliographic, chemical, 
# crystal, experimental, refinement or atomic coordinate data resulting 
# from the CCDC's data processing and validation procedures.
#
#######################################################################

data_OGINAV
_chemical_formula_moiety         'C16 H40 Cl2 N4 Si2'
_chemical_name_systematic        
N^1^,N^1^,N^2^,N^2^-Tetra-t-butyl-1,2-dichlorodisilane-1,1,2,2-tetramine
_symmetry_cell_setting           triclinic
_symmetry_space_group_name_H-M   'P -1'
_symmetry_Int_Tables_number      2
_space_group_name_Hall           '-P 1'
loop_
_symmetry_equiv_pos_site_id
_symmetry_equiv_pos_as_xyz
1 x,y,z
2 -x,-y,-z
_cell_length_a                   6.346(3)
_cell_length_b                   9.156(5)
_cell_length_c                   11.292(6)
_cell_angle_alpha                75.679(7)
_cell_angle_beta                 78.589(8)
_cell_angle_gamma                84.639(8)
_cell_volume                     622.471
_cell_formula_units_Z            1
loop_
_atom_site_label
_atom_site_type_symbol
_atom_site_fract_x
_atom_site_fract_y
_atom_site_fract_z
C1 C 0.2638(7) 0.2657(5) 0.3156(5)
C2 C 0.0511(8) 0.2674(7) 0.2743(6)
H1 H -0.0644 0.2741 0.3422
H2 H 0.0424 0.1764 0.2482
H3 H 0.0403 0.3529 0.2062
C3 C 0.4451(9) 0.2496(9) 0.2089(7)
H4 H 0.4328 0.3313 0.1382
H5 H 0.4362 0.1554 0.1875
H6 H 0.5809 0.2517 0.2335
C4 C 0.2754(14) 0.1408(6) 0.4305(7)
H7 H 0.4149 0.1364 0.4524
H8 H 0.2513 0.0462 0.4143
H9 H 0.1671 0.1604 0.4980
C5 C -0.0495(7) 0.7253(5) 0.1826(4)
C6 C -0.2100(10) 0.6761(10) 0.1157(6)
H10 H -0.3421 0.6511 0.1730
H11 H -0.1503 0.5895 0.0850
H12 H -0.2378 0.7572 0.0475
C7 C -0.1151(18) 0.8800(7) 0.1921(7)
H13 H -0.2370 0.8789 0.2580
H14 H -0.1534 0.9368 0.1151
H15 H 0.0018 0.9259 0.2094
C8 C 0.1712(9) 0.7077(8) 0.1084(5)
H16 H 0.1866 0.7826 0.0313
H17 H 0.1910 0.6089 0.0919
H18 H 0.2772 0.7204 0.1546
Cl1 Cl 0.32335(16) 0.68712(12) 0.42178(10)
N1 N 0.2869(5) 0.4124(4) 0.3450(3)
H19 H 0.4242 0.4170 0.3541
N2 N -0.0693(5) 0.6252(4) 0.3089(3)
H20 H -0.2015 0.6311 0.3343
Si1 Si 0.10557(15) 0.53762(11) 0.40080(9)
C1A C -0.2638(7) 0.7343(5) 0.6844(5)
C2A C -0.0511(8) 0.7326(7) 0.7257(6)
H1A H 0.0644 0.7259 0.6578
H2A H -0.0424 0.8236 0.7518
H3A H -0.0403 0.6471 0.7938
C3A C -0.4451(9) 0.7504(9) 0.7911(7)
H4A H -0.4328 0.6687 0.8618
H5A H -0.4362 0.8446 0.8125
H6A H -0.5809 0.7483 0.7665
C4A C -0.2754(14) 0.8592(6) 0.5695(7)
H7A H -0.4149 0.8636 0.5476
H8A H -0.2513 0.9538 0.5857
H9A H -0.1671 0.8396 0.5020
C5A C 0.0495(7) 0.2747(5) 0.8174(4)
C6A C 0.2100(10) 0.3239(10) 0.8843(6)
H10A H 0.3421 0.3489 0.8270
H11A H 0.1503 0.4105 0.9150
H12A H 0.2378 0.2428 0.9525
C7A C 0.1151(18) 0.1200(7) 0.8079(7)
H13A H 0.2370 0.1211 0.7420
H14A H 0.1534 0.0632 0.8849
H15A H -0.0018 0.0741 0.7906
C8A C -0.1712(9) 0.2923(8) 0.8916(5)
H16A H -0.1866 0.2174 0.9687
H17A H -0.1910 0.3911 0.9081
H18A H -0.2772 0.2796 0.8454
Cl1A Cl -0.32335(16) 0.31288(12) 0.57822(10)
N1A N -0.2869(5) 0.5876(4) 0.6550(3)
H19A H -0.4242 0.5830 0.6459
N2A N 0.0693(5) 0.3748(4) 0.6911(3)
H20A H 0.2015 0.3689 0.6657
Si1A Si -0.10557(15) 0.46238(11) 0.59920(9)
loop_
_geom_bond_atom_site_label_1
_geom_bond_atom_site_label_2
_geom_bond_site_symmetry_1
_geom_bond_site_symmetry_2
C1 C2 1_555 1_555
C2 H1 1_555 1_555
H2 C2 1_555 1_555
H3 C2 1_555 1_555
C3 C1 1_555 1_555
H4 C3 1_555 1_555
H5 C3 1_555 1_555
H6 C3 1_555 1_555
C4 C1 1_555 1_555
H7 C4 1_555 1_555
H8 C4 1_555 1_555
H9 C4 1_555 1_555
C5 C6 1_555 1_555
C6 H10 1_555 1_555
H11 C6 1_555 1_555
H12 C6 1_555 1_555
C7 C5 1_555 1_555
H13 C7 1_555 1_555
H14 C7 1_555 1_555
H15 C7 1_555 1_555
C8 C5 1_555 1_555
H16 C8 1_555 1_555
H17 C8 1_555 1_555
H18 C8 1_555 1_555
Cl1 Si1 1_555 1_555
N1 C1 1_555 1_555
H19 N1 1_555 1_555
N2 C5 1_555 1_555
H20 N2 1_555 1_555
Si1 N1 1_555 1_555
C1A C2A 1_555 1_555
C2A H1A 1_555 1_555
H2A C2A 1_555 1_555
H3A C2A 1_555 1_555
C3A C1A 1_555 1_555
H4A C3A 1_555 1_555
H5A C3A 1_555 1_555
H6A C3A 1_555 1_555
C4A C1A 1_555 1_555
H7A C4A 1_555 1_555
H8A C4A 1_555 1_555
H9A C4A 1_555 1_555
C5A C6A 1_555 1_555
C6A H10A 1_555 1_555
H11A C6A 1_555 1_555
H12A C6A 1_555 1_555
C7A C5A 1_555 1_555
H13A C7A 1_555 1_555
H14A C7A 1_555 1_555
H15A C7A 1_555 1_555
C8A C5A 1_555 1_555
H16A C8A 1_555 1_555
H17A C8A 1_555 1_555
H18A C8A 1_555 1_555
Cl1A Si1A 1_555 1_555
N1A C1A 1_555 1_555
H19A N1A 1_555 1_555
N2A C5A 1_555 1_555
H20A N2A 1_555 1_555
Si1A Si1 1_555 1_555
N2 Si1 1_555 1_555
N1A Si1A 1_555 1_555
N2A Si1A 1_555 1_555

#END
