
#######################################################################
#
#                 Cambridge Crystallographic Data Centre
#                                CCDC 
#
#######################################################################
#
# If this CIF has been generated from an entry in the Cambridge 
# Structural Database, then it will include bibliographic, chemical, 
# crystal, experimental, refinement or atomic coordinate data resulting 
# from the CCDC's data processing and validation procedures.
#
#######################################################################

data_OGIVIL
_chemical_name_common            
(4aR,6aR,8R)-4-(4-Bromobenzoyl)-8-methyldecahydroindeno-[1,7a-b]pyridin-10(1H)-one
_chemical_formula_moiety         'C20 H24 Br1 N1 O2'
_chemical_name_systematic        
1-(4-bromobenzoyl)-7-methyldecahydroindeno[1,7a-b]pyridin-5(2H)-one
_symmetry_cell_setting           orthorhombic
_symmetry_space_group_name_H-M   'P 21 21 21'
_symmetry_Int_Tables_number      19
_space_group_name_Hall           'P 2ac 2ab'
loop_
_symmetry_equiv_pos_site_id
_symmetry_equiv_pos_as_xyz
1 x,y,z
2 1/2+x,1/2-y,-z
3 -x,1/2+y,1/2-z
4 1/2-x,-y,1/2+z
_cell_length_a                   7.77818(14)
_cell_length_b                   13.1580(3)
_cell_length_c                   16.9759(3)
_cell_angle_alpha                90
_cell_angle_beta                 90
_cell_angle_gamma                90
_cell_volume                     1737.4
_exptl_crystal_colour            colorless
_exptl_crystal_description       prism
_chemical_melting_point          '148.0-148.5 deg.C'
_cell_formula_units_Z            4
_exptl_crystal_recrystallization_method 'ethyl acetate/n-hexane'
loop_
_atom_site_label
_atom_site_type_symbol
_atom_site_fract_x
_atom_site_fract_y
_atom_site_fract_z
Br1 Br 0.90659(4) 0.51625(2) 0.240666(17)
O1 O 1.4437(3) 0.97785(14) 0.17967(10)
O2 O 1.6682(3) 0.75356(15) 0.16355(12)
N1 N 1.5148(3) 0.82771(17) 0.06395(13)
C1 C 1.6313(4) 0.9122(2) 0.04497(16)
C2 C 1.7959(4) 0.9328(2) 0.09236(17)
C3 C 1.8455(4) 1.0411(2) 0.06563(18)
C4 C 1.6851(4) 1.0884(2) 0.02435(17)
C5 C 1.6527(4) 1.1999(2) 0.04397(16)
C6 C 1.3710(4) 0.8233(2) 0.00723(16)
C7 C 1.2681(4) 0.9226(2) 0.00475(16)
C8 C 1.3851(4) 1.0136(2) -0.01146(15)
C9 C 1.5364(4) 1.0154(3) 0.04716(15)
C10 C 1.4664(4) 1.0419(2) 0.12954(17)
C11 C 1.4292(4) 1.15262(19) 0.14381(16)
C12 C 1.5895(5) 1.21781(19) 0.12818(16)
C13 C 1.5552(4) 1.3300(2) 0.14454(17)
C14 C 1.5331(4) 0.7640(2) 0.12619(18)
C15 C 1.3777(4) 0.7038(2) 0.15127(16)
C16 C 1.3945(4) 0.6001(2) 0.16543(15)
C17 C 1.2560(4) 0.5432(2) 0.19202(16)
C18 C 1.1002(4) 0.5924(2) 0.20563(15)
C19 C 1.0813(4) 0.6956(2) 0.19475(15)
C20 C 1.2211(4) 0.7511(3) 0.16756(16)
H1 H 1.6682 0.9017 -0.0109
H2 H 1.8871 0.8832 0.0791
H3 H 1.7735 0.9303 0.1497
H4 H 1.9436 1.0383 0.0286
H5 H 1.8793 1.0827 0.1117
H6 H 1.7028 1.0831 -0.0338
H7 H 1.5662 1.2272 0.0068
H8 H 1.7606 1.2384 0.0360
H9 H 1.2933 0.7668 0.0219
H10 H 1.4171 0.8088 -0.0460
H11 H 1.1795 0.9181 -0.0370
H12 H 1.2087 0.9325 0.0557
H13 H 1.3182 1.0772 -0.0066
H14 H 1.4301 1.0094 -0.0659
H15 H 1.6820 1.1947 0.1650
H16 H 1.6604 1.3692 0.1352
H17 H 1.5192 1.3385 0.1995
H18 H 1.4641 1.3544 0.1095
H19 H 1.5021 0.5679 0.1568
H20 H 1.2671 0.4722 0.2008
H21 H 0.9748 0.7281 0.2056
H22 H 1.2100 0.8223 0.1599
H23 H 1.3914 1.1622 0.1990
H24 H 1.3347 1.1749 0.1088
loop_
_geom_bond_atom_site_label_1
_geom_bond_atom_site_label_2
_geom_bond_site_symmetry_1
_geom_bond_site_symmetry_2
Br1 C18 1_555 1_555
O1 C10 1_555 1_555
O2 C14 1_555 1_555
N1 C1 1_555 1_555
C1 C2 1_555 1_555
C2 C3 1_555 1_555
C3 C4 1_555 1_555
C4 C5 1_555 1_555
C5 C12 1_555 1_555
C6 N1 1_555 1_555
C7 C6 1_555 1_555
C8 C7 1_555 1_555
C9 C1 1_555 1_555
C10 C9 1_555 1_555
C11 C10 1_555 1_555
C12 C11 1_555 1_555
C13 C12 1_555 1_555
C14 N1 1_555 1_555
C15 C14 1_555 1_555
C16 C15 1_555 1_555
C17 C16 1_555 1_555
C18 C17 1_555 1_555
C19 C18 1_555 1_555
C20 C15 1_555 1_555
H1 C1 1_555 1_555
H2 C2 1_555 1_555
H3 C2 1_555 1_555
H4 C3 1_555 1_555
H5 C3 1_555 1_555
H6 C4 1_555 1_555
H7 C5 1_555 1_555
H8 C5 1_555 1_555
H9 C6 1_555 1_555
H10 C6 1_555 1_555
H11 C7 1_555 1_555
H12 C7 1_555 1_555
H13 C8 1_555 1_555
H14 C8 1_555 1_555
H15 C12 1_555 1_555
H16 C13 1_555 1_555
H17 C13 1_555 1_555
H18 C13 1_555 1_555
H19 C16 1_555 1_555
H20 C17 1_555 1_555
H21 C19 1_555 1_555
H22 C20 1_555 1_555
H23 C11 1_555 1_555
H24 C11 1_555 1_555
C4 C9 1_555 1_555
C8 C9 1_555 1_555
C19 C20 1_555 1_555

#END
