
#######################################################################
#
#                 Cambridge Crystallographic Data Centre
#                                CCDC 
#
#######################################################################
#
# If this CIF has been generated from an entry in the Cambridge 
# Structural Database, then it will include bibliographic, chemical, 
# crystal, experimental, refinement or atomic coordinate data resulting 
# from the CCDC's data processing and validation procedures.
#
#######################################################################

data_OGIZAH
_chemical_name_common            
3-(5-(diphenylamino)-2-thienyl)-1-phenylprop-2-en-1-one
_chemical_formula_moiety         'C25 H19 N1 O1 S1'
_chemical_name_systematic        
(E)-3-(5-(diphenylamino)thiophen-2-yl)-1-phenylprop-2-en-1-one
_symmetry_cell_setting           monoclinic
_symmetry_space_group_name_H-M   'P 21/c'
_symmetry_Int_Tables_number      14
_space_group_name_Hall           '-P 2ybc'
loop_
_symmetry_equiv_pos_site_id
_symmetry_equiv_pos_as_xyz
1 x,y,z
2 -x,1/2+y,1/2-z
3 -x,-y,-z
4 x,1/2-y,1/2+z
_cell_length_a                   11.145(6)
_cell_length_b                   18.243(9)
_cell_length_c                   9.722(5)
_cell_angle_alpha                90
_cell_angle_beta                 90.995(6)
_cell_angle_gamma                90
_cell_volume                     1976.36
_exptl_crystal_colour            brown
_exptl_crystal_description       block
_chemical_melting_point          '415 K'
_cell_formula_units_Z            4
_exptl_crystal_recrystallization_method acetonitrile
_exptl_crystal_preparation       Luminescent
loop_
_atom_site_label
_atom_site_type_symbol
_atom_site_fract_x
_atom_site_fract_y
_atom_site_fract_z
C1 C 0.2964(2) 0.15301(16) -0.0990(2)
H1 H 0.3566 0.1829 -0.0624
C2 C 0.2848(3) 0.1447(2) -0.2391(3)
H2 H 0.3374 0.1689 -0.2968
C3 C 0.1974(3) 0.1015(2) -0.2938(3)
H3 H 0.1922 0.0946 -0.3885
C4 C 0.1169(3) 0.06814(17) -0.2099(3)
H4 H 0.0547 0.0403 -0.2476
C5 C 0.1284(2) 0.07602(14) -0.0680(3)
H5 H 0.0741 0.0531 -0.0105
C6 C 0.21951(19) 0.11749(12) -0.0130(2)
C7 C 0.0802(2) 0.21463(13) 0.1801(3)
H6 H 0.1082 0.2424 0.1072
C8 C -0.0152(2) 0.23895(15) 0.2546(3)
H7 H -0.0515 0.2834 0.2322
C9 C -0.0572(2) 0.19818(18) 0.3620(3)
H8 H -0.1219 0.2150 0.4124
C10 C -0.0037(2) 0.13216(17) 0.3955(2)
H9 H -0.0323 0.1047 0.4685
C11 C 0.09267(19) 0.10653(14) 0.3206(2)
H10 H 0.1282 0.0618 0.3422
C12 C 0.13499(18) 0.14845(12) 0.2137(2)
C13 C 0.33985(18) 0.09845(12) 0.1936(2)
C14 C 0.42117(19) 0.05202(12) 0.1368(2)
H11 H 0.4099 0.0296 0.0517
C15 C 0.52339(19) 0.04175(12) 0.2202(2)
H12 H 0.5874 0.0125 0.1940
C16 C 0.52197(17) 0.07791(11) 0.3424(2)
C17 C 0.61217(18) 0.07534(11) 0.4495(2)
H13 H 0.6818 0.0502 0.4275
C18 C 0.61079(19) 0.10369(11) 0.5757(2)
H14 H 0.5432 0.1291 0.6041
C19 C 0.71323(19) 0.09570(12) 0.6706(2)
C20 C 0.70651(18) 0.12607(11) 0.8132(2)
C21 C 0.6222(2) 0.17649(13) 0.8541(2)
H15 H 0.5644 0.1931 0.7914
C22 C 0.6229(2) 0.20256(14) 0.9884(3)
H16 H 0.5660 0.2369 1.0145
C23 C 0.7062(2) 0.17832(15) 1.0825(3)
H17 H 0.7060 0.1959 1.1723
C24 C 0.7895(3) 0.12832(15) 1.0436(3)
H18 H 0.8460 0.1112 1.1075
C25 C 0.7908(2) 0.10288(13) 0.9104(2)
H19 H 0.8494 0.0694 0.8851
N1 N 0.23405(15) 0.12399(11) 0.13371(16)
O1 O 0.80483(14) 0.06383(10) 0.63514(16)
S1 S 0.38952(5) 0.12843(3) 0.35456(5)
loop_
_geom_bond_atom_site_label_1
_geom_bond_atom_site_label_2
_geom_bond_site_symmetry_1
_geom_bond_site_symmetry_2
C1 H1 1_555 1_555
C2 C1 1_555 1_555
H2 C2 1_555 1_555
C3 C2 1_555 1_555
H3 C3 1_555 1_555
C4 C3 1_555 1_555
H4 C4 1_555 1_555
C5 C4 1_555 1_555
H5 C5 1_555 1_555
C6 C1 1_555 1_555
C7 H6 1_555 1_555
C8 C7 1_555 1_555
H7 C8 1_555 1_555
C9 C8 1_555 1_555
H8 C9 1_555 1_555
C10 C9 1_555 1_555
H9 C10 1_555 1_555
C11 C10 1_555 1_555
H10 C11 1_555 1_555
C12 C7 1_555 1_555
C13 C14 1_555 1_555
C14 H11 1_555 1_555
C15 C14 1_555 1_555
H12 C15 1_555 1_555
C16 C15 1_555 1_555
C17 C16 1_555 1_555
H13 C17 1_555 1_555
C18 C17 1_555 1_555
H14 C18 1_555 1_555
C19 C18 1_555 1_555
C20 C19 1_555 1_555
C21 C20 1_555 1_555
H15 C21 1_555 1_555
C22 C21 1_555 1_555
H16 C22 1_555 1_555
C23 C22 1_555 1_555
H17 C23 1_555 1_555
C24 C23 1_555 1_555
H18 C24 1_555 1_555
C25 C20 1_555 1_555
H19 C25 1_555 1_555
N1 C6 1_555 1_555
O1 C19 1_555 1_555
S1 C13 1_555 1_555
C5 C6 1_555 1_555
C11 C12 1_555 1_555
C12 N1 1_555 1_555
C13 N1 1_555 1_555
C16 S1 1_555 1_555
C24 C25 1_555 1_555

#END
