
#######################################################################
#
#                 Cambridge Crystallographic Data Centre
#                                CCDC 
#
#######################################################################
#
# If this CIF has been generated from an entry in the Cambridge 
# Structural Database, then it will include bibliographic, chemical, 
# crystal, experimental, refinement or atomic coordinate data resulting 
# from the CCDC's data processing and validation procedures.
#
#######################################################################

data_OGIZEL
_chemical_name_common            
3-(5-(bis(4-ethoxyphenyl)amino)-2-thienyl)-1-phenylprop-2-en-1-one
_chemical_formula_moiety         'C29 H27 N1 O3 S1'
_chemical_name_systematic        
(E)-3-(5-(bis(4-ethoxyphenyl)amino)thiophen-2-yl)-1-phenylprop-2-en-1-one
_symmetry_cell_setting           triclinic
_symmetry_space_group_name_H-M   'P -1'
_symmetry_Int_Tables_number      2
_space_group_name_Hall           '-P 1'
loop_
_symmetry_equiv_pos_site_id
_symmetry_equiv_pos_as_xyz
1 x,y,z
2 -x,-y,-z
_cell_length_a                   5.5078(9)
_cell_length_b                   13.846(2)
_cell_length_c                   16.264(3)
_cell_angle_alpha                85.220(2)
_cell_angle_beta                 84.223(2)
_cell_angle_gamma                85.091(2)
_cell_volume                     1225.99
_exptl_crystal_colour            red
_exptl_crystal_description       block
_chemical_melting_point          '411 K'
_cell_formula_units_Z            2
_exptl_crystal_recrystallization_method acetonitrile
_exptl_crystal_preparation       Luminescent
loop_
_atom_site_label
_atom_site_type_symbol
_atom_site_fract_x
_atom_site_fract_y
_atom_site_fract_z
C1 C 1.3555(5) 0.1967(2) -0.18803(17)
H1 H 1.3591 0.2554 -0.2202
C2 C 1.5407(5) 0.1247(2) -0.20158(19)
H2 H 1.6684 0.1357 -0.2424
C3 C 1.5388(5) 0.0381(2) -0.1560(2)
H3 H 1.6632 -0.0105 -0.1658
C4 C 1.3516(6) 0.0232(2) -0.0956(2)
H4 H 1.3497 -0.0358 -0.0637
C5 C 1.1655(5) 0.0949(2) -0.08134(18)
H5 H 1.0395 0.0834 -0.0401
C6 C 1.1632(4) 0.18293(18) -0.12706(14)
C7 C 0.9697(5) 0.26395(18) -0.11424(15)
C8 C 0.7756(5) 0.25575(18) -0.04627(14)
H6 H 0.7764 0.2009 -0.0091
C9 C 0.5973(4) 0.32679(18) -0.03740(14)
H7 H 0.6053 0.3774 -0.0787
C10 C 0.3967(4) 0.33835(17) 0.02450(13)
C11 C 0.2519(4) 0.42205(17) 0.03647(14)
H8 H 0.2632 0.4770 -0.0003
C12 C 0.0862(4) 0.42005(16) 0.10715(14)
H9 H -0.0198 0.4727 0.1227
C13 C 0.0985(4) 0.33050(15) 0.15120(13)
C14 C -0.2197(4) 0.36277(16) 0.26505(13)
C15 C -0.3955(4) 0.41772(17) 0.22325(14)
H10 H -0.3954 0.4145 0.1664
C16 C -0.5723(4) 0.47774(17) 0.26481(14)
H11 H -0.6880 0.5153 0.2356
C17 C -0.5770(5) 0.48186(18) 0.34957(14)
C18 C -0.4042(5) 0.4248(2) 0.39206(15)
H12 H -0.4093 0.4253 0.4494
C19 C -0.2249(5) 0.36729(19) 0.34998(14)
H13 H -0.1063 0.3312 0.3789
C20 C -0.9252(5) 0.5976(2) 0.35529(19)
H14 H -1.0104 0.5584 0.3226
H15 H -0.8503 0.6479 0.3185
C21 C -1.1022(6) 0.6430(3) 0.4208(2)
H16 H -1.1835 0.5929 0.4544
H17 H -1.2212 0.6866 0.3947
H18 H -1.0144 0.6783 0.4550
C22 C 0.0235(4) 0.20519(16) 0.26340(14)
C23 C 0.2174(5) 0.18819(18) 0.31139(16)
H19 H 0.3205 0.2371 0.3151
C24 C 0.2588(5) 0.09904(19) 0.35388(16)
H20 H 0.3896 0.0878 0.3863
C25 C 0.1070(5) 0.02681(18) 0.34833(15)
C26 C -0.0819(5) 0.04219(18) 0.29758(17)
H21 H -0.1799 -0.0078 0.2917
C27 C -0.1239(4) 0.13165(18) 0.25596(15)
H22 H -0.2527 0.1425 0.2226
C28 C 0.3210(8) -0.0829(2) 0.4445(2)
H23 H 0.4777 -0.0717 0.4139
H24 H 0.2940 -0.0387 0.4883
C29 C 0.3256(9) -0.1799(3) 0.4795(3)
H25 H 0.1699 -0.1911 0.5094
H26 H 0.4514 -0.1908 0.5167
H27 H 0.3585 -0.2236 0.4362
N1 N -0.0336(3) 0.30064(13) 0.22334(11)
O1 O 0.1290(4) -0.06383(13) 0.38961(13)
O2 O -0.7428(3) 0.53859(14) 0.39633(11)
O3 O 0.9753(4) 0.33785(15) -0.16196(12)
S1 S 0.31893(11) 0.25005(4) 0.10349(4)
loop_
_geom_bond_atom_site_label_1
_geom_bond_atom_site_label_2
_geom_bond_site_symmetry_1
_geom_bond_site_symmetry_2
C1 H1 1_555 1_555
C2 C1 1_555 1_555
H2 C2 1_555 1_555
C3 C2 1_555 1_555
H3 C3 1_555 1_555
C4 C3 1_555 1_555
H4 C4 1_555 1_555
C5 C4 1_555 1_555
H5 C5 1_555 1_555
C6 C1 1_555 1_555
C7 C6 1_555 1_555
C8 C7 1_555 1_555
H6 C8 1_555 1_555
C9 C8 1_555 1_555
H7 C9 1_555 1_555
C10 C9 1_555 1_555
C11 C10 1_555 1_555
H8 C11 1_555 1_555
C12 C11 1_555 1_555
H9 C12 1_555 1_555
C13 C12 1_555 1_555
C14 C15 1_555 1_555
C15 H10 1_555 1_555
C16 C15 1_555 1_555
H11 C16 1_555 1_555
C17 C16 1_555 1_555
C18 C17 1_555 1_555
H12 C18 1_555 1_555
C19 C14 1_555 1_555
H13 C19 1_555 1_555
C20 H14 1_555 1_555
H15 C20 1_555 1_555
C21 C20 1_555 1_555
H16 C21 1_555 1_555
H17 C21 1_555 1_555
H18 C21 1_555 1_555
C22 C23 1_555 1_555
C23 H19 1_555 1_555
C24 C23 1_555 1_555
H20 C24 1_555 1_555
C25 C24 1_555 1_555
C26 C25 1_555 1_555
H21 C26 1_555 1_555
C27 C22 1_555 1_555
H22 C27 1_555 1_555
C28 H23 1_555 1_555
H24 C28 1_555 1_555
C29 C28 1_555 1_555
H25 C29 1_555 1_555
H26 C29 1_555 1_555
H27 C29 1_555 1_555
N1 C13 1_555 1_555
O1 C25 1_555 1_555
O2 C17 1_555 1_555
O3 C7 1_555 1_555
S1 C10 1_555 1_555
C5 C6 1_555 1_555
C13 S1 1_555 1_555
C14 N1 1_555 1_555
C18 C19 1_555 1_555
C20 O2 1_555 1_555
C22 N1 1_555 1_555
C26 C27 1_555 1_555
C28 O1 1_555 1_555

#END
