
#######################################################################
#
#                 Cambridge Crystallographic Data Centre
#                                CCDC 
#
#######################################################################
#
# If this CIF has been generated from an entry in the Cambridge 
# Structural Database, then it will include bibliographic, chemical, 
# crystal, experimental, refinement or atomic coordinate data resulting 
# from the CCDC's data processing and validation procedures.
#
#######################################################################

data_OGIZIN
_chemical_formula_moiety         'C64 H112 O40 S8,12(H2 O1)'
_chemical_name_systematic        
'6-perdeoxy-6-per(2-hydroxyethyl)thio-\g-cyclodextrin dodecahydrate'
_symmetry_cell_setting           orthorhombic
_symmetry_space_group_name_H-M   'P 21 21 21'
_symmetry_Int_Tables_number      19
_space_group_name_Hall           'P 2ac 2ab'
loop_
_symmetry_equiv_pos_site_id
_symmetry_equiv_pos_as_xyz
1 x,y,z
2 1/2-x,-y,1/2+z
3 1/2+x,1/2-y,-z
4 -x,1/2+y,1/2-z
_cell_length_a                   14.559(5)
_cell_length_b                   17.521(5)
_cell_length_c                   36.519(5)
_cell_angle_alpha                90
_cell_angle_beta                 90
_cell_angle_gamma                90
_cell_volume                     9315.57
_exptl_crystal_colour            colorless
_exptl_crystal_description       plate
_cell_formula_units_Z            4
loop_
_atom_site_label
_atom_site_type_symbol
_atom_site_fract_x
_atom_site_fract_y
_atom_site_fract_z
S1 S 0.8649(2) 0.70545(16) 0.10207(8)
S2 S 0.6706(2) 0.4495(2) -0.01370(11)
S3 S 0.6332(4) 0.2130(3) -0.09312(18)
S5 S 0.6831(2) 0.07091(19) 0.01981(9)
S6 S 0.7441(2) -0.01214(16) 0.12228(7)
S7 S 0.8568(2) 0.09169(18) 0.22221(8)
S8 S 0.9285(2) 0.31928(16) 0.25507(8)
S9 S 0.8681(2) 0.48946(19) 0.18338(9)
C1 C 0.8786(8) 0.6041(5) 0.0903(3)
H1 H 0.9013 0.5763 0.1114
H2 H 0.8196 0.5827 0.0835
C2 C 0.9434(8) 0.5961(6) 0.0598(3)
H3 H 0.9445 0.5420 0.0529
O1 O 0.9054(5) 0.6386(4) 0.02849(18)
C3 C 0.9603(8) 0.6339(6) -0.0046(3)
H4 H 0.9332 0.6672 -0.0233
C4 C 1.0576(8) 0.6589(6) 0.0025(3)
H5 H 1.0560 0.7119 0.0109
C5 C 1.0989(7) 0.6112(6) 0.0326(3)
H6 H 1.0984 0.5575 0.0249
C6 C 1.0392(7) 0.6197(6) 0.0666(3)
H7 H 1.0393 0.6735 0.0739
O2 O 0.9599(5) 0.5581(4) -0.01747(18)
O3 O 1.1114(5) 0.6561(4) -0.03008(19)
H8 H 1.1113 0.6125 -0.0382
O4 O 1.1899(5) 0.6325(4) 0.0406(2)
H9 H 1.2251 0.5988 0.0338
C7 C 0.7609(7) 0.5150(7) -0.0242(3)
H10 H 0.7349 0.5578 -0.0375
H11 H 0.7855 0.5347 -0.0014
C8 C 0.8378(7) 0.4834(6) -0.0459(3)
H12 H 0.8622 0.4384 -0.0333
O5 O 0.8015(4) 0.4602(4) -0.08100(19)
C9 C 0.8652(8) 0.4249(7) -0.1038(3)
H13 H 0.8347 0.4101 -0.1267
C10 C 0.9430(7) 0.4780(6) -0.1125(3)
H14 H 0.9184 0.5225 -0.1255
C11 C 0.9884(7) 0.5053(6) -0.0771(3)
H15 H 1.0158 0.4613 -0.0647
C12 C 0.9159(7) 0.5402(6) -0.0521(3)
H16 H 0.8916 0.5870 -0.0632
O6 O 0.9014(5) 0.3590(4) -0.08684(17)
O7 O 1.0111(5) 0.4430(4) -0.13506(19)
H17 H 1.0131 0.3971 -0.1307
O8 O 1.0584(5) 0.5595(4) -0.0842(2)
H18 H 1.0675 0.5852 -0.0658
C13 C 0.7272(9) 0.2748(8) -0.1039(5)
H19 H 0.7285 0.2844 -0.1300
H20 H 0.7193 0.3233 -0.0915
C14 C 0.8177(8) 0.2387(6) -0.0921(3)
H21 H 0.8206 0.2340 -0.0654
O9 O 0.8199(6) 0.1651(4) -0.1090(2)
C15 C 0.9017(8) 0.1247(7) -0.1028(3)
H22 H 0.8980 0.0765 -0.1163
C16 C 0.9893(8) 0.1677(6) -0.1158(3)
H23 H 0.9867 0.1720 -0.1425
C17 C 0.9876(8) 0.2476(7) -0.0999(3)
H24 H 0.9989 0.2447 -0.0735
C18 C 0.8974(8) 0.2879(6) -0.1064(3)
H25 H 0.8894 0.2976 -0.1326
O10 O 0.9142(5) 0.1074(4) -0.06535(17)
O11 O 1.0589(6) 0.2921(4) -0.1167(3)
H26 H 1.1090 0.2777 -0.1092
C19 C 0.7488(8) 0.0724(7) -0.0223(3)
H27 H 0.7136 0.0477 -0.0415
H28 H 0.7593 0.1249 -0.0296
C20 C 0.8385(7) 0.0331(6) -0.0183(3)
H29 H 0.8748 0.0594 0.0004
O12 O 0.8218(5) -0.0444(4) -0.00662(19)
C21 C 0.9011(7) -0.0894(6) -0.0004(3)
H30 H 0.8818 -0.1413 0.0060
C22 C 0.9596(8) -0.0927(6) -0.0349(3)
H31 H 0.9252 -0.1193 -0.0541
C23 C 0.9828(6) -0.0133(6) -0.0480(2)
H32 H 1.0202 0.0127 -0.0295
O13 O 1.0678(6) 0.1275(5) -0.1068(3)
H33 H 1.1127 0.1487 -0.1157
C24 C 0.8925(7) 0.0311(6) -0.0536(3)
H34 H 0.8559 0.0058 -0.0726
O14 O 0.9524(5) -0.0588(4) 0.02926(17)
O15 O 1.0404(6) -0.1363(4) -0.02598(18)
H35 H 1.0707 -0.1435 -0.0446
O16 O 1.0347(5) -0.0193(4) -0.08188(18)
H36 H 1.0046 -0.0431 -0.0970
C25 C 0.8057(7) -0.0661(6) 0.0888(3)
H37 H 0.7854 -0.1188 0.0901
H38 H 0.7902 -0.0468 0.0647
C26 C 0.9104(7) -0.0642(6) 0.0932(3)
H39 H 0.9306 -0.0109 0.0945
O17 O 0.9298(5) -0.1006(4) 0.12743(17)
C27 C 1.0241(7) -0.1042(6) 0.1362(3)
H40 H 1.0305 -0.1316 0.1595
C28 C 1.0781(8) -0.1461(6) 0.1078(3)
H41 H 1.0559 -0.1989 0.1070
C29 C 1.0612(8) -0.1104(6) 0.0703(3)
H42 H 1.0887 -0.0594 0.0699
C30 C 0.9609(7) -0.1039(6) 0.0618(3)
H43 H 0.9348 -0.1547 0.0577
O18 O 1.0608(5) -0.0291(4) 0.14090(16)
O19 O 1.1716(5) -0.1477(4) 0.1177(2)
H44 H 1.1924 -0.1905 0.1142
O20 O 1.1068(5) -0.1577(4) 0.04375(19)
H45 H 1.1625 -0.1552 0.0468
C31 C 0.9324(7) 0.0259(6) 0.2000(3)
H46 H 0.9364 -0.0198 0.2149
H47 H 0.9053 0.0115 0.1768
C32 C 1.0320(6) 0.0557(5) 0.1927(3)
H48 H 1.0302 0.0999 0.1764
O21 O 1.0691(5) 0.0778(4) 0.22824(17)
C33 C 1.1589(7) 0.1065(6) 0.2270(3)
H49 H 1.1790 0.1166 0.2521
C34 C 1.2248(7) 0.0485(6) 0.2100(3)
H50 H 1.2292 0.0048 0.2266
C35 C 1.1916(7) 0.0195(6) 0.1729(3)
H51 H 1.1947 0.0612 0.1551
C36 C 1.0926(7) -0.0066(6) 0.1764(3)
H52 H 1.0907 -0.0511 0.1926
O22 O 1.1658(5) 0.1751(4) 0.20687(18)
O23 O 1.3130(5) 0.0825(4) 0.2074(2)
H53 H 1.3524 0.0508 0.2126
O24 O 1.2494(5) -0.0408(4) 0.1609(2)
H54 H 1.3028 -0.0308 0.1662
C37 C 1.0334(7) 0.2606(6) 0.2557(3)
H55 H 1.0583 0.2591 0.2803
H56 H 1.0186 0.2088 0.2484
C38 C 1.1045(7) 0.2935(5) 0.2297(3)
H57 H 1.0773 0.3010 0.2054
O25 O 1.1288(5) 0.3668(4) 0.24560(18)
C39 C 1.2014(7) 0.4055(6) 0.2258(3)
H58 H 1.2152 0.4541 0.2379
C40 C 1.2862(7) 0.3580(6) 0.2246(3)
H59 H 1.3034 0.3477 0.2501
C41 C 1.2673(7) 0.2813(6) 0.2069(3)
H60 H 1.2505 0.2890 0.1812
C42 C 1.1881(7) 0.2425(5) 0.2268(3)
H61 H 1.2082 0.2283 0.2515
O26 O 1.1731(5) 0.4200(4) 0.18948(17)
O27 O 1.3595(5) 0.3981(4) 0.2089(2)
H62 H 1.3609 0.3897 0.1868
O28 O 1.3484(5) 0.2365(4) 0.2089(2)
H63 H 1.3364 0.1922 0.2034
C43 C 0.9871(7) 0.4893(7) 0.1965(3)
H64 H 0.9949 0.5261 0.2161
H65 H 1.0014 0.4394 0.2065
C44 C 1.0564(7) 0.5070(6) 0.1674(3)
H66 H 1.0457 0.4740 0.1461
O29 O 1.0407(5) 0.5861(4) 0.15717(18)
C45 C 1.0991(8) 0.6135(6) 0.1293(3)
H67 H 1.0872 0.6681 0.1260
C46 C 1.2008(7) 0.6029(6) 0.1394(3)
H68 H 1.2139 0.6355 0.1606
C47 C 1.2200(7) 0.5217(6) 0.1504(3)
H69 H 1.2099 0.4885 0.1291
C48 C 1.1558(7) 0.4988(6) 0.1800(3)
H70 H 1.1661 0.5311 0.2015
O30 O 1.0792(5) 0.5753(4) 0.09597(16)
O31 O 1.2568(6) 0.6284(4) 0.1097(2)
H71 H 1.2264 0.6287 0.0908
O32 O 1.3122(5) 0.5137(4) 0.1621(2)
H72 H 1.3389 0.5547 0.1600
C49 C 0.8311(8) 0.6969(7) 0.1493(3)
H73 H 0.8766 0.6667 0.1623
H74 H 0.8297 0.7472 0.1604
C50 C 0.7367(8) 0.6594(7) 0.1539(3)
H75 H 0.6922 0.6847 0.1383
H76 H 0.7399 0.6061 0.1467
O33 O 0.7083(6) 0.6652(5) 0.19170(19)
H77 H 0.6889 0.7083 0.1957
C51 C 0.7169(14) 0.3659(16) 0.0183(7)
H78 H 0.6668 0.3362 0.0285
H79 H 0.7580 0.3322 0.0050
C52 C 0.7629(15) 0.4053(12) 0.0452(6)
H80 H 0.7201 0.4287 0.0622
H81 H 0.8013 0.4448 0.0346
O34 O 0.8219(11) 0.3444(9) 0.0646(5)
H82 H 0.8655 0.3328 0.0515
C53 C 0.5353(13) 0.2753(14) -0.1069(7)
H83 H 0.5424 0.2878 -0.1326
H84 H 0.4791 0.2461 -0.1045
C54 C 0.525(2) 0.3461(17) -0.0867(9)
H85 H 0.4738 0.3752 -0.0968
H86 H 0.5799 0.3765 -0.0888
O35 O 0.5056(16) 0.3279(12) -0.0458(7)
H87 H 0.5018 0.3679 -0.0342
C55 C 0.6017(12) 0.1483(9) 0.0130(5)
H89 H 0.5745 0.1621 0.0364
H90 H 0.6338 0.1926 0.0036
C56 C 0.5254(11) 0.1255(10) -0.0138(5)
H91 H 0.5519 0.1156 -0.0377
H92 H 0.4963 0.0789 -0.0053
O37 O 0.4610(7) 0.1816(8) -0.0167(4)
H93 H 0.4217 0.1688 -0.0315
C57 C 0.7315(8) -0.0780(6) 0.1614(3)
H94 H 0.7907 -0.1007 0.1669
H95 H 0.7119 -0.0493 0.1828
C58 C 0.6637(8) -0.1396(6) 0.1539(3)
H96 H 0.6054 -0.1175 0.1467
H97 H 0.6855 -0.1716 0.1341
O38 O 0.6521(6) -0.1847(5) 0.1865(2)
H98 H 0.5975 -0.1857 0.1921
C59 C 0.8182(10) 0.1541(8) 0.1864(4)
H99 H 0.8372 0.2059 0.1919
H100 H 0.8465 0.1391 0.1635
C60 C 0.7132(11) 0.1515(10) 0.1824(4)
H101 H 0.6945 0.1895 0.1646
H102 H 0.6956 0.1018 0.1730
O39 O 0.6627(7) 0.1660(6) 0.2180(3)
H103 H 0.6637 0.1272 0.2306
C61 C 0.8548(7) 0.2641(7) 0.2862(3)
H104 H 0.8653 0.2101 0.2822
H105 H 0.8712 0.2758 0.3113
C62 C 0.7538(9) 0.2818(7) 0.2802(4)
H106 H 0.7333 0.2577 0.2578
H107 H 0.7182 0.2608 0.3003
O40 O 0.7375(7) 0.3635(5) 0.2780(3)
H108 H 0.7232 0.3798 0.2982
C63 C 0.8643(10) 0.4054(9) 0.1538(6)
H109 H 0.8628 0.4228 0.1286
H110 H 0.9212 0.3774 0.1571
C64 C 0.7887(15) 0.3524(13) 0.1590(6)
H111 H 0.7928 0.3109 0.1415
H112 H 0.7906 0.3310 0.1835
O41 O 0.7056(9) 0.3939(9) 0.1537(4)
H113 H 0.6767 0.3952 0.1730
O42 O 0.5702(6) 0.5623(6) 0.2028(2)
O43 O 0.6243(8) 0.4127(7) 0.2212(3)
O44 O 0.4663(6) 0.9915(5) 0.1999(2)
O45 O 0.4706(7) 0.8300(6) 0.1979(3)
O46 O 0.5842(8) 0.7292(5) 0.0819(2)
O47 O 0.2957(6) 0.7787(5) 0.0733(3)
O48 O 0.4293(8) 0.7492(6) 0.1307(3)
O49 O 0.5297(6) 0.2777(5) 0.2275(3)
O50 O 0.4638(5) 0.5946(4) 0.14172(19)
O51 O 0.5871(7) 0.0360(6) 0.2542(3)
O52 O 0.7763(8) 0.7499(6) 0.0059(3)
O53 O 0.7405(9) 0.2120(8) 0.0881(4)
S4? S 0.6305(19) 0.2394(15) -0.0678(9)
O36? O 0.433(3) 0.352(3) -0.0652(13)
H88? H 0.3924 0.3304 -0.0766
loop_
_geom_bond_atom_site_label_1
_geom_bond_atom_site_label_2
_geom_bond_site_symmetry_1
_geom_bond_site_symmetry_2
S1 C1 1_555 1_555
S2 C7 1_555 1_555
S3 C13 1_555 1_555
S5 C19 1_555 1_555
S6 C25 1_555 1_555
S7 C31 1_555 1_555
S8 C37 1_555 1_555
S9 C43 1_555 1_555
C1 H1 1_555 1_555
H2 C1 1_555 1_555
C2 C1 1_555 1_555
H3 C2 1_555 1_555
O1 C2 1_555 1_555
C3 O1 1_555 1_555
H4 C3 1_555 1_555
C4 C3 1_555 1_555
H5 C4 1_555 1_555
C5 C4 1_555 1_555
H6 C5 1_555 1_555
C6 C2 1_555 1_555
H7 C6 1_555 1_555
O2 C3 1_555 1_555
O3 C4 1_555 1_555
H8 O3 1_555 1_555
O4 C5 1_555 1_555
H9 O4 1_555 1_555
C7 H10 1_555 1_555
H11 C7 1_555 1_555
C8 C7 1_555 1_555
H12 C8 1_555 1_555
O5 C8 1_555 1_555
C9 O5 1_555 1_555
H13 C9 1_555 1_555
C10 C9 1_555 1_555
H14 C10 1_555 1_555
C11 C10 1_555 1_555
H15 C11 1_555 1_555
C12 O2 1_555 1_555
H16 C12 1_555 1_555
O6 C9 1_555 1_555
O7 C10 1_555 1_555
H17 O7 1_555 1_555
O8 C11 1_555 1_555
H18 O8 1_555 1_555
C13 H19 1_555 1_555
H20 C13 1_555 1_555
C14 C13 1_555 1_555
H21 C14 1_555 1_555
O9 C14 1_555 1_555
C15 O9 1_555 1_555
H22 C15 1_555 1_555
C16 C15 1_555 1_555
H23 C16 1_555 1_555
C17 C16 1_555 1_555
H24 C17 1_555 1_555
C18 O6 1_555 1_555
H25 C18 1_555 1_555
O10 C15 1_555 1_555
O11 C17 1_555 1_555
H26 O11 1_555 1_555
C19 H27 1_555 1_555
H28 C19 1_555 1_555
C20 C19 1_555 1_555
H29 C20 1_555 1_555
O12 C20 1_555 1_555
C21 O12 1_555 1_555
H30 C21 1_555 1_555
C22 C21 1_555 1_555
H31 C22 1_555 1_555
C23 C22 1_555 1_555
H32 C23 1_555 1_555
O13 C16 1_555 1_555
H33 O13 1_555 1_555
C24 O10 1_555 1_555
H34 C24 1_555 1_555
O14 C21 1_555 1_555
O15 C22 1_555 1_555
H35 O15 1_555 1_555
O16 C23 1_555 1_555
H36 O16 1_555 1_555
C25 H37 1_555 1_555
H38 C25 1_555 1_555
C26 C25 1_555 1_555
H39 C26 1_555 1_555
O17 C26 1_555 1_555
C27 O17 1_555 1_555
H40 C27 1_555 1_555
C28 C27 1_555 1_555
H41 C28 1_555 1_555
C29 C28 1_555 1_555
H42 C29 1_555 1_555
C30 O14 1_555 1_555
H43 C30 1_555 1_555
O18 C27 1_555 1_555
O19 C28 1_555 1_555
H44 O19 1_555 1_555
O20 C29 1_555 1_555
H45 O20 1_555 1_555
C31 H46 1_555 1_555
H47 C31 1_555 1_555
C32 C31 1_555 1_555
H48 C32 1_555 1_555
O21 C32 1_555 1_555
C33 O21 1_555 1_555
H49 C33 1_555 1_555
C34 C33 1_555 1_555
H50 C34 1_555 1_555
C35 C34 1_555 1_555
H51 C35 1_555 1_555
C36 O18 1_555 1_555
H52 C36 1_555 1_555
O22 C33 1_555 1_555
O23 C34 1_555 1_555
H53 O23 1_555 1_555
O24 C35 1_555 1_555
H54 O24 1_555 1_555
C37 H55 1_555 1_555
H56 C37 1_555 1_555
C38 C37 1_555 1_555
H57 C38 1_555 1_555
O25 C38 1_555 1_555
C39 O25 1_555 1_555
H58 C39 1_555 1_555
C40 C39 1_555 1_555
H59 C40 1_555 1_555
C41 C40 1_555 1_555
H60 C41 1_555 1_555
C42 O22 1_555 1_555
H61 C42 1_555 1_555
O26 C39 1_555 1_555
O27 C40 1_555 1_555
H62 O27 1_555 1_555
O28 C41 1_555 1_555
H63 O28 1_555 1_555
C43 H64 1_555 1_555
H65 C43 1_555 1_555
C44 C43 1_555 1_555
H66 C44 1_555 1_555
O29 C44 1_555 1_555
C45 O29 1_555 1_555
H67 C45 1_555 1_555
C46 C45 1_555 1_555
H68 C46 1_555 1_555
C47 C46 1_555 1_555
H69 C47 1_555 1_555
C48 O26 1_555 1_555
H70 C48 1_555 1_555
O30 C6 1_555 1_555
O31 C46 1_555 1_555
H71 O31 1_555 1_555
O32 C47 1_555 1_555
H72 O32 1_555 1_555
C49 S1 1_555 1_555
H73 C49 1_555 1_555
H74 C49 1_555 1_555
C50 C49 1_555 1_555
H75 C50 1_555 1_555
H76 C50 1_555 1_555
O33 C50 1_555 1_555
H77 O33 1_555 1_555
C51 S2 1_555 1_555
H78 C51 1_555 1_555
H79 C51 1_555 1_555
C52 C51 1_555 1_555
H80 C52 1_555 1_555
H81 C52 1_555 1_555
O34 C52 1_555 1_555
H82 O34 1_555 1_555
C53 S3 1_555 1_555
H83 C53 1_555 1_555
H84 C53 1_555 1_555
C54 C53 1_555 1_555
H85 C54 1_555 1_555
H86 C54 1_555 1_555
O35 C54 1_555 1_555
H87 O35 1_555 1_555
C55 S5 1_555 1_555
H89 C55 1_555 1_555
H90 C55 1_555 1_555
C56 C55 1_555 1_555
H91 C56 1_555 1_555
H92 C56 1_555 1_555
O37 C56 1_555 1_555
H93 O37 1_555 1_555
C57 S6 1_555 1_555
H94 C57 1_555 1_555
H95 C57 1_555 1_555
C58 C57 1_555 1_555
H96 C58 1_555 1_555
H97 C58 1_555 1_555
O38 C58 1_555 1_555
H98 O38 1_555 1_555
C59 S7 1_555 1_555
H99 C59 1_555 1_555
H100 C59 1_555 1_555
C60 C59 1_555 1_555
H101 C60 1_555 1_555
H102 C60 1_555 1_555
O39 C60 1_555 1_555
H103 O39 1_555 1_555
C61 S8 1_555 1_555
H104 C61 1_555 1_555
H105 C61 1_555 1_555
C62 C61 1_555 1_555
H106 C62 1_555 1_555
H107 C62 1_555 1_555
O40 C62 1_555 1_555
H108 O40 1_555 1_555
C63 S9 1_555 1_555
H109 C63 1_555 1_555
H110 C63 1_555 1_555
C64 C63 1_555 1_555
H111 C64 1_555 1_555
H112 C64 1_555 1_555
O41 C64 1_555 1_555
H113 O41 1_555 1_555
C5 C6 1_555 1_555
C8 C12 1_555 1_555
C11 C12 1_555 1_555
C14 C18 1_555 1_555
C17 C18 1_555 1_555
C20 C24 1_555 1_555
C23 C24 1_555 1_555
C26 C30 1_555 1_555
C29 C30 1_555 1_555
C32 C36 1_555 1_555
C35 C36 1_555 1_555
C38 C42 1_555 1_555
C41 C42 1_555 1_555
C44 C48 1_555 1_555
C45 O30 1_555 1_555
C47 C48 1_555 1_555

#END
