
#######################################################################
#
#                 Cambridge Crystallographic Data Centre
#                                CCDC 
#
#######################################################################
#
# If this CIF has been generated from an entry in the Cambridge 
# Structural Database, then it will include bibliographic, chemical, 
# crystal, experimental, refinement or atomic coordinate data resulting 
# from the CCDC's data processing and validation procedures.
#
#######################################################################

data_OGOGUM
_chemical_formula_moiety         'C9 H9 N1 O3 S1'
_chemical_name_systematic        
rac-3,3a,8,8a-tetrahydroindeno[1,2-d][1,2,3]oxathiazole-2,2-dioxide
_symmetry_cell_setting           triclinic
_symmetry_space_group_name_H-M   'P -1'
_symmetry_Int_Tables_number      2
_space_group_name_Hall           '-P 1'
loop_
_symmetry_equiv_pos_site_id
_symmetry_equiv_pos_as_xyz
1 x,y,z
2 -x,-y,-z
_cell_length_a                   5.0450(10)
_cell_length_b                   8.145(2)
_cell_length_c                   11.348(2)
_cell_angle_alpha                96.38(3)
_cell_angle_beta                 93.89(3)
_cell_angle_gamma                97.14(3)
_cell_volume                     458.246
_exptl_crystal_colour            colorless
_exptl_crystal_description       prism
_cell_formula_units_Z            2
loop_
_atom_site_label
_atom_site_type_symbol
_atom_site_fract_x
_atom_site_fract_y
_atom_site_fract_z
S1 S 0.22536(9) 0.62426(6) 0.17688(4)
O1 O 0.3340(3) 0.76971(17) 0.13016(14)
O2 O -0.0378(3) 0.6176(2) 0.21293(15)
O3 O 0.2324(3) 0.46725(17) 0.08484(12)
N1 N 0.4263(3) 0.5791(2) 0.28411(15)
C1 C 0.3856(4) 0.3422(2) 0.12995(18)
H1 H 0.5546 0.3371 0.0927
C2 C 0.2089(5) 0.1759(3) 0.11253(19)
H2 H 0.0749 0.1704 0.0462
H3 H 0.3143 0.0850 0.0982
C3 C 0.2048(4) 0.2948(2) 0.31417(17)
C4 C 0.0799(4) 0.1694(2) 0.22813(18)
C5 C 0.4306(4) 0.3969(2) 0.26417(17)
H4 H 0.6036 0.3694 0.2952
C6 C -0.1313(4) 0.0580(3) 0.2552(2)
H5 H -0.2149 -0.0268 0.1981
C7 C 0.1199(4) 0.3114(3) 0.42711(19)
H6 H 0.2031 0.3957 0.4846
C8 C -0.0925(5) 0.1997(3) 0.4534(2)
H7 H -0.1526 0.2092 0.5293
C9 C -0.2148(5) 0.0752(3) 0.3682(3)
H8 H -0.3566 0.0012 0.3874
H9 H 0.559(4) 0.622(3) 0.2722(18)
loop_
_geom_bond_atom_site_label_1
_geom_bond_atom_site_label_2
_geom_bond_site_symmetry_1
_geom_bond_site_symmetry_2
S1 O1 1_555 1_555
O2 S1 1_555 1_555
O3 S1 1_555 1_555
N1 S1 1_555 1_555
C1 O3 1_555 1_555
H1 C1 1_555 1_555
C2 C1 1_555 1_555
H2 C2 1_555 1_555
H3 C2 1_555 1_555
C3 C4 1_555 1_555
C4 C2 1_555 1_555
C5 N1 1_555 1_555
H4 C5 1_555 1_555
C6 C4 1_555 1_555
H5 C6 1_555 1_555
C7 C3 1_555 1_555
H6 C7 1_555 1_555
C8 C7 1_555 1_555
H7 C8 1_555 1_555
C9 C6 1_555 1_555
H8 C9 1_555 1_555
H9 N1 1_555 1_555
C1 C5 1_555 1_555
C3 C5 1_555 1_555
C8 C9 1_555 1_555

#END
