
#######################################################################
#
#                 Cambridge Crystallographic Data Centre
#                                CCDC 
#
#######################################################################
#
# If this CIF has been generated from an entry in the Cambridge 
# Structural Database, then it will include bibliographic, chemical, 
# crystal, experimental, refinement or atomic coordinate data resulting 
# from the CCDC's data processing and validation procedures.
#
#######################################################################

data_OGOHEX
_chemical_formula_moiety         'C8 H15 N1 O3 S1'
_chemical_name_systematic        
'perhydro-4a-methyl-3,2,1-benzoxathiazine 2,2-dioxide'
_symmetry_cell_setting           monoclinic
_symmetry_space_group_name_H-M   'P 21/n'
_symmetry_Int_Tables_number      14
_space_group_name_Hall           '-P 2yn'
loop_
_symmetry_equiv_pos_site_id
_symmetry_equiv_pos_as_xyz
1 x,y,z
2 1/2+x,1/2-y,1/2+z
3 -x,-y,-z
4 1/2-x,1/2+y,1/2-z
_cell_length_a                   6.6080(10)
_cell_length_b                   14.881(3)
_cell_length_c                   10.232(2)
_cell_angle_alpha                90
_cell_angle_beta                 99.16(3)
_cell_angle_gamma                90
_cell_volume                     993.319
_exptl_crystal_colour            colorless
_exptl_crystal_description       prism
_cell_formula_units_Z            4
loop_
_atom_site_label
_atom_site_type_symbol
_atom_site_fract_x
_atom_site_fract_y
_atom_site_fract_z
S1 S 0.50232(7) 0.53217(3) 0.77926(4)
O1 O 0.3958(2) 0.54195(11) 0.64879(14)
O2 O 0.4332(3) 0.58011(10) 0.88359(15)
O3 O 0.7301(2) 0.56139(8) 0.78161(13)
N1 N 0.5152(2) 0.42698(10) 0.81486(18)
C1 C 0.8361(3) 0.50744(13) 0.6932(2)
H1 H 0.9738 0.5307 0.6956
H2 H 0.7645 0.5133 0.6032
C2 C 0.8483(2) 0.40830(11) 0.73104(16)
C3 C 0.6325(2) 0.37072(11) 0.73318(16)
H3 H 0.5586 0.3706 0.6422
C4 C 0.6363(3) 0.27493(12) 0.7855(2)
H4 H 0.6823 0.2350 0.7212
H5 H 0.4980 0.2574 0.7950
C5 C 0.7754(4) 0.26344(13) 0.9180(2)
H6 H 0.7173 0.2953 0.9859
H7 H 0.7835 0.2002 0.9415
C6 C 0.9880(4) 0.29878(16) 0.9128(2)
H8 H 1.0527 0.2622 0.8527
H9 H 1.0701 0.2947 1.0001
C7 C 0.9804(3) 0.39553(14) 0.86673(19)
H10 H 1.1186 0.4159 0.8625
H11 H 0.9260 0.4325 0.9311
C8 C 0.9456(4) 0.36186(16) 0.6213(2)
H12 H 0.9585 0.2986 0.6394
H13 H 1.0788 0.3870 0.6190
H14 H 0.8601 0.3710 0.5374
H15 H 0.542(3) 0.4226(14) 0.888(2)
loop_
_geom_bond_atom_site_label_1
_geom_bond_atom_site_label_2
_geom_bond_site_symmetry_1
_geom_bond_site_symmetry_2
S1 O1 1_555 1_555
O2 S1 1_555 1_555
O3 S1 1_555 1_555
N1 S1 1_555 1_555
C1 O3 1_555 1_555
H1 C1 1_555 1_555
H2 C1 1_555 1_555
C2 C1 1_555 1_555
C3 N1 1_555 1_555
H3 C3 1_555 1_555
C4 C3 1_555 1_555
H4 C4 1_555 1_555
H5 C4 1_555 1_555
C5 C4 1_555 1_555
H6 C5 1_555 1_555
H7 C5 1_555 1_555
C6 C5 1_555 1_555
H8 C6 1_555 1_555
H9 C6 1_555 1_555
C7 C2 1_555 1_555
H10 C7 1_555 1_555
H11 C7 1_555 1_555
C8 C2 1_555 1_555
H12 C8 1_555 1_555
H13 C8 1_555 1_555
H14 C8 1_555 1_555
H15 N1 1_555 1_555
C2 C3 1_555 1_555
C6 C7 1_555 1_555

#END
