
#######################################################################
#
#                 Cambridge Crystallographic Data Centre
#                                CCDC 
#
#######################################################################
#
# If this CIF has been generated from an entry in the Cambridge 
# Structural Database, then it will include bibliographic, chemical, 
# crystal, experimental, refinement or atomic coordinate data resulting 
# from the CCDC's data processing and validation procedures.
#
#######################################################################

data_OGOKIG
_chemical_formula_moiety         'C28 H18 Br2 S1'
_chemical_name_systematic        3,4-bis(4-Bromophenyl)-2,5-diphenylthiophene
_symmetry_cell_setting           monoclinic
_symmetry_space_group_name_H-M   'P 21/c'
_symmetry_Int_Tables_number      14
_space_group_name_Hall           '-P 2ybc'
loop_
_symmetry_equiv_pos_site_id
_symmetry_equiv_pos_as_xyz
1 x,y,z
2 -x,1/2+y,1/2-z
3 -x,-y,-z
4 x,1/2-y,1/2+z
_cell_length_a                   10.0020(15)
_cell_length_b                   10.1168(15)
_cell_length_c                   23.545(4)
_cell_angle_alpha                90
_cell_angle_beta                 100.524(3)
_cell_angle_gamma                90
_cell_volume                     2342.4
_exptl_crystal_colour            colorless
_exptl_crystal_description       block
_cell_formula_units_Z            4
loop_
_atom_site_label
_atom_site_type_symbol
_atom_site_fract_x
_atom_site_fract_y
_atom_site_fract_z
Br1 Br 0.47484(6) 0.28051(6) 0.28321(2)
Br2 Br 1.09726(6) 0.50941(6) 0.13197(2)
S1 S 1.09056(13) 0.78478(12) 0.47852(5)
C1 C 0.6153(4) 0.3940(4) 0.32172(18)
C2 C 0.5855(5) 0.5217(4) 0.3350(2)
H1 H 0.4969 0.5535 0.3259
C3 C 0.6892(5) 0.6016(4) 0.36195(19)
H2 H 0.6700 0.6882 0.3710
C4 C 0.8204(4) 0.5561(4) 0.37577(17)
C5 C 0.8461(5) 0.4272(5) 0.3614(2)
H3 H 0.9344 0.3946 0.3702
C6 C 0.7440(5) 0.3470(5) 0.3344(2)
H4 H 0.7629 0.2606 0.3249
C7 C 0.9328(4) 0.6401(4) 0.40490(18)
C8 C 0.9420(4) 0.6946(4) 0.45897(19)
C9 C 1.1407(5) 0.7534(4) 0.41349(19)
C10 C 1.0474(4) 0.6755(4) 0.37867(18)
C11 C 1.2643(4) 0.8172(4) 0.40108(19)
C12 C 1.3826(5) 0.8271(5) 0.4435(2)
H5 H 1.3850 0.7899 0.4798
C13 C 1.4953(6) 0.8921(6) 0.4312(3)
H6 H 1.5728 0.8994 0.4596
C14 C 1.4951(6) 0.9459(6) 0.3780(3)
H7 H 1.5722 0.9884 0.3702
C15 C 1.3818(5) 0.9369(5) 0.3368(2)
H8 H 1.3815 0.9743 0.3007
C16 C 1.2665(5) 0.8733(4) 0.34721(19)
H9 H 1.1900 0.8679 0.3182
C17 C 1.0584(4) 0.6351(4) 0.31905(18)
C18 C 1.1672(5) 0.5600(4) 0.30805(19)
H10 H 1.2340 0.5340 0.3389
C19 C 1.1791(5) 0.5232(4) 0.2531(2)
H11 H 1.2530 0.4732 0.2467
C20 C 1.0807(5) 0.5610(4) 0.20810(18)
C21 C 0.9721(5) 0.6347(5) 0.21692(19)
H12 H 0.9055 0.6596 0.1859
C22 C 0.9619(4) 0.6719(5) 0.27260(19)
H13 H 0.8884 0.7229 0.2786
C23 C 0.8457(5) 0.6857(4) 0.49900(17)
C24 C 0.8202(5) 0.7956(5) 0.5315(2)
H14 H 0.8678 0.8738 0.5293
C25 C 0.7246(6) 0.7881(6) 0.5667(2)
H15 H 0.7088 0.8615 0.5882
C26 C 0.6534(6) 0.6757(7) 0.5704(2)
H16 H 0.5872 0.6735 0.5935
C27 C 0.6784(6) 0.5660(6) 0.5406(2)
H17 H 0.6305 0.4884 0.5437
C28 C 0.7756(5) 0.5704(5) 0.5054(2)
H18 H 0.7939 0.4946 0.4858
loop_
_geom_bond_atom_site_label_1
_geom_bond_atom_site_label_2
_geom_bond_site_symmetry_1
_geom_bond_site_symmetry_2
Br1 C1 1_555 1_555
Br2 C20 1_555 1_555
S1 C8 1_555 1_555
C1 C2 1_555 1_555
C2 H1 1_555 1_555
C3 C2 1_555 1_555
H2 C3 1_555 1_555
C4 C3 1_555 1_555
C5 C4 1_555 1_555
H3 C5 1_555 1_555
C6 C1 1_555 1_555
H4 C6 1_555 1_555
C7 C4 1_555 1_555
C8 C7 1_555 1_555
C9 S1 1_555 1_555
C10 C7 1_555 1_555
C11 C9 1_555 1_555
C12 C11 1_555 1_555
H5 C12 1_555 1_555
C13 C12 1_555 1_555
H6 C13 1_555 1_555
C14 C13 1_555 1_555
H7 C14 1_555 1_555
C15 C14 1_555 1_555
H8 C15 1_555 1_555
C16 C11 1_555 1_555
H9 C16 1_555 1_555
C17 C10 1_555 1_555
C18 C17 1_555 1_555
H10 C18 1_555 1_555
C19 C18 1_555 1_555
H11 C19 1_555 1_555
C20 C19 1_555 1_555
C21 C20 1_555 1_555
H12 C21 1_555 1_555
C22 C17 1_555 1_555
H13 C22 1_555 1_555
C23 C8 1_555 1_555
C24 C23 1_555 1_555
H14 C24 1_555 1_555
C25 C24 1_555 1_555
H15 C25 1_555 1_555
C26 C25 1_555 1_555
H16 C26 1_555 1_555
C27 C26 1_555 1_555
H17 C27 1_555 1_555
C28 C23 1_555 1_555
H18 C28 1_555 1_555
C5 C6 1_555 1_555
C9 C10 1_555 1_555
C15 C16 1_555 1_555
C21 C22 1_555 1_555
C27 C28 1_555 1_555

#END
