
#######################################################################
#
#                 Cambridge Crystallographic Data Centre
#                                CCDC 
#
#######################################################################
#
# If this CIF has been generated from an entry in the Cambridge 
# Structural Database, then it will include bibliographic, chemical, 
# crystal, experimental, refinement or atomic coordinate data resulting 
# from the CCDC's data processing and validation procedures.
#
#######################################################################

data_OGOQIK02
_chemical_formula_moiety         'C6 H4 N3 S4'
_chemical_name_systematic        
"4-Methyl-4H-bis[1,2,3]dithiazolo[4,5-b:5',4'-e]pyridin-3-yl radical"
_symmetry_cell_setting           orthorhombic
_symmetry_space_group_name_H-M   'P 21 21 21'
_symmetry_Int_Tables_number      19
_space_group_name_Hall           'P 2ac 2ab'
loop_
_symmetry_equiv_pos_site_id
_symmetry_equiv_pos_as_xyz
1 x,y,z
2 1/2-x,-y,1/2+z
3 -x,1/2+y,1/2-z
4 1/2+x,1/2-y,-z
_cell_length_a                   3.8824(11)
_cell_length_b                   11.911(3)
_cell_length_c                   18.223(5)
_cell_angle_alpha                90
_cell_angle_beta                 90
_cell_angle_gamma                90
_cell_volume                     842.691
_exptl_crystal_colour            red
_exptl_crystal_description       needle
_cell_formula_units_Z            4
loop_
_atom_site_label
_atom_site_type_symbol
_atom_site_fract_x
_atom_site_fract_y
_atom_site_fract_z
S1 S -0.0235(2) -0.13849(8) 0.18368(6)
S2 S 0.1498(2) 0.02904(8) 0.18427(6)
S3 S 0.7703(2) 0.17605(9) 0.44254(6)
S4 S 0.8484(3) 0.05266(9) 0.52417(6)
N1 N 0.6723(8) -0.0567(3) 0.48019(18)
N2 N 0.3921(8) -0.1157(3) 0.3739(2)
N3 N 0.1046(8) -0.1741(3) 0.26805(18)
C1 C 0.4677(9) 0.1004(3) 0.3132(3)
C2 C 0.3625(12) -0.2269(3) 0.4067(2)
C3 C 0.5823(9) 0.0780(4) 0.3838(2)
C4 C 0.5521(9) -0.0322(4) 0.4146(2)
C5 C 0.2619(9) -0.0945(3) 0.3043(2)
C6 C 0.3090(9) 0.0142(3) 0.2734(2)
H1 H 0.495(10) 0.169(4) 0.293(2)
H2 H 0.260(11) -0.276(3) 0.374(2)
H3 H 0.583(11) -0.259(4) 0.417(2)
H4 H 0.229(10) -0.222(3) 0.452(2)
loop_
_geom_bond_atom_site_label_1
_geom_bond_atom_site_label_2
_geom_bond_site_symmetry_1
_geom_bond_site_symmetry_2
S1 S2 1_555 1_555
S2 C6 1_555 1_555
S3 S4 1_555 1_555
S4 N1 1_555 1_555
N1 C4 1_555 1_555
N2 C2 1_555 1_555
N3 S1 1_555 1_555
C1 C3 1_555 1_555
C2 H2 1_555 1_555
C3 S3 1_555 1_555
C4 N2 1_555 1_555
C5 N2 1_555 1_555
C6 C1 1_555 1_555
H1 C1 1_555 1_555
H3 C2 1_555 1_555
H4 C2 1_555 1_555
N3 C5 1_555 1_555
C3 C4 1_555 1_555
C5 C6 1_555 1_555

#END
