
#######################################################################
#
#                 Cambridge Crystallographic Data Centre
#                                CCDC 
#
#######################################################################
#
# If this CIF has been generated from an entry in the Cambridge 
# Structural Database, then it will include bibliographic, chemical, 
# crystal, experimental, refinement or atomic coordinate data resulting 
# from the CCDC's data processing and validation procedures.
#
#######################################################################

data_OGOXOY
_chemical_formula_moiety         'C25 H24 I2 N6,0.5(C4 H8 O2)'
_chemical_name_systematic        
"2,2'-Pentane-3,3-diylbis(5-((4-iodophenyl)diazenyl)-1H-pyrrole) ethyl acetate solvate"
_symmetry_cell_setting           orthorhombic
_symmetry_space_group_name_H-M   'P b c a'
_symmetry_Int_Tables_number      61
_space_group_name_Hall           '-P 2ac 2ab'
loop_
_symmetry_equiv_pos_site_id
_symmetry_equiv_pos_as_xyz
1 x,y,z
2 1/2-x,-y,1/2+z
3 -x,1/2+y,1/2-z
4 1/2+x,1/2-y,-z
5 -x,-y,-z
6 1/2+x,y,1/2-z
7 x,1/2-y,1/2+z
8 1/2-x,1/2+y,z
_cell_length_a                   18.212(4)
_cell_length_b                   20.863(4)
_cell_length_c                   29.126(6)
_cell_angle_alpha                90
_cell_angle_beta                 90
_cell_angle_gamma                90
_cell_volume                     11066.6
_exptl_crystal_colour            red
_exptl_crystal_description       block
_cell_formula_units_Z            16
_exptl_crystal_recrystallization_method 'ethyl acetate/petroleum ether'
loop_
_atom_site_label
_atom_site_type_symbol
_atom_site_fract_x
_atom_site_fract_y
_atom_site_fract_z
I1 I 0.24380(3) 0.36738(3) 0.033363(18)
I2 I 0.53127(4) 0.30412(3) 0.58272(2)
N1 N 0.3117(3) 0.0690(2) 0.24689(18)
H1 H 0.3515 0.0830 0.2347
N2 N 0.2262(3) 0.1449(3) 0.21185(18)
N3 N 0.2828(3) 0.1755(3) 0.19764(18)
N4 N 0.4290(3) 0.0608(3) 0.33767(18)
H2 H 0.3902 0.0656 0.3542
N5 N 0.5118(3) 0.1345(3) 0.37800(19)
N6 N 0.4569(3) 0.1520(3) 0.40247(19)
C1 C 0.3295(4) 0.2533(3) 0.1460(3)
H5 H 0.3753 0.2455 0.1589
C2 C 0.3229(4) 0.2960(4) 0.1097(3)
H6 H 0.3642 0.3162 0.0978
C3 C 0.2545(4) 0.3081(3) 0.0915(3)
C4 C 0.1917(4) 0.2788(3) 0.1094(2)
H7 H 0.1457 0.2883 0.0973
C5 C 0.1983(4) 0.2356(3) 0.1451(2)
H8 H 0.1568 0.2156 0.1570
C6 C 0.2676(3) 0.2220(3) 0.1632(2)
C7 C 0.2424(3) 0.0944(3) 0.2404(2)
C8 C 0.1935(4) 0.0594(3) 0.2662(2)
H9 H 0.1430 0.0660 0.2680
C9 C 0.2336(4) 0.0119(3) 0.2892(2)
H10 H 0.2148 -0.0182 0.3096
C10 C 0.3060(3) 0.0179(3) 0.2761(2)
C11 C 0.3728(4) -0.0235(3) 0.2863(2)
C12 C 0.3959(4) -0.0588(3) 0.2414(2)
H11 H 0.4061 -0.0269 0.2180
H12 H 0.4411 -0.0820 0.2472
C13 C 0.3391(4) -0.1056(3) 0.2226(3)
H13 H 0.3364 -0.1424 0.2423
H14 H 0.3532 -0.1188 0.1923
H15 H 0.2920 -0.0850 0.2214
C14 C 0.3539(4) -0.0713(3) 0.3251(2)
H16 H 0.3394 -0.0472 0.3522
H17 H 0.3121 -0.0969 0.3156
C15 C 0.4173(4) -0.1162(4) 0.3380(3)
H18 H 0.4238 -0.1476 0.3143
H19 H 0.4062 -0.1373 0.3665
H20 H 0.4616 -0.0917 0.3414
C16 C 0.4358(4) 0.0197(3) 0.3007(2)
C17 C 0.5049(3) 0.0269(3) 0.2832(2)
H21 H 0.5237 0.0055 0.2578
C18 C 0.5424(4) 0.0716(4) 0.3098(3)
H22 H 0.5908 0.0848 0.3057
C19 C 0.4946(4) 0.0930(3) 0.3437(2)
C20 C 0.4780(4) 0.1884(3) 0.4417(2)
C21 C 0.5503(4) 0.1930(3) 0.4575(2)
H23 H 0.5880 0.1730 0.4414
C22 C 0.5659(4) 0.2271(4) 0.4969(2)
H24 H 0.6141 0.2316 0.5069
C23 C 0.5086(4) 0.2544(3) 0.5214(2)
C24 C 0.4370(4) 0.2498(4) 0.5068(3)
H25 H 0.3994 0.2689 0.5235
C25 C 0.4215(4) 0.2161(4) 0.4667(2)
H26 H 0.3733 0.2121 0.4568
I3 I 0.48396(3) 0.59860(3) 0.53856(2)
I4 I 0.23352(3) 0.64120(3) 1.04301(2)
N7 N 0.4260(3) 0.2944(3) 0.75382(19)
H3 H 0.3843 0.3080 0.7440
N8 N 0.5064(3) 0.3569(3) 0.70331(19)
N9 N 0.4491(3) 0.3875(3) 0.69105(19)
N10 N 0.3161(3) 0.3131(2) 0.84988(18)
H4 H 0.3568 0.3254 0.8620
N11 N 0.2340(3) 0.3913(3) 0.88543(19)
N12 N 0.2904(3) 0.4210(3) 0.90072(19)
C26 C 0.5308(4) 0.4595(3) 0.6457(2)
H27 H 0.5726 0.4449 0.6608
C27 C 0.5361(4) 0.5073(3) 0.6126(2)
H28 H 0.5814 0.5258 0.6064
C28 C 0.4745(4) 0.5276(3) 0.5890(2)
C29 C 0.4057(4) 0.5019(4) 0.5989(3)
H29 H 0.3641 0.5159 0.5833
C30 C 0.4009(4) 0.4549(4) 0.6327(3)
H30 H 0.3552 0.4374 0.6397
C31 C 0.4620(4) 0.4333(3) 0.6562(2)
C32 C 0.4939(3) 0.3128(3) 0.7367(2)
C33 C 0.5473(4) 0.2794(3) 0.7615(3)
H31 H 0.5979 0.2817 0.7573
C34 C 0.5104(4) 0.2417(3) 0.7941(2)
H32 H 0.5324 0.2149 0.8156
C35 C 0.4355(3) 0.2511(3) 0.7888(2)
C36 C 0.3709(3) 0.2168(3) 0.8100(2)
C37 C 0.3422(4) 0.1666(3) 0.7751(2)
H33 H 0.3013 0.1438 0.7889
H34 H 0.3236 0.1890 0.7484
C38 C 0.3995(4) 0.1172(4) 0.7592(3)
H35 H 0.4377 0.1387 0.7425
H36 H 0.3764 0.0861 0.7398
H37 H 0.4202 0.0962 0.7855
C39 C 0.3952(4) 0.1853(3) 0.8557(2)
H38 H 0.4321 0.1531 0.8489
H39 H 0.4182 0.2178 0.8747
C40 C 0.3336(4) 0.1538(4) 0.8833(3)
H40 H 0.2961 0.1849 0.8898
H41 H 0.3531 0.1375 0.9117
H42 H 0.3129 0.1191 0.8659
C41 C 0.3082(3) 0.2631(3) 0.8203(2)
C42 C 0.2349(3) 0.2590(3) 0.8074(2)
H43 H 0.2148 0.2297 0.7869
C43 C 0.1965(4) 0.3073(3) 0.8311(2)
H44 H 0.1464 0.3154 0.8296
C44 C 0.2479(3) 0.3409(3) 0.8574(2)
C45 C 0.2726(4) 0.4698(3) 0.9327(2)
C46 C 0.3314(4) 0.5076(4) 0.9473(3)
H45 H 0.3783 0.4997 0.9361
C47 C 0.3200(4) 0.5567(4) 0.9785(3)
H46 H 0.3589 0.5824 0.9879
C48 C 0.2498(4) 0.5673(3) 0.9956(2)
C49 C 0.1922(4) 0.5290(3) 0.9816(3)
H47 H 0.1453 0.5362 0.9933
C50 C 0.2035(4) 0.4805(3) 0.9507(2)
H48 H 0.1644 0.4546 0.9418
O1 O 0.0478(7) 1.0234(5) 0.0547(4)
O2 O 0.1124(4) 0.9531(4) 0.0943(3)
C51 C 0.0234(7) 0.9159(6) 0.0430(4)
H49 H -0.0039 0.9296 0.0166
H50 H -0.0095 0.8971 0.0650
H51 H 0.0593 0.8847 0.0339
C52 C 0.0598(6) 0.9703(6) 0.0634(4)
C53 C 0.1604(7) 1.0016(5) 0.1113(4)
H52 H 0.1318 1.0375 0.1227
H53 H 0.1916 1.0170 0.0867
C54 C 0.2055(6) 0.9755(6) 0.1483(4)
H54 H 0.1745 0.9621 0.1732
H55 H 0.2390 1.0078 0.1590
H56 H 0.2328 0.9393 0.1371
loop_
_geom_bond_atom_site_label_1
_geom_bond_atom_site_label_2
_geom_bond_site_symmetry_1
_geom_bond_site_symmetry_2
I1 C3 1_555 1_555
I2 C23 1_555 1_555
I3 C28 1_555 1_555
I4 C48 1_555 1_555
N1 H1 1_555 1_555
N2 N3 1_555 1_555
N3 C6 1_555 1_555
N4 H2 1_555 1_555
N5 N6 1_555 1_555
N6 C20 1_555 1_555
N7 H3 1_555 1_555
N8 N9 1_555 1_555
N9 C31 1_555 1_555
N10 H4 1_555 1_555
N11 N12 1_555 1_555
N12 C45 1_555 1_555
C1 H5 1_555 1_555
C2 C1 1_555 1_555
H6 C2 1_555 1_555
C3 C2 1_555 1_555
C4 C3 1_555 1_555
H7 C4 1_555 1_555
C5 C4 1_555 1_555
H8 C5 1_555 1_555
C6 C1 1_555 1_555
C7 N1 1_555 1_555
C8 C7 1_555 1_555
H9 C8 1_555 1_555
C9 C8 1_555 1_555
H10 C9 1_555 1_555
C10 N1 1_555 1_555
C11 C10 1_555 1_555
C12 C11 1_555 1_555
H11 C12 1_555 1_555
H12 C12 1_555 1_555
C13 C12 1_555 1_555
H13 C13 1_555 1_555
H14 C13 1_555 1_555
H15 C13 1_555 1_555
C14 C11 1_555 1_555
H16 C14 1_555 1_555
H17 C14 1_555 1_555
C15 C14 1_555 1_555
H18 C15 1_555 1_555
H19 C15 1_555 1_555
H20 C15 1_555 1_555
C16 N4 1_555 1_555
C17 C16 1_555 1_555
H21 C17 1_555 1_555
C18 C17 1_555 1_555
H22 C18 1_555 1_555
C19 N4 1_555 1_555
C20 C21 1_555 1_555
C21 H23 1_555 1_555
C22 C21 1_555 1_555
H24 C22 1_555 1_555
C23 C22 1_555 1_555
C24 C23 1_555 1_555
H25 C24 1_555 1_555
C25 C20 1_555 1_555
H26 C25 1_555 1_555
C26 H27 1_555 1_555
C27 C26 1_555 1_555
H28 C27 1_555 1_555
C28 C27 1_555 1_555
C29 C28 1_555 1_555
H29 C29 1_555 1_555
C30 C29 1_555 1_555
H30 C30 1_555 1_555
C31 C26 1_555 1_555
C32 N7 1_555 1_555
C33 C32 1_555 1_555
H31 C33 1_555 1_555
C34 C33 1_555 1_555
H32 C34 1_555 1_555
C35 N7 1_555 1_555
C36 C35 1_555 1_555
C37 C36 1_555 1_555
H33 C37 1_555 1_555
H34 C37 1_555 1_555
C38 C37 1_555 1_555
H35 C38 1_555 1_555
H36 C38 1_555 1_555
H37 C38 1_555 1_555
C39 C36 1_555 1_555
H38 C39 1_555 1_555
H39 C39 1_555 1_555
C40 C39 1_555 1_555
H40 C40 1_555 1_555
H41 C40 1_555 1_555
H42 C40 1_555 1_555
C41 N10 1_555 1_555
C42 C41 1_555 1_555
H43 C42 1_555 1_555
C43 C42 1_555 1_555
H44 C43 1_555 1_555
C44 N10 1_555 1_555
C45 C46 1_555 1_555
C46 H45 1_555 1_555
C47 C46 1_555 1_555
H46 C47 1_555 1_555
C48 C47 1_555 1_555
C49 C48 1_555 1_555
H47 C49 1_555 1_555
C50 C45 1_555 1_555
H48 C50 1_555 1_555
O1 C52 1_555 1_555
O2 C52 1_555 1_555
C51 H49 1_555 1_555
H50 C51 1_555 1_555
H51 C51 1_555 1_555
C52 C51 1_555 1_555
C53 O2 1_555 1_555
H52 C53 1_555 1_555
H53 C53 1_555 1_555
C54 C53 1_555 1_555
H54 C54 1_555 1_555
H55 C54 1_555 1_555
H56 C54 1_555 1_555
N2 C7 1_555 1_555
N5 C19 1_555 1_555
N8 C32 1_555 1_555
N11 C44 1_555 1_555
C5 C6 1_555 1_555
C9 C10 1_555 1_555
C11 C16 1_555 1_555
C18 C19 1_555 1_555
C24 C25 1_555 1_555
C30 C31 1_555 1_555
C34 C35 1_555 1_555
C36 C41 1_555 1_555
C43 C44 1_555 1_555
C49 C50 1_555 1_555

#END
