
#######################################################################
#
#                 Cambridge Crystallographic Data Centre
#                                CCDC 
#
#######################################################################
#
# If this CIF has been generated from an entry in the Cambridge 
# Structural Database, then it will include bibliographic, chemical, 
# crystal, experimental, refinement or atomic coordinate data resulting 
# from the CCDC's data processing and validation procedures.
#
#######################################################################

data_OGOZOA
_chemical_formula_moiety         'C76 H39 N1 O11,5(H2 O1),3(C1 D1 Cl3)'
_chemical_name_systematic        
'tetrakis(t-Butylperoxy)-hydroxy-(hydroxyimino)-oxo-open-cage-C60-fullerene deuterochloroform solvate pentahydrate'
_symmetry_cell_setting           monoclinic
_symmetry_space_group_name_H-M   'P 21/c'
_symmetry_Int_Tables_number      14
_space_group_name_Hall           '-P 2ybc'
loop_
_symmetry_equiv_pos_site_id
_symmetry_equiv_pos_as_xyz
1 x,y,z
2 -x,1/2+y,1/2-z
3 -x,-y,-z
4 x,1/2-y,1/2+z
_cell_length_a                   13.9150(2)
_cell_length_b                   25.7935(4)
_cell_length_c                   22.4441(4)
_cell_angle_alpha                90
_cell_angle_beta                 117.0560(10)
_cell_angle_gamma                90
_cell_volume                     7173.98
_exptl_crystal_colour            red
_exptl_crystal_description       block
_cell_formula_units_Z            4
_exptl_crystal_recrystallization_method deuterochloroform
loop_
_atom_site_label
_atom_site_type_symbol
_atom_site_fract_x
_atom_site_fract_y
_atom_site_fract_z
N1 N 0.4807(4) 0.5818(3) 0.4152(3)
O1 O 0.3359(6) 0.4969(2) 0.3612(3)
O2 O 0.3978(7) 0.5830(4) 0.4340(4)
H1 H 0.4181(45) 0.5677(52) 0.4709(37)
O3 O 0.1257(3) 0.6538(2) 0.2443(2)
H2 H 0.1662(11) 0.6580(28) 0.2853(7)
O4 O 0.6504(3) 0.5535(2) 0.3993(2)
O5 O 0.7011(4) 0.5989(2) 0.4398(2)
O6 O 0.4076(3) 0.4212(2) 0.3127(2)
O7 O 0.3052(4) 0.3973(2) 0.3029(3)
O8 O 0.4308(3) 0.70080(14) 0.3499(2)
O9 O 0.4678(4) 0.75096(15) 0.3399(2)
O10 O 0.0780(3) 0.4942(2) 0.2133(2)
O11 O 0.0262(4) 0.5359(2) 0.2335(3)
C1 C 0.4656(5) 0.5870(2) 0.3579(3)
C2 C 0.5557(5) 0.5698(2) 0.3407(3)
C3 C 0.5444(4) 0.5253(2) 0.2916(3)
C4 C 0.4735(4) 0.4845(2) 0.2660(3)
C5 C 0.3752(5) 0.4677(2) 0.2752(3)
C6 C 0.3219(5) 0.5056(2) 0.3045(3)
C7 C 0.2451(5) 0.5452(2) 0.2596(3)
C8 C 0.2755(4) 0.5975(2) 0.2602(3)
C9 C 0.3729(5) 0.6187(2) 0.3070(3)
H4 H 0.3463(5) 0.6329(2) 0.3383(3)
C10 C 0.4163(5) 0.6692(2) 0.2939(3)
C11 C 0.5183(4) 0.6599(2) 0.2856(3)
C12 C 0.5779(4) 0.6152(2) 0.3042(3)
C13 C 0.6263(4) 0.5954(2) 0.2649(3)
C14 C 0.6096(4) 0.5402(2) 0.2591(3)
C15 C 0.6006(4) 0.5151(2) 0.2026(3)
C16 C 0.5271(4) 0.4730(2) 0.1755(3)
C17 C 0.4666(4) 0.4588(2) 0.2067(3)
C18 C 0.3547(5) 0.4426(2) 0.1662(3)
C19 C 0.2954(5) 0.4569(2) 0.2013(3)
C20 C 0.1969(5) 0.4785(2) 0.1680(3)
C21 C 0.1527(4) 0.5200(2) 0.1969(3)
C22 C 0.1023(4) 0.5571(2) 0.1388(3)
C23 C 0.1175(4) 0.6090(2) 0.1463(3)
C24 C 0.1874(5) 0.6354(2) 0.2127(3)
C25 C 0.2387(5) 0.6789(2) 0.1905(3)
C26 C 0.3437(5) 0.6929(2) 0.2262(3)
C27 C 0.4042(5) 0.7089(2) 0.1928(3)
C28 C 0.5116(5) 0.6882(2) 0.2283(3)
C29 C 0.5675(5) 0.6717(2) 0.1935(3)
C30 C 0.6263(4) 0.6239(2) 0.2125(3)
C31 C 0.6132(4) 0.5974(2) 0.1524(3)
C32 C 0.6021(4) 0.5440(2) 0.1474(3)
C33 C 0.5268(4) 0.5202(2) 0.0866(3)
C34 C 0.4805(5) 0.4757(2) 0.1027(3)
C35 C 0.3733(5) 0.4629(2) 0.0644(3)
C36 C 0.3100(5) 0.4456(2) 0.0967(3)
C37 C 0.2020(5) 0.4674(2) 0.0605(3)
C38 C 0.1494(4) 0.4849(2) 0.0956(3)
C39 C 0.0903(4) 0.5331(2) 0.0779(3)
C40 C 0.0858(4) 0.5619(2) 0.0254(3)
C41 C 0.0966(4) 0.6173(2) 0.0317(3)
C42 C 0.1146(4) 0.6398(2) 0.0915(3)
C43 C 0.1896(5) 0.6822(2) 0.1189(3)
C44 C 0.2446(5) 0.7003(2) 0.0859(3)
C45 C 0.3568(5) 0.7134(2) 0.1238(3)
C46 C 0.4134(5) 0.6965(2) 0.0868(3)
C47 C 0.5165(5) 0.6753(2) 0.1211(3)
C48 C 0.5456(5) 0.6294(2) 0.0958(3)
C49 C 0.4709(5) 0.6069(2) 0.0367(3)
C50 C 0.4610(5) 0.5514(2) 0.0316(3)
C51 C 0.3482(5) 0.5387(2) -0.0082(3)
C52 C 0.3050(5) 0.4948(2) 0.0083(3)
C53 C 0.1997(5) 0.4981(2) 0.0057(3)
C54 C 0.1429(5) 0.5437(2) -0.0120(3)
C55 C 0.1869(5) 0.5892(2) -0.0287(3)
C56 C 0.1575(5) 0.6340(2) -0.0025(3)
C57 C 0.2321(5) 0.6756(2) 0.0244(3)
C58 C 0.3355(5) 0.6727(2) 0.0259(3)
C59 C 0.3645(5) 0.6283(2) 0.0014(3)
C60 C 0.2876(5) 0.5867(2) -0.0264(3)
C61 C 0.8145(6) 0.5888(4) 0.4738(4)
C62 C 0.8373(8) 0.5418(5) 0.5157(5)
H5 H 0.8084(8) 0.5113(5) 0.4869(5)
H6 H 0.8032(8) 0.5449(5) 0.5453(5)
H7 H 0.9155(8) 0.5379(5) 0.5427(5)
C63 C 0.8581(8) 0.6362(5) 0.5167(5)
H8 H 0.8423(8) 0.6670(5) 0.4881(5)
H9 H 0.9363(8) 0.6328(5) 0.5437(5)
H10 H 0.8240(8) 0.6399(5) 0.5463(5)
C64 C 0.8591(7) 0.5817(5) 0.4229(5)
H11 H 0.8440(7) 0.6128(5) 0.3951(5)
H12 H 0.8244(7) 0.5517(5) 0.3945(5)
H13 H 0.9372(7) 0.5761(5) 0.4468(5)
C65 C 0.3270(9) 0.3523(3) 0.3445(6)
C66 C 0.3856(11) 0.3126(4) 0.3250(9)
H14 H 0.4593(11) 0.3246(4) 0.3380(9)
H15 H 0.3479(11) 0.3073(4) 0.2765(9)
H16 H 0.3880(11) 0.2798(4) 0.3478(9)
C67 C 0.2139(10) 0.3357(4) 0.3255(7)
H17 H 0.1775(10) 0.3624(4) 0.3388(7)
H18 H 0.2150(10) 0.3031(4) 0.3483(7)
H19 H 0.1750(10) 0.3305(4) 0.2770(7)
C68 C 0.3861(12) 0.3718(5) 0.4156(6)
H20 H 0.3415(12) 0.3976(5) 0.4236(6)
H21 H 0.4544(12) 0.3878(5) 0.4227(6)
H22 H 0.4008(12) 0.3428(5) 0.4467(6)
C69 C 0.5554(6) 0.7680(3) 0.4036(3)
C70 C 0.5099(8) 0.7712(4) 0.4542(4)
H23 H 0.4492(8) 0.7955(4) 0.4379(4)
H24 H 0.5664(8) 0.7832(4) 0.4974(4)
H25 H 0.4851(8) 0.7368(4) 0.4597(4)
C71 C 0.6477(7) 0.7316(4) 0.4262(5)
H26 H 0.6267(7) 0.6981(4) 0.4374(5)
H27 H 0.7089(7) 0.7457(4) 0.4657(5)
H28 H 0.6684(7) 0.7267(4) 0.3902(5)
C72 C 0.5807(8) 0.8210(3) 0.3851(5)
H29 H 0.5170(8) 0.8433(3) 0.3706(5)
H30 H 0.6005(8) 0.8175(3) 0.3486(5)
H31 H 0.6409(8) 0.8365(3) 0.4241(5)
C73 C -0.0542(5) 0.5119(3) 0.2477(3)
C74 C -0.0987(7) 0.5569(4) 0.2692(4)
H32 H -0.1303(7) 0.5820(4) 0.2325(4)
H33 H -0.0406(7) 0.5736(4) 0.3082(4)
H34 H -0.1545(7) 0.5447(4) 0.2811(4)
C75 C -0.1377(6) 0.4874(4) 0.1849(5)
H35 H -0.1702(6) 0.5140(4) 0.1502(5)
H36 H -0.1938(6) 0.4715(4) 0.1938(5)
H37 H -0.1038(6) 0.4608(4) 0.1696(5)
C76 C -0.0044(10) 0.4721(5) 0.3006(5)
H38 H 0.0502(10) 0.4884(5) 0.3415(5)
H39 H 0.0298(10) 0.4454(5) 0.2855(5)
H40 H -0.0601(10) 0.4561(5) 0.3098(5)
C77 C 0.1170(6) 0.1721(3) 0.3732(4)
Cl1 Cl 0.1916(2) 0.19162(9) 0.3321(2)
Cl2 Cl 0.1875(2) 0.12462(11) 0.43146(15)
Cl3 Cl 0.0901(2) 0.22562(10) 0.41105(14)
C78 C 0.0714(16) 0.2290(7) 0.6196(8)
Cl4 Cl 0.0133(5) 0.2529(3) 0.5402(2)
Cl5 Cl 0.1704(5) 0.2737(2) 0.6721(2)
Cl6 Cl 0.1238(5) 0.1694(2) 0.6215(4)
C79 C -0.2341(18) 0.3101(7) 0.2196(11)
Cl7 Cl -0.1271(9) 0.3061(4) 0.2948(5)
Cl8 Cl -0.2741(11) 0.3652(4) 0.1841(7)
Cl9 Cl -0.2223(64) 0.2632(21) 0.1659(19)
O12 O 0.4257(6) 0.5291(3) 0.5372(3)
O13 O 0.7886(7) 0.4321(2) 0.3700(5)
O14 O 0.6404(6) 0.3517(3) 0.3069(6)
O15 O 0.1431(6) 0.6160(4) 0.4234(6)
O16 O 0.3210(10) 0.6825(4) 0.5043(8)
H3? H 0.2034(5) 0.5502(2) 0.2856(3)
C80? C -0.1841(19) 0.2780(7) 0.1804(12)
Cl10? Cl -0.0627(20) 0.2772(9) 0.2553(13)
Cl11? Cl -0.2226(17) 0.3401(6) 0.1663(7)
Cl12? Cl -0.2057(7) 0.2357(6) 0.1198(5)
H41? H 0.310(12) 0.5638(4) 0.3828(58)
N2? N 0.3359(6) 0.4969(2) 0.3612(3)
O17? O 0.4807(4) 0.5818(3) 0.4152(3)
O18? O 0.3033(7) 0.5338(3) 0.3951(4)
O19? O 0.2532(22) 0.6534(9) 0.5474(8)
loop_
_geom_bond_atom_site_label_1
_geom_bond_atom_site_label_2
_geom_bond_site_symmetry_1
_geom_bond_site_symmetry_2
N1 O2 1_555 1_555
O1 C6 1_555 1_555
O2 H1 1_555 1_555
O3 H2 1_555 1_555
O4 O5 1_555 1_555
O5 C61 1_555 1_555
O6 O7 1_555 1_555
O7 C65 1_555 1_555
O8 O9 1_555 1_555
O9 C69 1_555 1_555
O10 O11 1_555 1_555
O11 C73 1_555 1_555
C1 N1 1_555 1_555
C2 O4 1_555 1_555
C3 C2 1_555 1_555
C4 C3 1_555 1_555
C5 O6 1_555 1_555
C6 C5 1_555 1_555
C7 C6 1_555 1_555
C8 C7 1_555 1_555
C9 C1 1_555 1_555
H4 C9 1_555 1_555
C10 O8 1_555 1_555
C11 C10 1_555 1_555
C12 C2 1_555 1_555
C13 C12 1_555 1_555
C14 C3 1_555 1_555
C15 C14 1_555 1_555
C16 C15 1_555 1_555
C17 C4 1_555 1_555
C18 C17 1_555 1_555
C19 C5 1_555 1_555
C20 C19 1_555 1_555
C21 O10 1_555 1_555
C22 C21 1_555 1_555
C23 C22 1_555 1_555
C24 O3 1_555 1_555
C25 C24 1_555 1_555
C26 C10 1_555 1_555
C27 C26 1_555 1_555
C28 C11 1_555 1_555
C29 C28 1_555 1_555
C30 C13 1_555 1_555
C31 C30 1_555 1_555
C32 C15 1_555 1_555
C33 C32 1_555 1_555
C34 C16 1_555 1_555
C35 C34 1_555 1_555
C36 C18 1_555 1_555
C37 C36 1_555 1_555
C38 C20 1_555 1_555
C39 C22 1_555 1_555
C40 C39 1_555 1_555
C41 C40 1_555 1_555
C42 C23 1_555 1_555
C43 C25 1_555 1_555
C44 C43 1_555 1_555
C45 C27 1_555 1_555
C46 C45 1_555 1_555
C47 C29 1_555 1_555
C48 C31 1_555 1_555
C49 C48 1_555 1_555
C50 C33 1_555 1_555
C51 C50 1_555 1_555
C52 C35 1_555 1_555
C53 C37 1_555 1_555
C54 C40 1_555 1_555
C55 C54 1_555 1_555
C56 C41 1_555 1_555
C57 C44 1_555 1_555
C58 C46 1_555 1_555
C59 C49 1_555 1_555
C60 C51 1_555 1_555
C61 C62 1_555 1_555
C62 H5 1_555 1_555
H6 C62 1_555 1_555
H7 C62 1_555 1_555
C63 C61 1_555 1_555
H8 C63 1_555 1_555
H9 C63 1_555 1_555
H10 C63 1_555 1_555
C64 C61 1_555 1_555
H11 C64 1_555 1_555
H12 C64 1_555 1_555
H13 C64 1_555 1_555
C65 C66 1_555 1_555
C66 H14 1_555 1_555
H15 C66 1_555 1_555
H16 C66 1_555 1_555
C67 C65 1_555 1_555
H17 C67 1_555 1_555
H18 C67 1_555 1_555
H19 C67 1_555 1_555
C68 C65 1_555 1_555
H20 C68 1_555 1_555
H21 C68 1_555 1_555
H22 C68 1_555 1_555
C69 C70 1_555 1_555
C70 H23 1_555 1_555
H24 C70 1_555 1_555
H25 C70 1_555 1_555
C71 C69 1_555 1_555
H26 C71 1_555 1_555
H27 C71 1_555 1_555
H28 C71 1_555 1_555
C72 C69 1_555 1_555
H29 C72 1_555 1_555
H30 C72 1_555 1_555
H31 C72 1_555 1_555
C73 C74 1_555 1_555
C74 H32 1_555 1_555
H33 C74 1_555 1_555
H34 C74 1_555 1_555
C75 C73 1_555 1_555
H35 C75 1_555 1_555
H36 C75 1_555 1_555
H37 C75 1_555 1_555
C76 C73 1_555 1_555
H38 C76 1_555 1_555
H39 C76 1_555 1_555
H40 C76 1_555 1_555
C77 Cl1 1_555 1_555
Cl2 C77 1_555 1_555
Cl3 C77 1_555 1_555
C78 Cl4 1_555 1_555
Cl5 C78 1_555 1_555
Cl6 C78 1_555 1_555
C79 Cl7 1_555 1_555
Cl8 C79 1_555 1_555
Cl9 C79 1_555 1_555
C1 C2 1_555 1_555
C4 C5 1_555 1_555
C7 C21 1_555 1_555
C8 C9 1_555 1_555
C8 C24 1_555 1_555
C9 C10 1_555 1_555
C11 C12 1_555 1_555
C13 C14 1_555 1_555
C16 C17 1_555 1_555
C18 C19 1_555 1_555
C20 C21 1_555 1_555
C23 C24 1_555 1_555
C25 C26 1_555 1_555
C27 C28 1_555 1_555
C29 C30 1_555 1_555
C31 C32 1_555 1_555
C33 C34 1_555 1_555
C35 C36 1_555 1_555
C37 C38 1_555 1_555
C38 C39 1_555 1_555
C41 C42 1_555 1_555
C42 C43 1_555 1_555
C44 C45 1_555 1_555
C46 C47 1_555 1_555
C47 C48 1_555 1_555
C49 C50 1_555 1_555
C51 C52 1_555 1_555
C52 C53 1_555 1_555
C53 C54 1_555 1_555
C55 C56 1_555 1_555
C55 C60 1_555 1_555
C56 C57 1_555 1_555
C57 C58 1_555 1_555
C58 C59 1_555 1_555
C59 C60 1_555 1_555

#END
