
#######################################################################
#
#                 Cambridge Crystallographic Data Centre
#                                CCDC 
#
#######################################################################
#
# If this CIF has been generated from an entry in the Cambridge 
# Structural Database, then it will include bibliographic, chemical, 
# crystal, experimental, refinement or atomic coordinate data resulting 
# from the CCDC's data processing and validation procedures.
#
#######################################################################

data_OGOZIV
_chemical_formula_moiety         'C28 H23 N3 O4 S1'
_chemical_name_systematic        
'methyl (1-(1,3-benzothiazol-2-yl)-3-(4-methoxyphenyl)-5-oxo-2-(2-phenylvinyl)imidazolidin-4-ylidene)acetate'
_symmetry_cell_setting           triclinic
_symmetry_space_group_name_H-M   'P -1'
_symmetry_Int_Tables_number      2
_space_group_name_Hall           '-P 1'
loop_
_symmetry_equiv_pos_site_id
_symmetry_equiv_pos_as_xyz
1 x,y,z
2 -x,-y,-z
_cell_length_a                   9.8179(13)
_cell_length_b                   11.3305(15)
_cell_length_c                   12.4212(16)
_cell_angle_alpha                66.922(4)
_cell_angle_beta                 80.571(4)
_cell_angle_gamma                74.282(4)
_cell_volume                     1221.05
_exptl_crystal_colour            colorless
_exptl_crystal_description       block
_cell_formula_units_Z            2
loop_
_atom_site_label
_atom_site_type_symbol
_atom_site_fract_x
_atom_site_fract_y
_atom_site_fract_z
C1 C 0.5309(3) 0.7744(3) 0.0441(2)
C2 C 0.6742(4) 0.7714(4) 0.0369(3)
H1 H 0.7067 0.8185 0.0701
C3 C 0.7672(4) 0.6972(4) -0.0205(3)
H2 H 0.8638 0.6929 -0.0246
C4 C 0.7206(4) 0.6298(4) -0.0715(3)
H3 H 0.7861 0.5813 -0.1106
C5 C 0.5793(4) 0.6316(3) -0.0667(3)
H4 H 0.5481 0.5862 -0.1026
C6 C 0.4833(3) 0.7046(3) -0.0056(2)
C7 C 0.3047(3) 0.8247(3) 0.0949(2)
C8 C 0.0464(3) 0.8837(3) 0.1372(2)
C9 C -0.0418(3) 0.9563(2) 0.2106(2)
C10 C -0.1839(3) 0.9745(3) 0.2192(2)
H5 H -0.2217 0.9488 0.1702
C11 C -0.2850(3) 1.0296(3) 0.2963(2)
C12 C -0.5278(4) 1.1139(4) 0.3349(3)
H6 H -0.5364 1.0477 0.4114
H7 H -0.6159 1.1427 0.2984
H8 H -0.5047 1.1875 0.3421
C13 C 0.6127(3) 0.6927(3) 0.4692(3)
H9 H 0.6600 0.7462 0.4056
C14 C 0.6886(4) 0.5958(3) 0.5618(3)
H10 H 0.7865 0.5834 0.5588
C15 C 0.6199(4) 0.5188(3) 0.6569(3)
H11 H 0.6709 0.4551 0.7193
C16 C 0.4771(4) 0.5353(3) 0.6607(3)
H12 H 0.4303 0.4827 0.7255
C17 C 0.4012(3) 0.6306(3) 0.5677(3)
H13 H 0.3036 0.6411 0.5708
C18 C 0.4678(3) 0.7102(2) 0.4708(2)
C19 C 0.3922(3) 0.8112(3) 0.3697(2)
H14 H 0.4428 0.8707 0.3163
C20 C 0.2611(3) 0.8272(3) 0.3459(2)
H15 H 0.2061 0.7711 0.3983
C21 C 0.1970(3) 0.9332(3) 0.2367(2)
H16 H 0.2528 1.0006 0.2020
C22 C 0.0207(3) 1.1067(2) 0.2891(2)
C23 C 0.0799(3) 1.1004(3) 0.3856(2)
H17 H 0.1325 1.0204 0.4333
C24 C 0.0617(3) 1.2105(3) 0.4113(2)
H18 H 0.1013 1.2048 0.4768
C25 C -0.0156(3) 1.3309(3) 0.3404(3)
C26 C -0.0757(5) 1.5639(3) 0.2933(4)
H19 H -0.0202 1.5741 0.2203
H20 H -0.0649 1.6270 0.3232
H21 H -0.1738 1.5782 0.2808
C27 C -0.0761(3) 1.3382(3) 0.2446(3)
H22 H -0.1288 1.4182 0.1970
C28 C -0.0583(3) 1.2268(3) 0.2196(2)
H23 H -0.0996 1.2320 0.1551
N1 N 0.4249(3) 0.8435(2) 0.1016(2)
N2 N 0.1844(2) 0.8778(2) 0.15029(19)
N3 N 0.0478(2) 0.9935(2) 0.25883(19)
O1 O 0.0083(2) 0.8386(2) 0.07671(18)
O2 O -0.2564(2) 1.0452(2) 0.37969(19)
O3 O -0.4171(2) 1.0598(2) 0.26425(18)
O4 O -0.0287(2) 1.4343(2) 0.3755(2)
S1 S 0.30121(9) 0.72466(7) 0.01892(6)
loop_
_geom_bond_atom_site_label_1
_geom_bond_atom_site_label_2
_geom_bond_site_symmetry_1
_geom_bond_site_symmetry_2
C1 C2 1_555 1_555
C2 H1 1_555 1_555
C3 C2 1_555 1_555
H2 C3 1_555 1_555
C4 C3 1_555 1_555
H3 C4 1_555 1_555
C5 C4 1_555 1_555
H4 C5 1_555 1_555
C6 C1 1_555 1_555
C7 N1 1_555 1_555
C8 C9 1_555 1_555
C9 C10 1_555 1_555
C10 H5 1_555 1_555
C11 C10 1_555 1_555
C12 H6 1_555 1_555
H7 C12 1_555 1_555
H8 C12 1_555 1_555
C13 H9 1_555 1_555
C14 C13 1_555 1_555
H10 C14 1_555 1_555
C15 C14 1_555 1_555
H11 C15 1_555 1_555
C16 C15 1_555 1_555
H12 C16 1_555 1_555
C17 C16 1_555 1_555
H13 C17 1_555 1_555
C18 C13 1_555 1_555
C19 C18 1_555 1_555
H14 C19 1_555 1_555
C20 C19 1_555 1_555
H15 C20 1_555 1_555
C21 C20 1_555 1_555
H16 C21 1_555 1_555
C22 C23 1_555 1_555
C23 H17 1_555 1_555
C24 C23 1_555 1_555
H18 C24 1_555 1_555
C25 C24 1_555 1_555
C26 H19 1_555 1_555
H20 C26 1_555 1_555
H21 C26 1_555 1_555
C27 C25 1_555 1_555
H22 C27 1_555 1_555
C28 C22 1_555 1_555
H23 C28 1_555 1_555
N1 C1 1_555 1_555
N2 C7 1_555 1_555
N3 C9 1_555 1_555
O1 C8 1_555 1_555
O2 C11 1_555 1_555
O3 C11 1_555 1_555
O4 C25 1_555 1_555
S1 C6 1_555 1_555
C5 C6 1_555 1_555
C7 S1 1_555 1_555
C8 N2 1_555 1_555
C12 O3 1_555 1_555
C17 C18 1_555 1_555
C21 N2 1_555 1_555
C21 N3 1_555 1_555
C22 N3 1_555 1_555
C26 O4 1_555 1_555
C27 C28 1_555 1_555

#END
