
#######################################################################
#
#                 Cambridge Crystallographic Data Centre
#                                CCDC 
#
#######################################################################
#
# If this CIF has been generated from an entry in the Cambridge 
# Structural Database, then it will include bibliographic, chemical, 
# crystal, experimental, refinement or atomic coordinate data resulting 
# from the CCDC's data processing and validation procedures.
#
#######################################################################

data_OGOZIU
_chemical_formula_moiety         'C76 H36 O10,C1 S2'
_chemical_name_systematic        
'tetrakis(t-Butylperoxy)-epoxy-open-cage-C60-fullerene carbon disulfide solvate'
_symmetry_cell_setting           monoclinic
_symmetry_space_group_name_H-M   'P 21/c'
_symmetry_Int_Tables_number      14
_space_group_name_Hall           '-P 2ybc'
loop_
_symmetry_equiv_pos_site_id
_symmetry_equiv_pos_as_xyz
1 x,y,z
2 -x,1/2+y,1/2-z
3 -x,-y,-z
4 x,1/2-y,1/2+z
_cell_length_a                   18.9125(3)
_cell_length_b                   14.3843(2)
_cell_length_c                   20.3313(4)
_cell_angle_alpha                90
_cell_angle_beta                 108.2792(6)
_cell_angle_gamma                90
_cell_volume                     5251.89
_exptl_crystal_colour            red
_exptl_crystal_description       block
_cell_formula_units_Z            4
_exptl_crystal_recrystallization_method 'carbon disulfide/ethanol'
loop_
_atom_site_label
_atom_site_type_symbol
_atom_site_fract_x
_atom_site_fract_y
_atom_site_fract_z
C1 C 0.31998(16) 0.3254(2) 0.24963(16)
C2 C 0.30139(17) 0.2581(2) 0.29973(16)
C3 C 0.28612(16) 0.1585(2) 0.27788(16)
C4 C 0.22731(17) 0.12666(19) 0.30189(16)
C5 C 0.17783(17) 0.05826(19) 0.26584(16)
C6 C 0.09914(17) 0.06640(19) 0.25786(16)
C7 C 0.05801(17) 0.03689(18) 0.18833(17)
C8 C -0.00756(17) 0.0829(2) 0.15213(17)
C9 C -0.02253(16) 0.1051(2) 0.08011(17)
C10 C -0.05791(16) 0.1952(2) 0.06709(18)
C11 C -0.03954(16) 0.2573(2) 0.02239(17)
C12 C 0.01403(17) 0.2309(2) -0.01198(16)
C13 C 0.05914(17) 0.31244(19) -0.01325(15)
C14 C 0.13521(16) 0.30436(19) -0.00257(15)
C15 C 0.18825(15) 0.37137(18) 0.03766(15)
C16 C 0.26674(15) 0.32120(19) 0.05543(15)
C17 C 0.31077(15) 0.34100(19) 0.12886(16)
C18 C 0.32395(15) 0.2846(2) 0.18281(16)
C19 C 0.32595(16) 0.18111(19) 0.17049(16)
C20 C 0.29409(16) 0.12441(19) 0.21814(17)
C21 C 0.24170(16) 0.05805(18) 0.17854(17)
C22 C 0.18487(17) 0.02407(18) 0.20180(16)
C23 C 0.11065(17) 0.01050(18) 0.15348(17)
C24 C 0.09693(17) 0.03160(18) 0.08410(16)
C25 C 0.02911(18) 0.08009(19) 0.04681(16)
C26 C 0.04719(17) 0.14416(19) -0.00084(15)
C27 C 0.12531(17) 0.13464(19) 0.00718(15)
C28 C 0.16807(16) 0.21255(19) 0.00484(15)
C29 C 0.24348(16) 0.22031(18) 0.04813(15)
C30 C 0.27167(16) 0.15600(19) 0.09890(16)
C31 C 0.22682(17) 0.07820(18) 0.10582(16)
C32 C 0.15583(18) 0.06555(18) 0.05924(16)
C33 C 0.24268(18) 0.2845(2) 0.33093(15)
C34 C 0.20066(18) 0.2022(2) 0.33427(15)
C35 C 0.12520(19) 0.2078(2) 0.32849(16)
C36 C 0.07358(18) 0.1389(2) 0.28893(16)
C37 C 0.00530(18) 0.1862(2) 0.25129(18)
C38 C -0.03441(17) 0.1591(2) 0.18444(18)
C39 C -0.06589(16) 0.2279(2) 0.13170(18)
C40 C -0.05624(17) 0.3223(2) 0.14821(19)
C41 C -0.03819(17) 0.3866(2) 0.10105(19)
C42 C -0.02915(16) 0.3543(2) 0.03976(18)
C43 C 0.03297(16) 0.38726(19) 0.01798(16)
C44 C 0.08367(17) 0.45061(18) 0.05888(16)
C45 C 0.16257(16) 0.44438(18) 0.06853(15)
C46 C 0.20135(17) 0.50657(18) 0.13382(16)
C47 C 0.26978(17) 0.45854(18) 0.17842(16)
C48 C 0.27805(17) 0.4161(2) 0.23866(16)
C49 C 0.2320(2) 0.4490(2) 0.28287(17)
C50 C 0.2083(2) 0.3693(2) 0.32137(16)
C51 C 0.1306(2) 0.3758(2) 0.31221(17)
C52 C 0.0892(2) 0.2964(2) 0.31702(17)
C53 C 0.01459(19) 0.2838(2) 0.26876(18)
C54 C -0.01591(18) 0.3509(2) 0.21755(19)
C55 C 0.0276(2) 0.4331(2) 0.2143(2)
C56 C 0.01314(18) 0.45502(19) 0.14211(19)
C57 C 0.07165(17) 0.48783(18) 0.12056(17)
C58 C 0.14187(18) 0.50750(18) 0.16960(18)
C59 C 0.15558(19) 0.48481(19) 0.23719(19)
C60 C 0.0982(2) 0.4453(2) 0.25994(18)
O1 O 0.37375(11) 0.30146(15) 0.31609(11)
O2 O 0.31574(11) 0.43660(13) 0.13955(11)
O3 O 0.29848(11) 0.35342(13) 0.00474(11)
O4 O 0.35283(11) 0.28053(14) 0.00121(12)
C61 C 0.42464(16) 0.3243(2) 0.00804(17)
C62 C 0.4686(2) 0.2400(2) -0.0011(2)
H1 H 0.4738 0.1966 0.0374
H2 H 0.5180 0.2595 -0.0015
H3 H 0.4424 0.2091 -0.0449
C63 C 0.41564(18) 0.3926(2) -0.05087(18)
H4 H 0.3871 0.4467 -0.0441
H5 H 0.3891 0.3625 -0.0949
H6 H 0.4648 0.4129 -0.0516
C64 C 0.4560(2) 0.3693(3) 0.07755(18)
H7 H 0.4256 0.4234 0.0804
H8 H 0.5073 0.3894 0.0838
H9 H 0.4558 0.3246 0.1139
O5 O 0.40285(11) 0.16377(14) 0.17829(12)
O6 O 0.40917(13) 0.06381(17) 0.16825(14)
C65 C 0.4793(2) 0.0340(3) 0.2160(2)
C66 C 0.4784(3) -0.0689(3) 0.1998(3)
H10 H 0.4783 -0.0774 0.1520
H11 H 0.4335 -0.0973 0.2055
H12 H 0.5226 -0.0986 0.2316
C67 C 0.5411(2) 0.0837(4) 0.1984(3)
H13 H 0.5407 0.1497 0.2103
H14 H 0.5339 0.0776 0.1487
H15 H 0.5891 0.0563 0.2247
C68 C 0.4796(3) 0.0491(4) 0.2885(3)
H16 H 0.4808 0.1160 0.2981
H17 H 0.5237 0.0194 0.3205
H18 H 0.4346 0.0219 0.2946
O7 O 0.21592(12) 0.59547(12) 0.10884(11)
O8 O 0.26015(12) 0.64318(13) 0.17339(12)
C69 C 0.2308(2) 0.7375(2) 0.1743(2)
C70 C 0.2359(2) 0.7905(2) 0.1127(2)
H19 H 0.1990 0.7665 0.0708
H20 H 0.2859 0.7833 0.1087
H21 H 0.2262 0.8565 0.1183
C71 C 0.2867(3) 0.7723(3) 0.2413(3)
H22 H 0.2813 0.7366 0.2805
H23 H 0.2775 0.8383 0.2476
H24 H 0.3374 0.7646 0.2390
C72 C 0.1526(2) 0.7348(2) 0.1778(2)
H25 H 0.1518 0.7005 0.2192
H26 H 0.1201 0.7038 0.1364
H27 H 0.1349 0.7984 0.1800
O9 O 0.2877(5) 0.5111(6) 0.3267(6)
O10 O 0.2460(3) 0.5517(3) 0.3701(3)
C73 C 0.2985(7) 0.5591(9) 0.4406(8)
C74 C 0.3591(7) 0.6270(11) 0.4439(8)
H28 H 0.3373 0.6853 0.4217
H29 H 0.3922 0.6014 0.4199
H30 H 0.3876 0.6390 0.4925
C75 C 0.2454(4) 0.6016(6) 0.4765(4)
H31 H 0.2060 0.5568 0.4755
H32 H 0.2231 0.6584 0.4521
H33 H 0.2734 0.6166 0.5246
C76 C 0.3234(5) 0.4639(5) 0.4685(4)
H34 H 0.2799 0.4233 0.4605
H35 H 0.3496 0.4680 0.5184
H36 H 0.3570 0.4382 0.4450
C77 C 0.3013(2) 0.6079(3) -0.0134(3)
S1 S 0.23684(11) 0.58591(14) -0.07393(12)
S2 S 0.36782(8) 0.63007(10) 0.05078(9)
C78? C 0.3234(10) 0.5495(12) 0.4381(11)
C79? C 0.3287(9) 0.6527(10) 0.4271(9)
C80? C 0.2560(9) 0.5243(9) 0.4599(6)
C81? C 0.3931(9) 0.5132(8) 0.4887(5)
H37? H 0.2811 0.6753 0.3959
H38? H 0.3682 0.6648 0.4066
H39? H 0.3401 0.6849 0.4717
H40? H 0.2115 0.5541 0.4285
H41? H 0.2636 0.5459 0.5073
H42? H 0.2493 0.4567 0.4579
H43? H 0.3861 0.4479 0.4989
H44? H 0.4050 0.5497 0.5315
H45? H 0.4340 0.5182 0.4689
O11? O 0.2545(6) 0.5343(6) 0.3232(8)
O12? O 0.3216(3) 0.5015(3) 0.3763(4)
loop_
_geom_bond_atom_site_label_1
_geom_bond_atom_site_label_2
_geom_bond_site_symmetry_1
_geom_bond_site_symmetry_2
C1 C2 1_555 1_555
C2 C3 1_555 1_555
C3 C4 1_555 1_555
C4 C5 1_555 1_555
C5 C6 1_555 1_555
C6 C7 1_555 1_555
C7 C8 1_555 1_555
C8 C9 1_555 1_555
C9 C10 1_555 1_555
C10 C11 1_555 1_555
C11 C12 1_555 1_555
C12 C13 1_555 1_555
C13 C14 1_555 1_555
C14 C15 1_555 1_555
C15 C16 1_555 1_555
C16 C17 1_555 1_555
C17 C18 1_555 1_555
C18 C1 1_555 1_555
C19 C18 1_555 1_555
C20 C3 1_555 1_555
C21 C20 1_555 1_555
C22 C5 1_555 1_555
C23 C7 1_555 1_555
C24 C23 1_555 1_555
C25 C9 1_555 1_555
C26 C12 1_555 1_555
C27 C26 1_555 1_555
C28 C14 1_555 1_555
C29 C16 1_555 1_555
C30 C19 1_555 1_555
C31 C21 1_555 1_555
C32 C24 1_555 1_555
C33 C2 1_555 1_555
C34 C4 1_555 1_555
C35 C34 1_555 1_555
C36 C6 1_555 1_555
C37 C36 1_555 1_555
C38 C8 1_555 1_555
C39 C10 1_555 1_555
C40 C39 1_555 1_555
C41 C40 1_555 1_555
C42 C11 1_555 1_555
C43 C13 1_555 1_555
C44 C43 1_555 1_555
C45 C15 1_555 1_555
C46 C45 1_555 1_555
C47 C46 1_555 1_555
C48 C1 1_555 1_555
C49 C48 1_555 1_555
C50 C33 1_555 1_555
C51 C50 1_555 1_555
C52 C35 1_555 1_555
C53 C37 1_555 1_555
C54 C40 1_555 1_555
C55 C54 1_555 1_555
C56 C41 1_555 1_555
C57 C44 1_555 1_555
C58 C46 1_555 1_555
C59 C49 1_555 1_555
C60 C51 1_555 1_555
O1 C1 1_555 1_555
O2 C17 1_555 1_555
O3 C16 1_555 1_555
O4 O3 1_555 1_555
C61 O4 1_555 1_555
C62 C61 1_555 1_555
H1 C62 1_555 1_555
H2 C62 1_555 1_555
H3 C62 1_555 1_555
C63 C61 1_555 1_555
H4 C63 1_555 1_555
H5 C63 1_555 1_555
H6 C63 1_555 1_555
C64 C61 1_555 1_555
H7 C64 1_555 1_555
H8 C64 1_555 1_555
H9 C64 1_555 1_555
O5 C19 1_555 1_555
O6 O5 1_555 1_555
C65 O6 1_555 1_555
C66 C65 1_555 1_555
H10 C66 1_555 1_555
H11 C66 1_555 1_555
H12 C66 1_555 1_555
C67 C65 1_555 1_555
H13 C67 1_555 1_555
H14 C67 1_555 1_555
H15 C67 1_555 1_555
C68 C65 1_555 1_555
H16 C68 1_555 1_555
H17 C68 1_555 1_555
H18 C68 1_555 1_555
O7 C46 1_555 1_555
O8 O7 1_555 1_555
C69 O8 1_555 1_555
C70 C69 1_555 1_555
H19 C70 1_555 1_555
H20 C70 1_555 1_555
H21 C70 1_555 1_555
C71 C69 1_555 1_555
H22 C71 1_555 1_555
H23 C71 1_555 1_555
H24 C71 1_555 1_555
C72 C69 1_555 1_555
H25 C72 1_555 1_555
H26 C72 1_555 1_555
H27 C72 1_555 1_555
O9 C49 1_555 1_555
O10 O9 1_555 1_555
C73 O10 1_555 1_555
C74 C73 1_555 1_555
H28 C74 1_555 1_555
H29 C74 1_555 1_555
H30 C74 1_555 1_555
C75 C73 1_555 1_555
H31 C75 1_555 1_555
H32 C75 1_555 1_555
H33 C75 1_555 1_555
C76 C73 1_555 1_555
H34 C76 1_555 1_555
H35 C76 1_555 1_555
H36 C76 1_555 1_555
C77 S1 1_555 1_555
S2 C77 1_555 1_555
C2 O1 1_555 1_555
C19 C20 1_555 1_555
C21 C22 1_555 1_555
C22 C23 1_555 1_555
C24 C25 1_555 1_555
C25 C26 1_555 1_555
C27 C28 1_555 1_555
C27 C32 1_555 1_555
C28 C29 1_555 1_555
C29 C30 1_555 1_555
C30 C31 1_555 1_555
C31 C32 1_555 1_555
C33 C34 1_555 1_555
C35 C36 1_555 1_555
C37 C38 1_555 1_555
C38 C39 1_555 1_555
C41 C42 1_555 1_555
C42 C43 1_555 1_555
C44 C45 1_555 1_555
C47 C48 1_555 1_555
C47 O2 1_555 1_555
C49 C50 1_555 1_555
C51 C52 1_555 1_555
C52 C53 1_555 1_555
C53 C54 1_555 1_555
C55 C56 1_555 1_555
C55 C60 1_555 1_555
C56 C57 1_555 1_555
C57 C58 1_555 1_555
C58 C59 1_555 1_555
C59 C60 1_555 1_555

#END
