
#######################################################################
#
#                 Cambridge Crystallographic Data Centre
#                                CCDC 
#
#######################################################################
#
# If this CIF has been generated from an entry in the Cambridge 
# Structural Database, then it will include bibliographic, chemical, 
# crystal, experimental, refinement or atomic coordinate data resulting 
# from the CCDC's data processing and validation procedures.
#
#######################################################################

data_OGUBID
_chemical_formula_moiety         'C26 H22 Br1 N1 O2 S1'
_chemical_name_systematic        
2'-(4-bromophenyl)-7'-(diethylamino)-3H-spiro[2-benzothiophene-1,4'-chromen]-3-one
_symmetry_cell_setting           triclinic
_symmetry_space_group_name_H-M   'P -1'
_symmetry_Int_Tables_number      2
_space_group_name_Hall           '-P 1'
loop_
_symmetry_equiv_pos_site_id
_symmetry_equiv_pos_as_xyz
1 x,y,z
2 -x,-y,-z
_cell_length_a                   8.814(3)
_cell_length_b                   10.137(3)
_cell_length_c                   13.607(4)
_cell_angle_alpha                70.548(5)
_cell_angle_beta                 82.124(4)
_cell_angle_gamma                80.867(5)
_cell_volume                     1127.19
_exptl_crystal_colour            colorless
_exptl_crystal_description       block
_cell_formula_units_Z            2
loop_
_atom_site_label
_atom_site_type_symbol
_atom_site_fract_x
_atom_site_fract_y
_atom_site_fract_z
Br1 Br 0.16302(9) -0.29501(8) 0.90107(5)
S1 S 0.55545(16) 0.41496(16) 0.33297(12)
N1 N 0.2574(6) 0.1543(5) 0.0237(3)
O1 O 0.5863(5) 0.6622(5) 0.3457(3)
O2 O 0.2680(4) 0.0864(3) 0.3847(3)
C1 C 0.3181(9) -0.1035(7) 0.0720(5)
H1 H 0.3803 -0.1038 0.0084
H2 H 0.2695 -0.1884 0.0997
H3 H 0.3821 -0.0986 0.1221
C2 C 0.1962(8) 0.0223(7) 0.0498(5)
H4 H 0.1414 0.0236 -0.0078
H5 H 0.1223 0.0124 0.1108
C3 C 0.2772(8) 0.2379(7) -0.0863(4)
H6 H 0.3046 0.1748 -0.1278
H7 H 0.3624 0.2926 -0.0967
C4 C 0.1343(8) 0.3377(8) -0.1259(5)
H8 H 0.0545 0.2841 -0.1272
H9 H 0.1593 0.3990 -0.1953
H10 H 0.0989 0.3930 -0.0802
C5 C 0.2807(6) 0.2062(6) 0.1012(4)
C6 C 0.2618(6) 0.1263(6) 0.2071(4)
H11 H 0.2319 0.0366 0.2255
C7 C 0.2866(5) 0.1776(5) 0.2844(4)
C8 C 0.3294(6) 0.3118(5) 0.2632(4)
C9 C 0.3465(7) 0.3921(6) 0.1566(4)
H12 H 0.3758 0.4819 0.1388
C10 C 0.3222(6) 0.3440(6) 0.0779(4)
H13 H 0.3328 0.4019 0.0087
C11 C 0.2960(6) 0.1279(5) 0.4672(4)
C12 C 0.3355(6) 0.2521(6) 0.4524(4)
H14 H 0.3531 0.2720 0.5115
C13 C 0.3554(6) 0.3655(5) 0.3498(4)
C14 C 0.2537(6) 0.4992(5) 0.3527(4)
C15 C 0.0923(6) 0.5166(6) 0.3581(4)
H15 H 0.0401 0.4449 0.3561
C16 C 0.0127(7) 0.6392(8) 0.3664(5)
H16 H -0.0944 0.6515 0.3683
C17 C 0.0883(8) 0.7470(7) 0.3721(5)
H17 H 0.0316 0.8296 0.3788
C18 C 0.2431(8) 0.7314(6) 0.3679(5)
H18 H 0.2939 0.8029 0.3719
C19 C 0.3264(6) 0.6082(5) 0.3575(4)
C20 C 0.4966(7) 0.5824(6) 0.3462(4)
C21 C 0.2695(5) 0.0209(5) 0.5682(4)
C22 C 0.3444(6) 0.0180(6) 0.6537(4)
H19 H 0.4162 0.0802 0.6444
C23 C 0.3120(7) -0.0765(6) 0.7512(4)
H20 H 0.3627 -0.0779 0.8072
C24 C 0.2077(6) -0.1672(6) 0.7667(4)
C25 C 0.1342(6) -0.1704(6) 0.6839(4)
H21 H 0.0639 -0.2344 0.6948
C26 C 0.1662(6) -0.0783(5) 0.5857(4)
H22 H 0.1185 -0.0818 0.5298
loop_
_geom_bond_atom_site_label_1
_geom_bond_atom_site_label_2
_geom_bond_site_symmetry_1
_geom_bond_site_symmetry_2
Br1 C24 1_555 1_555
S1 C13 1_555 1_555
N1 C2 1_555 1_555
O1 C20 1_555 1_555
O2 C7 1_555 1_555
C1 H1 1_555 1_555
H2 C1 1_555 1_555
H3 C1 1_555 1_555
C2 C1 1_555 1_555
H4 C2 1_555 1_555
H5 C2 1_555 1_555
C3 N1 1_555 1_555
H6 C3 1_555 1_555
H7 C3 1_555 1_555
C4 C3 1_555 1_555
H8 C4 1_555 1_555
H9 C4 1_555 1_555
H10 C4 1_555 1_555
C5 N1 1_555 1_555
C6 C5 1_555 1_555
H11 C6 1_555 1_555
C7 C6 1_555 1_555
C8 C7 1_555 1_555
C9 C8 1_555 1_555
H12 C9 1_555 1_555
C10 C5 1_555 1_555
H13 C10 1_555 1_555
C11 O2 1_555 1_555
C12 C11 1_555 1_555
H14 C12 1_555 1_555
C13 C8 1_555 1_555
C14 C13 1_555 1_555
C15 C14 1_555 1_555
H15 C15 1_555 1_555
C16 C15 1_555 1_555
H16 C16 1_555 1_555
C17 C16 1_555 1_555
H17 C17 1_555 1_555
C18 C17 1_555 1_555
H18 C18 1_555 1_555
C19 C14 1_555 1_555
C20 S1 1_555 1_555
C21 C11 1_555 1_555
C22 C21 1_555 1_555
H19 C22 1_555 1_555
C23 C22 1_555 1_555
H20 C23 1_555 1_555
C24 C23 1_555 1_555
C25 C24 1_555 1_555
H21 C25 1_555 1_555
C26 C21 1_555 1_555
H22 C26 1_555 1_555
C9 C10 1_555 1_555
C12 C13 1_555 1_555
C18 C19 1_555 1_555
C19 C20 1_555 1_555
C25 C26 1_555 1_555

#END
