
#######################################################################
#
#                 Cambridge Crystallographic Data Centre
#                                CCDC 
#
#######################################################################
#
# If this CIF has been generated from an entry in the Cambridge 
# Structural Database, then it will include bibliographic, chemical, 
# crystal, experimental, refinement or atomic coordinate data resulting 
# from the CCDC's data processing and validation procedures.
#
#######################################################################

data_OGUBOJ
_chemical_formula_moiety         'C30 H29 N1 O4'
_chemical_name_systematic        
3'-(dibutylamino)-3H-spiro[2-benzofuran-1,11'-[1]benzofuro[3,2-b]chromen]-3-one
_symmetry_cell_setting           triclinic
_symmetry_space_group_name_H-M   'P -1'
_symmetry_Int_Tables_number      2
_space_group_name_Hall           '-P 1'
loop_
_symmetry_equiv_pos_site_id
_symmetry_equiv_pos_as_xyz
1 x,y,z
2 -x,-y,-z
_cell_length_a                   8.259(2)
_cell_length_b                   10.302(4)
_cell_length_c                   15.673(4)
_cell_angle_alpha                101.495(3)
_cell_angle_beta                 90.437(5)
_cell_angle_gamma                106.990(5)
_cell_volume                     1246.65
_exptl_crystal_colour            colorless
_exptl_crystal_description       block
_cell_formula_units_Z            2
loop_
_atom_site_label
_atom_site_type_symbol
_atom_site_fract_x
_atom_site_fract_y
_atom_site_fract_z
O1 O 0.1738(2) 0.41894(17) 0.23272(11)
O2 O 0.6011(2) 0.73693(18) 0.30989(12)
O3 O 0.3561(3) 0.62416(18) 0.43993(12)
O4 O 0.8257(2) 0.9216(2) 0.35873(14)
C1 C 0.3517(3) 0.6404(3) 0.20624(17)
C2 C 0.3321(3) 0.5984(3) 0.34938(17)
C3 C 0.3873(3) 0.8441(2) 0.33525(16)
C4 C 0.2446(3) 0.5067(3) 0.17699(17)
C5 C 0.1968(3) 0.4486(3) 0.08971(17)
H1 H 0.1225 0.3590 0.0736
C6 C 0.2229(3) 0.4732(3) 0.31828(17)
C7 C 0.4118(3) 0.7041(3) 0.30010(17)
C8 C 0.1667(3) 0.4083(3) 0.39022(17)
C9 C 0.3683(4) 0.6595(3) 0.05416(18)
H2 H 0.4124 0.7128 0.0136
C10 C 0.2590(3) 0.5232(3) 0.02535(17)
N1 N 0.2144(3) 0.4686(2) -0.06146(15)
C11 C 0.4101(4) 0.7143(3) 0.14164(18)
H3 H 0.4807 0.8050 0.1585
C12 C 0.2387(4) 0.8780(3) 0.34387(17)
H4 H 0.1348 0.8119 0.3244
C13 C 0.6760(4) 0.8733(3) 0.34642(17)
C14 C 0.5404(3) 0.9410(3) 0.36373(16)
C15 C 0.0560(4) 0.2835(3) 0.40206(19)
H5 H -0.0061 0.2173 0.3548
C16 C 0.2475(4) 1.0133(3) 0.38230(18)
H6 H 0.1487 1.0392 0.3886
C17 C 0.0410(4) 0.2606(3) 0.4852(2)
H7 H -0.0316 0.1773 0.4942
C18 C 0.4045(4) 1.1109(3) 0.41165(19)
H8 H 0.4085 1.2012 0.4381
C19 C 0.2545(4) 0.5053(3) 0.46248(18)
C20 C 0.5513(4) 1.0772(3) 0.40247(18)
H9 H 0.6557 1.1430 0.4214
C21 C 0.0829(4) 0.3383(3) -0.09092(19)
H10 H 0.0304 0.3402 -0.1460
H11 H -0.0035 0.3309 -0.0491
C22 C 0.1400(4) 0.2102(3) -0.1031(2)
H12 H 0.2218 0.2146 -0.1473
H13 H 0.1973 0.2099 -0.0489
C23 C 0.3207(4) 0.5293(3) -0.1286(2)
H14 H 0.4366 0.5730 -0.1040
H15 H 0.3213 0.4556 -0.1778
C24 C 0.2419(4) 0.4841(3) 0.5464(2)
H16 H 0.3042 0.5501 0.5937
C25 C 0.1321(4) 0.3594(3) 0.5566(2)
H17 H 0.1185 0.3409 0.6123
C26 C 0.3878(6) 0.7109(5) -0.2171(3)
H18 H 0.4346 0.6451 -0.2538
H19 H 0.3286 0.7485 -0.2551
C27 C 0.2573(5) 0.6321(4) -0.1590(2)
H20 H 0.2391 0.6980 -0.1093
H21 H 0.1494 0.5860 -0.1925
C28 C 0.5284(6) 0.8249(5) -0.1665(3)
H22 H 0.4831 0.8851 -0.1252
H23 H 0.5949 0.8768 -0.2054
H24 H 0.5988 0.7871 -0.1359
C29 C -0.0002(5) 0.0771(3) -0.1293(3)
H25 H -0.0585 0.0778 -0.1831
H26 H -0.0813 0.0720 -0.0847
C30 C 0.0576(8) -0.0504(4) -0.1425(3)
H27 H 0.1288 -0.0512 -0.1906
H28 H -0.0394 -0.1317 -0.1548
H29 H 0.1205 -0.0498 -0.0906
loop_
_geom_bond_atom_site_label_1
_geom_bond_atom_site_label_2
_geom_bond_site_symmetry_1
_geom_bond_site_symmetry_2
O1 C4 1_555 1_555
O2 C7 1_555 1_555
O3 C2 1_555 1_555
O4 C13 1_555 1_555
C1 C4 1_555 1_555
C2 C6 1_555 1_555
C3 C7 1_555 1_555
C4 C5 1_555 1_555
C5 H1 1_555 1_555
C6 O1 1_555 1_555
C7 C1 1_555 1_555
C8 C6 1_555 1_555
C9 H2 1_555 1_555
C10 C5 1_555 1_555
N1 C10 1_555 1_555
C11 C1 1_555 1_555
H3 C11 1_555 1_555
C12 C3 1_555 1_555
H4 C12 1_555 1_555
C13 O2 1_555 1_555
C14 C3 1_555 1_555
C15 C8 1_555 1_555
H5 C15 1_555 1_555
C16 C12 1_555 1_555
H6 C16 1_555 1_555
C17 C15 1_555 1_555
H7 C17 1_555 1_555
C18 C16 1_555 1_555
H8 C18 1_555 1_555
C19 O3 1_555 1_555
C20 C14 1_555 1_555
H9 C20 1_555 1_555
C21 N1 1_555 1_555
H10 C21 1_555 1_555
H11 C21 1_555 1_555
C22 C21 1_555 1_555
H12 C22 1_555 1_555
H13 C22 1_555 1_555
C23 N1 1_555 1_555
H14 C23 1_555 1_555
H15 C23 1_555 1_555
C24 C19 1_555 1_555
H16 C24 1_555 1_555
C25 C17 1_555 1_555
H17 C25 1_555 1_555
C26 H18 1_555 1_555
H19 C26 1_555 1_555
C27 C23 1_555 1_555
H20 C27 1_555 1_555
H21 C27 1_555 1_555
C28 C26 1_555 1_555
H22 C28 1_555 1_555
H23 C28 1_555 1_555
H24 C28 1_555 1_555
C29 C22 1_555 1_555
H25 C29 1_555 1_555
H26 C29 1_555 1_555
C30 C29 1_555 1_555
H27 C30 1_555 1_555
H28 C30 1_555 1_555
H29 C30 1_555 1_555
C2 C7 1_555 1_555
C8 C19 1_555 1_555
C9 C10 1_555 1_555
C9 C11 1_555 1_555
C13 C14 1_555 1_555
C18 C20 1_555 1_555
C24 C25 1_555 1_555
C26 C27 1_555 1_555

#END
