
#######################################################################
#
#                 Cambridge Crystallographic Data Centre
#                                CCDC 
#
#######################################################################
#
# If this CIF has been generated from an entry in the Cambridge 
# Structural Database, then it will include bibliographic, chemical, 
# crystal, experimental, refinement or atomic coordinate data resulting 
# from the CCDC's data processing and validation procedures.
#
#######################################################################

data_OGUKUY
_chemical_formula_moiety         'C39 H37 N2 Si1 1+,5(H2 O1),Cl1 1-'
_chemical_name_systematic        
'10-(4-(9-anthryl)phenyl)-7-(dimethylamino)-N,N,5,5-tetramethyldibenzo[b,e]silin-3(5H)-iminium chloride pentahydrate'
_symmetry_cell_setting           triclinic
_symmetry_space_group_name_H-M   'P -1'
_symmetry_Int_Tables_number      2
_space_group_name_Hall           '-P 1'
loop_
_symmetry_equiv_pos_site_id
_symmetry_equiv_pos_as_xyz
1 x,y,z
2 -x,-y,-z
_cell_length_a                   9.8459(5)
_cell_length_b                   10.5371(10)
_cell_length_c                   19.8151(17)
_cell_angle_alpha                94.748(5)
_cell_angle_beta                 98.528(5)
_cell_angle_gamma                110.714(5)
_cell_volume                     1881.18
_exptl_crystal_colour            purple
_exptl_crystal_description       plate
_cell_formula_units_Z            2
_exptl_crystal_preparation       Luminescent
loop_
_atom_site_label
_atom_site_type_symbol
_atom_site_fract_x
_atom_site_fract_y
_atom_site_fract_z
Cl1 Cl 0.30709(19) 0.76403(18) -0.01339(9)
Si1 Si 0.08280(11) 0.65974(10) 0.16782(5)
N1 N -0.4461(4) 0.4885(3) 0.22754(16)
N2 N 0.6588(4) 0.8535(3) 0.20314(18)
C1 C -0.0460(4) 0.6192(3) 0.23116(17)
C2 C -0.1954(4) 0.5648(3) 0.20702(18)
C3 C -0.2999(4) 0.5384(3) 0.25159(18)
C4 C -0.2424(4) 0.5717(4) 0.32360(19)
C5 C -0.0937(4) 0.6248(4) 0.34802(18)
C6 C 0.0127(4) 0.6515(4) 0.30443(17)
C7 C 0.1655(4) 0.7059(3) 0.33370(17)
C8 C 0.2871(4) 0.7437(3) 0.29877(17)
C9 C 0.4342(4) 0.7982(4) 0.33707(19)
C10 C 0.5557(4) 0.8335(4) 0.3067(2)
C11 C 0.5385(4) 0.8192(3) 0.2336(2)
C12 C 0.3935(4) 0.7680(4) 0.19465(18)
C13 C 0.2686(4) 0.7292(4) 0.22491(18)
C14 C 0.0630(5) 0.5074(4) 0.1072(2)
C15 C 0.0503(5) 0.7918(5) 0.1174(2)
C16 C -0.5081(5) 0.4480(5) 0.1540(2)
C17 C -0.5540(5) 0.4668(4) 0.2727(2)
C18 C 0.6463(5) 0.8492(5) 0.1290(3)
C19 C 0.8069(5) 0.9047(4) 0.2438(3)
C20 C 0.2057(4) 0.7262(4) 0.41134(17)
C21 C 0.2279(8) 0.8491(5) 0.4507(2)
C22 C 0.2624(7) 0.8657(5) 0.5219(2)
C23 C 0.2760(4) 0.7630(4) 0.55631(18)
C24 C 0.2540(7) 0.6408(4) 0.5177(2)
C25 C 0.2175(7) 0.6220(5) 0.4456(2)
C26 C 0.3151(4) 0.7824(3) 0.63333(17)
C27 C 0.2052(4) 0.7620(3) 0.67302(18)
C28 C 0.0510(4) 0.7199(4) 0.6424(2)
C29 C -0.0529(5) 0.6990(4) 0.6825(2)
C30 C -0.0147(5) 0.7164(4) 0.7546(2)
C31 C 0.1286(5) 0.7558(4) 0.7862(2)
C32 C 0.2442(4) 0.7816(4) 0.74655(18)
C33 C 0.3917(5) 0.8262(4) 0.77854(18)
C34 C 0.5024(4) 0.8495(3) 0.74001(18)
C35 C 0.6533(5) 0.8959(4) 0.7728(2)
C36 C 0.7622(5) 0.9147(4) 0.7356(3)
C37 C 0.7252(5) 0.8874(4) 0.6625(2)
C38 C 0.5813(5) 0.8457(4) 0.6285(2)
C39 C 0.4648(4) 0.8254(3) 0.66645(18)
H1 H -0.2308 0.54383 0.15858
H2 H -0.30848 0.55677 0.35514
H3 H -0.05944 0.6451 0.39653
H4 H 0.44878 0.81061 0.386
H5 H 0.65201 0.86763 0.33451
H6 H 0.38034 0.75955 0.14579
H7 H 0.13456 0.53469 0.0765
H8 H -0.03746 0.46874 0.07964
H9 H 0.08157 0.43833 0.13335
H10 H 0.11506 0.81059 0.08335
H11 H 0.072 0.87641 0.14872
H12 H -0.05319 0.75776 0.09357
H13 H -0.47567 0.37654 0.13559
H14 H -0.47398 0.5277 0.12994
H15 H -0.61634 0.41235 0.14705
H16 H -0.53026 0.55153 0.30435
H17 H -0.55105 0.39316 0.29933
H18 H -0.65318 0.44119 0.24484
H19 H 0.60139 0.91384 0.11356
H20 H 0.58426 0.75626 0.10595
H21 H 0.74494 0.87462 0.1173
H22 H 0.82064 0.83416 0.27023
H23 H 0.82149 0.98682 0.2756
H24 H 0.87886 0.92801 0.21317
H25 H 0.21922 0.9231 0.42844
H26 H 0.27698 0.95123 0.54755
H27 H 0.26367 0.5675 0.54028
H28 H 0.20073 0.5357 0.42011
H29 H 0.02189 0.70665 0.59365
H30 H -0.15385 0.67203 0.66127
H31 H -0.08985 0.70056 0.78146
H32 H 0.15297 0.76639 0.83512
H33 H 0.41702 0.84087 0.82747
H34 H 0.67841 0.91406 0.82174
H35 H 0.86266 0.94587 0.75839
H36 H 0.8014 0.89834 0.63658
H37 H 0.55911 0.83013 0.57954
O1 O -0.2546(16) 0.7470(15) 0.4890(4)
O2 O 0.0716(5) 0.9008(5) -0.0615(2)
O3 O 0.4036(5) 1.0779(4) 0.0540(2)
O4 O 0.6603(4) 1.5269(4) 0.01314(18)
O5 O 0.7944(5) 1.7975(5) -0.0249(3)
loop_
_geom_bond_atom_site_label_1
_geom_bond_atom_site_label_2
_geom_bond_site_symmetry_1
_geom_bond_site_symmetry_2
Si1 C1 1_555 1_555
N1 C3 1_555 1_555
N2 C11 1_555 1_555
C1 C2 1_555 1_555
C2 C3 1_555 1_555
C3 C4 1_555 1_555
C4 C5 1_555 1_555
C5 C6 1_555 1_555
C6 C1 1_555 1_555
C7 C6 1_555 1_555
C8 C7 1_555 1_555
C9 C8 1_555 1_555
C10 C9 1_555 1_555
C11 C10 1_555 1_555
C12 C11 1_555 1_555
C13 Si1 1_555 1_555
C14 Si1 1_555 1_555
C15 Si1 1_555 1_555
C16 N1 1_555 1_555
C17 N1 1_555 1_555
C18 N2 1_555 1_555
C19 N2 1_555 1_555
C20 C7 1_555 1_555
C21 C20 1_555 1_555
C22 C21 1_555 1_555
C23 C22 1_555 1_555
C24 C23 1_555 1_555
C25 C20 1_555 1_555
C26 C23 1_555 1_555
C27 C26 1_555 1_555
C28 C27 1_555 1_555
C29 C28 1_555 1_555
C30 C29 1_555 1_555
C31 C30 1_555 1_555
C32 C27 1_555 1_555
C33 C32 1_555 1_555
C34 C33 1_555 1_555
C35 C34 1_555 1_555
C36 C35 1_555 1_555
C37 C36 1_555 1_555
C38 C37 1_555 1_555
C39 C26 1_555 1_555
H1 C2 1_555 1_555
H2 C4 1_555 1_555
H3 C5 1_555 1_555
H4 C9 1_555 1_555
H5 C10 1_555 1_555
H6 C12 1_555 1_555
H7 C14 1_555 1_555
H8 C14 1_555 1_555
H9 C14 1_555 1_555
H10 C15 1_555 1_555
H11 C15 1_555 1_555
H12 C15 1_555 1_555
H13 C16 1_555 1_555
H14 C16 1_555 1_555
H15 C16 1_555 1_555
H16 C17 1_555 1_555
H17 C17 1_555 1_555
H18 C17 1_555 1_555
H19 C18 1_555 1_555
H20 C18 1_555 1_555
H21 C18 1_555 1_555
H22 C19 1_555 1_555
H23 C19 1_555 1_555
H24 C19 1_555 1_555
H25 C21 1_555 1_555
H26 C22 1_555 1_555
H27 C24 1_555 1_555
H28 C25 1_555 1_555
H29 C28 1_555 1_555
H30 C29 1_555 1_555
H31 C30 1_555 1_555
H32 C31 1_555 1_555
H33 C33 1_555 1_555
H34 C35 1_555 1_555
H35 C36 1_555 1_555
H36 C37 1_555 1_555
H37 C38 1_555 1_555
C8 C13 1_555 1_555
C12 C13 1_555 1_555
C24 C25 1_555 1_555
C31 C32 1_555 1_555
C34 C39 1_555 1_555
C38 C39 1_555 1_555

#END
