
#######################################################################
#
#                 Cambridge Crystallographic Data Centre
#                                CCDC 
#
#######################################################################
#
# If this CIF has been generated from an entry in the Cambridge 
# Structural Database, then it will include bibliographic, chemical, 
# crystal, experimental, refinement or atomic coordinate data resulting 
# from the CCDC's data processing and validation procedures.
#
#######################################################################

data_OGUROZ01
_chemical_formula_moiety         'C27 H18 O6'
_chemical_name_systematic        
'1,3,5-tris(4-Carboxyphenyl)benzene unknown solvate'
_symmetry_cell_setting           monoclinic
_symmetry_space_group_name_H-M   'I 2'
_symmetry_Int_Tables_number      5
_space_group_name_Hall           'I 2y'
loop_
_symmetry_equiv_pos_site_id
_symmetry_equiv_pos_as_xyz
1 x,y,z
2 -x,y,-z
3 1/2+x,1/2+y,1/2+z
4 1/2-x,1/2+y,1/2-z
_cell_length_a                   31.419(6)
_cell_length_b                   30.116(6)
_cell_length_c                   45.320(9)
_cell_angle_alpha                90
_cell_angle_beta                 90.412(2)
_cell_angle_gamma                90
_cell_volume                     42881.3
_exptl_crystal_colour            colorless
_exptl_crystal_description       needle
_cell_formula_units_Z            56
loop_
_atom_site_label
_atom_site_type_symbol
_atom_site_fract_x
_atom_site_fract_y
_atom_site_fract_z
C1 C 0.27460(15) 0.18168(15) 1.03060(10)
C2 C 0.27243(15) 0.20933(15) 1.05536(10)
H1 H 0.2981 0.2192 1.0645
C3 C 0.23362(15) 0.22267(15) 1.06691(10)
C4 C 0.19648(15) 0.20874(15) 1.05271(10)
H2 H 0.1697 0.2183 1.0600
C5 C 0.19782(15) 0.18122(16) 1.02814(10)
C6 C 0.23668(15) 0.16787(16) 1.01730(10)
H3 H 0.2376 0.1490 1.0005
C7 C 0.31650(14) 0.16874(16) 1.01774(9)
C8 C 0.35088(14) 0.19846(16) 1.01791(10)
H4 H 0.3476 0.2268 1.0268
C9 C 0.38899(15) 0.18743(17) 1.00551(10)
H5 H 0.4119 0.2080 1.0059
C10 C 0.39419(15) 0.14578(17) 0.99229(10)
C11 C 0.36084(15) 0.11612(18) 0.99249(10)
H6 H 0.3643 0.0876 0.9839
C12 C 0.32215(15) 0.12765(16) 1.00515(10)
H7 H 0.2994 0.1069 1.0051
C13 C 0.43480(16) 0.1344(2) 0.97747(11)
C14 C 0.23183(16) 0.25119(16) 1.09376(11)
C15 C 0.19758(16) 0.28062(16) 1.09828(11)
H8 H 0.1752 0.2821 1.0841
C16 C 0.19609(16) 0.30735(16) 1.12309(10)
H9 H 0.1726 0.3268 1.1259
C17 C 0.22865(16) 0.30584(15) 1.14376(10)
C18 C 0.26257(16) 0.27754(16) 1.13968(10)
H10 H 0.2851 0.2765 1.1538
C19 C 0.26373(17) 0.25040(16) 1.11471(10)
H11 H 0.2872 0.2309 1.1121
C20 C 0.22909(19) 0.33338(18) 1.17091(12)
C21 C 0.15701(15) 0.16709(16) 1.01345(9)
C22 C 0.15250(15) 0.12384(16) 1.00261(10)
H12 H 0.1751 0.1030 1.0047
C23 C 0.11458(16) 0.11158(18) 0.98875(10)
H13 H 0.1112 0.0822 0.9816
C24 C 0.08204(15) 0.14177(19) 0.98538(10)
C25 C 0.08620(15) 0.18418(18) 0.99617(10)
H14 H 0.0634 0.2047 0.9940
C26 C 0.12361(14) 0.19722(17) 1.01030(9)
H15 H 0.1264 0.2266 1.0178
C27 C 0.04127(17) 0.1296(2) 0.97020(11)
O1 O 0.46390(10) 0.16334(12) 0.97551(7)
O2 O 0.43792(12) 0.09559(14) 0.96694(10)
H16 H 0.4610 0.0932 0.9579
O3 O 0.19684(11) 0.36216(12) 1.17227(8)
H17 H 0.1987 0.3769 1.1880
O4 O 0.25601(12) 0.32967(12) 1.18989(8)
O5 O 0.03762(12) 0.08856(14) 0.96257(10)
H18 H 0.0127 0.0838 0.9565
O6 O 0.01407(11) 0.15848(13) 0.96526(8)
C28 C 0.24920(15) 0.29841(14) 1.00095(10)
C29 C 0.28700(14) 0.28542(14) 0.98825(10)
H19 H 0.3131 0.2954 0.9967
C30 C 0.28808(14) 0.25797(15) 0.96328(10)
C31 C 0.24913(14) 0.24429(15) 0.95089(10)
H20 H 0.2491 0.2258 0.9339
C32 C 0.21075(14) 0.25727(15) 0.96307(10)
C33 C 0.21106(14) 0.28385(15) 0.98825(10)
H21 H 0.1848 0.2922 0.9969
C34 C 0.24927(15) 0.32702(15) 1.02788(11)
C35 C 0.28307(16) 0.32581(15) 1.04794(10)
H22 H 0.3064 0.3065 1.0446
C36 C 0.28270(16) 0.35265(15) 1.07271(10)
H23 H 0.3057 0.3512 1.0864
C37 C 0.24938(16) 0.38162(15) 1.07780(10)
C38 C 0.21585(16) 0.38351(16) 1.05825(10)
H24 H 0.1929 0.4033 1.0617
C39 C 0.21554(15) 0.35646(16) 1.03340(10)
H25 H 0.1922 0.3579 1.0200
C40 C 0.2507(2) 0.4095(2) 1.10472(12)
C41 C 0.32897(14) 0.24454(15) 0.95026(9)
C42 C 0.33273(14) 0.20261(15) 0.93692(9)
H26 H 0.3091 0.1829 0.9368
C43 C 0.37072(14) 0.18981(16) 0.92388(10)
H27 H 0.3729 0.1615 0.9148
C44 C 0.40552(14) 0.21828(16) 0.92411(10)
C45 C 0.40231(14) 0.25935(15) 0.93794(10)
H28 H 0.4263 0.2785 0.9386
C46 C 0.36479(13) 0.27254(16) 0.95072(10)
H29 H 0.3631 0.3008 0.9599
C47 C 0.44613(15) 0.20588(17) 0.90975(11)
C48 C 0.16953(14) 0.24385(15) 0.94911(9)
C49 C 0.13539(14) 0.27372(16) 0.94847(10)
H30 H 0.1386 0.3025 0.9569
C50 C 0.09670(14) 0.26141(17) 0.93555(10)
H31 H 0.0736 0.2817 0.9353
C51 C 0.09180(14) 0.21959(16) 0.92307(10)
C52 C 0.12611(14) 0.19007(16) 0.92370(10)
H32 H 0.1230 0.1615 0.9151
C53 C 0.16474(14) 0.20189(16) 0.93671(9)
H33 H 0.1877 0.1814 0.9371
C54 C 0.05085(16) 0.20777(18) 0.90915(11)
O7 O 0.27893(12) 0.40432(12) 1.12367(8)
O8 O 0.22044(12) 0.43833(12) 1.10686(8)
H34 H 0.2211 0.4499 1.1237
O9 O 0.44714(10) 0.16715(12) 0.89776(8)
H35 H 0.4700 0.1642 0.8884
O10 O 0.47662(10) 0.23213(12) 0.90955(8)
O11 O 0.02118(10) 0.23511(12) 0.90853(8)
O12 O 0.04829(10) 0.16845(12) 0.89809(8)
H36 H 0.0238 0.1645 0.8909
C55 C 0.26610(14) 0.37370(15) 0.93535(10)
C56 C 0.30295(14) 0.35945(14) 0.92202(9)
H37 H 0.3296 0.3681 0.9302
C57 C 0.30227(15) 0.33240(15) 0.89668(10)
C58 C 0.26242(15) 0.32067(15) 0.88514(10)
H38 H 0.2610 0.3030 0.8678
C59 C 0.22493(14) 0.33418(15) 0.89838(9)
C60 C 0.22703(14) 0.36051(15) 0.92331(10)
H39 H 0.2014 0.3698 0.9324
C61 C 0.26799(15) 0.40258(16) 0.96235(10)
C62 C 0.30247(16) 0.40189(16) 0.98147(11)
H40 H 0.3259 0.3829 0.9774
C63 C 0.30343(16) 0.42829(16) 1.00625(10)
H41 H 0.3277 0.4277 1.0189
C64 C 0.26938(16) 0.45582(15) 1.01299(10)
C65 C 0.23436(16) 0.45652(15) 0.99399(10)
H42 H 0.2106 0.4747 0.9985
C66 C 0.23394(16) 0.43118(16) 0.96895(10)
H43 H 0.2103 0.4329 0.9558
C67 C 0.27054(19) 0.48292(18) 1.03989(12)
C68 C 0.34209(14) 0.31838(16) 0.88234(9)
C69 C 0.34491(15) 0.27840(17) 0.86711(9)
H44 H 0.3205 0.2600 0.8653
C70 C 0.38298(14) 0.26499(17) 0.85451(10)
H45 H 0.3844 0.2375 0.8443
C71 C 0.41895(15) 0.29154(17) 0.85676(11)
C72 C 0.41687(15) 0.33137(17) 0.87187(11)
H46 H 0.4413 0.3498 0.8733
C73 C 0.37898(15) 0.34450(16) 0.88493(11)
H47 H 0.3780 0.3715 0.8958
C74 C 0.45966(15) 0.27782(18) 0.84251(11)
C75 C 0.18247(14) 0.32154(15) 0.88574(9)
C76 C 0.14877(14) 0.35160(16) 0.88693(10)
H48 H 0.1531 0.3799 0.8957
C77 C 0.10945(15) 0.34086(17) 0.87559(11)
H49 H 0.0870 0.3620 0.8764
C78 C 0.10212(15) 0.29974(16) 0.86307(10)
C79 C 0.13552(15) 0.26900(17) 0.86197(10)
H50 H 0.1309 0.2404 0.8537
C80 C 0.17535(15) 0.28028(16) 0.87301(10)
H51 H 0.1980 0.2595 0.8718
C81 C 0.05955(16) 0.28788(19) 0.85066(11)
O13 O 0.30035(12) 0.48098(12) 1.05761(8)
O14 O 0.23767(13) 0.50871(13) 1.04410(7)
H52 H 0.2394 0.5204 1.0609
O15 O 0.46201(10) 0.24016(12) 0.83047(7)
O16 O 0.48990(11) 0.30547(13) 0.84387(9)
H53 H 0.5109 0.2955 0.8347
O17 O 0.03089(11) 0.31581(12) 0.84883(9)
O18 O 0.05604(11) 0.24702(12) 0.84235(8)
H54 H 0.0325 0.2434 0.8337
C82 C 0.22560(14) 0.43841(15) 0.85170(10)
C83 C 0.26455(14) 0.45177(15) 0.86339(9)
H55 H 0.2899 0.4421 0.8541
C84 C 0.26772(15) 0.47907(14) 0.88837(9)
C85 C 0.23001(14) 0.49357(15) 0.90135(10)
H56 H 0.2314 0.5124 0.9181
C86 C 0.19044(14) 0.48093(14) 0.89019(9)
C87 C 0.18849(13) 0.45334(14) 0.86559(9)
H57 H 0.1615 0.4445 0.8580
C88 C 0.22330(15) 0.40992(15) 0.82490(10)
C89 C 0.25757(15) 0.38346(15) 0.81703(10)
H58 H 0.2822 0.3826 0.8293
C90 C 0.25632(15) 0.35805(15) 0.79116(9)
H59 H 0.2800 0.3401 0.7860
C91 C 0.22076(14) 0.35911(14) 0.77310(9)
C92 C 0.18621(14) 0.38449(14) 0.78104(10)
H60 H 0.1614 0.3844 0.7689
C93 C 0.18715(14) 0.41016(15) 0.80642(10)
H61 H 0.1633 0.4280 0.8113
C94 C 0.22034(17) 0.33282(16) 0.74527(10)
C95 C 0.30983(14) 0.49208(15) 0.89999(9)
C96 C 0.31780(15) 0.53469(16) 0.91088(10)
H62 H 0.2955 0.5560 0.9112
C97 C 0.35779(14) 0.54607(16) 0.92123(10)
H63 H 0.3628 0.5753 0.9284
C98 C 0.39072(14) 0.51535(16) 0.92131(10)
C99 C 0.38372(14) 0.47317(16) 0.91052(10)
H64 H 0.4061 0.4519 0.9105
C100 C 0.34347(14) 0.46190(16) 0.89952(10)
H65 H 0.3389 0.4331 0.8916
C101 C 0.43296(16) 0.52873(19) 0.93280(11)
C102 C 0.15003(14) 0.49632(16) 0.90433(9)
C103 C 0.11351(14) 0.47042(17) 0.90308(10)
H66 H 0.1145 0.4424 0.8935
C104 C 0.07589(15) 0.48439(16) 0.91547(11)
H67 H 0.0514 0.4659 0.9147
C105 C 0.07385(14) 0.52554(16) 0.92910(10)
C106 C 0.11003(14) 0.55237(16) 0.93047(10)
H68 H 0.1089 0.5806 0.9397
C107 C 0.14745(14) 0.53738(16) 0.91822(9)
H69 H 0.1721 0.5556 0.9193
C108 C 0.03362(16) 0.54066(18) 0.94234(11)
O19 O 0.25366(12) 0.30970(12) 0.74021(7)
H70 H 0.2513 0.2974 0.7236
O20 O 0.18844(10) 0.33470(10) 0.72806(7)
O21 O 0.43811(10) 0.56955(12) 0.93960(8)
H71 H 0.4626 0.5732 0.9467
O22 O 0.46188(11) 0.49921(12) 0.93585(8)
O23 O 0.03059(10) 0.57894(12) 0.95326(7)
O24 O 0.00282(11) 0.51250(12) 0.94167(9)
H72 H -0.0187 0.5236 0.9498
C109 C 0.24197(15) 0.51077(15) 0.78337(10)
C110 C 0.28049(15) 0.52521(15) 0.79577(10)
H73 H 0.3065 0.5168 0.7867
C111 C 0.28177(14) 0.55188(14) 0.82127(10)
C112 C 0.24337(14) 0.56454(15) 0.83383(10)
H74 H 0.2438 0.5826 0.8510
C113 C 0.20427(14) 0.55139(14) 0.82191(10)
C114 C 0.20431(15) 0.52454(15) 0.79693(10)
H75 H 0.1778 0.5152 0.7888
C115 C 0.24116(15) 0.48271(15) 0.75671(10)
C116 C 0.27444(15) 0.45376(16) 0.75018(10)
H76 H 0.2981 0.4520 0.7633
C117 C 0.27410(16) 0.42772(16) 0.72531(10)
H77 H 0.2971 0.4081 0.7215
C118 C 0.23980(15) 0.43023(15) 0.70557(9)
C119 C 0.20611(15) 0.45887(15) 0.71135(10)
H78 H 0.1827 0.4609 0.6980
C120 C 0.20713(16) 0.48439(16) 0.73682(10)
H79 H 0.1839 0.5036 0.7408
C121 C 0.23963(19) 0.40317(18) 0.67819(11)
C122 C 0.32293(14) 0.56535(15) 0.83422(10)
C123 C 0.32901(14) 0.60777(16) 0.84568(10)
H80 H 0.3061 0.6284 0.8452
C124 C 0.36773(14) 0.62052(16) 0.85772(10)
H81 H 0.3711 0.6496 0.8655
C125 C 0.40128(15) 0.59136(17) 0.85845(10)
C126 C 0.39628(15) 0.54894(16) 0.84733(10)
H82 H 0.4195 0.5287 0.8478
C127 C 0.35740(14) 0.53575(16) 0.83541(10)
H83 H 0.3541 0.5064 0.8280
C128 C 0.44321(16) 0.60343(17) 0.87148(11)
C129 C 0.16342(14) 0.56624(16) 0.83535(9)
C130 C 0.12774(14) 0.53893(16) 0.83500(10)
H84 H 0.1294 0.5105 0.8261
C131 C 0.08996(15) 0.55263(16) 0.84748(10)
H85 H 0.0658 0.5336 0.8469
C132 C 0.08704(14) 0.59392(17) 0.86077(10)
C133 C 0.12244(14) 0.62146(16) 0.86112(10)
H86 H 0.1209 0.6498 0.8702
C134 C 0.16000(14) 0.60761(15) 0.84825(9)
H87 H 0.1839 0.6270 0.8483
C135 C 0.04701(16) 0.60745(19) 0.87435(11)
O25 O 0.26990(12) 0.37535(12) 0.67508(8)
H88 H 0.2653 0.3598 0.6600
O26 O 0.20978(12) 0.40873(12) 0.65947(8)
O27 O 0.44593(10) 0.64429(12) 0.88073(8)
H89 H 0.4712 0.6499 0.8856
O28 O 0.47287(11) 0.57637(12) 0.87266(8)
O29 O 0.01613(11) 0.58122(12) 0.87484(8)
O30 O 0.04552(11) 0.64663(12) 0.88561(8)
H90 H 0.0221 0.6502 0.8941
C136 C 0.26090(15) 0.58653(15) 0.71930(10)
C137 C 0.22245(14) 0.60026(15) 0.73186(10)
H91 H 0.1965 0.5907 0.7231
C138 C 0.22078(14) 0.62722(14) 0.75661(9)
C139 C 0.25954(14) 0.64072(16) 0.76920(10)
H92 H 0.2593 0.6590 0.7863
C140 C 0.29851(14) 0.62810(14) 0.75727(9)
C141 C 0.29849(14) 0.60113(15) 0.73199(10)
H93 H 0.3248 0.5928 0.7234
C142 C 0.26098(14) 0.55833(15) 0.69219(10)
C143 C 0.22722(16) 0.55964(16) 0.67193(10)
H94 H 0.2037 0.5787 0.6756
C144 C 0.22738(16) 0.53398(16) 0.64691(11)
H95 H 0.2042 0.5354 0.6334
C145 C 0.26163(16) 0.50577(15) 0.64132(10)
C146 C 0.29508(15) 0.50372(16) 0.66139(10)
H96 H 0.3184 0.4844 0.6578
C147 C 0.29459(15) 0.52986(16) 0.68679(10)
H97 H 0.3175 0.5281 0.7005
C148 C 0.26212(18) 0.47926(17) 0.61376(11)
C149 C 0.17966(14) 0.64114(15) 0.76953(9)
C150 C 0.17547(14) 0.68232(15) 0.78289(9)
H98 H 0.1993 0.7017 0.7836
C151 C 0.13734(14) 0.69579(16) 0.79521(10)
H99 H 0.1350 0.7241 0.8043
C152 C 0.10245(14) 0.66713(16) 0.79403(10)
C153 C 0.10571(15) 0.62641(16) 0.78081(9)
H100 H 0.0819 0.6070 0.7801
C154 C 0.14429(14) 0.61357(15) 0.76837(9)
H101 H 0.1464 0.5855 0.7589
C155 C 0.06154(15) 0.68055(17) 0.80768(10)
C156 C 0.33902(14) 0.64237(15) 0.77119(9)
C157 C 0.37335(14) 0.61394(16) 0.77344(10)
H102 H 0.3708 0.5846 0.7659
C158 C 0.41107(15) 0.62701(16) 0.78628(10)
H103 H 0.4343 0.6068 0.7875
C159 C 0.41529(15) 0.66956(17) 0.79750(10)
C160 C 0.38139(14) 0.69886(16) 0.79581(10)
H104 H 0.3840 0.7280 0.8036
C161 C 0.34363(14) 0.68524(15) 0.78262(10)
H105 H 0.3205 0.7054 0.7813
C162 C 0.45650(16) 0.68267(18) 0.81160(12)
O31 O 0.23301(13) 0.48452(12) 0.59484(8)
O32 O 0.29306(12) 0.45165(12) 0.61071(7)
H106 H 0.2920 0.4404 0.5938
O33 O 0.05975(11) 0.72042(12) 0.81815(8)
H107 H 0.0368 0.7238 0.8273
O34 O 0.03115(10) 0.65319(11) 0.80843(8)
O35 O 0.48585(11) 0.65488(12) 0.81411(8)
O36 O 0.45894(11) 0.72346(12) 0.82097(9)
H108 H 0.4817 0.7269 0.8305
C163 C 0.27520(13) 0.65884(14) 0.65024(9)
C164 C 0.23561(13) 0.67157(14) 0.66220(9)
H109 H 0.2102 0.6625 0.6525
C165 C 0.23265(13) 0.69704(13) 0.68781(9)
C166 C 0.27052(13) 0.71085(14) 0.70118(9)
H110 H 0.2692 0.7288 0.7184
C167 C 0.31010(14) 0.69917(15) 0.69016(9)
C168 C 0.31177(13) 0.67307(14) 0.66490(9)
H111 H 0.3388 0.6647 0.6574
C169 C 0.27712(13) 0.63165(14) 0.62289(9)
C170 C 0.24455(14) 0.63301(15) 0.60197(9)
H112 H 0.2207 0.6517 0.6052
C171 C 0.24606(14) 0.60788(14) 0.57672(9)
H113 H 0.2234 0.6092 0.5628
C172 C 0.28101(14) 0.58032(14) 0.57155(9)
C173 C 0.31381(13) 0.57828(14) 0.59227(9)
H114 H 0.3376 0.5594 0.5890
C174 C 0.31166(13) 0.60384(14) 0.61764(9)
H115 H 0.3342 0.6024 0.6317
C175 C 0.28132(15) 0.55392(15) 0.54413(10)
C176 C 0.19083(13) 0.70875(14) 0.70027(9)
C177 C 0.18557(13) 0.74877(15) 0.71468(9)
H116 H 0.2090 0.7686 0.7162
C178 C 0.14703(14) 0.76090(15) 0.72702(10)
H117 H 0.1442 0.7888 0.7366
C179 C 0.11264(13) 0.73217(15) 0.72529(9)
C180 C 0.11730(14) 0.69156(16) 0.71135(10)
H118 H 0.0940 0.6715 0.7105
C181 C 0.15582(13) 0.67989(15) 0.69865(9)
H119 H 0.1585 0.6522 0.6888
C182 C 0.07183(14) 0.74513(17) 0.73912(10)
C183 C 0.34965(14) 0.71398(16) 0.70501(10)
C184 C 0.38451(14) 0.68564(15) 0.70800(9)
H120 H 0.3828 0.6563 0.7003
C185 C 0.42155(14) 0.69941(16) 0.72191(10)
H121 H 0.4446 0.6793 0.7242
C186 C 0.42514(14) 0.74247(16) 0.73249(10)
C187 C 0.39104(14) 0.77129(16) 0.72934(10)
H122 H 0.3932 0.8008 0.7366
C188 C 0.35385(13) 0.75720(15) 0.71574(9)
H123 H 0.3307 0.7773 0.7137
C189 C 0.46520(15) 0.75658(19) 0.74725(10)
O37 O 0.25308(10) 0.55819(10) 0.52530(7)
O38 O 0.31318(9) 0.52667(10) 0.54153(6)
H124 H 0.3119 0.5141 0.5250
O39 O 0.06750(10) 0.78429(12) 0.74832(8)
O40 O 0.04291(9) 0.71514(11) 0.74073(7)
H125 H 0.0203 0.7265 0.7471
O41 O 0.49246(10) 0.72629(11) 0.75333(8)
H126 H 0.5160 0.7381 0.7576
O42 O 0.47046(11) 0.79726(12) 0.75337(8)
C190 C 0.73291(15) 0.01352(15) 0.84496(10)
C191 C 0.69585(14) 0.02635(15) 0.85949(10)
H127 H 0.6692 0.0167 0.8519
C192 C 0.69640(14) 0.05267(15) 0.88464(9)
C193 C 0.73555(14) 0.06576(15) 0.89619(10)
H128 H 0.7365 0.0837 0.9134
C194 C 0.77369(14) 0.05289(14) 0.88271(10)
C195 C 0.77154(15) 0.02769(15) 0.85704(10)
H129 H 0.7972 0.0199 0.8474
C196 C 0.73183(15) -0.01436(15) 0.81803(10)
C197 C 0.69702(15) -0.01367(15) 0.79853(10)
H130 H 0.6735 0.0050 0.8027
C198 C 0.69621(15) -0.03956(15) 0.77334(10)
H131 H 0.6724 -0.0383 0.7603
C199 C 0.73005(16) -0.06724(16) 0.76718(11)
C200 C 0.76477(17) -0.06863(17) 0.78611(11)
H132 H 0.7881 -0.0876 0.7818
C201 C 0.76573(16) -0.04244(15) 0.81131(11)
H133 H 0.7898 -0.0436 0.8241
C202 C 0.72947(18) -0.09546(17) 0.74026(12)
C203 C 0.65609(15) 0.06602(16) 0.89907(10)
C204 C 0.65182(15) 0.10789(17) 0.91192(10)
H134 H 0.6751 0.1280 0.9117
C205 C 0.61371(16) 0.12061(19) 0.92508(11)
H135 H 0.6110 0.1491 0.9338
C206 C 0.57947(15) 0.09096(18) 0.92525(11)
C207 C 0.58369(17) 0.04939(18) 0.91288(12)
H136 H 0.5604 0.0292 0.9132
C208 C 0.62151(16) 0.03695(17) 0.90012(11)
H137 H 0.6241 0.0081 0.8919
C209 C 0.53860(18) 0.1035(2) 0.93884(12)
C210 C 0.81547(14) 0.06460(16) 0.89601(10)
C211 C 0.84808(15) 0.03339(16) 0.89767(10)
H138 H 0.8433 0.0042 0.8904
C212 C 0.88749(15) 0.04399(17) 0.90978(10)
H139 H 0.9093 0.0222 0.9107
C213 C 0.89501(15) 0.08594(17) 0.92039(10)
C214 C 0.86283(16) 0.11739(18) 0.91902(10)
H140 H 0.8680 0.1465 0.9263
C215 C 0.82305(16) 0.10697(17) 0.90711(10)
H141 H 0.8012 0.1287 0.9066
C216 C 0.93675(18) 0.0977(2) 0.93330(12)
O43 O 0.69993(12) -0.09220(12) 0.72176(8)
O44 O 0.76143(13) -0.12200(13) 0.73736(8)
H142 H 0.7586 -0.1367 0.7217
O45 O 0.53557(10) 0.14381(13) 0.94858(8)
H143 H 0.5115 0.1476 0.9561
O46 O 0.50864(12) 0.07619(14) 0.94004(10)
O47 O 0.96462(12) 0.06860(13) 0.93668(9)
O48 O 0.94227(11) 0.13891(13) 0.93979(8)
H144 H 0.9672 0.1427 0.9461
C217 C 0.74816(14) 0.08868(15) 0.77884(9)
C218 C 0.78601(14) 0.10330(14) 0.79203(9)
H145 H 0.8125 0.0957 0.7833
C219 C 0.78570(13) 0.12886(14) 0.81774(9)
C220 C 0.74663(13) 0.14065(15) 0.82990(10)
H146 H 0.7461 0.1584 0.8472
C221 C 0.70845(14) 0.12692(14) 0.81719(10)
C222 C 0.70979(14) 0.10098(14) 0.79177(9)
H147 H 0.6838 0.0914 0.7830
C223 C 0.74902(15) 0.06100(15) 0.75169(10)
C224 C 0.78232(15) 0.03213(16) 0.74632(10)
H148 H 0.8053 0.0305 0.7600
C225 C 0.78302(15) 0.00555(16) 0.72139(10)
H149 H 0.8063 -0.0139 0.7180
C226 C 0.74899(15) 0.00759(15) 0.70121(10)
C227 C 0.71557(15) 0.03619(14) 0.70626(10)
H150 H 0.6925 0.0378 0.6926
C228 C 0.71581(15) 0.06248(16) 0.73128(10)
H151 H 0.6927 0.0821 0.7346
C229 C 0.74970(17) -0.02030(17) 0.67425(11)
C230 C 0.82631(14) 0.14221(16) 0.83192(9)
C231 C 0.83164(14) 0.18387(15) 0.84514(10)
H152 H 0.8086 0.2043 0.8451
C232 C 0.86986(14) 0.19590(16) 0.85820(10)
H153 H 0.8729 0.2244 0.8669
C233 C 0.90365(14) 0.16636(16) 0.85861(10)
C234 C 0.89886(14) 0.12486(16) 0.84599(10)
H154 H 0.9219 0.1044 0.8464
C235 C 0.86087(14) 0.11289(15) 0.83282(9)
H155 H 0.8581 0.0843 0.8242
C236 C 0.94478(16) 0.17838(18) 0.87271(11)
C237 C 0.66699(14) 0.13924(16) 0.83052(9)
C238 C 0.63248(14) 0.11071(15) 0.83013(10)
H156 H 0.6352 0.0826 0.8208
C239 C 0.59404(14) 0.12208(16) 0.84296(10)
H157 H 0.5709 0.1018 0.8425
C240 C 0.58961(14) 0.16278(16) 0.85628(10)
C241 C 0.62331(13) 0.19288(16) 0.85655(10)
H158 H 0.6201 0.2213 0.8653
C242 C 0.66188(14) 0.18053(15) 0.84366(9)
H159 H 0.6850 0.2008 0.8439
C243 C 0.54891(15) 0.17482(18) 0.87090(11)
O49 O 0.77961(12) -0.04890(13) 0.67193(8)
H160 H 0.7770 -0.0626 0.6559
O50 O 0.72081(12) -0.01480(12) 0.65508(8)
O51 O 0.94729(10) 0.21776(12) 0.88401(8)
H161 H 0.9715 0.2214 0.8915
O52 O 0.97472(10) 0.15070(12) 0.87321(8)
O53 O 0.51906(10) 0.14731(12) 0.87165(8)
O54 O 0.54678(10) 0.21413(12) 0.88186(8)
H162 H 0.5239 0.2170 0.8911
C244 C 0.76458(14) 0.16565(15) 0.71338(9)
C245 C 0.80168(14) 0.17969(14) 0.72785(9)
H163 H 0.8285 0.1712 0.7201
C246 C 0.80036(13) 0.20589(15) 0.75340(9)
C247 C 0.76078(14) 0.21834(15) 0.76428(10)
H164 H 0.7595 0.2365 0.7814
C248 C 0.72280(14) 0.20464(14) 0.75061(9)
C249 C 0.72568(13) 0.17873(14) 0.72508(9)
H165 H 0.7002 0.1697 0.7154
C250 C 0.76657(14) 0.13791(15) 0.68642(10)
C251 C 0.80077(14) 0.10985(15) 0.68106(10)
H166 H 0.8236 0.1086 0.6949
C252 C 0.80228(15) 0.08350(15) 0.65589(10)
H167 H 0.8262 0.0649 0.6526
C253 C 0.76917(15) 0.08427(16) 0.63572(10)
C254 C 0.73517(14) 0.11270(14) 0.64064(9)
H168 H 0.7125 0.1141 0.6267
C255 C 0.73387(14) 0.13877(15) 0.66541(10)
H169 H 0.7102 0.1578 0.6683
C256 C 0.76976(16) 0.05601(16) 0.60927(11)
C257 C 0.83950(14) 0.21979(16) 0.76859(10)
C258 C 0.84336(14) 0.26241(16) 0.78072(10)
H170 H 0.8203 0.2827 0.7791
C259 C 0.88080(14) 0.27559(17) 0.79524(11)
H171 H 0.8829 0.3045 0.8034
C260 C 0.91475(15) 0.24637(17) 0.79766(10)
C261 C 0.91146(14) 0.20367(17) 0.78558(10)
H172 H 0.9347 0.1836 0.7871
C262 C 0.87438(14) 0.19097(16) 0.77144(10)
H173 H 0.8724 0.1619 0.7634
C263 C 0.95475(15) 0.25761(19) 0.81340(11)
C264 C 0.68109(14) 0.21599(15) 0.76327(9)
C265 C 0.64706(13) 0.18606(16) 0.76213(9)
H174 H 0.6504 0.1583 0.7525
C266 C 0.60817(14) 0.19689(16) 0.77509(10)
H175 H 0.5852 0.1765 0.7742
C267 C 0.60305(14) 0.23721(17) 0.78927(10)
C268 C 0.63655(14) 0.26758(16) 0.79007(10)
H176 H 0.6330 0.2956 0.7994
C269 C 0.67524(14) 0.25664(15) 0.77719(9)
H177 H 0.6981 0.2773 0.7779
C270 C 0.56255(16) 0.24830(18) 0.80400(10)
O55 O 0.73960(12) 0.05892(12) 0.59065(8)
O56 O 0.80101(11) 0.02952(12) 0.60602(8)
H178 H 0.8000 0.0183 0.5891
O57 O 0.95704(11) 0.29866(13) 0.82283(9)
H179 H 0.9803 0.3025 0.8318
O58 O 0.98314(11) 0.23001(13) 0.81679(8)
O59 O 0.53364(10) 0.21876(12) 0.80430(7)
H180 H 0.5117 0.2291 0.8122
O60 O 0.55879(11) 0.28663(13) 0.81551(9)
C271 C 0.72408(14) 0.38052(13) 0.63298(9)
C272 C 0.76355(14) 0.36694(14) 0.64474(10)
H181 H 0.7891 0.3756 0.6353
C273 C 0.76563(13) 0.34113(14) 0.66991(9)
C274 C 0.72847(13) 0.32708(14) 0.68337(9)
H182 H 0.7301 0.3088 0.7004
C275 C 0.68872(13) 0.33952(14) 0.67222(9)
C276 C 0.68763(13) 0.36698(14) 0.64705(9)
H183 H 0.6608 0.3765 0.6395
C277 C 0.72238(14) 0.40899(14) 0.60587(9)
C278 C 0.75612(14) 0.43662(14) 0.59875(9)
H184 H 0.7803 0.4380 0.6115
C279 C 0.75508(14) 0.46203(15) 0.57363(10)
H185 H 0.7787 0.4804 0.5689
C280 C 0.71955(15) 0.46115(14) 0.55489(10)
C281 C 0.68556(13) 0.43423(13) 0.56169(9)
H186 H 0.6613 0.4333 0.5491
C282 C 0.68700(14) 0.40827(14) 0.58721(9)
H187 H 0.6635 0.3898 0.5919
C283 C 0.71810(16) 0.48797(16) 0.52737(10)
C284 C 0.80849(14) 0.32857(15) 0.68232(9)
C285 C 0.81616(14) 0.28550(15) 0.69192(9)
H188 H 0.7941 0.2640 0.6912
C286 C 0.85621(15) 0.27407(17) 0.70253(10)
H189 H 0.8618 0.2442 0.7081
C287 C 0.88791(14) 0.30536(16) 0.70513(9)
C288 C 0.88006(14) 0.34895(16) 0.69619(10)
H190 H 0.9018 0.3708 0.6979
C289 C 0.84038(13) 0.36027(16) 0.68481(10)
H191 H 0.8350 0.3899 0.6787
C290 C 0.93013(15) 0.29211(18) 0.71702(10)
C291 C 0.64874(13) 0.32482(15) 0.68634(9)
C292 C 0.61414(14) 0.35376(16) 0.68782(10)
H192 H 0.6165 0.3831 0.6804
C293 C 0.57599(14) 0.33942(16) 0.70024(10)
H193 H 0.5524 0.3591 0.7011
C294 C 0.57236(14) 0.29668(16) 0.71135(10)
C295 C 0.60674(14) 0.26873(17) 0.70969(10)
H194 H 0.6045 0.2392 0.7169
C296 C 0.64448(13) 0.28290(15) 0.69768(9)
H195 H 0.6681 0.2632 0.6972
C297 C 0.53128(15) 0.28102(18) 0.72450(10)
O61 O 0.75153(11) 0.51360(11) 0.52366(7)
H196 H 0.7482 0.5290 0.5084
O62 O 0.68840(10) 0.48544(11) 0.50986(7)
O63 O 0.93687(10) 0.25155(11) 0.72192(8)
O64 O 0.95764(11) 0.32271(12) 0.72159(9)
H197 H 0.9794 0.3117 0.7296
O65 O 0.50194(11) 0.31032(12) 0.72588(9)
H198 H 0.4810 0.2998 0.7349
O66 O 0.52786(9) 0.24241(11) 0.73322(7)
C298 C 0.73806(15) 0.30824(16) 0.56438(10)
C299 C 0.77595(14) 0.29441(14) 0.57715(10)
H199 H 0.8020 0.3031 0.5684
C300 C 0.77702(13) 0.26803(14) 0.60249(9)
C301 C 0.73887(14) 0.25536(15) 0.61485(10)
H200 H 0.7391 0.2371 0.6320
C302 C 0.69979(14) 0.26886(14) 0.60266(10)
C303 C 0.70009(15) 0.29583(14) 0.57750(9)
H201 H 0.6739 0.3058 0.5693
C304 C 0.73771(15) 0.33614(15) 0.53697(10)
C305 C 0.77104(15) 0.36547(15) 0.53124(10)
H202 H 0.7941 0.3678 0.5448
C306 C 0.77078(15) 0.39127(15) 0.50585(10)
H203 H 0.7937 0.4109 0.5020
C307 C 0.73673(17) 0.38832(16) 0.48586(11)
C308 C 0.70377(15) 0.35986(15) 0.49180(10)
H204 H 0.6805 0.3579 0.4783
C309 C 0.70368(15) 0.33369(15) 0.51724(10)
H205 H 0.6805 0.3143 0.5211
C310 C 0.73640(18) 0.41449(16) 0.45833(11)
C311 C 0.81857(14) 0.25418(16) 0.61592(9)
C312 C 0.82371(14) 0.21194(16) 0.62748(9)
H206 H 0.8006 0.1916 0.6270
C313 C 0.86233(15) 0.19921(16) 0.63978(10)
H207 H 0.8657 0.1701 0.6476
C314 C 0.89611(14) 0.22909(16) 0.64074(10)
C315 C 0.89090(15) 0.27198(16) 0.62932(10)
H208 H 0.9138 0.2926 0.6301
C316 C 0.85228(14) 0.28429(16) 0.61683(10)
H209 H 0.8488 0.3133 0.6089
C317 C 0.93802(16) 0.21599(18) 0.65348(11)
C318 C 0.65893(14) 0.25530(15) 0.61620(9)
C319 C 0.62362(14) 0.28362(16) 0.61593(10)
H210 H 0.6257 0.3121 0.6070
C320 C 0.58562(14) 0.27033(15) 0.62857(10)
H211 H 0.5619 0.2899 0.6286
C321 C 0.58224(15) 0.22812(16) 0.64126(10)
C322 C 0.61668(15) 0.19984(16) 0.64116(10)
H212 H 0.6145 0.1711 0.6497
C323 C 0.65444(15) 0.21336(16) 0.62864(10)
H213 H 0.6780 0.1935 0.6285
C324 C 0.54144(16) 0.21441(18) 0.65536(11)
O67 O 0.76715(12) 0.44250(13) 0.45537(8)
H214 H 0.7650 0.4551 0.4389
O68 O 0.70784(12) 0.40885(12) 0.43977(8)
O69 O 0.94029(11) 0.17581(12) 0.66337(9)
H215 H 0.9647 0.1713 0.6704
O70 O 0.96766(10) 0.24371(12) 0.65488(8)
O71 O 0.51143(10) 0.24258(12) 0.65635(8)
O72 O 0.53954(11) 0.17509(12) 0.66531(9)
H216 H 0.5144 0.1693 0.6701
C325 C 0.75679(15) 0.23202(15) 0.49955(10)
C326 C 0.79402(14) 0.21733(14) 0.51311(10)
H217 H 0.8206 0.2255 0.5049
C327 C 0.79358(14) 0.19090(14) 0.53847(10)
C328 C 0.75448(14) 0.17921(15) 0.55009(10)
H218 H 0.7537 0.1613 0.5674
C329 C 0.71646(14) 0.19277(14) 0.53734(9)
C330 C 0.71810(14) 0.21926(15) 0.51215(10)
H219 H 0.6922 0.2289 0.5033
C331 C 0.75759(15) 0.25935(15) 0.47254(10)
C332 C 0.79162(15) 0.28875(15) 0.46668(10)
H220 H 0.8146 0.2909 0.4803
C333 C 0.79195(16) 0.31429(15) 0.44152(10)
H221 H 0.8150 0.3340 0.4380
C334 C 0.75868(16) 0.31123(16) 0.42136(10)
C335 C 0.72490(15) 0.28371(15) 0.42659(10)
H222 H 0.7020 0.2823 0.4128
C336 C 0.72382(16) 0.25780(15) 0.45195(10)
H223 H 0.7002 0.2389 0.4554
C337 C 0.75885(18) 0.33798(17) 0.39315(11)
C338 C 0.83410(14) 0.17620(16) 0.55279(9)
C339 C 0.83844(15) 0.13399(15) 0.56439(9)
H224 H 0.8152 0.1138 0.5632
C340 C 0.87629(15) 0.12061(16) 0.57773(10)
H225 H 0.8789 0.0915 0.5856
C341 C 0.91010(15) 0.14988(16) 0.57943(10)
C342 C 0.90615(15) 0.19236(16) 0.56801(10)
H226 H 0.9294 0.2124 0.5695
C343 C 0.86882(14) 0.20573(16) 0.55459(9)
H227 H 0.8665 0.2348 0.5466
C344 C 0.95081(17) 0.13707(18) 0.59399(11)
C345 C 0.67469(14) 0.17985(15) 0.55036(9)
C346 C 0.63912(14) 0.20778(16) 0.54846(10)
H228 H 0.6413 0.2357 0.5388
C347 C 0.60107(14) 0.19504(16) 0.56051(10)
H229 H 0.5772 0.2143 0.5592
C348 C 0.59710(15) 0.15420(17) 0.57468(10)
C349 C 0.63213(15) 0.12657(16) 0.57653(10)
H230 H 0.6297 0.0987 0.5862
C350 C 0.67076(14) 0.13889(16) 0.56446(10)
H231 H 0.6945 0.1195 0.5658
C351 C 0.55608(16) 0.14149(18) 0.58815(11)
O73 O 0.79007(12) 0.36505(12) 0.39061(8)
H232 H 0.7887 0.3777 0.3741
O74 O 0.73028(12) 0.33254(12) 0.37466(8)
O75 O 0.95328(11) 0.09642(12) 0.60320(8)
H233 H 0.9771 0.0922 0.6113
O76 O 0.98029(11) 0.16426(12) 0.59635(8)
O77 O 0.52554(10) 0.16814(11) 0.58842(8)
O78 O 0.55444(11) 0.10250(12) 0.59921(8)
H234 H 0.5310 0.0989 0.6076
C352 C 0.77306(14) 0.15780(14) 0.43123(9)
C353 C 0.73368(13) 0.14606(14) 0.44290(9)
H235 H 0.7084 0.1551 0.4330
C354 C 0.73070(13) 0.12155(14) 0.46870(9)
C355 C 0.76783(14) 0.10790(14) 0.48278(9)
H236 H 0.7659 0.0908 0.5003
C356 C 0.80748(14) 0.11852(14) 0.47187(9)
C357 C 0.80957(13) 0.14428(14) 0.44604(9)
H237 H 0.8366 0.1526 0.4386
C358 C 0.77551(13) 0.18477(14) 0.40369(9)
C359 C 0.74278(14) 0.18319(15) 0.38294(9)
H238 H 0.7191 0.1642 0.3862
C360 C 0.74398(14) 0.20888(14) 0.35739(9)
H239 H 0.7211 0.2077 0.3436
C361 C 0.77866(15) 0.23615(14) 0.35223(9)
C362 C 0.81184(14) 0.23800(14) 0.37261(9)
H240 H 0.8356 0.2567 0.3691
C363 C 0.81028(14) 0.21269(14) 0.39807(10)
H241 H 0.8331 0.2142 0.4119
C364 C 0.77908(15) 0.26378(15) 0.32512(10)
C365 C 0.68827(13) 0.11023(14) 0.48141(9)
C366 C 0.68272(14) 0.07022(15) 0.49645(10)
H242 H 0.7060 0.0503 0.4983
C367 C 0.64414(14) 0.05904(16) 0.50872(10)
H243 H 0.6408 0.0314 0.5185
C368 C 0.61022(14) 0.08852(15) 0.50668(10)
C369 C 0.61472(14) 0.12798(15) 0.49202(9)
H244 H 0.5915 0.1481 0.4907
C370 C 0.65328(13) 0.13845(15) 0.47919(9)
H245 H 0.6559 0.1655 0.4686
C371 C 0.56919(15) 0.07615(18) 0.52057(10)
C372 C 0.84745(14) 0.10358(16) 0.48712(10)
C373 C 0.88179(13) 0.13278(16) 0.48990(9)
H246 H 0.8800 0.1620 0.4821
C374 C 0.91876(15) 0.11856(16) 0.50426(10)
H247 H 0.9423 0.1382 0.5062
C375 C 0.92150(14) 0.07654(17) 0.51559(10)
C376 C 0.88782(15) 0.04691(17) 0.51241(10)
H248 H 0.8903 0.0175 0.5198
C377 C 0.85057(14) 0.06061(15) 0.49844(10)
H249 H 0.8272 0.0407 0.4966
C378 C 0.96174(16) 0.06244(18) 0.53091(11)
O79 O 0.74913(11) 0.26084(11) 0.30700(7)
O80 O 0.81126(10) 0.28984(11) 0.32158(7)
H250 H 0.8079 0.3047 0.3061
O81 O 0.56470(11) 0.03813(13) 0.53113(9)
O82 O 0.53998(10) 0.10600(11) 0.52138(7)
H251 H 0.5187 0.0960 0.5303
O83 O 0.98977(10) 0.09081(12) 0.53586(7)
O84 O 0.96476(11) 0.02147(12) 0.53828(9)
H252 H 0.9888 0.0168 0.5458
loop_
_geom_bond_atom_site_label_1
_geom_bond_atom_site_label_2
_geom_bond_site_symmetry_1
_geom_bond_site_symmetry_2
C1 C2 1_555 1_555
C2 H1 1_555 1_555
C3 C2 1_555 1_555
C4 C3 1_555 1_555
H2 C4 1_555 1_555
C5 C4 1_555 1_555
C6 C1 1_555 1_555
H3 C6 1_555 1_555
C7 C1 1_555 1_555
C8 C7 1_555 1_555
H4 C8 1_555 1_555
C9 C8 1_555 1_555
H5 C9 1_555 1_555
C10 C9 1_555 1_555
C11 C10 1_555 1_555
H6 C11 1_555 1_555
C12 C7 1_555 1_555
H7 C12 1_555 1_555
C13 C10 1_555 1_555
C14 C3 1_555 1_555
C15 C14 1_555 1_555
H8 C15 1_555 1_555
C16 C15 1_555 1_555
H9 C16 1_555 1_555
C17 C16 1_555 1_555
C18 C17 1_555 1_555
H10 C18 1_555 1_555
C19 C14 1_555 1_555
H11 C19 1_555 1_555
C20 C17 1_555 1_555
C21 C5 1_555 1_555
C22 C21 1_555 1_555
H12 C22 1_555 1_555
C23 C22 1_555 1_555
H13 C23 1_555 1_555
C24 C23 1_555 1_555
C25 C24 1_555 1_555
H14 C25 1_555 1_555
C26 C21 1_555 1_555
H15 C26 1_555 1_555
C27 C24 1_555 1_555
O1 C13 1_555 1_555
O2 C13 1_555 1_555
H16 O2 1_555 1_555
O3 C20 1_555 1_555
H17 O3 1_555 1_555
O4 C20 1_555 1_555
O5 C27 1_555 1_555
H18 O5 1_555 1_555
O6 C27 1_555 1_555
C28 C29 1_555 1_555
C29 H19 1_555 1_555
C30 C29 1_555 1_555
C31 C30 1_555 1_555
H20 C31 1_555 1_555
C32 C31 1_555 1_555
C33 C28 1_555 1_555
H21 C33 1_555 1_555
C34 C28 1_555 1_555
C35 C34 1_555 1_555
H22 C35 1_555 1_555
C36 C35 1_555 1_555
H23 C36 1_555 1_555
C37 C36 1_555 1_555
C38 C37 1_555 1_555
H24 C38 1_555 1_555
C39 C34 1_555 1_555
H25 C39 1_555 1_555
C40 C37 1_555 1_555
C41 C30 1_555 1_555
C42 C41 1_555 1_555
H26 C42 1_555 1_555
C43 C42 1_555 1_555
H27 C43 1_555 1_555
C44 C43 1_555 1_555
C45 C44 1_555 1_555
H28 C45 1_555 1_555
C46 C41 1_555 1_555
H29 C46 1_555 1_555
C47 C44 1_555 1_555
C48 C32 1_555 1_555
C49 C48 1_555 1_555
H30 C49 1_555 1_555
C50 C49 1_555 1_555
H31 C50 1_555 1_555
C51 C50 1_555 1_555
C52 C51 1_555 1_555
H32 C52 1_555 1_555
C53 C48 1_555 1_555
H33 C53 1_555 1_555
C54 C51 1_555 1_555
O7 C40 1_555 1_555
O8 C40 1_555 1_555
H34 O8 1_555 1_555
O9 C47 1_555 1_555
H35 O9 1_555 1_555
O10 C47 1_555 1_555
O11 C54 1_555 1_555
O12 C54 1_555 1_555
H36 O12 1_555 1_555
C55 C56 1_555 1_555
C56 H37 1_555 1_555
C57 C56 1_555 1_555
C58 C57 1_555 1_555
H38 C58 1_555 1_555
C59 C58 1_555 1_555
C60 C55 1_555 1_555
H39 C60 1_555 1_555
C61 C55 1_555 1_555
C62 C61 1_555 1_555
H40 C62 1_555 1_555
C63 C62 1_555 1_555
H41 C63 1_555 1_555
C64 C63 1_555 1_555
C65 C64 1_555 1_555
H42 C65 1_555 1_555
C66 C61 1_555 1_555
H43 C66 1_555 1_555
C67 C64 1_555 1_555
C68 C57 1_555 1_555
C69 C68 1_555 1_555
H44 C69 1_555 1_555
C70 C69 1_555 1_555
H45 C70 1_555 1_555
C71 C70 1_555 1_555
C72 C71 1_555 1_555
H46 C72 1_555 1_555
C73 C68 1_555 1_555
H47 C73 1_555 1_555
C74 C71 1_555 1_555
C75 C59 1_555 1_555
C76 C75 1_555 1_555
H48 C76 1_555 1_555
C77 C76 1_555 1_555
H49 C77 1_555 1_555
C78 C77 1_555 1_555
C79 C78 1_555 1_555
H50 C79 1_555 1_555
C80 C75 1_555 1_555
H51 C80 1_555 1_555
C81 C78 1_555 1_555
O13 C67 1_555 1_555
O14 C67 1_555 1_555
H52 O14 1_555 1_555
O15 C74 1_555 1_555
O16 C74 1_555 1_555
H53 O16 1_555 1_555
O17 C81 1_555 1_555
O18 C81 1_555 1_555
H54 O18 1_555 1_555
C82 C83 1_555 1_555
C83 H55 1_555 1_555
C84 C83 1_555 1_555
C85 C84 1_555 1_555
H56 C85 1_555 1_555
C86 C85 1_555 1_555
C87 C82 1_555 1_555
H57 C87 1_555 1_555
C88 C82 1_555 1_555
C89 C88 1_555 1_555
H58 C89 1_555 1_555
C90 C89 1_555 1_555
H59 C90 1_555 1_555
C91 C90 1_555 1_555
C92 C91 1_555 1_555
H60 C92 1_555 1_555
C93 C88 1_555 1_555
H61 C93 1_555 1_555
C94 C91 1_555 1_555
C95 C84 1_555 1_555
C96 C95 1_555 1_555
H62 C96 1_555 1_555
C97 C96 1_555 1_555
H63 C97 1_555 1_555
C98 C97 1_555 1_555
C99 C98 1_555 1_555
H64 C99 1_555 1_555
C100 C95 1_555 1_555
H65 C100 1_555 1_555
C101 C98 1_555 1_555
C102 C86 1_555 1_555
C103 C102 1_555 1_555
H66 C103 1_555 1_555
C104 C103 1_555 1_555
H67 C104 1_555 1_555
C105 C104 1_555 1_555
C106 C105 1_555 1_555
H68 C106 1_555 1_555
C107 C102 1_555 1_555
H69 C107 1_555 1_555
C108 C105 1_555 1_555
O19 C94 1_555 1_555
H70 O19 1_555 1_555
O20 C94 1_555 1_555
O21 C101 1_555 1_555
H71 O21 1_555 1_555
O22 C101 1_555 1_555
O23 C108 1_555 1_555
O24 C108 1_555 1_555
H72 O24 1_555 1_555
C109 C110 1_555 1_555
C110 H73 1_555 1_555
C111 C110 1_555 1_555
C112 C111 1_555 1_555
H74 C112 1_555 1_555
C113 C112 1_555 1_555
C114 C109 1_555 1_555
H75 C114 1_555 1_555
C115 C109 1_555 1_555
C116 C115 1_555 1_555
H76 C116 1_555 1_555
C117 C116 1_555 1_555
H77 C117 1_555 1_555
C118 C117 1_555 1_555
C119 C118 1_555 1_555
H78 C119 1_555 1_555
C120 C115 1_555 1_555
H79 C120 1_555 1_555
C121 C118 1_555 1_555
C122 C111 1_555 1_555
C123 C122 1_555 1_555
H80 C123 1_555 1_555
C124 C123 1_555 1_555
H81 C124 1_555 1_555
C125 C124 1_555 1_555
C126 C125 1_555 1_555
H82 C126 1_555 1_555
C127 C122 1_555 1_555
H83 C127 1_555 1_555
C128 C125 1_555 1_555
C129 C113 1_555 1_555
C130 C129 1_555 1_555
H84 C130 1_555 1_555
C131 C130 1_555 1_555
H85 C131 1_555 1_555
C132 C131 1_555 1_555
C133 C132 1_555 1_555
H86 C133 1_555 1_555
C134 C129 1_555 1_555
H87 C134 1_555 1_555
C135 C132 1_555 1_555
O25 C121 1_555 1_555
H88 O25 1_555 1_555
O26 C121 1_555 1_555
O27 C128 1_555 1_555
H89 O27 1_555 1_555
O28 C128 1_555 1_555
O29 C135 1_555 1_555
O30 C135 1_555 1_555
H90 O30 1_555 1_555
C136 C137 1_555 1_555
C137 H91 1_555 1_555
C138 C137 1_555 1_555
C139 C138 1_555 1_555
H92 C139 1_555 1_555
C140 C139 1_555 1_555
C141 C136 1_555 1_555
H93 C141 1_555 1_555
C142 C136 1_555 1_555
C143 C142 1_555 1_555
H94 C143 1_555 1_555
C144 C143 1_555 1_555
H95 C144 1_555 1_555
C145 C144 1_555 1_555
C146 C145 1_555 1_555
H96 C146 1_555 1_555
C147 C142 1_555 1_555
H97 C147 1_555 1_555
C148 C145 1_555 1_555
C149 C138 1_555 1_555
C150 C149 1_555 1_555
H98 C150 1_555 1_555
C151 C150 1_555 1_555
H99 C151 1_555 1_555
C152 C151 1_555 1_555
C153 C152 1_555 1_555
H100 C153 1_555 1_555
C154 C149 1_555 1_555
H101 C154 1_555 1_555
C155 C152 1_555 1_555
C156 C140 1_555 1_555
C157 C156 1_555 1_555
H102 C157 1_555 1_555
C158 C157 1_555 1_555
H103 C158 1_555 1_555
C159 C158 1_555 1_555
C160 C159 1_555 1_555
H104 C160 1_555 1_555
C161 C156 1_555 1_555
H105 C161 1_555 1_555
C162 C159 1_555 1_555
O31 C148 1_555 1_555
O32 C148 1_555 1_555
H106 O32 1_555 1_555
O33 C155 1_555 1_555
H107 O33 1_555 1_555
O34 C155 1_555 1_555
O35 C162 1_555 1_555
O36 C162 1_555 1_555
H108 O36 1_555 1_555
C163 C164 1_555 1_555
C164 H109 1_555 1_555
C165 C164 1_555 1_555
C166 C165 1_555 1_555
H110 C166 1_555 1_555
C167 C166 1_555 1_555
C168 C163 1_555 1_555
H111 C168 1_555 1_555
C169 C163 1_555 1_555
C170 C169 1_555 1_555
H112 C170 1_555 1_555
C171 C170 1_555 1_555
H113 C171 1_555 1_555
C172 C171 1_555 1_555
C173 C172 1_555 1_555
H114 C173 1_555 1_555
C174 C169 1_555 1_555
H115 C174 1_555 1_555
C175 C172 1_555 1_555
C176 C165 1_555 1_555
C177 C176 1_555 1_555
H116 C177 1_555 1_555
C178 C177 1_555 1_555
H117 C178 1_555 1_555
C179 C178 1_555 1_555
C180 C179 1_555 1_555
H118 C180 1_555 1_555
C181 C176 1_555 1_555
H119 C181 1_555 1_555
C182 C179 1_555 1_555
C183 C167 1_555 1_555
C184 C183 1_555 1_555
H120 C184 1_555 1_555
C185 C184 1_555 1_555
H121 C185 1_555 1_555
C186 C185 1_555 1_555
C187 C186 1_555 1_555
H122 C187 1_555 1_555
C188 C183 1_555 1_555
H123 C188 1_555 1_555
C189 C186 1_555 1_555
O37 C175 1_555 1_555
O38 C175 1_555 1_555
H124 O38 1_555 1_555
O39 C182 1_555 1_555
O40 C182 1_555 1_555
H125 O40 1_555 1_555
O41 C189 1_555 1_555
H126 O41 1_555 1_555
O42 C189 1_555 1_555
C190 C191 1_555 1_555
C191 H127 1_555 1_555
C192 C191 1_555 1_555
C193 C192 1_555 1_555
H128 C193 1_555 1_555
C194 C193 1_555 1_555
C195 C190 1_555 1_555
H129 C195 1_555 1_555
C196 C190 1_555 1_555
C197 C196 1_555 1_555
H130 C197 1_555 1_555
C198 C197 1_555 1_555
H131 C198 1_555 1_555
C199 C198 1_555 1_555
C200 C199 1_555 1_555
H132 C200 1_555 1_555
C201 C196 1_555 1_555
H133 C201 1_555 1_555
C202 C199 1_555 1_555
C203 C192 1_555 1_555
C204 C203 1_555 1_555
H134 C204 1_555 1_555
C205 C204 1_555 1_555
H135 C205 1_555 1_555
C206 C205 1_555 1_555
C207 C206 1_555 1_555
H136 C207 1_555 1_555
C208 C203 1_555 1_555
H137 C208 1_555 1_555
C209 C206 1_555 1_555
C210 C194 1_555 1_555
C211 C210 1_555 1_555
H138 C211 1_555 1_555
C212 C211 1_555 1_555
H139 C212 1_555 1_555
C213 C212 1_555 1_555
C214 C213 1_555 1_555
H140 C214 1_555 1_555
C215 C210 1_555 1_555
H141 C215 1_555 1_555
C216 C213 1_555 1_555
O43 C202 1_555 1_555
O44 C202 1_555 1_555
H142 O44 1_555 1_555
O45 C209 1_555 1_555
H143 O45 1_555 1_555
O46 C209 1_555 1_555
O47 C216 1_555 1_555
O48 C216 1_555 1_555
H144 O48 1_555 1_555
C217 C218 1_555 1_555
C218 H145 1_555 1_555
C219 C218 1_555 1_555
C220 C219 1_555 1_555
H146 C220 1_555 1_555
C221 C220 1_555 1_555
C222 C217 1_555 1_555
H147 C222 1_555 1_555
C223 C217 1_555 1_555
C224 C223 1_555 1_555
H148 C224 1_555 1_555
C225 C224 1_555 1_555
H149 C225 1_555 1_555
C226 C225 1_555 1_555
C227 C226 1_555 1_555
H150 C227 1_555 1_555
C228 C223 1_555 1_555
H151 C228 1_555 1_555
C229 C226 1_555 1_555
C230 C219 1_555 1_555
C231 C230 1_555 1_555
H152 C231 1_555 1_555
C232 C231 1_555 1_555
H153 C232 1_555 1_555
C233 C232 1_555 1_555
C234 C233 1_555 1_555
H154 C234 1_555 1_555
C235 C230 1_555 1_555
H155 C235 1_555 1_555
C236 C233 1_555 1_555
C237 C221 1_555 1_555
C238 C237 1_555 1_555
H156 C238 1_555 1_555
C239 C238 1_555 1_555
H157 C239 1_555 1_555
C240 C239 1_555 1_555
C241 C240 1_555 1_555
H158 C241 1_555 1_555
C242 C237 1_555 1_555
H159 C242 1_555 1_555
C243 C240 1_555 1_555
O49 C229 1_555 1_555
H160 O49 1_555 1_555
O50 C229 1_555 1_555
O51 C236 1_555 1_555
H161 O51 1_555 1_555
O52 C236 1_555 1_555
O53 C243 1_555 1_555
O54 C243 1_555 1_555
H162 O54 1_555 1_555
C244 C245 1_555 1_555
C245 H163 1_555 1_555
C246 C245 1_555 1_555
C247 C246 1_555 1_555
H164 C247 1_555 1_555
C248 C247 1_555 1_555
C249 C244 1_555 1_555
H165 C249 1_555 1_555
C250 C244 1_555 1_555
C251 C250 1_555 1_555
H166 C251 1_555 1_555
C252 C251 1_555 1_555
H167 C252 1_555 1_555
C253 C252 1_555 1_555
C254 C253 1_555 1_555
H168 C254 1_555 1_555
C255 C250 1_555 1_555
H169 C255 1_555 1_555
C256 C253 1_555 1_555
C257 C246 1_555 1_555
C258 C257 1_555 1_555
H170 C258 1_555 1_555
C259 C258 1_555 1_555
H171 C259 1_555 1_555
C260 C259 1_555 1_555
C261 C260 1_555 1_555
H172 C261 1_555 1_555
C262 C257 1_555 1_555
H173 C262 1_555 1_555
C263 C260 1_555 1_555
C264 C248 1_555 1_555
C265 C264 1_555 1_555
H174 C265 1_555 1_555
C266 C265 1_555 1_555
H175 C266 1_555 1_555
C267 C266 1_555 1_555
C268 C267 1_555 1_555
H176 C268 1_555 1_555
C269 C264 1_555 1_555
H177 C269 1_555 1_555
C270 C267 1_555 1_555
O55 C256 1_555 1_555
O56 C256 1_555 1_555
H178 O56 1_555 1_555
O57 C263 1_555 1_555
H179 O57 1_555 1_555
O58 C263 1_555 1_555
O59 C270 1_555 1_555
H180 O59 1_555 1_555
O60 C270 1_555 1_555
C271 C272 1_555 1_555
C272 H181 1_555 1_555
C273 C272 1_555 1_555
C274 C273 1_555 1_555
H182 C274 1_555 1_555
C275 C274 1_555 1_555
C276 C271 1_555 1_555
H183 C276 1_555 1_555
C277 C271 1_555 1_555
C278 C277 1_555 1_555
H184 C278 1_555 1_555
C279 C278 1_555 1_555
H185 C279 1_555 1_555
C280 C279 1_555 1_555
C281 C280 1_555 1_555
H186 C281 1_555 1_555
C282 C277 1_555 1_555
H187 C282 1_555 1_555
C283 C280 1_555 1_555
C284 C273 1_555 1_555
C285 C284 1_555 1_555
H188 C285 1_555 1_555
C286 C285 1_555 1_555
H189 C286 1_555 1_555
C287 C286 1_555 1_555
C288 C287 1_555 1_555
H190 C288 1_555 1_555
C289 C284 1_555 1_555
H191 C289 1_555 1_555
C290 C287 1_555 1_555
C291 C275 1_555 1_555
C292 C291 1_555 1_555
H192 C292 1_555 1_555
C293 C292 1_555 1_555
H193 C293 1_555 1_555
C294 C293 1_555 1_555
C295 C294 1_555 1_555
H194 C295 1_555 1_555
C296 C291 1_555 1_555
H195 C296 1_555 1_555
C297 C294 1_555 1_555
O61 C283 1_555 1_555
H196 O61 1_555 1_555
O62 C283 1_555 1_555
O63 C290 1_555 1_555
O64 C290 1_555 1_555
H197 O64 1_555 1_555
O65 C297 1_555 1_555
H198 O65 1_555 1_555
O66 C297 1_555 1_555
C298 C299 1_555 1_555
C299 H199 1_555 1_555
C300 C299 1_555 1_555
C301 C300 1_555 1_555
H200 C301 1_555 1_555
C302 C301 1_555 1_555
C303 C298 1_555 1_555
H201 C303 1_555 1_555
C304 C298 1_555 1_555
C305 C304 1_555 1_555
H202 C305 1_555 1_555
C306 C305 1_555 1_555
H203 C306 1_555 1_555
C307 C306 1_555 1_555
C308 C307 1_555 1_555
H204 C308 1_555 1_555
C309 C304 1_555 1_555
H205 C309 1_555 1_555
C310 C307 1_555 1_555
C311 C300 1_555 1_555
C312 C311 1_555 1_555
H206 C312 1_555 1_555
C313 C312 1_555 1_555
H207 C313 1_555 1_555
C314 C313 1_555 1_555
C315 C314 1_555 1_555
H208 C315 1_555 1_555
C316 C311 1_555 1_555
H209 C316 1_555 1_555
C317 C314 1_555 1_555
C318 C302 1_555 1_555
C319 C318 1_555 1_555
H210 C319 1_555 1_555
C320 C319 1_555 1_555
H211 C320 1_555 1_555
C321 C320 1_555 1_555
C322 C321 1_555 1_555
H212 C322 1_555 1_555
C323 C318 1_555 1_555
H213 C323 1_555 1_555
C324 C321 1_555 1_555
O67 C310 1_555 1_555
H214 O67 1_555 1_555
O68 C310 1_555 1_555
O69 C317 1_555 1_555
H215 O69 1_555 1_555
O70 C317 1_555 1_555
O71 C324 1_555 1_555
O72 C324 1_555 1_555
H216 O72 1_555 1_555
C325 C326 1_555 1_555
C326 H217 1_555 1_555
C327 C326 1_555 1_555
C328 C327 1_555 1_555
H218 C328 1_555 1_555
C329 C328 1_555 1_555
C330 C325 1_555 1_555
H219 C330 1_555 1_555
C331 C325 1_555 1_555
C332 C331 1_555 1_555
H220 C332 1_555 1_555
C333 C332 1_555 1_555
H221 C333 1_555 1_555
C334 C333 1_555 1_555
C335 C334 1_555 1_555
H222 C335 1_555 1_555
C336 C331 1_555 1_555
H223 C336 1_555 1_555
C337 C334 1_555 1_555
C338 C327 1_555 1_555
C339 C338 1_555 1_555
H224 C339 1_555 1_555
C340 C339 1_555 1_555
H225 C340 1_555 1_555
C341 C340 1_555 1_555
C342 C341 1_555 1_555
H226 C342 1_555 1_555
C343 C338 1_555 1_555
H227 C343 1_555 1_555
C344 C341 1_555 1_555
C345 C329 1_555 1_555
C346 C345 1_555 1_555
H228 C346 1_555 1_555
C347 C346 1_555 1_555
H229 C347 1_555 1_555
C348 C347 1_555 1_555
C349 C348 1_555 1_555
H230 C349 1_555 1_555
C350 C345 1_555 1_555
H231 C350 1_555 1_555
C351 C348 1_555 1_555
O73 C337 1_555 1_555
H232 O73 1_555 1_555
O74 C337 1_555 1_555
O75 C344 1_555 1_555
H233 O75 1_555 1_555
O76 C344 1_555 1_555
O77 C351 1_555 1_555
O78 C351 1_555 1_555
H234 O78 1_555 1_555
C352 C353 1_555 1_555
C353 H235 1_555 1_555
C354 C353 1_555 1_555
C355 C354 1_555 1_555
H236 C355 1_555 1_555
C356 C355 1_555 1_555
C357 C352 1_555 1_555
H237 C357 1_555 1_555
C358 C352 1_555 1_555
C359 C358 1_555 1_555
H238 C359 1_555 1_555
C360 C359 1_555 1_555
H239 C360 1_555 1_555
C361 C360 1_555 1_555
C362 C361 1_555 1_555
H240 C362 1_555 1_555
C363 C358 1_555 1_555
H241 C363 1_555 1_555
C364 C361 1_555 1_555
C365 C354 1_555 1_555
C366 C365 1_555 1_555
H242 C366 1_555 1_555
C367 C366 1_555 1_555
H243 C367 1_555 1_555
C368 C367 1_555 1_555
C369 C368 1_555 1_555
H244 C369 1_555 1_555
C370 C365 1_555 1_555
H245 C370 1_555 1_555
C371 C368 1_555 1_555
C372 C356 1_555 1_555
C373 C372 1_555 1_555
H246 C373 1_555 1_555
C374 C373 1_555 1_555
H247 C374 1_555 1_555
C375 C374 1_555 1_555
C376 C375 1_555 1_555
H248 C376 1_555 1_555
C377 C372 1_555 1_555
H249 C377 1_555 1_555
C378 C375 1_555 1_555
O79 C364 1_555 1_555
O80 C364 1_555 1_555
H250 O80 1_555 1_555
O81 C371 1_555 1_555
O82 C371 1_555 1_555
H251 O82 1_555 1_555
O83 C378 1_555 1_555
O84 C378 1_555 1_555
H252 O84 1_555 1_555
C5 C6 1_555 1_555
C11 C12 1_555 1_555
C18 C19 1_555 1_555
C25 C26 1_555 1_555
C32 C33 1_555 1_555
C38 C39 1_555 1_555
C45 C46 1_555 1_555
C52 C53 1_555 1_555
C59 C60 1_555 1_555
C65 C66 1_555 1_555
C72 C73 1_555 1_555
C79 C80 1_555 1_555
C86 C87 1_555 1_555
C92 C93 1_555 1_555
C99 C100 1_555 1_555
C106 C107 1_555 1_555
C113 C114 1_555 1_555
C119 C120 1_555 1_555
C126 C127 1_555 1_555
C133 C134 1_555 1_555
C140 C141 1_555 1_555
C146 C147 1_555 1_555
C153 C154 1_555 1_555
C160 C161 1_555 1_555
C167 C168 1_555 1_555
C173 C174 1_555 1_555
C180 C181 1_555 1_555
C187 C188 1_555 1_555
C194 C195 1_555 1_555
C200 C201 1_555 1_555
C207 C208 1_555 1_555
C214 C215 1_555 1_555
C221 C222 1_555 1_555
C227 C228 1_555 1_555
C234 C235 1_555 1_555
C241 C242 1_555 1_555
C248 C249 1_555 1_555
C254 C255 1_555 1_555
C261 C262 1_555 1_555
C268 C269 1_555 1_555
C275 C276 1_555 1_555
C281 C282 1_555 1_555
C288 C289 1_555 1_555
C295 C296 1_555 1_555
C302 C303 1_555 1_555
C308 C309 1_555 1_555
C315 C316 1_555 1_555
C322 C323 1_555 1_555
C329 C330 1_555 1_555
C335 C336 1_555 1_555
C342 C343 1_555 1_555
C349 C350 1_555 1_555
C356 C357 1_555 1_555
C362 C363 1_555 1_555
C369 C370 1_555 1_555
C376 C377 1_555 1_555

#END
