
#######################################################################
#
#                 Cambridge Crystallographic Data Centre
#                                CCDC 
#
#######################################################################
#
# If this CIF has been generated from an entry in the Cambridge 
# Structural Database, then it will include bibliographic, chemical, 
# crystal, experimental, refinement or atomic coordinate data resulting 
# from the CCDC's data processing and validation procedures.
#
#######################################################################

data_OGUTEP
_chemical_formula_moiety         'C11 H17 Cl1 O2'
_chemical_name_systematic        3-Chloro-5-methoxybicyclo[4.4.0]dec-3-en-1-ol
_symmetry_cell_setting           monoclinic
_symmetry_space_group_name_H-M   'P 21/c'
_symmetry_Int_Tables_number      14
_space_group_name_Hall           '-P 2ybc'
loop_
_symmetry_equiv_pos_site_id
_symmetry_equiv_pos_as_xyz
1 x,y,z
2 -x,1/2+y,1/2-z
3 -x,-y,-z
4 x,1/2-y,1/2+z
_cell_length_a                   5.617(2)
_cell_length_b                   16.620(3)
_cell_length_c                   12.092(7)
_cell_angle_alpha                90
_cell_angle_beta                 92.77(3)
_cell_angle_gamma                90
_cell_volume                     1127.52
_exptl_crystal_colour            colorless
_exptl_crystal_description       prismatic
_chemical_melting_point          112-113deg.C
_cell_formula_units_Z            4
loop_
_atom_site_label
_atom_site_type_symbol
_atom_site_fract_x
_atom_site_fract_y
_atom_site_fract_z
Cl1 Cl -0.8208(2) -0.41491(6) -0.51355(9)
O1 O -0.2596(4) -0.2120(1) -0.4760(2)
O2 O -0.2663(4) -0.3528(1) -0.1926(2)
C1 C -0.4712(5) -0.2063(2) -0.4152(2)
C2 C -0.5587(6) -0.1184(2) -0.4123(3)
C3 C -0.3787(7) -0.0626(2) -0.3546(3)
C4 C -0.3192(7) -0.0913(2) -0.2384(3)
C5 C -0.2235(6) -0.1777(2) -0.2389(2)
C6 C -0.3974(5) -0.2359(2) -0.2977(2)
C7 C -0.2996(6) -0.3214(2) -0.3040(2)
C8 C -0.4607(6) -0.3770(2) -0.3713(2)
C9 C -0.6251(6) -0.3488(2) -0.4425(2)
C10 C -0.6674(6) -0.2614(2) -0.4686(2)
C11 C -0.0833(8) -0.4122(2) -0.1813(3)
H1 H -0.2807 -0.1917 -0.5739
H2 H -0.7029 -0.1168 -0.3744
H3 H -0.5882 -0.1004 -0.4864
H4 H -0.4443 -0.0099 -0.3515
H5 H -0.2376 -0.0612 -0.3946
H6 H -0.4579 -0.0897 -0.1972
H7 H -0.2007 -0.0569 -0.2050
H8 H -0.1935 -0.1950 -0.1649
H9 H -0.0774 -0.1783 -0.2764
H10 H -0.5371 -0.2379 -0.2562
H11 H -0.1484 -0.3196 -0.3370
H12 H -0.4453 -0.4335 -0.3614
H13 H -0.6702 -0.2543 -0.5466
H14 H -0.8162 -0.2460 -0.4416
H15 H -0.0790 -0.4346 -0.1095
H16 H -0.1106 -0.4534 -0.2350
H17 H 0.0684 -0.3877 -0.1935
loop_
_geom_bond_atom_site_label_1
_geom_bond_atom_site_label_2
_geom_bond_site_symmetry_1
_geom_bond_site_symmetry_2
Cl1 C9 1_555 1_555
O1 C1 1_555 1_555
O2 C7 1_555 1_555
C1 C2 1_555 1_555
C2 C3 1_555 1_555
C3 C4 1_555 1_555
C4 C5 1_555 1_555
C5 C6 1_555 1_555
C6 C1 1_555 1_555
C7 C6 1_555 1_555
C8 C7 1_555 1_555
C9 C8 1_555 1_555
C10 C1 1_555 1_555
C11 O2 1_555 1_555
H1 O1 1_555 1_555
H2 C2 1_555 1_555
H3 C2 1_555 1_555
H4 C3 1_555 1_555
H5 C3 1_555 1_555
H6 C4 1_555 1_555
H7 C4 1_555 1_555
H8 C5 1_555 1_555
H9 C5 1_555 1_555
H10 C6 1_555 1_555
H11 C7 1_555 1_555
H12 C8 1_555 1_555
H13 C10 1_555 1_555
H14 C10 1_555 1_555
H15 C11 1_555 1_555
H16 C11 1_555 1_555
H17 C11 1_555 1_555
C9 C10 1_555 1_555

#END
