
#######################################################################
#
#                 Cambridge Crystallographic Data Centre
#                                CCDC 
#
#######################################################################
#
# If this CIF has been generated from an entry in the Cambridge 
# Structural Database, then it will include bibliographic, chemical, 
# crystal, experimental, refinement or atomic coordinate data resulting 
# from the CCDC's data processing and validation procedures.
#
#######################################################################

data_OGUVER
_chemical_formula_moiety         'C18 H21 N1 O1'
_chemical_name_systematic        
N-[(R)-2'-Hydroxy-1'-phenylethyl]-(S)-1-amino-1,2,3,4-tetrahydronaphthalene
_symmetry_cell_setting           monoclinic
_symmetry_space_group_name_H-M   'P 21'
_symmetry_Int_Tables_number      4
_space_group_name_Hall           'P 2yb'
loop_
_symmetry_equiv_pos_site_id
_symmetry_equiv_pos_as_xyz
1 x,y,z
2 -x,1/2+y,-z
_cell_length_a                   8.6025(11)
_cell_length_b                   18.376(3)
_cell_length_c                   9.3191(13)
_cell_angle_alpha                90
_cell_angle_beta                 90.287(2)
_cell_angle_gamma                90
_cell_volume                     1473.14
_exptl_crystal_colour            colorless
_chemical_melting_point          84-86deg.C
_cell_formula_units_Z            4
loop_
_atom_site_label
_atom_site_type_symbol
_atom_site_fract_x
_atom_site_fract_y
_atom_site_fract_z
N1 N 0.2450(2) 0.0124(1) -0.6898(3)
O1 O 0.5169(2) 0.0713(1) -0.8136(2)
C1 C 0.0607(3) -0.0635(2) -0.8212(3)
C2 C 0.1227(4) -0.0659(2) -0.9573(4)
C3 C 0.0315(4) -0.0635(2) -1.0798(4)
C4 C -0.1291(4) -0.0598(2) -1.0637(5)
C5 C -0.1920(4) -0.0583(2) -0.9291(4)
C6 C -0.1007(3) -0.0596(2) -0.8048(4)
C7 C -0.1748(4) -0.0568(2) -0.6596(4)
C8 C -0.0629(4) -0.0375(2) -0.5395(4)
C9 C 0.0872(4) -0.0796(2) -0.5536(4)
C10 C 0.1701(3) -0.0611(2) -0.6934(3)
C11 C 0.3940(3) 0.0146(2) -0.6110(3)
C12 C 0.3794(3) 0.0207(2) -0.4508(3)
C13 C 0.2910(4) 0.0760(2) -0.3891(4)
C14 C 0.2898(4) 0.0858(2) -0.2437(4)
C15 C 0.3770(5) 0.0413(2) -0.1545(4)
C16 C 0.4624(4) -0.0145(2) -0.2144(4)
C17 C 0.4643(3) -0.0247(2) -0.3613(4)
C18 C 0.4881(3) 0.0793(2) -0.6639(3)
H1 H 0.2038 0.0509 -0.7311
H3 H 0.5677 0.1073 -0.8431
H5 H 0.2323 -0.0693 -0.9673
H6 H 0.0771 -0.0644 -1.1724
H7 H -0.1948 -0.0583 -1.1458
H8 H -0.3018 -0.0564 -0.9199
H9 H -0.2218 -0.1048 -0.6388
H10 H -0.2598 -0.0205 -0.6617
H11 H -0.0405 0.0153 -0.5423
H12 H -0.1113 -0.0487 -0.4459
H13 H 0.0645 -0.1324 -0.5511
H14 H 0.1562 -0.0681 -0.4714
H15 H 0.2534 -0.0982 -0.7089
H16 H 0.4530 -0.0309 -0.6333
H17 H 0.2308 0.1071 -0.4489
H18 H 0.2284 0.1236 -0.2034
H19 H 0.3781 0.0491 -0.0537
H20 H 0.5204 -0.0462 -0.1540
H21 H 0.5241 -0.0631 -0.4012
H22 H 0.4300 0.1249 -0.6464
H23 H 0.5880 0.0819 -0.6109
N2 N 0.2557(2) -0.3046(1) -1.1498(3)
O2 O -0.0180(2) -0.3627(1) -1.2754(2)
C19 C 0.4346(3) -0.2280(2) -1.2819(3)
C20 C 0.3696(4) -0.2231(2) -1.4173(4)
C21 C 0.4596(4) -0.2247(2) -1.5402(4)
C22 C 0.6183(4) -0.2285(2) -1.5277(4)
C23 C 0.6861(4) -0.2317(2) -1.3927(4)
C24 C 0.5969(3) -0.2318(2) -1.2687(3)
C25 C 0.6757(4) -0.2380(2) -1.1236(4)
C26 C 0.5651(4) -0.2568(2) -1.0019(4)
C27 C 0.4158(4) -0.2136(2) -1.0132(4)
C28 C 0.3307(3) -0.2309(2) -1.1521(3)
C29 C 0.1074(3) -0.3074(2) -1.0720(3)
C30 C 0.1239(3) -0.3149(2) -0.9120(3)
C31 C 0.0334(3) -0.2736(2) -0.8184(4)
C32 C 0.0363(4) -0.2860(2) -0.6726(4)
C33 C 0.1294(5) -0.3399(2) -0.6171(4)
C34 C 0.2222(4) -0.3802(2) -0.7059(4)
C35 C 0.2197(4) -0.3681(2) -0.8514(4)
C36 C 0.0124(3) -0.3717(2) -1.1260(3)
H2 H 0.2970 -0.3429 -1.1914
H4 H -0.0691 -0.3985 -1.3060
H24 H 0.2600 -0.2185 -1.4266
H25 H 0.4118 -0.2232 -1.6323
H26 H 0.6814 -0.2289 -1.6111
H27 H 0.7961 -0.2339 -1.3846
H28 H 0.7275 -0.1912 -1.1012
H29 H 0.7572 -0.2759 -1.1289
H30 H 0.5408 -0.3094 -1.0051
H31 H 0.6162 -0.2463 -0.9088
H32 H 0.4399 -0.1609 -1.0097
H33 H 0.3482 -0.2253 -0.9308
H34 H 0.2468 -0.1938 -1.1654
H35 H 0.0483 -0.2617 -1.0929
H36 H -0.0315 -0.2362 -0.8559
H37 H -0.0260 -0.2574 -0.6105
H38 H 0.1296 -0.3492 -0.5168
H39 H 0.2885 -0.4166 -0.6668
H40 H 0.2843 -0.3965 -0.9119
H41 H 0.0705 -0.4175 -1.1096
H42 H -0.0868 -0.3746 -1.0730
loop_
_geom_bond_atom_site_label_1
_geom_bond_atom_site_label_2
_geom_bond_site_symmetry_1
_geom_bond_site_symmetry_2
N1 C10 1_555 1_555
N2 C28 1_555 1_555
O1 C18 1_555 1_555
O2 C36 1_555 1_555
C1 C2 1_555 1_555
C2 C3 1_555 1_555
C3 C4 1_555 1_555
C4 C5 1_555 1_555
C5 C6 1_555 1_555
C6 C1 1_555 1_555
C7 C6 1_555 1_555
C8 C7 1_555 1_555
C9 C8 1_555 1_555
C10 C1 1_555 1_555
C11 N1 1_555 1_555
C12 C11 1_555 1_555
C13 C12 1_555 1_555
C14 C13 1_555 1_555
C15 C14 1_555 1_555
C16 C15 1_555 1_555
C17 C12 1_555 1_555
C18 C11 1_555 1_555
C19 C20 1_555 1_555
C20 C21 1_555 1_555
C21 C22 1_555 1_555
C22 C23 1_555 1_555
C23 C24 1_555 1_555
C24 C19 1_555 1_555
C25 C24 1_555 1_555
C26 C25 1_555 1_555
C27 C26 1_555 1_555
C28 C19 1_555 1_555
C29 N2 1_555 1_555
C30 C29 1_555 1_555
C31 C30 1_555 1_555
C32 C31 1_555 1_555
C33 C32 1_555 1_555
C34 C33 1_555 1_555
C35 C30 1_555 1_555
C36 C29 1_555 1_555
H1 N1 1_555 1_555
H2 N2 1_555 1_555
H3 O1 1_555 1_555
H4 O2 1_555 1_555
H5 C2 1_555 1_555
H6 C3 1_555 1_555
H7 C4 1_555 1_555
H8 C5 1_555 1_555
H9 C7 1_555 1_555
H10 C7 1_555 1_555
H11 C8 1_555 1_555
H12 C8 1_555 1_555
H13 C9 1_555 1_555
H14 C9 1_555 1_555
H15 C10 1_555 1_555
H16 C11 1_555 1_555
H17 C13 1_555 1_555
H18 C14 1_555 1_555
H19 C15 1_555 1_555
H20 C16 1_555 1_555
H21 C17 1_555 1_555
H22 C18 1_555 1_555
H23 C18 1_555 1_555
H24 C20 1_555 1_555
H25 C21 1_555 1_555
H26 C22 1_555 1_555
H27 C23 1_555 1_555
H28 C25 1_555 1_555
H29 C25 1_555 1_555
H30 C26 1_555 1_555
H31 C26 1_555 1_555
H32 C27 1_555 1_555
H33 C27 1_555 1_555
H34 C28 1_555 1_555
H35 C29 1_555 1_555
H36 C31 1_555 1_555
H37 C32 1_555 1_555
H38 C33 1_555 1_555
H39 C34 1_555 1_555
H40 C35 1_555 1_555
H41 C36 1_555 1_555
H42 C36 1_555 1_555
C9 C10 1_555 1_555
C16 C17 1_555 1_555
C27 C28 1_555 1_555
C34 C35 1_555 1_555

#END
