
#######################################################################
#
#                 Cambridge Crystallographic Data Centre
#                                CCDC 
#
#######################################################################
#
# If this CIF has been generated from an entry in the Cambridge 
# Structural Database, then it will include bibliographic, chemical, 
# crystal, experimental, refinement or atomic coordinate data resulting 
# from the CCDC's data processing and validation procedures.
#
#######################################################################

data_OGUWUK
_chemical_formula_moiety         'C25 H34 N2 O5 S2'
_chemical_name_systematic        
'Methyl (R~S~,2S,3R)-cis-N-(t-butylsulfinyl)-2-(4-methoxyphenyl)-1-((4-methylphenyl)sulfonyl)piperidine-3-carboximidate'
_symmetry_cell_setting           orthorhombic
_symmetry_space_group_name_H-M   'P 21 21 21'
_symmetry_Int_Tables_number      19
_space_group_name_Hall           'P 2ac 2ab'
loop_
_symmetry_equiv_pos_site_id
_symmetry_equiv_pos_as_xyz
1 x,y,z
2 1/2-x,-y,1/2+z
3 1/2+x,1/2-y,-z
4 -x,1/2+y,1/2-z
_cell_length_a                   10.9791(2)
_cell_length_b                   15.0941(3)
_cell_length_c                   15.4399(3)
_cell_angle_alpha                90
_cell_angle_beta                 90
_cell_angle_gamma                90
_cell_volume                     2558.69
_exptl_crystal_colour            colorless
_exptl_crystal_description       block
_chemical_melting_point          '136.5-138.0 deg.C'
_cell_formula_units_Z            4
loop_
_atom_site_label
_atom_site_type_symbol
_atom_site_fract_x
_atom_site_fract_y
_atom_site_fract_z
S1 S 0.37586(6) 0.49047(4) 0.26010(4)
S2 S 0.23469(6) 0.81461(5) 0.38144(4)
O1 O 0.39169(19) 0.40253(13) 0.22660(15)
O2 O 0.37752(18) 0.50479(15) 0.35189(13)
O3 O -0.22858(18) 0.38129(14) 0.38835(14)
O4 O -0.03325(17) 0.74830(13) 0.23525(13)
O5 O 0.32447(19) 0.74142(17) 0.37365(16)
N1 N 0.2462(2) 0.52736(15) 0.22469(14)
N2 N 0.1010(2) 0.79373(16) 0.33489(15)
C1 C 0.1711(2) 0.59110(19) 0.27485(17)
H1 H 0.2178 0.6051 0.3288
C2 C 0.1604(2) 0.67893(19) 0.22322(18)
H2 H 0.2438 0.7057 0.2237
C3 C 0.1271(3) 0.66727(18) 0.12707(18)
H3 H 0.0426 0.6450 0.1221
H4 H 0.1316 0.7252 0.0972
C4 C 0.2147(3) 0.6019(2) 0.08400(19)
H5 H 0.1895 0.5917 0.0233
H6 H 0.2980 0.6271 0.0836
C5 C 0.2149(3) 0.5142(2) 0.13300(17)
H7 H 0.1333 0.4866 0.1287
H8 H 0.2746 0.4735 0.1062
C6 C 0.4910(2) 0.5562(2) 0.21183(19)
C7 C 0.5622(2) 0.5209(2) 0.14642(18)
H9 H 0.5530 0.4608 0.1295
C8 C 0.6477(2) 0.5752(2) 0.10573(18)
H10 H 0.6977 0.5514 0.0612
C9 C 0.6611(2) 0.6636(2) 0.12918(18)
C10 C 0.5889(2) 0.6967(2) 0.19641(19)
H11 H 0.5976 0.7569 0.2134
C11 C 0.5045(2) 0.6435(2) 0.2388(2)
H12 H 0.4571 0.6663 0.2853
C12 C 0.7511(3) 0.7225(2) 0.08294(19)
H13 H 0.7264 0.7845 0.0894
H14 H 0.7531 0.7070 0.0213
H15 H 0.8323 0.7142 0.1080
C13 C 0.0555(2) 0.54326(18) 0.30331(17)
C14 C 0.0669(2) 0.48620(19) 0.37471(18)
H16 H 0.1418 0.4843 0.4056
C15 C -0.0287(3) 0.4326(2) 0.40110(18)
H17 H -0.0187 0.3935 0.4488
C16 C -0.1398(2) 0.43651(19) 0.35727(18)
C17 C -0.1539(2) 0.49299(19) 0.28758(17)
H18 H -0.2296 0.4960 0.2579
C18 C -0.0560(2) 0.54580(18) 0.26092(18)
H19 H -0.0661 0.5843 0.2127
C19 C -0.3471(3) 0.3880(2) 0.3511(2)
H20 H -0.3431 0.3724 0.2896
H21 H -0.3770 0.4488 0.3573
H22 H -0.4026 0.3473 0.3810
C20 C 0.0789(2) 0.74477(19) 0.27014(19)
C21 C -0.1161(3) 0.8118(2) 0.2734(2)
H23 H -0.1947 0.8090 0.2435
H24 H -0.0820 0.8716 0.2677
H25 H -0.1275 0.7979 0.3349
C22 C 0.1791(3) 0.8113(2) 0.49457(18)
C23 C 0.2896(3) 0.8402(2) 0.5475(2)
H26 H 0.3572 0.7992 0.5370
H27 H 0.2688 0.8399 0.6092
H28 H 0.3138 0.9002 0.5302
C24 C 0.1412(3) 0.7171(2) 0.5166(2)
H29 H 0.0747 0.6988 0.4783
H30 H 0.1137 0.7146 0.5769
H31 H 0.2108 0.6772 0.5088
C25 C 0.0754(3) 0.8775(2) 0.5037(2)
H32 H 0.0997 0.9343 0.4782
H33 H 0.0564 0.8859 0.5652
H34 H 0.0032 0.8549 0.4735
loop_
_geom_bond_atom_site_label_1
_geom_bond_atom_site_label_2
_geom_bond_site_symmetry_1
_geom_bond_site_symmetry_2
S1 O1 1_555 1_555
S2 O5 1_555 1_555
O2 S1 1_555 1_555
O3 C16 1_555 1_555
O4 C20 1_555 1_555
N1 S1 1_555 1_555
N2 S2 1_555 1_555
C1 N1 1_555 1_555
H1 C1 1_555 1_555
C2 C1 1_555 1_555
H2 C2 1_555 1_555
C3 C2 1_555 1_555
H3 C3 1_555 1_555
H4 C3 1_555 1_555
C4 C3 1_555 1_555
H5 C4 1_555 1_555
H6 C4 1_555 1_555
C5 N1 1_555 1_555
H7 C5 1_555 1_555
H8 C5 1_555 1_555
C6 S1 1_555 1_555
C7 C6 1_555 1_555
H9 C7 1_555 1_555
C8 C7 1_555 1_555
H10 C8 1_555 1_555
C9 C8 1_555 1_555
C10 C9 1_555 1_555
H11 C10 1_555 1_555
C11 C6 1_555 1_555
H12 C11 1_555 1_555
C12 C9 1_555 1_555
H13 C12 1_555 1_555
H14 C12 1_555 1_555
H15 C12 1_555 1_555
C13 C1 1_555 1_555
C14 C13 1_555 1_555
H16 C14 1_555 1_555
C15 C14 1_555 1_555
H17 C15 1_555 1_555
C16 C15 1_555 1_555
C17 C16 1_555 1_555
H18 C17 1_555 1_555
C18 C13 1_555 1_555
H19 C18 1_555 1_555
C19 O3 1_555 1_555
H20 C19 1_555 1_555
H21 C19 1_555 1_555
H22 C19 1_555 1_555
C20 N2 1_555 1_555
C21 O4 1_555 1_555
H23 C21 1_555 1_555
H24 C21 1_555 1_555
H25 C21 1_555 1_555
C22 S2 1_555 1_555
C23 C22 1_555 1_555
H26 C23 1_555 1_555
H27 C23 1_555 1_555
H28 C23 1_555 1_555
C24 C22 1_555 1_555
H29 C24 1_555 1_555
H30 C24 1_555 1_555
H31 C24 1_555 1_555
C25 C22 1_555 1_555
H32 C25 1_555 1_555
H33 C25 1_555 1_555
H34 C25 1_555 1_555
C2 C20 1_555 1_555
C4 C5 1_555 1_555
C10 C11 1_555 1_555
C17 C18 1_555 1_555

#END
