
#######################################################################
#
#                 Cambridge Crystallographic Data Centre
#                                CCDC 
#
#######################################################################
#
# If this CIF has been generated from an entry in the Cambridge 
# Structural Database, then it will include bibliographic, chemical, 
# crystal, experimental, refinement or atomic coordinate data resulting 
# from the CCDC's data processing and validation procedures.
#
#######################################################################

data_OGUWAQ
_chemical_formula_moiety         'C19 H22 O2 S1'
_chemical_name_systematic        
4-(Ethylsulfanyl)-3-(4-methoxyphenyl)spiro[4.5]deca-3,6-dien-2-one
_symmetry_cell_setting           monoclinic
_symmetry_space_group_name_H-M   'P 21/c'
_symmetry_Int_Tables_number      14
_space_group_name_Hall           '-P 2ybc'
loop_
_symmetry_equiv_pos_site_id
_symmetry_equiv_pos_as_xyz
1 x,y,z
2 -x,1/2+y,1/2-z
3 -x,-y,-z
4 x,1/2-y,1/2+z
_cell_length_a                   14.9603(7)
_cell_length_b                   5.8727(3)
_cell_length_c                   22.3024(15)
_cell_angle_alpha                90
_cell_angle_beta                 119.989(4)
_cell_angle_gamma                90
_cell_volume                     1697.1
_exptl_crystal_colour            colorless
_exptl_crystal_description       block
_cell_formula_units_Z            4
loop_
_atom_site_label
_atom_site_type_symbol
_atom_site_fract_x
_atom_site_fract_y
_atom_site_fract_z
S1 S 0.21293(5) 1.13025(12) 0.91891(4)
O1 O 0.62744(12) 0.8443(3) 1.22931(10)
O2 O 0.17667(13) 0.4626(3) 1.05241(9)
C1 C 0.32995(16) 0.8021(4) 1.06392(11)
C2 C 0.40117(17) 0.6298(4) 1.08028(12)
H1 H 0.3819 0.4975 1.0538
C3 C 0.49965(17) 0.6504(4) 1.13483(13)
H2 H 0.5473 0.5346 1.1442
C4 C 0.52851(16) 0.8424(4) 1.17591(12)
C5 C 0.45798(17) 1.0137(4) 1.16123(12)
H3 H 0.4766 1.1434 1.1888
C6 C 0.35983(17) 0.9926(4) 1.10562(12)
H4 H 0.3125 1.1094 1.0959
C7 C 0.22334(15) 0.7789(3) 1.00628(10)
C8 C 0.15370(17) 0.6065(4) 1.00828(11)
C9 C 0.04940(17) 0.6403(4) 0.94709(13)
H5 H -0.0003 0.6744 0.9617
H6 H 0.0272 0.5038 0.9188
C10 C 0.05760(15) 0.8394(3) 0.90609(10)
C11 C 0.17072(16) 0.9048(3) 0.94895(11)
C12 C 0.0287(2) 0.7678(5) 0.83333(13)
H7 H 0.0770 0.6896 0.8265
C13 C -0.0626(8) 0.8125(18) 0.7792(5)
H8 H -0.0791 0.7453 0.7372
C14 C -0.1245(7) 0.9896(15) 0.8496(6)
H9 H -0.1473 0.8531 0.8626
H10 H -0.1659 1.1160 0.8501
C15 C -0.1400(2) 0.9626(7) 0.78143(18)
H11 H -0.1373 1.1110 0.7633
H12 H -0.2083 0.8999 0.7517
C16 C -0.01012(19) 1.0343(4) 0.90281(14)
H13 H 0.0122 1.1725 0.8903
H14 H -0.0027 1.0570 0.9482
C17 C 0.3422(2) 1.0545(6) 0.94069(16)
H15 H 0.3711 1.1776 0.9268
H16 H 0.3838 1.0390 0.9906
C18 C 0.3494(3) 0.8394(7) 0.9078(2)
H17 H 0.3296 0.7132 0.9261
H18 H 0.4190 0.8185 0.9177
H19 H 0.3041 0.8481 0.8587
C19 C 0.6612(2) 1.0322(6) 1.27463(15)
H20 H 0.6585 1.1673 1.2495
H21 H 0.7308 1.0068 1.3110
H22 H 0.6172 1.0506 1.2942
C20? C -0.0969(6) 1.0835(14) 0.8521(5)
H23? H -0.1363 1.1961 0.8572
C21? C -0.0880(8) 0.7368(19) 0.7899(5)
H24? H -0.1059 0.6757 0.7448
H25? H -0.1111 0.6300 0.8125
loop_
_geom_bond_atom_site_label_1
_geom_bond_atom_site_label_2
_geom_bond_site_symmetry_1
_geom_bond_site_symmetry_2
S1 C11 1_555 1_555
O1 C4 1_555 1_555
O2 C8 1_555 1_555
C1 C2 1_555 1_555
C2 H1 1_555 1_555
C3 C2 1_555 1_555
H2 C3 1_555 1_555
C4 C3 1_555 1_555
C5 C4 1_555 1_555
H3 C5 1_555 1_555
C6 C1 1_555 1_555
H4 C6 1_555 1_555
C7 C1 1_555 1_555
C8 C7 1_555 1_555
C9 C8 1_555 1_555
H5 C9 1_555 1_555
H6 C9 1_555 1_555
C10 C9 1_555 1_555
C11 C7 1_555 1_555
C12 C10 1_555 1_555
H7 C12 1_555 1_555
C13 C12 1_555 1_555
H8 C13 1_555 1_555
C14 H9 1_555 1_555
H10 C14 1_555 1_555
C15 C13 1_555 1_555
H11 C15 1_555 1_555
H12 C15 1_555 1_555
C16 C10 1_555 1_555
H13 C16 1_555 1_555
H14 C16 1_555 1_555
C17 S1 1_555 1_555
H15 C17 1_555 1_555
H16 C17 1_555 1_555
C18 C17 1_555 1_555
H17 C18 1_555 1_555
H18 C18 1_555 1_555
H19 C18 1_555 1_555
C19 O1 1_555 1_555
H20 C19 1_555 1_555
H21 C19 1_555 1_555
H22 C19 1_555 1_555
C5 C6 1_555 1_555
C10 C11 1_555 1_555
C14 C15 1_555 1_555
C14 C16 1_555 1_555

#END
