
#######################################################################
#
#                 Cambridge Crystallographic Data Centre
#                                CCDC 
#
#######################################################################
#
# If this CIF has been generated from an entry in the Cambridge 
# Structural Database, then it will include bibliographic, chemical, 
# crystal, experimental, refinement or atomic coordinate data resulting 
# from the CCDC's data processing and validation procedures.
#
#######################################################################

data_OGUXIZ
_chemical_formula_moiety         'C20 H24 N2 O4 S1'
_chemical_name_systematic        
(2S,3R)-cis-2-(4-Methoxyphenyl)-1-((4-methylphenyl)sulfonyl)piperidine-3-carboxamide
_symmetry_cell_setting           monoclinic
_symmetry_space_group_name_H-M   'P 21'
_symmetry_Int_Tables_number      4
_space_group_name_Hall           'P 2yb'
loop_
_symmetry_equiv_pos_site_id
_symmetry_equiv_pos_as_xyz
1 x,y,z
2 -x,1/2+y,-z
_cell_length_a                   9.3435(2)
_cell_length_b                   10.02409(19)
_cell_length_c                   21.4346(5)
_cell_angle_alpha                90
_cell_angle_beta                 101.916(2)
_cell_angle_gamma                90
_cell_volume                     1964.31
_exptl_crystal_colour            colorless
_exptl_crystal_description       block
_chemical_melting_point          '196.0-198.0 deg.C'
_cell_formula_units_Z            4
loop_
_atom_site_label
_atom_site_type_symbol
_atom_site_fract_x
_atom_site_fract_y
_atom_site_fract_z
S1 S 0.98284(11) 0.34656(10) 0.39952(5)
O1 O 0.8810(3) 0.2642(3) 0.35752(15)
O2 O 1.1212(3) 0.2906(3) 0.43027(16)
C1 C 1.0237(5) 0.4858(4) 0.3562(2)
C2 C 0.7407(5) 0.4101(5) 0.4408(2)
H1 H 0.7021 0.3348 0.4115
N1 N 0.9023(4) 0.3930(4) 0.45641(18)
C3 C 1.0921(6) 0.6999(5) 0.2853(3)
C4 C 0.9272(6) 0.5235(5) 0.3006(2)
H2 H 0.8381 0.4765 0.2867
C5 C 0.7670(5) 0.4677(4) 0.5599(2)
H3 H 0.7450 0.5634 0.5514
H4 H 0.7331 0.4426 0.5991
C6 C 0.5211(5) 0.4044(5) 0.4912(2)
C7 C 0.6867(5) 0.5364(5) 0.4047(2)
C8 C 1.1548(5) 0.5554(5) 0.3770(2)
H5 H 1.2207 0.5298 0.4150
C9 C 0.9887(5) 0.4720(5) 0.5093(2)
H6 H 0.9802 0.5682 0.4986
H7 H 1.0931 0.4466 0.5161
C10 C 1.1869(6) 0.6612(5) 0.3415(3)
H8 H 1.2755 0.7089 0.3555
C11 C 0.6857(5) 0.3837(4) 0.5035(2)
H9 H 0.7050 0.2877 0.5149
C12 C 0.9306(5) 0.4452(5) 0.5697(2)
H10 H 0.9532 0.3520 0.5835
H11 H 0.9814 0.5047 0.6042
C13 C 0.5813(6) 0.7629(6) 0.3329(3)
C14 C 0.9625(6) 0.6305(5) 0.2655(3)
H12 H 0.8969 0.6564 0.2274
C15 C 0.5440(7) 0.6393(7) 0.3091(3)
H13 H 0.4835 0.6298 0.2678
C16 C 0.5948(6) 0.5250(6) 0.3452(3)
H14 H 0.5657 0.4390 0.3287
O3 O 0.4650(4) 0.5069(3) 0.50548(18)
N2 N 0.4437(5) 0.3016(5) 0.4616(2)
H15 H 0.3477 0.3061 0.4515
H16 H 0.4891 0.2296 0.4523
O4 O 0.5219(6) 0.8689(6) 0.2963(2)
C17 C 0.7245(6) 0.6639(5) 0.4271(2)
H17 H 0.7884 0.6747 0.4674
C18 C 1.1324(8) 0.8150(5) 0.2449(3)
H18 H 1.1271 0.8997 0.2671
H19 H 1.0639 0.8168 0.2036
H20 H 1.2321 0.8018 0.2382
C19 C 0.6708(6) 0.7774(6) 0.3918(3)
H21 H 0.6963 0.8639 0.4086
C20 C 0.5467(9) 0.9959(8) 0.3195(4)
H22 H 0.4919 1.0593 0.2888
H23 H 0.6514 1.0159 0.3263
H24 H 0.5144 1.0033 0.3601
S2 S 0.59395(12) 0.59855(10) 0.09828(5)
O5 O 0.5377(4) 0.6770(3) 0.14376(16)
C21 C 0.2911(5) 0.3119(4) 0.0892(2)
H25 H 0.3111 0.2833 0.0496
O6 O 0.7027(4) 0.6559(3) 0.06741(18)
C22 C 0.6719(5) 0.4510(4) 0.1361(2)
C23 C 0.3059(5) 0.5601(4) 0.0560(2)
H26 H 0.2978 0.6452 0.0793
C24 C 0.4876(5) 0.4687(5) -0.0086(2)
H27 H 0.4839 0.3748 0.0053
H28 H 0.5871 0.4868 -0.0158
N3 N -0.0125(4) 0.6664(4) 0.0286(2)
H29 H -0.0996 0.6647 0.0382
H30 H 0.0405 0.7396 0.0347
C25 C 0.8528(5) 0.2782(5) 0.1485(2)
H31 H 0.9372 0.2403 0.1373
C26 C 0.2432(5) 0.4869(4) 0.1580(2)
H32 H 0.2305 0.5789 0.1660
C27 C 0.7931(5) 0.3947(5) 0.1184(2)
H33 H 0.8349 0.4349 0.0862
C28 C 0.7907(5) 0.2164(5) 0.1947(2)
C29 C 0.1936(5) 0.5713(4) -0.0084(2)
H34 H 0.2024 0.6634 -0.0252
C30 C 0.6104(5) 0.3922(5) 0.1831(2)
H35 H 0.5283 0.4319 0.1955
C31 C 0.2204(5) 0.4743(5) -0.0590(2)
H36 H 0.1489 0.4907 -0.0993
H37 H 0.2067 0.3818 -0.0452
N4 N 0.4553(4) 0.5597(4) 0.04187(17)
C32 C 0.2265(5) 0.3932(5) 0.2041(2)
H38 H 0.2024 0.4211 0.2430
C33 C 0.2755(5) 0.2186(4) 0.1341(2)
H39 H 0.2853 0.1264 0.1256
C34 C 0.2453(5) 0.2595(4) 0.1925(2)
C35 C 0.2782(5) 0.4484(4) 0.1004(2)
C36 C 0.3753(5) 0.4909(5) -0.0703(2)
H40 H 0.3869 0.5818 -0.0866
H41 H 0.3921 0.4260 -0.1029
O7 O -0.0295(4) 0.4539(3) -0.00451(17)
O8 O 0.2347(4) 0.1590(3) 0.23488(16)
C37 C 0.0392(5) 0.5581(4) 0.0049(2)
C38 C 0.8525(6) 0.0882(5) 0.2252(2)
H42 H 0.7831 0.0155 0.2113
H43 H 0.8694 0.0969 0.2717
H44 H 0.9452 0.0685 0.2125
C39 C 0.2077(6) 0.2003(5) 0.2956(2)
H45 H 0.1106 0.2411 0.2896
H46 H 0.2820 0.2653 0.3149
H47 H 0.2121 0.1225 0.3236
C40 C 0.6692(5) 0.2757(5) 0.2114(2)
H48 H 0.6261 0.2350 0.2431
loop_
_geom_bond_atom_site_label_1
_geom_bond_atom_site_label_2
_geom_bond_site_symmetry_1
_geom_bond_site_symmetry_2
S1 O1 1_555 1_555
O2 S1 1_555 1_555
C1 S1 1_555 1_555
C2 H1 1_555 1_555
N1 S1 1_555 1_555
C3 C10 1_555 1_555
C4 C1 1_555 1_555
H2 C4 1_555 1_555
C5 H3 1_555 1_555
H4 C5 1_555 1_555
C6 C11 1_555 1_555
C7 C2 1_555 1_555
C8 C1 1_555 1_555
H5 C8 1_555 1_555
C9 N1 1_555 1_555
H6 C9 1_555 1_555
H7 C9 1_555 1_555
C10 C8 1_555 1_555
H8 C10 1_555 1_555
C11 C2 1_555 1_555
H9 C11 1_555 1_555
C12 C5 1_555 1_555
H10 C12 1_555 1_555
H11 C12 1_555 1_555
C13 C15 1_555 1_555
C14 C3 1_555 1_555
H12 C14 1_555 1_555
C15 H13 1_555 1_555
C16 C7 1_555 1_555
H14 C16 1_555 1_555
O3 C6 1_555 1_555
N2 C6 1_555 1_555
H15 N2 1_555 1_555
H16 N2 1_555 1_555
O4 C13 1_555 1_555
C17 C7 1_555 1_555
H17 C17 1_555 1_555
C18 C3 1_555 1_555
H18 C18 1_555 1_555
H19 C18 1_555 1_555
H20 C18 1_555 1_555
C19 C13 1_555 1_555
H21 C19 1_555 1_555
C20 O4 1_555 1_555
H22 C20 1_555 1_555
H23 C20 1_555 1_555
H24 C20 1_555 1_555
S2 O5 1_555 1_555
C21 H25 1_555 1_555
O6 S2 1_555 1_555
C22 S2 1_555 1_555
C23 H26 1_555 1_555
C24 H27 1_555 1_555
H28 C24 1_555 1_555
N3 H29 1_555 1_555
H30 N3 1_555 1_555
C25 H31 1_555 1_555
C26 H32 1_555 1_555
C27 C22 1_555 1_555
H33 C27 1_555 1_555
C28 C25 1_555 1_555
C29 C23 1_555 1_555
H34 C29 1_555 1_555
C30 C22 1_555 1_555
H35 C30 1_555 1_555
C31 C29 1_555 1_555
H36 C31 1_555 1_555
H37 C31 1_555 1_555
N4 S2 1_555 1_555
C32 C26 1_555 1_555
H38 C32 1_555 1_555
C33 C21 1_555 1_555
H39 C33 1_555 1_555
C34 C32 1_555 1_555
C35 C21 1_555 1_555
C36 C24 1_555 1_555
H40 C36 1_555 1_555
H41 C36 1_555 1_555
O7 C37 1_555 1_555
O8 C34 1_555 1_555
C37 N3 1_555 1_555
C38 C28 1_555 1_555
H42 C38 1_555 1_555
H43 C38 1_555 1_555
H44 C38 1_555 1_555
C39 O8 1_555 1_555
H45 C39 1_555 1_555
H46 C39 1_555 1_555
H47 C39 1_555 1_555
C40 C28 1_555 1_555
H48 C40 1_555 1_555
C2 N1 1_555 1_555
C4 C14 1_555 1_555
C5 C11 1_555 1_555
C9 C12 1_555 1_555
C15 C16 1_555 1_555
C17 C19 1_555 1_555
C23 N4 1_555 1_555
C23 C35 1_555 1_555
C24 N4 1_555 1_555
C25 C27 1_555 1_555
C26 C35 1_555 1_555
C29 C37 1_555 1_555
C30 C40 1_555 1_555
C31 C36 1_555 1_555
C33 C34 1_555 1_555

#END
