
#######################################################################
#
#                 Cambridge Crystallographic Data Centre
#                                CCDC 
#
#######################################################################
#
# If this CIF has been generated from an entry in the Cambridge 
# Structural Database, then it will include bibliographic, chemical, 
# crystal, experimental, refinement or atomic coordinate data resulting 
# from the CCDC's data processing and validation procedures.
#
#######################################################################

data_OHACAD
_chemical_formula_moiety         'C24 H33 Cl1 N2 O4 S2'
_chemical_name_systematic        
'methyl N-(t-butylsulfinyl)-5-chloro-2-((4-methylphenyl)((phenylsulfonyl)amino)methyl)pentanimidate'
_symmetry_cell_setting           orthorhombic
_symmetry_space_group_name_H-M   'P 21 21 21'
_symmetry_Int_Tables_number      19
_space_group_name_Hall           'P 2ac 2ab'
loop_
_symmetry_equiv_pos_site_id
_symmetry_equiv_pos_as_xyz
1 x,y,z
2 1/2-x,-y,1/2+z
3 1/2+x,1/2-y,-z
4 -x,1/2+y,1/2-z
_cell_length_a                   8.9813(2)
_cell_length_b                   10.7105(2)
_cell_length_c                   26.6055(5)
_cell_angle_alpha                90
_cell_angle_beta                 90
_cell_angle_gamma                90
_cell_volume                     2559.3
_exptl_crystal_colour            colorless
_exptl_crystal_description       needle
_cell_formula_units_Z            4
loop_
_atom_site_label
_atom_site_type_symbol
_atom_site_fract_x
_atom_site_fract_y
_atom_site_fract_z
Cl1 Cl 0.66752(8) 0.51881(6) 0.81005(2)
S1 S 0.07093(7) 0.39776(6) 0.61948(2)
S2 S 0.52505(8) 0.63070(6) 0.64111(2)
O1 O -0.0292(2) 0.3119(2) 0.64345(8)
O2 O 0.0151(2) 0.5048(2) 0.59311(8)
O3 O 0.5155(2) 0.27499(16) 0.63978(7)
O4 O 0.3640(2) 0.65983(18) 0.64881(8)
N1 N 0.1839(3) 0.4507(2) 0.66112(8)
N2 N 0.5438(2) 0.4808(2) 0.62299(8)
C1 C -0.0536(3) 0.3572(3) 0.89083(10)
H1 H -0.0086 0.4175 0.9140
H2 H -0.0456 0.2730 0.9050
H3 H -0.1587 0.3781 0.8858
C2 C 0.0267(3) 0.3619(3) 0.84114(10)
C3 C 0.0313(3) 0.2566(3) 0.81031(10)
H4 H -0.0156 0.1817 0.8210
C4 C 0.1034(3) 0.2597(2) 0.76417(10)
H5 H 0.1042 0.1873 0.7436
C5 C 0.1744(3) 0.3676(2) 0.74778(9)
C6 C 0.1679(3) 0.4738(2) 0.77786(10)
H6 H 0.2136 0.5490 0.7669
C7 C 0.0950(3) 0.4704(3) 0.82384(10)
H7 H 0.0916 0.5437 0.8439
C8 C 0.2562(3) 0.3670(2) 0.69787(9)
H8 H 0.2517 0.2802 0.6841
C9 C 0.1741(3) 0.3089(3) 0.57510(9)
C10 C 0.1849(3) 0.1806(3) 0.58034(10)
H9 H 0.1391 0.1396 0.6080
C11 C 0.2633(3) 0.1127(3) 0.54473(11)
H10 H 0.2708 0.0246 0.5479
C12 C 0.3309(3) 0.1727(3) 0.50459(11)
H11 H 0.3841 0.1256 0.4802
C13 C 0.3207(4) 0.3015(3) 0.49995(10)
H12 H 0.3687 0.3427 0.4728
C14 C 0.2407(3) 0.3702(3) 0.53495(10)
H13 H 0.2316 0.4582 0.5315
C15 C 0.4224(3) 0.4031(2) 0.70330(8)
H14 H 0.4288 0.4913 0.7154
C16 C 0.4996(3) 0.3176(2) 0.74185(9)
H15 H 0.4617 0.3388 0.7757
H16 H 0.4704 0.2302 0.7347
C17 C 0.6695(3) 0.3248(2) 0.74289(9)
H17 H 0.7064 0.2688 0.7698
H18 H 0.7081 0.2927 0.7105
C18 C 0.7333(3) 0.4536(3) 0.75152(10)
H19 H 0.7042 0.5091 0.7234
H20 H 0.8434 0.4487 0.7522
C19 C 0.4981(3) 0.3941(2) 0.65255(9)
C20 C 0.6068(3) 0.2494(3) 0.59608(10)
H21 H 0.7085 0.2789 0.6022
H22 H 0.5653 0.2926 0.5668
H23 H 0.6084 0.1593 0.5897
C21 C 0.5731(3) 0.7019(2) 0.58045(9)
C22 C 0.4616(4) 0.6626(3) 0.54075(11)
H24 H 0.4715 0.5729 0.5344
H25 H 0.4807 0.7088 0.5096
H26 H 0.3605 0.6807 0.5526
H27 H 0.231(4) 0.516(3) 0.6539(14)
C23 C 0.5669(4) 0.8420(3) 0.59072(11)
H28 H 0.4669 0.8647 0.6022
H29 H 0.5902 0.8877 0.5598
H30 H 0.6397 0.8635 0.6168
C24 C 0.7305(3) 0.6609(3) 0.56746(12)
H31 H 0.7965 0.6778 0.5960
H32 H 0.7654 0.7072 0.5380
H33 H 0.7310 0.5713 0.5601
loop_
_geom_bond_atom_site_label_1
_geom_bond_atom_site_label_2
_geom_bond_site_symmetry_1
_geom_bond_site_symmetry_2
Cl1 C18 1_555 1_555
S1 O1 1_555 1_555
S2 O4 1_555 1_555
O2 S1 1_555 1_555
O3 C19 1_555 1_555
N1 S1 1_555 1_555
N2 S2 1_555 1_555
C1 H1 1_555 1_555
H2 C1 1_555 1_555
H3 C1 1_555 1_555
C2 C1 1_555 1_555
C3 C2 1_555 1_555
H4 C3 1_555 1_555
C4 C3 1_555 1_555
H5 C4 1_555 1_555
C5 C4 1_555 1_555
C6 C5 1_555 1_555
H6 C6 1_555 1_555
C7 C2 1_555 1_555
H7 C7 1_555 1_555
C8 N1 1_555 1_555
H8 C8 1_555 1_555
C9 S1 1_555 1_555
C10 C9 1_555 1_555
H9 C10 1_555 1_555
C11 C10 1_555 1_555
H10 C11 1_555 1_555
C12 C11 1_555 1_555
H11 C12 1_555 1_555
C13 C12 1_555 1_555
H12 C13 1_555 1_555
C14 C9 1_555 1_555
H13 C14 1_555 1_555
C15 C8 1_555 1_555
H14 C15 1_555 1_555
C16 C15 1_555 1_555
H15 C16 1_555 1_555
H16 C16 1_555 1_555
C17 C16 1_555 1_555
H17 C17 1_555 1_555
H18 C17 1_555 1_555
C18 C17 1_555 1_555
H19 C18 1_555 1_555
H20 C18 1_555 1_555
C19 N2 1_555 1_555
C20 O3 1_555 1_555
H21 C20 1_555 1_555
H22 C20 1_555 1_555
H23 C20 1_555 1_555
C21 S2 1_555 1_555
C22 C21 1_555 1_555
H24 C22 1_555 1_555
H25 C22 1_555 1_555
H26 C22 1_555 1_555
H27 N1 1_555 1_555
C23 C21 1_555 1_555
H28 C23 1_555 1_555
H29 C23 1_555 1_555
H30 C23 1_555 1_555
C24 C21 1_555 1_555
H31 C24 1_555 1_555
H32 C24 1_555 1_555
H33 C24 1_555 1_555
C5 C8 1_555 1_555
C6 C7 1_555 1_555
C13 C14 1_555 1_555
C15 C19 1_555 1_555

#END
