
#######################################################################
#
#                 Cambridge Crystallographic Data Centre
#                                CCDC 
#
#######################################################################
#
# If this CIF has been generated from an entry in the Cambridge 
# Structural Database, then it will include bibliographic, chemical, 
# crystal, experimental, refinement or atomic coordinate data resulting 
# from the CCDC's data processing and validation procedures.
#
#######################################################################

data_OHAFAG
_chemical_formula_moiety         'C27 H18 N2 O2'
_chemical_name_systematic        
(1-(pyridin-2-yl)-1H-indole-2,7-diyl)bis(phenylmethanone)
_symmetry_cell_setting           monoclinic
_symmetry_space_group_name_H-M   'P 21/c'
_symmetry_Int_Tables_number      14
_space_group_name_Hall           '-P 2ybc'
loop_
_symmetry_equiv_pos_site_id
_symmetry_equiv_pos_as_xyz
1 x,y,z
2 -x,1/2+y,1/2-z
3 -x,-y,-z
4 x,1/2-y,1/2+z
_cell_length_a                   11.7193(4)
_cell_length_b                   18.4451(4)
_cell_length_c                   10.2578(3)
_cell_angle_alpha                90
_cell_angle_beta                 115.417(4)
_cell_angle_gamma                90
_cell_volume                     2002.74
_exptl_crystal_colour            colorless
_exptl_crystal_description       block
_cell_formula_units_Z            4
loop_
_atom_site_label
_atom_site_type_symbol
_atom_site_fract_x
_atom_site_fract_y
_atom_site_fract_z
O1 O 0.77063(10) 0.54108(5) 0.46322(11)
O2 O 1.23090(11) 0.57743(7) 0.96273(12)
C1 C 0.97325(14) 0.65772(7) 0.56987(15)
C2 C 1.01436(15) 0.76524(8) 0.45702(16)
H1 H 1.0703 0.7985 0.4482
N1 N 1.04259(11) 0.61009(6) 0.67948(12)
N2 N 0.91887(12) 0.55704(7) 0.78214(13)
C3 C 1.05826(14) 0.70877(8) 0.55812(15)
C4 C 0.84251(14) 0.66186(8) 0.47997(15)
C5 C 1.26392(15) 0.59861(8) 0.87101(16)
C6 C 1.16964(14) 0.62996(8) 0.73439(15)
C7 C 0.38492(16) 0.66307(10) 0.44126(19)
H2 H 0.3049 0.6752 0.4323
C8 C 0.59981(15) 0.69638(9) 0.50342(17)
H3 H 0.6643 0.7306 0.5377
C9 C 0.62271(14) 0.62777(8) 0.46238(14)
C10 C 0.52526(15) 0.57733(9) 0.41344(16)
H4 H 0.5398 0.5311 0.3875
C11 C 1.43707(15) 0.59894(8) 0.78634(16)
H5 H 1.3770 0.6004 0.6908
C12 C 1.18127(14) 0.68944(8) 0.66222(16)
H6 H 1.2562 0.7131 0.6782
C13 C 1.56395(16) 0.59864(9) 0.81761(18)
H7 H 1.5891 0.6001 0.7431
C14 C 0.48141(17) 0.71353(9) 0.4932(2)
H8 H 0.4666 0.7592 0.5214
C15 C 1.48998(15) 0.59248(8) 1.03976(16)
H9 H 1.4655 0.5897 1.1147
C16 C 0.88225(15) 0.49761(8) 0.82906(16)
H10 H 0.8266 0.5033 0.8711
C17 C 1.39845(14) 0.59701(8) 0.89709(15)
C18 C 1.04185(14) 0.47943(8) 0.70371(16)
H11 H 1.0955 0.4752 0.6586
C19 C 1.65385(16) 0.59612(9) 0.95950(18)
H12 H 1.7393 0.5971 0.9805
C20 C 1.61623(16) 0.59217(9) 1.06984(17)
H13 H 1.6767 0.5893 1.1651
C21 C 0.40731(16) 0.59500(10) 0.40285(18)
H14 H 0.3428 0.5608 0.3696
C22 C 0.74794(14) 0.60512(8) 0.47107(14)
C23 C 0.99817(13) 0.54616(8) 0.72339(14)
C24 C 0.80299(15) 0.71968(8) 0.38363(16)
H15 H 0.7171 0.7249 0.3249
C25 C 0.92232(15) 0.42870(9) 0.81855(16)
H16 H 0.8957 0.3892 0.8546
C26 C 0.88644(15) 0.77036(8) 0.37100(17)
H17 H 0.8554 0.8078 0.3041
C27 C 1.00276(15) 0.41926(8) 0.75362(17)
H18 H 1.0302 0.3732 0.7436
loop_
_geom_bond_atom_site_label_1
_geom_bond_atom_site_label_2
_geom_bond_site_symmetry_1
_geom_bond_site_symmetry_2
O1 C22 1_555 1_555
O2 C5 1_555 1_555
C1 N1 1_555 1_555
C2 H1 1_555 1_555
N1 C6 1_555 1_555
N2 C16 1_555 1_555
C3 C1 1_555 1_555
C4 C1 1_555 1_555
C5 C6 1_555 1_555
C6 C12 1_555 1_555
C7 H2 1_555 1_555
C8 H3 1_555 1_555
C9 C8 1_555 1_555
C10 C9 1_555 1_555
H4 C10 1_555 1_555
C11 H5 1_555 1_555
C12 C3 1_555 1_555
H6 C12 1_555 1_555
C13 C11 1_555 1_555
H7 C13 1_555 1_555
C14 C7 1_555 1_555
H8 C14 1_555 1_555
C15 H9 1_555 1_555
C16 H10 1_555 1_555
C17 C5 1_555 1_555
C18 H11 1_555 1_555
C19 C13 1_555 1_555
H12 C19 1_555 1_555
C20 C15 1_555 1_555
H13 C20 1_555 1_555
C21 C7 1_555 1_555
H14 C21 1_555 1_555
C22 C4 1_555 1_555
C23 N1 1_555 1_555
C24 C4 1_555 1_555
H15 C24 1_555 1_555
C25 C16 1_555 1_555
H16 C25 1_555 1_555
C26 C2 1_555 1_555
H17 C26 1_555 1_555
C27 C18 1_555 1_555
H18 C27 1_555 1_555
C2 C3 1_555 1_555
N2 C23 1_555 1_555
C8 C14 1_555 1_555
C9 C22 1_555 1_555
C10 C21 1_555 1_555
C11 C17 1_555 1_555
C15 C17 1_555 1_555
C18 C23 1_555 1_555
C19 C20 1_555 1_555
C24 C26 1_555 1_555
C25 C27 1_555 1_555

#END
