
#######################################################################
#
#                 Cambridge Crystallographic Data Centre
#                                CCDC 
#
#######################################################################
#
# If this CIF has been generated from an entry in the Cambridge 
# Structural Database, then it will include bibliographic, chemical, 
# crystal, experimental, refinement or atomic coordinate data resulting 
# from the CCDC's data processing and validation procedures.
#
#######################################################################

data_OHAPIY
_chemical_formula_moiety         'C30 H38 O6'
_chemical_name_systematic        
"1',1a,7a,10'-tetramethyl-5'-methylene-1a,2,2a,5a,6,6a,7a,8,9,9a-decahydro-6'H-spiro[bisoxireno[4,5:8,9]cyclodeca[1,2-b]furan-5,14'-[7]oxatetracyclo[10.2.1.0^2,11^.0^4,8^]pentadec[2(11)]ene]-4,6'-dione unknown solvate"
_symmetry_cell_setting           orthorhombic
_symmetry_space_group_name_H-M   'P 21 21 21'
_symmetry_Int_Tables_number      19
_space_group_name_Hall           'P 2ac 2ab'
loop_
_symmetry_equiv_pos_site_id
_symmetry_equiv_pos_as_xyz
1 x,y,z
2 1/2+x,1/2-y,-z
3 -x,1/2+y,1/2-z
4 1/2-x,-y,1/2+z
_cell_length_a                   7.6885(2)
_cell_length_b                   19.3149(4)
_cell_length_c                   40.8677(9)
_cell_angle_alpha                90
_cell_angle_beta                 90
_cell_angle_gamma                90
_cell_volume                     6068.96
_exptl_crystal_colour            colorless
_exptl_crystal_description       plate
_cell_formula_units_Z            8
loop_
_atom_site_label
_atom_site_type_symbol
_atom_site_fract_x
_atom_site_fract_y
_atom_site_fract_z
O1 O 0.4360(4) 0.78526(13) -0.01346(7)
O2 O 0.9227(3) 0.66660(14) -0.09449(6)
O3 O 0.3810(4) 0.53468(14) -0.01793(8)
O4 O 0.4121(4) 0.42651(16) -0.00159(9)
O5 O 0.5194(6) 0.2347(2) 0.09007(13)
O6 O 0.3100(8) 0.2337(3) 0.12801(16)
C1 C 0.8168(6) 0.3794(2) 0.02536(12)
C2 C 0.9143(6) 0.4182(3) -0.00143(14)
H1 H 1.0180 0.3952 -0.0101
C3 C 0.9454(6) 0.4876(3) 0.01578(14)
H2 H 0.9863 0.5234 0.0010
H3 H 1.0226 0.4836 0.0345
C4 C 0.7543(6) 0.4972(2) 0.02566(10)
C5 C 0.7177(6) 0.4261(2) 0.04086(9)
C6 C 0.5866(8) 0.4189(2) 0.06769(10)
H4 H 0.4984 0.4543 0.0648
H5 H 0.6441 0.4278 0.0884
C7 C 0.4974(6) 0.3490(2) 0.06968(11)
H6 H 0.4322 0.3425 0.0493
C8 C 0.6217(7) 0.2877(3) 0.07321(13)
H7 H 0.7192 0.3014 0.0872
C9 C 0.6912(8) 0.2602(3) 0.04193(16)
H8 H 0.5970 0.2584 0.0261
H9 H 0.7307 0.2131 0.0455
C10 C 0.8401(7) 0.3016(3) 0.02718(14)
H10 H 0.8522 0.2855 0.0045
C11 C 0.3723(8) 0.3385(3) 0.09764(13)
C12 C 0.3906(9) 0.2650(4) 0.10785(19)
C13 C 0.2604(12) 0.3810(4) 0.11092(18)
H11 H 0.1876 0.3656 0.1276
H12 H 0.2537 0.4266 0.1037
C14 C 1.0121(8) 0.2837(4) 0.0444(2)
H13 H 1.1078 0.3007 0.0316
H14 H 1.0217 0.2343 0.0466
H15 H 1.0144 0.3048 0.0656
C15 C 0.7086(8) 0.5584(2) 0.04719(11)
H16 H 0.7469 0.5496 0.0692
H17 H 0.5849 0.5652 0.0471
H18 H 0.7650 0.5992 0.0390
C16 C 0.5720(5) 0.76347(17) -0.03517(9)
H19 H 0.6739 0.7445 -0.0239
C17 C 0.6162(6) 0.8064(2) -0.06417(10)
H20 H 0.6418 0.8533 -0.0572
H21 H 0.5170 0.8082 -0.0788
C18 C 0.7729(6) 0.7768(2) -0.08235(10)
H22 H 0.7869 0.8014 -0.1029
H23 H 0.8766 0.7847 -0.0694
C19 C 0.7573(5) 0.70026(19) -0.08941(9)
C20 C 0.8279(4) 0.65202(17) -0.06487(8)
H24 H 0.8758 0.6752 -0.0455
C21 C 0.7768(5) 0.57789(18) -0.05868(9)
H25 H 0.8804 0.5493 -0.0580
H26 H 0.7043 0.5616 -0.0765
C22 C 0.6774(5) 0.57091(17) -0.02628(8)
H27 H 0.7313 0.6024 -0.0105
C23 C 0.4841(5) 0.59191(18) -0.02973(10)
H28 H 0.4583 0.5989 -0.0530
C24 C 0.4249(6) 0.6566(2) -0.01074(10)
H29 H 0.3114 0.6478 -0.0013
H30 H 0.5056 0.6649 0.0071
C25 C 0.4147(5) 0.72065(19) -0.03164(10)
C26 C 0.6715(5) 0.49733(18) -0.01043(9)
C27 C 0.4801(6) 0.4802(2) -0.00906(9)
C28 C 0.7746(6) 0.4382(2) -0.02691(10)
H31 H 0.6995 0.3992 -0.0317
H32 H 0.8281 0.4540 -0.0471
C29 C 0.2671(5) 0.7230(3) -0.05508(13)
H33 H 0.1593 0.7233 -0.0432
H34 H 0.2711 0.6830 -0.0690
H35 H 0.2753 0.7641 -0.0682
C30 C 0.6201(6) 0.6787(3) -0.11341(10)
H36 H 0.6424 0.7001 -0.1342
H37 H 0.5080 0.6930 -0.1055
H38 H 0.6219 0.6293 -0.1158
O7 O 0.9751(4) -0.00123(17) 0.10943(13)
O8 O 0.4351(7) 0.0197(2) 0.19607(11)
O9 O 0.8544(5) 0.23747(13) 0.13866(7)
O10 O 1.2012(7) 0.52966(17) 0.24261(11)
O11 O 1.4358(9) 0.5762(2) 0.21884(16)
O12 O 0.8827(6) 0.33872(13) 0.16333(8)
C31 C 0.8355(5) -0.00601(19) 0.13304(13)
H39 H 0.8729 -0.0016 0.1559
C32 C 0.6971(7) -0.0591(2) 0.12747(14)
H40 H 0.7495 -0.1047 0.1261
H41 H 0.6382 -0.0497 0.1069
C33 C 0.5657(8) -0.0577(2) 0.15542(15)
H42 H 0.4682 -0.0873 0.1498
H43 H 0.6199 -0.0766 0.1749
C34 C 0.4991(7) 0.0132(3) 0.16291(14)
C35 C 0.5909(8) 0.0544(2) 0.18720(12)
H44 H 0.6956 0.0315 0.1956
C36 C 0.5946(6) 0.1321(2) 0.19156(11)
H45 H 0.5676 0.1433 0.2141
H46 H 0.5063 0.1529 0.1778
C37 C 0.7735(5) 0.16227(16) 0.18265(9)
H47 H 0.8619 0.1308 0.1914
C38 C 0.8024(5) 0.16708(17) 0.14569(10)
H48 H 0.6908 0.1585 0.1348
C39 C 0.9389(6) 0.1198(2) 0.13002(14)
H49 H 1.0055 0.1463 0.1142
H50 H 1.0185 0.1039 0.1468
C40 C 0.8600(6) 0.0578(2) 0.11308(12)
C41 C 0.8149(5) 0.23575(16) 0.19592(9)
C42 C 0.8553(6) 0.27762(17) 0.16562(9)
C43 C 0.6728(5) 0.2721(2) 0.21696(11)
H51 H 0.6448 0.3174 0.2082
H52 H 0.5676 0.2445 0.2179
C44 C 0.7573(11) 0.0733(3) 0.08298(12)
H53 H 0.8297 0.0970 0.0675
H54 H 0.6599 0.1021 0.0886
H55 H 0.7162 0.0308 0.0735
C45 C 0.3884(7) 0.0466(4) 0.13686(19)
H56 H 0.2830 0.0206 0.1342
H57 H 0.4512 0.0474 0.1166
H58 H 0.3606 0.0931 0.1433
C46 C 0.8887(6) 0.33635(19) 0.24815(9)
C47 C 0.7577(6) 0.2782(2) 0.25099(11)
H59 H 0.6764 0.2820 0.2694
C48 C 0.8761(7) 0.2154(2) 0.25165(10)
H60 H 0.8134 0.1721 0.2491
H61 H 0.9495 0.2138 0.2709
C49 C 0.9748(5) 0.23642(17) 0.22084(9)
C50 C 1.0179(5) 0.31237(17) 0.22922(9)
C51 C 1.1804(5) 0.34577(18) 0.21682(11)
H62 H 1.2078 0.3264 0.1955
H63 H 1.2753 0.3342 0.2315
C52 C 1.1706(7) 0.42375(19) 0.21374(11)
H64 H 1.0829 0.4350 0.1972
C53 C 1.1230(7) 0.4617(2) 0.24531(12)
H65 H 1.1761 0.4373 0.2638
C54 C 0.9298(8) 0.4679(2) 0.25141(13)
H66 H 0.9099 0.5058 0.2665
H67 H 0.8729 0.4796 0.2310
C55 C 0.8478(6) 0.4043(2) 0.26492(11)
H68 H 0.7218 0.4109 0.2631
C56 C 1.3379(8) 0.4595(2) 0.20453(13)
C57 C 1.3364(11) 0.5271(3) 0.22161(17)
C58 C 1.4691(9) 0.4396(3) 0.18553(16)
H69 H 1.5645 0.4685 0.1826
H70 H 1.4655 0.3967 0.1752
C59 C 0.8872(9) 0.3964(3) 0.30142(11)
H71 H 1.0053 0.3813 0.3042
H72 H 0.8099 0.3627 0.3108
H73 H 0.8711 0.4401 0.3122
C60 C 1.1319(5) 0.19293(19) 0.21131(12)
H74 H 1.1695 0.2056 0.1897
H75 H 1.1008 0.1448 0.2116
H76 H 1.2246 0.2010 0.2266
loop_
_geom_bond_atom_site_label_1
_geom_bond_atom_site_label_2
_geom_bond_site_symmetry_1
_geom_bond_site_symmetry_2
O1 C16 1_555 1_555
O2 C19 1_555 1_555
O3 C23 1_555 1_555
O4 C27 1_555 1_555
O5 C8 1_555 1_555
O6 C12 1_555 1_555
C1 C2 1_555 1_555
C2 H1 1_555 1_555
C3 C2 1_555 1_555
H2 C3 1_555 1_555
H3 C3 1_555 1_555
C4 C3 1_555 1_555
C5 C1 1_555 1_555
C6 C5 1_555 1_555
H4 C6 1_555 1_555
H5 C6 1_555 1_555
C7 C6 1_555 1_555
H6 C7 1_555 1_555
C8 C7 1_555 1_555
H7 C8 1_555 1_555
C9 C8 1_555 1_555
H8 C9 1_555 1_555
H9 C9 1_555 1_555
C10 C1 1_555 1_555
H10 C10 1_555 1_555
C11 C7 1_555 1_555
C12 O5 1_555 1_555
C13 C11 1_555 1_555
H11 C13 1_555 1_555
H12 C13 1_555 1_555
C14 C10 1_555 1_555
H13 C14 1_555 1_555
H14 C14 1_555 1_555
H15 C14 1_555 1_555
C15 C4 1_555 1_555
H16 C15 1_555 1_555
H17 C15 1_555 1_555
H18 C15 1_555 1_555
C16 H19 1_555 1_555
C17 C16 1_555 1_555
H20 C17 1_555 1_555
H21 C17 1_555 1_555
C18 C17 1_555 1_555
H22 C18 1_555 1_555
H23 C18 1_555 1_555
C19 C18 1_555 1_555
C20 O2 1_555 1_555
H24 C20 1_555 1_555
C21 C20 1_555 1_555
H25 C21 1_555 1_555
H26 C21 1_555 1_555
C22 C21 1_555 1_555
H27 C22 1_555 1_555
C23 C22 1_555 1_555
H28 C23 1_555 1_555
C24 C23 1_555 1_555
H29 C24 1_555 1_555
H30 C24 1_555 1_555
C25 O1 1_555 1_555
C26 C4 1_555 1_555
C27 O3 1_555 1_555
C28 C2 1_555 1_555
H31 C28 1_555 1_555
H32 C28 1_555 1_555
C29 C25 1_555 1_555
H33 C29 1_555 1_555
H34 C29 1_555 1_555
H35 C29 1_555 1_555
C30 C19 1_555 1_555
H36 C30 1_555 1_555
H37 C30 1_555 1_555
H38 C30 1_555 1_555
O7 C31 1_555 1_555
O8 C34 1_555 1_555
O9 C38 1_555 1_555
O10 C53 1_555 1_555
O11 C57 1_555 1_555
O12 C42 1_555 1_555
C31 H39 1_555 1_555
C32 C31 1_555 1_555
H40 C32 1_555 1_555
H41 C32 1_555 1_555
C33 C32 1_555 1_555
H42 C33 1_555 1_555
H43 C33 1_555 1_555
C34 C33 1_555 1_555
C35 O8 1_555 1_555
H44 C35 1_555 1_555
C36 C35 1_555 1_555
H45 C36 1_555 1_555
H46 C36 1_555 1_555
C37 C36 1_555 1_555
H47 C37 1_555 1_555
C38 C37 1_555 1_555
H48 C38 1_555 1_555
C39 C38 1_555 1_555
H49 C39 1_555 1_555
H50 C39 1_555 1_555
C40 O7 1_555 1_555
C41 C37 1_555 1_555
C42 O9 1_555 1_555
C43 C41 1_555 1_555
H51 C43 1_555 1_555
H52 C43 1_555 1_555
C44 C40 1_555 1_555
H53 C44 1_555 1_555
H54 C44 1_555 1_555
H55 C44 1_555 1_555
C45 C34 1_555 1_555
H56 C45 1_555 1_555
H57 C45 1_555 1_555
H58 C45 1_555 1_555
C46 C47 1_555 1_555
C47 C43 1_555 1_555
H59 C47 1_555 1_555
C48 C47 1_555 1_555
H60 C48 1_555 1_555
H61 C48 1_555 1_555
C49 C41 1_555 1_555
C50 C46 1_555 1_555
C51 C50 1_555 1_555
H62 C51 1_555 1_555
H63 C51 1_555 1_555
C52 C51 1_555 1_555
H64 C52 1_555 1_555
C53 C52 1_555 1_555
H65 C53 1_555 1_555
C54 C53 1_555 1_555
H66 C54 1_555 1_555
H67 C54 1_555 1_555
C55 C46 1_555 1_555
H68 C55 1_555 1_555
C56 C52 1_555 1_555
C57 O10 1_555 1_555
C58 C56 1_555 1_555
H69 C58 1_555 1_555
H70 C58 1_555 1_555
C59 C55 1_555 1_555
H71 C59 1_555 1_555
H72 C59 1_555 1_555
H73 C59 1_555 1_555
C60 C49 1_555 1_555
H74 C60 1_555 1_555
H75 C60 1_555 1_555
H76 C60 1_555 1_555
C4 C5 1_555 1_555
C9 C10 1_555 1_555
C11 C12 1_555 1_555
C16 C25 1_555 1_555
C19 C20 1_555 1_555
C22 C26 1_555 1_555
C24 C25 1_555 1_555
C26 C27 1_555 1_555
C26 C28 1_555 1_555
C31 C40 1_555 1_555
C34 C35 1_555 1_555
C39 C40 1_555 1_555
C41 C42 1_555 1_555
C48 C49 1_555 1_555
C49 C50 1_555 1_555
C54 C55 1_555 1_555
C56 C57 1_555 1_555

#END
