
#######################################################################
#
#                 Cambridge Crystallographic Data Centre
#                                CCDC 
#
#######################################################################
#
# If this CIF has been generated from an entry in the Cambridge 
# Structural Database, then it will include bibliographic, chemical, 
# crystal, experimental, refinement or atomic coordinate data resulting 
# from the CCDC's data processing and validation procedures.
#
#######################################################################

data_OHECAH
_chemical_formula_moiety         'C20 H24 N4 O2 S2,0.5(C1 H4 O1)'
_chemical_name_systematic        
"1'H,8'H-dispiro[cyclohexane-1,2'-pyrimido[4'',5'':4',5']thieno[3',2':4,5]thieno[3,2-d]pyrimidine-9',1''-cyclohexane]-4',7'(3'H,10'H)-dione methanol solvate"
_symmetry_cell_setting           orthorhombic
_symmetry_space_group_name_H-M   'P 21 21 21'
_symmetry_Int_Tables_number      19
_space_group_name_Hall           'P 2ac 2ab'
loop_
_symmetry_equiv_pos_site_id
_symmetry_equiv_pos_as_xyz
1 x,y,z
2 1/2-x,-y,1/2+z
3 1/2+x,1/2-y,-z
4 -x,1/2+y,1/2-z
_cell_length_a                   10.6570(7)
_cell_length_b                   19.7811(11)
_cell_length_c                   20.2381(9)
_cell_angle_alpha                90
_cell_angle_beta                 90
_cell_angle_gamma                90
_cell_volume                     4266.34
_exptl_crystal_colour            yellow
_exptl_crystal_description       block
_cell_formula_units_Z            8
loop_
_atom_site_label
_atom_site_type_symbol
_atom_site_fract_x
_atom_site_fract_y
_atom_site_fract_z
S1 S 0.35148(11) -0.86201(6) -0.26755(6)
S2 S 0.16124(12) -0.98067(6) -0.28448(6)
O1 O 0.5780(4) -0.76688(18) -0.30444(17)
O2 O -0.0529(3) -1.06844(17) -0.34860(16)
N1 N 0.5048(4) -0.7484(2) -0.40961(19)
H1 H 0.5752 -0.7290 -0.4222
N2 N 0.3503(4) -0.81896(19) -0.45560(19)
H2 H 0.3334 -0.8402 -0.4928
N3 N 0.1799(4) -0.97462(19) -0.47758(18)
H3 H 0.2050 -0.9456 -0.5078
N4 N 0.0181(4) -1.0527(2) -0.45326(19)
H4 H -0.0531 -1.0665 -0.4707
C1 C 0.4970(5) -0.7768(2) -0.3488(2)
C2 C 0.3945(5) -0.8231(3) -0.3413(2)
C3 C 0.3346(5) -0.8491(2) -0.3959(2)
C4 C 0.2591(4) -0.9077(2) -0.3794(2)
C5 C 0.2570(5) -0.9165(2) -0.3115(2)
C6 C 0.1901(4) -0.9599(2) -0.4119(2)
C7 C 0.1276(5) -1.0005(2) -0.3668(2)
C8 C 0.0262(4) -1.0436(2) -0.3875(2)
C9 C 0.3968(5) -0.7495(2) -0.4548(2)
C10 C 0.2941(5) -0.7002(2) -0.4289(2)
H5 H 0.2167 -0.7056 -0.4554
H6 H 0.2740 -0.7112 -0.3824
C11 C 0.3395(5) -0.6269(2) -0.4335(3)
H7 H 0.2731 -0.5961 -0.4172
H8 H 0.4147 -0.6208 -0.4053
C12 C 0.3716(6) -0.6095(3) -0.5045(3)
H9 H 0.4010 -0.5621 -0.5070
H10 H 0.2954 -0.6136 -0.5322
C13 C 0.4734(5) -0.6565(3) -0.5311(2)
H11 H 0.4885 -0.6462 -0.5783
H12 H 0.5525 -0.6483 -0.5068
C14 C 0.4367(5) -0.7295(2) -0.5241(2)
H13 H 0.5088 -0.7580 -0.5374
H14 H 0.3669 -0.7392 -0.5549
C15 C 0.1264(5) -1.0399(2) -0.4963(2)
C16 C 0.0829(5) -1.0370(3) -0.5681(2)
H15 H 0.0336 -1.0781 -0.5782
H16 H 0.0272 -0.9974 -0.5740
C17 C 0.1923(5) -1.0319(3) -0.6163(2)
H17 H 0.2367 -0.9885 -0.6094
H18 H 0.1598 -1.0324 -0.6622
C18 C 0.2856(6) -1.0910(3) -0.6070(3)
H19 H 0.2443 -1.1340 -0.6196
H20 H 0.3587 -1.0844 -0.6365
C19 C 0.3308(5) -1.0955(3) -0.5350(2)
H21 H 0.3832 -1.1365 -0.5294
H22 H 0.3832 -1.0556 -0.5245
C20 C 0.2202(5) -1.0985(2) -0.4873(2)
H23 H 0.2525 -1.0977 -0.4415
H24 H 0.1754 -1.1419 -0.4938
S3 S -0.17260(13) -0.95965(6) -0.06878(6)
S4 S 0.02398(12) -1.07160(6) -0.04497(6)
O3 O -0.3273(4) -0.84813(17) -0.13845(16)
O4 O 0.2729(3) -1.14870(17) -0.07570(16)
N5 N -0.3257(4) -0.9012(2) -0.2381(2)
H25 H -0.3451 -0.8639 -0.2595
N6 N -0.2035(4) -0.9998(2) -0.2570(2)
H26 H -0.1571 -1.0196 -0.2873
N7 N 0.0357(4) -1.12519(19) -0.23076(19)
H27 H 0.0066 -1.1087 -0.2681
N8 N 0.2155(4) -1.1743(2) -0.18082(19)
H28 H 0.2931 -1.1854 -0.1910
C21 C -0.2995(5) -0.8977(2) -0.1725(2)
C22 C -0.2275(5) -0.9553(3) -0.1495(2)
C23 C -0.1701(5) -0.9996(2) -0.1926(2)
C24 C -0.0772(4) -1.0400(2) -0.1591(2)
C25 C -0.0723(5) -1.0226(2) -0.0929(2)
C26 C 0.0086(5) -1.0954(2) -0.1724(2)
C27 C 0.0731(5) -1.1145(2) -0.1161(2)
C28 C 0.1924(5) -1.1474(2) -0.1212(2)
C29 C -0.3226(5) -0.9650(3) -0.2739(2)
C30 C -0.3248(6) -0.9481(3) -0.3479(3)
H29 H -0.3930 -0.9152 -0.3563
H30 H -0.2445 -0.9261 -0.3600
C31 C -0.3444(7) -1.0094(4) -0.3920(3)
H31 H -0.3541 -0.9945 -0.4384
H32 H -0.2697 -1.0391 -0.3895
C32 C -0.4575(7) -1.0483(4) -0.3717(4)
H33 H -0.4673 -1.0882 -0.4007
H34 H -0.5330 -1.0196 -0.3769
C33 C -0.4470(6) -1.0715(4) -0.2999(4)
H35 H -0.3731 -1.1013 -0.2948
H36 H -0.5228 -1.0976 -0.2875
C34 C -0.4337(5) -1.0097(3) -0.2544(3)
H37 H -0.5118 -0.9827 -0.2562
H38 H -0.4222 -1.0253 -0.2083
C35 C 0.1152(5) -1.1860(3) -0.2303(2)
C36 C 0.1795(5) -1.1955(3) -0.2972(2)
H39 H 0.2491 -1.2283 -0.2920
H40 H 0.2163 -1.1519 -0.3112
C37 C 0.0902(5) -1.2210(3) -0.3519(3)
H41 H 0.0307 -1.1845 -0.3637
H42 H 0.1396 -1.2323 -0.3918
C38 C 0.0178(6) -1.2824(3) -0.3298(3)
H43 H 0.0766 -1.3207 -0.3240
H44 H -0.0432 -1.2951 -0.3646
C39 C -0.0520(5) -1.2701(3) -0.2653(3)
H45 H -0.1156 -1.2343 -0.2718
H46 H -0.0960 -1.3120 -0.2518
C40 C 0.0394(5) -1.2490(3) -0.2117(3)
H47 H 0.0980 -1.2867 -0.2028
H48 H -0.0078 -1.2398 -0.1705
O5 O -0.1410(5) -1.1550(2) -0.5046(2)
H49 H -0.164(8) -1.142(4) -0.5433(17)
C41 C -0.2163(14) -1.1954(6) -0.4709(5)
H50 H -0.2649 -1.2233 -0.5017
H51 H -0.2738 -1.1681 -0.4441
H52 H -0.1663 -1.2246 -0.4420
loop_
_geom_bond_atom_site_label_1
_geom_bond_atom_site_label_2
_geom_bond_site_symmetry_1
_geom_bond_site_symmetry_2
S1 C2 1_555 1_555
S2 C5 1_555 1_555
O1 C1 1_555 1_555
O2 C8 1_555 1_555
N1 H1 1_555 1_555
N2 H2 1_555 1_555
N3 H3 1_555 1_555
N4 H4 1_555 1_555
C1 N1 1_555 1_555
C2 C1 1_555 1_555
C3 N2 1_555 1_555
C4 C3 1_555 1_555
C5 S1 1_555 1_555
C6 N3 1_555 1_555
C7 S2 1_555 1_555
C8 N4 1_555 1_555
C9 N1 1_555 1_555
C10 C9 1_555 1_555
H5 C10 1_555 1_555
H6 C10 1_555 1_555
C11 C10 1_555 1_555
H7 C11 1_555 1_555
H8 C11 1_555 1_555
C12 C11 1_555 1_555
H9 C12 1_555 1_555
H10 C12 1_555 1_555
C13 C12 1_555 1_555
H11 C13 1_555 1_555
H12 C13 1_555 1_555
C14 C9 1_555 1_555
H13 C14 1_555 1_555
H14 C14 1_555 1_555
C15 N3 1_555 1_555
C16 C15 1_555 1_555
H15 C16 1_555 1_555
H16 C16 1_555 1_555
C17 C16 1_555 1_555
H17 C17 1_555 1_555
H18 C17 1_555 1_555
C18 C17 1_555 1_555
H19 C18 1_555 1_555
H20 C18 1_555 1_555
C19 C18 1_555 1_555
H21 C19 1_555 1_555
H22 C19 1_555 1_555
C20 C15 1_555 1_555
H23 C20 1_555 1_555
H24 C20 1_555 1_555
S3 C22 1_555 1_555
S4 C25 1_555 1_555
O3 C21 1_555 1_555
O4 C28 1_555 1_555
N5 H25 1_555 1_555
N6 H26 1_555 1_555
N7 H27 1_555 1_555
N8 H28 1_555 1_555
C21 N5 1_555 1_555
C22 C21 1_555 1_555
C23 N6 1_555 1_555
C24 C23 1_555 1_555
C25 S3 1_555 1_555
C26 N7 1_555 1_555
C27 S4 1_555 1_555
C28 N8 1_555 1_555
C29 N5 1_555 1_555
C30 C29 1_555 1_555
H29 C30 1_555 1_555
H30 C30 1_555 1_555
C31 C30 1_555 1_555
H31 C31 1_555 1_555
H32 C31 1_555 1_555
C32 C31 1_555 1_555
H33 C32 1_555 1_555
H34 C32 1_555 1_555
C33 C32 1_555 1_555
H35 C33 1_555 1_555
H36 C33 1_555 1_555
C34 C29 1_555 1_555
H37 C34 1_555 1_555
H38 C34 1_555 1_555
C35 N7 1_555 1_555
C36 C35 1_555 1_555
H39 C36 1_555 1_555
H40 C36 1_555 1_555
C37 C36 1_555 1_555
H41 C37 1_555 1_555
H42 C37 1_555 1_555
C38 C37 1_555 1_555
H43 C38 1_555 1_555
H44 C38 1_555 1_555
C39 C38 1_555 1_555
H45 C39 1_555 1_555
H46 C39 1_555 1_555
C40 C35 1_555 1_555
H47 C40 1_555 1_555
H48 C40 1_555 1_555
O5 H49 1_555 1_555
C41 O5 1_555 1_555
H50 C41 1_555 1_555
H51 C41 1_555 1_555
H52 C41 1_555 1_555
N2 C9 1_555 1_555
N4 C15 1_555 1_555
C2 C3 1_555 1_555
C4 C5 1_555 1_555
C4 C6 1_555 1_555
C6 C7 1_555 1_555
C7 C8 1_555 1_555
C13 C14 1_555 1_555
C19 C20 1_555 1_555
N6 C29 1_555 1_555
N8 C35 1_555 1_555
C22 C23 1_555 1_555
C24 C25 1_555 1_555
C24 C26 1_555 1_555
C26 C27 1_555 1_555
C27 C28 1_555 1_555
C33 C34 1_555 1_555
C39 C40 1_555 1_555

#END
