
#######################################################################
#
#                 Cambridge Crystallographic Data Centre
#                                CCDC 
#
#######################################################################
#
# If this CIF has been generated from an entry in the Cambridge 
# Structural Database, then it will include bibliographic, chemical, 
# crystal, experimental, refinement or atomic coordinate data resulting 
# from the CCDC's data processing and validation procedures.
#
#######################################################################

data_OHEFAK
_chemical_formula_moiety         'C12 H8 Br1 F3 O3'
_chemical_name_systematic        
'6-bromo-8-methyl-2-(trifluoromethyl)-2H-chromene-3-carboxylic acid'
_symmetry_cell_setting           triclinic
_symmetry_space_group_name_H-M   'P -1'
_symmetry_Int_Tables_number      2
_space_group_name_Hall           '-P 1'
loop_
_symmetry_equiv_pos_site_id
_symmetry_equiv_pos_as_xyz
1 x,y,z
2 -x,-y,-z
_cell_length_a                   8.0513(3)
_cell_length_b                   8.9657(3)
_cell_length_c                   9.4209(3)
_cell_angle_alpha                78.684(3)
_cell_angle_beta                 75.860(3)
_cell_angle_gamma                70.374(3)
_cell_volume                     616.266
_exptl_crystal_colour            colorless
_exptl_crystal_description       block
_cell_formula_units_Z            2
_exptl_crystal_preparation       methanol
loop_
_atom_site_label
_atom_site_type_symbol
_atom_site_fract_x
_atom_site_fract_y
_atom_site_fract_z
Br1 Br 0.93825(3) 0.47185(2) 0.34751(2)
F1 F 0.51605(16) 0.28551(15) -0.28647(13)
F2 F 0.34389(15) 0.25389(15) -0.07581(14)
O1 O 0.62851(17) 0.10539(15) 0.06538(14)
F3 F 0.51348(16) 0.40301(13) -0.10689(14)
O2 O 1.06561(17) 0.10232(16) -0.37999(15)
H1 H 1.0977 0.0688 -0.4604
O3 O 0.83400(18) 0.00908(16) -0.36296(15)
C1 C 0.8438(3) 0.3551(2) 0.2563(2)
C2 C 0.5067(2) 0.2679(2) -0.1405(2)
C3 C 0.9134(2) 0.0757(2) -0.3125(2)
C4 C 0.9243(2) 0.3194(2) 0.1153(2)
H2 H 1.0253 0.3495 0.0658
C5 C 0.8512(2) 0.2369(2) 0.0478(2)
C6 C 0.6193(2) 0.2274(2) 0.2688(2)
C7 C 0.6997(2) 0.1938(2) 0.1259(2)
C8 C 0.9293(2) 0.1902(2) -0.0990(2)
H3 H 1.0417 0.2000 -0.1459
C9 C 0.6556(2) 0.1223(2) -0.09187(19)
H4 H 0.6416 0.0280 -0.1195
C10 C 0.6944(3) 0.3103(2) 0.3332(2)
H5 H 0.6437 0.3357 0.4286
C11 C 0.8399(2) 0.1332(2) -0.1668(2)
C12 C 0.4565(3) 0.1784(3) 0.3487(2)
H6 H 0.4863 0.0642 0.3601
H7 H 0.3622 0.2249 0.2930
H8 H 0.4168 0.2147 0.4442
loop_
_geom_bond_atom_site_label_1
_geom_bond_atom_site_label_2
_geom_bond_site_symmetry_1
_geom_bond_site_symmetry_2
Br1 C1 1_555 1_555
F1 C2 1_555 1_555
F2 C2 1_555 1_555
O1 C7 1_555 1_555
F3 C2 1_555 1_555
O2 H1 1_555 1_555
O3 C3 1_555 1_555
C1 C4 1_555 1_555
C2 C9 1_555 1_555
C3 O2 1_555 1_555
C4 H2 1_555 1_555
C5 C4 1_555 1_555
C6 C7 1_555 1_555
C7 C5 1_555 1_555
C8 C5 1_555 1_555
H3 C8 1_555 1_555
C9 O1 1_555 1_555
H4 C9 1_555 1_555
C10 C1 1_555 1_555
H5 C10 1_555 1_555
C11 C3 1_555 1_555
C12 C6 1_555 1_555
H6 C12 1_555 1_555
H7 C12 1_555 1_555
H8 C12 1_555 1_555
C6 C10 1_555 1_555
C8 C11 1_555 1_555
C9 C11 1_555 1_555

#END
