
#######################################################################
#
#                 Cambridge Crystallographic Data Centre
#                                CCDC 
#
#######################################################################
#
# If this CIF has been generated from an entry in the Cambridge 
# Structural Database, then it will include bibliographic, chemical, 
# crystal, experimental, refinement or atomic coordinate data resulting 
# from the CCDC's data processing and validation procedures.
#
#######################################################################

data_OHELUI
_chemical_formula_moiety         'C18 H28 O4'
_chemical_name_systematic        
1-((2-Methoxyethoxy)methoxy)-4,4,5b-trimethyldecahydro-2H-cyclopenta(a)cyclopropa(cd)pentalen-2-one
_symmetry_cell_setting           orthorhombic
_symmetry_space_group_name_H-M   'P 21 21 21'
_symmetry_Int_Tables_number      19
_space_group_name_Hall           'P 2ac 2ab'
loop_
_symmetry_equiv_pos_site_id
_symmetry_equiv_pos_as_xyz
1 x,y,z
2 1/2-x,-y,1/2+z
3 1/2+x,1/2-y,-z
4 -x,1/2+y,1/2-z
_cell_length_a                   6.08980(10)
_cell_length_b                   11.0181(2)
_cell_length_c                   25.4436(5)
_cell_angle_alpha                90
_cell_angle_beta                 90
_cell_angle_gamma                90
_cell_volume                     1707.22
_exptl_crystal_colour            colorless
_exptl_crystal_description       needle
_cell_formula_units_Z            4
loop_
_atom_site_label
_atom_site_type_symbol
_atom_site_fract_x
_atom_site_fract_y
_atom_site_fract_z
O1 O -0.0616(3) 0.29857(15) 0.10129(5)
O2 O -0.0585(3) 0.18293(15) 0.02406(6)
O3 O 0.1839(3) -0.04052(17) 0.05072(7)
O4 O 0.0648(4) 0.54560(18) 0.08012(8)
C1 C 0.1599(4) 0.3379(2) 0.10329(9)
C2 C 0.1867(5) 0.4750(2) 0.10215(9)
C3 C 0.3897(5) 0.5035(2) 0.1308(1)
C4 C 0.3827(5) 0.4892(2) 0.1906(1)
C5 C 0.1696(4) 0.4524(2) 0.21747(8)
C6 C 0.1891(5) 0.4543(2) 0.27805(8)
C7 C 0.1216(4) 0.3281(2) 0.29736(8)
C8 C 0.2065(4) 0.24950(19) 0.25209(8)
C9 C 0.1394(4) 0.31707(19) 0.20226(7)
C10 C 0.2829(4) 0.2945(2) 0.15295(8)
C11 C 0.4703(4) 0.3880(2) 0.1577(1)
C12 C -0.1446(4) 0.2857(2) 0.04949(8)
C13 C -0.1470(5) 0.0715(2) 0.0437(1)
C14 C -0.0161(5) -0.0324(2) 0.0229(1)
C15 C 0.3063(6) -0.1453(3) 0.03602(12)
C16 C 0.2270(5) 0.2953(3) 0.35000(9)
C17 C -0.1292(4) 0.3193(3) 0.3024(1)
C18 C 0.3590(5) 0.1634(2) 0.14685(9)
H1 H 0.487(6) 0.561(3) 0.1193(12)
H2 H 0.489(5) 0.537(3) 0.209(1)
H3 H 0.622(5) 0.361(2) 0.155(1)
H4 H 0.2245(4) 0.3011(2) 0.07086(9)
H5 H 0.0479(4) 0.5078(2) 0.20644(8)
H6 H 0.3443(5) 0.4718(2) 0.28845(8)
H7 H 0.0900(5) 0.5175(2) 0.29331(8)
H8 H 0.3697(4) 0.24086(19) 0.25394(8)
H9 H 0.1370(4) 0.16729(19) 0.25305(8)
H10 H -0.0118(4) 0.29066(19) 0.19202(7)
H11 H -0.1021(4) 0.3589(2) 0.02860(8)
H12 H -0.3084(4) 0.2791(2) 0.05072(8)
H13 H -0.3042(5) 0.0639(2) 0.0328(1)
H14 H -0.1371(5) 0.0707(2) 0.0829(1)
H15 H 0.0138(5) -0.0180(2) -0.0153(1)
H16 H -0.1004(5) -0.1097(2) 0.0271(1)
H17 H 0.4459(6) -0.1464(3) 0.05671(12)
H18 H 0.3413(6) -0.1427(3) -0.00237(12)
H19 H 0.2194(6) -0.2200(3) 0.04397(12)
H20 H 0.1788(5) 0.2125(3) 0.36113(9)
H21 H 0.3904(5) 0.2967(3) 0.34616(9)
H22 H 0.1815(5) 0.3560(3) 0.37713(9)
H23 H -0.1717(4) 0.2365(3) 0.3148(1)
H24 H -0.1990(4) 0.3354(3) 0.2675(1)
H25 H -0.1803(4) 0.3813(3) 0.3283(1)
H26 H 0.4363(5) 0.1360(2) 0.17944(9)
H27 H 0.4617(5) 0.1581(2) 0.11627(9)
H28 H 0.2287(5) 0.1103(2) 0.14036(9)
loop_
_geom_bond_atom_site_label_1
_geom_bond_atom_site_label_2
_geom_bond_site_symmetry_1
_geom_bond_site_symmetry_2
O1 C1 1_555 1_555
O2 C12 1_555 1_555
O3 C14 1_555 1_555
O4 C2 1_555 1_555
C1 C2 1_555 1_555
C2 C3 1_555 1_555
C3 C4 1_555 1_555
C4 C5 1_555 1_555
C5 C6 1_555 1_555
C6 C7 1_555 1_555
C7 C8 1_555 1_555
C8 C9 1_555 1_555
C9 C5 1_555 1_555
C10 C1 1_555 1_555
C11 C3 1_555 1_555
C12 O1 1_555 1_555
C13 O2 1_555 1_555
C14 C13 1_555 1_555
C15 O3 1_555 1_555
C16 C7 1_555 1_555
C17 C7 1_555 1_555
C18 C10 1_555 1_555
H1 C3 1_555 1_555
H2 C4 1_555 1_555
H3 C11 1_555 1_555
H4 C1 1_555 1_555
H5 C5 1_555 1_555
H6 C6 1_555 1_555
H7 C6 1_555 1_555
H8 C8 1_555 1_555
H9 C8 1_555 1_555
H10 C9 1_555 1_555
H11 C12 1_555 1_555
H12 C12 1_555 1_555
H13 C13 1_555 1_555
H14 C13 1_555 1_555
H15 C14 1_555 1_555
H16 C14 1_555 1_555
H17 C15 1_555 1_555
H18 C15 1_555 1_555
H19 C15 1_555 1_555
H20 C16 1_555 1_555
H21 C16 1_555 1_555
H22 C16 1_555 1_555
H23 C17 1_555 1_555
H24 C17 1_555 1_555
H25 C17 1_555 1_555
H26 C18 1_555 1_555
H27 C18 1_555 1_555
H28 C18 1_555 1_555
C4 C11 1_555 1_555
C9 C10 1_555 1_555
C10 C11 1_555 1_555

#END
