
#######################################################################
#
#                 Cambridge Crystallographic Data Centre
#                                CCDC 
#
#######################################################################
#
# If this CIF has been generated from an entry in the Cambridge 
# Structural Database, then it will include bibliographic, chemical, 
# crystal, experimental, refinement or atomic coordinate data resulting 
# from the CCDC's data processing and validation procedures.
#
#######################################################################

data_OHELUK
_chemical_formula_moiety         'C21 H17 N3 O2'
_chemical_name_systematic        
(2-hydroxy-5-methylphenyl)(3-methyl-1-phenyl-1H-pyrazolo[3,4-b]pyridin-5-yl)methanone
_symmetry_cell_setting           monoclinic
_symmetry_space_group_name_H-M   'P 21/c'
_symmetry_Int_Tables_number      14
_space_group_name_Hall           '-P 2ybc'
loop_
_symmetry_equiv_pos_site_id
_symmetry_equiv_pos_as_xyz
1 x,y,z
2 -x,1/2+y,1/2-z
3 -x,-y,-z
4 x,1/2-y,1/2+z
_cell_length_a                   14.7164(7)
_cell_length_b                   16.7306(9)
_cell_length_c                   7.0733(3)
_cell_angle_alpha                90
_cell_angle_beta                 94.857(2)
_cell_angle_gamma                90
_cell_volume                     1735.29
_exptl_crystal_colour            colorless
_exptl_crystal_description       Block
_cell_formula_units_Z            4
loop_
_atom_site_label
_atom_site_type_symbol
_atom_site_fract_x
_atom_site_fract_y
_atom_site_fract_z
C1 C 0.05588(15) 0.09390(16) 0.0431(4)
C2 C 0.00532(16) 0.13878(17) -0.0938(4)
H1 H -0.0552 0.1509 -0.0781
C3 C 0.04416(17) 0.16526(16) -0.2520(4)
H2 H 0.0090 0.1950 -0.3420
C4 C 0.13449(15) 0.14903(14) -0.2816(3)
C5 C 0.17618(19) 0.17799(17) -0.4560(4)
H3 H 0.1872 0.2344 -0.4458
H4 H 0.1352 0.1674 -0.5660
H5 H 0.2328 0.1506 -0.4675
C6 C 0.18475(14) 0.10574(13) -0.1436(3)
H6 H 0.2454 0.0945 -0.1602
C7 C 0.14798(13) 0.07811(13) 0.0206(3)
C8 C 0.20198(14) 0.03024(15) 0.1632(3)
C9 C 0.30348(13) 0.03373(13) 0.1803(3)
C10 C 0.35019(13) 0.10607(14) 0.1603(3)
H7 H 0.3150 0.1511 0.1289
C11 C 0.48557(12) 0.04804(12) 0.2241(2)
C12 C 0.44789(12) -0.02748(12) 0.2511(2)
C13 C 0.35323(13) -0.03413(13) 0.2305(3)
H8 H 0.3245 -0.0826 0.2500
C14 C 0.52392(13) -0.07907(13) 0.2957(3)
C15 C 0.52419(16) -0.16642(14) 0.3369(3)
H9 H 0.5858 -0.1858 0.3471
H10 H 0.4895 -0.1940 0.2360
H11 H 0.4975 -0.1757 0.4542
C16 C 0.64979(12) 0.09625(12) 0.2357(2)
C17 C 0.73654(13) 0.07915(14) 0.3181(3)
H12 H 0.7475 0.0326 0.3881
C18 C 0.80646(14) 0.13251(17) 0.2945(3)
H13 H 0.8650 0.1211 0.3478
C19 C 0.79085(16) 0.20215(17) 0.1933(3)
H14 H 0.8384 0.2375 0.1783
C20 C 0.70447(15) 0.21893(15) 0.1146(3)
H15 H 0.6935 0.2662 0.0473
C21 C 0.63382(14) 0.16638(13) 0.1345(3)
H16 H 0.5756 0.1780 0.0800
N1 N 0.44001(10) 0.11614(10) 0.1820(2)
N2 N 0.57850(10) 0.03981(10) 0.2511(2)
N3 N 0.60079(11) -0.03890(10) 0.2955(2)
O1 O 0.01363(10) 0.06702(12) 0.1927(3)
H17 H 0.0497 0.0411 0.2629
O2 O 0.16431(10) -0.01281(12) 0.2757(2)
loop_
_geom_bond_atom_site_label_1
_geom_bond_atom_site_label_2
_geom_bond_site_symmetry_1
_geom_bond_site_symmetry_2
C1 C2 1_555 1_555
C2 H1 1_555 1_555
C3 C2 1_555 1_555
H2 C3 1_555 1_555
C4 C3 1_555 1_555
C5 C4 1_555 1_555
H3 C5 1_555 1_555
H4 C5 1_555 1_555
H5 C5 1_555 1_555
C6 C4 1_555 1_555
H6 C6 1_555 1_555
C7 C1 1_555 1_555
C8 C7 1_555 1_555
C9 C8 1_555 1_555
C10 C9 1_555 1_555
H7 C10 1_555 1_555
C11 C12 1_555 1_555
C12 C13 1_555 1_555
C13 C9 1_555 1_555
H8 C13 1_555 1_555
C14 C12 1_555 1_555
C15 C14 1_555 1_555
H9 C15 1_555 1_555
H10 C15 1_555 1_555
H11 C15 1_555 1_555
C16 C17 1_555 1_555
C17 H12 1_555 1_555
C18 C17 1_555 1_555
H13 C18 1_555 1_555
C19 C18 1_555 1_555
H14 C19 1_555 1_555
C20 C19 1_555 1_555
H15 C20 1_555 1_555
C21 C16 1_555 1_555
H16 C21 1_555 1_555
N1 C10 1_555 1_555
N2 C11 1_555 1_555
N3 C14 1_555 1_555
O1 C1 1_555 1_555
H17 O1 1_555 1_555
O2 C8 1_555 1_555
C6 C7 1_555 1_555
C11 N1 1_555 1_555
C16 N2 1_555 1_555
C20 C21 1_555 1_555
N2 N3 1_555 1_555

#END
