
#######################################################################
#
#                 Cambridge Crystallographic Data Centre
#                                CCDC 
#
#######################################################################
#
# If this CIF has been generated from an entry in the Cambridge 
# Structural Database, then it will include bibliographic, chemical, 
# crystal, experimental, refinement or atomic coordinate data resulting 
# from the CCDC's data processing and validation procedures.
#
#######################################################################

data_OHEXII
_chemical_name_common            
'Quadruple calix(4)arene 9 methanol solvate dodecahydrate'
_chemical_formula_moiety         'C208 H224 N8 O32 S8,8(C1 H4 O1),12(H2 O1)'
_chemical_name_systematic        
'3,3,6,6,10,10,13,13,17,17,20,20,24,24,27,27-Hexadecaoxo-2,7,9,14,16,21,23,28-octa-aza-3,6,10,13,17,20,24,27-octathia-4,5,11,12,18,19,25,26-octabenzena-1,8,15,22(5,17)-tetra(tetrapropoxycalix(4)arena)cyclo-octacosaphane methanol solvate dodecahydrate'
_symmetry_cell_setting           tetragonal
_symmetry_space_group_name_H-M   'I 41/a'
_symmetry_Int_Tables_number      88
_space_group_name_Hall           '-I 4ad'
loop_
_symmetry_equiv_pos_site_id
_symmetry_equiv_pos_as_xyz
1 x,y,z
2 3/4-y,1/4+x,1/4+z
3 1/2+x,1/2+y,1/2+z
4 1/4-y,3/4+x,3/4+z
5 1/4+y,1/4-x,1/4+z
6 1/2-x,-y,1/2+z
7 3/4+y,3/4-x,3/4+z
8 -x,1/2-y,z
9 -x,-y,-z
10 1/4+y,3/4-x,3/4-z
11 1/2-x,1/2-y,1/2-z
12 3/4+y,1/4-x,1/4-z
13 3/4-y,3/4+x,3/4-z
14 1/2+x,y,1/2-z
15 1/4-y,1/4+x,1/4-z
16 x,1/2+y,-z
_cell_length_a                   34.8856(9)
_cell_length_b                   34.8856(9)
_cell_length_c                   19.8884(7)
_cell_angle_alpha                90
_cell_angle_beta                 90
_cell_angle_gamma                90
_cell_volume                     24204.3
_cell_formula_units_Z            4
loop_
_atom_site_label
_atom_site_type_symbol
_atom_site_fract_x
_atom_site_fract_y
_atom_site_fract_z
S1 S 0.61450(19) 0.37438(16) -0.1360(2)
S2 S 0.62378(17) 0.48941(16) 0.1002(3)
O1 O 0.5738(4) 0.3635(3) -0.1308(4)
O2 O 0.6250(3) 0.4100(3) -0.1684(5)
O3 O 0.6127(2) 0.5063(3) 0.1604(6)
O4 O 0.6441(3) 0.5104(3) 0.0502(6)
O5 O 0.6228(3) 0.2451(4) 0.0937(5)
O6 O 0.6813(4) 0.2935(6) 0.1943(7)
O7 O 0.6392(3) 0.3463(3) 0.3222(7)
O8 O 0.5835(3) 0.3072(3) 0.2015(4)
N1 N 0.6315(4) 0.3785(4) -0.0601(6)
N2 N 0.6495(4) 0.4545(4) 0.1129(7)
C1 C 0.6627(7) 0.2935(8) 0.0413(11)
C2 C 0.6276(10) 0.2799(5) 0.0592(9)
C3 C 0.5936(7) 0.3007(9) 0.0458(9)
C4 C 0.5953(8) 0.3335(6) 0.0062(11)
H1 H 0.5729 0.3468 -0.0035
C5 C 0.6292(10) 0.3462(7) -0.0182(10)
C6 C 0.6622(7) 0.3262(8) -0.0004(10)
H2 H 0.6855 0.3349 -0.0171
C7 C 0.7034(9) 0.2733(7) 0.0614(14)
H3 H 0.6996 0.2523 0.0926
H4 H 0.7168 0.2640 0.0218
C8 C 0.7220(11) 0.3019(10) 0.0898(15)
C9 C 0.7585(10) 0.3249(10) 0.0723(16)
H5 H 0.7699 0.3178 0.0318
C10 C 0.7772(10) 0.3538(8) 0.105(2)
H6 H 0.7982 0.3671 0.0881
C11 C 0.7608(6) 0.3607(6) 0.1672(11)
H7 H 0.7704 0.3800 0.1948
C12 C 0.7272(7) 0.3368(9) 0.1897(11)
C13 C 0.7140(10) 0.3087(8) 0.152(2)
C14 C 0.7127(5) 0.3623(6) 0.2614(8)
H8 H 0.7070 0.3451 0.2983
H9 H 0.7323 0.3803 0.2755
C15 C 0.6773(5) 0.3829(6) 0.2385(10)
C16 C 0.6425(7) 0.3721(6) 0.2712(10)
C17 C 0.6088(6) 0.3864(5) 0.2491(8)
C18 C 0.6107(5) 0.4140(5) 0.1962(9)
H10 H 0.5876 0.4237 0.1804
C19 C 0.6458(5) 0.4285(6) 0.1645(10)
C20 C 0.6766(6) 0.4103(5) 0.1904(9)
H11 H 0.7002 0.4175 0.1729
C21 C 0.5680(4) 0.3759(4) 0.2733(6)
H12 H 0.5698 0.3564 0.3079
H13 H 0.5561 0.3984 0.2929
C22 C 0.5429(5) 0.3610(5) 0.2159(7)
C23 C 0.5114(5) 0.3811(5) 0.1934(9)
H14 H 0.5034 0.4020 0.2189
C24 C 0.4913(6) 0.3729(6) 0.1372(12)
H15 H 0.4709 0.3883 0.1240
C25 C 0.5011(5) 0.3422(8) 0.1009(10)
H16 H 0.4863 0.3353 0.0640
C26 C 0.5340(7) 0.3199(5) 0.1178(9)
C27 C 0.5534(4) 0.3303(5) 0.1793(8)
C28 C 0.5545(5) 0.2858(4) 0.0761(8)
H17 H 0.5593 0.2642 0.1057
H18 H 0.5378 0.2773 0.0401
C29 C 0.6353(6) 0.3342(6) -0.1744(9)
C30 C 0.5813(6) 0.4721(4) 0.0659(10)
C31 C 0.5822(7) 0.4524(6) 0.0045(15)
H19 H 0.6059 0.4482 -0.0155
C32 C 0.5515(8) 0.4393(5) -0.0269(9)
H20 H 0.5541 0.4283 -0.0693
C33 C 0.5147(10) 0.4416(4) 0.0024(9)
C34 C 0.5120(5) 0.4623(5) 0.0653(9)
H21 H 0.4885 0.4659 0.0863
C35 C 0.5446(7) 0.4762(4) 0.0927(7)
H22 H 0.5423 0.4897 0.1328
C36 C 0.4783(7) 0.4233(5) -0.0254(9)
C37 C 0.4830(7) 0.3904(6) -0.0670(8)
H23 H 0.5078 0.3823 -0.0767
C38 C 0.6188(7) 0.2985(6) -0.1550(8)
H24 H 0.5971 0.2958 -0.1281
C39 C 0.4422(8) 0.4349(5) -0.0074(8)
H25 H 0.4396 0.4551 0.0226
C40 C 0.6668(7) 0.3416(6) -0.2167(9)
H26 H 0.6752 0.3662 -0.2269
C41 C 0.6118(7) 0.2082(7) 0.0506(12)
H27 H 0.5853 0.2100 0.0364
H28 H 0.6277 0.2071 0.0107
C42 C 0.6175(13) 0.1718(9) 0.0920(16)
H29 H 0.5989 0.1725 0.1283
H30 H 0.6105 0.1503 0.0634
C43 C 0.647(2) 0.1646(14) 0.116(4)
H31 H 0.6448 0.1423 0.1440
H32 H 0.6557 0.1859 0.1427
H33 H 0.6656 0.1596 0.0811
C44 C 0.6928(11) 0.2566(12) 0.227(2)
H34 H 0.7189 0.2496 0.2156
H35 H 0.6756 0.2358 0.2146
C45 C 0.689(2) 0.2682(15) 0.301(3)
H36 H 0.6686 0.2867 0.3102
H37 H 0.7124 0.2739 0.3239
C46 C 0.6755(8) 0.2238(11) 0.302(2)
H38 H 0.6965 0.2082 0.3169
H39 H 0.6677 0.2160 0.2579
H40 H 0.6543 0.2208 0.3327
C47 C 0.6430(6) 0.3668(7) 0.3873(11)
H41 H 0.6236 0.3866 0.3917
H42 H 0.6682 0.3785 0.3914
C48 C 0.6375(7) 0.3357(8) 0.4391(13)
H43 H 0.6614 0.3225 0.4486
H44 H 0.6184 0.3172 0.4249
C49 C 0.6214(15) 0.3629(12) 0.5103(19)
H45 H 0.6182 0.3461 0.5482
H46 H 0.5973 0.3749 0.4999
H47 H 0.6400 0.3822 0.5210
C50 C 0.5744(4) 0.2801(6) 0.2593(9)
H48 H 0.5557 0.2922 0.2885
H49 H 0.5975 0.2759 0.2854
C51 C 0.5579(6) 0.2394(7) 0.2353(12)
H50 H 0.5351 0.2431 0.2082
H51 H 0.5769 0.2263 0.2080
C52 C 0.5481(7) 0.2148(6) 0.2980(11)
H52 H 0.5389 0.1902 0.2839
H53 H 0.5287 0.2275 0.3240
H54 H 0.5707 0.2116 0.3250
C38L C 0.4515(6) 0.3688(7) -0.0950(8)
C29L C 0.4158(6) 0.3853(6) -0.0756(9)
S1L S 0.37562(16) 0.36450(19) -0.1140(2)
O1L O 0.3865(3) 0.3238(4) -0.1192(4)
O2L O 0.3400(3) 0.3750(3) -0.0816(5)
N1L N 0.3715(4) 0.3815(4) -0.1899(6)
C5L C 0.4038(7) 0.3792(10) -0.2318(10)
C4L C 0.4165(6) 0.3453(8) -0.2562(11)
C3L C 0.4493(9) 0.3436(7) -0.2958(9)
C2L C 0.4701(5) 0.3776(10) -0.3092(9)
O5L O 0.5049(4) 0.3728(3) -0.3437(5)
C41L C 0.5418(7) 0.3618(7) -0.3006(12)
H27L H 0.5400 0.3353 -0.2864
H28L H 0.5429 0.3777 -0.2607
C42L C 0.5782(9) 0.3675(13) -0.3420(16)
H29L H 0.5775 0.3489 -0.3783
H30L H 0.5997 0.3605 -0.3134
C43L C 0.5854(14) 0.397(2) -0.366(4)
H31L H 0.6077 0.3948 -0.3940
H32L H 0.5641 0.4057 -0.3927
H33L H 0.5904 0.4156 -0.3311
C1L C 0.4565(8) 0.4127(7) -0.2913(11)
C6L C 0.4238(8) 0.4122(7) -0.2496(10)
H2L H 0.4151 0.4355 -0.2329
C7L C 0.4767(7) 0.4534(9) -0.3114(14)
H3L H 0.4977 0.4496 -0.3426
H4L H 0.4860 0.4668 -0.2718
C8L C 0.4481(10) 0.4720(11) -0.3398(15)
C9L C 0.4251(10) 0.5085(10) -0.3223(16)
H5L H 0.4322 0.5199 -0.2818
C10L C 0.3962(8) 0.5272(10) -0.355(2)
H6L H 0.3829 0.5482 -0.3381
C11L C 0.3893(6) 0.5108(6) -0.4172(11)
H7L H 0.3700 0.5204 -0.4448
C12L C 0.4132(9) 0.4772(7) -0.4397(11)
C13L C 0.4413(8) 0.4640(10) -0.402(2)
O6L O 0.4565(6) 0.4313(4) -0.4443(7)
C44L C 0.4934(12) 0.4428(11) -0.477(2)
H34L H 0.5004 0.4689 -0.4656
H35L H 0.5142 0.4256 -0.4646
C45L C 0.4818(15) 0.439(2) -0.551(3)
H36L H 0.4633 0.4186 -0.5602
H37L H 0.4761 0.4624 -0.5739
C46L C 0.5262(11) 0.4255(8) -0.552(2)
H38L H 0.5418 0.4465 -0.5669
H39L H 0.5340 0.4177 -0.5079
H40L H 0.5292 0.4043 -0.5827
C14L C 0.3877(6) 0.4627(5) -0.5114(8)
H8L H 0.4049 0.4570 -0.5483
H9L H 0.3697 0.4823 -0.5255
C15L C 0.3671(6) 0.4273(5) -0.4885(10)
C16L C 0.3779(6) 0.3925(7) -0.5212(10)
O7L O 0.4037(3) 0.3892(3) -0.5722(7)
C47L C 0.3832(7) 0.3930(6) -0.6373(11)
H41L H 0.3634 0.3736 -0.6417
H42L H 0.3715 0.4182 -0.6414
C48L C 0.4143(8) 0.3875(7) -0.6891(13)
H43L H 0.4275 0.4114 -0.6986
H44L H 0.4328 0.3684 -0.6749
C49L C 0.3871(12) 0.3714(15) -0.7603(19)
H45L H 0.4039 0.3682 -0.7982
H46L H 0.3751 0.3473 -0.7499
H47L H 0.3678 0.3900 -0.7710
C17L C 0.3636(5) 0.3588(6) -0.4991(8)
C18L C 0.3360(5) 0.3607(5) -0.4462(9)
H10L H 0.3263 0.3376 -0.4304
C19L C 0.3215(6) 0.3958(5) -0.4145(10)
N2L N 0.2955(4) 0.3995(4) -0.3629(7)
S2L S 0.26059(16) 0.37378(17) -0.3502(3)
O3L O 0.2437(3) 0.3627(2) -0.4104(6)
O4L O 0.2396(3) 0.3941(3) -0.3002(6)
C30L C 0.2779(4) 0.3313(6) -0.3159(10)
C31L C 0.2976(6) 0.3322(7) -0.2545(15)
H19L H 0.3018 0.3559 -0.2345
C32L C 0.3107(5) 0.3015(8) -0.2231(9)
H20L H 0.3217 0.3041 -0.1807
C33L C 0.3084(4) 0.2647(10) -0.2524(9)
C34L C 0.2877(5) 0.2620(5) -0.3153(9)
H21L H 0.2841 0.2385 -0.3363
C35L C 0.2738(4) 0.2946(7) -0.3427(7)
H22L H 0.2603 0.2923 -0.3828
C36L C 0.3267(5) 0.2283(7) -0.2246(9)
C37L C 0.3596(6) 0.2330(7) -0.1830(8)
H23L H 0.3677 0.2578 -0.1733
C38G C 0.3812(7) 0.2015(6) -0.1550(8)
C29G C 0.3647(6) 0.1658(6) -0.1744(9)
S1G S 0.38550(19) 0.12562(16) -0.1360(2)
O1G O 0.4262(4) 0.1365(3) -0.1308(4)
O2G O 0.3750(3) 0.0900(3) -0.1684(5)
N1G N 0.3685(4) 0.1215(4) -0.0601(6)
C5G C 0.3708(10) 0.1538(7) -0.0182(10)
C4G C 0.4047(8) 0.1665(6) 0.0062(11)
C3G C 0.4064(7) 0.1993(9) 0.0458(9)
C2G C 0.3724(10) 0.2201(5) 0.0592(9)
O5G O 0.3772(3) 0.2549(4) 0.0937(5)
C41G C 0.3882(7) 0.2918(7) 0.0506(12)
H27G H 0.4147 0.2900 0.0364
H28G H 0.3723 0.2929 0.0107
C42G C 0.3825(13) 0.3282(9) 0.0920(16)
H29G H 0.4011 0.3275 0.1283
H30G H 0.3895 0.3497 0.0634
C43G C 0.353(2) 0.3354(14) 0.116(4)
H31G H 0.3552 0.3577 0.1440
H32G H 0.3443 0.3141 0.1427
H33G H 0.3344 0.3404 0.0811
C1G C 0.3373(7) 0.2065(8) 0.0413(11)
C6G C 0.3378(7) 0.1738(8) -0.0004(10)
H2G H 0.3145 0.1651 -0.0171
C7G C 0.2966(9) 0.2267(7) 0.0614(14)
H3G H 0.3004 0.2477 0.0926
H4G H 0.2832 0.2360 0.0218
C8G C 0.2780(11) 0.1981(10) 0.0898(15)
C9G C 0.2415(10) 0.1751(10) 0.0723(16)
H5G H 0.2301 0.1822 0.0318
C10G C 0.2228(10) 0.1462(8) 0.105(2)
H6G H 0.2018 0.1329 0.0881
C11G C 0.2392(6) 0.1393(6) 0.1672(11)
H7G H 0.2296 0.1200 0.1948
C12G C 0.2728(7) 0.1632(9) 0.1897(11)
C13G C 0.2860(10) 0.1913(8) 0.152(2)
O6G O 0.3187(4) 0.2065(6) 0.1943(7)
C44G C 0.3072(11) 0.2434(12) 0.227(2)
H34G H 0.2811 0.2504 0.2156
H35G H 0.3244 0.2642 0.2146
C45G C 0.311(2) 0.2318(15) 0.301(3)
H36G H 0.3314 0.2133 0.3102
H37G H 0.2876 0.2261 0.3239
C46G C 0.3245(8) 0.2762(11) 0.302(2)
H38G H 0.3035 0.2918 0.3169
H39G H 0.3323 0.2840 0.2579
H40G H 0.3457 0.2792 0.3327
C14G C 0.2873(5) 0.1377(6) 0.2614(8)
H8G H 0.2930 0.1549 0.2983
H9G H 0.2677 0.1197 0.2755
C15G C 0.3227(5) 0.1171(6) 0.2385(10)
C16G C 0.3575(7) 0.1279(6) 0.2712(10)
O7G O 0.3608(3) 0.1537(3) 0.3222(7)
C47G C 0.3570(6) 0.1332(7) 0.3873(11)
H41G H 0.3764 0.1134 0.3917
H42G H 0.3318 0.1215 0.3914
C48G C 0.3625(7) 0.1643(8) 0.4391(13)
H43G H 0.3386 0.1775 0.4486
H44G H 0.3816 0.1828 0.4249
C49G C 0.3786(15) 0.1371(12) 0.5103(19)
H45G H 0.3818 0.1539 0.5482
H46G H 0.4027 0.1251 0.4999
H47G H 0.3600 0.1178 0.5210
C17G C 0.3912(6) 0.1136(5) 0.2491(8)
C18G C 0.3893(5) 0.0860(5) 0.1962(9)
H10G H 0.4124 0.0763 0.1804
C19G C 0.3542(5) 0.0715(6) 0.1645(10)
N2G N 0.3505(4) 0.0455(4) 0.1129(7)
S2G S 0.37622(17) 0.01059(16) 0.1002(3)
O3G O 0.3873(2) -0.0063(3) 0.1604(6)
O4G O 0.3559(3) -0.0104(3) 0.0502(6)
C30G C 0.4187(6) 0.0279(4) 0.0659(10)
C31G C 0.4178(7) 0.0476(6) 0.0045(15)
H19G H 0.3941 0.0518 -0.0155
C32G C 0.4485(8) 0.0607(5) -0.0269(9)
H20G H 0.4459 0.0717 -0.0693
C33G C 0.4853(10) 0.0584(4) 0.0024(9)
C34G C 0.4880(5) 0.0377(5) 0.0653(9)
H21G H 0.5115 0.0341 0.0863
C35G C 0.4554(7) 0.0238(4) 0.0927(7)
H22G H 0.4577 0.0103 0.1328
C36G C 0.5217(7) 0.0767(5) -0.0254(9)
C37G C 0.5170(7) 0.1096(6) -0.0670(8)
H23G H 0.4922 0.1177 -0.0767
C38I C 0.5485(6) 0.1312(7) -0.0950(8)
C29I C 0.5842(6) 0.1147(6) -0.0756(9)
S1I S 0.62438(16) 0.13550(19) -0.1140(2)
O1I O 0.6135(3) 0.1762(4) -0.1192(4)
O2I O 0.6600(3) 0.1250(3) -0.0816(5)
N1I N 0.6285(4) 0.1185(4) -0.1899(6)
C5I C 0.5962(7) 0.1208(10) -0.2318(10)
C4I C 0.5835(6) 0.1547(8) -0.2562(11)
C3I C 0.5507(9) 0.1564(7) -0.2958(9)
C2I C 0.5299(5) 0.1224(10) -0.3092(9)
O5I O 0.4951(4) 0.1272(3) -0.3437(5)
C41I C 0.4582(7) 0.1382(7) -0.3006(12)
H27I H 0.4600 0.1647 -0.2864
H28I H 0.4571 0.1223 -0.2607
C42I C 0.4218(9) 0.1325(13) -0.3420(16)
H29I H 0.4225 0.1511 -0.3783
H30I H 0.4003 0.1395 -0.3134
C43I C 0.4146(14) 0.103(2) -0.366(4)
H31I H 0.3923 0.1052 -0.3940
H32I H 0.4359 0.0943 -0.3927
H33I H 0.4096 0.0844 -0.3311
C1I C 0.5435(8) 0.0873(7) -0.2913(11)
C6I C 0.5762(8) 0.0878(7) -0.2496(10)
H2I H 0.5849 0.0645 -0.2329
C7I C 0.5233(7) 0.0466(9) -0.3114(14)
H3I H 0.5023 0.0504 -0.3426
H4I H 0.5140 0.0332 -0.2718
C8I C 0.5519(10) 0.0280(11) -0.3398(15)
C9I C 0.5749(10) -0.0085(10) -0.3223(16)
H5I H 0.5678 -0.0199 -0.2818
C10I C 0.6038(8) -0.0272(10) -0.355(2)
H6I H 0.6171 -0.0482 -0.3381
C11I C 0.6107(6) -0.0108(6) -0.4172(11)
H7I H 0.6300 -0.0204 -0.4448
C12I C 0.5868(9) 0.0228(7) -0.4397(11)
C13I C 0.5587(8) 0.0360(10) -0.402(2)
O6I O 0.5435(6) 0.0687(4) -0.4443(7)
C44I C 0.5066(12) 0.0572(11) -0.477(2)
H34I H 0.4996 0.0311 -0.4656
H35I H 0.4858 0.0744 -0.4646
C45I C 0.5182(15) 0.061(2) -0.551(3)
H36I H 0.5367 0.0814 -0.5602
H37I H 0.5239 0.0376 -0.5739
C46I C 0.4738(11) 0.0745(8) -0.552(2)
H38I H 0.4582 0.0535 -0.5669
H39I H 0.4660 0.0823 -0.5079
H40I H 0.4708 0.0957 -0.5827
C14I C 0.6123(6) 0.0373(5) -0.5114(8)
H8I H 0.5951 0.0430 -0.5483
H9I H 0.6303 0.0177 -0.5255
C15I C 0.6329(6) 0.0727(5) -0.4885(10)
C16I C 0.6221(6) 0.1075(7) -0.5212(10)
O7I O 0.5963(3) 0.1108(3) -0.5722(7)
C47I C 0.6168(7) 0.1070(6) -0.6373(11)
H41I H 0.6366 0.1264 -0.6417
H42I H 0.6285 0.0818 -0.6414
C48I C 0.5857(8) 0.1125(7) -0.6891(13)
H43I H 0.5725 0.0886 -0.6986
H44I H 0.5672 0.1316 -0.6749
C49I C 0.6129(12) 0.1286(15) -0.7603(19)
H45I H 0.5961 0.1318 -0.7982
H46I H 0.6249 0.1527 -0.7499
H47I H 0.6322 0.1100 -0.7710
C17I C 0.6364(5) 0.1412(6) -0.4991(8)
C18I C 0.6640(5) 0.1393(5) -0.4462(9)
H10I H 0.6737 0.1624 -0.4304
C19I C 0.6785(6) 0.1042(5) -0.4145(10)
N2I N 0.7045(4) 0.1005(4) -0.3629(7)
S2I S 0.73941(16) 0.12622(17) -0.3502(3)
O3I O 0.7563(3) 0.1373(2) -0.4104(6)
O4I O 0.7604(3) 0.1059(3) -0.3002(6)
C30I C 0.7221(4) 0.1687(6) -0.3159(10)
C31I C 0.7024(6) 0.1678(7) -0.2545(15)
H19I H 0.6982 0.1441 -0.2345
C32I C 0.6893(5) 0.1985(8) -0.2231(9)
H20I H 0.6783 0.1959 -0.1807
C33I C 0.6916(4) 0.2353(10) -0.2524(9)
C34I C 0.7123(5) 0.2380(5) -0.3153(9)
H21I H 0.7159 0.2615 -0.3363
C35I C 0.7262(4) 0.2054(7) -0.3427(7)
H22I H 0.7397 0.2077 -0.3828
C36I C 0.6733(5) 0.2717(7) -0.2246(9)
C37I C 0.6404(6) 0.2670(7) -0.1830(8)
H23I H 0.6323 0.2422 -0.1733
C39I C 0.6849(5) 0.3078(8) -0.2426(8)
H25I H 0.7051 0.3104 -0.2726
C20I C 0.6603(5) 0.0734(6) -0.4404(9)
H11I H 0.6675 0.0498 -0.4229
C21I C 0.6259(4) 0.1820(4) -0.5233(6)
H12I H 0.6064 0.1802 -0.5579
H13I H 0.6484 0.1939 -0.5429
C22I C 0.6110(5) 0.2071(5) -0.4659(7)
C23I C 0.6311(5) 0.2386(5) -0.4434(9)
H14I H 0.6520 0.2466 -0.4689
C24I C 0.6229(6) 0.2587(6) -0.3872(12)
H15I H 0.6383 0.2791 -0.3740
C25I C 0.5922(8) 0.2489(5) -0.3509(10)
H16I H 0.5853 0.2637 -0.3140
C26I C 0.5699(5) 0.2160(7) -0.3678(9)
C27I C 0.5803(5) 0.1966(4) -0.4293(8)
O8I O 0.5572(3) 0.1665(3) -0.4515(4)
C50I C 0.5301(6) 0.1756(4) -0.5093(9)
H48I H 0.5422 0.1943 -0.5385
H49I H 0.5259 0.1525 -0.5354
C51I C 0.4894(7) 0.1921(6) -0.4853(12)
H50I H 0.4931 0.2149 -0.4582
H51I H 0.4763 0.1731 -0.4580
C52I C 0.4648(6) 0.2019(7) -0.5480(11)
H52I H 0.4402 0.2111 -0.5339
H53I H 0.4775 0.2213 -0.5740
H54I H 0.4616 0.1793 -0.5750
C28I C 0.5358(4) 0.1955(5) -0.3261(8)
H17I H 0.5142 0.1907 -0.3557
H18I H 0.5273 0.2122 -0.2901
H1I H 0.5968 0.1771 -0.2465
C40I C 0.5916(6) 0.0832(7) -0.0333(9)
C39G C 0.5578(8) 0.0651(5) -0.0074(8)
H25G H 0.5604 0.0449 0.0226
H26I H 0.6162 0.0748 -0.0231
H24I H 0.5458 0.1529 -0.1219
C20G C 0.3234(6) 0.0897(5) 0.1904(9)
H11G H 0.2998 0.0825 0.1729
C21G C 0.4320(4) 0.1241(4) 0.2733(6)
H12G H 0.4302 0.1436 0.3079
H13G H 0.4439 0.1016 0.2929
C22G C 0.4571(5) 0.1390(5) 0.2159(7)
C23G C 0.4886(5) 0.1189(5) 0.1934(9)
H14G H 0.4966 0.0980 0.2189
C24G C 0.5087(6) 0.1271(6) 0.1372(12)
H15G H 0.5291 0.1117 0.1240
C25G C 0.4989(5) 0.1578(8) 0.1009(10)
H16G H 0.5137 0.1647 0.0640
C26G C 0.4660(7) 0.1801(5) 0.1178(9)
C27G C 0.4466(4) 0.1697(5) 0.1793(8)
O8G O 0.4165(3) 0.1928(3) 0.2015(4)
C50G C 0.4256(4) 0.2199(6) 0.2593(9)
H48G H 0.4443 0.2078 0.2885
H49G H 0.4025 0.2241 0.2854
C51G C 0.4421(6) 0.2606(7) 0.2353(12)
H50G H 0.4649 0.2569 0.2082
H51G H 0.4231 0.2737 0.2080
C52G C 0.4519(7) 0.2852(6) 0.2980(11)
H52G H 0.4611 0.3098 0.2839
H53G H 0.4713 0.2725 0.3240
H54G H 0.4293 0.2884 0.3250
C28G C 0.4455(5) 0.2142(4) 0.0761(8)
H17G H 0.4407 0.2358 0.1057
H18G H 0.4622 0.2227 0.0401
H1G H 0.4271 0.1532 -0.0035
C40G C 0.3332(7) 0.1584(6) -0.2167(9)
C39L C 0.3151(5) 0.1922(8) -0.2426(8)
H25L H 0.2949 0.1896 -0.2726
H26G H 0.3248 0.1338 -0.2269
H24G H 0.4029 0.2042 -0.1281
C20L C 0.3397(5) 0.4266(6) -0.4404(9)
H11L H 0.3325 0.4502 -0.4229
C21L C 0.3741(4) 0.3180(4) -0.5233(6)
H12L H 0.3936 0.3198 -0.5579
H13L H 0.3516 0.3061 -0.5429
C22L C 0.3890(5) 0.2929(5) -0.4659(7)
C23L C 0.3689(5) 0.2614(5) -0.4434(9)
H14L H 0.3480 0.2534 -0.4689
C24L C 0.3771(6) 0.2413(6) -0.3872(12)
H15L H 0.3617 0.2209 -0.3740
C25L C 0.4078(8) 0.2511(5) -0.3509(10)
H16L H 0.4147 0.2363 -0.3140
C26L C 0.4301(5) 0.2840(7) -0.3678(9)
C27L C 0.4197(5) 0.3034(4) -0.4293(8)
O8L O 0.4428(3) 0.3335(3) -0.4515(4)
C50L C 0.4699(6) 0.3244(4) -0.5093(9)
H48L H 0.4578 0.3057 -0.5385
H49L H 0.4741 0.3475 -0.5354
C51L C 0.5106(7) 0.3079(6) -0.4853(12)
H50L H 0.5069 0.2851 -0.4582
H51L H 0.5237 0.3269 -0.4580
C52L C 0.5352(6) 0.2981(7) -0.5480(11)
H52L H 0.5598 0.2889 -0.5339
H53L H 0.5225 0.2787 -0.5740
H54L H 0.5384 0.3207 -0.5750
C28L C 0.4642(4) 0.3045(5) -0.3261(8)
H17L H 0.4858 0.3093 -0.3557
H18L H 0.4727 0.2878 -0.2901
H1L H 0.4032 0.3229 -0.2465
C40L C 0.4084(6) 0.4168(7) -0.0333(9)
H26L H 0.3838 0.4252 -0.0231
H24L H 0.4542 0.3471 -0.1219
O9 O 0.7300(3) 0.3533(3) 0.5964(5)
O10 O 0.5198(2) 0.2901(3) -0.1566(7)
O11 O 0.7011(5) 0.4274(4) -0.0066(15)
O12 O 0.7180(4) 0.2099(4) -0.0659(6)
C53 C 0.7489(7) 0.1884(8) -0.0375(10)
O13 O 0.7449(5) 0.1695(6) 0.0504(9)
C54 C 0.7540(5) 0.1291(6) 0.0315(9)
loop_
_geom_bond_atom_site_label_1
_geom_bond_atom_site_label_2
_geom_bond_site_symmetry_1
_geom_bond_site_symmetry_2
S1 O1 1_555 1_555
S2 O3 1_555 1_555
O2 S1 1_555 1_555
O4 S2 1_555 1_555
O5 C2 1_555 1_555
O6 C13 1_555 1_555
O7 C16 1_555 1_555
O8 C27 1_555 1_555
N1 S1 1_555 1_555
N2 S2 1_555 1_555
C1 C2 1_555 1_555
C2 C3 1_555 1_555
C3 C4 1_555 1_555
C4 H1 1_555 1_555
C5 N1 1_555 1_555
C6 C1 1_555 1_555
H2 C6 1_555 1_555
C7 C1 1_555 1_555
H3 C7 1_555 1_555
H4 C7 1_555 1_555
C8 C7 1_555 1_555
C9 C8 1_555 1_555
H5 C9 1_555 1_555
C10 C9 1_555 1_555
H6 C10 1_555 1_555
C11 C10 1_555 1_555
H7 C11 1_555 1_555
C12 C11 1_555 1_555
C13 C8 1_555 1_555
C14 C12 1_555 1_555
H8 C14 1_555 1_555
H9 C14 1_555 1_555
C15 C14 1_555 1_555
C16 C15 1_555 1_555
C17 C16 1_555 1_555
C18 C17 1_555 1_555
H10 C18 1_555 1_555
C19 N2 1_555 1_555
C20 C15 1_555 1_555
H11 C20 1_555 1_555
C21 C17 1_555 1_555
H12 C21 1_555 1_555
H13 C21 1_555 1_555
C22 C21 1_555 1_555
C23 C22 1_555 1_555
H14 C23 1_555 1_555
C24 C23 1_555 1_555
H15 C24 1_555 1_555
C25 C24 1_555 1_555
H16 C25 1_555 1_555
C26 C25 1_555 1_555
C27 C22 1_555 1_555
C28 C3 1_555 1_555
H17 C28 1_555 1_555
H18 C28 1_555 1_555
C29 S1 1_555 1_555
C30 S2 1_555 1_555
C31 C30 1_555 1_555
H19 C31 1_555 1_555
C32 C31 1_555 1_555
H20 C32 1_555 1_555
C33 C32 1_555 1_555
C34 C33 1_555 1_555
H21 C34 1_555 1_555
C35 C30 1_555 1_555
H22 C35 1_555 1_555
C36 C33 1_555 1_555
C37 C36 1_555 1_555
H23 C37 1_555 1_555
C38 C29 1_555 1_555
H24 C38 1_555 1_555
C39 C36 1_555 1_555
H25 C39 1_555 1_555
C40 C29 1_555 1_555
H26 C40 1_555 1_555
C41 O5 1_555 1_555
H27 C41 1_555 1_555
H28 C41 1_555 1_555
C42 C41 1_555 1_555
H29 C42 1_555 1_555
H30 C42 1_555 1_555
C43 C42 1_555 1_555
H31 C43 1_555 1_555
H32 C43 1_555 1_555
H33 C43 1_555 1_555
C44 O6 1_555 1_555
H34 C44 1_555 1_555
H35 C44 1_555 1_555
C45 C44 1_555 1_555
H36 C45 1_555 1_555
H37 C45 1_555 1_555
C46 C45 1_555 1_555
H38 C46 1_555 1_555
H39 C46 1_555 1_555
H40 C46 1_555 1_555
C47 O7 1_555 1_555
H41 C47 1_555 1_555
H42 C47 1_555 1_555
C48 C47 1_555 1_555
H43 C48 1_555 1_555
H44 C48 1_555 1_555
C49 C48 1_555 1_555
H45 C49 1_555 1_555
H46 C49 1_555 1_555
H47 C49 1_555 1_555
C50 O8 1_555 1_555
H48 C50 1_555 1_555
H49 C50 1_555 1_555
C51 C50 1_555 1_555
H50 C51 1_555 1_555
H51 C51 1_555 1_555
C52 C51 1_555 1_555
H52 C52 1_555 1_555
H53 C52 1_555 1_555
H54 C52 1_555 1_555
O12 C53 1_555 1_555
O13 C54 1_555 1_555
C38L C37 1_555 1_555
C29L C38L 1_555 1_555
S1L C29L 1_555 1_555
O1L S1L 1_555 1_555
O2L S1L 1_555 1_555
N1L S1L 1_555 1_555
C5L N1L 1_555 1_555
C4L C5L 1_555 1_555
C3L C4L 1_555 1_555
C2L C3L 1_555 1_555
O5L C2L 1_555 1_555
C41L O5L 1_555 1_555
H27L C41L 1_555 1_555
H28L C41L 1_555 1_555
C42L C41L 1_555 1_555
H29L C42L 1_555 1_555
H30L C42L 1_555 1_555
C43L C42L 1_555 1_555
H31L C43L 1_555 1_555
H32L C43L 1_555 1_555
H33L C43L 1_555 1_555
C1L C2L 1_555 1_555
C6L C5L 1_555 1_555
H2L C6L 1_555 1_555
C7L C1L 1_555 1_555
H3L C7L 1_555 1_555
H4L C7L 1_555 1_555
C8L C7L 1_555 1_555
C9L C8L 1_555 1_555
H5L C9L 1_555 1_555
C10L C9L 1_555 1_555
H6L C10L 1_555 1_555
C11L C10L 1_555 1_555
H7L C11L 1_555 1_555
C12L C11L 1_555 1_555
C13L C8L 1_555 1_555
O6L C13L 1_555 1_555
C44L O6L 1_555 1_555
H34L C44L 1_555 1_555
H35L C44L 1_555 1_555
C45L C44L 1_555 1_555
H36L C45L 1_555 1_555
H37L C45L 1_555 1_555
C46L C45L 1_555 1_555
H38L C46L 1_555 1_555
H39L C46L 1_555 1_555
H40L C46L 1_555 1_555
C14L C12L 1_555 1_555
H8L C14L 1_555 1_555
H9L C14L 1_555 1_555
C15L C14L 1_555 1_555
C16L C15L 1_555 1_555
O7L C16L 1_555 1_555
C47L O7L 1_555 1_555
H41L C47L 1_555 1_555
H42L C47L 1_555 1_555
C48L C47L 1_555 1_555
H43L C48L 1_555 1_555
H44L C48L 1_555 1_555
C49L C48L 1_555 1_555
H45L C49L 1_555 1_555
H46L C49L 1_555 1_555
H47L C49L 1_555 1_555
C17L C16L 1_555 1_555
C18L C17L 1_555 1_555
H10L C18L 1_555 1_555
C19L C18L 1_555 1_555
N2L C19L 1_555 1_555
S2L N2L 1_555 1_555
O3L S2L 1_555 1_555
O4L S2L 1_555 1_555
C30L S2L 1_555 1_555
C31L C30L 1_555 1_555
H19L C31L 1_555 1_555
C32L C31L 1_555 1_555
H20L C32L 1_555 1_555
C33L C32L 1_555 1_555
C34L C33L 1_555 1_555
H21L C34L 1_555 1_555
C35L C30L 1_555 1_555
H22L C35L 1_555 1_555
C36L C33L 1_555 1_555
C37L C36L 1_555 1_555
H23L C37L 1_555 1_555
C38G C37L 1_555 1_555
C29G C38G 1_555 1_555
S1G C29G 1_555 1_555
O1G S1G 1_555 1_555
O2G S1G 1_555 1_555
N1G S1G 1_555 1_555
C5G N1G 1_555 1_555
C4G C5G 1_555 1_555
C3G C4G 1_555 1_555
C2G C3G 1_555 1_555
O5G C2G 1_555 1_555
C41G O5G 1_555 1_555
H27G C41G 1_555 1_555
H28G C41G 1_555 1_555
C42G C41G 1_555 1_555
H29G C42G 1_555 1_555
H30G C42G 1_555 1_555
C43G C42G 1_555 1_555
H31G C43G 1_555 1_555
H32G C43G 1_555 1_555
H33G C43G 1_555 1_555
C1G C2G 1_555 1_555
C6G C5G 1_555 1_555
H2G C6G 1_555 1_555
C7G C1G 1_555 1_555
H3G C7G 1_555 1_555
H4G C7G 1_555 1_555
C8G C7G 1_555 1_555
C9G C8G 1_555 1_555
H5G C9G 1_555 1_555
C10G C9G 1_555 1_555
H6G C10G 1_555 1_555
C11G C10G 1_555 1_555
H7G C11G 1_555 1_555
C12G C11G 1_555 1_555
C13G C8G 1_555 1_555
O6G C13G 1_555 1_555
C44G O6G 1_555 1_555
H34G C44G 1_555 1_555
H35G C44G 1_555 1_555
C45G C44G 1_555 1_555
H36G C45G 1_555 1_555
H37G C45G 1_555 1_555
C46G C45G 1_555 1_555
H38G C46G 1_555 1_555
H39G C46G 1_555 1_555
H40G C46G 1_555 1_555
C14G C12G 1_555 1_555
H8G C14G 1_555 1_555
H9G C14G 1_555 1_555
C15G C14G 1_555 1_555
C16G C15G 1_555 1_555
O7G C16G 1_555 1_555
C47G O7G 1_555 1_555
H41G C47G 1_555 1_555
H42G C47G 1_555 1_555
C48G C47G 1_555 1_555
H43G C48G 1_555 1_555
H44G C48G 1_555 1_555
C49G C48G 1_555 1_555
H45G C49G 1_555 1_555
H46G C49G 1_555 1_555
H47G C49G 1_555 1_555
C17G C16G 1_555 1_555
C18G C17G 1_555 1_555
H10G C18G 1_555 1_555
C19G C18G 1_555 1_555
N2G C19G 1_555 1_555
S2G N2G 1_555 1_555
O3G S2G 1_555 1_555
O4G S2G 1_555 1_555
C30G S2G 1_555 1_555
C31G C30G 1_555 1_555
H19G C31G 1_555 1_555
C32G C31G 1_555 1_555
H20G C32G 1_555 1_555
C33G C32G 1_555 1_555
C34G C33G 1_555 1_555
H21G C34G 1_555 1_555
C35G C30G 1_555 1_555
H22G C35G 1_555 1_555
C36G C33G 1_555 1_555
C37G C36G 1_555 1_555
H23G C37G 1_555 1_555
C38I C37G 1_555 1_555
C29I C38I 1_555 1_555
S1I C29I 1_555 1_555
O1I S1I 1_555 1_555
O2I S1I 1_555 1_555
N1I S1I 1_555 1_555
C5I N1I 1_555 1_555
C4I C5I 1_555 1_555
C3I C4I 1_555 1_555
C2I C3I 1_555 1_555
O5I C2I 1_555 1_555
C41I O5I 1_555 1_555
H27I C41I 1_555 1_555
H28I C41I 1_555 1_555
C42I C41I 1_555 1_555
H29I C42I 1_555 1_555
H30I C42I 1_555 1_555
C43I C42I 1_555 1_555
H31I C43I 1_555 1_555
H32I C43I 1_555 1_555
H33I C43I 1_555 1_555
C1I C2I 1_555 1_555
C6I C5I 1_555 1_555
H2I C6I 1_555 1_555
C7I C1I 1_555 1_555
H3I C7I 1_555 1_555
H4I C7I 1_555 1_555
C8I C7I 1_555 1_555
C9I C8I 1_555 1_555
H5I C9I 1_555 1_555
C10I C9I 1_555 1_555
H6I C10I 1_555 1_555
C11I C10I 1_555 1_555
H7I C11I 1_555 1_555
C12I C11I 1_555 1_555
C13I C8I 1_555 1_555
O6I C13I 1_555 1_555
C44I O6I 1_555 1_555
H34I C44I 1_555 1_555
H35I C44I 1_555 1_555
C45I C44I 1_555 1_555
H36I C45I 1_555 1_555
H37I C45I 1_555 1_555
C46I C45I 1_555 1_555
H38I C46I 1_555 1_555
H39I C46I 1_555 1_555
H40I C46I 1_555 1_555
C14I C12I 1_555 1_555
H8I C14I 1_555 1_555
H9I C14I 1_555 1_555
C15I C14I 1_555 1_555
C16I C15I 1_555 1_555
O7I C16I 1_555 1_555
C47I O7I 1_555 1_555
H41I C47I 1_555 1_555
H42I C47I 1_555 1_555
C48I C47I 1_555 1_555
H43I C48I 1_555 1_555
H44I C48I 1_555 1_555
C49I C48I 1_555 1_555
H45I C49I 1_555 1_555
H46I C49I 1_555 1_555
H47I C49I 1_555 1_555
C17I C16I 1_555 1_555
C18I C17I 1_555 1_555
H10I C18I 1_555 1_555
C19I C18I 1_555 1_555
N2I C19I 1_555 1_555
S2I N2I 1_555 1_555
O3I S2I 1_555 1_555
O4I S2I 1_555 1_555
C30I S2I 1_555 1_555
C31I C30I 1_555 1_555
H19I C31I 1_555 1_555
C32I C31I 1_555 1_555
H20I C32I 1_555 1_555
C33I C32I 1_555 1_555
C34I C33I 1_555 1_555
H21I C34I 1_555 1_555
C35I C30I 1_555 1_555
H22I C35I 1_555 1_555
C36I C33I 1_555 1_555
C37I C38 1_555 1_555
H23I C37I 1_555 1_555
C39I C40 1_555 1_555
H25I C39I 1_555 1_555
C20I C15I 1_555 1_555
H11I C20I 1_555 1_555
C21I C17I 1_555 1_555
H12I C21I 1_555 1_555
H13I C21I 1_555 1_555
C22I C21I 1_555 1_555
C23I C22I 1_555 1_555
H14I C23I 1_555 1_555
C24I C23I 1_555 1_555
H15I C24I 1_555 1_555
C25I C24I 1_555 1_555
H16I C25I 1_555 1_555
C26I C25I 1_555 1_555
C27I C22I 1_555 1_555
O8I C27I 1_555 1_555
C50I O8I 1_555 1_555
H48I C50I 1_555 1_555
H49I C50I 1_555 1_555
C51I C50I 1_555 1_555
H50I C51I 1_555 1_555
H51I C51I 1_555 1_555
C52I C51I 1_555 1_555
H52I C52I 1_555 1_555
H53I C52I 1_555 1_555
H54I C52I 1_555 1_555
C28I C3I 1_555 1_555
H17I C28I 1_555 1_555
H18I C28I 1_555 1_555
H1I C4I 1_555 1_555
C40I C29I 1_555 1_555
C39G C36G 1_555 1_555
H25G C39G 1_555 1_555
H26I C40I 1_555 1_555
H24I C38I 1_555 1_555
C20G C15G 1_555 1_555
H11G C20G 1_555 1_555
C21G C17G 1_555 1_555
H12G C21G 1_555 1_555
H13G C21G 1_555 1_555
C22G C21G 1_555 1_555
C23G C22G 1_555 1_555
H14G C23G 1_555 1_555
C24G C23G 1_555 1_555
H15G C24G 1_555 1_555
C25G C24G 1_555 1_555
H16G C25G 1_555 1_555
C26G C25G 1_555 1_555
C27G C22G 1_555 1_555
O8G C27G 1_555 1_555
C50G O8G 1_555 1_555
H48G C50G 1_555 1_555
H49G C50G 1_555 1_555
C51G C50G 1_555 1_555
H50G C51G 1_555 1_555
H51G C51G 1_555 1_555
C52G C51G 1_555 1_555
H52G C52G 1_555 1_555
H53G C52G 1_555 1_555
H54G C52G 1_555 1_555
C28G C3G 1_555 1_555
H17G C28G 1_555 1_555
H18G C28G 1_555 1_555
H1G C4G 1_555 1_555
C40G C29G 1_555 1_555
C39L C36L 1_555 1_555
H25L C39L 1_555 1_555
H26G C40G 1_555 1_555
H24G C38G 1_555 1_555
C20L C15L 1_555 1_555
H11L C20L 1_555 1_555
C21L C17L 1_555 1_555
H12L C21L 1_555 1_555
H13L C21L 1_555 1_555
C22L C21L 1_555 1_555
C23L C22L 1_555 1_555
H14L C23L 1_555 1_555
C24L C23L 1_555 1_555
H15L C24L 1_555 1_555
C25L C24L 1_555 1_555
H16L C25L 1_555 1_555
C26L C25L 1_555 1_555
C27L C22L 1_555 1_555
O8L C27L 1_555 1_555
C50L O8L 1_555 1_555
H48L C50L 1_555 1_555
H49L C50L 1_555 1_555
C51L C50L 1_555 1_555
H50L C51L 1_555 1_555
H51L C51L 1_555 1_555
C52L C51L 1_555 1_555
H52L C52L 1_555 1_555
H53L C52L 1_555 1_555
H54L C52L 1_555 1_555
C28L C3L 1_555 1_555
H17L C28L 1_555 1_555
H18L C28L 1_555 1_555
H1L C4L 1_555 1_555
C40L C39 1_555 1_555
H26L C40L 1_555 1_555
H24L C38L 1_555 1_555
C4 C5 1_555 1_555
C5 C6 1_555 1_555
C12 C13 1_555 1_555
C18 C19 1_555 1_555
C19 C20 1_555 1_555
C26 C27 1_555 1_555
C26 C28 1_555 1_555
C34 C35 1_555 1_555
C29L C40L 1_555 1_555
C1L C6L 1_555 1_555
C12L C13L 1_555 1_555
C19L C20L 1_555 1_555
C34L C35L 1_555 1_555
C1G C6G 1_555 1_555
C12G C13G 1_555 1_555
C19G C20G 1_555 1_555
C34G C35G 1_555 1_555
C1I C6I 1_555 1_555
C12I C13I 1_555 1_555
C19I C20I 1_555 1_555
C34I C35I 1_555 1_555
C36I C37I 1_555 1_555
C36I C39I 1_555 1_555
C26I C27I 1_555 1_555
C26I C28I 1_555 1_555
C40I C39G 1_555 1_555
C26G C27G 1_555 1_555
C26G C28G 1_555 1_555
C40G C39L 1_555 1_555
C26L C27L 1_555 1_555
C26L C28L 1_555 1_555

#END
