
#######################################################################
#
#                 Cambridge Crystallographic Data Centre
#                                CCDC 
#
#######################################################################
#
# If this CIF has been generated from an entry in the Cambridge 
# Structural Database, then it will include bibliographic, chemical, 
# crystal, experimental, refinement or atomic coordinate data resulting 
# from the CCDC's data processing and validation procedures.
#
#######################################################################

data_OHIKEW
_chemical_formula_moiety         'C9 H10 N5 O1 1+,B1 F4 1-'
_chemical_name_systematic        
'3-(2-Amino-2-oxoethyl)-1-(pyrimidin-2-yl)-1H-imidazol-3-ium tetrafluoroborate'
_symmetry_cell_setting           monoclinic
_symmetry_space_group_name_H-M   'P 21/c'
_symmetry_Int_Tables_number      14
_space_group_name_Hall           '-P 2ybc'
loop_
_symmetry_equiv_pos_site_id
_symmetry_equiv_pos_as_xyz
1 x,y,z
2 -x,1/2+y,1/2-z
3 -x,-y,-z
4 x,1/2-y,1/2+z
_cell_length_a                   15.0019(17)
_cell_length_b                   5.3086(6)
_cell_length_c                   15.7979(17)
_cell_angle_alpha                90
_cell_angle_beta                 112.159(2)
_cell_angle_gamma                90
_cell_volume                     1165.21
_exptl_crystal_colour            colorless
_exptl_crystal_description       columnar
_cell_formula_units_Z            4
loop_
_atom_site_label
_atom_site_type_symbol
_atom_site_fract_x
_atom_site_fract_y
_atom_site_fract_z
F1 F 0.28961(7) 0.06646(17) 0.41459(7)
F2 F 0.37376(6) 0.42615(18) 0.41916(7)
F3 F 0.24997(7) 0.42358(18) 0.47015(6)
F4 F 0.21915(7) 0.3874(2) 0.31844(6)
B1 B 0.28289(12) 0.3273(3) 0.40527(12)
O1 O -0.43784(8) -0.2112(2) 0.31990(8)
N1 N -0.06603(9) -0.1967(2) 0.41519(8)
N2 N -0.04049(9) 0.1515(2) 0.33072(9)
N3 N -0.18078(8) 0.1236(2) 0.35773(8)
N4 N -0.31682(9) 0.1986(2) 0.36913(8)
N5 N -0.53185(9) -0.0674(3) 0.39216(9)
H1 H -0.5694 -0.2010 0.3778
H2 H -0.5430 0.0547 0.4245
C1 C 0.02047(11) -0.2874(3) 0.42274(10)
H3 H 0.0424 -0.4402 0.4552
C2 C 0.07870(11) -0.1679(3) 0.38535(10)
H4 H 0.1392 -0.2359 0.3907
C3 C 0.04481(11) 0.0549(3) 0.33987(10)
H5 H 0.0836 0.1430 0.3141
C4 C -0.08972(10) 0.0157(3) 0.36865(10)
C5 C -0.21871(11) 0.3357(3) 0.30576(10)
H6 H -0.1903 0.4303 0.2714
C6 C -0.30307(11) 0.3818(3) 0.31328(10)
H7 H -0.3458 0.5163 0.2852
C7 C -0.24230(10) 0.0421(3) 0.39540(10)
H8 H -0.2340 -0.1010 0.4337
C8 C -0.39984(11) 0.1897(3) 0.39637(11)
H9 H -0.4418 0.3367 0.3701
H10 H -0.3771 0.2015 0.4638
C9 C -0.45798(10) -0.0501(3) 0.36487(10)
loop_
_geom_bond_atom_site_label_1
_geom_bond_atom_site_label_2
_geom_bond_site_symmetry_1
_geom_bond_site_symmetry_2
F1 B1 1_555 1_555
F2 B1 1_555 1_555
F3 B1 1_555 1_555
F4 B1 1_555 1_555
O1 C9 1_555 1_555
N1 C1 1_555 1_555
N2 C3 1_555 1_555
N3 C4 1_555 1_555
N4 C6 1_555 1_555
N5 H1 1_555 1_555
H2 N5 1_555 1_555
C1 H3 1_555 1_555
C2 C1 1_555 1_555
H4 C2 1_555 1_555
C3 C2 1_555 1_555
H5 C3 1_555 1_555
C4 N1 1_555 1_555
C5 N3 1_555 1_555
H6 C5 1_555 1_555
C6 C5 1_555 1_555
H7 C6 1_555 1_555
C7 N3 1_555 1_555
H8 C7 1_555 1_555
C8 N4 1_555 1_555
H9 C8 1_555 1_555
H10 C8 1_555 1_555
C9 N5 1_555 1_555
N2 C4 1_555 1_555
N4 C7 1_555 1_555
C8 C9 1_555 1_555

#END
