
#######################################################################
#
#                 Cambridge Crystallographic Data Centre
#                                CCDC 
#
#######################################################################
#
# If this CIF has been generated from an entry in the Cambridge 
# Structural Database, then it will include bibliographic, chemical, 
# crystal, experimental, refinement or atomic coordinate data resulting 
# from the CCDC's data processing and validation procedures.
#
#######################################################################

data_OHINOJ
_chemical_name_common            'lobarialide A'
_chemical_formula_moiety         'C30 H44 O4'
_chemical_name_systematic        
24-Hydroxy-9-isopropyl-5,10,13,18-tetramethyl-20,23-dioxaheptacyclo[19.3.1.0^1,17^.0^2,14^.0^5,13^.0^6,10^.0^18,22^]pentacos-2-en-19-one
_symmetry_cell_setting           orthorhombic
_symmetry_space_group_name_H-M   'P 21 21 21'
_symmetry_Int_Tables_number      19
_space_group_name_Hall           'P 2ac 2ab'
loop_
_symmetry_equiv_pos_site_id
_symmetry_equiv_pos_as_xyz
1 x,y,z
2 1/2-x,-y,1/2+z
3 -x,1/2+y,1/2-z
4 1/2+x,1/2-y,-z
_cell_length_a                   7.3169(6)
_cell_length_b                   11.8799(12)
_cell_length_c                   32.988(3)
_cell_angle_alpha                90
_cell_angle_beta                 90
_cell_angle_gamma                90
_cell_volume                     2867.45
_exptl_crystal_colour            colorless
_exptl_crystal_description       needle
_chemical_melting_point          '553 K'
_cell_formula_units_Z            4
_exptl_crystal_recrystallization_method methanol
loop_
_atom_site_label
_atom_site_type_symbol
_atom_site_fract_x
_atom_site_fract_y
_atom_site_fract_z
C1 C 1.102(3) 0.3292(16) 0.3622(5)
H1 H 1.1801 0.3498 0.3844
H2 H 1.0049 0.3830 0.3598
H3 H 1.1719 0.3281 0.3376
C2 C 1.152(3) 0.1415(15) 0.3939(5)
H4 H 1.2630 0.1826 0.3982
H5 H 1.1777 0.0735 0.3793
H6 H 1.0979 0.1231 0.4196
C3 C 1.022(2) 0.2120(14) 0.3700(4)
H7 H 0.9140 0.2232 0.3872
C4 C 0.953(2) 0.1612(11) 0.3309(4)
H8 H 1.0637 0.1464 0.3151
C5 C 0.861(2) 0.0433(13) 0.3360(5)
H9 H 0.9544 -0.0144 0.3381
H10 H 0.7892 0.0420 0.3608
C6 C 0.739(2) 0.0194(15) 0.3002(5)
H11 H 0.6120 0.0168 0.3082
H12 H 0.7720 -0.0513 0.2874
C7 C 0.7761(19) 0.1192(11) 0.2717(4)
H13 H 0.8955 0.1012 0.2599
C8 C 0.819(2) 0.2212(13) 0.3002(4)
C9 C 0.659(2) 0.2669(14) 0.3251(5)
H14 H 0.7050 0.3023 0.3492
H15 H 0.5792 0.2061 0.3325
H16 H 0.5926 0.3211 0.3093
C10 C 0.899(2) 0.3162(12) 0.2753(4)
H17 H 1.0226 0.2969 0.2673
H18 H 0.9045 0.3840 0.2917
C11 C 0.782(2) 0.3391(13) 0.2369(4)
H19 H 0.6656 0.3697 0.2454
H20 H 0.8434 0.3963 0.2208
C12 C 0.747(2) 0.2372(12) 0.2099(4)
C13 C 0.930(2) 0.2068(12) 0.1908(5)
H21 H 1.0101 0.2705 0.1921
H22 H 0.9110 0.1859 0.1630
H23 H 0.9829 0.1448 0.2052
C14 C 0.6594(16) 0.1417(11) 0.2354(4)
C15 C 0.456(2) 0.1644(14) 0.2459(5)
H24 H 0.3817 0.1499 0.2225
H25 H 0.4419 0.2415 0.2540
H26 H 0.4193 0.1158 0.2677
C16 C 0.658(2) 0.0381(12) 0.2075(4)
H27 H 0.7816 0.0096 0.2050
H28 H 0.5844 -0.0204 0.2200
C17 C 0.583(2) 0.0623(17) 0.1654(4)
H29 H 0.5506 0.0012 0.1493
C18 C 0.560(2) 0.1660(12) 0.1498(4)
C19 C 0.618(2) 0.2669(11) 0.1741(4)
H30 H 0.5057 0.2954 0.1866
C20 C 0.6839(19) 0.3605(14) 0.1468(4)
H31 H 0.8016 0.3392 0.1356
H32 H 0.7024 0.4275 0.1631
C21 C 0.5534(17) 0.3904(12) 0.1112(4)
H33 H 0.4918 0.4607 0.1174
H34 H 0.6257 0.4023 0.0869
C22 C 0.4070(19) 0.2988(13) 0.1023(4)
H35 H 0.3077 0.3089 0.1219
C23 C 0.4839(18) 0.1810(13) 0.1083(4)
C24 C 0.646(2) 0.1665(18) 0.0749(4)
H36 H 0.7422 0.2218 0.0806
C25 C 0.346(2) 0.0900(14) 0.0940(5)
H37 H 0.4089 0.0182 0.0923
H38 H 0.2502 0.0829 0.1141
C26 C 0.2625(17) 0.1158(13) 0.0541(5)
H39 H 0.2483 0.0496 0.0367
C27 C 0.3740(17) 0.2095(18) 0.0350(5)
H40 H 0.3343 0.2193 0.0068
C28 C 0.3253(19) 0.3168(13) 0.0591(4)
C29 C 0.125(2) 0.2953(13) 0.0635(5)
C30 C 0.353(2) 0.4232(13) 0.0404(5)
H41 H 0.2847 0.4268 0.0156
H42 H 0.4810 0.4328 0.0345
H43 H 0.3134 0.4818 0.0583
O1 O 0.7197(18) 0.0634(11) 0.0752(3)
H44 H 0.7306 0.0408 0.0518
O2 O 0.5688(13) 0.1898(10) 0.0355(3)
O3 O 0.0938(13) 0.1777(11) 0.0604(3)
O4 O -0.0050(16) 0.3570(11) 0.0693(3)
loop_
_geom_bond_atom_site_label_1
_geom_bond_atom_site_label_2
_geom_bond_site_symmetry_1
_geom_bond_site_symmetry_2
C1 H1 1_555 1_555
H2 C1 1_555 1_555
H3 C1 1_555 1_555
C2 H4 1_555 1_555
H5 C2 1_555 1_555
H6 C2 1_555 1_555
C3 C1 1_555 1_555
H7 C3 1_555 1_555
C4 C3 1_555 1_555
H8 C4 1_555 1_555
C5 C4 1_555 1_555
H9 C5 1_555 1_555
H10 C5 1_555 1_555
C6 C5 1_555 1_555
H11 C6 1_555 1_555
H12 C6 1_555 1_555
C7 C6 1_555 1_555
H13 C7 1_555 1_555
C8 C4 1_555 1_555
C9 C8 1_555 1_555
H14 C9 1_555 1_555
H15 C9 1_555 1_555
H16 C9 1_555 1_555
C10 C8 1_555 1_555
H17 C10 1_555 1_555
H18 C10 1_555 1_555
C11 C10 1_555 1_555
H19 C11 1_555 1_555
H20 C11 1_555 1_555
C12 C11 1_555 1_555
C13 C12 1_555 1_555
H21 C13 1_555 1_555
H22 C13 1_555 1_555
H23 C13 1_555 1_555
C14 C7 1_555 1_555
C15 C14 1_555 1_555
H24 C15 1_555 1_555
H25 C15 1_555 1_555
H26 C15 1_555 1_555
C16 C14 1_555 1_555
H27 C16 1_555 1_555
H28 C16 1_555 1_555
C17 C16 1_555 1_555
H29 C17 1_555 1_555
C18 C17 1_555 1_555
C19 C12 1_555 1_555
H30 C19 1_555 1_555
C20 C19 1_555 1_555
H31 C20 1_555 1_555
H32 C20 1_555 1_555
C21 C20 1_555 1_555
H33 C21 1_555 1_555
H34 C21 1_555 1_555
C22 C21 1_555 1_555
H35 C22 1_555 1_555
C23 C18 1_555 1_555
C24 C23 1_555 1_555
H36 C24 1_555 1_555
C25 C23 1_555 1_555
H37 C25 1_555 1_555
H38 C25 1_555 1_555
C26 C25 1_555 1_555
H39 C26 1_555 1_555
C27 C26 1_555 1_555
H40 C27 1_555 1_555
C28 C22 1_555 1_555
C29 C28 1_555 1_555
C30 C28 1_555 1_555
H41 C30 1_555 1_555
H42 C30 1_555 1_555
H43 C30 1_555 1_555
O1 C24 1_555 1_555
H44 O1 1_555 1_555
O2 C24 1_555 1_555
O3 C26 1_555 1_555
O4 C29 1_555 1_555
C2 C3 1_555 1_555
C7 C8 1_555 1_555
C12 C14 1_555 1_555
C18 C19 1_555 1_555
C22 C23 1_555 1_555
C27 C28 1_555 1_555
C27 O2 1_555 1_555
C29 O3 1_555 1_555

#END
