
#######################################################################
#
#                 Cambridge Crystallographic Data Centre
#                                CCDC 
#
#######################################################################
#
# If this CIF has been generated from an entry in the Cambridge 
# Structural Database, then it will include bibliographic, chemical, 
# crystal, experimental, refinement or atomic coordinate data resulting 
# from the CCDC's data processing and validation procedures.
#
#######################################################################

data_OHOGAT
_chemical_formula_moiety         'C23 H20 F1 N3 O2'
_chemical_name_systematic        
4-(p-Cyanophenyl)-2-((4-fluorophenyl)methyl)-hexahydropyrrolo(3,4-a)pyrrolizine-1,3-dione
_symmetry_cell_setting           triclinic
_symmetry_space_group_name_H-M   'P -1'
_symmetry_Int_Tables_number      2
_space_group_name_Hall           '-P 1'
loop_
_symmetry_equiv_pos_site_id
_symmetry_equiv_pos_as_xyz
1 x,y,z
2 -x,-y,-z
_cell_length_a                   10.8979(4)
_cell_length_b                   11.1834(4)
_cell_length_c                   16.4132(6)
_cell_angle_alpha                84.930(2)
_cell_angle_beta                 82.700(2)
_cell_angle_gamma                77.580(2)
_cell_volume                     1933.87
_exptl_crystal_colour            colorless
_cell_formula_units_Z            4
loop_
_atom_site_label
_atom_site_type_symbol
_atom_site_fract_x
_atom_site_fract_y
_atom_site_fract_z
C1 C 0.23930(18) 0.71604(19) 0.71288(13)
N1 N 0.20071(15) 0.63443(15) 0.66781(10)
C2 C 0.10230(18) 0.58607(17) 0.70924(12)
C3 C 0.05924(17) 0.64974(17) 0.78828(12)
H1 H 0.0540 0.5899 0.8353
C4 C 0.16049(17) 0.72347(18) 0.79554(12)
H2 H 0.2118 0.6882 0.8401
O1 O 0.32290(15) 0.76969(18) 0.68731(11)
O2 O 0.06196(15) 0.50504(13) 0.68436(10)
C5 C 0.2592(2) 0.6026(2) 0.58499(13)
H3 H 0.2644 0.5160 0.5794
H4 H 0.3445 0.6174 0.5773
C6 C 0.18460(19) 0.67675(19) 0.51953(12)
C7 C 0.1878(2) 0.7990(2) 0.50120(15)
H5 H 0.2397 0.8356 0.5274
C8 C 0.1137(3) 0.8675(2) 0.44365(17)
H6 H 0.1148 0.9501 0.4312
C9 C 0.0395(2) 0.8112(3) 0.40590(15)
C10 C 0.0354(2) 0.6916(3) 0.42081(14)
H7 H -0.0155 0.6556 0.3934
C11 C 0.1090(2) 0.6245(2) 0.47789(13)
H8 H 0.1078 0.5417 0.4887
F1 F -0.03409(17) 0.8794(2) 0.35020(11)
C12 C -0.06689(16) 0.74814(17) 0.78715(11)
H9 H -0.1136 0.7470 0.8422
N2 N -0.02582(14) 0.86579(14) 0.77105(10)
C13 C -0.1170(2) 0.9683(2) 0.80994(14)
H10 H -0.2015 0.9512 0.8173
H11 H -0.1182 1.0437 0.7757
C14 C -0.0737(2) 0.9807(2) 0.89395(16)
H12 H -0.0560 1.0616 0.8968
H13 H -0.1384 0.9681 0.9382
C15 C 0.0453(2) 0.8827(2) 0.90047(14)
H14 H 0.0269 0.8107 0.9332
H15 H 0.1082 0.9133 0.9248
C16 C 0.09019(18) 0.85338(18) 0.81136(12)
H16 H 0.1401 0.9123 0.7851
C17 C -0.15340(16) 0.73282(16) 0.72543(11)
C18 C -0.13149(18) 0.77309(19) 0.64330(12)
H17 H -0.0643 0.8119 0.6264
C19 C -0.20834(18) 0.7560(2) 0.58663(12)
H18 H -0.1924 0.7826 0.5318
C20 C -0.30966(17) 0.69906(18) 0.61141(12)
C21 C -0.33471(18) 0.66205(19) 0.69354(13)
H19 H -0.4036 0.6259 0.7109
C22 C -0.25630(17) 0.67938(18) 0.74941(12)
H20 H -0.2733 0.6544 0.8045
C23 C -0.3863(2) 0.6798(2) 0.55043(13)
N3 N -0.4445(2) 0.6646(2) 0.50032(13)
C24 C 0.77947(19) 0.7800(2) 0.15952(15)
N4 N 0.74212(15) 0.68353(16) 0.12906(10)
C25 C 0.67092(18) 0.62350(17) 0.18694(13)
C26 C 0.64648(18) 0.69063(17) 0.26495(12)
H21 H 0.6663 0.6334 0.3125
C27 C 0.73598(19) 0.78099(18) 0.25078(13)
H22 H 0.8075 0.7550 0.2835
O3 O 0.83549(17) 0.84984(19) 0.11805(12)
O4 O 0.63563(15) 0.53106(13) 0.17533(10)
C28 C 0.7757(2) 0.6486(2) 0.04369(14)
H23 H 0.7977 0.5599 0.0432
H24 H 0.8492 0.6805 0.0199
C29 C 0.66862(17) 0.6969(2) -0.00805(12)
C30 C 0.6346(2) 0.8214(2) -0.02930(14)
H25 H 0.6790 0.8751 -0.0121
C31 C 0.5353(2) 0.8667(2) -0.07571(14)
H26 H 0.5126 0.9502 -0.0900
C32 C 0.47209(19) 0.7866(2) -0.09986(13)
C33 C 0.50297(19) 0.6635(2) -0.08173(12)
H27 H 0.4587 0.6107 -0.1002
C34 C 0.60219(19) 0.61907(19) -0.03501(12)
H28 H 0.6244 0.5353 -0.0216
F2 F 0.37371(15) 0.83213(15) -0.14391(10)
C35 C 0.51182(18) 0.77284(16) 0.28140(11)
H29 H 0.4861 0.7696 0.3408
N5 N 0.53013(14) 0.89797(13) 0.25475(10)
C36 C 0.4436(2) 0.9915(2) 0.30404(14)
H30 H 0.3609 0.9707 0.3162
H31 H 0.4341 1.0713 0.2744
C37 C 0.5027(3) 0.9931(3) 0.38373(17)
H32 H 0.4971 1.0768 0.3976
H33 H 0.4597 0.9507 0.4290
C38 C 0.6395(2) 0.9281(2) 0.36699(14)
H34 H 0.6563 0.8518 0.4005
H35 H 0.6959 0.9795 0.3783
C39 C 0.65610(19) 0.90389(18) 0.27522(12)
H36 H 0.6873 0.9708 0.2422
C40 C 0.40990(17) 0.73944(16) 0.23884(11)
C41 C 0.39944(17) 0.77282(18) 0.15616(11)
H37 H 0.4535 0.8196 0.1272
C42 C 0.31013(18) 0.7378(2) 0.11623(12)
H38 H 0.3047 0.7602 0.0607
C43 C 0.22831(17) 0.66887(18) 0.15931(13)
C44 C 0.2353(2) 0.6382(2) 0.24236(14)
H39 H 0.1791 0.5942 0.2719
C45 C 0.3256(2) 0.67282(19) 0.28118(13)
H40 H 0.3303 0.6511 0.3369
C46 C 0.1386(2) 0.6267(2) 0.11754(16)
N6 N 0.0705(2) 0.5897(2) 0.08398(18)
loop_
_geom_bond_atom_site_label_1
_geom_bond_atom_site_label_2
_geom_bond_site_symmetry_1
_geom_bond_site_symmetry_2
C1 N1 1_555 1_555
N1 C2 1_555 1_555
C2 C3 1_555 1_555
C3 H1 1_555 1_555
C4 C1 1_555 1_555
H2 C4 1_555 1_555
O1 C1 1_555 1_555
O2 C2 1_555 1_555
C5 N1 1_555 1_555
H3 C5 1_555 1_555
H4 C5 1_555 1_555
C6 C5 1_555 1_555
C7 C6 1_555 1_555
H5 C7 1_555 1_555
C8 C7 1_555 1_555
H6 C8 1_555 1_555
C9 C8 1_555 1_555
C10 C9 1_555 1_555
H7 C10 1_555 1_555
C11 C6 1_555 1_555
H8 C11 1_555 1_555
F1 C9 1_555 1_555
C12 C3 1_555 1_555
H9 C12 1_555 1_555
N2 C12 1_555 1_555
C13 N2 1_555 1_555
H10 C13 1_555 1_555
H11 C13 1_555 1_555
C14 C13 1_555 1_555
H12 C14 1_555 1_555
H13 C14 1_555 1_555
C15 C14 1_555 1_555
H14 C15 1_555 1_555
H15 C15 1_555 1_555
C16 C4 1_555 1_555
H16 C16 1_555 1_555
C17 C12 1_555 1_555
C18 C17 1_555 1_555
H17 C18 1_555 1_555
C19 C18 1_555 1_555
H18 C19 1_555 1_555
C20 C19 1_555 1_555
C21 C20 1_555 1_555
H19 C21 1_555 1_555
C22 C17 1_555 1_555
H20 C22 1_555 1_555
C23 C20 1_555 1_555
N3 C23 1_555 1_555
C24 N4 1_555 1_555
N4 C25 1_555 1_555
C25 C26 1_555 1_555
C26 H21 1_555 1_555
C27 C24 1_555 1_555
H22 C27 1_555 1_555
O3 C24 1_555 1_555
O4 C25 1_555 1_555
C28 N4 1_555 1_555
H23 C28 1_555 1_555
H24 C28 1_555 1_555
C29 C28 1_555 1_555
C30 C29 1_555 1_555
H25 C30 1_555 1_555
C31 C30 1_555 1_555
H26 C31 1_555 1_555
C32 C31 1_555 1_555
C33 C32 1_555 1_555
H27 C33 1_555 1_555
C34 C29 1_555 1_555
H28 C34 1_555 1_555
F2 C32 1_555 1_555
C35 C26 1_555 1_555
H29 C35 1_555 1_555
N5 C35 1_555 1_555
C36 N5 1_555 1_555
H30 C36 1_555 1_555
H31 C36 1_555 1_555
C37 C36 1_555 1_555
H32 C37 1_555 1_555
H33 C37 1_555 1_555
C38 C37 1_555 1_555
H34 C38 1_555 1_555
H35 C38 1_555 1_555
C39 C27 1_555 1_555
H36 C39 1_555 1_555
C40 C35 1_555 1_555
C41 C40 1_555 1_555
H37 C41 1_555 1_555
C42 C41 1_555 1_555
H38 C42 1_555 1_555
C43 C42 1_555 1_555
C44 C43 1_555 1_555
H39 C44 1_555 1_555
C45 C40 1_555 1_555
H40 C45 1_555 1_555
C46 C43 1_555 1_555
N6 C46 1_555 1_555
C3 C4 1_555 1_555
C10 C11 1_555 1_555
N2 C16 1_555 1_555
C15 C16 1_555 1_555
C21 C22 1_555 1_555
C26 C27 1_555 1_555
C33 C34 1_555 1_555
N5 C39 1_555 1_555
C38 C39 1_555 1_555
C44 C45 1_555 1_555

#END
