
#######################################################################
#
#                 Cambridge Crystallographic Data Centre
#                                CCDC 
#
#######################################################################
#
# If this CIF has been generated from an entry in the Cambridge 
# Structural Database, then it will include bibliographic, chemical, 
# crystal, experimental, refinement or atomic coordinate data resulting 
# from the CCDC's data processing and validation procedures.
#
#######################################################################

data_OHOJIG
_chemical_name_common            
'27-benzyl-2,3,7,8,12,13,17,18,22,23-decamethoxysapphyrin-26,28-diium diperchlorate'
_chemical_formula_moiety         'C41 H45 N5 O10 2+,2(Cl1 O4 1-)'
_chemical_name_systematic        
'27-benzyl-3,4,8,9,13,14,18,19,23,24-decamethoxy-25,27,29-triaza-26,28-diazoniahexacyclo[20.2.1.1^2,5^.1^7,10^.1^12,15^.1^17,20^]nonacosa-1(24),2,4,6,8,10(28),11,13,15,17(26),18,20,22-tridecaene diperchlorate'
_symmetry_cell_setting           triclinic
_symmetry_space_group_name_H-M   'P -1'
_symmetry_Int_Tables_number      2
_space_group_name_Hall           '-P 1'
loop_
_symmetry_equiv_pos_site_id
_symmetry_equiv_pos_as_xyz
1 x,y,z
2 -x,-y,-z
_cell_length_a                   18.7180(14)
_cell_length_b                   20.1801(14)
_cell_length_c                   21.555(2)
_cell_angle_alpha                63.466(8)
_cell_angle_beta                 65.800(8)
_cell_angle_gamma                82.646(6)
_cell_volume                     6629.06
_exptl_crystal_colour            'blue sapphire'
_exptl_crystal_description       block
_cell_formula_units_Z            6
loop_
_atom_site_label
_atom_site_type_symbol
_atom_site_fract_x
_atom_site_fract_y
_atom_site_fract_z
Cl1 Cl 0.20471(16) 0.54210(14) 0.31756(14)
O1 O 0.2504(4) 0.6097(4) 0.2897(4)
O2 O 0.2100(4) 0.5312(3) 0.2536(4)
O3 O 0.2385(5) 0.4820(4) 0.3618(4)
O4 O 0.1260(5) 0.5459(5) 0.3601(5)
Cl2 Cl 0.59973(17) 0.67224(17) 0.34493(17)
O5 O 0.6753(4) 0.6804(3) 0.2823(3)
O6 O 0.5751(5) 0.7451(5) 0.3329(6)
O7 O 0.6128(5) 0.6416(5) 0.4104(4)
O8 O 0.5474(5) 0.6333(7) 0.3433(6)
Cl3 Cl 0.93672(16) 0.02951(19) 0.41916(17)
O9 O 0.8588(3) 0.0342(3) 0.4740(3)
O10 O 0.9899(5) 0.0662(7) 0.4219(7)
O11 O 0.9534(6) -0.0398(6) 0.4398(8)
O12 O 0.9366(7) 0.0609(12) 0.3496(6)
Cl4 Cl 0.54898(17) 0.35481(17) 0.00323(17)
O13 O 0.6140(4) 0.3831(3) -0.0722(3)
O14 O 0.5822(7) 0.3355(8) 0.0543(5)
O15 O 0.5022(7) 0.4084(6) 0.0138(7)
O16 O 0.5137(8) 0.2987(9) 0.0121(7)
Cl5 Cl 0.9048(2) 0.76002(19) 0.03125(19)
O17 O 0.8494(5) 0.7174(6) 0.0996(5)
O18 O 0.9800(7) 0.7543(8) 0.0310(7)
O19 O 0.9178(9) 0.7419(8) -0.0240(7)
O20 O 0.8882(8) 0.8308(6) 0.0054(7)
Cl6 Cl 0.3740(2) 0.9888(2) 0.3249(2)
O21 O 0.3376(6) 1.0106(5) 0.3806(5)
O22 O 0.3594(7) 1.0256(6) 0.2613(5)
O23 O 0.4447(6) 0.9609(7) 0.3155(7)
O24 O 0.3208(8) 0.9152(8) 0.3628(8)
N1 N 0.7889(4) 0.1561(4) 0.3829(4)
O25 O 0.8460(4) 0.2095(4) 0.1870(3)
O26 O 0.8599(4) -0.2593(3) 0.7155(4)
O27 O 0.8868(4) 0.2575(3) 0.5955(4)
O28 O 0.8769(4) 0.3534(4) 0.4390(4)
N2 N 0.7818(4) -0.1106(4) 0.5978(4)
H1 H 0.7685 -0.0659 0.5785
N3 N 0.7477(4) -0.0275(4) 0.4462(4)
H2 H 0.7680 -0.0084 0.4643
O29 O 0.8670(5) -0.0082(4) 0.7775(4)
N4 N 0.8363(4) -0.0124(4) 0.6289(4)
H3 H 0.8303 0.0078 0.5869
O30 O 0.9027(4) 0.3155(4) 0.2287(4)
N5 N 0.8467(4) 0.1594(4) 0.5103(4)
H4 H 0.8369 0.1205 0.5077
O31 O 0.8020(4) -0.2921(4) 0.6173(4)
C1 C 0.8595(5) 0.1599(5) 0.5684(5)
C2 C 0.8161(5) -0.1365(5) 0.6497(5)
O32 O 0.6661(5) -0.1757(4) 0.4474(4)
C3 C 0.6434(5) 0.1536(6) 0.4424(5)
C4 C 0.8730(5) 0.2353(5) 0.5505(5)
C5 C 0.8318(5) 0.2232(4) 0.3517(5)
C6 C 0.8319(5) -0.0871(5) 0.6722(5)
C7 C 0.8517(5) 0.0261(5) 0.6613(5)
C8 C 0.7557(5) 0.0839(5) 0.3296(5)
H5 H 0.7463 0.0956 0.2868
C9 C 0.8491(5) 0.2555(5) 0.3877(5)
H6 H 0.8619 0.3062 0.3583
C10 C 0.8543(5) -0.0283(6) 0.7297(5)
C11 C 0.7411(5) -0.1626(5) 0.5325(5)
H7 H 0.7282 -0.2084 0.5378
C12 C 0.8522(5) 0.2314(5) 0.4570(5)
O33 O 0.8409(6) -0.1646(4) 0.7931(5)
C13 C 0.7263(5) -0.1009(5) 0.4759(5)
C14 C 0.8285(5) -0.2118(5) 0.6656(5)
C15 C 0.8628(5) 0.1017(5) 0.6328(5)
H8 H 0.8747 0.1165 0.6628
C16 C 0.8015(5) -0.2292(5) 0.6235(5)
C17 C 0.8433(5) -0.0966(6) 0.7368(5)
C18 C 0.7722(5) -0.1658(5) 0.5818(5)
C19 C 0.8339(5) 0.2031(5) 0.2559(5)
C20 C 0.8579(5) 0.2514(5) 0.2722(5)
C21 C 0.7894(5) 0.1421(5) 0.3252(5)
C22 C 0.7194(5) 0.1322(5) 0.4548(5)
H9 H 0.7240 0.1548 0.4845
H10 H 0.7174 0.0787 0.4831
C23 C 0.8707(5) 0.2789(5) 0.4819(5)
C24 C 0.7318(5) 0.0112(5) 0.3826(5)
O34 O 0.6699(7) -0.0194(5) 0.3189(4)
C25 C 0.5688(8) 0.2443(7) 0.3858(7)
H11 H 0.5624 0.2938 0.3581
C26 C 0.6345(6) 0.2249(6) 0.4003(5)
H12 H 0.6738 0.2612 0.3808
C27 C 0.6962(7) -0.0405(6) 0.3748(6)
C28 C 0.9257(6) 0.3967(5) 0.4458(5)
H13 H 0.8989 0.4006 0.4926
H14 H 0.9371 0.4454 0.4044
H15 H 0.9738 0.3732 0.4449
C29 C 0.5136(8) 0.1922(9) 0.4114(8)
H16 H 0.4696 0.2061 0.3999
C30 C 0.6252(7) -0.1820(6) 0.4074(6)
H17 H 0.5719 -0.1697 0.4273
H18 H 0.6258 -0.2320 0.4130
H19 H 0.6502 -0.1485 0.3548
C31 C 0.9520(7) 0.3309(6) 0.1537(6)
H20 H 0.9825 0.2892 0.1524
H21 H 0.9866 0.3738 0.1323
H22 H 0.9208 0.3404 0.1250
C32 C 0.6945(6) -0.1083(6) 0.4287(5)
C33 C 0.5863(6) 0.0988(6) 0.4697(7)
H23 H 0.5920 0.0493 0.4979
C34 C 0.8213(7) 0.2875(6) 0.6345(6)
H24 H 0.8118 0.3340 0.5992
H25 H 0.8318 0.2954 0.6709
H26 H 0.7760 0.2536 0.6601
C35 C 0.9425(6) -0.2452(6) 0.6922(7)
H27 H 0.9705 -0.2418 0.6422
H28 H 0.9610 -0.2851 0.7265
H29 H 0.9511 -0.1994 0.6923
C36 C 0.8578(7) -0.3442(6) 0.6322(7)
H30 H 0.9083 -0.3186 0.6099
H31 H 0.8605 -0.3778 0.6110
H32 H 0.8424 -0.3715 0.6858
C37 C 0.9004(8) 0.1639(8) 0.1607(7)
H33 H 0.9443 0.1612 0.1736
H34 H 0.9181 0.1841 0.1068
H35 H 0.8759 0.1150 0.1836
C38 C 0.5193(7) 0.1206(8) 0.4531(8)
H36 H 0.4793 0.0855 0.4711
C39 C 0.9339(7) -0.0304(9) 0.7910(8)
H37 H 0.9786 -0.0170 0.7438
H38 H 0.9294 -0.0832 0.8204
H39 H 0.9405 -0.0064 0.8183
C40 C 0.5913(12) 0.0073(10) 0.3375(12)
H40 H 0.5572 -0.0268 0.3872
H41 H 0.5716 0.0111 0.3014
H42 H 0.5933 0.0552 0.3362
C41 C 0.7982(13) -0.1810(9) 0.8632(9)
H43 H 0.8279 -0.2078 0.8931
H44 H 0.7524 -0.2112 0.8798
H45 H 0.7825 -0.1362 0.8690
O35 O 0.2669(4) 0.5751(3) 0.4799(3)
O36 O 0.3297(4) 0.6393(4) 0.5570(3)
N6 N 0.2411(4) 0.4576(4) 0.6707(4)
O37 O 0.3381(4) 0.5887(4) 0.7916(3)
O38 O 0.2297(4) -0.0010(4) 0.9737(4)
O39 O 0.3706(4) 0.4531(4) 0.9208(4)
N7 N 0.3186(4) 0.4123(4) 0.8027(4)
H46 H 0.3073 0.3822 0.7892
O40 O 0.4172(5) 0.1886(4) 0.9907(4)
O41 O 0.1091(4) 0.1810(4) 0.6460(4)
C42 C 0.3152(5) 0.4865(5) 0.7697(5)
N8 N 0.2491(4) 0.1727(4) 0.8174(4)
H47 H 0.2639 0.2190 0.7898
N9 N 0.3075(4) 0.2361(4) 0.8807(4)
H48 H 0.2887 0.2676 0.8493
O42 O 0.3603(4) 0.0572(4) 0.9816(4)
C43 C 0.2931(5) 0.5744(5) 0.5828(5)
C44 C 0.0992(5) 0.4463(5) 0.7537(4)
N10 N 0.1995(4) 0.2945(4) 0.6810(4)
H49 H 0.2221 0.3020 0.7051
O43 O 0.1160(5) 0.3516(4) 0.5461(4)
C45 C 0.2332(5) 0.4690(5) 0.6052(5)
C46 C 0.2793(5) 0.5197(5) 0.6577(5)
C47 C 0.1785(5) 0.4151(4) 0.7458(4)
H50 H 0.1923 0.4152 0.7845
H51 H 0.1752 0.3640 0.7542
C48 C 0.3359(5) 0.5162(5) 0.8099(5)
C49 C 0.3523(5) 0.4574(5) 0.8648(5)
C50 C 0.1820(5) 0.3494(5) 0.6238(5)
C51 C 0.2650(6) 0.1292(5) 0.8796(5)
C52 C 0.3425(5) 0.3913(5) 0.8609(5)
C53 C 0.1388(5) 0.2383(6) 0.6438(5)
O44 O 0.1519(5) 0.0093(4) 0.8686(4)
C54 C 0.2658(5) 0.5425(5) 0.5509(5)
C55 C 0.0842(5) 0.5156(5) 0.7544(5)
H52 H 0.1233 0.5431 0.7507
C56 C 0.3466(5) 0.1296(5) 0.9504(5)
C57 C 0.3308(6) 0.5583(6) 0.4258(6)
H53 H 0.3788 0.5798 0.4171
H54 H 0.3236 0.5782 0.3793
H55 H 0.3332 0.5054 0.4445
C58 C 0.2018(5) 0.4241(5) 0.5895(5)
H56 H 0.1917 0.4496 0.5461
C59 C 0.1411(5) 0.3131(6) 0.6033(6)
C60 C 0.1759(5) 0.2255(6) 0.6948(5)
C61 C 0.3570(5) 0.3227(6) 0.9058(5)
H57 H 0.3791 0.3225 0.9374
C62 C 0.3711(5) 0.1874(6) 0.9559(5)
C63 C 0.3013(5) 0.5315(5) 0.7054(5)
H58 H 0.3089 0.5817 0.6912
C64 C -0.0434(6) 0.5074(7) 0.7627(5)
H59 H -0.0918 0.5272 0.7665
C65 C 0.1794(5) 0.1556(6) 0.7489(5)
H60 H 0.1597 0.1170 0.7467
C66 C 0.3448(5) 0.2544(5) 0.9124(5)
C67 C 0.3028(5) 0.1615(6) 0.9038(5)
C68 C 0.0739(6) 0.1934(6) 0.5957(6)
H61 H 0.0289 0.2218 0.6058
H62 H 0.0577 0.1467 0.6022
H63 H 0.1109 0.2203 0.5447
C69 C 0.2286(6) 0.0580(5) 0.9093(6)
C70 C 0.1933(6) 0.0602(6) 0.8642(6)
C71 C -0.0290(6) 0.4395(7) 0.7591(5)
H64 H -0.0671 0.4144 0.7589
C72 C 0.2064(5) 0.1330(5) 0.8045(5)
C73 C 0.0422(6) 0.4101(5) 0.7557(5)
H65 H 0.0511 0.3641 0.7547
C74 C 0.3933(6) 0.5156(6) 0.9207(6)
H66 H 0.4353 0.5434 0.8732
H67 H 0.4108 0.5011 0.9609
H68 H 0.3495 0.5459 0.9281
C75 C 0.0118(6) 0.5432(5) 0.7608(5)
H69 H 0.0017 0.5882 0.7638
C76 C 0.0435(7) 0.3863(6) 0.5695(7)
H70 H 0.0040 0.3493 0.6123
H71 H 0.0264 0.4096 0.5287
H72 H 0.0521 0.4230 0.5830
C77 C 0.2642(7) 0.6166(6) 0.8188(7)
H73 H 0.2297 0.6062 0.8009
H74 H 0.2707 0.6693 0.8008
H75 H 0.2421 0.5932 0.8730
C78 C 0.4254(9) 0.1285(7) 1.0480(7)
H76 H 0.3753 0.1016 1.0819
H77 H 0.4455 0.1435 1.0746
H78 H 0.4613 0.0972 1.0286
C79 C 0.3558(7) 0.6897(6) 0.4810(5)
H79 H 0.3988 0.6705 0.4515
H80 H 0.3728 0.7361 0.4746
H81 H 0.3137 0.6974 0.4644
C80 C 0.4270(8) 0.0355(6) 0.9366(8)
H82 H 0.4190 0.0376 0.8945
H83 H 0.4365 -0.0144 0.9659
H84 H 0.4713 0.0682 0.9184
C81 C 0.1797(8) 0.0029(7) 1.0416(6)
H85 H 0.1999 0.0415 1.0456
H86 H 0.1769 -0.0437 1.0836
H87 H 0.1281 0.0135 1.0418
C82 C 0.1197(10) -0.0537(9) 0.9349(9)
H88 H 0.1589 -0.0891 0.9397
H89 H 0.0768 -0.0748 0.9345
H90 H 0.1010 -0.0413 0.9768
O45 O 0.2809(4) 0.8240(3) -0.1422(4)
O46 O 0.1080(4) 0.5879(4) -0.0100(3)
N11 N 0.2734(4) 0.7340(4) 0.0448(4)
O47 O 0.3809(4) 0.8962(4) 0.1326(4)
N12 N 0.3294(4) 0.4566(4) 0.1808(4)
H91 H 0.3191 0.5026 0.1661
N13 N 0.3841(4) 0.7169(4) 0.1404(4)
H92 H 0.3747 0.6843 0.1288
O48 O 0.4163(4) 0.2962(4) 0.2705(4)
N14 N 0.4106(4) 0.5391(4) 0.2090(4)
H93 H 0.3950 0.5658 0.1734
O49 O 0.4924(4) 0.5161(3) 0.3365(3)
N15 N 0.2445(4) 0.5558(4) 0.0741(4)
H94 H 0.2758 0.5691 0.0873
O50 O 0.1325(4) 0.4248(4) 0.0773(4)
O51 O 0.4367(4) 0.3697(3) 0.3505(4)
O52 O 0.3260(4) 0.2801(4) 0.1882(4)
C83 C 0.3037(5) 0.4057(5) 0.1669(5)
C84 C 0.4617(5) 0.5037(5) 0.2962(5)
C85 C 0.3743(5) 0.4216(4) 0.2221(5)
C86 C 0.4073(5) 0.4626(5) 0.2426(5)
O53 O 0.3586(5) 0.9102(4) -0.0957(4)
C87 C 0.4381(5) 0.4400(5) 0.2993(5)
C88 C 0.2069(5) 0.6045(5) 0.0294(4)
C89 C 0.4424(4) 0.5663(5) 0.2407(5)
C90 C 0.4485(5) 0.6394(5) 0.2283(5)
H95 H 0.4775 0.6460 0.2515
C91 C 0.1555(5) 0.7431(5) 0.1457(5)
C92 C 0.3652(5) 0.7889(5) 0.1142(5)
C93 C 0.3791(5) 0.3497(5) 0.2315(5)
O54 O 0.4548(4) 0.7749(4) 0.2363(4)
C94 C 0.3121(5) 0.8019(5) 0.0187(4)
C95 C 0.4205(5) 0.7046(5) 0.1886(5)
C96 C 0.2252(5) 0.4833(6) 0.0946(5)
C97 C 0.3397(5) 0.8263(5) 0.0555(5)
H96 H 0.3418 0.8776 0.0379
C98 C 0.4221(6) 0.7712(5) 0.1934(6)
C99 C 0.2846(5) 0.8053(5) -0.0753(5)
C100 C 0.1578(5) 0.5590(6) 0.0269(5)
C101 C 0.2554(5) 0.7344(5) -0.0115(5)
C102 C 0.3391(5) 0.3391(5) 0.1969(5)
C103 C 0.1672(5) 0.4879(6) 0.0645(5)
C104 C 0.2535(5) 0.4191(5) 0.1316(5)
H97 H 0.2357 0.3771 0.1333
C105 C 0.3186(5) 0.8443(5) -0.0568(5)
C106 C 0.2161(5) 0.6802(6) -0.0097(5)
H98 H 0.1901 0.6990 -0.0421
C107 C 0.3892(5) 0.8232(5) 0.1474(5)
C108 C 0.1534(6) 0.7711(6) 0.1933(5)
H99 H 0.1918 0.7604 0.2127
C109 C 0.0964(6) 0.7573(6) 0.1197(6)
H100 H 0.0960 0.7363 0.0892
C110 C 0.2198(5) 0.6955(5) 0.1232(4)
H101 H 0.2487 0.6813 0.1552
H102 H 0.1970 0.6505 0.1308
C111 C 0.3607(6) 0.3408(6) 0.4105(6)
H103 H 0.3374 0.3773 0.4287
H104 H 0.3662 0.2966 0.4510
H105 H 0.3278 0.3291 0.3919
C112 C 0.0386(6) 0.8018(6) 0.1382(6)
H106 H 0.0010 0.8135 0.1177
C113 C 0.4995(6) 0.4537(6) 0.4005(5)
H107 H 0.4481 0.4323 0.4381
H108 H 0.5264 0.4699 0.4215
H109 H 0.5287 0.4172 0.3849
C114 C 0.3047(7) 0.9145(6) 0.1723(7)
H110 H 0.2658 0.8940 0.1662
H111 H 0.3027 0.9675 0.1522
H112 H 0.2945 0.8942 0.2250
C115 C 0.4349(7) 0.8271(6) 0.2645(6)
H113 H 0.4403 0.8756 0.2239
H114 H 0.4690 0.8254 0.2883
H115 H 0.3815 0.8165 0.3009
C116 C 0.3372(7) 0.7923(6) -0.1861(6)
H116 H 0.3886 0.8129 -0.2019
H117 H 0.3273 0.8027 -0.2298
H118 H 0.3343 0.7395 -0.1567
C117 C 0.0942(7) 0.8154(7) 0.2129(6)
H119 H 0.0947 0.8357 0.2439
C118 C 0.1535(7) 0.4124(7) 0.0135(7)
H120 H 0.1426 0.4548 -0.0250
H121 H 0.1238 0.3693 0.0267
H122 H 0.2085 0.4047 -0.0050
C119 C 0.0352(7) 0.8304(6) 0.1881(7)
H123 H -0.0057 0.8583 0.2035
C120 C 0.3692(8) 0.2165(7) 0.2082(8)
H124 H 0.3880 0.2155 0.2438
H125 H 0.4129 0.2183 0.1637
H126 H 0.3358 0.1726 0.2305
C121 C 0.0288(7) 0.5811(8) 0.0377(6)
H127 H 0.0167 0.5332 0.0803
H128 H -0.0030 0.5862 0.0105
H129 H 0.0182 0.6191 0.0549
C122 C 0.4909(9) 0.2998(8) 0.2360(8)
H130 H 0.5041 0.2746 0.2044
H131 H 0.5142 0.2767 0.2722
H132 H 0.5103 0.3509 0.2053
C123 C 0.3850(12) 0.9441(11) -0.1630(11)
H133 H 0.4258 0.9174 -0.1849
H134 H 0.4063 0.9920 -0.1773
H135 H 0.3442 0.9500 -0.1808
loop_
_geom_bond_atom_site_label_1
_geom_bond_atom_site_label_2
_geom_bond_site_symmetry_1
_geom_bond_site_symmetry_2
Cl1 O1 1_555 1_555
O2 Cl1 1_555 1_555
O3 Cl1 1_555 1_555
O4 Cl1 1_555 1_555
Cl2 O5 1_555 1_555
O6 Cl2 1_555 1_555
O7 Cl2 1_555 1_555
O8 Cl2 1_555 1_555
Cl3 O9 1_555 1_555
O10 Cl3 1_555 1_555
O11 Cl3 1_555 1_555
O12 Cl3 1_555 1_555
Cl4 O13 1_555 1_555
O14 Cl4 1_555 1_555
O15 Cl4 1_555 1_555
O16 Cl4 1_555 1_555
Cl5 O17 1_555 1_555
O18 Cl5 1_555 1_555
O19 Cl5 1_555 1_555
O20 Cl5 1_555 1_555
Cl6 O21 1_555 1_555
O22 Cl6 1_555 1_555
O23 Cl6 1_555 1_555
O24 Cl6 1_555 1_555
N1 C5 1_555 1_555
O25 C19 1_555 1_555
O26 C14 1_555 1_555
O27 C4 1_555 1_555
O28 C23 1_555 1_555
N2 H1 1_555 1_555
N3 H2 1_555 1_555
O29 C10 1_555 1_555
N4 H3 1_555 1_555
O30 C20 1_555 1_555
N5 H4 1_555 1_555
O31 C16 1_555 1_555
C1 N5 1_555 1_555
C2 N2 1_555 1_555
O32 C30 1_555 1_555
C3 C22 1_555 1_555
C4 C1 1_555 1_555
C5 C9 1_555 1_555
C6 N4 1_555 1_555
C7 N4 1_555 1_555
C8 H5 1_555 1_555
C9 H6 1_555 1_555
C10 C7 1_555 1_555
C11 H7 1_555 1_555
C12 N5 1_555 1_555
O33 C17 1_555 1_555
C13 N3 1_555 1_555
C14 C2 1_555 1_555
C15 C1 1_555 1_555
H8 C15 1_555 1_555
C16 C14 1_555 1_555
C17 C6 1_555 1_555
C18 N2 1_555 1_555
C19 C20 1_555 1_555
C20 C5 1_555 1_555
C21 N1 1_555 1_555
C22 N1 1_555 1_555
H9 C22 1_555 1_555
H10 C22 1_555 1_555
C23 C4 1_555 1_555
C24 N3 1_555 1_555
O34 C27 1_555 1_555
C25 H11 1_555 1_555
C26 C3 1_555 1_555
H12 C26 1_555 1_555
C27 C24 1_555 1_555
C28 O28 1_555 1_555
H13 C28 1_555 1_555
H14 C28 1_555 1_555
H15 C28 1_555 1_555
C29 C25 1_555 1_555
H16 C29 1_555 1_555
C30 H17 1_555 1_555
H18 C30 1_555 1_555
H19 C30 1_555 1_555
C31 O30 1_555 1_555
H20 C31 1_555 1_555
H21 C31 1_555 1_555
H22 C31 1_555 1_555
C32 O32 1_555 1_555
C33 C3 1_555 1_555
H23 C33 1_555 1_555
C34 O27 1_555 1_555
H24 C34 1_555 1_555
H25 C34 1_555 1_555
H26 C34 1_555 1_555
C35 O26 1_555 1_555
H27 C35 1_555 1_555
H28 C35 1_555 1_555
H29 C35 1_555 1_555
C36 O31 1_555 1_555
H30 C36 1_555 1_555
H31 C36 1_555 1_555
H32 C36 1_555 1_555
C37 O25 1_555 1_555
H33 C37 1_555 1_555
H34 C37 1_555 1_555
H35 C37 1_555 1_555
C38 C29 1_555 1_555
H36 C38 1_555 1_555
C39 O29 1_555 1_555
H37 C39 1_555 1_555
H38 C39 1_555 1_555
H39 C39 1_555 1_555
C40 O34 1_555 1_555
H40 C40 1_555 1_555
H41 C40 1_555 1_555
H42 C40 1_555 1_555
C41 O33 1_555 1_555
H43 C41 1_555 1_555
H44 C41 1_555 1_555
H45 C41 1_555 1_555
O35 C54 1_555 1_555
O36 C43 1_555 1_555
N6 C45 1_555 1_555
O37 C48 1_555 1_555
O38 C69 1_555 1_555
O39 C49 1_555 1_555
N7 H46 1_555 1_555
O40 C62 1_555 1_555
O41 C53 1_555 1_555
C42 N7 1_555 1_555
N8 H47 1_555 1_555
N9 H48 1_555 1_555
O42 C56 1_555 1_555
C43 C46 1_555 1_555
C44 C47 1_555 1_555
N10 H49 1_555 1_555
O43 C59 1_555 1_555
C45 C54 1_555 1_555
C46 N6 1_555 1_555
C47 N6 1_555 1_555
H50 C47 1_555 1_555
H51 C47 1_555 1_555
C48 C42 1_555 1_555
C49 C48 1_555 1_555
C50 N10 1_555 1_555
C51 N8 1_555 1_555
C52 N7 1_555 1_555
C53 C59 1_555 1_555
O44 C70 1_555 1_555
C54 C43 1_555 1_555
C55 C44 1_555 1_555
H52 C55 1_555 1_555
C56 C62 1_555 1_555
C57 O35 1_555 1_555
H53 C57 1_555 1_555
H54 C57 1_555 1_555
H55 C57 1_555 1_555
C58 C45 1_555 1_555
H56 C58 1_555 1_555
C59 C50 1_555 1_555
C60 N10 1_555 1_555
C61 C52 1_555 1_555
H57 C61 1_555 1_555
C62 C66 1_555 1_555
C63 C42 1_555 1_555
H58 C63 1_555 1_555
C64 H59 1_555 1_555
C65 C60 1_555 1_555
H60 C65 1_555 1_555
C66 N9 1_555 1_555
C67 N9 1_555 1_555
C68 O41 1_555 1_555
H61 C68 1_555 1_555
H62 C68 1_555 1_555
H63 C68 1_555 1_555
C69 C51 1_555 1_555
C70 C69 1_555 1_555
C71 C64 1_555 1_555
H64 C71 1_555 1_555
C72 N8 1_555 1_555
C73 C44 1_555 1_555
H65 C73 1_555 1_555
C74 O39 1_555 1_555
H66 C74 1_555 1_555
H67 C74 1_555 1_555
H68 C74 1_555 1_555
C75 C55 1_555 1_555
H69 C75 1_555 1_555
C76 O43 1_555 1_555
H70 C76 1_555 1_555
H71 C76 1_555 1_555
H72 C76 1_555 1_555
C77 O37 1_555 1_555
H73 C77 1_555 1_555
H74 C77 1_555 1_555
H75 C77 1_555 1_555
C78 O40 1_555 1_555
H76 C78 1_555 1_555
H77 C78 1_555 1_555
H78 C78 1_555 1_555
C79 O36 1_555 1_555
H79 C79 1_555 1_555
H80 C79 1_555 1_555
H81 C79 1_555 1_555
C80 O42 1_555 1_555
H82 C80 1_555 1_555
H83 C80 1_555 1_555
H84 C80 1_555 1_555
C81 O38 1_555 1_555
H85 C81 1_555 1_555
H86 C81 1_555 1_555
H87 C81 1_555 1_555
C82 O44 1_555 1_555
H88 C82 1_555 1_555
H89 C82 1_555 1_555
H90 C82 1_555 1_555
O45 C99 1_555 1_555
O46 C100 1_555 1_555
N11 C94 1_555 1_555
O47 C107 1_555 1_555
N12 H91 1_555 1_555
N13 H92 1_555 1_555
O48 C93 1_555 1_555
N14 H93 1_555 1_555
O49 C84 1_555 1_555
N15 H94 1_555 1_555
O50 C103 1_555 1_555
O51 C87 1_555 1_555
O52 C102 1_555 1_555
C83 N12 1_555 1_555
C84 C87 1_555 1_555
C85 N12 1_555 1_555
C86 N14 1_555 1_555
O53 C105 1_555 1_555
C87 C86 1_555 1_555
C88 N15 1_555 1_555
C89 N14 1_555 1_555
C90 C89 1_555 1_555
H95 C90 1_555 1_555
C91 C108 1_555 1_555
C92 N13 1_555 1_555
C93 C85 1_555 1_555
O54 C98 1_555 1_555
C94 C97 1_555 1_555
C95 N13 1_555 1_555
C96 N15 1_555 1_555
C97 C92 1_555 1_555
H96 C97 1_555 1_555
C98 C95 1_555 1_555
C99 C101 1_555 1_555
C100 C88 1_555 1_555
C101 N11 1_555 1_555
C102 C83 1_555 1_555
C103 C96 1_555 1_555
C104 C83 1_555 1_555
H97 C104 1_555 1_555
C105 C94 1_555 1_555
C106 C88 1_555 1_555
H98 C106 1_555 1_555
C107 C92 1_555 1_555
C108 H99 1_555 1_555
C109 C91 1_555 1_555
H100 C109 1_555 1_555
C110 N11 1_555 1_555
H101 C110 1_555 1_555
H102 C110 1_555 1_555
C111 O51 1_555 1_555
H103 C111 1_555 1_555
H104 C111 1_555 1_555
H105 C111 1_555 1_555
C112 C109 1_555 1_555
H106 C112 1_555 1_555
C113 O49 1_555 1_555
H107 C113 1_555 1_555
H108 C113 1_555 1_555
H109 C113 1_555 1_555
C114 O47 1_555 1_555
H110 C114 1_555 1_555
H111 C114 1_555 1_555
H112 C114 1_555 1_555
C115 O54 1_555 1_555
H113 C115 1_555 1_555
H114 C115 1_555 1_555
H115 C115 1_555 1_555
C116 O45 1_555 1_555
H116 C116 1_555 1_555
H117 C116 1_555 1_555
H118 C116 1_555 1_555
C117 C108 1_555 1_555
H119 C117 1_555 1_555
C118 O50 1_555 1_555
H120 C118 1_555 1_555
H121 C118 1_555 1_555
H122 C118 1_555 1_555
C119 C112 1_555 1_555
H123 C119 1_555 1_555
C120 O52 1_555 1_555
H124 C120 1_555 1_555
H125 C120 1_555 1_555
H126 C120 1_555 1_555
C121 O46 1_555 1_555
H127 C121 1_555 1_555
H128 C121 1_555 1_555
H129 C121 1_555 1_555
C122 O48 1_555 1_555
H130 C122 1_555 1_555
H131 C122 1_555 1_555
H132 C122 1_555 1_555
C123 O53 1_555 1_555
H133 C123 1_555 1_555
H134 C123 1_555 1_555
H135 C123 1_555 1_555
C2 C6 1_555 1_555
C7 C15 1_555 1_555
C8 C21 1_555 1_555
C8 C24 1_555 1_555
C9 C12 1_555 1_555
C10 C17 1_555 1_555
C11 C13 1_555 1_555
C11 C18 1_555 1_555
C12 C23 1_555 1_555
C13 C32 1_555 1_555
C16 C18 1_555 1_555
C19 C21 1_555 1_555
C25 C26 1_555 1_555
C27 C32 1_555 1_555
C33 C38 1_555 1_555
C46 C63 1_555 1_555
C49 C52 1_555 1_555
C50 C58 1_555 1_555
C51 C67 1_555 1_555
C53 C60 1_555 1_555
C56 C67 1_555 1_555
C61 C66 1_555 1_555
C64 C75 1_555 1_555
C65 C72 1_555 1_555
C70 C72 1_555 1_555
C71 C73 1_555 1_555
C84 C89 1_555 1_555
C85 C86 1_555 1_555
C90 C95 1_555 1_555
C91 C110 1_555 1_555
C93 C102 1_555 1_555
C96 C104 1_555 1_555
C98 C107 1_555 1_555
C99 C105 1_555 1_555
C100 C103 1_555 1_555
C101 C106 1_555 1_555
C117 C119 1_555 1_555

#END
