
#######################################################################
#
#                 Cambridge Crystallographic Data Centre
#                                CCDC 
#
#######################################################################
#
# If this CIF has been generated from an entry in the Cambridge 
# Structural Database, then it will include bibliographic, chemical, 
# crystal, experimental, refinement or atomic coordinate data resulting 
# from the CCDC's data processing and validation procedures.
#
#######################################################################

data_OHOKIH
_chemical_formula_moiety         'C24 H19 N1'
_chemical_name_systematic        1,2-diphenyl-4-(2-phenylvinyl)-1H-pyrrole
_symmetry_cell_setting           monoclinic
_symmetry_space_group_name_H-M   'C 2/c'
_symmetry_Int_Tables_number      15
_space_group_name_Hall           '-C 2yn'
loop_
_symmetry_equiv_pos_site_id
_symmetry_equiv_pos_as_xyz
1 x,y,z
2 -x,y,1/2-z
3 1/2+x,1/2+y,z
4 1/2-x,1/2+y,1/2-z
5 -x,-y,-z
6 x,-y,1/2+z
7 1/2-x,1/2-y,-z
8 1/2+x,1/2-y,1/2+z
_cell_length_a                   42.784(4)
_cell_length_b                   6.0454(6)
_cell_length_c                   31.552(3)
_cell_angle_alpha                90
_cell_angle_beta                 119.951(2)
_cell_angle_gamma                90
_cell_volume                     7070.96
_exptl_crystal_colour            colorless
_exptl_crystal_description       prismatic
_cell_formula_units_Z            16
loop_
_atom_site_label
_atom_site_type_symbol
_atom_site_fract_x
_atom_site_fract_y
_atom_site_fract_z
N1 N 0.06020(5) 0.4130(3) 0.41991(6)
C1 C 0.03291(5) 0.2656(3) 0.41283(6)
C2 C 0.00323(6) 0.3246(5) 0.36904(8)
H1 H -0.0191 0.2543 0.3548
C3 C 0.01175(8) 0.5065(5) 0.34926(8)
C4 C 0.04687(7) 0.5559(4) 0.38113(8)
H2 H 0.0599 0.6695 0.3772
C5 C -0.00572(11) 0.6671(7) 0.30792(13)
H3 H 0.0080 0.7796 0.3052
C6 C -0.04100(11) 0.6514(7) 0.27459(13)
H4 H -0.0548 0.5352 0.2758
C7 C -0.05756(7) 0.8229(4) 0.23581(8)
C8 C -0.04710(7) 1.0298(5) 0.23176(11)
H5 H -0.0258 1.0856 0.2574
C9 C -0.06620(11) 1.1572(6) 0.19240(15)
H6 H -0.0579 1.2977 0.1911
C10 C -0.09690(13) 1.0847(8) 0.15522(13)
H7 H -0.1096 1.1728 0.1276
C11 C -0.11001(8) 0.8798(9) 0.15727(12)
H8 H -0.1319 0.8300 0.1317
C12 C -0.08982(8) 0.7479(5) 0.19839(12)
H9 H -0.0983 0.6089 0.2004
C13 C 0.03498(5) 0.1028(3) 0.44761(7)
C14 C 0.01518(5) -0.0894(4) 0.43030(8)
H10 H 0.0017 -0.1139 0.3968
C15 C 0.01511(6) -0.2445(4) 0.46190(9)
H11 H 0.0015 -0.3727 0.4497
C16 C 0.03504(6) -0.2120(4) 0.51152(9)
H12 H 0.0352 -0.3181 0.5329
C17 C 0.05476(6) -0.0219(4) 0.52917(8)
H13 H 0.0684 0.0005 0.5628
C18 C 0.05471(5) 0.1362(4) 0.49787(7)
H14 H 0.0679 0.2658 0.5103
C19 C 0.09670(5) 0.4167(4) 0.46021(7)
C20 C 0.11897(6) 0.2353(4) 0.47083(8)
H15 H 0.1105 0.1070 0.4522
C21 C 0.15409(6) 0.2467(5) 0.50955(9)
H16 H 0.1692 0.1252 0.5168
C22 C 0.16670(6) 0.4333(5) 0.53718(9)
H17 H 0.1903 0.4392 0.5630
C23 C 0.14432(7) 0.6128(4) 0.52673(9)
H18 H 0.1527 0.7398 0.5458
C24 C 0.10948(6) 0.6054(4) 0.48815(8)
H19 H 0.0945 0.7281 0.4809
N2 N 0.23736(5) 0.9536(3) 0.33273(7)
C27 C 0.24315(5) 0.8052(3) 0.36930(6)
C28 C 0.27063(6) 0.6689(4) 0.37518(8)
H22 H 0.2802 0.5531 0.3975
C29 C 0.28218(6) 0.7312(4) 0.34231(9)
C30 C 0.26122(6) 0.9063(4) 0.31681(9)
H23 H 0.2628 0.9824 0.2923
C31 C 0.31045(7) 0.6367(5) 0.33516(9)
H24 H 0.3172 0.7130 0.3154
C32 C 0.32733(8) 0.4458(5) 0.35534(11)
H25 H 0.3194 0.3658 0.3734
C33 C 0.35757(6) 0.3536(4) 0.35088(8)
C34 C 0.37478(6) 0.4525(4) 0.32897(8)
H26 H 0.3665 0.5884 0.3136
C35 C 0.40377(7) 0.3556(5) 0.32926(9)
H27 H 0.4148 0.4258 0.3139
C36 C 0.41659(7) 0.1573(5) 0.35180(9)
H28 H 0.4367 0.0936 0.3528
C37 C 0.39934(7) 0.0529(5) 0.37297(9)
H29 H 0.4073 -0.0848 0.3876
C38 C 0.37032(7) 0.1512(4) 0.37266(9)
H30 H 0.3590 0.0795 0.3875
C39 C 0.20907(6) 1.1172(4) 0.31111(7)
C40 C 0.17549(6) 1.0816(4) 0.30627(7)
H31 H 0.1708 0.9506 0.3176
C41 C 0.14888(7) 1.2400(5) 0.28469(8)
H32 H 0.1265 1.2171 0.2822
C42 C 0.15536(8) 1.4316(5) 0.26694(8)
H33 H 0.1373 1.5376 0.2522
C43 C 0.18808(9) 1.4667(4) 0.27086(8)
H34 H 0.1923 1.5964 0.2587
C44 C 0.21498(7) 1.3106(4) 0.29280(8)
H35 H 0.2373 1.3356 0.2953
C45 C 0.22623(5) 0.8052(4) 0.39949(7)
C46 C 0.20995(7) 0.6155(4) 0.40298(9)
H36 H 0.2083 0.4922 0.3843
C47 C 0.19615(8) 0.6080(5) 0.43402(11)
H37 H 0.1855 0.4787 0.4366
C48 C 0.19803(8) 0.7895(6) 0.46113(10)
H38 H 0.1887 0.7835 0.4821
C49 C 0.21366(7) 0.9790(5) 0.45728(9)
H39 H 0.2147 1.1027 0.4754
C50 C 0.22796(6) 0.9890(4) 0.42671(8)
H40 H 0.2387 1.1186 0.4244
C25? C -0.02369(18) 0.5615(11) 0.3023(2)
H20? H -0.0432 0.4650 0.2883
C26? C -0.02407(19) 0.7537(11) 0.2840(2)
H21? H -0.0044 0.8484 0.2997
C51? C 0.3108(3) 0.534(2) 0.3590(5)
H41? H 0.3132 0.4302 0.3821
C52? C 0.3294(4) 0.529(3) 0.3394(5)
H42? H 0.3260 0.6374 0.3166
loop_
_geom_bond_atom_site_label_1
_geom_bond_atom_site_label_2
_geom_bond_site_symmetry_1
_geom_bond_site_symmetry_2
N1 C1 1_555 1_555
C1 C2 1_555 1_555
C2 H1 1_555 1_555
C3 C2 1_555 1_555
C4 N1 1_555 1_555
H2 C4 1_555 1_555
C5 C3 1_555 1_555
H3 C5 1_555 1_555
C6 C5 1_555 1_555
H4 C6 1_555 1_555
C7 C6 1_555 1_555
C8 C7 1_555 1_555
H5 C8 1_555 1_555
C9 C8 1_555 1_555
H6 C9 1_555 1_555
C10 C9 1_555 1_555
H7 C10 1_555 1_555
C11 C10 1_555 1_555
H8 C11 1_555 1_555
C12 C7 1_555 1_555
H9 C12 1_555 1_555
C13 C1 1_555 1_555
C14 C13 1_555 1_555
H10 C14 1_555 1_555
C15 C14 1_555 1_555
H11 C15 1_555 1_555
C16 C15 1_555 1_555
H12 C16 1_555 1_555
C17 C16 1_555 1_555
H13 C17 1_555 1_555
C18 C13 1_555 1_555
H14 C18 1_555 1_555
C19 N1 1_555 1_555
C20 C19 1_555 1_555
H15 C20 1_555 1_555
C21 C20 1_555 1_555
H16 C21 1_555 1_555
C22 C21 1_555 1_555
H17 C22 1_555 1_555
C23 C22 1_555 1_555
H18 C23 1_555 1_555
C24 C19 1_555 1_555
H19 C24 1_555 1_555
N2 C27 1_555 1_555
C27 C28 1_555 1_555
C28 H22 1_555 1_555
C29 C28 1_555 1_555
C30 N2 1_555 1_555
H23 C30 1_555 1_555
C31 C29 1_555 1_555
H24 C31 1_555 1_555
C32 C31 1_555 1_555
H25 C32 1_555 1_555
C33 C32 1_555 1_555
C34 C33 1_555 1_555
H26 C34 1_555 1_555
C35 C34 1_555 1_555
H27 C35 1_555 1_555
C36 C35 1_555 1_555
H28 C36 1_555 1_555
C37 C36 1_555 1_555
H29 C37 1_555 1_555
C38 C33 1_555 1_555
H30 C38 1_555 1_555
C39 N2 1_555 1_555
C40 C39 1_555 1_555
H31 C40 1_555 1_555
C41 C40 1_555 1_555
H32 C41 1_555 1_555
C42 C41 1_555 1_555
H33 C42 1_555 1_555
C43 C42 1_555 1_555
H34 C43 1_555 1_555
C44 C39 1_555 1_555
H35 C44 1_555 1_555
C45 C27 1_555 1_555
C46 C45 1_555 1_555
H36 C46 1_555 1_555
C47 C46 1_555 1_555
H37 C47 1_555 1_555
C48 C47 1_555 1_555
H38 C48 1_555 1_555
C49 C48 1_555 1_555
H39 C49 1_555 1_555
C50 C45 1_555 1_555
H40 C50 1_555 1_555
C3 C4 1_555 1_555
C11 C12 1_555 1_555
C17 C18 1_555 1_555
C23 C24 1_555 1_555
C29 C30 1_555 1_555
C37 C38 1_555 1_555
C43 C44 1_555 1_555
C49 C50 1_555 1_555

#END
