
#######################################################################
#
#                 Cambridge Crystallographic Data Centre
#                                CCDC 
#
#######################################################################
#
# If this CIF has been generated from an entry in the Cambridge 
# Structural Database, then it will include bibliographic, chemical, 
# crystal, experimental, refinement or atomic coordinate data resulting 
# from the CCDC's data processing and validation procedures.
#
#######################################################################

data_OHOKON
_chemical_formula_moiety         'C30 H23 N1'
_chemical_name_systematic        1,3,5-triphenyl-2-(1-phenylvinyl)-1H-pyrrole
_symmetry_cell_setting           monoclinic
_symmetry_space_group_name_H-M   'P 21/c'
_symmetry_Int_Tables_number      14
_space_group_name_Hall           '-P 2ybc'
loop_
_symmetry_equiv_pos_site_id
_symmetry_equiv_pos_as_xyz
1 x,y,z
2 -x,1/2+y,1/2-z
3 -x,-y,-z
4 x,1/2-y,1/2+z
_cell_length_a                   12.0216(13)
_cell_length_b                   6.2012(7)
_cell_length_c                   30.083(3)
_cell_angle_alpha                90
_cell_angle_beta                 101.315(3)
_cell_angle_gamma                90
_cell_volume                     2199.05
_exptl_crystal_colour            colorless
_exptl_crystal_description       prismatic
_cell_formula_units_Z            4
loop_
_atom_site_label
_atom_site_type_symbol
_atom_site_fract_x
_atom_site_fract_y
_atom_site_fract_z
N1 N 0.69311(15) 0.1264(3) 0.11624(6)
C1 C 0.65940(18) 0.2637(4) 0.07994(7)
C2 C 0.54531(19) 0.2323(4) 0.06515(8)
H1 H 0.5003 0.3044 0.0410
C3 C 0.50670(18) 0.0747(4) 0.09196(7)
C4 C 0.59933(18) 0.0093(4) 0.12349(7)
C5 C 0.60680(19) -0.1352(4) 0.16305(8)
C6 C 0.5765(2) -0.3389(5) 0.15788(10)
H2 H 0.5498 -0.3940 0.1290
H3 H 0.5817 -0.4277 0.1831
C7 C 0.64053(18) -0.0398(4) 0.20886(8)
C8 C 0.7113(2) -0.1459(5) 0.24365(9)
H4 H 0.7417 -0.2790 0.2382
C9 C 0.7375(3) -0.0569(6) 0.28634(10)
H5 H 0.7850 -0.1312 0.3094
C10 C 0.6949(3) 0.1378(7) 0.29531(10)
H6 H 0.7138 0.1975 0.3242
C11 C 0.6243(3) 0.2444(5) 0.26146(11)
H7 H 0.5939 0.3770 0.2673
C12 C 0.5978(2) 0.1567(4) 0.21879(9)
H8 H 0.5498 0.2318 0.1960
C13 C 0.73509(19) 0.4110(4) 0.06172(7)
C14 C 0.8474(2) 0.3667(5) 0.06091(8)
H9 H 0.8790 0.2367 0.0726
C15 C 0.9132(2) 0.5130(5) 0.04301(8)
H10 H 0.9893 0.4825 0.0437
C16 C 0.8680(3) 0.7014(5) 0.02440(9)
H11 H 0.9126 0.7977 0.0119
C17 C 0.7562(3) 0.7489(5) 0.02416(8)
H12 H 0.7250 0.8772 0.0114
C18 C 0.6900(2) 0.6054(4) 0.04297(8)
H13 H 0.6147 0.6391 0.0431
C19 C 0.38726(19) 0.0069(4) 0.08893(7)
C20 C 0.3455(2) -0.1859(5) 0.07066(9)
H14 H 0.3938 -0.2819 0.0601
C21 C 0.2329(3) -0.2400(6) 0.06772(11)
H15 H 0.2063 -0.3717 0.0552
C22 C 0.1607(2) -0.1041(7) 0.08283(10)
H16 H 0.0853 -0.1427 0.0813
C23 C 0.2000(2) 0.0908(6) 0.10036(10)
H17 H 0.1507 0.1865 0.1104
C24 C 0.3120(2) 0.1468(5) 0.10328(9)
H18 H 0.3374 0.2807 0.1151
C25 C 0.80409(18) 0.0997(4) 0.14348(7)
C26 C 0.8591(2) -0.0939(4) 0.14288(8)
H19 H 0.8248 -0.2061 0.1247
C27 C 0.9657(2) -0.1211(5) 0.16934(9)
H20 H 1.0028 -0.2526 0.1693
C28 C 1.0167(2) 0.0437(6) 0.19554(9)
H21 H 1.0890 0.0253 0.2130
C29 C 0.9618(2) 0.2362(6) 0.19627(9)
H22 H 0.9967 0.3479 0.2144
C30 C 0.8549(2) 0.2662(4) 0.17024(8)
H23 H 0.8177 0.3973 0.1708
loop_
_geom_bond_atom_site_label_1
_geom_bond_atom_site_label_2
_geom_bond_site_symmetry_1
_geom_bond_site_symmetry_2
N1 C1 1_555 1_555
C1 C2 1_555 1_555
C2 H1 1_555 1_555
C3 C2 1_555 1_555
C4 N1 1_555 1_555
C5 C4 1_555 1_555
C6 C5 1_555 1_555
H2 C6 1_555 1_555
H3 C6 1_555 1_555
C7 C5 1_555 1_555
C8 C7 1_555 1_555
H4 C8 1_555 1_555
C9 C8 1_555 1_555
H5 C9 1_555 1_555
C10 C9 1_555 1_555
H6 C10 1_555 1_555
C11 C10 1_555 1_555
H7 C11 1_555 1_555
C12 C7 1_555 1_555
H8 C12 1_555 1_555
C13 C1 1_555 1_555
C14 C13 1_555 1_555
H9 C14 1_555 1_555
C15 C14 1_555 1_555
H10 C15 1_555 1_555
C16 C15 1_555 1_555
H11 C16 1_555 1_555
C17 C16 1_555 1_555
H12 C17 1_555 1_555
C18 C13 1_555 1_555
H13 C18 1_555 1_555
C19 C3 1_555 1_555
C20 C19 1_555 1_555
H14 C20 1_555 1_555
C21 C20 1_555 1_555
H15 C21 1_555 1_555
C22 C21 1_555 1_555
H16 C22 1_555 1_555
C23 C22 1_555 1_555
H17 C23 1_555 1_555
C24 C19 1_555 1_555
H18 C24 1_555 1_555
C25 N1 1_555 1_555
C26 C25 1_555 1_555
H19 C26 1_555 1_555
C27 C26 1_555 1_555
H20 C27 1_555 1_555
C28 C27 1_555 1_555
H21 C28 1_555 1_555
C29 C28 1_555 1_555
H22 C29 1_555 1_555
C30 C25 1_555 1_555
H23 C30 1_555 1_555
C3 C4 1_555 1_555
C11 C12 1_555 1_555
C17 C18 1_555 1_555
C23 C24 1_555 1_555
C29 C30 1_555 1_555

#END
