
#######################################################################
#
#                 Cambridge Crystallographic Data Centre
#                                CCDC 
#
#######################################################################
#
# If this CIF has been generated from an entry in the Cambridge 
# Structural Database, then it will include bibliographic, chemical, 
# crystal, experimental, refinement or atomic coordinate data resulting 
# from the CCDC's data processing and validation procedures.
#
#######################################################################

data_OHOPEG
_chemical_formula_moiety         'C18 H15 N3'
_chemical_name_systematic        N-Phenyl-N'-2-pyridylbenzamidine
_symmetry_cell_setting           monoclinic
_symmetry_space_group_name_H-M   'P 21/n'
_symmetry_Int_Tables_number      14
_space_group_name_Hall           '-P 2yn'
loop_
_symmetry_equiv_pos_site_id
_symmetry_equiv_pos_as_xyz
1 x,y,z
2 1/2+x,1/2-y,1/2+z
3 -x,-y,-z
4 1/2-x,1/2+y,1/2-z
_cell_length_a                   14.547(7)
_cell_length_b                   5.967(2)
_cell_length_c                   16.770(10)
_cell_angle_alpha                90
_cell_angle_beta                 92.889(2)
_cell_angle_gamma                90
_cell_volume                     1453.82
_exptl_crystal_colour            colorless
_exptl_crystal_description       needle
_cell_formula_units_Z            4
_exptl_crystal_recrystallization_method hexanes/benzene
loop_
_atom_site_label
_atom_site_type_symbol
_atom_site_fract_x
_atom_site_fract_y
_atom_site_fract_z
N1 N 0.5386(2) 0.2234(5) 0.4134(2)
N2 N 0.6076(2) -0.0940(4) 0.46391(14)
N3 N 0.5767(2) 0.4565(5) 0.30923(15)
C1 C 0.6197(2) 0.0982(5) 0.4244(2)
C2 C 0.7043(2) 0.1635(7) 0.3973(2)
C3 C 0.7779(2) 0.0196(7) 0.4099(2)
C4 C 0.7660(2) -0.1831(6) 0.4478(2)
C5 C 0.6801(2) -0.2301(6) 0.4740(2)
C6 C 0.4177(2) 0.4497(5) 0.3544(2)
C7 C 0.3490(2) 0.3005(6) 0.3275(2)
C8 C 0.2575(2) 0.3617(7) 0.3284(2)
C9 C 0.2331(2) 0.5696(6) 0.3572(2)
C10 C 0.3012(2) 0.7186(6) 0.3832(2)
C11 C 0.3930(2) 0.6601(6) 0.3819(2)
C12 C 0.5513(2) 0.6056(6) 0.2464(2)
C13 C 0.4895(2) 0.5478(7) 0.1843(2)
C14 C 0.4726(3) 0.6970(9) 0.1216(2)
C15 C 0.5150(3) 0.9014(9) 0.1210(3)
C16 C 0.5780(4) 0.9588(8) 0.1822(2)
C17 C 0.5961(3) 0.8106(6) 0.2437(2)
C18 C 0.5166(2) 0.3820(5) 0.3556(2)
H1 H 0.7093(21) 0.3043(60) 0.3702(19)
H2 H 0.1642(24) 0.6052(53) 0.3585(18)
H3 H 0.8366(24) 0.0601(51) 0.3912(18)
H4 H 0.8154(24) -0.2987(62) 0.4554(21)
H5 H 0.6664(19) -0.3698(53) 0.5016(17)
H6 H 0.3696(21) 0.1477(62) 0.3063(19)
H7 H 0.4936(28) 0.1766(64) 0.4430(24)
H8 H 0.4386(28) 0.7737(71) 0.4008(24)
H9 H 0.4625(23) 0.3957(62) 0.1876(18)
H10 H 0.2098(25) 0.2537(63) 0.3057(21)
H11 H 0.4298(29) 0.6539(68) 0.0808(26)
H12 H 0.2825(24) 0.8621(69) 0.4059(22)
H13 H 0.5087(34) 1.0136(85) 0.0773(32)
H14 H 0.6432(27) 0.8469(65) 0.2831(25)
H15 H 0.6130(32) 1.1077(85) 0.1821(27)
loop_
_geom_bond_atom_site_label_1
_geom_bond_atom_site_label_2
_geom_bond_site_symmetry_1
_geom_bond_site_symmetry_2
N1 C1 1_555 1_555
N2 C1 1_555 1_555
N3 C12 1_555 1_555
C1 C2 1_555 1_555
C2 C3 1_555 1_555
C3 C4 1_555 1_555
C4 C5 1_555 1_555
C5 N2 1_555 1_555
C6 C7 1_555 1_555
C7 C8 1_555 1_555
C8 C9 1_555 1_555
C9 C10 1_555 1_555
C10 C11 1_555 1_555
C11 C6 1_555 1_555
C12 C13 1_555 1_555
C13 C14 1_555 1_555
C14 C15 1_555 1_555
C15 C16 1_555 1_555
C16 C17 1_555 1_555
C17 C12 1_555 1_555
C18 N1 1_555 1_555
H1 C2 1_555 1_555
H2 C9 1_555 1_555
H3 C3 1_555 1_555
H4 C4 1_555 1_555
H5 C5 1_555 1_555
H6 C7 1_555 1_555
H7 N1 1_555 1_555
H8 C11 1_555 1_555
H9 C13 1_555 1_555
H10 C8 1_555 1_555
H11 C14 1_555 1_555
H12 C10 1_555 1_555
H13 C15 1_555 1_555
H14 C17 1_555 1_555
H15 C16 1_555 1_555
N3 C18 1_555 1_555
C6 C18 1_555 1_555

#END
