
#######################################################################
#
#                 Cambridge Crystallographic Data Centre
#                                CCDC 
#
#######################################################################
#
# If this CIF has been generated from an entry in the Cambridge 
# Structural Database, then it will include bibliographic, chemical, 
# crystal, experimental, refinement or atomic coordinate data resulting 
# from the CCDC's data processing and validation procedures.
#
#######################################################################

data_OHOPUY
_chemical_formula_moiety         'C2 N7 O2 1-,C1 H6 N3 1+'
_chemical_name_systematic        
'Diaminomethaniminium 5-azido-4-nitro-1,2,3-triazol-2-ide'
_symmetry_cell_setting           monoclinic
_symmetry_space_group_name_H-M   'P c'
_symmetry_Int_Tables_number      7
_space_group_name_Hall           'P -2yc'
loop_
_symmetry_equiv_pos_site_id
_symmetry_equiv_pos_as_xyz
1 x,y,z
2 x,-y,1/2+z
_cell_length_a                   3.5714(10)
_cell_length_b                   9.496(3)
_cell_length_c                   12.886(4)
_cell_angle_alpha                90
_cell_angle_beta                 90.883(4)
_cell_angle_gamma                90
_cell_volume                     436.964
_exptl_crystal_colour            yellow
_exptl_crystal_description       Prism
_cell_formula_units_Z            2
loop_
_atom_site_label
_atom_site_type_symbol
_atom_site_fract_x
_atom_site_fract_y
_atom_site_fract_z
O1 O 0.7274(3) 0.55587(9) 0.57047(8)
O2 O 1.0086(3) 0.49243(10) 0.42975(7)
N1 N 0.9328(3) 0.14543(11) 0.65987(9)
N2 N 1.0753(3) 0.11276(11) 0.56487(9)
N3 N 1.0747(3) 0.22315(11) 0.50288(9)
N4 N 0.6747(3) 0.35571(11) 0.73753(8)
N5 N 0.5956(3) 0.27927(12) 0.81329(8)
N6 N 0.5076(4) 0.22300(14) 0.88553(10)
N7 N 0.8856(3) 0.46664(11) 0.51677(8)
C1 C 0.8360(3) 0.28113(12) 0.65601(9)
C2 C 0.9266(3) 0.33034(12) 0.55815(9)
N8 N 0.3925(3) 0.67501(12) 0.76461(10)
N9 N 0.3738(3) 0.82925(13) 0.62639(8)
N10 N 0.1503(3) 0.89676(12) 0.78509(9)
C3 C 0.3039(3) 0.79990(12) 0.72489(9)
H1 H 0.496(5) 0.6122(19) 0.7263(15)
H2 H 0.320(5) 0.6534(19) 0.8275(16)
H3 H 0.468(5) 0.7687(19) 0.5879(14)
H4 H 0.307(5) 0.9067(18) 0.6006(13)
H5 H 0.072(4) 0.9774(17) 0.7583(12)
H6 H 0.099(5) 0.8681(19) 0.8468(15)
loop_
_geom_bond_atom_site_label_1
_geom_bond_atom_site_label_2
_geom_bond_site_symmetry_1
_geom_bond_site_symmetry_2
O1 N7 1_555 1_555
O2 N7 1_555 1_555
N1 N2 1_555 1_555
N2 N3 1_555 1_555
N3 C2 1_555 1_555
N4 N5 1_555 1_555
N5 N6 1_555 1_555
N7 C2 1_555 1_555
C1 N1 1_555 1_555
C2 C1 1_555 1_555
N8 C3 1_555 1_555
N9 C3 1_555 1_555
N10 C3 1_555 1_555
H1 N8 1_555 1_555
H2 N8 1_555 1_555
H3 N9 1_555 1_555
H4 N9 1_555 1_555
H5 N10 1_555 1_555
H6 N10 1_555 1_555
N4 C1 1_555 1_555

#END
