
#######################################################################
#
#                 Cambridge Crystallographic Data Centre
#                                CCDC 
#
#######################################################################
#
# If this CIF has been generated from an entry in the Cambridge 
# Structural Database, then it will include bibliographic, chemical, 
# crystal, experimental, refinement or atomic coordinate data resulting 
# from the CCDC's data processing and validation procedures.
#
#######################################################################

data_OHOPOS
_chemical_formula_moiety         'C1 H8 N5 1+,C2 N5 O4 1-'
_chemical_name_systematic        
'Dihydrazinomethaniminium 4,5-dinitro-1,2,3-triazol-2-ide'
_symmetry_cell_setting           triclinic
_symmetry_space_group_name_H-M   'P -1'
_symmetry_Int_Tables_number      2
_space_group_name_Hall           '-P 1'
loop_
_symmetry_equiv_pos_site_id
_symmetry_equiv_pos_as_xyz
1 x,y,z
2 -x,-y,-z
_cell_length_a                   6.553(2)
_cell_length_b                   8.471(3)
_cell_length_c                   9.078(3)
_cell_angle_alpha                93.386(5)
_cell_angle_beta                 91.224(7)
_cell_angle_gamma                98.007(5)
_cell_volume                     497.917
_exptl_crystal_colour            yellow
_exptl_crystal_description       Prism
_cell_formula_units_Z            2
loop_
_atom_site_label
_atom_site_type_symbol
_atom_site_fract_x
_atom_site_fract_y
_atom_site_fract_z
O1 O 0.26876(15) 0.56606(9) 0.58630(9)
O2 O 0.39678(12) 0.41188(9) 0.73289(8)
O3 O 0.32266(15) 0.09075(9) 0.74977(8)
O4 O 0.29167(13) -0.10522(9) 0.58511(9)
N1 N 0.20419(13) 0.33876(11) 0.37125(9)
N2 N 0.16778(14) 0.19870(12) 0.29205(9)
N3 N 0.19664(13) 0.07669(11) 0.37362(9)
N4 N 0.31029(12) 0.43564(10) 0.61643(9)
N5 N 0.29275(12) 0.03604(9) 0.62202(9)
C1 C 0.25785(13) 0.30535(11) 0.50726(10)
C2 C 0.25381(13) 0.14098(11) 0.50864(9)
N6 N 0.12728(13) 0.69371(12) 0.27844(9)
N7 N 0.23393(13) 0.71364(11) 0.14641(8)
N8 N 0.44616(14) 0.76177(14) -0.09788(10)
N9 N 0.22988(13) 0.74975(13) -0.10186(9)
N10 N -0.07381(14) 0.72126(14) 0.02096(10)
C3 C 0.12919(14) 0.72930(11) 0.02306(10)
H1 H 0.163(2) 0.6077(17) 0.3152(15)
H2 H 0.170(2) 0.7830(17) 0.3411(16)
H3 H 0.366(2) 0.7206(17) 0.1449(15)
H4 H 0.495(2) 0.8565(19) -0.1338(17)
H5 H 0.484(2) 0.683(2) -0.160(2)
H6 H 0.167(2) 0.7632(17) -0.1839(16)
H7 H -0.133(2) 0.7173(18) 0.1040(17)
H8 H -0.134(2) 0.7504(19) -0.0541(18)
loop_
_geom_bond_atom_site_label_1
_geom_bond_atom_site_label_2
_geom_bond_site_symmetry_1
_geom_bond_site_symmetry_2
O1 N4 1_555 1_555
O2 N4 1_555 1_555
O3 N5 1_555 1_555
O4 N5 1_555 1_555
N1 N2 1_555 1_555
N2 N3 1_555 1_555
N3 C2 1_555 1_555
N4 C1 1_555 1_555
N5 C2 1_555 1_555
C1 N1 1_555 1_555
C2 C1 1_555 1_555
N6 N7 1_555 1_555
N7 C3 1_555 1_555
N8 N9 1_555 1_555
N9 C3 1_555 1_555
N10 C3 1_555 1_555
H1 N6 1_555 1_555
H2 N6 1_555 1_555
H3 N7 1_555 1_555
H4 N8 1_555 1_555
H5 N8 1_555 1_555
H6 N9 1_555 1_555
H7 N10 1_555 1_555
H8 N10 1_555 1_555

#END
