
#######################################################################
#
#                 Cambridge Crystallographic Data Centre
#                                CCDC 
#
#######################################################################
#
# If this CIF has been generated from an entry in the Cambridge 
# Structural Database, then it will include bibliographic, chemical, 
# crystal, experimental, refinement or atomic coordinate data resulting 
# from the CCDC's data processing and validation procedures.
#
#######################################################################

data_OHOQEJ
_chemical_formula_moiety         'C2 N6 O4 2-,2(H4 N1 O1 1+)'
_chemical_name_systematic        
'bis(Hydroxyammonium) 4-nitro-5-(nitroazanidyl)-1,2,3-triazol-1-ide'
_symmetry_cell_setting           triclinic
_symmetry_space_group_name_H-M   'P -1'
_symmetry_Int_Tables_number      2
_space_group_name_Hall           '-P 1'
loop_
_symmetry_equiv_pos_site_id
_symmetry_equiv_pos_as_xyz
1 x,y,z
2 -x,-y,-z
_cell_length_a                   3.9086(13)
_cell_length_b                   7.562(3)
_cell_length_c                   14.930(5)
_cell_angle_alpha                95.806(5)
_cell_angle_beta                 91.521(5)
_cell_angle_gamma                101.793(5)
_cell_volume                     429.248
_exptl_crystal_colour            yellow
_exptl_crystal_description       Prism
_cell_formula_units_Z            2
loop_
_atom_site_label
_atom_site_type_symbol
_atom_site_fract_x
_atom_site_fract_y
_atom_site_fract_z
O1 O 0.2987(2) 0.56638(11) 0.40826(5)
O2 O -0.0859(2) 0.36291(12) 0.32438(6)
O3 O 0.6803(3) 0.86428(13) 0.03786(6)
O4 O 0.2802(2) 0.63835(13) 0.07012(6)
N1 N 0.7380(3) 0.80947(13) 0.33002(7)
N2 N 0.9575(3) 0.94965(13) 0.29739(7)
N3 N 0.9101(3) 0.94851(13) 0.20983(7)
N4 N 0.2711(3) 0.56168(13) 0.25525(6)
N5 N 0.1688(3) 0.50075(13) 0.33074(7)
N6 N 0.5320(3) 0.76588(14) 0.09289(7)
C1 C 0.5379(3) 0.71467(15) 0.25959(7)
C2 C 0.6512(3) 0.80314(15) 0.18413(8)
O5 O 0.3177(2) 0.12226(12) 0.44380(6)
N7 N 0.1058(3) 0.22993(14) 0.48995(7)
H1 H -0.129(4) 0.177(2) 0.4769(11)
H2 H 0.159(4) 0.345(3) 0.4693(12)
H3 H 0.159(4) 0.231(2) 0.5516(12)
H4 H 0.217(5) 0.087(3) 0.3901(14)
O6 O 0.6338(2) 1.29011(14) 0.16026(6)
N8 N 0.9355(3) 1.26951(15) 0.11477(7)
H5 H 0.876(5) 1.267(3) 0.0541(13)
H6 H 0.987(4) 1.165(3) 0.1296(11)
H7 H 1.114(5) 1.367(3) 0.1344(13)
H8 H 0.714(5) 1.315(3) 0.2200(14)
loop_
_geom_bond_atom_site_label_1
_geom_bond_atom_site_label_2
_geom_bond_site_symmetry_1
_geom_bond_site_symmetry_2
O1 N5 1_555 1_555
O2 N5 1_555 1_555
O3 N6 1_555 1_555
O4 N6 1_555 1_555
N1 N2 1_555 1_555
N2 N3 1_555 1_555
N3 C2 1_555 1_555
N4 N5 1_555 1_555
N6 C2 1_555 1_555
C1 N1 1_555 1_555
C2 C1 1_555 1_555
O5 N7 1_555 1_555
N7 H1 1_555 1_555
H2 N7 1_555 1_555
H3 N7 1_555 1_555
H4 O5 1_555 1_555
O6 N8 1_555 1_555
N8 H5 1_555 1_555
H6 N8 1_555 1_555
H7 N8 1_555 1_555
H8 O6 1_555 1_555
N4 C1 1_555 1_555

#END
