
#######################################################################
#
#                 Cambridge Crystallographic Data Centre
#                                CCDC 
#
#######################################################################
#
# If this CIF has been generated from an entry in the Cambridge 
# Structural Database, then it will include bibliographic, chemical, 
# crystal, experimental, refinement or atomic coordinate data resulting 
# from the CCDC's data processing and validation procedures.
#
#######################################################################

data_OHOSUB
_chemical_formula_moiety         'C24 H24'
_chemical_name_systematic        
4-(5,5-Dimethyl-5,6,7,8-tetrahydronaphthalen-2-yl)biphenyl
_symmetry_cell_setting           monoclinic
_symmetry_space_group_name_H-M   'P 21/n'
_symmetry_Int_Tables_number      14
_space_group_name_Hall           '-P 2yn'
loop_
_symmetry_equiv_pos_site_id
_symmetry_equiv_pos_as_xyz
1 x,y,z
2 1/2-x,1/2+y,1/2-z
3 -x,-y,-z
4 1/2+x,1/2-y,1/2+z
_cell_length_a                   7.4014(9)
_cell_length_b                   30.606(4)
_cell_length_c                   7.7390(10)
_cell_angle_alpha                90
_cell_angle_beta                 100.806(3)
_cell_angle_gamma                90
_cell_volume                     1722.01
_exptl_crystal_colour            colorless
_exptl_crystal_description       Columnar
_cell_formula_units_Z            4
loop_
_atom_site_label
_atom_site_type_symbol
_atom_site_fract_x
_atom_site_fract_y
_atom_site_fract_z
C1 C -0.4904(2) 0.17522(6) 0.4585(2)
H1 H -0.5463 0.1689 0.3360
H2 H -0.5499 0.2009 0.4988
H3 H -0.5063 0.1500 0.5324
C2 C -0.2842(2) 0.18442(5) 0.4713(2)
C3 C -0.1861(2) 0.14687(5) 0.3950(2)
C4 C -0.2196(2) 0.10356(5) 0.4399(2)
H4 H -0.3124 0.0979 0.5068
C5 C -0.1213(2) 0.06875(5) 0.3895(2)
H5 H -0.1481 0.0399 0.4218
C6 C 0.0170(2) 0.07574(5) 0.2915(2)
C7 C 0.1322(2) 0.03882(5) 0.2491(2)
C8 C 0.3195(2) 0.04453(5) 0.2483(2)
H6 H 0.3723 0.0728 0.2682
C9 C 0.4296(2) 0.00960(5) 0.2189(2)
H7 H 0.5566 0.0143 0.2194
C10 C 0.3559(2) -0.03259(5) 0.1885(2)
C11 C 0.4753(2) -0.07062(5) 0.1681(2)
C12 C 0.4125(2) -0.10451(5) 0.0504(2)
H8 H 0.2930 -0.1028 -0.0203
C13 C 0.5219(2) -0.14043(5) 0.0358(2)
H9 H 0.4766 -0.1633 -0.0437
C14 C 0.6980(2) -0.14335(5) 0.1368(2)
H10 H 0.7734 -0.1679 0.1255
C15 C -0.1948(2) 0.18944(6) 0.6675(2)
H11 H -0.2093 0.1622 0.7299
H12 H -0.2549 0.2133 0.7194
H13 H -0.0636 0.1960 0.6775
C16 C -0.2635(2) 0.22739(5) 0.3734(2)
H14 H -0.3481 0.2268 0.2580
H15 H -0.3007 0.2520 0.4419
C17 C -0.0686(2) 0.23545(6) 0.3436(3)
H16 H 0.0179 0.2357 0.4579
H17 H -0.0620 0.2642 0.2866
C18 C -0.0148(2) 0.19946(5) 0.2268(2)
H18 H -0.0843 0.2034 0.1054
H19 H 0.1178 0.2021 0.2234
C19 C -0.0525(2) 0.15393(5) 0.2907(2)
C20 C 0.0468(2) 0.11868(5) 0.2427(2)
H20 H 0.1383 0.1241 0.1741
C21 C 0.0583(2) -0.00303(5) 0.2125(2)
H21 H -0.0694 -0.0076 0.2081
C22 C 0.1675(2) -0.03784(5) 0.1827(2)
H22 H 0.1133 -0.0658 0.1579
C23 C 0.6522(2) -0.07419(5) 0.2700(2)
H23 H 0.6975 -0.0517 0.3512
C24 C 0.7627(2) -0.11017(5) 0.2542(2)
H24 H 0.8826 -0.1120 0.3239
loop_
_geom_bond_atom_site_label_1
_geom_bond_atom_site_label_2
_geom_bond_site_symmetry_1
_geom_bond_site_symmetry_2
C1 H1 1_555 1_555
H2 C1 1_555 1_555
H3 C1 1_555 1_555
C2 C1 1_555 1_555
C3 C2 1_555 1_555
C4 C3 1_555 1_555
H4 C4 1_555 1_555
C5 C4 1_555 1_555
H5 C5 1_555 1_555
C6 C5 1_555 1_555
C7 C6 1_555 1_555
C8 C7 1_555 1_555
H6 C8 1_555 1_555
C9 C8 1_555 1_555
H7 C9 1_555 1_555
C10 C9 1_555 1_555
C11 C10 1_555 1_555
C12 C11 1_555 1_555
H8 C12 1_555 1_555
C13 C12 1_555 1_555
H9 C13 1_555 1_555
C14 C13 1_555 1_555
H10 C14 1_555 1_555
C15 C2 1_555 1_555
H11 C15 1_555 1_555
H12 C15 1_555 1_555
H13 C15 1_555 1_555
C16 C2 1_555 1_555
H14 C16 1_555 1_555
H15 C16 1_555 1_555
C17 C16 1_555 1_555
H16 C17 1_555 1_555
H17 C17 1_555 1_555
C18 C17 1_555 1_555
H18 C18 1_555 1_555
H19 C18 1_555 1_555
C19 C3 1_555 1_555
C20 C6 1_555 1_555
H20 C20 1_555 1_555
C21 C7 1_555 1_555
H21 C21 1_555 1_555
C22 C10 1_555 1_555
H22 C22 1_555 1_555
C23 C11 1_555 1_555
H23 C23 1_555 1_555
C24 C14 1_555 1_555
H24 C24 1_555 1_555
C18 C19 1_555 1_555
C19 C20 1_555 1_555
C21 C22 1_555 1_555
C23 C24 1_555 1_555

#END
