
#######################################################################
#
#                 Cambridge Crystallographic Data Centre
#                                CCDC 
#
#######################################################################
#
# If this CIF has been generated from an entry in the Cambridge 
# Structural Database, then it will include bibliographic, chemical, 
# crystal, experimental, refinement or atomic coordinate data resulting 
# from the CCDC's data processing and validation procedures.
#
#######################################################################

data_OHOTAI
_chemical_formula_moiety         'C37 H27 Br1 O4,C1 H1 Cl3'
_chemical_name_systematic        
"5-(4-bromophenyl)-6a-hydroxy-3-phenyl-1,3,4,4a,5,6a-hexahydrospiro[benzo[a]fluorene-6,2'-indene]-1',3',11(2H)-trione chloroform solvate"
_symmetry_cell_setting           triclinic
_symmetry_space_group_name_H-M   'P -1'
_symmetry_Int_Tables_number      2
_space_group_name_Hall           '-P 1'
loop_
_symmetry_equiv_pos_site_id
_symmetry_equiv_pos_as_xyz
1 x,y,z
2 -x,-y,-z
_cell_length_a                   8.5090(13)
_cell_length_b                   11.0649(17)
_cell_length_c                   18.093(3)
_cell_angle_alpha                85.860(2)
_cell_angle_beta                 80.748(2)
_cell_angle_gamma                73.612(2)
_cell_volume                     1612.36
_exptl_crystal_colour            colorless
_exptl_crystal_description       prism
_cell_formula_units_Z            2
loop_
_atom_site_label
_atom_site_type_symbol
_atom_site_fract_x
_atom_site_fract_y
_atom_site_fract_z
C1 C 0.7989(6) 0.0132(4) 0.4234(3)
C2 C 0.6859(6) 0.1235(5) 0.4071(3)
H1 H 0.5848 0.1527 0.4399
C3 C 0.7200(6) 0.1919(4) 0.3426(3)
H2 H 0.6401 0.2670 0.3305
C4 C 0.8693(5) 0.1528(4) 0.2951(2)
C5 C 0.9795(6) 0.0398(4) 0.3126(3)
H3 H 1.0807 0.0104 0.2799
C6 C 0.9465(6) -0.0320(5) 0.3763(3)
H4 H 1.0228 -0.1098 0.3873
C7 C 0.9170(5) 0.2330(4) 0.2271(2)
H5 H 1.0393 0.1991 0.2123
C8 C 0.8873(6) 0.3706(4) 0.2493(2)
H6 H 0.7799 0.3921 0.2839
C9 C 1.0201(6) 0.3816(4) 0.2952(3)
H7 H 1.0270 0.3191 0.3373
H8 H 1.1293 0.3629 0.2630
C10 C 0.9785(6) 0.5138(4) 0.3257(3)
H9 H 0.8660 0.5301 0.3562
C11 C 1.0946(7) 0.5300(5) 0.3766(3)
C12 C 1.2478(12) 0.4438(9) 0.3813(5)
H10 H 1.2894 0.3765 0.3474
C13 C 1.3376(14) 0.4562(11) 0.4346(6)
H11 H 1.4411 0.3961 0.4381
C14 C 1.2818(13) 0.5546(9) 0.4841(6)
H12 H 1.3502 0.5662 0.5181
C15 C 1.1242(14) 0.6358(9) 0.4831(6)
H13 H 1.0808 0.7008 0.5184
C16 C 1.0326(19) 0.6207(13) 0.4306(8)
H14 H 0.9233 0.6741 0.4312
C17 C 0.9653(7) 0.6107(5) 0.2611(3)
H15 H 1.0750 0.5979 0.2297
H16 H 0.9328 0.6964 0.2814
C18 C 0.8372(7) 0.6004(4) 0.2121(3)
H17 H 0.7248 0.6277 0.2410
H18 H 0.8418 0.6577 0.1677
C19 C 0.8685(5) 0.4679(4) 0.1867(3)
C20 C 0.8687(5) 0.4377(4) 0.1169(2)
C21 C 0.8061(5) 0.5235(4) 0.0550(2)
C22 C 0.7672(5) 0.4456(4) 0.0015(2)
C23 C 0.6894(6) 0.4852(4) -0.0614(3)
H19 H 0.6497 0.5724 -0.0735
C24 C 0.6709(6) 0.3957(5) -0.1059(3)
H20 H 0.6146 0.4207 -0.1481
C25 C 0.7356(6) 0.2675(5) -0.0884(3)
H21 H 0.7271 0.2062 -0.1205
C26 C 0.8117(6) 0.2282(4) -0.0254(2)
H22 H 0.8555 0.1410 -0.0145
C27 C 0.8230(5) 0.3177(4) 0.0214(2)
C28 C 0.9041(5) 0.3018(4) 0.0926(2)
C29 C 0.8371(5) 0.2205(4) 0.1575(2)
C30 C 0.8830(5) 0.0809(4) 0.1369(2)
C31 C 0.7318(5) 0.0503(4) 0.1248(2)
C32 C 0.7149(6) -0.0598(4) 0.0991(3)
H23 H 0.8083 -0.1303 0.0879
C33 C 0.5582(6) -0.0638(5) 0.0902(3)
H24 H 0.5441 -0.1381 0.0722
C34 C 0.4195(6) 0.0392(5) 0.1073(3)
H25 H 0.3132 0.0343 0.1003
C35 C 0.4362(6) 0.1483(4) 0.1344(3)
H26 H 0.3423 0.2177 0.1472
C36 C 0.5938(5) 0.1537(4) 0.1422(2)
C37 C 0.6473(5) 0.2577(4) 0.1684(2)
O1 O 0.7886(4) 0.6380(3) 0.04790(17)
O2 O 1.0775(3) 0.2417(3) 0.07664(17)
H27 H 1.1142 0.2824 0.0430
O3 O 1.0199(4) 0.0076(3) 0.13332(19)
O4 O 0.5561(4) 0.3558(3) 0.19408(19)
Br1 Br 0.75680(7) -0.07827(5) 0.51434(3)
C43 C 0.4191(9) 0.8431(8) 0.3449(4)
H33 H 0.3173 0.8904 0.3776
Cl1 Cl 0.5133(8) 0.9400(6) 0.2950(3)
Cl2 Cl 0.3701(6) 0.7776(5) 0.2723(3)
Cl3 Cl 0.5635(4) 0.7326(4) 0.4005(2)
C38? C 1.2780(19) 0.4878(13) 0.3524(9)
H28? H 1.3210 0.4359 0.3101
C39? C 1.386(3) 0.5234(16) 0.3906(11)
H29? H 1.5018 0.4980 0.3731
C40? C 1.328(2) 0.5955(15) 0.4540(10)
H30? H 1.4026 0.6110 0.4834
C41? C 1.173(2) 0.6402(14) 0.4719(9)
H31? H 1.1331 0.6973 0.5119
C42? C 1.058(3) 0.608(2) 0.4342(13)
H32? H 0.9438 0.6451 0.4513
Cl4? Cl 0.4387(8) 1.0003(6) 0.2989(3)
Cl5? Cl 0.3474(5) 0.7392(4) 0.2925(2)
Cl6? Cl 0.5901(7) 0.7811(6) 0.3808(3)
loop_
_geom_bond_atom_site_label_1
_geom_bond_atom_site_label_2
_geom_bond_site_symmetry_1
_geom_bond_site_symmetry_2
C1 C2 1_555 1_555
C2 H1 1_555 1_555
C3 C2 1_555 1_555
H2 C3 1_555 1_555
C4 C3 1_555 1_555
C5 C4 1_555 1_555
H3 C5 1_555 1_555
C6 C1 1_555 1_555
H4 C6 1_555 1_555
C7 C4 1_555 1_555
H5 C7 1_555 1_555
C8 C7 1_555 1_555
H6 C8 1_555 1_555
C9 C8 1_555 1_555
H7 C9 1_555 1_555
H8 C9 1_555 1_555
C10 C9 1_555 1_555
H9 C10 1_555 1_555
C11 C10 1_555 1_555
C12 C11 1_555 1_555
H10 C12 1_555 1_555
C13 C12 1_555 1_555
H11 C13 1_555 1_555
C14 C13 1_555 1_555
H12 C14 1_555 1_555
C15 C14 1_555 1_555
H13 C15 1_555 1_555
C16 C11 1_555 1_555
H14 C16 1_555 1_555
C17 C10 1_555 1_555
H15 C17 1_555 1_555
H16 C17 1_555 1_555
C18 C17 1_555 1_555
H17 C18 1_555 1_555
H18 C18 1_555 1_555
C19 C8 1_555 1_555
C20 C19 1_555 1_555
C21 C20 1_555 1_555
C22 C21 1_555 1_555
C23 C22 1_555 1_555
H19 C23 1_555 1_555
C24 C23 1_555 1_555
H20 C24 1_555 1_555
C25 C24 1_555 1_555
H21 C25 1_555 1_555
C26 C25 1_555 1_555
H22 C26 1_555 1_555
C27 C22 1_555 1_555
C28 C20 1_555 1_555
C29 C7 1_555 1_555
C30 C29 1_555 1_555
C31 C30 1_555 1_555
C32 C31 1_555 1_555
H23 C32 1_555 1_555
C33 C32 1_555 1_555
H24 C33 1_555 1_555
C34 C33 1_555 1_555
H25 C34 1_555 1_555
C35 C34 1_555 1_555
H26 C35 1_555 1_555
C36 C31 1_555 1_555
C37 C29 1_555 1_555
O1 C21 1_555 1_555
O2 C28 1_555 1_555
H27 O2 1_555 1_555
O3 C30 1_555 1_555
O4 C37 1_555 1_555
Br1 C1 1_555 1_555
C43 H33 1_555 1_555
Cl1 C43 1_555 1_555
Cl2 C43 1_555 1_555
Cl3 C43 1_555 1_555
C5 C6 1_555 1_555
C15 C16 1_555 1_555
C18 C19 1_555 1_555
C26 C27 1_555 1_555
C27 C28 1_555 1_555
C28 C29 1_555 1_555
C35 C36 1_555 1_555
C36 C37 1_555 1_555

#END
