
#######################################################################
#
#                 Cambridge Crystallographic Data Centre
#                                CCDC 
#
#######################################################################
#
# If this CIF has been generated from an entry in the Cambridge 
# Structural Database, then it will include bibliographic, chemical, 
# crystal, experimental, refinement or atomic coordinate data resulting 
# from the CCDC's data processing and validation procedures.
#
#######################################################################

data_OHOWOZ
_chemical_formula_moiety         'C20 H16 I1 N1 O1'
_chemical_name_systematic        
2-iodo-1-(4-methoxyphenyl)-9-methyl-9H-carbazole
_symmetry_cell_setting           orthorhombic
_symmetry_space_group_name_H-M   'P b c a'
_symmetry_Int_Tables_number      61
_space_group_name_Hall           '-P 2ac 2ab'
loop_
_symmetry_equiv_pos_site_id
_symmetry_equiv_pos_as_xyz
1 x,y,z
2 1/2-x,-y,1/2+z
3 1/2+x,1/2-y,-z
4 -x,1/2+y,1/2-z
5 -x,-y,-z
6 1/2+x,y,1/2-z
7 1/2-x,1/2+y,z
8 x,1/2-y,1/2+z
_cell_length_a                   7.2355(5)
_cell_length_b                   20.9295(19)
_cell_length_c                   23.0167(15)
_cell_angle_alpha                90
_cell_angle_beta                 90
_cell_angle_gamma                90
_cell_volume                     3485.54
_exptl_crystal_colour            'light colorless'
_exptl_crystal_description       block
_cell_formula_units_Z            8
loop_
_atom_site_label
_atom_site_type_symbol
_atom_site_fract_x
_atom_site_fract_y
_atom_site_fract_z
I1 I 0.06755(6) 0.16771(3) 0.69886(2)
O1 O -0.5425(6) -0.0326(2) 0.6821(2)
N1 N -0.1229(7) 0.1210(3) 0.4669(3)
C1 C -0.0465(9) 0.1416(3) 0.4154(3)
C2 C -0.1117(11) 0.1339(4) 0.3583(4)
H1 H -0.2197 0.1114 0.3504
C3 C -0.3060(10) 0.0917(4) 0.4706(4)
H2 H -0.3742 0.1009 0.4358
H3 H -0.3709 0.1086 0.5035
H4 H -0.2931 0.0463 0.4748
C4 C -0.0089(15) 0.1609(4) 0.3151(4)
H5 H -0.0523 0.1579 0.2771
C5 C 0.1588(12) 0.1930(4) 0.3247(4)
H6 H 0.2279 0.2085 0.2937
C6 C 0.2189(10) 0.2010(3) 0.3815(3)
H7 H 0.3279 0.2232 0.3886
C7 C 0.1188(9) 0.1763(3) 0.4279(3)
C8 C 0.1390(8) 0.1763(3) 0.4891(3)
C9 C -0.0145(8) 0.1418(3) 0.5134(3)
C10 C -0.0356(8) 0.1348(3) 0.5735(3)
C11 C 0.0912(8) 0.1683(3) 0.6075(3)
C12 C 0.2385(9) 0.2044(3) 0.5847(3)
H8 H 0.3182 0.2265 0.6092
C13 C 0.2619(9) 0.2062(3) 0.5255(3)
H9 H 0.3624 0.2279 0.5098
C14 C -0.1782(8) 0.0921(3) 0.5997(3)
C15 C -0.1520(9) 0.0271(3) 0.5997(3)
H10 H -0.0485 0.0101 0.5814
C16 C -0.2773(9) -0.0137(3) 0.6267(3)
H11 H -0.2562 -0.0576 0.6269
C17 C -0.4329(7) 0.0109(3) 0.6531(3)
C18 C -0.4620(9) 0.0764(3) 0.6530(4)
H12 H -0.5653 0.0936 0.6713
C19 C -0.3355(8) 0.1160(3) 0.6255(3)
H13 H -0.3574 0.1598 0.6245
C20 C -0.6846(11) -0.0086(4) 0.7185(4)
H14 H -0.7741 0.0137 0.6954
H15 H -0.6324 0.0201 0.7466
H16 H -0.7437 -0.0435 0.7383
loop_
_geom_bond_atom_site_label_1
_geom_bond_atom_site_label_2
_geom_bond_site_symmetry_1
_geom_bond_site_symmetry_2
I1 C11 1_555 1_555
O1 C17 1_555 1_555
N1 C1 1_555 1_555
C1 C2 1_555 1_555
C2 H1 1_555 1_555
C3 N1 1_555 1_555
H2 C3 1_555 1_555
H3 C3 1_555 1_555
H4 C3 1_555 1_555
C4 C2 1_555 1_555
H5 C4 1_555 1_555
C5 C4 1_555 1_555
H6 C5 1_555 1_555
C6 C5 1_555 1_555
H7 C6 1_555 1_555
C7 C1 1_555 1_555
C8 C7 1_555 1_555
C9 N1 1_555 1_555
C10 C9 1_555 1_555
C11 C10 1_555 1_555
C12 C11 1_555 1_555
H8 C12 1_555 1_555
C13 C8 1_555 1_555
H9 C13 1_555 1_555
C14 C10 1_555 1_555
C15 C14 1_555 1_555
H10 C15 1_555 1_555
C16 C15 1_555 1_555
H11 C16 1_555 1_555
C17 C16 1_555 1_555
C18 C17 1_555 1_555
H12 C18 1_555 1_555
C19 C14 1_555 1_555
H13 C19 1_555 1_555
C20 O1 1_555 1_555
H14 C20 1_555 1_555
H15 C20 1_555 1_555
H16 C20 1_555 1_555
C6 C7 1_555 1_555
C8 C9 1_555 1_555
C12 C13 1_555 1_555
C18 C19 1_555 1_555

#END
