
#######################################################################
#
#                 Cambridge Crystallographic Data Centre
#                                CCDC 
#
#######################################################################
#
# If this CIF has been generated from an entry in the Cambridge 
# Structural Database, then it will include bibliographic, chemical, 
# crystal, experimental, refinement or atomic coordinate data resulting 
# from the CCDC's data processing and validation procedures.
#
#######################################################################

data_OHOWUF
_chemical_formula_moiety         'C16 H25 N5 2+,2(B1 F4 1-)'
_chemical_name_systematic        
"N,N,N',N'-Tetramethyl-2-(3-dimethylammonio-quinoxaline-2-yl)-acetamidinium bis(tetrafluoroborate)"
_symmetry_cell_setting           orthorhombic
_symmetry_space_group_name_H-M   'P b c a'
_symmetry_Int_Tables_number      61
_space_group_name_Hall           '-P 2ac 2ab'
loop_
_symmetry_equiv_pos_site_id
_symmetry_equiv_pos_as_xyz
1 x,y,z
2 1/2-x,-y,1/2+z
3 1/2+x,1/2-y,-z
4 -x,1/2+y,1/2-z
5 -x,-y,-z
6 1/2+x,y,1/2-z
7 1/2-x,1/2+y,z
8 x,1/2-y,1/2+z
_cell_length_a                   13.0525(4)
_cell_length_b                   24.6540(9)
_cell_length_c                   13.8657(5)
_cell_angle_alpha                90
_cell_angle_beta                 90
_cell_angle_gamma                90
_cell_volume                     4461.93
_exptl_crystal_colour            yellow
_exptl_crystal_description       polyhedral
_cell_formula_units_Z            8
loop_
_atom_site_label
_atom_site_type_symbol
_atom_site_fract_x
_atom_site_fract_y
_atom_site_fract_z
N1 N 0.3408(3) 0.35357(19) 0.4569(3)
N2 N 0.2955(3) 0.26857(19) 0.5055(3)
N3 N 0.1719(3) 0.41185(15) 0.7784(3)
N4 N 0.0525(3) 0.43767(18) 0.6654(3)
H1 H 0.037(3) 0.4607(18) 0.704(3)
N5 N 0.1220(3) 0.36491(15) 0.5336(3)
C1 C 0.3760(5) 0.4082(3) 0.4806(5)
H2 H 0.3170 0.4326 0.4847
H3 H 0.4228 0.4210 0.4303
H4 H 0.4118 0.4075 0.5427
C2 C 0.3226(6) 0.3433(3) 0.3526(4)
H5 H 0.2767 0.3121 0.3453
H6 H 0.3880 0.3356 0.3207
H7 H 0.2910 0.3753 0.3233
C3 C 0.3633(5) 0.2400(2) 0.4364(4)
H8 H 0.3266 0.2342 0.3756
H9 H 0.3836 0.2049 0.4636
H10 H 0.4245 0.2620 0.4245
C4 C 0.2274(5) 0.2331(2) 0.5592(4)
H11 H 0.2667 0.2135 0.6084
H12 H 0.1958 0.2070 0.5150
H13 H 0.1739 0.2547 0.5904
C5 C 0.3040(3) 0.3201(2) 0.5219(3)
C6 C 0.2721(3) 0.34303(19) 0.6183(3)
H14 H 0.2676 0.3132 0.6659
H15 H 0.3251 0.3688 0.6409
C7 C 0.1721(3) 0.37132(17) 0.6137(3)
C8 C 0.1336(3) 0.40679(17) 0.6909(3)
C9 C 0.2443(4) 0.3748(2) 0.8214(3)
H16 H 0.2306 0.3379 0.7984
H17 H 0.2375 0.3760 0.8917
H18 H 0.3140 0.3854 0.8032
C10 C 0.1322(4) 0.4538(3) 0.8440(4)
H19 H 0.1358 0.4893 0.8123
H20 H 0.1735 0.4545 0.9030
H21 H 0.0608 0.4456 0.8604
C11 C -0.0026(4) 0.4321(2) 0.5803(3)
C12 C -0.0886(4) 0.4641(2) 0.5597(4)
H22 H -0.1109 0.4913 0.6036
C13 C -0.1391(4) 0.4556(2) 0.4765(4)
H23 H -0.1975 0.4770 0.4615
C14 C -0.1070(4) 0.4159(3) 0.4119(4)
H24 H -0.1453 0.4100 0.3546
C15 C -0.0204(4) 0.3847(2) 0.4292(4)
H25 H 0.0022 0.3584 0.3840
C16 C 0.0324(3) 0.39355(19) 0.5157(3)
B1 B 0.0142(5) 0.2845(3) 0.8013(5)
F1 F -0.0128(4) 0.3214(2) 0.7340(4)
F2 F -0.0596(3) 0.24647(15) 0.8058(2)
F3 F 0.0229(3) 0.3130(2) 0.8840(3)
F4 F 0.1075(3) 0.26656(19) 0.7747(4)
B2 B 0.3740(5) 0.5252(3) 0.6891(5)
F5 F 0.3585(4) 0.4708(2) 0.6865(4)
F6 F 0.3796(3) 0.5421(2) 0.5967(3)
F7 F 0.2957(3) 0.5473(2) 0.7390(3)
F8 F 0.4651(2) 0.53284(15) 0.7331(3)
loop_
_geom_bond_atom_site_label_1
_geom_bond_atom_site_label_2
_geom_bond_site_symmetry_1
_geom_bond_site_symmetry_2
N1 C1 1_555 1_555
N2 C3 1_555 1_555
N3 C8 1_555 1_555
N4 H1 1_555 1_555
N5 C7 1_555 1_555
C1 H2 1_555 1_555
H3 C1 1_555 1_555
H4 C1 1_555 1_555
C2 N1 1_555 1_555
H5 C2 1_555 1_555
H6 C2 1_555 1_555
H7 C2 1_555 1_555
C3 H8 1_555 1_555
H9 C3 1_555 1_555
H10 C3 1_555 1_555
C4 N2 1_555 1_555
H11 C4 1_555 1_555
H12 C4 1_555 1_555
H13 C4 1_555 1_555
C5 N1 1_555 1_555
C6 C5 1_555 1_555
H14 C6 1_555 1_555
H15 C6 1_555 1_555
C7 C6 1_555 1_555
C8 N4 1_555 1_555
C9 N3 1_555 1_555
H16 C9 1_555 1_555
H17 C9 1_555 1_555
H18 C9 1_555 1_555
C10 N3 1_555 1_555
H19 C10 1_555 1_555
H20 C10 1_555 1_555
H21 C10 1_555 1_555
C11 N4 1_555 1_555
C12 C11 1_555 1_555
H22 C12 1_555 1_555
C13 C12 1_555 1_555
H23 C13 1_555 1_555
C14 C13 1_555 1_555
H24 C14 1_555 1_555
C15 C14 1_555 1_555
H25 C15 1_555 1_555
C16 N5 1_555 1_555
B1 F1 1_555 1_555
F2 B1 1_555 1_555
F3 B1 1_555 1_555
F4 B1 1_555 1_555
B2 F5 1_555 1_555
F6 B2 1_555 1_555
F7 B2 1_555 1_555
F8 B2 1_555 1_555
N2 C5 1_555 1_555
C7 C8 1_555 1_555
C11 C16 1_555 1_555
C15 C16 1_555 1_555

#END
