
#######################################################################
#
#                 Cambridge Crystallographic Data Centre
#                                CCDC 
#
#######################################################################
#
# If this CIF has been generated from an entry in the Cambridge 
# Structural Database, then it will include bibliographic, chemical, 
# crystal, experimental, refinement or atomic coordinate data resulting 
# from the CCDC's data processing and validation procedures.
#
#######################################################################

data_OHOWIT
_chemical_formula_moiety         'C20 H16 I1 N1 O1'
_chemical_name_systematic        
3-iodo-4-(4-methoxyphenyl)-9-methyl-9H-carbazole
_symmetry_cell_setting           triclinic
_symmetry_space_group_name_H-M   'P -1'
_symmetry_Int_Tables_number      2
_space_group_name_Hall           '-P 1'
loop_
_symmetry_equiv_pos_site_id
_symmetry_equiv_pos_as_xyz
1 x,y,z
2 -x,-y,-z
_cell_length_a                   10.6990(10)
_cell_length_b                   11.7260(11)
_cell_length_c                   22.2683(12)
_cell_angle_alpha                94.284(6)
_cell_angle_beta                 101.795(6)
_cell_angle_gamma                109.369(8)
_cell_volume                     2549.04
_exptl_crystal_colour            'light yellow'
_exptl_crystal_description       plate
_cell_formula_units_Z            6
loop_
_atom_site_label
_atom_site_type_symbol
_atom_site_fract_x
_atom_site_fract_y
_atom_site_fract_z
I1 I 1.07555(6) 1.55077(5) 1.13821(3)
O1 O 1.4102(4) 1.9936(4) 1.34593(18)
N1 N 0.8073(5) 1.8824(5) 1.0023(2)
C1 C 0.8570(6) 1.7982(6) 1.0267(3)
C2 C 0.8283(6) 1.6776(6) 1.0025(3)
H1 H 0.7646 1.6422 0.9649
C3 C 0.8944(7) 1.6120(6) 1.0343(3)
H2 H 0.8766 1.5312 1.0182
C4 C 0.9897(6) 1.6653(6) 1.0913(3)
C5 C 1.0230(6) 1.7868(5) 1.1174(3)
C6 C 0.9531(5) 1.8530(5) 1.0841(2)
C7 C 0.9602(6) 1.9792(5) 1.0947(3)
C8 C 1.0325(6) 2.0796(6) 1.1403(3)
H3 H 1.0921 2.0712 1.1749
C9 C 1.0191(8) 2.1920(7) 1.1359(4)
H4 H 1.0676 2.2589 1.1669
C10 C 0.9282(9) 2.2004(7) 1.0822(4)
H5 H 0.9192 2.2757 1.0779
C11 C 0.8519(7) 2.1025(7) 1.0358(3)
H6 H 0.7912 2.1113 1.0017
C12 C 0.8678(6) 1.9920(6) 1.0413(3)
C13 C 0.7087(7) 1.8625(7) 0.9438(3)
H7 H 0.7027 1.7899 0.9187
H8 H 0.7371 1.9314 0.9226
H9 H 0.6209 1.8531 0.9514
C14 C 1.1257(5) 1.8426(5) 1.1766(2)
C15 C 1.0880(6) 1.8666(6) 1.2312(3)
H10 H 0.9961 1.8477 1.2306
C16 C 1.1860(6) 1.9183(6) 1.2863(3)
H11 H 1.1593 1.9350 1.3222
C17 C 1.3223(6) 1.9452(5) 1.2887(2)
C18 C 1.3616(6) 1.9228(5) 1.2352(3)
H12 H 1.4535 1.9423 1.2358
C19 C 1.2620(5) 1.8706(5) 1.1804(2)
H13 H 1.2891 1.8540 1.1446
C20 C 1.5520(6) 2.0237(6) 1.3501(3)
H14 H 1.5818 2.0872 1.3258
H15 H 1.5681 1.9525 1.3346
H16 H 1.6019 2.0516 1.3926
I2 I 0.59196(6) 1.31060(5) 0.98057(2)
O2 O 0.4473(5) 1.6844(4) 0.8201(2)
N2 N 0.2192(6) 0.9031(5) 0.7619(3)
C21 C 0.1806(7) 0.9697(6) 0.7186(3)
C22 C 0.0956(8) 0.9301(8) 0.6596(3)
H17 H 0.0533 0.8471 0.6441
C23 C 0.0755(8) 1.0161(9) 0.6248(3)
H18 H 0.0187 0.9906 0.5850
C24 C 0.1372(8) 1.1406(8) 0.6469(3)
H19 H 0.1216 1.1969 0.6218
C25 C 0.2210(7) 1.1807(7) 0.7056(3)
H20 H 0.2625 1.2640 0.7205
C26 C 0.2432(6) 1.0955(6) 0.7425(3)
C27 C 0.3230(6) 1.1032(5) 0.8054(3)
C28 C 0.4055(5) 1.2016(5) 0.8518(2)
C29 C 0.4689(6) 1.1715(6) 0.9061(3)
C30 C 0.4536(7) 1.0516(6) 0.9139(3)
H21 H 0.4991 1.0361 0.9509
C31 C 0.3729(7) 0.9564(6) 0.8684(3)
H22 H 0.3628 0.8762 0.8738
C32 C 0.3066(6) 0.9817(5) 0.8141(3)
C33 C 0.4194(6) 1.3295(5) 0.8432(2)
C34 C 0.3305(6) 1.3811(5) 0.8591(3)
H23 H 0.2614 1.3355 0.8764
C35 C 0.3406(6) 1.4977(5) 0.8503(3)
H24 H 0.2781 1.5299 0.8609
C36 C 0.4435(6) 1.5677(5) 0.8255(2)
C37 C 0.5340(7) 1.5187(6) 0.8093(3)
H25 H 0.6037 1.5652 0.7927
C38 C 0.5216(6) 1.4001(6) 0.8177(3)
H26 H 0.5828 1.3672 0.8062
C39 C 0.5379(8) 1.7529(6) 0.7866(3)
H27 H 0.5076 1.7165 0.7437
H28 H 0.6282 1.7532 0.8033
H29 H 0.5392 1.8355 0.7901
C40 C 0.1735(8) 0.7699(6) 0.7528(4)
H30 H 0.2301 0.7434 0.7309
H31 H 0.0804 0.7363 0.7290
H32 H 0.1801 0.7422 0.7924
I3 I 0.67690(5) 0.84237(5) 0.49665(2)
O3 O 0.7451(5) 0.4806(4) 0.70174(19)
N3 N 0.0862(5) 0.6729(5) 0.5322(2)
C41 C 0.0923(6) 0.6031(5) 0.5793(3)
C42 C -0.0078(7) 0.5405(7) 0.6078(3)
H33 H -0.0965 0.5400 0.5954
C43 C 0.0266(9) 0.4803(7) 0.6539(4)
H34 H -0.0395 0.4378 0.6736
C44 C 0.1575(8) 0.4805(6) 0.6726(3)
H35 H 0.1785 0.4395 0.7051
C45 C 0.2588(6) 0.5408(5) 0.6438(3)
H36 H 0.3462 0.5385 0.6565
C46 C 0.2296(6) 0.6044(5) 0.5962(2)
C47 C 0.3032(6) 0.6747(5) 0.5560(2)
C48 C 0.4399(6) 0.7087(5) 0.5516(2)
C49 C 0.4776(7) 0.7868(6) 0.5105(3)
C50 C 0.3867(8) 0.8327(6) 0.4743(3)
H37 H 0.4174 0.8880 0.4481
C51 C 0.2531(8) 0.7962(6) 0.4776(3)
H38 H 0.1915 0.8232 0.4524
C52 C 0.2119(7) 0.7191(6) 0.5188(3)
C53 C -0.0348(7) 0.6986(7) 0.5030(3)
H39 H -0.0636 0.6640 0.4598
H40 H -0.0133 0.7855 0.5069
H41 H -0.1069 0.6631 0.5229
C54 C 0.5290(6) 0.6510(5) 0.5884(2)
C55 C 0.4955(6) 0.5265(5) 0.5766(3)
H42 H 0.4230 0.4814 0.5433
C56 C 0.5659(6) 0.4666(6) 0.6125(3)
H43 H 0.5410 0.3822 0.6036
C57 C 0.6733(6) 0.5324(6) 0.6616(3)
C58 C 0.7139(6) 0.6587(6) 0.6735(3)
H44 H 0.7894 0.7035 0.7056
C59 C 0.6411(6) 0.7174(5) 0.6372(3)
H45 H 0.6672 0.8021 0.6454
C60 C 0.6993(8) 0.3495(6) 0.6924(3)
H46 H 0.7089 0.3207 0.6527
H47 H 0.6051 0.3167 0.6937
H48 H 0.7533 0.3232 0.7245
loop_
_geom_bond_atom_site_label_1
_geom_bond_atom_site_label_2
_geom_bond_site_symmetry_1
_geom_bond_site_symmetry_2
I1 C4 1_555 1_555
O1 C17 1_555 1_555
N1 C1 1_555 1_555
C1 C2 1_555 1_555
C2 H1 1_555 1_555
C3 C2 1_555 1_555
H2 C3 1_555 1_555
C4 C3 1_555 1_555
C5 C4 1_555 1_555
C6 C1 1_555 1_555
C7 C6 1_555 1_555
C8 C7 1_555 1_555
H3 C8 1_555 1_555
C9 C8 1_555 1_555
H4 C9 1_555 1_555
C10 C9 1_555 1_555
H5 C10 1_555 1_555
C11 C10 1_555 1_555
H6 C11 1_555 1_555
C12 N1 1_555 1_555
C13 N1 1_555 1_555
H7 C13 1_555 1_555
H8 C13 1_555 1_555
H9 C13 1_555 1_555
C14 C5 1_555 1_555
C15 C14 1_555 1_555
H10 C15 1_555 1_555
C16 C15 1_555 1_555
H11 C16 1_555 1_555
C17 C16 1_555 1_555
C18 C17 1_555 1_555
H12 C18 1_555 1_555
C19 C14 1_555 1_555
H13 C19 1_555 1_555
C20 O1 1_555 1_555
H14 C20 1_555 1_555
H15 C20 1_555 1_555
H16 C20 1_555 1_555
I2 C29 1_555 1_555
O2 C36 1_555 1_555
N2 C21 1_555 1_555
C21 C22 1_555 1_555
C22 H17 1_555 1_555
C23 C22 1_555 1_555
H18 C23 1_555 1_555
C24 C23 1_555 1_555
H19 C24 1_555 1_555
C25 C24 1_555 1_555
H20 C25 1_555 1_555
C26 C21 1_555 1_555
C27 C26 1_555 1_555
C28 C27 1_555 1_555
C29 C28 1_555 1_555
C30 C29 1_555 1_555
H21 C30 1_555 1_555
C31 C30 1_555 1_555
H22 C31 1_555 1_555
C32 N2 1_555 1_555
C33 C28 1_555 1_555
C34 C33 1_555 1_555
H23 C34 1_555 1_555
C35 C34 1_555 1_555
H24 C35 1_555 1_555
C36 C35 1_555 1_555
C37 C36 1_555 1_555
H25 C37 1_555 1_555
C38 C33 1_555 1_555
H26 C38 1_555 1_555
C39 O2 1_555 1_555
H27 C39 1_555 1_555
H28 C39 1_555 1_555
H29 C39 1_555 1_555
C40 N2 1_555 1_555
H30 C40 1_555 1_555
H31 C40 1_555 1_555
H32 C40 1_555 1_555
I3 C49 1_555 1_555
O3 C57 1_555 1_555
N3 C41 1_555 1_555
C41 C42 1_555 1_555
C42 H33 1_555 1_555
C43 C42 1_555 1_555
H34 C43 1_555 1_555
C44 C43 1_555 1_555
H35 C44 1_555 1_555
C45 C44 1_555 1_555
H36 C45 1_555 1_555
C46 C41 1_555 1_555
C47 C46 1_555 1_555
C48 C47 1_555 1_555
C49 C48 1_555 1_555
C50 C49 1_555 1_555
H37 C50 1_555 1_555
C51 C50 1_555 1_555
H38 C51 1_555 1_555
C52 N3 1_555 1_555
C53 N3 1_555 1_555
H39 C53 1_555 1_555
H40 C53 1_555 1_555
H41 C53 1_555 1_555
C54 C48 1_555 1_555
C55 C54 1_555 1_555
H42 C55 1_555 1_555
C56 C55 1_555 1_555
H43 C56 1_555 1_555
C57 C56 1_555 1_555
C58 C57 1_555 1_555
H44 C58 1_555 1_555
C59 C54 1_555 1_555
H45 C59 1_555 1_555
C60 O3 1_555 1_555
H46 C60 1_555 1_555
H47 C60 1_555 1_555
H48 C60 1_555 1_555
C5 C6 1_555 1_555
C7 C12 1_555 1_555
C11 C12 1_555 1_555
C18 C19 1_555 1_555
C25 C26 1_555 1_555
C27 C32 1_555 1_555
C31 C32 1_555 1_555
C37 C38 1_555 1_555
C45 C46 1_555 1_555
C47 C52 1_555 1_555
C51 C52 1_555 1_555
C58 C59 1_555 1_555

#END
