
#######################################################################
#
#                 Cambridge Crystallographic Data Centre
#                                CCDC 
#
#######################################################################
#
# If this CIF has been generated from an entry in the Cambridge 
# Structural Database, then it will include bibliographic, chemical, 
# crystal, experimental, refinement or atomic coordinate data resulting 
# from the CCDC's data processing and validation procedures.
#
#######################################################################

data_OHOXAM
_chemical_formula_moiety         'C17 H31 N5 2+,2(C24 H20 B1 1-)'
_chemical_name_systematic        
"N,N,N',N',N'',N'',N''',N'''-Octamethyl-2-(N-methyl-pyrrole-2-yl)-2-butene-1,4-bis(amidinium) bis(tetraphenylborate)"
_symmetry_cell_setting           triclinic
_symmetry_space_group_name_H-M   'P -1'
_symmetry_Int_Tables_number      2
_space_group_name_Hall           '-P 1'
loop_
_symmetry_equiv_pos_site_id
_symmetry_equiv_pos_as_xyz
1 x,y,z
2 -x,-y,-z
_cell_length_a                   11.5276(3)
_cell_length_b                   12.9323(5)
_cell_length_c                   18.5259(6)
_cell_angle_alpha                100.128(3)
_cell_angle_beta                 97.756(2)
_cell_angle_gamma                91.669(2)
_cell_volume                     2689.94
_exptl_crystal_colour            yellow
_exptl_crystal_description       block
_cell_formula_units_Z            2
loop_
_atom_site_label
_atom_site_type_symbol
_atom_site_fract_x
_atom_site_fract_y
_atom_site_fract_z
N1 N -0.16168(14) 0.73308(12) 0.41966(8)
N2 N -0.33176(16) 0.65025(13) 0.34782(10)
N3 N -0.30787(15) 0.93909(13) 0.20249(8)
N4 N -0.12470(14) 0.89065(12) 0.17511(9)
N5 N -0.23463(15) 0.64538(12) 0.12919(9)
C1 C -0.05723(17) 0.80244(17) 0.42511(12)
H1 H -0.0395 0.8054 0.3763
H2 H 0.0078 0.7757 0.4530
H3 H -0.0714 0.8718 0.4496
C2 C -0.1717(2) 0.68891(19) 0.48627(13)
H4 H -0.2529 0.6756 0.4897
H5 H -0.1363 0.7380 0.5292
H6 H -0.1323 0.6242 0.4836
C3 C -0.4407(2) 0.6619(2) 0.29974(15)
H7 H -0.4535 0.7353 0.3016
H8 H -0.5051 0.6287 0.3164
H9 H -0.4347 0.6293 0.2498
C4 C -0.3155(3) 0.54427(19) 0.36473(18)
H10 H -0.2343 0.5375 0.3822
H11 H -0.3396 0.4928 0.3207
H12 H -0.3620 0.5334 0.4023
C5 C -0.24538(15) 0.72490(13) 0.36253(10)
C6 C -0.24229(13) 0.80501(13) 0.31466(9)
H13 H -0.2473(15) 0.8785(14) 0.3380(10)
C7 C -0.22740(13) 0.78369(12) 0.24299(9)
C8 C -0.22024(14) 0.87591(12) 0.20486(9)
C9 C -0.01344(17) 0.8457(2) 0.19799(15)
H14 H -0.0152 0.8250 0.2451
H15 H 0.0497 0.8974 0.2020
H16 H -0.0019 0.7854 0.1618
C10 C -0.1211(3) 0.9461(2) 0.11286(16)
H17 H -0.1992 0.9492 0.0880
H18 H -0.0740 0.9093 0.0788
H19 H -0.0877 1.0163 0.1310
C11 C -0.42616(19) 0.9063(3) 0.21456(12)
H20 H -0.4389 0.8315 0.1988
H21 H -0.4836 0.9413 0.1865
H22 H -0.4331 0.9246 0.2663
C12 C -0.2929(3) 1.04994(19) 0.19470(17)
H23 H -0.2112 1.0721 0.2058
H24 H -0.3359 1.0929 0.2284
H25 H -0.3217 1.0571 0.1448
C13 C -0.20338(15) 0.68026(13) 0.20424(10)
C14 C -0.1386(2) 0.60397(15) 0.23112(12)
H26 H -0.1058 0.6063 0.2801
C15 C -0.1308(3) 0.52246(18) 0.17194(14)
H27 H -0.0918 0.4609 0.1741
C16 C -0.1907(3) 0.54969(16) 0.11087(13)
H28 H -0.2003 0.5091 0.0636
C17 C -0.3053(2) 0.69694(18) 0.07652(12)
H29 H -0.3319 0.6469 0.0322
H30 H -0.2591 0.7530 0.0647
H31 H -0.3718 0.7251 0.0978
B1 B 0.28036(17) 0.78077(14) 0.56156(10)
C18 C 0.39881(15) 0.72522(12) 0.59402(9)
C19 C 0.4480(2) 0.74351(16) 0.66834(10)
H32 H 0.4100 0.7872 0.7020
C20 C 0.5498(2) 0.70067(18) 0.69492(12)
H33 H 0.5791 0.7171 0.7451
C21 C 0.60787(19) 0.63442(16) 0.64814(12)
H34 H 0.6759 0.6045 0.6659
C22 C 0.56348(17) 0.61313(15) 0.57451(12)
H35 H 0.6018 0.5684 0.5416
C23 C 0.46178(16) 0.65766(14) 0.54837(10)
H36 H 0.4342 0.6417 0.4979
C24 C 0.31693(14) 0.89845(12) 0.54635(9)
C25 C 0.41456(15) 0.95946(13) 0.58602(9)
H37 H 0.4624 0.9317 0.6216
C26 C 0.44339(16) 1.05987(14) 0.57465(11)
H38 H 0.5089 1.0977 0.6028
C27 C 0.37589(17) 1.10363(14) 0.52217(11)
H39 H 0.3959 1.1702 0.5137
C28 C 0.27817(18) 1.04703(15) 0.48236(11)
H40 H 0.2307 1.0757 0.4471
C29 C 0.25012(16) 0.94735(14) 0.49463(11)
H41 H 0.1833 0.9110 0.4670
C30 C 0.22179(14) 0.70264(13) 0.48409(9)
C31 C 0.25255(17) 0.71123(15) 0.41507(10)
H42 H 0.3046 0.7662 0.4123
C32 C 0.2093(2) 0.64191(17) 0.35039(11)
H43 H 0.2322 0.6513 0.3056
C33 C 0.13260(19) 0.55926(17) 0.35240(12)
H44 H 0.1028 0.5127 0.3092
C34 C 0.10083(18) 0.54669(15) 0.41915(12)
H45 H 0.0498 0.4907 0.4215
C35 C 0.14460(16) 0.61735(14) 0.48343(10)
H46 H 0.1213 0.6072 0.5279
C36 C 0.18236(15) 0.79397(13) 0.61958(9)
C37 C 0.10404(16) 0.87440(16) 0.62282(10)
H47 H 0.1115 0.9256 0.5940
C38 C 0.01546(18) 0.8816(2) 0.66710(12)
H48 H -0.0345 0.9368 0.6673
C39 C 0.0012(2) 0.8084(2) 0.71030(14)
H49 H -0.0587 0.8127 0.7395
C40 C 0.0766(2) 0.7286(2) 0.71013(14)
H50 H 0.0686 0.6787 0.7399
C41 C 0.1653(2) 0.72184(16) 0.66539(12)
H51 H 0.2152 0.6667 0.6662
B2 B 0.25612(15) 0.76198(15) 0.06055(10)
C42 C 0.29421(14) 0.65258(13) 0.08884(8)
C43 C 0.23277(16) 0.60589(13) 0.13628(9)
H52 H 0.1649 0.6359 0.1501
C44 C 0.2687(2) 0.51702(14) 0.16356(10)
H53 H 0.2251 0.4890 0.1950
C45 C 0.3682(2) 0.47017(15) 0.14450(11)
H54 H 0.3928 0.4109 0.1631
C46 C 0.43069(19) 0.51189(17) 0.09785(11)
H55 H 0.4981 0.4807 0.0842
C47 C 0.39403(16) 0.60065(15) 0.07067(10)
H56 H 0.4380 0.6270 0.0387
C48 C 0.34230(14) 0.78505(13) 0.00065(9)
C49 C 0.44128(15) 0.85342(15) 0.01731(10)
H57 H 0.4561 0.8953 0.0641
C50 C 0.51934(17) 0.86230(17) -0.03259(12)
H58 H 0.5847 0.9090 -0.0186
C51 C 0.50031(18) 0.80270(16) -0.10193(11)
H59 H 0.5529 0.8075 -0.1352
C52 C 0.40252(19) 0.73559(15) -0.12187(11)
H60 H 0.3879 0.6951 -0.1692
C53 C 0.32550(17) 0.72794(14) -0.07172(10)
H61 H 0.2592 0.6826 -0.0869
C54 C 0.12056(14) 0.75030(13) 0.01556(9)
C55 C 0.04345(16) 0.66354(14) 0.00670(11)
H62 H 0.0664 0.6079 0.0301
C56 C -0.06621(18) 0.65565(17) -0.03539(14)
H63 H -0.1146 0.5955 -0.0395
C57 C -0.10441(17) 0.73495(17) -0.07106(12)
H64 H -0.1775 0.7290 -0.1001
C58 C -0.03242(19) 0.82318(19) -0.06293(13)
H65 H -0.0571 0.8790 -0.0856
C59 C 0.07699(18) 0.82953(18) -0.02116(13)
H66 H 0.1245 0.8902 -0.0172
C60 C 0.26711(12) 0.85962(13) 0.13251(9)
C61 C 0.25610(16) 0.96450(14) 0.12449(10)
H67 H 0.2437 0.9795 0.0769
C62 C 0.26270(17) 1.04718(16) 0.18381(12)
H68 H 0.2548 1.1154 0.1750
C63 C 0.28061(16) 1.02998(16) 0.25518(11)
H69 H 0.2848 1.0855 0.2950
C64 C 0.29220(18) 0.92868(17) 0.26631(10)
H70 H 0.3037 0.9149 0.3143
C65 C 0.28689(16) 0.84626(15) 0.20638(9)
H71 H 0.2970 0.7786 0.2159
loop_
_geom_bond_atom_site_label_1
_geom_bond_atom_site_label_2
_geom_bond_site_symmetry_1
_geom_bond_site_symmetry_2
N1 C1 1_555 1_555
N2 C3 1_555 1_555
N3 C8 1_555 1_555
N4 C8 1_555 1_555
N5 C13 1_555 1_555
C1 H1 1_555 1_555
H2 C1 1_555 1_555
H3 C1 1_555 1_555
C2 N1 1_555 1_555
H4 C2 1_555 1_555
H5 C2 1_555 1_555
H6 C2 1_555 1_555
C3 H7 1_555 1_555
H8 C3 1_555 1_555
H9 C3 1_555 1_555
C4 N2 1_555 1_555
H10 C4 1_555 1_555
H11 C4 1_555 1_555
H12 C4 1_555 1_555
C5 N1 1_555 1_555
C6 C5 1_555 1_555
H13 C6 1_555 1_555
C7 C6 1_555 1_555
C8 C7 1_555 1_555
C9 N4 1_555 1_555
H14 C9 1_555 1_555
H15 C9 1_555 1_555
H16 C9 1_555 1_555
C10 N4 1_555 1_555
H17 C10 1_555 1_555
H18 C10 1_555 1_555
H19 C10 1_555 1_555
C11 N3 1_555 1_555
H20 C11 1_555 1_555
H21 C11 1_555 1_555
H22 C11 1_555 1_555
C12 N3 1_555 1_555
H23 C12 1_555 1_555
H24 C12 1_555 1_555
H25 C12 1_555 1_555
C13 C7 1_555 1_555
C14 C13 1_555 1_555
H26 C14 1_555 1_555
C15 C14 1_555 1_555
H27 C15 1_555 1_555
C16 N5 1_555 1_555
H28 C16 1_555 1_555
C17 N5 1_555 1_555
H29 C17 1_555 1_555
H30 C17 1_555 1_555
H31 C17 1_555 1_555
B1 C18 1_555 1_555
C18 C19 1_555 1_555
C19 H32 1_555 1_555
C20 C19 1_555 1_555
H33 C20 1_555 1_555
C21 C20 1_555 1_555
H34 C21 1_555 1_555
C22 C21 1_555 1_555
H35 C22 1_555 1_555
C23 C18 1_555 1_555
H36 C23 1_555 1_555
C24 B1 1_555 1_555
C25 C24 1_555 1_555
H37 C25 1_555 1_555
C26 C25 1_555 1_555
H38 C26 1_555 1_555
C27 C26 1_555 1_555
H39 C27 1_555 1_555
C28 C27 1_555 1_555
H40 C28 1_555 1_555
C29 C24 1_555 1_555
H41 C29 1_555 1_555
C30 B1 1_555 1_555
C31 C30 1_555 1_555
H42 C31 1_555 1_555
C32 C31 1_555 1_555
H43 C32 1_555 1_555
C33 C32 1_555 1_555
H44 C33 1_555 1_555
C34 C33 1_555 1_555
H45 C34 1_555 1_555
C35 C30 1_555 1_555
H46 C35 1_555 1_555
C36 B1 1_555 1_555
C37 C36 1_555 1_555
H47 C37 1_555 1_555
C38 C37 1_555 1_555
H48 C38 1_555 1_555
C39 C38 1_555 1_555
H49 C39 1_555 1_555
C40 C39 1_555 1_555
H50 C40 1_555 1_555
C41 C36 1_555 1_555
H51 C41 1_555 1_555
B2 C42 1_555 1_555
C42 C43 1_555 1_555
C43 H52 1_555 1_555
C44 C43 1_555 1_555
H53 C44 1_555 1_555
C45 C44 1_555 1_555
H54 C45 1_555 1_555
C46 C45 1_555 1_555
H55 C46 1_555 1_555
C47 C42 1_555 1_555
H56 C47 1_555 1_555
C48 B2 1_555 1_555
C49 C48 1_555 1_555
H57 C49 1_555 1_555
C50 C49 1_555 1_555
H58 C50 1_555 1_555
C51 C50 1_555 1_555
H59 C51 1_555 1_555
C52 C51 1_555 1_555
H60 C52 1_555 1_555
C53 C48 1_555 1_555
H61 C53 1_555 1_555
C54 B2 1_555 1_555
C55 C54 1_555 1_555
H62 C55 1_555 1_555
C56 C55 1_555 1_555
H63 C56 1_555 1_555
C57 C56 1_555 1_555
H64 C57 1_555 1_555
C58 C57 1_555 1_555
H65 C58 1_555 1_555
C59 C54 1_555 1_555
H66 C59 1_555 1_555
C60 B2 1_555 1_555
C61 C60 1_555 1_555
H67 C61 1_555 1_555
C62 C61 1_555 1_555
H68 C62 1_555 1_555
C63 C62 1_555 1_555
H69 C63 1_555 1_555
C64 C63 1_555 1_555
H70 C64 1_555 1_555
C65 C60 1_555 1_555
H71 C65 1_555 1_555
N2 C5 1_555 1_555
C15 C16 1_555 1_555
C22 C23 1_555 1_555
C28 C29 1_555 1_555
C34 C35 1_555 1_555
C40 C41 1_555 1_555
C46 C47 1_555 1_555
C52 C53 1_555 1_555
C58 C59 1_555 1_555
C64 C65 1_555 1_555

#END
