
#######################################################################
#
#                 Cambridge Crystallographic Data Centre
#                                CCDC 
#
#######################################################################
#
# If this CIF has been generated from an entry in the Cambridge 
# Structural Database, then it will include bibliographic, chemical, 
# crystal, experimental, refinement or atomic coordinate data resulting 
# from the CCDC's data processing and validation procedures.
#
#######################################################################

data_OHOXEQ
_chemical_formula_moiety         'C24 H20 B1 1-,C12 H25 N4 O1 1+'
_chemical_name_systematic        
'1,4,4-tris(dimethylamino)-N,N-dimethyl-2-oxobut-3-en-1-iminium tetraphenylborate'
_symmetry_cell_setting           monoclinic
_symmetry_space_group_name_H-M   'P 21/n'
_symmetry_Int_Tables_number      14
_space_group_name_Hall           '-P 2yn'
loop_
_symmetry_equiv_pos_site_id
_symmetry_equiv_pos_as_xyz
1 x,y,z
2 1/2-x,1/2+y,1/2-z
3 -x,-y,-z
4 1/2+x,1/2-y,1/2+z
_cell_length_a                   10.8824(3)
_cell_length_b                   14.7536(5)
_cell_length_c                   20.0654(8)
_cell_angle_alpha                90
_cell_angle_beta                 97.262(2)
_cell_angle_gamma                90
_cell_volume                     3195.75
_exptl_crystal_colour            colorless
_exptl_crystal_description       block
_cell_formula_units_Z            4
loop_
_atom_site_label
_atom_site_type_symbol
_atom_site_fract_x
_atom_site_fract_y
_atom_site_fract_z
O1 O 0.08496(17) 0.12460(13) 0.98851(10)
N1 N 0.0071(2) 0.39239(16) 0.92249(12)
N2 N 0.1780(2) 0.30965(16) 0.96705(12)
N3 N 0.0202(2) 0.01651(15) 0.85918(12)
N4 N -0.1532(2) 0.04037(15) 0.91487(11)
C1 C 0.0753(3) 0.4769(2) 0.91937(16)
H1 H 0.0709 0.5117 0.9606
H2 H 0.0387 0.5124 0.8806
H3 H 0.1620 0.4636 0.9148
C2 C -0.1258(3) 0.3972(2) 0.89857(16)
H4 H -0.1387 0.3902 0.8496
H5 H -0.1583 0.4560 0.9108
H6 H -0.1691 0.3486 0.9193
C3 C 0.2120(3) 0.3663(2) 1.02615(16)
H7 H 0.1378 0.3963 1.0386
H8 H 0.2720 0.4121 1.0160
H9 H 0.2489 0.3284 1.0636
C4 C 0.2722(3) 0.2436(2) 0.95460(16)
H10 H 0.2777 0.1964 0.9893
H11 H 0.3525 0.2740 0.9558
H12 H 0.2497 0.2159 0.9103
C5 C 0.0645(3) 0.3109(2) 0.93124(14)
C6 C 0.0053(3) 0.2315(2) 0.90466(16)
H13 H -0.050(2) 0.2363(18) 0.8680(14)
C7 C 0.0222(2) 0.1465(2) 0.93418(15)
C8 C -0.0436(3) 0.06427(19) 0.89901(14)
C9 C 0.0188(3) -0.08301(19) 0.85569(16)
H14 H -0.0222 -0.1074 0.8926
H15 H 0.1041 -0.1057 0.8595
H16 H -0.0263 -0.1023 0.8127
C10 C 0.1177(3) 0.0589(2) 0.82520(15)
H17 H 0.1035 0.1244 0.8219
H18 H 0.1158 0.0333 0.7800
H19 H 0.1987 0.0471 0.8510
C11 C -0.2310(3) -0.0319(2) 0.88099(15)
H20 H -0.2069 -0.0425 0.8362
H21 H -0.3182 -0.0134 0.8767
H22 H -0.2198 -0.0877 0.9075
C12 C -0.2054(3) 0.0816(2) 0.97121(15)
H23 H -0.1541 0.1333 0.9882
H24 H -0.2071 0.0368 1.0071
H25 H -0.2898 0.1024 0.9562
B1 B -0.0034(3) 0.6840(3) 0.73096(17)
C13 C 0.0833(3) 0.6843(2) 0.80443(15)
C14 C 0.0373(3) 0.70430(18) 0.86494(15)
H26 H -0.0492 0.7139 0.8639
C15 C 0.1117(3) 0.71073(19) 0.92610(15)
H27 H 0.0758 0.7252 0.9655
C16 C 0.2377(3) 0.69625(19) 0.93005(15)
H28 H 0.2892 0.7007 0.9718
C17 C 0.2873(3) 0.6752(2) 0.87188(16)
H29 H 0.3738 0.6649 0.8735
C18 C 0.2115(3) 0.6690(2) 0.81111(15)
H30 H 0.2481 0.6536 0.7721
C19 C 0.0196(2) 0.7767(2) 0.68906(15)
C20 C -0.0626(3) 0.8044(2) 0.63315(15)
H31 H -0.1333 0.7679 0.6196
C21 C -0.0458(3) 0.8824(2) 0.59666(16)
H32 H -0.1043 0.8980 0.5592
C22 C 0.0555(3) 0.9374(2) 0.61471(16)
H33 H 0.0670 0.9911 0.5902
C23 C 0.1398(3) 0.9130(2) 0.66905(15)
H34 H 0.2105 0.9499 0.6818
C24 C 0.1216(3) 0.8348(2) 0.70516(15)
H35 H 0.1808 0.8198 0.7425
C25 C 0.0326(2) 0.5936(2) 0.68815(15)
C26 C 0.0581(2) 0.5089(2) 0.71870(16)
H36 H 0.0560 0.5040 0.7657
C27 C 0.0860(2) 0.4326(2) 0.68393(16)
H37 H 0.1006 0.3766 0.7070
C28 C 0.0928(3) 0.4373(2) 0.61543(16)
H38 H 0.1116 0.3849 0.5911
C29 C 0.0715(3) 0.5194(2) 0.58360(16)
H39 H 0.0775 0.5242 0.5369
C30 C 0.0413(2) 0.5960(2) 0.61918(15)
H40 H 0.0261 0.6516 0.5957
C31 C -0.1492(3) 0.6778(2) 0.74619(14)
C32 C -0.2202(3) 0.7563(2) 0.75250(15)
H41 H -0.1877 0.8133 0.7414
C33 C -0.3369(3) 0.7534(3) 0.77457(16)
H42 H -0.3814 0.8079 0.7791
C34 C -0.3872(3) 0.6715(3) 0.78966(16)
H43 H -0.4667 0.6693 0.8044
C35 C -0.3217(3) 0.5928(3) 0.78328(16)
H44 H -0.3561 0.5360 0.7933
C36 C -0.2044(3) 0.5968(2) 0.76195(15)
H45 H -0.1604 0.5418 0.7581
loop_
_geom_bond_atom_site_label_1
_geom_bond_atom_site_label_2
_geom_bond_site_symmetry_1
_geom_bond_site_symmetry_2
O1 C7 1_555 1_555
N1 C1 1_555 1_555
N2 C3 1_555 1_555
N3 C8 1_555 1_555
N4 C8 1_555 1_555
C1 H1 1_555 1_555
H2 C1 1_555 1_555
H3 C1 1_555 1_555
C2 N1 1_555 1_555
H4 C2 1_555 1_555
H5 C2 1_555 1_555
H6 C2 1_555 1_555
C3 H7 1_555 1_555
H8 C3 1_555 1_555
H9 C3 1_555 1_555
C4 N2 1_555 1_555
H10 C4 1_555 1_555
H11 C4 1_555 1_555
H12 C4 1_555 1_555
C5 N1 1_555 1_555
C6 C5 1_555 1_555
H13 C6 1_555 1_555
C7 C6 1_555 1_555
C8 C7 1_555 1_555
C9 N3 1_555 1_555
H14 C9 1_555 1_555
H15 C9 1_555 1_555
H16 C9 1_555 1_555
C10 N3 1_555 1_555
H17 C10 1_555 1_555
H18 C10 1_555 1_555
H19 C10 1_555 1_555
C11 N4 1_555 1_555
H20 C11 1_555 1_555
H21 C11 1_555 1_555
H22 C11 1_555 1_555
C12 N4 1_555 1_555
H23 C12 1_555 1_555
H24 C12 1_555 1_555
H25 C12 1_555 1_555
B1 C13 1_555 1_555
C13 C14 1_555 1_555
C14 H26 1_555 1_555
C15 C14 1_555 1_555
H27 C15 1_555 1_555
C16 C15 1_555 1_555
H28 C16 1_555 1_555
C17 C16 1_555 1_555
H29 C17 1_555 1_555
C18 C13 1_555 1_555
H30 C18 1_555 1_555
C19 B1 1_555 1_555
C20 C19 1_555 1_555
H31 C20 1_555 1_555
C21 C20 1_555 1_555
H32 C21 1_555 1_555
C22 C21 1_555 1_555
H33 C22 1_555 1_555
C23 C22 1_555 1_555
H34 C23 1_555 1_555
C24 C19 1_555 1_555
H35 C24 1_555 1_555
C25 B1 1_555 1_555
C26 C25 1_555 1_555
H36 C26 1_555 1_555
C27 C26 1_555 1_555
H37 C27 1_555 1_555
C28 C27 1_555 1_555
H38 C28 1_555 1_555
C29 C28 1_555 1_555
H39 C29 1_555 1_555
C30 C25 1_555 1_555
H40 C30 1_555 1_555
C31 B1 1_555 1_555
C32 C31 1_555 1_555
H41 C32 1_555 1_555
C33 C32 1_555 1_555
H42 C33 1_555 1_555
C34 C33 1_555 1_555
H43 C34 1_555 1_555
C35 C34 1_555 1_555
H44 C35 1_555 1_555
C36 C31 1_555 1_555
H45 C36 1_555 1_555
N2 C5 1_555 1_555
C17 C18 1_555 1_555
C23 C24 1_555 1_555
C29 C30 1_555 1_555
C35 C36 1_555 1_555

#END
