
#######################################################################
#
#                 Cambridge Crystallographic Data Centre
#                                CCDC 
#
#######################################################################
#
# If this CIF has been generated from an entry in the Cambridge 
# Structural Database, then it will include bibliographic, chemical, 
# crystal, experimental, refinement or atomic coordinate data resulting 
# from the CCDC's data processing and validation procedures.
#
#######################################################################

data_OHOYOB
_chemical_formula_moiety         'C2 N5 O4 1-,H4 N1 1+'
_chemical_name_systematic        'ammonium 4,5-dinitro-1,2,3-triazol-1-ide'
_symmetry_cell_setting           triclinic
_symmetry_space_group_name_H-M   'P -1'
_symmetry_Int_Tables_number      2
_space_group_name_Hall           '-P 1'
loop_
_symmetry_equiv_pos_site_id
_symmetry_equiv_pos_as_xyz
1 x,y,z
2 -x,-y,-z
_cell_length_a                   9.2802(15)
_cell_length_b                   9.4120(11)
_cell_length_c                   9.6659(14)
_cell_angle_alpha                61.762(9)
_cell_angle_beta                 77.352(13)
_cell_angle_gamma                64.011(9)
_cell_volume                     668.508
_exptl_crystal_colour            yellow
_exptl_crystal_description       Chunk
_cell_formula_units_Z            4
loop_
_atom_site_label
_atom_site_type_symbol
_atom_site_fract_x
_atom_site_fract_y
_atom_site_fract_z
O1 O 0.66943(10) -0.12549(9) 1.10982(10)
O2 O 0.76618(9) 0.06886(10) 0.94741(9)
O3 O 0.53658(9) 0.38617(11) 0.74714(9)
O4 O 0.36083(9) 0.60287(9) 0.79725(9)
N1 N 0.48445(9) 0.10875(10) 1.23284(10)
N2 N 0.37059(10) 0.25400(11) 1.24151(10)
N3 N 0.34662(9) 0.39049(10) 1.10085(9)
N4 N 0.66525(10) 0.02445(10) 1.04240(10)
N5 N 0.44884(9) 0.44781(11) 0.83725(10)
C1 C 0.53544(10) 0.15461(12) 1.08421(11)
C2 C 0.44940(10) 0.33182(12) 1.00071(11)
O5 O 1.13746(10) 0.09161(11) 0.27574(9)
O6 O 0.99350(9) 0.36312(10) 0.23151(9)
O7 O 0.74593(10) 0.46300(12) 0.43754(11)
O8 O 0.83119(10) 0.50713(10) 0.59953(10)
N6 N 1.16823(10) 0.00769(11) 0.58035(9)
N7 N 1.14355(10) 0.00745(11) 0.72228(10)
N8 N 1.02751(9) 0.15792(10) 0.71825(9)
N9 N 1.06424(10) 0.20838(11) 0.31967(10)
N10 N 0.84260(10) 0.42053(11) 0.53166(10)
C3 C 1.06374(10) 0.16078(12) 0.48451(10)
C4 C 0.97611(10) 0.25445(12) 0.57123(11)
N11 N 0.92830(11) 0.27195(12) 0.97638(11)
H1 H 0.9553(16) 0.2387(17) 0.8976(16)
H2 H 0.8554(18) 0.380(2) 0.9393(17)
H3 H 0.9001(18) 0.197(2) 1.0575(18)
H4 H 1.0151(17) 0.2783(18) 0.9967(16)
N12 N 0.51972(11) 0.21590(12) 0.51999(11)
H5 H 0.6135(19) 0.1831(19) 0.4825(18)
H6 H 0.5053(17) 0.120(2) 0.6067(18)
H7 H 0.448(2) 0.265(2) 0.442(2)
H8 H 0.509(2) 0.295(2) 0.5528(19)
loop_
_geom_bond_atom_site_label_1
_geom_bond_atom_site_label_2
_geom_bond_site_symmetry_1
_geom_bond_site_symmetry_2
O1 N4 1_555 1_555
O2 N4 1_555 1_555
O3 N5 1_555 1_555
O4 N5 1_555 1_555
N1 N2 1_555 1_555
N2 N3 1_555 1_555
N3 C2 1_555 1_555
N4 C1 1_555 1_555
N5 C2 1_555 1_555
C1 N1 1_555 1_555
C2 C1 1_555 1_555
O5 N9 1_555 1_555
O6 N9 1_555 1_555
O7 N10 1_555 1_555
O8 N10 1_555 1_555
N6 N7 1_555 1_555
N7 N8 1_555 1_555
N8 C4 1_555 1_555
N9 C3 1_555 1_555
N10 C4 1_555 1_555
C3 N6 1_555 1_555
C4 C3 1_555 1_555
N11 H1 1_555 1_555
H2 N11 1_555 1_555
H3 N11 1_555 1_555
H4 N11 1_555 1_555
N12 H5 1_555 1_555
H6 N12 1_555 1_555
H7 N12 1_555 1_555
H8 N12 1_555 1_555

#END
