
#######################################################################
#
#                 Cambridge Crystallographic Data Centre
#                                CCDC 
#
#######################################################################
#
# If this CIF has been generated from an entry in the Cambridge 
# Structural Database, then it will include bibliographic, chemical, 
# crystal, experimental, refinement or atomic coordinate data resulting 
# from the CCDC's data processing and validation procedures.
#
#######################################################################

data_OHRPRT
_chemical_compound_source        'Nasutitermes rippertii'
_chemical_formula_moiety         'C22 H34 O3'
_chemical_name_systematic        3\a-Acetoxy-15-epoxyrippertane
_symmetry_cell_setting           orthorhombic
_symmetry_space_group_name_H-M   'P 21 21 21'
_symmetry_Int_Tables_number      19
_space_group_name_Hall           'P 2ac 2ab'
loop_
_symmetry_equiv_pos_site_id
_symmetry_equiv_pos_as_xyz
1 x,y,z
2 1/2+x,1/2-y,-z
3 -x,1/2+y,1/2-z
4 1/2-x,-y,1/2+z
_cell_length_a                   11.202(1)
_cell_length_b                   28.575(7)
_cell_length_c                   6.299(2)
_cell_angle_alpha                90
_cell_angle_beta                 90
_cell_angle_gamma                90
_cell_volume                     2016.29
_exptl_crystal_colour            colorless
_chemical_melting_point          95-7deg.C
_cell_formula_units_Z            4
loop_
_atom_site_label
_atom_site_type_symbol
_atom_site_fract_x
_atom_site_fract_y
_atom_site_fract_z
C1 C 0.36640 0.41820 0.98530
C2 C 0.49400 0.43360 1.05090
C3 C 0.56210 0.39710 1.18010
C4 C 0.57420 0.35160 1.06190
C5 C 0.63700 0.31200 1.18800
C6 C 0.56800 0.26800 1.12800
C7 C 0.43800 0.28400 1.14400
C8 C 0.39200 0.28500 1.37500
C9 C 0.25900 0.29500 1.39400
C10 C 0.21400 0.34200 1.31800
C11 C 0.22000 0.34900 1.07800
C12 C 0.12600 0.38300 0.99100
C13 C 0.14400 0.43200 1.08300
C14 C 0.27500 0.44400 1.12700
C15 C 0.34400 0.36500 1.00800
C16 C 0.44500 0.33200 1.04000
C17 C 0.34900 0.43400 0.75400
C18 C 0.63500 0.35600 0.84500
C19 C 0.41800 0.24000 1.49400
C20 C -0.00200 0.36600 1.02000
C21 C 0.69500 0.44400 1.38400
C22 C 0.82300 0.45600 1.41600
O1 O 0.61400 0.45800 1.49000
O2 O 0.39100 0.33700 0.83100
O3 O 0.68200 0.41400 1.22300
H1 H 0.49300 0.46200 1.12400
H2 H 0.54100 0.43800 0.92000
H3 H 0.51600 0.39200 1.30700
H4 H 0.63300 0.31800 1.33200
H5 H 0.71800 0.31000 1.14000
H6 H 0.58500 0.24300 1.22200
H7 H 0.58900 0.25800 0.98500
H8 H 0.37700 0.26500 1.07100
H9 H 0.43100 0.31100 1.43900
H10 H 0.24200 0.28800 1.54100
H11 H 0.22400 0.27000 1.31100
H12 H 0.26500 0.36700 1.39000
H13 H 0.13600 0.34700 1.37200
H14 H 0.20600 0.31800 1.02300
H15 H 0.13300 0.38700 0.83600
H16 H 0.10000 0.43400 1.21700
H17 H 0.11300 0.45600 0.99200
H18 H 0.29600 0.43300 1.27200
H19 H 0.29100 0.47600 1.11700
H20 H 0.40400 0.41800 0.66400
H21 H 0.26900 0.42800 0.70700
H22 H 0.36200 0.46700 0.74300
H23 H 0.63500 0.32600 0.77600
H24 H 0.58600 0.37700 0.75600
H25 H 0.70900 0.36800 0.86000
H26 H 0.49400 0.23000 1.48800
H27 H 0.38700 0.24000 1.63800
H28 H 0.36700 0.21400 1.42600
H29 H -0.01000 0.33200 0.96700
H30 H -0.01500 0.35900 1.18100
H31 H -0.06340 0.38200 0.97500
H32 H 0.83500 0.47800 1.52700
H33 H 0.87500 0.43000 1.44000
loop_
_geom_bond_atom_site_label_1
_geom_bond_atom_site_label_2
_geom_bond_site_symmetry_1
_geom_bond_site_symmetry_2
C1 C2 1_555 1_555
C2 C3 1_555 1_555
C3 C4 1_555 1_555
C4 C5 1_555 1_555
C5 C6 1_555 1_555
C6 C7 1_555 1_555
C7 C8 1_555 1_555
C8 C9 1_555 1_555
C9 C10 1_555 1_555
C10 C11 1_555 1_555
C11 C12 1_555 1_555
C12 C13 1_555 1_555
C13 C14 1_555 1_555
C14 C1 1_555 1_555
C15 C1 1_555 1_555
C16 C4 1_555 1_555
C17 C1 1_555 1_555
C18 C4 1_555 1_555
C19 C8 1_555 1_555
C20 C12 1_555 1_555
C21 C22 1_555 1_555
C22 H32 1_555 1_555
O1 C21 1_555 1_555
O2 C15 1_555 1_555
O3 C3 1_555 1_555
H1 C2 1_555 1_555
H2 C2 1_555 1_555
H3 C3 1_555 1_555
H4 C5 1_555 1_555
H5 C5 1_555 1_555
H6 C6 1_555 1_555
H7 C6 1_555 1_555
H8 C7 1_555 1_555
H9 C8 1_555 1_555
H10 C9 1_555 1_555
H11 C9 1_555 1_555
H12 C10 1_555 1_555
H13 C10 1_555 1_555
H14 C11 1_555 1_555
H15 C12 1_555 1_555
H16 C13 1_555 1_555
H17 C13 1_555 1_555
H18 C14 1_555 1_555
H19 C14 1_555 1_555
H20 C17 1_555 1_555
H21 C17 1_555 1_555
H22 C17 1_555 1_555
H23 C18 1_555 1_555
H24 C18 1_555 1_555
H25 C18 1_555 1_555
H26 C19 1_555 1_555
H27 C19 1_555 1_555
H28 C19 1_555 1_555
H29 C20 1_555 1_555
H30 C20 1_555 1_555
H31 C20 1_555 1_555
H33 C22 1_555 1_555
C7 C16 1_555 1_555
C11 C15 1_555 1_555
C15 C16 1_555 1_555
C16 O2 1_555 1_555
C21 O3 1_555 1_555

#END
