
#######################################################################
#
#                 Cambridge Crystallographic Data Centre
#                                CCDC 
#
#######################################################################
#
# If this CIF has been generated from an entry in the Cambridge 
# Structural Database, then it will include bibliographic, chemical, 
# crystal, experimental, refinement or atomic coordinate data resulting 
# from the CCDC's data processing and validation procedures.
#
#######################################################################

data_OHUBOK
_chemical_formula_moiety         'C17 H14 O2'
_chemical_name_systematic        
'2,3-dihydro-1H-inden-1-ylidene(phenyl)acetic acid'
_symmetry_cell_setting           triclinic
_symmetry_space_group_name_H-M   'P -1'
_symmetry_Int_Tables_number      2
_space_group_name_Hall           '-P 1'
loop_
_symmetry_equiv_pos_site_id
_symmetry_equiv_pos_as_xyz
1 x,y,z
2 -x,-y,-z
_cell_length_a                   5.6858(12)
_cell_length_b                   7.8358(17)
_cell_length_c                   14.314(3)
_cell_angle_alpha                91.607(5)
_cell_angle_beta                 95.157(4)
_cell_angle_gamma                90.745(5)
_cell_volume                     634.82
_exptl_crystal_colour            colorless
_exptl_crystal_description       plate
_cell_formula_units_Z            2
loop_
_atom_site_label
_atom_site_type_symbol
_atom_site_fract_x
_atom_site_fract_y
_atom_site_fract_z
O1 O 0.86272(15) 0.09093(10) 0.39453(6)
H1 H 0.985(3) 0.1051(12) 0.4434(11)
O2 O 0.78138(15) -0.13894(10) 0.47657(6)
C1 C 0.41448(16) -0.23239(11) 0.33091(6)
C2 C 0.39384(19) -0.35033(13) 0.41260(7)
H2 H 0.3986 -0.2836 0.4725
H3 H 0.5248 -0.4326 0.4167
C3 C 0.1539(2) -0.44483(14) 0.39215(7)
H4 H 0.1700 -0.5684 0.4033
H5 H 0.0354 -0.3978 0.4320
C4 C 0.08469(17) -0.41383(12) 0.29011(7)
C5 C -0.10457(18) -0.48638(13) 0.23292(7)
H6 H -0.2128 -0.5623 0.2579
C6 C -0.13148(18) -0.44522(12) 0.13870(7)
H7 H -0.2620 -0.4909 0.0994
C7 C 0.03142(17) -0.33739(12) 0.10119(7)
H8 H 0.0155 -0.3159 0.0360
C8 C 0.21665(16) -0.26111(11) 0.15830(6)
H9 H 0.3257 -0.1866 0.1327
C9 C 0.23978(15) -0.29604(11) 0.25434(6)
C10 C 0.55824(16) -0.09268(11) 0.32905(6)
C11 C 0.54541(15) 0.02131(11) 0.24705(6)
C12 C 0.35597(16) 0.13170(12) 0.23082(7)
H10 H 0.2435 0.1438 0.2757
C13 C 0.33206(18) 0.22437(13) 0.14851(7)
H11 H 0.2043 0.3004 0.1379
C14 C 0.49425(19) 0.20566(12) 0.08229(7)
H12 H 0.4734 0.2647 0.0251
C15 C 0.68769(18) 0.10025(13) 0.09961(7)
H13 H 0.8012 0.0897 0.0551
C16 C 0.71426(16) 0.01050(12) 0.18229(7)
H14 H 0.8487 -0.0588 0.1948
C17 C 0.74038(17) -0.05053(12) 0.40686(7)
loop_
_geom_bond_atom_site_label_1
_geom_bond_atom_site_label_2
_geom_bond_site_symmetry_1
_geom_bond_site_symmetry_2
O1 H1 1_555 1_555
O2 C17 1_555 1_555
C1 C2 1_555 1_555
C2 H2 1_555 1_555
H3 C2 1_555 1_555
C3 C2 1_555 1_555
H4 C3 1_555 1_555
H5 C3 1_555 1_555
C4 C3 1_555 1_555
C5 C4 1_555 1_555
H6 C5 1_555 1_555
C6 C5 1_555 1_555
H7 C6 1_555 1_555
C7 C6 1_555 1_555
H8 C7 1_555 1_555
C8 C7 1_555 1_555
H9 C8 1_555 1_555
C9 C1 1_555 1_555
C10 C1 1_555 1_555
C11 C10 1_555 1_555
C12 C11 1_555 1_555
H10 C12 1_555 1_555
C13 C12 1_555 1_555
H11 C13 1_555 1_555
C14 C13 1_555 1_555
H12 C14 1_555 1_555
C15 C14 1_555 1_555
H13 C15 1_555 1_555
C16 C11 1_555 1_555
H14 C16 1_555 1_555
C17 O1 1_555 1_555
C4 C9 1_555 1_555
C8 C9 1_555 1_555
C10 C17 1_555 1_555
C15 C16 1_555 1_555

#END
