
#######################################################################
#
#                 Cambridge Crystallographic Data Centre
#                                CCDC 
#
#######################################################################
#
# If this CIF has been generated from an entry in the Cambridge 
# Structural Database, then it will include bibliographic, chemical, 
# crystal, experimental, refinement or atomic coordinate data resulting 
# from the CCDC's data processing and validation procedures.
#
#######################################################################

data_OHUHUW
_chemical_formula_moiety         'C30 H27 I1 N4 O3 S1'
_chemical_name_systematic        
3-Amino-N-(2-iodophenyl)-3-(4-methylphenyl)-2-(N'-((4-methylphenyl)sulfonyl)-N-phenylcarbamimidoyl)acrylamide
_symmetry_cell_setting           monoclinic
_symmetry_space_group_name_H-M   'P 21/c'
_symmetry_Int_Tables_number      14
_space_group_name_Hall           '-P 2ybc'
loop_
_symmetry_equiv_pos_site_id
_symmetry_equiv_pos_as_xyz
1 x,y,z
2 -x,1/2+y,1/2-z
3 -x,-y,-z
4 x,1/2-y,1/2+z
_cell_length_a                   14.5464(7)
_cell_length_b                   13.4795(7)
_cell_length_c                   18.7867(12)
_cell_angle_alpha                90
_cell_angle_beta                 128.458(3)
_cell_angle_gamma                90
_cell_volume                     2884.54
_exptl_crystal_colour            colorless
_exptl_crystal_description       block
_cell_formula_units_Z            4
loop_
_atom_site_label
_atom_site_type_symbol
_atom_site_fract_x
_atom_site_fract_y
_atom_site_fract_z
I1 I 0.01924(3) 0.77212(3) 0.222761(19)
S1 S 0.42048(9) 0.76704(8) 0.46018(7)
O1 O 0.4517(3) 0.8693(2) 0.4644(2)
O2 O 0.3612(3) 0.7171(3) 0.37465(19)
O3 O 0.0683(2) 0.7065(2) 0.51172(18)
N1 N 0.3457(3) 0.7488(2) 0.4965(2)
N2 N 0.3223(3) 0.9159(2) 0.51703(19)
H1 H 0.3712 0.9299 0.5072
N3 N 0.1116(3) 0.6885(3) 0.41630(19)
H2 H 0.1631 0.6993 0.4085
N4 N 0.2195(3) 0.7942(3) 0.6686(2)
H3 H 0.1537 0.7631 0.6347
H4 H 0.2468 0.8129 0.7222
C1 C 0.8506(5) 0.5254(5) 0.7424(6)
H5 H 0.8771 0.5451 0.8016
H6 H 0.9128 0.5348 0.7385
H7 H 0.8284 0.4567 0.7326
C2 C 0.7457(5) 0.5879(4) 0.6706(5)
C3 C 0.7244(4) 0.6780(4) 0.6917(3)
H8 H 0.7767 0.7015 0.7509
C4 C 0.6276(4) 0.7350(3) 0.6277(3)
H9 H 0.6157 0.7963 0.6436
C5 C 0.5494(3) 0.7000(3) 0.5404(3)
C6 C 0.5705(4) 0.6107(3) 0.5182(4)
H10 H 0.5184 0.5864 0.4592
C7 C 0.6694(6) 0.5568(4) 0.5837(5)
H11 H 0.6838 0.4972 0.5674
C8 C 0.3061(3) 0.8191(3) 0.5206(2)
C9 C 0.2717(3) 0.9991(3) 0.5269(2)
C10 C 0.1566(3) 1.0005(3) 0.4955(3)
H12 H 0.1101 0.9440 0.4696
C11 C 0.1117(4) 1.0863(4) 0.5032(3)
H13 H 0.0351 1.0869 0.4834
C12 C 0.1786(5) 1.1707(4) 0.5396(3)
H14 H 0.1476 1.2284 0.5443
C13 C 0.2912(5) 1.1693(3) 0.5687(3)
H15 H 0.3364 1.2266 0.5925
C14 C 0.3387(4) 1.0836(3) 0.5633(3)
H16 H 0.4159 1.0831 0.5842
C15 C 0.2408(3) 0.7857(2) 0.5525(2)
C16 C 0.1351(3) 0.7242(3) 0.4940(2)
C17 C 0.0103(3) 0.6353(3) 0.3478(2)
C18 C -0.0357(4) 0.5606(3) 0.3670(3)
H17 H -0.0007 0.5451 0.4271
C19 C -0.1333(5) 0.5083(4) 0.2979(4)
H18 H -0.1637 0.4577 0.3114
C20 C -0.1855(5) 0.5316(5) 0.2087(4)
H19 H -0.2514 0.4965 0.1621
C21 C -0.1419(4) 0.6052(4) 0.1880(3)
H20 H -0.1777 0.6205 0.1276
C22 C -0.0439(3) 0.6571(3) 0.2573(3)
C23 C 0.2791(3) 0.8134(3) 0.6379(2)
C24 C 0.3918(3) 0.8661(3) 0.7034(2)
C25 C 0.4956(3) 0.8306(3) 0.7249(2)
H21 H 0.4952 0.7737 0.6968
C26 C 0.6003(4) 0.8798(3) 0.7884(3)
H22 H 0.6695 0.8561 0.8017
C27 C 0.6030(4) 0.9638(4) 0.8322(3)
C28 C 0.4990(5) 0.9987(3) 0.8097(3)
H23 H 0.4993 1.0556 0.8379
C29 C 0.3949(4) 0.9510(3) 0.7464(3)
H24 H 0.3256 0.9759 0.7322
C30 C 0.7194(6) 1.0141(5) 0.9046(4)
H25 H 0.7217 1.0324 0.9551
H26 H 0.7273 1.0725 0.8795
H27 H 0.7827 0.9693 0.9250
loop_
_geom_bond_atom_site_label_1
_geom_bond_atom_site_label_2
_geom_bond_site_symmetry_1
_geom_bond_site_symmetry_2
I1 C22 1_555 1_555
S1 O1 1_555 1_555
O2 S1 1_555 1_555
O3 C16 1_555 1_555
N1 S1 1_555 1_555
N2 H1 1_555 1_555
N3 H2 1_555 1_555
N4 H3 1_555 1_555
H4 N4 1_555 1_555
C1 H5 1_555 1_555
H6 C1 1_555 1_555
H7 C1 1_555 1_555
C2 C1 1_555 1_555
C3 C2 1_555 1_555
H8 C3 1_555 1_555
C4 C3 1_555 1_555
H9 C4 1_555 1_555
C5 S1 1_555 1_555
C6 C5 1_555 1_555
H10 C6 1_555 1_555
C7 C2 1_555 1_555
H11 C7 1_555 1_555
C8 N1 1_555 1_555
C9 N2 1_555 1_555
C10 C9 1_555 1_555
H12 C10 1_555 1_555
C11 C10 1_555 1_555
H13 C11 1_555 1_555
C12 C11 1_555 1_555
H14 C12 1_555 1_555
C13 C12 1_555 1_555
H15 C13 1_555 1_555
C14 C9 1_555 1_555
H16 C14 1_555 1_555
C15 C8 1_555 1_555
C16 N3 1_555 1_555
C17 N3 1_555 1_555
C18 C17 1_555 1_555
H17 C18 1_555 1_555
C19 C18 1_555 1_555
H18 C19 1_555 1_555
C20 C19 1_555 1_555
H19 C20 1_555 1_555
C21 C20 1_555 1_555
H20 C21 1_555 1_555
C22 C17 1_555 1_555
C23 N4 1_555 1_555
C24 C23 1_555 1_555
C25 C24 1_555 1_555
H21 C25 1_555 1_555
C26 C25 1_555 1_555
H22 C26 1_555 1_555
C27 C26 1_555 1_555
C28 C27 1_555 1_555
H23 C28 1_555 1_555
C29 C24 1_555 1_555
H24 C29 1_555 1_555
C30 C27 1_555 1_555
H25 C30 1_555 1_555
H26 C30 1_555 1_555
H27 C30 1_555 1_555
N2 C8 1_555 1_555
C4 C5 1_555 1_555
C6 C7 1_555 1_555
C13 C14 1_555 1_555
C15 C16 1_555 1_555
C15 C23 1_555 1_555
C21 C22 1_555 1_555
C28 C29 1_555 1_555

#END
