
#######################################################################
#
#                 Cambridge Crystallographic Data Centre
#                                CCDC 
#
#######################################################################
#
# If this CIF has been generated from an entry in the Cambridge 
# Structural Database, then it will include bibliographic, chemical, 
# crystal, experimental, refinement or atomic coordinate data resulting 
# from the CCDC's data processing and validation procedures.
#
#######################################################################

data_OHUKEH
_chemical_formula_moiety         'C16 H20 O4'
_chemical_name_systematic        
(1'R,3aR,8R,8aS)-8a-(1'-hydroxybut-3'-en-1'-yl)-2,2-dimethyl-8,8a-dihydro-3aH-indeno[1,2-d][1,3]dioxol-8-ol
_symmetry_cell_setting           monoclinic
_symmetry_space_group_name_H-M   'P 21'
_symmetry_Int_Tables_number      4
_space_group_name_Hall           'P 2yb'
loop_
_symmetry_equiv_pos_site_id
_symmetry_equiv_pos_as_xyz
1 x,y,z
2 -x,1/2+y,-z
_cell_length_a                   9.4227(3)
_cell_length_b                   6.4126(2)
_cell_length_c                   12.1884(5)
_cell_angle_alpha                90
_cell_angle_beta                 100.8003(14)
_cell_angle_gamma                90
_cell_volume                     723.426
_exptl_crystal_colour            colorless
_exptl_crystal_description       needle
_chemical_melting_point          104-106deg.C
_cell_formula_units_Z            2
_exptl_crystal_recrystallization_method 'dichloromethane and hexane'
loop_
_atom_site_label
_atom_site_type_symbol
_atom_site_fract_x
_atom_site_fract_y
_atom_site_fract_z
O1 O 0.66824(14) 0.5265(3) 0.51889(11)
O2 O 0.90928(15) 0.6003(3) 0.56096(12)
O3 O 0.61897(18) 0.2332(3) 0.73717(15)
O4 O 0.56828(17) 0.8556(3) 0.63438(14)
C1 C 0.7883(2) 0.6016(4) 0.47056(17)
C2 C 0.8560(2) 0.6394(4) 0.66150(17)
C3 C 0.9436(2) 0.5179(4) 0.75579(17)
C4 C 1.0764(2) 0.5678(5) 0.82170(18)
C5 C 1.1390(3) 0.4239(5) 0.9029(2)
C6 C 1.0694(3) 0.2394(5) 0.9184(2)
C7 C 0.9362(3) 0.1906(4) 0.8529(2)
C8 C 0.8748(2) 0.3320(4) 0.77122(18)
C9 C 0.7334(2) 0.3113(4) 0.68851(19)
C10 C 0.7060(2) 0.5349(4) 0.63898(17)
C11 C 0.7563(3) 0.8192(4) 0.4253(2)
C12 C 0.8179(3) 0.4504(4) 0.3835(2)
C13 C 0.5871(2) 0.6499(4) 0.68373(18)
C14 C 0.6193(2) 0.6799(4) 0.81062(18)
C15 C 0.4853(3) 0.7326(5) 0.8539(2)
C16 C 0.4574(3) 0.9124(5) 0.8984(2)
H1 H 0.599(3) 0.108(6) 0.708(3)
H2 H 0.490(4) 0.866(6) 0.579(3)
H3 H 0.8574(2) 0.7912(4) 0.68052(17)
H4 H 1.1256(2) 0.7026(5) 0.81138(18)
H5 H 1.2353(3) 0.4549(5) 0.9502(2)
H6 H 1.1154(3) 0.1396(5) 0.9776(2)
H7 H 0.8860(3) 0.0572(4) 0.8642(2)
H8 H 0.7389(2) 0.2054(4) 0.62925(19)
H9 H 0.8393(3) 0.8703(4) 0.3921(2)
H10 H 0.7419(3) 0.9142(4) 0.4873(2)
H11 H 0.6667(3) 0.8170(4) 0.3665(2)
H12 H 0.9006(3) 0.5023(4) 0.3503(2)
H13 H 0.8428(3) 0.3110(4) 0.4187(2)
H14 H 0.7301(3) 0.4372(4) 0.3235(2)
H15 H 0.4987(2) 0.5613(4) 0.66379(18)
H16 H 0.6908(2) 0.7957(4) 0.82971(18)
H17 H 0.6612(2) 0.5479(4) 0.84673(18)
H18 H 0.4098(3) 0.6216(5) 0.8486(2)
H19 H 0.5295(3) 1.0284(5) 0.9055(2)
H20 H 0.3641(3) 0.9325(5) 0.9250(2)
loop_
_geom_bond_atom_site_label_1
_geom_bond_atom_site_label_2
_geom_bond_site_symmetry_1
_geom_bond_site_symmetry_2
O1 C1 1_555 1_555
O2 C1 1_555 1_555
O3 C9 1_555 1_555
O4 C13 1_555 1_555
C1 C11 1_555 1_555
C2 O2 1_555 1_555
C3 C2 1_555 1_555
C4 C3 1_555 1_555
C5 C4 1_555 1_555
C6 C5 1_555 1_555
C7 C6 1_555 1_555
C8 C3 1_555 1_555
C9 C8 1_555 1_555
C10 O1 1_555 1_555
C11 H9 1_555 1_555
C12 C1 1_555 1_555
C13 C10 1_555 1_555
C14 C13 1_555 1_555
C15 C14 1_555 1_555
C16 C15 1_555 1_555
H1 O3 1_555 1_555
H2 O4 1_555 1_555
H3 C2 1_555 1_555
H4 C4 1_555 1_555
H5 C5 1_555 1_555
H6 C6 1_555 1_555
H7 C7 1_555 1_555
H8 C9 1_555 1_555
H10 C11 1_555 1_555
H11 C11 1_555 1_555
H12 C12 1_555 1_555
H13 C12 1_555 1_555
H14 C12 1_555 1_555
H15 C13 1_555 1_555
H16 C14 1_555 1_555
H17 C14 1_555 1_555
H18 C15 1_555 1_555
H19 C16 1_555 1_555
H20 C16 1_555 1_555
C2 C10 1_555 1_555
C7 C8 1_555 1_555
C9 C10 1_555 1_555

#END
