
#######################################################################
#
#                 Cambridge Crystallographic Data Centre
#                                CCDC 
#
#######################################################################
#
# If this CIF has been generated from an entry in the Cambridge 
# Structural Database, then it will include bibliographic, chemical, 
# crystal, experimental, refinement or atomic coordinate data resulting 
# from the CCDC's data processing and validation procedures.
#
#######################################################################

data_OHUSAN
_chemical_formula_moiety         'C39 H32 N4 O4'
_chemical_name_systematic        
"methyl 1-benzyl-5',5'-dicyano-1'-(4-methoxyphenyl)-5-methyl-2-oxo-6'-(2-phenylvinyl)-1,2,5',6'-tetrahydro-1'H-spiro[indole-3,4'-pyridine]-3'-carboxylate"
_symmetry_cell_setting           triclinic
_symmetry_space_group_name_H-M   'P -1'
_symmetry_Int_Tables_number      2
_space_group_name_Hall           '-P 1'
loop_
_symmetry_equiv_pos_site_id
_symmetry_equiv_pos_as_xyz
1 x,y,z
2 -x,-y,-z
_cell_length_a                   10.7565(16)
_cell_length_b                   12.240(2)
_cell_length_c                   14.678(2)
_cell_angle_alpha                82.406(5)
_cell_angle_beta                 69.137(5)
_cell_angle_gamma                64.352(5)
_cell_volume                     1627.31
_exptl_crystal_colour            colorless
_exptl_crystal_description       block
_cell_formula_units_Z            2
loop_
_atom_site_label
_atom_site_type_symbol
_atom_site_fract_x
_atom_site_fract_y
_atom_site_fract_z
C1 C 0.6112(3) 1.3077(2) 0.1838(2)
H1 H 0.5144 1.3179 0.2119
C2 C 0.6498(5) 1.3764(3) 0.1041(3)
H2 H 0.5789 1.4329 0.0795
C3 C 0.7924(6) 1.3603(3) 0.0624(3)
H3 H 0.8183 1.4058 0.0090
C4 C 0.8951(4) 1.2796(3) 0.0978(2)
H4 H 0.9918 1.2693 0.0688
C5 C 0.8579(3) 1.2116(2) 0.17696(17)
H5 H 0.9301 1.1560 0.2010
C6 C 0.7156(3) 1.22493(18) 0.22095(15)
C7 C 0.6746(2) 1.15587(17) 0.31070(14)
H6 H 0.6681 1.1950 0.3666
H7 H 0.5786 1.1595 0.3212
C8 C 0.88058(19) 0.98573(17) 0.34929(12)
C9 C 0.96050(18) 0.84592(16) 0.33129(12)
C10 C 0.89232(19) 0.82742(17) 0.26304(12)
C11 C 0.9183(2) 0.72428(18) 0.21679(13)
H8 H 0.9938 0.6507 0.2214
C12 C 0.8310(2) 0.7309(2) 0.16312(14)
C13 C 0.8509(3) 0.6171(2) 0.11946(17)
H9 H 0.7609 0.6073 0.1450
H10 H 0.9267 0.5484 0.1358
H11 H 0.8778 0.6233 0.0498
C14 C 0.7248(3) 0.8429(2) 0.15437(16)
H12 H 0.6674 0.8481 0.1179
C15 C 0.6997(2) 0.9481(2) 0.19733(15)
H13 H 0.6286 1.0227 0.1893
C16 C 0.7844(2) 0.93754(17) 0.25254(12)
C17 C 0.91138(18) 0.78702(16) 0.43246(12)
C18 C 0.7534(2) 0.85015(18) 0.48412(13)
C19 C 0.9479(2) 0.65827(18) 0.41538(12)
C20 C 1.2056(2) 0.72878(17) 0.35284(13)
H14 H 1.3064 0.6902 0.3227
C21 C 1.12509(19) 0.79675(17) 0.29661(12)
C22 C 1.2048(2) 0.8217(2) 0.19810(14)
C23 C 1.1791(3) 0.9307(3) 0.05485(15)
H15 H 1.2323 0.9770 0.0539
H16 H 1.1032 0.9772 0.0275
H17 H 1.2446 0.8570 0.0171
C24 C 0.6714(3) 0.8726(3) 0.84317(16)
H18 H 0.6537 0.9537 0.8317
C25 C 0.5931(3) 0.8403(3) 0.93162(18)
H19 H 0.5216 0.9004 0.9780
C26 C 0.6188(3) 0.7236(3) 0.95129(17)
H20 H 0.5671 0.7029 1.0113
C27 C 0.7219(3) 0.6354(3) 0.88214(18)
H21 H 0.7390 0.5546 0.8949
C28 C 0.8003(3) 0.6660(2) 0.79390(16)
H22 H 0.8713 0.6050 0.7482
C29 C 0.7756(2) 0.7855(2) 0.77179(13)
C30 C 0.8520(2) 0.82012(18) 0.67616(13)
H23 H 0.8419 0.8999 0.6696
C31 C 0.93403(19) 0.74715(17) 0.59869(12)
H24 H 0.9539 0.6652 0.6060
C32 C 0.99663(18) 0.78915(16) 0.49989(12)
H25 H 0.9848 0.8723 0.5055
C33 C 1.23467(18) 0.61250(17) 0.49742(12)
C34 C 1.2411(2) 0.63181(18) 0.58646(14)
H26 H 1.1952 0.7097 0.6136
C35 C 1.3156(2) 0.53530(18) 0.63458(14)
H27 H 1.3183 0.5483 0.6947
C36 C 1.3864(2) 0.41898(18) 0.59400(14)
C37 C 1.5245(3) 0.2083(2) 0.61363(18)
H28 H 1.4529 0.1879 0.6046
H29 H 1.5639 0.1557 0.6605
H30 H 1.6020 0.1989 0.5526
C38 C 1.3822(2) 0.39974(18) 0.50521(14)
H31 H 1.4311 0.3222 0.4771
C39 C 1.3046(2) 0.49671(18) 0.45754(14)
H32 H 1.2997 0.4833 0.3982
N1 N 0.77803(16) 1.02951(13) 0.30487(10)
N2 N 0.6330(2) 0.89747(18) 0.52816(13)
N3 N 0.9830(2) 0.55854(17) 0.40083(13)
N4 N 1.15101(15) 0.71238(14) 0.44971(10)
O1 O 0.90242(15) 1.04532(12) 0.39724(10)
O2 O 1.33531(18) 0.7804(2) 0.16077(12)
O3 O 1.11480(15) 0.90221(13) 0.15385(9)
O4 O 1.45752(15) 0.33079(13) 0.64806(10)
loop_
_geom_bond_atom_site_label_1
_geom_bond_atom_site_label_2
_geom_bond_site_symmetry_1
_geom_bond_site_symmetry_2
C1 H1 1_555 1_555
C2 C1 1_555 1_555
H2 C2 1_555 1_555
C3 C2 1_555 1_555
H3 C3 1_555 1_555
C4 C3 1_555 1_555
H4 C4 1_555 1_555
C5 C4 1_555 1_555
H5 C5 1_555 1_555
C6 C1 1_555 1_555
C7 C6 1_555 1_555
H6 C7 1_555 1_555
H7 C7 1_555 1_555
C8 C9 1_555 1_555
C9 C10 1_555 1_555
C10 C11 1_555 1_555
C11 H8 1_555 1_555
C12 C11 1_555 1_555
C13 C12 1_555 1_555
H9 C13 1_555 1_555
H10 C13 1_555 1_555
H11 C13 1_555 1_555
C14 C12 1_555 1_555
H12 C14 1_555 1_555
C15 C14 1_555 1_555
H13 C15 1_555 1_555
C16 C10 1_555 1_555
C17 C9 1_555 1_555
C18 C17 1_555 1_555
C19 C17 1_555 1_555
C20 H14 1_555 1_555
C21 C9 1_555 1_555
C22 C21 1_555 1_555
C23 H15 1_555 1_555
H16 C23 1_555 1_555
H17 C23 1_555 1_555
C24 H18 1_555 1_555
C25 C24 1_555 1_555
H19 C25 1_555 1_555
C26 C25 1_555 1_555
H20 C26 1_555 1_555
C27 C26 1_555 1_555
H21 C27 1_555 1_555
C28 C27 1_555 1_555
H22 C28 1_555 1_555
C29 C24 1_555 1_555
C30 C29 1_555 1_555
H23 C30 1_555 1_555
C31 C30 1_555 1_555
H24 C31 1_555 1_555
C32 C17 1_555 1_555
H25 C32 1_555 1_555
C33 C34 1_555 1_555
C34 H26 1_555 1_555
C35 C34 1_555 1_555
H27 C35 1_555 1_555
C36 C35 1_555 1_555
C37 H28 1_555 1_555
H29 C37 1_555 1_555
H30 C37 1_555 1_555
C38 C36 1_555 1_555
H31 C38 1_555 1_555
C39 C33 1_555 1_555
H32 C39 1_555 1_555
N1 C7 1_555 1_555
N2 C18 1_555 1_555
N3 C19 1_555 1_555
N4 C20 1_555 1_555
O1 C8 1_555 1_555
O2 C22 1_555 1_555
O3 C22 1_555 1_555
O4 C36 1_555 1_555
C5 C6 1_555 1_555
C8 N1 1_555 1_555
C15 C16 1_555 1_555
C16 N1 1_555 1_555
C20 C21 1_555 1_555
C23 O3 1_555 1_555
C28 C29 1_555 1_555
C31 C32 1_555 1_555
C32 N4 1_555 1_555
C33 N4 1_555 1_555
C37 O4 1_555 1_555
C38 C39 1_555 1_555

#END
