
#######################################################################
#
#                 Cambridge Crystallographic Data Centre
#                                CCDC 
#
#######################################################################
#
# If this CIF has been generated from an entry in the Cambridge 
# Structural Database, then it will include bibliographic, chemical, 
# crystal, experimental, refinement or atomic coordinate data resulting 
# from the CCDC's data processing and validation procedures.
#
#######################################################################

data_OHUXOE
_chemical_formula_moiety         'C6 H16 N1 1+,C40 H46 N4 O4,Cl1 1-'
_chemical_name_systematic        
'Triethylammonium 5,10,10,15,20,20-hexamethyl-5,15-(m-phenylene-bis(carbonyloxypropyl))calix(4)pyrrole chloride clathrate'
_symmetry_cell_setting           triclinic
_symmetry_space_group_name_H-M   'P -1'
_symmetry_Int_Tables_number      2
_space_group_name_Hall           '-P 1'
loop_
_symmetry_equiv_pos_site_id
_symmetry_equiv_pos_as_xyz
1 x,y,z
2 -x,-y,-z
_cell_length_a                   9.5568(2)
_cell_length_b                   11.0858(3)
_cell_length_c                   20.6450(6)
_cell_angle_alpha                76.832(1)
_cell_angle_beta                 77.413(1)
_cell_angle_gamma                84.170(1)
_cell_volume                     2075.43
_exptl_crystal_colour            colorless
_exptl_crystal_description       prisms
_cell_formula_units_Z            2
loop_
_atom_site_label
_atom_site_type_symbol
_atom_site_fract_x
_atom_site_fract_y
_atom_site_fract_z
Cl1 Cl 0.38302(9) 0.50724(8) 0.23439(4)
N1 N 0.5739(3) 0.7362(3) 0.22968(14)
N2 N 0.6252(3) 0.5984(3) 0.09978(14)
N3 N 0.6770(3) 0.3218(3) 0.20495(14)
N4 N 0.6168(3) 0.4632(3) 0.33626(14)
C1 C 0.5938(4) 0.7663(3) 0.28843(17)
C2 C 0.6543(4) 0.8796(3) 0.26923(17)
H1 H 0.6804 0.9245 0.2991
C3 C 0.6702(4) 0.9186(3) 0.19775(17)
H2 H 0.7100 0.9942 0.1704
C4 C 0.6204(3) 0.8290(3) 0.17405(17)
C5 C 0.5993(4) 0.8270(3) 0.10349(17)
C6 C 0.6756(4) 0.7163(3) 0.07663(16)
C7 C 0.7940(4) 0.7076(3) 0.02626(17)
H3 H 0.8515 0.7753 0.0006
C8 C 0.8150(4) 0.5826(3) 0.01856(16)
H4 H 0.8899 0.5500 -0.0131
C9 C 0.7098(4) 0.5165(3) 0.06410(16)
C10 C 0.6768(4) 0.3798(3) 0.07871(16)
C11 C 0.7372(4) 0.3089(3) 0.13959(17)
C12 C 0.8547(4) 0.2278(3) 0.14400(17)
H5 H 0.9187 0.2015 0.1064
C13 C 0.8651(4) 0.1911(3) 0.21328(17)
H6 H 0.9374 0.1349 0.2312
C14 C 0.7541(4) 0.2496(3) 0.25062(17)
C15 C 0.7083(3) 0.2426(3) 0.32650(17)
C16 C 0.7185(3) 0.3664(3) 0.34538(16)
C17 C 0.8140(4) 0.4050(3) 0.37608(17)
H7 H 0.8975 0.3574 0.3885
C18 C 0.7683(4) 0.5262(3) 0.38610(17)
H8 H 0.8138 0.5753 0.4075
C19 C 0.6463(4) 0.5609(3) 0.36098(16)
C20 C 0.5518(4) 0.6800(3) 0.35797(16)
C21 C 0.3917(3) 0.6529(3) 0.36951(16)
H9 H 0.3792 0.6127 0.3348
H10 H 0.3361 0.7305 0.3648
C22 C 0.3290(4) 0.5726(3) 0.43826(17)
H11 H 0.3236 0.6187 0.4729
H12 H 0.3939 0.5015 0.4467
C23 C 0.1834(4) 0.5278(3) 0.44083(19)
H13 H 0.1283 0.5939 0.4172
H14 H 0.1335 0.5057 0.4872
O1 O 0.1969(3) 0.4193(2) 0.40997(12)
C24 C 0.1582(4) 0.3122(3) 0.45163(19)
O2 O 0.1137(3) 0.2996(2) 0.51207(13)
C25 C 0.1775(4) 0.2057(3) 0.41693(17)
C26 C 0.2069(3) 0.2194(3) 0.34629(17)
H15 H 0.2151 0.3008 0.3176
C27 C 0.2244(4) 0.1142(3) 0.31826(17)
C28 C 0.2144(4) -0.0024(3) 0.36085(19)
H16 H 0.2295 -0.0748 0.3415
C29 C 0.1846(4) -0.0159(4) 0.4305(2)
H17 H 0.1764 -0.0969 0.4596
C30 C 0.1663(4) 0.0878(3) 0.45825(19)
H18 H 0.1446 0.0789 0.5067
C31 C 0.2548(4) 0.1180(3) 0.24384(18)
O3 O 0.2639(3) 0.0250(2) 0.22115(13)
O4 O 0.2693(2) 0.2320(2) 0.20553(11)
C32 C 0.2961(4) 0.2402(3) 0.13232(16)
H19 H 0.2480 0.3140 0.1110
H20 H 0.2580 0.1699 0.1237
C33 C 0.4558(4) 0.2427(3) 0.10215(17)
H21 H 0.4748 0.2186 0.0591
H22 H 0.5067 0.1841 0.1320
C34 C 0.5119(4) 0.3711(3) 0.09172(17)
H23 H 0.4769 0.4245 0.0543
H24 H 0.4701 0.4027 0.1317
C35 C 0.5741(4) 0.7468(3) 0.41251(17)
H25 H 0.5473 0.6950 0.4568
H26 H 0.6735 0.7644 0.4044
H27 H 0.5162 0.8231 0.4099
C36 C 0.6593(4) 0.9445(3) 0.05434(18)
H28 H 0.7603 0.9443 0.0531
H29 H 0.6441 0.9461 0.0097
H30 H 0.6117 1.0166 0.0695
C37 C 0.4377(4) 0.8290(3) 0.10567(17)
H31 H 0.3989 0.7557 0.1363
H32 H 0.3905 0.9012 0.1208
H33 H 0.4229 0.8307 0.0610
C38 C 0.7490(4) 0.3269(3) 0.01626(17)
H34 H 0.8511 0.3328 0.0088
H35 H 0.7273 0.2414 0.0245
H36 H 0.7144 0.3724 -0.0231
C39 C 0.8058(4) 0.1448(3) 0.36370(18)
H37 H 0.9035 0.1685 0.3494
H38 H 0.7761 0.1383 0.4118
H39 H 0.7986 0.0662 0.3529
C40 C 0.5530(4) 0.2027(3) 0.35075(18)
H40 H 0.4902 0.2630 0.3283
H41 H 0.5472 0.1237 0.3401
H42 H 0.5247 0.1958 0.3990
H58 H 0.526(4) 0.672(4) 0.2281(19)
H59 H 0.545(4) 0.577(3) 0.1320(19)
H60 H 0.598(4) 0.367(4) 0.2167(19)
H61 H 0.547(4) 0.462(3) 0.3191(18)
N5 N -0.0417(4) 0.7106(3) 0.20279(15)
C41 C 0.0262(4) 0.4962(4) 0.1783(2)
H43 H -0.0123 0.4203 0.1769
H44 H 0.0793 0.5316 0.1340
H45 H 0.0888 0.4793 0.2102
C42 C -0.0924(4) 0.5870(3) 0.1993(2)
H46 H -0.1557 0.6019 0.1677
H47 H -0.1463 0.5501 0.2431
C43 C 0.0443(5) 0.6946(4) 0.2579(2)
H48 H 0.1444 0.6950 0.2371
H49 H 0.0267 0.6154 0.2879
C44 C 0.0106(5) 0.7932(4) 0.2986(2)
H50 H 0.0680 0.7793 0.3327
H51 H 0.0296 0.8724 0.2687
H52 H -0.0892 0.7921 0.3201
C45 C 0.0330(4) 0.7763(4) 0.13461(19)
H53 H -0.0222 0.7712 0.1018
H54 H 0.1241 0.7328 0.1234
C46 C 0.0582(4) 0.9094(4) 0.1284(2)
H55 H 0.1073 0.9440 0.0832
H56 H -0.0324 0.9543 0.1383
H57 H 0.1156 0.9155 0.1602
H62 H -0.134(5) 0.763(4) 0.217(2)
loop_
_geom_bond_atom_site_label_1
_geom_bond_atom_site_label_2
_geom_bond_site_symmetry_1
_geom_bond_site_symmetry_2
N1 C1 1_555 1_555
N2 C6 1_555 1_555
N3 C11 1_555 1_555
N4 C16 1_555 1_555
C1 C2 1_555 1_555
C2 H1 1_555 1_555
C3 C2 1_555 1_555
H2 C3 1_555 1_555
C4 N1 1_555 1_555
C5 C4 1_555 1_555
C6 C5 1_555 1_555
C7 C6 1_555 1_555
H3 C7 1_555 1_555
C8 C7 1_555 1_555
H4 C8 1_555 1_555
C9 N2 1_555 1_555
C10 C9 1_555 1_555
C11 C10 1_555 1_555
C12 C11 1_555 1_555
H5 C12 1_555 1_555
C13 C12 1_555 1_555
H6 C13 1_555 1_555
C14 N3 1_555 1_555
C15 C14 1_555 1_555
C16 C15 1_555 1_555
C17 C16 1_555 1_555
H7 C17 1_555 1_555
C18 C17 1_555 1_555
H8 C18 1_555 1_555
C19 N4 1_555 1_555
C20 C1 1_555 1_555
C21 C20 1_555 1_555
H9 C21 1_555 1_555
H10 C21 1_555 1_555
C22 C21 1_555 1_555
H11 C22 1_555 1_555
H12 C22 1_555 1_555
C23 C22 1_555 1_555
H13 C23 1_555 1_555
H14 C23 1_555 1_555
O1 C23 1_555 1_555
C24 O1 1_555 1_555
O2 C24 1_555 1_555
C25 C24 1_555 1_555
C26 C25 1_555 1_555
H15 C26 1_555 1_555
C27 C26 1_555 1_555
C28 C27 1_555 1_555
H16 C28 1_555 1_555
C29 C28 1_555 1_555
H17 C29 1_555 1_555
C30 C25 1_555 1_555
H18 C30 1_555 1_555
C31 C27 1_555 1_555
O3 C31 1_555 1_555
O4 C31 1_555 1_555
C32 O4 1_555 1_555
H19 C32 1_555 1_555
H20 C32 1_555 1_555
C33 C32 1_555 1_555
H21 C33 1_555 1_555
H22 C33 1_555 1_555
C34 C10 1_555 1_555
H23 C34 1_555 1_555
H24 C34 1_555 1_555
C35 C20 1_555 1_555
H25 C35 1_555 1_555
H26 C35 1_555 1_555
H27 C35 1_555 1_555
C36 C5 1_555 1_555
H28 C36 1_555 1_555
H29 C36 1_555 1_555
H30 C36 1_555 1_555
C37 C5 1_555 1_555
H31 C37 1_555 1_555
H32 C37 1_555 1_555
H33 C37 1_555 1_555
C38 C10 1_555 1_555
H34 C38 1_555 1_555
H35 C38 1_555 1_555
H36 C38 1_555 1_555
C39 C15 1_555 1_555
H37 C39 1_555 1_555
H38 C39 1_555 1_555
H39 C39 1_555 1_555
C40 C15 1_555 1_555
H40 C40 1_555 1_555
H41 C40 1_555 1_555
H42 C40 1_555 1_555
N5 C42 1_555 1_555
C41 H43 1_555 1_555
H44 C41 1_555 1_555
H45 C41 1_555 1_555
C42 C41 1_555 1_555
H46 C42 1_555 1_555
H47 C42 1_555 1_555
C43 N5 1_555 1_555
H48 C43 1_555 1_555
H49 C43 1_555 1_555
C44 C43 1_555 1_555
H50 C44 1_555 1_555
H51 C44 1_555 1_555
H52 C44 1_555 1_555
C45 N5 1_555 1_555
H53 C45 1_555 1_555
H54 C45 1_555 1_555
C46 C45 1_555 1_555
H55 C46 1_555 1_555
H56 C46 1_555 1_555
H57 C46 1_555 1_555
H58 N1 1_555 1_555
H59 N2 1_555 1_555
H60 N3 1_555 1_555
H61 N4 1_555 1_555
H62 N5 1_555 1_555
C3 C4 1_555 1_555
C8 C9 1_555 1_555
C13 C14 1_555 1_555
C18 C19 1_555 1_555
C19 C20 1_555 1_555
C29 C30 1_555 1_555
C33 C34 1_555 1_555

#END
