
#######################################################################
#
#                 Cambridge Crystallographic Data Centre
#                                CCDC 
#
#######################################################################
#
# If this CIF has been generated from an entry in the Cambridge 
# Structural Database, then it will include bibliographic, chemical, 
# crystal, experimental, refinement or atomic coordinate data resulting 
# from the CCDC's data processing and validation procedures.
#
#######################################################################

data_OJAFIO
_chemical_formula_moiety         'C21 H27 B1 N2'
_chemical_name_systematic        
(Anilinyl-(di-isopropylimino)-(1-indenyl))borane
_symmetry_cell_setting           triclinic
_symmetry_space_group_name_H-M   'P -1'
_symmetry_Int_Tables_number      2
_space_group_name_Hall           '-P 1'
loop_
_symmetry_equiv_pos_site_id
_symmetry_equiv_pos_as_xyz
1 x,y,z
2 -x,-y,-z
_cell_length_a                   8.222(3)
_cell_length_b                   10.106(8)
_cell_length_c                   13.018(4)
_cell_angle_alpha                111.61(4)
_cell_angle_beta                 95.73(3)
_cell_angle_gamma                103.99(4)
_cell_volume                     954.2
_exptl_crystal_colour            colorless
_exptl_crystal_description       plate
_cell_formula_units_Z            2
_exptl_crystal_recrystallization_method hexane
loop_
_atom_site_label
_atom_site_type_symbol
_atom_site_fract_x
_atom_site_fract_y
_atom_site_fract_z
B1 B -0.1137(7) 0.5375(6) 0.2391(4)
N1 N -0.0616(6) 0.6782(5) 0.3345(4)
N2 N 0.0044(5) 0.4552(4) 0.2140(3)
C1 C -0.3114(6) 0.4752(6) 0.1740(4)
C2 C -0.3613(7) 0.4091(6) 0.0473(4)
C3 C -0.4710(7) 0.2743(6) 0.0091(5)
C4 C -0.5071(6) 0.2295(5) 0.1008(4)
C5 C -0.6058(7) 0.1061(7) 0.1058(7)
C6 C -0.6155(8) 0.0975(7) 0.2083(7)
C7 C -0.5279(8) 0.2220(8) 0.3076(6)
C8 C -0.4260(7) 0.3468(7) 0.3042(5)
C9 C -0.4134(6) 0.3554(5) 0.2012(4)
C10 C -0.1469(6) 0.7895(5) 0.3680(4)
C11 C -0.2015(7) 0.8451(6) 0.2928(5)
C12 C -0.2800(7) 0.9560(6) 0.3265(5)
C13 C -0.3065(7) 1.0108(6) 0.4345(5)
C14 C -0.2539(7) 0.9561(6) 0.5094(5)
C15 C -0.1749(7) 0.8455(6) 0.4757(4)
C16 C -0.0498(7) 0.2987(6) 0.1301(4)
C17 C -0.0281(10) 0.1940(8) 0.1821(7)
C18 C 0.0324(10) 0.2803(9) 0.0297(6)
C19 C 0.1865(6) 0.5117(6) 0.2694(4)
C20 C 0.2843(10) 0.6503(8) 0.2612(7)
C21 C 0.2156(10) 0.5255(8) 0.3926(6)
H1 H 0.182(8) 0.616(6) 0.453(5)
H2 H 0.333(9) 0.559(7) 0.412(5)
H3 H 0.154(6) 0.430(3) 0.393(4)
H4 H 0.008(9) 0.696(7) 0.381(5)
H5 H -0.348(5) 0.557(5) 0.204(3)
H6 H -0.305(5) 0.470(4) 0.001(3)
H7 H -0.515(6) 0.208(5) -0.065(4)
H8 H -0.645(6) 0.030(5) 0.050(4)
H9 H -0.688(5) 0.025(4) 0.224(3)
H10 H -0.551(9) 0.199(8) 0.367(6)
H11 H -0.358(7) 0.442(6) 0.366(5)
H12 H -0.178(5) 0.804(4) 0.224(3)
H13 H -0.312(5) 0.999(4) 0.273(3)
H14 H -0.355(8) 1.089(6) 0.460(5)
H15 H -0.277(7) 0.987(6) 0.585(5)
H16 H -0.147(5) 0.800(5) 0.520(4)
H17 H -0.166(5) 0.274(3) 0.098(3)
H18 H -0.103(7) 0.198(5) 0.234(4)
H19 H -0.071(7) 0.101(7) 0.128(5)
H20 H 0.093(6) 0.210(5) 0.205(4)
H21 H -0.014(6) 0.162(6) -0.017(4)
H22 H 0.144(7) 0.300(5) 0.046(4)
H23 H 0.033(8) 0.334(7) -0.004(5)
H24 H 0.236(6) 0.439(5) 0.238(4)
H25 H 0.245(7) 0.738(6) 0.299(5)
H26 H 0.275(6) 0.657(5) 0.185(5)
H27 H 0.390(10) 0.681(8) 0.279(6)
loop_
_geom_bond_atom_site_label_1
_geom_bond_atom_site_label_2
_geom_bond_site_symmetry_1
_geom_bond_site_symmetry_2
B1 N1 1_555 1_555
N1 C10 1_555 1_555
N2 B1 1_555 1_555
C1 B1 1_555 1_555
C2 C1 1_555 1_555
C3 C2 1_555 1_555
C4 C3 1_555 1_555
C5 C4 1_555 1_555
C6 C5 1_555 1_555
C7 C6 1_555 1_555
C8 C7 1_555 1_555
C9 C1 1_555 1_555
C10 C11 1_555 1_555
C11 C12 1_555 1_555
C12 C13 1_555 1_555
C13 C14 1_555 1_555
C14 C15 1_555 1_555
C15 C10 1_555 1_555
C16 N2 1_555 1_555
C17 C16 1_555 1_555
C18 C16 1_555 1_555
C19 N2 1_555 1_555
C20 C19 1_555 1_555
C21 C19 1_555 1_555
H1 C21 1_555 1_555
H2 C21 1_555 1_555
H3 C21 1_555 1_555
H4 N1 1_555 1_555
H5 C1 1_555 1_555
H6 C2 1_555 1_555
H7 C3 1_555 1_555
H8 C5 1_555 1_555
H9 C6 1_555 1_555
H10 C7 1_555 1_555
H11 C8 1_555 1_555
H12 C11 1_555 1_555
H13 C12 1_555 1_555
H14 C13 1_555 1_555
H15 C14 1_555 1_555
H16 C15 1_555 1_555
H17 C16 1_555 1_555
H18 C17 1_555 1_555
H19 C17 1_555 1_555
H20 C17 1_555 1_555
H21 C18 1_555 1_555
H22 C18 1_555 1_555
H23 C18 1_555 1_555
H24 C19 1_555 1_555
H25 C20 1_555 1_555
H26 C20 1_555 1_555
H27 C20 1_555 1_555
C4 C9 1_555 1_555
C8 C9 1_555 1_555

#END
