
#######################################################################
#
#                 Cambridge Crystallographic Data Centre
#                                CCDC 
#
#######################################################################
#
# If this CIF has been generated from an entry in the Cambridge 
# Structural Database, then it will include bibliographic, chemical, 
# crystal, experimental, refinement or atomic coordinate data resulting 
# from the CCDC's data processing and validation procedures.
#
#######################################################################

data_OJANIY
_chemical_formula_moiety         'C28 H28 N2'
_chemical_name_systematic        
(S)-2-((3,5-dimethylphenyl)(3-methyl-1H-indol-2-yl)methyl)-1,3-dimethyl-1H-indole
_symmetry_cell_setting           monoclinic
_symmetry_space_group_name_H-M   'P 21'
_symmetry_Int_Tables_number      4
_space_group_name_Hall           'P 2yb'
loop_
_symmetry_equiv_pos_site_id
_symmetry_equiv_pos_as_xyz
1 x,y,z
2 -x,1/2+y,-z
_cell_length_a                   9.20980(10)
_cell_length_b                   8.35700(10)
_cell_length_c                   14.8849(2)
_cell_angle_alpha                90
_cell_angle_beta                 105.3780(10)
_cell_angle_gamma                90
_cell_volume                     1104.62
_exptl_crystal_colour            colorless
_exptl_crystal_description       block
_chemical_melting_point          '78-80 deg.C'
_cell_formula_units_Z            2
loop_
_atom_site_label
_atom_site_type_symbol
_atom_site_fract_x
_atom_site_fract_y
_atom_site_fract_z
N1 N 0.1173(2) -0.2155(3) 0.77294(14)
N2 N 0.1774(2) 0.3210(3) 0.66705(14)
H1 H 0.1597 0.3672 0.7162
C1 C 0.0719(3) 0.0525(3) 0.69592(16)
H2 H -0.0085 -0.0063 0.6493
C2 C 0.1773(3) -0.0740(3) 0.74953(16)
C3 C 0.3307(3) -0.0728(3) 0.78763(17)
C4 C 0.3679(3) -0.2208(3) 0.83594(17)
C5 C 0.5033(4) -0.2904(5) 0.8875(2)
H3 H 0.5966 -0.2363 0.8951
C6 C 0.4977(5) -0.4401(5) 0.9270(2)
H4 H 0.5886 -0.4877 0.9624
C7 C 0.3616(5) -0.5230(5) 0.9161(2)
H5 H 0.3618 -0.6252 0.9441
C8 C 0.2296(4) -0.4586(4) 0.8660(2)
H6 H 0.1372 -0.5146 0.8580
C9 C 0.2334(3) -0.3068(3) 0.82631(17)
C10 C -0.0397(3) -0.2668(4) 0.7416(2)
H7 H -0.0623 -0.3010 0.6764
H8 H -0.1057 -0.1775 0.7473
H9 H -0.0565 -0.3563 0.7802
C11 C 0.4426(3) 0.0538(4) 0.7840(2)
H10 H 0.4597 0.0559 0.7217
H11 H 0.5377 0.0309 0.8304
H12 H 0.4042 0.1580 0.7973
C12 C 0.1439(3) 0.1645(3) 0.64052(16)
C13 C 0.1860(3) 0.1329(3) 0.56047(17)
C14 C 0.2515(2) 0.2777(3) 0.53766(16)
C15 C 0.3186(3) 0.3207(4) 0.46631(17)
H13 H 0.3273 0.2446 0.4206
C16 C 0.3712(3) 0.4740(4) 0.46362(19)
H14 H 0.4179 0.5029 0.4162
C17 C 0.3571(3) 0.5881(4) 0.5296(2)
H15 H 0.3922 0.6939 0.5252
C18 C 0.2932(3) 0.5501(3) 0.60115(19)
H16 H 0.2840 0.6275 0.6461
C19 C 0.2430(3) 0.3940(3) 0.60448(16)
C20 C 0.1682(3) -0.0214(4) 0.5083(2)
H17 H 0.1341 -0.1045 0.5445
H18 H 0.2651 -0.0529 0.4981
H19 H 0.0938 -0.0083 0.4481
C21 C -0.0083(2) 0.1447(3) 0.75720(16)
C22 C 0.0457(3) 0.1494(3) 0.85401(17)
H20 H 0.1349 0.0929 0.8838
C23 C -0.0307(3) 0.2369(3) 0.90777(17)
C24 C -0.1611(3) 0.3165(3) 0.86311(18)
H21 H -0.2144 0.3738 0.8994
C25 C -0.2173(3) 0.3157(3) 0.76622(18)
C26 C -0.1387(3) 0.2289(3) 0.71444(17)
H22 H -0.1750 0.2271 0.6485
C27 C -0.3578(3) 0.4065(4) 0.7191(2)
H23 H -0.3314 0.5169 0.7079
H24 H -0.4267 0.4067 0.7592
H25 H -0.4068 0.3552 0.6596
C28 C 0.0302(3) 0.2443(4) 1.01228(19)
H26 H 0.1111 0.3239 1.0286
H27 H 0.0699 0.1391 1.0358
H28 H -0.0508 0.2745 1.0404
loop_
_geom_bond_atom_site_label_1
_geom_bond_atom_site_label_2
_geom_bond_site_symmetry_1
_geom_bond_site_symmetry_2
N1 C2 1_555 1_555
N2 H1 1_555 1_555
C1 H2 1_555 1_555
C2 C1 1_555 1_555
C3 C2 1_555 1_555
C4 C3 1_555 1_555
C5 C4 1_555 1_555
H3 C5 1_555 1_555
C6 C5 1_555 1_555
H4 C6 1_555 1_555
C7 C6 1_555 1_555
H5 C7 1_555 1_555
C8 C7 1_555 1_555
H6 C8 1_555 1_555
C9 N1 1_555 1_555
C10 N1 1_555 1_555
H7 C10 1_555 1_555
H8 C10 1_555 1_555
H9 C10 1_555 1_555
C11 C3 1_555 1_555
H10 C11 1_555 1_555
H11 C11 1_555 1_555
H12 C11 1_555 1_555
C12 N2 1_555 1_555
C13 C12 1_555 1_555
C14 C13 1_555 1_555
C15 C14 1_555 1_555
H13 C15 1_555 1_555
C16 C15 1_555 1_555
H14 C16 1_555 1_555
C17 C16 1_555 1_555
H15 C17 1_555 1_555
C18 C17 1_555 1_555
H16 C18 1_555 1_555
C19 N2 1_555 1_555
C20 C13 1_555 1_555
H17 C20 1_555 1_555
H18 C20 1_555 1_555
H19 C20 1_555 1_555
C21 C1 1_555 1_555
C22 C21 1_555 1_555
H20 C22 1_555 1_555
C23 C22 1_555 1_555
C24 C23 1_555 1_555
H21 C24 1_555 1_555
C25 C24 1_555 1_555
C26 C21 1_555 1_555
H22 C26 1_555 1_555
C27 C25 1_555 1_555
H23 C27 1_555 1_555
H24 C27 1_555 1_555
H25 C27 1_555 1_555
C28 C23 1_555 1_555
H26 C28 1_555 1_555
H27 C28 1_555 1_555
H28 C28 1_555 1_555
C1 C12 1_555 1_555
C4 C9 1_555 1_555
C8 C9 1_555 1_555
C14 C19 1_555 1_555
C18 C19 1_555 1_555
C25 C26 1_555 1_555

#END
