
#######################################################################
#
#                 Cambridge Crystallographic Data Centre
#                                CCDC 
#
#######################################################################
#
# If this CIF has been generated from an entry in the Cambridge 
# Structural Database, then it will include bibliographic, chemical, 
# crystal, experimental, refinement or atomic coordinate data resulting 
# from the CCDC's data processing and validation procedures.
#
#######################################################################

data_OJAYEF
_chemical_formula_moiety         'C56 H51 N3 S2'
_chemical_name_systematic        
3-(4-((3-hexyl-2-thienyl)ethynyl)phenyl)-N-(3-(4-((3-hexyl-2-thienyl)ethynyl)phenyl)-5-phenyl-1H-pyrrol-2-yl)-5-phenyl-2H-pyrrol-2-imine
_symmetry_cell_setting           monoclinic
_symmetry_space_group_name_H-M   'P 21/c'
_symmetry_Int_Tables_number      14
_space_group_name_Hall           '-P 2ybc'
loop_
_symmetry_equiv_pos_site_id
_symmetry_equiv_pos_as_xyz
1 x,y,z
2 -x,1/2+y,1/2-z
3 -x,-y,-z
4 x,1/2-y,1/2+z
_cell_length_a                   25.558(12)
_cell_length_b                   6.981(4)
_cell_length_c                   25.369(13)
_cell_angle_alpha                90
_cell_angle_beta                 98.803(11)
_cell_angle_gamma                90
_cell_volume                     4473.03
_exptl_crystal_colour            blue
_cell_formula_units_Z            4
_exptl_crystal_recrystallization_method 'liquid/liquid diffusion'
loop_
_atom_site_label
_atom_site_type_symbol
_atom_site_fract_x
_atom_site_fract_y
_atom_site_fract_z
N1 N -0.0034(2) 0.8160(8) 0.6222(2)
H1 H -0.0333 0.8401 0.6010
N2 N 0.0498(2) 0.7537(8) 0.5534(2)
N3 N -0.0436(2) 0.7884(8) 0.5217(2)
C1 C 0.0431(3) 0.7751(10) 0.6051(3)
C2 C 0.0821(3) 0.7488(9) 0.6510(3)
C3 C 0.0550(3) 0.7718(10) 0.6942(3)
H2 H 0.0703 0.7601 0.7306
C4 C 0.0020(3) 0.8147(10) 0.6760(3)
C5 C -0.0428(3) 0.8358(10) 0.7040(3)
C6 C -0.0422(3) 0.7535(10) 0.7540(3)
H3 H -0.0108 0.6939 0.7715
C7 C -0.0867(3) 0.7580(10) 0.7783(3)
H4 H -0.0857 0.6995 0.8122
C8 C -0.1324(3) 0.8448(11) 0.7547(3)
H5 H -0.1628 0.8483 0.7720
C9 C -0.1331(3) 0.9282(11) 0.7044(3)
H6 H -0.1645 0.9888 0.6872
C10 C -0.0893(3) 0.9234(10) 0.6798(3)
H7 H -0.0905 0.9806 0.6456
C11 C 0.1378(3) 0.7073(10) 0.6523(3)
C12 C 0.1753(3) 0.7578(11) 0.6969(3)
H8 H 0.1635 0.8244 0.7256
C13 C 0.2274(3) 0.7147(11) 0.7003(3)
H9 H 0.2514 0.7529 0.7309
C14 C 0.2461(3) 0.6135(11) 0.6589(3)
C15 C 0.2099(3) 0.5651(10) 0.6142(3)
H10 H 0.2220 0.4999 0.5855
C16 C 0.1571(3) 0.6089(10) 0.6105(3)
H11 H 0.1333 0.5728 0.5796
C17 C 0.3025(3) 0.5684(11) 0.6626(3)
C18 C 0.3459(4) 0.5415(12) 0.6679(3)
C19 C 0.4035(3) 0.5240(13) 0.6779(3)
C20 C 0.4386(3) 0.4219(12) 0.6535(3)
C21 C 0.4917(3) 0.4605(14) 0.6731(4)
H12 H 0.5206 0.3986 0.6607
C22 C 0.4973(3) 0.5975(15) 0.7120(4)
H13 H 0.5306 0.6437 0.7292
S1 S 0.43923(9) 0.6743(4) 0.72586(10)
C23 C 0.4205(4) 0.2730(12) 0.6110(3)
H14 H 0.3813 0.2737 0.6029
H15 H 0.4345 0.3061 0.5778
C24 C 0.4393(4) 0.0757(13) 0.6291(4)
H16 H 0.4209 0.0362 0.6590
H17 H 0.4776 0.0816 0.6428
C25 C 0.4299(4) -0.0748(14) 0.5857(4)
H18 H 0.4490 -0.0354 0.5564
H19 H 0.4458 -0.1966 0.6003
C26 C 0.3734(3) -0.1122(13) 0.5627(4)
H20 H 0.3589 0.0034 0.5431
H21 H 0.3529 -0.1330 0.5924
C27 C 0.3647(4) -0.2862(14) 0.5245(4)
H22 H 0.3832 -0.2630 0.4936
H23 H 0.3805 -0.4015 0.5434
C28 C 0.3074(4) -0.3224(15) 0.5052(4)
H24 H 0.2928 -0.2164 0.4822
H25 H 0.2883 -0.3322 0.5358
H26 H 0.3035 -0.4423 0.4849
C29 C 0.0093(3) 0.7618(10) 0.5149(3)
C30 C 0.0118(3) 0.7386(9) 0.4583(3)
C31 C -0.0391(3) 0.7525(10) 0.4339(3)
H27 H -0.0507 0.7420 0.3966
C32 C -0.0728(3) 0.7856(10) 0.4734(3)
C33 C -0.1292(3) 0.8118(10) 0.4666(3)
C34 C -0.1567(3) 0.8811(10) 0.4196(3)
H28 H -0.1382 0.9074 0.3907
C35 C -0.2102(3) 0.9129(11) 0.4135(3)
H29 H -0.2285 0.9609 0.3807
C36 C -0.2372(3) 0.8750(12) 0.4549(4)
H30 H -0.2741 0.8997 0.4511
C37 C -0.2111(3) 0.8011(12) 0.5024(3)
H31 H -0.2303 0.7710 0.5305
C38 C -0.1576(3) 0.7715(11) 0.5086(3)
H32 H -0.1395 0.7236 0.5415
C39 C 0.0585(3) 0.7010(9) 0.4329(3)
C40 C 0.0527(3) 0.6145(9) 0.3826(3)
H33 H 0.0183 0.5815 0.3651
C41 C 0.0964(3) 0.5763(10) 0.3578(3)
H34 H 0.0915 0.5197 0.3233
C42 C 0.1473(3) 0.6202(11) 0.3830(3)
C43 C 0.1534(3) 0.7082(11) 0.4337(3)
H35 H 0.1877 0.7410 0.4514
C44 C 0.1094(3) 0.7465(10) 0.4575(3)
H36 H 0.1140 0.8056 0.4916
C45 C 0.1946(3) 0.5747(10) 0.3576(3)
C46 C 0.2259(3) 0.5349(12) 0.3389(3)
C47 C 0.2724(4) 0.4848(12) 0.3116(3)
C48 C 0.3230(6) 0.552(3) 0.3198(11)
C49 C 0.3544(9) 0.476(4) 0.2849(16)
H37 H 0.3903 0.5124 0.2849
C50 C 0.3285(12) 0.346(7) 0.251(2)
H38 H 0.3438 0.2826 0.2235
S2 S 0.2665(12) 0.311(7) 0.2620(18)
C51 C 0.3402(6) 0.7086(16) 0.3609(6)
H39 H 0.3254 0.6802 0.3940
H40 H 0.3793 0.7075 0.3699
C52 C 0.3222(7) 0.9071(19) 0.3412(6)
H41 H 0.3415 0.9431 0.3116
H42 H 0.2840 0.9020 0.3266
C53 C 0.3310(8) 1.060(2) 0.3835(7)
H43 H 0.3122 1.1781 0.3694
H44 H 0.3152 1.0177 0.4148
C54 C 0.3874(8) 1.107(3) 0.4012(10)
H45 H 0.4041 1.1493 0.3704
H46 H 0.4065 0.9930 0.4172
C55 C 0.3904(9) 1.273(3) 0.4439(10)
H47 H 0.3689 1.3846 0.4291
H48 H 0.3767 1.2284 0.4762
C56 C 0.4466(10) 1.327(5) 0.4570(14)
H49 H 0.4604 1.3599 0.4241
H50 H 0.4667 1.2195 0.4746
H51 H 0.4500 1.4382 0.4809
S3? S 0.274(2) 0.319(11) 0.261(3)
C57? C 0.3178(9) 0.782(4) 0.3488(13)
H52? H 0.2943 0.8793 0.3290
H53? H 0.3031 0.7516 0.3817
C58? C 0.3711(9) 0.873(3) 0.3650(11)
H54? H 0.3880 0.8895 0.3327
H55? H 0.3934 0.7836 0.3891
C59? C 0.3702(12) 1.063(5) 0.3924(18)
H56? H 0.3478 1.0534 0.4208
H57? H 0.3541 1.1599 0.3663
C60? C 0.4249(11) 1.131(4) 0.4168(14)
H58? H 0.4464 1.1594 0.3885
H59? H 0.4431 1.0304 0.4404
C61? C 0.4171(12) 1.316(6) 0.450(2)
H60? H 0.3968 1.4127 0.4264
H61? H 0.3971 1.2851 0.4790
C62? C 0.4702(14) 1.395(7) 0.472(2)
H62? H 0.4954 1.2891 0.4801
H63? H 0.4676 1.4659 0.5049
H64? H 0.4824 1.4807 0.4459
C63? C 0.2724(4) 0.4848(12) 0.3116(3)
C64? C 0.3153(12) 0.602(6) 0.315(2)
C65? C 0.3534(16) 0.534(8) 0.286(3)
H65? H 0.3876 0.5888 0.2878
C66? C 0.337(2) 0.379(12) 0.255(4)
H66? H 0.3577 0.3140 0.2332
loop_
_geom_bond_atom_site_label_1
_geom_bond_atom_site_label_2
_geom_bond_site_symmetry_1
_geom_bond_site_symmetry_2
N1 H1 1_555 1_555
N2 C1 1_555 1_555
N3 C29 1_555 1_555
C1 N1 1_555 1_555
C2 C1 1_555 1_555
C3 C2 1_555 1_555
H2 C3 1_555 1_555
C4 N1 1_555 1_555
C5 C4 1_555 1_555
C6 C5 1_555 1_555
H3 C6 1_555 1_555
C7 C6 1_555 1_555
H4 C7 1_555 1_555
C8 C7 1_555 1_555
H5 C8 1_555 1_555
C9 C8 1_555 1_555
H6 C9 1_555 1_555
C10 C5 1_555 1_555
H7 C10 1_555 1_555
C11 C2 1_555 1_555
C12 C11 1_555 1_555
H8 C12 1_555 1_555
C13 C12 1_555 1_555
H9 C13 1_555 1_555
C14 C13 1_555 1_555
C15 C14 1_555 1_555
H10 C15 1_555 1_555
C16 C11 1_555 1_555
H11 C16 1_555 1_555
C17 C14 1_555 1_555
C18 C17 1_555 1_555
C19 C18 1_555 1_555
C20 C19 1_555 1_555
C21 C20 1_555 1_555
H12 C21 1_555 1_555
C22 C21 1_555 1_555
H13 C22 1_555 1_555
S1 C19 1_555 1_555
C23 C20 1_555 1_555
H14 C23 1_555 1_555
H15 C23 1_555 1_555
C24 C23 1_555 1_555
H16 C24 1_555 1_555
H17 C24 1_555 1_555
C25 C24 1_555 1_555
H18 C25 1_555 1_555
H19 C25 1_555 1_555
C26 C25 1_555 1_555
H20 C26 1_555 1_555
H21 C26 1_555 1_555
C27 C26 1_555 1_555
H22 C27 1_555 1_555
H23 C27 1_555 1_555
C28 C27 1_555 1_555
H24 C28 1_555 1_555
H25 C28 1_555 1_555
H26 C28 1_555 1_555
C29 N2 1_555 1_555
C30 C29 1_555 1_555
C31 C30 1_555 1_555
H27 C31 1_555 1_555
C32 N3 1_555 1_555
C33 C32 1_555 1_555
C34 C33 1_555 1_555
H28 C34 1_555 1_555
C35 C34 1_555 1_555
H29 C35 1_555 1_555
C36 C35 1_555 1_555
H30 C36 1_555 1_555
C37 C36 1_555 1_555
H31 C37 1_555 1_555
C38 C33 1_555 1_555
H32 C38 1_555 1_555
C39 C30 1_555 1_555
C40 C39 1_555 1_555
H33 C40 1_555 1_555
C41 C40 1_555 1_555
H34 C41 1_555 1_555
C42 C41 1_555 1_555
C43 C42 1_555 1_555
H35 C43 1_555 1_555
C44 C39 1_555 1_555
H36 C44 1_555 1_555
C45 C42 1_555 1_555
C46 C45 1_555 1_555
C47 C46 1_555 1_555
C48 C47 1_555 1_555
C49 C48 1_555 1_555
H37 C49 1_555 1_555
C50 C49 1_555 1_555
H38 C50 1_555 1_555
S2 C47 1_555 1_555
C51 C48 1_555 1_555
H39 C51 1_555 1_555
H40 C51 1_555 1_555
C52 C51 1_555 1_555
H41 C52 1_555 1_555
H42 C52 1_555 1_555
C53 C52 1_555 1_555
H43 C53 1_555 1_555
H44 C53 1_555 1_555
C54 C53 1_555 1_555
H45 C54 1_555 1_555
H46 C54 1_555 1_555
C55 C54 1_555 1_555
H47 C55 1_555 1_555
H48 C55 1_555 1_555
C56 C55 1_555 1_555
H49 C56 1_555 1_555
H50 C56 1_555 1_555
H51 C56 1_555 1_555
C3 C4 1_555 1_555
C9 C10 1_555 1_555
C15 C16 1_555 1_555
C22 S1 1_555 1_555
C31 C32 1_555 1_555
C37 C38 1_555 1_555
C43 C44 1_555 1_555
C50 S2 1_555 1_555

#END
