
#######################################################################
#
#                 Cambridge Crystallographic Data Centre
#                                CCDC 
#
#######################################################################
#
# If this CIF has been generated from an entry in the Cambridge 
# Structural Database, then it will include bibliographic, chemical, 
# crystal, experimental, refinement or atomic coordinate data resulting 
# from the CCDC's data processing and validation procedures.
#
#######################################################################

data_OJECIR
_chemical_formula_moiety         'C8 H12 N2 O4'
_chemical_name_systematic        
7-hydroxy-3-(hydroxymethyl)hexahydropyrrolo[1,2-a]pyrazine-1,4-dione
_symmetry_cell_setting           orthorhombic
_symmetry_space_group_name_H-M   'P 21 21 21'
_symmetry_Int_Tables_number      19
_space_group_name_Hall           'P 2ac 2ab'
loop_
_symmetry_equiv_pos_site_id
_symmetry_equiv_pos_as_xyz
1 x,y,z
2 1/2+x,1/2-y,-z
3 -x,1/2+y,1/2-z
4 1/2-x,-y,1/2+z
_cell_length_a                   6.0437(2)
_cell_length_b                   9.6163(3)
_cell_length_c                   14.8457(4)
_cell_angle_alpha                90
_cell_angle_beta                 90
_cell_angle_gamma                90
_cell_volume                     862.803
_exptl_crystal_colour            colorless
_chemical_melting_point          '536.15-538.15 K'
_cell_formula_units_Z            4
_exptl_crystal_recrystallization_method water
loop_
_atom_site_label
_atom_site_type_symbol
_atom_site_fract_x
_atom_site_fract_y
_atom_site_fract_z
O1 O 0.21190(15) 0.09090(8) 0.76656(5)
H1 H 0.3252 0.0805 0.7369
O2 O -0.25685(12) 0.67203(7) 0.97772(5)
H2 H -0.3521 0.6339 0.9472
O3 O 0.43251(12) 0.57889(8) 0.85661(5)
O4 O -0.31452(12) 0.33255(8) 0.95731(5)
N1 N -0.00501(13) 0.33007(9) 0.87235(5)
N2 N 0.16739(13) 0.55132(8) 0.96224(5)
H3 H 0.2009 0.6315 0.9841
C1 C 0.10387(18) 0.21536(10) 0.73921(7)
H4 H 0.0556 0.2098 0.6763
C2 C -0.09202(18) 0.23826(12) 0.80244(8)
H5 H -0.2145 0.2817 0.7709
H6 H -0.1419 0.1509 0.8280
C3 C -0.12429(15) 0.37211(9) 0.94285(6)
C4 C -0.01134(15) 0.47455(9) 1.00627(6)
H7 H 0.0521 0.4219 1.0565
C5 C -0.17842(17) 0.57766(10) 1.04446(6)
H8 H -0.3028 0.5269 1.0695
H9 H -0.1098 0.6298 1.0929
C6 C 0.22746(14) 0.36462(9) 0.85682(6)
H10 H 0.3205 0.2964 0.8879
C7 C 0.24961(17) 0.34322(10) 0.75516(6)
H11 H 0.4020 0.3254 0.7381
H12 H 0.1953 0.4232 0.7220
C8 C 0.28250(14) 0.50770(9) 0.89135(6)
loop_
_geom_bond_atom_site_label_1
_geom_bond_atom_site_label_2
_geom_bond_site_symmetry_1
_geom_bond_site_symmetry_2
O1 H1 1_555 1_555
O2 H2 1_555 1_555
O3 C8 1_555 1_555
O4 C3 1_555 1_555
N1 C2 1_555 1_555
N2 H3 1_555 1_555
C1 O1 1_555 1_555
H4 C1 1_555 1_555
C2 C1 1_555 1_555
H5 C2 1_555 1_555
H6 C2 1_555 1_555
C3 N1 1_555 1_555
C4 N2 1_555 1_555
H7 C4 1_555 1_555
C5 O2 1_555 1_555
H8 C5 1_555 1_555
H9 C5 1_555 1_555
C6 N1 1_555 1_555
H10 C6 1_555 1_555
C7 C1 1_555 1_555
H11 C7 1_555 1_555
H12 C7 1_555 1_555
C8 N2 1_555 1_555
C3 C4 1_555 1_555
C4 C5 1_555 1_555
C6 C7 1_555 1_555
C6 C8 1_555 1_555

#END
