
#######################################################################
#
#                 Cambridge Crystallographic Data Centre
#                                CCDC 
#
#######################################################################
#
# If this CIF has been generated from an entry in the Cambridge 
# Structural Database, then it will include bibliographic, chemical, 
# crystal, experimental, refinement or atomic coordinate data resulting 
# from the CCDC's data processing and validation procedures.
#
#######################################################################

data_OJEGOB
_chemical_formula_moiety         'C48 H36 N4 O5,0.79(C2 H6 O1),0.8(C1 H1 Cl3)'
_chemical_name_systematic        
'32,34-diethoxy-2,30-diphenyl-33-oxa-16,35,36,37-tetraazaoctacyclo[29.3.1.1^3,6^.1^26,29^.0^7,15^.0^8,13^.0^17,25^.0^19,24^]heptatriaconta-1(35),2,4,6,8,10,12,15,17(25),19,21,23,26,28,30-pentadecaene-14,18-dione ethanol chloroform solvate'
_symmetry_cell_setting           triclinic
_symmetry_space_group_name_H-M   'P -1'
_symmetry_Int_Tables_number      2
_space_group_name_Hall           '-P 1'
loop_
_symmetry_equiv_pos_site_id
_symmetry_equiv_pos_as_xyz
1 x,y,z
2 -x,-y,-z
_cell_length_a                   12.353(5)
_cell_length_b                   13.508(6)
_cell_length_c                   14.520(5)
_cell_angle_alpha                89.688(8)
_cell_angle_beta                 88.590(8)
_cell_angle_gamma                65.895(7)
_cell_volume                     2210.89
_exptl_crystal_colour            black
_exptl_crystal_description       block
_cell_formula_units_Z            2
loop_
_atom_site_label
_atom_site_type_symbol
_atom_site_fract_x
_atom_site_fract_y
_atom_site_fract_z
C1 C 0.0572(10) 0.3511(10) 0.7056(8)
H1 H 0.0749 0.4169 0.7100
Cl1 Cl -0.0247(2) 0.3459(2) 0.7986(2)
Cl2 Cl 0.1933(5) 0.2319(3) 0.7058(4)
Cl3 Cl -0.0150(4) 0.3539(3) 0.5991(3)
O1 O 0.0111(3) 0.6008(3) 0.7238(3)
H2 H 0.0316 0.6259 0.6768
C2 C -0.1149(5) 0.6500(5) 0.7346(4)
H3 H -0.1514 0.6127 0.6955
H4 H -0.1460 0.7273 0.7168
C3 C -0.1426(6) 0.6394(6) 0.8353(4)
H5 H -0.1158 0.6850 0.8725
H6 H -0.1017 0.5635 0.8541
H7 H -0.2284 0.6627 0.8445
O2 O 0.0981(2) 0.6989(2) 0.59079(18)
O3 O 0.5873(2) 0.7683(2) 0.13556(16)
O4 O 0.4453(2) 0.8821(2) 0.03811(15)
O5 O 0.3363(2) 0.6372(2) 0.64230(16)
N1 N 0.2648(3) 0.7342(2) 0.45444(18)
N2 N 0.2848(3) 0.9270(2) 0.38965(19)
H8 H 0.2935 0.8642 0.3662
N3 N 0.3571(3) 0.8273(2) 0.20770(18)
N4 N 0.3322(3) 0.6374(2) 0.27310(18)
H9 H 0.3320 0.6964 0.2987
C4 C 0.1936(3) 0.8057(3) 0.5170(2)
C5 C 0.1153(3) 0.7816(3) 0.5874(2)
C6 C 0.0563(3) 0.8808(3) 0.6419(2)
C7 C 0.0847(3) 0.9626(3) 0.6035(2)
C8 C 0.1684(3) 0.9167(3) 0.5235(2)
C9 C 0.2203(3) 0.9715(3) 0.4688(2)
C10 C 0.2273(4) 1.0727(3) 0.4808(2)
H10 H 0.1898 1.1237 0.5288
C11 C 0.2983(3) 1.0840(3) 0.4105(2)
H11 H 0.3197 1.1436 0.4028
C12 C 0.3339(3) 0.9927(3) 0.3518(2)
C13 C 0.4045(3) 0.9716(3) 0.2700(2)
C14 C 0.4142(3) 0.8947(3) 0.2038(2)
C15 C 0.5010(3) 0.8746(3) 0.1230(2)
H12 H 0.5387 0.9274 0.1249
C16 C 0.3452(3) 0.8571(3) 0.0412(2)
H13 H 0.3480 0.8137 -0.0151
C17 C 0.3419(3) 0.7904(3) 0.1251(2)
C18 C 0.3179(3) 0.6991(3) 0.1116(2)
C19 C 0.3215(3) 0.6249(3) 0.1810(2)
C20 C 0.3237(4) 0.5199(3) 0.1696(2)
H14 H 0.3151 0.4891 0.1131
C21 C 0.3402(3) 0.4705(3) 0.2536(2)
H15 H 0.3483 0.3985 0.2652
C22 C 0.3432(3) 0.5457(3) 0.3204(2)
C23 C 0.3479(3) 0.5396(3) 0.4164(2)
C24 C 0.3834(3) 0.4393(3) 0.4720(2)
C25 C 0.3736(3) 0.4680(3) 0.5664(2)
C26 C 0.3363(3) 0.5856(3) 0.5746(2)
C27 C 0.3098(3) 0.6297(3) 0.4772(2)
C28 C -0.0177(3) 0.8979(4) 0.7183(3)
H16 H -0.0353 0.8408 0.7433
C29 C -0.0657(4) 1.0002(4) 0.7575(3)
H17 H -0.1157 1.0140 0.8109
C30 C -0.0408(4) 1.0824(4) 0.7190(3)
H18 H -0.0753 1.1525 0.7463
C31 C 0.0335(3) 1.0658(3) 0.6411(3)
H19 H 0.0483 1.1237 0.6148
C32 C 0.4680(3) 1.0446(3) 0.2563(2)
C33 C 0.5588(4) 1.0371(3) 0.3134(3)
H20 H 0.5817 0.9846 0.3611
C34 C 0.6163(4) 1.1044(4) 0.3019(3)
H21 H 0.6795 1.0972 0.3411
C35 C 0.5835(4) 1.1822(4) 0.2345(3)
H22 H 0.6220 1.2301 0.2280
C36 C 0.4939(4) 1.1898(3) 0.1762(3)
H23 H 0.4719 1.2422 0.1285
C37 C 0.4360(4) 1.1221(3) 0.1867(2)
H24 H 0.3741 1.1282 0.1464
C38 C 0.6885(4) 0.7412(4) 0.0748(3)
H25 H 0.7358 0.7819 0.0926
H26 H 0.6627 0.7607 0.0107
C39 C 0.7619(4) 0.6217(4) 0.0814(3)
H27 H 0.7809 0.6022 0.1460
H28 H 0.8356 0.6026 0.0450
H29 H 0.7173 0.5821 0.0577
O6 O 0.2364(9) 0.9483(7) 0.0434(7)
C40 C 0.2156(10) 0.9977(8) -0.0480(7)
H30 H 0.2066 0.9479 -0.0940
H31 H 0.2820 1.0166 -0.0680
C41 C 0.1014(6) 1.0989(6) -0.0361(5)
H32 H 0.1112 1.1455 0.0117
H33 H 0.0366 1.0782 -0.0177
H34 H 0.0826 1.1385 -0.0944
C42 C 0.2901(3) 0.6727(3) 0.0177(2)
C43 C 0.3786(4) 0.6192(3) -0.0481(2)
H35 H 0.4595 0.5968 -0.0330
C44 C 0.3498(4) 0.5982(4) -0.1351(3)
H36 H 0.4111 0.5623 -0.1795
C45 C 0.2340(5) 0.6289(4) -0.1576(3)
H37 H 0.2145 0.6155 -0.2178
C46 C 0.1458(5) 0.6791(5) -0.0928(3)
H38 H 0.0652 0.6987 -0.1074
C47 C 0.1749(4) 0.7011(4) -0.0056(3)
H39 H 0.1134 0.7366 0.0386
C48 C 0.4253(3) 0.3312(3) 0.4481(2)
H40 H 0.4352 0.3100 0.3851
C49 C 0.4529(3) 0.2535(3) 0.5170(3)
H41 H 0.4820 0.1790 0.5005
C50 C 0.4387(3) 0.2828(3) 0.6095(2)
H42 H 0.4552 0.2286 0.6555
C51 C 0.4004(3) 0.3914(3) 0.6352(2)
H43 H 0.3930 0.4120 0.6983
H44? H 0.3376 0.8218 -0.0172
O7? O 0.248(2) 0.9603(16) 0.0551(15)
C52? C 0.215(2) 1.0360(16) -0.0212(13)
H45? H 0.2871 1.0336 -0.0540
H46? H 0.1704 1.1106 0.0028
C53? C 0.1382(15) 1.0087(15) -0.0883(10)
H47? H 0.0585 1.0292 -0.0610
H48? H 0.1738 0.9306 -0.1012
H49? H 0.1328 1.0486 -0.1457
C54? C 0.021(2) 0.463(3) 0.5744(18)
H50? H -0.0107 0.4061 0.5675
Cl4? Cl 0.118(2) 0.427(3) 0.6599(17)
Cl5? Cl 0.095(2) 0.471(2) 0.4693(15)
Cl6? Cl -0.101(2) 0.591(3) 0.600(2)
C55? C 0.0786(18) 0.3687(18) 0.6463(14)
H51? H 0.0740 0.4360 0.6779
Cl7? Cl -0.0598(4) 0.3723(5) 0.6489(4)
Cl8? Cl 0.1288(3) 0.3733(3) 0.5300(3)
Cl9? Cl 0.1844(9) 0.2642(6) 0.6971(7)
loop_
_geom_bond_atom_site_label_1
_geom_bond_atom_site_label_2
_geom_bond_site_symmetry_1
_geom_bond_site_symmetry_2
C1 H1 1_555 1_555
Cl1 C1 1_555 1_555
Cl2 C1 1_555 1_555
Cl3 C1 1_555 1_555
O1 H2 1_555 1_555
C2 O1 1_555 1_555
H3 C2 1_555 1_555
H4 C2 1_555 1_555
C3 C2 1_555 1_555
H5 C3 1_555 1_555
H6 C3 1_555 1_555
H7 C3 1_555 1_555
O2 C5 1_555 1_555
O3 C15 1_555 1_555
O4 C15 1_555 1_555
O5 C26 1_555 1_555
N1 C4 1_555 1_555
N2 H8 1_555 1_555
N3 C14 1_555 1_555
N4 H9 1_555 1_555
C4 C5 1_555 1_555
C5 C6 1_555 1_555
C6 C7 1_555 1_555
C7 C8 1_555 1_555
C8 C4 1_555 1_555
C9 N2 1_555 1_555
C10 C9 1_555 1_555
H10 C10 1_555 1_555
C11 C10 1_555 1_555
H11 C11 1_555 1_555
C12 N2 1_555 1_555
C13 C12 1_555 1_555
C14 C13 1_555 1_555
C15 C14 1_555 1_555
H12 C15 1_555 1_555
C16 O4 1_555 1_555
H13 C16 1_555 1_555
C17 N3 1_555 1_555
C18 C17 1_555 1_555
C19 N4 1_555 1_555
C20 C19 1_555 1_555
H14 C20 1_555 1_555
C21 C20 1_555 1_555
H15 C21 1_555 1_555
C22 N4 1_555 1_555
C23 C22 1_555 1_555
C24 C23 1_555 1_555
C25 C24 1_555 1_555
C26 C25 1_555 1_555
C27 N1 1_555 1_555
C28 C6 1_555 1_555
H16 C28 1_555 1_555
C29 C28 1_555 1_555
H17 C29 1_555 1_555
C30 C29 1_555 1_555
H18 C30 1_555 1_555
C31 C7 1_555 1_555
H19 C31 1_555 1_555
C32 C13 1_555 1_555
C33 C32 1_555 1_555
H20 C33 1_555 1_555
C34 C33 1_555 1_555
H21 C34 1_555 1_555
C35 C34 1_555 1_555
H22 C35 1_555 1_555
C36 C35 1_555 1_555
H23 C36 1_555 1_555
C37 C32 1_555 1_555
H24 C37 1_555 1_555
C38 O3 1_555 1_555
H25 C38 1_555 1_555
H26 C38 1_555 1_555
C39 C38 1_555 1_555
H27 C39 1_555 1_555
H28 C39 1_555 1_555
H29 C39 1_555 1_555
O6 C16 1_555 1_555
C40 O6 1_555 1_555
H30 C40 1_555 1_555
H31 C40 1_555 1_555
C41 C40 1_555 1_555
H32 C41 1_555 1_555
H33 C41 1_555 1_555
H34 C41 1_555 1_555
C42 C18 1_555 1_555
C43 C42 1_555 1_555
H35 C43 1_555 1_555
C44 C43 1_555 1_555
H36 C44 1_555 1_555
C45 C44 1_555 1_555
H37 C45 1_555 1_555
C46 C45 1_555 1_555
H38 C46 1_555 1_555
C47 C42 1_555 1_555
H39 C47 1_555 1_555
C48 C24 1_555 1_555
H40 C48 1_555 1_555
C49 C48 1_555 1_555
H41 C49 1_555 1_555
C50 C49 1_555 1_555
H42 C50 1_555 1_555
C51 C25 1_555 1_555
H43 C51 1_555 1_555
C8 C9 1_555 1_555
C11 C12 1_555 1_555
C16 C17 1_555 1_555
C18 C19 1_555 1_555
C21 C22 1_555 1_555
C23 C27 1_555 1_555
C26 C27 1_555 1_555
C30 C31 1_555 1_555
C36 C37 1_555 1_555
C46 C47 1_555 1_555
C50 C51 1_555 1_555

#END
