
#######################################################################
#
#                 Cambridge Crystallographic Data Centre
#                                CCDC 
#
#######################################################################
#
# If this CIF has been generated from an entry in the Cambridge 
# Structural Database, then it will include bibliographic, chemical, 
# crystal, experimental, refinement or atomic coordinate data resulting 
# from the CCDC's data processing and validation procedures.
#
#######################################################################

data_OJEKAQ
_chemical_formula_moiety         'C32 H51 O2 P1'
_chemical_name_systematic        
2,2'-(t-Butylphosphinediyl)bis(4,6-di-t-butylphenol)
_symmetry_cell_setting           orthorhombic
_symmetry_space_group_name_H-M   'P 21 21 21'
_symmetry_Int_Tables_number      19
_space_group_name_Hall           'P 2ac 2ab'
loop_
_symmetry_equiv_pos_site_id
_symmetry_equiv_pos_as_xyz
1 x,y,z
2 1/2-x,-y,1/2+z
3 -x,1/2+y,1/2-z
4 1/2+x,1/2-y,-z
_cell_length_a                   14.0289(8)
_cell_length_b                   14.5112(8)
_cell_length_c                   14.9869(8)
_cell_angle_alpha                90
_cell_angle_beta                 90
_cell_angle_gamma                90
_cell_volume                     3050.98
_exptl_crystal_colour            'pale yellow'
_exptl_crystal_description       prism
_cell_formula_units_Z            4
loop_
_atom_site_label
_atom_site_type_symbol
_atom_site_fract_x
_atom_site_fract_y
_atom_site_fract_z
C1 C 0.4010(3) 0.0504(3) 0.8256(2)
C2 C 0.4107(3) 0.1005(3) 0.9053(2)
C3 C 0.3469(3) 0.1721(3) 0.9273(2)
C4 C 0.3594(3) 0.2287(3) 1.0136(3)
C5 C 0.3582(4) 0.1653(3) 1.0953(3)
H1 H 0.3672 0.2022 1.1495
H2 H 0.4098 0.1201 1.0903
H3 H 0.2969 0.1332 1.0984
C6 C 0.2805(4) 0.3000(4) 1.0249(3)
H4 H 0.2911 0.3347 1.0801
H5 H 0.2187 0.2687 1.0279
H6 H 0.2811 0.3423 0.9740
C7 C 0.4554(4) 0.2801(4) 1.0100(3)
H7 H 0.4641 0.3157 1.0649
H8 H 0.4559 0.3218 0.9586
H9 H 0.5074 0.2353 1.0041
C8 C 0.2744(3) 0.1909(3) 0.8663(2)
H10 H 0.2317 0.2399 0.8795
C9 C 0.2606(3) 0.1421(3) 0.7868(2)
C10 C 0.1834(3) 0.1688(3) 0.7194(2)
C11 C 0.0965(3) 0.2124(3) 0.7652(3)
H11 H 0.0487 0.2285 0.7201
H12 H 0.1163 0.2683 0.7970
H13 H 0.0691 0.1684 0.8076
C12 C 0.2245(3) 0.2386(4) 0.6532(3)
H14 H 0.1752 0.2561 0.6101
H15 H 0.2786 0.2109 0.6217
H16 H 0.2460 0.2935 0.6856
C13 C 0.1480(3) 0.0845(4) 0.6663(3)
H17 H 0.0985 0.1039 0.6242
H18 H 0.1217 0.0388 0.7076
H19 H 0.2014 0.0573 0.6334
C14 C 0.3257(3) 0.0727(3) 0.7685(2)
H20 H 0.3188 0.0388 0.7147
C15 C 0.5454(3) -0.0063(3) 0.6976(2)
C16 C 0.6438(3) 0.0084(3) 0.6957(2)
C17 C 0.6912(3) 0.0397(3) 0.6186(2)
C18 C 0.7993(3) 0.0587(3) 0.6182(3)
C19 C 0.8231(3) 0.1340(3) 0.6865(3)
H21 H 0.7873 0.1900 0.6722
H22 H 0.8916 0.1472 0.6846
H23 H 0.8057 0.1127 0.7464
C20 C 0.8551(3) -0.0297(3) 0.6405(3)
H24 H 0.8402 -0.0774 0.5964
H25 H 0.8369 -0.0513 0.7001
H26 H 0.9236 -0.0166 0.6393
C21 C 0.8334(3) 0.0919(4) 0.5267(3)
H27 H 0.8001 0.1489 0.5109
H28 H 0.8199 0.0445 0.4819
H29 H 0.9022 0.1035 0.5288
C22 C 0.6343(3) 0.0556(3) 0.5437(2)
H30 H 0.6644 0.0781 0.4913
C23 C 0.5356(3) 0.0403(3) 0.5410(2)
C24 C 0.4771(3) 0.0606(3) 0.4563(2)
C25 C 0.5335(3) 0.0376(3) 0.3711(2)
H31 H 0.5490 -0.0283 0.3706
H32 H 0.5926 0.0736 0.3700
H33 H 0.4949 0.0527 0.3186
C26 C 0.4534(4) 0.1637(3) 0.4560(3)
H34 H 0.5127 0.1995 0.4568
H35 H 0.4153 0.1788 0.5088
H36 H 0.4171 0.1788 0.4021
C27 C 0.3829(3) 0.0068(4) 0.4555(3)
H37 H 0.3963 -0.0594 0.4553
H38 H 0.3465 0.0230 0.4019
H39 H 0.3457 0.0226 0.5087
C28 C 0.4931(3) 0.0101(3) 0.6188(2)
H40 H 0.4261 0.0000 0.6193
C29 C 0.4340(3) -0.1514(3) 0.7985(3)
C30 C 0.5145(3) -0.2218(3) 0.7870(3)
H41 H 0.5615 -0.2135 0.8346
H42 H 0.5453 -0.2125 0.7289
H43 H 0.4882 -0.2842 0.7899
C31 C 0.3859(3) -0.1672(4) 0.8892(3)
H44 H 0.4329 -0.1593 0.9369
H45 H 0.3599 -0.2299 0.8915
H46 H 0.3341 -0.1226 0.8970
C32 C 0.3611(3) -0.1642(3) 0.7243(3)
H47 H 0.3920 -0.1545 0.6663
H48 H 0.3094 -0.1194 0.7317
H49 H 0.3351 -0.2268 0.7269
O1 O 0.4839(2) 0.0822(2) 0.96360(17)
H50 H 0.5093 0.0195 0.9277
O2 O 0.69796(19) -0.0068(2) 0.77132(16)
H51 H 0.6422 -0.0089 0.8116
P1 P 0.49326(7) -0.03649(8) 0.80576(6)
loop_
_geom_bond_atom_site_label_1
_geom_bond_atom_site_label_2
_geom_bond_site_symmetry_1
_geom_bond_site_symmetry_2
C1 C2 1_555 1_555
C2 C3 1_555 1_555
C3 C4 1_555 1_555
C4 C5 1_555 1_555
C5 H1 1_555 1_555
H2 C5 1_555 1_555
H3 C5 1_555 1_555
C6 C4 1_555 1_555
H4 C6 1_555 1_555
H5 C6 1_555 1_555
H6 C6 1_555 1_555
C7 C4 1_555 1_555
H7 C7 1_555 1_555
H8 C7 1_555 1_555
H9 C7 1_555 1_555
C8 C3 1_555 1_555
H10 C8 1_555 1_555
C9 C8 1_555 1_555
C10 C9 1_555 1_555
C11 C10 1_555 1_555
H11 C11 1_555 1_555
H12 C11 1_555 1_555
H13 C11 1_555 1_555
C12 C10 1_555 1_555
H14 C12 1_555 1_555
H15 C12 1_555 1_555
H16 C12 1_555 1_555
C13 C10 1_555 1_555
H17 C13 1_555 1_555
H18 C13 1_555 1_555
H19 C13 1_555 1_555
C14 C1 1_555 1_555
H20 C14 1_555 1_555
C15 C16 1_555 1_555
C16 C17 1_555 1_555
C17 C18 1_555 1_555
C18 C19 1_555 1_555
C19 H21 1_555 1_555
H22 C19 1_555 1_555
H23 C19 1_555 1_555
C20 C18 1_555 1_555
H24 C20 1_555 1_555
H25 C20 1_555 1_555
H26 C20 1_555 1_555
C21 C18 1_555 1_555
H27 C21 1_555 1_555
H28 C21 1_555 1_555
H29 C21 1_555 1_555
C22 C17 1_555 1_555
H30 C22 1_555 1_555
C23 C22 1_555 1_555
C24 C23 1_555 1_555
C25 C24 1_555 1_555
H31 C25 1_555 1_555
H32 C25 1_555 1_555
H33 C25 1_555 1_555
C26 C24 1_555 1_555
H34 C26 1_555 1_555
H35 C26 1_555 1_555
H36 C26 1_555 1_555
C27 C24 1_555 1_555
H37 C27 1_555 1_555
H38 C27 1_555 1_555
H39 C27 1_555 1_555
C28 C15 1_555 1_555
H40 C28 1_555 1_555
C29 C30 1_555 1_555
C30 H41 1_555 1_555
H42 C30 1_555 1_555
H43 C30 1_555 1_555
C31 C29 1_555 1_555
H44 C31 1_555 1_555
H45 C31 1_555 1_555
H46 C31 1_555 1_555
C32 C29 1_555 1_555
H47 C32 1_555 1_555
H48 C32 1_555 1_555
H49 C32 1_555 1_555
O1 C2 1_555 1_555
H50 O1 1_555 1_555
O2 C16 1_555 1_555
H51 O2 1_555 1_555
P1 C1 1_555 1_555
C9 C14 1_555 1_555
C15 P1 1_555 1_555
C23 C28 1_555 1_555
C29 P1 1_555 1_555

#END
