
#######################################################################
#
#                 Cambridge Crystallographic Data Centre
#                                CCDC 
#
#######################################################################
#
# If this CIF has been generated from an entry in the Cambridge 
# Structural Database, then it will include bibliographic, chemical, 
# crystal, experimental, refinement or atomic coordinate data resulting 
# from the CCDC's data processing and validation procedures.
#
#######################################################################

data_OJEMAT
_chemical_formula_moiety         'C33 H24 N2 O1'
_chemical_name_systematic        
4-(2-(4-(1,3-benzoxazol-2-yl)phenyl)vinyl)-N,N-diphenylaniline
_symmetry_cell_setting           monoclinic
_symmetry_space_group_name_H-M   'C 2/c'
_symmetry_Int_Tables_number      15
_space_group_name_Hall           '-C 2yn'
loop_
_symmetry_equiv_pos_site_id
_symmetry_equiv_pos_as_xyz
1 x,y,z
2 -x,y,1/2-z
3 1/2+x,1/2+y,z
4 1/2-x,1/2+y,1/2-z
5 -x,-y,-z
6 x,-y,1/2+z
7 1/2-x,1/2-y,-z
8 1/2+x,1/2-y,1/2+z
_cell_length_a                   53.673(5)
_cell_length_b                   6.5539(6)
_cell_length_c                   14.3225(14)
_cell_angle_alpha                90
_cell_angle_beta                 103.8430(10)
_cell_angle_gamma                90
_cell_volume                     4891.86
_cell_formula_units_Z            8
loop_
_atom_site_label
_atom_site_type_symbol
_atom_site_fract_x
_atom_site_fract_y
_atom_site_fract_z
O1 O 0.46672(2) -0.20590(19) 0.15289(8)
C1 C 0.49413(3) 0.0656(3) 0.12359(12)
N1 N 0.44934(3) 0.1088(2) 0.13667(11)
N2 N 0.67511(3) 0.6632(3) 0.02976(13)
C2 C 0.57541(3) 0.4330(3) 0.06594(14)
H1 H 0.5633 0.5370 0.0553
C3 C 0.51371(3) -0.0733(3) 0.12627(12)
H2 H 0.5109 -0.2109 0.1358
C4 C 0.52226(3) 0.3332(3) 0.09733(13)
H3 H 0.5250 0.4708 0.0872
C5 C 0.44225(3) -0.2227(3) 0.16663(12)
C6 C 0.54217(3) 0.1942(3) 0.09964(12)
C7 C 0.46940(3) -0.0007(3) 0.13648(12)
C8 C 0.49883(3) 0.2713(3) 0.10960(13)
H4 H 0.4860 0.3672 0.1086
C9 C 0.43149(3) -0.0300(3) 0.15658(13)
C10 C 0.53726(3) -0.0098(3) 0.11493(13)
H5 H 0.5502 -0.1057 0.1175
C11 C 0.65053(3) 0.6000(3) 0.03986(15)
C12 C 0.60103(3) 0.4873(3) 0.05603(13)
C13 C 0.61984(3) 0.3433(3) 0.05388(15)
H6 H 0.6160 0.2057 0.0581
C14 C 0.40697(4) -0.0021(3) 0.16986(15)
H7 H 0.3992 0.1257 0.1636
C15 C 0.43023(4) -0.3954(3) 0.18880(14)
H8 H 0.4379 -0.5234 0.1942
C16 C 0.56758(3) 0.2531(3) 0.08827(13)
H9 H 0.5798 0.1498 0.0981
C17 C 0.63192(3) 0.7445(3) 0.04063(16)
H10 H 0.6358 0.8820 0.0364
C18 C 0.69790(3) 0.5669(3) 0.07973(18)
C19 C 0.67571(3) 0.8032(3) -0.04620(17)
C20 C 0.64402(4) 0.3980(3) 0.04569(16)
H11 H 0.6561 0.2971 0.0441
C21 C 0.39454(4) -0.1735(4) 0.19293(15)
H12 H 0.3781 -0.1598 0.2023
C22 C 0.68903(4) 0.9848(4) -0.0281(2)
H13 H 0.6976 1.0194 0.0342
C23 C 0.60767(3) 0.6884(3) 0.04753(15)
H14 H 0.5954 0.7893 0.0464
C24 C 0.71955(4) 0.5650(4) 0.0426(2)
H15 H 0.7191 0.6280 -0.0159
C25 C 0.40591(4) -0.3642(3) 0.20242(15)
H16 H 0.3969 -0.4747 0.2185
C26 C 0.66287(4) 0.7571(4) -0.13898(18)
H17 H 0.6538 0.6354 -0.1518
C27 C 0.69933(4) 0.4736(4) 0.16725(19)
H18 H 0.6852 0.4767 0.1942
C28 C 0.68940(5) 1.1163(4) -0.1049(3)
H19 H 0.6985 1.2382 -0.0934
C29 C 0.66337(5) 0.8903(5) -0.2132(2)
H20 H 0.6545 0.8579 -0.2755
C30 C 0.67664(6) 1.0677(5) -0.1960(3)
H21 H 0.6770 1.1561 -0.2465
C31 C 0.72147(5) 0.3755(4) 0.2154(2)
H22 H 0.7220 0.3101 0.2734
C32 C 0.74165(5) 0.4700(5) 0.0922(3)
H23 H 0.7561 0.4710 0.0671
C33 C 0.74266(5) 0.3744(5) 0.1777(3)
H24 H 0.7576 0.3090 0.2102
loop_
_geom_bond_atom_site_label_1
_geom_bond_atom_site_label_2
_geom_bond_site_symmetry_1
_geom_bond_site_symmetry_2
O1 C5 1_555 1_555
C1 C3 1_555 1_555
N1 C7 1_555 1_555
N2 C11 1_555 1_555
C2 H1 1_555 1_555
C3 H2 1_555 1_555
C4 H3 1_555 1_555
C5 C9 1_555 1_555
C6 C4 1_555 1_555
C7 O1 1_555 1_555
C8 C1 1_555 1_555
H4 C8 1_555 1_555
C9 N1 1_555 1_555
C10 C3 1_555 1_555
H5 C10 1_555 1_555
C11 C17 1_555 1_555
C12 C2 1_555 1_555
C13 C12 1_555 1_555
H6 C13 1_555 1_555
C14 C9 1_555 1_555
H7 C14 1_555 1_555
C15 C5 1_555 1_555
H8 C15 1_555 1_555
C16 C2 1_555 1_555
H9 C16 1_555 1_555
C17 H10 1_555 1_555
C18 N2 1_555 1_555
C19 N2 1_555 1_555
C20 C11 1_555 1_555
H11 C20 1_555 1_555
C21 C14 1_555 1_555
H12 C21 1_555 1_555
C22 C19 1_555 1_555
H13 C22 1_555 1_555
C23 C12 1_555 1_555
H14 C23 1_555 1_555
C24 C18 1_555 1_555
H15 C24 1_555 1_555
C25 C15 1_555 1_555
H16 C25 1_555 1_555
C26 C19 1_555 1_555
H17 C26 1_555 1_555
C27 C18 1_555 1_555
H18 C27 1_555 1_555
C28 C22 1_555 1_555
H19 C28 1_555 1_555
C29 C26 1_555 1_555
H20 C29 1_555 1_555
C30 C28 1_555 1_555
H21 C30 1_555 1_555
C31 C27 1_555 1_555
H22 C31 1_555 1_555
C32 C24 1_555 1_555
H23 C32 1_555 1_555
C33 C31 1_555 1_555
H24 C33 1_555 1_555
C1 C7 1_555 1_555
C4 C8 1_555 1_555
C6 C10 1_555 1_555
C6 C16 1_555 1_555
C13 C20 1_555 1_555
C17 C23 1_555 1_555
C21 C25 1_555 1_555
C29 C30 1_555 1_555
C32 C33 1_555 1_555

#END
