
#######################################################################
#
#                 Cambridge Crystallographic Data Centre
#                                CCDC 
#
#######################################################################
#
# If this CIF has been generated from an entry in the Cambridge 
# Structural Database, then it will include bibliographic, chemical, 
# crystal, experimental, refinement or atomic coordinate data resulting 
# from the CCDC's data processing and validation procedures.
#
#######################################################################

data_OJEMIB
_chemical_formula_moiety         'C30 H29 N1 O5'
_chemical_name_systematic        
'diethyl 3-(4-(2-(4-(1,3-benzoxazol-2-yl)phenyl)vinyl)phenyl)pentanedioate'
_symmetry_cell_setting           triclinic
_symmetry_space_group_name_H-M   'P -1'
_symmetry_Int_Tables_number      2
_space_group_name_Hall           '-P 1'
loop_
_symmetry_equiv_pos_site_id
_symmetry_equiv_pos_as_xyz
1 x,y,z
2 -x,-y,-z
_cell_length_a                   5.0966(11)
_cell_length_b                   12.219(3)
_cell_length_c                   20.093(4)
_cell_angle_alpha                96.803(3)
_cell_angle_beta                 96.243(3)
_cell_angle_gamma                97.956(3)
_cell_volume                     1220.53
_cell_formula_units_Z            2
loop_
_atom_site_label
_atom_site_type_symbol
_atom_site_fract_x
_atom_site_fract_y
_atom_site_fract_z
O1 O 1.8261(6) 0.5915(3) 0.62918(15)
O2 O 0.1501(8) 1.0973(3) 0.09231(19)
O3 O 0.4051(7) 0.9660(3) 0.10962(17)
O4 O 0.0859(9) 0.7181(3) 0.0902(2)
O5 O -0.2440(7) 0.6102(3) 0.12545(17)
N1 N 1.9451(8) 0.7703(3) 0.67538(19)
C1 C 2.1130(9) 0.7064(4) 0.7068(2)
C2 C 2.3270(10) 0.7350(4) 0.7568(3)
H1 H 2.3751 0.8082 0.7776
C3 C 2.4679(10) 0.6531(5) 0.7752(3)
H2 H 2.6170 0.6715 0.8078
C4 C 2.3902(11) 0.5432(5) 0.7458(3)
H3 H 2.4864 0.4890 0.7599
C5 C 2.1743(11) 0.5120(4) 0.6962(3)
H4 H 2.1227 0.4384 0.6762
C6 C 2.0409(9) 0.5956(4) 0.6781(2)
C7 C 1.7824(10) 0.7000(4) 0.6304(2)
C8 C 1.5680(9) 0.7227(5) 0.5828(2)
C9 C 1.5370(10) 0.8300(5) 0.5756(3)
H5 H 1.6510 0.8889 0.6021
C10 C 1.3369(13) 0.8517(6) 0.5290(3)
H6 H 1.3203 0.9254 0.5247
C11 C 1.1601(14) 0.7672(9) 0.4884(3)
C12 C 1.1968(12) 0.6612(8) 0.4975(3)
H7 H 1.0816 0.6022 0.4715
C13 C 1.3933(11) 0.6367(5) 0.5428(3)
H8 H 1.4100 0.5628 0.5468
C14 C 0.6458(12) 0.8322(6) 0.3530(3)
C15 C 0.6506(10) 0.9328(5) 0.3284(3)
H9 H 0.7876 0.9907 0.3461
C16 C 0.4603(9) 0.9507(4) 0.2787(2)
H10 H 0.4732 1.0202 0.2638
C17 C 0.2464(9) 0.8673(4) 0.2496(2)
C18 C 0.2421(10) 0.7634(4) 0.2733(2)
H11 H 0.1089 0.7045 0.2545
C19 C 0.4332(12) 0.7479(5) 0.3239(3)
H12 H 0.4213 0.6789 0.3395
C20 C 0.0502(8) 0.8855(3) 0.2014(2)
H13 H 0.1564 0.8629 0.1658
C21 C 0.0510(8) 0.9925(3) 0.1783(2)
H14 H 0.1091 1.0501 0.2167
H15 H -0.1308 0.9994 0.1613
C22 C 0.2276(9) 1.0141(4) 0.1235(2)
C23 C 0.2613(16) 1.1176(6) 0.0283(3)
H16 H 0.3159 1.0498 0.0079
H17 H 0.1250 1.1384 -0.0032
C24 C 0.4775(19) 1.2016(6) 0.0417(4)
H18 H 0.4297 1.2652 0.0678
H19 H 0.5304 1.2222 -0.0001
H20 H 0.6233 1.1760 0.0666
C25 C -0.1625(8) 0.7967(3) 0.1731(2)
H21 H -0.3037 0.8287 0.1496
H22 H -0.2349 0.7631 0.2099
C26 C -0.0861(11) 0.7066(4) 0.1252(2)
C27 C -0.2023(11) 0.5157(4) 0.0784(3)
H23 H -0.1585 0.5410 0.0364
H24 H -0.3653 0.4621 0.0684
C28 C 0.0201(11) 0.4610(5) 0.1083(3)
H25 H 0.1863 0.5103 0.1117
H26 H 0.0291 0.3930 0.0800
H27 H -0.0126 0.4447 0.1526
C29 C 1.004(3) 0.8381(11) 0.4387(7)
H28 H 1.0590 0.9124 0.4342
C30 C 0.796(3) 0.7777(11) 0.4066(6)
H29 H 0.7398 0.7056 0.4152
C31? C 0.919(2) 0.7547(10) 0.4394(5)
H30? H 0.7944 0.6898 0.4328
C32? C 0.882(2) 0.8402(11) 0.4043(6)
H31? H 1.0063 0.9050 0.4124
loop_
_geom_bond_atom_site_label_1
_geom_bond_atom_site_label_2
_geom_bond_site_symmetry_1
_geom_bond_site_symmetry_2
O1 C6 1_555 1_555
O2 C22 1_555 1_555
O3 C22 1_555 1_555
O4 C26 1_555 1_555
O5 C26 1_555 1_555
N1 C1 1_555 1_555
C1 C2 1_555 1_555
C2 H1 1_555 1_555
C3 C2 1_555 1_555
H2 C3 1_555 1_555
C4 C3 1_555 1_555
H3 C4 1_555 1_555
C5 C4 1_555 1_555
H4 C5 1_555 1_555
C6 C1 1_555 1_555
C7 O1 1_555 1_555
C8 C7 1_555 1_555
C9 C8 1_555 1_555
H5 C9 1_555 1_555
C10 C9 1_555 1_555
H6 C10 1_555 1_555
C11 C10 1_555 1_555
C12 C11 1_555 1_555
H7 C12 1_555 1_555
C13 C8 1_555 1_555
H8 C13 1_555 1_555
C14 C15 1_555 1_555
C15 H9 1_555 1_555
C16 C15 1_555 1_555
H10 C16 1_555 1_555
C17 C16 1_555 1_555
C18 C17 1_555 1_555
H11 C18 1_555 1_555
C19 C14 1_555 1_555
H12 C19 1_555 1_555
C20 C17 1_555 1_555
H13 C20 1_555 1_555
C21 C20 1_555 1_555
H14 C21 1_555 1_555
H15 C21 1_555 1_555
C22 C21 1_555 1_555
C23 O2 1_555 1_555
H16 C23 1_555 1_555
H17 C23 1_555 1_555
C24 C23 1_555 1_555
H18 C24 1_555 1_555
H19 C24 1_555 1_555
H20 C24 1_555 1_555
C25 C20 1_555 1_555
H21 C25 1_555 1_555
H22 C25 1_555 1_555
C26 C25 1_555 1_555
C27 O5 1_555 1_555
H23 C27 1_555 1_555
H24 C27 1_555 1_555
C28 C27 1_555 1_555
H25 C28 1_555 1_555
H26 C28 1_555 1_555
H27 C28 1_555 1_555
C29 C11 1_555 1_555
H28 C29 1_555 1_555
C30 C14 1_555 1_555
H29 C30 1_555 1_555
N1 C7 1_555 1_555
C5 C6 1_555 1_555
C12 C13 1_555 1_555
C18 C19 1_555 1_555
C29 C30 1_555 1_555

#END
