
#######################################################################
#
#                 Cambridge Crystallographic Data Centre
#                                CCDC 
#
#######################################################################
#
# If this CIF has been generated from an entry in the Cambridge 
# Structural Database, then it will include bibliographic, chemical, 
# crystal, experimental, refinement or atomic coordinate data resulting 
# from the CCDC's data processing and validation procedures.
#
#######################################################################

data_OJEMOH
_chemical_formula_moiety         'C48 H33 N3 O2'
_chemical_name_systematic        
4-(2-(4-(1,3-benzoxazol-2-yl)phenyl)vinyl)-N-(4-(2-(4-(1,3-benzoxazol-2-yl)phenyl)vinyl)phenyl)-N-phenylaniline
_symmetry_cell_setting           monoclinic
_symmetry_space_group_name_H-M   'C 2/c'
_symmetry_Int_Tables_number      15
_space_group_name_Hall           '-C 2yn'
loop_
_symmetry_equiv_pos_site_id
_symmetry_equiv_pos_as_xyz
1 x,y,z
2 -x,y,1/2-z
3 1/2+x,1/2+y,z
4 1/2-x,1/2+y,1/2-z
5 -x,-y,-z
6 x,-y,1/2+z
7 1/2-x,1/2-y,-z
8 1/2+x,1/2-y,1/2+z
_cell_length_a                   22.153(3)
_cell_length_b                   9.6897(14)
_cell_length_c                   17.251(3)
_cell_angle_alpha                90
_cell_angle_beta                 95.937(2)
_cell_angle_gamma                90
_cell_volume                     3683.17
_cell_formula_units_Z            4
loop_
_atom_site_label
_atom_site_type_symbol
_atom_site_fract_x
_atom_site_fract_y
_atom_site_fract_z
N1 N 0.0000 0.30759(19) 0.2500
N2 N 0.31317(7) -0.06807(16) 0.04488(9)
O1 O 0.40681(6) 0.01998(14) 0.06247(8)
C1 C 0.05277(7) 0.38147(16) 0.23503(9)
C2 C 0.04839(8) 0.49912(16) 0.18866(10)
H1 H 0.0106 0.5292 0.1667
C3 C 0.10974(7) 0.33903(17) 0.26722(10)
H2 H 0.1134 0.2620 0.2995
C4 C 0.15718(7) 0.52765(16) 0.20479(10)
C5 C 0.09986(7) 0.57137(17) 0.17503(10)
H3 H 0.0960 0.6514 0.1452
C6 C 0.16096(7) 0.41047(18) 0.25166(10)
H4 H 0.1988 0.3797 0.2730
C7 C 0.28184(8) 0.42400(19) 0.14256(10)
C8 C 0.0000 0.1614(2) 0.2500
C9 C 0.26300(8) 0.1937(2) 0.09193(10)
H5 H 0.2354 0.1249 0.0752
C10 C 0.21100(8) 0.60659(19) 0.18843(12)
H6 H 0.2083 0.7015 0.1952
C11 C 0.35401(9) -0.1691(2) 0.02588(10)
C12 C 0.41171(9) -0.1146(2) 0.03719(10)
C13 C 0.34703(9) 0.0382(2) 0.06611(10)
C14 C 0.24204(8) 0.31930(19) 0.11570(10)
H7 H 0.2004 0.3343 0.1137
C15 C 0.0000 -0.1262(3) 0.2500
H8 H 0.0000 -0.2222 0.2500
C16 C 0.26316(8) 0.5617(2) 0.16529(12)
H9 H 0.2927 0.6294 0.1633
C17 C 0.34347(8) 0.3977(2) 0.14274(13)
H10 H 0.3711 0.4663 0.1596
C18 C 0.32471(8) 0.16895(19) 0.09273(10)
C19 C 0.46278(10) -0.1885(2) 0.02418(13)
H11 H 0.5015 -0.1504 0.0314
C20 C 0.03212(9) 0.08826(19) 0.19919(11)
H12 H 0.0539 0.1352 0.1642
C21 C 0.36479(9) 0.2732(2) 0.11874(13)
H13 H 0.4064 0.2587 0.1199
C22 C 0.45269(13) -0.3219(2) -0.00008(14)
H14 H 0.4857 -0.3765 -0.0092
C23 C 0.34468(12) -0.3032(2) 0.00092(13)
H15 H 0.3060 -0.3411 -0.0071
C24 C 0.39525(13) -0.3780(3) -0.01150(14)
H16 H 0.3907 -0.4690 -0.0281
C25 C 0.03209(11) -0.0544(2) 0.20011(13)
H17 H 0.0544 -0.1023 0.1660
N2A N -0.31317(7) -0.06807(16) 0.45512(9)
O1A O -0.40681(6) 0.01998(14) 0.43753(8)
C1A C -0.05277(7) 0.38147(16) 0.26497(9)
C2A C -0.04839(8) 0.49912(16) 0.31134(10)
H1A H -0.0106 0.5292 0.3333
C3A C -0.10974(7) 0.33903(17) 0.23278(10)
H2A H -0.1134 0.2620 0.2005
C4A C -0.15718(7) 0.52765(16) 0.29521(10)
C5A C -0.09986(7) 0.57137(17) 0.32497(10)
H3A H -0.0960 0.6514 0.3548
C6A C -0.16096(7) 0.41047(18) 0.24834(10)
H4A H -0.1988 0.3797 0.2270
C7A C -0.28184(8) 0.42400(19) 0.35744(10)
C9A C -0.26300(8) 0.1937(2) 0.40807(10)
H5A H -0.2354 0.1249 0.4248
C10A C -0.21100(8) 0.60659(19) 0.31157(12)
H6A H -0.2083 0.7015 0.3048
C11A C -0.35401(9) -0.1691(2) 0.47412(10)
C12A C -0.41171(9) -0.1146(2) 0.46281(10)
C13A C -0.34703(9) 0.0382(2) 0.43389(10)
C14A C -0.24204(8) 0.31930(19) 0.38430(10)
H7A H -0.2004 0.3343 0.3863
C16A C -0.26316(8) 0.5617(2) 0.33471(12)
H9A H -0.2927 0.6294 0.3367
C17A C -0.34347(8) 0.3977(2) 0.35726(13)
H10A H -0.3711 0.4663 0.3404
C18A C -0.32471(8) 0.16895(19) 0.40727(10)
C19A C -0.46278(10) -0.1885(2) 0.47582(13)
H11A H -0.5015 -0.1504 0.4686
C20A C -0.03212(9) 0.08826(19) 0.30081(11)
H12A H -0.0539 0.1352 0.3358
C21A C -0.36479(9) 0.2732(2) 0.38126(13)
H13A H -0.4064 0.2587 0.3801
C22A C -0.45269(13) -0.3219(2) 0.50008(14)
H14A H -0.4857 -0.3765 0.5092
C23A C -0.34468(12) -0.3032(2) 0.49908(13)
H15A H -0.3060 -0.3411 0.5071
C24A C -0.39525(13) -0.3780(3) 0.51150(14)
H16A H -0.3907 -0.4690 0.5281
C25A C -0.03209(11) -0.0544(2) 0.29989(13)
H17A H -0.0544 -0.1023 0.3340
loop_
_geom_bond_atom_site_label_1
_geom_bond_atom_site_label_2
_geom_bond_site_symmetry_1
_geom_bond_site_symmetry_2
N1 C1 1_555 1_555
N2 C11 1_555 1_555
O1 C12 1_555 1_555
C1 C2 1_555 1_555
C2 H1 1_555 1_555
C3 C1 1_555 1_555
H2 C3 1_555 1_555
C4 C5 1_555 1_555
C5 C2 1_555 1_555
H3 C5 1_555 1_555
C6 C3 1_555 1_555
H4 C6 1_555 1_555
C7 C14 1_555 1_555
C8 N1 1_555 1_555
C9 H5 1_555 1_555
C10 C4 1_555 1_555
H6 C10 1_555 1_555
C11 C12 1_555 1_555
C12 C19 1_555 1_555
C13 N2 1_555 1_555
C14 C9 1_555 1_555
H7 C14 1_555 1_555
C15 H8 1_555 1_555
C16 C7 1_555 1_555
H9 C16 1_555 1_555
C17 C7 1_555 1_555
H10 C17 1_555 1_555
C18 C9 1_555 1_555
C19 H11 1_555 1_555
C20 C8 1_555 1_555
H12 C20 1_555 1_555
C21 C17 1_555 1_555
H13 C21 1_555 1_555
C22 C19 1_555 1_555
H14 C22 1_555 1_555
C23 C11 1_555 1_555
H15 C23 1_555 1_555
C24 C22 1_555 1_555
H16 C24 1_555 1_555
C25 C15 1_555 1_555
H17 C25 1_555 1_555
N2A C11A 1_555 1_555
O1A C12A 1_555 1_555
C1A N1 1_555 1_555
C2A C1A 1_555 1_555
H1A C2A 1_555 1_555
C3A C1A 1_555 1_555
H2A C3A 1_555 1_555
C4A C5A 1_555 1_555
C5A C2A 1_555 1_555
H3A C5A 1_555 1_555
C6A C3A 1_555 1_555
H4A C6A 1_555 1_555
C7A C14A 1_555 1_555
C9A H5A 1_555 1_555
C10A C4A 1_555 1_555
H6A C10A 1_555 1_555
C11A C12A 1_555 1_555
C12A C19A 1_555 1_555
C13A N2A 1_555 1_555
C14A C9A 1_555 1_555
H7A C14A 1_555 1_555
C16A C7A 1_555 1_555
H9A C16A 1_555 1_555
C17A C7A 1_555 1_555
H10A C17A 1_555 1_555
C18A C9A 1_555 1_555
C19A H11A 1_555 1_555
C20A C8 1_555 1_555
H12A C20A 1_555 1_555
C21A C17A 1_555 1_555
H13A C21A 1_555 1_555
C22A C19A 1_555 1_555
H14A C22A 1_555 1_555
C23A C11A 1_555 1_555
H15A C23A 1_555 1_555
C24A C22A 1_555 1_555
H16A C24A 1_555 1_555
C25A C15 1_555 1_555
H17A C25A 1_555 1_555
O1 C13 1_555 1_555
C4 C6 1_555 1_555
C10 C16 1_555 1_555
C13 C18 1_555 1_555
C18 C21 1_555 1_555
C20 C25 1_555 1_555
C23 C24 1_555 1_555
O1A C13A 1_555 1_555
C4A C6A 1_555 1_555
C10A C16A 1_555 1_555
C13A C18A 1_555 1_555
C18A C21A 1_555 1_555
C20A C25A 1_555 1_555
C23A C24A 1_555 1_555

#END
