
#######################################################################
#
#                 Cambridge Crystallographic Data Centre
#                                CCDC 
#
#######################################################################
#
# If this CIF has been generated from an entry in the Cambridge 
# Structural Database, then it will include bibliographic, chemical, 
# crystal, experimental, refinement or atomic coordinate data resulting 
# from the CCDC's data processing and validation procedures.
#
#######################################################################

data_OJEREA
_chemical_formula_moiety         'C23 H14 F6 S2'
_chemical_name_systematic        
3,3,4,4,5,5-Hexafluoro-1,2-bis(3-methylbenzo(b)-2-thienyl)cyclopentene
_symmetry_cell_setting           monoclinic
_symmetry_space_group_name_H-M   'C 2/c'
_symmetry_Int_Tables_number      15
_space_group_name_Hall           '-C 2yn'
loop_
_symmetry_equiv_pos_site_id
_symmetry_equiv_pos_as_xyz
1 x,y,z
2 1/2+x,1/2+y,z
3 x,-y,1/2+z
4 1/2+x,1/2-y,1/2+z
5 -x,-y,-z
6 1/2-x,1/2-y,-z
7 -x,y,1/2-z
8 1/2-x,1/2+y,1/2-z
_cell_length_a                   18.8350(18)
_cell_length_b                   9.3507(9)
_cell_length_c                   11.643(2)
_cell_angle_alpha                90
_cell_angle_beta                 94.653(11)
_cell_angle_gamma                90
_cell_volume                     2043.81
_exptl_crystal_colour            yellow
_exptl_crystal_description       block
_chemical_melting_point          465K
_cell_formula_units_Z            4
_exptl_crystal_recrystallization_method polymethylmethacrylate/chloroform
loop_
_atom_site_label
_atom_site_type_symbol
_atom_site_fract_x
_atom_site_fract_y
_atom_site_fract_z
S1 S 0.13825(6) 0.25372(13) 0.41799(9)
F1 F 0.1163(2) -0.0506(4) 0.2268(6)
F2 F 0.0830(3) -0.0508(4) 0.3958(4)
F3 F 0.0143(3) -0.2008(6) 0.1690(5)
C1 C 0.0350(2) 0.1263(4) 0.2693(4)
C2 C 0.0614(3) -0.0235(5) 0.2882(6)
C3 C 0.0000 -0.1180(8) 0.2500
C4 C 0.0826(2) 0.2478(4) 0.2899(3)
C5 C 0.09140(19) 0.3622(4) 0.2213(3)
C6 C 0.14380(19) 0.4607(4) 0.2717(3)
C7 C 0.17473(19) 0.4144(4) 0.3788(3)
C8 C 0.2282(2) 0.4931(5) 0.4399(4)
H1 H 0.2484 0.4611 0.5108
C9 C 0.2502(2) 0.6172(6) 0.3939(4)
H2 H 0.2867 0.6692 0.4330
C10 C 0.2193(2) 0.6679(5) 0.2893(4)
H3 H 0.2342 0.7545 0.2602
C11 C 0.1667(2) 0.5907(5) 0.2288(4)
H4 H 0.1463 0.6251 0.1588
C12 C 0.0551(2) 0.3857(5) 0.1035(3)
H5 H 0.0224 0.3088 0.0849
H6 H 0.0901 0.3886 0.0480
H7 H 0.0296 0.4746 0.1020
C1F C -0.0350(2) 0.1263(4) 0.2307(4)
C2F C -0.0614(3) -0.0235(5) 0.2118(6)
F1F F -0.1163(2) -0.0506(4) 0.2732(6)
F2F F -0.0830(3) -0.0508(4) 0.1042(4)
F3F F -0.0143(3) -0.2008(6) 0.3310(5)
C4F C -0.0826(2) 0.2478(4) 0.2101(3)
S1F S -0.13825(6) 0.25372(13) 0.08201(9)
C7F C -0.17473(19) 0.4144(4) 0.1212(3)
C6F C -0.14380(19) 0.4607(4) 0.2283(3)
C5F C -0.09140(19) 0.3622(4) 0.2787(3)
C12F C -0.0551(2) 0.3857(5) 0.3965(3)
H5F H -0.0224 0.3088 0.4151
H6F H -0.0901 0.3886 0.4520
H7F H -0.0296 0.4746 0.3980
C11F C -0.1667(2) 0.5907(5) 0.2712(4)
C10F C -0.2193(2) 0.6679(5) 0.2107(4)
C9F C -0.2502(2) 0.6172(6) 0.1061(4)
C8F C -0.2282(2) 0.4931(5) 0.0601(4)
H1F H -0.2484 0.4611 -0.0108
H2F H -0.2867 0.6692 0.0670
H3F H -0.2342 0.7545 0.2398
H4F H -0.1463 0.6251 0.3412
loop_
_geom_bond_atom_site_label_1
_geom_bond_atom_site_label_2
_geom_bond_site_symmetry_1
_geom_bond_site_symmetry_2
S1 C4 1_555 1_555
F1 C2 1_555 1_555
F2 C2 1_555 1_555
F3 C3 1_555 1_555
C1 C2 1_555 1_555
C2 C3 1_555 1_555
C3 C2F 1_555 1_555
C4 C1 1_555 1_555
C5 C4 1_555 1_555
C6 C5 1_555 1_555
C7 S1 1_555 1_555
C8 C7 1_555 1_555
H1 C8 1_555 1_555
C9 C8 1_555 1_555
H2 C9 1_555 1_555
C10 C9 1_555 1_555
H3 C10 1_555 1_555
C11 C6 1_555 1_555
H4 C11 1_555 1_555
C12 C5 1_555 1_555
H5 C12 1_555 1_555
H6 C12 1_555 1_555
H7 C12 1_555 1_555
C1F C1 1_555 1_555
C2F C1F 1_555 1_555
F1F C2F 1_555 1_555
F2F C2F 1_555 1_555
F3F C3 1_555 1_555
C4F C1F 1_555 1_555
S1F C4F 1_555 1_555
C7F S1F 1_555 1_555
C6F C7F 1_555 1_555
C5F C4F 1_555 1_555
C12F C5F 1_555 1_555
H5F C12F 1_555 1_555
H6F C12F 1_555 1_555
H7F C12F 1_555 1_555
C11F C6F 1_555 1_555
C10F C11F 1_555 1_555
C9F C10F 1_555 1_555
C8F C7F 1_555 1_555
H1F C8F 1_555 1_555
H2F C9F 1_555 1_555
H3F C10F 1_555 1_555
H4F C11F 1_555 1_555
C6 C7 1_555 1_555
C10 C11 1_555 1_555
C6F C5F 1_555 1_555
C9F C8F 1_555 1_555

#END
