
#######################################################################
#
#                 Cambridge Crystallographic Data Centre
#                                CCDC 
#
#######################################################################
#
# If this CIF has been generated from an entry in the Cambridge 
# Structural Database, then it will include bibliographic, chemical, 
# crystal, experimental, refinement or atomic coordinate data resulting 
# from the CCDC's data processing and validation procedures.
#
#######################################################################

data_OJEWAD
_chemical_formula_moiety         'C16 H16 N2 O1 S1'
_chemical_name_systematic        
2-(cyclohexylimino)[1,3]thiazolo[3,2-a]indol-3(2H)-one
_symmetry_cell_setting           monoclinic
_symmetry_space_group_name_H-M   'P 21/n'
_symmetry_Int_Tables_number      14
_space_group_name_Hall           '-P 2yn'
loop_
_symmetry_equiv_pos_site_id
_symmetry_equiv_pos_as_xyz
1 x,y,z
2 1/2-x,1/2+y,1/2-z
3 -x,-y,-z
4 1/2+x,1/2-y,1/2+z
_cell_length_a                   16.127(3)
_cell_length_b                   6.6378(13)
_cell_length_c                   26.206(5)
_cell_angle_alpha                90
_cell_angle_beta                 97.78(3)
_cell_angle_gamma                90
_cell_volume                     2779.47
_exptl_crystal_colour            yellow
_exptl_crystal_description       block
_cell_formula_units_Z            8
loop_
_atom_site_label
_atom_site_type_symbol
_atom_site_fract_x
_atom_site_fract_y
_atom_site_fract_z
S1 S 0.29966(3) 0.79166(7) 0.61312(2)
N1 N 0.25261(9) 0.7919(2) 0.70479(5)
O1 O 0.10862(8) 0.7894(2) 0.69075(5)
N2 N 0.12989(9) 0.7924(2) 0.58254(6)
C1 C 0.32411(11) 0.7890(3) 0.67998(7)
C2 C 0.39395(12) 0.7852(3) 0.71453(7)
H1 H 0.4489 0.7824 0.7074
C3 C 0.36679(12) 0.7861(3) 0.76527(7)
C4 C 0.27854(12) 0.7905(2) 0.75813(7)
C5 C 0.23131(12) 0.7937(3) 0.79852(7)
H2 H 0.1731 0.7957 0.7929
C6 C 0.27533(13) 0.7937(3) 0.84786(7)
H3 H 0.2460 0.7969 0.8761
C7 C 0.36265(14) 0.7891(3) 0.85604(7)
H4 H 0.3903 0.7889 0.8896
C8 C 0.40912(13) 0.7847(3) 0.81519(7)
H5 H 0.4673 0.7809 0.8211
C9 C 0.17537(11) 0.7905(3) 0.67507(7)
C10 C 0.18956(11) 0.7915(3) 0.61865(7)
C11 C 0.14776(11) 0.8000(3) 0.52927(7)
H6 H 0.2054 0.7557 0.5280
C12 C 0.08761(12) 0.6604(3) 0.49641(8)
H7 H 0.0307 0.6931 0.5015
H8 H 0.0986 0.5224 0.5075
C13 C 0.09589(13) 0.6774(3) 0.43931(8)
H9 H 0.1501 0.6260 0.4334
H10 H 0.0532 0.5954 0.4196
C14 C 0.08695(14) 0.8947(4) 0.42059(8)
H11 H 0.0975 0.9014 0.3851
H12 H 0.0301 0.9401 0.4219
C15 C 0.14773(14) 1.0332(3) 0.45341(7)
H13 H 0.1379 1.1713 0.4421
H14 H 0.2046 0.9979 0.4489
C16 C 0.13752(12) 1.0166(3) 0.51028(7)
H15 H 0.1789 1.1009 0.5304
H16 H 0.0825 1.0654 0.5153
S2 S 0.44628(3) 0.19635(7) 0.62904(2)
N3 N 0.44554(9) 0.5093(2) 0.56824(5)
O2 O 0.53338(9) 0.73906(19) 0.61356(5)
N4 N 0.56016(10) 0.4272(2) 0.69109(6)
C17 C 0.41108(11) 0.3167(3) 0.57116(7)
C18 C 0.35932(11) 0.2752(3) 0.52741(7)
H17 H 0.3290 0.1572 0.5200
C19 C 0.36025(11) 0.4502(3) 0.49417(7)
C20 C 0.41368(10) 0.5947(3) 0.52071(6)
C21 C 0.42812(11) 0.7829(3) 0.50083(7)
H18 H 0.4628 0.8767 0.5194
C22 C 0.38790(12) 0.8242(3) 0.45145(7)
H19 H 0.3958 0.9487 0.4366
C23 C 0.33635(12) 0.6830(3) 0.42420(7)
H20 H 0.3108 0.7147 0.3912
C24 C 0.32168(11) 0.4955(3) 0.44473(7)
H21 H 0.2869 0.4024 0.4259
C25 C 0.50046(11) 0.5750(3) 0.60967(7)
C26 C 0.51119(11) 0.4081(3) 0.64976(7)
C27 C 0.56821(12) 0.2602(3) 0.72822(7)
H22 H 0.5134 0.1962 0.7280
C28 C 0.63006(12) 0.1039(3) 0.71292(7)
H23 H 0.6091 0.0492 0.6793
H24 H 0.6834 0.1683 0.7106
C29 C 0.64246(14) -0.0665(3) 0.75227(8)
H25 H 0.5903 -0.1398 0.7519
H26 H 0.6842 -0.1595 0.7428
C30 C 0.67043(14) 0.0136(4) 0.80619(8)
H27 H 0.6738 -0.0970 0.8306
H28 H 0.7258 0.0721 0.8076
C31 C 0.61033(17) 0.1717(4) 0.82142(8)
H29 H 0.6323 0.2270 0.8548
H30 H 0.5570 0.1088 0.8245
C32 C 0.59697(15) 0.3424(3) 0.78192(7)
H31 H 0.5553 0.4351 0.7916
H32 H 0.6489 0.4161 0.7818
loop_
_geom_bond_atom_site_label_1
_geom_bond_atom_site_label_2
_geom_bond_site_symmetry_1
_geom_bond_site_symmetry_2
S1 C1 1_555 1_555
N1 C1 1_555 1_555
O1 C9 1_555 1_555
N2 C10 1_555 1_555
C1 C2 1_555 1_555
C2 H1 1_555 1_555
C3 C2 1_555 1_555
C4 N1 1_555 1_555
C5 C4 1_555 1_555
H2 C5 1_555 1_555
C6 C5 1_555 1_555
H3 C6 1_555 1_555
C7 C6 1_555 1_555
H4 C7 1_555 1_555
C8 C3 1_555 1_555
H5 C8 1_555 1_555
C9 N1 1_555 1_555
C10 S1 1_555 1_555
C11 N2 1_555 1_555
H6 C11 1_555 1_555
C12 C11 1_555 1_555
H7 C12 1_555 1_555
H8 C12 1_555 1_555
C13 C12 1_555 1_555
H9 C13 1_555 1_555
H10 C13 1_555 1_555
C14 C13 1_555 1_555
H11 C14 1_555 1_555
H12 C14 1_555 1_555
C15 C14 1_555 1_555
H13 C15 1_555 1_555
H14 C15 1_555 1_555
C16 C11 1_555 1_555
H15 C16 1_555 1_555
H16 C16 1_555 1_555
S2 C17 1_555 1_555
N3 C17 1_555 1_555
O2 C25 1_555 1_555
N4 C26 1_555 1_555
C17 C18 1_555 1_555
C18 H17 1_555 1_555
C19 C18 1_555 1_555
C20 N3 1_555 1_555
C21 C20 1_555 1_555
H18 C21 1_555 1_555
C22 C21 1_555 1_555
H19 C22 1_555 1_555
C23 C22 1_555 1_555
H20 C23 1_555 1_555
C24 C19 1_555 1_555
H21 C24 1_555 1_555
C25 N3 1_555 1_555
C26 S2 1_555 1_555
C27 N4 1_555 1_555
H22 C27 1_555 1_555
C28 C27 1_555 1_555
H23 C28 1_555 1_555
H24 C28 1_555 1_555
C29 C28 1_555 1_555
H25 C29 1_555 1_555
H26 C29 1_555 1_555
C30 C29 1_555 1_555
H27 C30 1_555 1_555
H28 C30 1_555 1_555
C31 C30 1_555 1_555
H29 C31 1_555 1_555
H30 C31 1_555 1_555
C32 C27 1_555 1_555
H31 C32 1_555 1_555
H32 C32 1_555 1_555
C3 C4 1_555 1_555
C7 C8 1_555 1_555
C9 C10 1_555 1_555
C15 C16 1_555 1_555
C19 C20 1_555 1_555
C23 C24 1_555 1_555
C25 C26 1_555 1_555
C31 C32 1_555 1_555

#END
