
#######################################################################
#
#                 Cambridge Crystallographic Data Centre
#                                CCDC 
#
#######################################################################
#
# If this CIF has been generated from an entry in the Cambridge 
# Structural Database, then it will include bibliographic, chemical, 
# crystal, experimental, refinement or atomic coordinate data resulting 
# from the CCDC's data processing and validation procedures.
#
#######################################################################

data_OJEXUY
_chemical_formula_moiety         'C33 H25 N3 O3,C1 H4 O1'
_chemical_name_systematic        
"4'-(2-methoxyquinolin-3-yl)-1'-methyl-2H-dispiro[acenaphthylene-1,2'-pyrrolidine-3',3''-indole]-2,2''(1''H)-dione methanol solvate"
_symmetry_cell_setting           monoclinic
_symmetry_space_group_name_H-M   'P 21/c'
_symmetry_Int_Tables_number      14
_space_group_name_Hall           '-P 2ybc'
loop_
_symmetry_equiv_pos_site_id
_symmetry_equiv_pos_as_xyz
1 x,y,z
2 -x,1/2+y,1/2-z
3 -x,-y,-z
4 x,1/2-y,1/2+z
_cell_length_a                   12.1184(7)
_cell_length_b                   17.2908(11)
_cell_length_c                   13.0821(9)
_cell_angle_alpha                90
_cell_angle_beta                 100.846(4)
_cell_angle_gamma                90
_cell_volume                     2692.21
_exptl_crystal_colour            'light yellow'
_exptl_crystal_description       lamellar
_cell_formula_units_Z            4
loop_
_atom_site_label
_atom_site_type_symbol
_atom_site_fract_x
_atom_site_fract_y
_atom_site_fract_z
O1 O 0.08756(10) 0.02223(7) 0.29913(9)
O2 O 0.41848(10) -0.00751(7) 0.08862(9)
O3 O 0.23939(10) 0.20983(7) 0.29690(9)
N1 N 0.03676(12) -0.09550(9) 0.22321(11)
N2 N 0.33116(11) 0.15805(8) 0.09578(10)
N3 N 0.30794(12) 0.11644(8) 0.41721(11)
H1 H 0.3079 0.1425 0.4732
C1 C 0.69911(15) 0.22736(11) 0.34176(14)
H2 H 0.7664 0.2498 0.3742
C2 C 0.59896(15) 0.26335(10) 0.34510(13)
H3 H 0.5999 0.3099 0.3808
C3 C 0.49360(14) 0.23202(10) 0.29596(13)
H4 H 0.4273 0.2586 0.2977
C4 C 0.49129(14) 0.16216(10) 0.24599(12)
C5 C 0.39619(13) 0.11417(9) 0.18350(12)
C6 C 0.30188(13) 0.08346(10) 0.24138(12)
C7 C 0.19468(13) 0.07760(10) 0.15082(12)
H5 H 0.1386 0.1135 0.1685
C8 C 0.14031(13) -0.00116(10) 0.13826(13)
C9 C 0.08552(14) -0.02882(10) 0.21998(13)
C10 C 0.03575(14) -0.14466(10) 0.14008(13)
C11 C -0.01711(14) -0.21752(10) 0.14028(15)
H6 H -0.0488 -0.2322 0.1968
C12 C -0.02172(15) -0.26659(11) 0.05703(15)
H7 H -0.0575 -0.3142 0.0574
C13 C 0.05852(16) -0.00791(12) 0.39307(14)
H8 H -0.0190 -0.0233 0.3797
H9 H 0.0702 0.0313 0.4460
H10 H 0.1050 -0.0518 0.4162
C14 C 0.70000(14) 0.15590(10) 0.28885(13)
C15 C 0.59463(14) 0.12541(10) 0.24248(12)
C16 C 0.58324(14) 0.05617(10) 0.18506(13)
C17 C 0.46183(14) 0.04437(10) 0.14489(12)
C18 C 0.67656(15) 0.01490(11) 0.17280(13)
H11 H 0.6699 -0.0308 0.1346
C19 C 0.78305(15) 0.04377(11) 0.21972(14)
H12 H 0.8470 0.0161 0.2125
C20 C 0.79516(15) 0.11146(11) 0.27567(14)
H13 H 0.8668 0.1285 0.3055
C21 C 0.23254(14) 0.11037(10) 0.05424(13)
H14 H 0.2524 0.0691 0.0109
H15 H 0.1736 0.1415 0.0134
C22 C 0.39468(15) 0.18140(10) 0.01570(13)
H16 H 0.4249 0.1363 -0.0119
H17 H 0.4550 0.2151 0.0460
H18 H 0.3457 0.2081 -0.0393
C23 C 0.33572(13) 0.01469(10) 0.31245(13)
C24 C 0.35715(14) -0.06237(10) 0.29303(13)
H19 H 0.3540 -0.0796 0.2252
C25 C 0.38343(15) -0.11365(10) 0.37637(14)
H20 H 0.3980 -0.1653 0.3640
C26 C 0.38795(14) -0.08811(11) 0.47767(14)
H21 H 0.4070 -0.1228 0.5324
C27 C 0.36460(14) -0.01171(10) 0.49898(13)
H22 H 0.3663 0.0051 0.5668
C28 C 0.33870(13) 0.03849(10) 0.41524(13)
C29 C 0.27824(13) 0.14554(10) 0.31958(13)
C30 C 0.13703(14) -0.04969(10) 0.05596(13)
H23 H 0.1700 -0.0345 0.0004
C31 C 0.08402(14) -0.12322(10) 0.05338(13)
C32 C 0.07884(16) -0.17551(10) -0.03055(14)
H24 H 0.1108 -0.1621 -0.0874
C33 C 0.02673(16) -0.24608(11) -0.02862(15)
H25 H 0.0236 -0.2802 -0.0840
O4 O 0.27086(13) 0.31459(8) 0.10110(10)
H26 H 0.2773(19) 0.2646(14) 0.1246(18)
C34 C 0.2286(2) 0.36122(12) 0.17041(17)
H27 H 0.2786 0.3602 0.2367
H28 H 0.1560 0.3426 0.1781
H29 H 0.2220 0.4133 0.1446
loop_
_geom_bond_atom_site_label_1
_geom_bond_atom_site_label_2
_geom_bond_site_symmetry_1
_geom_bond_site_symmetry_2
O1 C9 1_555 1_555
O2 C17 1_555 1_555
O3 C29 1_555 1_555
N1 C9 1_555 1_555
N2 C5 1_555 1_555
N3 H1 1_555 1_555
C1 H2 1_555 1_555
C2 C1 1_555 1_555
H3 C2 1_555 1_555
C3 C2 1_555 1_555
H4 C3 1_555 1_555
C4 C3 1_555 1_555
C5 C4 1_555 1_555
C6 C5 1_555 1_555
C7 C6 1_555 1_555
H5 C7 1_555 1_555
C8 C7 1_555 1_555
C9 C8 1_555 1_555
C10 N1 1_555 1_555
C11 C10 1_555 1_555
H6 C11 1_555 1_555
C12 C11 1_555 1_555
H7 C12 1_555 1_555
C13 O1 1_555 1_555
H8 C13 1_555 1_555
H9 C13 1_555 1_555
H10 C13 1_555 1_555
C14 C1 1_555 1_555
C15 C4 1_555 1_555
C16 C15 1_555 1_555
C17 C5 1_555 1_555
C18 C16 1_555 1_555
H11 C18 1_555 1_555
C19 C18 1_555 1_555
H12 C19 1_555 1_555
C20 C14 1_555 1_555
H13 C20 1_555 1_555
C21 N2 1_555 1_555
H14 C21 1_555 1_555
H15 C21 1_555 1_555
C22 N2 1_555 1_555
H16 C22 1_555 1_555
H17 C22 1_555 1_555
H18 C22 1_555 1_555
C23 C6 1_555 1_555
C24 C23 1_555 1_555
H19 C24 1_555 1_555
C25 C24 1_555 1_555
H20 C25 1_555 1_555
C26 C25 1_555 1_555
H21 C26 1_555 1_555
C27 C26 1_555 1_555
H22 C27 1_555 1_555
C28 N3 1_555 1_555
C29 N3 1_555 1_555
C30 C8 1_555 1_555
H23 C30 1_555 1_555
C31 C10 1_555 1_555
C32 C31 1_555 1_555
H24 C32 1_555 1_555
C33 C12 1_555 1_555
H25 C33 1_555 1_555
O4 H26 1_555 1_555
C34 O4 1_555 1_555
H27 C34 1_555 1_555
H28 C34 1_555 1_555
H29 C34 1_555 1_555
C6 C29 1_555 1_555
C7 C21 1_555 1_555
C14 C15 1_555 1_555
C16 C17 1_555 1_555
C19 C20 1_555 1_555
C23 C28 1_555 1_555
C27 C28 1_555 1_555
C30 C31 1_555 1_555
C32 C33 1_555 1_555

#END
