
#######################################################################
#
#                 Cambridge Crystallographic Data Centre
#                                CCDC 
#
#######################################################################
#
# If this CIF has been generated from an entry in the Cambridge 
# Structural Database, then it will include bibliographic, chemical, 
# crystal, experimental, refinement or atomic coordinate data resulting 
# from the CCDC's data processing and validation procedures.
#
#######################################################################

data_OJEYEJ
_chemical_formula_moiety         'C22 H22 O5'
_chemical_name_systematic        
'dimethyl 7-(biphenyl-4-yl)-7-hydroxyocta-2,4-dienedioate'
_symmetry_cell_setting           triclinic
_symmetry_space_group_name_H-M   'P 1'
_symmetry_Int_Tables_number      1
_space_group_name_Hall           'P 1'
loop_
_symmetry_equiv_pos_site_id
_symmetry_equiv_pos_as_xyz
1 x,y,z
_cell_length_a                   5.5512(2)
_cell_length_b                   8.9374(3)
_cell_length_c                   19.4754(6)
_cell_angle_alpha                102.143(3)
_cell_angle_beta                 93.557(3)
_cell_angle_gamma                90.362(3)
_cell_volume                     942.614
_exptl_crystal_colour            colorless
_exptl_crystal_description       block
_cell_formula_units_Z            2
loop_
_atom_site_label
_atom_site_type_symbol
_atom_site_fract_x
_atom_site_fract_y
_atom_site_fract_z
O1 O 0.2316(6) 0.2458(4) 0.50744(15)
O2 O -0.1455(10) 0.2729(11) 0.5321(3)
O3 O 0.5316(5) 0.8756(3) 0.30085(14)
O4 O 0.1456(4) 0.8101(3) 0.27014(13)
O5 O 0.6949(4) 0.6094(2) 0.24357(12)
H1 H 0.7756 0.6891 0.2523
C1 C 0.2906(12) 0.1909(7) 0.5708(2)
H2 H 0.4626 0.1934 0.5800
H3 H 0.2306 0.0877 0.5650
H4 H 0.2177 0.2550 0.6096
C2 C 0.0114(9) 0.2858(6) 0.4949(2)
C3 C -0.0191(8) 0.3481(5) 0.4307(2)
H5 H -0.1750 0.3677 0.4150
C4 C 0.1601(7) 0.3779(4) 0.39417(17)
H6 H 0.3156 0.3622 0.4116
C5 C 0.1373(6) 0.4329(4) 0.32943(17)
H7 H -0.0166 0.4528 0.3122
C6 C 0.3219(6) 0.4565(3) 0.29340(16)
H8 H 0.4761 0.4452 0.3130
C7 C 0.3015(6) 0.4999(3) 0.22344(15)
H9 H 0.1341 0.5211 0.2124
H10 H 0.3482 0.4137 0.1879
C8 C 0.4571(5) 0.6394(3) 0.21988(14)
C9 C 0.3558(6) 0.7831(3) 0.26684(14)
C10 C 0.4586(11) 1.0168(5) 0.3443(3)
H11 H 0.3605 1.0723 0.3162
H12 H 0.5992 1.0775 0.3642
H13 H 0.3675 0.9950 0.3814
C11 C 0.4518(5) 0.6723(3) 0.14541(14)
C12 C 0.2647(7) 0.6243(4) 0.09549(18)
H14 H 0.1391 0.5652 0.1060
C13 C 0.2601(7) 0.6623(4) 0.03024(17)
H15 H 0.1316 0.6274 -0.0022
C14 C 0.4403(5) 0.7504(3) 0.01167(14)
C15 C 0.6301(7) 0.7947(5) 0.06164(19)
H16 H 0.7571 0.8524 0.0510
C16 C 0.6365(6) 0.7559(4) 0.12646(18)
H17 H 0.7685 0.7869 0.1582
C17 C 0.4288(5) 0.7993(3) -0.05702(14)
C18 C 0.2406(8) 0.7546(5) -0.1067(2)
H18 H 0.1216 0.6882 -0.0982
C19 C 0.2248(9) 0.8061(6) -0.1687(2)
H19 H 0.0943 0.7745 -0.2010
C20 C 0.3950(7) 0.9019(4) -0.18394(16)
H20 H 0.3823 0.9369 -0.2257
C21 C 0.5849(8) 0.9451(5) -0.1360(2)
H21 H 0.7055 1.0089 -0.1456
C22 C 0.6012(8) 0.8957(5) -0.0735(2)
H22 H 0.7320 0.9282 -0.0415
O6 O -0.0129(6) 0.7527(4) 0.50205(15)
O7 O 0.3718(6) 0.7432(6) 0.47747(19)
O8 O 0.8999(5) 0.1293(3) 0.70532(14)
O9 O 0.5272(4) 0.2006(3) 0.73265(13)
O10 O 1.0928(4) 0.3994(2) 0.75629(12)
H23 H 1.1693 0.3201 0.7492
C23 C -0.0774(10) 0.8071(7) 0.4392(3)
H24 H -0.2446 0.7832 0.4253
H25 H 0.0204 0.7584 0.4022
H26 H -0.0513 0.9159 0.4480
C24 C 0.2176(7) 0.7240(4) 0.51466(18)
C25 C 0.2521(7) 0.6663(4) 0.58000(19)
H27 H 0.1168 0.6572 0.6048
C26 C 0.4625(7) 0.6265(3) 0.60577(17)
H28 H 0.5979 0.6299 0.5803
C27 C 0.4900(6) 0.5779(3) 0.67204(16)
H29 H 0.3497 0.5682 0.6946
C28 C 0.6936(6) 0.5460(3) 0.70355(16)
H30 H 0.8344 0.5458 0.6800
C29 C 0.7111(6) 0.5101(3) 0.77546(15)
H31 H 0.5498 0.4914 0.7886
H32 H 0.7785 0.5988 0.8089
C30 C 0.8661(5) 0.3714(3) 0.78104(15)
C31 C 0.7387(6) 0.2260(3) 0.73615(13)
C32 C 0.8036(11) -0.0150(5) 0.6645(3)
H33 H 0.7407 -0.0013 0.6192
H34 H 0.6766 -0.0507 0.6886
H35 H 0.9296 -0.0888 0.6584
C33 C 0.8933(5) 0.3431(3) 0.85626(14)
C34 C 1.0847(7) 0.2602(4) 0.87534(18)
H36 H 1.2023 0.2293 0.8436
C35 C 1.1067(7) 0.2215(4) 0.94074(19)
H37 H 1.2377 0.1644 0.9516
C36 C 0.9387(5) 0.2657(3) 0.99005(14)
C37 C 0.7532(7) 0.3543(4) 0.97176(18)
H38 H 0.6411 0.3906 1.0045
C38 C 0.7284(7) 0.3909(4) 0.90611(18)
H39 H 0.5982 0.4488 0.8954
C39 C 0.9548(5) 0.2161(3) 1.05882(14)
C40 C 1.1348(8) 0.1203(4) 1.07500(19)
H40 H 1.2521 0.0892 1.0432
C41 C 1.1437(8) 0.0697(4) 1.1376(2)
H41 H 1.2663 0.0052 1.1471
C42 C 0.9744(8) 0.1136(4) 1.18557(16)
H42 H 0.9789 0.0784 1.2273
C43 C 0.8000(8) 0.2095(5) 1.1708(2)
H43 H 0.6848 0.2413 1.2032
C44 C 0.7898(8) 0.2611(5) 1.10874(19)
H44 H 0.6687 0.3277 1.1004
loop_
_geom_bond_atom_site_label_1
_geom_bond_atom_site_label_2
_geom_bond_site_symmetry_1
_geom_bond_site_symmetry_2
O1 C1 1_555 1_555
O2 C2 1_555 1_555
O3 C9 1_555 1_555
O4 C9 1_555 1_555
O5 H1 1_555 1_555
C1 H2 1_555 1_555
H3 C1 1_555 1_555
H4 C1 1_555 1_555
C2 O1 1_555 1_555
C3 C2 1_555 1_555
H5 C3 1_555 1_555
C4 C3 1_555 1_555
H6 C4 1_555 1_555
C5 C4 1_555 1_555
H7 C5 1_555 1_555
C6 C5 1_555 1_555
H8 C6 1_555 1_555
C7 C6 1_555 1_555
H9 C7 1_555 1_555
H10 C7 1_555 1_555
C8 O5 1_555 1_555
C9 C8 1_555 1_555
C10 O3 1_555 1_555
H11 C10 1_555 1_555
H12 C10 1_555 1_555
H13 C10 1_555 1_555
C11 C8 1_555 1_555
C12 C11 1_555 1_555
H14 C12 1_555 1_555
C13 C12 1_555 1_555
H15 C13 1_555 1_555
C14 C13 1_555 1_555
C15 C14 1_555 1_555
H16 C15 1_555 1_555
C16 C11 1_555 1_555
H17 C16 1_555 1_555
C17 C14 1_555 1_555
C18 C17 1_555 1_555
H18 C18 1_555 1_555
C19 C18 1_555 1_555
H19 C19 1_555 1_555
C20 C19 1_555 1_555
H20 C20 1_555 1_555
C21 C20 1_555 1_555
H21 C21 1_555 1_555
C22 C17 1_555 1_555
H22 C22 1_555 1_555
O6 C23 1_555 1_555
O7 C24 1_555 1_555
O8 C31 1_555 1_555
O9 C31 1_555 1_555
O10 H23 1_555 1_555
C23 H24 1_555 1_555
H25 C23 1_555 1_555
H26 C23 1_555 1_555
C24 O6 1_555 1_555
C25 C24 1_555 1_555
H27 C25 1_555 1_555
C26 C25 1_555 1_555
H28 C26 1_555 1_555
C27 C26 1_555 1_555
H29 C27 1_555 1_555
C28 C27 1_555 1_555
H30 C28 1_555 1_555
C29 C28 1_555 1_555
H31 C29 1_555 1_555
H32 C29 1_555 1_555
C30 O10 1_555 1_555
C31 C30 1_555 1_555
C32 O8 1_555 1_555
H33 C32 1_555 1_555
H34 C32 1_555 1_555
H35 C32 1_555 1_555
C33 C30 1_555 1_555
C34 C33 1_555 1_555
H36 C34 1_555 1_555
C35 C34 1_555 1_555
H37 C35 1_555 1_555
C36 C35 1_555 1_555
C37 C36 1_555 1_555
H38 C37 1_555 1_555
C38 C33 1_555 1_555
H39 C38 1_555 1_555
C39 C36 1_555 1_555
C40 C39 1_555 1_555
H40 C40 1_555 1_555
C41 C40 1_555 1_555
H41 C41 1_555 1_555
C42 C41 1_555 1_555
H42 C42 1_555 1_555
C43 C42 1_555 1_555
H43 C43 1_555 1_555
C44 C39 1_555 1_555
H44 C44 1_555 1_555
C7 C8 1_555 1_555
C15 C16 1_555 1_555
C21 C22 1_555 1_555
C29 C30 1_555 1_555
C37 C38 1_555 1_555
C43 C44 1_555 1_555

#END
