
#######################################################################
#
#                 Cambridge Crystallographic Data Centre
#                                CCDC 
#
#######################################################################
#
# If this CIF has been generated from an entry in the Cambridge 
# Structural Database, then it will include bibliographic, chemical, 
# crystal, experimental, refinement or atomic coordinate data resulting 
# from the CCDC's data processing and validation procedures.
#
#######################################################################

data_OJEZIO
_chemical_formula_moiety         'C13 H6 B1 Cl1 F2 N4 S1'
_chemical_name_systematic        
1-chloro-5-cyano-12,12-difluoro-12H-pyrimido[1',6':3,4][1,3,2]diazaborinino[6,1-b][1,3]benzothiazol-11-ium-12-ide
_symmetry_cell_setting           triclinic
_symmetry_space_group_name_H-M   'P -1'
_symmetry_Int_Tables_number      2
_space_group_name_Hall           '-P 1'
loop_
_symmetry_equiv_pos_site_id
_symmetry_equiv_pos_as_xyz
1 x,y,z
2 -x,-y,-z
_cell_length_a                   7.645(3)
_cell_length_b                   8.842(3)
_cell_length_c                   10.324(2)
_cell_angle_alpha                104.02(2)
_cell_angle_beta                 94.76(2)
_cell_angle_gamma                100.91(3)
_cell_volume                     658.738
_exptl_crystal_colour            yellow
_exptl_crystal_description       block
_cell_formula_units_Z            2
loop_
_atom_site_label
_atom_site_type_symbol
_atom_site_fract_x
_atom_site_fract_y
_atom_site_fract_z
Cl1 Cl 0.5437(2) 0.5963(2) 0.17946(14)
S1 S 0.6295(2) 0.8672(2) 0.87724(14)
N1 N 0.4748(6) 0.7341(5) 0.4207(4)
F1 F 0.6494(5) 0.5333(4) 0.4331(3)
F2 F 0.7988(5) 0.7811(4) 0.4371(3)
N2 N 0.6746(6) 0.7428(5) 0.6339(4)
C1 C 0.4220(7) 0.8647(6) 0.6472(5)
C2 C 0.2150(8) 0.8479(7) 0.4453(6)
H1 H 0.1417 0.9006 0.4991
C3 C 0.5704(8) 0.8217(6) 0.7056(5)
N3 N 0.2315(8) 1.0229(6) 0.7969(5)
C4 C 0.3118(9) 0.9490(6) 0.7293(6)
C5 C 1.0670(8) 0.6048(7) 0.7673(5)
H2 H 1.1543 0.5481 0.7403
N4 N 0.2775(7) 0.7277(6) 0.2280(5)
B1 B 0.6546(9) 0.6911(8) 0.4760(6)
C6 C 0.9305(7) 0.7491(7) 0.9461(5)
H3 H 0.9277 0.7904 1.0375
C7 C 0.3700(8) 0.8148(7) 0.5041(5)
C8 C 1.0595(8) 0.6660(7) 0.9036(5)
H4 H 1.1432 0.6506 0.9672
C9 C 0.1725(9) 0.8027(8) 0.3095(6)
H5 H 0.0683 0.8236 0.2712
C10 C 0.8137(7) 0.7090(6) 0.7146(5)
C11 C 0.9441(7) 0.6283(7) 0.6714(5)
H6 H 0.9497 0.5902 0.5800
C12 C 0.4202(9) 0.6988(7) 0.2840(6)
C13 C 0.8040(8) 0.7706(7) 0.8508(5)
loop_
_geom_bond_atom_site_label_1
_geom_bond_atom_site_label_2
_geom_bond_site_symmetry_1
_geom_bond_site_symmetry_2
Cl1 C12 1_555 1_555
S1 C3 1_555 1_555
N1 B1 1_555 1_555
F1 B1 1_555 1_555
F2 B1 1_555 1_555
N2 C3 1_555 1_555
C1 C3 1_555 1_555
C2 H1 1_555 1_555
N3 C4 1_555 1_555
C4 C1 1_555 1_555
C5 H2 1_555 1_555
N4 C9 1_555 1_555
B1 N2 1_555 1_555
C6 H3 1_555 1_555
C7 N1 1_555 1_555
C8 C5 1_555 1_555
H4 C8 1_555 1_555
C9 C2 1_555 1_555
H5 C9 1_555 1_555
C10 N2 1_555 1_555
C11 C5 1_555 1_555
H6 C11 1_555 1_555
C12 N1 1_555 1_555
C13 S1 1_555 1_555
C1 C7 1_555 1_555
C2 C7 1_555 1_555
N4 C12 1_555 1_555
C6 C8 1_555 1_555
C6 C13 1_555 1_555
C10 C11 1_555 1_555
C10 C13 1_555 1_555

#END
