
#######################################################################
#
#                 Cambridge Crystallographic Data Centre
#                                CCDC 
#
#######################################################################
#
# If this CIF has been generated from an entry in the Cambridge 
# Structural Database, then it will include bibliographic, chemical, 
# crystal, experimental, refinement or atomic coordinate data resulting 
# from the CCDC's data processing and validation procedures.
#
#######################################################################

data_OJIBUG
_chemical_formula_moiety         'C14 H9 B1 F2 N4 O1 S1'
_chemical_name_systematic        
5-cyano-12,12-difluoro-1-methoxy-12H-pyrimido[1',6':3,4][1,3,2]diazaborinino[6,1-b][1,3]benzothiazol-11-ium-12-ide
_symmetry_cell_setting           triclinic
_symmetry_space_group_name_H-M   'P -1'
_symmetry_Int_Tables_number      2
_space_group_name_Hall           '-P 1'
loop_
_symmetry_equiv_pos_site_id
_symmetry_equiv_pos_as_xyz
1 x,y,z
2 -x,-y,-z
_cell_length_a                   4.7639(7)
_cell_length_b                   11.7169(19)
_cell_length_c                   12.608(2)
_cell_angle_alpha                83.834(14)
_cell_angle_beta                 86.891(13)
_cell_angle_gamma                87.700(13)
_cell_volume                     698.237
_exptl_crystal_description       block
_cell_formula_units_Z            2
loop_
_atom_site_label
_atom_site_type_symbol
_atom_site_fract_x
_atom_site_fract_y
_atom_site_fract_z
S1 S 0.7905(4) 0.94746(16) 0.88881(16)
B1 B 0.6878(16) 0.7091(6) 0.6815(7)
F1 F 0.8252(8) 0.7404(3) 0.5855(3)
F2 F 0.4196(7) 0.6775(3) 0.6700(3)
N1 N 0.6739(10) 0.8123(4) 0.7505(4)
N2 N 0.8634(11) 0.6067(4) 0.7458(4)
N3 N 1.0434(13) 0.4140(5) 0.7410(5)
N4 N 1.2981(15) 0.7508(6) 1.0355(6)
O1 O 0.7382(10) 0.4986(4) 0.6192(4)
C1 C 0.5577(14) 0.9982(6) 0.7898(6)
C2 C 0.4292(16) 1.1065(6) 0.7761(7)
H1 H 0.4564 1.1618 0.8219
C3 C 0.2568(18) 1.1279(7) 0.6899(7)
H2 H 0.1688 1.2000 0.6768
C4 C 0.2137(17) 1.0452(6) 0.6237(7)
H3 H 0.0932 1.0621 0.5681
C5 C 0.3429(15) 0.9383(6) 0.6371(6)
H4 H 0.3159 0.8833 0.5909
C6 C 0.5177(14) 0.9153(6) 0.7235(6)
C7 C 0.8260(14) 0.8182(6) 0.8355(5)
C8 C 0.9943(14) 0.7247(6) 0.8770(5)
C9 C 1.1607(16) 0.7373(6) 0.9661(6)
C10 C 1.0114(14) 0.6199(6) 0.8335(5)
C11 C 1.1793(15) 0.5245(7) 0.8750(6)
H5 H 1.2831 0.5293 0.9347
C12 C 1.1869(17) 0.4272(7) 0.8274(7)
H6 H 1.2977 0.3655 0.8559
C13 C 0.8890(14) 0.5029(6) 0.7037(6)
C14 C 0.7395(18) 0.3904(6) 0.5738(7)
H7 H 0.9266 0.3715 0.5474
H8 H 0.6145 0.3967 0.5161
H9 H 0.6784 0.3312 0.6277
loop_
_geom_bond_atom_site_label_1
_geom_bond_atom_site_label_2
_geom_bond_site_symmetry_1
_geom_bond_site_symmetry_2
S1 C1 1_555 1_555
B1 F1 1_555 1_555
F2 B1 1_555 1_555
N1 B1 1_555 1_555
N2 B1 1_555 1_555
N3 C12 1_555 1_555
N4 C9 1_555 1_555
O1 C13 1_555 1_555
C1 C2 1_555 1_555
C2 H1 1_555 1_555
C3 C2 1_555 1_555
H2 C3 1_555 1_555
C4 C3 1_555 1_555
H3 C4 1_555 1_555
C5 C4 1_555 1_555
H4 C5 1_555 1_555
C6 N1 1_555 1_555
C7 S1 1_555 1_555
C8 C7 1_555 1_555
C9 C8 1_555 1_555
C10 N2 1_555 1_555
C11 C10 1_555 1_555
H5 C11 1_555 1_555
C12 C11 1_555 1_555
H6 C12 1_555 1_555
C13 N2 1_555 1_555
C14 O1 1_555 1_555
H7 C14 1_555 1_555
H8 C14 1_555 1_555
H9 C14 1_555 1_555
N1 C7 1_555 1_555
N3 C13 1_555 1_555
C1 C6 1_555 1_555
C5 C6 1_555 1_555
C8 C10 1_555 1_555

#END
