
#######################################################################
#
#                 Cambridge Crystallographic Data Centre
#                                CCDC 
#
#######################################################################
#
# If this CIF has been generated from an entry in the Cambridge 
# Structural Database, then it will include bibliographic, chemical, 
# crystal, experimental, refinement or atomic coordinate data resulting 
# from the CCDC's data processing and validation procedures.
#
#######################################################################

data_OJIJEW
_chemical_formula_moiety         'C24 H24'
_chemical_name_systematic        
3-Cyclopropyl-3-(cis-1-cyclopropyl-2-phenylcyclopropyl)-1-phenylcyclopropene
_symmetry_cell_setting           monoclinic
_symmetry_space_group_name_H-M   'P 21/c'
_symmetry_Int_Tables_number      14
_space_group_name_Hall           '-P 2ybc'
loop_
_symmetry_equiv_pos_site_id
_symmetry_equiv_pos_as_xyz
1 x,y,z
2 x,1/2-y,1/2+z
3 -x,-y,-z
4 -x,1/2+y,1/2-z
_cell_length_a                   8.5291(2)
_cell_length_b                   15.6301(4)
_cell_length_c                   13.6004(4)
_cell_angle_alpha                90
_cell_angle_beta                 97.5620(10)
_cell_angle_gamma                90
_cell_volume                     1797.31
_exptl_crystal_colour            colorless
_exptl_crystal_description       plate
_chemical_melting_point          73-75deg.C
_cell_formula_units_Z            4
_exptl_crystal_recrystallization_method 'diethyl ether'
loop_
_atom_site_label
_atom_site_type_symbol
_atom_site_fract_x
_atom_site_fract_y
_atom_site_fract_z
C1 C 0.77125(14) 0.13179(8) 0.42786(9)
C2 C 0.83500(15) 0.17276(9) 0.50615(10)
C3 C 0.67609(14) 0.20631(8) 0.45881(9)
C4 C 0.52872(14) 0.19097(8) 0.50791(9)
C5 C 0.51504(15) 0.24260(8) 0.60171(9)
C6 C 0.54514(17) 0.14725(8) 0.60752(10)
C7 C 0.38249(14) 0.17640(8) 0.43502(9)
C8 C 0.23582(16) 0.13248(9) 0.45979(11)
C9 C 0.34115(17) 0.08786(9) 0.39527(12)
C10 C 0.66876(16) 0.28697(9) 0.39714(11)
C11 C 0.8168(2) 0.33181(11) 0.37761(14)
C12 C 0.7119(2) 0.37241(10) 0.44453(14)
C13 C 0.78226(15) 0.06942(8) 0.34956(9)
C14 C 0.66599(16) 0.06671(9) 0.26678(10)
C15 C 0.68051(18) 0.00974(9) 0.18973(10)
C16 C 0.80931(19) -0.04497(9) 0.19487(11)
C17 C 0.92451(18) -0.04304(9) 0.27750(10)
C18 C 0.91093(16) 0.01341(8) 0.35423(10)
C19 C 0.36104(15) 0.28136(8) 0.62083(9)
C20 C 0.26589(16) 0.24352(9) 0.68444(10)
C21 C 0.12356(17) 0.28098(9) 0.70131(11)
C22 C 0.07409(17) 0.35686(9) 0.65494(11)
C23 C 0.16781(17) 0.39570(9) 0.59140(11)
C24 C 0.30987(16) 0.35835(9) 0.57469(10)
H1 H 0.9249(18) 0.1831(9) 0.5560(12)
H2 H 0.6075(17) 0.2774(9) 0.6239(11)
H3 H 0.3612(16) 0.2228(9) 0.3850(11)
H4 H 0.6550(18) 0.1283(9) 0.6353(11)
H5 H 0.4560(18) 0.1099(10) 0.6239(11)
H6 H 0.1357(19) 0.1555(9) 0.4272(11)
H7 H 0.2337(19) 0.1105(11) 0.5282(13)
H8 H 0.3026(18) 0.0805(10) 0.3226(12)
H9 H 0.406(2) 0.0401(11) 0.4273(12)
H10 H 0.5844(19) 0.2899(10) 0.3422(12)
H11 H 0.818(2) 0.3564(12) 0.3102(15)
H12 H 0.918(2) 0.3077(12) 0.4100(14)
H13 H 0.749(2) 0.3725(13) 0.5194(16)
H14 H 0.650(2) 0.4244(13) 0.4193(14)
H15 H 0.5765(18) 0.1061(10) 0.2636(11)
H16 H 0.5962(19) 0.0086(10) 0.1320(12)
H17 H 0.8212(19) -0.0844(10) 0.1407(12)
H18 H 1.0158(19) -0.0823(10) 0.2819(12)
H19 H 0.9934(18) 0.0172(9) 0.4116(12)
H20 H 0.3013(18) 0.1892(10) 0.7169(11)
H21 H 0.0625(18) 0.2524(9) 0.7476(11)
H22 H -0.0270(19) 0.3837(10) 0.6654(11)
H23 H 0.1348(19) 0.4501(11) 0.5589(12)
H24 H 0.3732(18) 0.3847(10) 0.5280(12)
loop_
_geom_bond_atom_site_label_1
_geom_bond_atom_site_label_2
_geom_bond_site_symmetry_1
_geom_bond_site_symmetry_2
C1 C2 1_555 1_555
C2 C3 1_555 1_555
C3 C1 1_555 1_555
C4 C3 1_555 1_555
C5 C4 1_555 1_555
C6 C4 1_555 1_555
C7 C4 1_555 1_555
C8 C7 1_555 1_555
C9 C7 1_555 1_555
C10 C3 1_555 1_555
C11 C10 1_555 1_555
C12 C10 1_555 1_555
C13 C1 1_555 1_555
C14 C13 1_555 1_555
C15 C14 1_555 1_555
C16 C15 1_555 1_555
C17 C16 1_555 1_555
C18 C13 1_555 1_555
C19 C5 1_555 1_555
C20 C19 1_555 1_555
C21 C20 1_555 1_555
C22 C21 1_555 1_555
C23 C22 1_555 1_555
C24 C19 1_555 1_555
H1 C2 1_555 1_555
H2 C5 1_555 1_555
H3 C7 1_555 1_555
H4 C6 1_555 1_555
H5 C6 1_555 1_555
H6 C8 1_555 1_555
H7 C8 1_555 1_555
H8 C9 1_555 1_555
H9 C9 1_555 1_555
H10 C10 1_555 1_555
H11 C11 1_555 1_555
H12 C11 1_555 1_555
H13 C12 1_555 1_555
H14 C12 1_555 1_555
H15 C14 1_555 1_555
H16 C15 1_555 1_555
H17 C16 1_555 1_555
H18 C17 1_555 1_555
H19 C18 1_555 1_555
H20 C20 1_555 1_555
H21 C21 1_555 1_555
H22 C22 1_555 1_555
H23 C23 1_555 1_555
H24 C24 1_555 1_555
C5 C6 1_555 1_555
C8 C9 1_555 1_555
C11 C12 1_555 1_555
C17 C18 1_555 1_555
C23 C24 1_555 1_555

#END
