
#######################################################################
#
#                 Cambridge Crystallographic Data Centre
#                                CCDC 
#
#######################################################################
#
# If this CIF has been generated from an entry in the Cambridge 
# Structural Database, then it will include bibliographic, chemical, 
# crystal, experimental, refinement or atomic coordinate data resulting 
# from the CCDC's data processing and validation procedures.
#
#######################################################################

data_OJIQOP
_chemical_formula_moiety         'C19 H16 O1 S1'
_chemical_name_systematic        'biphenyl-4-ylmethyl phenyl sulfoxide'
_symmetry_cell_setting           orthorhombic
_symmetry_space_group_name_H-M   'P c a 21'
_symmetry_Int_Tables_number      29
_space_group_name_Hall           'P 2c -2ac'
loop_
_symmetry_equiv_pos_site_id
_symmetry_equiv_pos_as_xyz
1 x,y,z
2 -x,-y,1/2+z
3 1/2+x,-y,z
4 1/2-x,y,1/2+z
_cell_length_a                   8.1512(5)
_cell_length_b                   5.4945(4)
_cell_length_c                   32.278(2)
_cell_angle_alpha                90
_cell_angle_beta                 90
_cell_angle_gamma                90
_cell_volume                     1445.63
_exptl_crystal_colour            colorless
_exptl_crystal_description       Columnar
_cell_formula_units_Z            4
loop_
_atom_site_label
_atom_site_type_symbol
_atom_site_fract_x
_atom_site_fract_y
_atom_site_fract_z
C1 C 0.5379(4) 0.8249(6) 0.54945(12)
H1 H 0.5426 0.9982 0.5578
H2 H 0.6473 0.7515 0.5541
C2 C 0.4914(4) 0.8044(6) 0.50452(11)
C3 C 0.3961(4) 0.9829(7) 0.48644(13)
H3 H 0.3628 1.1195 0.5024
C4 C 0.3485(5) 0.9659(8) 0.44547(13)
H4 H 0.2819 1.0906 0.4339
C5 C 0.3957(4) 0.7702(7) 0.42071(12)
C6 C 0.4932(5) 0.5916(7) 0.43907(11)
H5 H 0.5282 0.4562 0.4231
C7 C 0.5400(5) 0.6081(7) 0.48030(12)
H6 H 0.6060 0.4837 0.4921
C8 C 0.3452(4) 0.7563(7) 0.37647(12)
C9 C 0.2370(6) 0.9214(9) 0.35899(14)
H7 H 0.1916 1.0455 0.3760
C10 C 0.1929(6) 0.9115(9) 0.31779(13)
H8 H 0.1179 1.0280 0.3071
C11 C 0.2545(5) 0.7390(8) 0.29236(13)
H9 H 0.2233 0.7319 0.2640
C12 C 0.3636(8) 0.5744(14) 0.30859(19)
H10 H 0.4081 0.4514 0.2912
C13 C 0.4098(8) 0.5841(12) 0.34956(18)
H11 H 0.4878 0.4702 0.3597
C14 C 0.4697(4) 0.7228(6) 0.63020(11)
C15 C 0.5714(5) 0.5516(6) 0.64801(12)
H12 H 0.5980 0.4069 0.6334
C16 C 0.6346(5) 0.5914(8) 0.68727(13)
H13 H 0.7065 0.4757 0.6995
C17 C 0.5921(5) 0.8012(7) 0.70867(12)
H14 H 0.6345 0.8277 0.7357
C18 C 0.4889(5) 0.9724(7) 0.69112(12)
H15 H 0.4610 1.1156 0.7060
C19 C 0.4260(5) 0.9342(7) 0.65159(12)
H16 H 0.3544 1.0501 0.6393
O1 O 0.4061(3) 0.3986(5) 0.57192(9)
S1 S 0.38295(9) 0.66446(15) 0.58009(3)
loop_
_geom_bond_atom_site_label_1
_geom_bond_atom_site_label_2
_geom_bond_site_symmetry_1
_geom_bond_site_symmetry_2
C1 H1 1_555 1_555
H2 C1 1_555 1_555
C2 C1 1_555 1_555
C3 C2 1_555 1_555
H3 C3 1_555 1_555
C4 C3 1_555 1_555
H4 C4 1_555 1_555
C5 C4 1_555 1_555
C6 C5 1_555 1_555
H5 C6 1_555 1_555
C7 C2 1_555 1_555
H6 C7 1_555 1_555
C8 C5 1_555 1_555
C9 C8 1_555 1_555
H7 C9 1_555 1_555
C10 C9 1_555 1_555
H8 C10 1_555 1_555
C11 C10 1_555 1_555
H9 C11 1_555 1_555
C12 C11 1_555 1_555
H10 C12 1_555 1_555
C13 C8 1_555 1_555
H11 C13 1_555 1_555
C14 C15 1_555 1_555
C15 H12 1_555 1_555
C16 C15 1_555 1_555
H13 C16 1_555 1_555
C17 C16 1_555 1_555
H14 C17 1_555 1_555
C18 C17 1_555 1_555
H15 C18 1_555 1_555
C19 C14 1_555 1_555
H16 C19 1_555 1_555
O1 S1 1_555 1_555
S1 C1 1_555 1_555
C6 C7 1_555 1_555
C12 C13 1_555 1_555
C14 S1 1_555 1_555
C18 C19 1_555 1_555

#END
