
#######################################################################
#
#                 Cambridge Crystallographic Data Centre
#                                CCDC 
#
#######################################################################
#
# If this CIF has been generated from an entry in the Cambridge 
# Structural Database, then it will include bibliographic, chemical, 
# crystal, experimental, refinement or atomic coordinate data resulting 
# from the CCDC's data processing and validation procedures.
#
#######################################################################

data_OJIROP
_chemical_formula_moiety         'C19 H13 Br1 N2 O2'
_chemical_name_systematic        
2-Amino-4-(2-bromophenyl)-4H,5H-pyrano[3,2-c]chromene-3-carbonitrile
_symmetry_cell_setting           orthorhombic
_symmetry_space_group_name_H-M   'P 21 21 21'
_symmetry_Int_Tables_number      19
_space_group_name_Hall           'P 2ac 2ab'
loop_
_symmetry_equiv_pos_site_id
_symmetry_equiv_pos_as_xyz
1 x,y,z
2 1/2-x,-y,1/2+z
3 -x,1/2+y,1/2-z
4 1/2+x,1/2-y,-z
_cell_length_a                   6.6093(4)
_cell_length_b                   10.9299(7)
_cell_length_c                   22.8035(15)
_cell_angle_alpha                90
_cell_angle_beta                 90
_cell_angle_gamma                90
_cell_volume                     1647.3
_exptl_crystal_colour            yellow
_exptl_crystal_description       'thin plate'
_cell_formula_units_Z            4
loop_
_atom_site_label
_atom_site_type_symbol
_atom_site_fract_x
_atom_site_fract_y
_atom_site_fract_z
Br1 Br 0.63716(9) 0.71233(5) 0.45704(2)
O1 O 0.1775(4) 0.3383(3) 0.30627(11)
O2 O -0.0954(5) 0.4354(3) 0.46356(11)
N1 N 0.4026(7) 0.3449(4) 0.23519(17)
H1 H 0.348(8) 0.282(5) 0.225(2)
H2 H 0.506(9) 0.364(5) 0.221(2)
N2 N 0.7699(6) 0.5695(3) 0.27388(17)
C1 C 0.3509(6) 0.3917(3) 0.28789(15)
C2 C 0.4464(6) 0.4805(3) 0.31816(15)
C3 C 0.3695(6) 0.5306(3) 0.37645(15)
H3 H 0.4753 0.5173 0.4065
C4 C 0.1860(6) 0.4581(3) 0.39342(15)
C5 C 0.0978(8) 0.4831(4) 0.45300(17)
H4 H 0.1903 0.4499 0.4826
H5 H 0.0925 0.5719 0.4587
C6 C -0.1734(6) 0.3450(3) 0.42949(17)
C7 C -0.3557(6) 0.2918(4) 0.44640(17)
H6 H -0.4186 0.3169 0.4814
C8 C -0.4441(7) 0.2030(4) 0.4123(2)
H7 H -0.5687 0.1687 0.4236
C9 C -0.3494(8) 0.1638(4) 0.3613(2)
H8 H -0.4083 0.1017 0.3384
C10 C -0.1689(7) 0.2161(4) 0.34409(18)
H9 H -0.1055 0.1891 0.3095
C11 C -0.0799(6) 0.3080(3) 0.37702(15)
C12 C 0.1022(6) 0.3724(3) 0.36068(15)
C13 C 0.6253(7) 0.5290(3) 0.29418(16)
C14 C 0.3222(5) 0.6679(3) 0.37372(14)
C15 C 0.4214(5) 0.7560(3) 0.40643(15)
C16 C 0.3673(7) 0.8784(3) 0.40390(16)
H10 H 0.4373 0.9363 0.4266
C17 C 0.2131(7) 0.9145(4) 0.36852(18)
H11 H 0.1756 0.9974 0.3670
C18 C 0.1113(7) 0.8298(4) 0.33479(19)
H12 H 0.0052 0.8550 0.3101
C19 C 0.1653(6) 0.7085(4) 0.33725(17)
H13 H 0.0955 0.6515 0.3140
loop_
_geom_bond_atom_site_label_1
_geom_bond_atom_site_label_2
_geom_bond_site_symmetry_1
_geom_bond_site_symmetry_2
Br1 C15 1_555 1_555
O1 C1 1_555 1_555
O2 C5 1_555 1_555
N1 H1 1_555 1_555
H2 N1 1_555 1_555
N2 C13 1_555 1_555
C1 N1 1_555 1_555
C2 C1 1_555 1_555
C3 C2 1_555 1_555
H3 C3 1_555 1_555
C4 C3 1_555 1_555
C5 C4 1_555 1_555
H4 C5 1_555 1_555
H5 C5 1_555 1_555
C6 O2 1_555 1_555
C7 C6 1_555 1_555
H6 C7 1_555 1_555
C8 C7 1_555 1_555
H7 C8 1_555 1_555
C9 C8 1_555 1_555
H8 C9 1_555 1_555
C10 C9 1_555 1_555
H9 C10 1_555 1_555
C11 C6 1_555 1_555
C12 O1 1_555 1_555
C13 C2 1_555 1_555
C14 C3 1_555 1_555
C15 C14 1_555 1_555
C16 C15 1_555 1_555
H10 C16 1_555 1_555
C17 C16 1_555 1_555
H11 C17 1_555 1_555
C18 C17 1_555 1_555
H12 C18 1_555 1_555
C19 C14 1_555 1_555
H13 C19 1_555 1_555
C4 C12 1_555 1_555
C10 C11 1_555 1_555
C11 C12 1_555 1_555
C18 C19 1_555 1_555

#END
