
#######################################################################
#
#                 Cambridge Crystallographic Data Centre
#                                CCDC 
#
#######################################################################
#
# If this CIF has been generated from an entry in the Cambridge 
# Structural Database, then it will include bibliographic, chemical, 
# crystal, experimental, refinement or atomic coordinate data resulting 
# from the CCDC's data processing and validation procedures.
#
#######################################################################

data_OJITEI
_chemical_formula_moiety         'C22 H29 Cl1 N4 S1'
_chemical_name_systematic        
3-(4-chlorophenyl)-N^4^,N^5^-dicyclohexyl-N^2^-methyl-1,3-thiazolidine-2,4,5-triimine
_symmetry_cell_setting           monoclinic
_symmetry_space_group_name_H-M   'P 21/n'
_symmetry_Int_Tables_number      14
_space_group_name_Hall           '-P 2yn'
loop_
_symmetry_equiv_pos_site_id
_symmetry_equiv_pos_as_xyz
1 x,y,z
2 1/2-x,1/2+y,1/2-z
3 -x,-y,-z
4 1/2+x,1/2-y,1/2+z
_cell_length_a                   14.717(3)
_cell_length_b                   14.929(3)
_cell_length_c                   20.390(4)
_cell_angle_alpha                90
_cell_angle_beta                 95.83(3)
_cell_angle_gamma                90
_cell_volume                     4456.72
_exptl_crystal_colour            colorless
_exptl_crystal_description       rod
_cell_formula_units_Z            8
loop_
_atom_site_label
_atom_site_type_symbol
_atom_site_fract_x
_atom_site_fract_y
_atom_site_fract_z
Cl1 Cl 0.23754(5) 0.26315(6) 0.66854(5)
S1 S 0.80943(4) 0.24199(4) 0.66224(3)
N1 N 0.63220(13) 0.24736(14) 0.63193(10)
N2 N 0.67688(14) 0.26721(14) 0.74444(10)
N3 N 0.81395(14) 0.21249(16) 0.53035(11)
N4 N 0.60619(14) 0.21881(15) 0.52045(10)
C1 C 0.35324(17) 0.2594(2) 0.65602(13)
C2 C 0.40757(17) 0.33273(19) 0.67268(12)
H1 H 0.3827 0.3841 0.6895
C3 C 0.50025(17) 0.32906(18) 0.66397(12)
H2 H 0.5377 0.3782 0.6747
C4 C 0.53627(15) 0.25194(17) 0.63933(12)
C5 C 0.48046(17) 0.17891(18) 0.62192(13)
H3 H 0.5049 0.1275 0.6049
C6 C 0.38781(17) 0.18290(19) 0.63007(14)
H4 H 0.3498 0.1346 0.6182
C7 C 0.69692(16) 0.25463(16) 0.68651(12)
C8 C 0.76675(16) 0.22458(16) 0.57796(12)
C9 C 0.66369(16) 0.22846(16) 0.57017(12)
C10 C 0.75219(18) 0.27060(19) 0.79729(13)
H5 H 0.7903 0.3213 0.7907
H6 H 0.7876 0.2167 0.7967
H7 H 0.7279 0.2760 0.8391
C11 C 0.91424(16) 0.21432(19) 0.54212(13)
H8 H 0.9320 0.2191 0.5896
C12 C 0.94824(19) 0.2963(2) 0.50827(16)
H9 H 0.9248 0.3498 0.5277
H10 H 0.9255 0.2952 0.4619
C13 C 1.0529(2) 0.2997(2) 0.51500(17)
H11 H 1.0727 0.3510 0.4910
H12 H 1.0754 0.3070 0.5611
C14 C 1.0930(2) 0.2155(2) 0.48871(16)
H13 H 1.1591 0.2179 0.4964
H14 H 1.0765 0.2117 0.4415
C15 C 1.05862(19) 0.1331(2) 0.52179(19)
H15 H 1.0825 0.1331 0.5679
H16 H 1.0814 0.0800 0.5015
C16 C 0.95410(18) 0.12909(19) 0.51675(16)
H17 H 0.9304 0.1200 0.4711
H18 H 0.9355 0.0785 0.5421
C17 C 0.62842(16) 0.20004(18) 0.45343(12)
H19 H 0.6815 0.1601 0.4551
C18 C 0.64905(18) 0.28673(18) 0.41847(13)
H20 H 0.5997 0.3289 0.4221
H21 H 0.7047 0.3129 0.4399
C19 C 0.6603(2) 0.2713(2) 0.34609(14)
H22 H 0.7130 0.2333 0.3423
H23 H 0.6709 0.3282 0.3252
C20 C 0.5751(2) 0.2270(2) 0.31077(14)
H24 H 0.5234 0.2672 0.3111
H25 H 0.5849 0.2153 0.2652
C21 C 0.55472(18) 0.13971(19) 0.34452(13)
H26 H 0.6037 0.0974 0.3398
H27 H 0.4987 0.1144 0.3232
C22 C 0.54486(17) 0.15338(19) 0.41744(13)
H28 H 0.5365 0.0957 0.4378
H29 H 0.4909 0.1892 0.4220
Cl2 Cl 0.27669(5) 0.47980(6) 0.83465(5)
S2 S 0.84547(4) 0.51407(4) 0.82877(3)
N5 N 0.66965(13) 0.50032(14) 0.79384(10)
N6 N 0.70928(14) 0.47927(15) 0.90680(10)
N7 N 0.85485(13) 0.54163(15) 0.69690(10)
N8 N 0.64847(13) 0.52896(14) 0.68139(10)
C23 C 0.39176(16) 0.48528(19) 0.82036(13)
C24 C 0.42580(17) 0.56358(19) 0.79729(14)
H30 H 0.3880 0.6129 0.7883
C25 C 0.51802(16) 0.56778(18) 0.78758(13)
H31 H 0.5423 0.6204 0.7723
C26 C 0.57342(15) 0.49386(17) 0.80070(12)
C27 C 0.53759(17) 0.41499(18) 0.82187(12)
H32 H 0.5747 0.3649 0.8293
C28 C 0.44597(17) 0.41064(19) 0.83202(13)
H33 H 0.4213 0.3578 0.8466
C29 C 0.73214(15) 0.49515(16) 0.84993(12)
C30 C 0.80600(15) 0.52898(16) 0.74357(12)
C31 C 0.70301(15) 0.52075(16) 0.73325(12)
C32 C 0.77965(19) 0.4749(2) 0.96217(13)
H34 H 0.8310 0.5106 0.9528
H35 H 0.7987 0.4139 0.9693
H36 H 0.7557 0.4974 1.0010
C33 C 0.95473(15) 0.54406(18) 0.70790(12)
H37 H 0.9742 0.5384 0.7551
C34 C 0.98985(18) 0.63166(18) 0.68230(15)
H38 H 0.9697 0.6809 0.7083
H39 H 0.9644 0.6404 0.6370
C35 C 1.09445(18) 0.6323(2) 0.68580(16)
H40 H 1.1145 0.6877 0.6670
H41 H 1.1198 0.6300 0.7316
C36 C 1.13007(18) 0.5536(2) 0.64890(15)
H42 H 1.1104 0.5593 0.6022
H43 H 1.1963 0.5537 0.6545
C37 C 1.09513(18) 0.46628(19) 0.67424(15)
H44 H 1.1208 0.4574 0.7195
H45 H 1.1153 0.4172 0.6481
C38 C 0.99085(17) 0.46505(19) 0.67110(15)
H46 H 0.9652 0.4669 0.6254
H47 H 0.9713 0.4096 0.6902
C39 C 0.68033(16) 0.55210(16) 0.61760(12)
H48 H 0.7329 0.5924 0.6253
C40 C 0.60407(18) 0.6008(2) 0.57543(13)
H49 H 0.5514 0.5617 0.5676
H50 H 0.5858 0.6534 0.5987
C41 C 0.6362(2) 0.6288(2) 0.50966(14)
H51 H 0.6846 0.6729 0.5174
H52 H 0.5859 0.6566 0.4826
C42 C 0.6714(2) 0.5489(2) 0.47271(14)
H53 H 0.6209 0.5093 0.4587
H54 H 0.6973 0.5700 0.4336
C43 C 0.74412(18) 0.49670(19) 0.51610(13)
H55 H 0.7611 0.4436 0.4928
H56 H 0.7982 0.5336 0.5250
C44 C 0.70927(17) 0.46920(17) 0.58105(12)
H57 H 0.7570 0.4377 0.6081
H58 H 0.6576 0.4290 0.5725
loop_
_geom_bond_atom_site_label_1
_geom_bond_atom_site_label_2
_geom_bond_site_symmetry_1
_geom_bond_site_symmetry_2
Cl1 C1 1_555 1_555
S1 C7 1_555 1_555
N1 C4 1_555 1_555
N2 C7 1_555 1_555
N3 C8 1_555 1_555
N4 C9 1_555 1_555
C1 C2 1_555 1_555
C2 H1 1_555 1_555
C3 C2 1_555 1_555
H2 C3 1_555 1_555
C4 C3 1_555 1_555
C5 C4 1_555 1_555
H3 C5 1_555 1_555
C6 C1 1_555 1_555
H4 C6 1_555 1_555
C7 N1 1_555 1_555
C8 S1 1_555 1_555
C9 N1 1_555 1_555
C10 N2 1_555 1_555
H5 C10 1_555 1_555
H6 C10 1_555 1_555
H7 C10 1_555 1_555
C11 N3 1_555 1_555
H8 C11 1_555 1_555
C12 C11 1_555 1_555
H9 C12 1_555 1_555
H10 C12 1_555 1_555
C13 C12 1_555 1_555
H11 C13 1_555 1_555
H12 C13 1_555 1_555
C14 C13 1_555 1_555
H13 C14 1_555 1_555
H14 C14 1_555 1_555
C15 C14 1_555 1_555
H15 C15 1_555 1_555
H16 C15 1_555 1_555
C16 C11 1_555 1_555
H17 C16 1_555 1_555
H18 C16 1_555 1_555
C17 N4 1_555 1_555
H19 C17 1_555 1_555
C18 C17 1_555 1_555
H20 C18 1_555 1_555
H21 C18 1_555 1_555
C19 C18 1_555 1_555
H22 C19 1_555 1_555
H23 C19 1_555 1_555
C20 C19 1_555 1_555
H24 C20 1_555 1_555
H25 C20 1_555 1_555
C21 C20 1_555 1_555
H26 C21 1_555 1_555
H27 C21 1_555 1_555
C22 C17 1_555 1_555
H28 C22 1_555 1_555
H29 C22 1_555 1_555
Cl2 C23 1_555 1_555
S2 C29 1_555 1_555
N5 C26 1_555 1_555
N6 C29 1_555 1_555
N7 C30 1_555 1_555
N8 C31 1_555 1_555
C23 C24 1_555 1_555
C24 H30 1_555 1_555
C25 C24 1_555 1_555
H31 C25 1_555 1_555
C26 C25 1_555 1_555
C27 C26 1_555 1_555
H32 C27 1_555 1_555
C28 C23 1_555 1_555
H33 C28 1_555 1_555
C29 N5 1_555 1_555
C30 S2 1_555 1_555
C31 N5 1_555 1_555
C32 N6 1_555 1_555
H34 C32 1_555 1_555
H35 C32 1_555 1_555
H36 C32 1_555 1_555
C33 N7 1_555 1_555
H37 C33 1_555 1_555
C34 C33 1_555 1_555
H38 C34 1_555 1_555
H39 C34 1_555 1_555
C35 C34 1_555 1_555
H40 C35 1_555 1_555
H41 C35 1_555 1_555
C36 C35 1_555 1_555
H42 C36 1_555 1_555
H43 C36 1_555 1_555
C37 C36 1_555 1_555
H44 C37 1_555 1_555
H45 C37 1_555 1_555
C38 C33 1_555 1_555
H46 C38 1_555 1_555
H47 C38 1_555 1_555
C39 N8 1_555 1_555
H48 C39 1_555 1_555
C40 C39 1_555 1_555
H49 C40 1_555 1_555
H50 C40 1_555 1_555
C41 C40 1_555 1_555
H51 C41 1_555 1_555
H52 C41 1_555 1_555
C42 C41 1_555 1_555
H53 C42 1_555 1_555
H54 C42 1_555 1_555
C43 C42 1_555 1_555
H55 C43 1_555 1_555
H56 C43 1_555 1_555
C44 C39 1_555 1_555
H57 C44 1_555 1_555
H58 C44 1_555 1_555
C5 C6 1_555 1_555
C8 C9 1_555 1_555
C15 C16 1_555 1_555
C21 C22 1_555 1_555
C27 C28 1_555 1_555
C30 C31 1_555 1_555
C37 C38 1_555 1_555
C43 C44 1_555 1_555

#END
