
#######################################################################
#
#                 Cambridge Crystallographic Data Centre
#                                CCDC 
#
#######################################################################
#
# If this CIF has been generated from an entry in the Cambridge 
# Structural Database, then it will include bibliographic, chemical, 
# crystal, experimental, refinement or atomic coordinate data resulting 
# from the CCDC's data processing and validation procedures.
#
#######################################################################

data_OJIVOU
_chemical_formula_moiety         '2(C1 H5 N6 1+),O4 S1 2-'
_chemical_name_systematic        'bis(1,5-diamino-1H-tetrazol-4-ium) sulfate'
_symmetry_cell_setting           monoclinic
_symmetry_space_group_name_H-M   'P 21/c'
_symmetry_Int_Tables_number      14
_space_group_name_Hall           '-P 2ybc'
loop_
_symmetry_equiv_pos_site_id
_symmetry_equiv_pos_as_xyz
1 x,y,z
2 -x,1/2+y,1/2-z
3 -x,-y,-z
4 x,1/2-y,1/2+z
_cell_length_a                   14.036(4)
_cell_length_b                   6.4584(17)
_cell_length_c                   13.894(4)
_cell_angle_alpha                90
_cell_angle_beta                 118.834(3)
_cell_angle_gamma                90
_cell_volume                     1103.34
_exptl_crystal_colour            colorless
_exptl_crystal_description       Prism
_cell_formula_units_Z            4
loop_
_atom_site_label
_atom_site_type_symbol
_atom_site_fract_x
_atom_site_fract_y
_atom_site_fract_z
S1 S 0.74468(3) 0.37034(6) 0.26412(3)
O1 O 0.81326(10) 0.53859(19) 0.33271(10)
O2 O 0.74134(11) 0.1940(2) 0.32866(10)
O3 O 0.78440(15) 0.2968(2) 0.18931(13)
O4 O 0.63286(11) 0.4506(2) 0.19550(17)
N1 N 0.88998(12) 0.5787(2) 0.13704(12)
N2 N 0.92780(13) 0.5498(2) 0.06368(12)
N3 N 0.94766(12) 0.7265(2) 0.03706(12)
N4 N 0.92336(11) 0.8728(2) 0.09368(11)
N5 N 0.93202(13) 1.0854(2) 0.08502(12)
N6 N 0.85525(12) 0.8710(2) 0.22084(12)
C1 C 0.88613(12) 0.7810(2) 0.15562(13)
H1 H 0.858(2) 0.475(4) 0.157(2)
H2 H 0.8814(19) 1.126(4) 0.017(2)
H3 H 0.998(2) 1.109(4) 0.091(2)
H4 H 0.8359(19) 0.792(4) 0.2637(19)
H5 H 0.841(2) 1.001(4) 0.216(2)
N7 N 0.47686(12) 0.1751(2) 0.11989(13)
N8 N 0.36741(12) 0.2031(2) 0.05348(13)
N9 N 0.32299(12) 0.0262(2) 0.02368(13)
N10 N 0.40344(11) -0.1200(2) 0.06918(11)
N11 N 0.38787(12) -0.3333(2) 0.05942(13)
N12 N 0.59486(12) -0.1186(2) 0.18774(14)
C2 C 0.49984(13) -0.0274(3) 0.13093(13)
H6 H 0.522(2) 0.281(4) 0.143(2)
H7 H 0.3611(18) -0.368(4) -0.010(2)
H8 H 0.3401(19) -0.360(4) 0.083(2)
H9 H 0.651(2) -0.042(4) 0.236(2)
H10 H 0.601(2) -0.251(4) 0.184(2)
loop_
_geom_bond_atom_site_label_1
_geom_bond_atom_site_label_2
_geom_bond_site_symmetry_1
_geom_bond_site_symmetry_2
S1 O1 1_555 1_555
O2 S1 1_555 1_555
O3 S1 1_555 1_555
O4 S1 1_555 1_555
N1 N2 1_555 1_555
N2 N3 1_555 1_555
N3 N4 1_555 1_555
N4 N5 1_555 1_555
N5 H2 1_555 1_555
N6 C1 1_555 1_555
C1 N1 1_555 1_555
H1 N1 1_555 1_555
H3 N5 1_555 1_555
H4 N6 1_555 1_555
H5 N6 1_555 1_555
N7 N8 1_555 1_555
N8 N9 1_555 1_555
N9 N10 1_555 1_555
N10 N11 1_555 1_555
N11 H7 1_555 1_555
N12 C2 1_555 1_555
C2 N7 1_555 1_555
H6 N7 1_555 1_555
H8 N11 1_555 1_555
H9 N12 1_555 1_555
H10 N12 1_555 1_555
N4 C1 1_555 1_555
N10 C2 1_555 1_555

#END
