
#######################################################################
#
#                 Cambridge Crystallographic Data Centre
#                                CCDC 
#
#######################################################################
#
# If this CIF has been generated from an entry in the Cambridge 
# Structural Database, then it will include bibliographic, chemical, 
# crystal, experimental, refinement or atomic coordinate data resulting 
# from the CCDC's data processing and validation procedures.
#
#######################################################################

data_OJIXUB
_chemical_formula_moiety         'C23 H26 N2 O2'
_chemical_name_systematic        
2,3-Dimethoxy-9,9-dimethyl-5,6,8,9,14,14b-hexahydroindolo[2',3':3,4]pyrido[2,1-a]isoquinoline
_symmetry_cell_setting           monoclinic
_symmetry_space_group_name_H-M   'P 21/c'
_symmetry_Int_Tables_number      14
_space_group_name_Hall           '-P 2ybc'
loop_
_symmetry_equiv_pos_site_id
_symmetry_equiv_pos_as_xyz
1 x,y,z
2 -x,1/2+y,1/2-z
3 -x,-y,-z
4 x,1/2-y,1/2+z
_cell_length_a                   8.9485(5)
_cell_length_b                   12.2725(7)
_cell_length_c                   17.1292(10)
_cell_angle_alpha                90
_cell_angle_beta                 93.113(1)
_cell_angle_gamma                90
_cell_volume                     1878.36
_exptl_crystal_colour            colorless
_exptl_crystal_description       rod
_cell_formula_units_Z            4
loop_
_atom_site_label
_atom_site_type_symbol
_atom_site_fract_x
_atom_site_fract_y
_atom_site_fract_z
N1 N 0.21893(9) 0.50876(7) 0.19827(5)
H1 H 0.1550(17) 0.5165(12) 0.1593(9)
N2 N 0.56325(9) 0.36802(7) 0.13770(5)
O1 O 0.07080(8) 0.54541(6) -0.09280(4)
O2 O 0.05985(8) 0.34781(6) -0.14285(4)
C1 C 0.36243(10) 0.46790(7) 0.19491(5)
C2 C 0.42476(10) 0.45243(7) 0.26929(5)
C3 C 0.31510(10) 0.48714(7) 0.32236(5)
C4 C 0.31080(10) 0.49530(8) 0.40415(5)
H2 H 0.3951 0.4745 0.4368
C5 C 0.18262(11) 0.53393(8) 0.43659(5)
H3 H 0.1802 0.5404 0.4918
C6 C 0.05613(11) 0.56366(8) 0.38911(6)
H4 H -0.0311 0.5887 0.4128
C7 C 0.05657(10) 0.55701(8) 0.30820(5)
H5 H -0.0291 0.5766 0.2761
C8 C 0.18722(10) 0.52058(7) 0.27571(5)
C9 C 0.44577(10) 0.44991(8) 0.12110(5)
H6 H 0.4969 0.5199 0.1092
C10 C 0.65563(10) 0.39713(9) 0.20760(5)
H7 H 0.7027 0.4685 0.1980
H8 H 0.7373 0.3429 0.2139
C11 C 0.57838(10) 0.40458(8) 0.28618(5)
C12 C 0.67597(11) 0.47811(9) 0.34037(6)
H9 H 0.6334 0.4816 0.3918
H10 H 0.6794 0.5515 0.3180
H11 H 0.7776 0.4482 0.3459
C13 C 0.56801(12) 0.29228(9) 0.32629(6)
H12 H 0.5046 0.2437 0.2934
H13 H 0.5244 0.3011 0.3772
H14 H 0.6684 0.2608 0.3338
C14 C 0.50161(12) 0.25782(8) 0.13779(6)
H15 H 0.4159 0.2545 0.1719
H16 H 0.5788 0.2057 0.1579
C15 C 0.45058(12) 0.22843(8) 0.05449(6)
H17 H 0.5390 0.2206 0.0226
H18 H 0.3974 0.1577 0.0542
C16 C 0.34823(11) 0.31465(8) 0.01911(5)
C17 C 0.34775(10) 0.41965(8) 0.04940(5)
C18 C 0.25754(10) 0.50002(8) 0.01200(5)
H19 H 0.2604 0.5726 0.0314
C19 C 0.16459(10) 0.47461(8) -0.05272(5)
C20 C 0.16110(10) 0.36706(8) -0.08132(5)
C21 C 0.25354(11) 0.28909(8) -0.04632(5)
H20 H 0.2530 0.2171 -0.0668
C22 C 0.08057(12) 0.65789(8) -0.07148(6)
H21 H 0.1829 0.6839 -0.0773
H22 H 0.0545 0.6665 -0.0170
H23 H 0.0110 0.7004 -0.1055
C23 C 0.05575(15) 0.23925(9) -0.17332(7)
H24 H 0.0317 0.1882 -0.1318
H25 H 0.1536 0.2208 -0.1927
H26 H -0.0209 0.2344 -0.2163
loop_
_geom_bond_atom_site_label_1
_geom_bond_atom_site_label_2
_geom_bond_site_symmetry_1
_geom_bond_site_symmetry_2
N1 H1 1_555 1_555
N2 C9 1_555 1_555
O1 C19 1_555 1_555
O2 C20 1_555 1_555
C1 N1 1_555 1_555
C2 C1 1_555 1_555
C3 C2 1_555 1_555
C4 C3 1_555 1_555
H2 C4 1_555 1_555
C5 C4 1_555 1_555
H3 C5 1_555 1_555
C6 C5 1_555 1_555
H4 C6 1_555 1_555
C7 C6 1_555 1_555
H5 C7 1_555 1_555
C8 N1 1_555 1_555
C9 C1 1_555 1_555
H6 C9 1_555 1_555
C10 N2 1_555 1_555
H7 C10 1_555 1_555
H8 C10 1_555 1_555
C11 C2 1_555 1_555
C12 C11 1_555 1_555
H9 C12 1_555 1_555
H10 C12 1_555 1_555
H11 C12 1_555 1_555
C13 C11 1_555 1_555
H12 C13 1_555 1_555
H13 C13 1_555 1_555
H14 C13 1_555 1_555
C14 N2 1_555 1_555
H15 C14 1_555 1_555
H16 C14 1_555 1_555
C15 C14 1_555 1_555
H17 C15 1_555 1_555
H18 C15 1_555 1_555
C16 C15 1_555 1_555
C17 C9 1_555 1_555
C18 C17 1_555 1_555
H19 C18 1_555 1_555
C19 C18 1_555 1_555
C20 C19 1_555 1_555
C21 C16 1_555 1_555
H20 C21 1_555 1_555
C22 O1 1_555 1_555
H21 C22 1_555 1_555
H22 C22 1_555 1_555
H23 C22 1_555 1_555
C23 O2 1_555 1_555
H24 C23 1_555 1_555
H25 C23 1_555 1_555
H26 C23 1_555 1_555
C3 C8 1_555 1_555
C7 C8 1_555 1_555
C10 C11 1_555 1_555
C16 C17 1_555 1_555
C20 C21 1_555 1_555

#END
