
#######################################################################
#
#                 Cambridge Crystallographic Data Centre
#                                CCDC 
#
#######################################################################
#
# If this CIF has been generated from an entry in the Cambridge 
# Structural Database, then it will include bibliographic, chemical, 
# crystal, experimental, refinement or atomic coordinate data resulting 
# from the CCDC's data processing and validation procedures.
#
#######################################################################

data_OJIYIQ
_chemical_formula_moiety         'C57 H65 F3 Si2'
_chemical_name_systematic        
((2-(Trifluoromethyl)pentacene-6,13-diyl)diethyne-2,1-diyl)bis(tricyclopentylsilane)
_symmetry_cell_setting           monoclinic
_symmetry_space_group_name_H-M   'P 21/c'
_symmetry_Int_Tables_number      14
_space_group_name_Hall           '-P 2ybc'
loop_
_symmetry_equiv_pos_site_id
_symmetry_equiv_pos_as_xyz
1 x,y,z
2 -x,1/2+y,1/2-z
3 -x,-y,-z
4 x,1/2-y,1/2+z
_cell_length_a                   14.7922(3)
_cell_length_b                   17.7744(4)
_cell_length_c                   18.0925(4)
_cell_angle_alpha                90
_cell_angle_beta                 98.265(1)
_cell_angle_gamma                90
_cell_volume                     4707.52
_exptl_crystal_colour            blue
_exptl_crystal_description       slab
_cell_formula_units_Z            4
loop_
_atom_site_label
_atom_site_type_symbol
_atom_site_fract_x
_atom_site_fract_y
_atom_site_fract_z
Si1 Si 0.25055(7) 1.03686(6) 0.74792(6)
C1 C 0.2291(2) 0.7885(2) 0.70766(19)
C2 C 0.2590(2) 0.7552(2) 0.64428(19)
C3 C 0.2924(2) 0.7991(2) 0.5894(2)
H1 H 0.2937 0.8523 0.5944
C4 C 0.3236(2) 0.7663(2) 0.5282(2)
C5 C 0.3620(3) 0.8111(2) 0.4740(2)
H2 H 0.3646 0.8643 0.4790
C6 C 0.3943(3) 0.7771(2) 0.4159(2)
C7 C 0.3893(3) 0.6977(2) 0.4059(2)
H3 H 0.4117 0.6752 0.3645
C8 C 0.3527(2) 0.6541(2) 0.4553(2)
H4 H 0.3488 0.6012 0.4478
C9 C 0.3197(2) 0.6866(2) 0.5187(2)
C10 C 0.2861(2) 0.6427(2) 0.57185(19)
H5 H 0.2825 0.5897 0.5651
C11 C 0.2571(2) 0.6748(2) 0.63574(19)
C12 C 0.2291(2) 0.6292(2) 0.6926(2)
C13 C 0.1982(2) 0.6629(2) 0.75561(19)
C14 C 0.1710(3) 0.6186(2) 0.8131(2)
H6 H 0.1733 0.5653 0.8093
C15 C 0.1410(3) 0.6507(2) 0.8753(2)
C16 C 0.1168(3) 0.6059(2) 0.9355(2)
H7 H 0.1206 0.5527 0.9330
C17 C 0.0884(3) 0.6388(3) 0.9960(2)
H8 H 0.0748 0.6084 1.0361
C18 C 0.0790(3) 0.7177(3) 0.9999(2)
H9 H 0.0568 0.7397 1.0417
C19 C 0.1014(3) 0.7626(2) 0.9445(2)
H10 H 0.0946 0.8156 0.9479
C20 C 0.1353(2) 0.7307(2) 0.88101(19)
C21 C 0.1639(2) 0.7747(2) 0.82565(19)
H11 H 0.1616 0.8279 0.8300
C22 C 0.1963(2) 0.7432(2) 0.76302(18)
C23 C 0.2340(2) 0.8681(2) 0.71812(19)
C24 C 0.2401(2) 0.9343(2) 0.7290(2)
C25 C 0.1699(3) 1.0589(2) 0.8162(2)
H12 H 0.1823 1.1118 0.8336
C26 C 0.1801(3) 1.0080(2) 0.8867(2)
H13 H 0.2108 0.9602 0.8772
H14 H 0.2165 1.0338 0.9295
C27 C 0.0819(3) 0.9927(3) 0.9033(3)
H15 H 0.0640 0.9400 0.8911
H16 H 0.0779 1.0018 0.9567
C28 C 0.0209(3) 1.0462(3) 0.8549(3)
H17 H 0.0175 1.0955 0.8799
H18 H -0.0415 1.0255 0.8424
C29 C 0.0676(3) 1.0536(3) 0.7852(3)
H19 H 0.0466 1.0993 0.7565
H20 H 0.0550 1.0091 0.7524
C30 C 0.2236(3) 1.0853(2) 0.6554(2)
H21 H 0.2333 1.1407 0.6627
C31 C 0.1283(3) 1.0718(3) 0.6112(2)
H22 H 0.1098 1.0185 0.6144
H23 H 0.0820 1.1041 0.6298
C32 C 0.1404(6) 1.0929(5) 0.5310(4)
H24 H 0.1021 1.0601 0.4949
H25 H 0.1220 1.1458 0.5206
C33 C 0.2410(5) 1.0823(4) 0.5241(4)
H26 H 0.2681 1.1304 0.5103
H27 H 0.2484 1.0444 0.4854
C34 C 0.2874(5) 1.0558(6) 0.6004(4)
H28 H 0.3494 1.0775 0.6122
H29 H 0.2919 1.0003 0.6022
C35 C 0.3732(3) 1.0587(2) 0.7858(2)
H30 H 0.4110 1.0432 0.7468
C36 C 0.3923(3) 1.1423(2) 0.8015(2)
H31 H 0.3412 1.1657 0.8230
H32 H 0.4001 1.1691 0.7549
C37 C 0.4809(3) 1.1456(2) 0.8576(2)
H33 H 0.5312 1.1676 0.8339
H34 H 0.4721 1.1768 0.9014
C38 C 0.5030(3) 1.0642(2) 0.8814(3)
H35 H 0.5525 1.0440 0.8557
H36 H 0.5223 1.0611 0.9361
C39 C 0.4148(3) 1.0209(2) 0.8588(2)
H37 H 0.3737 1.0254 0.8972
H38 H 0.4272 0.9670 0.8509
C40 C 0.2353(2) 0.5489(2) 0.6885(2)
C41 C 0.2409(2) 0.4815(2) 0.6895(2)
Si2 Si 0.24814(7) 0.37868(6) 0.70580(6)
C42 C 0.1370(3) 0.3496(2) 0.7364(2)
H39 H 0.0885 0.3560 0.6923
C43 C 0.1054(3) 0.3929(2) 0.8012(2)
H40 H 0.1561 0.3989 0.8429
H41 H 0.0822 0.4433 0.7848
C44 C 0.0293(3) 0.3443(2) 0.8247(3)
H42 H 0.0281 0.3488 0.8791
H43 H -0.0308 0.3600 0.7979
C45 C 0.0508(3) 0.2636(2) 0.8042(2)
H44 H 0.0655 0.2326 0.8499
H45 H -0.0022 0.2409 0.7724
C46 C 0.1323(3) 0.2675(2) 0.7623(3)
H46 H 0.1239 0.2331 0.7188
H47 H 0.1890 0.2535 0.7953
C47 C 0.3492(3) 0.3604(3) 0.7785(2)
H48 H 0.3555 0.3044 0.7816
C48 C 0.3435(9) 0.3869(9) 0.8581(6)
H49 H 0.3055 0.3524 0.8836
H50 H 0.3176 0.4383 0.8581
C49 C 0.4447(9) 0.3857(12) 0.8961(7)
H51 H 0.4540 0.4204 0.9394
H52 H 0.4632 0.3344 0.9133
C50 C 0.4975(7) 0.4112(9) 0.8360(8)
H53 H 0.5580 0.3864 0.8416
H54 H 0.5069 0.4664 0.8387
C51 C 0.4419(10) 0.390(2) 0.7624(7)
H55 H 0.4739 0.3504 0.7375
H56 H 0.4330 0.4342 0.7291
C52 C 0.2610(3) 0.3281(2) 0.6173(2)
H57 H 0.2809 0.2755 0.6309
C53 C 0.3275(6) 0.3603(4) 0.5674(4)
H58 H 0.3186 0.4151 0.5602
H59 H 0.3917 0.3506 0.5893
C54 C 0.3030(8) 0.3181(5) 0.4931(4)
H60 H 0.3169 0.3494 0.4509
H61 H 0.3381 0.2706 0.4937
C55 C 0.2021(8) 0.3021(4) 0.4859(3)
H62 H 0.1898 0.2482 0.4746
H63 H 0.1682 0.3327 0.4453
C56 C 0.1732(5) 0.3232(5) 0.5621(4)
H64 H 0.1409 0.3721 0.5587
H65 H 0.1322 0.2844 0.5780
C57 C 0.4418(3) 0.8227(3) 0.3631(2)
F1 F 0.41547(18) 0.80228(17) 0.29160(13)
F2 F 0.4284(3) 0.89568(17) 0.36792(19)
F3 F 0.53224(18) 0.81079(19) 0.37507(15)
C58? C 0.1371(11) 1.0757(11) 0.5298(7)
C59? C 0.2301(9) 1.0355(9) 0.5311(7)
C60? C 0.2880(10) 1.0699(14) 0.5985(8)
C61? C 0.3579(13) 0.4079(13) 0.8493(10)
C62? C 0.4611(15) 0.4045(17) 0.8807(10)
C63? C 0.5075(9) 0.3712(12) 0.8205(11)
C64? C 0.4399(13) 0.376(3) 0.7488(10)
C65? C 0.2610(3) 0.3281(2) 0.6173(2)
C66? C 0.3505(19) 0.352(3) 0.590(2)
C67? C 0.345(3) 0.320(3) 0.512(2)
C68? C 0.254(4) 0.281(3) 0.4944(18)
C69? C 0.194(2) 0.320(3) 0.5468(16)
H66? H 0.1391 1.1283 0.5121
H67? H 0.0871 1.0483 0.4987
H68? H 0.2239 0.9805 0.5370
H69? H 0.2566 1.0457 0.4848
H70? H 0.3165 1.1173 0.5846
H71? H 0.3369 1.0347 0.6194
H72? H 0.3205 0.3867 0.8855
H73? H 0.3383 0.4604 0.8377
H74? H 0.4851 0.4555 0.8936
H75? H 0.4713 0.3728 0.9261
H76? H 0.5239 0.3180 0.8320
H77? H 0.5639 0.3995 0.8154
H78? H 0.4526 0.3381 0.7119
H79? H 0.4402 0.4270 0.7260
H80? H 0.2731 0.2749 0.6339
H81? H 0.3555 0.4077 0.5888
H82? H 0.4041 0.3317 0.6229
H83? H 0.3498 0.3602 0.4750
H84? H 0.3948 0.2831 0.5093
H85? H 0.2592 0.2264 0.5053
H86? H 0.2274 0.2878 0.4413
H87? H 0.1716 0.3700 0.5270
H88? H 0.1407 0.2888 0.5549
loop_
_geom_bond_atom_site_label_1
_geom_bond_atom_site_label_2
_geom_bond_site_symmetry_1
_geom_bond_site_symmetry_2
Si1 C24 1_555 1_555
C1 C2 1_555 1_555
C2 C3 1_555 1_555
C3 H1 1_555 1_555
C4 C3 1_555 1_555
C5 C4 1_555 1_555
H2 C5 1_555 1_555
C6 C5 1_555 1_555
C7 C6 1_555 1_555
H3 C7 1_555 1_555
C8 C7 1_555 1_555
H4 C8 1_555 1_555
C9 C4 1_555 1_555
C10 C9 1_555 1_555
H5 C10 1_555 1_555
C11 C2 1_555 1_555
C12 C11 1_555 1_555
C13 C12 1_555 1_555
C14 C13 1_555 1_555
H6 C14 1_555 1_555
C15 C14 1_555 1_555
C16 C15 1_555 1_555
H7 C16 1_555 1_555
C17 C16 1_555 1_555
H8 C17 1_555 1_555
C18 C17 1_555 1_555
H9 C18 1_555 1_555
C19 C18 1_555 1_555
H10 C19 1_555 1_555
C20 C15 1_555 1_555
C21 C20 1_555 1_555
H11 C21 1_555 1_555
C22 C1 1_555 1_555
C23 C1 1_555 1_555
C24 C23 1_555 1_555
C25 Si1 1_555 1_555
H12 C25 1_555 1_555
C26 C25 1_555 1_555
H13 C26 1_555 1_555
H14 C26 1_555 1_555
C27 C26 1_555 1_555
H15 C27 1_555 1_555
H16 C27 1_555 1_555
C28 C27 1_555 1_555
H17 C28 1_555 1_555
H18 C28 1_555 1_555
C29 C25 1_555 1_555
H19 C29 1_555 1_555
H20 C29 1_555 1_555
C30 Si1 1_555 1_555
H21 C30 1_555 1_555
C31 C30 1_555 1_555
H22 C31 1_555 1_555
H23 C31 1_555 1_555
C32 C31 1_555 1_555
H24 C32 1_555 1_555
H25 C32 1_555 1_555
C33 C32 1_555 1_555
H26 C33 1_555 1_555
H27 C33 1_555 1_555
C34 C30 1_555 1_555
H28 C34 1_555 1_555
H29 C34 1_555 1_555
C35 Si1 1_555 1_555
H30 C35 1_555 1_555
C36 C35 1_555 1_555
H31 C36 1_555 1_555
H32 C36 1_555 1_555
C37 C36 1_555 1_555
H33 C37 1_555 1_555
H34 C37 1_555 1_555
C38 C37 1_555 1_555
H35 C38 1_555 1_555
H36 C38 1_555 1_555
C39 C35 1_555 1_555
H37 C39 1_555 1_555
H38 C39 1_555 1_555
C40 C12 1_555 1_555
C41 C40 1_555 1_555
Si2 C41 1_555 1_555
C42 Si2 1_555 1_555
H39 C42 1_555 1_555
C43 C42 1_555 1_555
H40 C43 1_555 1_555
H41 C43 1_555 1_555
C44 C43 1_555 1_555
H42 C44 1_555 1_555
H43 C44 1_555 1_555
C45 C44 1_555 1_555
H44 C45 1_555 1_555
H45 C45 1_555 1_555
C46 C42 1_555 1_555
H46 C46 1_555 1_555
H47 C46 1_555 1_555
C47 Si2 1_555 1_555
H48 C47 1_555 1_555
C48 C47 1_555 1_555
H49 C48 1_555 1_555
H50 C48 1_555 1_555
C49 C48 1_555 1_555
H51 C49 1_555 1_555
H52 C49 1_555 1_555
C50 C49 1_555 1_555
H53 C50 1_555 1_555
H54 C50 1_555 1_555
C51 C47 1_555 1_555
H55 C51 1_555 1_555
H56 C51 1_555 1_555
C52 Si2 1_555 1_555
H57 C52 1_555 1_555
C53 C52 1_555 1_555
H58 C53 1_555 1_555
H59 C53 1_555 1_555
C54 C53 1_555 1_555
H60 C54 1_555 1_555
H61 C54 1_555 1_555
C55 C54 1_555 1_555
H62 C55 1_555 1_555
H63 C55 1_555 1_555
C56 C52 1_555 1_555
H64 C56 1_555 1_555
H65 C56 1_555 1_555
C57 C6 1_555 1_555
F1 C57 1_555 1_555
F2 C57 1_555 1_555
F3 C57 1_555 1_555
C8 C9 1_555 1_555
C10 C11 1_555 1_555
C13 C22 1_555 1_555
C19 C20 1_555 1_555
C21 C22 1_555 1_555
C28 C29 1_555 1_555
C33 C34 1_555 1_555
C38 C39 1_555 1_555
C45 C46 1_555 1_555
C50 C51 1_555 1_555
C55 C56 1_555 1_555

#END
