
#######################################################################
#
#                 Cambridge Crystallographic Data Centre
#                                CCDC 
#
#######################################################################
#
# If this CIF has been generated from an entry in the Cambridge 
# Structural Database, then it will include bibliographic, chemical, 
# crystal, experimental, refinement or atomic coordinate data resulting 
# from the CCDC's data processing and validation procedures.
#
#######################################################################

data_OJIYOX
_chemical_formula_moiety         'C44 H34 N2 O4 P2,2(C2 H6 O1 S1)'
_chemical_name_systematic        
'4-(Diphenylphosphoryl)-N-(4-((4-(diphenylphosphoryl)benzoyl)amino)phenyl)benzamide dimethyl sulfoxide solvate'
_symmetry_cell_setting           triclinic
_symmetry_space_group_name_H-M   'P -1'
_symmetry_Int_Tables_number      2
_space_group_name_Hall           '-P 1'
loop_
_symmetry_equiv_pos_site_id
_symmetry_equiv_pos_as_xyz
1 x,y,z
2 -x,-y,-z
_cell_length_a                   9.4354(7)
_cell_length_b                   10.1029(7)
_cell_length_c                   12.6905(6)
_cell_angle_alpha                95.999(3)
_cell_angle_beta                 101.534(3)
_cell_angle_gamma                111.375(2)
_cell_volume                     1082.7
_exptl_crystal_colour            colorless
_exptl_crystal_description       plate
_cell_formula_units_Z            1
loop_
_atom_site_label
_atom_site_type_symbol
_atom_site_fract_x
_atom_site_fract_y
_atom_site_fract_z
P1 P 0.90471(11) 1.23247(9) -0.39541(6)
O1 O 0.9079(3) 1.1764(2) -0.50933(17)
C1 C 0.8863(4) 1.0989(3) -0.3094(3)
C2 C 0.8375(4) 1.1081(3) -0.2133(2)
H1 H 0.8125 1.1878 -0.1907
C3 C 0.8250(4) 1.0024(3) -0.1502(3)
H2 H 0.7896 1.0088 -0.0855
C4 C 0.8641(4) 0.8875(3) -0.1813(2)
C5 C 0.9149(4) 0.8771(4) -0.2762(2)
H3 H 0.9431 0.7990 -0.2973
C6 C 0.9239(4) 0.9821(4) -0.3397(3)
H4 H 0.9566 0.9740 -0.4053
C7 C 0.8469(4) 0.7732(3) -0.1122(2)
O2 O 0.7314(3) 0.7270(3) -0.0752(2)
N1 N 0.9648(3) 0.7263(3) -0.09928(18)
H5 H 1.0438 0.7728 -0.1264
C8 C 0.9785(4) 0.6116(3) -0.0477(2)
C9 C 0.8639(4) 0.5246(3) -0.0023(2)
H6 H 0.7708 0.5410 -0.0031
C10 C 1.1123(4) 0.5863(3) -0.0439(2)
H7 H 1.1912 0.6467 -0.0739
C11 C 0.7404(2) 1.2858(2) -0.39583(17)
C12 C 0.6051(3) 1.2123(2) -0.48061(15)
H8 H 0.5995 1.1345 -0.5325
C13 C 0.4779(2) 1.2527(2) -0.48946(16)
H9 H 0.3854 1.2025 -0.5474
C14 C 0.4861(2) 1.3666(3) -0.4135(2)
H10 H 0.3991 1.3942 -0.4196
C15 C 0.6214(3) 1.4401(2) -0.32877(18)
H11 H 0.6270 1.5179 -0.2769
C16 C 0.7486(2) 1.3997(2) -0.31991(15)
H12 H 0.8411 1.4499 -0.2620
C17 C 1.0807(2) 1.3896(2) -0.32352(17)
C18 C 1.1038(2) 1.5220(2) -0.35521(16)
H13 H 1.0221 1.5318 -0.4070
C19 C 1.2463(3) 1.63984(18) -0.31114(18)
H14 H 1.2620 1.7303 -0.3328
C20 C 1.3657(2) 1.6254(2) -0.23538(17)
H15 H 1.4631 1.7060 -0.2053
C21 C 1.3427(2) 1.4930(2) -0.20369(16)
H16 H 1.4243 1.4832 -0.1519
C22 C 1.2002(3) 1.37516(18) -0.24775(17)
H17 H 1.1844 1.2847 -0.2261
P1A P 1.09529(11) -0.23247(9) 0.39541(6)
O1A O 1.0921(3) -0.1764(2) 0.50933(17)
C1A C 1.1137(4) -0.0989(3) 0.3094(3)
C2A C 1.1625(4) -0.1081(3) 0.2133(2)
H1A H 1.1875 -0.1878 0.1907
C3A C 1.1750(4) -0.0024(3) 0.1502(3)
H2A H 1.2104 -0.0088 0.0855
C4A C 1.1359(4) 0.1125(3) 0.1813(2)
C5A C 1.0851(4) 0.1229(4) 0.2762(2)
H3A H 1.0569 0.2010 0.2973
C6A C 1.0761(4) 0.0179(4) 0.3397(3)
H4A H 1.0434 0.0260 0.4053
C7A C 1.1531(4) 0.2268(3) 0.1122(2)
O2A O 1.2686(3) 0.2730(3) 0.0752(2)
N1A N 1.0352(3) 0.2737(3) 0.09928(18)
H5A H 0.9562 0.2272 0.1264
C8A C 1.0215(4) 0.3884(3) 0.0477(2)
C9A C 1.1361(4) 0.4754(3) 0.0023(2)
H6A H 1.2292 0.4590 0.0031
C10A C 0.8877(4) 0.4137(3) 0.0439(2)
H7A H 0.8088 0.3533 0.0739
C11A C 1.2596(2) -0.2858(2) 0.39583(17)
C12A C 1.3949(3) -0.2123(2) 0.48061(15)
H8A H 1.4005 -0.1345 0.5325
C13A C 1.5221(2) -0.2527(2) 0.48946(16)
H9A H 1.6146 -0.2025 0.5474
C14A C 1.5139(2) -0.3666(3) 0.4135(2)
H10A H 1.6009 -0.3942 0.4196
C15A C 1.3786(3) -0.4401(2) 0.32877(18)
H11A H 1.3730 -0.5179 0.2769
C16A C 1.2514(2) -0.3997(2) 0.31991(15)
H12A H 1.1589 -0.4499 0.2620
C17A C 0.9193(2) -0.3896(2) 0.32352(17)
C18A C 0.8962(2) -0.5220(2) 0.35521(16)
H13A H 0.9779 -0.5318 0.4070
C19A C 0.7537(3) -0.63984(18) 0.31114(18)
H14A H 0.7380 -0.7303 0.3328
C20A C 0.6343(2) -0.6254(2) 0.23538(17)
H15A H 0.5369 -0.7060 0.2053
C21A C 0.6573(2) -0.4930(2) 0.20369(16)
H16A H 0.5757 -0.4832 0.1519
C22A C 0.7998(3) -0.37516(18) 0.24775(17)
H17A H 0.8156 -0.2847 0.2261
S1 S 1.30540(10) 1.06726(9) -0.15210(7)
O3 O 1.2624(3) 0.9250(2) -0.11352(17)
C23 C 1.4892(5) 1.1846(4) -0.0635(3)
H18 H 1.4754 1.2106 0.0092
H19 H 1.5319 1.2725 -0.0929
H20 H 1.5623 1.1357 -0.0576
C24 C 1.3716(5) 1.0439(4) -0.2710(3)
H21 H 1.2821 0.9793 -0.3313
H22 H 1.4500 1.0014 -0.2562
H23 H 1.4192 1.1382 -0.2912
loop_
_geom_bond_atom_site_label_1
_geom_bond_atom_site_label_2
_geom_bond_site_symmetry_1
_geom_bond_site_symmetry_2
P1 O1 1_555 1_555
C1 P1 1_555 1_555
C2 C1 1_555 1_555
H1 C2 1_555 1_555
C3 C2 1_555 1_555
H2 C3 1_555 1_555
C4 C3 1_555 1_555
C5 C4 1_555 1_555
H3 C5 1_555 1_555
C6 C1 1_555 1_555
H4 C6 1_555 1_555
C7 C4 1_555 1_555
O2 C7 1_555 1_555
N1 C7 1_555 1_555
H5 N1 1_555 1_555
C8 N1 1_555 1_555
C9 C8 1_555 1_555
H6 C9 1_555 1_555
C10 C8 1_555 1_555
H7 C10 1_555 1_555
C11 P1 1_555 1_555
C12 C11 1_555 1_555
H8 C12 1_555 1_555
C13 C12 1_555 1_555
H9 C13 1_555 1_555
C14 C13 1_555 1_555
H10 C14 1_555 1_555
C15 C14 1_555 1_555
H11 C15 1_555 1_555
C16 C11 1_555 1_555
H12 C16 1_555 1_555
C17 P1 1_555 1_555
C18 C17 1_555 1_555
H13 C18 1_555 1_555
C19 C18 1_555 1_555
H14 C19 1_555 1_555
C20 C19 1_555 1_555
H15 C20 1_555 1_555
C21 C20 1_555 1_555
H16 C21 1_555 1_555
C22 C17 1_555 1_555
H17 C22 1_555 1_555
S1 O3 1_555 1_555
C23 S1 1_555 1_555
H18 C23 1_555 1_555
H19 C23 1_555 1_555
H20 C23 1_555 1_555
C24 S1 1_555 1_555
H21 C24 1_555 1_555
H22 C24 1_555 1_555
H23 C24 1_555 1_555
P1A O1A 1_555 1_555
C1A P1A 1_555 1_555
C2A C1A 1_555 1_555
H1A C2A 1_555 1_555
C3A C2A 1_555 1_555
H2A C3A 1_555 1_555
C4A C3A 1_555 1_555
C5A C4A 1_555 1_555
H3A C5A 1_555 1_555
C6A C1A 1_555 1_555
H4A C6A 1_555 1_555
C7A C4A 1_555 1_555
O2A C7A 1_555 1_555
N1A C7A 1_555 1_555
H5A N1A 1_555 1_555
C8A N1A 1_555 1_555
C9A C10 1_555 1_555
H6A C9A 1_555 1_555
C10A C9 1_555 1_555
H7A C10A 1_555 1_555
C11A P1A 1_555 1_555
C12A C11A 1_555 1_555
H8A C12A 1_555 1_555
C13A C12A 1_555 1_555
H9A C13A 1_555 1_555
C14A C13A 1_555 1_555
H10A C14A 1_555 1_555
C15A C14A 1_555 1_555
H11A C15A 1_555 1_555
C16A C11A 1_555 1_555
H12A C16A 1_555 1_555
C17A P1A 1_555 1_555
C18A C17A 1_555 1_555
H13A C18A 1_555 1_555
C19A C18A 1_555 1_555
H14A C19A 1_555 1_555
C20A C19A 1_555 1_555
H15A C20A 1_555 1_555
C21A C20A 1_555 1_555
H16A C21A 1_555 1_555
C22A C17A 1_555 1_555
H17A C22A 1_555 1_555
C5 C6 1_555 1_555
C15 C16 1_555 1_555
C21 C22 1_555 1_555
C5A C6A 1_555 1_555
C8A C9A 1_555 1_555
C8A C10A 1_555 1_555
C15A C16A 1_555 1_555
C21A C22A 1_555 1_555

#END
