
#######################################################################
#
#                 Cambridge Crystallographic Data Centre
#                                CCDC 
#
#######################################################################
#
# If this CIF has been generated from an entry in the Cambridge 
# Structural Database, then it will include bibliographic, chemical, 
# crystal, experimental, refinement or atomic coordinate data resulting 
# from the CCDC's data processing and validation procedures.
#
#######################################################################

data_OJIYUD
_chemical_formula_moiety         'C44 H34 N2 O4 P2,C4 H8 O1'
_chemical_name_systematic        
'4-(Diphenylphosphoryl)-N-(3-((4-(diphenylphosphoryl)benzoyl)amino)phenyl)benzamide tetrahydrofuran solvate'
_symmetry_cell_setting           monoclinic
_symmetry_space_group_name_H-M   'P 21/c'
_symmetry_Int_Tables_number      14
_space_group_name_Hall           '-P 2ybc'
loop_
_symmetry_equiv_pos_site_id
_symmetry_equiv_pos_as_xyz
1 x,y,z
2 -x,1/2+y,1/2-z
3 -x,-y,-z
4 x,1/2-y,1/2+z
_cell_length_a                   10.7493(4)
_cell_length_b                   17.8055(7)
_cell_length_c                   21.1501(6)
_cell_angle_alpha                90
_cell_angle_beta                 96.365(2)
_cell_angle_gamma                90
_cell_volume                     4023.11
_exptl_crystal_colour            colorless
_exptl_crystal_description       petal
_cell_formula_units_Z            4
loop_
_atom_site_label
_atom_site_type_symbol
_atom_site_fract_x
_atom_site_fract_y
_atom_site_fract_z
P1 P 0.82600(8) 0.02405(5) 0.13375(4)
P2 P 1.15092(9) 0.73216(5) 0.62228(4)
O1 O 0.96424(19) 0.02070(12) 0.12984(10)
O2 O 1.1474(2) 0.67241(12) 0.67217(10)
C1 C 0.7577(3) 0.49891(18) 0.28301(14)
H1 H 0.8170 0.4697 0.3090
C2 C 0.6919(3) 0.46702(18) 0.22916(14)
C3 C 0.6064(3) 0.5101(2) 0.19053(16)
H2 H 0.5634 0.4895 0.1528
C4 C 0.5851(3) 0.5832(2) 0.20810(16)
H3 H 0.5247 0.6121 0.1824
C5 C 0.6483(3) 0.6161(2) 0.26163(15)
H4 H 0.6317 0.6665 0.2727
C6 C 0.7367(3) 0.57346(19) 0.29881(14)
C7 C 0.7760(3) 0.11692(18) 0.15373(14)
C8 C 0.6518(3) 0.1394(2) 0.14037(16)
H5 H 0.5904 0.1034 0.1254
C9 C 0.6157(3) 0.2130(2) 0.14838(15)
H6 H 0.5305 0.2271 0.1388
C10 C 0.7037(3) 0.26600(19) 0.17032(14)
C11 C 0.8264(3) 0.2440(2) 0.18662(16)
H7 H 0.8864 0.2797 0.2040
C12 C 0.8628(3) 0.1699(2) 0.17782(15)
H8 H 0.9478 0.1557 0.1884
C13 C 0.6604(3) 0.34600(19) 0.17091(15)
O3 O 0.5776(2) 0.36737(14) 0.13077(11)
N1 N 0.7174(2) 0.39011(15) 0.21788(12)
H9 H 0.7763 0.3689 0.2441
C14 C 1.0468(3) 0.71202(19) 0.55152(14)
C15 C 1.0007(3) 0.7688(2) 0.50977(16)
H10 H 1.0252 0.8194 0.5182
C16 C 0.9196(3) 0.7520(2) 0.45612(16)
H11 H 0.8875 0.7910 0.4283
C17 C 0.8854(3) 0.67801(18) 0.44314(14)
C18 C 0.9314(3) 0.62158(19) 0.48408(14)
H12 H 0.9094 0.5708 0.4747
C19 C 1.0093(3) 0.63858(19) 0.53846(14)
H13 H 1.0374 0.5996 0.5673
C20 C 0.7912(3) 0.66378(19) 0.38646(15)
O4 O 0.7022(2) 0.70674(13) 0.37428(10)
N2 N 0.8133(2) 0.60194(14) 0.35206(11)
H14 H 0.8825 0.5769 0.3641
C21 C 0.73376(19) 0.00531(11) 0.05885(7)
C22 C 0.6716(2) -0.06246(10) 0.04639(8)
H15 H 0.6691 -0.0985 0.0793
C23 C 0.61326(19) -0.07746(10) -0.01426(10)
H16 H 0.5708 -0.1238 -0.0228
C24 C 0.6170(2) -0.02469(13) -0.06245(7)
H17 H 0.5771 -0.0349 -0.1039
C25 C 0.6791(2) 0.04307(11) -0.04999(8)
H18 H 0.6817 0.0791 -0.0829
C26 C 0.7375(2) 0.05807(10) 0.01066(10)
H19 H 0.7799 0.1044 0.0192
C27 C 0.7788(2) -0.04407(11) 0.18949(9)
C28 C 0.66466(18) -0.04008(11) 0.21448(10)
H20 H 0.6079 -0.0005 0.2021
C29 C 0.63359(17) -0.09406(14) 0.25753(11)
H21 H 0.5556 -0.0913 0.2746
C30 C 0.7166(2) -0.15203(12) 0.27560(10)
H22 H 0.6954 -0.1889 0.3050
C31 C 0.8307(2) -0.15603(11) 0.25061(11)
H23 H 0.8874 -0.1956 0.2630
C32 C 0.86176(16) -0.10205(12) 0.20756(10)
H24 H 0.9397 -0.1048 0.1905
C33 C 1.30660(16) 0.74339(14) 0.59837(10)
C34 C 1.3266(2) 0.76930(14) 0.53833(9)
H25 H 1.2574 0.7819 0.5083
C35 C 1.4479(2) 0.77676(15) 0.52221(9)
H26 H 1.4615 0.7945 0.4812
C36 C 1.54917(17) 0.75830(15) 0.56613(12)
H27 H 1.6321 0.7634 0.5551
C37 C 1.52918(18) 0.73239(14) 0.62617(11)
H28 H 1.5984 0.7198 0.6562
C38 C 1.4079(2) 0.72493(14) 0.64229(9)
H29 H 1.3942 0.7072 0.6833
C39 C 1.0994(2) 0.82264(10) 0.64675(11)
C40 C 0.9760(2) 0.82813(12) 0.66008(11)
H30 H 0.9239 0.7849 0.6574
C41 C 0.92876(18) 0.89691(15) 0.67734(11)
H31 H 0.8444 0.9007 0.6864
C42 C 1.0049(2) 0.96019(11) 0.68128(12)
H32 H 0.9726 1.0072 0.6931
C43 C 1.1284(2) 0.95470(11) 0.66796(12)
H33 H 1.1804 0.9980 0.6707
C44 C 1.17561(17) 0.88592(13) 0.65070(11)
H34 H 1.2600 0.8822 0.6416
O5 O 0.2359(9) 0.5145(6) -0.0356(5)
C45 C 0.3464(14) 0.4549(12) -0.0113(10)
H35 H 0.3836 0.4319 -0.0475
H36 H 0.4132 0.4789 0.0178
C46 C 0.278(2) 0.4013(13) 0.0210(16)
H37 H 0.2721 0.3523 -0.0012
H38 H 0.3147 0.3940 0.0656
C47 C 0.1692(15) 0.4351(9) 0.0177(8)
H39 H 0.1094 0.3975 -0.0022
H40 H 0.1515 0.4388 0.0626
C48 C 0.1319(11) 0.4945(8) -0.0058(6)
H41 H 0.1142 0.5316 0.0269
H42 H 0.0565 0.4878 -0.0367
O6? O 0.3054(11) 0.4239(8) 0.0474(6)
C49? C 0.258(2) 0.4312(10) -0.0284(8)
H43? H 0.3222 0.4136 -0.0548
H44? H 0.1793 0.4026 -0.0398
C50? C 0.2359(9) 0.5145(6) -0.0356(5)
H45? H 0.2477 0.5330 -0.0787
H46? H 0.1533 0.5303 -0.0238
C51? C 0.3261(17) 0.5323(10) 0.0061(8)
H47? H 0.4027 0.5317 -0.0159
H48? H 0.3119 0.5853 0.0175
C52? C 0.3526(15) 0.4987(8) 0.0567(7)
H49? H 0.3137 0.5238 0.0913
H50? H 0.4445 0.4978 0.0681
O7? O 0.1736(11) 0.4315(6) 0.0463(6)
C53? C 0.1319(11) 0.4945(8) -0.0058(6)
H51? H 0.1286 0.4741 -0.0495
H52? H 0.0493 0.5161 0.0006
C54? C 0.231(2) 0.5497(12) 0.0066(15)
H53? H 0.2479 0.5776 -0.0321
H54? H 0.2161 0.5852 0.0409
C55? C 0.319(2) 0.500(3) 0.025(3)
H55? H 0.3512 0.4827 -0.0149
H56? H 0.3879 0.5291 0.0483
C56? C 0.306(2) 0.443(3) 0.057(3)
H57? H 0.3348 0.4513 0.1022
H58? H 0.3523 0.3997 0.0410
loop_
_geom_bond_atom_site_label_1
_geom_bond_atom_site_label_2
_geom_bond_site_symmetry_1
_geom_bond_site_symmetry_2
P1 O1 1_555 1_555
P2 O2 1_555 1_555
C1 H1 1_555 1_555
C2 C1 1_555 1_555
C3 C2 1_555 1_555
H2 C3 1_555 1_555
C4 C3 1_555 1_555
H3 C4 1_555 1_555
C5 C4 1_555 1_555
H4 C5 1_555 1_555
C6 C1 1_555 1_555
C7 P1 1_555 1_555
C8 C7 1_555 1_555
H5 C8 1_555 1_555
C9 C8 1_555 1_555
H6 C9 1_555 1_555
C10 C9 1_555 1_555
C11 C10 1_555 1_555
H7 C11 1_555 1_555
C12 C7 1_555 1_555
H8 C12 1_555 1_555
C13 C10 1_555 1_555
O3 C13 1_555 1_555
N1 C2 1_555 1_555
H9 N1 1_555 1_555
C14 P2 1_555 1_555
C15 C14 1_555 1_555
H10 C15 1_555 1_555
C16 C15 1_555 1_555
H11 C16 1_555 1_555
C17 C16 1_555 1_555
C18 C17 1_555 1_555
H12 C18 1_555 1_555
C19 C14 1_555 1_555
H13 C19 1_555 1_555
C20 C17 1_555 1_555
O4 C20 1_555 1_555
N2 C6 1_555 1_555
H14 N2 1_555 1_555
C21 P1 1_555 1_555
C22 C21 1_555 1_555
H15 C22 1_555 1_555
C23 C22 1_555 1_555
H16 C23 1_555 1_555
C24 C23 1_555 1_555
H17 C24 1_555 1_555
C25 C24 1_555 1_555
H18 C25 1_555 1_555
C26 C21 1_555 1_555
H19 C26 1_555 1_555
C27 P1 1_555 1_555
C28 C27 1_555 1_555
H20 C28 1_555 1_555
C29 C28 1_555 1_555
H21 C29 1_555 1_555
C30 C29 1_555 1_555
H22 C30 1_555 1_555
C31 C30 1_555 1_555
H23 C31 1_555 1_555
C32 C27 1_555 1_555
H24 C32 1_555 1_555
C33 P2 1_555 1_555
C34 C33 1_555 1_555
H25 C34 1_555 1_555
C35 C34 1_555 1_555
H26 C35 1_555 1_555
C36 C35 1_555 1_555
H27 C36 1_555 1_555
C37 C36 1_555 1_555
H28 C37 1_555 1_555
C38 C33 1_555 1_555
H29 C38 1_555 1_555
C39 P2 1_555 1_555
C40 C39 1_555 1_555
H30 C40 1_555 1_555
C41 C40 1_555 1_555
H31 C41 1_555 1_555
C42 C41 1_555 1_555
H32 C42 1_555 1_555
C43 C42 1_555 1_555
H33 C43 1_555 1_555
C44 C39 1_555 1_555
H34 C44 1_555 1_555
O5 C45 1_555 1_555
C45 H35 1_555 1_555
H36 C45 1_555 1_555
C46 C45 1_555 1_555
H37 C46 1_555 1_555
H38 C46 1_555 1_555
C47 C46 1_555 1_555
H39 C47 1_555 1_555
H40 C47 1_555 1_555
C48 O5 1_555 1_555
H41 C48 1_555 1_555
H42 C48 1_555 1_555
C5 C6 1_555 1_555
C11 C12 1_555 1_555
C13 N1 1_555 1_555
C18 C19 1_555 1_555
C20 N2 1_555 1_555
C25 C26 1_555 1_555
C31 C32 1_555 1_555
C37 C38 1_555 1_555
C43 C44 1_555 1_555
C47 C48 1_555 1_555

#END
