
#######################################################################
#
#                 Cambridge Crystallographic Data Centre
#                                CCDC 
#
#######################################################################
#
# If this CIF has been generated from an entry in the Cambridge 
# Structural Database, then it will include bibliographic, chemical, 
# crystal, experimental, refinement or atomic coordinate data resulting 
# from the CCDC's data processing and validation procedures.
#
#######################################################################

data_OJIYUC
_chemical_formula_moiety         'C44 H53 N1 O2 Si2'
_chemical_name_systematic        
((2-nitropentacene-5,14-diyl)diethyne-2,1-diyl)bis(triisopropylsilane)
_symmetry_cell_setting           triclinic
_symmetry_space_group_name_H-M   'P -1'
_symmetry_Int_Tables_number      2
_space_group_name_Hall           '-P 1'
loop_
_symmetry_equiv_pos_site_id
_symmetry_equiv_pos_as_xyz
1 x,y,z
2 -x,-y,-z
_cell_length_a                   7.3935(2)
_cell_length_b                   7.7475(2)
_cell_length_c                   17.3713(4)
_cell_angle_alpha                96.230(1)
_cell_angle_beta                 100.619(1)
_cell_angle_gamma                94.648(1)
_cell_volume                     967.02
_exptl_crystal_colour            green
_exptl_crystal_description       lath
_cell_formula_units_Z            1
loop_
_atom_site_label
_atom_site_type_symbol
_atom_site_fract_x
_atom_site_fract_y
_atom_site_fract_z
Si1 Si 0.23629(12) 0.67094(13) 0.17917(5)
C1 C 0.4420(4) 0.5326(4) 0.42046(18)
C2 C 0.3398(4) 0.5882(4) 0.47851(18)
C3 C 0.1795(4) 0.6718(4) 0.45902(19)
H1 H 0.1403 0.6930 0.4060
C4 C 0.0755(4) 0.7249(4) 0.5149(2)
C5 C -0.0904(5) 0.8046(4) 0.4940(2)
H2 H -0.1325 0.8240 0.4409
C6 C -0.1888(5) 0.8531(4) 0.5504(2)
N1 N -0.3529(8) 0.9336(8) 0.5257(4)
O1 O -0.4050(7) 0.9488(7) 0.4551(3)
O2 O -0.4374(7) 0.9842(7) 0.5783(4)
C7 C -0.1284(5) 0.8306(5) 0.6302(2)
H4 H -0.1984 0.8679 0.6685
C8 C 0.0293(5) 0.7556(5) 0.6524(2)
H5 H 0.0686 0.7403 0.7062
C9 C 0.1378(5) 0.6989(4) 0.5955(2)
C10 C 0.2967(4) 0.6176(4) 0.61583(19)
H6 H 0.3377 0.6008 0.6694
C11 C 0.6008(4) 0.4409(4) 0.44088(18)
C12 C 0.3834(4) 0.5665(4) 0.34152(19)
C13 C 0.3293(4) 0.6003(5) 0.27515(19)
C14 C 0.1953(5) 0.4727(5) 0.1027(2)
H7 H 0.1424 0.5110 0.0508
C15 C 0.0558(6) 0.3309(6) 0.1194(3)
H8 H 0.0402 0.2306 0.0784
H9 H -0.0635 0.3776 0.1194
H10 H 0.1014 0.2940 0.1710
C16 C 0.3769(6) 0.3985(5) 0.0945(2)
H11 H 0.4374 0.3683 0.1457
H12 H 0.4583 0.4859 0.0769
H13 H 0.3516 0.2936 0.0557
C17 C 0.4207(5) 0.8303(5) 0.1573(2)
H14 H 0.5345 0.7677 0.1607
C18 C 0.3815(5) 0.8821(6) 0.0738(2)
H15 H 0.2799 0.9565 0.0690
H16 H 0.3467 0.7769 0.0354
H17 H 0.4926 0.9463 0.0636
C19 C 0.4717(6) 0.9907(5) 0.2191(2)
H18 H 0.5831 1.0572 0.2105
H19 H 0.4954 0.9537 0.2719
H20 H 0.3694 1.0642 0.2147
C20 C 0.0201(5) 0.7782(6) 0.1904(2)
H21 H 0.0624 0.8958 0.2211
C21 C -0.0933(5) 0.8099(6) 0.1110(3)
H22 H -0.1440 0.6976 0.0799
H23 H -0.0136 0.8741 0.0822
H24 H -0.1949 0.8783 0.1202
C22 C -0.1048(6) 0.6821(8) 0.2374(3)
H25 H -0.1858 0.7629 0.2574
H26 H -0.0278 0.6385 0.2818
H27 H -0.1804 0.5838 0.2028
Si1A Si 0.76371(12) 0.32906(13) 0.82083(5)
C1A C 0.5580(4) 0.4674(4) 0.57954(18)
C2A C 0.6602(4) 0.4118(4) 0.52149(18)
C3A C 0.8205(4) 0.3282(4) 0.54098(19)
H1A H 0.8597 0.3070 0.5940
C4A C 0.9245(4) 0.2751(4) 0.4851(2)
C5A C 1.0904(5) 0.1954(4) 0.5060(2)
H2A H 1.1325 0.1760 0.5591
C6A C 1.1888(5) 0.1469(4) 0.4496(2)
N1A N 1.3529(8) 0.0664(8) 0.4743(4)
O1A O 1.4050(7) 0.0512(7) 0.5449(3)
O2A O 1.4374(7) 0.0158(7) 0.4217(4)
C7A C 1.1284(5) 0.1694(5) 0.3698(2)
H4A H 1.1984 0.1321 0.3315
C8A C 0.9707(5) 0.2444(5) 0.3476(2)
H5A H 0.9314 0.2597 0.2938
C9A C 0.8622(5) 0.3011(4) 0.4045(2)
C10A C 0.7033(4) 0.3824(4) 0.38417(19)
H6A H 0.6623 0.3992 0.3306
C11A C 0.3992(4) 0.5591(4) 0.55912(18)
C12A C 0.6166(4) 0.4335(4) 0.65848(19)
C13A C 0.6707(4) 0.3997(5) 0.72485(19)
C14A C 0.8047(5) 0.5273(5) 0.8973(2)
H7A H 0.8576 0.4890 0.9492
C15A C 0.9442(6) 0.6691(6) 0.8806(3)
H8A H 0.9598 0.7694 0.9216
H9A H 1.0635 0.6224 0.8806
H10A H 0.8986 0.7060 0.8290
C16A C 0.6231(6) 0.6015(5) 0.9055(2)
H11A H 0.5626 0.6317 0.8543
H12A H 0.5417 0.5141 0.9231
H13A H 0.6484 0.7064 0.9443
C17A C 0.5793(5) 0.1697(5) 0.8427(2)
H14A H 0.4655 0.2323 0.8393
C18A C 0.6185(5) 0.1179(6) 0.9262(2)
H15A H 0.7201 0.0435 0.9310
H16A H 0.6533 0.2231 0.9646
H17A H 0.5074 0.0537 0.9364
C19A C 0.5283(6) 0.0093(5) 0.7809(2)
H18A H 0.4169 -0.0572 0.7895
H19A H 0.5046 0.0463 0.7281
H20A H 0.6306 -0.0642 0.7853
C20A C 0.9799(5) 0.2218(6) 0.8096(2)
H21A H 0.9376 0.1042 0.7789
C21A C 1.0933(5) 0.1901(6) 0.8890(3)
H22A H 1.1440 0.3024 0.9201
H23A H 1.0136 0.1259 0.9178
H24A H 1.1949 0.1217 0.8798
C22A C 1.1048(6) 0.3179(8) 0.7626(3)
H25A H 1.1858 0.2371 0.7426
H26A H 1.0278 0.3615 0.7182
H27A H 1.1804 0.4162 0.7972
H3? H -0.3010 0.9035 0.5355
N2? N -0.285(4) 0.872(6) 0.6620(19)
O3? O -0.389(4) 0.974(5) 0.631(2)
O4? O -0.277(7) 0.837(8) 0.731(2)
loop_
_geom_bond_atom_site_label_1
_geom_bond_atom_site_label_2
_geom_bond_site_symmetry_1
_geom_bond_site_symmetry_2
Si1 C13 1_555 1_555
C1 C2 1_555 1_555
C2 C3 1_555 1_555
C3 H1 1_555 1_555
C4 C3 1_555 1_555
C5 C4 1_555 1_555
H2 C5 1_555 1_555
C6 C5 1_555 1_555
N1 C6 1_555 1_555
O1 N1 1_555 1_555
O2 N1 1_555 1_555
C7 C6 1_555 1_555
H4 C7 1_555 1_555
C8 C7 1_555 1_555
H5 C8 1_555 1_555
C9 C4 1_555 1_555
C10 C9 1_555 1_555
H6 C10 1_555 1_555
C11 C1 1_555 1_555
C12 C1 1_555 1_555
C13 C12 1_555 1_555
C14 Si1 1_555 1_555
H7 C14 1_555 1_555
C15 C14 1_555 1_555
H8 C15 1_555 1_555
H9 C15 1_555 1_555
H10 C15 1_555 1_555
C16 C14 1_555 1_555
H11 C16 1_555 1_555
H12 C16 1_555 1_555
H13 C16 1_555 1_555
C17 Si1 1_555 1_555
H14 C17 1_555 1_555
C18 C17 1_555 1_555
H15 C18 1_555 1_555
H16 C18 1_555 1_555
H17 C18 1_555 1_555
C19 C17 1_555 1_555
H18 C19 1_555 1_555
H19 C19 1_555 1_555
H20 C19 1_555 1_555
C20 Si1 1_555 1_555
H21 C20 1_555 1_555
C21 C20 1_555 1_555
H22 C21 1_555 1_555
H23 C21 1_555 1_555
H24 C21 1_555 1_555
C22 C20 1_555 1_555
H25 C22 1_555 1_555
H26 C22 1_555 1_555
H27 C22 1_555 1_555
Si1A C13A 1_555 1_555
C1A C2A 1_555 1_555
C2A C11 1_555 1_555
C3A C2A 1_555 1_555
H1A C3A 1_555 1_555
C4A C3A 1_555 1_555
C5A C4A 1_555 1_555
H2A C5A 1_555 1_555
C6A C5A 1_555 1_555
N1A C6A 1_555 1_555
O1A N1A 1_555 1_555
O2A N1A 1_555 1_555
C7A C6A 1_555 1_555
H4A C7A 1_555 1_555
C8A C7A 1_555 1_555
H5A C8A 1_555 1_555
C9A C4A 1_555 1_555
C10A C11 1_555 1_555
H6A C10A 1_555 1_555
C11A C2 1_555 1_555
C12A C1A 1_555 1_555
C13A C12A 1_555 1_555
C14A Si1A 1_555 1_555
H7A C14A 1_555 1_555
C15A C14A 1_555 1_555
H8A C15A 1_555 1_555
H9A C15A 1_555 1_555
H10A C15A 1_555 1_555
C16A C14A 1_555 1_555
H11A C16A 1_555 1_555
H12A C16A 1_555 1_555
H13A C16A 1_555 1_555
C17A Si1A 1_555 1_555
H14A C17A 1_555 1_555
C18A C17A 1_555 1_555
H15A C18A 1_555 1_555
H16A C18A 1_555 1_555
H17A C18A 1_555 1_555
C19A C17A 1_555 1_555
H18A C19A 1_555 1_555
H19A C19A 1_555 1_555
H20A C19A 1_555 1_555
C20A Si1A 1_555 1_555
H21A C20A 1_555 1_555
C21A C20A 1_555 1_555
H22A C21A 1_555 1_555
H23A C21A 1_555 1_555
H24A C21A 1_555 1_555
C22A C20A 1_555 1_555
H25A C22A 1_555 1_555
H26A C22A 1_555 1_555
H27A C22A 1_555 1_555
C8 C9 1_555 1_555
C10 C11A 1_555 1_555
C1A C11A 1_555 1_555
C8A C9A 1_555 1_555
C9A C10A 1_555 1_555

#END
