
#######################################################################
#
#                 Cambridge Crystallographic Data Centre
#                                CCDC 
#
#######################################################################
#
# If this CIF has been generated from an entry in the Cambridge 
# Structural Database, then it will include bibliographic, chemical, 
# crystal, experimental, refinement or atomic coordinate data resulting 
# from the CCDC's data processing and validation procedures.
#
#######################################################################

data_OJOCEX
_chemical_formula_moiety         'C23 H27 N1 O9,3(H2 O1)'
_chemical_name_systematic        
'3,4,5-trihydroxy-6-((3-hydroxy-17-methyl-7,8-didehydro-4,5-epoxymorphinan-17-ium-6-yl)oxy)tetrahydro-2H-pyran-2-carboxylate trihydrate'
_symmetry_cell_setting           triclinic
_symmetry_space_group_name_H-M   'P 1'
_symmetry_Int_Tables_number      1
_space_group_name_Hall           'P 1'
loop_
_symmetry_equiv_pos_site_id
_symmetry_equiv_pos_as_xyz
1 x,y,z
_cell_length_a                   9.1025(18)
_cell_length_b                   10.574(2)
_cell_length_c                   13.817(3)
_cell_angle_alpha                75.38(3)
_cell_angle_beta                 75.72(3)
_cell_angle_gamma                65.40(3)
_cell_volume                     1154.78
_exptl_crystal_colour            colorless
_exptl_crystal_description       block
_cell_formula_units_Z            2
loop_
_atom_site_label
_atom_site_type_symbol
_atom_site_fract_x
_atom_site_fract_y
_atom_site_fract_z
O1 O -0.2703(4) 0.5333(4) 0.1167(2)
H1 H -0.1928 0.4851 0.1495
O2 O 0.0361(4) 0.5876(3) 0.0574(2)
O3 O 0.0644(4) 0.7962(3) 0.1344(2)
O4 O 0.1678(4) 0.5677(3) 0.2294(2)
O5 O 0.1426(4) 0.9049(3) 0.2730(3)
H2 H 0.0613 0.9799 0.2622
O6 O -0.0539(4) 0.8294(4) 0.4426(2)
H3 H -0.1525 0.8491 0.4696
O7 O -0.2171(4) 0.6514(4) 0.4041(3)
H4 H -0.2691 0.7075 0.4454
O8 O 0.1013(4) 0.3298(3) 0.3545(3)
O9 O -0.0758(4) 0.3971(3) 0.2490(2)
N1 N 0.2593(5) 0.6942(4) -0.3318(3)
H5 H 0.3454 0.7184 -0.3295
C1 C -0.2087(5) 0.5761(4) 0.0182(3)
C2 C -0.2958(5) 0.6100(5) -0.0580(4)
H6 H -0.3939 0.5924 -0.0431
C3 C -0.2485(5) 0.6694(5) -0.1571(3)
H7 H -0.3163 0.6947 -0.2068
C4 C -0.1017(5) 0.6917(5) -0.1832(3)
C5 C -0.0067(5) 0.6447(4) -0.1074(3)
C6 C -0.0609(5) 0.5988(4) -0.0084(3)
C7 C -0.0523(6) 0.7765(5) -0.2813(3)
H8 H -0.1445 0.8681 -0.2931
H9 H -0.0333 0.7258 -0.3373
C8 C 0.1028(5) 0.8050(5) -0.2854(3)
H10 H 0.0904 0.8992 -0.3286
C9 C 0.1354(5) 0.8063(4) -0.1798(3)
H11 H 0.2417 0.8185 -0.1899
C10 C 0.1530(5) 0.6612(4) -0.1145(3)
C11 C 0.3040(5) 0.5463(5) -0.1629(3)
H12 H 0.4040 0.5616 -0.1624
H13 H 0.3133 0.4525 -0.1221
C12 C 0.2927(6) 0.5481(5) -0.2712(3)
H14 H 0.3967 0.4813 -0.3027
H15 H 0.2037 0.5174 -0.2711
C13 C 0.1578(5) 0.6474(4) 0.0006(3)
H16 H 0.2688 0.5808 0.0160
C14 C 0.1191(5) 0.7918(4) 0.0290(3)
H17 H 0.2230 0.8096 0.0102
C15 C -0.0061(5) 0.9131(4) -0.0278(3)
H18 H -0.0919 0.9829 0.0071
C16 C 0.0036(6) 0.9222(5) -0.1259(3)
H19 H -0.0717 1.0009 -0.1626
C17 C 0.2636(6) 0.6959(6) -0.4414(3)
H20 H 0.1816 0.6620 -0.4473
H21 H 0.3726 0.6344 -0.4697
H22 H 0.2395 0.7925 -0.4787
C18 C 0.1770(5) 0.7035(4) 0.2002(3)
H23 H 0.2906 0.6934 0.1654
C19 C 0.1382(5) 0.7680(4) 0.2957(3)
H24 H 0.2199 0.7052 0.3413
C20 C -0.0329(5) 0.7798(5) 0.3517(3)
H25 H -0.1162 0.8503 0.3094
C21 C -0.0504(5) 0.6367(4) 0.3734(3)
H26 H 0.0163 0.5704 0.4264
C22 C 0.0039(5) 0.5741(4) 0.2754(3)
H27 H -0.0737 0.6348 0.2268
C23 C 0.0110(5) 0.4212(5) 0.2950(3)
O10 O 0.7479(4) 0.2697(4) 0.7342(3)
H28 H 0.6879 0.2674 0.6978
O11 O 0.5388(4) 0.0995(3) 0.8163(2)
O12 O 0.2494(4) 0.2307(3) 0.7560(2)
O13 O 0.2627(4) 0.0593(3) 0.6711(2)
O14 O 0.0737(4) 0.4480(4) 0.6230(3)
H29 H -0.0279 0.4752 0.6262
O15 O 0.2958(4) 0.3897(3) 0.4373(2)
H30 H 0.2350 0.3753 0.4080
O16 O 0.5712(4) 0.1371(4) 0.4618(3)
H31 H 0.6359 0.0606 0.4427
O17 O 0.6280(5) -0.1360(4) 0.5273(3)
O18 O 0.4883(4) -0.2069(3) 0.6717(3)
N2 N 0.4237(5) -0.0393(4) 1.2088(3)
H32 H 0.3564 -0.0888 1.2171
C24 C 0.6807(5) 0.2458(5) 0.8353(4)
C25 C 0.7023(6) 0.3077(5) 0.9039(4)
H33 H 0.7701 0.3611 0.8814
C26 C 0.6298(6) 0.2957(5) 1.0042(4)
H34 H 0.6472 0.3422 1.0484
C27 C 0.5308(5) 0.2164(5) 1.0422(3)
C28 C 0.5180(5) 0.1486(4) 0.9729(3)
C29 C 0.5826(5) 0.1661(4) 0.8709(3)
C30 C 0.4248(6) 0.2109(5) 1.1451(3)
H35 H 0.3431 0.3072 1.1516
H36 H 0.4945 0.1818 1.1978
C31 C 0.3327(5) 0.1090(4) 1.1662(3)
H37 H 0.2320 0.1457 1.2165
C32 C 0.2755(5) 0.1041(4) 1.0701(3)
H38 H 0.2199 0.0352 1.0888
C33 C 0.4304(5) 0.0493(4) 0.9931(3)
C34 C 0.5381(6) -0.1000(5) 1.0383(3)
H39 H 0.4818 -0.1650 1.0452
H40 H 0.6423 -0.1325 0.9911
C35 C 0.5753(5) -0.1071(5) 1.1404(3)
H41 H 0.6293 -0.2070 1.1709
H42 H 0.6517 -0.0590 1.1319
C36 C 0.1599(5) 0.2447(5) 1.0241(3)
H43 H 0.0965 0.3157 1.0647
C37 C 0.1467(5) 0.2697(5) 0.9261(3)
H44 H 0.0766 0.3604 0.8980
C38 C 0.2381(5) 0.1601(5) 0.8589(3)
H45 H 0.1705 0.1030 0.8666
C39 C 0.4074(5) 0.0573(4) 0.8837(3)
H46 H 0.4246 -0.0390 0.8746
C40 C 0.4624(6) -0.0531(5) 1.3094(3)
H47 H 0.5371 -0.0053 1.3030
H48 H 0.5145 -0.1533 1.3372
H49 H 0.3613 -0.0100 1.3549
C41 C 0.1730(6) 0.1978(5) 0.6948(3)
H50 H 0.0621 0.2030 0.7322
C42 C 0.1513(5) 0.3099(5) 0.5986(3)
H51 H 0.0812 0.2965 0.5597
C43 C 0.3157(5) 0.2970(5) 0.5314(3)
H52 H 0.3790 0.3232 0.5673
C44 C 0.4123(5) 0.1442(5) 0.5161(3)
H53 H 0.3568 0.1193 0.4738
C45 C 0.4254(5) 0.0428(4) 0.6165(3)
H54 H 0.4829 0.0675 0.6576
C46 C 0.5205(6) -0.1133(5) 0.6042(4)
O19 O 0.0568(5) 0.0750(4) 0.4514(3)
H55 H 0.0319 0.0355 0.4157
H56 H 0.0799 0.1388 0.4084
O20 O 0.6447(5) 0.4476(5) 0.4625(3)
H57 H 0.7028 0.4971 0.4581
H58 H 0.6139 0.4626 0.4045
O21 O 0.7479(5) 0.5337(4) 0.6327(3)
H59 H 0.6686 0.6078 0.6463
H60 H 0.7573 0.4537 0.6671
O22 O 0.7689(5) 0.1611(5) 0.5784(3)
H61 H 0.7250 0.1465 0.5377
H62 H 0.8660 0.1152 0.5545
O23 O 0.5809(6) 0.3814(5) 0.3023(3)
H63 H 0.5375 0.3241 0.3430
H64 H 0.5050 0.4543 0.2745
O24 O 0.8642(6) 0.1616(5) 0.2356(4)
H65 H 0.8295 0.1267 0.2021
H66 H 0.8640 0.1219 0.2965
loop_
_geom_bond_atom_site_label_1
_geom_bond_atom_site_label_2
_geom_bond_site_symmetry_1
_geom_bond_site_symmetry_2
O1 H1 1_555 1_555
O2 C6 1_555 1_555
O3 C14 1_555 1_555
O4 C18 1_555 1_555
O5 H2 1_555 1_555
O6 H3 1_555 1_555
O7 H4 1_555 1_555
O8 C23 1_555 1_555
O9 C23 1_555 1_555
N1 H5 1_555 1_555
C1 O1 1_555 1_555
C2 C1 1_555 1_555
H6 C2 1_555 1_555
C3 C2 1_555 1_555
H7 C3 1_555 1_555
C4 C3 1_555 1_555
C5 C4 1_555 1_555
C6 C1 1_555 1_555
C7 C4 1_555 1_555
H8 C7 1_555 1_555
H9 C7 1_555 1_555
C8 N1 1_555 1_555
H10 C8 1_555 1_555
C9 C8 1_555 1_555
H11 C9 1_555 1_555
C10 C5 1_555 1_555
C11 C10 1_555 1_555
H12 C11 1_555 1_555
H13 C11 1_555 1_555
C12 N1 1_555 1_555
H14 C12 1_555 1_555
H15 C12 1_555 1_555
C13 O2 1_555 1_555
H16 C13 1_555 1_555
C14 C13 1_555 1_555
H17 C14 1_555 1_555
C15 C14 1_555 1_555
H18 C15 1_555 1_555
C16 C9 1_555 1_555
H19 C16 1_555 1_555
C17 N1 1_555 1_555
H20 C17 1_555 1_555
H21 C17 1_555 1_555
H22 C17 1_555 1_555
C18 O3 1_555 1_555
H23 C18 1_555 1_555
C19 O5 1_555 1_555
H24 C19 1_555 1_555
C20 O6 1_555 1_555
H25 C20 1_555 1_555
C21 O7 1_555 1_555
H26 C21 1_555 1_555
C22 O4 1_555 1_555
H27 C22 1_555 1_555
C23 C22 1_555 1_555
O10 H28 1_555 1_555
O11 C29 1_555 1_555
O12 C38 1_555 1_555
O13 C41 1_555 1_555
O14 H29 1_555 1_555
O15 H30 1_555 1_555
O16 H31 1_555 1_555
O17 C46 1_555 1_555
O18 C46 1_555 1_555
N2 H32 1_555 1_555
C24 O10 1_555 1_555
C25 C24 1_555 1_555
H33 C25 1_555 1_555
C26 C25 1_555 1_555
H34 C26 1_555 1_555
C27 C26 1_555 1_555
C28 C27 1_555 1_555
C29 C24 1_555 1_555
C30 C27 1_555 1_555
H35 C30 1_555 1_555
H36 C30 1_555 1_555
C31 N2 1_555 1_555
H37 C31 1_555 1_555
C32 C31 1_555 1_555
H38 C32 1_555 1_555
C33 C28 1_555 1_555
C34 C33 1_555 1_555
H39 C34 1_555 1_555
H40 C34 1_555 1_555
C35 N2 1_555 1_555
H41 C35 1_555 1_555
H42 C35 1_555 1_555
C36 C32 1_555 1_555
H43 C36 1_555 1_555
C37 C36 1_555 1_555
H44 C37 1_555 1_555
C38 C37 1_555 1_555
H45 C38 1_555 1_555
C39 O11 1_555 1_555
H46 C39 1_555 1_555
C40 N2 1_555 1_555
H47 C40 1_555 1_555
H48 C40 1_555 1_555
H49 C40 1_555 1_555
C41 O12 1_555 1_555
H50 C41 1_555 1_555
C42 O14 1_555 1_555
H51 C42 1_555 1_555
C43 O15 1_555 1_555
H52 C43 1_555 1_555
C44 O16 1_555 1_555
H53 C44 1_555 1_555
C45 O13 1_555 1_555
H54 C45 1_555 1_555
C46 C45 1_555 1_555
O19 H55 1_555 1_555
H56 O19 1_555 1_555
O20 H57 1_555 1_555
H58 O20 1_555 1_555
O21 H59 1_555 1_555
H60 O21 1_555 1_555
O22 H61 1_555 1_555
H62 O22 1_555 1_555
O23 H63 1_555 1_555
H64 O23 1_555 1_555
O24 H65 1_555 1_555
H66 O24 1_555 1_555
C5 C6 1_555 1_555
C7 C8 1_555 1_555
C9 C10 1_555 1_555
C10 C13 1_555 1_555
C11 C12 1_555 1_555
C15 C16 1_555 1_555
C18 C19 1_555 1_555
C19 C20 1_555 1_555
C20 C21 1_555 1_555
C21 C22 1_555 1_555
C28 C29 1_555 1_555
C30 C31 1_555 1_555
C32 C33 1_555 1_555
C33 C39 1_555 1_555
C34 C35 1_555 1_555
C38 C39 1_555 1_555
C41 C42 1_555 1_555
C42 C43 1_555 1_555
C43 C44 1_555 1_555
C44 C45 1_555 1_555

#END
