
#######################################################################
#
#                 Cambridge Crystallographic Data Centre
#                                CCDC 
#
#######################################################################
#
# If this CIF has been generated from an entry in the Cambridge 
# Structural Database, then it will include bibliographic, chemical, 
# crystal, experimental, refinement or atomic coordinate data resulting 
# from the CCDC's data processing and validation procedures.
#
#######################################################################

data_OJOMUV
_chemical_formula_moiety         'C11 H22 B1 N1 O1'
_chemical_name_systematic        1-(2-Aminoethanol-N)-1-boraadamantane
_chemical_properties_biological  
'antiproliferative effect on the CD81 enriched astrocytes relative to the CD81 deficient cell lines; potential antihepatitis C virus (HCV) agent'
_symmetry_cell_setting           monoclinic
_symmetry_space_group_name_H-M   'P 21/c'
_symmetry_Int_Tables_number      14
_space_group_name_Hall           '-P 2ybc'
loop_
_symmetry_equiv_pos_site_id
_symmetry_equiv_pos_as_xyz
1 x,y,z
2 -x,1/2+y,1/2-z
3 -x,-y,-z
4 x,1/2-y,1/2+z
_cell_length_a                   10.4556(8)
_cell_length_b                   20.4014(16)
_cell_length_c                   10.4271(8)
_cell_angle_alpha                90
_cell_angle_beta                 90.477(2)
_cell_angle_gamma                90
_cell_volume                     2224.12
_exptl_crystal_colour            colorless
_exptl_crystal_description       irregular
_chemical_melting_point          '131-133 deg.C'
_cell_formula_units_Z            8
loop_
_atom_site_label
_atom_site_type_symbol
_atom_site_fract_x
_atom_site_fract_y
_atom_site_fract_z
O1 O 0.8740(3) 0.01245(14) 0.8325(3)
N1 N 1.0927(3) 0.07746(16) 0.9168(3)
B1 B 1.2313(4) 0.1107(2) 0.8858(4)
C1 C 1.2488(4) 0.17998(19) 0.9594(4)
C2 C 1.3418(4) 0.06064(18) 0.9353(4)
C3 C 1.2447(4) 0.12188(19) 0.7317(4)
C4 C 1.3820(4) 0.20638(19) 0.9262(4)
C5 C 1.4865(4) 0.1576(2) 0.9709(4)
C6 C 1.4720(4) 0.0915(2) 0.9024(4)
C7 C 1.4823(4) 0.1020(2) 0.7573(4)
C8 C 1.3793(4) 0.15022(19) 0.7086(4)
C9 C 1.3936(4) 0.21595(19) 0.7811(4)
C10 C 0.9755(4) 0.1142(2) 0.8774(4)
C11 C 0.8557(4) 0.07477(19) 0.8930(4)
H1 H 0.800(5) -0.003(2) 0.815(5)
H2 H 1.241(5) 0.178(2) 1.052(5)
H3 H 1.185(4) 0.213(2) 0.926(4)
H4 H 1.081(6) 0.038(3) 0.868(6)
H5 H 1.092(4) 0.071(2) 1.009(5)
H6 H 1.337(4) 0.016(2) 0.882(4)
H7 H 1.340(4) 0.053(2) 1.029(4)
H8 H 1.225(4) 0.078(2) 0.677(4)
H9 H 1.180(4) 0.149(2) 0.694(4)
H10 H 1.401(4) 0.251(2) 0.974(4)
H11 H 1.470(5) 0.156(2) 1.075(5)
H12 H 1.574(4) 0.173(2) 0.953(4)
H13 H 1.535(4) 0.064(2) 0.924(4)
H14 H 1.568(5) 0.111(3) 0.732(5)
H15 H 1.463(5) 0.062(3) 0.714(5)
H16 H 1.389(4) 0.156(2) 0.608(4)
H17 H 1.330(4) 0.251(2) 0.751(4)
H18 H 1.485(4) 0.234(2) 0.763(4)
H19 H 0.986(5) 0.126(2) 0.787(5)
H20 H 0.974(4) 0.153(2) 0.937(4)
H21 H 0.790(4) 0.095(2) 0.851(4)
H22 H 0.834(4) 0.066(2) 0.986(4)
O2 O 0.6631(3) -0.04016(17) 0.7113(3)
N2 N 0.9009(3) -0.08701(16) 0.5893(3)
B2 B 1.0423(4) -0.11929(19) 0.6100(4)
C12 C 1.1463(4) -0.0706(2) 0.5457(4)
C13 C 1.0516(4) -0.19033(19) 0.5422(4)
C14 C 1.0736(4) -0.1267(2) 0.7622(4)
C15 C 1.2804(4) -0.1010(2) 0.5665(4)
C16 C 1.2862(4) -0.1686(2) 0.5029(4)
C17 C 1.1885(4) -0.21575(19) 0.5634(4)
C18 C 1.2155(4) -0.2216(2) 0.7072(5)
C19 C 1.2102(4) -0.1545(2) 0.7736(4)
C20 C 1.3070(4) -0.1087(2) 0.7115(4)
C21 C 0.7890(4) -0.1272(2) 0.6263(4)
C22 C 0.6641(4) -0.0905(2) 0.6178(4)
H23 H 0.590(3) -0.022(3) 0.704(7)
H24 H 0.884(5) -0.080(3) 0.488(6)
H25 H 0.886(6) -0.049(3) 0.630(6)
H26 H 1.139(4) -0.031(2) 0.582(4)
H27 H 1.125(4) -0.059(2) 0.446(5)
H28 H 0.992(4) -0.219(2) 0.580(4)
H29 H 1.038(4) -0.190(2) 0.454(4)
H30 H 1.067(5) -0.085(3) 0.805(6)
H31 H 1.014(5) -0.156(2) 0.812(5)
H32 H 1.351(4) -0.077(2) 0.527(4)
H33 H 1.376(4) -0.187(2) 0.504(4)
H34 H 1.268(4) -0.166(2) 0.407(5)
H35 H 1.195(4) -0.258(2) 0.520(5)
H36 H 1.302(4) -0.234(2) 0.717(4)
H37 H 1.149(4) -0.249(2) 0.747(4)
H38 H 1.237(4) -0.154(2) 0.865(5)
H39 H 1.309(5) -0.066(3) 0.746(5)
H40 H 1.395(4) -0.122(2) 0.724(4)
H41 H 0.811(4) -0.136(2) 0.714(4)
H42 H 0.786(4) -0.168(2) 0.561(5)
H43 H 0.597(5) -0.126(3) 0.633(5)
H44 H 0.649(4) -0.071(2) 0.530(4)
loop_
_geom_bond_atom_site_label_1
_geom_bond_atom_site_label_2
_geom_bond_site_symmetry_1
_geom_bond_site_symmetry_2
O1 C11 1_555 1_555
N1 B1 1_555 1_555
B1 C1 1_555 1_555
C1 C4 1_555 1_555
C2 B1 1_555 1_555
C3 B1 1_555 1_555
C4 C5 1_555 1_555
C5 C6 1_555 1_555
C6 C2 1_555 1_555
C7 C6 1_555 1_555
C8 C3 1_555 1_555
C9 C4 1_555 1_555
C10 N1 1_555 1_555
C11 C10 1_555 1_555
H1 O1 1_555 1_555
H2 C1 1_555 1_555
H3 C1 1_555 1_555
H4 N1 1_555 1_555
H5 N1 1_555 1_555
H6 C2 1_555 1_555
H7 C2 1_555 1_555
H8 C3 1_555 1_555
H9 C3 1_555 1_555
H10 C4 1_555 1_555
H11 C5 1_555 1_555
H12 C5 1_555 1_555
H13 C6 1_555 1_555
H14 C7 1_555 1_555
H15 C7 1_555 1_555
H16 C8 1_555 1_555
H17 C9 1_555 1_555
H18 C9 1_555 1_555
H19 C10 1_555 1_555
H20 C10 1_555 1_555
H21 C11 1_555 1_555
H22 C11 1_555 1_555
O2 C22 1_555 1_555
N2 B2 1_555 1_555
B2 C12 1_555 1_555
C12 C15 1_555 1_555
C13 B2 1_555 1_555
C14 B2 1_555 1_555
C15 C16 1_555 1_555
C16 C17 1_555 1_555
C17 C13 1_555 1_555
C18 C17 1_555 1_555
C19 C14 1_555 1_555
C20 C15 1_555 1_555
C21 N2 1_555 1_555
C22 C21 1_555 1_555
H23 O2 1_555 1_555
H24 N2 1_555 1_555
H25 N2 1_555 1_555
H26 C12 1_555 1_555
H27 C12 1_555 1_555
H28 C13 1_555 1_555
H29 C13 1_555 1_555
H30 C14 1_555 1_555
H31 C14 1_555 1_555
H32 C15 1_555 1_555
H33 C16 1_555 1_555
H34 C16 1_555 1_555
H35 C17 1_555 1_555
H36 C18 1_555 1_555
H37 C18 1_555 1_555
H38 C19 1_555 1_555
H39 C20 1_555 1_555
H40 C20 1_555 1_555
H41 C21 1_555 1_555
H42 C21 1_555 1_555
H43 C22 1_555 1_555
H44 C22 1_555 1_555
C7 C8 1_555 1_555
C8 C9 1_555 1_555
C18 C19 1_555 1_555
C19 C20 1_555 1_555

#END
