
#######################################################################
#
#                 Cambridge Crystallographic Data Centre
#                                CCDC 
#
#######################################################################
#
# If this CIF has been generated from an entry in the Cambridge 
# Structural Database, then it will include bibliographic, chemical, 
# crystal, experimental, refinement or atomic coordinate data resulting 
# from the CCDC's data processing and validation procedures.
#
#######################################################################

data_OJOQIN
_chemical_formula_moiety         'K1 1+,C2 H3 O1 S2 1-,0.5(C2 H3 N1)'
_chemical_name_systematic        
'Potassium O-methyldithiocarbonate acetonitrile solvate'
_symmetry_cell_setting           monoclinic
_symmetry_space_group_name_H-M   'P 21/n'
_symmetry_Int_Tables_number      14
_space_group_name_Hall           '-P 2yn'
loop_
_symmetry_equiv_pos_site_id
_symmetry_equiv_pos_as_xyz
1 x,y,z
2 1/2-x,1/2+y,1/2-z
3 -x,-y,-z
4 1/2+x,1/2-y,1/2+z
_cell_length_a                   9.9176(7)
_cell_length_b                   10.3027(8)
_cell_length_c                   14.3530(11)
_cell_angle_alpha                90
_cell_angle_beta                 99.660(2)
_cell_angle_gamma                90
_cell_volume                     1445.77
_exptl_crystal_colour            colorless
_exptl_crystal_description       plate
_cell_formula_units_Z            8
loop_
_atom_site_label
_atom_site_type_symbol
_atom_site_fract_x
_atom_site_fract_y
_atom_site_fract_z
K1 K 1.08994(3) 0.00433(3) 0.14449(3)
K2 K 0.90312(4) -0.50150(3) -0.13378(3)
S1 S 1.27896(4) -0.24867(3) 0.22638(3)
S2 S 1.08659(5) -0.37398(4) 0.33988(4)
O1 O 1.14907(11) -0.12458(10) 0.33679(9)
C1 C 1.16797(16) -0.24622(13) 0.30404(12)
C2 C 1.06595(19) -0.10780(17) 0.40954(14)
H1 H 1.1049 -0.1584 0.4654
H2 H 0.9727 -0.1379 0.3860
H3 H 1.0639 -0.0158 0.4265
S3 S 0.95194(4) -0.24498(3) 0.00942(3)
S4 S 1.19429(4) -0.37160(4) -0.05442(3)
O2 O 1.16856(12) -0.12406(10) -0.01204(9)
C3 C 1.11081(17) -0.24386(13) -0.01953(11)
C4 C 1.30818(18) -0.10940(18) -0.02728(15)
H4 H 1.3154 -0.1382 -0.0913
H5 H 1.3687 -0.1621 0.0189
H6 H 1.3350 -0.0180 -0.0197
N1 N 0.88033(17) 0.07916(17) 0.24868(13)
C5 C 0.8464(2) 0.1724(2) 0.27839(15)
C6 C 0.8023(3) 0.2935(3) 0.3156(2)
H7 H 0.7193 0.2783 0.3425
H8 H 0.7833 0.3573 0.2644
H9 H 0.8748 0.3264 0.3648
loop_
_geom_bond_atom_site_label_1
_geom_bond_atom_site_label_2
_geom_bond_site_symmetry_1
_geom_bond_site_symmetry_2
S1 C1 1_555 1_555
S2 C1 1_555 1_555
O1 C1 1_555 1_555
C2 O1 1_555 1_555
H1 C2 1_555 1_555
H2 C2 1_555 1_555
H3 C2 1_555 1_555
S3 C3 1_555 1_555
S4 C3 1_555 1_555
O2 C3 1_555 1_555
C4 O2 1_555 1_555
H4 C4 1_555 1_555
H5 C4 1_555 1_555
H6 C4 1_555 1_555
N1 C5 1_555 1_555
C5 C6 1_555 1_555
C6 H7 1_555 1_555
H8 C6 1_555 1_555
H9 C6 1_555 1_555

#END
