
#######################################################################
#
#                 Cambridge Crystallographic Data Centre
#                                CCDC 
#
#######################################################################
#
# If this CIF has been generated from an entry in the Cambridge 
# Structural Database, then it will include bibliographic, chemical, 
# crystal, experimental, refinement or atomic coordinate data resulting 
# from the CCDC's data processing and validation procedures.
#
#######################################################################

data_OJOSEL
_chemical_formula_moiety         'C28 H34 O7'
_chemical_name_systematic        
6-(3,4-Dimethoxyphenyl)-4-hydroxy-3-(3,6,6,8b-tetramethyloctahydro-2H,3H-3,5a-epoxynaphtho(1,8-bc)furan-2-yl)-2H-pyran-2-one
_symmetry_cell_setting           triclinic
_symmetry_space_group_name_H-M   'P -1'
_symmetry_Int_Tables_number      2
_space_group_name_Hall           '-P 1'
loop_
_symmetry_equiv_pos_site_id
_symmetry_equiv_pos_as_xyz
1 x,y,z
2 -x,-y,-z
_cell_length_a                   7.976(2)
_cell_length_b                   10.807(3)
_cell_length_c                   14.936(4)
_cell_angle_alpha                102.446(4)
_cell_angle_beta                 102.342(4)
_cell_angle_gamma                97.713(4)
_cell_volume                     1205.99
_exptl_crystal_colour            'pale yellow'
_exptl_crystal_description       block
_cell_formula_units_Z            2
loop_
_atom_site_label
_atom_site_type_symbol
_atom_site_fract_x
_atom_site_fract_y
_atom_site_fract_z
O1 O -0.04140(14) -1.00290(11) -0.34815(8)
O2 O 0.01432(14) -0.83995(11) -0.15325(8)
O3 O 0.54587(16) -0.73934(13) -0.16763(9)
O4 O 0.13077(17) -0.69655(12) 0.01621(9)
H1 H 0.055(3) -0.735(2) -0.0412(15)
O5 O 0.63188(15) -0.65788(11) -0.01258(8)
O6 O 0.89812(16) -0.45092(12) 0.41074(8)
O7 O 1.17879(16) -0.35364(13) 0.37237(8)
C1 C 0.0037(2) -0.96602(16) -0.13322(12)
H2 H 0.0765 -0.9553 -0.0676
C2 C -0.1833(2) -1.01808(19) -0.13640(13)
H3 H -0.2296 -0.9508 -0.0978
H4 H -0.1868 -1.0930 -0.1082
C3 C -0.2997(2) -1.05954(18) -0.23708(13)
H5 H -0.3063 -0.9824 -0.2624
H6 H -0.4193 -1.0958 -0.2351
C4 C -0.2359(2) -1.16010(17) -0.30489(12)
C5 C -0.0447(2) -1.10934(16) -0.30317(12)
C6 C 0.0431(2) -1.20047(18) -0.36377(13)
H7 H -0.0396 -1.2498 -0.4243
H8 H 0.0929 -1.2613 -0.3295
C7 C 0.1871(2) -1.10435(18) -0.37983(13)
H9 H 0.1810 -1.1165 -0.4481
H10 H 0.3046 -1.1134 -0.3466
C8 C 0.1451(2) -0.97197(17) -0.33704(12)
C9 C 0.2121(2) -0.94176(16) -0.22838(12)
H11 H 0.3370 -0.9508 -0.2090
C10 C 0.0873(2) -1.04585(16) -0.20305(12)
C11 C 0.4982(2) -0.71617(17) -0.09467(12)
C12 C 0.1813(2) -0.81088(16) -0.17465(12)
H12 H 0.1715 -0.7524 -0.2183
C13 C 0.3230(2) -0.74322(16) -0.08524(12)
C14 C 0.2915(2) -0.69072(16) 0.00065(12)
C15 C 0.4308(2) -0.62390(16) 0.08012(12)
H13 H 0.4064 -0.5881 0.1388
C16 C 0.5968(2) -0.61098(16) 0.07296(12)
C17 C 0.7546(2) -0.54716(16) 0.14864(12)
C18 C 0.7467(2) -0.52980(16) 0.24387(12)
H14 H 0.6407 -0.5608 0.2580
C19 C 0.8911(2) -0.46828(17) 0.31645(12)
C20 C 1.0461(2) -0.41735(17) 0.29570(12)
C21 C 1.0551(2) -0.43613(17) 0.20241(12)
H15 H 1.1604 -0.4039 0.1881
C22 C 0.9105(2) -0.50204(16) 0.12947(12)
H16 H 0.9188 -0.5163 0.0657
C23 C 0.1843(3) -1.13780(18) -0.15529(13)
H17 H 0.2617 -1.0890 -0.0940
H18 H 0.2537 -1.1783 -0.1959
H19 H 0.0991 -1.2047 -0.1456
C24 C -0.3546(2) -1.18312(19) -0.40474(13)
H20 H -0.3162 -1.2471 -0.4493
H21 H -0.3479 -1.1019 -0.4241
H22 H -0.4755 -1.2150 -0.4046
C25 C -0.2499(3) -1.28909(18) -0.27664(14)
H23 H -0.2084 -1.3518 -0.3205
H24 H -0.3721 -1.3217 -0.2793
H25 H -0.1782 -1.2760 -0.2121
C26 C 0.1886(3) -0.86743(19) -0.38552(13)
H26 H 0.1572 -0.7876 -0.3542
H27 H 0.1228 -0.8943 -0.4521
H28 H 0.3141 -0.8525 -0.3818
C27 C 0.7484(2) -0.50843(19) 0.43516(13)
H29 H 0.7697 -0.4895 0.5043
H30 H 0.7255 -0.6021 0.4087
H31 H 0.6469 -0.4733 0.4093
C28 C 1.3252(3) -0.2805(2) 0.35426(15)
H32 H 1.4122 -0.2394 0.4142
H33 H 1.2864 -0.2141 0.3237
H34 H 1.3773 -0.3380 0.3125
loop_
_geom_bond_atom_site_label_1
_geom_bond_atom_site_label_2
_geom_bond_site_symmetry_1
_geom_bond_site_symmetry_2
O1 C5 1_555 1_555
O2 C1 1_555 1_555
O3 C11 1_555 1_555
O4 H1 1_555 1_555
O5 C11 1_555 1_555
O6 C19 1_555 1_555
O7 C20 1_555 1_555
C1 H2 1_555 1_555
C2 C1 1_555 1_555
H3 C2 1_555 1_555
H4 C2 1_555 1_555
C3 C2 1_555 1_555
H5 C3 1_555 1_555
H6 C3 1_555 1_555
C4 C3 1_555 1_555
C5 C4 1_555 1_555
C6 C5 1_555 1_555
H7 C6 1_555 1_555
H8 C6 1_555 1_555
C7 C6 1_555 1_555
H9 C7 1_555 1_555
H10 C7 1_555 1_555
C8 O1 1_555 1_555
C9 C8 1_555 1_555
H11 C9 1_555 1_555
C10 C1 1_555 1_555
C11 C13 1_555 1_555
C12 O2 1_555 1_555
H12 C12 1_555 1_555
C13 C12 1_555 1_555
C14 O4 1_555 1_555
C15 C14 1_555 1_555
H13 C15 1_555 1_555
C16 O5 1_555 1_555
C17 C16 1_555 1_555
C18 C17 1_555 1_555
H14 C18 1_555 1_555
C19 C18 1_555 1_555
C20 C19 1_555 1_555
C21 C20 1_555 1_555
H15 C21 1_555 1_555
C22 C17 1_555 1_555
H16 C22 1_555 1_555
C23 C10 1_555 1_555
H17 C23 1_555 1_555
H18 C23 1_555 1_555
H19 C23 1_555 1_555
C24 C4 1_555 1_555
H20 C24 1_555 1_555
H21 C24 1_555 1_555
H22 C24 1_555 1_555
C25 C4 1_555 1_555
H23 C25 1_555 1_555
H24 C25 1_555 1_555
H25 C25 1_555 1_555
C26 C8 1_555 1_555
H26 C26 1_555 1_555
H27 C26 1_555 1_555
H28 C26 1_555 1_555
C27 O6 1_555 1_555
H29 C27 1_555 1_555
H30 C27 1_555 1_555
H31 C27 1_555 1_555
C28 O7 1_555 1_555
H32 C28 1_555 1_555
H33 C28 1_555 1_555
H34 C28 1_555 1_555
C5 C10 1_555 1_555
C7 C8 1_555 1_555
C9 C12 1_555 1_555
C9 C10 1_555 1_555
C13 C14 1_555 1_555
C15 C16 1_555 1_555
C21 C22 1_555 1_555

#END
