
#######################################################################
#
#                 Cambridge Crystallographic Data Centre
#                                CCDC 
#
#######################################################################
#
# If this CIF has been generated from an entry in the Cambridge 
# Structural Database, then it will include bibliographic, chemical, 
# crystal, experimental, refinement or atomic coordinate data resulting 
# from the CCDC's data processing and validation procedures.
#
#######################################################################

data_OJOTEN
_chemical_formula_moiety         'C21 H33 N3 O9 S1,1.25(C1 H2 Cl2),0.25(H2 O1)'
_chemical_name_systematic        
"N-(R,R-2'-Amino-cyclohecyl)-N'-(2',3',4',6'-tetra-O-acetyl-1-deoxyl-\a-D-glucosyd-1-yl)thiourea dichloromethane solvate hydrate"
_symmetry_cell_setting           monoclinic
_symmetry_space_group_name_H-M   'P 21'
_symmetry_Int_Tables_number      4
_space_group_name_Hall           'P 2yb'
loop_
_symmetry_equiv_pos_site_id
_symmetry_equiv_pos_as_xyz
1 x,y,z
2 -x,1/2+y,-z
_cell_length_a                   19.573(10)
_cell_length_b                   8.953(4)
_cell_length_c                   21.212(10)
_cell_angle_alpha                90
_cell_angle_beta                 116.452(5)
_cell_angle_gamma                90
_cell_volume                     3327.97
_exptl_crystal_colour            colorless
_exptl_crystal_description       prism
_cell_formula_units_Z            4
loop_
_atom_site_label
_atom_site_type_symbol
_atom_site_fract_x
_atom_site_fract_y
_atom_site_fract_z
S1 S 0.60246(6) -0.26204(13) 0.21740(5)
N1 N 0.55349(19) -0.4315(4) 0.00751(17)
H1 H 0.5609 -0.5021 0.0479
H2 H 0.5208 -0.3745 0.0150
N2 N 0.59136(19) -0.1637(4) 0.09534(16)
H3 H 0.5620 -0.0990 0.0570
N3 N 0.51632(18) -0.0419(4) 0.13353(15)
H4 H 0.4908 0.0045 0.0900
O1 O 0.41276(14) -0.0564(3) 0.15886(13)
O2 O 0.24975(17) -0.0269(4) 0.12408(15)
O3 O 0.1742(3) -0.0303(7) 0.1776(3)
O4 O 0.35385(16) 0.1655(3) 0.26920(14)
O5 O 0.2589(2) 0.3183(5) 0.1977(2)
O6 O 0.44322(16) 0.3715(3) 0.23374(13)
O7 O 0.5226(2) 0.4030(4) 0.34890(16)
O8 O 0.56329(14) 0.2250(3) 0.21455(12)
O9 O 0.53805(17) 0.3228(4) 0.10839(15)
C1 C 0.6234(2) -0.3433(5) 0.02594(19)
H9 H 0.6118 -0.2661 -0.0116
C2 C 0.6864(2) -0.4432(5) 0.0259(2)
H10 H 0.6964 -0.5249 0.0604
H11 H 0.6688 -0.4891 -0.0213
C3 C 0.7601(3) -0.3592(7) 0.0441(3)
H12 H 0.7519 -0.2858 0.0065
H13 H 0.7998 -0.4304 0.0464
C4 C 0.7875(3) -0.2784(7) 0.1140(3)
H14 H 0.8334 -0.2187 0.1227
H15 H 0.8015 -0.3522 0.1525
C5 C 0.7241(2) -0.1749(6) 0.1131(3)
H16 H 0.7419 -0.1257 0.1596
H17 H 0.7134 -0.0961 0.0772
C6 C 0.6513(2) -0.2611(5) 0.09688(19)
H18 H 0.6626 -0.3373 0.1347
C7 C 0.5689(2) -0.1534(4) 0.14620(18)
C8 C 0.4888(2) -0.0011(4) 0.18285(19)
H19 H 0.5226 -0.0438 0.2302
C9 C 0.3835(2) -0.0279(4) 0.20780(19)
H20 H 0.4194 -0.0703 0.2545
C10 C 0.3076(2) -0.1042(5) 0.1831(2)
H21 H 0.3117 -0.2083 0.1694
H22 H 0.2928 -0.1075 0.2221
C11 C 0.1827(3) -0.0009(7) 0.1257(3)
C12 C 0.1276(3) 0.0818(11) 0.0616(4)
H23 H 0.0877 0.1271 0.0713
H24 H 0.1044 0.0121 0.0220
H25 H 0.1548 0.1602 0.0497
C13 C 0.3782(2) 0.1413(4) 0.21532(19)
H26 H 0.3406 0.1856 0.1697
C14 C 0.2914(3) 0.2542(5) 0.2527(3)
C15 C 0.2684(3) 0.2535(6) 0.3109(3)
H27 H 0.2264 0.3242 0.3000
H28 H 0.3119 0.2829 0.3550
H29 H 0.2516 0.1530 0.3159
C16 C 0.4550(2) 0.2124(4) 0.23836(19)
H30 H 0.4907 0.1818 0.2875
C17 C 0.4771(2) 0.4541(5) 0.2939(2)
C18 C 0.4493(2) 0.6095(5) 0.2797(2)
H31 H 0.4454 0.6499 0.3209
H32 H 0.3990 0.6118 0.2389
H33 H 0.4851 0.6702 0.2698
C19 C 0.4860(2) 0.1693(4) 0.18752(18)
H34 H 0.4537 0.2127 0.1400
C20 C 0.5836(2) 0.2940(4) 0.16896(19)
C21 C 0.6651(2) 0.3322(6) 0.2024(2)
H35 H 0.6829 0.3428 0.1661
H36 H 0.6940 0.2527 0.2352
H37 H 0.6728 0.4265 0.2281
S2 S 0.21916(5) 1.10249(11) 0.65874(5)
N4 N -0.01673(18) 1.2538(4) 0.53827(17)
H5 H 0.0196 1.3415 0.5607
H6 H 0.0009 1.2106 0.5086
N5 N 0.07758(17) 0.9956(4) 0.60271(17)
H7 H 0.0423 0.9343 0.5714
N6 N 0.15702(16) 0.8770(3) 0.56860(16)
H8 H 0.1057 0.8243 0.5319
O10 O 0.23179(13) 0.8846(3) 0.50883(13)
O11 O 0.25768(15) 0.8378(3) 0.38518(14)
O12 O 0.35754(18) 0.8047(4) 0.36080(18)
O13 O 0.39592(14) 0.6739(3) 0.52322(14)
O14 O 0.36215(19) 0.4793(4) 0.44858(19)
O15 O 0.31007(13) 0.4608(3) 0.57170(13)
O16 O 0.43720(15) 0.4413(3) 0.64046(14)
O17 O 0.23437(14) 0.6122(3) 0.63690(12)
O18 O 0.11984(16) 0.5029(3) 0.57415(15)
C22 C -0.0226(2) 1.1672(5) 0.5940(2)
H38 H -0.0609 1.0860 0.5715
C23 C -0.0514(2) 1.2673(5) 0.6359(2)
H39 H -0.0166 1.3536 0.6551
H40 H -0.1026 1.3063 0.6040
C24 C -0.0557(3) 1.1841(6) 0.6951(2)
H41 H -0.0939 1.1030 0.6757
H42 H -0.0727 1.2527 0.7219
C25 C 0.0208(3) 1.1181(8) 0.7440(2)
H43 H 0.0163 1.0621 0.7822
H44 H 0.0585 1.1993 0.7656
C26 C 0.0482(3) 1.0134(6) 0.7029(2)
H45 H 0.0991 0.9731 0.7349
H46 H 0.0124 0.9283 0.6843
C27 C 0.05292(19) 1.0950(5) 0.64274(19)
H47 H 0.0919 1.1760 0.6631
C28 C 0.1486(2) 0.9875(4) 0.60745(18)
C29 C 0.22825(19) 0.8328(4) 0.57148(19)
H48 H 0.2708 0.8783 0.6138
C30 C 0.30432(19) 0.8564(4) 0.51065(19)
H49 H 0.3447 0.9059 0.5532
C31 C 0.3040(2) 0.9254(5) 0.4462(2)
H50 H 0.2837 1.0284 0.4403
H51 H 0.3569 0.9307 0.4516
C32 C 0.2930(2) 0.7783(5) 0.3487(2)
C33 C 0.2387(3) 0.6776(6) 0.2912(2)
H52 H 0.2020 0.7385 0.2526
H53 H 0.2114 0.6139 0.3100
H54 H 0.2676 0.6149 0.2735
C34 C 0.31962(18) 0.6899(4) 0.51549(19)
H55 H 0.2831 0.6406 0.4708
C35 C 0.4104(2) 0.5629(5) 0.4878(2)
C36 C 0.4928(3) 0.5620(6) 0.5035(3)
H56 H 0.5235 0.5257 0.5516
H57 H 0.5089 0.6635 0.4991
H58 H 0.5002 0.4961 0.4701
C37 C 0.31224(19) 0.6201(4) 0.57719(19)
H59 H 0.3553 0.6525 0.6226
C38 C 0.3770(2) 0.3832(4) 0.60440(19)
C39 C 0.3623(2) 0.2227(4) 0.5870(2)
H60 H 0.4102 0.1670 0.6102
H61 H 0.3411 0.2095 0.5359
H62 H 0.3258 0.1854 0.6033
C40 C 0.23692(19) 0.6655(4) 0.57442(18)
H63 H 0.1943 0.6199 0.5321
C41 C 0.1731(2) 0.5336(4) 0.6300(2)
C42 C 0.1804(3) 0.4901(6) 0.7003(2)
H64 H 0.1295 0.4785 0.6979
H65 H 0.2084 0.5678 0.7347
H66 H 0.2082 0.3954 0.7148
C43 C 0.3961(3) 0.6046(6) 0.0851(2)
H67 H 0.4097 0.6916 0.1173
H68 H 0.4390 0.5329 0.1042
Cl1 Cl 0.38218(7) 0.66416(15) 0.00125(6)
Cl2 Cl 0.31344(8) 0.51915(16) 0.08172(7)
C44 C 0.1441(3) 0.2234(6) 0.4684(2)
H69 H 0.1471 0.2897 0.5069
H70 H 0.1763 0.1347 0.4900
Cl3 Cl 0.17937(7) 0.31778(16) 0.41726(6)
Cl4 Cl 0.04866(7) 0.16583(15) 0.41841(7)
C45 C 0.1176(17) 0.571(4) 0.1004(11)
H71 H 0.1099 0.6770 0.1012
H72 H 0.1701 0.5500 0.1315
Cl5 Cl 0.0979(8) 0.5129(19) 0.0141(7)
Cl6 Cl 0.0587(6) 0.4749(17) 0.1299(5)
C47 C 0.0543(8) 0.0971(16) 0.2381(9)
H75 H 0.0754 0.1018 0.2900
H76 H 0.0868 0.0295 0.2262
Cl9 Cl 0.0546(5) 0.2764(10) 0.2046(6)
Cl10 Cl -0.0397(8) 0.0267(18) 0.2020(9)
O19 O 0.8308(6) 0.2345(14) 0.1432(5)
C46? C 0.1265(10) 0.542(4) 0.0967(12)
H73? H 0.1669 0.6075 0.1001
H74? H 0.1482 0.4674 0.1327
Cl7? Cl 0.0863(8) 0.4524(11) 0.0138(6)
Cl8? Cl 0.0584(5) 0.6435(12) 0.1119(4)
loop_
_geom_bond_atom_site_label_1
_geom_bond_atom_site_label_2
_geom_bond_site_symmetry_1
_geom_bond_site_symmetry_2
S1 C7 1_555 1_555
S2 C28 1_555 1_555
N1 H1 1_555 1_555
H2 N1 1_555 1_555
N2 H3 1_555 1_555
N3 H4 1_555 1_555
N4 H5 1_555 1_555
H6 N4 1_555 1_555
N5 H7 1_555 1_555
N6 H8 1_555 1_555
O1 C8 1_555 1_555
O2 C10 1_555 1_555
O3 C11 1_555 1_555
O4 C13 1_555 1_555
O5 C14 1_555 1_555
O6 C16 1_555 1_555
O7 C17 1_555 1_555
O8 C19 1_555 1_555
O9 C20 1_555 1_555
O10 C29 1_555 1_555
O11 C31 1_555 1_555
O12 C32 1_555 1_555
O13 C34 1_555 1_555
O14 C35 1_555 1_555
O15 C37 1_555 1_555
O16 C38 1_555 1_555
O17 C40 1_555 1_555
O18 C41 1_555 1_555
C1 N1 1_555 1_555
H9 C1 1_555 1_555
C2 C1 1_555 1_555
H10 C2 1_555 1_555
H11 C2 1_555 1_555
C3 C2 1_555 1_555
H12 C3 1_555 1_555
H13 C3 1_555 1_555
C4 C3 1_555 1_555
H14 C4 1_555 1_555
H15 C4 1_555 1_555
C5 C4 1_555 1_555
H16 C5 1_555 1_555
H17 C5 1_555 1_555
C6 N2 1_555 1_555
H18 C6 1_555 1_555
C7 N2 1_555 1_555
C8 N3 1_555 1_555
H19 C8 1_555 1_555
C9 O1 1_555 1_555
H20 C9 1_555 1_555
C10 C9 1_555 1_555
H21 C10 1_555 1_555
H22 C10 1_555 1_555
C11 O2 1_555 1_555
C12 C11 1_555 1_555
H23 C12 1_555 1_555
H24 C12 1_555 1_555
H25 C12 1_555 1_555
C13 C9 1_555 1_555
H26 C13 1_555 1_555
C14 O4 1_555 1_555
C15 C14 1_555 1_555
H27 C15 1_555 1_555
H28 C15 1_555 1_555
H29 C15 1_555 1_555
C16 C13 1_555 1_555
H30 C16 1_555 1_555
C17 O6 1_555 1_555
C18 C17 1_555 1_555
H31 C18 1_555 1_555
H32 C18 1_555 1_555
H33 C18 1_555 1_555
C19 C8 1_555 1_555
H34 C19 1_555 1_555
C20 O8 1_555 1_555
C21 C20 1_555 1_555
H35 C21 1_555 1_555
H36 C21 1_555 1_555
H37 C21 1_555 1_555
C22 N4 1_555 1_555
H38 C22 1_555 1_555
C23 C22 1_555 1_555
H39 C23 1_555 1_555
H40 C23 1_555 1_555
C24 C23 1_555 1_555
H41 C24 1_555 1_555
H42 C24 1_555 1_555
C25 C24 1_555 1_555
H43 C25 1_555 1_555
H44 C25 1_555 1_555
C26 C25 1_555 1_555
H45 C26 1_555 1_555
H46 C26 1_555 1_555
C27 N5 1_555 1_555
H47 C27 1_555 1_555
C28 N5 1_555 1_555
C29 N6 1_555 1_555
H48 C29 1_555 1_555
C30 O10 1_555 1_555
H49 C30 1_555 1_555
C31 C30 1_555 1_555
H50 C31 1_555 1_555
H51 C31 1_555 1_555
C32 O11 1_555 1_555
C33 C32 1_555 1_555
H52 C33 1_555 1_555
H53 C33 1_555 1_555
H54 C33 1_555 1_555
C34 C30 1_555 1_555
H55 C34 1_555 1_555
C35 O13 1_555 1_555
C36 C35 1_555 1_555
H56 C36 1_555 1_555
H57 C36 1_555 1_555
H58 C36 1_555 1_555
C37 C34 1_555 1_555
H59 C37 1_555 1_555
C38 O15 1_555 1_555
C39 C38 1_555 1_555
H60 C39 1_555 1_555
H61 C39 1_555 1_555
H62 C39 1_555 1_555
C40 C29 1_555 1_555
H63 C40 1_555 1_555
C41 O17 1_555 1_555
C42 C41 1_555 1_555
H64 C42 1_555 1_555
H65 C42 1_555 1_555
H66 C42 1_555 1_555
C43 H67 1_555 1_555
H68 C43 1_555 1_555
Cl1 C43 1_555 1_555
Cl2 C43 1_555 1_555
C44 H69 1_555 1_555
H70 C44 1_555 1_555
Cl3 C44 1_555 1_555
Cl4 C44 1_555 1_555
C45 H71 1_555 1_555
H72 C45 1_555 1_555
Cl5 C45 1_555 1_555
Cl6 C45 1_555 1_555
C47 H75 1_555 1_555
H76 C47 1_555 1_555
Cl9 C47 1_555 1_555
Cl10 C47 1_555 1_555
N3 C7 1_555 1_555
N6 C28 1_555 1_555
C1 C6 1_555 1_555
C5 C6 1_555 1_555
C16 C19 1_555 1_555
C22 C27 1_555 1_555
C26 C27 1_555 1_555
C37 C40 1_555 1_555

#END
