
#######################################################################
#
#                 Cambridge Crystallographic Data Centre
#                                CCDC 
#
#######################################################################
#
# If this CIF has been generated from an entry in the Cambridge 
# Structural Database, then it will include bibliographic, chemical, 
# crystal, experimental, refinement or atomic coordinate data resulting 
# from the CCDC's data processing and validation procedures.
#
#######################################################################

data_OJUCUT
_chemical_formula_moiety         'C20 H30 O5,H2 O1'
_chemical_name_systematic        
'11,12,15-trihydroxykaur-16-en-18-oic acid monohydrate'
_symmetry_cell_setting           orthorhombic
_symmetry_space_group_name_H-M   'P 21 21 21'
_symmetry_Int_Tables_number      19
_space_group_name_Hall           'P 2ac 2ab'
loop_
_symmetry_equiv_pos_site_id
_symmetry_equiv_pos_as_xyz
1 x,y,z
2 1/2+x,1/2-y,-z
3 -x,1/2+y,1/2-z
4 1/2-x,-y,1/2+z
_cell_length_a                   7.4530(2)
_cell_length_b                   11.9758(3)
_cell_length_c                   20.4546(5)
_cell_angle_alpha                90
_cell_angle_beta                 90
_cell_angle_gamma                90
_cell_volume                     1825.69
_exptl_crystal_colour            colorless
_exptl_crystal_description       block
_cell_formula_units_Z            4
loop_
_atom_site_label
_atom_site_type_symbol
_atom_site_fract_x
_atom_site_fract_y
_atom_site_fract_z
O1 O 0.6969(2) 0.51103(14) -0.10663(7)
H1 H 0.7291 0.5605 -0.1333
O2 O 0.4423(2) 0.52070(14) -0.16390(8)
O3 O 0.4636(2) 0.47447(13) 0.23721(8)
H2 H 0.3662 0.5095 0.2350
C1 C 0.7144(3) 0.65249(19) 0.12280(10)
H3 H 0.8419 0.6394 0.1339
H4 H 0.7062 0.6810 0.0775
O4 O 0.2331(2) 0.63116(14) 0.19413(7)
H5 H 0.1810 0.6862 0.2111
C2 C 0.6024(3) 0.6937(2) 0.29348(11)
H6 H 0.6089 0.7710 0.3038
H7 H 0.5916 0.6402 0.3275
C3 C 0.6086(3) 0.66071(18) 0.23166(11)
C4 C 0.6034(3) 0.53991(19) 0.20856(10)
H8 H 0.7198 0.5049 0.2216
C5 C 0.6016(3) 0.54564(18) 0.13182(10)
C6 C 0.6906(3) 0.44239(19) 0.10337(10)
H9 H 0.6302 0.3749 0.1206
H10 H 0.8176 0.4400 0.1174
C7 C 0.6818(3) 0.44145(18) 0.02871(10)
H11 H 0.7452 0.3749 0.0117
H12 H 0.7417 0.5088 0.0111
C8 C 0.4854(3) 0.43919(17) 0.00647(10)
H13 H 0.4300 0.3777 0.0327
C9 C 0.4510(3) 0.40471(18) -0.06608(11)
C10 C 0.5261(3) 0.48517(18) -0.11720(10)
C11 C 0.5416(3) 0.29116(18) -0.08070(11)
H14 H 0.5049 0.2651 -0.1241
H15 H 0.5049 0.2364 -0.0477
H16 H 0.6723 0.3001 -0.0796
C12 C 0.6254(3) 0.73289(18) 0.17151(11)
H17 H 0.7015 0.8002 0.1798
C13 C 0.4420(3) 0.76447(18) 0.14324(10)
H18 H 0.4630 0.7992 0.0994
O5 O 0.3514(2) 0.84522(13) 0.18293(7)
H19 H 0.2650 0.8146 0.2023
C14 C 0.3144(3) 0.66470(18) 0.13335(10)
H20 H 0.2170 0.6879 0.1026
C15 C 0.4074(3) 0.55933(18) 0.10502(10)
H21 H 0.3394 0.4952 0.1241
C16 C 0.3831(3) 0.54644(18) 0.02870(10)
C17 C 0.4415(3) 0.65094(17) -0.00949(10)
H22 H 0.3985 0.6456 -0.0547
H23 H 0.5727 0.6563 -0.0093
H24 H 0.3903 0.7176 0.0112
C18 C 0.1805(3) 0.52551(19) 0.01556(11)
H25 H 0.1376 0.4659 0.0452
H26 H 0.1128 0.5944 0.0259
C19 C 0.1405(3) 0.4915(2) -0.05524(11)
H27 H 0.0110 0.4747 -0.0596
H28 H 0.1686 0.5548 -0.0846
C20 C 0.2485(3) 0.39010(19) -0.07626(10)
H29 H 0.2251 0.3752 -0.1231
H30 H 0.2073 0.3243 -0.0511
O6 O 1.0174(3) 0.79526(17) 0.25443(10)
loop_
_geom_bond_atom_site_label_1
_geom_bond_atom_site_label_2
_geom_bond_site_symmetry_1
_geom_bond_site_symmetry_2
O1 H1 1_555 1_555
O2 C10 1_555 1_555
O3 H2 1_555 1_555
C1 H3 1_555 1_555
H4 C1 1_555 1_555
O4 H5 1_555 1_555
C2 H6 1_555 1_555
H7 C2 1_555 1_555
C3 C2 1_555 1_555
C4 O3 1_555 1_555
H8 C4 1_555 1_555
C5 C1 1_555 1_555
C6 C5 1_555 1_555
H9 C6 1_555 1_555
H10 C6 1_555 1_555
C7 C6 1_555 1_555
H11 C7 1_555 1_555
H12 C7 1_555 1_555
C8 C7 1_555 1_555
H13 C8 1_555 1_555
C9 C8 1_555 1_555
C10 O1 1_555 1_555
C11 C9 1_555 1_555
H14 C11 1_555 1_555
H15 C11 1_555 1_555
H16 C11 1_555 1_555
C12 C1 1_555 1_555
H17 C12 1_555 1_555
C13 C12 1_555 1_555
H18 C13 1_555 1_555
O5 C13 1_555 1_555
H19 O5 1_555 1_555
C14 O4 1_555 1_555
H20 C14 1_555 1_555
C15 C5 1_555 1_555
H21 C15 1_555 1_555
C16 C8 1_555 1_555
C17 C16 1_555 1_555
H22 C17 1_555 1_555
H23 C17 1_555 1_555
H24 C17 1_555 1_555
C18 C16 1_555 1_555
H25 C18 1_555 1_555
H26 C18 1_555 1_555
C19 C18 1_555 1_555
H27 C19 1_555 1_555
H28 C19 1_555 1_555
C20 C9 1_555 1_555
H29 C20 1_555 1_555
H30 C20 1_555 1_555
C3 C4 1_555 1_555
C3 C12 1_555 1_555
C4 C5 1_555 1_555
C9 C10 1_555 1_555
C13 C14 1_555 1_555
C14 C15 1_555 1_555
C15 C16 1_555 1_555
C19 C20 1_555 1_555

#END
