
#######################################################################
#
#                 Cambridge Crystallographic Data Centre
#                                CCDC 
#
#######################################################################
#
# If this CIF has been generated from an entry in the Cambridge 
# Structural Database, then it will include bibliographic, chemical, 
# crystal, experimental, refinement or atomic coordinate data resulting 
# from the CCDC's data processing and validation procedures.
#
#######################################################################

data_OJUVUK
_chemical_formula_moiety         'C64 H82'
_chemical_name_systematic        
4-(4-Methylstyryl)-4'-(4-(4-methylstyryl)-2,5-di-n-hexylstyryl)-2,5-di-n-hexyl-stilbene
_symmetry_cell_setting           triclinic
_symmetry_space_group_name_H-M   'P -1'
_symmetry_Int_Tables_number      2
_space_group_name_Hall           '-P 1'
loop_
_symmetry_equiv_pos_site_id
_symmetry_equiv_pos_as_xyz
1 x,y,z
2 -x,-y,-z
_cell_length_a                   4.8632(10)
_cell_length_b                   12.149(2)
_cell_length_c                   22.149(4)
_cell_angle_alpha                101.86(3)
_cell_angle_beta                 91.40(3)
_cell_angle_gamma                91.96(3)
_cell_volume                     1279.28
_exptl_crystal_colour            yellow
_exptl_crystal_description       'long plate'
_chemical_melting_point          '432 K'
_cell_formula_units_Z            1
_exptl_crystal_recrystallization_method chloroform
loop_
_atom_site_label
_atom_site_type_symbol
_atom_site_fract_x
_atom_site_fract_y
_atom_site_fract_z
C1 C 1.8907(9) 0.8457(4) 0.53229(19)
H1 H 1.8547 0.8163 0.5685
H2 H 1.8879 0.9264 0.5423
H3 H 2.0683 0.8233 0.5174
C2 C 1.6730(8) 0.8004(4) 0.48304(18)
C3 C 1.5780(9) 0.6892(4) 0.47248(18)
H4 H 1.6527 0.6415 0.4959
C4 C 1.3758(8) 0.6470(3) 0.42829(19)
H5 H 1.3167 0.5719 0.4226
C5 C 1.2587(8) 0.7153(3) 0.39208(18)
C6 C 1.3575(8) 0.8259(4) 0.40179(19)
H6 H 1.2864 0.8731 0.3776
C7 C 1.5576(8) 0.8678(3) 0.44608(18)
H7 H 1.6175 0.9429 0.4516
C8 C 1.0402(8) 0.6679(4) 0.34638(19)
H8 H 0.9737 0.5954 0.3469
C9 C 0.9287(8) 0.7173(3) 0.30483(18)
H9 H 0.9982 0.7892 0.3039
C10 C 0.7072(8) 0.6716(3) 0.25988(18)
C11 C 0.5839(8) 0.5655(3) 0.25762(18)
H10 H 0.6475 0.5238 0.2855
C12 C 0.3719(8) 0.5183(4) 0.21620(19)
C13 C 0.2738(8) 0.5820(3) 0.17411(18)
C14 C 0.3990(8) 0.6886(3) 0.17681(17)
H11 H 0.3351 0.7312 0.1494
C15 C 0.6109(8) 0.7341(3) 0.21762(18)
C16 C 0.0530(8) 0.5362(3) 0.12932(17)
H12 H -0.0125 0.4634 0.1292
C17 C -0.0635(8) 0.5882(3) 0.08880(18)
H13 H 0.0002 0.6614 0.0890
C18 C -0.2847(8) 0.5405(4) 0.04360(17)
C19 C -0.3735(8) 0.4264(3) 0.03122(18)
H14 H -0.2884 0.3765 0.0517
C20 C -0.4150(8) 0.6116(4) 0.01082(18)
H15 H -0.3568 0.6870 0.0177
C21 C 0.2553(8) 0.4019(3) 0.21646(18)
H16 H 0.0562 0.4021 0.2126
H17 H 0.3018 0.3831 0.2559
C22 C 0.3598(8) 0.3114(3) 0.16496(19)
H18 H 0.5571 0.3068 0.1709
H19 H 0.3271 0.3333 0.1258
C23 C 0.2242(9) 0.1955(3) 0.16201(19)
H20 H 0.2686 0.1710 0.2000
H21 H 0.0260 0.2012 0.1592
C24 C 0.3129(9) 0.1071(3) 0.1078(2)
H22 H 0.5109 0.1013 0.1108
H23 H 0.2705 0.1323 0.0699
C25 C 0.1777(9) -0.0095(3) 0.1034(2)
H24 H 0.2248 -0.0363 0.1405
H25 H -0.0207 -0.0039 0.1013
C26 C 0.2644(11) -0.0939(4) 0.0480(2)
H26 H 0.2061 -0.0707 0.0110
H27 H 0.1812 -0.1664 0.0487
H28 H 0.4611 -0.0983 0.0492
C27 C 0.7275(8) 0.8509(3) 0.21689(17)
H29 H 0.6836 0.8685 0.1771
H30 H 0.9264 0.8511 0.2215
C28 C 0.6193(8) 0.9430(3) 0.26758(19)
H31 H 0.4215 0.9456 0.2617
H32 H 0.6544 0.9233 0.3073
C29 C 0.7485(8) 1.0598(3) 0.26894(19)
H33 H 0.9467 1.0571 0.2741
H34 H 0.7099 1.0804 0.2296
C30 C 0.6440(9) 1.1493(4) 0.32008(19)
H35 H 0.6736 1.1264 0.3591
H36 H 0.4472 1.1544 0.3137
C31 C 0.7812(9) 1.2650(3) 0.3242(2)
H37 H 0.9784 1.2599 0.3300
H38 H 0.7489 1.2887 0.2855
C32 C 0.6779(10) 1.3529(4) 0.3761(2)
H39 H 0.4854 1.3624 0.3691
H40 H 0.7777 1.4230 0.3778
H41 H 0.7047 1.3291 0.4145
C20A C -0.5850(8) 0.3884(4) -0.01082(18)
C18A C -0.7153(8) 0.4595(4) -0.04360(17)
C17A C -0.9365(8) 0.4118(3) -0.08880(18)
C16A C -1.0530(8) 0.4638(3) -0.12932(17)
C13A C -1.2738(8) 0.4180(3) -0.17411(18)
C12A C -1.3719(8) 0.4817(4) -0.21620(19)
C11A C -1.5839(8) 0.4345(3) -0.25762(18)
C10A C -1.7072(8) 0.3284(3) -0.25988(18)
C9A C -1.9287(8) 0.2827(3) -0.30483(18)
C8A C -2.0402(8) 0.3321(4) -0.34638(19)
C5A C -2.2587(8) 0.2847(3) -0.39208(18)
C4A C -2.3758(8) 0.3530(3) -0.42829(19)
C3A C -2.5780(9) 0.3108(4) -0.47248(18)
C2A C -2.6730(8) 0.1996(4) -0.48304(18)
C1A C -2.8907(9) 0.1543(4) -0.53229(19)
H1A H -2.8547 0.1837 -0.5685
H2A H -2.8879 0.0736 -0.5423
H3A H -3.0683 0.1767 -0.5174
C7A C -2.5576(8) 0.1322(3) -0.44608(18)
C6A C -2.3575(8) 0.1741(4) -0.40179(19)
H6A H -2.2864 0.1269 -0.3776
H7A H -2.6175 0.0571 -0.4516
H4A H -2.6527 0.3585 -0.4959
H5A H -2.3167 0.4281 -0.4226
H8A H -1.9737 0.4046 -0.3469
H9A H -1.9982 0.2108 -0.3039
C15A C -1.6109(8) 0.2659(3) -0.21762(18)
C14A C -1.3990(8) 0.3114(3) -0.17681(17)
H11A H -1.3351 0.2688 -0.1494
C27A C -1.7275(8) 0.1491(3) -0.21689(17)
H29A H -1.6836 0.1315 -0.1771
H30A H -1.9264 0.1489 -0.2215
C28A C -1.6193(8) 0.0570(3) -0.26758(19)
H31A H -1.4215 0.0544 -0.2617
H32A H -1.6544 0.0767 -0.3073
C29A C -1.7485(8) -0.0598(3) -0.26894(19)
H33A H -1.9467 -0.0571 -0.2741
H34A H -1.7099 -0.0804 -0.2296
C30A C -1.6440(9) -0.1493(4) -0.32008(19)
H35A H -1.6736 -0.1264 -0.3591
H36A H -1.4472 -0.1544 -0.3137
C31A C -1.7812(9) -0.2650(3) -0.3242(2)
H37A H -1.9784 -0.2599 -0.3300
H38A H -1.7489 -0.2887 -0.2855
C32A C -1.6779(10) -0.3529(4) -0.3761(2)
H39A H -1.4854 -0.3624 -0.3691
H40A H -1.7777 -0.4230 -0.3778
H41A H -1.7047 -0.3291 -0.4145
H10A H -1.6475 0.4762 -0.2855
C21A C -1.2553(8) 0.5981(3) -0.21646(18)
H16A H -1.0562 0.5979 -0.2126
H17A H -1.3018 0.6169 -0.2559
C22A C -1.3598(8) 0.6886(3) -0.16496(19)
H18A H -1.5571 0.6932 -0.1709
H19A H -1.3271 0.6667 -0.1258
C23A C -1.2242(9) 0.8045(3) -0.16201(19)
H20A H -1.2686 0.8290 -0.2000
H21A H -1.0260 0.7988 -0.1592
C24A C -1.3129(9) 0.8929(3) -0.1078(2)
H22A H -1.5109 0.8987 -0.1108
H23A H -1.2705 0.8677 -0.0699
C25A C -1.1777(9) 1.0095(3) -0.1034(2)
H24A H -1.2248 1.0363 -0.1405
H25A H -0.9793 1.0039 -0.1013
C26A C -1.2644(11) 1.0939(4) -0.0480(2)
H26A H -1.2061 1.0707 -0.0110
H27A H -1.1812 1.1664 -0.0487
H28A H -1.4611 1.0983 -0.0492
H12A H -0.9875 0.5366 -0.1292
H13A H -1.0002 0.3386 -0.0890
C19A C -0.6265(8) 0.5736(3) -0.03122(18)
H14A H -0.7116 0.6235 -0.0517
H15A H -0.6432 0.3130 -0.0177
loop_
_geom_bond_atom_site_label_1
_geom_bond_atom_site_label_2
_geom_bond_site_symmetry_1
_geom_bond_site_symmetry_2
C1 H1 1_555 1_555
H2 C1 1_555 1_555
H3 C1 1_555 1_555
C2 C1 1_555 1_555
C3 C2 1_555 1_555
H4 C3 1_555 1_555
C4 C3 1_555 1_555
H5 C4 1_555 1_555
C5 C4 1_555 1_555
C6 C5 1_555 1_555
H6 C6 1_555 1_555
C7 C2 1_555 1_555
H7 C7 1_555 1_555
C8 C5 1_555 1_555
H8 C8 1_555 1_555
C9 C8 1_555 1_555
H9 C9 1_555 1_555
C10 C9 1_555 1_555
C11 C10 1_555 1_555
H10 C11 1_555 1_555
C12 C11 1_555 1_555
C13 C12 1_555 1_555
C14 C13 1_555 1_555
H11 C14 1_555 1_555
C15 C10 1_555 1_555
C16 C13 1_555 1_555
H12 C16 1_555 1_555
C17 C16 1_555 1_555
H13 C17 1_555 1_555
C18 C17 1_555 1_555
C19 C18 1_555 1_555
H14 C19 1_555 1_555
C20 C18 1_555 1_555
H15 C20 1_555 1_555
C21 C12 1_555 1_555
H16 C21 1_555 1_555
H17 C21 1_555 1_555
C22 C21 1_555 1_555
H18 C22 1_555 1_555
H19 C22 1_555 1_555
C23 C22 1_555 1_555
H20 C23 1_555 1_555
H21 C23 1_555 1_555
C24 C23 1_555 1_555
H22 C24 1_555 1_555
H23 C24 1_555 1_555
C25 C24 1_555 1_555
H24 C25 1_555 1_555
H25 C25 1_555 1_555
C26 C25 1_555 1_555
H26 C26 1_555 1_555
H27 C26 1_555 1_555
H28 C26 1_555 1_555
C27 C15 1_555 1_555
H29 C27 1_555 1_555
H30 C27 1_555 1_555
C28 C27 1_555 1_555
H31 C28 1_555 1_555
H32 C28 1_555 1_555
C29 C28 1_555 1_555
H33 C29 1_555 1_555
H34 C29 1_555 1_555
C30 C29 1_555 1_555
H35 C30 1_555 1_555
H36 C30 1_555 1_555
C31 C30 1_555 1_555
H37 C31 1_555 1_555
H38 C31 1_555 1_555
C32 C31 1_555 1_555
H39 C32 1_555 1_555
H40 C32 1_555 1_555
H41 C32 1_555 1_555
C20A C19 1_555 1_555
C18A C20A 1_555 1_555
C17A C18A 1_555 1_555
C16A C17A 1_555 1_555
C13A C16A 1_555 1_555
C12A C13A 1_555 1_555
C11A C12A 1_555 1_555
C10A C11A 1_555 1_555
C9A C10A 1_555 1_555
C8A C9A 1_555 1_555
C5A C8A 1_555 1_555
C4A C5A 1_555 1_555
C3A C4A 1_555 1_555
C2A C3A 1_555 1_555
C1A C2A 1_555 1_555
H1A C1A 1_555 1_555
H2A C1A 1_555 1_555
H3A C1A 1_555 1_555
C7A C2A 1_555 1_555
C6A C5A 1_555 1_555
H6A C6A 1_555 1_555
H7A C7A 1_555 1_555
H4A C3A 1_555 1_555
H5A C4A 1_555 1_555
H8A C8A 1_555 1_555
H9A C9A 1_555 1_555
C15A C10A 1_555 1_555
C14A C13A 1_555 1_555
H11A C14A 1_555 1_555
C27A C15A 1_555 1_555
H29A C27A 1_555 1_555
H30A C27A 1_555 1_555
C28A C27A 1_555 1_555
H31A C28A 1_555 1_555
H32A C28A 1_555 1_555
C29A C28A 1_555 1_555
H33A C29A 1_555 1_555
H34A C29A 1_555 1_555
C30A C29A 1_555 1_555
H35A C30A 1_555 1_555
H36A C30A 1_555 1_555
C31A C30A 1_555 1_555
H37A C31A 1_555 1_555
H38A C31A 1_555 1_555
C32A C31A 1_555 1_555
H39A C32A 1_555 1_555
H40A C32A 1_555 1_555
H41A C32A 1_555 1_555
H10A C11A 1_555 1_555
C21A C12A 1_555 1_555
H16A C21A 1_555 1_555
H17A C21A 1_555 1_555
C22A C21A 1_555 1_555
H18A C22A 1_555 1_555
H19A C22A 1_555 1_555
C23A C22A 1_555 1_555
H20A C23A 1_555 1_555
H21A C23A 1_555 1_555
C24A C23A 1_555 1_555
H22A C24A 1_555 1_555
H23A C24A 1_555 1_555
C25A C24A 1_555 1_555
H24A C25A 1_555 1_555
H25A C25A 1_555 1_555
C26A C25A 1_555 1_555
H26A C26A 1_555 1_555
H27A C26A 1_555 1_555
H28A C26A 1_555 1_555
H12A C16A 1_555 1_555
H13A C17A 1_555 1_555
C19A C20 1_555 1_555
H14A C19A 1_555 1_555
H15A C20A 1_555 1_555
C6 C7 1_555 1_555
C14 C15 1_555 1_555
C18A C19A 1_555 1_555
C7A C6A 1_555 1_555
C15A C14A 1_555 1_555

#END
