
#######################################################################
#
#                 Cambridge Crystallographic Data Centre
#                                CCDC 
#
#######################################################################
#
# If this CIF has been generated from an entry in the Cambridge 
# Structural Database, then it will include bibliographic, chemical, 
# crystal, experimental, refinement or atomic coordinate data resulting 
# from the CCDC's data processing and validation procedures.
#
#######################################################################

data_OKAGOX
_chemical_formula_moiety         'C44 H34 N4 O4'
_chemical_name_systematic        
4,4'-(2,2'-bis(methoxymethoxy)-1,1'-binaphthalene-3,3'-diyl)bis(2,2'-bipyridine)
_symmetry_cell_setting           monoclinic
_symmetry_space_group_name_H-M   'P 21/c'
_symmetry_Int_Tables_number      14
_space_group_name_Hall           '-P 2ybc'
loop_
_symmetry_equiv_pos_site_id
_symmetry_equiv_pos_as_xyz
1 x,y,z
2 -x,1/2+y,1/2-z
3 -x,-y,-z
4 x,1/2-y,1/2+z
_cell_length_a                   21.4815(13)
_cell_length_b                   12.1504(7)
_cell_length_c                   13.4906(8)
_cell_angle_alpha                90
_cell_angle_beta                 99.2200(10)
_cell_angle_gamma                90
_cell_volume                     3475.67
_exptl_crystal_colour            colorless
_exptl_crystal_description       block
_cell_formula_units_Z            4
loop_
_atom_site_label
_atom_site_type_symbol
_atom_site_fract_x
_atom_site_fract_y
_atom_site_fract_z
C1 C 0.25212(10) 0.04512(16) 0.18824(15)
C2 C 0.33922(11) -0.01990(18) 0.10192(17)
H1 H 0.3488 -0.0770 0.1500
C3 C 0.37450(11) -0.00804(19) 0.02786(18)
H2 H 0.4094 -0.0556 0.0259
C4 C 0.36028(12) 0.0736(2) -0.04600(18)
H3 H 0.3850 0.0801 -0.0982
C5 C 0.31111(11) 0.14329(19) -0.04275(17)
H4 H 0.3013 0.1978 -0.0934
C6 C 0.22540(10) 0.21008(18) 0.04383(16)
H5 H 0.2150 0.2647 -0.0065
C7 C 0.19233(10) 0.20679(17) 0.12192(16)
C8 C 0.20674(10) 0.12213(17) 0.19516(16)
C9 C 0.28818(10) 0.05192(17) 0.10841(16)
C10 C 0.27446(10) 0.13558(17) 0.03494(16)
C11 C 0.11064(10) 0.08281(19) 0.25390(19)
H6 H 0.0885 0.1023 0.3105
H7 H 0.0896 0.1223 0.1935
C12 C 0.11574(14) -0.0917(2) 0.3278(2)
H8 H 0.1122 -0.1703 0.3116
H9 H 0.0842 -0.0717 0.3696
H10 H 0.1580 -0.0762 0.3644
C13 C 0.14173(10) 0.28944(17) 0.12620(17)
C14 C 0.10059(11) 0.31531(19) 0.03854(17)
H11 H 0.1032 0.2778 -0.0224
C15 C 0.05597(11) 0.3963(2) 0.04189(18)
H12 H 0.0289 0.4139 -0.0188
C16 C 0.08678(10) 0.42442(18) 0.20946(17)
C17 C 0.13370(10) 0.34498(17) 0.21296(17)
H13 H 0.1602 0.3289 0.2746
C18 C 0.07827(10) 0.48684(18) 0.30086(18)
C19 C 0.05004(11) 0.58979(19) 0.2947(2)
H14 H 0.0355 0.6222 0.2311
C20 C 0.04328(11) 0.6444(2) 0.3816(2)
H15 H 0.0239 0.7148 0.3788
C21 C 0.06483(12) 0.5960(2) 0.4723(2)
H16 H 0.0605 0.6313 0.5337
C22 C 0.09283(14) 0.4948(2) 0.4713(2)
H17 H 0.1083 0.4617 0.5343
C23 C 0.26390(9) -0.04629(16) 0.26254(16)
C24 C 0.21012(10) -0.18048(18) 0.13771(17)
H18 H 0.2021 -0.1240 0.0886
C25 C 0.19006(11) -0.28510(19) 0.11396(18)
H19 H 0.1682 -0.3006 0.0485
C26 C 0.20128(11) -0.36976(19) 0.18473(19)
H20 H 0.1874 -0.4424 0.1671
C27 C 0.23200(11) -0.34820(18) 0.27848(19)
H21 H 0.2391 -0.4060 0.3264
C28 C 0.28402(10) -0.21621(17) 0.40395(16)
H22 H 0.2909 -0.2736 0.4523
C29 C 0.30389(10) -0.11176(17) 0.43176(16)
C30 C 0.29461(10) -0.02745(16) 0.35750(16)
C31 C 0.24256(10) -0.15516(17) 0.23401(16)
C32 C 0.25365(10) -0.24104(17) 0.30597(16)
C33 C 0.38230(10) 0.09023(19) 0.39755(18)
H23 H 0.3943 0.1570 0.4381
H24 H 0.4018 0.0261 0.4359
C34 C 0.39225(12) 0.20034(19) 0.25876(19)
H25 H 0.4099 0.2006 0.1961
H26 H 0.4110 0.2604 0.3021
H27 H 0.3465 0.2105 0.2436
C35 C 0.33156(10) -0.08850(17) 0.53760(16)
C36 C 0.31705(11) 0.00518(18) 0.58846(17)
H28 H 0.2899 0.0599 0.5548
C37 C 0.34228(11) 0.01769(19) 0.68772(18)
H29 H 0.3319 0.0828 0.7206
C38 C 0.39419(10) -0.14574(18) 0.69319(17)
C39 C 0.37135(10) -0.16458(18) 0.59293(16)
H30 H 0.3829 -0.2298 0.5616
C40 C 0.43460(10) -0.22836(19) 0.75454(17)
C41 C 0.44911(12) -0.2186(2) 0.85736(19)
H31 H 0.4352 -0.1566 0.8907
C42 C 0.48426(12) -0.3006(2) 0.9116(2)
H32 H 0.4946 -0.2960 0.9826
C43 C 0.50379(11) -0.3881(2) 0.8612(2)
H33 H 0.5281 -0.4453 0.8964
C44 C 0.48757(11) -0.3918(2) 0.7589(2)
H34 H 0.5011 -0.4534 0.7245
O1 O 0.17460(7) 0.11853(11) 0.27660(11)
O2 O 0.10535(8) -0.02894(13) 0.23693(14)
O3 O 0.31543(6) 0.07853(11) 0.38322(11)
O4 O 0.40597(7) 0.09802(12) 0.30884(13)
N1 N 0.04822(9) 0.45143(15) 0.12454(15)
N2 N 0.10000(10) 0.43905(17) 0.38871(16)
N3 N 0.38021(9) -0.05461(15) 0.74150(14)
N4 N 0.45380(9) -0.31392(15) 0.70441(15)
loop_
_geom_bond_atom_site_label_1
_geom_bond_atom_site_label_2
_geom_bond_site_symmetry_1
_geom_bond_site_symmetry_2
C1 C8 1_555 1_555
C2 H1 1_555 1_555
C3 C2 1_555 1_555
H2 C3 1_555 1_555
C4 C3 1_555 1_555
H3 C4 1_555 1_555
C5 C4 1_555 1_555
H4 C5 1_555 1_555
C6 H5 1_555 1_555
C7 C6 1_555 1_555
C8 C7 1_555 1_555
C9 C1 1_555 1_555
C10 C5 1_555 1_555
C11 H6 1_555 1_555
H7 C11 1_555 1_555
C12 H8 1_555 1_555
H9 C12 1_555 1_555
H10 C12 1_555 1_555
C13 C7 1_555 1_555
C14 C13 1_555 1_555
H11 C14 1_555 1_555
C15 C14 1_555 1_555
H12 C15 1_555 1_555
C16 C17 1_555 1_555
C17 C13 1_555 1_555
H13 C17 1_555 1_555
C18 C16 1_555 1_555
C19 C18 1_555 1_555
H14 C19 1_555 1_555
C20 C19 1_555 1_555
H15 C20 1_555 1_555
C21 C20 1_555 1_555
H16 C21 1_555 1_555
C22 C21 1_555 1_555
H17 C22 1_555 1_555
C23 C1 1_555 1_555
C24 H18 1_555 1_555
C25 C24 1_555 1_555
H19 C25 1_555 1_555
C26 C25 1_555 1_555
H20 C26 1_555 1_555
C27 C26 1_555 1_555
H21 C27 1_555 1_555
C28 H22 1_555 1_555
C29 C28 1_555 1_555
C30 C23 1_555 1_555
C31 C23 1_555 1_555
C32 C27 1_555 1_555
C33 H23 1_555 1_555
H24 C33 1_555 1_555
C34 H25 1_555 1_555
H26 C34 1_555 1_555
H27 C34 1_555 1_555
C35 C29 1_555 1_555
C36 C35 1_555 1_555
H28 C36 1_555 1_555
C37 C36 1_555 1_555
H29 C37 1_555 1_555
C38 C39 1_555 1_555
C39 C35 1_555 1_555
H30 C39 1_555 1_555
C40 C38 1_555 1_555
C41 C40 1_555 1_555
H31 C41 1_555 1_555
C42 C41 1_555 1_555
H32 C42 1_555 1_555
C43 C42 1_555 1_555
H33 C43 1_555 1_555
C44 C43 1_555 1_555
H34 C44 1_555 1_555
O1 C8 1_555 1_555
O2 C11 1_555 1_555
O3 C30 1_555 1_555
O4 C33 1_555 1_555
N1 C15 1_555 1_555
N2 C18 1_555 1_555
N3 C37 1_555 1_555
N4 C40 1_555 1_555
C2 C9 1_555 1_555
C6 C10 1_555 1_555
C9 C10 1_555 1_555
C11 O1 1_555 1_555
C12 O2 1_555 1_555
C16 N1 1_555 1_555
C22 N2 1_555 1_555
C24 C31 1_555 1_555
C28 C32 1_555 1_555
C29 C30 1_555 1_555
C31 C32 1_555 1_555
C33 O3 1_555 1_555
C34 O4 1_555 1_555
C38 N3 1_555 1_555
C44 N4 1_555 1_555

#END
