
#######################################################################
#
#                 Cambridge Crystallographic Data Centre
#                                CCDC 
#
#######################################################################
#
# If this CIF has been generated from an entry in the Cambridge 
# Structural Database, then it will include bibliographic, chemical, 
# crystal, experimental, refinement or atomic coordinate data resulting 
# from the CCDC's data processing and validation procedures.
#
#######################################################################

data_OKAHIS
_chemical_formula_moiety         'C27 H24 Br1 N3 O6'
_chemical_name_systematic        
'1,2-Dibenzyl 3-ethyl 5-(4-bromophenyl)-1H-1,2,4-triazole-1,2,3(5H)-tricarboxylate'
_symmetry_cell_setting           triclinic
_symmetry_space_group_name_H-M   'P -1'
_symmetry_Int_Tables_number      2
_space_group_name_Hall           '-P 1'
loop_
_symmetry_equiv_pos_site_id
_symmetry_equiv_pos_as_xyz
1 x,y,z
2 -x,-y,-z
_cell_length_a                   9.9899(13)
_cell_length_b                   10.0135(13)
_cell_length_c                   15.4713(19)
_cell_angle_alpha                74.666(2)
_cell_angle_beta                 73.946(2)
_cell_angle_gamma                61.488(2)
_cell_volume                     1290.74
_exptl_crystal_colour            colorless
_exptl_crystal_description       prismatic
_chemical_melting_point          96-97deg.C
_cell_formula_units_Z            2
loop_
_atom_site_label
_atom_site_type_symbol
_atom_site_fract_x
_atom_site_fract_y
_atom_site_fract_z
Br1 Br 0.77767(5) 0.93503(5) -0.47261(2)
O1 O 0.5138(2) 1.1799(2) 0.05871(14)
O2 O 0.6841(2) 1.03473(19) 0.15296(11)
O3 O 1.2317(2) 0.6984(2) -0.07397(12)
O4 O 1.09853(19) 0.65139(19) 0.06511(11)
O5 O 0.8250(2) 0.6051(2) 0.03742(13)
O6 O 0.6355(2) 0.8016(2) 0.10733(12)
N1 N 0.9702(2) 0.7897(2) -0.05007(13)
N2 N 0.8393(2) 0.8312(2) 0.02010(13)
N3 N 0.8189(3) 1.0557(2) -0.06937(14)
C1 C 0.9454(3) 0.9309(3) -0.11777(16)
H1 H 1.0393 0.9469 -0.1338
C2 C 0.7641(3) 0.9926(3) 0.00391(17)
C3 C 0.6362(3) 1.0803(3) 0.07411(18)
C4 C 0.5759(4) 1.1121(4) 0.2276(2)
H2 H 0.4842 1.0948 0.2408
H3 H 0.5447 1.2220 0.2113
C5 C 0.6503(4) 1.0520(5) 0.3078(2)
H4 H 0.6822 0.9430 0.3230
H5 H 0.5783 1.1013 0.3582
H6 H 0.7391 1.0723 0.2949
C6 C 0.9026(3) 0.9293(3) -0.20307(16)
C7 C 0.8942(3) 1.0475(3) -0.27541(18)
H7 H 0.9137 1.1267 -0.2701
C8 C 0.8573(4) 1.0490(4) -0.35526(19)
H8 H 0.8509 1.1293 -0.4034
C9 C 0.8301(3) 0.9314(4) -0.36310(18)
C10 C 0.8374(3) 0.8135(3) -0.29264(19)
H9 H 0.8175 0.7349 -0.2984
C11 C 0.8748(3) 0.8124(3) -0.21269(18)
H10 H 0.8813 0.7317 -0.1649
C12 C 1.1131(3) 0.7109(3) -0.02191(17)
C13 C 1.2393(3) 0.5643(3) 0.10167(17)
H11 H 1.3090 0.6124 0.0757
H12 H 1.2907 0.4605 0.0874
C14 C 1.1963(3) 0.5607(3) 0.20303(17)
C15 C 1.0462(3) 0.6034(3) 0.24994(18)
H13 H 0.9660 0.6357 0.2187
C16 C 1.0153(4) 0.5983(4) 0.3432(2)
H14 H 0.9138 0.6288 0.3743
C17 C 1.1323(4) 0.5488(4) 0.3901(2)
H15 H 1.1109 0.5444 0.4530
C18 C 1.2819(4) 0.5055(4) 0.3438(2)
H16 H 1.3621 0.4713 0.3755
C19 C 1.3132(3) 0.5125(3) 0.25148(19)
H17 H 1.4147 0.4844 0.2207
C20 C 0.7685(3) 0.7319(3) 0.05388(17)
C21 C 0.5540(3) 0.7074(3) 0.15539(19)
H18 H 0.5742 0.6335 0.1180
H19 H 0.4435 0.7726 0.1657
C22 C 0.6045(3) 0.6240(3) 0.24448(18)
C23 C 0.5519(4) 0.7011(4) 0.3185(2)
H20 H 0.4882 0.8064 0.3118
C24 C 0.5932(5) 0.6230(5) 0.4016(2)
H21 H 0.5577 0.6761 0.4505
C25 C 0.6854(4) 0.4691(5) 0.4132(2)
H22 H 0.7113 0.4168 0.4700
C26 C 0.7400(4) 0.3915(4) 0.3409(2)
H23 H 0.8040 0.2864 0.3482
C27 C 0.6998(3) 0.4695(4) 0.25707(19)
H24 H 0.7383 0.4160 0.2081
loop_
_geom_bond_atom_site_label_1
_geom_bond_atom_site_label_2
_geom_bond_site_symmetry_1
_geom_bond_site_symmetry_2
Br1 C9 1_555 1_555
O1 C3 1_555 1_555
O2 C3 1_555 1_555
O3 C12 1_555 1_555
O4 C12 1_555 1_555
O5 C20 1_555 1_555
O6 C20 1_555 1_555
N1 N2 1_555 1_555
N2 C2 1_555 1_555
N3 C1 1_555 1_555
C1 N1 1_555 1_555
H1 C1 1_555 1_555
C2 N3 1_555 1_555
C3 C2 1_555 1_555
C4 O2 1_555 1_555
H2 C4 1_555 1_555
H3 C4 1_555 1_555
C5 C4 1_555 1_555
H4 C5 1_555 1_555
H5 C5 1_555 1_555
H6 C5 1_555 1_555
C6 C1 1_555 1_555
C7 C6 1_555 1_555
H7 C7 1_555 1_555
C8 C7 1_555 1_555
H8 C8 1_555 1_555
C9 C8 1_555 1_555
C10 C9 1_555 1_555
H9 C10 1_555 1_555
C11 C6 1_555 1_555
H10 C11 1_555 1_555
C12 N1 1_555 1_555
C13 O4 1_555 1_555
H11 C13 1_555 1_555
H12 C13 1_555 1_555
C14 C13 1_555 1_555
C15 C14 1_555 1_555
H13 C15 1_555 1_555
C16 C15 1_555 1_555
H14 C16 1_555 1_555
C17 C16 1_555 1_555
H15 C17 1_555 1_555
C18 C17 1_555 1_555
H16 C18 1_555 1_555
C19 C14 1_555 1_555
H17 C19 1_555 1_555
C20 N2 1_555 1_555
C21 O6 1_555 1_555
H18 C21 1_555 1_555
H19 C21 1_555 1_555
C22 C21 1_555 1_555
C23 C22 1_555 1_555
H20 C23 1_555 1_555
C24 C23 1_555 1_555
H21 C24 1_555 1_555
C25 C24 1_555 1_555
H22 C25 1_555 1_555
C26 C25 1_555 1_555
H23 C26 1_555 1_555
C27 C22 1_555 1_555
H24 C27 1_555 1_555
C10 C11 1_555 1_555
C18 C19 1_555 1_555
C26 C27 1_555 1_555

#END
