
#######################################################################
#
#                 Cambridge Crystallographic Data Centre
#                                CCDC 
#
#######################################################################
#
# If this CIF has been generated from an entry in the Cambridge 
# Structural Database, then it will include bibliographic, chemical, 
# crystal, experimental, refinement or atomic coordinate data resulting 
# from the CCDC's data processing and validation procedures.
#
#######################################################################

data_OKALAO
_chemical_formula_moiety         'C23 H33 N1 O4'
_chemical_name_systematic        
15-Ethyl-3,5,9-trimethoxy-12-methylene-15-azahexacyclo[12.2.1.1^4,7^.0^1,6^.0^8,13^.0^8,16^]octadecan-17-one
_symmetry_cell_setting           orthorhombic
_symmetry_space_group_name_H-M   'P 21 21 21'
_symmetry_Int_Tables_number      19
_space_group_name_Hall           'P 2ac 2ab'
loop_
_symmetry_equiv_pos_site_id
_symmetry_equiv_pos_as_xyz
1 x,y,z
2 1/2-x,-y,1/2+z
3 -x,1/2+y,1/2-z
4 1/2+x,1/2-y,-z
_cell_length_a                   8.5766(17)
_cell_length_b                   12.623(3)
_cell_length_c                   19.423(4)
_cell_angle_alpha                90
_cell_angle_beta                 90
_cell_angle_gamma                90
_cell_volume                     2102.78
_chemical_melting_point          132-133deg.C
_cell_formula_units_Z            4
_exptl_crystal_recrystallization_method acetone
loop_
_atom_site_label
_atom_site_type_symbol
_atom_site_fract_x
_atom_site_fract_y
_atom_site_fract_z
O1 O 0.7374(3) 0.5858(2) 0.28363(14)
O2 O 0.2148(4) 0.4568(3) 0.06708(17)
O3 O 0.6396(3) 0.3502(2) -0.00070(13)
O4 O 0.7856(3) 0.5799(2) -0.01752(13)
N1 N 0.3431(4) 0.6129(2) 0.19389(17)
C1 C 0.5995(4) 0.5255(3) 0.29674(19)
H1 H 0.6274 0.4634 0.3243
C2 C 0.4867(5) 0.5948(4) 0.3385(2)
H2 H 0.5317 0.6076 0.3835
H3 H 0.4762 0.6628 0.3156
C3 C 0.3249(6) 0.5469(4) 0.3478(3)
H4 H 0.3058 0.5357 0.3965
H5 H 0.2474 0.5965 0.3310
C4 C 0.3067(4) 0.4428(3) 0.3102(2)
C5 C 0.3642(5) 0.4392(3) 0.2369(2)
H6 H 0.3638 0.3657 0.2207
C6 C 0.2644(5) 0.5091(3) 0.1870(2)
H7 H 0.1527 0.5103 0.1977
C7 C 0.3026(5) 0.4841(3) 0.1111(2)
C8 C 0.4769(4) 0.5053(3) 0.10679(18)
C9 C 0.5509(4) 0.3923(3) 0.11990(18)
H8 H 0.4717 0.3367 0.1239
C10 C 0.6394(4) 0.4103(3) 0.18760(18)
H9 H 0.6542 0.3439 0.2129
C11 C 0.5342(4) 0.4880(3) 0.22751(18)
C12 C 0.7990(4) 0.4557(3) 0.16029(19)
H10 H 0.8144 0.5274 0.1769
H11 H 0.8849 0.4122 0.1763
C13 C 0.7916(4) 0.4547(3) 0.08059(19)
H12 H 0.8942 0.4386 0.0611
C14 C 0.6800(5) 0.3633(3) 0.0689(2)
H13 H 0.7303 0.2981 0.0849
C15 C 0.5469(5) 0.5571(3) 0.04266(19)
H14 H 0.5081 0.6289 0.0381
H15 H 0.5167 0.5176 0.0019
C16 C 0.7252(4) 0.5584(3) 0.04923(19)
H16 H 0.7542 0.6173 0.0795
C17 C 0.4992(4) 0.5734(3) 0.17381(18)
H17 H 0.5792 0.6286 0.1701
C18 C 0.2463(5) 0.3555(4) 0.3390(3)
H18 H 0.2400 0.2931 0.3137
H19 H 0.2108 0.3574 0.3842
C19 C 0.2803(5) 0.6991(3) 0.1510(2)
H20 H 0.2736 0.6752 0.1036
H21 H 0.3515 0.7588 0.1525
C20 C 0.1220(6) 0.7348(4) 0.1745(3)
H22 H 0.0468 0.6806 0.1646
H23 H 0.0938 0.7986 0.1507
H24 H 0.1242 0.7480 0.2232
C21 C 0.8515(9) 0.5785(6) 0.3337(3)
H25 H 0.8056 0.5898 0.3782
H26 H 0.9300 0.6313 0.3255
H27 H 0.8980 0.5094 0.3322
C22 C 0.9401(6) 0.6204(4) -0.0150(2)
H28 H 0.9394 0.6890 0.0063
H29 H 0.9806 0.6262 -0.0610
H30 H 1.0047 0.5732 0.0112
C23 C 0.5368(6) 0.2637(4) -0.0125(2)
H31 H 0.5778 0.2012 0.0090
H32 H 0.5268 0.2519 -0.0612
H33 H 0.4363 0.2797 0.0066
loop_
_geom_bond_atom_site_label_1
_geom_bond_atom_site_label_2
_geom_bond_site_symmetry_1
_geom_bond_site_symmetry_2
O1 C1 1_555 1_555
O2 C7 1_555 1_555
O3 C14 1_555 1_555
O4 C16 1_555 1_555
N1 C6 1_555 1_555
C1 H1 1_555 1_555
C2 C1 1_555 1_555
H2 C2 1_555 1_555
H3 C2 1_555 1_555
C3 C2 1_555 1_555
H4 C3 1_555 1_555
H5 C3 1_555 1_555
C4 C3 1_555 1_555
C5 C4 1_555 1_555
H6 C5 1_555 1_555
C6 C5 1_555 1_555
H7 C6 1_555 1_555
C7 C6 1_555 1_555
C8 C7 1_555 1_555
C9 C8 1_555 1_555
H8 C9 1_555 1_555
C10 C9 1_555 1_555
H9 C10 1_555 1_555
C11 C1 1_555 1_555
C12 C10 1_555 1_555
H10 C12 1_555 1_555
H11 C12 1_555 1_555
C13 C12 1_555 1_555
H12 C13 1_555 1_555
C14 C9 1_555 1_555
H13 C14 1_555 1_555
C15 C8 1_555 1_555
H14 C15 1_555 1_555
H15 C15 1_555 1_555
C16 C13 1_555 1_555
H16 C16 1_555 1_555
C17 N1 1_555 1_555
H17 C17 1_555 1_555
C18 C4 1_555 1_555
H18 C18 1_555 1_555
H19 C18 1_555 1_555
C19 N1 1_555 1_555
H20 C19 1_555 1_555
H21 C19 1_555 1_555
C20 C19 1_555 1_555
H22 C20 1_555 1_555
H23 C20 1_555 1_555
H24 C20 1_555 1_555
C21 O1 1_555 1_555
H25 C21 1_555 1_555
H26 C21 1_555 1_555
H27 C21 1_555 1_555
C22 O4 1_555 1_555
H28 C22 1_555 1_555
H29 C22 1_555 1_555
H30 C22 1_555 1_555
C23 O3 1_555 1_555
H31 C23 1_555 1_555
H32 C23 1_555 1_555
H33 C23 1_555 1_555
C5 C11 1_555 1_555
C8 C17 1_555 1_555
C10 C11 1_555 1_555
C11 C17 1_555 1_555
C13 C14 1_555 1_555
C15 C16 1_555 1_555

#END
