
#######################################################################
#
#                 Cambridge Crystallographic Data Centre
#                                CCDC 
#
#######################################################################
#
# If this CIF has been generated from an entry in the Cambridge 
# Structural Database, then it will include bibliographic, chemical, 
# crystal, experimental, refinement or atomic coordinate data resulting 
# from the CCDC's data processing and validation procedures.
#
#######################################################################

data_OKAMIX
_chemical_compound_source        'Dichotella gemmacea'
_chemical_name_common            'Dichotellide A'
_chemical_formula_moiety         'C31 H40 Cl1 I1 O12'
_chemical_name_systematic        
"2,7,9-Triacetoxy-13-chloro-10-iodo-8,17-dimethyl-12-methylene-16-oxospiro[15,18-dioxatetracyclo[9.6.1.0^1,14^.0^3,8^]octadecane-4,2'-oxiran]-5-yl 3-methylbutanoate"
_chemical_properties_biological  
'tested for cytotoxic activity against human tumours'
_symmetry_cell_setting           orthorhombic
_symmetry_space_group_name_H-M   'P 21 21 21'
_symmetry_Int_Tables_number      19
_space_group_name_Hall           'P 2ac 2ab'
loop_
_symmetry_equiv_pos_site_id
_symmetry_equiv_pos_as_xyz
1 x,y,z
2 1/2-x,-y,1/2+z
3 -x,1/2+y,1/2-z
4 1/2+x,1/2-y,-z
_cell_length_a                   10.0332(4)
_cell_length_b                   13.1440(5)
_cell_length_c                   25.5549(10)
_cell_angle_alpha                90
_cell_angle_beta                 90
_cell_angle_gamma                90
_cell_volume                     3370.09
_exptl_crystal_colour            colorless
_exptl_crystal_description       block
_cell_formula_units_Z            4
_exptl_crystal_recrystallization_method methanol
loop_
_atom_site_label
_atom_site_type_symbol
_atom_site_fract_x
_atom_site_fract_y
_atom_site_fract_z
I1 I 0.202950(19) 0.480523(14) 0.165577(7)
Cl1 Cl -0.12690(8) 0.72439(6) 0.29000(3)
C1 C 0.4384(3) 0.7545(2) 0.14030(10)
C2 C 0.3242(3) 0.6823(2) 0.12037(10)
H1 H 0.2714 0.7205 0.0936
C3 C 0.2256(2) 0.64407(18) 0.16291(11)
H2 H 0.2584 0.6677 0.1978
C4 C 0.0878(3) 0.6918(2) 0.15307(10)
H3 H 0.0534 0.6619 0.1197
C5 C -0.0182(3) 0.6742(2) 0.19407(11)
C6 C 0.0075(3) 0.7325(2) 0.24336(11)
H4 H 0.0889 0.7031 0.2602
C7 C 0.0346(3) 0.8438(2) 0.23258(11)
H5 H 0.0674 0.8776 0.2652
C8 C 0.1337(3) 0.8628(2) 0.18761(10)
C9 C 0.2810(3) 0.8647(2) 0.20557(10)
H6 H 0.2958 0.9326 0.2222
C10 C 0.3806(2) 0.8576(2) 0.15922(10)
H7 H 0.3304 0.8848 0.1284
C11 C 0.4936(3) 0.9348(2) 0.16841(12)
C12 C 0.5786(3) 0.9557(2) 0.12096(11)
H8 H 0.6541 1.0015 0.1308
C13 C 0.6329(3) 0.8569(2) 0.09922(11)
H9 H 0.7015 0.8302 0.1235
H10 H 0.6767 0.8707 0.0653
C14 C 0.5268(3) 0.7763(2) 0.09135(11)
H11 H 0.5709 0.7116 0.0803
C15 C 0.5263(3) 0.6983(2) 0.17995(10)
H12 H 0.5982 0.7433 0.1916
H13 H 0.5646 0.6376 0.1634
H14 H 0.4722 0.6779 0.2101
C16 C -0.1217(3) 0.6139(2) 0.18541(12)
H15 H -0.1874 0.6049 0.2118
H16 H -0.1302 0.5796 0.1528
C17 C 0.0901(2) 0.9700(2) 0.16991(11)
H17 H 0.1350 1.0200 0.1935
C18 C 0.1159(3) 1.0043(2) 0.11371(11)
H18 H 0.0899 0.9500 0.0895
H19 H 0.2109 1.0193 0.1093
H20 H 0.0635 1.0655 0.1063
C19 C -0.0560(3) 0.9715(2) 0.18298(11)
C20 C 0.5542(3) 0.9565(3) 0.21918(13)
H21 H 0.5249 0.9155 0.2496
H22 H 0.6492 0.9769 0.2198
C21 C 0.3295(3) 0.5618(2) 0.05039(12)
C22 C 0.4105(4) 0.4776(3) 0.02682(13)
H23 H 0.3617 0.4477 -0.0026
H24 H 0.4271 0.4252 0.0533
H25 H 0.4958 0.5049 0.0144
C23 C 0.4570(3) 0.7713(3) 0.00120(12)
C24 C 0.3642(4) 0.8207(3) -0.03584(12)
H26 H 0.3940 0.8904 -0.0427
H27 H 0.2745 0.8221 -0.0207
H28 H 0.3626 0.7824 -0.0687
C25 C 0.3214(3) 0.8238(2) 0.29636(10)
C26 C 0.3604(3) 0.7391(2) 0.33174(12)
H29 H 0.3869 0.7668 0.3658
H30 H 0.4353 0.7018 0.3164
H31 H 0.2846 0.6929 0.3364
C27 C 0.5485(3) 1.0793(2) 0.05374(11)
C28 C 0.4481(4) 1.1249(3) 0.01683(13)
H32 H 0.4179 1.1909 0.0312
H33 H 0.3696 1.0794 0.0151
C29 C 0.5006(4) 1.1420(3) -0.03864(13)
H34 H 0.5482 1.0787 -0.0497
C30 C 0.5995(5) 1.2290(3) -0.04101(16)
H35 H 0.6332 1.2359 -0.0768
H36 H 0.6739 1.2151 -0.0172
H37 H 0.5553 1.2923 -0.0305
C31 C 0.3866(5) 1.1591(4) -0.07633(15)
H38 H 0.3389 1.2215 -0.0667
H39 H 0.3252 1.1012 -0.0748
H40 H 0.4216 1.1659 -0.1120
O1 O 0.39037(19) 0.59905(15) 0.09395(7)
O2 O 0.2244(2) 0.59321(17) 0.03486(8)
O3 O 0.10454(18) 0.79926(14) 0.14399(7)
O4 O -0.08716(18) 0.89248(14) 0.21514(8)
O5 O -0.13904(19) 1.03240(17) 0.17013(9)
O6 O 0.3087(2) 0.78915(13) 0.24570(6)
O7 O 0.3013(3) 0.91017(15) 0.30839(7)
O8 O 0.4599(2) 1.02624(18) 0.19660(8)
O9 O 0.49233(18) 1.00707(16) 0.08381(7)
O10 O 0.6642(2) 1.10256(19) 0.05689(9)
O11 O 0.4389(2) 0.81011(16) 0.04968(7)
O12 O 0.5362(3) 0.7063(2) -0.00896(9)
loop_
_geom_bond_atom_site_label_1
_geom_bond_atom_site_label_2
_geom_bond_site_symmetry_1
_geom_bond_site_symmetry_2
I1 C3 1_555 1_555
Cl1 C6 1_555 1_555
C1 C2 1_555 1_555
C2 H1 1_555 1_555
C3 C2 1_555 1_555
H2 C3 1_555 1_555
C4 C3 1_555 1_555
H3 C4 1_555 1_555
C5 C4 1_555 1_555
C6 C5 1_555 1_555
H4 C6 1_555 1_555
C7 C6 1_555 1_555
H5 C7 1_555 1_555
C8 C7 1_555 1_555
C9 C8 1_555 1_555
H6 C9 1_555 1_555
C10 C1 1_555 1_555
H7 C10 1_555 1_555
C11 C10 1_555 1_555
C12 C11 1_555 1_555
H8 C12 1_555 1_555
C13 C12 1_555 1_555
H9 C13 1_555 1_555
H10 C13 1_555 1_555
C14 C1 1_555 1_555
H11 C14 1_555 1_555
C15 C1 1_555 1_555
H12 C15 1_555 1_555
H13 C15 1_555 1_555
H14 C15 1_555 1_555
C16 C5 1_555 1_555
H15 C16 1_555 1_555
H16 C16 1_555 1_555
C17 C8 1_555 1_555
H17 C17 1_555 1_555
C18 C17 1_555 1_555
H18 C18 1_555 1_555
H19 C18 1_555 1_555
H20 C18 1_555 1_555
C19 C17 1_555 1_555
C20 C11 1_555 1_555
H21 C20 1_555 1_555
H22 C20 1_555 1_555
C21 C22 1_555 1_555
C22 H23 1_555 1_555
H24 C22 1_555 1_555
H25 C22 1_555 1_555
C23 C24 1_555 1_555
C24 H26 1_555 1_555
H27 C24 1_555 1_555
H28 C24 1_555 1_555
C25 C26 1_555 1_555
C26 H29 1_555 1_555
H30 C26 1_555 1_555
H31 C26 1_555 1_555
C27 C28 1_555 1_555
C28 H32 1_555 1_555
H33 C28 1_555 1_555
C29 C28 1_555 1_555
H34 C29 1_555 1_555
C30 C29 1_555 1_555
H35 C30 1_555 1_555
H36 C30 1_555 1_555
H37 C30 1_555 1_555
C31 C29 1_555 1_555
H38 C31 1_555 1_555
H39 C31 1_555 1_555
H40 C31 1_555 1_555
O1 C2 1_555 1_555
O2 C21 1_555 1_555
O3 C4 1_555 1_555
O4 C7 1_555 1_555
O5 C19 1_555 1_555
O6 C9 1_555 1_555
O7 C25 1_555 1_555
O8 C11 1_555 1_555
O9 C12 1_555 1_555
O10 C27 1_555 1_555
O11 C14 1_555 1_555
O12 C23 1_555 1_555
C8 O3 1_555 1_555
C9 C10 1_555 1_555
C13 C14 1_555 1_555
C19 O4 1_555 1_555
C20 O8 1_555 1_555
C21 O1 1_555 1_555
C23 O11 1_555 1_555
C25 O6 1_555 1_555
C27 O9 1_555 1_555

#END
