
#######################################################################
#
#                 Cambridge Crystallographic Data Centre
#                                CCDC 
#
#######################################################################
#
# If this CIF has been generated from an entry in the Cambridge 
# Structural Database, then it will include bibliographic, chemical, 
# crystal, experimental, refinement or atomic coordinate data resulting 
# from the CCDC's data processing and validation procedures.
#
#######################################################################

data_OKAMET
_chemical_formula_moiety         'C26 H23 N1 O2'
_chemical_name_systematic        
(E)-2-(Biphenyl-4-yl)-3-(pyrrolidin-1-ylmethylene)-2,3-dihydro-4H-chromen-4-one
_symmetry_cell_setting           monoclinic
_symmetry_space_group_name_H-M   'P 21/c'
_symmetry_Int_Tables_number      14
_space_group_name_Hall           '-P 2ybc'
loop_
_symmetry_equiv_pos_site_id
_symmetry_equiv_pos_as_xyz
1 x,y,z
2 -x,1/2+y,1/2-z
3 -x,-y,-z
4 x,1/2-y,1/2+z
_cell_length_a                   20.116(4)
_cell_length_b                   6.5696(13)
_cell_length_c                   16.704(3)
_cell_angle_alpha                90
_cell_angle_beta                 114.130(12)
_cell_angle_gamma                90
_cell_volume                     2014.61
_exptl_crystal_colour            yellow
_exptl_crystal_description       block
_chemical_melting_point          191-193deg.C
_cell_formula_units_Z            4
loop_
_atom_site_label
_atom_site_type_symbol
_atom_site_fract_x
_atom_site_fract_y
_atom_site_fract_z
O1 O 0.29374(7) 0.20528(19) 0.48665(8)
O2 O 0.37787(8) -0.3359(2) 0.60881(9)
N1 N 0.41333(8) 0.1312(2) 0.77857(10)
C1 C 0.30975(10) -0.1569(3) 0.47897(12)
C2 C 0.30268(11) -0.3251(3) 0.42590(13)
H1 H 0.3202 -0.4507 0.4515
C3 C 0.27036(12) -0.3090(4) 0.33644(14)
H2 H 0.2665 -0.4227 0.3016
C4 C 0.24357(12) -0.1236(4) 0.29811(14)
H3 H 0.2213 -0.1130 0.2373
C5 C 0.24944(11) 0.0457(3) 0.34889(13)
H4 H 0.2307 0.1699 0.3227
C6 C 0.28363(10) 0.0297(3) 0.43972(12)
C7 C 0.30816(10) 0.1931(3) 0.57937(11)
H5 H 0.3358 0.3153 0.6074
C8 C 0.35444(9) 0.0124(3) 0.62480(11)
C9 C 0.34942(10) -0.1709(3) 0.57548(12)
C10 C 0.39571(10) -0.0017(3) 0.71324(12)
H6 H 0.4154 -0.1305 0.7311
C11 C 0.39934(12) 0.3500(3) 0.77144(13)
H7 H 0.3477 0.3776 0.7517
H8 H 0.4166 0.4116 0.7307
C12 C 0.44136(12) 0.4305(3) 0.86358(13)
H9 H 0.4884 0.4833 0.8703
H10 H 0.4144 0.5379 0.8769
C13 C 0.45038(14) 0.2494(4) 0.92231(14)
H11 H 0.4940 0.2629 0.9761
H12 H 0.4087 0.2351 0.9370
C14 C 0.45632(12) 0.0704(3) 0.87009(12)
H13 H 0.5067 0.0450 0.8804
H14 H 0.4363 -0.0511 0.8848
C15 C 0.23564(10) 0.2062(3) 0.58700(11)
C16 C 0.19635(11) 0.3864(3) 0.56328(13)
H15 H 0.2143 0.4934 0.5414
C17 C 0.13143(11) 0.4100(3) 0.57141(13)
H16 H 0.1060 0.5320 0.5545
C18 C 0.10328(11) 0.2542(3) 0.60450(12)
C19 C 0.14166(11) 0.0735(4) 0.62671(13)
H17 H 0.1234 -0.0341 0.6478
C20 C 0.20686(11) 0.0496(3) 0.61808(12)
H18 H 0.2316 -0.0736 0.6334
C21 C 0.03500(11) 0.2828(4) 0.61712(13)
C22 C -0.01673(13) 0.1295(5) 0.59726(15)
H19 H -0.0086 0.0059 0.5756
C23 C -0.08027(15) 0.1579(6) 0.60931(19)
H20 H -0.1150 0.0549 0.5945
C24 C -0.09206(17) 0.3381(8) 0.6431(2)
H21 H -0.1344 0.3563 0.6521
C25 C -0.04129(17) 0.4917(6) 0.66382(18)
H22 H -0.0493 0.6138 0.6866
C26 C 0.02155(13) 0.4641(5) 0.65061(15)
H23 H 0.0555 0.5689 0.6644
loop_
_geom_bond_atom_site_label_1
_geom_bond_atom_site_label_2
_geom_bond_site_symmetry_1
_geom_bond_site_symmetry_2
O1 C6 1_555 1_555
O2 C9 1_555 1_555
N1 C10 1_555 1_555
C1 C2 1_555 1_555
C2 H1 1_555 1_555
C3 C2 1_555 1_555
H2 C3 1_555 1_555
C4 C3 1_555 1_555
H3 C4 1_555 1_555
C5 C4 1_555 1_555
H4 C5 1_555 1_555
C6 C1 1_555 1_555
C7 O1 1_555 1_555
H5 C7 1_555 1_555
C8 C7 1_555 1_555
C9 C1 1_555 1_555
C10 C8 1_555 1_555
H6 C10 1_555 1_555
C11 N1 1_555 1_555
H7 C11 1_555 1_555
H8 C11 1_555 1_555
C12 C11 1_555 1_555
H9 C12 1_555 1_555
H10 C12 1_555 1_555
C13 C12 1_555 1_555
H11 C13 1_555 1_555
H12 C13 1_555 1_555
C14 N1 1_555 1_555
H13 C14 1_555 1_555
H14 C14 1_555 1_555
C15 C7 1_555 1_555
C16 C15 1_555 1_555
H15 C16 1_555 1_555
C17 C16 1_555 1_555
H16 C17 1_555 1_555
C18 C17 1_555 1_555
C19 C18 1_555 1_555
H17 C19 1_555 1_555
C20 C15 1_555 1_555
H18 C20 1_555 1_555
C21 C18 1_555 1_555
C22 C21 1_555 1_555
H19 C22 1_555 1_555
C23 C22 1_555 1_555
H20 C23 1_555 1_555
C24 C23 1_555 1_555
H21 C24 1_555 1_555
C25 C24 1_555 1_555
H22 C25 1_555 1_555
C26 C21 1_555 1_555
H23 C26 1_555 1_555
C5 C6 1_555 1_555
C8 C9 1_555 1_555
C13 C14 1_555 1_555
C19 C20 1_555 1_555
C25 C26 1_555 1_555

#END
