
#######################################################################
#
#                 Cambridge Crystallographic Data Centre
#                                CCDC 
#
#######################################################################
#
# If this CIF has been generated from an entry in the Cambridge 
# Structural Database, then it will include bibliographic, chemical, 
# crystal, experimental, refinement or atomic coordinate data resulting 
# from the CCDC's data processing and validation procedures.
#
#######################################################################

data_OKEDUE
_chemical_formula_moiety         'C18 H16 N2 O2 S1'
_chemical_name_systematic        
4-Phenyl-1-(phenylsulfonyl)-1,2,5,6-tetrahydropyridine-2-carbonitrile
_symmetry_cell_setting           monoclinic
_symmetry_space_group_name_H-M   'P 21/n'
_symmetry_Int_Tables_number      14
_space_group_name_Hall           '-P 2yn'
loop_
_symmetry_equiv_pos_site_id
_symmetry_equiv_pos_as_xyz
1 x,y,z
2 1/2-x,1/2+y,1/2-z
3 -x,-y,-z
4 1/2+x,1/2-y,1/2+z
_cell_length_a                   8.2201(10)
_cell_length_b                   13.5756(17)
_cell_length_c                   15.0202(18)
_cell_angle_alpha                90
_cell_angle_beta                 104.863(2)
_cell_angle_gamma                90
_cell_volume                     1620.07
_exptl_crystal_colour            colorless
_cell_formula_units_Z            4
loop_
_atom_site_label
_atom_site_type_symbol
_atom_site_fract_x
_atom_site_fract_y
_atom_site_fract_z
C1 C 0.0079(2) 0.86463(14) 0.84090(13)
H1 H -0.0145 0.7944 0.8398
H2 H -0.0977 0.8994 0.8340
C2 C 0.1293(2) 0.89257(13) 0.93108(13)
H3 H 0.0714 0.8894 0.9797
H4 H 0.2205 0.8451 0.9453
C3 C 0.2016(2) 0.99408(13) 0.92934(12)
C4 C 0.1881(3) 1.03926(15) 0.84998(14)
H5 H 0.2314 1.1027 0.8516
C5 C 0.1080(3) 0.99574(17) 0.75731(14)
H6 H 0.1849 1.0054 0.7178
C6 C 0.2936(2) 1.03869(14) 1.01809(13)
C7 C 0.3395(3) 0.98336(18) 1.09774(15)
H7 H 0.3104 0.9170 1.0958
C8 C 0.4281(3) 1.0244(3) 1.18051(17)
H8 H 0.4576 0.9857 1.2333
C9 C 0.4720(3) 1.1214(3) 1.1846(2)
H9 H 0.5319 1.1490 1.2400
C10 C 0.4277(3) 1.1779(2) 1.1069(2)
H10 H 0.4573 1.2442 1.1097
C11 C 0.3394(3) 1.13770(17) 1.02427(17)
H11 H 0.3101 1.1772 0.9720
C12 C -0.1474(3) 0.83342(17) 0.60627(16)
C13 C -0.1772(4) 0.8851(2) 0.5254(2)
H12 H -0.0887 0.9124 0.5057
C14 C -0.3411(6) 0.8958(3) 0.4737(3)
H13 H -0.3631 0.9308 0.4187
C15 C -0.4695(5) 0.8563(3) 0.5018(3)
H14 H -0.5793 0.8637 0.4659
C16 C -0.4396(3) 0.8059(3) 0.5822(2)
H15 H -0.5292 0.7797 0.6017
C17 C -0.2776(3) 0.79309(19) 0.63529(18)
H16 H -0.2569 0.7576 0.6900
C18 C -0.0515(4) 1.04911(19) 0.71510(17)
N1 N 0.0824(2) 0.89074(13) 0.76529(11)
N2 N -0.1719(4) 1.09114(19) 0.68465(19)
O1 O 0.1701(2) 0.8574(2) 0.62453(14)
O2 O 0.0787(2) 0.72082(15) 0.70987(15)
S1 S 0.05947(7) 0.81956(6) 0.67544(4)
loop_
_geom_bond_atom_site_label_1
_geom_bond_atom_site_label_2
_geom_bond_site_symmetry_1
_geom_bond_site_symmetry_2
C1 H1 1_555 1_555
H2 C1 1_555 1_555
C2 C1 1_555 1_555
H3 C2 1_555 1_555
H4 C2 1_555 1_555
C3 C2 1_555 1_555
C4 C3 1_555 1_555
H5 C4 1_555 1_555
C5 C4 1_555 1_555
H6 C5 1_555 1_555
C6 C3 1_555 1_555
C7 C6 1_555 1_555
H7 C7 1_555 1_555
C8 C7 1_555 1_555
H8 C8 1_555 1_555
C9 C8 1_555 1_555
H9 C9 1_555 1_555
C10 C9 1_555 1_555
H10 C10 1_555 1_555
C11 C6 1_555 1_555
H11 C11 1_555 1_555
C12 C13 1_555 1_555
C13 H12 1_555 1_555
C14 C13 1_555 1_555
H13 C14 1_555 1_555
C15 C14 1_555 1_555
H14 C15 1_555 1_555
C16 C15 1_555 1_555
H15 C16 1_555 1_555
C17 C12 1_555 1_555
H16 C17 1_555 1_555
C18 C5 1_555 1_555
N1 C1 1_555 1_555
N2 C18 1_555 1_555
O1 S1 1_555 1_555
O2 S1 1_555 1_555
S1 C12 1_555 1_555
C5 N1 1_555 1_555
C10 C11 1_555 1_555
C16 C17 1_555 1_555
N1 S1 1_555 1_555

#END
