
#######################################################################
#
#                 Cambridge Crystallographic Data Centre
#                                CCDC 
#
#######################################################################
#
# If this CIF has been generated from an entry in the Cambridge 
# Structural Database, then it will include bibliographic, chemical, 
# crystal, experimental, refinement or atomic coordinate data resulting 
# from the CCDC's data processing and validation procedures.
#
#######################################################################

data_OKEFIU
_chemical_formula_moiety         'C22 H24 N2 O4 S1 Se1'
_chemical_name_systematic        
'Ethyl (2-cyano-3-(phenylselanyl)-1-(phenylsulfonyl)piperidin-3-yl)acetate'
_symmetry_cell_setting           monoclinic
_symmetry_space_group_name_H-M   'P 21/n'
_symmetry_Int_Tables_number      14
_space_group_name_Hall           '-P 2yn'
loop_
_symmetry_equiv_pos_site_id
_symmetry_equiv_pos_as_xyz
1 x,y,z
2 1/2-x,1/2+y,1/2-z
3 -x,-y,-z
4 1/2+x,1/2-y,1/2+z
_cell_length_a                   8.1129(3)
_cell_length_b                   10.3173(3)
_cell_length_c                   25.5950(9)
_cell_angle_alpha                90
_cell_angle_beta                 93.9330(10)
_cell_angle_gamma                90
_cell_volume                     2137.34
_exptl_crystal_colour            colorless
_cell_formula_units_Z            4
loop_
_atom_site_label
_atom_site_type_symbol
_atom_site_fract_x
_atom_site_fract_y
_atom_site_fract_z
S1 S 0.82609(7) 0.24274(6) 0.23383(2)
Se1 Se 0.43599(3) 0.05632(2) 0.149485(10)
N1 N 0.7945(2) 0.14405(19) 0.18369(8)
N2 N 0.9601(3) 0.2814(2) 0.07750(9)
O1 O 0.8809(2) 0.16357(18) 0.27756(7)
O2 O 0.6779(2) 0.31764(18) 0.23538(7)
O3 O 0.3601(2) 0.27708(17) 0.00351(7)
O4 O 0.4734(2) 0.36105(18) 0.07840(8)
C1 C 0.7234(3) 0.2010(2) 0.13496(10)
H1 H 0.6502 0.2750 0.1434
C2 C 0.6196(3) 0.0977(2) 0.10361(9)
C3 C 0.7296(3) -0.0211(2) 0.09523(10)
H2 H 0.6604 -0.0915 0.0792
H3 H 0.8130 0.0022 0.0704
C4 C 0.8180(3) -0.0709(2) 0.14575(11)
H4 H 0.7360 -0.1105 0.1678
H5 H 0.8974 -0.1392 0.1371
C5 C 0.9102(3) 0.0356(2) 0.17672(10)
H6 H 0.9528 0.0021 0.2113
H7 H 1.0051 0.0659 0.1577
C6 C 0.9873(3) 0.3475(2) 0.21945(9)
C7 C 1.1481(3) 0.3004(3) 0.22362(11)
H8 H 1.1704 0.2140 0.2349
C8 C 1.2759(3) 0.3820(3) 0.21106(11)
H9 H 1.3867 0.3516 0.2136
C9 C 1.2410(4) 0.5072(3) 0.19495(11)
H10 H 1.3287 0.5628 0.1866
C10 C 1.0817(4) 0.5528(3) 0.19076(12)
H11 H 1.0603 0.6392 0.1794
C11 C 0.9515(3) 0.4731(3) 0.20300(10)
H12 H 0.8409 0.5039 0.2002
C12 C 0.8565(3) 0.2495(2) 0.10223(10)
C13 C 0.5498(3) 0.1460(2) 0.05037(10)
H13 H 0.6428 0.1534 0.0274
H14 H 0.4746 0.0784 0.0351
C14 C 0.4572(3) 0.2732(2) 0.04784(10)
C15 C 0.2737(3) 0.3986(3) -0.00889(11)
H15 H 0.3467 0.4733 0.0001
H16 H 0.1740 0.4057 0.0112
C16 C 0.2264(3) 0.3968(3) -0.06634(11)
H17 H 0.3262 0.3901 -0.0857
H18 H 0.1674 0.4769 -0.0763
H19 H 0.1546 0.3222 -0.0747
C17 C 0.3293(3) -0.0765(3) 0.10674(10)
C18 C 0.1963(3) -0.0458(3) 0.07056(11)
H20 H 0.1607 0.0415 0.0661
C19 C 0.1187(3) -0.1427(3) 0.04187(10)
H21 H 0.0283 -0.1224 0.0177
C20 C 0.1705(3) -0.2706(3) 0.04761(11)
H22 H 0.1165 -0.3369 0.0272
C21 C 0.3008(3) -0.3012(3) 0.08312(11)
H23 H 0.3367 -0.3886 0.0869
C22 C 0.3791(3) -0.2047(3) 0.11322(11)
H24 H 0.4668 -0.2261 0.1382
loop_
_geom_bond_atom_site_label_1
_geom_bond_atom_site_label_2
_geom_bond_site_symmetry_1
_geom_bond_site_symmetry_2
S1 N1 1_555 1_555
Se1 C2 1_555 1_555
N1 C1 1_555 1_555
N2 C12 1_555 1_555
O1 S1 1_555 1_555
O2 S1 1_555 1_555
O3 C14 1_555 1_555
O4 C14 1_555 1_555
C1 H1 1_555 1_555
C2 C1 1_555 1_555
C3 C2 1_555 1_555
H2 C3 1_555 1_555
H3 C3 1_555 1_555
C4 C3 1_555 1_555
H4 C4 1_555 1_555
H5 C4 1_555 1_555
C5 N1 1_555 1_555
H6 C5 1_555 1_555
H7 C5 1_555 1_555
C6 S1 1_555 1_555
C7 C6 1_555 1_555
H8 C7 1_555 1_555
C8 C7 1_555 1_555
H9 C8 1_555 1_555
C9 C8 1_555 1_555
H10 C9 1_555 1_555
C10 C9 1_555 1_555
H11 C10 1_555 1_555
C11 C6 1_555 1_555
H12 C11 1_555 1_555
C12 C1 1_555 1_555
C13 C2 1_555 1_555
H13 C13 1_555 1_555
H14 C13 1_555 1_555
C14 C13 1_555 1_555
C15 O3 1_555 1_555
H15 C15 1_555 1_555
H16 C15 1_555 1_555
C16 C15 1_555 1_555
H17 C16 1_555 1_555
H18 C16 1_555 1_555
H19 C16 1_555 1_555
C17 Se1 1_555 1_555
C18 C17 1_555 1_555
H20 C18 1_555 1_555
C19 C18 1_555 1_555
H21 C19 1_555 1_555
C20 C19 1_555 1_555
H22 C20 1_555 1_555
C21 C20 1_555 1_555
H23 C21 1_555 1_555
C22 C17 1_555 1_555
H24 C22 1_555 1_555
C4 C5 1_555 1_555
C10 C11 1_555 1_555
C21 C22 1_555 1_555

#END
