
#######################################################################
#
#                 Cambridge Crystallographic Data Centre
#                                CCDC 
#
#######################################################################
#
# If this CIF has been generated from an entry in the Cambridge 
# Structural Database, then it will include bibliographic, chemical, 
# crystal, experimental, refinement or atomic coordinate data resulting 
# from the CCDC's data processing and validation procedures.
#
#######################################################################

data_OKEFEQ
_chemical_formula_moiety         'C22 H26 N2 O3 S1'
_chemical_name_systematic        
1-(((7,7-Dimethyl-2-oxobicyclo[2.2.1]hept-1-yl)methyl)sulfonyl)-4-phenyl-1,2,5,6-tetrahydropyridine-2-carbonitrile
_symmetry_cell_setting           orthorhombic
_symmetry_space_group_name_H-M   'P 21 21 21'
_symmetry_Int_Tables_number      19
_space_group_name_Hall           'P 2ac 2ab'
loop_
_symmetry_equiv_pos_site_id
_symmetry_equiv_pos_as_xyz
1 x,y,z
2 1/2-x,-y,1/2+z
3 -x,1/2+y,1/2-z
4 1/2+x,1/2-y,-z
_cell_length_a                   6.6706(4)
_cell_length_b                   11.6753(8)
_cell_length_c                   26.3249(19)
_cell_angle_alpha                90
_cell_angle_beta                 90
_cell_angle_gamma                90
_cell_volume                     2050.22
_exptl_crystal_colour            colorless
_cell_formula_units_Z            4
loop_
_atom_site_label
_atom_site_type_symbol
_atom_site_fract_x
_atom_site_fract_y
_atom_site_fract_z
C1 C 1.1107(4) 0.0800(3) 0.09043(12)
H1 H 1.1526 0.0491 0.1234
C2 C 1.1964(5) 0.0060(3) 0.04840(13)
H2 H 1.3303 -0.0156 0.0507
C3 C 1.0928(5) -0.0296(3) 0.00884(11)
C4 C 0.8767(5) 0.0021(3) 0.00255(13)
H3 H 0.7941 -0.0639 0.0104
H4 H 0.8525 0.0227 -0.0326
C5 C 0.8152(5) 0.1007(3) 0.03620(11)
H5 H 0.8691 0.1720 0.0231
H6 H 0.6702 0.1068 0.0373
C6 C 1.1887(6) 0.1992(4) 0.08498(15)
C7 C 1.1822(5) -0.1055(3) -0.03068(11)
C8 C 1.3742(5) -0.0864(4) -0.04830(14)
H7 H 1.4485 -0.0249 -0.0360
C9 C 1.4559(7) -0.1594(5) -0.08446(16)
H8 H 1.5857 -0.1470 -0.0961
C10 C 1.3466(8) -0.2498(4) -0.10315(15)
H9 H 1.4030 -0.2991 -0.1270
C11 C 1.1583(8) -0.2668(3) -0.08693(15)
H10 H 1.0838 -0.3271 -0.1002
C12 C 1.0730(6) -0.1959(3) -0.05066(14)
H11 H 0.9424 -0.2089 -0.0397
C13 C 0.6706(4) 0.2816(2) 0.20175(11)
C14 C 0.7979(5) 0.2371(3) 0.24779(12)
H12 H 0.7524 0.1621 0.2587
H13 H 0.9389 0.2326 0.2390
C15 C 0.7624(7) 0.3269(3) 0.28942(14)
H14 H 0.7108 0.2917 0.3201
H15 H 0.8851 0.3677 0.2974
C16 C 0.6084(5) 0.4061(3) 0.26571(14)
H16 H 0.5951 0.4803 0.2828
C17 C 0.4113(6) 0.3376(3) 0.26183(15)
H17 H 0.3854 0.2947 0.2927
H18 H 0.2983 0.3875 0.2549
C18 C 0.4528(5) 0.2584(3) 0.21750(12)
C19 C 0.6782(5) 0.4139(3) 0.20961(13)
C20 C 0.8861(6) 0.4663(3) 0.20322(17)
H19 H 0.9214 0.4670 0.1679
H20 H 0.9822 0.4215 0.2217
H21 H 0.8856 0.5433 0.2160
C21 C 0.5340(6) 0.4791(3) 0.17513(16)
H22 H 0.4021 0.4469 0.1782
H23 H 0.5784 0.4731 0.1405
H24 H 0.5308 0.5582 0.1850
C22 C 0.7358(5) 0.2425(2) 0.14964(11)
H25 H 0.8661 0.2760 0.1428
H26 H 0.6429 0.2745 0.1251
N1 N 0.8944(4) 0.0785(2) 0.08745(9)
N2 N 1.2364(8) 0.2931(4) 0.08046(16)
O1 O 0.8592(4) 0.0384(2) 0.17828(8)
O2 O 0.5608(3) 0.0493(2) 0.12381(9)
O3 O 0.3364(4) 0.1941(2) 0.19886(10)
S1 S 0.75348(12) 0.09186(6) 0.13786(3)
loop_
_geom_bond_atom_site_label_1
_geom_bond_atom_site_label_2
_geom_bond_site_symmetry_1
_geom_bond_site_symmetry_2
C1 H1 1_555 1_555
C2 C1 1_555 1_555
H2 C2 1_555 1_555
C3 C2 1_555 1_555
C4 C3 1_555 1_555
H3 C4 1_555 1_555
H4 C4 1_555 1_555
C5 C4 1_555 1_555
H5 C5 1_555 1_555
H6 C5 1_555 1_555
C6 C1 1_555 1_555
C7 C3 1_555 1_555
C8 C7 1_555 1_555
H7 C8 1_555 1_555
C9 C8 1_555 1_555
H8 C9 1_555 1_555
C10 C9 1_555 1_555
H9 C10 1_555 1_555
C11 C10 1_555 1_555
H10 C11 1_555 1_555
C12 C7 1_555 1_555
H11 C12 1_555 1_555
C13 C14 1_555 1_555
C14 H12 1_555 1_555
H13 C14 1_555 1_555
C15 C14 1_555 1_555
H14 C15 1_555 1_555
H15 C15 1_555 1_555
C16 C15 1_555 1_555
H16 C16 1_555 1_555
C17 C16 1_555 1_555
H17 C17 1_555 1_555
H18 C17 1_555 1_555
C18 C13 1_555 1_555
C19 C13 1_555 1_555
C20 C19 1_555 1_555
H19 C20 1_555 1_555
H20 C20 1_555 1_555
H21 C20 1_555 1_555
C21 C19 1_555 1_555
H22 C21 1_555 1_555
H23 C21 1_555 1_555
H24 C21 1_555 1_555
C22 C13 1_555 1_555
H25 C22 1_555 1_555
H26 C22 1_555 1_555
N1 C1 1_555 1_555
N2 C6 1_555 1_555
O1 S1 1_555 1_555
O2 S1 1_555 1_555
O3 C18 1_555 1_555
S1 C22 1_555 1_555
C5 N1 1_555 1_555
C11 C12 1_555 1_555
C16 C19 1_555 1_555
C17 C18 1_555 1_555
N1 S1 1_555 1_555

#END
