
#######################################################################
#
#                 Cambridge Crystallographic Data Centre
#                                CCDC 
#
#######################################################################
#
# If this CIF has been generated from an entry in the Cambridge 
# Structural Database, then it will include bibliographic, chemical, 
# crystal, experimental, refinement or atomic coordinate data resulting 
# from the CCDC's data processing and validation procedures.
#
#######################################################################

data_OKEGUH
_chemical_formula_moiety         'C18 H16 Br2 O2'
_chemical_name_systematic        
3,8-Dibromo-7-methoxy-4-(4-methoxyphenyl)-1,2-dihydronaphthalene
_symmetry_cell_setting           monoclinic
_symmetry_space_group_name_H-M   'P 21/c'
_symmetry_Int_Tables_number      14
_space_group_name_Hall           '-P 2ybc'
loop_
_symmetry_equiv_pos_site_id
_symmetry_equiv_pos_as_xyz
1 x,y,z
2 -x,1/2+y,1/2-z
3 -x,-y,-z
4 x,1/2-y,1/2+z
_cell_length_a                   23.1729(6)
_cell_length_b                   6.8862(2)
_cell_length_c                   10.7985(2)
_cell_angle_alpha                90
_cell_angle_beta                 99.0210(10)
_cell_angle_gamma                90
_cell_volume                     1701.84
_exptl_crystal_colour            colorless
_exptl_crystal_description       tabular
_cell_formula_units_Z            4
loop_
_atom_site_label
_atom_site_type_symbol
_atom_site_fract_x
_atom_site_fract_y
_atom_site_fract_z
Br1 Br 0.31230(3) 0.39566(9) -0.03848(6)
Br2 Br 0.05471(3) 0.23386(10) 0.25591(6)
C1 C 0.2531(2) 0.4062(7) 0.0647(5)
C2 C 0.2019(3) 0.2797(8) 0.0211(5)
H1 H 0.2150 0.1606 -0.0134
H2 H 0.1758 0.3455 -0.0448
C3 C 0.1693(3) 0.2316(8) 0.1269(5)
H3 H 0.1903 0.1300 0.1776
H4 H 0.1311 0.1809 0.0922
C4 C 0.1613(2) 0.4032(7) 0.2108(4)
C5 C 0.1153(2) 0.4224(7) 0.2762(4)
C6 C 0.1114(2) 0.5730(7) 0.3610(4)
C7 C 0.1557(2) 0.7080(7) 0.3788(5)
H5 H 0.1540 0.8095 0.4349
C8 C 0.2024(2) 0.6951(7) 0.3147(5)
H6 H 0.2319 0.7880 0.3283
C9 C 0.2064(2) 0.5426(7) 0.2284(4)
C10 C 0.2569(2) 0.5298(7) 0.1608(4)
C11 C 0.3078(2) 0.6571(8) 0.1990(5)
C12 C 0.3154(3) 0.8278(9) 0.1365(5)
H7 H 0.2876 0.8635 0.0685
C13 C 0.3626(3) 0.9459(10) 0.1715(7)
H8 H 0.3663 1.0607 0.1281
C14 C 0.4040(3) 0.8956(10) 0.2698(7)
C15 C 0.3976(3) 0.7272(12) 0.3353(7)
H9 H 0.4256 0.6926 0.4031
C16 C 0.3499(3) 0.6111(10) 0.3001(6)
H10 H 0.3457 0.4985 0.3454
C17 C 0.0611(3) 0.7175(10) 0.5128(6)
H11 H 0.0896 0.6930 0.5857
H12 H 0.0227 0.7170 0.5358
H13 H 0.0685 0.8418 0.4782
O1 O 0.06470(16) 0.5704(6) 0.4220(3)
O2 O 0.4506(13) 1.027(5) 0.295(4)
C18 C 0.4579(10) 1.191(3) 0.260(2)
H14 H 0.4278 1.2225 0.1910
H15 H 0.4954 1.1996 0.2326
H16 H 0.4564 1.2797 0.3274
C19? C 0.5000(14) 0.952(5) 0.382(3)
H17? H 0.5037 0.8171 0.4035
H18? H 0.5053 1.0292 0.4568
H19? H 0.5290 0.9865 0.3313
O3? O 0.452(2) 0.982(9) 0.324(6)
loop_
_geom_bond_atom_site_label_1
_geom_bond_atom_site_label_2
_geom_bond_site_symmetry_1
_geom_bond_site_symmetry_2
Br1 C1 1_555 1_555
Br2 C5 1_555 1_555
C1 C2 1_555 1_555
C2 H1 1_555 1_555
H2 C2 1_555 1_555
C3 C2 1_555 1_555
H3 C3 1_555 1_555
H4 C3 1_555 1_555
C4 C3 1_555 1_555
C5 C4 1_555 1_555
C6 C5 1_555 1_555
C7 C6 1_555 1_555
H5 C7 1_555 1_555
C8 C7 1_555 1_555
H6 C8 1_555 1_555
C9 C4 1_555 1_555
C10 C1 1_555 1_555
C11 C10 1_555 1_555
C12 C11 1_555 1_555
H7 C12 1_555 1_555
C13 C12 1_555 1_555
H8 C13 1_555 1_555
C14 C13 1_555 1_555
C15 C14 1_555 1_555
H9 C15 1_555 1_555
C16 C11 1_555 1_555
H10 C16 1_555 1_555
C17 H11 1_555 1_555
H12 C17 1_555 1_555
H13 C17 1_555 1_555
O1 C6 1_555 1_555
O2 C14 1_555 1_555
C18 O2 1_555 1_555
H14 C18 1_555 1_555
H15 C18 1_555 1_555
H16 C18 1_555 1_555
C8 C9 1_555 1_555
C9 C10 1_555 1_555
C15 C16 1_555 1_555
C17 O1 1_555 1_555

#END
