
#######################################################################
#
#                 Cambridge Crystallographic Data Centre
#                                CCDC 
#
#######################################################################
#
# If this CIF has been generated from an entry in the Cambridge 
# Structural Database, then it will include bibliographic, chemical, 
# crystal, experimental, refinement or atomic coordinate data resulting 
# from the CCDC's data processing and validation procedures.
#
#######################################################################

data_OKEGAN
_chemical_formula_moiety         'C18 H15 Br2 Cl1 O2'
_chemical_name_systematic        
3,8-Dibromo-4-(3-chloro-4-methoxyphenyl)-7-methoxy-1,2-dihydronaphthalene
_symmetry_cell_setting           triclinic
_symmetry_space_group_name_H-M   'P -1'
_symmetry_Int_Tables_number      2
_space_group_name_Hall           '-P 1'
loop_
_symmetry_equiv_pos_site_id
_symmetry_equiv_pos_as_xyz
1 x,y,z
2 -x,-y,-z
_cell_length_a                   6.9293(3)
_cell_length_b                   8.1698(4)
_cell_length_c                   15.2657(7)
_cell_angle_alpha                85.9320(10)
_cell_angle_beta                 83.0700(10)
_cell_angle_gamma                88.7130(10)
_cell_volume                     855.647
_exptl_crystal_colour            colorless
_cell_formula_units_Z            2
loop_
_atom_site_label
_atom_site_type_symbol
_atom_site_fract_x
_atom_site_fract_y
_atom_site_fract_z
C1 C 0.0690(6) 0.7393(5) 0.1355(3)
C2 C 0.0505(6) 0.5751(6) 0.1221(3)
H1 H -0.0445 0.5420 0.0893
C3 C 0.1746(7) 0.4597(6) 0.1581(3)
H2 H 0.1607 0.3496 0.1485
C4 C 0.3176(6) 0.5026(5) 0.2073(3)
C5 C 0.3323(6) 0.6671(6) 0.2221(3)
H3 H 0.4243 0.6996 0.2567
C6 C 0.2116(7) 0.7827(5) 0.1858(3)
C7 C 0.4509(6) 0.3786(5) 0.2456(3)
C8 C 0.5822(7) 0.2908(6) 0.1961(3)
C9 C 0.7099(7) 0.1624(6) 0.2353(3)
H4 H 0.8281 0.1493 0.1952
H5 H 0.6434 0.0582 0.2430
C10 C 0.7616(6) 0.2090(6) 0.3242(3)
H6 H 0.8227 0.1157 0.3534
H7 H 0.8542 0.2977 0.3149
C11 C 0.5837(6) 0.2621(5) 0.3829(3)
C12 C 0.5617(6) 0.2345(5) 0.4739(3)
C13 C 0.3940(6) 0.2827(5) 0.5266(3)
C14 C 0.2498(6) 0.3674(6) 0.4865(3)
H8 H 0.1382 0.4025 0.5205
C15 C 0.2711(6) 0.3998(5) 0.3964(3)
H9 H 0.1736 0.4579 0.3703
C16 C 0.4349(6) 0.3479(5) 0.3430(3)
C17 C -0.1882(9) 0.8217(8) 0.0512(4)
H10 H -0.1276 0.7685 0.0006
H11 H -0.2543 0.9197 0.0318
H12 H -0.2802 0.7489 0.0852
C18 C 0.2107(7) 0.2784(7) 0.6683(3)
H13 H 0.1888 0.3950 0.6648
H14 H 0.2212 0.2404 0.7285
H15 H 0.1039 0.2253 0.6479
O1 O -0.0443(5) 0.8628(4) 0.1043(2)
O2 O 0.3845(4) 0.2409(4) 0.6149(2)
Cl1 Cl 0.23487(11) 1.00135(8) 0.20952(6)
Br2 Br 0.61419(8) 0.31599(8) 0.07070(3)
Br3 Br 0.76034(7) 0.12571(6) 0.53184(3)
Br1? Br 0.23487(11) 1.00135(8) 0.20952(6)
loop_
_geom_bond_atom_site_label_1
_geom_bond_atom_site_label_2
_geom_bond_site_symmetry_1
_geom_bond_site_symmetry_2
C1 C2 1_555 1_555
C2 H1 1_555 1_555
C3 C2 1_555 1_555
H2 C3 1_555 1_555
C4 C3 1_555 1_555
C5 C4 1_555 1_555
H3 C5 1_555 1_555
C6 C1 1_555 1_555
C7 C4 1_555 1_555
C8 C7 1_555 1_555
C9 C8 1_555 1_555
H4 C9 1_555 1_555
H5 C9 1_555 1_555
C10 C9 1_555 1_555
H6 C10 1_555 1_555
H7 C10 1_555 1_555
C11 C10 1_555 1_555
C12 C11 1_555 1_555
C13 C12 1_555 1_555
C14 C13 1_555 1_555
H8 C14 1_555 1_555
C15 C14 1_555 1_555
H9 C15 1_555 1_555
C16 C7 1_555 1_555
C17 H10 1_555 1_555
H11 C17 1_555 1_555
H12 C17 1_555 1_555
C18 H13 1_555 1_555
H14 C18 1_555 1_555
H15 C18 1_555 1_555
O1 C1 1_555 1_555
O2 C13 1_555 1_555
Cl1 C6 1_555 1_555
Br2 C8 1_555 1_555
Br3 C12 1_555 1_555
C5 C6 1_555 1_555
C11 C16 1_555 1_555
C15 C16 1_555 1_555
C17 O1 1_555 1_555
C18 O2 1_555 1_555

#END
