
#######################################################################
#
#                 Cambridge Crystallographic Data Centre
#                                CCDC 
#
#######################################################################
#
# If this CIF has been generated from an entry in the Cambridge 
# Structural Database, then it will include bibliographic, chemical, 
# crystal, experimental, refinement or atomic coordinate data resulting 
# from the CCDC's data processing and validation procedures.
#
#######################################################################

data_OKEHES
_chemical_formula_moiety         'C16 H13 F1 O1'
_chemical_name_systematic        2-fluoro-3-(4-methoxyphenyl)-1H-indene
_symmetry_cell_setting           triclinic
_symmetry_space_group_name_H-M   'P -1'
_symmetry_Int_Tables_number      2
_space_group_name_Hall           '-P 1'
loop_
_symmetry_equiv_pos_site_id
_symmetry_equiv_pos_as_xyz
1 x,y,z
2 -x,-y,-z
_cell_length_a                   10.0247(7)
_cell_length_b                   11.1148(8)
_cell_length_c                   13.0204(10)
_cell_angle_alpha                65.436(4)
_cell_angle_beta                 70.631(4)
_cell_angle_gamma                88.563(4)
_cell_volume                     1233.99
_exptl_crystal_colour            colorless
_exptl_crystal_description       columnar
_cell_formula_units_Z            4
loop_
_atom_site_label
_atom_site_type_symbol
_atom_site_fract_x
_atom_site_fract_y
_atom_site_fract_z
F1 F 0.26184(17) 0.63565(16) 0.83541(13)
O1 O 0.2323(2) 0.94272(19) 0.29866(16)
C1 C 0.2127(4) 1.0761(3) 0.2828(3)
H1 H 0.1194 1.0765 0.3354
H2 H 0.2218 1.1308 0.2005
H3 H 0.2835 1.1106 0.3017
C2 C 0.2084(2) 0.8473(2) 0.4137(2)
C3 C 0.2216(3) 0.7183(2) 0.4268(2)
H4 H 0.2463 0.7010 0.3592
C4 C 0.1984(2) 0.6153(2) 0.5385(2)
H5 H 0.2075 0.5289 0.5456
C5 C 0.1612(2) 0.6381(2) 0.6419(2)
C6 C 0.1366(2) 0.5290(2) 0.7627(2)
C7 C 0.0567(2) 0.3955(2) 0.8153(2)
C8 C -0.0156(3) 0.3370(3) 0.7698(2)
H6 H -0.0164 0.3834 0.6920
C9 C -0.0864(3) 0.2085(3) 0.8420(3)
H7 H -0.1346 0.1683 0.8121
C10 C -0.0861(3) 0.1389(3) 0.9588(3)
H8 H -0.1340 0.0526 1.0062
C11 C 0.1505(3) 0.7687(2) 0.6260(2)
H9 H 0.1268 0.7870 0.6930
C12 C 0.1740(3) 0.8726(3) 0.5138(2)
H10 H 0.1665 0.9594 0.5058
C13 C 0.1824(2) 0.5315(2) 0.8471(2)
C14 C 0.1428(3) 0.4070(3) 0.9603(2)
H11 H 0.0864 0.4220 1.0295
H12 H 0.2263 0.3673 0.9740
C15 C 0.0565(2) 0.3227(2) 0.9337(2)
C16 C -0.0156(3) 0.1965(3) 1.0044(2)
H13 H -0.0167 0.1500 1.0829
F2 F 0.20459(18) 0.37590(16) 0.19712(15)
O2 O 0.2631(2) 0.02036(19) 0.70809(16)
C17 C 0.3797(4) -0.0458(3) 0.7342(3)
H14 H 0.4339 -0.0663 0.6688
H15 H 0.3439 -0.1269 0.8071
H16 H 0.4397 0.0113 0.7442
C18 C 0.2940(3) 0.1304(3) 0.5997(2)
C19 C 0.1782(3) 0.1802(3) 0.5678(2)
H17 H 0.0862 0.1398 0.6201
C20 C 0.1981(2) 0.2885(3) 0.4600(2)
H18 H 0.1192 0.3200 0.4397
C21 C 0.3338(2) 0.3518(2) 0.3808(2)
C22 C 0.3578(2) 0.4644(2) 0.2615(2)
C23 C 0.4535(2) 0.5907(2) 0.2061(2)
C24 C 0.5383(3) 0.6393(3) 0.2495(2)
H19 H 0.5444 0.5876 0.3248
C25 C 0.6134(3) 0.7660(3) 0.1788(3)
H20 H 0.6721 0.7987 0.2063
C26 C 0.6028(3) 0.8447(3) 0.0678(3)
H21 H 0.6533 0.9300 0.0219
C27 C 0.5177(3) 0.7974(3) 0.0247(3)
H22 H 0.5097 0.8507 -0.0496
C28 C 0.4449(3) 0.6707(3) 0.0929(2)
C29 C 0.3454(3) 0.5956(3) 0.0677(2)
H23 H 0.3208 0.6202 -0.0006
C30 C 0.2983(3) 0.4723(3) 0.1819(2)
C31 C 0.4483(3) 0.3027(3) 0.4159(2)
H24 H 0.5402 0.3449 0.3653
C32 C 0.4293(3) 0.1936(3) 0.5233(2)
H25 H 0.5078 0.1624 0.5443
loop_
_geom_bond_atom_site_label_1
_geom_bond_atom_site_label_2
_geom_bond_site_symmetry_1
_geom_bond_site_symmetry_2
F1 C13 1_555 1_555
F2 C30 1_555 1_555
O1 C1 1_555 1_555
O2 C17 1_555 1_555
C1 H1 1_555 1_555
H2 C1 1_555 1_555
H3 C1 1_555 1_555
C2 O1 1_555 1_555
C3 C2 1_555 1_555
H4 C3 1_555 1_555
C4 C3 1_555 1_555
H5 C4 1_555 1_555
C5 C4 1_555 1_555
C6 C5 1_555 1_555
C7 C6 1_555 1_555
C8 C7 1_555 1_555
H6 C8 1_555 1_555
C9 C8 1_555 1_555
H7 C9 1_555 1_555
C10 C9 1_555 1_555
H8 C10 1_555 1_555
C11 C5 1_555 1_555
H9 C11 1_555 1_555
C12 C2 1_555 1_555
H10 C12 1_555 1_555
C13 C6 1_555 1_555
C14 C13 1_555 1_555
H11 C14 1_555 1_555
H12 C14 1_555 1_555
C15 C7 1_555 1_555
C16 C10 1_555 1_555
H13 C16 1_555 1_555
C17 H14 1_555 1_555
H15 C17 1_555 1_555
H16 C17 1_555 1_555
C18 O2 1_555 1_555
C19 C18 1_555 1_555
H17 C19 1_555 1_555
C20 C19 1_555 1_555
H18 C20 1_555 1_555
C21 C20 1_555 1_555
C22 C21 1_555 1_555
C23 C22 1_555 1_555
C24 C23 1_555 1_555
H19 C24 1_555 1_555
C25 C24 1_555 1_555
H20 C25 1_555 1_555
C26 C25 1_555 1_555
H21 C26 1_555 1_555
C27 C26 1_555 1_555
H22 C27 1_555 1_555
C28 C23 1_555 1_555
C29 C28 1_555 1_555
H23 C29 1_555 1_555
C30 C22 1_555 1_555
C31 C21 1_555 1_555
H24 C31 1_555 1_555
C32 C18 1_555 1_555
H25 C32 1_555 1_555
C11 C12 1_555 1_555
C14 C15 1_555 1_555
C15 C16 1_555 1_555
C27 C28 1_555 1_555
C29 C30 1_555 1_555
C31 C32 1_555 1_555

#END
