
#######################################################################
#
#                 Cambridge Crystallographic Data Centre
#                                CCDC 
#
#######################################################################
#
# If this CIF has been generated from an entry in the Cambridge 
# Structural Database, then it will include bibliographic, chemical, 
# crystal, experimental, refinement or atomic coordinate data resulting 
# from the CCDC's data processing and validation procedures.
#
#######################################################################

data_OKEHAP
_chemical_formula_moiety         'C14 H9 F4 N1 O1'
_chemical_name_systematic        
N-(2-fluorophenyl)-2-(trifluoromethyl)benzamide
_symmetry_cell_setting           orthorhombic
_symmetry_space_group_name_H-M   'P n a 21'
_symmetry_Int_Tables_number      33
_space_group_name_Hall           'P 2c -2n'
loop_
_symmetry_equiv_pos_site_id
_symmetry_equiv_pos_as_xyz
1 x,y,z
2 -x,-y,1/2+z
3 1/2+x,1/2-y,z
4 1/2-x,1/2+y,1/2+z
_cell_length_a                   8.9068(13)
_cell_length_b                   14.315(2)
_cell_length_c                   9.8311(15)
_cell_angle_alpha                90
_cell_angle_beta                 90
_cell_angle_gamma                90
_cell_volume                     1253.47
_exptl_crystal_colour            colorless
_exptl_crystal_description       plate
_cell_formula_units_Z            4
loop_
_atom_site_label
_atom_site_type_symbol
_atom_site_fract_x
_atom_site_fract_y
_atom_site_fract_z
F1 F 0.21166(17) 0.29497(9) 0.55136(18)
F2 F 0.05240(17) 0.27065(10) -0.16067(16)
F3 F 0.09826(14) 0.20422(8) 0.03117(16)
F4 F 0.24379(15) 0.31292(10) -0.04278(19)
N1 N 0.00614(17) 0.24037(11) 0.34992(19)
H1 H -0.0926 0.2405 0.3465
O1 O 0.21795(16) 0.31211(11) 0.27021(18)
C1 C -0.0151(2) 0.35996(13) 0.1784(2)
C2 C 0.0026(2) 0.35897(12) 0.0371(2)
C3 C -0.0723(2) 0.42393(13) -0.0428(2)
H2 H -0.0597 0.4234 -0.1388
C4 C -0.1659(2) 0.48996(13) 0.0175(2)
H3 H -0.2142 0.5358 -0.0370
C5 C -0.1885(2) 0.48871(14) 0.1562(2)
H4 H -0.2551 0.5325 0.1966
C6 C -0.1145(2) 0.42394(13) 0.2375(2)
H5 H -0.1314 0.4231 0.3329
C7 C 0.07795(19) 0.17628(13) 0.4390(2)
C8 C 0.1803(2) 0.20398(13) 0.5367(2)
C9 C 0.2504(2) 0.14107(15) 0.6225(3)
H6 H 0.3221 0.1619 0.6874
C10 C 0.2141(2) 0.04672(15) 0.6123(3)
H7 H 0.2618 0.0026 0.6700
C11 C 0.1088(2) 0.01707(14) 0.5182(3)
H8 H 0.0819 -0.0471 0.5134
C12 C 0.0424(2) 0.08129(13) 0.4306(2)
H9 H -0.0278 0.0604 0.3645
C13 C 0.0815(2) 0.30098(13) 0.2705(2)
C14 C 0.0996(2) 0.28682(14) -0.0330(2)
F5? F -0.0382(12) 0.0512(6) 0.3400(12)
H10? H 0.2034 0.2685 0.5451
loop_
_geom_bond_atom_site_label_1
_geom_bond_atom_site_label_2
_geom_bond_site_symmetry_1
_geom_bond_site_symmetry_2
F1 C8 1_555 1_555
F2 C14 1_555 1_555
F3 C14 1_555 1_555
F4 C14 1_555 1_555
N1 H1 1_555 1_555
O1 C13 1_555 1_555
C1 C2 1_555 1_555
C2 C3 1_555 1_555
C3 H2 1_555 1_555
C4 C3 1_555 1_555
H3 C4 1_555 1_555
C5 C4 1_555 1_555
H4 C5 1_555 1_555
C6 C1 1_555 1_555
H5 C6 1_555 1_555
C7 N1 1_555 1_555
C8 C7 1_555 1_555
C9 C8 1_555 1_555
H6 C9 1_555 1_555
C10 C9 1_555 1_555
H7 C10 1_555 1_555
C11 C10 1_555 1_555
H8 C11 1_555 1_555
C12 C7 1_555 1_555
H9 C12 1_555 1_555
C13 N1 1_555 1_555
C14 C2 1_555 1_555
C1 C13 1_555 1_555
C5 C6 1_555 1_555
C11 C12 1_555 1_555

#END
