
#######################################################################
#
#                 Cambridge Crystallographic Data Centre
#                                CCDC 
#
#######################################################################
#
# If this CIF has been generated from an entry in the Cambridge 
# Structural Database, then it will include bibliographic, chemical, 
# crystal, experimental, refinement or atomic coordinate data resulting 
# from the CCDC's data processing and validation procedures.
#
#######################################################################

data_OKEJIZ
_chemical_formula_moiety         'C14 H9 F4 N1 O1,0.5(H2 O1)'
_chemical_name_systematic        
'2-fluoro-N-(3-(trifluoromethyl)phenyl)benzamide hemihydrate'
_symmetry_cell_setting           orthorhombic
_symmetry_space_group_name_H-M   'P b c n'
_symmetry_Int_Tables_number      60
_space_group_name_Hall           '-P 2n 2ab'
loop_
_symmetry_equiv_pos_site_id
_symmetry_equiv_pos_as_xyz
1 x,y,z
2 1/2-x,1/2-y,1/2+z
3 -x,y,1/2-z
4 1/2+x,1/2-y,-z
5 -x,-y,-z
6 1/2+x,1/2+y,1/2-z
7 x,-y,1/2+z
8 1/2-x,1/2+y,z
_cell_length_a                   7.3568(17)
_cell_length_b                   27.672(6)
_cell_length_c                   12.434(3)
_cell_angle_alpha                90
_cell_angle_beta                 90
_cell_angle_gamma                90
_cell_volume                     2531.28
_exptl_crystal_colour            colorless
_exptl_crystal_description       plate
_cell_formula_units_Z            8
loop_
_atom_site_label
_atom_site_type_symbol
_atom_site_fract_x
_atom_site_fract_y
_atom_site_fract_z
N1 N 0.19891(18) 0.30303(5) 0.43920(11)
H1 H 0.1574 0.2890 0.3807
O1 O 0.29268(17) 0.28763(4) 0.61055(9)
F1 F 0.11540(17) 0.20153(4) 0.66116(9)
F2 F 0.2666(7) 0.51181(8) 0.5869(2)
F3 F 0.1535(6) 0.45841(15) 0.6846(3)
F4 F 0.4350(5) 0.45736(18) 0.6501(4)
C1 C 0.2408(2) 0.22043(6) 0.49331(13)
C2 C 0.1793(2) 0.18664(6) 0.56732(14)
C3 C 0.1768(3) 0.13756(7) 0.54571(17)
H2 H 0.1331 0.1152 0.5977
C4 C 0.2396(3) 0.12164(7) 0.44651(18)
H3 H 0.2395 0.0881 0.4306
C5 C 0.3020(3) 0.15416(7) 0.37073(16)
H4 H 0.3446 0.1430 0.3030
C6 C 0.3024(2) 0.20317(7) 0.39381(14)
H5 H 0.3452 0.2254 0.3414
C7 C 0.2084(2) 0.35403(6) 0.43675(13)
C8 C 0.2341(2) 0.38286(6) 0.52708(13)
H6 H 0.2462 0.3687 0.5964
C9 C 0.2419(2) 0.43277(6) 0.51416(14)
C10 C 0.2257(3) 0.45416(7) 0.41456(18)
H7 H 0.2318 0.4883 0.4073
C11 C 0.2005(4) 0.42506(7) 0.32537(17)
H8 H 0.1897 0.4393 0.2561
C12 C 0.1910(3) 0.37537(7) 0.33639(15)
H9 H 0.1724 0.3557 0.2747
C13 C 0.2464(2) 0.27325(6) 0.52117(13)
C14 C 0.2687(3) 0.46368(7) 0.61160(16)
O2 O 0.0000 0.26695(6) 0.2500
H11 H 0.066(3) 0.2487(8) 0.2103(18)
H11B H -0.066(3) 0.2487(8) 0.2897(18)
F5? F 0.3695(8) 0.2249(2) 0.3288(4)
F6? F 0.2582(15) 0.43831(19) 0.7078(3)
F7? F 0.4037(11) 0.4893(3) 0.6187(4)
F8? F 0.1220(11) 0.4927(3) 0.6223(6)
H10? H 0.1375 0.1976 0.6354
loop_
_geom_bond_atom_site_label_1
_geom_bond_atom_site_label_2
_geom_bond_site_symmetry_1
_geom_bond_site_symmetry_2
N1 H1 1_555 1_555
O1 C13 1_555 1_555
F1 C2 1_555 1_555
F2 C14 1_555 1_555
F3 C14 1_555 1_555
F4 C14 1_555 1_555
C1 C2 1_555 1_555
C2 C3 1_555 1_555
C3 H2 1_555 1_555
C4 C3 1_555 1_555
H3 C4 1_555 1_555
C5 C4 1_555 1_555
H4 C5 1_555 1_555
C6 C1 1_555 1_555
H5 C6 1_555 1_555
C7 N1 1_555 1_555
C8 C7 1_555 1_555
H6 C8 1_555 1_555
C9 C8 1_555 1_555
C10 C9 1_555 1_555
H7 C10 1_555 1_555
C11 C10 1_555 1_555
H8 C11 1_555 1_555
C12 C7 1_555 1_555
H9 C12 1_555 1_555
C13 N1 1_555 1_555
C14 C9 1_555 1_555
O2 H11 1_555 1_555
H11B O2 1_555 1_555
C1 C13 1_555 1_555
C5 C6 1_555 1_555
C11 C12 1_555 1_555

#END
