
#######################################################################
#
#                 Cambridge Crystallographic Data Centre
#                                CCDC 
#
#######################################################################
#
# If this CIF has been generated from an entry in the Cambridge 
# Structural Database, then it will include bibliographic, chemical, 
# crystal, experimental, refinement or atomic coordinate data resulting 
# from the CCDC's data processing and validation procedures.
#
#######################################################################

data_OKEJOF
_chemical_formula_moiety         'C14 H9 F4 N1 O1'
_chemical_name_systematic        
2-fluoro-N-(4-(trifluoromethyl)phenyl)benzamide
_symmetry_cell_setting           orthorhombic
_symmetry_space_group_name_H-M   'P 21 c n'
_symmetry_Int_Tables_number      33
_space_group_name_Hall           'P -2n 2a'
loop_
_symmetry_equiv_pos_site_id
_symmetry_equiv_pos_as_xyz
1 x,y,z
2 1/2+x,-y,-z
3 x,1/2-y,1/2+z
4 1/2+x,1/2+y,1/2-z
_cell_length_a                   27.3179(14)
_cell_length_b                   5.2070(2)
_cell_length_c                   8.3017(3)
_cell_angle_alpha                90
_cell_angle_beta                 90
_cell_angle_gamma                90
_cell_volume                     1180.87
_exptl_crystal_colour            colorless
_exptl_crystal_description       ROD
_cell_formula_units_Z            4
loop_
_atom_site_label
_atom_site_type_symbol
_atom_site_fract_x
_atom_site_fract_y
_atom_site_fract_z
F1 F 0.46289(12) -0.2941(6) 0.6051(4)
F2 F 0.75511(14) -0.0453(9) 0.9020(5)
F3 F 0.73458(13) -0.1025(8) 1.1496(5)
F4 F 0.73743(14) 0.2740(7) 1.0499(5)
N1 N 0.52574(16) -0.0598(8) 0.8211(5)
H1 H 0.5156 -0.2146 0.7949
O1 O 0.50415(15) 0.3586(7) 0.8465(5)
C1 C 0.4419(2) 0.0697(10) 0.7644(6)
C2 C 0.4043(2) 0.2276(11) 0.8190(7)
H2 H 0.4122 0.3715 0.8844
C3 C 0.3554(2) 0.1808(11) 0.7805(7)
H3 H 0.3305 0.2923 0.8189
C4 C 0.3435(2) -0.0282(11) 0.6865(7)
H4 H 0.3102 -0.0634 0.6623
C5 C 0.3799(2) -0.1871(11) 0.6272(7)
H5 H 0.3720 -0.3278 0.5591
C6 C 0.4279(2) -0.1374(11) 0.6687(6)
C7 C 0.57472(18) -0.0313(10) 0.8705(6)
C8 C 0.6033(2) 0.1734(10) 0.8166(6)
H6 H 0.5897 0.2998 0.7474
C9 C 0.6516(2) 0.1912(10) 0.8647(6)
H7 H 0.6712 0.3298 0.8275
C10 C 0.6719(2) 0.0076(10) 0.9673(6)
C11 C 0.6433(2) -0.1974(10) 1.0208(7)
H8 H 0.6570 -0.3239 1.0900
C12 C 0.5949(2) -0.2152(10) 0.9724(6)
H9 H 0.5753 -0.3541 1.0091
C13 C 0.4935(2) 0.1355(10) 0.8113(6)
C14 C 0.7246(2) 0.0314(11) 1.0164(7)
loop_
_geom_bond_atom_site_label_1
_geom_bond_atom_site_label_2
_geom_bond_site_symmetry_1
_geom_bond_site_symmetry_2
F1 C6 1_555 1_555
F2 C14 1_555 1_555
F3 C14 1_555 1_555
F4 C14 1_555 1_555
N1 H1 1_555 1_555
O1 C13 1_555 1_555
C1 C2 1_555 1_555
C2 H2 1_555 1_555
C3 C2 1_555 1_555
H3 C3 1_555 1_555
C4 C3 1_555 1_555
H4 C4 1_555 1_555
C5 C4 1_555 1_555
H5 C5 1_555 1_555
C6 C1 1_555 1_555
C7 N1 1_555 1_555
C8 C7 1_555 1_555
H6 C8 1_555 1_555
C9 C8 1_555 1_555
H7 C9 1_555 1_555
C10 C9 1_555 1_555
C11 C10 1_555 1_555
H8 C11 1_555 1_555
C12 C7 1_555 1_555
H9 C12 1_555 1_555
C13 N1 1_555 1_555
C14 C10 1_555 1_555
C1 C13 1_555 1_555
C5 C6 1_555 1_555
C11 C12 1_555 1_555

#END
