
#######################################################################
#
#                 Cambridge Crystallographic Data Centre
#                                CCDC 
#
#######################################################################
#
# If this CIF has been generated from an entry in the Cambridge 
# Structural Database, then it will include bibliographic, chemical, 
# crystal, experimental, refinement or atomic coordinate data resulting 
# from the CCDC's data processing and validation procedures.
#
#######################################################################

data_OKEJEV
_chemical_formula_moiety         'C14 H9 F4 N1 O1'
_chemical_name_systematic        
2-fluoro-N-(3-(trifluoromethyl)phenyl)benzamide
_symmetry_cell_setting           orthorhombic
_symmetry_space_group_name_H-M   'P b c a'
_symmetry_Int_Tables_number      61
_space_group_name_Hall           '-P 2ac 2ab'
loop_
_symmetry_equiv_pos_site_id
_symmetry_equiv_pos_as_xyz
1 x,y,z
2 1/2-x,-y,1/2+z
3 1/2+x,1/2-y,-z
4 -x,1/2+y,1/2-z
5 -x,-y,-z
6 1/2+x,y,1/2-z
7 1/2-x,1/2+y,z
8 x,1/2-y,1/2+z
_cell_length_a                   12.6922(3)
_cell_length_b                   8.9547(2)
_cell_length_c                   21.1831(6)
_cell_angle_alpha                90
_cell_angle_beta                 90
_cell_angle_gamma                90
_cell_volume                     2407.56
_exptl_crystal_colour            colorless
_exptl_crystal_description       plate
_cell_formula_units_Z            8
loop_
_atom_site_label
_atom_site_type_symbol
_atom_site_fract_x
_atom_site_fract_y
_atom_site_fract_z
F1 F 1.22185(10) 0.58895(15) 0.64047(6)
F2 F 1.25138(9) 0.54470(15) 0.54216(6)
F3 F 1.17958(9) 0.37723(13) 0.60059(6)
N1 N 0.80047(12) 0.51762(17) 0.62204(7)
H1 H 0.8104 0.4244 0.6338
O1 O 0.67605(11) 0.70173(15) 0.61946(7)
F4 F 0.76028(15) 0.3703(2) 0.73568(9)
C1 C 0.63181(14) 0.4741(2) 0.67025(8)
C2 C 0.52427(15) 0.4759(2) 0.65611(9)
H2 H 0.4992 0.5430 0.6248
C3 C 0.45355(16) 0.3837(2) 0.68610(10)
H3 H 0.3811 0.3860 0.6748
C4 C 0.48831(17) 0.2874(2) 0.73282(10)
H4 H 0.4398 0.2234 0.7536
C5 C 0.59387(18) 0.2846(2) 0.74918(9)
H5 H 0.6181 0.2198 0.7816
C6 C 0.66355(15) 0.3769(2) 0.71784(9)
C7 C 0.88718(15) 0.5876(2) 0.59186(8)
C8 C 0.87661(15) 0.7087(2) 0.55085(8)
H6 H 0.8093 0.7513 0.5431
C9 C 0.96554(15) 0.7662(2) 0.52145(9)
H7 H 0.9583 0.8484 0.4934
C10 C 1.06449(16) 0.7067(2) 0.53208(9)
H8 H 1.1247 0.7475 0.5118
C11 C 1.07418(15) 0.5858(2) 0.57293(9)
C12 C 0.98613(15) 0.5259(2) 0.60247(8)
H9 H 0.9935 0.4427 0.6299
C13 C 0.70446(15) 0.5758(2) 0.63510(8)
C14 C 1.18048(16) 0.5237(2) 0.58835(9)
F5? F 0.4884(2) 0.5614(3) 0.61329(13)
H10? H 0.7359 0.3740 0.7292
loop_
_geom_bond_atom_site_label_1
_geom_bond_atom_site_label_2
_geom_bond_site_symmetry_1
_geom_bond_site_symmetry_2
F1 C14 1_555 1_555
F2 C14 1_555 1_555
F3 C14 1_555 1_555
N1 H1 1_555 1_555
O1 C13 1_555 1_555
F4 C6 1_555 1_555
C1 C2 1_555 1_555
C2 H2 1_555 1_555
C3 C2 1_555 1_555
H3 C3 1_555 1_555
C4 C3 1_555 1_555
H4 C4 1_555 1_555
C5 C4 1_555 1_555
H5 C5 1_555 1_555
C6 C1 1_555 1_555
C7 N1 1_555 1_555
C8 C7 1_555 1_555
H6 C8 1_555 1_555
C9 C8 1_555 1_555
H7 C9 1_555 1_555
C10 C9 1_555 1_555
H8 C10 1_555 1_555
C11 C10 1_555 1_555
C12 C7 1_555 1_555
H9 C12 1_555 1_555
C13 N1 1_555 1_555
C14 C11 1_555 1_555
C1 C13 1_555 1_555
C5 C6 1_555 1_555
C11 C12 1_555 1_555

#END
