
#######################################################################
#
#                 Cambridge Crystallographic Data Centre
#                                CCDC 
#
#######################################################################
#
# If this CIF has been generated from an entry in the Cambridge 
# Structural Database, then it will include bibliographic, chemical, 
# crystal, experimental, refinement or atomic coordinate data resulting 
# from the CCDC's data processing and validation procedures.
#
#######################################################################

data_OKEKAS
_chemical_formula_moiety         'C14 H9 F4 N1 O1'
_chemical_name_systematic        
3-fluoro-N-(3-(trifluoromethyl)phenyl)benzamide
_symmetry_cell_setting           monoclinic
_symmetry_space_group_name_H-M   'C c'
_symmetry_Int_Tables_number      9
_space_group_name_Hall           'C -2yc'
loop_
_symmetry_equiv_pos_site_id
_symmetry_equiv_pos_as_xyz
1 x,y,z
2 x,-y,1/2+z
3 1/2+x,1/2+y,z
4 1/2+x,1/2-y,1/2+z
_cell_length_a                   7.156(3)
_cell_length_b                   7.072(3)
_cell_length_c                   23.277(9)
_cell_angle_alpha                90
_cell_angle_beta                 91.651(6)
_cell_angle_gamma                90
_cell_volume                     1177.5
_exptl_crystal_colour            colorless
_exptl_crystal_description       rod
_cell_formula_units_Z            4
loop_
_atom_site_label
_atom_site_type_symbol
_atom_site_fract_x
_atom_site_fract_y
_atom_site_fract_z
F1 F 1.1554(3) 0.9801(3) -0.06656(9)
F2 F 0.6798(3) 0.6022(3) 0.26951(8)
F3 F 0.8457(3) 0.4135(3) 0.32268(9)
F4 F 0.5514(2) 0.3608(3) 0.30935(8)
N1 N 0.9620(3) 0.3420(3) 0.08841(11)
H1 H 1.0488 0.2728 0.0726
O1 O 0.8010(3) 0.6195(3) 0.08141(9)
C1 C 1.0284(4) 0.5574(4) 0.01069(13)
C2 C 1.0483(4) 0.7497(4) -0.00316(13)
H2 H 1.0010 0.8457 0.0210
C3 C 1.1386(4) 0.7946(5) -0.05282(14)
C4 C 1.2102(4) 0.6614(5) -0.08921(14)
H3 H 1.2726 0.6978 -0.1230
C5 C 1.1884(4) 0.4720(5) -0.07504(13)
H4 H 1.2349 0.3774 -0.0998
C6 C 1.0996(4) 0.4187(5) -0.02521(13)
H5 H 1.0874 0.2887 -0.0157
C7 C 0.8769(4) 0.2669(4) 0.13828(13)
C8 C 0.8220(4) 0.3826(4) 0.18297(13)
H6 H 0.8344 0.5160 0.1805
C9 C 0.7478(4) 0.2978(5) 0.23175(13)
C10 C 0.7285(4) 0.1030(4) 0.23600(14)
H7 H 0.6779 0.0480 0.2694
C11 C 0.7841(4) -0.0106(4) 0.19084(14)
H8 H 0.7701 -0.1440 0.1931
C12 C 0.8599(4) 0.0703(5) 0.14261(14)
H9 H 0.9006 -0.0081 0.1123
C13 C 0.9208(4) 0.5100(4) 0.06341(13)
C14 C 0.7058(4) 0.4194(5) 0.28268(13)
F5? F 1.245(5) 0.376(5) -0.1128(15)
H10? H 1.1520 0.9244 -0.0624
loop_
_geom_bond_atom_site_label_1
_geom_bond_atom_site_label_2
_geom_bond_site_symmetry_1
_geom_bond_site_symmetry_2
F1 C3 1_555 1_555
F2 C14 1_555 1_555
F3 C14 1_555 1_555
F4 C14 1_555 1_555
N1 H1 1_555 1_555
O1 C13 1_555 1_555
C1 C2 1_555 1_555
C2 H2 1_555 1_555
C3 C2 1_555 1_555
C4 C3 1_555 1_555
H3 C4 1_555 1_555
C5 C4 1_555 1_555
H4 C5 1_555 1_555
C6 C1 1_555 1_555
H5 C6 1_555 1_555
C7 N1 1_555 1_555
C8 C7 1_555 1_555
H6 C8 1_555 1_555
C9 C8 1_555 1_555
C10 C9 1_555 1_555
H7 C10 1_555 1_555
C11 C10 1_555 1_555
H8 C11 1_555 1_555
C12 C7 1_555 1_555
H9 C12 1_555 1_555
C13 N1 1_555 1_555
C14 C9 1_555 1_555
C1 C13 1_555 1_555
C5 C6 1_555 1_555
C11 C12 1_555 1_555

#END
