
#######################################################################
#
#                 Cambridge Crystallographic Data Centre
#                                CCDC 
#
#######################################################################
#
# If this CIF has been generated from an entry in the Cambridge 
# Structural Database, then it will include bibliographic, chemical, 
# crystal, experimental, refinement or atomic coordinate data resulting 
# from the CCDC's data processing and validation procedures.
#
#######################################################################

data_OKEQIE
_chemical_formula_moiety         'C22 H41 N3 O6'
_chemical_name_systematic        
't-Butoxycarbonyl-leucyl-\a-aminoisobutyryl-leucine methyl ester'
_symmetry_cell_setting           orthorhombic
_symmetry_space_group_name_H-M   'P 21 21 21'
_symmetry_Int_Tables_number      19
_space_group_name_Hall           'P 2ac 2ab'
loop_
_symmetry_equiv_pos_site_id
_symmetry_equiv_pos_as_xyz
1 x,y,z
2 -x,1/2+y,1/2-z
3 1/2+x,1/2-y,-z
4 1/2-x,-y,1/2+z
_cell_length_a                   10.010(14)
_cell_length_b                   10.580(14)
_cell_length_c                   25.25(3)
_cell_angle_alpha                90
_cell_angle_beta                 90
_cell_angle_gamma                90
_cell_volume                     2674.12
_cell_formula_units_Z            4
_exptl_crystal_recrystallization_method methanol/water
loop_
_atom_site_label
_atom_site_type_symbol
_atom_site_fract_x
_atom_site_fract_y
_atom_site_fract_z
C1 C 0.5725(7) 0.0635(6) 0.7682(3)
O1 O 0.5629(3) 0.1590(4) 0.81166(14)
C2 C 0.6714(5) 0.1963(5) 0.8396(2)
O2 O 0.7841(4) 0.1547(4) 0.83291(18)
N1 N 0.6382(4) 0.2808(4) 0.87735(16)
H1 H 0.5564 0.3037 0.8815
C3 C 0.7426(4) 0.3327(5) 0.9110(2)
H2 H 0.8203 0.3495 0.8884
C4 C 0.7008(5) 0.4596(4) 0.9363(2)
H3 H 0.6189 0.4463 0.9561
H4 H 0.7692 0.4847 0.9614
C5 C 0.6784(5) 0.5689(5) 0.8974(2)
H5 H 0.6051 0.5445 0.8738
C6 C 0.6342(9) 0.6874(6) 0.9273(4)
H6 H 0.6127 0.7529 0.9024
H7 H 0.7053 0.7154 0.9500
H8 H 0.5569 0.6682 0.9483
C7 C 0.7988(8) 0.5989(8) 0.8628(4)
H9 H 0.8725 0.6237 0.8848
H10 H 0.7769 0.6666 0.8390
H11 H 0.8229 0.5253 0.8427
C8 C 0.7893(4) 0.2429(5) 0.95606(19)
O3 O 0.9029(3) 0.2515(3) 0.97488(14)
N2 N 0.6990(4) 0.1586(4) 0.97383(16)
H12 H 0.6209 0.1580 0.9596
C9 C 0.7277(5) 0.0667(5) 1.0168(2)
C10 C 0.7644(4) 0.1379(4) 1.0685(2)
C11 C 0.8422(6) -0.0249(5) 1.0002(3)
H13 H 0.9232 0.0223 0.9951
H14 H 0.8185 -0.0665 0.9677
H15 H 0.8555 -0.0868 1.0275
C12 C 0.6014(5) -0.0122(5) 1.0281(3)
H16 H 0.5787 -0.0608 0.9973
H17 H 0.5286 0.0432 1.0368
H18 H 0.6181 -0.0682 1.0573
C13 C 0.6554(9) 0.1175(8) 0.7235(3)
H19 H 0.7484 0.1111 0.7323
H20 H 0.6322 0.2047 0.7183
H21 H 0.6380 0.0710 0.6916
C14 C 0.4298(8) 0.0466(8) 0.7510(3)
H22 H 0.3960 0.1254 0.7377
H23 H 0.3768 0.0201 0.7807
H24 H 0.4254 -0.0163 0.7237
O4 O 0.8638(3) 0.1099(3) 1.09592(16)
N3 N 0.6790(4) 0.2314(4) 1.08294(17)
H25 H 0.6204 0.2569 1.0605
C15 C 0.6828(5) 0.2893(5) 1.1346(2)
H26 H 0.7763 0.2942 1.1459
C16 C 0.6066(6) 0.2043(8) 1.1741(3)
O5 O 0.5514(5) 0.1087(5) 1.1631(2)
O6 O 0.6023(5) 0.2598(6) 1.2219(2)
C17 C 0.5177(10) 0.1875(12) 1.2610(4)
H27 H 0.5742 0.1361 1.2828
H28 H 0.4560 0.1346 1.2421
H29 H 0.4691 0.2459 1.2828
C18 C 0.6248(6) 0.4263(5) 1.1331(2)
H30 H 0.5289 0.4208 1.1282
H31 H 0.6407 0.4656 1.1672
C19 C 0.6809(6) 0.5115(5) 1.0907(3)
H32 H 0.6535 0.4780 1.0561
C20 C 0.8344(7) 0.5197(7) 1.0915(3)
H33 H 0.8715 0.4429 1.0776
H34 H 0.8645 0.5317 1.1272
H35 H 0.8630 0.5897 1.0701
C21 C 0.6228(9) 0.6459(7) 1.0965(4)
H36 H 0.6374 0.6923 1.0643
H37 H 0.6662 0.6884 1.1253
H38 H 0.5287 0.6406 1.1034
C22 C 0.6265(8) -0.0609(6) 0.7896(3)
H39 H 0.5681 -0.0920 0.8168
H40 H 0.7140 -0.0476 0.8042
H41 H 0.6316 -0.1216 0.7614
loop_
_geom_bond_atom_site_label_1
_geom_bond_atom_site_label_2
_geom_bond_site_symmetry_1
_geom_bond_site_symmetry_2
C1 O1 1_555 1_555
O1 C2 1_555 1_555
C2 O2 1_555 1_555
N1 C2 1_555 1_555
H1 N1 1_555 1_555
C3 N1 1_555 1_555
H2 C3 1_555 1_555
C4 C3 1_555 1_555
H3 C4 1_555 1_555
H4 C4 1_555 1_555
C5 C4 1_555 1_555
H5 C5 1_555 1_555
C6 C5 1_555 1_555
H6 C6 1_555 1_555
H7 C6 1_555 1_555
H8 C6 1_555 1_555
C7 C5 1_555 1_555
H9 C7 1_555 1_555
H10 C7 1_555 1_555
H11 C7 1_555 1_555
C8 C3 1_555 1_555
O3 C8 1_555 1_555
N2 C8 1_555 1_555
H12 N2 1_555 1_555
C9 N2 1_555 1_555
C10 C9 1_555 1_555
C11 C9 1_555 1_555
H13 C11 1_555 1_555
H14 C11 1_555 1_555
H15 C11 1_555 1_555
C12 C9 1_555 1_555
H16 C12 1_555 1_555
H17 C12 1_555 1_555
H18 C12 1_555 1_555
C13 C1 1_555 1_555
H19 C13 1_555 1_555
H20 C13 1_555 1_555
H21 C13 1_555 1_555
C14 C1 1_555 1_555
H22 C14 1_555 1_555
H23 C14 1_555 1_555
H24 C14 1_555 1_555
O4 C10 1_555 1_555
N3 C10 1_555 1_555
H25 N3 1_555 1_555
C15 N3 1_555 1_555
H26 C15 1_555 1_555
C16 C15 1_555 1_555
O5 C16 1_555 1_555
O6 C16 1_555 1_555
C17 O6 1_555 1_555
H27 C17 1_555 1_555
H28 C17 1_555 1_555
H29 C17 1_555 1_555
C18 C15 1_555 1_555
H30 C18 1_555 1_555
H31 C18 1_555 1_555
C19 C18 1_555 1_555
H32 C19 1_555 1_555
C20 C19 1_555 1_555
H33 C20 1_555 1_555
H34 C20 1_555 1_555
H35 C20 1_555 1_555
C21 C19 1_555 1_555
H36 C21 1_555 1_555
H37 C21 1_555 1_555
H38 C21 1_555 1_555
C22 C1 1_555 1_555
H39 C22 1_555 1_555
H40 C22 1_555 1_555
H41 C22 1_555 1_555

#END
