
#######################################################################
#
#                 Cambridge Crystallographic Data Centre
#                                CCDC 
#
#######################################################################
#
# If this CIF has been generated from an entry in the Cambridge 
# Structural Database, then it will include bibliographic, chemical, 
# crystal, experimental, refinement or atomic coordinate data resulting 
# from the CCDC's data processing and validation procedures.
#
#######################################################################

data_OKETUT
_chemical_formula_moiety         'C12 H14 N2 O3'
_chemical_name_systematic        
(1'S,2'S,5'R)-1-[5-(Hydroxymethyl)bicyclo[3.1.0]hex-3-en-2-yl]-5-methyl-1,3-dihydropyrimidine-2,4-dione
_chemical_properties_biological  'antiHIV activity'
_symmetry_cell_setting           orthorhombic
_symmetry_space_group_name_H-M   'P 21 21 21'
_symmetry_Int_Tables_number      19
_space_group_name_Hall           'P 2ac 2ab'
loop_
_symmetry_equiv_pos_site_id
_symmetry_equiv_pos_as_xyz
1 x,y,z
2 1/2-x,-y,1/2+z
3 -x,1/2+y,1/2-z
4 1/2+x,1/2-y,-z
_cell_length_a                   5.6026(1)
_cell_length_b                   8.0713(1)
_cell_length_c                   25.8961(4)
_cell_angle_alpha                90
_cell_angle_beta                 90
_cell_angle_gamma                90
_cell_volume                     1171.03
_exptl_crystal_colour            colorless
_exptl_crystal_description       plate
_chemical_melting_point          181-182deg.C
_cell_formula_units_Z            4
loop_
_atom_site_label
_atom_site_type_symbol
_atom_site_fract_x
_atom_site_fract_y
_atom_site_fract_z
N1 N 0.8183(3) 0.03808(19) 0.87842(5)
C1 C 0.9833(4) -0.0836(2) 0.88807(7)
O1 O 1.1245(3) -0.1353(2) 0.85635(6)
N2 N 0.9767(3) -0.1434(2) 0.93778(6)
H1 H 1.085(5) -0.207(3) 0.9459(10)
C2 C 0.8266(3) -0.0960(2) 0.97704(6)
O2 O 0.8512(3) -0.15960(17) 1.02029(5)
C3 C 0.6498(4) 0.0257(2) 0.96370(6)
C4 C 0.4750(4) 0.0819(3) 1.00335(7)
H2 H 0.3706 0.1634 0.9885
H3 H 0.5590 0.1296 1.0320
H4 H 0.3827 -0.0110 1.0150
C5 C 0.6574(4) 0.0875(2) 0.91532(6)
H5 H 0.5468 0.1685 0.9064
C6 C 0.8629(4) 0.3079(2) 0.83475(7)
H6 H 0.9463 0.3455 0.8659
C7 C 0.8197(4) 0.1244(2) 0.82767(7)
H7 H 0.9425 0.0767 0.8052
C8 C 0.5818(4) 0.1166(3) 0.80187(7)
H8 H 0.5123 0.0196 0.7897
C9 C 0.4827(4) 0.2636(3) 0.79845(7)
H9 H 0.3314 0.2813 0.7847
C10 C 0.6351(4) 0.3972(3) 0.81853(7)
C11 C 0.8623(4) 0.4187(3) 0.78796(8)
H10 H 0.8711 0.3664 0.7543
H11 H 0.9444 0.5242 0.7905
C12 C 0.5291(6) 0.5353(3) 0.84928(9)
H12 H 0.6536 0.6090 0.8615
H13 H 0.4190 0.5986 0.8282
O3 O 0.4065(4) 0.4628(2) 0.89186(7)
H14 H 0.365(7) 0.542(4) 0.9202(13)
loop_
_geom_bond_atom_site_label_1
_geom_bond_atom_site_label_2
_geom_bond_site_symmetry_1
_geom_bond_site_symmetry_2
N1 C1 1_555 1_555
C1 O1 1_555 1_555
N2 C1 1_555 1_555
H1 N2 1_555 1_555
C2 N2 1_555 1_555
O2 C2 1_555 1_555
C3 C2 1_555 1_555
C4 C3 1_555 1_555
H2 C4 1_555 1_555
H3 C4 1_555 1_555
H4 C4 1_555 1_555
C5 N1 1_555 1_555
H5 C5 1_555 1_555
C6 H6 1_555 1_555
C7 N1 1_555 1_555
H7 C7 1_555 1_555
C8 C7 1_555 1_555
H8 C8 1_555 1_555
C9 C8 1_555 1_555
H9 C9 1_555 1_555
C10 C6 1_555 1_555
C11 C6 1_555 1_555
H10 C11 1_555 1_555
H11 C11 1_555 1_555
C12 C10 1_555 1_555
H12 C12 1_555 1_555
H13 C12 1_555 1_555
O3 C12 1_555 1_555
H14 O3 1_555 1_555
C3 C5 1_555 1_555
C6 C7 1_555 1_555
C9 C10 1_555 1_555
C10 C11 1_555 1_555

#END
