
#######################################################################
#
#                 Cambridge Crystallographic Data Centre
#                                CCDC 
#
#######################################################################
#
# If this CIF has been generated from an entry in the Cambridge 
# Structural Database, then it will include bibliographic, chemical, 
# crystal, experimental, refinement or atomic coordinate data resulting 
# from the CCDC's data processing and validation procedures.
#
#######################################################################

data_OKEVIJ
_chemical_formula_moiety         'C50 H48 S2'
_chemical_name_systematic        
1^2^,1^5^-bis(9,9-Diethylfluoren-2-yl)-3,7-dithia[3.3]paracyclophane
_symmetry_cell_setting           monoclinic
_symmetry_space_group_name_H-M   'P 21/n'
_symmetry_Int_Tables_number      14
_space_group_name_Hall           '-P 2yn'
loop_
_symmetry_equiv_pos_site_id
_symmetry_equiv_pos_as_xyz
1 x,y,z
2 1/2+x,1/2-y,1/2+z
3 -x,-y,-z
4 1/2-x,1/2+y,1/2-z
_cell_length_a                   15.6343(17)
_cell_length_b                   8.7869(9)
_cell_length_c                   29.339(3)
_cell_angle_alpha                90
_cell_angle_beta                 96.958(3)
_cell_angle_gamma                90
_cell_volume                     4000.82
_exptl_crystal_colour            colorless
_exptl_crystal_description       'long rod'
_cell_formula_units_Z            4
loop_
_atom_site_label
_atom_site_type_symbol
_atom_site_fract_x
_atom_site_fract_y
_atom_site_fract_z
S1 S 0.76551(7) 0.99967(10) 0.11761(3)
S3 S 0.60719(7) 0.25627(11) 0.16990(4)
C1 C 0.7741(3) 0.6733(4) 0.20067(12)
H1 H 0.8338 0.6645 0.2032
C2 C 0.7250(3) 0.5455(4) 0.20642(12)
H2 H 0.7519 0.4521 0.2125
C3 C 0.6362(3) 0.5553(4) 0.20326(11)
C4 C 0.5992(3) 0.6977(4) 0.19759(12)
H3 H 0.5401 0.7083 0.1977
C5 C 0.6486(3) 0.8248(4) 0.19174(12)
H4 H 0.6222 0.9196 0.1880
C6 C 0.7366(3) 0.8135(4) 0.19130(11)
C7 C 0.7878(3) 0.9472(4) 0.17718(12)
H5 H 0.8487 0.9235 0.1838
H6 H 0.7764 1.0343 0.1958
C8 C 0.8018(2) 0.8355(3) 0.08825(12)
H7 H 0.8080 0.8649 0.0569
H8 H 0.8586 0.8079 0.1029
C9 C 0.7449(2) 0.6953(3) 0.08666(10)
C10 C 0.6562(2) 0.7121(3) 0.08133(11)
H9 H 0.6337 0.8088 0.0749
C11 C 0.5984(2) 0.5930(3) 0.08499(10)
C12 C 0.6330(2) 0.4495(3) 0.09685(10)
C13 C 0.7213(2) 0.4298(3) 0.09878(10)
H10 H 0.7436 0.3324 0.1041
C14 C 0.7784(2) 0.5474(3) 0.09323(10)
C15 C 0.5783(2) 0.3210(4) 0.11128(11)
H13 H 0.5827 0.2357 0.0907
H14 H 0.5186 0.3537 0.1078
C16 C 0.5790(3) 0.4176(4) 0.20385(14)
H17 H 0.5204 0.4478 0.1929
H18 H 0.5797 0.3845 0.2354
C17 C 0.8724(2) 0.5154(3) 0.09853(11)
C18 C 0.9256(2) 0.5660(4) 0.06673(11)
H19 H 0.9014 0.6196 0.0410
C19 C 1.0131(2) 0.5386(4) 0.07242(12)
H20 H 1.0473 0.5719 0.0506
C20 C 1.0494(2) 0.4610(4) 0.11110(12)
C21 C 0.9973(2) 0.4085(4) 0.14315(11)
C22 C 0.9099(2) 0.4331(4) 0.13645(11)
H21 H 0.8754 0.3945 0.1574
C23 C 1.0507(2) 0.3361(4) 0.18420(12)
C24 C 1.1416(2) 0.3553(4) 0.17117(12)
C25 C 1.1395(2) 0.4274(4) 0.12840(12)
C26 C 1.2154(2) 0.4598(4) 0.11045(14)
H22 H 1.2143 0.5054 0.0818
C27 C 1.2925(3) 0.4232(4) 0.13591(16)
H23 H 1.3439 0.4456 0.1243
C28 C 1.2953(3) 0.3546(5) 0.17797(16)
H24 H 1.3482 0.3324 0.1947
C29 C 1.2192(2) 0.3178(4) 0.19580(14)
H25 H 1.2209 0.2686 0.2240
C30 C 1.0333(3) 0.0678(5) 0.15010(18)
H26 H 0.9922 0.1004 0.1251
H27 H 1.0213 -0.0354 0.1580
H28 H 1.0903 0.0738 0.1412
C31 C 1.0275(3) 0.1681(5) 0.19058(15)
H29 H 1.0653 0.1278 0.2164
H30 H 0.9691 0.1632 0.1985
C32 C 1.0395(3) 0.4256(5) 0.22861(12)
H31 H 0.9802 0.4151 0.2348
H32 H 1.0758 0.3789 0.2540
C33 C 1.0608(3) 0.5915(6) 0.22761(16)
H33 H 1.1210 0.6038 0.2248
H34 H 1.0480 0.6386 0.2555
H35 H 1.0272 0.6386 0.2019
C34 C 0.5045(2) 0.6273(3) 0.07522(10)
C35 C 0.4504(2) 0.5362(4) 0.04549(10)
H36 H 0.4712 0.4441 0.0358
C36 C 0.3670(2) 0.5779(4) 0.03000(11)
H37 H 0.3323 0.5157 0.0098
C37 C 0.3357(2) 0.7152(3) 0.04515(10)
C38 C 0.3872(2) 0.8039(3) 0.07675(10)
C39 C 0.4709(2) 0.7618(3) 0.09138(11)
H38 H 0.5052 0.8229 0.1120
C40 C 0.3408(2) 0.9488(4) 0.08768(11)
C41 C 0.2556(2) 0.9303(4) 0.05727(11)
C42 C 0.2536(2) 0.7938(4) 0.03240(11)
C43 C 0.1843(2) 0.7578(4) 0.00101(12)
H39 H 0.1832 0.6671 -0.0154
C44 C 0.1160(3) 0.8586(5) -0.00587(15)
H40 H 0.0688 0.8359 -0.0272
C45 C 0.1174(3) 0.9920(5) 0.01862(16)
H41 H 0.0708 1.0585 0.0138
C46 C 0.1870(2) 1.0286(4) 0.05037(14)
H42 H 0.1874 1.1190 0.0669
C47 C 0.3897(2) 1.0901(4) 0.07401(13)
H43 H 0.3583 1.1803 0.0814
H44 H 0.4457 1.0930 0.0923
C48 C 0.4027(3) 1.0961(5) 0.02420(14)
H45 H 0.4296 1.0037 0.0159
H46 H 0.4388 1.1811 0.0190
H47 H 0.3479 1.1074 0.0059
C49 C 0.3288(3) 0.9621(4) 0.13901(13)
H48 H 0.3852 0.9701 0.1566
H49 H 0.2982 1.0561 0.1434
C50 C 0.2813(3) 0.8344(5) 0.15841(14)
H50 H 0.2272 0.8188 0.1397
H51 H 0.2711 0.8593 0.1892
H52 H 0.3151 0.7431 0.1588
S2? S 0.5168(6) 0.3494(15) 0.1567(3)
H11? H 0.6162 0.2351 0.1193
H12? H 0.5391 0.2911 0.0846
H15? H 0.5404 0.4376 0.2266
H16? H 0.6159 0.3343 0.2157
loop_
_geom_bond_atom_site_label_1
_geom_bond_atom_site_label_2
_geom_bond_site_symmetry_1
_geom_bond_site_symmetry_2
S1 C7 1_555 1_555
S3 C15 1_555 1_555
C1 H1 1_555 1_555
C2 C1 1_555 1_555
H2 C2 1_555 1_555
C3 C2 1_555 1_555
C4 C3 1_555 1_555
H3 C4 1_555 1_555
C5 C4 1_555 1_555
H4 C5 1_555 1_555
C6 C1 1_555 1_555
C7 C6 1_555 1_555
H5 C7 1_555 1_555
H6 C7 1_555 1_555
C8 S1 1_555 1_555
H7 C8 1_555 1_555
H8 C8 1_555 1_555
C9 C8 1_555 1_555
C10 C9 1_555 1_555
H9 C10 1_555 1_555
C11 C10 1_555 1_555
C12 C11 1_555 1_555
C13 C12 1_555 1_555
H10 C13 1_555 1_555
C14 C9 1_555 1_555
C15 C12 1_555 1_555
H13 C15 1_555 1_555
H14 C15 1_555 1_555
C16 S3 1_555 1_555
H17 C16 1_555 1_555
H18 C16 1_555 1_555
C17 C14 1_555 1_555
C18 C17 1_555 1_555
H19 C18 1_555 1_555
C19 C18 1_555 1_555
H20 C19 1_555 1_555
C20 C19 1_555 1_555
C21 C20 1_555 1_555
C22 C17 1_555 1_555
H21 C22 1_555 1_555
C23 C21 1_555 1_555
C24 C23 1_555 1_555
C25 C20 1_555 1_555
C26 C25 1_555 1_555
H22 C26 1_555 1_555
C27 C26 1_555 1_555
H23 C27 1_555 1_555
C28 C27 1_555 1_555
H24 C28 1_555 1_555
C29 C24 1_555 1_555
H25 C29 1_555 1_555
C30 H26 1_555 1_555
H27 C30 1_555 1_555
H28 C30 1_555 1_555
C31 C23 1_555 1_555
H29 C31 1_555 1_555
H30 C31 1_555 1_555
C32 C23 1_555 1_555
H31 C32 1_555 1_555
H32 C32 1_555 1_555
C33 C32 1_555 1_555
H33 C33 1_555 1_555
H34 C33 1_555 1_555
H35 C33 1_555 1_555
C34 C11 1_555 1_555
C35 C34 1_555 1_555
H36 C35 1_555 1_555
C36 C35 1_555 1_555
H37 C36 1_555 1_555
C37 C36 1_555 1_555
C38 C37 1_555 1_555
C39 C34 1_555 1_555
H38 C39 1_555 1_555
C40 C38 1_555 1_555
C41 C40 1_555 1_555
C42 C37 1_555 1_555
C43 C42 1_555 1_555
H39 C43 1_555 1_555
C44 C43 1_555 1_555
H40 C44 1_555 1_555
C45 C44 1_555 1_555
H41 C45 1_555 1_555
C46 C41 1_555 1_555
H42 C46 1_555 1_555
C47 C40 1_555 1_555
H43 C47 1_555 1_555
H44 C47 1_555 1_555
C48 C47 1_555 1_555
H45 C48 1_555 1_555
H46 C48 1_555 1_555
H47 C48 1_555 1_555
C49 C40 1_555 1_555
H48 C49 1_555 1_555
H49 C49 1_555 1_555
C50 C49 1_555 1_555
H50 C50 1_555 1_555
H51 C50 1_555 1_555
H52 C50 1_555 1_555
C3 C16 1_555 1_555
C5 C6 1_555 1_555
C13 C14 1_555 1_555
C21 C22 1_555 1_555
C24 C25 1_555 1_555
C28 C29 1_555 1_555
C30 C31 1_555 1_555
C38 C39 1_555 1_555
C41 C42 1_555 1_555
C45 C46 1_555 1_555

#END
