
#######################################################################
#
#                 Cambridge Crystallographic Data Centre
#                                CCDC 
#
#######################################################################
#
# If this CIF has been generated from an entry in the Cambridge 
# Structural Database, then it will include bibliographic, chemical, 
# crystal, experimental, refinement or atomic coordinate data resulting 
# from the CCDC's data processing and validation procedures.
#
#######################################################################

data_OKICIU
_chemical_compound_source        'whole plant of Euphorbia altotibetic'
_chemical_name_common            'Altotibetin A'
_chemical_formula_moiety         'C37 H46 O13'
_chemical_name_systematic        
'(2S,3S,3aR,4R,6S,7S,8S,10E,12S,13aR)-3,6,7,8,13a-Penta-acetoxy-2,3,3a,4,5,6,7,8,9,12,13,13a-dodecahydro-2,9,9,12-tetramethyl-5-methylidene-13-oxo-1H-cyclopentacyclododec-10-en-4-yl benzoate'
_chemical_properties_biological  
'plant is traditional Tibetan herb and folk medicine for curing skin tinea and tumefaction'
_symmetry_cell_setting           orthorhombic
_symmetry_space_group_name_H-M   'P 21 21 21'
_symmetry_Int_Tables_number      19
_space_group_name_Hall           'P 2ac 2ab'
loop_
_symmetry_equiv_pos_site_id
_symmetry_equiv_pos_as_xyz
1 x,y,z
2 1/2-x,-y,1/2+z
3 -x,1/2+y,1/2-z
4 1/2+x,1/2-y,-z
_cell_length_a                   12.093(3)
_cell_length_b                   16.457(6)
_cell_length_c                   18.914(4)
_cell_angle_alpha                90
_cell_angle_beta                 90
_cell_angle_gamma                90
_cell_volume                     3764.16
_exptl_crystal_colour            colorless
_chemical_melting_point          192-196deg.C
_cell_formula_units_Z            4
_exptl_crystal_recrystallization_method ethanol
loop_
_atom_site_label
_atom_site_type_symbol
_atom_site_fract_x
_atom_site_fract_y
_atom_site_fract_z
O1 O 0.3756(2) 0.59598(15) 0.10756(13)
O2 O 0.4578(3) 0.6176(3) 0.00485(16)
O3 O 0.47788(19) 0.43633(13) 0.10843(11)
O4 O 0.4930(3) 0.31320(15) 0.15951(15)
O5 O 0.8261(2) 0.56957(15) 0.08814(13)
O6 O 0.7336(3) 0.6860(2) 0.1029(3)
O7 O 0.89602(19) 0.42685(14) 0.13403(11)
O8 O 0.8587(5) 0.31399(19) 0.19144(18)
O9 O 0.9334(2) 0.59969(19) 0.21335(14)
O10 O 1.0997(3) 0.5708(3) 0.1698(3)
O11 O 0.4720(2) 0.43030(16) 0.33389(14)
O12 O 0.35127(19) 0.47305(15) 0.22557(12)
O13 O 0.2447(2) 0.49036(18) 0.32204(16)
C1 C 0.3756(3) 0.6190(2) 0.25816(17)
H1 H 0.2972 0.6168 0.2477
H2 H 0.3849 0.6384 0.3062
C2 C 0.4347(3) 0.6760(2) 0.20610(18)
H3 H 0.5013 0.6963 0.2298
C3 C 0.4726(3) 0.6180(2) 0.14766(18)
H4 H 0.5302 0.6420 0.1178
C4 C 0.5155(3) 0.54606(19) 0.19032(16)
H5 H 0.5796 0.5683 0.2154
C5 C 0.5615(3) 0.4704(2) 0.15372(17)
H6 H 0.5822 0.4302 0.1896
C6 C 0.6624(3) 0.48948(19) 0.10780(18)
C7 C 0.7604(3) 0.5318(2) 0.14250(18)
H7 H 0.7325 0.5741 0.1743
C8 C 0.8342(3) 0.4750(2) 0.18436(17)
H8 H 0.7872 0.4385 0.2122
C9 C 0.9171(3) 0.5166(3) 0.23478(18)
H9 H 0.9881 0.4883 0.2309
C10 C 0.8823(3) 0.5170(3) 0.3136(2)
C11 C 0.7676(3) 0.5527(2) 0.32152(18)
H10 H 0.7583 0.6059 0.3060
C12 C 0.6798(3) 0.5170(2) 0.34783(17)
H11 H 0.6882 0.4638 0.3635
C13 C 0.5665(3) 0.5542(2) 0.35496(17)
H12 H 0.5662 0.6086 0.3339
C14 C 0.4864(3) 0.4998(2) 0.31579(19)
C15 C 0.4285(3) 0.5335(2) 0.24962(17)
C16 C 0.3681(4) 0.7484(2) 0.1844(2)
H13 H 0.4134 0.7845 0.1572
H14 H 0.3418 0.7761 0.2258
H15 H 0.3063 0.7310 0.1564
C17 C 0.6669(3) 0.4689(3) 0.04135(19)
H16 H 0.7301 0.4800 0.0150
H17 H 0.6070 0.4431 0.0203
C18 C 0.9657(3) 0.5695(3) 0.3544(2)
H18 H 0.9598 0.6249 0.3389
H19 H 1.0392 0.5500 0.3456
H20 H 0.9501 0.5664 0.4041
C19 C 0.8889(3) 0.4306(3) 0.3418(2)
H21 H 0.8706 0.4303 0.3912
H22 H 0.9625 0.4100 0.3355
H23 H 0.8376 0.3968 0.3165
C20 C 0.5315(3) 0.5594(3) 0.43272(18)
H24 H 0.4591 0.5831 0.4358
H25 H 0.5833 0.5925 0.4582
H26 H 0.5301 0.5058 0.4528
C21 C 0.3762(5) 0.6016(3) 0.0372(2)
C22 C 0.2653(4) 0.5872(3) 0.0062(2)
H27 H 0.2240 0.6370 0.0062
H28 H 0.2269 0.5471 0.0337
H29 H 0.2733 0.5680 -0.0415
C23 C 0.4532(3) 0.3573(2) 0.1162(2)
C24 C 0.3692(3) 0.3312(2) 0.06321(18)
C25 C 0.3472(3) 0.3760(2) 0.0026(2)
H30 H 0.3826 0.4255 -0.0046
C26 C 0.2735(3) 0.3478(3) -0.0469(2)
H31 H 0.2604 0.3773 -0.0880
C27 C 0.2196(4) 0.2763(3) -0.0354(3)
H32 H 0.1694 0.2570 -0.0686
C28 C 0.2393(4) 0.2327(3) 0.0251(3)
H33 H 0.2004 0.1849 0.0332
C29 C 0.3150(3) 0.2586(2) 0.0735(2)
H34 H 0.3300 0.2273 0.1134
C30 C 0.7996(5) 0.6472(3) 0.0714(3)
C31 C 0.8669(6) 0.6736(3) 0.0088(3)
H35 H 0.8214 0.6731 -0.0328
H36 H 0.9280 0.6371 0.0025
H37 H 0.8943 0.7276 0.0167
C32 C 0.9060(4) 0.3474(3) 0.1462(2)
C33 C 0.9837(4) 0.3093(2) 0.0957(2)
H38 H 0.9988 0.2545 0.1103
H39 H 1.0514 0.3397 0.0947
H40 H 0.9514 0.3089 0.0494
C34 C 1.0306(4) 0.6185(4) 0.1815(3)
C35 C 1.0385(5) 0.7083(4) 0.1683(3)
H41 H 1.0736 0.7341 0.2079
H42 H 0.9656 0.7303 0.1621
H43 H 1.0814 0.7178 0.1264
C36 C 0.2672(3) 0.4540(3) 0.2701(2)
C37 C 0.2092(4) 0.3806(3) 0.2434(3)
H44 H 0.1563 0.3627 0.2779
H45 H 0.2621 0.3382 0.2350
H46 H 0.1718 0.3935 0.2001
loop_
_geom_bond_atom_site_label_1
_geom_bond_atom_site_label_2
_geom_bond_site_symmetry_1
_geom_bond_site_symmetry_2
O1 C3 1_555 1_555
O2 C21 1_555 1_555
O3 C5 1_555 1_555
O4 C23 1_555 1_555
O5 C7 1_555 1_555
O6 C30 1_555 1_555
O7 C8 1_555 1_555
O8 C32 1_555 1_555
O9 C9 1_555 1_555
O10 C34 1_555 1_555
O11 C14 1_555 1_555
O12 C15 1_555 1_555
O13 C36 1_555 1_555
C1 H1 1_555 1_555
H2 C1 1_555 1_555
C2 C1 1_555 1_555
H3 C2 1_555 1_555
C3 C2 1_555 1_555
H4 C3 1_555 1_555
C4 C3 1_555 1_555
H5 C4 1_555 1_555
C5 C4 1_555 1_555
H6 C5 1_555 1_555
C6 C5 1_555 1_555
C7 C6 1_555 1_555
H7 C7 1_555 1_555
C8 C7 1_555 1_555
H8 C8 1_555 1_555
C9 C8 1_555 1_555
H9 C9 1_555 1_555
C10 C9 1_555 1_555
C11 C10 1_555 1_555
H10 C11 1_555 1_555
C12 C11 1_555 1_555
H11 C12 1_555 1_555
C13 C12 1_555 1_555
H12 C13 1_555 1_555
C14 C13 1_555 1_555
C15 C1 1_555 1_555
C16 C2 1_555 1_555
H13 C16 1_555 1_555
H14 C16 1_555 1_555
H15 C16 1_555 1_555
C17 C6 1_555 1_555
H16 C17 1_555 1_555
H17 C17 1_555 1_555
C18 C10 1_555 1_555
H18 C18 1_555 1_555
H19 C18 1_555 1_555
H20 C18 1_555 1_555
C19 C10 1_555 1_555
H21 C19 1_555 1_555
H22 C19 1_555 1_555
H23 C19 1_555 1_555
C20 C13 1_555 1_555
H24 C20 1_555 1_555
H25 C20 1_555 1_555
H26 C20 1_555 1_555
C21 O1 1_555 1_555
C22 C21 1_555 1_555
H27 C22 1_555 1_555
H28 C22 1_555 1_555
H29 C22 1_555 1_555
C23 O3 1_555 1_555
C24 C23 1_555 1_555
C25 C24 1_555 1_555
H30 C25 1_555 1_555
C26 C25 1_555 1_555
H31 C26 1_555 1_555
C27 C26 1_555 1_555
H32 C27 1_555 1_555
C28 C27 1_555 1_555
H33 C28 1_555 1_555
C29 C24 1_555 1_555
H34 C29 1_555 1_555
C30 O5 1_555 1_555
C31 C30 1_555 1_555
H35 C31 1_555 1_555
H36 C31 1_555 1_555
H37 C31 1_555 1_555
C32 O7 1_555 1_555
C33 C32 1_555 1_555
H38 C33 1_555 1_555
H39 C33 1_555 1_555
H40 C33 1_555 1_555
C34 O9 1_555 1_555
C35 C34 1_555 1_555
H41 C35 1_555 1_555
H42 C35 1_555 1_555
H43 C35 1_555 1_555
C36 O12 1_555 1_555
C37 C36 1_555 1_555
H44 C37 1_555 1_555
H45 C37 1_555 1_555
H46 C37 1_555 1_555
C4 C15 1_555 1_555
C14 C15 1_555 1_555
C28 C29 1_555 1_555

#END
