
#######################################################################
#
#                 Cambridge Crystallographic Data Centre
#                                CCDC 
#
#######################################################################
#
# If this CIF has been generated from an entry in the Cambridge 
# Structural Database, then it will include bibliographic, chemical, 
# crystal, experimental, refinement or atomic coordinate data resulting 
# from the CCDC's data processing and validation procedures.
#
#######################################################################

data_OKICOA
_chemical_compound_source        'whole plant of Euphorbia altotibetic'
_chemical_name_common            'Altotibetin B'
_chemical_formula_moiety         'C39 H50 O13'
_chemical_name_systematic        
'(2S,3S,3aR,4R,4R,6S,7S,8S,10E,12S,13aR)-3,7,8,13a-Tetra-acetoxy-6-butanoyloxy-2,3,3a,4,5,6,7,8,9,12,13,13a-dodecahydro-2,9,9,12-tetramethyl-5-methylidene-13-oxo-1H-cyclopentacyclododec-10-en-4-yl benzoate'
_chemical_properties_biological  
'plant is traditional Tibetan herb and folk medicine for curing skin tinea and tumefaction'
_symmetry_cell_setting           orthorhombic
_symmetry_space_group_name_H-M   'P 21 21 21'
_symmetry_Int_Tables_number      19
_space_group_name_Hall           'P 2ac 2ab'
loop_
_symmetry_equiv_pos_site_id
_symmetry_equiv_pos_as_xyz
1 x,y,z
2 1/2-x,-y,1/2+z
3 -x,1/2+y,1/2-z
4 1/2+x,1/2-y,-z
_cell_length_a                   12.317(3)
_cell_length_b                   16.708(4)
_cell_length_c                   19.189(4)
_cell_angle_alpha                90
_cell_angle_beta                 90
_cell_angle_gamma                90
_cell_volume                     3948.95
_chemical_melting_point          189-191deg.C
_cell_formula_units_Z            4
_exptl_crystal_recrystallization_method ethanol
loop_
_atom_site_label
_atom_site_type_symbol
_atom_site_fract_x
_atom_site_fract_y
_atom_site_fract_z
O1 O 0.3672(3) 0.5676(2) 0.12741(19)
O2 O 0.4414(5) 0.5916(4) 0.0245(2)
O3 O 0.4828(2) 0.41721(19) 0.11890(15)
O4 O 0.5068(4) 0.2928(2) 0.1613(3)
O5 O 0.8109(3) 0.5673(2) 0.12001(18)
O6 O 0.8980(3) 0.4204(2) 0.13435(16)
O7 O 0.9112(5) 0.3021(3) 0.1850(3)
O8 O 0.9401(3) 0.5640(2) 0.23479(19)
O9 O 1.0995(4) 0.5325(3) 0.1886(3)
O10 O 0.4749(3) 0.3985(3) 0.3401(2)
O11 O 0.3531(3) 0.44766(19) 0.23700(16)
O12 O 0.2509(3) 0.4567(3) 0.3337(2)
C1 C 0.3764(4) 0.5885(3) 0.2764(3)
H1 H 0.2986 0.5860 0.2690
H2 H 0.3901 0.6055 0.3239
C2 C 0.4295(4) 0.6468(3) 0.2242(3)
H3 H 0.4951 0.6685 0.2460
C3 C 0.4646(4) 0.5925(3) 0.1646(3)
H4 H 0.5179 0.6180 0.1340
C4 C 0.5124(4) 0.5216(3) 0.2051(2)
H5 H 0.5740 0.5451 0.2301
C5 C 0.5624(4) 0.4505(3) 0.1667(2)
H6 H 0.5828 0.4094 0.2008
C6 C 0.6623(4) 0.4742(3) 0.1248(3)
C7 C 0.7560(4) 0.5101(3) 0.1649(3)
H7 H 0.7258 0.5396 0.2045
C8 C 0.8352(4) 0.4500(3) 0.1928(2)
H8 H 0.7942 0.4051 0.2125
C9 C 0.9151(4) 0.4808(3) 0.2490(3)
H9 H 0.9825 0.4501 0.2448
C10 C 0.8765(5) 0.4750(4) 0.3253(3)
C11 C 0.7667(5) 0.5134(4) 0.3357(3)
H10 H 0.7612 0.5675 0.3249
C12 C 0.6781(4) 0.4782(4) 0.3585(2)
H11 H 0.6830 0.4244 0.3705
C13 C 0.5687(4) 0.5185(4) 0.3667(3)
H12 H 0.5714 0.5729 0.3477
C14 C 0.4865(4) 0.4681(4) 0.3260(3)
C15 C 0.4292(4) 0.5057(3) 0.2624(3)
C16 C 0.3584(5) 0.7172(3) 0.2024(3)
H13 H 0.3969 0.7496 0.1693
H14 H 0.3407 0.7488 0.2426
H15 H 0.2928 0.6975 0.1815
C17 C 0.6671(4) 0.4648(3) 0.0575(2)
H16 H 0.7290 0.4802 0.0333
H17 H 0.6086 0.4426 0.0337
C18 C 0.9601(5) 0.5181(4) 0.3715(3)
H18 H 0.9547 0.5748 0.3644
H19 H 1.0318 0.5004 0.3595
H20 H 0.9459 0.5059 0.4196
C19 C 0.8784(5) 0.3865(4) 0.3460(3)
H21 H 0.8522 0.3808 0.3929
H22 H 0.9515 0.3667 0.3432
H23 H 0.8328 0.3565 0.3149
C20 C 0.5336(5) 0.5208(4) 0.4439(2)
H24 H 0.4622 0.5436 0.4473
H25 H 0.5839 0.5529 0.4700
H26 H 0.5327 0.4674 0.4623
C21 C 0.3633(6) 0.5713(4) 0.0577(4)
C22 C 0.2560(5) 0.5488(4) 0.0304(3)
H27 H 0.2021 0.5848 0.0485
H28 H 0.2391 0.4951 0.0446
H29 H 0.2567 0.5519 -0.0195
C23 C 0.4644(5) 0.3371(3) 0.1219(3)
C24 C 0.3857(5) 0.3139(3) 0.0670(3)
C25 C 0.3678(5) 0.3574(4) 0.0077(3)
H30 H 0.4054 0.4050 0.0008
C26 C 0.2941(6) 0.3316(5) -0.0427(4)
H31 H 0.2825 0.3618 -0.0827
C27 C 0.2383(6) 0.2604(6) -0.0326(5)
H32 H 0.1903 0.2419 -0.0664
C28 C 0.2541(7) 0.2172(5) 0.0277(5)
H33 H 0.2145 0.1706 0.0353
C29 C 0.3283(5) 0.2425(3) 0.0766(4)
H34 H 0.3403 0.2119 0.1163
C30 C 0.9362(6) 0.3455(4) 0.1392(3)
C31 C 1.0120(5) 0.3250(4) 0.0821(3)
H35 H 0.9722 0.3192 0.0393
H36 H 1.0481 0.2756 0.0928
H37 H 1.0648 0.3668 0.0770
C32 C 1.0354(6) 0.5805(5) 0.2060(4)
C33 C 1.0482(6) 0.6692(4) 0.1977(4)
H38 H 0.9782 0.6932 0.1905
H39 H 1.0938 0.6802 0.1583
H40 H 1.0807 0.6912 0.2389
C34 C 0.2716(5) 0.4250(4) 0.2792(3)
C35 C 0.2125(5) 0.3553(3) 0.2486(3)
H41 H 0.1468 0.3461 0.2744
H42 H 0.2577 0.3086 0.2510
H43 H 0.1950 0.3665 0.2009
C36 C 0.7788(5) 0.6449(4) 0.1284(4)
O13 O 0.7189(4) 0.6657(2) 0.1737(3)
C37 C 0.8317(14) 0.7012(8) 0.0760(7)
H44 H 0.8392 0.7542 0.0962
H45 H 0.9034 0.6818 0.0639
C38 C 0.7608(16) 0.7053(10) 0.0113(8)
H46 H 0.8012 0.7326 -0.0251
H47 H 0.7472 0.6512 -0.0047
C39 C 0.6524(16) 0.7473(16) 0.0202(8)
H48 H 0.6005 0.7106 0.0393
H49 H 0.6274 0.7660 -0.0243
H50 H 0.6609 0.7920 0.0512
C40? C 0.830(4) 0.681(2) 0.0634(17)
H51? H 0.9087 0.6825 0.0688
H52? H 0.8137 0.6475 0.0232
C41? C 0.786(3) 0.765(2) 0.0526(18)
H53? H 0.8066 0.7996 0.0907
H54? H 0.8116 0.7872 0.0091
C42? C 0.664(3) 0.752(4) 0.051(2)
H55? H 0.6488 0.6952 0.0484
H56? H 0.6337 0.7780 0.0111
H57? H 0.6321 0.7731 0.0926
loop_
_geom_bond_atom_site_label_1
_geom_bond_atom_site_label_2
_geom_bond_site_symmetry_1
_geom_bond_site_symmetry_2
O1 C3 1_555 1_555
O2 C21 1_555 1_555
O3 C5 1_555 1_555
O4 C23 1_555 1_555
O5 C7 1_555 1_555
O6 C8 1_555 1_555
O7 C30 1_555 1_555
O8 C9 1_555 1_555
O9 C32 1_555 1_555
O10 C14 1_555 1_555
O11 C15 1_555 1_555
O12 C34 1_555 1_555
C1 H1 1_555 1_555
H2 C1 1_555 1_555
C2 C1 1_555 1_555
H3 C2 1_555 1_555
C3 C2 1_555 1_555
H4 C3 1_555 1_555
C4 C3 1_555 1_555
H5 C4 1_555 1_555
C5 C4 1_555 1_555
H6 C5 1_555 1_555
C6 C5 1_555 1_555
C7 C6 1_555 1_555
H7 C7 1_555 1_555
C8 C7 1_555 1_555
H8 C8 1_555 1_555
C9 C8 1_555 1_555
H9 C9 1_555 1_555
C10 C9 1_555 1_555
C11 C10 1_555 1_555
H10 C11 1_555 1_555
C12 C11 1_555 1_555
H11 C12 1_555 1_555
C13 C12 1_555 1_555
H12 C13 1_555 1_555
C14 C13 1_555 1_555
C15 C1 1_555 1_555
C16 C2 1_555 1_555
H13 C16 1_555 1_555
H14 C16 1_555 1_555
H15 C16 1_555 1_555
C17 C6 1_555 1_555
H16 C17 1_555 1_555
H17 C17 1_555 1_555
C18 C10 1_555 1_555
H18 C18 1_555 1_555
H19 C18 1_555 1_555
H20 C18 1_555 1_555
C19 C10 1_555 1_555
H21 C19 1_555 1_555
H22 C19 1_555 1_555
H23 C19 1_555 1_555
C20 C13 1_555 1_555
H24 C20 1_555 1_555
H25 C20 1_555 1_555
H26 C20 1_555 1_555
C21 O1 1_555 1_555
C22 C21 1_555 1_555
H27 C22 1_555 1_555
H28 C22 1_555 1_555
H29 C22 1_555 1_555
C23 O3 1_555 1_555
C24 C23 1_555 1_555
C25 C24 1_555 1_555
H30 C25 1_555 1_555
C26 C25 1_555 1_555
H31 C26 1_555 1_555
C27 C26 1_555 1_555
H32 C27 1_555 1_555
C28 C27 1_555 1_555
H33 C28 1_555 1_555
C29 C24 1_555 1_555
H34 C29 1_555 1_555
C30 O6 1_555 1_555
C31 C30 1_555 1_555
H35 C31 1_555 1_555
H36 C31 1_555 1_555
H37 C31 1_555 1_555
C32 O8 1_555 1_555
C33 C32 1_555 1_555
H38 C33 1_555 1_555
H39 C33 1_555 1_555
H40 C33 1_555 1_555
C34 O11 1_555 1_555
C35 C34 1_555 1_555
H41 C35 1_555 1_555
H42 C35 1_555 1_555
H43 C35 1_555 1_555
C36 O5 1_555 1_555
O13 C36 1_555 1_555
C37 C36 1_555 1_555
H44 C37 1_555 1_555
H45 C37 1_555 1_555
C38 C37 1_555 1_555
H46 C38 1_555 1_555
H47 C38 1_555 1_555
C39 C38 1_555 1_555
H48 C39 1_555 1_555
H49 C39 1_555 1_555
H50 C39 1_555 1_555
C4 C15 1_555 1_555
C14 C15 1_555 1_555
C28 C29 1_555 1_555

#END
