
#######################################################################
#
#                 Cambridge Crystallographic Data Centre
#                                CCDC 
#
#######################################################################
#
# If this CIF has been generated from an entry in the Cambridge 
# Structural Database, then it will include bibliographic, chemical, 
# crystal, experimental, refinement or atomic coordinate data resulting 
# from the CCDC's data processing and validation procedures.
#
#######################################################################

data_OKIFAP
_chemical_formula_moiety         'C18 H24 O1 S1'
_chemical_name_systematic        
(1R,2S,4R,4'R)-4'-Phenyl-1,7,7-trimethylspiro(bicyclo(2.2.1)heptane-2,2'-(1,3)oxathiolane)
_symmetry_cell_setting           orthorhombic
_symmetry_space_group_name_H-M   'P 21 21 21'
_symmetry_Int_Tables_number      19
_space_group_name_Hall           'P 2ac 2ab'
loop_
_symmetry_equiv_pos_site_id
_symmetry_equiv_pos_as_xyz
1 x,y,z
2 1/2-x,-y,1/2+z
3 1/2+x,1/2-y,-z
4 -x,1/2+y,1/2-z
_cell_length_a                   7.4031(1)
_cell_length_b                   10.0944(1)
_cell_length_c                   20.6428(3)
_cell_angle_alpha                90
_cell_angle_beta                 90
_cell_angle_gamma                90
_cell_volume                     1542.63
_exptl_crystal_colour            colorless
_exptl_crystal_description       needle
_chemical_melting_point          '352.5 K'
_cell_formula_units_Z            4
_exptl_crystal_recrystallization_method 'diethyl ether/methanol'
loop_
_atom_site_label
_atom_site_type_symbol
_atom_site_fract_x
_atom_site_fract_y
_atom_site_fract_z
S1 S 0.52624(4) 0.27096(3) 0.68681(1)
O1 O 0.6139(1) 0.27571(9) 0.56547(4)
C1 C 0.5131(2) 0.3596(1) 0.60761(6)
C2 C 0.5588(2) 0.1430(1) 0.57637(6)
C3 C 0.5780(2) 0.1124(1) 0.64890(6)
C4 C 0.5932(2) 0.5006(1) 0.61016(6)
C5 C 0.3160(2) 0.3822(1) 0.58354(6)
C6 C 0.3045(2) 0.5326(1) 0.57742(6)
C7 C 0.3023(2) 0.5893(1) 0.64638(7)
C8 C 0.5000(2) 0.5692(1) 0.66837(6)
C9 C 0.4939(2) 0.5715(1) 0.55262(6)
C10 C 0.7969(2) 0.5063(1) 0.61157(7)
C11 C 0.5400(2) 0.5175(1) 0.48502(6)
C12 C 0.5258(2) 0.7214(1) 0.55039(7)
C13 C 0.7584(2) 0.0560(1) 0.66834(5)
C14 C 0.7714(2) -0.0758(1) 0.68580(7)
C15 C 0.9360(2) -0.1326(1) 0.70177(6)
C16 C 1.0897(2) -0.0563(1) 0.70163(6)
C17 C 1.0795(2) 0.0754(1) 0.68479(7)
C18 C 0.9158(2) 0.1317(1) 0.66821(6)
H1 H 0.487 0.051 0.661
H2 H 0.208 0.563 0.551
H3 H 0.665 -0.129 0.687
H4 H 0.943 -0.224 0.713
H5 H 1.203 -0.094 0.713
H6 H 1.186 0.128 0.685
H7 H 0.911 0.223 0.657
H8 H 0.436 0.132 0.564
H9 H 0.633 0.084 0.552
H10 H 0.231 0.350 0.614
H11 H 0.296 0.340 0.543
H12 H 0.271 0.680 0.646
H13 H 0.221 0.542 0.673
H14 H 0.505 0.515 0.706
H15 H 0.556 0.652 0.677
H16 H 0.835 0.596 0.610
H17 H 0.840 0.466 0.650
H18 H 0.844 0.461 0.575
H19 H 0.522 0.424 0.484
H20 H 0.663 0.537 0.475
H21 H 0.464 0.558 0.454
H22 H 0.458 0.759 0.516
H23 H 0.651 0.738 0.544
H24 H 0.488 0.760 0.590
loop_
_geom_bond_atom_site_label_1
_geom_bond_atom_site_label_2
_geom_bond_site_symmetry_1
_geom_bond_site_symmetry_2
S1 C1 1_555 1_555
O1 C1 1_555 1_555
C1 C4 1_555 1_555
C2 O1 1_555 1_555
C3 S1 1_555 1_555
C4 C8 1_555 1_555
C5 C1 1_555 1_555
C6 C5 1_555 1_555
C7 C6 1_555 1_555
C8 C7 1_555 1_555
C9 C4 1_555 1_555
C10 C4 1_555 1_555
C11 C9 1_555 1_555
C12 C9 1_555 1_555
C13 C3 1_555 1_555
C14 C13 1_555 1_555
C15 C14 1_555 1_555
C16 C15 1_555 1_555
C17 C16 1_555 1_555
C18 C13 1_555 1_555
H1 C3 1_555 1_555
H2 C6 1_555 1_555
H3 C14 1_555 1_555
H4 C15 1_555 1_555
H5 C16 1_555 1_555
H6 C17 1_555 1_555
H7 C18 1_555 1_555
H8 C2 1_555 1_555
H9 C2 1_555 1_555
H10 C5 1_555 1_555
H11 C5 1_555 1_555
H12 C7 1_555 1_555
H13 C7 1_555 1_555
H14 C8 1_555 1_555
H15 C8 1_555 1_555
H16 C10 1_555 1_555
H17 C10 1_555 1_555
H18 C10 1_555 1_555
H19 C11 1_555 1_555
H20 C11 1_555 1_555
H21 C11 1_555 1_555
H22 C12 1_555 1_555
H23 C12 1_555 1_555
H24 C12 1_555 1_555
C2 C3 1_555 1_555
C6 C9 1_555 1_555
C17 C18 1_555 1_555

#END
