
#######################################################################
#
#                 Cambridge Crystallographic Data Centre
#                                CCDC 
#
#######################################################################
#
# If this CIF has been generated from an entry in the Cambridge 
# Structural Database, then it will include bibliographic, chemical, 
# crystal, experimental, refinement or atomic coordinate data resulting 
# from the CCDC's data processing and validation procedures.
#
#######################################################################

data_OKIFOF
_chemical_formula_moiety         'C20 H13 Br2 N1 O3'
_chemical_name_systematic        
8-bromo-1-(2-(4-bromophenyl)vinyl)-2-nitro-1,2-dihydronaphtho[2,1-b]furan
_symmetry_cell_setting           monoclinic
_symmetry_space_group_name_H-M   'P 21'
_symmetry_Int_Tables_number      4
_space_group_name_Hall           'P 2yb'
loop_
_symmetry_equiv_pos_site_id
_symmetry_equiv_pos_as_xyz
1 x,y,z
2 -x,1/2+y,-z
_cell_length_a                   9.4796(15)
_cell_length_b                   7.1550(12)
_cell_length_c                   13.651(2)
_cell_angle_alpha                90
_cell_angle_beta                 90.968(4)
_cell_angle_gamma                90
_cell_volume                     925.768
_exptl_crystal_colour            colorless
_exptl_crystal_description       prismatic
_cell_formula_units_Z            2
loop_
_atom_site_label
_atom_site_type_symbol
_atom_site_fract_x
_atom_site_fract_y
_atom_site_fract_z
Br1 Br 0.34554(7) 0.79114(10) 0.40480(6)
Br2 Br 0.15172(9) 0.04620(14) 0.97004(6)
N1 N 0.8641(6) 1.1062(9) 0.8084(5)
O1 O 0.9655(4) 0.8187(7) 0.7633(4)
O2 O 0.7964(6) 1.1871(10) 0.8702(5)
O3 O 0.9374(6) 1.1853(8) 0.7504(5)
C1 C 0.7710(8) 0.6837(11) 0.3851(6)
H1 H 0.8322 0.6469 0.3362
C2 C 0.6321(8) 0.7072(11) 0.3625(6)
H2 H 0.5983 0.6878 0.2990
C3 C 0.5398(7) 0.7617(10) 0.4377(5)
C4 C 0.5847(6) 0.7928(11) 0.5314(5)
H3 H 0.5215 0.8284 0.5793
C5 C 0.7298(6) 0.7699(10) 0.5543(5)
C6 C 0.8249(7) 0.7137(10) 0.4806(5)
C7 C 0.9695(8) 0.6893(11) 0.5051(6)
H4 H 1.0307 0.6499 0.4567
C8 C 1.0220(7) 0.7214(11) 0.5972(6)
H5 H 1.1172 0.7060 0.6126
C9 C 0.9269(6) 0.7780(11) 0.6662(5)
C10 C 0.7863(6) 0.8018(10) 0.6493(4)
C11 C 0.8482(7) 0.8968(10) 0.8071(5)
H6 H 0.8380 0.8485 0.8738
C12 C 0.7149(6) 0.8505(9) 0.7436(5)
H7 H 0.6551 0.9613 0.7352
C13 C 0.6332(7) 0.6920(10) 0.7872(5)
H8 H 0.6821 0.5818 0.8000
C14 C 0.4995(7) 0.6957(10) 0.8085(5)
H9 H 0.4525 0.8081 0.7975
C15 C 0.4160(6) 0.5434(11) 0.8476(4)
C16 C 0.2702(6) 0.5486(12) 0.8480(5)
H10 H 0.2250 0.6550 0.8241
C17 C 0.1888(7) 0.4044(11) 0.8820(6)
H11 H 0.0909 0.4115 0.8804
C18 C 0.2568(7) 0.2504(11) 0.9182(5)
C19 C 0.4018(7) 0.2356(10) 0.9217(5)
H12 H 0.4455 0.1295 0.9472
C20 C 0.4800(7) 0.3820(11) 0.8865(5)
H13 H 0.5779 0.3740 0.8886
loop_
_geom_bond_atom_site_label_1
_geom_bond_atom_site_label_2
_geom_bond_site_symmetry_1
_geom_bond_site_symmetry_2
Br1 C3 1_555 1_555
Br2 C18 1_555 1_555
N1 O2 1_555 1_555
O1 C9 1_555 1_555
O3 N1 1_555 1_555
C1 H1 1_555 1_555
C2 C1 1_555 1_555
H2 C2 1_555 1_555
C3 C2 1_555 1_555
C4 C3 1_555 1_555
H3 C4 1_555 1_555
C5 C4 1_555 1_555
C6 C1 1_555 1_555
C7 C6 1_555 1_555
H4 C7 1_555 1_555
C8 C7 1_555 1_555
H5 C8 1_555 1_555
C9 C8 1_555 1_555
C10 C5 1_555 1_555
C11 N1 1_555 1_555
H6 C11 1_555 1_555
C12 C10 1_555 1_555
H7 C12 1_555 1_555
C13 C12 1_555 1_555
H8 C13 1_555 1_555
C14 C13 1_555 1_555
H9 C14 1_555 1_555
C15 C14 1_555 1_555
C16 C15 1_555 1_555
H10 C16 1_555 1_555
C17 C16 1_555 1_555
H11 C17 1_555 1_555
C18 C17 1_555 1_555
C19 C18 1_555 1_555
H12 C19 1_555 1_555
C20 C15 1_555 1_555
H13 C20 1_555 1_555
O1 C11 1_555 1_555
C5 C6 1_555 1_555
C9 C10 1_555 1_555
C11 C12 1_555 1_555
C19 C20 1_555 1_555

#END
