
#######################################################################
#
#                 Cambridge Crystallographic Data Centre
#                                CCDC 
#
#######################################################################
#
# If this CIF has been generated from an entry in the Cambridge 
# Structural Database, then it will include bibliographic, chemical, 
# crystal, experimental, refinement or atomic coordinate data resulting 
# from the CCDC's data processing and validation procedures.
#
#######################################################################

data_OKIFOD
_chemical_formula_moiety         'C32 H39 N1 O7'
_chemical_name_systematic        
't-Butyl (2S,3R)-2-((napthalen-2-yl)methoxy)-3-((1S,4R)-4,7,7-trimethyl-3-oxo-2-oxabicyclo(2.2.1)heptylcarbonyloxy)-7-azabicyclo(2.2.1)heptane-7-carboxylate'
_symmetry_cell_setting           orthorhombic
_symmetry_space_group_name_H-M   'P 21 21 21'
_symmetry_Int_Tables_number      19
_space_group_name_Hall           'P 2ac 2ab'
loop_
_symmetry_equiv_pos_site_id
_symmetry_equiv_pos_as_xyz
1 x,y,z
2 1/2-x,-y,1/2+z
3 -x,1/2+y,1/2-z
4 1/2+x,1/2-y,-z
_cell_length_a                   6.3260(10)
_cell_length_b                   11.3170(10)
_cell_length_c                   40.658(5)
_cell_angle_alpha                90
_cell_angle_beta                 90
_cell_angle_gamma                90
_cell_volume                     2910.76
_exptl_crystal_colour            colorless
_chemical_melting_point          166deg.C
_cell_formula_units_Z            4
_exptl_crystal_recrystallization_method dichloromethane/hexane
loop_
_atom_site_label
_atom_site_type_symbol
_atom_site_fract_x
_atom_site_fract_y
_atom_site_fract_z
C1 C 0.3727(7) 0.4199(3) 0.38305(9)
H1 H 0.4980 0.4112 0.3978
C2 C 0.2206(7) 0.3106(3) 0.38538(9)
H2 H 0.2803 0.2487 0.4003
C3 C 0.2141(7) 0.2671(3) 0.34998(9)
H3 H 0.0862 0.2195 0.3442
C4 C 0.4271(8) 0.2066(4) 0.34214(11)
H4 H 0.4674 0.1500 0.3596
H5 H 0.4216 0.1647 0.3208
C5 C 0.5809(8) 0.3121(4) 0.34083(11)
H6 H 0.6903 0.3058 0.3582
H7 H 0.6507 0.3176 0.3191
C6 C 0.4354(7) 0.4185(3) 0.34690(9)
H8 H 0.4904 0.4955 0.3383
N1 N 0.2327(5) 0.3801(3) 0.33231(7)
C7 C 0.1786(7) 0.3900(4) 0.29981(10)
O1 O 0.0624(6) 0.3215(3) 0.28588(7)
O2 O 0.2633(5) 0.4888(2) 0.28707(6)
C8 C 0.2182(8) 0.5236(4) 0.25275(10)
C9 C -0.0200(9) 0.5403(5) 0.24861(15)
H9 H -0.0907 0.4634 0.2499
H10 H -0.0489 0.5763 0.2272
H11 H -0.0733 0.5920 0.2661
C10 C 0.3118(12) 0.4326(5) 0.22972(11)
H12 H 0.2337 0.3582 0.2318
H13 H 0.4605 0.4195 0.2354
H14 H 0.3017 0.4611 0.2070
C11 C 0.3315(9) 0.6401(4) 0.25020(11)
H15 H 0.4837 0.6276 0.2530
H16 H 0.2798 0.6936 0.2674
H17 H 0.3049 0.6750 0.2285
O3 O 0.2529(4) 0.5246(2) 0.39046(6)
C12 C 0.3642(7) 0.6228(3) 0.39571(10)
O4 O 0.5552(5) 0.6254(2) 0.39742(8)
C13 C 0.2222(6) 0.7276(3) 0.39777(9)
C14 C 0.0218(7) 0.7194(3) 0.41889(10)
H18 H -0.0605 0.6474 0.4136
H19 H 0.0563 0.7196 0.4426
C15 C -0.0977(7) 0.8314(3) 0.40897(10)
H20 H -0.1143 0.8853 0.4280
H21 H -0.2392 0.8119 0.4001
C16 C 0.0440(7) 0.8876(3) 0.38212(10)
C17 C 0.2373(7) 0.9264(4) 0.40084(9)
O5 O 0.3428(4) 0.8272(2) 0.41082(6)
C18 C -0.0594(8) 0.9840(4) 0.36177(11)
H22 H -0.1842 0.9520 0.3506
H23 H 0.0413 1.0133 0.3454
H24 H -0.1022 1.0491 0.3762
O6 O 0.2981(5) 1.0240(2) 0.40796(7)
C19 C 0.1394(6) 0.7771(3) 0.36423(9)
C20 C -0.0234(7) 0.6999(4) 0.34694(10)
H25 H -0.1375 0.6803 0.3623
H26 H 0.0443 0.6270 0.3393
H27 H -0.0819 0.7427 0.3281
C21 C 0.3182(8) 0.8075(4) 0.34054(10)
H28 H 0.4226 0.8570 0.3518
H29 H 0.2609 0.8505 0.3216
H30 H 0.3861 0.7346 0.3330
O7 O 0.0123(5) 0.3430(2) 0.39530(6)
C22 C -0.0096(8) 0.3608(4) 0.42933(10)
H31 H -0.1234 0.4192 0.4332
H32 H 0.1235 0.3942 0.4381
C23 C -0.0609(8) 0.2487(4) 0.44769(10)
C24 C -0.2602(7) 0.1949(4) 0.44242(10)
H33 H -0.3582 0.2312 0.4279
C25 C -0.3149(7) 0.0920(4) 0.45776(10)
H34 H -0.4500 0.0581 0.4539
C26 C -0.1713(7) 0.0353(4) 0.47947(10)
C27 C 0.0298(7) 0.0871(4) 0.48471(9)
C28 C 0.0795(7) 0.1953(4) 0.46882(10)
H35 H 0.2124 0.2316 0.4729
C29 C -0.2201(8) -0.0733(4) 0.49525(10)
H36 H -0.3558 -0.1076 0.4923
C30 C -0.0754(8) -0.1288(4) 0.51452(11)
H37 H -0.1098 -0.2021 0.5246
C31 C 0.1235(8) -0.0786(4) 0.51962(12)
H38 H 0.2233 -0.1180 0.5332
C32 C 0.1766(8) 0.0273(4) 0.50521(10)
H39 H 0.3122 0.0606 0.5090
loop_
_geom_bond_atom_site_label_1
_geom_bond_atom_site_label_2
_geom_bond_site_symmetry_1
_geom_bond_site_symmetry_2
C1 H1 1_555 1_555
C2 C1 1_555 1_555
H2 C2 1_555 1_555
C3 C2 1_555 1_555
H3 C3 1_555 1_555
C4 C3 1_555 1_555
H4 C4 1_555 1_555
H5 C4 1_555 1_555
C5 C4 1_555 1_555
H6 C5 1_555 1_555
H7 C5 1_555 1_555
C6 C1 1_555 1_555
H8 C6 1_555 1_555
N1 C3 1_555 1_555
C7 N1 1_555 1_555
O1 C7 1_555 1_555
O2 C7 1_555 1_555
C8 O2 1_555 1_555
C9 C8 1_555 1_555
H9 C9 1_555 1_555
H10 C9 1_555 1_555
H11 C9 1_555 1_555
C10 C8 1_555 1_555
H12 C10 1_555 1_555
H13 C10 1_555 1_555
H14 C10 1_555 1_555
C11 C8 1_555 1_555
H15 C11 1_555 1_555
H16 C11 1_555 1_555
H17 C11 1_555 1_555
O3 C1 1_555 1_555
C12 O3 1_555 1_555
O4 C12 1_555 1_555
C13 C12 1_555 1_555
C14 C13 1_555 1_555
H18 C14 1_555 1_555
H19 C14 1_555 1_555
C15 C14 1_555 1_555
H20 C15 1_555 1_555
H21 C15 1_555 1_555
C16 C15 1_555 1_555
C17 C16 1_555 1_555
O5 C13 1_555 1_555
C18 C16 1_555 1_555
H22 C18 1_555 1_555
H23 C18 1_555 1_555
H24 C18 1_555 1_555
O6 C17 1_555 1_555
C19 C13 1_555 1_555
C20 C19 1_555 1_555
H25 C20 1_555 1_555
H26 C20 1_555 1_555
H27 C20 1_555 1_555
C21 C19 1_555 1_555
H28 C21 1_555 1_555
H29 C21 1_555 1_555
H30 C21 1_555 1_555
O7 C2 1_555 1_555
C22 O7 1_555 1_555
H31 C22 1_555 1_555
H32 C22 1_555 1_555
C23 C22 1_555 1_555
C24 C23 1_555 1_555
H33 C24 1_555 1_555
C25 C24 1_555 1_555
H34 C25 1_555 1_555
C26 C25 1_555 1_555
C27 C26 1_555 1_555
C28 C23 1_555 1_555
H35 C28 1_555 1_555
C29 C26 1_555 1_555
H36 C29 1_555 1_555
C30 C29 1_555 1_555
H37 C30 1_555 1_555
C31 C30 1_555 1_555
H38 C31 1_555 1_555
C32 C27 1_555 1_555
H39 C32 1_555 1_555
C5 C6 1_555 1_555
C6 N1 1_555 1_555
C16 C19 1_555 1_555
C17 O5 1_555 1_555
C27 C28 1_555 1_555
C31 C32 1_555 1_555

#END
