
#######################################################################
#
#                 Cambridge Crystallographic Data Centre
#                                CCDC 
#
#######################################################################
#
# If this CIF has been generated from an entry in the Cambridge 
# Structural Database, then it will include bibliographic, chemical, 
# crystal, experimental, refinement or atomic coordinate data resulting 
# from the CCDC's data processing and validation procedures.
#
#######################################################################

data_OKIKIE
_chemical_formula_moiety         'C15 H20 O4'
_chemical_name_systematic        
'4-(4-hydroxy-5,5-dimethyl-3-oxocyclopent-1-en-1-yl)-4-methylcyclohex-1-ene-1-carboxylic acid'
_symmetry_cell_setting           monoclinic
_symmetry_space_group_name_H-M   'P 21'
_symmetry_Int_Tables_number      4
_space_group_name_Hall           'P 2yb'
loop_
_symmetry_equiv_pos_site_id
_symmetry_equiv_pos_as_xyz
1 x,y,z
2 -x,1/2+y,-z
_cell_length_a                   7.23860(10)
_cell_length_b                   20.6228(4)
_cell_length_c                   8.9600(2)
_cell_angle_alpha                90
_cell_angle_beta                 96.5020(10)
_cell_angle_gamma                90
_cell_volume                     1328.95
_exptl_crystal_colour            colorless
_exptl_crystal_description       block
_cell_formula_units_Z            4
_exptl_crystal_recrystallization_method Acetone/water
loop_
_atom_site_label
_atom_site_type_symbol
_atom_site_fract_x
_atom_site_fract_y
_atom_site_fract_z
O1 O 1.1044(3) 0.25793(11) -0.0936(2)
H1 H 1.1455 0.2815 -0.1588
O2 O 1.2577(2) 0.37598(10) 0.05356(19)
O3 O 0.2381(2) 0.32048(11) 0.67428(19)
O4 O 0.4696(3) 0.36736(11) 0.8231(2)
H2 H 0.3907 0.3663 0.8850
C1 C 0.9138(3) 0.30794(13) 0.2456(2)
C2 C 0.9258(4) 0.25573(14) 0.1235(3)
C3 C 1.0085(4) 0.29628(14) 0.0011(3)
H3 H 0.9033 0.3179 -0.0618
C4 C 1.1197(3) 0.34787(13) 0.0893(3)
C5 C 1.0310(3) 0.35742(13) 0.2266(3)
H4 H 1.0528 0.3933 0.2928
C6 C 0.7985(3) 0.30305(12) 0.3778(3)
C7 C 0.5883(3) 0.30261(13) 0.3207(3)
H5 H 0.5629 0.3363 0.2424
H6 H 0.5552 0.2601 0.2740
C8 C 0.4680(3) 0.31483(13) 0.4441(3)
H7 H 0.3393 0.3050 0.4245
C9 C 0.5291(3) 0.33833(13) 0.5782(3)
C10 C 0.7265(4) 0.35937(14) 0.6186(3)
H8 H 0.7895 0.3285 0.6923
H9 H 0.7281 0.4026 0.6667
C11 C 0.8332(3) 0.36263(13) 0.4809(3)
H10 H 0.9679 0.3660 0.5146
H11 H 0.7956 0.4022 0.4228
C12 C 1.0687(4) 0.20363(14) 0.1807(3)
H12 H 1.0169 0.1764 0.2554
H13 H 1.1825 0.2246 0.2269
H14 H 1.0976 0.1767 0.0964
C13 C 0.7445(4) 0.22322(15) 0.0576(3)
H15 H 0.7665 0.1984 -0.0320
H16 H 0.6501 0.2565 0.0302
H17 H 0.7010 0.1940 0.1325
C14 C 0.8492(4) 0.24045(14) 0.4673(3)
H18 H 0.8167 0.2027 0.4032
H19 H 0.7802 0.2388 0.5552
H20 H 0.9830 0.2400 0.5003
C15 C 0.3968(4) 0.34123(13) 0.6936(3)
O5 O 0.3838(5) 0.59563(12) 0.6643(3)
H21 H 0.3940 0.5628 0.7200
O6 O 0.2399(3) 0.47144(11) 0.5339(2)
O7 O 1.2233(3) 0.53606(14) -0.1180(2)
O8 O 1.0365(3) 0.46036(11) -0.2285(2)
H22 H 1.1155 0.4606 -0.2904
C16 C 0.5671(4) 0.53937(13) 0.3244(3)
C17 C 0.5847(4) 0.58647(14) 0.4591(3)
C18 C 0.3903(5) 0.57683(16) 0.5157(3)
H23 H 0.3008 0.6052 0.4524
C19 C 0.3418(4) 0.50720(14) 0.4719(3)
C20 C 0.4363(4) 0.49425(13) 0.3391(3)
H24 H 0.4090 0.4588 0.2725
C21 C 0.6825(3) 0.54342(13) 0.1928(3)
C22 C 0.6567(4) 0.48097(13) 0.0974(3)
H25 H 0.6676 0.4429 0.1650
H26 H 0.5302 0.4807 0.0423
C23 C 0.7976(4) 0.47503(14) -0.0138(3)
H27 H 0.7719 0.4456 -0.0952
C24 C 0.9550(3) 0.50837(14) -0.0048(3)
C25 C 1.0102(4) 0.55614(15) 0.1183(3)
H28 H 0.9980 0.6006 0.0768
H29 H 1.1424 0.5492 0.1568
C26 C 0.8916(3) 0.55013(14) 0.2483(3)
H30 H 0.9108 0.5889 0.3132
H31 H 0.9327 0.5117 0.3096
C27 C 0.7356(5) 0.56248(17) 0.5806(3)
H32 H 0.8577 0.5665 0.5443
H33 H 0.7124 0.5169 0.6036
H34 H 0.7329 0.5887 0.6716
C28 C 0.6125(5) 0.65819(15) 0.4264(3)
H35 H 0.7337 0.6644 0.3896
H36 H 0.6078 0.6833 0.5187
H37 H 0.5139 0.6729 0.3500
C29 C 0.6130(4) 0.60139(14) 0.0923(3)
H38 H 0.4768 0.6020 0.0799
H39 H 0.6581 0.5970 -0.0063
H40 H 0.6601 0.6419 0.1395
C30 C 1.0841(4) 0.50288(15) -0.1220(3)
loop_
_geom_bond_atom_site_label_1
_geom_bond_atom_site_label_2
_geom_bond_site_symmetry_1
_geom_bond_site_symmetry_2
O1 H1 1_555 1_555
O2 C4 1_555 1_555
O3 C15 1_555 1_555
O4 H2 1_555 1_555
C1 C2 1_555 1_555
C2 C3 1_555 1_555
C3 O1 1_555 1_555
H3 C3 1_555 1_555
C4 C3 1_555 1_555
C5 C1 1_555 1_555
H4 C5 1_555 1_555
C6 C1 1_555 1_555
C7 C6 1_555 1_555
H5 C7 1_555 1_555
H6 C7 1_555 1_555
C8 C7 1_555 1_555
H7 C8 1_555 1_555
C9 C8 1_555 1_555
C10 C9 1_555 1_555
H8 C10 1_555 1_555
H9 C10 1_555 1_555
C11 C6 1_555 1_555
H10 C11 1_555 1_555
H11 C11 1_555 1_555
C12 C2 1_555 1_555
H12 C12 1_555 1_555
H13 C12 1_555 1_555
H14 C12 1_555 1_555
C13 C2 1_555 1_555
H15 C13 1_555 1_555
H16 C13 1_555 1_555
H17 C13 1_555 1_555
C14 C6 1_555 1_555
H18 C14 1_555 1_555
H19 C14 1_555 1_555
H20 C14 1_555 1_555
C15 O4 1_555 1_555
O5 H21 1_555 1_555
O6 C19 1_555 1_555
O7 C30 1_555 1_555
O8 H22 1_555 1_555
C16 C17 1_555 1_555
C17 C18 1_555 1_555
C18 O5 1_555 1_555
H23 C18 1_555 1_555
C19 C18 1_555 1_555
C20 C16 1_555 1_555
H24 C20 1_555 1_555
C21 C16 1_555 1_555
C22 C21 1_555 1_555
H25 C22 1_555 1_555
H26 C22 1_555 1_555
C23 C22 1_555 1_555
H27 C23 1_555 1_555
C24 C23 1_555 1_555
C25 C24 1_555 1_555
H28 C25 1_555 1_555
H29 C25 1_555 1_555
C26 C21 1_555 1_555
H30 C26 1_555 1_555
H31 C26 1_555 1_555
C27 C17 1_555 1_555
H32 C27 1_555 1_555
H33 C27 1_555 1_555
H34 C27 1_555 1_555
C28 C17 1_555 1_555
H35 C28 1_555 1_555
H36 C28 1_555 1_555
H37 C28 1_555 1_555
C29 C21 1_555 1_555
H38 C29 1_555 1_555
H39 C29 1_555 1_555
H40 C29 1_555 1_555
C30 O8 1_555 1_555
C4 C5 1_555 1_555
C9 C15 1_555 1_555
C10 C11 1_555 1_555
C19 C20 1_555 1_555
C24 C30 1_555 1_555
C25 C26 1_555 1_555

#END
