
#######################################################################
#
#                 Cambridge Crystallographic Data Centre
#                                CCDC 
#
#######################################################################
#
# If this CIF has been generated from an entry in the Cambridge 
# Structural Database, then it will include bibliographic, chemical, 
# crystal, experimental, refinement or atomic coordinate data resulting 
# from the CCDC's data processing and validation procedures.
#
#######################################################################

data_OKILEB
_chemical_formula_moiety         'C24 H16 N2'
_chemical_name_systematic        4-(6-(pyridin-4-yl)-2-anthryl)pyridine
_symmetry_cell_setting           monoclinic
_symmetry_space_group_name_H-M   'P 21/c'
_symmetry_Int_Tables_number      14
_space_group_name_Hall           '-P 2ybc'
loop_
_symmetry_equiv_pos_site_id
_symmetry_equiv_pos_as_xyz
1 x,y,z
2 -x,1/2+y,1/2-z
3 -x,-y,-z
4 x,1/2-y,1/2+z
_cell_length_a                   12.582(10)
_cell_length_b                   5.997(5)
_cell_length_c                   10.882(9)
_cell_angle_alpha                90
_cell_angle_beta                 103.308(13)
_cell_angle_gamma                90
_cell_volume                     799.044
_exptl_crystal_colour            yellow
_exptl_crystal_description       Plate
_cell_formula_units_Z            2
loop_
_atom_site_label
_atom_site_type_symbol
_atom_site_fract_x
_atom_site_fract_y
_atom_site_fract_z
N1 N 0.06526(16) 0.4041(3) -0.15880(17)
C1 C 0.0815(2) 0.2697(4) -0.0587(2)
H1 H 0.0435 0.1354 -0.0672
C2 C 0.1510(2) 0.3160(4) 0.0571(2)
H2 H 0.1571 0.2160 0.1237
C3 C 0.21148(15) 0.5122(3) 0.07366(17)
C4 C 0.19479(19) 0.6530(4) -0.0307(2)
H3 H 0.2329 0.7868 -0.0259
C5 C 0.1215(2) 0.5943(4) -0.1421(2)
H4 H 0.1109 0.6940 -0.2093
C6 C 0.29446(16) 0.5648(3) 0.19256(17)
C7 C 0.35116(16) 0.7741(3) 0.20448(17)
H5 H 0.3306 0.8807 0.1414
C8 C 0.43436(16) 0.8210(3) 0.30572(17)
H6 H 0.4695 0.9583 0.3102
C9 C 0.46848(16) 0.6626(3) 0.40499(17)
C10 C 0.40963(16) 0.4558(3) 0.39744(17)
C11 C 0.32256(16) 0.4137(3) 0.28962(17)
H7 H 0.2840 0.2805 0.2851
C12 C 0.55779(16) 0.7016(3) 0.50617(17)
H8 H 0.5963 0.8347 0.5094
N1B N 0.93474(16) 0.5959(3) 1.15880(17)
C1B C 0.9185(2) 0.7303(4) 1.0587(2)
H1B H 0.9565 0.8646 1.0672
C2B C 0.8490(2) 0.6840(4) 0.9429(2)
H2B H 0.8429 0.7840 0.8763
C3B C 0.78852(15) 0.4878(3) 0.92634(17)
C4B C 0.80521(19) 0.3470(4) 1.0307(2)
H3B H 0.7671 0.2132 1.0259
C5B C 0.8785(2) 0.4057(4) 1.1421(2)
H4B H 0.8891 0.3060 1.2093
C6B C 0.70554(16) 0.4352(3) 0.80744(17)
C7B C 0.64884(16) 0.2259(3) 0.79552(17)
H5B H 0.6694 0.1193 0.8586
C8B C 0.56564(16) 0.1790(3) 0.69428(17)
H6B H 0.5305 0.0417 0.6898
C9B C 0.53152(16) 0.3374(3) 0.59501(17)
C10B C 0.59037(16) 0.5442(3) 0.60256(17)
C11B C 0.67744(16) 0.5863(3) 0.71038(17)
H7B H 0.7160 0.7195 0.7149
C12B C 0.44221(16) 0.2984(3) 0.49383(17)
H8B H 0.4037 0.1653 0.4906
loop_
_geom_bond_atom_site_label_1
_geom_bond_atom_site_label_2
_geom_bond_site_symmetry_1
_geom_bond_site_symmetry_2
N1 C1 1_555 1_555
C1 H1 1_555 1_555
C2 C1 1_555 1_555
H2 C2 1_555 1_555
C3 C2 1_555 1_555
C4 C3 1_555 1_555
H3 C4 1_555 1_555
C5 N1 1_555 1_555
H4 C5 1_555 1_555
C6 C3 1_555 1_555
C7 C6 1_555 1_555
H5 C7 1_555 1_555
C8 C7 1_555 1_555
H6 C8 1_555 1_555
C9 C8 1_555 1_555
C10 C9 1_555 1_555
C11 C6 1_555 1_555
H7 C11 1_555 1_555
C12 C9 1_555 1_555
H8 C12 1_555 1_555
N1B C1B 1_555 1_555
C1B H1B 1_555 1_555
C2B C1B 1_555 1_555
H2B C2B 1_555 1_555
C3B C2B 1_555 1_555
C4B C3B 1_555 1_555
H3B C4B 1_555 1_555
C5B N1B 1_555 1_555
H4B C5B 1_555 1_555
C6B C3B 1_555 1_555
C7B C6B 1_555 1_555
H5B C7B 1_555 1_555
C8B C7B 1_555 1_555
H6B C8B 1_555 1_555
C9B C8B 1_555 1_555
C10B C12 1_555 1_555
C11B C6B 1_555 1_555
H7B C11B 1_555 1_555
C12B C10 1_555 1_555
H8B C12B 1_555 1_555
C4 C5 1_555 1_555
C10 C11 1_555 1_555
C4B C5B 1_555 1_555
C9B C10B 1_555 1_555
C9B C12B 1_555 1_555
C10B C11B 1_555 1_555

#END
