
#######################################################################
#
#                 Cambridge Crystallographic Data Centre
#                                CCDC 
#
#######################################################################
#
# If this CIF has been generated from an entry in the Cambridge 
# Structural Database, then it will include bibliographic, chemical, 
# crystal, experimental, refinement or atomic coordinate data resulting 
# from the CCDC's data processing and validation procedures.
#
#######################################################################

data_OKITAD
_chemical_name_common            
'1-t-Butyl 2-methyl 3-(2-(1,3-dioxo-1,3-dihydroisoindol-2-yl)ethyl)-5-oxopyrrolidine-1,2-dicarboxylate'
_chemical_formula_moiety         'C21 H24 N2 O7'
_chemical_name_systematic        
'Methyl (2S,3S)-N-t-butoxycarbonyl-3-(2-(N-phthalimido)ethyl)pyroglutamate'
_symmetry_cell_setting           orthorhombic
_symmetry_space_group_name_H-M   'P 21 21 21'
_symmetry_Int_Tables_number      19
_space_group_name_Hall           'P 2ac 2ab'
loop_
_symmetry_equiv_pos_site_id
_symmetry_equiv_pos_as_xyz
1 x,y,z
2 1/2-x,-y,1/2+z
3 -x,1/2+y,1/2-z
4 1/2+x,1/2-y,-z
_cell_length_a                   5.8845(11)
_cell_length_b                   17.107(3)
_cell_length_c                   20.465(4)
_cell_angle_alpha                90
_cell_angle_beta                 90
_cell_angle_gamma                90
_cell_volume                     2060.13
_exptl_crystal_colour            colorless
_exptl_crystal_description       plate
_cell_formula_units_Z            4
loop_
_atom_site_label
_atom_site_type_symbol
_atom_site_fract_x
_atom_site_fract_y
_atom_site_fract_z
O1 O 0.0743(3) 0.79899(10) 0.21598(10)
O2 O 0.6560(4) 0.94398(10) 0.36317(10)
N1 N 0.3494(3) 0.96070(11) 0.29507(10)
O3 O 0.4264(3) 0.84691(10) 0.20348(9)
O4 O -0.1707(3) 0.86022(11) 0.05699(10)
O5 O 0.3975(3) 0.84788(10) 0.34635(9)
O6 O 0.5027(3) 1.08435(10) 0.30884(10)
O7 O 0.2479(3) 1.08441(11) 0.05677(9)
N2 N -0.0059(4) 0.98226(11) 0.06453(10)
C1 C 0.1876(5) 1.01990(15) 0.04011(13)
C2 C 0.4857(5) 0.91856(15) 0.33842(13)
C3 C 0.1591(4) 0.92485(13) 0.25932(12)
H1 H 0.0259 0.9179 0.2891
C4 C -0.0225(5) 0.90558(15) 0.04128(13)
C5 C 0.3616(5) 1.04159(15) 0.28553(13)
C6 C -0.1348(4) 0.97947(16) 0.17992(13)
H2 H -0.2432 1.0048 0.2103
H3 H -0.1749 0.9234 0.1771
C7 C 0.1670(5) 1.06336(14) 0.24137(13)
H4 H 0.2141 1.1036 0.2093
H5 H 0.0369 1.0835 0.2670
C8 C 0.2925(5) 0.96383(15) -0.00586(13)
C9 C 0.1054(4) 0.98734(14) 0.20725(12)
H6 H 0.2142 0.9799 0.1702
C10 C 0.4793(5) 0.97270(17) -0.04553(13)
H7 H 0.5593 1.0209 -0.0475
C11 C 0.3745(5) 0.71542(16) 0.37153(17)
H8 H 0.3729 0.7026 0.3249
H9 H 0.2193 0.7267 0.3862
H10 H 0.4351 0.6710 0.3963
C12 C 0.5225(4) 0.78632(15) 0.38275(13)
C13 C 0.1716(5) 0.89471(15) -0.00373(13)
C14 C 0.2131(4) 0.84905(15) 0.22557(13)
C15 C 0.4882(5) 0.77848(16) 0.16625(15)
H11 H 0.6470 0.7828 0.1523
H12 H 0.3899 0.7744 0.1277
H13 H 0.4696 0.7318 0.1934
C16 C -0.1589(5) 1.01648(15) 0.11241(13)
H14 H -0.3175 1.0100 0.0972
H15 H -0.1276 1.0732 0.1158
C17 C 0.2399(5) 0.83077(16) -0.03918(13)
H16 H 0.1601 0.7826 -0.0366
C18 C 0.7551(5) 0.77404(17) 0.35370(16)
H17 H 0.7401 0.7601 0.3075
H18 H 0.8326 0.7317 0.3771
H19 H 0.8438 0.8223 0.3577
C19 C 0.5472(5) 0.90892(18) -0.08259(14)
H20 H 0.6751 0.9134 -0.1107
C20 C 0.4300(5) 0.83881(17) -0.07901(14)
H21 H 0.4804 0.7955 -0.1042
C21 C 0.5301(6) 0.80800(19) 0.45396(15)
H22 H 0.6277 0.8539 0.4598
H23 H 0.5914 0.7641 0.4792
H24 H 0.3762 0.8201 0.4692
loop_
_geom_bond_atom_site_label_1
_geom_bond_atom_site_label_2
_geom_bond_site_symmetry_1
_geom_bond_site_symmetry_2
O1 C14 1_555 1_555
O2 C2 1_555 1_555
N1 C2 1_555 1_555
O3 C14 1_555 1_555
O4 C4 1_555 1_555
O5 C2 1_555 1_555
O6 C5 1_555 1_555
O7 C1 1_555 1_555
N2 C1 1_555 1_555
C1 C8 1_555 1_555
C3 N1 1_555 1_555
H1 C3 1_555 1_555
C4 N2 1_555 1_555
C5 N1 1_555 1_555
C6 H2 1_555 1_555
H3 C6 1_555 1_555
C7 C5 1_555 1_555
H4 C7 1_555 1_555
H5 C7 1_555 1_555
C8 C10 1_555 1_555
C9 C3 1_555 1_555
H6 C9 1_555 1_555
C10 H7 1_555 1_555
C11 H8 1_555 1_555
H9 C11 1_555 1_555
H10 C11 1_555 1_555
C12 O5 1_555 1_555
C13 C4 1_555 1_555
C14 C3 1_555 1_555
C15 O3 1_555 1_555
H11 C15 1_555 1_555
H12 C15 1_555 1_555
H13 C15 1_555 1_555
C16 N2 1_555 1_555
H14 C16 1_555 1_555
H15 C16 1_555 1_555
C17 C13 1_555 1_555
H16 C17 1_555 1_555
C18 C12 1_555 1_555
H17 C18 1_555 1_555
H18 C18 1_555 1_555
H19 C18 1_555 1_555
C19 C10 1_555 1_555
H20 C19 1_555 1_555
C20 C17 1_555 1_555
H21 C20 1_555 1_555
C21 C12 1_555 1_555
H22 C21 1_555 1_555
H23 C21 1_555 1_555
H24 C21 1_555 1_555
C6 C9 1_555 1_555
C6 C16 1_555 1_555
C7 C9 1_555 1_555
C8 C13 1_555 1_555
C11 C12 1_555 1_555
C19 C20 1_555 1_555

#END
