
#######################################################################
#
#                 Cambridge Crystallographic Data Centre
#                                CCDC 
#
#######################################################################
#
# If this CIF has been generated from an entry in the Cambridge 
# Structural Database, then it will include bibliographic, chemical, 
# crystal, experimental, refinement or atomic coordinate data resulting 
# from the CCDC's data processing and validation procedures.
#
#######################################################################

data_OKIZAL
_chemical_formula_moiety         'C16 H12 F2 N2 O2'
_chemical_name_systematic        
2-amino-4-(3,4-difluorophenyl)-5-oxo-5,6,7,8-tetrahydro-4H-chromene-3-carbonitrile
_symmetry_cell_setting           monoclinic
_symmetry_space_group_name_H-M   'C 2/c'
_symmetry_Int_Tables_number      15
_space_group_name_Hall           '-C 2yn'
loop_
_symmetry_equiv_pos_site_id
_symmetry_equiv_pos_as_xyz
1 x,y,z
2 -x,y,1/2-z
3 1/2+x,1/2+y,z
4 1/2-x,1/2+y,1/2-z
5 -x,-y,-z
6 x,-y,1/2+z
7 1/2-x,1/2-y,-z
8 1/2+x,1/2-y,1/2+z
_cell_length_a                   13.2109(11)
_cell_length_b                   10.9570(10)
_cell_length_c                   20.2646(18)
_cell_angle_alpha                90
_cell_angle_beta                 101.411(9)
_cell_angle_gamma                90
_cell_volume                     2875.36
_exptl_crystal_colour            colorless
_exptl_crystal_description       prism
_cell_formula_units_Z            8
loop_
_atom_site_label
_atom_site_type_symbol
_atom_site_fract_x
_atom_site_fract_y
_atom_site_fract_z
C1 C 0.28469(17) 0.8399(2) 0.43080(12)
C2 C 0.26294(16) 0.9571(2) 0.44272(11)
C3 C 0.15632(16) 1.0121(2) 0.42097(12)
H1 H 0.1391 1.0562 0.4594
C4 C 0.08011(17) 0.9099(2) 0.40273(12)
C5 C 0.10825(17) 0.7964(2) 0.39085(12)
C6 C 0.34383(18) 1.0333(2) 0.47464(12)
C7 C -0.02919(18) 0.9371(3) 0.40038(14)
C8 C -0.1047(2) 0.8351(3) 0.3813(2)
H2 H -0.1702 0.8688 0.3585
H3 H -0.1160 0.7951 0.4219
C9 C -0.0694(2) 0.7420(3) 0.3365(2)
H4 H -0.0690 0.7784 0.2929
H5 H -0.1178 0.6744 0.3298
C10 C 0.0373(2) 0.6946(3) 0.36603(15)
H6 H 0.0335 0.6394 0.4029
H7 H 0.0638 0.6493 0.3320
C11 C 0.15034(16) 1.1016(2) 0.36257(12)
C12 C 0.1270(2) 1.2225(2) 0.36936(14)
H8 H 0.1136 1.2509 0.4100
C13 C 0.1233(2) 1.3012(3) 0.31660(18)
C14 C 0.1415(2) 1.2616(3) 0.25685(16)
C15 C 0.1649(2) 1.1426(3) 0.24766(16)
H9 H 0.1779 1.1156 0.2066
C16 C 0.1689(2) 1.0628(3) 0.30113(13)
H10 H 0.1844 0.9811 0.2956
O1 O 0.20954(12) 0.76005(15) 0.40019(9)
O2 O -0.05634(13) 1.03764(19) 0.41568(12)
N1 N 0.37566(15) 0.7830(2) 0.44652(11)
H11 H 0.4293 0.8221 0.4668
H12 H 0.3806 0.7073 0.4364
N2 N 0.40917(17) 1.0964(2) 0.50020(13)
F1 F 0.1039(2) 1.41986(19) 0.32300(15)
F2 F 0.13846(17) 1.3436(2) 0.20616(11)
loop_
_geom_bond_atom_site_label_1
_geom_bond_atom_site_label_2
_geom_bond_site_symmetry_1
_geom_bond_site_symmetry_2
C1 C2 1_555 1_555
C2 C3 1_555 1_555
C3 H1 1_555 1_555
C4 C3 1_555 1_555
C5 C4 1_555 1_555
C6 C2 1_555 1_555
C7 C4 1_555 1_555
C8 C7 1_555 1_555
H2 C8 1_555 1_555
H3 C8 1_555 1_555
C9 C8 1_555 1_555
H4 C9 1_555 1_555
H5 C9 1_555 1_555
C10 C5 1_555 1_555
H6 C10 1_555 1_555
H7 C10 1_555 1_555
C11 C3 1_555 1_555
C12 C11 1_555 1_555
H8 C12 1_555 1_555
C13 C12 1_555 1_555
C14 C13 1_555 1_555
C15 C14 1_555 1_555
H9 C15 1_555 1_555
C16 C11 1_555 1_555
H10 C16 1_555 1_555
O1 C1 1_555 1_555
O2 C7 1_555 1_555
N1 C1 1_555 1_555
H11 N1 1_555 1_555
H12 N1 1_555 1_555
N2 C6 1_555 1_555
F1 C13 1_555 1_555
F2 C14 1_555 1_555
C5 O1 1_555 1_555
C9 C10 1_555 1_555
C15 C16 1_555 1_555

#END
