
#######################################################################
#
#                 Cambridge Crystallographic Data Centre
#                                CCDC 
#
#######################################################################
#
# If this CIF has been generated from an entry in the Cambridge 
# Structural Database, then it will include bibliographic, chemical, 
# crystal, experimental, refinement or atomic coordinate data resulting 
# from the CCDC's data processing and validation procedures.
#
#######################################################################

data_OKODUO
_chemical_formula_moiety         'C29 H27 N1 O6'
_chemical_name_systematic        
'Diethyl 1,4-dibenzoyl-3-phenylazetidine-2,2-dicarboxylate'
_symmetry_cell_setting           monoclinic
_symmetry_space_group_name_H-M   'P 21/c'
_symmetry_Int_Tables_number      14
_space_group_name_Hall           '-P 2ybc'
loop_
_symmetry_equiv_pos_site_id
_symmetry_equiv_pos_as_xyz
1 x,y,z
2 -x,1/2+y,1/2-z
3 -x,-y,-z
4 x,1/2-y,1/2+z
_cell_length_a                   10.805(7)
_cell_length_b                   21.875(14)
_cell_length_c                   11.405(8)
_cell_angle_alpha                90
_cell_angle_beta                 95.354(11)
_cell_angle_gamma                90
_cell_volume                     2683.92
_exptl_crystal_colour            colorless
_exptl_crystal_description       prism
_cell_formula_units_Z            4
loop_
_atom_site_label
_atom_site_type_symbol
_atom_site_fract_x
_atom_site_fract_y
_atom_site_fract_z
N1 N 0.15630(19) 0.79890(9) 0.47598(17)
O1 O 0.17898(18) 0.73925(8) 0.63537(16)
O2 O 0.3794(2) 0.86119(10) 0.5010(2)
O3 O -0.0873(2) 0.75278(10) 0.4664(2)
O4 O 0.1558(3) 0.90252(11) 0.65326(18)
O5 O -0.1607(2) 0.84581(10) 0.5038(2)
O6 O 0.0060(2) 0.84248(10) 0.70753(19)
C1 C 0.1930(2) 0.83971(11) 0.3848(2)
H1 H 0.1830 0.8210 0.3064
C2 C 0.0816(2) 0.88226(11) 0.4081(2)
H2 H 0.1128 0.9210 0.4425
C3 C 0.0540(2) 0.83634(11) 0.5086(2)
C4 C 0.2147(3) 0.75439(11) 0.5399(2)
C5 C 0.3210(2) 0.72277(11) 0.4915(2)
C6 C 0.3172(3) 0.70717(13) 0.3750(3)
H3 H 0.2485 0.7175 0.3235
C7 C 0.4156(4) 0.67618(16) 0.3343(3)
H4 H 0.4134 0.6647 0.2556
C8 C 0.5171(4) 0.66237(17) 0.4117(5)
H5 H 0.5845 0.6422 0.3843
C9 C 0.5209(4) 0.67770(18) 0.5280(5)
H6 H 0.5899 0.6681 0.5796
C10 C 0.4223(3) 0.70707(14) 0.5669(3)
H7 H 0.4233 0.7168 0.6464
C11 C 0.3161(3) 0.87058(12) 0.4098(3)
C12 C 0.3531(3) 0.91549(13) 0.3214(3)
C13 C 0.2981(4) 0.91767(16) 0.2087(3)
H8 H 0.2335 0.8909 0.1857
C14 C 0.3371(5) 0.9591(2) 0.1282(4)
H9 H 0.2981 0.9601 0.0520
C15 C 0.4295(6) 0.9973(2) 0.1589(6)
H10 H 0.4558 1.0245 0.1037
C16 C 0.4863(5) 0.9972(2) 0.2707(7)
H11 H 0.5489 1.0252 0.2924
C17 C 0.4504(4) 0.95473(17) 0.3530(4)
H12 H 0.4918 0.9530 0.4281
C18 C -0.0171(2) 0.89440(11) 0.3106(2)
C19 C -0.0807(3) 0.94926(12) 0.3095(3)
H13 H -0.0599 0.9779 0.3684
C20 C -0.1739(3) 0.96226(14) 0.2230(3)
H14 H -0.2161 0.9993 0.2241
C21 C -0.2050(3) 0.92077(16) 0.1349(3)
H15 H -0.2675 0.9298 0.0758
C22 C -0.1438(3) 0.86618(15) 0.1343(3)
H16 H -0.1653 0.8377 0.0753
C23 C -0.0494(3) 0.85312(13) 0.2217(3)
H17 H -0.0075 0.8160 0.2203
C24 C -0.0715(3) 0.80539(15) 0.4906(3)
C25 C -0.2884(4) 0.8233(2) 0.4946(5)
H18 H -0.3390 0.8510 0.5363
H19 H -0.2900 0.7836 0.5325
C26 C -0.3435(6) 0.8175(3) 0.3700(8)
H20 H -0.3450 0.8569 0.3328
H21 H -0.4267 0.8020 0.3687
H22 H -0.2941 0.7899 0.3283
C27 C 0.0789(3) 0.86478(14) 0.6319(3)
C28 C 0.0125(5) 0.87026(18) 0.8244(3)
H23 H 0.0921 0.8904 0.8415
H24 H 0.0050 0.8389 0.8834
C29 C -0.0905(6) 0.9158(3) 0.8287(5)
H25 H -0.0822 0.9470 0.7707
H26 H -0.0862 0.9340 0.9055
H27 H -0.1691 0.8956 0.8125
loop_
_geom_bond_atom_site_label_1
_geom_bond_atom_site_label_2
_geom_bond_site_symmetry_1
_geom_bond_site_symmetry_2
N1 C1 1_555 1_555
O1 C4 1_555 1_555
O2 C11 1_555 1_555
O3 C24 1_555 1_555
O4 C27 1_555 1_555
O5 C24 1_555 1_555
O6 C27 1_555 1_555
C1 H1 1_555 1_555
C2 C1 1_555 1_555
H2 C2 1_555 1_555
C3 N1 1_555 1_555
C4 N1 1_555 1_555
C5 C4 1_555 1_555
C6 C5 1_555 1_555
H3 C6 1_555 1_555
C7 C6 1_555 1_555
H4 C7 1_555 1_555
C8 C7 1_555 1_555
H5 C8 1_555 1_555
C9 C8 1_555 1_555
H6 C9 1_555 1_555
C10 C5 1_555 1_555
H7 C10 1_555 1_555
C11 C1 1_555 1_555
C12 C11 1_555 1_555
C13 C12 1_555 1_555
H8 C13 1_555 1_555
C14 C13 1_555 1_555
H9 C14 1_555 1_555
C15 C14 1_555 1_555
H10 C15 1_555 1_555
C16 C15 1_555 1_555
H11 C16 1_555 1_555
C17 C12 1_555 1_555
H12 C17 1_555 1_555
C18 C2 1_555 1_555
C19 C18 1_555 1_555
H13 C19 1_555 1_555
C20 C19 1_555 1_555
H14 C20 1_555 1_555
C21 C20 1_555 1_555
H15 C21 1_555 1_555
C22 C21 1_555 1_555
H16 C22 1_555 1_555
C23 C18 1_555 1_555
H17 C23 1_555 1_555
C24 C3 1_555 1_555
C25 O5 1_555 1_555
H18 C25 1_555 1_555
H19 C25 1_555 1_555
C26 C25 1_555 1_555
H20 C26 1_555 1_555
H21 C26 1_555 1_555
H22 C26 1_555 1_555
C27 C3 1_555 1_555
C28 O6 1_555 1_555
H23 C28 1_555 1_555
H24 C28 1_555 1_555
C29 C28 1_555 1_555
H25 C29 1_555 1_555
H26 C29 1_555 1_555
H27 C29 1_555 1_555
C2 C3 1_555 1_555
C9 C10 1_555 1_555
C16 C17 1_555 1_555
C22 C23 1_555 1_555

#END
