
#######################################################################
#
#                 Cambridge Crystallographic Data Centre
#                                CCDC 
#
#######################################################################
#
# If this CIF has been generated from an entry in the Cambridge 
# Structural Database, then it will include bibliographic, chemical, 
# crystal, experimental, refinement or atomic coordinate data resulting 
# from the CCDC's data processing and validation procedures.
#
#######################################################################

data_OKOGOL
_chemical_formula_moiety         'C13 H19 I1 O3'
_chemical_name_systematic        
'3-Hydroxy-4-(2-iodoethenylidene)-3,5,5-trimethylcyclohexyl acetate'
_symmetry_cell_setting           monoclinic
_symmetry_space_group_name_H-M   'P 21'
_symmetry_Int_Tables_number      4
_space_group_name_Hall           'P 2yb'
loop_
_symmetry_equiv_pos_site_id
_symmetry_equiv_pos_as_xyz
1 x,y,z
2 -x,1/2+y,-z
_cell_length_a                   8.0323(4)
_cell_length_b                   12.7196(6)
_cell_length_c                   15.1008(7)
_cell_angle_alpha                90
_cell_angle_beta                 90.019(3)
_cell_angle_gamma                90
_cell_volume                     1542.81
_exptl_crystal_colour            colorless
_exptl_crystal_description       tabular
_cell_formula_units_Z            4
loop_
_atom_site_label
_atom_site_type_symbol
_atom_site_fract_x
_atom_site_fract_y
_atom_site_fract_z
C1 C 0.2679(4) 0.9928(3) 0.0723(2)
H1 H 0.2807 1.0421 0.0255
C2 C 0.3134(3) 0.8959(3) 0.06134(18)
C3 C 0.3575(3) 0.7973(2) 0.05700(17)
C4 C 0.5311(3) 0.7641(2) 0.08935(18)
C5 C 0.5097(4) 0.6777(2) 0.15838(18)
H2 H 0.6207 0.6508 0.1759
H3 H 0.4558 0.7074 0.2117
C6 C 0.4054(4) 0.5876(2) 0.12352(18)
H4 H 0.4627 0.5528 0.0725
C7 C 0.2335(4) 0.6243(2) 0.09638(19)
H5 H 0.1740 0.6502 0.1495
H6 H 0.1704 0.5636 0.0727
C8 C 0.2366(4) 0.7120(2) 0.02610(18)
C9 C 0.6296(4) 0.8553(3) 0.1276(2)
H7 H 0.7399 0.8306 0.1460
H8 H 0.5706 0.8840 0.1789
H9 H 0.6420 0.9102 0.0825
C10 C 0.3649(4) 0.4127(3) 0.1779(2)
C11 C 0.3580(5) 0.3476(3) 0.2600(3)
H10 H 0.3574 0.2729 0.2440
H11 H 0.2565 0.3644 0.2930
H12 H 0.4556 0.3627 0.2968
C12 C 0.0594(4) 0.7565(3) 0.0177(2)
H13 H 0.0263 0.7886 0.0739
H14 H -0.0179 0.6995 0.0029
H15 H 0.0569 0.8097 -0.0293
C13 C 0.2888(4) 0.6669(3) -0.06487(18)
H16 H 0.3957 0.6305 -0.0590
H17 H 0.2998 0.7244 -0.1077
H18 H 0.2040 0.6173 -0.0856
I1 I 0.16489(3) 1.040427(18) 0.194946(17)
O1 O 0.6239(2) 0.71677(16) 0.01819(13)
H19 H 0.6381 0.7611 -0.0223
O2 O 0.3900(3) 0.51451(16) 0.19766(13)
O3 O 0.3507(4) 0.38148(19) 0.10287(16)
C14 C 0.0909(5) -0.0593(3) 0.6383(2)
H20 H 0.0517 -0.1128 0.5997
C15 C 0.1187(4) 0.0328(3) 0.60852(18)
C16 C 0.1462(4) 0.1286(3) 0.58043(17)
C17 C 0.0093(4) 0.2120(3) 0.58783(19)
C18 C 0.0793(4) 0.3105(3) 0.6296(2)
H21 H -0.0049 0.3672 0.6254
H22 H 0.1001 0.2970 0.6932
C19 C 0.2390(4) 0.3480(3) 0.58716(19)
H23 H 0.2174 0.3733 0.5255
C20 C 0.3713(4) 0.2628(3) 0.5869(2)
H24 H 0.4036 0.2473 0.6489
H25 H 0.4711 0.2895 0.5558
C21 C 0.3143(4) 0.1603(3) 0.54225(19)
C22 C -0.1398(4) 0.1718(3) 0.6412(2)
H26 H -0.2266 0.2260 0.6426
H27 H -0.1042 0.1557 0.7018
H28 H -0.1840 0.1081 0.6134
C23 C 0.2476(4) 0.5286(3) 0.63148(19)
C24 C 0.3165(5) 0.6031(3) 0.6990(3)
H29 H 0.3083 0.6752 0.6767
H30 H 0.4335 0.5860 0.7105
H31 H 0.2527 0.5968 0.7541
C25 C 0.4444(5) 0.0758(3) 0.5600(3)
H32 H 0.4479 0.0603 0.6235
H33 H 0.5539 0.1009 0.5406
H34 H 0.4153 0.0119 0.5273
C26 C 0.2999(5) 0.1769(4) 0.4410(2)
H35 H 0.2655 0.1109 0.4128
H36 H 0.4081 0.1986 0.4173
H37 H 0.2170 0.2315 0.4288
I2 I 0.13233(4) -0.09334(2) 0.774105(18)
O4 O -0.0464(3) 0.24232(18) 0.50093(14)
H38 H -0.0786 0.1888 0.4732
O5 O 0.3096(3) 0.43263(18) 0.64133(14)
O6 O 0.1459(3) 0.5508(2) 0.57684(17)
loop_
_geom_bond_atom_site_label_1
_geom_bond_atom_site_label_2
_geom_bond_site_symmetry_1
_geom_bond_site_symmetry_2
C1 H1 1_555 1_555
C2 C1 1_555 1_555
C3 C2 1_555 1_555
C4 C3 1_555 1_555
C5 C4 1_555 1_555
H2 C5 1_555 1_555
H3 C5 1_555 1_555
C6 C5 1_555 1_555
H4 C6 1_555 1_555
C7 C6 1_555 1_555
H5 C7 1_555 1_555
H6 C7 1_555 1_555
C8 C3 1_555 1_555
C9 C4 1_555 1_555
H7 C9 1_555 1_555
H8 C9 1_555 1_555
H9 C9 1_555 1_555
C10 C11 1_555 1_555
C11 H10 1_555 1_555
H11 C11 1_555 1_555
H12 C11 1_555 1_555
C12 C8 1_555 1_555
H13 C12 1_555 1_555
H14 C12 1_555 1_555
H15 C12 1_555 1_555
C13 C8 1_555 1_555
H16 C13 1_555 1_555
H17 C13 1_555 1_555
H18 C13 1_555 1_555
I1 C1 1_555 1_555
O1 C4 1_555 1_555
H19 O1 1_555 1_555
O2 C6 1_555 1_555
O3 C10 1_555 1_555
C14 H20 1_555 1_555
C15 C14 1_555 1_555
C16 C15 1_555 1_555
C17 C16 1_555 1_555
C18 C17 1_555 1_555
H21 C18 1_555 1_555
H22 C18 1_555 1_555
C19 C18 1_555 1_555
H23 C19 1_555 1_555
C20 C19 1_555 1_555
H24 C20 1_555 1_555
H25 C20 1_555 1_555
C21 C16 1_555 1_555
C22 C17 1_555 1_555
H26 C22 1_555 1_555
H27 C22 1_555 1_555
H28 C22 1_555 1_555
C23 C24 1_555 1_555
C24 H29 1_555 1_555
H30 C24 1_555 1_555
H31 C24 1_555 1_555
C25 C21 1_555 1_555
H32 C25 1_555 1_555
H33 C25 1_555 1_555
H34 C25 1_555 1_555
C26 C21 1_555 1_555
H35 C26 1_555 1_555
H36 C26 1_555 1_555
H37 C26 1_555 1_555
I2 C14 1_555 1_555
O4 C17 1_555 1_555
H38 O4 1_555 1_555
O5 C19 1_555 1_555
O6 C23 1_555 1_555
C7 C8 1_555 1_555
C10 O2 1_555 1_555
C20 C21 1_555 1_555
C23 O5 1_555 1_555

#END
