
#######################################################################
#
#                 Cambridge Crystallographic Data Centre
#                                CCDC 
#
#######################################################################
#
# If this CIF has been generated from an entry in the Cambridge 
# Structural Database, then it will include bibliographic, chemical, 
# crystal, experimental, refinement or atomic coordinate data resulting 
# from the CCDC's data processing and validation procedures.
#
#######################################################################

data_OKOHAY
_chemical_formula_moiety         'C23 H43 B1 O4 Si1'
_chemical_name_systematic        
t-Butyl(dimethyl)((1,5,5-trimethyl-6-(2-(4,4,5,5-tetramethyl-1,3,2-dioxaborolan-2-yl)vinyl)-7-oxabicyclo[4.1.0]hept-3-yl)oxy)silane
_symmetry_cell_setting           monoclinic
_symmetry_space_group_name_H-M   'P 21'
_symmetry_Int_Tables_number      4
_space_group_name_Hall           'P 2yb'
loop_
_symmetry_equiv_pos_site_id
_symmetry_equiv_pos_as_xyz
1 x,y,z
2 -x,1/2+y,-z
_cell_length_a                   12.2210(3)
_cell_length_b                   7.7260(2)
_cell_length_c                   14.1518(3)
_cell_angle_alpha                90
_cell_angle_beta                 90.599(2)
_cell_angle_gamma                90
_cell_volume                     1336.13
_exptl_crystal_colour            colorless
_exptl_crystal_description       platy
_cell_formula_units_Z            2
loop_
_atom_site_label
_atom_site_type_symbol
_atom_site_fract_x
_atom_site_fract_y
_atom_site_fract_z
Si1 Si 0.30171(4) 0.68643(7) 0.51731(4)
O1 O 0.32194(11) 0.61972(19) 0.62703(10)
O2 O 0.61981(11) 0.7823(2) 0.75006(9)
O3 O 0.91492(11) 0.8732(2) 1.01676(9)
O4 O 0.77486(10) 0.7553(2) 1.09993(9)
B1 B 0.80859(19) 0.8205(3) 1.01592(16)
C1 C 0.18296(17) 0.5558(3) 0.47066(15)
C2 C 0.08241(18) 0.5876(3) 0.5309(2)
H1 H 0.0228 0.5180 0.5079
H2 H 0.0625 0.7077 0.5275
H3 H 0.0985 0.5573 0.5953
C3 C 0.1576(2) 0.6082(4) 0.36819(18)
H4 H 0.0993 0.5374 0.3436
H5 H 0.2217 0.5926 0.3305
H6 H 0.1358 0.7276 0.3663
C4 C 0.21230(19) 0.3634(3) 0.47301(17)
H7 H 0.1519 0.2968 0.4488
H8 H 0.2280 0.3291 0.5369
H9 H 0.2755 0.3435 0.4348
C5 C 0.2691(2) 0.9225(3) 0.51931(19)
H10 H 0.3305 0.9853 0.5448
H11 H 0.2062 0.9419 0.5580
H12 H 0.2540 0.9617 0.4562
C6 C 0.42623(17) 0.6471(3) 0.44657(16)
H13 H 0.4871 0.7074 0.4746
H14 H 0.4144 0.6882 0.3833
H15 H 0.4416 0.5253 0.4452
C7 C 0.40998(14) 0.6874(3) 0.68423(13)
H16 H 0.4430 0.7870 0.6525
C8 C 0.49511(19) 0.5484(3) 0.69925(16)
H17 H 0.4602 0.4459 0.7245
H18 H 0.5265 0.5179 0.6388
C9 C 0.58529(19) 0.6050(3) 0.76583(16)
C10 C 0.56429(15) 0.7428(3) 0.83700(13)
C11 C 0.45043(15) 0.8276(3) 0.84588(13)
C12 C 0.36612(15) 0.7424(3) 0.77886(14)
H19 H 0.3361 0.6415 0.8101
H20 H 0.3065 0.8232 0.7682
C13 C 0.6754(2) 0.4747(4) 0.7794(2)
H21 H 0.7274 0.5177 0.8250
H22 H 0.7113 0.4556 0.7203
H23 H 0.6451 0.3677 0.8015
C14 C 0.40687(17) 0.8090(3) 0.94669(14)
H24 H 0.3333 0.8522 0.9490
H25 H 0.4524 0.8740 0.9895
H26 H 0.4077 0.6892 0.9646
C15 C 0.46318(19) 1.0200(3) 0.82304(16)
H27 H 0.3957 1.0790 0.8355
H28 H 0.4813 1.0334 0.7576
H29 H 0.5205 1.0684 0.8617
C16 C 0.63741(15) 0.7539(3) 0.92201(14)
H30 H 0.6114 0.7054 0.9776
C17 C 0.73480(16) 0.8256(3) 0.92599(15)
H31 H 0.7607 0.8819 0.8726
C18 C 0.95445(16) 0.8646(3) 1.11409(14)
C19 C 0.87264(15) 0.7331(3) 1.15939(13)
C20 C 0.9470(2) 1.0453(3) 1.15497(18)
H32 H 0.9873 1.1242 1.1162
H33 H 0.9772 1.0458 1.2179
H34 H 0.8717 1.0805 1.1568
C21 C 1.07224(16) 0.8022(4) 1.11318(16)
H35 H 1.1175 0.8886 1.0844
H36 H 1.0767 0.6966 1.0777
H37 H 1.0970 0.7821 1.1768
C22 C 0.84124(18) 0.7714(3) 1.26079(14)
H38 H 0.7930 0.6826 1.2831
H39 H 0.8049 0.8815 1.2636
H40 H 0.9060 0.7744 1.2998
C23 C 0.90763(19) 0.5465(3) 1.14950(17)
H41 H 0.8473 0.4720 1.1641
H42 H 0.9674 0.5234 1.1923
H43 H 0.9305 0.5256 1.0858
loop_
_geom_bond_atom_site_label_1
_geom_bond_atom_site_label_2
_geom_bond_site_symmetry_1
_geom_bond_site_symmetry_2
Si1 O1 1_555 1_555
O1 C7 1_555 1_555
O2 C9 1_555 1_555
O3 B1 1_555 1_555
O4 B1 1_555 1_555
B1 C17 1_555 1_555
C1 Si1 1_555 1_555
C2 C1 1_555 1_555
H1 C2 1_555 1_555
H2 C2 1_555 1_555
H3 C2 1_555 1_555
C3 C1 1_555 1_555
H4 C3 1_555 1_555
H5 C3 1_555 1_555
H6 C3 1_555 1_555
C4 C1 1_555 1_555
H7 C4 1_555 1_555
H8 C4 1_555 1_555
H9 C4 1_555 1_555
C5 Si1 1_555 1_555
H10 C5 1_555 1_555
H11 C5 1_555 1_555
H12 C5 1_555 1_555
C6 Si1 1_555 1_555
H13 C6 1_555 1_555
H14 C6 1_555 1_555
H15 C6 1_555 1_555
C7 H16 1_555 1_555
C8 C7 1_555 1_555
H17 C8 1_555 1_555
H18 C8 1_555 1_555
C9 C8 1_555 1_555
C10 O2 1_555 1_555
C11 C10 1_555 1_555
C12 C7 1_555 1_555
H19 C12 1_555 1_555
H20 C12 1_555 1_555
C13 C9 1_555 1_555
H21 C13 1_555 1_555
H22 C13 1_555 1_555
H23 C13 1_555 1_555
C14 C11 1_555 1_555
H24 C14 1_555 1_555
H25 C14 1_555 1_555
H26 C14 1_555 1_555
C15 C11 1_555 1_555
H27 C15 1_555 1_555
H28 C15 1_555 1_555
H29 C15 1_555 1_555
C16 C10 1_555 1_555
H30 C16 1_555 1_555
C17 C16 1_555 1_555
H31 C17 1_555 1_555
C18 O3 1_555 1_555
C19 O4 1_555 1_555
C20 C18 1_555 1_555
H32 C20 1_555 1_555
H33 C20 1_555 1_555
H34 C20 1_555 1_555
C21 C18 1_555 1_555
H35 C21 1_555 1_555
H36 C21 1_555 1_555
H37 C21 1_555 1_555
C22 C19 1_555 1_555
H38 C22 1_555 1_555
H39 C22 1_555 1_555
H40 C22 1_555 1_555
C23 C19 1_555 1_555
H41 C23 1_555 1_555
H42 C23 1_555 1_555
H43 C23 1_555 1_555
C9 C10 1_555 1_555
C11 C12 1_555 1_555
C18 C19 1_555 1_555

#END
