
#######################################################################
#
#                 Cambridge Crystallographic Data Centre
#                                CCDC 
#
#######################################################################
#
# If this CIF has been generated from an entry in the Cambridge 
# Structural Database, then it will include bibliographic, chemical, 
# crystal, experimental, refinement or atomic coordinate data resulting 
# from the CCDC's data processing and validation procedures.
#
#######################################################################

data_OKOJAB
_chemical_formula_moiety         'C19 H20 N2 O4 S1'
_chemical_name_systematic        
'diethyl (((2-(pyridin-3-ylsulfanyl)phenyl)amino)methylene)malonate'
_symmetry_cell_setting           monoclinic
_symmetry_space_group_name_H-M   'P 21/c'
_symmetry_Int_Tables_number      14
_space_group_name_Hall           '-P 2ybc'
loop_
_symmetry_equiv_pos_site_id
_symmetry_equiv_pos_as_xyz
1 x,y,z
2 -x,1/2+y,1/2-z
3 -x,-y,-z
4 x,1/2-y,1/2+z
_cell_length_a                   18.983(4)
_cell_length_b                   5.0570(10)
_cell_length_c                   20.304(4)
_cell_angle_alpha                90
_cell_angle_beta                 106.10(3)
_cell_angle_gamma                90
_cell_volume                     1872.68
_exptl_crystal_colour            colorless
_exptl_crystal_description       block
_cell_formula_units_Z            4
loop_
_atom_site_label
_atom_site_type_symbol
_atom_site_fract_x
_atom_site_fract_y
_atom_site_fract_z
S1 S 0.60035(6) 0.4549(2) 0.96832(6)
N1 N 0.70642(17) 0.3793(6) 0.88419(15)
H1 H 0.7072 0.4919 0.9161
O1 O 0.89184(16) 0.8714(7) 0.94808(15)
C1 C 0.8238(2) 0.5425(8) 0.87637(17)
O2 O 0.78427(16) 0.7492(6) 0.96288(15)
C2 C 0.8311(2) 0.7276(9) 0.9318(2)
O3 O 0.94113(17) 0.6047(7) 0.85682(17)
C3 C 0.9014(3) 1.0698(10) 1.0056(2)
H2 H 0.9363 1.2059 1.0024
H3 H 0.8551 1.1526 1.0047
O4 O 0.86136(14) 0.3312(6) 0.79000(14)
C4 C 0.9284(3) 0.9159(11) 1.0667(2)
H4 H 0.9363 1.0289 1.1061
H5 H 0.9739 0.8337 1.0663
H6 H 0.8932 0.7821 1.0687
C5 C 0.8824(2) 0.5048(9) 0.8421(2)
C6 C 0.9151(2) 0.2571(10) 0.7557(2)
H7 H 0.9574 0.1789 0.7881
H8 H 0.9312 0.4117 0.7356
C7 C 0.8811(3) 0.0635(10) 0.7015(2)
H9 H 0.9163 0.0111 0.6779
H10 H 0.8396 0.1430 0.6695
H11 H 0.8655 -0.0889 0.7218
C8 C 0.7632(2) 0.3840(8) 0.85689(18)
H12 H 0.7611 0.2674 0.8210
C9 C 0.6458(2) 0.2076(8) 0.86555(19)
C10 C 0.6366(2) 0.0280(9) 0.8131(2)
H13 H 0.6714 0.0193 0.7888
C11 C 0.5772(3) -0.1394(9) 0.7958(2)
H14 H 0.5724 -0.2616 0.7606
C12 C 0.5247(2) -0.1246(9) 0.8313(2)
H15 H 0.4840 -0.2353 0.8199
C13 C 0.5335(2) 0.0560(9) 0.8836(2)
H16 H 0.4982 0.0657 0.9074
C14 C 0.5935(2) 0.2243(8) 0.90175(19)
C15 C 0.6428(2) 0.2639(8) 1.04182(19)
C16 C 0.6294(2) 0.3309(9) 1.1031(3)
H17 H 0.5971 0.4693 1.1030
N2 N 0.6599(3) 0.2097(10) 1.1627(2)
C17 C 0.7043(3) 0.0106(12) 1.1610(2)
H18 H 0.7249 -0.0806 1.2015
C18 C 0.7219(2) -0.0694(9) 1.1032(2)
H19 H 0.7547 -0.2075 1.1049
C19 C 0.6903(2) 0.0572(9) 1.0430(2)
H20 H 0.7008 0.0042 1.0029
loop_
_geom_bond_atom_site_label_1
_geom_bond_atom_site_label_2
_geom_bond_site_symmetry_1
_geom_bond_site_symmetry_2
S1 C14 1_555 1_555
N1 H1 1_555 1_555
O1 C2 1_555 1_555
C1 C2 1_555 1_555
O2 C2 1_555 1_555
O3 C5 1_555 1_555
C3 O1 1_555 1_555
H2 C3 1_555 1_555
H3 C3 1_555 1_555
O4 C5 1_555 1_555
C4 C3 1_555 1_555
H4 C4 1_555 1_555
H5 C4 1_555 1_555
H6 C4 1_555 1_555
C5 C1 1_555 1_555
C6 O4 1_555 1_555
H7 C6 1_555 1_555
H8 C6 1_555 1_555
C7 C6 1_555 1_555
H9 C7 1_555 1_555
H10 C7 1_555 1_555
H11 C7 1_555 1_555
C8 N1 1_555 1_555
H12 C8 1_555 1_555
C9 N1 1_555 1_555
C10 C9 1_555 1_555
H13 C10 1_555 1_555
C11 C10 1_555 1_555
H14 C11 1_555 1_555
C12 C11 1_555 1_555
H15 C12 1_555 1_555
C13 C12 1_555 1_555
H16 C13 1_555 1_555
C14 C9 1_555 1_555
C15 S1 1_555 1_555
C16 C15 1_555 1_555
H17 C16 1_555 1_555
N2 C16 1_555 1_555
C17 N2 1_555 1_555
H18 C17 1_555 1_555
C18 C17 1_555 1_555
H19 C18 1_555 1_555
C19 C15 1_555 1_555
H20 C19 1_555 1_555
C1 C8 1_555 1_555
C13 C14 1_555 1_555
C18 C19 1_555 1_555

#END
