
#######################################################################
#
#                 Cambridge Crystallographic Data Centre
#                                CCDC 
#
#######################################################################
#
# If this CIF has been generated from an entry in the Cambridge 
# Structural Database, then it will include bibliographic, chemical, 
# crystal, experimental, refinement or atomic coordinate data resulting 
# from the CCDC's data processing and validation procedures.
#
#######################################################################

data_OKOLIK
_chemical_formula_moiety         'C15 H12 N2 O2'
_chemical_name_systematic        
1-Methyl-3-phenyl-1,4-diazaspiro[4.5]deca-3,6,9-triene-2,8-dione
_symmetry_cell_setting           triclinic
_symmetry_space_group_name_H-M   'P -1'
_symmetry_Int_Tables_number      2
_space_group_name_Hall           '-P 1'
loop_
_symmetry_equiv_pos_site_id
_symmetry_equiv_pos_as_xyz
1 x,y,z
2 -x,-y,-z
_cell_length_a                   10.2949(4)
_cell_length_b                   11.0431(5)
_cell_length_c                   12.1455(5)
_cell_angle_alpha                90.047(2)
_cell_angle_beta                 109.009(2)
_cell_angle_gamma                105.465(2)
_cell_volume                     1252.39
_exptl_crystal_colour            pink
_exptl_crystal_description       block
_cell_formula_units_Z            4
loop_
_atom_site_label
_atom_site_type_symbol
_atom_site_fract_x
_atom_site_fract_y
_atom_site_fract_z
C1 C 0.77263(12) 0.03996(11) 0.26794(10)
H1 H 0.7393 0.1107 0.2760
C2 C 0.82140(14) -0.02417(13) 0.36489(10)
H2 H 0.8230 0.0040 0.4394
C3 C 0.86753(14) -0.12893(12) 0.35275(11)
H3 H 0.9011 -0.1722 0.4190
C4 C 0.86482(12) -0.17074(11) 0.24389(10)
H4 H 0.8949 -0.2434 0.2356
C5 C 0.81831(12) -0.10665(10) 0.14726(10)
H5 H 0.8173 -0.1351 0.0730
C6 C 0.77289(11) -0.00019(10) 0.15899(9)
C7 C 0.73176(11) 0.07028(9) 0.05689(9)
C8 C 0.62317(11) 0.14431(10) 0.03608(9)
C9 C 0.53185(12) 0.27001(11) -0.12604(11)
H6 H 0.4628 0.2725 -0.0870
H7 H 0.4804 0.2373 -0.2082
H8 H 0.5944 0.3554 -0.1217
C10 C 0.71676(11) 0.14986(10) -0.11440(9)
C11 C 0.82936(11) 0.26429(10) -0.12468(10)
H9 H 0.8838 0.3228 -0.0577
C12 C 0.85534(12) 0.28637(10) -0.22442(10)
H10 H 0.9252 0.3614 -0.2271
C13 C 0.77858(12) 0.19745(11) -0.33085(10)
C14 C 0.66411(13) 0.08754(11) -0.32499(10)
H11 H 0.6090 0.0312 -0.3934
C15 C 0.63551(12) 0.06475(10) -0.22644(9)
H12 H 0.5610 -0.0080 -0.2268
N1 N 0.61759(10) 0.18836(9) -0.06864(8)
N2 N 0.78516(10) 0.07413(8) -0.02557(8)
O1 O 0.55447(9) 0.16046(8) 0.09767(7)
O2 O 0.81068(10) 0.21388(9) -0.41967(8)
C16 C 0.23255(12) 0.40375(11) 0.23425(9)
H13 H 0.2686 0.4908 0.2267
C17 C 0.18541(14) 0.31493(12) 0.13759(10)
H14 H 0.1881 0.3419 0.0639
C18 C 0.13469(13) 0.18756(12) 0.14863(10)
H15 H 0.1025 0.1275 0.0825
C19 C 0.13099(12) 0.14780(11) 0.25629(10)
H16 H 0.0977 0.0604 0.2641
C20 C 0.17583(12) 0.23542(10) 0.35241(10)
H17 H 0.1722 0.2079 0.4257
C21 C 0.22645(11) 0.36414(10) 0.34201(9)
C22 C 0.26672(11) 0.45467(9) 0.44423(9)
C23 C 0.37579(11) 0.58264(10) 0.46652(9)
C24 C 0.46671(12) 0.75284(10) 0.62965(10)
H18 H 0.5402 0.7872 0.5943
H19 H 0.5128 0.7450 0.7127
H20 H 0.4062 0.8096 0.6219
C25 C 0.28071(11) 0.54081(10) 0.61599(9)
C26 C 0.16642(11) 0.59601(10) 0.62817(9)
H21 H 0.1121 0.6291 0.5624
C27 C 0.13880(11) 0.60016(10) 0.72793(9)
H22 H 0.0664 0.6368 0.7314
C28 C 0.21789(12) 0.54926(10) 0.83273(9)
C29 C 0.33582(12) 0.50161(10) 0.82589(9)
H23 H 0.3934 0.4743 0.8940
C30 C 0.36396(12) 0.49572(10) 0.72675(9)
H24 H 0.4393 0.4618 0.7259
N3 N 0.37934(10) 0.62964(8) 0.57066(8)
N4 N 0.21210(10) 0.43184(8) 0.52613(8)
O3 O 0.44621(9) 0.63280(8) 0.40630(7)
O4 O 0.18506(10) 0.54441(9) 0.92161(8)
loop_
_geom_bond_atom_site_label_1
_geom_bond_atom_site_label_2
_geom_bond_site_symmetry_1
_geom_bond_site_symmetry_2
C1 H1 1_555 1_555
C2 C1 1_555 1_555
H2 C2 1_555 1_555
C3 C2 1_555 1_555
H3 C3 1_555 1_555
C4 C3 1_555 1_555
H4 C4 1_555 1_555
C5 C4 1_555 1_555
H5 C5 1_555 1_555
C6 C1 1_555 1_555
C7 C6 1_555 1_555
C8 C7 1_555 1_555
C9 H6 1_555 1_555
H7 C9 1_555 1_555
H8 C9 1_555 1_555
C10 C11 1_555 1_555
C11 H9 1_555 1_555
C12 C11 1_555 1_555
H10 C12 1_555 1_555
C13 C12 1_555 1_555
C14 C13 1_555 1_555
H11 C14 1_555 1_555
C15 C10 1_555 1_555
H12 C15 1_555 1_555
C16 H13 1_555 1_555
C17 C16 1_555 1_555
H14 C17 1_555 1_555
C18 C17 1_555 1_555
H15 C18 1_555 1_555
C19 C18 1_555 1_555
H16 C19 1_555 1_555
C20 C19 1_555 1_555
H17 C20 1_555 1_555
C21 C16 1_555 1_555
C22 C21 1_555 1_555
C23 C22 1_555 1_555
C24 H18 1_555 1_555
H19 C24 1_555 1_555
H20 C24 1_555 1_555
C25 C26 1_555 1_555
C26 H21 1_555 1_555
C27 C26 1_555 1_555
H22 C27 1_555 1_555
C28 C27 1_555 1_555
C29 C28 1_555 1_555
H23 C29 1_555 1_555
C30 C25 1_555 1_555
H24 C30 1_555 1_555
N1 C8 1_555 1_555
N2 C7 1_555 1_555
N3 C23 1_555 1_555
N4 C22 1_555 1_555
O1 C8 1_555 1_555
O2 C13 1_555 1_555
O3 C23 1_555 1_555
O4 C28 1_555 1_555
C5 C6 1_555 1_555
C9 N1 1_555 1_555
C10 N1 1_555 1_555
C10 N2 1_555 1_555
C14 C15 1_555 1_555
C20 C21 1_555 1_555
C24 N3 1_555 1_555
C25 N3 1_555 1_555
C25 N4 1_555 1_555
C29 C30 1_555 1_555

#END
