
#######################################################################
#
#                 Cambridge Crystallographic Data Centre
#                                CCDC 
#
#######################################################################
#
# If this CIF has been generated from an entry in the Cambridge 
# Structural Database, then it will include bibliographic, chemical, 
# crystal, experimental, refinement or atomic coordinate data resulting 
# from the CCDC's data processing and validation procedures.
#
#######################################################################

data_OKOMAE
_chemical_formula_moiety         '2(C13 H9 N5 O7),C6 H15 N1'
_chemical_name_systematic        
'bis(2-(((2,4-dinitrophenyl)hydrazono)methyl)-4-nitrophenol) triethylamine'
_symmetry_cell_setting           monoclinic
_symmetry_space_group_name_H-M   'P 21/c'
_symmetry_Int_Tables_number      14
_space_group_name_Hall           '-P 2ybc'
loop_
_symmetry_equiv_pos_site_id
_symmetry_equiv_pos_as_xyz
1 x,y,z
2 -x,1/2+y,1/2-z
3 -x,-y,-z
4 x,1/2-y,1/2+z
_cell_length_a                   12.3339(18)
_cell_length_b                   37.764(5)
_cell_length_c                   8.2077(12)
_cell_angle_alpha                90
_cell_angle_beta                 109.053(2)
_cell_angle_gamma                90
_cell_volume                     3613.53
_exptl_crystal_colour            red
_exptl_crystal_description       block
_cell_formula_units_Z            4
loop_
_atom_site_label
_atom_site_type_symbol
_atom_site_fract_x
_atom_site_fract_y
_atom_site_fract_z
N1 N 0.1626(3) 0.11296(9) 0.1062(5)
C1 C 0.2757(4) 0.13224(11) 0.1605(7)
H1 H 0.2869 0.1423 0.0584
H2 H 0.2708 0.1518 0.2345
C2 C 0.1725(5) 0.09714(14) -0.1844(7)
H3 H 0.1214 0.1165 -0.2317
H4 H 0.1579 0.0782 -0.2668
H5 H 0.2504 0.1050 -0.1580
C3 C 0.1533(4) 0.08398(13) -0.0193(7)
H6 H 0.0778 0.0733 -0.0485
H7 H 0.2096 0.0659 0.0335
C4 C 0.3797(4) 0.11063(14) 0.2536(8)
H8 H 0.3749 0.1031 0.3628
H9 H 0.4474 0.1247 0.2720
H10 H 0.3833 0.0903 0.1856
C5 C 0.1385(5) 0.09961(14) 0.2666(7)
H11 H 0.1908 0.0804 0.3173
H12 H 0.1527 0.1186 0.3506
C6 C 0.0185(5) 0.08698(17) 0.2272(8)
H13 H -0.0336 0.1058 0.1753
H14 H 0.0063 0.0796 0.3319
H15 H 0.0053 0.0673 0.1490
N2 N 0.0908(4) -0.02592(11) 0.3766(7)
N3 N 0.3580(4) 0.01704(11) 0.9129(5)
N4 N 0.4984(3) 0.04651(9) 0.7162(5)
N5 N 0.5552(3) 0.06121(9) 0.6134(4)
N6 N 0.6719(4) 0.11437(13) 0.1297(6)
O1 O 0.0606(4) -0.02681(13) 0.2203(6)
O2 O 0.0354(3) -0.03881(10) 0.4613(5)
O3 O 0.2976(3) 0.00173(10) 0.9847(4)
O4 O 0.4417(3) 0.03491(9) 0.9957(4)
O5 O 0.8368(3) 0.12036(9) 0.8417(4)
H16 H 0.8907 0.1342 0.8754
O6 O 0.6100(4) 0.08955(12) 0.0642(5)
O7 O 0.6946(3) 0.13876(10) 0.0468(4)
C7 C 0.4003(3) 0.02816(10) 0.6382(5)
C8 C 0.3638(4) 0.02231(10) 0.4600(5)
H17 H 0.4092 0.0305 0.3972
C9 C 0.3305(4) 0.01374(10) 0.7288(6)
C10 C 0.2645(4) 0.00514(10) 0.3752(6)
H18 H 0.2417 0.0021 0.2563
C11 C 0.1979(4) -0.00778(11) 0.4689(6)
C12 C 0.2299(4) -0.00430(11) 0.6429(6)
H19 H 0.1851 -0.0139 0.7037
C13 C 0.7072(3) 0.09686(11) 0.5891(6)
C14 C 0.8008(4) 0.11900(11) 0.6693(6)
C15 C 0.7191(4) 0.11536(11) 0.3159(6)
C16 C 0.6698(4) 0.09476(11) 0.4113(6)
H20 H 0.6107 0.0793 0.3554
C17 C 0.8097(4) 0.13778(12) 0.3948(7)
H21 H 0.8420 0.1517 0.3291
C18 C 0.8513(4) 0.13914(12) 0.5715(7)
H22 H 0.9136 0.1536 0.6262
C19 C 0.6463(4) 0.07850(11) 0.6897(6)
H23 H 0.6740 0.0794 0.8095
H24 H 0.517(4) 0.0507(11) 0.833(5)
N7 N 0.4938(4) 0.20868(10) 0.2030(5)
N8 N 0.4147(4) 0.33301(13) 0.2442(6)
N9 N 0.6977(3) 0.22872(11) 0.1109(5)
N10 N 0.7911(3) 0.23933(9) 0.0662(4)
N11 N 1.1180(3) 0.30265(10) -0.0595(5)
O8 O 0.4099(3) 0.20368(8) 0.2465(5)
O9 O 0.5529(3) 0.18428(9) 0.1767(5)
O10 O 0.3434(3) 0.32377(10) 0.3108(5)
O11 O 0.4290(3) 0.36359(11) 0.2087(6)
O12 O 0.9994(2) 0.16258(7) -0.0236(4)
H25 H 1.0577 0.1506 -0.0041
O13 O 1.2100(3) 0.30911(8) -0.0812(5)
O14 O 1.0532(3) 0.32612(8) -0.0433(5)
C20 C 0.5283(3) 0.24484(11) 0.1855(5)
C21 C 0.4597(3) 0.27097(12) 0.2181(5)
H26 H 0.3955 0.2649 0.2478
C22 C 0.6502(3) 0.28944(11) 0.1312(5)
H27 H 0.7142 0.2961 0.1024
C23 C 0.6276(3) 0.25334(11) 0.1418(5)
C24 C 0.4865(4) 0.30573(12) 0.2067(6)
C25 C 0.5818(4) 0.31511(12) 0.1614(6)
H28 H 0.5987 0.3389 0.1518
C26 C 0.9864(3) 0.25806(11) -0.0166(5)
H29 H 0.9412 0.2762 0.0034
C27 C 1.0838(3) 0.26624(10) -0.0554(5)
C28 C 0.9550(3) 0.22315(10) -0.0072(5)
C29 C 1.0242(3) 0.19593(11) -0.0376(5)
C30 C 1.1525(3) 0.23997(12) -0.0879(5)
H30 H 1.2187 0.2458 -0.1128
C31 C 1.1214(4) 0.20562(12) -0.0827(5)
H31 H 1.1653 0.1880 -0.1095
C32 C 0.8530(3) 0.21477(11) 0.0378(5)
H32 H 0.8331 0.1912 0.0458
H33 H 0.683(3) 0.2092(9) 0.104(5)
loop_
_geom_bond_atom_site_label_1
_geom_bond_atom_site_label_2
_geom_bond_site_symmetry_1
_geom_bond_site_symmetry_2
N1 C1 1_555 1_555
C1 H1 1_555 1_555
H2 C1 1_555 1_555
C2 H3 1_555 1_555
H4 C2 1_555 1_555
H5 C2 1_555 1_555
C3 N1 1_555 1_555
H6 C3 1_555 1_555
H7 C3 1_555 1_555
C4 C1 1_555 1_555
H8 C4 1_555 1_555
H9 C4 1_555 1_555
H10 C4 1_555 1_555
C5 N1 1_555 1_555
H11 C5 1_555 1_555
H12 C5 1_555 1_555
C6 C5 1_555 1_555
H13 C6 1_555 1_555
H14 C6 1_555 1_555
H15 C6 1_555 1_555
N2 O1 1_555 1_555
N3 O3 1_555 1_555
N4 N5 1_555 1_555
N5 C19 1_555 1_555
N6 O6 1_555 1_555
O2 N2 1_555 1_555
O4 N3 1_555 1_555
O5 H16 1_555 1_555
O7 N6 1_555 1_555
C7 N4 1_555 1_555
C8 C7 1_555 1_555
H17 C8 1_555 1_555
C9 N3 1_555 1_555
C10 C8 1_555 1_555
H18 C10 1_555 1_555
C11 N2 1_555 1_555
C12 C9 1_555 1_555
H19 C12 1_555 1_555
C13 C14 1_555 1_555
C14 O5 1_555 1_555
C15 N6 1_555 1_555
C16 C13 1_555 1_555
H20 C16 1_555 1_555
C17 C15 1_555 1_555
H21 C17 1_555 1_555
C18 C14 1_555 1_555
H22 C18 1_555 1_555
C19 C13 1_555 1_555
H23 C19 1_555 1_555
H24 N4 1_555 1_555
N7 O8 1_555 1_555
N8 O10 1_555 1_555
N9 N10 1_555 1_555
N10 C32 1_555 1_555
N11 O13 1_555 1_555
O9 N7 1_555 1_555
O11 N8 1_555 1_555
O12 H25 1_555 1_555
O14 N11 1_555 1_555
C20 N7 1_555 1_555
C21 C20 1_555 1_555
H26 C21 1_555 1_555
C22 H27 1_555 1_555
C23 N9 1_555 1_555
C24 N8 1_555 1_555
C25 C22 1_555 1_555
H28 C25 1_555 1_555
C26 H29 1_555 1_555
C27 N11 1_555 1_555
C28 C26 1_555 1_555
C29 O12 1_555 1_555
C30 C27 1_555 1_555
H30 C30 1_555 1_555
C31 C29 1_555 1_555
H31 C31 1_555 1_555
C32 C28 1_555 1_555
H32 C32 1_555 1_555
H33 N9 1_555 1_555
C2 C3 1_555 1_555
C7 C9 1_555 1_555
C10 C11 1_555 1_555
C11 C12 1_555 1_555
C15 C16 1_555 1_555
C17 C18 1_555 1_555
C20 C23 1_555 1_555
C21 C24 1_555 1_555
C22 C23 1_555 1_555
C24 C25 1_555 1_555
C26 C27 1_555 1_555
C28 C29 1_555 1_555
C30 C31 1_555 1_555

#END
