
#######################################################################
#
#                 Cambridge Crystallographic Data Centre
#                                CCDC 
#
#######################################################################
#
# If this CIF has been generated from an entry in the Cambridge 
# Structural Database, then it will include bibliographic, chemical, 
# crystal, experimental, refinement or atomic coordinate data resulting 
# from the CCDC's data processing and validation procedures.
#
#######################################################################

data_OKOMAD
_chemical_formula_moiety         'C17 H18 N2 O1'
_chemical_name_systematic        
2-(2,6-Dimethylphenyl)-N-methyl-2-(phenylimino)acetamide
_symmetry_cell_setting           monoclinic
_symmetry_space_group_name_H-M   'P 21'
_symmetry_Int_Tables_number      4
_space_group_name_Hall           'P 2yb'
loop_
_symmetry_equiv_pos_site_id
_symmetry_equiv_pos_as_xyz
1 x,y,z
2 -x,1/2+y,-z
_cell_length_a                   9.7481(2)
_cell_length_b                   17.0985(3)
_cell_length_c                   17.9066(3)
_cell_angle_alpha                90
_cell_angle_beta                 102.6870(10)
_cell_angle_gamma                90
_cell_volume                     2911.76
_exptl_crystal_colour            colorless
_exptl_crystal_description       block
_cell_formula_units_Z            8
loop_
_atom_site_label
_atom_site_type_symbol
_atom_site_fract_x
_atom_site_fract_y
_atom_site_fract_z
C1 C -0.1389(2) 0.38087(15) 0.51529(13)
H1 H -0.1886 0.4190 0.5406
H2 H -0.0405 0.3774 0.5431
H3 H -0.1836 0.3295 0.5150
C2 C -0.14480(19) 0.40650(13) 0.43441(12)
C3 C -0.2095(2) 0.47688(13) 0.40785(13)
H4 H -0.2488 0.5087 0.4413
C4 C -0.2170(2) 0.50113(13) 0.33300(14)
H5 H -0.2608 0.5494 0.3156
C5 C -0.1605(2) 0.45465(13) 0.28355(13)
H6 H -0.1686 0.4708 0.2320
C6 C -0.09214(19) 0.38489(12) 0.30857(12)
C7 C -0.0297(2) 0.33608(14) 0.25449(13)
H7 H 0.0731 0.3380 0.2699
H8 H -0.0601 0.3566 0.2024
H9 H -0.0614 0.2818 0.2559
C8 C -0.08276(19) 0.36188(11) 0.38473(11)
C9 C 0.0010(2) 0.29009(12) 0.41303(11)
C10 C -0.0791(2) 0.21454(12) 0.41814(11)
C11 C -0.0555(2) 0.07301(13) 0.43635(14)
H10 H -0.0537 0.0603 0.4899
H11 H 0.0011 0.0348 0.4155
H12 H -0.1528 0.0714 0.4066
C12 C 0.22860(19) 0.34770(12) 0.43122(12)
C13 C 0.2088(2) 0.42228(14) 0.45878(14)
H13 H 0.1251 0.4341 0.4754
C14 C 0.3118(2) 0.47932(13) 0.46187(14)
H14 H 0.2977 0.5301 0.4804
C15 C 0.4349(2) 0.46252(13) 0.43809(12)
H15 H 0.5048 0.5016 0.4402
C16 C 0.4550(2) 0.38856(14) 0.41130(12)
H16 H 0.5391 0.3770 0.3950
C17 C 0.3530(2) 0.33090(13) 0.40796(12)
H17 H 0.3681 0.2801 0.3899
N1 N 0.00177(19) 0.15090(11) 0.43184(11)
H69 H 0.090(2) 0.1558(18) 0.4402(16)
N2 N 0.13520(17) 0.28444(10) 0.43117(10)
O1 O -0.20781(15) 0.21459(9) 0.40939(9)
C18 C 0.1299(2) 0.75513(13) 0.13504(12)
H18 H 0.1060 0.7355 0.0824
H19 H 0.1726 0.8071 0.1358
H20 H 0.0444 0.7586 0.1552
C19 C 0.2321(2) 0.70021(12) 0.18387(11)
C20 C 0.3625(2) 0.72725(14) 0.22490(12)
H21 H 0.3870 0.7807 0.2212
C21 C 0.4563(2) 0.67707(16) 0.27089(13)
H22 H 0.5431 0.6967 0.2997
C22 C 0.4241(2) 0.59818(15) 0.27518(12)
H23 H 0.4895 0.5642 0.3066
C23 C 0.29695(19) 0.56860(13) 0.23378(11)
C24 C 0.2620(2) 0.48305(14) 0.23770(13)
H24 H 0.3337 0.4575 0.2771
H25 H 0.2597 0.4585 0.1880
H26 H 0.1698 0.4775 0.2506
C25 C 0.20095(19) 0.62085(12) 0.18943(11)
C26 C 0.06228(19) 0.58907(11) 0.14813(11)
C27 C 0.06634(18) 0.53838(12) 0.07891(11)
C28 C -0.0573(2) 0.44444(14) -0.01382(13)
H27 H -0.1055 0.4741 -0.0588
H28 H -0.1115 0.3973 -0.0086
H29 H 0.0367 0.4295 -0.0200
C29 C -0.0711(2) 0.64891(13) 0.22728(12)
C30 C -0.1779(2) 0.70507(14) 0.21472(15)
H30 H -0.2349 0.7124 0.1649
C31 C -0.2005(3) 0.75025(16) 0.27569(17)
H31 H -0.2722 0.7889 0.2670
C32 C -0.1195(3) 0.73939(17) 0.34895(16)
H32 H -0.1357 0.7702 0.3903
C33 C -0.0148(3) 0.68321(18) 0.36116(15)
H33 H 0.0407 0.6755 0.4113
C34 C 0.0101(2) 0.63801(15) 0.30113(13)
H34 H 0.0824 0.5997 0.3103
N3 N -0.04476(17) 0.49250(11) 0.05423(10)
H70 H -0.111(2) 0.4962(18) 0.0747(14)
N4 N -0.05812(16) 0.60190(10) 0.16346(10)
O2 O 0.16923(14) 0.54179(9) 0.04952(8)
C35 C 0.1610(2) 0.12995(14) 0.27176(14)
H35 H 0.1845 0.1554 0.3220
H36 H 0.0650 0.1442 0.2457
H37 H 0.2270 0.1471 0.2410
C36 C 0.1708(2) 0.04244(13) 0.28201(12)
C37 C 0.0536(2) -0.00458(15) 0.25565(15)
H38 H -0.0330 0.0187 0.2309
C38 C 0.0618(2) -0.08519(16) 0.26525(15)
H39 H -0.0194 -0.1165 0.2478
C39 C 0.1873(2) -0.12015(14) 0.30003(13)
H40 H 0.1918 -0.1753 0.3062
C40 C 0.3075(2) -0.07500(12) 0.32622(11)
C41 C 0.4425(2) -0.11468(13) 0.36548(13)
H41 H 0.4226 -0.1688 0.3778
H42 H 0.4839 -0.0866 0.4128
H43 H 0.5087 -0.1144 0.3314
C42 C 0.29811(18) 0.00630(12) 0.31702(11)
C43 C 0.42471(19) 0.05559(11) 0.34699(11)
C44 C 0.42359(19) 0.10076(12) 0.42012(11)
C45 C 0.5541(2) 0.18992(14) 0.51639(12)
H44 H 0.4631 0.2098 0.5228
H45 H 0.6186 0.2338 0.5160
H46 H 0.5936 0.1547 0.5588
C46 C 0.54321(19) 0.02233(12) 0.24994(12)
C47 C 0.6632(2) -0.02248(14) 0.24960(12)
H47 H 0.7322 -0.0298 0.2956
C48 C 0.6808(2) -0.05628(14) 0.18167(14)
H48 H 0.7610 -0.0879 0.1817
C49 C 0.5826(2) -0.04426(15) 0.11405(13)
H49 H 0.5961 -0.0668 0.0677
C50 C 0.4641(2) 0.00088(15) 0.11423(12)
H50 H 0.3963 0.0090 0.0679
C51 C 0.4445(2) 0.03410(14) 0.18166(12)
H51 H 0.3634 0.0650 0.1814
N5 N 0.53496(17) 0.14766(10) 0.44464(10)
H71 H 0.598(2) 0.1497(18) 0.4196(14)
N6 N 0.53467(16) 0.06074(10) 0.31952(10)
O3 O 0.32628(15) 0.09272(9) 0.45297(8)
C52 C 0.5481(2) 0.29905(15) 0.24505(13)
H52 H 0.5714 0.3548 0.2460
H53 H 0.5894 0.2758 0.2949
H54 H 0.4457 0.2927 0.2341
C53 C 0.6063(2) 0.25885(13) 0.18378(12)
C54 C 0.6860(2) 0.19072(13) 0.20056(14)
H55 H 0.7063 0.1706 0.2513
C55 C 0.7359(2) 0.15224(14) 0.14372(16)
H56 H 0.7881 0.1052 0.1555
C56 C 0.7102(2) 0.18171(13) 0.06966(15)
H57 H 0.7444 0.1546 0.0312
C57 C 0.63474(19) 0.25047(13) 0.05162(12)
C58 C 0.6079(2) 0.28272(15) -0.02833(13)
H58 H 0.6406 0.2452 -0.0620
H59 H 0.6588 0.3322 -0.0283
H60 H 0.5069 0.2918 -0.0469
C59 C 0.58107(18) 0.28795(12) 0.10874(11)
C60 C 0.49063(19) 0.35881(12) 0.08896(11)
C61 C 0.56562(19) 0.43718(12) 0.08917(11)
C62 C 0.5378(2) 0.57910(13) 0.08860(13)
H61 H 0.6373 0.5798 0.1146
H62 H 0.4846 0.6133 0.1158
H63 H 0.5277 0.5977 0.0359
C63 C 0.26964(18) 0.29405(12) 0.07011(11)
C64 C 0.2911(2) 0.22387(14) 0.03476(14)
H64 H 0.3711 0.2177 0.0131
C65 C 0.1957(2) 0.16308(13) 0.03123(14)
H65 H 0.2109 0.1153 0.0072
C66 C 0.0784(2) 0.17133(13) 0.06242(12)
H66 H 0.0143 0.1292 0.0607
C67 C 0.0555(2) 0.24137(15) 0.09600(13)
H67 H -0.0251 0.2475 0.1171
C68 C 0.1496(2) 0.30300(13) 0.09912(13)
H68 H 0.1317 0.3514 0.1212
N7 N 0.48394(17) 0.49978(10) 0.08778(10)
H72 H 0.3970(19) 0.4934(18) 0.0801(15)
N8 N 0.35599(16) 0.36176(10) 0.07349(10)
O4 O 0.69331(14) 0.43920(9) 0.09080(9)
loop_
_geom_bond_atom_site_label_1
_geom_bond_atom_site_label_2
_geom_bond_site_symmetry_1
_geom_bond_site_symmetry_2
C1 H1 1_555 1_555
H2 C1 1_555 1_555
H3 C1 1_555 1_555
C2 C1 1_555 1_555
C3 C2 1_555 1_555
H4 C3 1_555 1_555
C4 C3 1_555 1_555
H5 C4 1_555 1_555
C5 C4 1_555 1_555
H6 C5 1_555 1_555
C6 C5 1_555 1_555
C7 C6 1_555 1_555
H7 C7 1_555 1_555
H8 C7 1_555 1_555
H9 C7 1_555 1_555
C8 C2 1_555 1_555
C9 C8 1_555 1_555
C10 C9 1_555 1_555
C11 H10 1_555 1_555
H11 C11 1_555 1_555
H12 C11 1_555 1_555
C12 C13 1_555 1_555
C13 H13 1_555 1_555
C14 C13 1_555 1_555
H14 C14 1_555 1_555
C15 C14 1_555 1_555
H15 C15 1_555 1_555
C16 C15 1_555 1_555
H16 C16 1_555 1_555
C17 C12 1_555 1_555
H17 C17 1_555 1_555
C18 H18 1_555 1_555
H19 C18 1_555 1_555
H20 C18 1_555 1_555
C19 C18 1_555 1_555
C20 C19 1_555 1_555
H21 C20 1_555 1_555
C21 C20 1_555 1_555
H22 C21 1_555 1_555
C22 C21 1_555 1_555
H23 C22 1_555 1_555
C23 C22 1_555 1_555
C24 C23 1_555 1_555
H24 C24 1_555 1_555
H25 C24 1_555 1_555
H26 C24 1_555 1_555
C25 C19 1_555 1_555
C26 C25 1_555 1_555
C27 C26 1_555 1_555
C28 H27 1_555 1_555
H28 C28 1_555 1_555
H29 C28 1_555 1_555
C29 C30 1_555 1_555
C30 H30 1_555 1_555
C31 C30 1_555 1_555
H31 C31 1_555 1_555
C32 C31 1_555 1_555
H32 C32 1_555 1_555
C33 C32 1_555 1_555
H33 C33 1_555 1_555
C34 C29 1_555 1_555
H34 C34 1_555 1_555
C35 H35 1_555 1_555
H36 C35 1_555 1_555
H37 C35 1_555 1_555
C36 C35 1_555 1_555
C37 C36 1_555 1_555
H38 C37 1_555 1_555
C38 C37 1_555 1_555
H39 C38 1_555 1_555
C39 C38 1_555 1_555
H40 C39 1_555 1_555
C40 C39 1_555 1_555
C41 C40 1_555 1_555
H41 C41 1_555 1_555
H42 C41 1_555 1_555
H43 C41 1_555 1_555
C42 C36 1_555 1_555
C43 C42 1_555 1_555
C44 C43 1_555 1_555
C45 H44 1_555 1_555
H45 C45 1_555 1_555
H46 C45 1_555 1_555
C46 C47 1_555 1_555
C47 H47 1_555 1_555
C48 C47 1_555 1_555
H48 C48 1_555 1_555
C49 C48 1_555 1_555
H49 C49 1_555 1_555
C50 C49 1_555 1_555
H50 C50 1_555 1_555
C51 C46 1_555 1_555
H51 C51 1_555 1_555
C52 H52 1_555 1_555
H53 C52 1_555 1_555
H54 C52 1_555 1_555
C53 C52 1_555 1_555
C54 C53 1_555 1_555
H55 C54 1_555 1_555
C55 C54 1_555 1_555
H56 C55 1_555 1_555
C56 C55 1_555 1_555
H57 C56 1_555 1_555
C57 C56 1_555 1_555
C58 C57 1_555 1_555
H58 C58 1_555 1_555
H59 C58 1_555 1_555
H60 C58 1_555 1_555
C59 C53 1_555 1_555
C60 C59 1_555 1_555
C61 C60 1_555 1_555
C62 H61 1_555 1_555
H62 C62 1_555 1_555
H63 C62 1_555 1_555
C63 C64 1_555 1_555
C64 H64 1_555 1_555
C65 C64 1_555 1_555
H65 C65 1_555 1_555
C66 C65 1_555 1_555
H66 C66 1_555 1_555
C67 C66 1_555 1_555
H67 C67 1_555 1_555
C68 C63 1_555 1_555
H68 C68 1_555 1_555
N1 C10 1_555 1_555
H69 N1 1_555 1_555
N2 C9 1_555 1_555
N3 C27 1_555 1_555
H70 N3 1_555 1_555
N4 C26 1_555 1_555
N5 C44 1_555 1_555
H71 N5 1_555 1_555
N6 C43 1_555 1_555
N7 C61 1_555 1_555
H72 N7 1_555 1_555
N8 C60 1_555 1_555
O1 C10 1_555 1_555
O2 C27 1_555 1_555
O3 C44 1_555 1_555
O4 C61 1_555 1_555
C6 C8 1_555 1_555
C11 N1 1_555 1_555
C12 N2 1_555 1_555
C16 C17 1_555 1_555
C23 C25 1_555 1_555
C28 N3 1_555 1_555
C29 N4 1_555 1_555
C33 C34 1_555 1_555
C40 C42 1_555 1_555
C45 N5 1_555 1_555
C46 N6 1_555 1_555
C50 C51 1_555 1_555
C57 C59 1_555 1_555
C62 N7 1_555 1_555
C63 N8 1_555 1_555
C67 C68 1_555 1_555

#END
