
#######################################################################
#
#                 Cambridge Crystallographic Data Centre
#                                CCDC 
#
#######################################################################
#
# If this CIF has been generated from an entry in the Cambridge 
# Structural Database, then it will include bibliographic, chemical, 
# crystal, experimental, refinement or atomic coordinate data resulting 
# from the CCDC's data processing and validation procedures.
#
#######################################################################

data_OKOMEI
_chemical_formula_moiety         'C11 H10 N2 O1 S1'
_chemical_name_systematic        4-((pyridin-4-ylmethyl)sulfinyl)pyridine
_symmetry_cell_setting           monoclinic
_symmetry_space_group_name_H-M   'P c'
_symmetry_Int_Tables_number      7
_space_group_name_Hall           'P -2yc'
loop_
_symmetry_equiv_pos_site_id
_symmetry_equiv_pos_as_xyz
1 x,y,z
2 x,-y,1/2+z
_cell_length_a                   12.050(3)
_cell_length_b                   5.5218(13)
_cell_length_c                   8.1813(19)
_cell_angle_alpha                90
_cell_angle_beta                 107.934(6)
_cell_angle_gamma                90
_cell_volume                     517.915
_exptl_crystal_colour            colorless
_exptl_crystal_description       Block
_cell_formula_units_Z            2
loop_
_atom_site_label
_atom_site_type_symbol
_atom_site_fract_x
_atom_site_fract_y
_atom_site_fract_z
S1 S 0.68510(10) 0.34112(18) 0.94007(13)
O1 O 0.7049(3) 0.6036(5) 0.9788(5)
N1 N 0.3143(3) 0.1820(7) 0.9437(6)
N2 N 1.1312(3) 0.3012(8) 1.2017(6)
C1 C 0.3725(4) 0.0288(9) 0.8731(7)
H1 H 0.3345 -0.1107 0.8208
C2 C 0.4857(4) 0.0664(8) 0.8739(6)
H2 H 0.5233 -0.0461 0.8248
C3 C 0.5418(3) 0.2741(7) 0.9488(5)
C4 C 0.4832(4) 0.4372(8) 1.0202(6)
H3 H 0.5187 0.5801 1.0702
C5 C 0.3701(4) 0.3824(9) 1.0154(7)
H4 H 0.3309 0.4912 1.0649
C6 C 0.7654(3) 0.1678(7) 1.1350(5)
H5 H 0.7439 0.2228 1.2338
H6 H 0.7483 -0.0038 1.1186
C7 C 0.8946(3) 0.2156(7) 1.1610(5)
C8 C 0.9586(4) 0.0597(8) 1.0923(6)
H7 H 0.9238 -0.0767 1.0309
C9 C 1.0747(4) 0.1098(9) 1.1162(7)
H8 H 1.1164 0.0028 1.0695
C10 C 1.0683(4) 0.4506(9) 1.2666(7)
H9 H 1.1051 0.5865 1.3263
C11 C 0.9522(4) 0.4156(8) 1.2504(6)
H10 H 0.9128 0.5251 1.2990
loop_
_geom_bond_atom_site_label_1
_geom_bond_atom_site_label_2
_geom_bond_site_symmetry_1
_geom_bond_site_symmetry_2
S1 O1 1_555 1_555
N1 C1 1_555 1_555
N2 C9 1_555 1_555
C1 H1 1_555 1_555
C2 C1 1_555 1_555
H2 C2 1_555 1_555
C3 S1 1_555 1_555
C4 C3 1_555 1_555
H3 C4 1_555 1_555
C5 N1 1_555 1_555
H4 C5 1_555 1_555
C6 S1 1_555 1_555
H5 C6 1_555 1_555
H6 C6 1_555 1_555
C7 C6 1_555 1_555
C8 C7 1_555 1_555
H7 C8 1_555 1_555
C9 C8 1_555 1_555
H8 C9 1_555 1_555
C10 N2 1_555 1_555
H9 C10 1_555 1_555
C11 C7 1_555 1_555
H10 C11 1_555 1_555
C2 C3 1_555 1_555
C4 C5 1_555 1_555
C10 C11 1_555 1_555

#END
