
#######################################################################
#
#                 Cambridge Crystallographic Data Centre
#                                CCDC 
#
#######################################################################
#
# If this CIF has been generated from an entry in the Cambridge 
# Structural Database, then it will include bibliographic, chemical, 
# crystal, experimental, refinement or atomic coordinate data resulting 
# from the CCDC's data processing and validation procedures.
#
#######################################################################

data_OKONAF
_chemical_formula_moiety         'C32 H28 N2 O2'
_chemical_name_systematic        
2-(2-(2,5-diethoxy-4-(2-(quinolin-2-yl)vinyl)phenyl)vinyl)quinoline
_symmetry_cell_setting           monoclinic
_symmetry_space_group_name_H-M   'P 21/n'
_symmetry_Int_Tables_number      14
_space_group_name_Hall           '-P 2yn'
loop_
_symmetry_equiv_pos_site_id
_symmetry_equiv_pos_as_xyz
1 x,y,z
2 1/2-x,1/2+y,1/2-z
3 -x,-y,-z
4 1/2+x,1/2-y,1/2+z
_cell_length_a                   10.1291(10)
_cell_length_b                   25.731(3)
_cell_length_c                   10.2395(10)
_cell_angle_alpha                90
_cell_angle_beta                 106.5210(10)
_cell_angle_gamma                90
_cell_volume                     2558.56
_exptl_crystal_colour            yellow
_exptl_crystal_description       block
_cell_formula_units_Z            4
loop_
_atom_site_label
_atom_site_type_symbol
_atom_site_fract_x
_atom_site_fract_y
_atom_site_fract_z
N1 N 1.26448(12) 0.24469(5) 0.06776(13)
N2 N 0.57818(13) 0.63842(5) 0.05250(14)
O1 O 0.71317(12) 0.42498(4) -0.16557(12)
C1 C 1.27378(15) 0.28603(5) 0.14697(16)
C2 C 0.46787(16) 0.67175(6) 0.01821(16)
C3 C 0.34705(16) 0.66147(6) -0.08773(16)
C4 C 1.49045(15) 0.21669(6) 0.20613(16)
C5 C 0.81633(16) 0.47726(6) 0.02420(17)
C6 C 1.37232(16) 0.21058(5) 0.09452(15)
C7 C 1.15720(16) 0.32192(6) 0.10803(16)
H1 H 1.0811 0.3108 0.0391
C8 C 1.38990(16) 0.29495(6) 0.25971(16)
H2 H 1.3936 0.3243 0.3136
C9 C 0.57004(16) 0.59479(6) -0.01846(16)
C10 C 0.34379(17) 0.61488(6) -0.16104(17)
H3 H 0.2665 0.6065 -0.2321
C11 C 0.92136(17) 0.48509(6) 0.14439(18)
H4 H 0.9197 0.5148 0.1957
C12 C 1.03364(16) 0.40512(6) 0.11323(17)
C13 C 0.82100(16) 0.43196(6) -0.05081(16)
C14 C 1.49585(17) 0.26069(6) 0.28918(17)
H5 H 1.5719 0.2662 0.3640
C15 C 1.14797(16) 0.36840(6) 0.15992(17)
H6 H 1.2210 0.3788 0.2331
C16 C 0.47551(18) 0.71787(6) 0.09518(18)
H7 H 0.5551 0.7255 0.1643
C17 C 0.68798(17) 0.55988(6) 0.02623(17)
H8 H 0.7621 0.5718 0.0963
C18 C 0.45316(17) 0.58244(6) -0.12791(17)
H9 H 0.4517 0.5520 -0.1771
O2 O 1.13131(13) 0.45513(4) 0.30938(13)
C19 C 0.92933(16) 0.39756(6) -0.00774(17)
H10 H 0.9328 0.3686 -0.0609
C20 C 1.02797(17) 0.44995(6) 0.18945(18)
C21 C 0.23675(18) 0.69695(6) -0.11230(19)
H11 H 0.1565 0.6904 -0.1817
C22 C 1.36469(18) 0.16822(6) 0.00561(17)
H12 H 1.2868 0.1638 -0.0680
C23 C 0.70037(17) 0.51320(6) -0.02251(18)
H13 H 0.6273 0.5019 -0.0945
C24 C 1.59720(18) 0.17946(7) 0.22676(19)
H14 H 1.6748 0.1825 0.3013
C25 C 0.2465(2) 0.74068(7) -0.0356(2)
H15 H 0.1727 0.7637 -0.0524
C26 C 0.70875(18) 0.37834(6) -0.24238(17)
H16 H 0.7158 0.3482 -0.1837
H17 H 0.7849 0.3776 -0.2822
C27 C 1.4708(2) 0.13347(7) 0.0266(2)
H18 H 1.4656 0.1060 -0.0337
C28 C 0.3661(2) 0.75122(6) 0.0681(2)
H19 H 0.3717 0.7814 0.1195
C29 C 1.5871(2) 0.13923(7) 0.1384(2)
H20 H 1.6585 0.1152 0.1526
C30 C 1.1431(2) 0.50111(7) 0.3832(2)
H21 H 1.0611 0.5065 0.4124
H22 H 1.1530 0.5303 0.3267
C31 C 0.5747(2) 0.37750(8) -0.3521(2)
H23 H 0.5001 0.3791 -0.3117
H24 H 0.5679 0.3460 -0.4038
H25 H 0.5700 0.4068 -0.4111
C32 C 1.2668(3) 0.49741(9) 0.5047(2)
H26 H 1.2566 0.4683 0.5597
H27 H 1.2753 0.5288 0.5573
H28 H 1.3478 0.4928 0.4750
loop_
_geom_bond_atom_site_label_1
_geom_bond_atom_site_label_2
_geom_bond_site_symmetry_1
_geom_bond_site_symmetry_2
N1 C1 1_555 1_555
N2 C2 1_555 1_555
O1 C13 1_555 1_555
C1 C7 1_555 1_555
C2 C3 1_555 1_555
C3 C10 1_555 1_555
C4 C6 1_555 1_555
C5 C11 1_555 1_555
C6 N1 1_555 1_555
C7 H1 1_555 1_555
C8 C1 1_555 1_555
H2 C8 1_555 1_555
C9 N2 1_555 1_555
C10 H3 1_555 1_555
C11 H4 1_555 1_555
C12 C15 1_555 1_555
C13 C5 1_555 1_555
C14 C4 1_555 1_555
H5 C14 1_555 1_555
C15 C7 1_555 1_555
H6 C15 1_555 1_555
C16 C2 1_555 1_555
H7 C16 1_555 1_555
C17 C9 1_555 1_555
H8 C17 1_555 1_555
C18 C9 1_555 1_555
H9 C18 1_555 1_555
O2 C20 1_555 1_555
C19 C12 1_555 1_555
H10 C19 1_555 1_555
C20 C11 1_555 1_555
C21 C3 1_555 1_555
H11 C21 1_555 1_555
C22 C6 1_555 1_555
H12 C22 1_555 1_555
C23 C5 1_555 1_555
H13 C23 1_555 1_555
C24 C4 1_555 1_555
H14 C24 1_555 1_555
C25 C21 1_555 1_555
H15 C25 1_555 1_555
C26 O1 1_555 1_555
H16 C26 1_555 1_555
H17 C26 1_555 1_555
C27 C22 1_555 1_555
H18 C27 1_555 1_555
C28 C16 1_555 1_555
H19 C28 1_555 1_555
C29 C24 1_555 1_555
H20 C29 1_555 1_555
C30 O2 1_555 1_555
H21 C30 1_555 1_555
H22 C30 1_555 1_555
C31 C26 1_555 1_555
H23 C31 1_555 1_555
H24 C31 1_555 1_555
H25 C31 1_555 1_555
C32 C30 1_555 1_555
H26 C32 1_555 1_555
H27 C32 1_555 1_555
H28 C32 1_555 1_555
C8 C14 1_555 1_555
C10 C18 1_555 1_555
C12 C20 1_555 1_555
C13 C19 1_555 1_555
C17 C23 1_555 1_555
C25 C28 1_555 1_555
C27 C29 1_555 1_555

#END
