
#######################################################################
#
#                 Cambridge Crystallographic Data Centre
#                                CCDC 
#
#######################################################################
#
# If this CIF has been generated from an entry in the Cambridge 
# Structural Database, then it will include bibliographic, chemical, 
# crystal, experimental, refinement or atomic coordinate data resulting 
# from the CCDC's data processing and validation procedures.
#
#######################################################################

data_OKOPUA
_chemical_formula_moiety         'C26 H48 O4 Si1'
_chemical_name_systematic        
(+-)-3'-(2-Hydroxypropan-2-yl)-4-(((triisopropylsilyl)oxy)methyl)-7-vinylspiro[bicyclo[2.2.1]heptane-2,1'-cyclopentane]-2',3-diol
_symmetry_cell_setting           triclinic
_symmetry_space_group_name_H-M   'P -1'
_symmetry_Int_Tables_number      2
_space_group_name_Hall           '-P 1'
loop_
_symmetry_equiv_pos_site_id
_symmetry_equiv_pos_as_xyz
1 x,y,z
2 -x,-y,-z
_cell_length_a                   7.8543(16)
_cell_length_b                   12.234(2)
_cell_length_c                   14.429(3)
_cell_angle_alpha                98.59(3)
_cell_angle_beta                 99.50(3)
_cell_angle_gamma                95.83(3)
_cell_volume                     1340.75
_exptl_crystal_colour            colorless
_exptl_crystal_description       parallelepiped
_cell_formula_units_Z            2
loop_
_atom_site_label
_atom_site_type_symbol
_atom_site_fract_x
_atom_site_fract_y
_atom_site_fract_z
Si1 Si 0.26177(10) 0.84702(6) 0.16469(6)
O1 O 0.3400(3) 0.61657(16) 0.40874(14)
H1 H 0.2808 0.6611 0.4318
O2 O 0.1739(3) 0.45736(16) 0.48391(13)
H2 H 0.2291 0.5192 0.4887
O3 O -0.0415(3) 0.30363(18) 0.53055(17)
H3 H 0.0133 0.3663 0.5413
O4 O 0.2664(2) 0.71916(15) 0.18716(14)
C1 C 0.2500(4) 0.4659(2) 0.1632(2)
H4 H 0.1325 0.4866 0.1485
C2 C 0.2504(4) 0.3760(2) 0.22850(19)
H5 H 0.1848 0.3038 0.1973
C3 C 0.1731(3) 0.4353(2) 0.31202(18)
C4 C 0.2481(3) 0.5604(2) 0.31710(19)
H6 H 0.1512 0.6012 0.2971
C5 C 0.3644(3) 0.5563(2) 0.2417(2)
C6 C 0.4457(4) 0.3732(2) 0.2580(2)
H7 H 0.4917 0.3304 0.2078
H8 H 0.4707 0.3414 0.3157
C7 C 0.5218(4) 0.4975(2) 0.2751(2)
H9 H 0.5695 0.5242 0.3420
H10 H 0.6123 0.5095 0.2380
C8 C -0.0281(3) 0.4166(2) 0.2901(2)
H11 H -0.0747 0.4777 0.3243
H12 H -0.0706 0.4116 0.2223
C9 C -0.0827(4) 0.3077(3) 0.3225(2)
H13 H -0.1241 0.2490 0.2679
H14 H -0.1753 0.3163 0.3590
C10 C 0.0790(4) 0.2792(2) 0.38453(19)
H15 H 0.1265 0.2224 0.3445
C11 C 0.2099(3) 0.3849(2) 0.40398(19)
H16 H 0.3297 0.3673 0.4160
C12 C 0.3186(5) 0.4383(3) 0.0732(2)
H17 H 0.4333 0.4233 0.0788
C13 C 0.2320(6) 0.4335(4) -0.0119(3)
H18 H 0.1170 0.4479 -0.0207
H19 H 0.2847 0.4156 -0.0644
C14 C 0.4160(4) 0.6674(2) 0.2151(2)
H20 H 0.4917 0.7150 0.2691
H21 H 0.4798 0.6573 0.1630
C15 C 0.3125(6) 0.8536(3) 0.0427(2)
H22 H 0.2881 0.9268 0.0280
C16 C 0.1962(9) 0.7670(5) -0.0340(3)
H23 H 0.2173 0.7791 -0.0955
H24 H 0.0764 0.7732 -0.0305
H25 H 0.2211 0.6939 -0.0244
C17 C 0.5040(7) 0.8459(4) 0.0363(3)
H26 H 0.5327 0.7745 0.0488
H27 H 0.5767 0.9036 0.0826
H28 H 0.5224 0.8549 -0.0264
C18 C 0.0316(5) 0.8723(4) 0.1646(4)
H29 H -0.0270 0.8298 0.1025
C19 C -0.0582(6) 0.8206(5) 0.2279(4)
H30 H -0.0061 0.8522 0.2926
H31 H -0.0509 0.7420 0.2175
H32 H -0.1782 0.8328 0.2164
C20 C -0.0064(6) 0.9884(4) 0.1543(4)
H33 H -0.1294 0.9912 0.1482
H34 H 0.0321 1.0082 0.0985
H35 H 0.0539 1.0399 0.2095
C21 C 0.4301(4) 0.9448(2) 0.2563(2)
H36 H 0.5415 0.9164 0.2527
C22 C 0.4019(6) 0.9438(4) 0.3579(3)
H37 H 0.5000 0.9861 0.4017
H38 H 0.3896 0.8683 0.3694
H39 H 0.2982 0.9762 0.3668
C23 C 0.4540(6) 1.0640(3) 0.2369(3)
H40 H 0.3482 1.0961 0.2400
H41 H 0.4822 1.0636 0.1746
H42 H 0.5467 1.1072 0.2839
C24 C 0.0438(4) 0.2293(2) 0.4728(2)
C25 C 0.2123(5) 0.2074(3) 0.5310(3)
H43 H 0.2875 0.2764 0.5536
H44 H 0.2687 0.1575 0.4919
H45 H 0.1874 0.1743 0.5844
C26 C -0.0828(5) 0.1230(3) 0.4429(3)
H46 H -0.1055 0.0941 0.4985
H47 H -0.0334 0.0690 0.4036
H48 H -0.1897 0.1386 0.4075
loop_
_geom_bond_atom_site_label_1
_geom_bond_atom_site_label_2
_geom_bond_site_symmetry_1
_geom_bond_site_symmetry_2
Si1 O4 1_555 1_555
O1 H1 1_555 1_555
O2 H2 1_555 1_555
O3 H3 1_555 1_555
O4 C14 1_555 1_555
C1 H4 1_555 1_555
C2 C1 1_555 1_555
H5 C2 1_555 1_555
C3 C2 1_555 1_555
C4 O1 1_555 1_555
H6 C4 1_555 1_555
C5 C1 1_555 1_555
C6 C2 1_555 1_555
H7 C6 1_555 1_555
H8 C6 1_555 1_555
C7 C5 1_555 1_555
H9 C7 1_555 1_555
H10 C7 1_555 1_555
C8 C3 1_555 1_555
H11 C8 1_555 1_555
H12 C8 1_555 1_555
C9 C8 1_555 1_555
H13 C9 1_555 1_555
H14 C9 1_555 1_555
C10 C9 1_555 1_555
H15 C10 1_555 1_555
C11 O2 1_555 1_555
H16 C11 1_555 1_555
C12 C1 1_555 1_555
H17 C12 1_555 1_555
C13 C12 1_555 1_555
H18 C13 1_555 1_555
H19 C13 1_555 1_555
C14 C5 1_555 1_555
H20 C14 1_555 1_555
H21 C14 1_555 1_555
C15 Si1 1_555 1_555
H22 C15 1_555 1_555
C16 C15 1_555 1_555
H23 C16 1_555 1_555
H24 C16 1_555 1_555
H25 C16 1_555 1_555
C17 C15 1_555 1_555
H26 C17 1_555 1_555
H27 C17 1_555 1_555
H28 C17 1_555 1_555
C18 Si1 1_555 1_555
H29 C18 1_555 1_555
C19 C18 1_555 1_555
H30 C19 1_555 1_555
H31 C19 1_555 1_555
H32 C19 1_555 1_555
C20 C18 1_555 1_555
H33 C20 1_555 1_555
H34 C20 1_555 1_555
H35 C20 1_555 1_555
C21 Si1 1_555 1_555
H36 C21 1_555 1_555
C22 C21 1_555 1_555
H37 C22 1_555 1_555
H38 C22 1_555 1_555
H39 C22 1_555 1_555
C23 C21 1_555 1_555
H40 C23 1_555 1_555
H41 C23 1_555 1_555
H42 C23 1_555 1_555
C24 O3 1_555 1_555
C25 C24 1_555 1_555
H43 C25 1_555 1_555
H44 C25 1_555 1_555
H45 C25 1_555 1_555
C26 C24 1_555 1_555
H46 C26 1_555 1_555
H47 C26 1_555 1_555
H48 C26 1_555 1_555
C3 C4 1_555 1_555
C3 C11 1_555 1_555
C4 C5 1_555 1_555
C6 C7 1_555 1_555
C10 C11 1_555 1_555
C10 C24 1_555 1_555

#END
