
#######################################################################
#
#                 Cambridge Crystallographic Data Centre
#                                CCDC 
#
#######################################################################
#
# If this CIF has been generated from an entry in the Cambridge 
# Structural Database, then it will include bibliographic, chemical, 
# crystal, experimental, refinement or atomic coordinate data resulting 
# from the CCDC's data processing and validation procedures.
#
#######################################################################

data_OKOROX
_chemical_formula_moiety         'C50 H40 N2 O6 S1,0.5(C6 H5 Cl1)'
_chemical_name_systematic        
"4,4'-thieno[3,4-b][1,4]benzodioxine-1,3-diylbis(N,N-bis(4-methoxyphenyl)aniline) chlorobenzene solvate"
_symmetry_cell_setting           triclinic
_symmetry_space_group_name_H-M   'P -1'
_symmetry_Int_Tables_number      2
_space_group_name_Hall           '-P 1'
loop_
_symmetry_equiv_pos_site_id
_symmetry_equiv_pos_as_xyz
1 x,y,z
2 -x,-y,-z
_cell_length_a                   11.2405(4)
_cell_length_b                   13.9587(4)
_cell_length_c                   14.8285(5)
_cell_angle_alpha                72.468(3)
_cell_angle_beta                 82.247(3)
_cell_angle_gamma                74.844(3)
_cell_volume                     2137.4
_exptl_crystal_colour            yellow
_exptl_crystal_description       block
_cell_formula_units_Z            2
loop_
_atom_site_label
_atom_site_type_symbol
_atom_site_fract_x
_atom_site_fract_y
_atom_site_fract_z
S1 S 0.39453(3) 0.30568(3) 0.04265(3)
N1 N 0.17846(12) 0.58650(10) 0.35174(10)
N2 N 0.53171(12) -0.01456(10) -0.23679(9)
O1 O 0.66830(10) 0.39658(9) 0.09566(8)
O2 O 0.74516(10) 0.26217(9) -0.02667(8)
O3 O 0.41193(11) 0.77302(9) 0.53773(8)
O4 O -0.33745(10) 0.67157(8) 0.38177(8)
O5 O 0.94717(11) -0.23707(10) -0.40030(8)
O6 O 0.09961(10) -0.05777(9) -0.34948(9)
C1 C 0.94950(15) 0.27696(14) -0.02643(12)
H1 H 0.9748 0.2329 -0.0669
C2 C 1.03557(16) 0.31492(15) 0.00239(13)
H2 H 1.1200 0.2969 -0.0184
C3 C 0.99937(17) 0.37878(15) 0.06110(13)
H3 H 1.0589 0.4043 0.0810
C4 C 0.87593(16) 0.40580(13) 0.09109(12)
H4 H 0.8506 0.4504 0.1310
C5 C 0.79013(14) 0.36766(12) 0.06268(11)
C6 C 0.82689(15) 0.30323(12) 0.00374(11)
C7 C 0.62427(14) 0.28934(12) 0.00651(11)
C8 C 0.58644(14) 0.35587(11) 0.06563(10)
C9 C 0.46424(14) 0.37217(11) 0.09396(10)
C10 C 0.39291(14) 0.42762(11) 0.16056(10)
C11 C 0.28752(15) 0.39805(12) 0.21102(11)
H5 H 0.2633 0.3416 0.2016
C12 C 0.21822(15) 0.44903(12) 0.27402(11)
H6 H 0.1477 0.4269 0.3077
C13 C 0.25070(14) 0.53276(12) 0.28871(11)
C14 C 0.35721(14) 0.56102(12) 0.24058(11)
H7 H 0.3820 0.6167 0.2510
C15 C 0.42740(14) 0.50931(11) 0.17790(11)
H8 H 0.4999 0.5296 0.1463
C16 C 0.23793(14) 0.63282(12) 0.40149(11)
C17 C 0.21701(15) 0.73931(12) 0.38089(12)
H9 H 0.1620 0.7822 0.3336
C18 C 0.31764(14) 0.57149(12) 0.47088(11)
H10 H 0.3313 0.4984 0.4863
C19 C 0.27519(15) 0.78365(12) 0.42836(12)
H11 H 0.2592 0.8567 0.4143
C20 C 0.37801(14) 0.61519(12) 0.51832(11)
H12 H 0.4333 0.5722 0.5653
C21 C 0.35720(14) 0.72156(12) 0.49680(11)
C22 C 0.50495(17) 0.71270(15) 0.60137(14)
H13 H 0.5702 0.6709 0.5689
H14 H 0.4687 0.6671 0.6559
H15 H 0.5401 0.7585 0.6233
C23 C 0.04743(14) 0.60948(12) 0.35577(11)
C24 C -0.01716(15) 0.61716(13) 0.27960(12)
H16 H 0.0270 0.6088 0.2221
C25 C -0.14539(15) 0.63686(13) 0.28574(12)
H17 H -0.1879 0.6399 0.2334
C26 C -0.21090(14) 0.65197(11) 0.36805(11)
C27 C -0.14757(14) 0.64764(12) 0.44370(11)
H18 H -0.1922 0.6597 0.4999
C28 C -0.02010(14) 0.62593(12) 0.43805(11)
H19 H 0.0221 0.6222 0.4908
C29 C -0.40455(16) 0.66651(14) 0.30902(13)
H20 H -0.3908 0.7194 0.2504
H21 H -0.4928 0.6787 0.3284
H22 H -0.3761 0.5980 0.2983
C30 C 0.53168(14) 0.25319(11) -0.01294(10)
C31 C 0.53317(14) 0.18383(11) -0.07008(10)
C32 C 0.43404(15) 0.13820(12) -0.06364(11)
H23 H 0.3651 0.1525 -0.0210
C33 C 0.43371(15) 0.07325(12) -0.11741(11)
H24 H 0.3650 0.0435 -0.1112
C34 C 0.63233(15) 0.16010(12) -0.13345(11)
H25 H 0.7016(17) 0.1888(13) -0.1407(12)
C35 C 0.63253(15) 0.09514(12) -0.18756(11)
H26 H 0.7016 0.0806 -0.2300
C36 C 0.53340(14) 0.05052(11) -0.18115(11)
C37 C 0.64176(14) -0.06808(12) -0.27711(11)
C38 C 0.74465(14) -0.12026(12) -0.22512(11)
H27 H 0.7433 -0.1179 -0.1616
C39 C 0.84966(15) -0.17585(12) -0.26386(11)
H28 H 0.9202 -0.2093 -0.2279
C40 C 0.85037(15) -0.18194(12) -0.35534(11)
C41 C 0.74860(16) -0.12987(14) -0.40809(12)
H29 H 0.7494 -0.1336 -0.4711
C42 C 0.64597(15) -0.07255(13) -0.37001(12)
H30 H 0.5775 -0.0358 -0.4076
C43 C 1.05363(16) -0.29190(15) -0.34874(14)
H31 H 1.1163 -0.3259 -0.3890
H32 H 1.0313 -0.3441 -0.2926
H33 H 1.0868 -0.2436 -0.3290
C44 C 0.41655(14) -0.02188(12) -0.26224(10)
C45 C 0.39327(15) -0.11857(12) -0.24718(11)
H34 H 0.4510 -0.1788 -0.2161
C46 C 0.28696(15) -0.12772(12) -0.27697(12)
H35 H 0.2724 -0.1942 -0.2673
C47 C 0.20092(14) -0.04011(12) -0.32114(11)
C48 C 0.33016(15) 0.06498(13) -0.30484(11)
H36 H 0.3450(16) 0.1309(15) -0.3158(13)
C49 C 0.22121(15) 0.05669(12) -0.33311(11)
H37 H 0.1610 0.1171 -0.3605
C50 C 0.00620(18) 0.03022(15) -0.39008(17)
H38 H 0.0401 0.0718 -0.4487
H39 H -0.0229 0.0718 -0.3453
H40 H -0.0630 0.0076 -0.4043
C51? C 0.0088(5) 0.0104(3) 0.0575(3)
C52? C -0.1016(3) -0.0009(3) 0.0342(4)
H41? H -0.1738 0.0064 0.0766
C53? C -0.1073(5) -0.0229(4) -0.0503(5)
H42? H -0.1835 -0.0307 -0.0663
C54? C -0.0027(7) -0.0335(5) -0.1116(4)
H43? H -0.0067 -0.0487 -0.1699
C55? C 0.1076(5) -0.0223(4) -0.0883(4)
H44? H 0.1799 -0.0296 -0.1307
C56? C 0.1134(3) -0.0003(4) -0.0038(5)
H45? H 0.1896 0.0075 0.0122
Cl1? Cl 0.0274(4) 0.0512(4) 0.1541(2)
C57? C 0.0143(5) 0.0046(3) 0.0628(3)
C58? C 0.1053(3) -0.0069(4) -0.0104(4)
H46? H 0.1852 -0.0028 -0.0051
C59? C 0.0752(6) -0.0238(4) -0.0913(4)
H47? H 0.1349 -0.0309 -0.1403
C60? C -0.0443(7) -0.0299(4) -0.0991(4)
H48? H -0.0645 -0.0412 -0.1533
C61? C -0.1320(7) -0.0189(5) -0.0254(6)
H49? H -0.2118 -0.0231 -0.0310
C62? C -0.1035(4) -0.0024(4) 0.0550(4)
H50? H -0.1633 0.0047 0.1039
Cl2? Cl 0.0460(3) 0.0152(5) 0.1685(3)
loop_
_geom_bond_atom_site_label_1
_geom_bond_atom_site_label_2
_geom_bond_site_symmetry_1
_geom_bond_site_symmetry_2
S1 C9 1_555 1_555
N1 C13 1_555 1_555
N2 C36 1_555 1_555
O1 C5 1_555 1_555
O2 C6 1_555 1_555
O3 C21 1_555 1_555
O4 C26 1_555 1_555
O5 C40 1_555 1_555
O6 C47 1_555 1_555
C1 H1 1_555 1_555
C2 C1 1_555 1_555
H2 C2 1_555 1_555
C3 C2 1_555 1_555
H3 C3 1_555 1_555
C4 C3 1_555 1_555
H4 C4 1_555 1_555
C5 C4 1_555 1_555
C6 C1 1_555 1_555
C7 O2 1_555 1_555
C8 O1 1_555 1_555
C9 C8 1_555 1_555
C10 C9 1_555 1_555
C11 C10 1_555 1_555
H5 C11 1_555 1_555
C12 C11 1_555 1_555
H6 C12 1_555 1_555
C13 C12 1_555 1_555
C14 C13 1_555 1_555
H7 C14 1_555 1_555
C15 C10 1_555 1_555
H8 C15 1_555 1_555
C16 N1 1_555 1_555
C17 C16 1_555 1_555
H9 C17 1_555 1_555
C18 C16 1_555 1_555
H10 C18 1_555 1_555
C19 C17 1_555 1_555
H11 C19 1_555 1_555
C20 C18 1_555 1_555
H12 C20 1_555 1_555
C21 C19 1_555 1_555
C22 O3 1_555 1_555
H13 C22 1_555 1_555
H14 C22 1_555 1_555
H15 C22 1_555 1_555
C23 N1 1_555 1_555
C24 C23 1_555 1_555
H16 C24 1_555 1_555
C25 C24 1_555 1_555
H17 C25 1_555 1_555
C26 C25 1_555 1_555
C27 C26 1_555 1_555
H18 C27 1_555 1_555
C28 C23 1_555 1_555
H19 C28 1_555 1_555
C29 O4 1_555 1_555
H20 C29 1_555 1_555
H21 C29 1_555 1_555
H22 C29 1_555 1_555
C30 S1 1_555 1_555
C31 C30 1_555 1_555
C32 C31 1_555 1_555
H23 C32 1_555 1_555
C33 C32 1_555 1_555
H24 C33 1_555 1_555
C34 C31 1_555 1_555
H25 C34 1_555 1_555
C35 C34 1_555 1_555
H26 C35 1_555 1_555
C36 C33 1_555 1_555
C37 N2 1_555 1_555
C38 C37 1_555 1_555
H27 C38 1_555 1_555
C39 C38 1_555 1_555
H28 C39 1_555 1_555
C40 C39 1_555 1_555
C41 C40 1_555 1_555
H29 C41 1_555 1_555
C42 C37 1_555 1_555
H30 C42 1_555 1_555
C43 O5 1_555 1_555
H31 C43 1_555 1_555
H32 C43 1_555 1_555
H33 C43 1_555 1_555
C44 N2 1_555 1_555
C45 C44 1_555 1_555
H34 C45 1_555 1_555
C46 C45 1_555 1_555
H35 C46 1_555 1_555
C47 C46 1_555 1_555
C48 C44 1_555 1_555
H36 C48 1_555 1_555
C49 C47 1_555 1_555
H37 C49 1_555 1_555
C50 O6 1_555 1_555
H38 C50 1_555 1_555
H39 C50 1_555 1_555
H40 C50 1_555 1_555
C5 C6 1_555 1_555
C7 C8 1_555 1_555
C7 C30 1_555 1_555
C14 C15 1_555 1_555
C20 C21 1_555 1_555
C27 C28 1_555 1_555
C35 C36 1_555 1_555
C41 C42 1_555 1_555
C48 C49 1_555 1_555

#END
