
#######################################################################
#
#                 Cambridge Crystallographic Data Centre
#                                CCDC 
#
#######################################################################
#
# If this CIF has been generated from an entry in the Cambridge 
# Structural Database, then it will include bibliographic, chemical, 
# crystal, experimental, refinement or atomic coordinate data resulting 
# from the CCDC's data processing and validation procedures.
#
#######################################################################

data_OKOZIZ
_chemical_compound_source        
'fermentation broth of Streptomyces rutgersensis T009 obtained from Elaphodus davidianus excrement'
_chemical_name_common            Bacimethrin
_chemical_formula_moiety         'C6 H9 N3 O2'
_chemical_name_systematic        (4-Amino-2-methoxypyrimidin-5-yl)methanol
_symmetry_cell_setting           monoclinic
_symmetry_space_group_name_H-M   'P 21/n'
_symmetry_Int_Tables_number      14
_space_group_name_Hall           '-P 2yn'
loop_
_symmetry_equiv_pos_site_id
_symmetry_equiv_pos_as_xyz
1 x,y,z
2 1/2-x,1/2+y,1/2-z
3 -x,-y,-z
4 1/2+x,1/2-y,1/2+z
_cell_length_a                   8.3990(8)
_cell_length_b                   8.2326(8)
_cell_length_c                   10.1314(9)
_cell_angle_alpha                90
_cell_angle_beta                 94.5120(10)
_cell_angle_gamma                90
_cell_volume                     698.371
_exptl_crystal_colour            colorless
_exptl_crystal_description       block
_cell_formula_units_Z            4
_exptl_crystal_recrystallization_method chloroform/methanol
loop_
_atom_site_label
_atom_site_type_symbol
_atom_site_fract_x
_atom_site_fract_y
_atom_site_fract_z
O1 O 0.46269(8) 0.59281(9) 0.63219(7)
H1 H 0.4768 0.6291 0.7097
O2 O -0.18198(8) 0.90300(9) 0.42363(7)
N1 N 0.04404(10) 0.77436(10) 0.39094(8)
N2 N 0.28143(11) 0.64993(11) 0.35248(9)
H2 H 0.2760(17) 0.6900(19) 0.2724(15)
H3 H 0.3622(18) 0.5860(19) 0.3721(15)
N3 N -0.07274(10) 0.74941(10) 0.59861(8)
C1 C 0.31341(11) 0.50720(12) 0.61696(9)
H4 H 0.2898 0.4612 0.7036
H5 H 0.3231 0.4157 0.5547
C2 C 0.17695(11) 0.61443(11) 0.56617(9)
C3 C 0.16779(11) 0.67943(11) 0.43500(9)
C4 C -0.06597(11) 0.80413(11) 0.47652(9)
C5 C -0.30893(12) 0.94360(13) 0.50459(10)
H6 H -0.3723 0.8462 0.5193
H7 H -0.3774 1.0264 0.4599
H8 H -0.2638 0.9858 0.5899
C6 C 0.05319(11) 0.65358(12) 0.64061(9)
H9 H 0.0554 0.6107 0.7278
loop_
_geom_bond_atom_site_label_1
_geom_bond_atom_site_label_2
_geom_bond_site_symmetry_1
_geom_bond_site_symmetry_2
O1 H1 1_555 1_555
O2 C4 1_555 1_555
N1 C3 1_555 1_555
N2 H2 1_555 1_555
H3 N2 1_555 1_555
N3 C4 1_555 1_555
C1 O1 1_555 1_555
H4 C1 1_555 1_555
H5 C1 1_555 1_555
C2 C1 1_555 1_555
C3 N2 1_555 1_555
C4 N1 1_555 1_555
C5 O2 1_555 1_555
H6 C5 1_555 1_555
H7 C5 1_555 1_555
H8 C5 1_555 1_555
C6 N3 1_555 1_555
H9 C6 1_555 1_555
C2 C3 1_555 1_555
C2 C6 1_555 1_555

#END
