
#######################################################################
#
#                 Cambridge Crystallographic Data Centre
#                                CCDC 
#
#######################################################################
#
# If this CIF has been generated from an entry in the Cambridge 
# Structural Database, then it will include bibliographic, chemical, 
# crystal, experimental, refinement or atomic coordinate data resulting 
# from the CCDC's data processing and validation procedures.
#
#######################################################################

data_OKUCON
_chemical_formula_moiety         'C48 H44 N12 O4'
_chemical_name_systematic        
'2,4,6,8-tetrakis(4-methoxybenzyl)-2,4,6,8-tetraaza-1,3,5,7(4,6)-tetrapyrimidinacyclooctaphane unknown solvate'
_symmetry_cell_setting           tetragonal
_symmetry_space_group_name_H-M   'P 4/n c c'
_symmetry_Int_Tables_number      130
_space_group_name_Hall           '-P 4a 2ac'
loop_
_symmetry_equiv_pos_site_id
_symmetry_equiv_pos_as_xyz
1 x,y,z
2 1/2-x,1/2-y,z
3 1/2-y,x,z
4 y,1/2-x,z
5 -x,1/2+y,1/2-z
6 1/2+x,-y,1/2-z
7 1/2+y,1/2+x,1/2-z
8 -y,-x,1/2-z
9 -x,-y,-z
10 1/2+x,1/2+y,-z
11 1/2+y,-x,-z
12 -y,1/2+x,-z
13 x,1/2-y,1/2+z
14 1/2-x,y,1/2+z
15 1/2-y,1/2-x,1/2+z
16 y,x,1/2+z
_cell_length_a                   17.896(3)
_cell_length_b                   17.896(3)
_cell_length_c                   16.855(3)
_cell_angle_alpha                90
_cell_angle_beta                 90
_cell_angle_gamma                90
_cell_volume                     5398.1
_exptl_crystal_colour            colorless
_exptl_crystal_description       block
_cell_formula_units_Z            4
loop_
_atom_site_label
_atom_site_type_symbol
_atom_site_fract_x
_atom_site_fract_y
_atom_site_fract_z
N1 N 0.56255(9) 0.22540(9) 0.47827(11)
N2 N 0.54278(11) 0.30949(11) 0.58178(12)
N3 N 0.62383(11) 0.41439(11) 0.60304(11)
C1 C 0.58791(11) 0.28773(11) 0.52236(12)
C2 C 0.65197(11) 0.32510(11) 0.50138(13)
H1 H 0.6839 0.3073 0.4605
C3 C 0.66784(11) 0.39089(11) 0.54329(12)
C4 C 0.56474(14) 0.37158(14) 0.61849(15)
H2 H 0.5342 0.3875 0.6614
C5 C 0.48356(12) 0.22761(13) 0.45049(14)
H3 H 0.4514 0.2460 0.4941
H4 H 0.4672 0.1763 0.4370
C6 C 0.47349(12) 0.27730(12) 0.37907(13)
O1 O 0.4640(5) 0.4264(4) 0.1866(3)
C7 C 0.4850(5) 0.2523(4) 0.3014(3)
H5 H 0.4968 0.2012 0.2930
C8 C 0.4797(6) 0.2994(4) 0.2359(4)
H6 H 0.4846 0.2799 0.1837
C9 C 0.4672(5) 0.3749(4) 0.2472(4)
C10 C 0.4627(6) 0.4030(5) 0.3231(4)
H7 H 0.4559 0.4551 0.3315
C11 C 0.4681(8) 0.3549(3) 0.3872(5)
H8 H 0.4683 0.3755 0.4392
C12 C 0.4803(7) 0.4012(5) 0.1084(4)
H9 H 0.5313 0.3813 0.1067
H10 H 0.4760 0.4430 0.0712
H11 H 0.4449 0.3618 0.0934
N1J N 0.72540(9) 0.43745(9) 0.52173(11)
N1K N 0.77460(9) 0.06255(9) 0.52173(11)
N1A N 0.93745(9) 0.27460(9) 0.47827(11)
N2J N 0.80949(11) 0.45722(11) 0.41822(12)
N2K N 0.69051(11) 0.04278(11) 0.41822(12)
N2A N 0.95722(11) 0.19051(11) 0.58178(12)
N3J N 0.91439(11) 0.37617(11) 0.39696(11)
N3K N 0.58561(11) 0.12383(11) 0.39696(11)
N3A N 0.87617(11) 0.08561(11) 0.60304(11)
C1J C 0.78773(11) 0.41209(11) 0.47764(12)
C1K C 0.71227(11) 0.08791(11) 0.47764(12)
C1A C 0.91209(11) 0.21227(11) 0.52236(12)
C2J C 0.82510(11) 0.34803(11) 0.49862(13)
C2K C 0.67490(11) 0.15197(11) 0.49862(13)
C2A C 0.84803(11) 0.17490(11) 0.50138(13)
H1J H 0.8073 0.3161 0.5395
H1K H 0.6927 0.1839 0.5395
H1A H 0.8161 0.1927 0.4605
C3J C 0.89089(11) 0.33216(11) 0.45671(12)
C3K C 0.60911(11) 0.16784(11) 0.45671(12)
C3A C 0.83216(11) 0.10911(11) 0.54329(12)
C4J C 0.87158(14) 0.43526(14) 0.38151(15)
C4K C 0.62842(14) 0.06474(14) 0.38151(15)
C4A C 0.93526(14) 0.12842(14) 0.61849(15)
H2J H 0.8875 0.4658 0.3386
H2K H 0.6125 0.0342 0.3386
H2A H 0.9658 0.1125 0.6614
C5J C 0.72761(13) 0.51644(12) 0.54951(14)
C5K C 0.77239(13) -0.01644(12) 0.54951(14)
C5A C 1.01644(12) 0.27239(13) 0.45049(14)
H3J H 0.7460 0.5486 0.5059
H3K H 0.7540 -0.0486 0.5059
H3A H 1.0486 0.2540 0.4941
H4J H 0.6763 0.5328 0.5630
H4K H 0.8237 -0.0328 0.5630
H4A H 1.0328 0.3237 0.4370
C6J C 0.77730(12) 0.52651(12) 0.62093(13)
C6K C 0.72270(12) -0.02651(12) 0.62093(13)
C6A C 1.02651(12) 0.22270(12) 0.37907(13)
O1J O 0.9264(4) 0.5360(5) 0.8134(3)
O1K O 0.5736(4) -0.0360(5) 0.8134(3)
O1A O 1.0360(5) 0.0736(4) 0.1866(3)
C7J C 0.7523(4) 0.5150(5) 0.6986(3)
C7K C 0.7477(4) -0.0150(5) 0.6986(3)
C7A C 1.0150(5) 0.2477(4) 0.3014(3)
H5J H 0.7012 0.5032 0.7070
H5K H 0.7988 -0.0032 0.7070
H5A H 1.0032 0.2988 0.2930
C8J C 0.7994(4) 0.5203(6) 0.7641(4)
C8K C 0.7006(4) -0.0203(6) 0.7641(4)
C8A C 1.0203(6) 0.2006(4) 0.2359(4)
H6J H 0.7799 0.5154 0.8163
H6K H 0.7201 -0.0154 0.8163
H6A H 1.0154 0.2201 0.1837
C9J C 0.8749(4) 0.5328(5) 0.7528(4)
C9K C 0.6251(4) -0.0328(5) 0.7528(4)
C9A C 1.0328(5) 0.1251(4) 0.2472(4)
C10J C 0.9030(5) 0.5373(6) 0.6769(4)
C10K C 0.5970(5) -0.0373(6) 0.6769(4)
C10A C 1.0373(6) 0.0970(5) 0.3231(4)
H7J H 0.9551 0.5441 0.6685
H7K H 0.5449 -0.0441 0.6685
H7A H 1.0441 0.0449 0.3315
C11J C 0.8549(3) 0.5319(8) 0.6128(5)
C11K C 0.6451(3) -0.0319(8) 0.6128(5)
C11A C 1.0319(8) 0.1451(3) 0.3872(5)
H8J H 0.8755 0.5317 0.5608
H8K H 0.6245 -0.0317 0.5608
H8A H 1.0317 0.1245 0.4392
C12J C 0.9012(5) 0.5197(7) 0.8916(4)
C12K C 0.5988(5) -0.0197(7) 0.8916(4)
C12A C 1.0197(7) 0.0988(5) 0.1084(4)
H9J H 0.8813 0.4687 0.8933
H9K H 0.6187 0.0313 0.8933
H9A H 0.9687 0.1187 0.1067
H10J H 0.9430 0.5240 0.9288
H10K H 0.5570 -0.0240 0.9288
H10A H 1.0240 0.0570 0.0712
H11J H 0.8618 0.5551 0.9066
H11K H 0.6382 -0.0551 0.9066
H11A H 1.0551 0.1382 0.0934
C13? C 0.4448(7) 0.3969(6) 0.3229(5)
C14? C 0.4546(9) 0.3519(4) 0.3886(6)
C15? C 0.4434(8) 0.3860(6) 0.1079(5)
C16? C 0.4629(6) 0.2445(5) 0.3057(4)
C17? C 0.4528(6) 0.2889(5) 0.2394(5)
C18? C 0.4466(6) 0.3654(5) 0.2483(5)
H12? H 0.4369 0.4491 0.3290
H13? H 0.4483 0.3720 0.4404
H14? H 0.4911 0.3593 0.1037
H15? H 0.4429 0.4276 0.0702
H16? H 0.4023 0.3517 0.0959
H17? H 0.4626 0.1916 0.3008
H18? H 0.4501 0.2670 0.1882
O2? O 0.4348(6) 0.4142(5) 0.1865(4)
loop_
_geom_bond_atom_site_label_1
_geom_bond_atom_site_label_2
_geom_bond_site_symmetry_1
_geom_bond_site_symmetry_2
N1 C1 1_555 1_555
N2 C1 1_555 1_555
N3 C3 1_555 1_555
C1 C2 1_555 1_555
C2 H1 1_555 1_555
C3 C2 1_555 1_555
C4 N2 1_555 1_555
H2 C4 1_555 1_555
C5 N1 1_555 1_555
H3 C5 1_555 1_555
H4 C5 1_555 1_555
C6 C5 1_555 1_555
O1 C9 1_555 1_555
C7 C6 1_555 1_555
H5 C7 1_555 1_555
C8 C7 1_555 1_555
H6 C8 1_555 1_555
C9 C8 1_555 1_555
C10 C9 1_555 1_555
H7 C10 1_555 1_555
C11 C6 1_555 1_555
H8 C11 1_555 1_555
C12 O1 1_555 1_555
H9 C12 1_555 1_555
H10 C12 1_555 1_555
H11 C12 1_555 1_555
N1J C3 1_555 1_555
N1K C1K 1_555 1_555
N1A C1A 1_555 1_555
N2J C1J 1_555 1_555
N2K C1K 1_555 1_555
N2A C1A 1_555 1_555
N3J C3J 1_555 1_555
N3K C3K 1_555 1_555
N3A C3A 1_555 1_555
C1J N1J 1_555 1_555
C1K C2K 1_555 1_555
C1A C2A 1_555 1_555
C2J C1J 1_555 1_555
C2K H1K 1_555 1_555
C2A H1A 1_555 1_555
H1J C2J 1_555 1_555
C3J N1A 1_555 1_555
C3K N1 1_555 1_555
C3A N1K 1_555 1_555
C4J N2J 1_555 1_555
C4K N2K 1_555 1_555
C4A N2A 1_555 1_555
H2J C4J 1_555 1_555
H2K C4K 1_555 1_555
H2A C4A 1_555 1_555
C5J N1J 1_555 1_555
C5K N1K 1_555 1_555
C5A N1A 1_555 1_555
H3J C5J 1_555 1_555
H3K C5K 1_555 1_555
H3A C5A 1_555 1_555
H4J C5J 1_555 1_555
H4K C5K 1_555 1_555
H4A C5A 1_555 1_555
C6J C5J 1_555 1_555
C6K C5K 1_555 1_555
C6A C5A 1_555 1_555
O1J C9J 1_555 1_555
O1K C9K 1_555 1_555
O1A C9A 1_555 1_555
C7J C6J 1_555 1_555
C7K C6K 1_555 1_555
C7A C6A 1_555 1_555
H5J C7J 1_555 1_555
H5K C7K 1_555 1_555
H5A C7A 1_555 1_555
C8J C7J 1_555 1_555
C8K C7K 1_555 1_555
C8A C7A 1_555 1_555
H6J C8J 1_555 1_555
H6K C8K 1_555 1_555
H6A C8A 1_555 1_555
C9J C8J 1_555 1_555
C9K C8K 1_555 1_555
C9A C8A 1_555 1_555
C10J C9J 1_555 1_555
C10K C9K 1_555 1_555
C10A C9A 1_555 1_555
H7J C10J 1_555 1_555
H7K C10K 1_555 1_555
H7A C10A 1_555 1_555
C11J C6J 1_555 1_555
C11K C6K 1_555 1_555
C11A C6A 1_555 1_555
H8J C11J 1_555 1_555
H8K C11K 1_555 1_555
H8A C11A 1_555 1_555
C12J O1J 1_555 1_555
C12K O1K 1_555 1_555
C12A O1A 1_555 1_555
H9J C12J 1_555 1_555
H9K C12K 1_555 1_555
H9A C12A 1_555 1_555
H10J C12J 1_555 1_555
H10K C12K 1_555 1_555
H10A C12A 1_555 1_555
H11J C12J 1_555 1_555
H11K C12K 1_555 1_555
H11A C12A 1_555 1_555
N3 C4 1_555 1_555
C10 C11 1_555 1_555
N3J C4J 1_555 1_555
N3K C4K 1_555 1_555
N3A C4A 1_555 1_555
C2J C3J 1_555 1_555
C2K C3K 1_555 1_555
C2A C3A 1_555 1_555
C10J C11J 1_555 1_555
C10K C11K 1_555 1_555
C10A C11A 1_555 1_555

#END
