
#######################################################################
#
#                 Cambridge Crystallographic Data Centre
#                                CCDC 
#
#######################################################################
#
# If this CIF has been generated from an entry in the Cambridge 
# Structural Database, then it will include bibliographic, chemical, 
# crystal, experimental, refinement or atomic coordinate data resulting 
# from the CCDC's data processing and validation procedures.
#
#######################################################################

data_OKUCAY
_chemical_formula_moiety         'C19 H17 N1 O2'
_chemical_name_systematic        
'4-anti-Phenyl-4-(pyridin-2-yl)bicyclo(3.1.0)hex-2-ene-6-carboxylic acid methyl ester'
_symmetry_cell_setting           monoclinic
_symmetry_space_group_name_H-M   'P 21'
_symmetry_Int_Tables_number      4
_space_group_name_Hall           'P 2yb'
loop_
_symmetry_equiv_pos_site_id
_symmetry_equiv_pos_as_xyz
1 x,y,z
2 -x,1/2+y,-z
_cell_length_a                   9.5203(11)
_cell_length_b                   7.1738(7)
_cell_length_c                   11.2914(12)
_cell_angle_alpha                90
_cell_angle_beta                 92.251(2)
_cell_angle_gamma                90
_cell_volume                     770.571
_exptl_crystal_colour            colorless
_exptl_crystal_description       prism
_chemical_melting_point          95-96deg.C
_cell_formula_units_Z            2
loop_
_atom_site_label
_atom_site_type_symbol
_atom_site_fract_x
_atom_site_fract_y
_atom_site_fract_z
O1 O -0.10331(13) 0.2769(3) 0.65695(10)
C1 C 0.24949(16) 0.6034(3) 0.86384(14)
N1 N 0.45357(17) 0.6803(3) 0.65427(15)
O2 O 0.04529(16) 0.2606(3) 0.50904(12)
C2 C 0.2756(2) 0.1798(3) 0.6914(2)
C3 C 0.2633(2) 0.3865(3) 0.68604(18)
C4 C 0.46934(16) 0.5848(3) 0.75453(15)
C5 C 0.2651(2) 0.6197(3) 0.98609(16)
C6 C 0.34204(18) 0.4708(3) 0.79353(15)
C7 C 0.13402(18) 0.2727(3) 0.70895(16)
C8 C 0.38786(18) 0.2966(3) 0.86107(18)
C9 C 0.14951(19) 0.7157(3) 0.80595(18)
C10 C 0.02507(19) 0.2675(3) 0.61283(15)
C11 C 0.59191(19) 0.5923(3) 0.82402(19)
C12 C 0.0694(2) 0.8397(3) 0.8679(2)
C13 C 0.1825(2) 0.7443(4) 1.0472(2)
C14 C 0.3555(2) 0.1424(3) 0.8038(2)
C15 C 0.0854(2) 0.8537(4) 0.9881(2)
C16 C 0.5628(2) 0.7838(5) 0.6206(2)
C17 C 0.7026(2) 0.6983(4) 0.7873(2)
C18 C 0.6887(2) 0.7944(4) 0.6832(2)
C19 C -0.2203(3) 0.2889(6) 0.5724(2)
H1 H 0.1019(16) 0.269(3) 0.7871(15)
H2 H 0.139(2) 0.709(3) 0.7202(19)
H3 H 0.262(2) 0.446(3) 0.6175(19)
H4 H 0.286(3) 0.108(4) 0.621(2)
H5 H 0.332(2) 0.542(3) 1.0237(18)
H6 H -0.305(3) 0.300(5) 0.618(2)
H7 H -0.203(4) 0.208(6) 0.506(4)
H8 H -0.219(4) 0.404(7) 0.537(4)
H9 H 0.785(3) 0.703(3) 0.8363(19)
H10 H 0.600(2) 0.522(4) 0.902(2)
H11 H 0.4334(18) 0.310(3) 0.9430(16)
H12 H -0.006(3) 0.917(4) 0.826(2)
H13 H 0.549(3) 0.849(4) 0.546(2)
H14 H 0.373(3) 0.020(5) 0.831(2)
H15 H 0.029(2) 0.947(4) 1.032(2)
H16 H 0.196(2) 0.739(4) 1.124(2)
H17 H 0.758(3) 0.864(4) 0.659(2)
loop_
_geom_bond_atom_site_label_1
_geom_bond_atom_site_label_2
_geom_bond_site_symmetry_1
_geom_bond_site_symmetry_2
O1 C10 1_555 1_555
C1 C5 1_555 1_555
N1 C4 1_555 1_555
O2 C10 1_555 1_555
C2 C3 1_555 1_555
C3 C6 1_555 1_555
C4 C6 1_555 1_555
C5 C13 1_555 1_555
C6 C1 1_555 1_555
C7 C2 1_555 1_555
C8 C6 1_555 1_555
C9 C1 1_555 1_555
C10 C7 1_555 1_555
C11 C4 1_555 1_555
C12 C9 1_555 1_555
C13 C15 1_555 1_555
C14 C2 1_555 1_555
C15 C12 1_555 1_555
C16 N1 1_555 1_555
C17 C11 1_555 1_555
C18 C16 1_555 1_555
C19 O1 1_555 1_555
H1 C7 1_555 1_555
H2 C9 1_555 1_555
H3 C3 1_555 1_555
H4 C2 1_555 1_555
H5 C5 1_555 1_555
H6 C19 1_555 1_555
H7 C19 1_555 1_555
H8 C19 1_555 1_555
H9 C17 1_555 1_555
H10 C11 1_555 1_555
H11 C8 1_555 1_555
H12 C12 1_555 1_555
H13 C16 1_555 1_555
H14 C14 1_555 1_555
H15 C15 1_555 1_555
H16 C13 1_555 1_555
H17 C18 1_555 1_555
C3 C7 1_555 1_555
C8 C14 1_555 1_555
C17 C18 1_555 1_555

#END
