
#######################################################################
#
#                 Cambridge Crystallographic Data Centre
#                                CCDC 
#
#######################################################################
#
# If this CIF has been generated from an entry in the Cambridge 
# Structural Database, then it will include bibliographic, chemical, 
# crystal, experimental, refinement or atomic coordinate data resulting 
# from the CCDC's data processing and validation procedures.
#
#######################################################################

data_OKUCUT
_chemical_formula_moiety         'C20 H17 Br3 N12'
_chemical_name_systematic        
'1^5^,3^5^,5^5^-tribromo-2,4,6,8-tetramethyl-2,4,6,8-tetraaza-1,3,5,7(4,6)-tetrapyrimidinacyclooctaphane unknown solvate'
_symmetry_cell_setting           triclinic
_symmetry_space_group_name_H-M   'P -1'
_symmetry_Int_Tables_number      2
_space_group_name_Hall           '-P 1'
loop_
_symmetry_equiv_pos_site_id
_symmetry_equiv_pos_as_xyz
1 x,y,z
2 -x,-y,-z
_cell_length_a                   11.065(2)
_cell_length_b                   14.930(3)
_cell_length_c                   17.570(3)
_cell_angle_alpha                112.70(3)
_cell_angle_beta                 100.32(3)
_cell_angle_gamma                101.42(3)
_cell_volume                     2517.72
_exptl_crystal_colour            colorless
_exptl_crystal_description       plate
_cell_formula_units_Z            4
loop_
_atom_site_label
_atom_site_type_symbol
_atom_site_fract_x
_atom_site_fract_y
_atom_site_fract_z
Br1 Br 0.84850(4) 0.12442(3) -0.02018(3)
Br2 Br 0.89050(4) 0.35663(3) 0.24791(3)
Br3 Br 0.93835(4) 0.04258(3) 0.15949(3)
N1 N 1.2784(4) 0.1088(3) 0.0986(3)
N2 N 1.2202(3) 0.1691(3) -0.0059(2)
N3 N 1.0303(4) 0.4278(3) 0.0598(2)
N4 N 0.8209(3) 0.4146(3) 0.0797(2)
N5 N 0.5732(3) 0.1235(3) 0.0748(2)
N6 N 0.6382(3) 0.0825(3) 0.1912(3)
N7 N 1.0261(4) 0.2778(3) 0.3999(3)
N8 N 1.2216(4) 0.2792(3) 0.3605(3)
N9 N 1.1117(4) 0.2905(3) 0.0149(3)
N10 N 0.6863(3) 0.2632(3) 0.0640(2)
N11 N 0.8267(3) 0.1779(3) 0.3023(2)
N12 N 1.2301(4) 0.1665(3) 0.2279(3)
C1 C 1.2144(4) 0.1644(3) 0.1471(3)
C2 C 1.2757(4) 0.1146(4) 0.0254(3)
H1 H 1.3193 0.0747 -0.0096
C3 C 1.1569(4) 0.2245(3) 0.0436(3)
C4 C 1.1469(4) 0.2219(3) 0.1198(3)
H2 H 1.0969 0.2571 0.1521
C5 C 1.0127(4) 0.3286(3) 0.0383(3)
C6 C 0.9322(4) 0.4633(3) 0.0756(3)
H3 H 0.9428 0.5319 0.0852
C7 C 0.8046(4) 0.3167(3) 0.0612(3)
C8 C 0.8948(4) 0.2679(3) 0.0343(3)
C9 C 0.6788(4) 0.2034(3) 0.1075(3)
C10 C 0.5577(4) 0.0698(4) 0.1196(3)
H4 H 0.4798 0.0161 0.0977
C11 C 0.7453(4) 0.1611(3) 0.2240(3)
C12 C 0.7675(4) 0.2267(3) 0.1856(3)
C13 C 0.9591(4) 0.2091(4) 0.3197(3)
C14 C 1.1534(5) 0.3079(4) 0.4158(3)
H5 H 1.2008 0.3552 0.4731
C15 C 1.1561(4) 0.2064(4) 0.2823(3)
C16 C 1.0238(4) 0.1649(3) 0.2594(3)
C17 C 1.1968(5) 0.3435(4) -0.0201(4)
H6 H 1.1453 0.3457 -0.0705
H7 H 1.2594 0.3071 -0.0368
H8 H 1.2422 0.4130 0.0239
C18 C 0.5696(5) 0.2619(4) 0.0100(4)
H9 H 0.4947 0.2224 0.0177
H10 H 0.5695 0.2308 -0.0504
H11 H 0.5656 0.3316 0.0262
C19 C 0.7680(5) 0.1713(4) 0.3691(3)
H12 H 0.8354 0.1845 0.4200
H13 H 0.7084 0.1032 0.3474
H14 H 0.7211 0.2219 0.3846
C20 C 1.3414(5) 0.1407(5) 0.2639(4)
H15 H 1.3844 0.1139 0.2195
H16 H 1.3123 0.0892 0.2835
H17 H 1.4017 0.2017 0.3125
Br4 Br 0.23305(5) 0.49463(4) 0.24058(3)
Br5 Br 0.33960(5) 0.80788(4) 0.43206(4)
Br6 Br 0.24950(5) 0.67176(4) 0.14712(3)
N13 N 0.5758(4) 0.6326(3) 0.1252(3)
N14 N 0.5623(4) 0.4992(4) 0.1690(3)
N15 N 0.5484(4) 0.5819(4) 0.4447(3)
N16 N 0.3770(4) 0.6220(3) 0.5041(3)
N17 N -0.0104(4) 0.5897(3) 0.3297(3)
N18 N -0.0223(4) 0.6976(3) 0.2580(3)
N19 N 0.3389(4) 0.9621(3) 0.3363(3)
N20 N 0.5356(4) 0.9396(3) 0.3061(3)
N21 N 0.5252(4) 0.5147(3) 0.2976(3)
N22 N 0.1776(4) 0.6035(3) 0.4208(3)
N23 N 0.1506(4) 0.8274(3) 0.2791(3)
N24 N 0.5525(4) 0.7883(3) 0.2092(3)
C21 C 0.5465(4) 0.6884(4) 0.1962(3)
C22 C 0.5805(5) 0.5417(5) 0.1166(4)
H18 H 0.5995 0.5013 0.0660
C23 C 0.5334(4) 0.5554(4) 0.2392(3)
C24 C 0.5234(5) 0.6528(4) 0.2552(3)
H19 H 0.5016 0.6925 0.3048
C25 C 0.4729(5) 0.5541(4) 0.3660(3)
C26 C 0.4937(5) 0.6124(4) 0.5090(4)
H20 H 0.5454 0.6290 0.5647
C27 C 0.3016(4) 0.5957(4) 0.4258(3)
C28 C 0.3462(4) 0.5564(3) 0.3527(3)
C29 C 0.1150(4) 0.6370(3) 0.3661(3)
C30 C -0.0718(5) 0.6245(4) 0.2788(4)
H21 H -0.1617 0.5927 0.2546
C31 C 0.1037(4) 0.7473(4) 0.2965(3)
C32 C 0.1748(4) 0.7207(4) 0.3546(3)
C33 C 0.2825(5) 0.8630(4) 0.2854(3)
C34 C 0.4618(5) 0.9946(4) 0.3425(3)
H22 H 0.5027 1.0652 0.3767
C35 C 0.4774(4) 0.8411(4) 0.2522(3)
C36 C 0.3446(4) 0.8004(4) 0.2368(3)
C37 C 0.5810(9) 0.4326(6) 0.2923(5)
H23 H 0.6133 0.4120 0.2416
H24 H 0.5152 0.3745 0.2874
H25 H 0.6520 0.4560 0.3442
C38 C 0.1044(5) 0.5606(4) 0.4673(3)
H26 H 0.0193 0.5712 0.4591
H27 H 0.1504 0.5943 0.5287
H28 H 0.0946 0.4876 0.4449
C39 C 0.0631(5) 0.8711(5) 0.2422(4)
H29 H -0.0248 0.8411 0.2410
H30 H 0.0667 0.8568 0.1834
H31 H 0.0886 0.9448 0.2772
C40 C 0.6695(5) 0.8480(4) 0.2016(4)
H32 H 0.6631 0.9162 0.2124
H33 H 0.6780 0.8141 0.1436
H34 H 0.7450 0.8535 0.2439
Br7? Br 0.5803(5) 0.7619(3) 0.3784(3)
H35? H 0.2618 0.7587 0.3854
loop_
_geom_bond_atom_site_label_1
_geom_bond_atom_site_label_2
_geom_bond_site_symmetry_1
_geom_bond_site_symmetry_2
Br1 C8 1_555 1_555
Br2 C12 1_555 1_555
Br3 C16 1_555 1_555
Br4 C28 1_555 1_555
Br5 C32 1_555 1_555
Br6 C36 1_555 1_555
N1 C1 1_555 1_555
N2 C2 1_555 1_555
N3 C5 1_555 1_555
N4 C6 1_555 1_555
N5 C9 1_555 1_555
N6 C10 1_555 1_555
N7 C13 1_555 1_555
N8 C14 1_555 1_555
N9 C3 1_555 1_555
N10 C7 1_555 1_555
N11 C11 1_555 1_555
N12 C1 1_555 1_555
N13 C21 1_555 1_555
N14 C22 1_555 1_555
N15 C25 1_555 1_555
N16 C26 1_555 1_555
N17 C29 1_555 1_555
N18 C30 1_555 1_555
N19 C33 1_555 1_555
N20 C34 1_555 1_555
N21 C23 1_555 1_555
N22 C27 1_555 1_555
N23 C31 1_555 1_555
N24 C21 1_555 1_555
C1 C4 1_555 1_555
C2 N1 1_555 1_555
H1 C2 1_555 1_555
C3 N2 1_555 1_555
C4 C3 1_555 1_555
H2 C4 1_555 1_555
C5 N9 1_555 1_555
C6 N3 1_555 1_555
H3 C6 1_555 1_555
C7 N4 1_555 1_555
C8 C5 1_555 1_555
C9 N10 1_555 1_555
C10 N5 1_555 1_555
H4 C10 1_555 1_555
C11 N6 1_555 1_555
C12 C9 1_555 1_555
C13 N11 1_555 1_555
C14 N7 1_555 1_555
H5 C14 1_555 1_555
C15 N8 1_555 1_555
C16 C13 1_555 1_555
C17 N9 1_555 1_555
H6 C17 1_555 1_555
H7 C17 1_555 1_555
H8 C17 1_555 1_555
C18 N10 1_555 1_555
H9 C18 1_555 1_555
H10 C18 1_555 1_555
H11 C18 1_555 1_555
C19 N11 1_555 1_555
H12 C19 1_555 1_555
H13 C19 1_555 1_555
H14 C19 1_555 1_555
C20 N12 1_555 1_555
H15 C20 1_555 1_555
H16 C20 1_555 1_555
H17 C20 1_555 1_555
C21 C24 1_555 1_555
C22 N13 1_555 1_555
H18 C22 1_555 1_555
C23 N14 1_555 1_555
C24 C23 1_555 1_555
H19 C24 1_555 1_555
C25 N21 1_555 1_555
C26 N15 1_555 1_555
H20 C26 1_555 1_555
C27 N16 1_555 1_555
C28 C25 1_555 1_555
C29 N22 1_555 1_555
C30 N17 1_555 1_555
H21 C30 1_555 1_555
C31 N18 1_555 1_555
C32 C29 1_555 1_555
C33 N23 1_555 1_555
C34 N19 1_555 1_555
H22 C34 1_555 1_555
C35 N20 1_555 1_555
C36 C33 1_555 1_555
C37 N21 1_555 1_555
H23 C37 1_555 1_555
H24 C37 1_555 1_555
H25 C37 1_555 1_555
C38 N22 1_555 1_555
H26 C38 1_555 1_555
H27 C38 1_555 1_555
H28 C38 1_555 1_555
C39 N23 1_555 1_555
H29 C39 1_555 1_555
H30 C39 1_555 1_555
H31 C39 1_555 1_555
C40 N24 1_555 1_555
H32 C40 1_555 1_555
H33 C40 1_555 1_555
H34 C40 1_555 1_555
N12 C15 1_555 1_555
N24 C35 1_555 1_555
C7 C8 1_555 1_555
C11 C12 1_555 1_555
C15 C16 1_555 1_555
C27 C28 1_555 1_555
C31 C32 1_555 1_555
C35 C36 1_555 1_555

#END
