
#######################################################################
#
#                 Cambridge Crystallographic Data Centre
#                                CCDC 
#
#######################################################################
#
# If this CIF has been generated from an entry in the Cambridge 
# Structural Database, then it will include bibliographic, chemical, 
# crystal, experimental, refinement or atomic coordinate data resulting 
# from the CCDC's data processing and validation procedures.
#
#######################################################################

data_OKUDII
_chemical_formula_moiety         'C42 H20 F6'
_chemical_name_systematic        
7,14-bis(4-(trifluoromethyl)phenyl)phenanthro[1,10,9,8-opqra]perylene
_symmetry_cell_setting           orthorhombic
_symmetry_space_group_name_H-M   'P b c a'
_symmetry_Int_Tables_number      61
_space_group_name_Hall           '-P 2ac 2ab'
loop_
_symmetry_equiv_pos_site_id
_symmetry_equiv_pos_as_xyz
1 x,y,z
2 1/2-x,-y,1/2+z
3 -x,1/2+y,1/2-z
4 1/2+x,1/2-y,-z
5 -x,-y,-z
6 1/2+x,y,1/2-z
7 x,1/2-y,1/2+z
8 1/2-x,1/2+y,z
_cell_length_a                   10.9112(9)
_cell_length_b                   7.7032(7)
_cell_length_c                   34.108(3)
_cell_angle_alpha                90
_cell_angle_beta                 90
_cell_angle_gamma                90
_cell_volume                     2866.82
_exptl_crystal_colour            blue
_exptl_crystal_description       block
_cell_formula_units_Z            4
loop_
_atom_site_label
_atom_site_type_symbol
_atom_site_fract_x
_atom_site_fract_y
_atom_site_fract_z
C1 C 0.0322(3) 0.1859(4) 0.09511(8)
C2 C 0.0722(2) 0.2792(4) 0.06201(8)
C3 C 0.1236(3) 0.4476(4) 0.06540(9)
H1 H 0.1312 0.4988 0.0903
C4 C 0.1620(3) 0.5357(4) 0.03320(9)
H2 H 0.1931 0.6489 0.0359
C5 C 0.1557(2) 0.4599(4) -0.00394(9)
H3 H 0.1859 0.5216 -0.0257
C6 C 0.1065(2) 0.2968(4) -0.00962(8)
C7 C 0.0605(2) 0.2033(4) 0.02382(8)
C8 C 0.0057(2) 0.0383(4) 0.01928(7)
C9 C -0.0387(2) -0.0517(4) 0.05260(8)
C10 C -0.0973(2) -0.2173(4) 0.04860(8)
C11 C -0.1429(3) -0.2986(4) 0.08177(9)
H4 H -0.1850 -0.4044 0.0792
C12 C -0.1271(3) -0.2256(4) 0.11907(9)
H5 H -0.1574 -0.2847 0.1411
C13 C -0.0691(3) -0.0714(4) 0.12400(8)
H6 H -0.0584 -0.0262 0.1494
C14 C -0.0243(3) 0.0228(4) 0.09097(8)
C15 C 0.0510(3) 0.2597(4) 0.13534(8)
C16 C 0.1631(3) 0.2452(5) 0.15402(9)
H7 H 0.2294 0.1937 0.1408
C17 C 0.1790(3) 0.3055(5) 0.19194(9)
H8 H 0.2556 0.2946 0.2043
C18 C 0.0829(3) 0.3811(4) 0.21148(9)
C19 C -0.0279(3) 0.4010(4) 0.19289(9)
H9 H -0.0934 0.4551 0.2060
C20 C -0.0432(3) 0.3417(4) 0.15514(9)
H10 H -0.1191 0.3572 0.1426
C21 C 0.0982(4) 0.4337(5) 0.25335(10)
F1 F 0.1637(5) 0.5730(5) 0.25829(9)
F2 F -0.0084(3) 0.4706(5) 0.27143(7)
F3 F 0.1483(4) 0.3143(4) 0.27539(7)
C1D C -0.0322(3) -0.1859(4) -0.09511(8)
C2D C -0.0722(2) -0.2792(4) -0.06201(8)
C3D C -0.1236(3) -0.4476(4) -0.06540(9)
H1D H -0.1312 -0.4988 -0.0903
C4D C -0.1620(3) -0.5357(4) -0.03320(9)
H2D H -0.1931 -0.6489 -0.0359
C5D C -0.1557(2) -0.4599(4) 0.00394(9)
H3D H -0.1859 -0.5216 0.0257
C6D C -0.1065(2) -0.2968(4) 0.00962(8)
C7D C -0.0605(2) -0.2033(4) -0.02382(8)
C8D C -0.0057(2) -0.0383(4) -0.01928(7)
C9D C 0.0387(2) 0.0517(4) -0.05260(8)
C10D C 0.0973(2) 0.2173(4) -0.04860(8)
C11D C 0.1429(3) 0.2986(4) -0.08177(9)
H4D H 0.1850 0.4044 -0.0792
C12D C 0.1271(3) 0.2256(4) -0.11907(9)
H5D H 0.1574 0.2847 -0.1411
C13D C 0.0691(3) 0.0714(4) -0.12400(8)
H6D H 0.0584 0.0262 -0.1494
C14D C 0.0243(3) -0.0228(4) -0.09097(8)
C15D C -0.0510(3) -0.2597(4) -0.13534(8)
C16D C -0.1631(3) -0.2452(5) -0.15402(9)
H7D H -0.2294 -0.1937 -0.1408
C17D C -0.1790(3) -0.3055(5) -0.19194(9)
H8D H -0.2556 -0.2946 -0.2043
C18D C -0.0829(3) -0.3811(4) -0.21148(9)
C19D C 0.0279(3) -0.4010(4) -0.19289(9)
H9D H 0.0934 -0.4551 -0.2060
C20D C 0.0432(3) -0.3417(4) -0.15514(9)
H10D H 0.1191 -0.3572 -0.1426
C21D C -0.0982(4) -0.4337(5) -0.25335(10)
F1D F -0.1637(5) -0.5730(5) -0.25829(9)
F2D F 0.0084(3) -0.4706(5) -0.27143(7)
F3D F -0.1483(4) -0.3143(4) -0.27539(7)
F4? F 0.0344(18) 0.334(2) 0.2765(5)
F5? F 0.0759(18) 0.5983(14) 0.2551(6)
F6? F 0.2180(9) 0.434(3) 0.2611(5)
loop_
_geom_bond_atom_site_label_1
_geom_bond_atom_site_label_2
_geom_bond_site_symmetry_1
_geom_bond_site_symmetry_2
C1 C2 1_555 1_555
C2 C3 1_555 1_555
C3 H1 1_555 1_555
C4 C3 1_555 1_555
H2 C4 1_555 1_555
C5 C4 1_555 1_555
H3 C5 1_555 1_555
C6 C5 1_555 1_555
C7 C2 1_555 1_555
C8 C7 1_555 1_555
C9 C8 1_555 1_555
C10 C9 1_555 1_555
C11 C10 1_555 1_555
H4 C11 1_555 1_555
C12 C11 1_555 1_555
H5 C12 1_555 1_555
C13 C12 1_555 1_555
H6 C13 1_555 1_555
C14 C1 1_555 1_555
C15 C1 1_555 1_555
C16 C15 1_555 1_555
H7 C16 1_555 1_555
C17 C16 1_555 1_555
H8 C17 1_555 1_555
C18 C17 1_555 1_555
C19 C18 1_555 1_555
H9 C19 1_555 1_555
C20 C15 1_555 1_555
H10 C20 1_555 1_555
C21 C18 1_555 1_555
F1 C21 1_555 1_555
F2 C21 1_555 1_555
F3 C21 1_555 1_555
C1D C2D 1_555 1_555
C2D C3D 1_555 1_555
C3D H1D 1_555 1_555
C4D C3D 1_555 1_555
H2D C4D 1_555 1_555
C5D C4D 1_555 1_555
H3D C5D 1_555 1_555
C6D C10 1_555 1_555
C7D C2D 1_555 1_555
C8D C8 1_555 1_555
C9D C8D 1_555 1_555
C10D C6 1_555 1_555
C11D C10D 1_555 1_555
H4D C11D 1_555 1_555
C12D C11D 1_555 1_555
H5D C12D 1_555 1_555
C13D C12D 1_555 1_555
H6D C13D 1_555 1_555
C14D C1D 1_555 1_555
C15D C1D 1_555 1_555
C16D C15D 1_555 1_555
H7D C16D 1_555 1_555
C17D C16D 1_555 1_555
H8D C17D 1_555 1_555
C18D C17D 1_555 1_555
C19D C18D 1_555 1_555
H9D C19D 1_555 1_555
C20D C15D 1_555 1_555
H10D C20D 1_555 1_555
C21D C18D 1_555 1_555
F1D C21D 1_555 1_555
F2D C21D 1_555 1_555
F3D C21D 1_555 1_555
C6 C7 1_555 1_555
C9 C14 1_555 1_555
C13 C14 1_555 1_555
C19 C20 1_555 1_555
C5D C6D 1_555 1_555
C6D C7D 1_555 1_555
C7D C8D 1_555 1_555
C9D C10D 1_555 1_555
C9D C14D 1_555 1_555
C13D C14D 1_555 1_555
C19D C20D 1_555 1_555

#END
