
#######################################################################
#
#                 Cambridge Crystallographic Data Centre
#                                CCDC 
#
#######################################################################
#
# If this CIF has been generated from an entry in the Cambridge 
# Structural Database, then it will include bibliographic, chemical, 
# crystal, experimental, refinement or atomic coordinate data resulting 
# from the CCDC's data processing and validation procedures.
#
#######################################################################

data_OKUGAD
_chemical_formula_moiety         'C50 H76 Br1 N5 O8'
_chemical_name_systematic        
'4-Bromobenzyl 2-((2-(2-(((2-((2-(2-(((2-((t-butoxycarbonyl)amino)cyclopentyl)carbonyl)amino)cyclohexyl)-butanoyl)amino)cyclopentyl)carbonyl)amino)cyclohexyl)-butanoyl)amino)cyclopentanecarboxylate'
_symmetry_cell_setting           orthorhombic
_symmetry_space_group_name_H-M   'P 21 21 21'
_symmetry_Int_Tables_number      19
_space_group_name_Hall           'P 2ac 2ab'
loop_
_symmetry_equiv_pos_site_id
_symmetry_equiv_pos_as_xyz
1 x,y,z
2 1/2-x,-y,1/2+z
3 -x,1/2+y,1/2-z
4 1/2+x,1/2-y,-z
_cell_length_a                   10.9331(2)
_cell_length_b                   18.5573(3)
_cell_length_c                   24.7143(4)
_cell_angle_alpha                90
_cell_angle_beta                 90
_cell_angle_gamma                90
_cell_volume                     5014.26
_exptl_crystal_colour            colorless
_exptl_crystal_description       plate
_cell_formula_units_Z            4
loop_
_atom_site_label
_atom_site_type_symbol
_atom_site_fract_x
_atom_site_fract_y
_atom_site_fract_z
O1 O 1.3466(3) 0.66944(16) 0.84306(13)
O2 O 1.2337(3) 0.77029(15) 0.82585(13)
O3 O 1.0168(3) 0.81522(15) 0.71130(13)
O4 O 0.7840(3) 0.83082(15) 0.86606(14)
O5 O 1.0316(3) 1.05056(14) 0.79739(14)
O6 O 0.6331(3) 1.05720(15) 0.77900(13)
O7 O 0.7655(4) 1.10671(19) 0.97253(16)
O8 O 0.8959(3) 1.01927(19) 0.99840(15)
N1 N 1.2917(3) 0.69367(19) 0.75930(15)
H1 H 1.3214 0.6505 0.7527
N2 N 0.9293(3) 0.70676(17) 0.72754(15)
H2 H 0.9400 0.6598 0.7281
N3 N 0.9859(3) 0.82058(18) 0.84919(16)
H3 H 1.0447 0.7910 0.8392
N4 N 0.9567(3) 0.96228(17) 0.74350(15)
H4 H 0.9575 0.9162 0.7351
N5 N 0.7004(3) 0.97340(18) 0.83781(16)
H5 H 0.7326 0.9304 0.8426
C1 C 1.4484(5) 0.7588(3) 0.9007(2)
H6 H 1.5177 0.7551 0.8757
H7 H 1.4788 0.7667 0.9376
H8 H 1.3961 0.7992 0.8901
C2 C 1.4514(5) 0.6257(3) 0.9179(2)
H9 H 1.4033 0.5812 0.9159
H10 H 1.4774 0.6339 0.9553
H11 H 1.5236 0.6212 0.8946
C3 C 1.2583(5) 0.6938(3) 0.9328(2)
H12 H 1.2085 0.7343 0.9200
H13 H 1.2803 0.7016 0.9708
H14 H 1.2115 0.6490 0.9295
C4 C 1.3739(5) 0.6885(2) 0.8990(2)
C5 C 1.2858(4) 0.7155(2) 0.81032(19)
C6 C 1.2520(4) 0.7369(2) 0.7138(2)
H15 H 1.2392 0.7874 0.7268
C7 C 1.3453(5) 0.7386(3) 0.6679(2)
H16 H 1.4146 0.7709 0.6766
H17 H 1.3770 0.6898 0.6599
C8 C 1.2703(5) 0.7676(3) 0.6213(2)
H18 H 1.3101 0.7566 0.5863
H19 H 1.2598 0.8204 0.6245
C9 C 1.1482(5) 0.7295(3) 0.6257(2)
H20 H 1.1481 0.6851 0.6035
H21 H 1.0813 0.7613 0.6132
C10 C 1.1315(4) 0.7106(2) 0.68698(19)
H22 H 1.1228 0.6573 0.6916
C11 C 1.0219(4) 0.7482(2) 0.71007(19)
C12 C 0.8118(4) 0.7356(2) 0.7457(2)
H23 H 0.8236 0.7881 0.7531
C13 C 0.7160(4) 0.7291(2) 0.7007(2)
H24 H 0.6430 0.7578 0.7105
H25 H 0.7499 0.7489 0.6667
C14 C 0.6784(4) 0.6512(2) 0.6917(2)
H26 H 0.6117 0.6494 0.6646
H27 H 0.7488 0.6238 0.6771
C15 C 0.6354(4) 0.6165(3) 0.7436(2)
H28 H 0.6161 0.5652 0.7367
H29 H 0.5596 0.6406 0.7560
C16 C 0.7327(4) 0.6217(2) 0.7881(2)
H30 H 0.8061 0.5939 0.7772
H31 H 0.7005 0.6004 0.8219
C17 C 0.7683(4) 0.7008(2) 0.7980(2)
H32 H 0.6913 0.7263 0.8084
C18 C 0.8593(4) 0.7126(2) 0.8450(2)
H33 H 0.9406 0.6921 0.8346
C19 C 0.8179(4) 0.6782(2) 0.8985(2)
H34 H 0.7375 0.6986 0.9087
H35 H 0.8068 0.6258 0.8928
C20 C 0.9055(5) 0.6894(3) 0.9447(2)
H36 H 0.9857 0.6698 0.9349
H37 H 0.8747 0.6647 0.9769
H38 H 0.9132 0.7411 0.9522
C21 C 0.8733(4) 0.7942(2) 0.85424(18)
C22 C 1.0176(4) 0.8961(2) 0.85934(18)
H39 H 0.9402 0.9247 0.8612
C23 C 1.0878(5) 0.9068(3) 0.9126(2)
H40 H 1.1394 0.8644 0.9210
H41 H 1.0312 0.9157 0.9431
C24 C 1.1668(5) 0.9739(3) 0.9005(2)
H42 H 1.1175 1.0186 0.9019
H43 H 1.2359 0.9779 0.9262
C25 C 1.2117(4) 0.9590(2) 0.8437(2)
H44 H 1.2794 0.9236 0.8442
H45 H 1.2408 1.0039 0.8264
C26 C 1.1000(4) 0.9285(2) 0.81348(19)
H46 H 1.1261 0.8899 0.7878
C27 C 1.0290(4) 0.9859(2) 0.78408(19)
C28 C 0.8769(4) 1.0111(2) 0.71297(18)
H47 H 0.8531 1.0516 0.7375
C29 C 0.9430(4) 1.0431(2) 0.66413(19)
H48 H 0.8916 1.0817 0.6484
H49 H 1.0205 1.0653 0.6764
C30 C 0.9711(5) 0.9878(3) 0.6206(2)
H50 H 1.0291 0.9515 0.6349
H51 H 1.0099 1.0118 0.5892
C31 C 0.8527(5) 0.9503(3) 0.6025(2)
H52 H 0.8724 0.9123 0.5758
H53 H 0.7985 0.9859 0.5847
C32 C 0.7859(4) 0.9167(2) 0.65112(19)
H54 H 0.7079 0.8951 0.6387
H55 H 0.8368 0.8777 0.6666
C33 C 0.7593(4) 0.9725(2) 0.69483(18)
H56 H 0.7064 1.0100 0.6777
C34 C 0.6851(4) 0.9408(2) 0.74213(19)
H57 H 0.7291 0.8975 0.7563
C35 C 0.5565(5) 0.9181(2) 0.7250(2)
H58 H 0.5116 0.9614 0.7125
H59 H 0.5633 0.8847 0.6939
C36 C 0.4822(5) 0.8817(3) 0.7693(2)
H60 H 0.5265 0.8393 0.7825
H61 H 0.4029 0.8667 0.7546
H62 H 0.4693 0.9155 0.7991
C37 C 0.6722(4) 0.9953(2) 0.78776(19)
C38 C 0.6784(4) 1.0202(2) 0.88501(19)
H63 H 0.7080 1.0703 0.8777
C39 C 0.5455(5) 1.0209(3) 0.9001(2)
H64 H 0.5256 1.0638 0.9222
H65 H 0.4932 1.0210 0.8673
C40 C 0.5277(5) 0.9536(3) 0.9318(3)
H66 H 0.5186 0.9116 0.9074
H67 H 0.4541 0.9571 0.9549
C41 C 0.6441(5) 0.9465(3) 0.9665(2)
H68 H 0.6670 0.8953 0.9710
H69 H 0.6314 0.9681 1.0027
C42 C 0.7449(4) 0.9880(2) 0.9349(2)
H70 H 0.8099 0.9538 0.9227
C43 C 0.8001(5) 1.0458(3) 0.9694(2)
C44 C 0.9541(6) 1.0684(3) 1.0367(2)
H71 H 0.9684 1.0431 1.0714
H72 H 0.8990 1.1097 1.0438
Br1 Br 1.43543(8) 1.20441(5) 0.95689(5)
C45 C 1.0742(3) 1.0957(2) 1.01473(16)
C46 C 1.0708(3) 1.1515(2) 0.97725(18)
H73 H 0.9945 1.1685 0.9640
C47 C 1.1791(4) 1.1825(2) 0.95912(18)
H74 H 1.1768 1.2207 0.9335
C48 C 1.2908(3) 1.1577(2) 0.9785(2)
C49 C 1.2942(3) 1.1019(2) 1.01595(19)
H75 H 1.3705 1.0849 1.0292
C50 C 1.1859(4) 1.0709(2) 1.03408(16)
H76 H 1.1882 1.0327 1.0597
Br2? Br 1.4641(11) 1.1612(8) 0.9983(7)
C51? C 1.0761(19) 1.105(2) 1.0387(18)
C52? C 1.099(2) 1.149(3) 0.994(2)
C53? C 1.217(3) 1.153(3) 0.973(2)
C54? C 1.311(2) 1.114(3) 0.9966(19)
C55? C 1.288(2) 1.071(2) 1.041(2)
C56? C 1.171(3) 1.066(3) 1.0621(19)
H77? H 0.8949 1.1086 1.0399
H78? H 0.9495 1.0423 1.0716
H79? H 1.0345 1.1754 0.9781
H80? H 1.2325 1.1833 0.9427
H81? H 1.3531 1.0439 1.0571
H82? H 1.1550 1.0361 1.0926
loop_
_geom_bond_atom_site_label_1
_geom_bond_atom_site_label_2
_geom_bond_site_symmetry_1
_geom_bond_site_symmetry_2
O1 C4 1_555 1_555
O2 C5 1_555 1_555
O3 C11 1_555 1_555
O4 C21 1_555 1_555
O5 C27 1_555 1_555
O6 C37 1_555 1_555
O7 C43 1_555 1_555
O8 C43 1_555 1_555
N1 H1 1_555 1_555
N2 H2 1_555 1_555
N3 H3 1_555 1_555
N4 H4 1_555 1_555
N5 H5 1_555 1_555
C1 H6 1_555 1_555
H7 C1 1_555 1_555
H8 C1 1_555 1_555
C2 H9 1_555 1_555
H10 C2 1_555 1_555
H11 C2 1_555 1_555
C3 H12 1_555 1_555
H13 C3 1_555 1_555
H14 C3 1_555 1_555
C4 C1 1_555 1_555
C5 O1 1_555 1_555
C6 N1 1_555 1_555
H15 C6 1_555 1_555
C7 C6 1_555 1_555
H16 C7 1_555 1_555
H17 C7 1_555 1_555
C8 C7 1_555 1_555
H18 C8 1_555 1_555
H19 C8 1_555 1_555
C9 C8 1_555 1_555
H20 C9 1_555 1_555
H21 C9 1_555 1_555
C10 C6 1_555 1_555
H22 C10 1_555 1_555
C11 N2 1_555 1_555
C12 N2 1_555 1_555
H23 C12 1_555 1_555
C13 C12 1_555 1_555
H24 C13 1_555 1_555
H25 C13 1_555 1_555
C14 C13 1_555 1_555
H26 C14 1_555 1_555
H27 C14 1_555 1_555
C15 C14 1_555 1_555
H28 C15 1_555 1_555
H29 C15 1_555 1_555
C16 C15 1_555 1_555
H30 C16 1_555 1_555
H31 C16 1_555 1_555
C17 C12 1_555 1_555
H32 C17 1_555 1_555
C18 C17 1_555 1_555
H33 C18 1_555 1_555
C19 C18 1_555 1_555
H34 C19 1_555 1_555
H35 C19 1_555 1_555
C20 C19 1_555 1_555
H36 C20 1_555 1_555
H37 C20 1_555 1_555
H38 C20 1_555 1_555
C21 N3 1_555 1_555
C22 N3 1_555 1_555
H39 C22 1_555 1_555
C23 C22 1_555 1_555
H40 C23 1_555 1_555
H41 C23 1_555 1_555
C24 C23 1_555 1_555
H42 C24 1_555 1_555
H43 C24 1_555 1_555
C25 C24 1_555 1_555
H44 C25 1_555 1_555
H45 C25 1_555 1_555
C26 C22 1_555 1_555
H46 C26 1_555 1_555
C27 N4 1_555 1_555
C28 N4 1_555 1_555
H47 C28 1_555 1_555
C29 C28 1_555 1_555
H48 C29 1_555 1_555
H49 C29 1_555 1_555
C30 C29 1_555 1_555
H50 C30 1_555 1_555
H51 C30 1_555 1_555
C31 C30 1_555 1_555
H52 C31 1_555 1_555
H53 C31 1_555 1_555
C32 C31 1_555 1_555
H54 C32 1_555 1_555
H55 C32 1_555 1_555
C33 C28 1_555 1_555
H56 C33 1_555 1_555
C34 C33 1_555 1_555
H57 C34 1_555 1_555
C35 C34 1_555 1_555
H58 C35 1_555 1_555
H59 C35 1_555 1_555
C36 C35 1_555 1_555
H60 C36 1_555 1_555
H61 C36 1_555 1_555
H62 C36 1_555 1_555
C37 N5 1_555 1_555
C38 N5 1_555 1_555
H63 C38 1_555 1_555
C39 C38 1_555 1_555
H64 C39 1_555 1_555
H65 C39 1_555 1_555
C40 C39 1_555 1_555
H66 C40 1_555 1_555
H67 C40 1_555 1_555
C41 C40 1_555 1_555
H68 C41 1_555 1_555
H69 C41 1_555 1_555
C42 C38 1_555 1_555
H70 C42 1_555 1_555
C43 C42 1_555 1_555
C44 O8 1_555 1_555
H71 C44 1_555 1_555
H72 C44 1_555 1_555
Br1 C48 1_555 1_555
C45 C44 1_555 1_555
C46 C45 1_555 1_555
H73 C46 1_555 1_555
C47 C46 1_555 1_555
H74 C47 1_555 1_555
C48 C47 1_555 1_555
C49 C48 1_555 1_555
H75 C49 1_555 1_555
C50 C45 1_555 1_555
H76 C50 1_555 1_555
N1 C5 1_555 1_555
C2 C4 1_555 1_555
C3 C4 1_555 1_555
C9 C10 1_555 1_555
C10 C11 1_555 1_555
C16 C17 1_555 1_555
C18 C21 1_555 1_555
C25 C26 1_555 1_555
C26 C27 1_555 1_555
C32 C33 1_555 1_555
C34 C37 1_555 1_555
C41 C42 1_555 1_555
C49 C50 1_555 1_555

#END
