
#######################################################################
#
#                 Cambridge Crystallographic Data Centre
#                                CCDC 
#
#######################################################################
#
# If this CIF has been generated from an entry in the Cambridge 
# Structural Database, then it will include bibliographic, chemical, 
# crystal, experimental, refinement or atomic coordinate data resulting 
# from the CCDC's data processing and validation procedures.
#
#######################################################################

data_OKUGIM
_chemical_formula_moiety         'C36 H56 B2 Li2 O14'
_chemical_name_systematic        
bis(\m-7,7,8,8-tetramethyl-4-phenyl-5-borata-1,3,6,9-tetraoxaspiro[4.4]nonan-2-one)-bis(1,2-dimethoxyethane)-di-lithium
_symmetry_cell_setting           monoclinic
_symmetry_space_group_name_H-M   'P 21/c'
_symmetry_Int_Tables_number      14
_space_group_name_Hall           '-P 2ybc'
loop_
_symmetry_equiv_pos_site_id
_symmetry_equiv_pos_as_xyz
1 x,y,z
2 -x,1/2+y,1/2-z
3 -x,-y,-z
4 x,1/2-y,1/2+z
_cell_length_a                   15.125(3)
_cell_length_b                   10.132(2)
_cell_length_c                   14.654(3)
_cell_angle_alpha                90
_cell_angle_beta                 112.453(11)
_cell_angle_gamma                90
_cell_volume                     2075.44
_exptl_crystal_colour            colorless
_exptl_crystal_description       block
_cell_formula_units_Z            2
_chemical_properties_physical    Moisture-sensitive
_exptl_crystal_recrystallization_method dimethoxyethane
loop_
_atom_site_label
_atom_site_type_symbol
_atom_site_fract_x
_atom_site_fract_y
_atom_site_fract_z
O1 O 0.74407(16) 0.9768(2) 1.02866(18)
O2 O 0.59640(16) 1.1702(2) 1.10155(18)
O3 O 0.81734(17) 0.9948(2) 1.19941(19)
O4 O 0.64128(16) 0.9598(2) 1.11834(19)
O5 O 0.63009(19) 0.9011(2) 0.79334(19)
O6 O 0.61904(18) 0.7108(2) 0.91176(19)
C1 C 0.7539(3) 1.4223(4) 0.9054(3)
H1 H 0.7688 1.4703 0.8591
C2 C 0.6782(3) 1.3356(4) 0.8752(3)
H2 H 0.6409 1.3272 0.8083
C3 C 0.6567(3) 1.2608(3) 0.9430(3)
H3 H 0.6055 1.2021 0.9213
C4 C 0.7106(3) 1.2728(3) 1.0427(3)
C5 C 0.6978(2) 1.1809(3) 1.1176(3)
H4 H 0.7321 1.2179 1.1835
C6 C 0.5727(3) 1.0430(3) 1.1061(3)
C7 C 0.7848(3) 1.3632(3) 1.0732(3)
H5 H 0.8203 1.3748 1.1402
C8 C 0.8071(3) 1.4374(4) 1.0042(4)
H6 H 0.8579 1.4967 1.0253
C9 C 0.8441(3) 0.9421(3) 1.0580(3)
C10 C 0.8980(3) 1.0636(4) 1.0457(3)
H7 H 0.8682 1.0965 0.9795
H8 H 0.9632 1.0403 1.0585
H9 H 0.8966 1.1306 1.0915
C11 C 0.8531(3) 0.8311(4) 0.9916(3)
H10 H 0.8364 0.8639 0.9256
H11 H 0.8107 0.7603 0.9911
H12 H 0.9178 0.7992 1.0162
C12 C 0.8722(3) 0.9028(4) 1.1676(3)
C13 C 0.6222(3) 0.7695(4) 0.7573(3)
H13 H 0.6852 0.7334 0.7703
H14 H 0.5860 0.7681 0.6866
C14 C 0.5725(3) 0.6890(4) 0.8085(3)
H15 H 0.5058 0.7149 0.7863
H16 H 0.5753 0.5962 0.7936
C15 C 0.5851(3) 0.6257(4) 0.9688(3)
H17 H 0.5177 0.6388 0.9504
H18 H 0.6179 0.6453 1.0376
H19 H 0.5970 0.5355 0.9567
C16 C 0.6723(3) 0.9897(4) 0.7471(3)
H20 H 0.6308 1.0005 0.6791
H21 H 0.7327 0.9552 0.7510
H22 H 0.6820 1.0737 0.7799
C17 C 0.9770(3) 0.9207(4) 1.2317(4)
H23 H 1.0150 0.8670 1.2067
H24 H 0.9882 0.8948 1.2982
H25 H 0.9943 1.0117 1.2309
C18 C 0.8406(3) 0.7627(4) 1.1789(3)
H26 H 0.7742 0.7519 1.1377
H27 H 0.8495 0.7477 1.2466
H28 H 0.8781 0.7005 1.1597
B1 B 0.7324(3) 1.0282(4) 1.1175(3)
Li1 Li 0.6305(4) 0.9063(6) 0.9288(5)
O7 O 0.49249(17) 1.0142(2) 1.10057(18)
O1B O 0.25593(16) 1.0232(2) 0.97134(18)
O2B O 0.40360(16) 0.8298(2) 0.89845(18)
O3B O 0.18266(17) 1.0052(2) 0.80059(19)
O4B O 0.35872(16) 1.0402(2) 0.88166(19)
O5B O 0.36991(19) 1.0989(2) 1.20666(19)
O6B O 0.38096(18) 1.2892(2) 1.08824(19)
C1B C 0.2461(3) 0.5777(4) 1.0946(3)
H1B H 0.2312 0.5297 1.1409
C2B C 0.3218(3) 0.6644(4) 1.1248(3)
H2B H 0.3591 0.6728 1.1917
C3B C 0.3433(3) 0.7392(3) 1.0570(3)
H3B H 0.3945 0.7979 1.0787
C4B C 0.2894(3) 0.7272(3) 0.9573(3)
C5B C 0.3022(2) 0.8191(3) 0.8824(3)
H4B H 0.2679 0.7821 0.8165
C6B C 0.4273(3) 0.9570(3) 0.8939(3)
C7B C 0.2152(3) 0.6368(3) 0.9268(3)
H5B H 0.1797 0.6252 0.8598
C8B C 0.1929(3) 0.5626(4) 0.9958(4)
H6B H 0.1421 0.5033 0.9747
C9B C 0.1559(3) 1.0579(3) 0.9420(3)
C10B C 0.1020(3) 0.9364(4) 0.9543(3)
H7B H 0.1318 0.9035 1.0205
H8B H 0.0368 0.9597 0.9415
H9B H 0.1034 0.8694 0.9085
C11B C 0.1469(3) 1.1689(4) 1.0084(3)
H10B H 0.1636 1.1361 1.0744
H11B H 0.1893 1.2397 1.0089
H12B H 0.0822 1.2008 0.9838
C12B C 0.1278(3) 1.0972(4) 0.8324(3)
C13B C 0.3778(3) 1.2305(4) 1.2427(3)
H13B H 0.3148 1.2666 1.2297
H14B H 0.4140 1.2319 1.3134
C14B C 0.4275(3) 1.3110(4) 1.1915(3)
H15B H 0.4942 1.2851 1.2137
H16B H 0.4247 1.4038 1.2064
C15B C 0.4149(3) 1.3743(4) 1.0312(3)
H17B H 0.4823 1.3612 1.0496
H18B H 0.3821 1.3547 0.9624
H19B H 0.4030 1.4645 1.0433
C16B C 0.3277(3) 1.0103(4) 1.2529(3)
H20B H 0.3692 0.9995 1.3209
H21B H 0.2673 1.0448 1.2490
H22B H 0.3180 0.9263 1.2201
C17B C 0.0230(3) 1.0793(4) 0.7683(4)
H23B H -0.0150 1.1330 0.7933
H24B H 0.0118 1.1052 0.7018
H25B H 0.0057 0.9883 0.7691
C18B C 0.1594(3) 1.2373(4) 0.8211(3)
H26B H 0.2258 1.2481 0.8623
H27B H 0.1505 1.2523 0.7534
H28B H 0.1219 1.2995 0.8403
B1B B 0.2676(3) 0.9718(4) 0.8825(3)
Li1B Li 0.3695(4) 1.0937(6) 1.0712(5)
O7B O 0.50751(17) 0.9858(2) 0.89943(18)
loop_
_geom_bond_atom_site_label_1
_geom_bond_atom_site_label_2
_geom_bond_site_symmetry_1
_geom_bond_site_symmetry_2
O1 C9 1_555 1_555
O2 C5 1_555 1_555
O3 C12 1_555 1_555
O4 C6 1_555 1_555
O5 C13 1_555 1_555
O6 C14 1_555 1_555
C1 H1 1_555 1_555
C2 C1 1_555 1_555
H2 C2 1_555 1_555
C3 C2 1_555 1_555
H3 C3 1_555 1_555
C4 C3 1_555 1_555
C5 C4 1_555 1_555
H4 C5 1_555 1_555
C6 O2 1_555 1_555
C7 C4 1_555 1_555
H5 C7 1_555 1_555
C8 C1 1_555 1_555
H6 C8 1_555 1_555
C9 C10 1_555 1_555
C10 H7 1_555 1_555
H8 C10 1_555 1_555
H9 C10 1_555 1_555
C11 C9 1_555 1_555
H10 C11 1_555 1_555
H11 C11 1_555 1_555
H12 C11 1_555 1_555
C12 C9 1_555 1_555
C13 H13 1_555 1_555
H14 C13 1_555 1_555
C14 C13 1_555 1_555
H15 C14 1_555 1_555
H16 C14 1_555 1_555
C15 O6 1_555 1_555
H17 C15 1_555 1_555
H18 C15 1_555 1_555
H19 C15 1_555 1_555
C16 O5 1_555 1_555
H20 C16 1_555 1_555
H21 C16 1_555 1_555
H22 C16 1_555 1_555
C17 C12 1_555 1_555
H23 C17 1_555 1_555
H24 C17 1_555 1_555
H25 C17 1_555 1_555
C18 C12 1_555 1_555
H26 C18 1_555 1_555
H27 C18 1_555 1_555
H28 C18 1_555 1_555
B1 O1 1_555 1_555
Li1 O1 1_555 1_555
O7 C6 1_555 1_555
O1B C9B 1_555 1_555
O2B C5B 1_555 1_555
O3B C12B 1_555 1_555
O4B C6B 1_555 1_555
O5B C13B 1_555 1_555
O6B C14B 1_555 1_555
C1B H1B 1_555 1_555
C2B C1B 1_555 1_555
H2B C2B 1_555 1_555
C3B C2B 1_555 1_555
H3B C3B 1_555 1_555
C4B C3B 1_555 1_555
C5B C4B 1_555 1_555
H4B C5B 1_555 1_555
C6B O2B 1_555 1_555
C7B C4B 1_555 1_555
H5B C7B 1_555 1_555
C8B C1B 1_555 1_555
H6B C8B 1_555 1_555
C9B C10B 1_555 1_555
C10B H7B 1_555 1_555
H8B C10B 1_555 1_555
H9B C10B 1_555 1_555
C11B C9B 1_555 1_555
H10B C11B 1_555 1_555
H11B C11B 1_555 1_555
H12B C11B 1_555 1_555
C12B C9B 1_555 1_555
C13B H13B 1_555 1_555
H14B C13B 1_555 1_555
C14B C13B 1_555 1_555
H15B C14B 1_555 1_555
H16B C14B 1_555 1_555
C15B O6B 1_555 1_555
H17B C15B 1_555 1_555
H18B C15B 1_555 1_555
H19B C15B 1_555 1_555
C16B O5B 1_555 1_555
H20B C16B 1_555 1_555
H21B C16B 1_555 1_555
H22B C16B 1_555 1_555
C17B C12B 1_555 1_555
H23B C17B 1_555 1_555
H24B C17B 1_555 1_555
H25B C17B 1_555 1_555
C18B C12B 1_555 1_555
H26B C18B 1_555 1_555
H27B C18B 1_555 1_555
H28B C18B 1_555 1_555
B1B O1B 1_555 1_555
Li1B O7 1_555 1_555
O7B Li1 1_555 1_555
O3 B1 1_555 1_555
O4 B1 1_555 1_555
O5 Li1 1_555 1_555
O6 Li1 1_555 1_555
C5 B1 1_555 1_555
C7 C8 1_555 1_555
O1B Li1B 1_555 1_555
O3B B1B 1_555 1_555
O4B B1B 1_555 1_555
O5B Li1B 1_555 1_555
O6B Li1B 1_555 1_555
C5B B1B 1_555 1_555
C6B O7B 1_555 1_555
C7B C8B 1_555 1_555

#END
