
#######################################################################
#
#                 Cambridge Crystallographic Data Centre
#                                CCDC 
#
#######################################################################
#
# If this CIF has been generated from an entry in the Cambridge 
# Structural Database, then it will include bibliographic, chemical, 
# crystal, experimental, refinement or atomic coordinate data resulting 
# from the CCDC's data processing and validation procedures.
#
#######################################################################

data_OKUGEH
_chemical_formula_moiety         'C44 H68 N4 O7,0.61(C1 H1 Cl3)'
_chemical_name_systematic        
'Benzyl 2-(2-(((2-((2-(2-(((2-((t-butoxycarbonyl)amino)cyclopentyl)-carbonyl)amino)cyclohexyl)butanoyl)amino)-cyclopentyl)carbonyl)amino)cyclohexyl)butanoate chloroform unknown solvate'
_symmetry_cell_setting           orthorhombic
_symmetry_space_group_name_H-M   'P 21 21 21'
_symmetry_Int_Tables_number      19
_space_group_name_Hall           'P 2ac 2ab'
loop_
_symmetry_equiv_pos_site_id
_symmetry_equiv_pos_as_xyz
1 x,y,z
2 1/2-x,-y,1/2+z
3 -x,1/2+y,1/2-z
4 1/2+x,1/2-y,-z
_cell_length_a                   16.5029(4)
_cell_length_b                   20.8999(5)
_cell_length_c                   30.0805(7)
_cell_angle_alpha                90
_cell_angle_beta                 90
_cell_angle_gamma                90
_cell_volume                     10375
_exptl_crystal_colour            colorless
_exptl_crystal_description       needle
_cell_formula_units_Z            8
loop_
_atom_site_label
_atom_site_type_symbol
_atom_site_fract_x
_atom_site_fract_y
_atom_site_fract_z
Cl1 Cl 0.65552(13) 0.43315(10) 0.27876(10)
Cl2 Cl 0.71080(11) 0.31522(9) 0.24120(9)
Cl3 Cl 0.58489(15) 0.38572(13) 0.19737(8)
C1 C 0.6284(3) 0.3661(2) 0.24896(17)
H1 H 0.5868 0.3424 0.2666
Cl4 Cl 0.73154(13) 0.28449(13) 0.37333(7)
Cl5 Cl 0.56362(15) 0.30302(16) 0.39584(13)
Cl6 Cl 0.67582(10) 0.25839(8) 0.46189(5)
C2 C 0.6503(2) 0.2588(2) 0.40559(13)
H2 H 0.6383 0.2136 0.3969
O1 O 0.98117(11) 0.78524(8) 0.32738(6)
O2 O 1.00863(11) 0.68196(9) 0.34736(6)
O3 O 0.93464(11) 0.52309(8) 0.32127(6)
O4 O 0.95462(12) 0.54172(10) 0.48182(6)
O5 O 1.14648(11) 0.39596(8) 0.41575(6)
O6 O 1.13354(14) 0.37989(13) 0.59416(7)
O7 O 1.17014(11) 0.45538(10) 0.54558(6)
N1 N 0.95106(13) 0.70617(10) 0.28101(7)
H3 H 0.9337 0.7372 0.2637
N2 N 0.82478(13) 0.56847(10) 0.35320(7)
H4 H 0.7895 0.6000 0.3521
N3 N 1.00487(14) 0.59330(10) 0.42223(7)
H5 H 0.9955 0.6205 0.4005
N4 N 1.04594(13) 0.43307(11) 0.45959(7)
H6 H 1.0143 0.4655 0.4664
C3 C 0.9928(2) 0.79196(16) 0.40915(10)
H7 H 0.9336 0.7959 0.4088
H8 H 1.0150 0.8188 0.4329
H9 H 1.0078 0.7472 0.4144
C4 C 1.11584(19) 0.79762(16) 0.35893(13)
H10 H 1.1238 0.7516 0.3634
H11 H 1.1477 0.8214 0.3809
H12 H 1.1336 0.8094 0.3289
C5 C 1.0133(2) 0.88521(15) 0.35799(12)
H13 H 1.0380 0.8989 0.3300
H14 H 1.0380 0.9087 0.3827
H15 H 0.9550 0.8940 0.3572
C6 C 1.02696(18) 0.81377(14) 0.36441(10)
C7 C 0.98210(16) 0.72079(12) 0.32076(8)
C8 C 0.94511(15) 0.64067(11) 0.26561(8)
H16 H 0.9931 0.6161 0.2766
C9 C 0.94248(16) 0.63674(12) 0.21455(8)
H17 H 0.9078 0.6709 0.2020
H18 H 0.9975 0.6404 0.2017
C10 C 0.9071(2) 0.57198(17) 0.20586(12)
H19 H 0.9481 0.5380 0.2104
H20 H 0.8858 0.5690 0.1752
C11 C 0.83910(17) 0.56658(17) 0.23982(9)
H21 H 0.8303 0.5213 0.2482
H22 H 0.7880 0.5839 0.2275
C12 C 0.86662(15) 0.60651(13) 0.28112(8)
H23 H 0.8243 0.6391 0.2885
C13 C 0.87975(14) 0.56303(12) 0.32031(8)
C14 C 0.82156(16) 0.52410(12) 0.39041(9)
H24 H 0.8766 0.5048 0.3940
C15 C 0.76161(17) 0.46984(15) 0.38142(14)
H25 H 0.7666 0.4370 0.4050
H26 H 0.7747 0.4494 0.3526
C16 C 0.67394(19) 0.49537(17) 0.38028(15)
H27 H 0.6676 0.5251 0.3549
H28 H 0.6359 0.4592 0.3759
C17 C 0.6533(2) 0.52977(19) 0.42300(14)
H29 H 0.5979 0.5476 0.4208
H30 H 0.6540 0.4988 0.4479
C18 C 0.7120(2) 0.58299(17) 0.43266(11)
H31 H 0.6983 0.6024 0.4617
H32 H 0.7063 0.6165 0.4096
C19 C 0.80070(18) 0.55963(15) 0.43370(10)
H33 H 0.8046 0.5276 0.4583
C20 C 0.94556(18) 0.58009(14) 0.45061(8)
C21 C 0.8636(2) 0.61217(15) 0.44377(9)
H34 H 0.8664 0.6435 0.4187
C22 C 0.8377(4) 0.6467(3) 0.48785(17)
H35 H 0.7829 0.6652 0.4843
H36 H 0.8358 0.6153 0.5125
C23 C 0.8978(3) 0.6994(3) 0.49899(16)
H37 H 0.9526 0.6814 0.5004
H38 H 0.8838 0.7183 0.5278
H39 H 0.8958 0.7325 0.4759
C24 C 1.08544(16) 0.56416(12) 0.42574(8)
H40 H 1.0978 0.5555 0.4577
C25 C 1.15096(18) 0.60829(13) 0.40647(8)
H41 H 1.2008 0.6067 0.4247
H42 H 1.1315 0.6531 0.4050
C26 C 1.16667(17) 0.58172(12) 0.35964(8)
H43 H 1.1235 0.5947 0.3387
H44 H 1.2198 0.5961 0.3480
C27 C 1.16571(15) 0.50966(13) 0.36762(8)
H45 H 1.2166 0.4952 0.3819
H46 H 1.1581 0.4860 0.3394
C28 C 1.09263(14) 0.50044(12) 0.39885(7)
H47 H 1.0433 0.4972 0.3797
C29 C 1.09760(15) 0.43922(12) 0.42576(8)
C30 C 1.04027(18) 0.37430(14) 0.48566(9)
H48 H 1.0963 0.3607 0.4941
C31 C 1.0012(2) 0.32062(16) 0.45799(11)
H49 H 1.0328 0.3142 0.4304
H50 H 1.0024 0.2802 0.4751
C32 C 0.9143(2) 0.3369(2) 0.44624(12)
H51 H 0.8901 0.3013 0.4290
H52 H 0.9132 0.3758 0.4275
C33 C 0.8647(2) 0.3482(2) 0.48851(12)
H53 H 0.8093 0.3621 0.4801
H54 H 0.8599 0.3075 0.5051
C34 C 0.9023(2) 0.39830(19) 0.51843(11)
H55 H 0.8718 0.3997 0.5468
H56 H 0.8970 0.4407 0.5041
C35 C 0.99145(18) 0.38599(17) 0.52850(10)
H57 H 0.9940 0.3455 0.5462
C36 C 1.02943(18) 0.43940(16) 0.55766(9)
H58 H 1.0291 0.4804 0.5405
C37 C 0.9827(2) 0.4492(2) 0.60142(11)
H59 H 0.9263 0.4619 0.5945
H60 H 0.9808 0.4082 0.6178
C38 C 1.0209(3) 0.4996(2) 0.63066(12)
H61 H 1.0191 0.5411 0.6155
H62 H 1.0773 0.4881 0.6368
H63 H 0.9909 0.5025 0.6587
C39 C 1.11514(19) 0.42184(16) 0.56802(9)
C40 C 1.25332(18) 0.43444(17) 0.55208(10)
H64 H 1.2596 0.3896 0.5420
H65 H 1.2676 0.4365 0.5840
C41 C 1.30811(16) 0.47752(14) 0.52574(9)
C42 C 1.36405(19) 0.51435(16) 0.54679(9)
H66 H 1.3673 0.5138 0.5783
C43 C 1.4169(2) 0.55310(17) 0.52236(11)
H67 H 1.4560 0.5787 0.5373
C44 C 1.41219(19) 0.55408(16) 0.47623(11)
H68 H 1.4477 0.5803 0.4593
C45 C 1.35530(19) 0.51647(15) 0.45540(9)
H69 H 1.3517 0.5168 0.4239
C46 C 1.30361(17) 0.47846(14) 0.47949(9)
H70 H 1.2647 0.4527 0.4646
O8 O 0.87646(9) 1.04363(7) 0.24947(5)
O9 O 0.82749(10) 0.94366(8) 0.26517(6)
O10 O 0.85444(10) 0.78289(8) 0.22640(6)
O11 O 0.56664(10) 0.81617(8) 0.23495(6)
O12 O 0.70622(11) 0.66940(9) 0.33724(6)
O13 O 0.47790(16) 0.62376(10) 0.38436(7)
O14 O 0.51531(11) 0.72594(9) 0.39299(6)
N5 N 0.95026(12) 0.95852(9) 0.23309(7)
H71 H 0.9852 0.9868 0.2230
N6 N 0.80513(12) 0.82547(9) 0.16301(7)
H72 H 0.8110 0.8548 0.1423
N7 N 0.67947(12) 0.86407(9) 0.26036(6)
H73 H 0.7212 0.8885 0.2538
N8 N 0.60991(12) 0.70959(9) 0.29192(7)
H74 H 0.5906 0.7432 0.2778
C47 C 0.72739(15) 1.05727(13) 0.25403(9)
H75 H 0.7133 1.0148 0.2655
H76 H 0.7295 1.0560 0.2215
H77 H 0.6863 1.0883 0.2635
C48 C 0.8166(2) 1.06582(15) 0.32216(9)
H78 H 0.8705 1.0787 0.3325
H79 H 0.8081 1.0203 0.3285
H80 H 0.7753 1.0912 0.3376
C49 C 0.82647(17) 1.14709(11) 0.26075(9)
H81 H 0.7834 1.1739 0.2732
H82 H 0.8279 1.1522 0.2284
H83 H 0.8787 1.1600 0.2733
C50 C 0.81007(15) 1.07720(12) 0.27221(8)
C51 C 0.88044(14) 0.97864(11) 0.25039(7)
C52 C 0.96988(14) 0.89039(11) 0.23058(8)
H84 H 0.9457 0.8681 0.2568
C53 C 1.06272(15) 0.87966(13) 0.23072(9)
H85 H 1.0908 0.9132 0.2133
H86 H 1.0843 0.8796 0.2614
C54 C 1.0724(3) 0.8148(2) 0.20924(17)
H87 H 1.1276 0.8097 0.1968
H88 H 1.0626 0.7802 0.2311
C55 C 1.01023(15) 0.81326(13) 0.17301(9)
H89 H 0.9904 0.7690 0.1685
H90 H 1.0340 0.8287 0.1448
C56 C 0.93956(14) 0.85732(11) 0.18742(8)
H91 H 0.9304 0.8905 0.1640
C57 C 0.86246(14) 0.81955(11) 0.19413(8)
C58 C 0.73255(14) 0.78470(11) 0.16217(8)
H92 H 0.7240 0.7671 0.1927
C59 C 0.74549(17) 0.72865(13) 0.13036(9)
H93 H 0.7002 0.6980 0.1337
H94 H 0.7962 0.7062 0.1384
C60 C 0.75048(18) 0.75024(15) 0.08190(9)
H95 H 0.7545 0.7123 0.0623
H96 H 0.7998 0.7765 0.0775
C61 C 0.67522(18) 0.78957(15) 0.06909(9)
H97 H 0.6818 0.8060 0.0384
H98 H 0.6269 0.7615 0.0696
C62 C 0.66180(16) 0.84608(13) 0.10087(8)
H99 H 0.6109 0.8683 0.0928
H100 H 0.7070 0.8769 0.0977
C63 C 0.65686(14) 0.82383(12) 0.14918(8)
H101 H 0.6094 0.7943 0.1513
C64 C 0.64132(15) 0.87932(11) 0.18257(8)
H102 H 0.6904 0.9073 0.1837
C65 C 0.56726(16) 0.92032(12) 0.16982(9)
H103 H 0.5767 0.9391 0.1400
H104 H 0.5192 0.8922 0.1677
C66 C 0.5490(2) 0.97377(15) 0.20220(12)
H105 H 0.5378 0.9556 0.2316
H106 H 0.5016 0.9978 0.1919
H107 H 0.5958 1.0025 0.2041
C67 C 0.62672(14) 0.85069(11) 0.22853(8)
C68 C 0.67162(15) 0.84004(12) 0.30605(8)
H108 H 0.6132 0.8306 0.3121
C69 C 0.7016(2) 0.88890(14) 0.34016(9)
H109 H 0.7102 0.9311 0.3260
H110 H 0.6619 0.8938 0.3646
C70 C 0.7807(2) 0.86265(18) 0.35767(10)
H111 H 0.8262 0.8737 0.3376
H112 H 0.7924 0.8796 0.3877
C71 C 0.76728(17) 0.79143(16) 0.35903(9)
H113 H 0.7339 0.7790 0.3850
H114 H 0.8194 0.7680 0.3601
C72 C 0.72202(14) 0.77863(13) 0.31497(8)
H115 H 0.7639 0.7759 0.2910
C73 C 0.67831(14) 0.71523(11) 0.31582(8)
C74 C 0.56677(16) 0.64822(12) 0.28899(9)
H116 H 0.5793 0.6230 0.3164
C75 C 0.59641(19) 0.61024(13) 0.24881(10)
H117 H 0.6562 0.6071 0.2498
H118 H 0.5741 0.5663 0.2502
C76 C 0.57105(18) 0.64125(15) 0.20530(10)
H119 H 0.5899 0.6147 0.1801
H120 H 0.5965 0.6840 0.2027
C77 C 0.47901(18) 0.64809(16) 0.20328(10)
H121 H 0.4537 0.6052 0.2038
H122 H 0.4634 0.6693 0.1751
C78 C 0.44815(17) 0.68755(13) 0.24265(9)
H123 H 0.3882 0.6893 0.2417
H124 H 0.4688 0.7319 0.2401
C79 C 0.47518(16) 0.65911(12) 0.28727(9)
H125 H 0.4490 0.6161 0.2898
C80 C 0.44507(15) 0.69929(13) 0.32698(9)
H126 H 0.4598 0.7451 0.3220
C81 C 0.35284(18) 0.6941(2) 0.33317(12)
H127 H 0.3256 0.7105 0.3062
H128 H 0.3380 0.6484 0.3365
C82 C 0.3223(2) 0.7311(2) 0.37350(13)
H129 H 0.3486 0.7148 0.4004
H130 H 0.2635 0.7258 0.3761
H131 H 0.3351 0.7766 0.3699
C83 C 0.48099(17) 0.67744(13) 0.37022(9)
C84 C 0.5440(2) 0.71065(15) 0.43699(10)
H132 H 0.5758 0.6705 0.4362
H133 H 0.4974 0.7043 0.4572
C85 C 0.59571(17) 0.76423(14) 0.45355(9)
C86 C 0.58490(19) 0.82754(15) 0.43960(10)
H134 H 0.5426 0.8377 0.4194
C87 C 0.6357(2) 0.87546(17) 0.45510(9)
H135 H 0.6282 0.9183 0.4454
C88 C 0.6968(2) 0.86117(19) 0.48439(10)
H136 H 0.7326 0.8938 0.4942
C89 C 0.7062(2) 0.7996(2) 0.49950(13)
H137 H 0.7477 0.7899 0.5203
C90 C 0.6555(2) 0.75185(18) 0.48447(10)
H138 H 0.6619 0.7096 0.4956
C91? C 0.8605(12) 0.6644(5) 0.4812(3)
C92? C 0.8471(7) 0.6360(6) 0.5272(3)
C93? C 0.8592(4) 0.6120(4) 0.2033(2)
C94? C 1.0825(3) 0.8527(3) 0.18623(16)
H139? H 0.8692 0.6367 0.4154
H140? H 0.9121 0.6886 0.4812
H141? H 0.8162 0.6949 0.4746
H142? H 0.7956 0.6127 0.5277
H143? H 0.8915 0.6066 0.5343
H144? H 0.8455 0.6705 0.5493
H145? H 1.0783 0.8494 0.2545
H146? H 1.0916 0.9206 0.2355
H147? H 0.9512 0.6795 0.2012
H148? H 0.9847 0.6072 0.2034
H149? H 0.8594 0.5898 0.1743
H150? H 0.8194 0.6474 0.2022
H151? H 1.1317 0.8258 0.1878
H152? H 1.0919 0.8875 0.1645
H153? H 1.0090 0.7719 0.1891
H154? H 1.0093 0.8051 0.1406
H155? H 0.8700 0.5262 0.2372
H156? H 0.7804 0.5569 0.2408
loop_
_geom_bond_atom_site_label_1
_geom_bond_atom_site_label_2
_geom_bond_site_symmetry_1
_geom_bond_site_symmetry_2
Cl1 C1 1_555 1_555
Cl2 C1 1_555 1_555
Cl3 C1 1_555 1_555
C1 H1 1_555 1_555
Cl4 C2 1_555 1_555
Cl5 C2 1_555 1_555
Cl6 C2 1_555 1_555
C2 H2 1_555 1_555
O1 C6 1_555 1_555
O2 C7 1_555 1_555
O3 C13 1_555 1_555
O4 C20 1_555 1_555
O5 C29 1_555 1_555
O6 C39 1_555 1_555
O7 C39 1_555 1_555
N1 H3 1_555 1_555
N2 H4 1_555 1_555
N3 H5 1_555 1_555
N4 H6 1_555 1_555
C3 H7 1_555 1_555
H8 C3 1_555 1_555
H9 C3 1_555 1_555
C4 H10 1_555 1_555
H11 C4 1_555 1_555
H12 C4 1_555 1_555
C5 H13 1_555 1_555
H14 C5 1_555 1_555
H15 C5 1_555 1_555
C6 C3 1_555 1_555
C7 O1 1_555 1_555
C8 N1 1_555 1_555
H16 C8 1_555 1_555
C9 C8 1_555 1_555
H17 C9 1_555 1_555
H18 C9 1_555 1_555
C10 C9 1_555 1_555
H19 C10 1_555 1_555
H20 C10 1_555 1_555
C11 C10 1_555 1_555
H21 C11 1_555 1_555
H22 C11 1_555 1_555
C12 C8 1_555 1_555
H23 C12 1_555 1_555
C13 N2 1_555 1_555
C14 N2 1_555 1_555
H24 C14 1_555 1_555
C15 C14 1_555 1_555
H25 C15 1_555 1_555
H26 C15 1_555 1_555
C16 C15 1_555 1_555
H27 C16 1_555 1_555
H28 C16 1_555 1_555
C17 C16 1_555 1_555
H29 C17 1_555 1_555
H30 C17 1_555 1_555
C18 C17 1_555 1_555
H31 C18 1_555 1_555
H32 C18 1_555 1_555
C19 C14 1_555 1_555
H33 C19 1_555 1_555
C20 N3 1_555 1_555
C21 C19 1_555 1_555
H34 C21 1_555 1_555
C22 C21 1_555 1_555
H35 C22 1_555 1_555
H36 C22 1_555 1_555
C23 C22 1_555 1_555
H37 C23 1_555 1_555
H38 C23 1_555 1_555
H39 C23 1_555 1_555
C24 N3 1_555 1_555
H40 C24 1_555 1_555
C25 C24 1_555 1_555
H41 C25 1_555 1_555
H42 C25 1_555 1_555
C26 C25 1_555 1_555
H43 C26 1_555 1_555
H44 C26 1_555 1_555
C27 C26 1_555 1_555
H45 C27 1_555 1_555
H46 C27 1_555 1_555
C28 C24 1_555 1_555
H47 C28 1_555 1_555
C29 N4 1_555 1_555
C30 N4 1_555 1_555
H48 C30 1_555 1_555
C31 C30 1_555 1_555
H49 C31 1_555 1_555
H50 C31 1_555 1_555
C32 C31 1_555 1_555
H51 C32 1_555 1_555
H52 C32 1_555 1_555
C33 C32 1_555 1_555
H53 C33 1_555 1_555
H54 C33 1_555 1_555
C34 C33 1_555 1_555
H55 C34 1_555 1_555
H56 C34 1_555 1_555
C35 C30 1_555 1_555
H57 C35 1_555 1_555
C36 C35 1_555 1_555
H58 C36 1_555 1_555
C37 C36 1_555 1_555
H59 C37 1_555 1_555
H60 C37 1_555 1_555
C38 C37 1_555 1_555
H61 C38 1_555 1_555
H62 C38 1_555 1_555
H63 C38 1_555 1_555
C39 C36 1_555 1_555
C40 O7 1_555 1_555
H64 C40 1_555 1_555
H65 C40 1_555 1_555
C41 C40 1_555 1_555
C42 C41 1_555 1_555
H66 C42 1_555 1_555
C43 C42 1_555 1_555
H67 C43 1_555 1_555
C44 C43 1_555 1_555
H68 C44 1_555 1_555
C45 C44 1_555 1_555
H69 C45 1_555 1_555
C46 C41 1_555 1_555
H70 C46 1_555 1_555
O8 C50 1_555 1_555
O9 C51 1_555 1_555
O10 C57 1_555 1_555
O11 C67 1_555 1_555
O12 C73 1_555 1_555
O13 C83 1_555 1_555
O14 C83 1_555 1_555
N5 H71 1_555 1_555
N6 H72 1_555 1_555
N7 H73 1_555 1_555
N8 H74 1_555 1_555
C47 H75 1_555 1_555
H76 C47 1_555 1_555
H77 C47 1_555 1_555
C48 H78 1_555 1_555
H79 C48 1_555 1_555
H80 C48 1_555 1_555
C49 H81 1_555 1_555
H82 C49 1_555 1_555
H83 C49 1_555 1_555
C50 C47 1_555 1_555
C51 O8 1_555 1_555
C52 N5 1_555 1_555
H84 C52 1_555 1_555
C53 C52 1_555 1_555
H85 C53 1_555 1_555
H86 C53 1_555 1_555
C54 C53 1_555 1_555
H87 C54 1_555 1_555
H88 C54 1_555 1_555
C55 C54 1_555 1_555
H89 C55 1_555 1_555
H90 C55 1_555 1_555
C56 C52 1_555 1_555
H91 C56 1_555 1_555
C57 N6 1_555 1_555
C58 N6 1_555 1_555
H92 C58 1_555 1_555
C59 C58 1_555 1_555
H93 C59 1_555 1_555
H94 C59 1_555 1_555
C60 C59 1_555 1_555
H95 C60 1_555 1_555
H96 C60 1_555 1_555
C61 C60 1_555 1_555
H97 C61 1_555 1_555
H98 C61 1_555 1_555
C62 C61 1_555 1_555
H99 C62 1_555 1_555
H100 C62 1_555 1_555
C63 C58 1_555 1_555
H101 C63 1_555 1_555
C64 C63 1_555 1_555
H102 C64 1_555 1_555
C65 C64 1_555 1_555
H103 C65 1_555 1_555
H104 C65 1_555 1_555
C66 C65 1_555 1_555
H105 C66 1_555 1_555
H106 C66 1_555 1_555
H107 C66 1_555 1_555
C67 N7 1_555 1_555
C68 N7 1_555 1_555
H108 C68 1_555 1_555
C69 C68 1_555 1_555
H109 C69 1_555 1_555
H110 C69 1_555 1_555
C70 C69 1_555 1_555
H111 C70 1_555 1_555
H112 C70 1_555 1_555
C71 C70 1_555 1_555
H113 C71 1_555 1_555
H114 C71 1_555 1_555
C72 C68 1_555 1_555
H115 C72 1_555 1_555
C73 N8 1_555 1_555
C74 N8 1_555 1_555
H116 C74 1_555 1_555
C75 C74 1_555 1_555
H117 C75 1_555 1_555
H118 C75 1_555 1_555
C76 C75 1_555 1_555
H119 C76 1_555 1_555
H120 C76 1_555 1_555
C77 C76 1_555 1_555
H121 C77 1_555 1_555
H122 C77 1_555 1_555
C78 C77 1_555 1_555
H123 C78 1_555 1_555
H124 C78 1_555 1_555
C79 C74 1_555 1_555
H125 C79 1_555 1_555
C80 C79 1_555 1_555
H126 C80 1_555 1_555
C81 C80 1_555 1_555
H127 C81 1_555 1_555
H128 C81 1_555 1_555
C82 C81 1_555 1_555
H129 C82 1_555 1_555
H130 C82 1_555 1_555
H131 C82 1_555 1_555
C83 C80 1_555 1_555
C84 O14 1_555 1_555
H132 C84 1_555 1_555
H133 C84 1_555 1_555
C85 C84 1_555 1_555
C86 C85 1_555 1_555
H134 C86 1_555 1_555
C87 C86 1_555 1_555
H135 C87 1_555 1_555
C88 C87 1_555 1_555
H136 C88 1_555 1_555
C89 C88 1_555 1_555
H137 C89 1_555 1_555
C90 C85 1_555 1_555
H138 C90 1_555 1_555
N1 C7 1_555 1_555
C4 C6 1_555 1_555
C5 C6 1_555 1_555
C11 C12 1_555 1_555
C12 C13 1_555 1_555
C18 C19 1_555 1_555
C20 C21 1_555 1_555
C27 C28 1_555 1_555
C28 C29 1_555 1_555
C34 C35 1_555 1_555
C45 C46 1_555 1_555
N5 C51 1_555 1_555
C48 C50 1_555 1_555
C49 C50 1_555 1_555
C55 C56 1_555 1_555
C56 C57 1_555 1_555
C62 C63 1_555 1_555
C64 C67 1_555 1_555
C71 C72 1_555 1_555
C72 C73 1_555 1_555
C78 C79 1_555 1_555
C89 C90 1_555 1_555

#END
