
#######################################################################
#
#                 Cambridge Crystallographic Data Centre
#                                CCDC 
#
#######################################################################
#
# If this CIF has been generated from an entry in the Cambridge 
# Structural Database, then it will include bibliographic, chemical, 
# crystal, experimental, refinement or atomic coordinate data resulting 
# from the CCDC's data processing and validation procedures.
#
#######################################################################

data_OKULOW
_chemical_formula_moiety         'C13 H27 N1 O1 S1 Si1'
_chemical_name_systematic        
2-Methyl-N-(4-methyl-1-(trimethylsilyl)pent-1-yn-3-yl)propane-2-sulfinamide
_symmetry_cell_setting           orthorhombic
_symmetry_space_group_name_H-M   'P 21 21 21'
_symmetry_Int_Tables_number      19
_space_group_name_Hall           'P 2ac 2ab'
loop_
_symmetry_equiv_pos_site_id
_symmetry_equiv_pos_as_xyz
1 x,y,z
2 1/2-x,-y,1/2+z
3 -x,1/2+y,1/2-z
4 1/2+x,1/2-y,-z
_cell_length_a                   6.1090(5)
_cell_length_b                   15.4595(13)
_cell_length_c                   18.0045(15)
_cell_angle_alpha                90
_cell_angle_beta                 90
_cell_angle_gamma                90
_cell_volume                     1700.38
_exptl_crystal_colour            colorless
_exptl_crystal_description       block
_cell_formula_units_Z            4
loop_
_atom_site_label
_atom_site_type_symbol
_atom_site_fract_x
_atom_site_fract_y
_atom_site_fract_z
S1 S 0.81946(14) 0.81199(6) 0.92903(4)
Si1 Si 0.60573(17) 0.38465(7) 0.91341(6)
O1 O 0.7938(4) 0.81620(16) 1.01127(11)
N1 N 0.7000(5) 0.72301(16) 0.89564(14)
C1 C 0.6829(8) 0.3517(3) 1.0086(2)
H1 H 0.8424 0.3545 1.0140
H2 H 0.6332 0.2923 1.0177
H3 H 0.6141 0.3907 1.0446
C2 C 0.3045(6) 0.3807(2) 0.9011(2)
H4 H 0.2672 0.3982 0.8503
H5 H 0.2347 0.4203 0.9364
H6 H 0.2523 0.3217 0.9100
C3 C 0.7364(7) 0.3124(3) 0.8447(3)
H7 H 0.6937 0.3302 0.7945
H8 H 0.6889 0.2527 0.8534
H9 H 0.8959 0.3160 0.8497
C4 C 0.7004(6) 0.4952(2) 0.89863(19)
C5 C 0.7673(6) 0.5676(2) 0.89055(17)
C6 C 0.8642(6) 0.6539(2) 0.87798(17)
H10 H 0.9906 0.6607 0.9128
C7 C 0.9503(6) 0.6641(2) 0.79873(18)
H11 H 1.0017 0.7251 0.7932
C8 C 0.7767(7) 0.6491(3) 0.74062(19)
H12 H 0.6523 0.6876 0.7500
H13 H 0.7277 0.5888 0.7428
H14 H 0.8374 0.6612 0.6913
C9 C 1.1495(7) 0.6052(3) 0.7872(2)
H15 H 1.2579 0.6166 0.8262
H16 H 1.2145 0.6169 0.7385
H17 H 1.1034 0.5446 0.7897
C10 C 0.6343(6) 0.8940(2) 0.88986(19)
C11 C 0.7011(8) 0.9782(3) 0.9273(3)
H18 H 0.6091 1.0254 0.9088
H19 H 0.8549 0.9906 0.9161
H20 H 0.6823 0.9727 0.9812
C12 C 0.3956(6) 0.8742(3) 0.9047(2)
H21 H 0.3041 0.9195 0.8827
H22 H 0.3702 0.8720 0.9584
H23 H 0.3579 0.8182 0.8826
C13 C 0.6813(7) 0.8959(2) 0.8071(2)
H24 H 0.5870 0.9390 0.7832
H25 H 0.6521 0.8388 0.7857
H26 H 0.8351 0.9112 0.7989
loop_
_geom_bond_atom_site_label_1
_geom_bond_atom_site_label_2
_geom_bond_site_symmetry_1
_geom_bond_site_symmetry_2
S1 O1 1_555 1_555
Si1 C1 1_555 1_555
N1 S1 1_555 1_555
C1 H1 1_555 1_555
H2 C1 1_555 1_555
H3 C1 1_555 1_555
C2 Si1 1_555 1_555
H4 C2 1_555 1_555
H5 C2 1_555 1_555
H6 C2 1_555 1_555
C3 Si1 1_555 1_555
H7 C3 1_555 1_555
H8 C3 1_555 1_555
H9 C3 1_555 1_555
C4 Si1 1_555 1_555
C5 C4 1_555 1_555
C6 N1 1_555 1_555
H10 C6 1_555 1_555
C7 C6 1_555 1_555
H11 C7 1_555 1_555
C8 C7 1_555 1_555
H12 C8 1_555 1_555
H13 C8 1_555 1_555
H14 C8 1_555 1_555
C9 C7 1_555 1_555
H15 C9 1_555 1_555
H16 C9 1_555 1_555
H17 C9 1_555 1_555
C10 S1 1_555 1_555
C11 C10 1_555 1_555
H18 C11 1_555 1_555
H19 C11 1_555 1_555
H20 C11 1_555 1_555
C12 C10 1_555 1_555
H21 C12 1_555 1_555
H22 C12 1_555 1_555
H23 C12 1_555 1_555
C13 C10 1_555 1_555
H24 C13 1_555 1_555
H25 C13 1_555 1_555
H26 C13 1_555 1_555
C5 C6 1_555 1_555

#END
