
#######################################################################
#
#                 Cambridge Crystallographic Data Centre
#                                CCDC 
#
#######################################################################
#
# If this CIF has been generated from an entry in the Cambridge 
# Structural Database, then it will include bibliographic, chemical, 
# crystal, experimental, refinement or atomic coordinate data resulting 
# from the CCDC's data processing and validation procedures.
#
#######################################################################

data_OKUMEM
_chemical_name_common            
'p-t-Butylcalix(6)-1,4-2,5-bis(crown-4) chloroform solvate'
_chemical_formula_moiety         'C78 H104 O10,2(C1 H1 Cl3)'
_chemical_name_systematic        
'5,11,17,23,29,35-Hexa-t-butyl-37,40-dihydroxy-38,41:39,42-bis(3,6-dioxaoctane-1,8-dioxy)calix(6)arene chloroform solvate'
_symmetry_cell_setting           triclinic
_symmetry_space_group_name_H-M   'P -1'
_symmetry_Int_Tables_number      2
_space_group_name_Hall           '-P 1'
loop_
_symmetry_equiv_pos_site_id
_symmetry_equiv_pos_as_xyz
1 x,y,z
2 -x,-y,-z
_cell_length_a                   16.7732(17)
_cell_length_b                   17.200(2)
_cell_length_c                   17.485(2)
_cell_angle_alpha                90.678(8)
_cell_angle_beta                 113.782(9)
_cell_angle_gamma                118.848(9)
_cell_volume                     3906.87
_exptl_crystal_colour            colorless
_exptl_crystal_description       platelet
_cell_formula_units_Z            2
loop_
_atom_site_label
_atom_site_type_symbol
_atom_site_fract_x
_atom_site_fract_y
_atom_site_fract_z
O1 O 0.6642(4) 0.9420(4) -0.0052(3)
O2 O 0.7617(4) 1.0750(4) 0.1482(3)
O3 O 0.7984(4) 1.0468(4) 0.3605(3)
O4 O 0.7423(4) 0.8977(4) 0.4375(3)
O5 O 0.6333(4) 0.7096(4) -0.0095(3)
O6 O 0.4952(4) 0.5871(4) 0.0602(3)
O7 O 0.4457(4) 0.5441(4) 0.2009(3)
O8 O 0.5595(4) 0.7181(4) 0.3297(3)
O9 O 0.7703(4) 0.8350(4) 0.3018(3)
H1 H 0.7984 0.8986 0.3477
O10 O 0.5694(3) 0.8943(4) 0.1012(3)
H2 H 0.6190 0.9421 0.0654
C1 C 0.7339(6) 1.0356(5) 0.0046(5)
H3 H 0.6968 1.0665 -0.0155
H4 H 0.7687 1.0405 -0.0295
C2 C 0.8091(6) 1.0786(6) 0.0959(5)
H5 H 0.8462 1.0477 0.1152
H6 H 0.8584 1.1423 0.1026
C3 C 0.8107(6) 1.0663(6) 0.2334(5)
H7 H 0.8816 1.1175 0.2638
H8 H 0.8107 1.0100 0.2295
C4 C 0.7548(6) 1.0648(6) 0.2823(4)
H9 H 0.7612 1.1237 0.2923
H10 H 0.6823 1.0176 0.2496
C5 C 0.7408(6) 1.0295(6) 0.4054(5)
H11 H 0.6683 0.9870 0.3661
H12 H 0.7495 1.0863 0.4282
C6 C 0.7760(6) 0.9890(5) 0.4786(5)
H13 H 0.8503 1.0256 0.5131
H14 H 0.7451 0.9863 0.5157
C7 C 0.5484(5) 0.7092(5) -0.0041(5)
H15 H 0.5742 0.7465 0.0521
H16 H 0.5219 0.7369 -0.0476
C8 C 0.4645(6) 0.6170(5) -0.0169(5)
H17 H 0.4031 0.6176 -0.0289
H18 H 0.4491 0.5752 -0.0657
C9 C 0.4138(6) 0.5004(5) 0.0573(5)
H19 H 0.3995 0.4510 0.0165
H20 H 0.3514 0.5010 0.0397
C10 C 0.4514(6) 0.4872(6) 0.1490(5)
H21 H 0.4089 0.4236 0.1478
H22 H 0.5219 0.5025 0.1719
C11 C 0.5099(6) 0.5615(6) 0.2900(5)
H23 H 0.5808 0.5886 0.3014
H24 H 0.4886 0.5047 0.3078
C12 C 0.5008(6) 0.6275(6) 0.3398(6)
H25 H 0.4292 0.6086 0.3172
H26 H 0.5277 0.6279 0.4005
C13 C 0.4919(5) 0.8652(5) -0.1255(5)
C14 C 0.5931(6) 0.8842(6) -0.0894(5)
C15 C 0.6222(5) 0.8367(6) -0.1280(5)
C16 C 0.5449(6) 0.7711(6) -0.2068(5)
H27 H 0.5620 0.7395 -0.2343
C17 C 0.4434(6) 0.7503(6) -0.2467(5)
C18 C 0.4211(5) 0.7988(6) -0.2037(5)
H28 H 0.3541 0.7860 -0.2289
C19 C 0.3634(6) 0.6722(6) -0.3268(5)
C20 C 0.3441(6) 0.5779(6) -0.3036(5)
H29 H 0.2989 0.5289 -0.3557
H30 H 0.3132 0.5662 -0.2659
H31 H 0.4085 0.5813 -0.2751
C21 C 0.3984(8) 0.6818(8) -0.3960(6)
H32 H 0.4166 0.7409 -0.4074
H33 H 0.3435 0.6346 -0.4481
H34 H 0.4572 0.6760 -0.3761
C22 C 0.2606(6) 0.6670(7) -0.3674(6)
H35 H 0.2707 0.7230 -0.3833
H36 H 0.2345 0.6584 -0.3264
H37 H 0.2121 0.6162 -0.4180
C23 C 0.7262(6) 0.8516(6) -0.0891(5)
H38 H 0.7709 0.9091 -0.0977
H39 H 0.7225 0.8033 -0.1224
C24 C 0.7803(6) 0.8549(6) 0.0067(5)
C25 C 0.7351(5) 0.7894(6) 0.0439(5)
C26 C 0.7861(6) 0.7892(6) 0.1293(5)
C27 C 0.8871(6) 0.8622(6) 0.1781(5)
H40 H 0.9232 0.8636 0.2353
C28 C 0.9379(6) 0.9347(6) 0.1448(5)
C29 C 0.8816(5) 0.9280(6) 0.0577(5)
H41 H 0.9124 0.9735 0.0330
C30 C 1.0496(6) 1.0133(7) 0.2027(6)
C31 C 1.1232(8) 0.9814(8) 0.2248(8)
H42 H 1.1169 0.9547 0.1726
H43 H 1.1076 0.9363 0.2571
H44 H 1.1923 1.0327 0.2590
C32 C 1.0782(7) 1.0900(7) 0.1616(6)
H45 H 1.0248 1.1031 0.1403
H46 H 1.0871 1.0733 0.1143
H47 H 1.1414 1.1435 0.2033
C33 C 1.0587(7) 1.0518(8) 0.2845(6)
H48 H 1.1264 1.1053 0.3179
H49 H 1.0470 1.0066 0.3170
H50 H 1.0085 1.0685 0.2713
C34 C 0.7365(6) 0.7137(6) 0.1705(5)
H51 H 0.6763 0.7115 0.1673
H52 H 0.7134 0.6550 0.1369
C35 C 0.8049(6) 0.7265(6) 0.2610(5)
C36 C 0.8235(5) 0.7909(6) 0.3265(5)
C37 C 0.8953(6) 0.8108(5) 0.4144(5)
C38 C 0.9497(6) 0.7667(6) 0.4327(5)
H53 H 0.9993 0.7813 0.4893
C39 C 0.9330(5) 0.7012(6) 0.3695(5)
C40 C 0.8607(6) 0.6841(6) 0.2858(6)
H54 H 0.8486 0.6412 0.2430
C41 C 0.9965(6) 0.6555(7) 0.3953(6)
C42 C 0.9587(7) 0.5789(7) 0.3216(6)
H55 H 0.8873 0.5339 0.3026
H56 H 0.9980 0.5505 0.3410
H57 H 0.9668 0.6036 0.2745
C43 C 1.1069(6) 0.7297(7) 0.4212(7)
H58 H 1.1479 0.7030 0.4333
H59 H 1.1331 0.7748 0.4720
H60 H 1.1095 0.7585 0.3749
C44 C 0.9867(7) 0.6144(7) 0.4720(7)
H61 H 0.9153 0.5767 0.4576
H62 H 1.0217 0.6634 0.5226
H63 H 1.0169 0.5779 0.4833
C45 C 0.9116(5) 0.8741(6) 0.4845(5)
H64 H 0.9089 0.9254 0.4642
H65 H 0.9794 0.8981 0.5328
C46 C 0.8296(5) 0.8253(5) 0.5148(5)
C47 C 0.7480(6) 0.8386(5) 0.4922(5)
C48 C 0.6722(6) 0.7917(6) 0.5157(5)
C49 C 0.6781(6) 0.7272(6) 0.5614(5)
H66 H 0.6272 0.6942 0.5777
C50 C 0.7574(6) 0.7098(6) 0.5841(6)
C51 C 0.8311(6) 0.7591(6) 0.5587(5)
H67 H 0.8833 0.7477 0.5713
C52 C 0.7531(6) 0.6308(6) 0.6284(6)
C53 C 0.8536(9) 0.6348(10) 0.6600(10)
H68 H 0.9099 0.6965 0.6916
H69 H 0.8592 0.6162 0.6114
H70 H 0.8554 0.5943 0.6971
C54 C 0.7290(11) 0.6350(9) 0.7013(8)
H71 H 0.7217 0.5831 0.7247
H72 H 0.6660 0.6339 0.6805
H73 H 0.7839 0.6906 0.7457
C55 C 0.6620(9) 0.5397(7) 0.5604(7)
H74 H 0.6719 0.5354 0.5106
H75 H 0.5991 0.5380 0.5438
H76 H 0.6583 0.4890 0.5847
C56 C 0.5812(5) 0.8014(5) 0.4922(5)
H77 H 0.6022 0.8523 0.5357
H78 H 0.5280 0.7463 0.4967
C57 C 0.5326(5) 0.8166(6) 0.4039(5)
C58 C 0.5208(5) 0.7751(6) 0.3281(5)
C59 C 0.4802(5) 0.7932(5) 0.2487(5)
C60 C 0.4458(5) 0.8541(5) 0.2469(5)
H79 H 0.4210 0.8696 0.1954
C61 C 0.4472(5) 0.8918(5) 0.3182(5)
C62 C 0.4930(5) 0.8718(5) 0.3939(5)
H80 H 0.4976 0.8985 0.4433
C63 C 0.4095(6) 0.9576(6) 0.3168(5)
C64 C 0.3433(6) 0.9306(6) 0.3627(6)
H81 H 0.2874 0.8678 0.3364
H82 H 0.3163 0.9695 0.3581
H83 H 0.3844 0.9377 0.4227
C65 C 0.5021(6) 1.0540(5) 0.3624(6)
H84 H 0.4797 1.0949 0.3673
H85 H 0.5395 1.0734 0.3297
H86 H 0.5460 1.0551 0.4190
C66 C 0.3447(7) 0.9533(6) 0.2237(5)
H87 H 0.2861 0.8919 0.1950
H88 H 0.3855 0.9705 0.1939
H89 H 0.3219 0.9948 0.2236
C67 C 0.4780(5) 0.7520(6) 0.1720(4)
H90 H 0.4498 0.6870 0.1678
H91 H 0.5484 0.7793 0.1820
C68 C 0.4181(5) 0.7626(5) 0.0871(5)
C69 C 0.4662(5) 0.8334(5) 0.0508(5)
C70 C 0.4092(5) 0.8370(5) -0.0315(5)
C71 C 0.3049(5) 0.7735(5) -0.0751(5)
H92 H 0.2672 0.7777 -0.1293
C72 C 0.2527(5) 0.7035(6) -0.0430(5)
C73 C 0.3116(5) 0.6988(6) 0.0382(5)
H93 H 0.2793 0.6517 0.0608
C74 C 0.1383(5) 0.6340(6) -0.0923(5)
C75 C 0.0854(8) 0.6444(9) -0.0458(8)
H94 H 0.0920 0.7031 -0.0449
H95 H 0.1162 0.6403 0.0124
H96 H 0.0138 0.5965 -0.0749
C76 C 0.0866(7) 0.6387(7) -0.1848(6)
H97 H 0.0187 0.5847 -0.2154
H98 H 0.1265 0.6422 -0.2130
H99 H 0.0820 0.6922 -0.1844
C77 C 0.1215(8) 0.5353(7) -0.0974(7)
H100 H 0.1467 0.5272 -0.0401
H101 H 0.1581 0.5288 -0.1248
H102 H 0.0494 0.4897 -0.1305
C78 C 0.4601(6) 0.9058(5) -0.0766(5)
H103 H 0.4120 0.9205 -0.1160
H104 H 0.5198 0.9621 -0.0340
Cl1 Cl 0.2566(2) 0.6414(2) 0.36253(17)
Cl2 Cl 0.15691(17) 0.68549(17) 0.20683(17)
Cl3 Cl 0.21649(16) 0.55506(16) 0.19661(16)
C79 C 0.2482(6) 0.6564(6) 0.2619(5)
H105 H 0.3156 0.7067 0.2710
Cl4 Cl 0.8239(2) 0.6680(2) -0.0693(2)
Cl5 Cl 0.9390(3) 0.6907(3) 0.1096(2)
Cl6 Cl 1.0330(2) 0.8160(2) 0.0222(2)
C80 C 0.9182(6) 0.7465(6) 0.0281(5)
H106 H 0.8959 0.7856 0.0418
loop_
_geom_bond_atom_site_label_1
_geom_bond_atom_site_label_2
_geom_bond_site_symmetry_1
_geom_bond_site_symmetry_2
O1 C1 1_555 1_555
O2 C2 1_555 1_555
O3 C4 1_555 1_555
O4 C6 1_555 1_555
O5 C7 1_555 1_555
O6 C8 1_555 1_555
O7 C10 1_555 1_555
O8 C12 1_555 1_555
O9 H1 1_555 1_555
O10 H2 1_555 1_555
C1 H3 1_555 1_555
H4 C1 1_555 1_555
C2 C1 1_555 1_555
H5 C2 1_555 1_555
H6 C2 1_555 1_555
C3 O2 1_555 1_555
H7 C3 1_555 1_555
H8 C3 1_555 1_555
C4 C3 1_555 1_555
H9 C4 1_555 1_555
H10 C4 1_555 1_555
C5 O3 1_555 1_555
H11 C5 1_555 1_555
H12 C5 1_555 1_555
C6 C5 1_555 1_555
H13 C6 1_555 1_555
H14 C6 1_555 1_555
C7 H15 1_555 1_555
H16 C7 1_555 1_555
C8 C7 1_555 1_555
H17 C8 1_555 1_555
H18 C8 1_555 1_555
C9 O6 1_555 1_555
H19 C9 1_555 1_555
H20 C9 1_555 1_555
C10 C9 1_555 1_555
H21 C10 1_555 1_555
H22 C10 1_555 1_555
C11 O7 1_555 1_555
H23 C11 1_555 1_555
H24 C11 1_555 1_555
C12 C11 1_555 1_555
H25 C12 1_555 1_555
H26 C12 1_555 1_555
C13 C14 1_555 1_555
C14 O1 1_555 1_555
C15 C14 1_555 1_555
C16 C15 1_555 1_555
H27 C16 1_555 1_555
C17 C16 1_555 1_555
C18 C13 1_555 1_555
H28 C18 1_555 1_555
C19 C17 1_555 1_555
C20 C19 1_555 1_555
H29 C20 1_555 1_555
H30 C20 1_555 1_555
H31 C20 1_555 1_555
C21 C19 1_555 1_555
H32 C21 1_555 1_555
H33 C21 1_555 1_555
H34 C21 1_555 1_555
C22 C19 1_555 1_555
H35 C22 1_555 1_555
H36 C22 1_555 1_555
H37 C22 1_555 1_555
C23 C15 1_555 1_555
H38 C23 1_555 1_555
H39 C23 1_555 1_555
C24 C23 1_555 1_555
C25 O5 1_555 1_555
C26 C25 1_555 1_555
C27 C26 1_555 1_555
H40 C27 1_555 1_555
C28 C27 1_555 1_555
C29 C24 1_555 1_555
H41 C29 1_555 1_555
C30 C28 1_555 1_555
C31 C30 1_555 1_555
H42 C31 1_555 1_555
H43 C31 1_555 1_555
H44 C31 1_555 1_555
C32 C30 1_555 1_555
H45 C32 1_555 1_555
H46 C32 1_555 1_555
H47 C32 1_555 1_555
C33 C30 1_555 1_555
H48 C33 1_555 1_555
H49 C33 1_555 1_555
H50 C33 1_555 1_555
C34 C26 1_555 1_555
H51 C34 1_555 1_555
H52 C34 1_555 1_555
C35 C34 1_555 1_555
C36 O9 1_555 1_555
C37 C36 1_555 1_555
C38 C37 1_555 1_555
H53 C38 1_555 1_555
C39 C38 1_555 1_555
C40 C35 1_555 1_555
H54 C40 1_555 1_555
C41 C39 1_555 1_555
C42 C41 1_555 1_555
H55 C42 1_555 1_555
H56 C42 1_555 1_555
H57 C42 1_555 1_555
C43 C41 1_555 1_555
H58 C43 1_555 1_555
H59 C43 1_555 1_555
H60 C43 1_555 1_555
C44 C41 1_555 1_555
H61 C44 1_555 1_555
H62 C44 1_555 1_555
H63 C44 1_555 1_555
C45 C37 1_555 1_555
H64 C45 1_555 1_555
H65 C45 1_555 1_555
C46 C45 1_555 1_555
C47 O4 1_555 1_555
C48 C47 1_555 1_555
C49 C48 1_555 1_555
H66 C49 1_555 1_555
C50 C49 1_555 1_555
C51 C46 1_555 1_555
H67 C51 1_555 1_555
C52 C50 1_555 1_555
C53 C52 1_555 1_555
H68 C53 1_555 1_555
H69 C53 1_555 1_555
H70 C53 1_555 1_555
C54 C52 1_555 1_555
H71 C54 1_555 1_555
H72 C54 1_555 1_555
H73 C54 1_555 1_555
C55 C52 1_555 1_555
H74 C55 1_555 1_555
H75 C55 1_555 1_555
H76 C55 1_555 1_555
C56 C48 1_555 1_555
H77 C56 1_555 1_555
H78 C56 1_555 1_555
C57 C56 1_555 1_555
C58 O8 1_555 1_555
C59 C58 1_555 1_555
C60 C59 1_555 1_555
H79 C60 1_555 1_555
C61 C60 1_555 1_555
C62 C57 1_555 1_555
H80 C62 1_555 1_555
C63 C61 1_555 1_555
C64 C63 1_555 1_555
H81 C64 1_555 1_555
H82 C64 1_555 1_555
H83 C64 1_555 1_555
C65 C63 1_555 1_555
H84 C65 1_555 1_555
H85 C65 1_555 1_555
H86 C65 1_555 1_555
C66 C63 1_555 1_555
H87 C66 1_555 1_555
H88 C66 1_555 1_555
H89 C66 1_555 1_555
C67 C59 1_555 1_555
H90 C67 1_555 1_555
H91 C67 1_555 1_555
C68 C67 1_555 1_555
C69 O10 1_555 1_555
C70 C69 1_555 1_555
C71 C70 1_555 1_555
H92 C71 1_555 1_555
C72 C71 1_555 1_555
C73 C68 1_555 1_555
H93 C73 1_555 1_555
C74 C72 1_555 1_555
C75 C74 1_555 1_555
H94 C75 1_555 1_555
H95 C75 1_555 1_555
H96 C75 1_555 1_555
C76 C74 1_555 1_555
H97 C76 1_555 1_555
H98 C76 1_555 1_555
H99 C76 1_555 1_555
C77 C74 1_555 1_555
H100 C77 1_555 1_555
H101 C77 1_555 1_555
H102 C77 1_555 1_555
C78 C13 1_555 1_555
H103 C78 1_555 1_555
H104 C78 1_555 1_555
Cl1 C79 1_555 1_555
Cl2 C79 1_555 1_555
Cl3 C79 1_555 1_555
C79 H105 1_555 1_555
Cl4 C80 1_555 1_555
Cl5 C80 1_555 1_555
Cl6 C80 1_555 1_555
C80 H106 1_555 1_555
C17 C18 1_555 1_555
C24 C25 1_555 1_555
C28 C29 1_555 1_555
C35 C36 1_555 1_555
C39 C40 1_555 1_555
C46 C47 1_555 1_555
C50 C51 1_555 1_555
C57 C58 1_555 1_555
C61 C62 1_555 1_555
C68 C69 1_555 1_555
C70 C78 1_555 1_555
C72 C73 1_555 1_555

#END
