
#######################################################################
#
#                 Cambridge Crystallographic Data Centre
#                                CCDC 
#
#######################################################################
#
# If this CIF has been generated from an entry in the Cambridge 
# Structural Database, then it will include bibliographic, chemical, 
# crystal, experimental, refinement or atomic coordinate data resulting 
# from the CCDC's data processing and validation procedures.
#
#######################################################################

data_OKUNAK
_chemical_formula_moiety         'C10 H8 N2 O1'
_chemical_name_systematic        4-(Pyridin-4-yl)-1H-pyrrole-2-carbaldehyde
_symmetry_cell_setting           monoclinic
_symmetry_space_group_name_H-M   'P 21/n'
_symmetry_Int_Tables_number      14
_space_group_name_Hall           '-P 2yn'
loop_
_symmetry_equiv_pos_site_id
_symmetry_equiv_pos_as_xyz
1 x,y,z
2 1/2-x,1/2+y,1/2-z
3 -x,-y,-z
4 1/2+x,1/2-y,1/2+z
_cell_length_a                   9.5287(3)
_cell_length_b                   17.6893(6)
_cell_length_c                   9.7101(3)
_cell_angle_alpha                90
_cell_angle_beta                 91.9406(16)
_cell_angle_gamma                90
_cell_volume                     1635.76
_exptl_crystal_colour            colorless
_exptl_crystal_description       plates
_cell_formula_units_Z            8
loop_
_atom_site_label
_atom_site_type_symbol
_atom_site_fract_x
_atom_site_fract_y
_atom_site_fract_z
N1 N 0.66707(15) 0.23692(9) 0.63129(15)
C1 C 0.54205(18) 0.20818(10) 0.57545(18)
C2 C 0.53823(19) 0.13181(10) 0.60385(18)
C3 C 0.66388(18) 0.11276(9) 0.67960(18)
C4 C 0.73891(20) 0.17953(10) 0.69461(19)
C5 C 0.44162(20) 0.25370(11) 0.49996(19)
O1 O 0.45468(14) 0.32151(7) 0.47583(14)
C6 C 0.70442(19) 0.03766(10) 0.72880(17)
C7 C 0.83569(20) 0.02254(10) 0.79288(19)
C8 C 0.8677(2) -0.04985(10) 0.83563(19)
N2 N 0.77982(16) -0.10894(8) 0.82134(16)
C9 C 0.6537(2) -0.09428(11) 0.76000(19)
C10 C 0.6138(2) -0.02401(10) 0.71359(19)
H1 H 0.690(2) 0.2927(13) 0.637(2)
H2 H 0.4621(19) 0.0968(9) 0.5737(17)
H3 H 0.832(2) 0.1880(10) 0.7438(18)
H4 H 0.3530(19) 0.2227(9) 0.4671(18)
H5 H 0.9000(19) 0.0639(10) 0.8088(17)
H6 H 0.9623(20) -0.0627(10) 0.8797(19)
H7 H 0.591(2) -0.1378(11) 0.7535(19)
H8 H 0.5221(19) -0.0167(9) 0.6704(17)
N3 N 0.13273(15) 0.24047(9) 0.65982(15)
C11 C 0.07538(18) 0.21368(9) 0.53651(18)
C12 C 0.09530(18) 0.13639(10) 0.53370(18)
C13 C 0.16580(17) 0.11518(9) 0.65850(17)
C14 C 0.18738(19) 0.18186(10) 0.7318(2)
C15 C 0.00097(19) 0.26160(11) 0.43923(20)
O2 O -0.02546(14) 0.32829(7) 0.45738(14)
C16 C 0.20830(17) 0.03859(9) 0.70142(18)
C17 C 0.26659(20) 0.02331(10) 0.83266(20)
C18 C 0.3064(2) -0.04944(10) 0.86670(20)
N4 N 0.29321(15) -0.10834(8) 0.77975(15)
C19 C 0.23720(19) -0.09324(10) 0.65392(19)
C20 C 0.19412(18) -0.02246(10) 0.61179(19)
H9 H 0.147(2) 0.2964(12) 0.681(2)
H10 H 0.0645(19) 0.1038(9) 0.4577(19)
H11 H 0.2348(19) 0.1875(10) 0.8174(20)
H12 H -0.0325(18) 0.2340(10) 0.3484(20)
H13 H 0.2765(19) 0.0638(10) 0.8983(19)
H14 H 0.3460(19) -0.0584(10) 0.9613(19)
H15 H 0.2292(17) -0.1364(10) 0.5941(17)
H16 H 0.1572(18) -0.0171(9) 0.5151(19)
loop_
_geom_bond_atom_site_label_1
_geom_bond_atom_site_label_2
_geom_bond_site_symmetry_1
_geom_bond_site_symmetry_2
N1 C1 1_555 1_555
C1 C2 1_555 1_555
C2 C3 1_555 1_555
C3 C4 1_555 1_555
C4 N1 1_555 1_555
C5 C1 1_555 1_555
O1 C5 1_555 1_555
C6 C3 1_555 1_555
C7 C6 1_555 1_555
C8 C7 1_555 1_555
N2 C8 1_555 1_555
C9 N2 1_555 1_555
C10 C6 1_555 1_555
N3 C11 1_555 1_555
C11 C12 1_555 1_555
C12 C13 1_555 1_555
C13 C14 1_555 1_555
C14 N3 1_555 1_555
C15 C11 1_555 1_555
O2 C15 1_555 1_555
C16 C13 1_555 1_555
C17 C16 1_555 1_555
C18 C17 1_555 1_555
N4 C18 1_555 1_555
C19 N4 1_555 1_555
C20 C16 1_555 1_555
H1 N1 1_555 1_555
H2 C2 1_555 1_555
H3 C4 1_555 1_555
H4 C5 1_555 1_555
H5 C7 1_555 1_555
H6 C8 1_555 1_555
H7 C9 1_555 1_555
H8 C10 1_555 1_555
H9 N3 1_555 1_555
H10 C12 1_555 1_555
H11 C14 1_555 1_555
H12 C15 1_555 1_555
H13 C17 1_555 1_555
H14 C18 1_555 1_555
H15 C19 1_555 1_555
H16 C20 1_555 1_555
C9 C10 1_555 1_555
C19 C20 1_555 1_555

#END
