
#######################################################################
#
#                 Cambridge Crystallographic Data Centre
#                                CCDC 
#
#######################################################################
#
# If this CIF has been generated from an entry in the Cambridge 
# Structural Database, then it will include bibliographic, chemical, 
# crystal, experimental, refinement or atomic coordinate data resulting 
# from the CCDC's data processing and validation procedures.
#
#######################################################################

data_OKUPUG
_chemical_formula_moiety         'C26 H16 S2'
_chemical_name_systematic        
2,7-Diphenylthieno[2',3':5,6]naphtho[1,2-b]thiophene
_symmetry_cell_setting           monoclinic
_symmetry_space_group_name_H-M   'P 21/a'
_symmetry_Int_Tables_number      14
_space_group_name_Hall           '-P 2yab'
loop_
_symmetry_equiv_pos_site_id
_symmetry_equiv_pos_as_xyz
1 x,y,z
2 1/2-x,1/2+y,-z
3 -x,-y,-z
4 1/2+x,1/2-y,z
_cell_length_a                   6.823(7)
_cell_length_b                   7.355(8)
_cell_length_c                   19.05(2)
_cell_angle_alpha                90
_cell_angle_beta                 90.427(4)
_cell_angle_gamma                90
_cell_volume                     955.963
_exptl_crystal_colour            colorless
_exptl_crystal_description       platelet
_cell_formula_units_Z            2
loop_
_atom_site_label
_atom_site_type_symbol
_atom_site_fract_x
_atom_site_fract_y
_atom_site_fract_z
S1 S 1.22684(9) -0.06679(7) 0.65944(3)
C1 C 1.0705(4) 0.0013(3) 0.72622(13)
C2 C 0.8921(4) 0.0536(3) 0.69951(13)
C3 C 0.8788(4) 0.0437(2) 0.62562(12)
C4 C 1.0529(3) -0.0190(2) 0.59529(13)
C5 C 1.0801(3) -0.0285(2) 0.52158(12)
C6 C 1.2578(4) -0.0863(3) 0.49058(13)
C7 C 1.2799(3) -0.0927(3) 0.41935(13)
C8 C 1.1386(4) -0.0011(3) 0.79967(13)
C9 C 1.2996(4) -0.1034(3) 0.82116(15)
C10 C 1.3603(5) -0.1042(3) 0.89052(16)
C11 C 1.2638(5) -0.0045(3) 0.94028(15)
C12 C 1.1047(4) 0.0996(3) 0.91995(15)
C13 C 1.0435(4) 0.1023(3) 0.85098(15)
H1 H 0.7854 0.0950 0.7287
H2 H 1.3654 -0.1208 0.5209
H3 H 1.4043 -0.1333 0.4004
H4 H 1.3677 -0.1768 0.7872
H5 H 1.4678 -0.1803 0.9048
H6 H 1.3078 -0.0056 0.9887
H7 H 1.0379 0.1714 0.9546
H8 H 0.9341 0.1770 0.8374
S1B S 0.77316(9) 0.06679(7) 0.34056(3)
C1B C 0.9295(4) -0.0013(3) 0.27378(13)
C2B C 1.1079(4) -0.0536(3) 0.30049(13)
C3B C 1.1212(4) -0.0437(2) 0.37438(12)
C4B C 0.9471(3) 0.0190(2) 0.40471(13)
C5B C 0.9199(3) 0.0285(2) 0.47842(12)
C6B C 0.7422(4) 0.0863(3) 0.50942(13)
C7B C 0.7201(3) 0.0927(3) 0.58065(13)
C8B C 0.8614(4) 0.0011(3) 0.20033(13)
C9B C 0.7004(4) 0.1034(3) 0.17884(15)
C10B C 0.6397(5) 0.1042(3) 0.10948(16)
C11B C 0.7362(5) 0.0045(3) 0.05972(15)
C12B C 0.8953(4) -0.0996(3) 0.08005(15)
C13B C 0.9565(4) -0.1023(3) 0.14902(15)
H1B H 1.2146 -0.0950 0.2713
H2B H 0.6346 0.1208 0.4791
H3B H 0.5957 0.1333 0.5996
H4B H 0.6323 0.1768 0.2128
H5B H 0.5322 0.1803 0.0952
H6B H 0.6922 0.0056 0.0113
H7B H 0.9621 -0.1714 0.0454
H8B H 1.0659 -0.1770 0.1626
loop_
_geom_bond_atom_site_label_1
_geom_bond_atom_site_label_2
_geom_bond_site_symmetry_1
_geom_bond_site_symmetry_2
S1 C1 1_555 1_555
C1 C2 1_555 1_555
C2 C3 1_555 1_555
C3 C4 1_555 1_555
C4 S1 1_555 1_555
C5 C4 1_555 1_555
C6 C5 1_555 1_555
C7 C6 1_555 1_555
C8 C1 1_555 1_555
C9 C8 1_555 1_555
C10 C9 1_555 1_555
C11 C10 1_555 1_555
C12 C11 1_555 1_555
C13 C8 1_555 1_555
H1 C2 1_555 1_555
H2 C6 1_555 1_555
H3 C7 1_555 1_555
H4 C9 1_555 1_555
H5 C10 1_555 1_555
H6 C11 1_555 1_555
H7 C12 1_555 1_555
H8 C13 1_555 1_555
S1B C1B 1_555 1_555
C1B C2B 1_555 1_555
C2B C3B 1_555 1_555
C3B C7 1_555 1_555
C4B S1B 1_555 1_555
C5B C5 1_555 1_555
C6B C5B 1_555 1_555
C7B C3 1_555 1_555
C8B C1B 1_555 1_555
C9B C8B 1_555 1_555
C10B C9B 1_555 1_555
C11B C10B 1_555 1_555
C12B C11B 1_555 1_555
C13B C8B 1_555 1_555
H1B C2B 1_555 1_555
H2B C6B 1_555 1_555
H3B C7B 1_555 1_555
H4B C9B 1_555 1_555
H5B C10B 1_555 1_555
H6B C11B 1_555 1_555
H7B C12B 1_555 1_555
H8B C13B 1_555 1_555
C12 C13 1_555 1_555
C3B C4B 1_555 1_555
C4B C5B 1_555 1_555
C6B C7B 1_555 1_555
C12B C13B 1_555 1_555

#END
