
#######################################################################
#
#                 Cambridge Crystallographic Data Centre
#                                CCDC 
#
#######################################################################
#
# If this CIF has been generated from an entry in the Cambridge 
# Structural Database, then it will include bibliographic, chemical, 
# crystal, experimental, refinement or atomic coordinate data resulting 
# from the CCDC's data processing and validation procedures.
#
#######################################################################

data_OKUQUH
_chemical_formula_moiety         'C23 H17 N1 O1'
_chemical_name_systematic        
(6-Methyl-2-phenylquinolin-4-yl)(phenyl)methanone
_symmetry_cell_setting           monoclinic
_symmetry_space_group_name_H-M   'C 2/c'
_symmetry_Int_Tables_number      15
_space_group_name_Hall           '-C 2yn'
loop_
_symmetry_equiv_pos_site_id
_symmetry_equiv_pos_as_xyz
1 x,y,z
2 -x,y,1/2-z
3 1/2+x,1/2+y,z
4 1/2-x,1/2+y,1/2-z
5 -x,-y,-z
6 x,-y,1/2+z
7 1/2-x,1/2-y,-z
8 1/2+x,1/2-y,1/2+z
_cell_length_a                   28.7675(10)
_cell_length_b                   8.4494(3)
_cell_length_c                   17.6278(8)
_cell_angle_alpha                90
_cell_angle_beta                 126.142(3)
_cell_angle_gamma                90
_cell_volume                     3460.19
_exptl_crystal_colour            colorless
_exptl_crystal_description       block
_cell_formula_units_Z            8
loop_
_atom_site_label
_atom_site_type_symbol
_atom_site_fract_x
_atom_site_fract_y
_atom_site_fract_z
C1 C 0.22916(6) 0.61215(18) 1.07338(11)
C2 C 0.17588(6) 0.69160(18) 1.03296(12)
H1 H 0.1694 0.7482 1.0712
C3 C 0.13435(6) 0.68535(17) 0.93881(12)
C4 C 0.14484(6) 0.60256(17) 0.88072(11)
C5 C 0.10514(6) 0.58999(18) 0.78224(12)
H2 H 0.0695 0.6392 0.7524
C6 C 0.11734(7) 0.5081(2) 0.72946(12)
C7 C 0.17167(7) 0.4335(2) 0.77618(13)
H3 H 0.1806 0.3764 0.7412
C8 C 0.21116(7) 0.44307(19) 0.87097(13)
H4 H 0.2465 0.3925 0.8996
C9 C 0.19934(6) 0.52833(17) 0.92629(11)
C10 C 0.07631(6) 0.75893(19) 0.89907(11)
C11 C 0.07017(6) 0.93165(17) 0.89161(10)
C12 C 0.11354(7) 1.02838(19) 0.90640(11)
H5 H 0.1477 0.9841 0.9219
C13 C 0.10632(8) 1.1903(2) 0.89829(13)
H6 H 0.1354 1.2551 0.9075
C14 C 0.05616(9) 1.2556(2) 0.87656(15)
H7 H 0.0515 1.3650 0.8721
C15 C 0.01281(8) 1.1604(2) 0.86134(14)
H8 H -0.0212 1.2056 0.8461
C16 C 0.01914(7) 0.9998(2) 0.86833(12)
H9 H -0.0105 0.9359 0.8576
C17 C 0.27420(6) 0.61118(19) 1.17651(11)
C18 C 0.31738(7) 0.4976(2) 1.21614(13)
H10 H 0.3176 0.4223 1.1779
C19 C 0.35988(8) 0.4956(3) 1.31164(15)
H11 H 0.3888 0.4196 1.3372
C20 C 0.35989(8) 0.6047(3) 1.36940(14)
H12 H 0.3886 0.6026 1.4338
C21 C 0.31730(8) 0.7168(2) 1.33156(13)
H13 H 0.3170 0.7904 1.3705
C22 C 0.27487(7) 0.7207(2) 1.23603(12)
H14 H 0.2463 0.7977 1.2111
C23 C 0.07543(8) 0.4972(2) 0.62417(12)
H15 H 0.0379 0.5285 0.6050
H16 H 0.0740 0.3901 0.6047
H17 H 0.0877 0.5659 0.5957
N1 N 0.24025(5) 0.53324(15) 1.02113(9)
O1 O 0.03629(5) 0.67166(14) 0.87530(11)
loop_
_geom_bond_atom_site_label_1
_geom_bond_atom_site_label_2
_geom_bond_site_symmetry_1
_geom_bond_site_symmetry_2
C1 C2 1_555 1_555
C2 H1 1_555 1_555
C3 C2 1_555 1_555
C4 C3 1_555 1_555
C5 C4 1_555 1_555
H2 C5 1_555 1_555
C6 C5 1_555 1_555
C7 C6 1_555 1_555
H3 C7 1_555 1_555
C8 C7 1_555 1_555
H4 C8 1_555 1_555
C9 C4 1_555 1_555
C10 C3 1_555 1_555
C11 C10 1_555 1_555
C12 C11 1_555 1_555
H5 C12 1_555 1_555
C13 C12 1_555 1_555
H6 C13 1_555 1_555
C14 C13 1_555 1_555
H7 C14 1_555 1_555
C15 C14 1_555 1_555
H8 C15 1_555 1_555
C16 C11 1_555 1_555
H9 C16 1_555 1_555
C17 C1 1_555 1_555
C18 C17 1_555 1_555
H10 C18 1_555 1_555
C19 C18 1_555 1_555
H11 C19 1_555 1_555
C20 C19 1_555 1_555
H12 C20 1_555 1_555
C21 C20 1_555 1_555
H13 C21 1_555 1_555
C22 C17 1_555 1_555
H14 C22 1_555 1_555
C23 C6 1_555 1_555
H15 C23 1_555 1_555
H16 C23 1_555 1_555
H17 C23 1_555 1_555
N1 C1 1_555 1_555
O1 C10 1_555 1_555
C8 C9 1_555 1_555
C9 N1 1_555 1_555
C15 C16 1_555 1_555
C21 C22 1_555 1_555

#END
