
#######################################################################
#
#                 Cambridge Crystallographic Data Centre
#                                CCDC 
#
#######################################################################
#
# If this CIF has been generated from an entry in the Cambridge 
# Structural Database, then it will include bibliographic, chemical, 
# crystal, experimental, refinement or atomic coordinate data resulting 
# from the CCDC's data processing and validation procedures.
#
#######################################################################

data_OKURUI
_chemical_formula_moiety         'C14 H12 O3'
_chemical_name_systematic        '4-(2-Naphthyl)-4-oxobutanoic acid'
_symmetry_cell_setting           triclinic
_symmetry_space_group_name_H-M   'P -1'
_symmetry_Int_Tables_number      2
_space_group_name_Hall           '-P 1'
loop_
_symmetry_equiv_pos_site_id
_symmetry_equiv_pos_as_xyz
1 x,y,z
2 -x,-y,-z
_cell_length_a                   5.6250(11)
_cell_length_b                   7.6220(15)
_cell_length_c                   13.537(3)
_cell_angle_alpha                99.36(3)
_cell_angle_beta                 97.39(3)
_cell_angle_gamma                99.14(3)
_cell_volume                     558.232
_exptl_crystal_colour            colorless
_exptl_crystal_description       needle
_cell_formula_units_Z            2
loop_
_atom_site_label
_atom_site_type_symbol
_atom_site_fract_x
_atom_site_fract_y
_atom_site_fract_z
O1 O 0.6995(3) 0.8657(2) 1.46691(9)
H1 H 0.8080 0.9201 1.5131
O2 O 0.9663(2) 0.9652(2) 1.37329(9)
O3 O 0.2354(2) 0.6741(2) 1.12317(9)
C1 C 0.7661(3) 0.8856(2) 1.38016(12)
C2 C 0.5705(3) 0.8013(2) 1.29244(12)
H2 H 0.4285 0.8569 1.2999
H3 H 0.5239 0.6739 1.2943
C3 C 0.6424(3) 0.8189(2) 1.19024(12)
H4 H 0.6931 0.9458 1.1882
H5 H 0.7800 0.7591 1.1809
C4 C 0.4342(3) 0.7365(2) 1.10492(13)
C5 C 0.4727(3) 0.7352(2) 0.99783(12)
C6 C 0.2826(3) 0.6536(2) 0.92175(12)
H6 H 0.1371 0.5989 0.9384
C7 C 0.3038(3) 0.6510(2) 0.81878(12)
C8 C 0.1079(3) 0.5685(3) 0.73941(13)
H7 H -0.0382 0.5122 0.7548
C9 C 0.1326(4) 0.5714(3) 0.64160(14)
H8 H 0.0031 0.5173 0.5903
C10 C 0.3532(4) 0.6558(3) 0.61678(14)
H9 H 0.3677 0.6572 0.5492
C11 C 0.5450(3) 0.7353(2) 0.69075(13)
H10 H 0.6896 0.7899 0.6733
C12 C 0.5261(3) 0.7353(2) 0.79394(12)
C13 C 0.7203(3) 0.8173(2) 0.87373(13)
H11 H 0.8671 0.8726 0.8584
C14 C 0.6957(3) 0.8166(2) 0.97201(13)
H12 H 0.8263 0.8699 1.0230
loop_
_geom_bond_atom_site_label_1
_geom_bond_atom_site_label_2
_geom_bond_site_symmetry_1
_geom_bond_site_symmetry_2
O1 H1 1_555 1_555
O2 C1 1_555 1_555
O3 C4 1_555 1_555
C1 O1 1_555 1_555
C2 C1 1_555 1_555
H2 C2 1_555 1_555
H3 C2 1_555 1_555
C3 C2 1_555 1_555
H4 C3 1_555 1_555
H5 C3 1_555 1_555
C4 C3 1_555 1_555
C5 C4 1_555 1_555
C6 C5 1_555 1_555
H6 C6 1_555 1_555
C7 C6 1_555 1_555
C8 C7 1_555 1_555
H7 C8 1_555 1_555
C9 C8 1_555 1_555
H8 C9 1_555 1_555
C10 C9 1_555 1_555
H9 C10 1_555 1_555
C11 C10 1_555 1_555
H10 C11 1_555 1_555
C12 C7 1_555 1_555
C13 C12 1_555 1_555
H11 C13 1_555 1_555
C14 C5 1_555 1_555
H12 C14 1_555 1_555
C11 C12 1_555 1_555
C13 C14 1_555 1_555

#END
