
#######################################################################
#
#                 Cambridge Crystallographic Data Centre
#                                CCDC 
#
#######################################################################
#
# If this CIF has been generated from an entry in the Cambridge 
# Structural Database, then it will include bibliographic, chemical, 
# crystal, experimental, refinement or atomic coordinate data resulting 
# from the CCDC's data processing and validation procedures.
#
#######################################################################

data_OKUSAP
_chemical_formula_moiety         'C18 H14 O3'
_chemical_name_systematic        '4-(1-Anthryl)-4-oxobutanoic acid'
_symmetry_cell_setting           monoclinic
_symmetry_space_group_name_H-M   'P 21/c'
_symmetry_Int_Tables_number      14
_space_group_name_Hall           '-P 2ybc'
loop_
_symmetry_equiv_pos_site_id
_symmetry_equiv_pos_as_xyz
1 x,y,z
2 -x,1/2+y,1/2-z
3 -x,-y,-z
4 x,1/2-y,1/2+z
_cell_length_a                   18.021(4)
_cell_length_b                   5.2290(10)
_cell_length_c                   14.788(3)
_cell_angle_alpha                90
_cell_angle_beta                 90.51(3)
_cell_angle_gamma                90
_cell_volume                     1393.44
_cell_formula_units_Z            4
loop_
_atom_site_label
_atom_site_type_symbol
_atom_site_fract_x
_atom_site_fract_y
_atom_site_fract_z
C1 C 0.26224(17) 0.8180(7) 0.2685(2)
O1 O 0.19395(15) 0.4585(6) 0.13925(16)
C2 C 0.29759(18) 0.8428(7) 0.1850(2)
H1 H 0.2847 0.7324 0.1381
O2 O 0.01361(15) 0.4799(6) 0.11187(18)
C3 C 0.35175(18) 1.0295(7) 0.1704(2)
O3 O 0.05722(14) 0.2233(5) 0.00616(19)
H2 H 0.0340 0.3223 -0.0265
C4 C 0.3879(2) 1.0498(8) 0.0856(2)
H3 H 0.3750 0.9382 0.0391
C5 C 0.4410(2) 1.2291(9) 0.0713(3)
H4 H 0.4641 1.2412 0.0156
C6 C 0.4607(2) 1.3985(9) 0.1431(4)
H5 H 0.4964 1.5236 0.1331
C7 C 0.4295(2) 1.3825(8) 0.2239(3)
H6 H 0.4442 1.4947 0.2695
C8 C 0.37356(19) 1.1960(7) 0.2422(3)
C9 C 0.3386(2) 1.1699(8) 0.3248(2)
H7 H 0.3517 1.2806 0.3714
C10 C 0.28497(19) 0.9862(7) 0.3408(2)
C11 C 0.2506(2) 0.9636(8) 0.4260(2)
H8 H 0.2649 1.0736 0.4725
C12 C 0.1975(2) 0.7865(9) 0.4420(2)
H9 H 0.1764 0.7730 0.4990
C13 C 0.1747(2) 0.6244(7) 0.3722(2)
H10 H 0.1376 0.5057 0.3839
C14 C 0.20430(18) 0.6312(6) 0.2870(2)
C15 C 0.17310(17) 0.4597(7) 0.2176(2)
C16 C 0.11276(18) 0.2713(7) 0.2411(2)
H11 H 0.1313 0.1529 0.2864
H12 H 0.0711 0.3626 0.2666
C17 C 0.08697(19) 0.1240(8) 0.1594(3)
H13 H 0.1292 0.0399 0.1321
H14 H 0.0524 -0.0074 0.1782
C18 C 0.0501(2) 0.2924(8) 0.0904(3)
loop_
_geom_bond_atom_site_label_1
_geom_bond_atom_site_label_2
_geom_bond_site_symmetry_1
_geom_bond_site_symmetry_2
C1 C2 1_555 1_555
O1 C15 1_555 1_555
C2 H1 1_555 1_555
O2 C18 1_555 1_555
C3 C2 1_555 1_555
O3 H2 1_555 1_555
C4 C3 1_555 1_555
H3 C4 1_555 1_555
C5 C4 1_555 1_555
H4 C5 1_555 1_555
C6 C5 1_555 1_555
H5 C6 1_555 1_555
C7 C6 1_555 1_555
H6 C7 1_555 1_555
C8 C3 1_555 1_555
C9 C8 1_555 1_555
H7 C9 1_555 1_555
C10 C1 1_555 1_555
C11 C10 1_555 1_555
H8 C11 1_555 1_555
C12 C11 1_555 1_555
H9 C12 1_555 1_555
C13 C12 1_555 1_555
H10 C13 1_555 1_555
C14 C1 1_555 1_555
C15 C14 1_555 1_555
C16 C15 1_555 1_555
H11 C16 1_555 1_555
H12 C16 1_555 1_555
C17 C16 1_555 1_555
H13 C17 1_555 1_555
H14 C17 1_555 1_555
C18 O3 1_555 1_555
C7 C8 1_555 1_555
C9 C10 1_555 1_555
C13 C14 1_555 1_555
C17 C18 1_555 1_555

#END
