
#######################################################################
#
#                 Cambridge Crystallographic Data Centre
#                                CCDC 
#
#######################################################################
#
# If this CIF has been generated from an entry in the Cambridge 
# Structural Database, then it will include bibliographic, chemical, 
# crystal, experimental, refinement or atomic coordinate data resulting 
# from the CCDC's data processing and validation procedures.
#
#######################################################################

data_OKUXUP
_chemical_formula_moiety         'C3 H6 N4 O5'
_chemical_name_systematic        3,5-dinitro-1,3,5-oxadiazinane
_symmetry_cell_setting           monoclinic
_symmetry_space_group_name_H-M   'P 21/n'
_symmetry_Int_Tables_number      14
_space_group_name_Hall           '-P 2yn'
loop_
_symmetry_equiv_pos_site_id
_symmetry_equiv_pos_as_xyz
1 x,y,z
2 1/2-x,1/2+y,1/2-z
3 -x,-y,-z
4 1/2+x,1/2-y,1/2+z
_cell_length_a                   5.8128(13)
_cell_length_b                   17.2389(14)
_cell_length_c                   7.1072(6)
_cell_angle_alpha                90
_cell_angle_beta                 112.056(16)
_cell_angle_gamma                90
_cell_volume                     660.066
_exptl_crystal_colour            colorless
_exptl_crystal_description       block
_cell_formula_units_Z            4
loop_
_atom_site_label
_atom_site_type_symbol
_atom_site_fract_x
_atom_site_fract_y
_atom_site_fract_z
O1 O 0.1737(2) 0.15476(6) 0.12676(16)
O2 O 0.75434(19) 0.03820(6) 0.51645(15)
O3 O 0.2911(2) 0.03919(6) 0.08122(15)
O4 O 0.2843(2) 0.21255(7) 0.54823(16)
N1 N 0.5807(2) 0.12716(7) 0.24613(18)
O5 O 0.4584(2) 0.12849(7) 0.78749(15)
N2 N 0.4534(2) 0.16813(8) 0.64279(18)
N3 N 0.6610(2) 0.16624(7) 0.59090(17)
N4 N 0.3322(2) 0.10517(8) 0.14870(17)
C1 C 0.6270(3) 0.19269(9) 0.3860(2)
H1 H 0.4880 0.2284 0.3376
H2 H 0.7744 0.2202 0.3902
C2 C 0.8269(3) 0.09954(9) 0.6603(2)
H3 H 0.9952 0.1153 0.6820
H4 H 0.8248 0.0814 0.7888
C3 C 0.7556(3) 0.06351(9) 0.3265(2)
H5 H 0.7108 0.0207 0.2311
H6 H 0.9213 0.0805 0.3434
loop_
_geom_bond_atom_site_label_1
_geom_bond_atom_site_label_2
_geom_bond_site_symmetry_1
_geom_bond_site_symmetry_2
O1 N4 1_555 1_555
O2 C2 1_555 1_555
O3 N4 1_555 1_555
O4 N2 1_555 1_555
N1 N4 1_555 1_555
O5 N2 1_555 1_555
N2 N3 1_555 1_555
N3 C1 1_555 1_555
C1 N1 1_555 1_555
H1 C1 1_555 1_555
H2 C1 1_555 1_555
C2 N3 1_555 1_555
H3 C2 1_555 1_555
H4 C2 1_555 1_555
C3 O2 1_555 1_555
H5 C3 1_555 1_555
H6 C3 1_555 1_555
N1 C3 1_555 1_555

#END
