
#######################################################################
#
#                 Cambridge Crystallographic Data Centre
#                                CCDC 
#
#######################################################################
#
# If this CIF has been generated from an entry in the Cambridge 
# Structural Database, then it will include bibliographic, chemical, 
# crystal, experimental, refinement or atomic coordinate data resulting 
# from the CCDC's data processing and validation procedures.
#
#######################################################################

data_OKUYIE
_chemical_formula_moiety         'C19 H15 N1 O3'
_chemical_name_systematic        
1-(((3-acetyl-2-hydroxyphenyl)iminio)methyl)naphthalen-2-olate
_symmetry_cell_setting           monoclinic
_symmetry_space_group_name_H-M   'P 21/n'
_symmetry_Int_Tables_number      14
_space_group_name_Hall           '-P 2yn'
loop_
_symmetry_equiv_pos_site_id
_symmetry_equiv_pos_as_xyz
1 x,y,z
2 1/2-x,1/2+y,1/2-z
3 -x,-y,-z
4 1/2+x,1/2-y,1/2+z
_cell_length_a                   9.1811(4)
_cell_length_b                   16.0396(6)
_cell_length_c                   10.1330(5)
_cell_angle_alpha                90
_cell_angle_beta                 98.640(5)
_cell_angle_gamma                90
_cell_volume                     1475.26
_exptl_crystal_colour            'light brown'
_exptl_crystal_description       block
_cell_formula_units_Z            4
loop_
_atom_site_label
_atom_site_type_symbol
_atom_site_fract_x
_atom_site_fract_y
_atom_site_fract_z
O1 O 0.55781(17) 0.16602(11) 0.51263(18)
O2 O 0.69792(19) 0.04615(11) 0.29312(19)
H1 H 0.7797 0.0357 0.2741
O3 O 0.8795(2) -0.01596(13) 0.1566(2)
N1 N 0.4321(2) 0.05714(11) 0.35454(19)
H2 H 0.5087 0.0848 0.3888
C1 C 0.3020(2) 0.13616(13) 0.4984(2)
C2 C 0.4332(2) 0.17945(14) 0.5526(2)
C3 C 0.4255(3) 0.23938(14) 0.6568(2)
H3 H 0.5102 0.2681 0.6929
C4 C 0.2988(3) 0.25470(14) 0.7030(2)
H4 H 0.2982 0.2937 0.7709
C5 C 0.1653(2) 0.21328(13) 0.6517(2)
C6 C 0.0342(3) 0.23015(15) 0.7032(3)
H5 H 0.0355 0.2686 0.7720
C7 C -0.0944(3) 0.19124(16) 0.6541(3)
H6 H -0.1803 0.2032 0.6886
C8 C -0.0957(3) 0.13353(16) 0.5520(3)
H7 H -0.1833 0.1069 0.5181
C9 C 0.0301(2) 0.11523(15) 0.5004(3)
H8 H 0.0260 0.0763 0.4319
C10 C 0.1652(2) 0.15377(13) 0.5482(2)
C11 C 0.3094(3) 0.07531(14) 0.4002(2)
H9 H 0.2239 0.0467 0.3660
C12 C 0.4541(3) -0.00159(13) 0.2572(2)
C13 C 0.5978(3) -0.00575(14) 0.2257(2)
C14 C 0.6332(3) -0.06117(14) 0.1287(2)
C15 C 0.5218(3) -0.11210(15) 0.0649(3)
H10 H 0.5429 -0.1494 0.0002
C16 C 0.3819(3) -0.10847(15) 0.0955(3)
H11 H 0.3093 -0.1433 0.0517
C17 C 0.3476(3) -0.05315(14) 0.1913(2)
H12 H 0.2520 -0.0509 0.2111
C18 C 0.7848(3) -0.06285(16) 0.0972(3)
C19 C 0.8269(3) -0.12018(18) -0.0066(3)
H13 H 0.8250 -0.1767 0.0242
H14 H 0.9243 -0.1067 -0.0234
H15 H 0.7584 -0.1140 -0.0875
loop_
_geom_bond_atom_site_label_1
_geom_bond_atom_site_label_2
_geom_bond_site_symmetry_1
_geom_bond_site_symmetry_2
O1 C2 1_555 1_555
O2 H1 1_555 1_555
O3 C18 1_555 1_555
N1 H2 1_555 1_555
C1 C2 1_555 1_555
C2 C3 1_555 1_555
C3 H3 1_555 1_555
C4 C3 1_555 1_555
H4 C4 1_555 1_555
C5 C4 1_555 1_555
C6 C5 1_555 1_555
H5 C6 1_555 1_555
C7 C6 1_555 1_555
H6 C7 1_555 1_555
C8 C7 1_555 1_555
H7 C8 1_555 1_555
C9 C8 1_555 1_555
H8 C9 1_555 1_555
C10 C1 1_555 1_555
C11 N1 1_555 1_555
H9 C11 1_555 1_555
C12 N1 1_555 1_555
C13 O2 1_555 1_555
C14 C13 1_555 1_555
C15 C14 1_555 1_555
H10 C15 1_555 1_555
C16 C15 1_555 1_555
H11 C16 1_555 1_555
C17 C12 1_555 1_555
H12 C17 1_555 1_555
C18 C14 1_555 1_555
C19 C18 1_555 1_555
H13 C19 1_555 1_555
H14 C19 1_555 1_555
H15 C19 1_555 1_555
C1 C11 1_555 1_555
C5 C10 1_555 1_555
C9 C10 1_555 1_555
C12 C13 1_555 1_555
C16 C17 1_555 1_555

#END
