
#######################################################################
#
#                 Cambridge Crystallographic Data Centre
#                                CCDC 
#
#######################################################################
#
# If this CIF has been generated from an entry in the Cambridge 
# Structural Database, then it will include bibliographic, chemical, 
# crystal, experimental, refinement or atomic coordinate data resulting 
# from the CCDC's data processing and validation procedures.
#
#######################################################################

data_OLACEL
_chemical_formula_moiety         'C14 H18 B1 N1 O2'
_chemical_name_systematic        
1-(4,4,5,5-tetramethyl-1,3,2-dioxaborolan-2-yl)-1H-indole
_symmetry_cell_setting           triclinic
_symmetry_space_group_name_H-M   'P -1'
_symmetry_Int_Tables_number      2
_space_group_name_Hall           '-P 1'
loop_
_symmetry_equiv_pos_site_id
_symmetry_equiv_pos_as_xyz
1 x,y,z
2 -x,-y,-z
_cell_length_a                   9.9037(16)
_cell_length_b                   10.603(2)
_cell_length_c                   13.511(3)
_cell_angle_alpha                71.175(19)
_cell_angle_beta                 88.013(15)
_cell_angle_gamma                88.035(15)
_cell_volume                     1341.68
_exptl_crystal_colour            colorless
_exptl_crystal_description       block
_cell_formula_units_Z            4
loop_
_atom_site_label
_atom_site_type_symbol
_atom_site_fract_x
_atom_site_fract_y
_atom_site_fract_z
B1 B 0.1085(6) 0.3043(6) 0.2118(5)
N1 N 0.0420(4) 0.2093(4) 0.1777(3)
O1 O 0.1567(4) 0.2762(3) 0.3088(3)
O2 O 0.1331(3) 0.4309(3) 0.1467(3)
C1 C 0.2064(5) 0.4001(5) 0.3180(4)
C2 C 0.2294(5) 0.4856(5) 0.2006(4)
C3 C 0.3671(6) 0.4632(8) 0.1563(6)
H1 H 0.3838 0.3695 0.1703
H2 H 0.4351 0.4984 0.1884
H3 H 0.3698 0.5077 0.0821
C4 C 0.2010(7) 0.6328(6) 0.1768(5)
H4 H 0.2184 0.6780 0.1038
H5 H 0.2585 0.6669 0.2176
H6 H 0.1082 0.6474 0.1939
C5 C 0.3324(7) 0.3679(7) 0.3821(5)
H7 H 0.3103 0.3105 0.4514
H8 H 0.3690 0.4489 0.3858
H9 H 0.3980 0.3239 0.3498
C6 C 0.0973(6) 0.4550(6) 0.3729(5)
H10 H 0.0174 0.4734 0.3318
H11 H 0.1268 0.5357 0.3819
H12 H 0.0776 0.3909 0.4400
C7 C 0.0019(5) 0.2302(6) 0.0738(4)
H13 H 0.0085 0.3103 0.0193
C8 C -0.0473(5) 0.1168(6) 0.0653(4)
H14 H -0.0784 0.1055 0.0046
C9 C -0.0430(5) 0.0170(5) 0.1666(4)
C10 C 0.0108(5) 0.0776(5) 0.2352(4)
C11 C 0.0244(5) 0.0100(5) 0.3412(4)
H15 H 0.0582 0.0514 0.3858
C12 C -0.0146(5) -0.1219(6) 0.3780(4)
H16 H -0.0071 -0.1695 0.4488
C13 C -0.0649(6) -0.1851(5) 0.3109(5)
H17 H -0.0882 -0.2742 0.3373
C14 C -0.0803(5) -0.1167(5) 0.2064(5)
H18 H -0.1151 -0.1587 0.1624
B2 B 0.4103(6) 0.2101(6) -0.2198(5)
N2 N 0.3498(4) 0.3284(4) -0.2070(3)
O3 O 0.4215(4) 0.0966(4) -0.1364(3)
O4 O 0.4624(4) 0.2002(3) -0.3119(3)
C15 C 0.4915(5) 0.0569(5) -0.2944(4)
C16 C 0.5035(5) 0.0018(5) -0.1730(4)
C17 C 0.6457(6) 0.0045(6) -0.1344(5)
H19 H 0.6820 0.0914 -0.1666
H20 H 0.7022 -0.0606 -0.1524
H21 H 0.6425 -0.0156 -0.0598
C18 C 0.4423(6) -0.1334(6) -0.1205(5)
H22 H 0.4493 -0.1566 -0.0460
H23 H 0.4899 -0.1992 -0.1440
H24 H 0.3489 -0.1300 -0.1381
C19 C 0.3755(6) 0.0033(6) -0.3365(5)
H25 H 0.2946 0.0082 -0.2966
H26 H 0.3950 -0.0879 -0.3315
H27 H 0.3629 0.0553 -0.4085
C20 C 0.6211(6) 0.0454(6) -0.3542(5)
H28 H 0.6055 0.0797 -0.4280
H29 H 0.6498 -0.0465 -0.3357
H30 H 0.6899 0.0958 -0.3369
C21 C 0.3048(5) 0.3412(5) -0.1113(4)
H31 H 0.3108 0.2737 -0.0473
C22 C 0.2507(5) 0.4664(6) -0.1241(4)
H32 H 0.2143 0.4986 -0.0723
C23 C 0.2624(5) 0.5383(5) -0.2360(4)
C24 C 0.2279(5) 0.6689(5) -0.2950(4)
H33 H 0.1903 0.7286 -0.2637
C25 C 0.2517(5) 0.7063(6) -0.4023(4)
H34 H 0.2284 0.7925 -0.4435
C26 C 0.3092(6) 0.6192(6) -0.4497(4)
H35 H 0.3233 0.6477 -0.5219
C27 C 0.3466(5) 0.4891(5) -0.3911(4)
H36 H 0.3858 0.4302 -0.4226
C28 C 0.3226(5) 0.4514(5) -0.2836(4)
loop_
_geom_bond_atom_site_label_1
_geom_bond_atom_site_label_2
_geom_bond_site_symmetry_1
_geom_bond_site_symmetry_2
B1 N1 1_555 1_555
N1 C7 1_555 1_555
O1 B1 1_555 1_555
O2 B1 1_555 1_555
C1 O1 1_555 1_555
C2 O2 1_555 1_555
C3 C2 1_555 1_555
H1 C3 1_555 1_555
H2 C3 1_555 1_555
H3 C3 1_555 1_555
C4 C2 1_555 1_555
H4 C4 1_555 1_555
H5 C4 1_555 1_555
H6 C4 1_555 1_555
C5 C1 1_555 1_555
H7 C5 1_555 1_555
H8 C5 1_555 1_555
H9 C5 1_555 1_555
C6 C1 1_555 1_555
H10 C6 1_555 1_555
H11 C6 1_555 1_555
H12 C6 1_555 1_555
C7 H13 1_555 1_555
C8 C7 1_555 1_555
H14 C8 1_555 1_555
C9 C8 1_555 1_555
C10 N1 1_555 1_555
C11 C10 1_555 1_555
H15 C11 1_555 1_555
C12 C11 1_555 1_555
H16 C12 1_555 1_555
C13 C12 1_555 1_555
H17 C13 1_555 1_555
C14 C9 1_555 1_555
H18 C14 1_555 1_555
B2 N2 1_555 1_555
N2 C21 1_555 1_555
O3 B2 1_555 1_555
O4 B2 1_555 1_555
C15 O4 1_555 1_555
C16 O3 1_555 1_555
C17 C16 1_555 1_555
H19 C17 1_555 1_555
H20 C17 1_555 1_555
H21 C17 1_555 1_555
C18 C16 1_555 1_555
H22 C18 1_555 1_555
H23 C18 1_555 1_555
H24 C18 1_555 1_555
C19 C15 1_555 1_555
H25 C19 1_555 1_555
H26 C19 1_555 1_555
H27 C19 1_555 1_555
C20 C15 1_555 1_555
H28 C20 1_555 1_555
H29 C20 1_555 1_555
H30 C20 1_555 1_555
C21 H31 1_555 1_555
C22 C21 1_555 1_555
H32 C22 1_555 1_555
C23 C22 1_555 1_555
C24 C23 1_555 1_555
H33 C24 1_555 1_555
C25 C24 1_555 1_555
H34 C25 1_555 1_555
C26 C25 1_555 1_555
H35 C26 1_555 1_555
C27 C26 1_555 1_555
H36 C27 1_555 1_555
C28 N2 1_555 1_555
C1 C2 1_555 1_555
C9 C10 1_555 1_555
C13 C14 1_555 1_555
C15 C16 1_555 1_555
C23 C28 1_555 1_555
C27 C28 1_555 1_555

#END
