
#######################################################################
#
#                 Cambridge Crystallographic Data Centre
#                                CCDC 
#
#######################################################################
#
# If this CIF has been generated from an entry in the Cambridge 
# Structural Database, then it will include bibliographic, chemical, 
# crystal, experimental, refinement or atomic coordinate data resulting 
# from the CCDC's data processing and validation procedures.
#
#######################################################################

data_OLADAH01
_chemical_formula_moiety         'C6 H6 N12 O12,0.5(C1 O2)'
_chemical_name_systematic        
'1,3,4,7,8,10-hexanitrooctahydro-1H-5,2,6-(epiminomethanetriylimino)imidazo[4,5-b]pyrazine carbon dioxide solvate'
_symmetry_cell_setting           orthorhombic
_symmetry_space_group_name_H-M   'P b c a'
_symmetry_Int_Tables_number      61
_space_group_name_Hall           '-P 2ac 2ab'
loop_
_symmetry_equiv_pos_site_id
_symmetry_equiv_pos_as_xyz
1 x,y,z
2 1/2-x,-y,1/2+z
3 -x,1/2+y,1/2-z
4 1/2+x,1/2-y,-z
5 -x,-y,-z
6 1/2+x,y,1/2-z
7 x,1/2-y,1/2+z
8 1/2-x,1/2+y,z
_cell_length_a                   9.6731(10)
_cell_length_b                   13.2031(12)
_cell_length_c                   23.553(2)
_cell_angle_alpha                90
_cell_angle_beta                 90
_cell_angle_gamma                90
_cell_volume                     3008.07
_exptl_crystal_colour            colorless
_exptl_crystal_description       prismatic
_cell_formula_units_Z            8
loop_
_atom_site_label
_atom_site_type_symbol
_atom_site_fract_x
_atom_site_fract_y
_atom_site_fract_z
N1 N 1.00041(14) 0.88091(11) 0.29480(6)
N2 N 0.89892(15) 0.86486(11) 0.25493(6)
N3 N 0.80468(14) 0.81735(11) 0.36280(6)
N4 N 0.66072(16) 0.79773(14) 0.37422(7)
N5 N 0.99802(15) 0.71304(10) 0.33916(6)
N6 N 0.97212(19) 0.62798(12) 0.30482(7)
N7 N 1.12618(14) 0.79251(10) 0.41847(6)
N8 N 1.22379(15) 0.79323(11) 0.46191(6)
N9 N 0.92053(16) 0.88930(12) 0.43697(6)
N10 N 0.87198(17) 0.92894(12) 0.48679(7)
N11 N 1.10639(15) 0.95051(10) 0.36892(6)
N12 N 1.20201(17) 1.02890(12) 0.35608(6)
O1 O 0.80441(13) 0.92549(10) 0.25339(6)
O2 O 0.91419(16) 0.79198(11) 0.22378(6)
O3 O 0.58876(15) 0.87066(14) 0.38245(9)
O4 O 0.62632(15) 0.71059(13) 0.37095(7)
O5 O 0.8762(2) 0.57478(12) 0.31902(8)
O6 O 1.05121(18) 0.61383(11) 0.26621(6)
O7 O 1.18686(14) 0.75894(12) 0.50738(5)
O8 O 1.33804(13) 0.82308(11) 0.45008(6)
O9 O 0.91194(18) 0.88944(12) 0.53033(6)
O10 O 0.79754(18) 1.00286(12) 0.48293(7)
O11 O 1.32099(14) 1.01118(11) 0.36785(6)
O12 O 1.15497(16) 1.10725(10) 0.33796(7)
C1 C 1.08105(17) 0.79421(12) 0.31662(7)
H1 H 1.1458 0.7691 0.2879
C2 C 1.15991(17) 0.84645(12) 0.36692(7)
H2 H 1.2599 0.8462 0.3602
C3 C 0.90113(17) 0.73823(13) 0.38281(7)
H3 H 0.8506 0.6780 0.3955
C4 C 0.98156(17) 0.78843(13) 0.43372(7)
H4 H 0.9675 0.7506 0.4691
C5 C 0.97361(17) 0.95323(12) 0.34051(7)
H5 H 0.9527 1.0209 0.3257
C6 C 0.85716(18) 0.91461(13) 0.38279(7)
H6 H 0.7829 0.9645 0.3872
O13 O 0.9928(2) 0.06000(14) 0.03472(9)
C7 C 1.0000 0.0000 0.0000
O13D O 1.0072(2) -0.06000(14) -0.03472(9)
loop_
_geom_bond_atom_site_label_1
_geom_bond_atom_site_label_2
_geom_bond_site_symmetry_1
_geom_bond_site_symmetry_2
N1 N2 1_555 1_555
N2 O1 1_555 1_555
N3 N4 1_555 1_555
N4 O3 1_555 1_555
N5 N6 1_555 1_555
N6 O5 1_555 1_555
N7 N8 1_555 1_555
N8 O7 1_555 1_555
N9 N10 1_555 1_555
N10 O9 1_555 1_555
N11 N12 1_555 1_555
N12 O11 1_555 1_555
O2 N2 1_555 1_555
O4 N4 1_555 1_555
O6 N6 1_555 1_555
O8 N8 1_555 1_555
O10 N10 1_555 1_555
O12 N12 1_555 1_555
C1 N1 1_555 1_555
H1 C1 1_555 1_555
C2 N7 1_555 1_555
H2 C2 1_555 1_555
C3 N3 1_555 1_555
H3 C3 1_555 1_555
C4 N7 1_555 1_555
H4 C4 1_555 1_555
C5 N1 1_555 1_555
H5 C5 1_555 1_555
C6 N3 1_555 1_555
H6 C6 1_555 1_555
O13 C7 1_555 1_555
C7 O13D 1_555 1_555
N5 C1 1_555 1_555
N5 C3 1_555 1_555
N9 C4 1_555 1_555
N9 C6 1_555 1_555
N11 C2 1_555 1_555
N11 C5 1_555 1_555
C1 C2 1_555 1_555
C3 C4 1_555 1_555
C5 C6 1_555 1_555

#END
