
#######################################################################
#
#                 Cambridge Crystallographic Data Centre
#                                CCDC 
#
#######################################################################
#
# If this CIF has been generated from an entry in the Cambridge 
# Structural Database, then it will include bibliographic, chemical, 
# crystal, experimental, refinement or atomic coordinate data resulting 
# from the CCDC's data processing and validation procedures.
#
#######################################################################

data_OLAREY
_chemical_formula_moiety         'C21 H16 N6 O3,C2 H4 Cl2'
_chemical_name_systematic        
'2-Amino-4-phenoxy-5-(2-amino-4-phenoxypyrimidin-5-ylcarbonyl)pyrimidine 1,2-dichloroethane solvate'
_symmetry_cell_setting           monoclinic
_symmetry_space_group_name_H-M   'P 21/c'
_symmetry_Int_Tables_number      14
_space_group_name_Hall           '-P 2ybc'
loop_
_symmetry_equiv_pos_site_id
_symmetry_equiv_pos_as_xyz
1 x,y,z
2 x,1/2-y,1/2+z
3 -x,-y,-z
4 -x,1/2+y,1/2-z
_cell_length_a                   8.777(7)
_cell_length_b                   15.609(8)
_cell_length_c                   17.065(10)
_cell_angle_alpha                90
_cell_angle_beta                 91.16(5)
_cell_angle_gamma                90
_cell_volume                     2337.43
_cell_formula_units_Z            4
loop_
_atom_site_label
_atom_site_type_symbol
_atom_site_fract_x
_atom_site_fract_y
_atom_site_fract_z
N1 N 0.4171(3) 0.36228(18) 0.15695(17)
O1 O -0.1067(3) 0.39725(18) 0.12188(15)
O2 O 0.1818(3) 0.49403(19) 0.28928(16)
N2 N 0.3325(3) 0.45061(18) 0.04936(17)
C1 C 0.1940(4) 0.4461(2) 0.0764(2)
H1 H 0.1146 0.4731 0.0469
N3 N 0.0030(3) 0.4747(2) 0.38290(17)
N4 N 0.5846(3) 0.4187(2) 0.07014(19)
H2 H 0.6590 0.3937 0.0969
H3 H 0.6050 0.4494 0.0284
C2 C 0.4422(4) 0.4100(2) 0.09265(19)
C3 C 0.1554(4) 0.4050(2) 0.1445(2)
O3 O 0.2401(3) 0.30967(18) 0.24158(17)
C4 C 0.2775(4) 0.3600(2) 0.1809(2)
N5 N -0.2290(3) 0.3999(2) 0.35154(19)
C5 C -0.0023(4) 0.4052(2) 0.1712(2)
N6 N -0.1802(4) 0.4533(2) 0.47381(18)
H4 H -0.1222 0.4808 0.5081
H5 H -0.2691 0.4330 0.4878
C6 C -0.0408(4) 0.4179(2) 0.2539(2)
C7 C -0.1337(4) 0.4425(2) 0.4014(2)
C8 C -0.1800(4) 0.3894(2) 0.2802(2)
H6 H -0.2446 0.3599 0.2439
C9 C 0.3470(4) 0.2492(3) 0.2713(2)
C10 C 0.0476(4) 0.4619(2) 0.3107(2)
C11 C 0.5569(5) 0.2127(3) 0.3537(3)
H7 H 0.6408 0.2291 0.3864
C12 C 0.3954(4) 0.5280(3) 0.3719(2)
H8 H 0.4296 0.4705 0.3673
C13 C 0.2610(4) 0.5533(3) 0.3378(2)
C14 C 0.2072(5) 0.6351(3) 0.3440(3)
H9 H 0.1129 0.6509 0.3198
C15 C 0.4307(5) 0.6706(3) 0.4210(3)
H10 H 0.4898 0.7113 0.4498
C16 C 0.3172(5) 0.1646(3) 0.2568(2)
H11 H 0.2338 0.1483 0.2237
C17 C 0.4813(4) 0.5880(3) 0.4137(2)
H12 H 0.5759 0.5716 0.4373
C18 C 0.4638(5) 0.2749(3) 0.3194(3)
H13 H 0.4813 0.3340 0.3293
C19 C 0.5276(6) 0.1275(3) 0.3403(3)
H14 H 0.5889 0.0850 0.3653
C20 C 0.4098(6) 0.1034(3) 0.2908(3)
H15 H 0.3923 0.0445 0.2800
C21 C 0.2930(5) 0.6949(3) 0.3863(3)
H16 H 0.2575 0.7520 0.3913
Cl1 Cl -0.03715(16) 0.14337(9) 0.35884(8)
C22 C 0.0152(6) 0.2409(4) 0.4843(3)
H17 H -0.0154 0.1910 0.5162
H18 H -0.0774 0.2736 0.4692
C23 C 0.0938(7) 0.2126(5) 0.4152(4)
H19 H 0.1870 0.1804 0.4305
H20 H 0.1238 0.2625 0.3832
Cl2 Cl 0.14601(16) 0.30779(9) 0.53924(9)
loop_
_geom_bond_atom_site_label_1
_geom_bond_atom_site_label_2
_geom_bond_site_symmetry_1
_geom_bond_site_symmetry_2
N1 C2 1_555 1_555
O1 C5 1_555 1_555
O2 C10 1_555 1_555
N2 C1 1_555 1_555
C1 H1 1_555 1_555
N3 C7 1_555 1_555
N4 H2 1_555 1_555
H3 N4 1_555 1_555
C2 N2 1_555 1_555
C3 C1 1_555 1_555
O3 C4 1_555 1_555
C4 N1 1_555 1_555
N5 C7 1_555 1_555
C5 C3 1_555 1_555
N6 H4 1_555 1_555
H5 N6 1_555 1_555
C6 C5 1_555 1_555
C7 N6 1_555 1_555
C8 N5 1_555 1_555
H6 C8 1_555 1_555
C9 O3 1_555 1_555
C10 N3 1_555 1_555
C11 H7 1_555 1_555
C12 H8 1_555 1_555
C13 O2 1_555 1_555
C14 C13 1_555 1_555
H9 C14 1_555 1_555
C15 H10 1_555 1_555
C16 C9 1_555 1_555
H11 C16 1_555 1_555
C17 C12 1_555 1_555
H12 C17 1_555 1_555
C18 C9 1_555 1_555
H13 C18 1_555 1_555
C19 C11 1_555 1_555
H14 C19 1_555 1_555
C20 C16 1_555 1_555
H15 C20 1_555 1_555
C21 C14 1_555 1_555
H16 C21 1_555 1_555
Cl1 C23 1_555 1_555
C22 H17 1_555 1_555
H18 C22 1_555 1_555
C23 C22 1_555 1_555
H19 C23 1_555 1_555
H20 C23 1_555 1_555
Cl2 C22 1_555 1_555
N4 C2 1_555 1_555
C3 C4 1_555 1_555
C6 C8 1_555 1_555
C6 C10 1_555 1_555
C11 C18 1_555 1_555
C12 C13 1_555 1_555
C15 C17 1_555 1_555
C15 C21 1_555 1_555
C19 C20 1_555 1_555

#END
