
#######################################################################
#
#                 Cambridge Crystallographic Data Centre
#                                CCDC 
#
#######################################################################
#
# If this CIF has been generated from an entry in the Cambridge 
# Structural Database, then it will include bibliographic, chemical, 
# crystal, experimental, refinement or atomic coordinate data resulting 
# from the CCDC's data processing and validation procedures.
#
#######################################################################

data_OLAVII
_chemical_formula_moiety         'C30 H23 Cl2 N5 O3,2(C1 H4 O1)'
_chemical_name_systematic        
'2-(4-chlorophenyl)-4-((1-(4-chlorophenyl)-5-hydroxy-3-methyl-1H-pyrazol-4-yl)(3-phenyl-1,2-oxazol-5-yl)methyl)-5-methyl-1,2-dihydro-3H-pyrazol-3-one methanol solvate'
_symmetry_cell_setting           monoclinic
_symmetry_space_group_name_H-M   'C 2/c'
_symmetry_Int_Tables_number      15
_space_group_name_Hall           '-C 2yn'
loop_
_symmetry_equiv_pos_site_id
_symmetry_equiv_pos_as_xyz
1 x,y,z
2 -x,y,1/2-z
3 1/2+x,1/2+y,z
4 1/2-x,1/2+y,1/2-z
5 -x,-y,-z
6 x,-y,1/2+z
7 1/2-x,1/2-y,-z
8 1/2+x,1/2-y,1/2+z
_cell_length_a                   28.207(6)
_cell_length_b                   13.384(3)
_cell_length_c                   16.643(3)
_cell_angle_alpha                90
_cell_angle_beta                 92.46(3)
_cell_angle_gamma                90
_cell_volume                     6277.32
_exptl_crystal_colour            brown
_exptl_crystal_description       block
_cell_formula_units_Z            8
loop_
_atom_site_label
_atom_site_type_symbol
_atom_site_fract_x
_atom_site_fract_y
_atom_site_fract_z
O1 O 0.78352(7) 0.16596(17) 0.29622(11)
O2 O 0.91410(8) 0.11483(15) 0.26069(10)
H1 H 0.9230 0.1619 0.2890
O3 O 0.93576(6) 0.26822(14) 0.34328(11)
N1 N 0.76789(8) 0.1182(2) 0.36609(14)
N2 N 0.89459(7) 0.10607(17) 0.12365(11)
N3 N 0.86423(7) 0.14978(17) 0.06619(11)
N4 N 0.94033(7) 0.44018(15) 0.32721(12)
N5 N 0.91094(8) 0.51380(18) 0.29624(14)
C1 C 0.81673(8) 0.23436(19) 0.31890(15)
C2 C 0.82275(8) 0.2347(2) 0.39909(14)
H2 H 0.8431 0.2750 0.4303
C3 C 0.79159(8) 0.1607(2) 0.42607(15)
C4 C 0.78468(8) 0.1263(2) 0.50928(15)
C5 C 0.80277(10) 0.1819(2) 0.57388(16)
H3 H 0.8180 0.2424 0.5651
C6 C 0.79815(12) 0.1471(3) 0.65169(18)
H4 H 0.8102 0.1848 0.6949
C7 C 0.77626(12) 0.0586(3) 0.6656(2)
H5 H 0.7739 0.0351 0.7179
C8 C 0.75784(15) 0.0044(3) 0.6020(2)
H6 H 0.7427 -0.0559 0.6113
C9 C 0.76145(12) 0.0379(3) 0.5247(2)
H7 H 0.7481 0.0008 0.4822
C10 C 0.83706(8) 0.29225(19) 0.25078(14)
H8 H 0.8105 0.3290 0.2249
C11 C 0.88949(9) 0.14905(19) 0.19647(13)
C12 C 0.85553(8) 0.22330(19) 0.18745(14)
C13 C 0.84124(8) 0.2193(2) 0.10551(14)
C14 C 0.80489(11) 0.2831(3) 0.06222(18)
H9 H 0.8036 0.2666 0.0060
H10 H 0.8133 0.3522 0.0689
H11 H 0.7744 0.2715 0.0839
C15 C 0.91763(8) 0.34927(18) 0.31878(13)
C16 C 0.87265(8) 0.36981(19) 0.27936(14)
C17 C 0.87047(9) 0.47101(19) 0.26759(14)
C18 C 0.83253(10) 0.5343(2) 0.22851(19)
H12 H 0.8221 0.5830 0.2663
H13 H 0.8062 0.4929 0.2113
H14 H 0.8448 0.5678 0.1828
C19 C 0.92562(8) 0.02841(19) 0.10150(13)
C20 C 0.91036(9) -0.0406(2) 0.04411(14)
H15 H 0.8794 -0.0378 0.0227
C21 C 0.94056(10) -0.1132(2) 0.01866(16)
H16 H 0.9304 -0.1591 -0.0203
C22 C 0.98629(9) -0.1174(2) 0.05161(15)
C23 C 1.00176(9) -0.0498(2) 0.10925(16)
H17 H 1.0326 -0.0538 0.1313
C24 C 0.97172(9) 0.0235(2) 0.13413(15)
H18 H 0.9822 0.0698 0.1727
C25 C 0.98583(8) 0.46262(19) 0.36309(13)
C26 C 1.02082(9) 0.3903(2) 0.36631(15)
H19 H 1.0152 0.3281 0.3429
C27 C 1.06409(9) 0.4109(2) 0.40440(16)
H20 H 1.0876 0.3622 0.4074
C28 C 1.07245(9) 0.5035(2) 0.43800(15)
C29 C 1.03829(10) 0.5767(2) 0.43273(17)
H21 H 1.0445 0.6398 0.4540
C30 C 0.99469(10) 0.5559(2) 0.39576(16)
H22 H 0.9712 0.6048 0.3929
Cl1 Cl 1.02472(3) -0.20789(6) 0.01707(5)
Cl2 Cl 1.12649(3) 0.52810(7) 0.48983(5)
H23 H 0.9165(9) 0.569(2) 0.2975(15)
O4 O 0.91375(11) 0.71640(17) 0.29350(14)
H24 H 0.8987 0.7518 0.3236
C31 C 0.92927(17) 0.7736(3) 0.2302(3)
H25 H 0.9328 0.8418 0.2471
H26 H 0.9065 0.7698 0.1858
H27 H 0.9593 0.7485 0.2139
O5 O 0.86899(12) 0.8376(3) 0.39499(14)
H28 H 0.8688 0.8358 0.4442
C32 C 0.8415(2) 0.9145(5) 0.3674(2)
H29 H 0.8369 0.9611 0.4103
H30 H 0.8112 0.8892 0.3481
H31 H 0.8567 0.9475 0.3243
loop_
_geom_bond_atom_site_label_1
_geom_bond_atom_site_label_2
_geom_bond_site_symmetry_1
_geom_bond_site_symmetry_2
O1 N1 1_555 1_555
O2 H1 1_555 1_555
O3 C15 1_555 1_555
N1 C3 1_555 1_555
N2 N3 1_555 1_555
N3 C13 1_555 1_555
N4 N5 1_555 1_555
N5 C17 1_555 1_555
C1 O1 1_555 1_555
C2 C1 1_555 1_555
H2 C2 1_555 1_555
C3 C2 1_555 1_555
C4 C3 1_555 1_555
C5 C4 1_555 1_555
H3 C5 1_555 1_555
C6 C5 1_555 1_555
H4 C6 1_555 1_555
C7 C6 1_555 1_555
H5 C7 1_555 1_555
C8 C7 1_555 1_555
H6 C8 1_555 1_555
C9 C4 1_555 1_555
H7 C9 1_555 1_555
C10 C1 1_555 1_555
H8 C10 1_555 1_555
C11 O2 1_555 1_555
C12 C10 1_555 1_555
C13 C12 1_555 1_555
C14 C13 1_555 1_555
H9 C14 1_555 1_555
H10 C14 1_555 1_555
H11 C14 1_555 1_555
C15 N4 1_555 1_555
C16 C10 1_555 1_555
C17 C16 1_555 1_555
C18 C17 1_555 1_555
H12 C18 1_555 1_555
H13 C18 1_555 1_555
H14 C18 1_555 1_555
C19 N2 1_555 1_555
C20 C19 1_555 1_555
H15 C20 1_555 1_555
C21 C20 1_555 1_555
H16 C21 1_555 1_555
C22 C21 1_555 1_555
C23 C22 1_555 1_555
H17 C23 1_555 1_555
C24 C19 1_555 1_555
H18 C24 1_555 1_555
C25 N4 1_555 1_555
C26 C25 1_555 1_555
H19 C26 1_555 1_555
C27 C26 1_555 1_555
H20 C27 1_555 1_555
C28 C27 1_555 1_555
C29 C28 1_555 1_555
H21 C29 1_555 1_555
C30 C25 1_555 1_555
H22 C30 1_555 1_555
Cl1 C22 1_555 1_555
Cl2 C28 1_555 1_555
H23 N5 1_555 1_555
O4 H24 1_555 1_555
C31 O4 1_555 1_555
H25 C31 1_555 1_555
H26 C31 1_555 1_555
H27 C31 1_555 1_555
O5 H28 1_555 1_555
C32 O5 1_555 1_555
H29 C32 1_555 1_555
H30 C32 1_555 1_555
H31 C32 1_555 1_555
N2 C11 1_555 1_555
C8 C9 1_555 1_555
C11 C12 1_555 1_555
C15 C16 1_555 1_555
C23 C24 1_555 1_555
C29 C30 1_555 1_555

#END
