
#######################################################################
#
#                 Cambridge Crystallographic Data Centre
#                                CCDC 
#
#######################################################################
#
# If this CIF has been generated from an entry in the Cambridge 
# Structural Database, then it will include bibliographic, chemical, 
# crystal, experimental, refinement or atomic coordinate data resulting 
# from the CCDC's data processing and validation procedures.
#
#######################################################################

data_OLAXAB
_chemical_name_common            
(S!S$,R)-(+)-N-(1,1,1-Trifluoro-2-phenyl-4-(trimethylsilyl)but-3-yn-2-yl)-2-methylpropanesulfinamide
_chemical_formula_moiety         'C17 H24 F3 N1 O1 S1 Si1'
_chemical_name_systematic        
(S~S~,R)-(+)-2-Methyl-N-(1,1,1-trifluoro-2-phenyl-4-(trimethylsilyl)but-3-yn-2-yl)propane-2-sulfinamide
_symmetry_cell_setting           monoclinic
_symmetry_space_group_name_H-M   'P 21'
_symmetry_Int_Tables_number      4
_space_group_name_Hall           'P 2yb'
loop_
_symmetry_equiv_pos_site_id
_symmetry_equiv_pos_as_xyz
1 x,y,z
2 -x,1/2+y,-z
_cell_length_a                   11.0166(14)
_cell_length_b                   10.5473(13)
_cell_length_c                   18.568(2)
_cell_angle_alpha                90
_cell_angle_beta                 106.555(2)
_cell_angle_gamma                90
_cell_volume                     2068.08
_exptl_crystal_colour            colorless
_exptl_crystal_description       prismatic
_chemical_melting_point          '108-109 deg.C'
_cell_formula_units_Z            4
loop_
_atom_site_label
_atom_site_type_symbol
_atom_site_fract_x
_atom_site_fract_y
_atom_site_fract_z
S1 S 0.23785(7) 0.21365(7) 0.53788(4)
Si1 Si 0.47526(10) -0.17848(9) 0.69743(6)
F1 F 0.3650(3) 0.2710(2) 0.77911(12)
F2 F 0.4343(2) 0.4341(2) 0.73598(12)
F3 F 0.5612(3) 0.2852(3) 0.78650(13)
N1 N 0.2922(2) 0.2754(2) 0.62511(14)
O1 O 0.1767(2) 0.0905(2) 0.54144(16)
C1 C 0.4228(3) 0.2427(3) 0.66660(17)
C2 C 0.4475(4) 0.3099(4) 0.74347(19)
C3 C 0.4407(3) 0.1056(3) 0.68171(19)
C4 C 0.4535(3) -0.0056(4) 0.6913(2)
C5 C 0.5156(3) 0.2925(3) 0.62544(18)
C6 C 0.6189(3) 0.2247(4) 0.6218(3)
H1 H 0.6327 0.1444 0.6434
C7 C 0.7025(4) 0.2725(5) 0.5869(4)
H2 H 0.7741 0.2262 0.5864
C8 C 0.6814(4) 0.3886(5) 0.5526(3)
H3 H 0.7379 0.4205 0.5282
C9 C 0.5786(4) 0.4564(4) 0.5542(2)
H4 H 0.5635 0.5344 0.5300
C10 C 0.4957(3) 0.4111(3) 0.59134(19)
H5 H 0.4264 0.4597 0.5936
C11 C 0.5325(7) -0.2244(6) 0.7959(3)
H6 H 0.6119 -0.1832 0.8187
H7 H 0.5439 -0.3146 0.7995
H8 H 0.4719 -0.1994 0.8215
C12 C 0.3276(5) -0.2542(6) 0.6499(5)
H9 H 0.3443 -0.3341 0.6298
H10 H 0.2806 -0.2009 0.6097
H11 H 0.2793 -0.2680 0.6848
C13 C 0.6026(6) -0.2135(6) 0.6522(4)
H12 H 0.6749 -0.1611 0.6742
H13 H 0.5720 -0.1962 0.5993
H14 H 0.6263 -0.3011 0.6597
C14 C 0.1057(3) 0.3249(4) 0.5011(2)
C15 C 0.0169(4) 0.3213(5) 0.5496(3)
H15 H 0.0577 0.3584 0.5977
H16 H -0.0051 0.2350 0.5565
H17 H -0.0584 0.3683 0.5257
C16 C 0.0425(4) 0.2755(5) 0.4226(2)
H18 H -0.0249 0.3316 0.3976
H19 H 0.0088 0.1924 0.4258
H20 H 0.1037 0.2711 0.3948
C17 C 0.1600(4) 0.4565(4) 0.4982(3)
H21 H 0.2297 0.4515 0.4769
H22 H 0.1892 0.4905 0.5482
H23 H 0.0957 0.5108 0.4678
H48 H 0.245(2) 0.256(2) 0.6505(13)
S2 S 0.26184(7) 0.94963(7) 0.94866(4)
Si2 Si 0.01058(12) 0.57568(10) 0.80519(7)
F4 F 0.1290(3) 1.0177(3) 0.71037(13)
F5 F -0.0654(2) 1.0428(3) 0.70408(13)
F6 F 0.0691(3) 1.1860(2) 0.75390(13)
N2 N 0.2056(2) 1.0246(3) 0.86499(15)
O2 O 0.3203(2) 0.8274(2) 0.93816(16)
C18 C 0.0726(3) 0.9961(3) 0.82359(17)
C19 C 0.0511(4) 1.0614(4) 0.7470(2)
C20 C 0.0483(3) 0.8601(3) 0.81046(19)
C21 C 0.0314(3) 0.7482(4) 0.8032(2)
C22 C -0.0161(3) 1.0537(3) 0.8652(2)
C23 C -0.1229(4) 0.9941(6) 0.8662(4)
H24 H -0.1411 0.9146 0.8442
C24 C -0.2057(6) 1.0498(7) 0.8996(5)
H25 H -0.2816 1.0095 0.8977
C25 C -0.1778(5) 1.1633(6) 0.9356(4)
H26 H -0.2339 1.1998 0.9586
C26 C -0.0717(4) 1.2208(4) 0.9374(2)
H27 H -0.0511 1.2968 0.9633
C27 C 0.0093(3) 1.1691(3) 0.9012(2)
H28 H 0.0826 1.2127 0.9010
C28 C -0.1141(11) 0.5535(13) 0.8581(7)
H29 H -0.1440 0.4675 0.8525
H30 H -0.1838 0.6100 0.8379
H31 H -0.0770 0.5718 0.9104
C29 C 0.1495(12) 0.4966(12) 0.8517(11)
H32 H 0.1921 0.5423 0.8965
H33 H 0.2036 0.4912 0.8194
H34 H 0.1294 0.4128 0.8649
C30 C -0.0616(14) 0.5162(9) 0.7102(5)
H35 H -0.0035 0.5268 0.6807
H36 H -0.1379 0.5627 0.6876
H37 H -0.0814 0.4279 0.7124
C31 C 0.3955(3) 1.0555(3) 0.98948(17)
C32 C 0.4862(3) 1.0572(5) 0.9421(2)
H38 H 0.5589 1.1073 0.9666
H39 H 0.4449 1.0932 0.8939
H40 H 0.5124 0.9721 0.9358
C33 C 0.3459(4) 1.1877(4) 0.9980(2)
H41 H 0.2810 1.1821 1.0231
H42 H 0.3114 1.2248 0.9492
H43 H 0.4140 1.2395 1.0270
C34 C 0.4569(4) 0.9988(5) 1.0663(2)
H44 H 0.5218 1.0549 1.0945
H45 H 0.4938 0.9183 1.0605
H46 H 0.3941 0.9873 1.0925
H47 H 0.249(3) 1.004(3) 0.8385(15)
C35? C -0.133(2) 0.520(3) 0.798(2)
C36? C 0.154(3) 0.5284(18) 0.8848(18)
C37? C 0.072(3) 0.508(3) 0.7280(15)
H49? H -0.1367 0.4314 0.7864
H50? H -0.1946 0.5649 0.7595
H51? H -0.1522 0.5319 0.8454
H52? H 0.1553 0.4380 0.8910
H53? H 0.1499 0.5683 0.9305
H54? H 0.2298 0.5550 0.8733
H55? H 0.1624 0.5107 0.7431
H56? H 0.0393 0.5568 0.6830
H57? H 0.0439 0.4215 0.7187
loop_
_geom_bond_atom_site_label_1
_geom_bond_atom_site_label_2
_geom_bond_site_symmetry_1
_geom_bond_site_symmetry_2
S1 N1 1_555 1_555
S2 N2 1_555 1_555
Si1 C4 1_555 1_555
Si2 C21 1_555 1_555
F1 C2 1_555 1_555
F2 C2 1_555 1_555
F3 C2 1_555 1_555
F4 C19 1_555 1_555
F5 C19 1_555 1_555
F6 C19 1_555 1_555
N1 C1 1_555 1_555
N2 C18 1_555 1_555
O1 S1 1_555 1_555
O2 S2 1_555 1_555
C1 C2 1_555 1_555
C3 C1 1_555 1_555
C4 C3 1_555 1_555
C5 C1 1_555 1_555
C6 C5 1_555 1_555
H1 C6 1_555 1_555
C7 C6 1_555 1_555
H2 C7 1_555 1_555
C8 C7 1_555 1_555
H3 C8 1_555 1_555
C9 C8 1_555 1_555
H4 C9 1_555 1_555
C10 C5 1_555 1_555
H5 C10 1_555 1_555
C11 Si1 1_555 1_555
H6 C11 1_555 1_555
H7 C11 1_555 1_555
H8 C11 1_555 1_555
C12 Si1 1_555 1_555
H9 C12 1_555 1_555
H10 C12 1_555 1_555
H11 C12 1_555 1_555
C13 Si1 1_555 1_555
H12 C13 1_555 1_555
H13 C13 1_555 1_555
H14 C13 1_555 1_555
C14 S1 1_555 1_555
C15 C14 1_555 1_555
H15 C15 1_555 1_555
H16 C15 1_555 1_555
H17 C15 1_555 1_555
C16 C14 1_555 1_555
H18 C16 1_555 1_555
H19 C16 1_555 1_555
H20 C16 1_555 1_555
C17 C14 1_555 1_555
H21 C17 1_555 1_555
H22 C17 1_555 1_555
H23 C17 1_555 1_555
C18 C19 1_555 1_555
C20 C18 1_555 1_555
C21 C20 1_555 1_555
C22 C18 1_555 1_555
C23 C22 1_555 1_555
H24 C23 1_555 1_555
C24 C23 1_555 1_555
H25 C24 1_555 1_555
C25 C24 1_555 1_555
H26 C25 1_555 1_555
C26 C25 1_555 1_555
H27 C26 1_555 1_555
C27 C22 1_555 1_555
H28 C27 1_555 1_555
C28 Si2 1_555 1_555
H29 C28 1_555 1_555
H30 C28 1_555 1_555
H31 C28 1_555 1_555
C29 Si2 1_555 1_555
H32 C29 1_555 1_555
H33 C29 1_555 1_555
H34 C29 1_555 1_555
C30 Si2 1_555 1_555
H35 C30 1_555 1_555
H36 C30 1_555 1_555
H37 C30 1_555 1_555
C31 S2 1_555 1_555
C32 C31 1_555 1_555
H38 C32 1_555 1_555
H39 C32 1_555 1_555
H40 C32 1_555 1_555
C33 C31 1_555 1_555
H41 C33 1_555 1_555
H42 C33 1_555 1_555
H43 C33 1_555 1_555
C34 C31 1_555 1_555
H44 C34 1_555 1_555
H45 C34 1_555 1_555
H46 C34 1_555 1_555
H47 N2 1_555 1_555
H48 N1 1_555 1_555
C9 C10 1_555 1_555
C26 C27 1_555 1_555

#END
