
#######################################################################
#
#                 Cambridge Crystallographic Data Centre
#                                CCDC 
#
#######################################################################
#
# If this CIF has been generated from an entry in the Cambridge 
# Structural Database, then it will include bibliographic, chemical, 
# crystal, experimental, refinement or atomic coordinate data resulting 
# from the CCDC's data processing and validation procedures.
#
#######################################################################

data_OLAXUV
_chemical_formula_moiety         'C13 H17 N1 O5'
_chemical_name_systematic        
(2R,4R,5R)-4-(4-Methoxyphenyl)-2-methyl-5-nitrotetrahydro-2H-pyran-2-ol
_symmetry_cell_setting           monoclinic
_symmetry_space_group_name_H-M   'P 21'
_symmetry_Int_Tables_number      4
_space_group_name_Hall           'P 2yb'
loop_
_symmetry_equiv_pos_site_id
_symmetry_equiv_pos_as_xyz
1 x,y,z
2 -x,1/2+y,-z
_cell_length_a                   9.4527(19)
_cell_length_b                   5.2444(10)
_cell_length_c                   14.010(3)
_cell_angle_alpha                90
_cell_angle_beta                 106.12(3)
_cell_angle_gamma                90
_cell_volume                     667.221
_exptl_crystal_colour            colorless
_exptl_crystal_description       prism
_chemical_melting_point          '105-108 deg.C'
_cell_formula_units_Z            2
loop_
_atom_site_label
_atom_site_type_symbol
_atom_site_fract_x
_atom_site_fract_y
_atom_site_fract_z
O1 O 0.5094(2) 1.2484(4) 0.37564(13)
H1 H 0.483(3) 1.296(6) 0.427(2)
N1 N 0.9320(2) 0.7947(6) 0.36883(16)
C1 C 0.4874(2) 0.9832(5) 0.36422(16)
O2 O 0.58648(15) 0.8512(3) 0.44680(10)
C2 C 0.5202(2) 0.9092(6) 0.26712(16)
H2 H 0.4599 1.0124 0.2137
H3 H 0.4928 0.7323 0.2524
C3 C 0.6823(2) 0.9436(5) 0.26995(15)
H4 H 0.7078 1.1228 0.2857
O3 O 0.9877(2) 0.6153(6) 0.33849(19)
C4 C 0.7695(2) 0.7826(6) 0.35909(16)
H5 H 0.7365 0.6049 0.3492
O4 O 0.9975(3) 0.9851(7) 0.4051(2)
O5 O 0.7843(2) 0.7571(5) -0.10699(13)
C5 C 0.7394(2) 0.8855(6) 0.45379(15)
H6 H 0.7993 0.7949 0.5112
H7 H 0.7645 1.0651 0.4615
C6 C 0.3344(2) 0.9016(7) 0.36604(18)
H8 H 0.3180 0.9513 0.4281
H9 H 0.3257 0.7197 0.3589
H10 H 0.2626 0.9820 0.3123
C7 C 0.7142(2) 0.8844(5) 0.17135(16)
C8 C 0.6500(3) 0.6819(6) 0.11065(19)
H11 H 0.5888 0.5694 0.1318
C9 C 0.6761(3) 0.6457(7) 0.0187(2)
H12 H 0.6318 0.5095 -0.0210
C10 C 0.7666(3) 0.8087(6) -0.01444(17)
C11 C 0.8334(3) 1.0073(7) 0.0455(2)
H13 H 0.8960 1.1176 0.0247
C12 C 0.8066(3) 1.0421(6) 0.1377(2)
H14 H 0.8527 1.1763 0.1778
C13 C 0.8524(4) 0.9495(9) -0.1510(2)
H15 H 0.8583 0.8925 -0.2149
H16 H 0.9497 0.9824 -0.1091
H17 H 0.7950 1.1030 -0.1587
loop_
_geom_bond_atom_site_label_1
_geom_bond_atom_site_label_2
_geom_bond_site_symmetry_1
_geom_bond_site_symmetry_2
O1 H1 1_555 1_555
N1 O3 1_555 1_555
C1 O1 1_555 1_555
O2 C1 1_555 1_555
C2 C1 1_555 1_555
H2 C2 1_555 1_555
H3 C2 1_555 1_555
C3 C2 1_555 1_555
H4 C3 1_555 1_555
C4 N1 1_555 1_555
H5 C4 1_555 1_555
O4 N1 1_555 1_555
O5 C10 1_555 1_555
C5 O2 1_555 1_555
H6 C5 1_555 1_555
H7 C5 1_555 1_555
C6 C1 1_555 1_555
H8 C6 1_555 1_555
H9 C6 1_555 1_555
H10 C6 1_555 1_555
C7 C3 1_555 1_555
C8 C7 1_555 1_555
H11 C8 1_555 1_555
C9 C8 1_555 1_555
H12 C9 1_555 1_555
C10 C9 1_555 1_555
C11 C10 1_555 1_555
H13 C11 1_555 1_555
C12 C7 1_555 1_555
H14 C12 1_555 1_555
C13 O5 1_555 1_555
H15 C13 1_555 1_555
H16 C13 1_555 1_555
H17 C13 1_555 1_555
C3 C4 1_555 1_555
C4 C5 1_555 1_555
C11 C12 1_555 1_555

#END
