
#######################################################################
#
#                 Cambridge Crystallographic Data Centre
#                                CCDC 
#
#######################################################################
#
# If this CIF has been generated from an entry in the Cambridge 
# Structural Database, then it will include bibliographic, chemical, 
# crystal, experimental, refinement or atomic coordinate data resulting 
# from the CCDC's data processing and validation procedures.
#
#######################################################################

data_OLAYUX
_chemical_formula_moiety         'C26 H27 N1 O1 S1'
_chemical_name_systematic        
2-methyl-N-(1-(2-naphthyl)-2-(phenylethynyl)but-3-en-1-yl)propane-2-sulfinamide
_symmetry_cell_setting           orthorhombic
_symmetry_space_group_name_H-M   'P 21 21 21'
_symmetry_Int_Tables_number      19
_space_group_name_Hall           'P 2ac 2ab'
loop_
_symmetry_equiv_pos_site_id
_symmetry_equiv_pos_as_xyz
1 x,y,z
2 1/2-x,-y,1/2+z
3 -x,1/2+y,1/2-z
4 1/2+x,1/2-y,-z
_cell_length_a                   6.1389(13)
_cell_length_b                   10.322(2)
_cell_length_c                   35.095(7)
_cell_angle_alpha                90
_cell_angle_beta                 90
_cell_angle_gamma                90
_cell_volume                     2223.82
_exptl_crystal_colour            colorless
_cell_formula_units_Z            4
loop_
_atom_site_label
_atom_site_type_symbol
_atom_site_fract_x
_atom_site_fract_y
_atom_site_fract_z
S1 S 0.84627(9) 1.00762(5) 0.180271(15)
C1 C 0.8482(3) 1.01313(18) 0.09489(5)
N1 N 0.8937(3) 0.87840(15) 0.15230(5)
H1 H 0.8664 0.8001 0.1592
C2 C 0.9259(4) 1.13461(19) 0.08857(6)
H2 H 1.0643 1.1560 0.0973
C3 C 1.4056(4) 0.5166(2) 0.14097(6)
C4 C 0.5946(4) 1.1961(2) 0.05520(6)
C5 C 1.2594(4) 0.6102(2) 0.12456(6)
C6 C 1.1406(4) 0.6890(2) 0.11075(6)
C7 C 0.6370(4) 0.9818(2) 0.08189(7)
H3 H 0.5794 0.9003 0.0869
O1 O 1.0541(3) 1.06479(18) 0.19265(5)
C8 C 0.9869(3) 0.91193(19) 0.11460(5)
H4 H 1.1334 0.9473 0.1184
C9 C 1.6140(4) 0.5539(2) 0.15132(7)
H5 H 1.6590 0.6388 0.1473
C10 C 1.0846(4) 0.8105(2) 0.05160(6)
H6 H 1.0105 0.8738 0.0379
C11 C 1.0051(4) 0.78438(19) 0.09151(6)
H7 H 0.8582 0.7478 0.0895
C12 C 0.8028(4) 1.2291(2) 0.06910(6)
C13 C 0.7309(4) 0.9222(2) 0.22163(6)
C14 C 1.3434(4) 0.3886(2) 0.14664(7)
H8 H 1.2043 0.3618 0.1397
C15 C 0.8781(5) 1.3571(2) 0.06295(7)
H9 H 1.0138 1.3816 0.0722
C16 C 1.6916(4) 0.3400(2) 0.17295(8)
H10 H 1.7878 0.2809 0.1837
C17 C 0.4710(5) 1.2883(3) 0.03496(7)
H11 H 0.3350 1.2658 0.0253
C18 C 0.5169(4) 1.0698(2) 0.06211(7)
H12 H 0.3804 1.0460 0.0529
C19 C 0.5118(4) 0.8668(3) 0.20971(9)
H13 H 0.5334 0.8017 0.1905
H14 H 0.4222 0.9349 0.1996
H15 H 0.4414 0.8289 0.2314
C20 C 1.7550(4) 0.4663(2) 0.16751(8)
H16 H 1.8938 0.4926 0.1748
C21 C 1.4869(5) 0.3011(2) 0.16253(8)
H17 H 1.4445 0.2155 0.1662
C22 C 0.8833(5) 0.8189(3) 0.23640(8)
H18 H 0.8324 0.7886 0.2607
H19 H 1.0269 0.8545 0.2392
H20 H 0.8874 0.7479 0.2187
C23 C 0.5501(6) 1.4104(3) 0.02944(8)
H21 H 0.4676 1.4710 0.0162
C24 C 0.7548(6) 1.4445(3) 0.04370(8)
H22 H 0.8072 1.5281 0.0400
C25 C 1.2425(6) 0.7550(3) 0.03471(8)
H23 H 1.3220 0.6910 0.0472
H24 H 1.2785 0.7784 0.0099
C26 C 0.6965(6) 1.0292(3) 0.25050(8)
H25 H 0.6043 1.0948 0.2397
H26 H 0.8346 1.0666 0.2572
H27 H 0.6289 0.9942 0.2729
loop_
_geom_bond_atom_site_label_1
_geom_bond_atom_site_label_2
_geom_bond_site_symmetry_1
_geom_bond_site_symmetry_2
S1 N1 1_555 1_555
C1 C2 1_555 1_555
N1 H1 1_555 1_555
C2 H2 1_555 1_555
C3 C5 1_555 1_555
C4 C12 1_555 1_555
C5 C6 1_555 1_555
C6 C11 1_555 1_555
C7 C1 1_555 1_555
H3 C7 1_555 1_555
O1 S1 1_555 1_555
C8 C1 1_555 1_555
H4 C8 1_555 1_555
C9 C3 1_555 1_555
H5 C9 1_555 1_555
C10 H6 1_555 1_555
C11 C8 1_555 1_555
H7 C11 1_555 1_555
C12 C2 1_555 1_555
C13 S1 1_555 1_555
C14 C3 1_555 1_555
H8 C14 1_555 1_555
C15 C12 1_555 1_555
H9 C15 1_555 1_555
C16 H10 1_555 1_555
C17 C4 1_555 1_555
H11 C17 1_555 1_555
C18 C4 1_555 1_555
H12 C18 1_555 1_555
C19 C13 1_555 1_555
H13 C19 1_555 1_555
H14 C19 1_555 1_555
H15 C19 1_555 1_555
C20 C9 1_555 1_555
H16 C20 1_555 1_555
C21 C14 1_555 1_555
H17 C21 1_555 1_555
C22 C13 1_555 1_555
H18 C22 1_555 1_555
H19 C22 1_555 1_555
H20 C22 1_555 1_555
C23 C17 1_555 1_555
H21 C23 1_555 1_555
C24 C15 1_555 1_555
H22 C24 1_555 1_555
C25 C10 1_555 1_555
H23 C25 1_555 1_555
H24 C25 1_555 1_555
C26 C13 1_555 1_555
H25 C26 1_555 1_555
H26 C26 1_555 1_555
H27 C26 1_555 1_555
N1 C8 1_555 1_555
C7 C18 1_555 1_555
C10 C11 1_555 1_555
C16 C20 1_555 1_555
C16 C21 1_555 1_555
C23 C24 1_555 1_555

#END
