
#######################################################################
#
#                 Cambridge Crystallographic Data Centre
#                                CCDC 
#
#######################################################################
#
# If this CIF has been generated from an entry in the Cambridge 
# Structural Database, then it will include bibliographic, chemical, 
# crystal, experimental, refinement or atomic coordinate data resulting 
# from the CCDC's data processing and validation procedures.
#
#######################################################################

data_OLAZUY
_chemical_formula_moiety         'C27 H18 O1'
_chemical_name_systematic        
4-(9H-Fluoren-9-ylidene(phenyl)methyl)benzaldehyde
_symmetry_cell_setting           monoclinic
_symmetry_space_group_name_H-M   'P 21/c'
_symmetry_Int_Tables_number      14
_space_group_name_Hall           '-P 2ybc'
loop_
_symmetry_equiv_pos_site_id
_symmetry_equiv_pos_as_xyz
1 x,y,z
2 -x,1/2+y,1/2-z
3 -x,-y,-z
4 x,1/2-y,1/2+z
_cell_length_a                   11.475
_cell_length_b                   8.270
_cell_length_c                   20.338
_cell_angle_alpha                90
_cell_angle_beta                 103.70
_cell_angle_gamma                90
_cell_volume                     1875.13
_exptl_crystal_description       block
_cell_formula_units_Z            4
loop_
_atom_site_label
_atom_site_type_symbol
_atom_site_fract_x
_atom_site_fract_y
_atom_site_fract_z
O1 O -0.16954(9) 0.50964(13) 0.01767(5)
C1 C 0.10901(10) 0.71703(13) 0.23180(5)
C2 C 0.42176(9) 1.11188(14) 0.29268(5)
C3 C 0.21289(9) 0.77413(14) 0.28589(5)
C4 C 0.24979(9) 1.01647(13) 0.21643(5)
C5 C 0.33984(9) 1.13568(13) 0.22605(5)
C6 C -0.10125(10) 0.72239(16) 0.17678(6)
H1 H -0.1790 0.7555 0.1759
C7 C 0.12997(10) 0.61915(14) 0.17983(6)
H2 H 0.2072 0.5821 0.1816
C8 C 0.27300(9) 0.90961(13) 0.27730(5)
C9 C 0.44014(10) 0.94155(15) 0.39104(5)
H3 H 0.4123 0.8583 0.4140
C10 C 0.25054(11) 1.25537(15) 0.11925(6)
H4 H 0.2500 1.3340 0.0865
C11 C 0.34104(11) 1.25425(15) 0.17819(6)
H5 H 0.4014 1.3318 0.1854
C12 C 0.54214(10) 1.02907(16) 0.42209(6)
H6 H 0.5824 1.0032 0.4661
C13 C -0.07924(10) 0.62997(14) 0.12400(6)
C14 C -0.00781(10) 0.76558(15) 0.23073(6)
H7 H -0.0230 0.8268 0.2661
C15 C 0.15903(10) 1.01963(14) 0.15689(5)
H8 H 0.0982 0.9426 0.1493
C16 C 0.16074(10) 1.13911(15) 0.10917(6)
H9 H 0.1004 1.1413 0.0696
C17 C -0.17903(11) 0.58995(16) 0.06587(6)
H10 H -0.2548 0.6293 0.0663
C18 C 0.38034(9) 0.98098(13) 0.32482(5)
C19 C 0.24557(10) 0.66994(14) 0.34739(5)
C20 C 0.03707(11) 0.57695(15) 0.12583(6)
H11 H 0.0519 0.5136 0.0909
C21 C 0.17625(11) 0.67335(15) 0.39499(6)
H12 H 0.1073 0.7364 0.3872
C22 C 0.34524(11) 0.56857(16) 0.35844(6)
H13 H 0.3906 0.5619 0.3262
C23 C 0.58494(10) 1.15383(16) 0.38877(6)
H14 H 0.6545 1.2084 0.4101
C24 C 0.52442(10) 1.19772(15) 0.32368(6)
H15 H 0.5519 1.2825 0.3014
C25 C 0.37724(13) 0.47736(17) 0.41735(7)
H16 H 0.4441 0.4102 0.4245
C26 C 0.20948(12) 0.58306(17) 0.45405(6)
H17 H 0.1637 0.5881 0.4861
C27 C 0.30999(13) 0.48607(17) 0.46541(7)
H18 H 0.3325 0.4267 0.5052
loop_
_geom_bond_atom_site_label_1
_geom_bond_atom_site_label_2
_geom_bond_site_symmetry_1
_geom_bond_site_symmetry_2
O1 C17 1_555 1_555
C1 C3 1_555 1_555
C2 C5 1_555 1_555
C3 C8 1_555 1_555
C4 C5 1_555 1_555
C5 C11 1_555 1_555
C6 H1 1_555 1_555
C7 C1 1_555 1_555
H2 C7 1_555 1_555
C8 C4 1_555 1_555
C9 H3 1_555 1_555
C10 H4 1_555 1_555
C11 C10 1_555 1_555
H5 C11 1_555 1_555
C12 C9 1_555 1_555
H6 C12 1_555 1_555
C13 C6 1_555 1_555
C14 C1 1_555 1_555
H7 C14 1_555 1_555
C15 C4 1_555 1_555
H8 C15 1_555 1_555
C16 C10 1_555 1_555
H9 C16 1_555 1_555
C17 C13 1_555 1_555
H10 C17 1_555 1_555
C18 C2 1_555 1_555
C19 C3 1_555 1_555
C20 C7 1_555 1_555
H11 C20 1_555 1_555
C21 C19 1_555 1_555
H12 C21 1_555 1_555
C22 C19 1_555 1_555
H13 C22 1_555 1_555
C23 C12 1_555 1_555
H14 C23 1_555 1_555
C24 C2 1_555 1_555
H15 C24 1_555 1_555
C25 C22 1_555 1_555
H16 C25 1_555 1_555
C26 C21 1_555 1_555
H17 C26 1_555 1_555
C27 C25 1_555 1_555
H18 C27 1_555 1_555
C6 C14 1_555 1_555
C8 C18 1_555 1_555
C9 C18 1_555 1_555
C13 C20 1_555 1_555
C15 C16 1_555 1_555
C23 C24 1_555 1_555
C26 C27 1_555 1_555

#END
