
#######################################################################
#
#                 Cambridge Crystallographic Data Centre
#                                CCDC 
#
#######################################################################
#
# If this CIF has been generated from an entry in the Cambridge 
# Structural Database, then it will include bibliographic, chemical, 
# crystal, experimental, refinement or atomic coordinate data resulting 
# from the CCDC's data processing and validation procedures.
#
#######################################################################

data_OLAZEI
_chemical_formula_moiety         'C16 H36 N1 1+,C2 F6 N1 O4 S2 1-'
_chemical_name_systematic        
'Tetra-n-butylammonium bis(trifluoromethylsulfonyl)amide'
_symmetry_cell_setting           monoclinic
_symmetry_space_group_name_H-M   'P 21'
_symmetry_Int_Tables_number      4
_space_group_name_Hall           'P 2yb'
loop_
_symmetry_equiv_pos_site_id
_symmetry_equiv_pos_as_xyz
1 x,y,z
2 -x,1/2+y,-z
_cell_length_a                   13.312(6)
_cell_length_b                   28.997(13)
_cell_length_c                   13.523(6)
_cell_angle_alpha                90
_cell_angle_beta                 94.059(9)
_cell_angle_gamma                90
_cell_volume                     5206.89
_exptl_crystal_colour            colorless
_exptl_crystal_description       block
_cell_formula_units_Z            8
loop_
_atom_site_label
_atom_site_type_symbol
_atom_site_fract_x
_atom_site_fract_y
_atom_site_fract_z
C1 C 0.3939(9) 0.2638(4) 0.1866(9)
C2 C 0.0835(10) 0.2709(4) 0.3836(9)
N1 N 0.2686(7) 0.2883(3) 0.3247(7)
O1 O 0.2856(7) 0.2034(3) 0.2723(8)
O2 O 0.4202(7) 0.2441(4) 0.3706(7)
O3 O 0.1335(7) 0.3424(3) 0.2846(6)
O4 O 0.1199(6) 0.2672(3) 0.1997(6)
F1 F 0.3252(5) 0.2704(3) 0.1112(5)
F2 F 0.4432(6) 0.3031(3) 0.1983(6)
F3 F 0.4599(6) 0.2337(3) 0.1583(7)
F4 F 0.1107(6) 0.2906(3) 0.4708(5)
F5 F 0.0976(6) 0.2257(2) 0.3944(6)
F6 F -0.0146(5) 0.2781(2) 0.3655(5)
S1 S 0.3353(2) 0.24592(11) 0.2988(2)
S2 S 0.1541(2) 0.29419(10) 0.2837(2)
C3 C 0.2862(11) 0.5149(6) 0.9108(9)
C4 C 0.1017(10) 0.5125(4) 0.5683(8)
N2 N 0.1573(9) 0.5311(4) 0.7623(9)
O5 O 0.2448(8) 0.4541(4) 0.7837(8)
O6 O 0.1117(8) 0.4746(4) 0.8850(8)
O7 O 0.2887(7) 0.5221(4) 0.6271(10)
O8 O 0.1824(7) 0.5875(3) 0.6392(7)
F7 F 0.3227(7) 0.4864(3) 0.9796(7)
F8 F 0.3572(6) 0.5355(3) 0.8694(6)
F9 F 0.2420(6) 0.5485(3) 0.9688(6)
F10 F 0.1070(7) 0.4678(3) 0.5752(9)
F11 F 0.1262(9) 0.5220(4) 0.4741(7)
F12 F 0.0122(5) 0.5248(3) 0.5842(8)
S3 S 0.1865(2) 0.49114(11) 0.8271(2)
S4 S 0.1978(2) 0.53968(11) 0.6505(2)
C5 C 0.3374(10) 0.0552(4) 0.9331(9)
C6 C 0.2810(9) 0.0234(4) 0.5612(8)
N3 N 0.2658(6) 0.0224(3) 0.7598(6)
O9 O 0.3615(5) 0.1006(3) 0.7741(5)
O10 O 0.1890(6) 0.0918(3) 0.8292(6)
O11 O 0.3195(7) -0.0462(3) 0.6750(6)
O12 O 0.4387(6) 0.0176(3) 0.6848(7)
F13 F 0.3552(6) 0.0932(2) 0.9898(5)
F14 F 0.2705(6) 0.0300(2) 0.9832(5)
F15 F 0.4216(5) 0.0313(2) 0.9330(5)
F16 F 0.1868(5) 0.0114(2) 0.5440(5)
F17 F 0.2848(5) 0.0698(2) 0.5591(5)
F18 F 0.3324(6) 0.0077(3) 0.4885(5)
S5 S 0.2844(2) 0.07123(9) 0.81152(19)
S6 S 0.3367(2) 0.00211(9) 0.6807(2)
C7 C 0.5433(10) 0.2780(5) 0.8939(14)
C8 C 0.8903(19) 0.2760(10) 0.792(2)
N4 N 0.6996(6) 0.2578(3) 0.7849(8)
O13 O 0.5598(7) 0.3033(4) 0.7102(7)
O14 O 0.6707(6) 0.3414(2) 0.8444(7)
O15 O 0.8263(16) 0.2014(8) 0.8637(14)
O16 O 0.8064(14) 0.2742(7) 0.9533(15)
F19 F 0.4988(7) 0.2393(3) 0.8600(8)
F20 F 0.5961(7) 0.2688(3) 0.9771(7)
F21 F 0.4743(6) 0.3093(3) 0.9092(8)
F22 F 0.9801(10) 0.2747(5) 0.8463(15)
F23 F 0.8838(13) 0.3212(10) 0.759(3)
F24 F 0.9060(11) 0.2546(6) 0.7040(15)
S7 S 0.6263(2) 0.29975(11) 0.7997(3)
S8 S 0.7973(7) 0.2491(3) 0.8624(7)
C10 C 0.6357(10) -0.1418(5) 0.4431(10)
H1 H 0.6486 -0.1671 0.4914
H2 H 0.5902 -0.1538 0.3880
C11 C 0.7324(10) -0.1282(5) 0.4033(12)
H3 H 0.7863 -0.1267 0.4576
H4 H 0.7260 -0.0973 0.3720
C12 C 0.7602(11) -0.1665(5) 0.3216(11)
H5 H 0.7552 -0.1979 0.3499
H6 H 0.7123 -0.1643 0.2624
C13 C 0.8647(14) -0.1580(8) 0.2933(13)
H7 H 0.8706 -0.1260 0.2712
H8 H 0.8798 -0.1789 0.2394
H9 H 0.9123 -0.1635 0.3507
C14 C 0.4766(12) -0.1173(10) 0.5191(19)
H10 H 0.4385 -0.0897 0.5380
H11 H 0.4407 -0.1310 0.4596
C15 C 0.4792(16) -0.1524(9) 0.6040(19)
H12 H 0.5083 -0.1382 0.6662
H13 H 0.5207 -0.1794 0.5883
C16 C 0.3693(15) -0.1670(9) 0.6148(18)
H14 H 0.3686 -0.1870 0.6742
H15 H 0.3305 -0.1389 0.6288
C17 C 0.313(2) -0.1921(9) 0.5299(18)
H16 H 0.3023 -0.1713 0.4731
H17 H 0.2472 -0.2024 0.5506
H18 H 0.3518 -0.2189 0.5110
C18 C 0.656(2) -0.0948(9) 0.5853(19)
H19 H 0.6585 -0.1232 0.6258
H20 H 0.7246 -0.0898 0.5626
C19 C 0.634(3) -0.0588(10) 0.644(2)
H21 H 0.5708 -0.0658 0.6759
H22 H 0.6212 -0.0310 0.6021
C20 C 0.718(2) -0.0480(9) 0.7252(15)
H23 H 0.7300 -0.0755 0.7677
H24 H 0.7812 -0.0412 0.6934
C21 C 0.6924(19) -0.0070(8) 0.790(2)
H25 H 0.6959 0.0215 0.7516
H26 H 0.7406 -0.0055 0.8480
H27 H 0.6242 -0.0109 0.8116
C22 C 0.5537(11) -0.0631(5) 0.4264(10)
H28 H 0.6143 -0.0439 0.4195
H29 H 0.5042 -0.0439 0.4590
C23 C 0.5099(9) -0.0751(5) 0.3245(9)
H30 H 0.4543 -0.0975 0.3292
H31 H 0.5622 -0.0896 0.2862
C24 C 0.4700(12) -0.0315(5) 0.2710(10)
H32 H 0.5239 -0.0079 0.2732
H33 H 0.4132 -0.0189 0.3060
C25 C 0.4340(10) -0.0412(5) 0.1616(10)
H34 H 0.4919 -0.0494 0.1244
H35 H 0.4015 -0.0136 0.1325
H36 H 0.3857 -0.0668 0.1588
N5 N 0.5828(7) -0.1025(4) 0.4937(7)
C34 C -0.1108(7) 0.4380(3) -0.0113(7)
H55 H -0.1665 0.4597 -0.0003
H56 H -0.0472 0.4557 -0.0032
C35 C -0.1237(8) 0.4209(4) -0.1175(7)
H57 H -0.0626 0.4038 -0.1336
H58 H -0.1816 0.3995 -0.1245
C36 C -0.1412(8) 0.4604(4) -0.1890(7)
H59 H -0.0828 0.4816 -0.1825
H60 H -0.2016 0.4778 -0.1719
C37 C -0.1562(11) 0.4438(5) -0.2957(9)
H61 H -0.0980 0.4253 -0.3119
H62 H -0.1627 0.4705 -0.3402
H63 H -0.2174 0.4250 -0.3038
C38 C -0.2098(7) 0.3773(3) 0.0699(7)
H64 H -0.2057 0.3542 0.1240
H65 H -0.2216 0.3603 0.0067
C39 C -0.3007(7) 0.4080(3) 0.0830(7)
H66 H -0.2840 0.4301 0.1374
H67 H -0.3160 0.4259 0.0214
C40 C -0.3925(8) 0.3808(4) 0.1061(10)
H68 H -0.4068 0.3577 0.0529
H69 H -0.3774 0.3637 0.1688
C41 C -0.4851(7) 0.4094(4) 0.1158(9)
H70 H -0.4717 0.4325 0.1678
H71 H -0.5406 0.3894 0.1332
H72 H -0.5035 0.4248 0.0526
C42 C -0.0306(7) 0.3647(3) 0.0502(7)
H73 H -0.0310 0.3415 0.1038
H74 H -0.0519 0.3490 -0.0127
C43 C 0.0767(7) 0.3814(4) 0.0439(8)
H75 H 0.1057 0.3895 0.1111
H76 H 0.0766 0.4096 0.0024
C44 C 0.1426(8) 0.3444(4) -0.0009(8)
H77 H 0.1432 0.3165 0.0414
H78 H 0.1121 0.3358 -0.0672
C45 C 0.2489(9) 0.3597(4) -0.0107(10)
H79 H 0.2493 0.3859 -0.0563
H80 H 0.2877 0.3342 -0.0366
H81 H 0.2793 0.3689 0.0544
C46 C -0.0822(7) 0.4257(3) 0.1678(6)
H82 H -0.0112 0.4359 0.1688
H83 H -0.1244 0.4538 0.1700
C47 C -0.0954(8) 0.3979(3) 0.2613(7)
H84 H -0.0639 0.3672 0.2553
H85 H -0.1680 0.3933 0.2694
C48 C -0.0472(8) 0.4226(4) 0.3523(7)
H86 H 0.0269 0.4224 0.3495
H87 H -0.0697 0.4552 0.3515
C49 C -0.0741(10) 0.4004(4) 0.4466(8)
H88 H -0.1470 0.4023 0.4516
H89 H -0.0395 0.4164 0.5031
H90 H -0.0533 0.3680 0.4470
N6 N -0.1087(6) 0.4013(3) 0.0693(6)
C50 C 0.0161(8) 0.0989(3) 1.0305(7)
H91 H 0.0882 0.0906 1.0303
H92 H -0.0169 0.0749 1.0690
C51 C -0.0296(7) 0.0972(3) 0.9241(7)
H93 H -0.1003 0.1080 0.9218
H94 H 0.0083 0.1181 0.8823
C52 C -0.0264(8) 0.0485(3) 0.8834(7)
H95 H -0.0720 0.0287 0.9194
H96 H 0.0428 0.0362 0.8950
C53 C -0.0578(8) 0.0468(4) 0.7723(7)
H97 H -0.1247 0.0606 0.7601
H98 H -0.0597 0.0146 0.7500
H99 H -0.0090 0.0640 0.7358
C54 C -0.0997(7) 0.1522(3) 1.1104(8)
H100 H -0.1429 0.1521 1.0477
H101 H -0.1199 0.1255 1.1502
C55 C -0.1218(9) 0.1957(4) 1.1663(9)
H102 H -0.1092 0.2230 1.1250
H103 H -0.0768 0.1976 1.2278
C56 C -0.2314(9) 0.1954(4) 1.1923(10)
H104 H -0.2752 0.1921 1.1303
H105 H -0.2426 0.1681 1.2341
C57 C -0.2629(10) 0.2380(5) 1.2462(11)
H106 H -0.2202 0.2416 1.3078
H107 H -0.3334 0.2351 1.2617
H108 H -0.2555 0.2651 1.2040
C58 C 0.0816(8) 0.1452(4) 1.1774(7)
H109 H 0.1495 0.1372 1.1571
H110 H 0.0850 0.1769 1.2048
C59 C 0.0553(7) 0.1123(4) 1.2591(7)
H111 H -0.0056 0.1235 1.2895
H112 H 0.0401 0.0814 1.2304
C60 C 0.1409(8) 0.1083(4) 1.3379(7)
H113 H 0.1168 0.0913 1.3950
H114 H 0.1600 0.1397 1.3611
C61 C 0.2344(9) 0.0843(5) 1.3048(10)
H115 H 0.2196 0.0516 1.2928
H116 H 0.2892 0.0873 1.3567
H117 H 0.2545 0.0986 1.2436
C62 C 0.0428(8) 0.1846(4) 1.0185(8)
H118 H -0.0031 0.1853 0.9576
H119 H 0.0346 0.2141 1.0536
C63 C 0.1490(8) 0.1821(4) 0.9880(8)
H120 H 0.1632 0.1504 0.9654
H121 H 0.1963 0.1891 1.0459
C64 C 0.1658(10) 0.2160(4) 0.9051(8)
H122 H 0.1450 0.2472 0.9255
H123 H 0.1227 0.2072 0.8454
C65 C 0.2756(11) 0.2176(5) 0.8789(9)
H124 H 0.3194 0.2228 0.9393
H125 H 0.2845 0.2427 0.8319
H126 H 0.2934 0.1882 0.8489
N7 N 0.0085(6) 0.1451(3) 1.0856(6)
C66 C 0.6916(9) 0.1726(4) 0.5691(7)
H127 H 0.6912 0.1882 0.5040
H128 H 0.6980 0.1968 0.6208
C67 C 0.7830(8) 0.1426(5) 0.5805(9)
H129 H 0.7700 0.1128 0.5459
H130 H 0.8006 0.1361 0.6515
C68 C 0.8729(10) 0.1691(5) 0.5337(13)
H131 H 0.8613 0.1695 0.4606
H132 H 0.8748 0.2015 0.5572
C69 C 0.9686(14) 0.1470(7) 0.5613(14)
H133 H 0.9874 0.1527 0.6316
H134 H 1.0206 0.1596 0.5211
H135 H 0.9625 0.1137 0.5498
C70 C 0.5668(8) 0.1160(4) 0.4884(7)
H136 H 0.6207 0.0925 0.4898
H137 H 0.5029 0.0997 0.4984
C71 C 0.5580(9) 0.1374(4) 0.3857(7)
H138 H 0.6241 0.1500 0.3702
H139 H 0.5092 0.1632 0.3845
C72 C 0.5234(9) 0.1019(4) 0.3076(8)
H140 H 0.5759 0.0779 0.3056
H141 H 0.4616 0.0869 0.3286
C73 C 0.5016(11) 0.1205(5) 0.2034(8)
H142 H 0.4448 0.1421 0.2026
H143 H 0.4847 0.0949 0.1580
H144 H 0.5612 0.1366 0.1823
C74 C 0.5898(8) 0.1181(3) 0.6685(7)
H145 H 0.6482 0.0969 0.6688
H146 H 0.5280 0.0990 0.6647
C75 C 0.5955(9) 0.1449(4) 0.7660(7)
H147 H 0.5302 0.1603 0.7742
H148 H 0.6480 0.1691 0.7645
C76 C 0.6208(10) 0.1123(5) 0.8543(8)
H149 H 0.5740 0.0857 0.8499
H150 H 0.6901 0.1003 0.8507
C77 C 0.6126(12) 0.1365(5) 0.9527(9)
H151 H 0.6556 0.1640 0.9556
H152 H 0.6345 0.1156 1.0069
H153 H 0.5426 0.1456 0.9594
C78 C 0.5099(8) 0.1854(4) 0.5786(8)
H154 H 0.5256 0.2044 0.6386
H155 H 0.5163 0.2057 0.5205
C79 C 0.4031(9) 0.1707(4) 0.5786(8)
H156 H 0.3979 0.1456 0.6276
H157 H 0.3815 0.1581 0.5124
C80 C 0.3326(9) 0.2093(4) 0.6028(9)
H158 H 0.3332 0.2331 0.5505
H159 H 0.3575 0.2237 0.6663
C81 C 0.2243(10) 0.1930(5) 0.6113(8)
H160 H 0.2007 0.1768 0.5504
H161 H 0.1810 0.2197 0.6210
H162 H 0.2219 0.1720 0.6679
N8 N 0.5890(6) 0.1484(3) 0.5760(5)
C9? C 0.892(3) 0.2838(14) 0.736(3)
O17? O 0.839(2) 0.2055(11) 0.8153(18)
O18? O 0.840(2) 0.2771(11) 0.918(2)
F25? F 0.9884(13) 0.2721(7) 0.761(2)
F26? F 0.8598(18) 0.3239(14) 0.753(4)
F27? F 0.8691(15) 0.2675(8) 0.651(2)
S9? S 0.8143(10) 0.2547(5) 0.8237(10)
C26? C 0.651(3) -0.0790(13) 0.578(3)
H37? H 0.6741 -0.1042 0.6242
H38? H 0.7122 -0.0683 0.5469
C27? C 0.622(3) -0.0404(13) 0.642(3)
H39? H 0.5929 -0.0159 0.5978
H40? H 0.5659 -0.0518 0.6808
C28? C 0.748(3) -0.0498(11) 0.782(3)
H41? H 0.7154 -0.0498 0.8445
H42? H 0.8174 -0.0388 0.7932
H43? H 0.7482 -0.0812 0.7550
C29? C 0.692(3) -0.0191(13) 0.710(3)
H44? H 0.6563 0.0042 0.7482
H45? H 0.7416 -0.0024 0.6723
C30? C 0.499(2) -0.1248(15) 0.552(2)
H46? H 0.5314 -0.1497 0.5939
H47? H 0.4760 -0.1012 0.5983
C31? C 0.406(2) -0.1453(11) 0.496(2)
H48? H 0.4287 -0.1663 0.4442
H49? H 0.3679 -0.1199 0.4621
C32? C 0.334(3) -0.1721(13) 0.559(2)
H50? H 0.3716 -0.1970 0.5964
H51? H 0.3056 -0.1512 0.6078
C33? C 0.253(3) -0.1921(11) 0.492(2)
H52? H 0.2105 -0.1672 0.4626
H53? H 0.2115 -0.2129 0.5291
H54? H 0.2825 -0.2094 0.4387
loop_
_geom_bond_atom_site_label_1
_geom_bond_atom_site_label_2
_geom_bond_site_symmetry_1
_geom_bond_site_symmetry_2
C1 F1 1_555 1_555
C2 F4 1_555 1_555
N1 S1 1_555 1_555
O1 S1 1_555 1_555
O2 S1 1_555 1_555
O3 S2 1_555 1_555
O4 S2 1_555 1_555
F2 C1 1_555 1_555
F3 C1 1_555 1_555
F5 C2 1_555 1_555
F6 C2 1_555 1_555
S1 C1 1_555 1_555
S2 C2 1_555 1_555
C3 F7 1_555 1_555
C4 F10 1_555 1_555
N2 S3 1_555 1_555
O5 S3 1_555 1_555
O6 S3 1_555 1_555
O7 S4 1_555 1_555
O8 S4 1_555 1_555
F8 C3 1_555 1_555
F9 C3 1_555 1_555
F11 C4 1_555 1_555
F12 C4 1_555 1_555
S3 C3 1_555 1_555
S4 C4 1_555 1_555
C5 F13 1_555 1_555
C6 F16 1_555 1_555
N3 S5 1_555 1_555
O9 S5 1_555 1_555
O10 S5 1_555 1_555
O11 S6 1_555 1_555
O12 S6 1_555 1_555
F14 C5 1_555 1_555
F15 C5 1_555 1_555
F17 C6 1_555 1_555
F18 C6 1_555 1_555
S5 C5 1_555 1_555
S6 C6 1_555 1_555
C7 F19 1_555 1_555
C8 F22 1_555 1_555
N4 S7 1_555 1_555
O13 S7 1_555 1_555
O14 S7 1_555 1_555
O15 S8 1_555 1_555
O16 S8 1_555 1_555
F20 C7 1_555 1_555
F21 C7 1_555 1_555
F23 C8 1_555 1_555
F24 C8 1_555 1_555
S7 C7 1_555 1_555
S8 C8 1_555 1_555
C10 H1 1_555 1_555
H2 C10 1_555 1_555
C11 C10 1_555 1_555
H3 C11 1_555 1_555
H4 C11 1_555 1_555
C12 C11 1_555 1_555
H5 C12 1_555 1_555
H6 C12 1_555 1_555
C13 C12 1_555 1_555
H7 C13 1_555 1_555
H8 C13 1_555 1_555
H9 C13 1_555 1_555
C14 H10 1_555 1_555
H11 C14 1_555 1_555
C15 C14 1_555 1_555
H12 C15 1_555 1_555
H13 C15 1_555 1_555
C16 C15 1_555 1_555
H14 C16 1_555 1_555
H15 C16 1_555 1_555
C17 C16 1_555 1_555
H16 C17 1_555 1_555
H17 C17 1_555 1_555
H18 C17 1_555 1_555
C18 H19 1_555 1_555
H20 C18 1_555 1_555
C19 C18 1_555 1_555
H21 C19 1_555 1_555
H22 C19 1_555 1_555
C20 C19 1_555 1_555
H23 C20 1_555 1_555
H24 C20 1_555 1_555
C21 C20 1_555 1_555
H25 C21 1_555 1_555
H26 C21 1_555 1_555
H27 C21 1_555 1_555
C22 H28 1_555 1_555
H29 C22 1_555 1_555
C23 C22 1_555 1_555
H30 C23 1_555 1_555
H31 C23 1_555 1_555
C24 C23 1_555 1_555
H32 C24 1_555 1_555
H33 C24 1_555 1_555
C25 C24 1_555 1_555
H34 C25 1_555 1_555
H35 C25 1_555 1_555
H36 C25 1_555 1_555
N5 C10 1_555 1_555
C34 H55 1_555 1_555
H56 C34 1_555 1_555
C35 C34 1_555 1_555
H57 C35 1_555 1_555
H58 C35 1_555 1_555
C36 C35 1_555 1_555
H59 C36 1_555 1_555
H60 C36 1_555 1_555
C37 C36 1_555 1_555
H61 C37 1_555 1_555
H62 C37 1_555 1_555
H63 C37 1_555 1_555
C38 H64 1_555 1_555
H65 C38 1_555 1_555
C39 C38 1_555 1_555
H66 C39 1_555 1_555
H67 C39 1_555 1_555
C40 C39 1_555 1_555
H68 C40 1_555 1_555
H69 C40 1_555 1_555
C41 C40 1_555 1_555
H70 C41 1_555 1_555
H71 C41 1_555 1_555
H72 C41 1_555 1_555
C42 H73 1_555 1_555
H74 C42 1_555 1_555
C43 C42 1_555 1_555
H75 C43 1_555 1_555
H76 C43 1_555 1_555
C44 C43 1_555 1_555
H77 C44 1_555 1_555
H78 C44 1_555 1_555
C45 C44 1_555 1_555
H79 C45 1_555 1_555
H80 C45 1_555 1_555
H81 C45 1_555 1_555
C46 H82 1_555 1_555
H83 C46 1_555 1_555
C47 C46 1_555 1_555
H84 C47 1_555 1_555
H85 C47 1_555 1_555
C48 C47 1_555 1_555
H86 C48 1_555 1_555
H87 C48 1_555 1_555
C49 C48 1_555 1_555
H88 C49 1_555 1_555
H89 C49 1_555 1_555
H90 C49 1_555 1_555
N6 C34 1_555 1_555
C50 H91 1_555 1_555
H92 C50 1_555 1_555
C51 C50 1_555 1_555
H93 C51 1_555 1_555
H94 C51 1_555 1_555
C52 C51 1_555 1_555
H95 C52 1_555 1_555
H96 C52 1_555 1_555
C53 C52 1_555 1_555
H97 C53 1_555 1_555
H98 C53 1_555 1_555
H99 C53 1_555 1_555
C54 H100 1_555 1_555
H101 C54 1_555 1_555
C55 C54 1_555 1_555
H102 C55 1_555 1_555
H103 C55 1_555 1_555
C56 C55 1_555 1_555
H104 C56 1_555 1_555
H105 C56 1_555 1_555
C57 C56 1_555 1_555
H106 C57 1_555 1_555
H107 C57 1_555 1_555
H108 C57 1_555 1_555
C58 H109 1_555 1_555
H110 C58 1_555 1_555
C59 C58 1_555 1_555
H111 C59 1_555 1_555
H112 C59 1_555 1_555
C60 C59 1_555 1_555
H113 C60 1_555 1_555
H114 C60 1_555 1_555
C61 C60 1_555 1_555
H115 C61 1_555 1_555
H116 C61 1_555 1_555
H117 C61 1_555 1_555
C62 H118 1_555 1_555
H119 C62 1_555 1_555
C63 C62 1_555 1_555
H120 C63 1_555 1_555
H121 C63 1_555 1_555
C64 C63 1_555 1_555
H122 C64 1_555 1_555
H123 C64 1_555 1_555
C65 C64 1_555 1_555
H124 C65 1_555 1_555
H125 C65 1_555 1_555
H126 C65 1_555 1_555
N7 C50 1_555 1_555
C66 H127 1_555 1_555
H128 C66 1_555 1_555
C67 C66 1_555 1_555
H129 C67 1_555 1_555
H130 C67 1_555 1_555
C68 C67 1_555 1_555
H131 C68 1_555 1_555
H132 C68 1_555 1_555
C69 C68 1_555 1_555
H133 C69 1_555 1_555
H134 C69 1_555 1_555
H135 C69 1_555 1_555
C70 H136 1_555 1_555
H137 C70 1_555 1_555
C71 C70 1_555 1_555
H138 C71 1_555 1_555
H139 C71 1_555 1_555
C72 C71 1_555 1_555
H140 C72 1_555 1_555
H141 C72 1_555 1_555
C73 C72 1_555 1_555
H142 C73 1_555 1_555
H143 C73 1_555 1_555
H144 C73 1_555 1_555
C74 H145 1_555 1_555
H146 C74 1_555 1_555
C75 C74 1_555 1_555
H147 C75 1_555 1_555
H148 C75 1_555 1_555
C76 C75 1_555 1_555
H149 C76 1_555 1_555
H150 C76 1_555 1_555
C77 C76 1_555 1_555
H151 C77 1_555 1_555
H152 C77 1_555 1_555
H153 C77 1_555 1_555
C78 H154 1_555 1_555
H155 C78 1_555 1_555
C79 C78 1_555 1_555
H156 C79 1_555 1_555
H157 C79 1_555 1_555
C80 C79 1_555 1_555
H158 C80 1_555 1_555
H159 C80 1_555 1_555
C81 C80 1_555 1_555
H160 C81 1_555 1_555
H161 C81 1_555 1_555
H162 C81 1_555 1_555
N8 C66 1_555 1_555
N1 S2 1_555 1_555
N2 S4 1_555 1_555
N3 S6 1_555 1_555
N4 S8 1_555 1_555
C14 N5 1_555 1_555
C18 N5 1_555 1_555
C22 N5 1_555 1_555
C38 N6 1_555 1_555
C42 N6 1_555 1_555
C46 N6 1_555 1_555
C54 N7 1_555 1_555
C58 N7 1_555 1_555
C62 N7 1_555 1_555
C70 N8 1_555 1_555
C74 N8 1_555 1_555
C78 N8 1_555 1_555

#END
