
#######################################################################
#
#                 Cambridge Crystallographic Data Centre
#                                CCDC 
#
#######################################################################
#
# If this CIF has been generated from an entry in the Cambridge 
# Structural Database, then it will include bibliographic, chemical, 
# crystal, experimental, refinement or atomic coordinate data resulting 
# from the CCDC's data processing and validation procedures.
#
#######################################################################

data_OLAZOR
_chemical_name_common            
5-Oxo-2,7,12,17-tetraphenyl-4-oxa-21,22,24-triaza-23-azoniapentacyclo[16.2.1.1$3,6!.1$8,11!.1$13,16!]tetracosa-1(20),2,6,8(23),9,11,13(22),14,16,18-decaen-24-olate
_chemical_formula_moiety         'C43 H28 N4 O3'
_chemical_name_systematic        
'meso-Tetraphenyl-2-oxa-3-oxoporphyrin 24-N-oxide'
_symmetry_cell_setting           monoclinic
_symmetry_space_group_name_H-M   'P 21/n'
_symmetry_Int_Tables_number      14
_space_group_name_Hall           '-P 2yn'
loop_
_symmetry_equiv_pos_site_id
_symmetry_equiv_pos_as_xyz
1 x,y,z
2 1/2-x,1/2+y,1/2-z
3 -x,-y,-z
4 1/2+x,1/2-y,1/2+z
_cell_length_a                   10.9842(19)
_cell_length_b                   12.015(2)
_cell_length_c                   24.528(5)
_cell_angle_alpha                90
_cell_angle_beta                 101.958(4)
_cell_angle_gamma                90
_cell_volume                     3166.84
_exptl_crystal_colour            black
_exptl_crystal_description       block
_cell_formula_units_Z            4
loop_
_atom_site_label
_atom_site_type_symbol
_atom_site_fract_x
_atom_site_fract_y
_atom_site_fract_z
C1 C 0.0536(3) 0.5813(2) 0.23398(11)
C2 C 0.0892(3) 0.6918(3) 0.24328(11)
C3 C 0.1489(2) 0.7577(2) 0.20850(11)
C4 C 0.1730(3) 0.8746(2) 0.21339(12)
H1 H 0.1602 0.9212 0.2430
C5 C 0.2174(3) 0.9073(3) 0.16810(12)
H2 H 0.2412 0.9808 0.1606
C6 C 0.2223(3) 0.8119(2) 0.13357(11)
C7 C 0.2568(3) 0.8078(2) 0.08173(12)
C8 C 0.2450(3) 0.7148(2) 0.04600(11)
C9 C 0.2859(3) 0.7144(2) -0.00664(12)
H3 H 0.3246 0.7740 -0.0220
C10 C 0.2583(3) 0.6131(2) -0.02948(11)
H4 H 0.2719 0.5882 -0.0645
C11 C 0.2040(3) 0.5495(2) 0.00956(11)
C12 C 0.1696(3) 0.4363(2) 0.00044(11)
C13 C 0.1121(3) 0.3698(2) 0.03473(11)
C14 C 0.0911(3) 0.2527(2) 0.03093(12)
H5 H 0.1038 0.2059 0.0014
C15 C 0.0498(3) 0.2195(2) 0.07690(12)
H6 H 0.0289 0.1454 0.0850
C16 C 0.0430(3) 0.3148(2) 0.11087(12)
C17 C 0.0095(3) 0.3163(2) 0.16314(12)
C18 C 0.0153(3) 0.4091(2) 0.19798(11)
C19 C -0.0513(7) 0.4267(8) 0.2439(3)
O1 O -0.0261(5) 0.5351(2) 0.2631(2)
O2 O -0.1260(2) 0.3724(2) 0.26135(11)
C20 C 0.0494(3) 0.7499(2) 0.29057(11)
C21 C -0.0764(3) 0.7598(2) 0.29324(12)
H7 H -0.1382 0.7250 0.2657
C22 C -0.1112(3) 0.8198(2) 0.33559(12)
H8 H -0.1968 0.8257 0.3370
C23 C -0.0221(3) 0.8714(3) 0.37598(12)
H9 H -0.0464 0.9132 0.4048
C24 C 0.1022(3) 0.8616(3) 0.37404(13)
H10 H 0.1637 0.8964 0.4017
C25 C 0.1376(3) 0.8009(3) 0.33181(12)
H11 H 0.2234 0.7941 0.3310
C26 C 0.3087(3) 0.9130(2) 0.06272(12)
C27 C 0.4153(3) 0.9611(3) 0.09533(13)
H12 H 0.4553 0.9264 0.1291
C28 C 0.4632(3) 1.0597(3) 0.07848(15)
H13 H 0.5345 1.0929 0.1012
C29 C 0.4074(3) 1.1091(3) 0.02902(16)
H14 H 0.4404 1.1763 0.0177
C30 C 0.3040(3) 1.0616(3) -0.00427(14)
H15 H 0.2677 1.0948 -0.0390
C31 C 0.2525(3) 0.9646(3) 0.01298(13)
H16 H 0.1791 0.9339 -0.0092
C32 C 0.2091(3) 0.3778(2) -0.04692(11)
C33 C 0.3360(3) 0.3735(3) -0.04862(12)
H17 H 0.3955 0.4088 -0.0202
C34 C 0.3750(3) 0.3179(3) -0.09164(14)
H18 H 0.4609 0.3161 -0.0929
C35 C 0.2889(3) 0.2650(3) -0.13273(13)
H19 H 0.3155 0.2276 -0.1623
C36 C 0.1640(3) 0.2668(3) -0.13061(13)
H20 H 0.1052 0.2288 -0.1582
C37 C 0.1243(3) 0.3241(3) -0.08821(12)
H21 H 0.0381 0.3263 -0.0875
C38 C -0.0385(3) 0.2111(2) 0.18335(12)
C39 C -0.1363(3) 0.1528(3) 0.15032(13)
H22 H -0.1719 0.1788 0.1139
C40 C -0.1820(3) 0.0564(3) 0.17050(16)
H23 H -0.2487 0.0168 0.1479
C41 C -0.1307(3) 0.0185(3) 0.22319(16)
H24 H -0.1629 -0.0466 0.2370
C42 C -0.0323(3) 0.0748(3) 0.25630(15)
H25 H 0.0032 0.0479 0.2925
C43 C 0.0145(3) 0.1711(3) 0.23634(13)
H26 H 0.0824 0.2094 0.2588
N1 N 0.0777(2) 0.4046(2) 0.08284(9)
H27 H 0.0779 0.4742 0.0940
N2 N 0.1952(2) 0.6130(2) 0.05461(10)
N3 N 0.1804(2) 0.7244(2) 0.15993(9)
H28 H 0.1743 0.6556 0.1474
N4 N 0.0827(2) 0.5050(2) 0.19774(10)
O3 O 0.1808(2) 0.51296(19) 0.17351(9)
C44? C -0.023(5) 0.508(3) 0.2634(19)
O4? O -0.059(3) 0.410(3) 0.2335(12)
O5? O -0.0696(13) 0.5245(12) 0.3027(6)
loop_
_geom_bond_atom_site_label_1
_geom_bond_atom_site_label_2
_geom_bond_site_symmetry_1
_geom_bond_site_symmetry_2
C1 C2 1_555 1_555
C2 C3 1_555 1_555
C3 C4 1_555 1_555
C4 H1 1_555 1_555
C5 C4 1_555 1_555
H2 C5 1_555 1_555
C6 C5 1_555 1_555
C7 C6 1_555 1_555
C8 C7 1_555 1_555
C9 C8 1_555 1_555
H3 C9 1_555 1_555
C10 C9 1_555 1_555
H4 C10 1_555 1_555
C11 C10 1_555 1_555
C12 C11 1_555 1_555
C13 C12 1_555 1_555
C14 C13 1_555 1_555
H5 C14 1_555 1_555
C15 C14 1_555 1_555
H6 C15 1_555 1_555
C16 C15 1_555 1_555
C17 C16 1_555 1_555
C18 C17 1_555 1_555
C19 C18 1_555 1_555
O1 C1 1_555 1_555
O2 C19 1_555 1_555
C20 C2 1_555 1_555
C21 C20 1_555 1_555
H7 C21 1_555 1_555
C22 C21 1_555 1_555
H8 C22 1_555 1_555
C23 C22 1_555 1_555
H9 C23 1_555 1_555
C24 C23 1_555 1_555
H10 C24 1_555 1_555
C25 C20 1_555 1_555
H11 C25 1_555 1_555
C26 C7 1_555 1_555
C27 C26 1_555 1_555
H12 C27 1_555 1_555
C28 C27 1_555 1_555
H13 C28 1_555 1_555
C29 C28 1_555 1_555
H14 C29 1_555 1_555
C30 C29 1_555 1_555
H15 C30 1_555 1_555
C31 C26 1_555 1_555
H16 C31 1_555 1_555
C32 C12 1_555 1_555
C33 C32 1_555 1_555
H17 C33 1_555 1_555
C34 C33 1_555 1_555
H18 C34 1_555 1_555
C35 C34 1_555 1_555
H19 C35 1_555 1_555
C36 C35 1_555 1_555
H20 C36 1_555 1_555
C37 C32 1_555 1_555
H21 C37 1_555 1_555
C38 C17 1_555 1_555
C39 C38 1_555 1_555
H22 C39 1_555 1_555
C40 C39 1_555 1_555
H23 C40 1_555 1_555
C41 C40 1_555 1_555
H24 C41 1_555 1_555
C42 C41 1_555 1_555
H25 C42 1_555 1_555
C43 C38 1_555 1_555
H26 C43 1_555 1_555
N1 C13 1_555 1_555
H27 N1 1_555 1_555
N2 C8 1_555 1_555
N3 C3 1_555 1_555
H28 N3 1_555 1_555
N4 C1 1_555 1_555
O3 N4 1_555 1_555
C6 N3 1_555 1_555
C11 N2 1_555 1_555
C16 N1 1_555 1_555
C18 N4 1_555 1_555
C19 O1 1_555 1_555
C24 C25 1_555 1_555
C30 C31 1_555 1_555
C36 C37 1_555 1_555
C42 C43 1_555 1_555

#END
