
#######################################################################
#
#                 Cambridge Crystallographic Data Centre
#                                CCDC 
#
#######################################################################
#
# If this CIF has been generated from an entry in the Cambridge 
# Structural Database, then it will include bibliographic, chemical, 
# crystal, experimental, refinement or atomic coordinate data resulting 
# from the CCDC's data processing and validation procedures.
#
#######################################################################

data_OLAZAE
_chemical_formula_moiety         'C16 H36 N1 1+,C6 F18 P1 1-'
_chemical_name_systematic        
'Tetra-n-butylammonium trifluorotris(pentafluoroethyl)phosphate'
_symmetry_cell_setting           orthorhombic
_symmetry_space_group_name_H-M   'P b c a'
_symmetry_Int_Tables_number      61
_space_group_name_Hall           '-P 2ac 2ab'
loop_
_symmetry_equiv_pos_site_id
_symmetry_equiv_pos_as_xyz
1 x,y,z
2 1/2-x,-y,1/2+z
3 -x,1/2+y,1/2-z
4 1/2+x,1/2-y,-z
5 -x,-y,-z
6 1/2+x,y,1/2-z
7 x,1/2-y,1/2+z
8 1/2-x,1/2+y,z
_cell_length_a                   17.591(3)
_cell_length_b                   17.971(3)
_cell_length_c                   18.534(3)
_cell_angle_alpha                90
_cell_angle_beta                 90
_cell_angle_gamma                90
_cell_volume                     5859.11
_exptl_crystal_colour            colorless
_exptl_crystal_description       block
_cell_formula_units_Z            8
loop_
_atom_site_label
_atom_site_type_symbol
_atom_site_fract_x
_atom_site_fract_y
_atom_site_fract_z
C1 C 0.87304(19) 0.11545(17) 0.64374(17)
C2 C 0.7935(3) 0.0838(2) 0.6623(2)
C3 C 0.96940(19) 0.11507(18) 0.76923(17)
C4 C 1.0529(2) 0.0917(2) 0.7592(2)
C5 C 0.8852(3) 0.2741(3) 0.6490(4)
C6 C 0.8880(4) 0.3500(4) 0.6877(3)
F1 F 0.99622(11) 0.18114(12) 0.64816(10)
F2 F 0.97273(11) 0.24958(12) 0.75106(10)
F3 F 0.85267(11) 0.19421(10) 0.75780(9)
F4 F 0.86537(12) 0.14369(11) 0.57549(10)
F5 F 0.91853(11) 0.05388(10) 0.63552(11)
F6 F 0.73999(11) 0.13599(12) 0.65920(14)
F7 F 0.77505(16) 0.03179(13) 0.61216(15)
F8 F 0.79010(13) 0.05151(12) 0.72585(13)
F9 F 0.96766(12) 0.14386(12) 0.83818(10)
F10 F 0.92896(12) 0.05084(11) 0.77304(11)
F11 F 1.06280(12) 0.05223(12) 0.69884(12)
F12 F 1.0992(3) 0.1500(3) 0.7573(2)
F13 F 1.07481(18) 0.04839(15) 0.81444(15)
F14 F 0.9174(2) 0.28081(15) 0.5849(2)
F15 F 0.8076(2) 0.2615(2) 0.63772(17)
F16 F 0.8489(5) 0.4000(4) 0.6490(4)
F17 F 0.8554(4) 0.3481(4) 0.7527(4)
F18 F 0.9589(5) 0.3744(5) 0.6928(4)
P1 P 0.92554(9) 0.18846(9) 0.70407(7)
C13 C 1.04896(14) 0.12543(14) 0.45816(14)
H1 H 1.0437 0.1178 0.5108
H2 H 1.0754 0.0813 0.4384
C14 C 0.96926(14) 0.12848(15) 0.42532(14)
H3 H 0.9404 0.1705 0.4463
H4 H 0.9728 0.1362 0.3725
C15 C 0.92864(14) 0.05541(14) 0.44119(14)
H5 H 0.9300 0.0459 0.4938
H6 H 0.9560 0.0143 0.4170
C16 C 0.84623(16) 0.05590(16) 0.41581(16)
H7 H 0.8192 0.0974 0.4386
H8 H 0.8218 0.0089 0.4292
H9 H 0.8447 0.0618 0.3633
C17 C 1.11017(14) 0.20864(13) 0.36601(13)
H10 H 1.1480 0.2491 0.3610
H11 H 1.0614 0.2274 0.3465
C18 C 1.13597(15) 0.14347(14) 0.31925(13)
H12 H 1.0955 0.1053 0.3172
H13 H 1.1820 0.1204 0.3404
C19 C 1.15339(16) 0.17190(14) 0.24311(13)
H14 H 1.1081 0.1979 0.2239
H15 H 1.1955 0.2083 0.2456
C20 C 1.17522(17) 0.10965(16) 0.19203(15)
H16 H 1.2199 0.0836 0.2109
H17 H 1.1871 0.1305 0.1445
H18 H 1.1328 0.0746 0.1877
C21 C 1.06244(14) 0.26077(14) 0.48073(14)
H19 H 1.0135 0.2703 0.4561
H20 H 1.0509 0.2487 0.5317
C22 C 1.10908(15) 0.33208(14) 0.47913(14)
H21 H 1.1192 0.3465 0.4285
H22 H 1.1585 0.3237 0.5033
C23 C 1.06629(16) 0.39450(15) 0.51736(17)
H23 H 1.0159 0.4008 0.4944
H24 H 1.0579 0.3803 0.5684
C24 C 1.10876(18) 0.46824(15) 0.51480(17)
H25 H 1.1597 0.4617 0.5352
H26 H 1.0809 0.5055 0.5429
H27 H 1.1130 0.4849 0.4646
C25 C 1.17681(14) 0.17719(14) 0.47975(14)
H28 H 1.1969 0.1306 0.4585
H29 H 1.2119 0.2178 0.4658
C26 C 1.17854(16) 0.16962(16) 0.56145(14)
H30 H 1.1454 0.1279 0.5765
H31 H 1.1590 0.2158 0.5839
C27 C 1.26000(17) 0.15524(17) 0.58724(16)
H32 H 1.2587 0.1401 0.6386
H33 H 1.2817 0.1135 0.5592
C28 C 1.31140(17) 0.22251(18) 0.57946(17)
H34 H 1.3155 0.2360 0.5284
H35 H 1.3620 0.2106 0.5984
H36 H 1.2899 0.2644 0.6066
N1 N 1.09942(11) 0.19294(11) 0.44603(11)
C7? C 0.9966(10) 0.0954(9) 0.7016(9)
C8? C 1.0363(9) 0.0886(9) 0.7753(8)
C9? C 0.8387(9) 0.1313(9) 0.7040(9)
C10? C 0.7929(8) 0.0866(8) 0.6477(8)
C11? C 0.885(2) 0.2618(18) 0.655(3)
C12? C 0.8915(18) 0.3444(18) 0.6760(17)
F19? F 0.9300(5) 0.1519(5) 0.5979(4)
F20? F 1.0145(5) 0.2255(5) 0.6658(5)
F21? F 0.9381(6) 0.2104(5) 0.7643(5)
F22? F 0.9597(5) 0.0296(4) 0.6908(5)
F23? F 1.0554(5) 0.0933(5) 0.6533(6)
F24? F 0.9882(7) 0.0822(7) 0.8301(6)
F25? F 1.0818(8) 0.0288(7) 0.7770(8)
F26? F 1.0821(13) 0.1471(13) 0.7861(12)
F27? F 0.8520(6) 0.0839(6) 0.7617(6)
F28? F 0.7902(6) 0.1836(5) 0.7323(6)
F29? F 0.8324(6) 0.0299(5) 0.6189(7)
F30? F 0.7693(6) 0.1298(6) 0.5930(7)
F31? F 0.7316(6) 0.0565(7) 0.6798(9)
F32? F 0.9262(12) 0.3013(9) 0.5818(11)
F33? F 0.8161(14) 0.2699(14) 0.6239(11)
F34? F 0.851(2) 0.3938(17) 0.6376(15)
F35? F 0.866(2) 0.3537(18) 0.7438(18)
F36? F 0.960(2) 0.377(2) 0.6815(15)
P2? P 0.9328(6) 0.1807(6) 0.6786(4)
loop_
_geom_bond_atom_site_label_1
_geom_bond_atom_site_label_2
_geom_bond_site_symmetry_1
_geom_bond_site_symmetry_2
C1 C2 1_555 1_555
C2 F6 1_555 1_555
C3 C4 1_555 1_555
C4 F11 1_555 1_555
C5 C6 1_555 1_555
C6 F16 1_555 1_555
F1 P1 1_555 1_555
F2 P1 1_555 1_555
F3 P1 1_555 1_555
F4 C1 1_555 1_555
F5 C1 1_555 1_555
F7 C2 1_555 1_555
F8 C2 1_555 1_555
F9 C3 1_555 1_555
F10 C3 1_555 1_555
F12 C4 1_555 1_555
F13 C4 1_555 1_555
F14 C5 1_555 1_555
F15 C5 1_555 1_555
F17 C6 1_555 1_555
F18 C6 1_555 1_555
P1 C1 1_555 1_555
C13 H1 1_555 1_555
H2 C13 1_555 1_555
C14 C13 1_555 1_555
H3 C14 1_555 1_555
H4 C14 1_555 1_555
C15 C14 1_555 1_555
H5 C15 1_555 1_555
H6 C15 1_555 1_555
C16 C15 1_555 1_555
H7 C16 1_555 1_555
H8 C16 1_555 1_555
H9 C16 1_555 1_555
C17 H10 1_555 1_555
H11 C17 1_555 1_555
C18 C17 1_555 1_555
H12 C18 1_555 1_555
H13 C18 1_555 1_555
C19 C18 1_555 1_555
H14 C19 1_555 1_555
H15 C19 1_555 1_555
C20 C19 1_555 1_555
H16 C20 1_555 1_555
H17 C20 1_555 1_555
H18 C20 1_555 1_555
C21 H19 1_555 1_555
H20 C21 1_555 1_555
C22 C21 1_555 1_555
H21 C22 1_555 1_555
H22 C22 1_555 1_555
C23 C22 1_555 1_555
H23 C23 1_555 1_555
H24 C23 1_555 1_555
C24 C23 1_555 1_555
H25 C24 1_555 1_555
H26 C24 1_555 1_555
H27 C24 1_555 1_555
C25 H28 1_555 1_555
H29 C25 1_555 1_555
C26 C25 1_555 1_555
H30 C26 1_555 1_555
H31 C26 1_555 1_555
C27 C26 1_555 1_555
H32 C27 1_555 1_555
H33 C27 1_555 1_555
C28 C27 1_555 1_555
H34 C28 1_555 1_555
H35 C28 1_555 1_555
H36 C28 1_555 1_555
N1 C13 1_555 1_555
C3 P1 1_555 1_555
C5 P1 1_555 1_555
C17 N1 1_555 1_555
C21 N1 1_555 1_555
C25 N1 1_555 1_555

#END
