
#######################################################################
#
#                 Cambridge Crystallographic Data Centre
#                                CCDC 
#
#######################################################################
#
# If this CIF has been generated from an entry in the Cambridge 
# Structural Database, then it will include bibliographic, chemical, 
# crystal, experimental, refinement or atomic coordinate data resulting 
# from the CCDC's data processing and validation procedures.
#
#######################################################################

data_OLEBOW
_chemical_formula_moiety         
'2(Ba1 2+),16(C19 H31 N5 O5 Si1),4(C6 H3 N2 O5 1-),9(C2 H3 N1),10(H2 O1)'
_chemical_name_systematic        
"Di-barium hexadecakis(5'-((t-butyl)dimethylsilyl)-2',3'-O-isopropylideneguanosine) tetrakis(2,6-dinitrophenolato) acetonitrile solvate decahydrate"
_symmetry_cell_setting           trigonal
_symmetry_space_group_name_H-M   'P 31 2 1'
_symmetry_Int_Tables_number      152
_space_group_name_Hall           'P 31 2"'
loop_
_symmetry_equiv_pos_site_id
_symmetry_equiv_pos_as_xyz
1 x,y,z
2 -y,x-y,1/3+z
3 -x+y,-x,2/3+z
4 y,x,-z
5 x-y,-y,2/3-z
6 -x,-x+y,1/3-z
_cell_length_a                   25.3192(2)
_cell_length_b                   25.3192(2)
_cell_length_c                   64.0980(10)
_cell_angle_alpha                90
_cell_angle_beta                 90
_cell_angle_gamma                120
_cell_volume                     35585.7
_exptl_crystal_colour            orange
_exptl_crystal_description       block
_chemical_melting_point          258-260deg.C(dec.)
_cell_formula_units_Z            3
_exptl_crystal_recrystallization_method chloroform/acetonitrile
loop_
_atom_site_label
_atom_site_type_symbol
_atom_site_fract_x
_atom_site_fract_y
_atom_site_fract_z
Ba1 Ba 0.0000 0.527877(19) 0.1667
C1 C -0.1012(3) 0.4000(3) 0.09798(9)
N1 N -0.0819(2) 0.4141(2) 0.11845(7)
H1 H -0.0433 0.4314 0.1208
O1 O -0.09734(18) 0.41964(18) 0.15319(6)
C2 C -0.1966(3) 0.3603(3) 0.10916(10)
N2 N -0.0579(3) 0.4152(3) 0.08371(8)
H2 H -0.0676 0.4063 0.0708
H3 H -0.0202 0.4340 0.0874
O2 O -0.3397(2) 0.2469(3) 0.09204(9)
C3 C -0.1819(3) 0.3725(3) 0.12973(9)
N3 N -0.1592(2) 0.3713(2) 0.09279(7)
O3 O -0.3166(3) 0.3266(3) 0.05473(8)
C4 C -0.1196(3) 0.4024(3) 0.13551(9)
N4 N -0.2330(2) 0.3552(2) 0.14196(8)
O4 O -0.3044(4) 0.2494(4) 0.04312(10)
C5 C -0.2777(3) 0.3338(3) 0.12830(10)
H4 H -0.3182 0.3194 0.1320
N5 N -0.2596(2) 0.3348(2) 0.10827(8)
O5 O -0.2537(4) 0.1691(3) 0.08416(13)
C6 C -0.3047(3) 0.3092(3) 0.09112(11)
H5 H -0.3314 0.3268 0.0918
C7 C -0.2735(4) 0.3228(4) 0.06936(11)
H6 H -0.2324 0.3586 0.0691
C8 C -0.2758(3) 0.2646(4) 0.06321(12)
H7 H -0.2346 0.2704 0.0624
C9 C -0.3136(5) 0.2975(6) 0.03659(14)
C10 C -0.3702(6) 0.2752(7) 0.02479(18)
H8 H -0.3683 0.2551 0.0124
H9 H -0.3756 0.3089 0.0211
H10 H -0.4040 0.2469 0.0332
C11 C -0.2584(9) 0.3431(10) 0.02319(18)
H11 H -0.2559 0.3229 0.0109
H12 H -0.2215 0.3577 0.0311
H13 H -0.2636 0.3768 0.0193
C12 C -0.3125(4) 0.2191(4) 0.08022(16)
H14 H -0.3446 0.1815 0.0738
C13 C -0.2738(6) 0.2036(5) 0.09506(16)
H15 H -0.2390 0.2409 0.1002
H16 H -0.2982 0.1807 0.1070
Si1 Si -0.2504(2) 0.1131(2) 0.09538(7)
C14 C -0.2380(11) 0.0759(11) 0.0723(3)
H17 H -0.2718 0.0625 0.0629
H18 H -0.2349 0.0414 0.0768
H19 H -0.2011 0.1045 0.0653
C15 C -0.3231(8) 0.0608(8) 0.1081(3)
H20 H -0.3554 0.0460 0.0980
H21 H -0.3310 0.0821 0.1190
H22 H -0.3210 0.0271 0.1140
C16 C -0.1886(10) 0.1402(10) 0.1142(3)
C17 C -0.1266(9) 0.1869(12) 0.1044(4)
H23 H -0.1190 0.1690 0.0924
H24 H -0.0947 0.1977 0.1145
H25 H -0.1278 0.2227 0.1003
C18 C -0.2022(9) 0.1658(9) 0.1332(3)
H26 H -0.2099 0.1979 0.1292
H27 H -0.1679 0.1818 0.1425
H28 H -0.2375 0.1341 0.1401
C19 C -0.1779(14) 0.0883(12) 0.1227(4)
H29 H -0.1734 0.0667 0.1112
H30 H -0.2121 0.0607 0.1310
H31 H -0.1416 0.1059 0.1311
C20 C 0.2044(3) 0.5668(3) 0.13240(9)
N6 N 0.1453(2) 0.5371(2) 0.13909(7)
H32 H 0.1393 0.5349 0.1523
O6 O 0.04195(17) 0.48542(18) 0.13444(6)
C21 C 0.1694(3) 0.5436(3) 0.09971(9)
N7 N 0.2480(2) 0.5911(2) 0.14654(8)
H33 H 0.2856 0.6095 0.1427
H34 H 0.2388 0.5884 0.1596
O7 O 0.2268(3) 0.5109(3) 0.05672(11)
C22 C 0.1088(3) 0.5142(3) 0.10515(9)
N8 N 0.2195(2) 0.5715(2) 0.11239(7)
O8 O 0.3692(3) 0.5999(4) 0.06423(13)
C23 C 0.0938(3) 0.5100(3) 0.12634(9)
N9 N 0.0719(2) 0.4923(2) 0.08762(8)
O9 O 0.3171(2) 0.6457(3) 0.05507(8)
C24 C 0.1097(3) 0.5092(3) 0.07211(10)
H35 H 0.0973 0.5001 0.0583
N10 N 0.1706(2) 0.5425(2) 0.07812(8)
O10 O 0.2079(6) 0.4162(7) 0.0846(2)
C25 C 0.2209(3) 0.5613(4) 0.06304(11)
H36 H 0.2121 0.5785 0.0507
C26 C 0.2839(3) 0.6079(3) 0.07141(11)
H37 H 0.2817 0.6305 0.0835
C27 C 0.3163(4) 0.5730(5) 0.07624(14)
H38 H 0.3258 0.5751 0.0911
C28 C 0.3795(5) 0.6563(7) 0.05680(18)
C29 C 0.4152(5) 0.7074(7) 0.0725(2)
H39 H 0.4562 0.7147 0.0736
H40 H 0.3958 0.6956 0.0859
H41 H 0.4161 0.7439 0.0680
C30 C 0.4049(5) 0.6677(7) 0.0346(2)
H42 H 0.4463 0.6760 0.0349
H43 H 0.4038 0.7020 0.0288
H44 H 0.3807 0.6322 0.0262
C31 C 0.2772(6) 0.5100(8) 0.0695(2)
H45 H 0.3007 0.4979 0.0605
C32 C 0.2518(8) 0.4648(8) 0.0892(3)
H46 H 0.2839 0.4581 0.0945
H47 H 0.2406 0.4837 0.1001
Si2 Si 0.1770(3) 0.3685(4) 0.10557(13)
C33 C 0.1763(11) 0.4133(11) 0.1314(4)
H48 H 0.2173 0.4435 0.1350
H49 H 0.1585 0.3849 0.1427
H50 H 0.1527 0.4328 0.1289
C34 C 0.2444(17) 0.3524(16) 0.1119(5)
H51 H 0.2815 0.3903 0.1141
H52 H 0.2496 0.3310 0.1004
H53 H 0.2348 0.3279 0.1243
C35 C 0.1041(13) 0.3162(13) 0.0994(4)
C36 C 0.0828(15) 0.2633(13) 0.1174(5)
H54 H 0.1105 0.2478 0.1175
H55 H 0.0424 0.2307 0.1143
H56 H 0.0830 0.2804 0.1307
C37 C 0.0588(9) 0.3409(10) 0.1002(3)
H57 H 0.0700 0.3720 0.0898
H58 H 0.0602 0.3577 0.1137
H59 H 0.0182 0.3081 0.0975
C38 C 0.0999(10) 0.2844(10) 0.0773(3)
H60 H 0.1268 0.2679 0.0773
H61 H 0.1117 0.3142 0.0664
H62 H 0.0588 0.2522 0.0750
C39 C 0.0197(3) 0.5956(3) 0.08760(8)
N11 N 0.0055(2) 0.5887(2) 0.10855(7)
H63 H 0.0354 0.6045 0.1173
O11 O -0.05986(17) 0.55356(17) 0.13621(5)
C40 C -0.0790(2) 0.5430(3) 0.08059(9)
N12 N 0.0776(2) 0.6265(2) 0.08220(7)
H64 H 0.0877 0.6311 0.0692
H65 H 0.1054 0.6421 0.0916
O12 O -0.1162(2) 0.4588(2) 0.04257(7)
C41 C -0.0979(2) 0.5353(3) 0.10117(8)
N13 N -0.0229(2) 0.5717(2) 0.07262(7)
O13 O -0.1389(3) 0.5596(3) 0.01805(9)
C42 C -0.0531(2) 0.5584(2) 0.11671(9)
N14 N -0.1607(2) 0.5025(2) 0.10263(7)
O14 O -0.0714(4) 0.5455(4) 0.00011(8)
C43 C -0.1802(3) 0.4884(3) 0.08359(10)
H66 H -0.2211 0.4650 0.0800
N15 N -0.1321(2) 0.5128(2) 0.06899(7)
O15 O -0.0315(3) 0.4175(3) 0.03965(8)
C44 C -0.1371(3) 0.5008(3) 0.04680(9)
H67 H -0.1802 0.4818 0.0428
C45 C -0.1009(3) 0.5570(4) 0.03352(10)
H68 H -0.0796 0.5946 0.0417
C46 C -0.0570(4) 0.5431(4) 0.02082(11)
H69 H -0.0144 0.5735 0.0237
C47 C -0.1060(5) 0.5745(5) -0.00105(11)
C48 C -0.1551(7) 0.5451(6) -0.01885(18)
H70 H -0.1799 0.5639 -0.0190
H71 H -0.1804 0.5022 -0.0163
H72 H -0.1350 0.5513 -0.0321
C49 C -0.0689(5) 0.6411(5) -0.00329(16)
H73 H -0.0952 0.6582 -0.0040
H74 H -0.0452 0.6507 -0.0159
H75 H -0.0421 0.6578 0.0085
C50 C -0.0699(3) 0.4807(4) 0.02666(10)
H76 H -0.0863 0.4541 0.0144
C51 C -0.0165(4) 0.4777(4) 0.03448(12)
H77 H 0.0151 0.4935 0.0239
H78 H -0.0004 0.5034 0.0467
Si3 Si -0.01987(13) 0.36883(14) 0.02602(4)
C52 C 0.0515(6) 0.3746(8) 0.0342(2)
H79 H 0.0844 0.4153 0.0318
H80 H 0.0584 0.3463 0.0263
H81 H 0.0494 0.3651 0.0488
C53 C -0.0110(7) 0.3924(7) -0.00200(14)
H82 H 0.0249 0.4316 -0.0036
H83 H -0.0461 0.3947 -0.0064
H84 H -0.0075 0.3629 -0.0104
C54 C -0.0865(6) 0.2964(6) 0.02829(16)
C55 C -0.0949(10) 0.2740(7) 0.0513(2)
H85 H -0.0601 0.2711 0.0555
H86 H -0.1310 0.2346 0.0523
H87 H -0.0989 0.3024 0.0601
C56 C -0.1434(7) 0.2991(9) 0.0233(3)
H88 H -0.1419 0.3116 0.0091
H89 H -0.1459 0.3279 0.0324
H90 H -0.1786 0.2595 0.0253
C57 C -0.0838(8) 0.2444(7) 0.0157(2)
H91 H -0.0783 0.2547 0.0011
H92 H -0.1212 0.2066 0.0176
H93 H -0.0502 0.2403 0.0206
C58 C 0.2243(3) 0.7107(3) 0.17338(8)
N16 N 0.16256(19) 0.6749(2) 0.16848(7)
H94 H 0.1372 0.6608 0.1787
O16 O 0.08304(16) 0.62670(17) 0.14567(6)
C59 C 0.2450(2) 0.7192(2) 0.13962(8)
N17 N 0.2392(2) 0.7209(2) 0.19331(7)
H95 H 0.2768 0.7425 0.1969
H96 H 0.2112 0.7059 0.2027
O17 O 0.36488(19) 0.72446(19) 0.12660(7)
C60 C 0.1849(2) 0.6858(2) 0.13308(8)
N18 N 0.2672(2) 0.7337(2) 0.15904(7)
O18 O 0.4048(2) 0.8762(2) 0.12047(8)
C61 C 0.1390(3) 0.6602(2) 0.14848(8)
N19 N 0.1809(2) 0.6808(2) 0.11155(7)
O19 O 0.4786(2) 0.8549(2) 0.12793(10)
C62 C 0.2379(3) 0.7104(2) 0.10523(9)
H97 H 0.2495 0.7145 0.0913
N20 N 0.2788(2) 0.7347(2) 0.12162(7)
O20 O 0.37973(18) 0.65911(19) 0.16064(7)
C63 C 0.3450(3) 0.7654(3) 0.12011(9)
H98 H 0.3564 0.7759 0.1055
C64 C 0.3791(3) 0.8238(3) 0.13319(10)
H99 H 0.3528 0.8258 0.1440
C65 C 0.4313(3) 0.8198(3) 0.14246(11)
H100 H 0.4412 0.8365 0.1566
C66 C 0.4690(3) 0.9012(3) 0.11996(14)
C67 C 0.4874(6) 0.9130(5) 0.0979(2)
H101 H 0.4803 0.9444 0.0926
H102 H 0.4639 0.8763 0.0900
H103 H 0.5299 0.9258 0.0967
C68 C 0.4981(4) 0.9571(4) 0.13341(17)
H104 H 0.4906 0.9876 0.1276
H105 H 0.5413 0.9726 0.1341
H106 H 0.4812 0.9469 0.1472
C69 C 0.4148(3) 0.7539(3) 0.14163(10)
H107 H 0.4500 0.7512 0.1366
C70 C 0.3940(3) 0.7211(3) 0.16234(10)
H108 H 0.4260 0.7419 0.1726
H109 H 0.3583 0.7224 0.1671
Si4 Si 0.42932(8) 0.63749(9) 0.16699(3)
C71 C 0.5011(4) 0.6814(4) 0.15233(14)
H110 H 0.4929 0.6754 0.1376
H111 H 0.5290 0.6677 0.1561
H112 H 0.5189 0.7239 0.1556
C72 C 0.4470(4) 0.6513(4) 0.19494(12)
H113 H 0.4661 0.6942 0.1977
H114 H 0.4742 0.6368 0.1988
H115 H 0.4100 0.6301 0.2029
C73 C 0.3915(3) 0.5537(3) 0.16047(12)
C74 C 0.3807(5) 0.5451(4) 0.13716(17)
H116 H 0.3560 0.5620 0.1328
H117 H 0.3602 0.5024 0.1339
H118 H 0.4191 0.5655 0.1300
C75 C 0.3317(4) 0.5185(4) 0.17167(17)
H119 H 0.3049 0.5331 0.1674
H120 H 0.3384 0.5239 0.1864
H121 H 0.3135 0.4760 0.1683
C76 C 0.4330(5) 0.5296(5) 0.16748(17)
H122 H 0.4717 0.5520 0.1606
H123 H 0.4146 0.4872 0.1640
H124 H 0.4389 0.5346 0.1823
Ba2 Ba 0.0000 0.790556(18) 0.1667
O21 O -0.09236(17) 0.68634(17) 0.18286(5)
N21 N -0.0722(2) 0.6867(2) 0.21772(6)
H125 H -0.0338 0.7055 0.2149
C77 C -0.0888(2) 0.6740(3) 0.23849(8)
O22 O -0.2725(2) 0.6456(2) 0.25790(6)
N22 N -0.0455(2) 0.6890(2) 0.25231(7)
H126 H -0.0546 0.6810 0.2653
H127 H -0.0080 0.7068 0.2484
C78 C -0.1853(2) 0.6327(2) 0.22848(9)
O23 O -0.3134(2) 0.4980(2) 0.26934(7)
N23 N -0.1462(2) 0.6466(2) 0.24464(7)
C79 C -0.1739(2) 0.6411(2) 0.20758(8)
O24 O -0.3067(4) 0.5527(3) 0.29828(10)
N24 N -0.2273(2) 0.6179(2) 0.19591(7)
C80 C -0.1116(2) 0.6720(2) 0.20107(8)
N25 N -0.2485(2) 0.6032(2) 0.23018(7)
O25 O -0.2075(3) 0.7581(2) 0.27837(8)
C81 C -0.2703(3) 0.5959(3) 0.21027(9)
H128 H -0.3116 0.5771 0.2071
C82 C -0.2821(3) 0.5900(3) 0.24905(9)
H129 H -0.3255 0.5647 0.2457
C83 C -0.2658(3) 0.5566(3) 0.26578(9)
H130 H -0.2282 0.5566 0.2622
C84 C -0.2578(4) 0.5933(3) 0.28583(11)
H131 H -0.2188 0.6047 0.2926
C85 C -0.3234(5) 0.4933(4) 0.29116(13)
C86 C -0.2864(9) 0.4709(5) 0.30105(18)
H132 H -0.2929 0.4683 0.3159
H133 H -0.2441 0.4984 0.2981
H134 H -0.2978 0.4312 0.2957
C87 C -0.3877(7) 0.4534(7) 0.2972(3)
H135 H -0.3909 0.4523 0.3122
H136 H -0.4018 0.4129 0.2921
H137 H -0.4121 0.4690 0.2915
C88 C -0.2613(3) 0.6482(3) 0.28009(9)
H138 H -0.2956 0.6472 0.2875
C89 C -0.2043(4) 0.7076(4) 0.28479(12)
H139 H -0.1969 0.7104 0.2997
H140 H -0.1700 0.7080 0.2779
Si5 Si -0.2032(2) 0.81395(16) 0.29265(5)
C90 C -0.2133(12) 0.7980(11) 0.3195(3)
H141 H -0.1991 0.7704 0.3230
H142 H -0.2559 0.7796 0.3229
H143 H -0.1907 0.8351 0.3272
C91 C -0.1199(10) 0.8790(10) 0.2899(4)
H144 H -0.0930 0.8661 0.2954
H145 H -0.1145 0.9141 0.2975
H146 H -0.1108 0.8894 0.2754
C92 C -0.2328(11) 0.8560(11) 0.2804(3)
C93 C -0.3101(10) 0.8122(16) 0.2837(6)
H147 H -0.3195 0.8081 0.2983
H148 H -0.3241 0.7726 0.2778
H149 H -0.3300 0.8313 0.2769
C94 C -0.2320(10) 0.8632(10) 0.2575(3)
H150 H -0.2499 0.8238 0.2510
H151 H -0.1906 0.8877 0.2528
H152 H -0.2548 0.8827 0.2538
C95 C -0.2214(11) 0.9132(9) 0.2930(3)
H153 H -0.2164 0.9071 0.3075
H154 H -0.2555 0.9195 0.2914
H155 H -0.1851 0.9484 0.2880
O26 O 0.04822(16) 0.75621(17) 0.19852(6)
N26 N 0.1497(2) 0.8022(2) 0.19144(7)
H171 H 0.1416 0.8009 0.1783
C102 C 0.2114(2) 0.8293(2) 0.19745(8)
O27 O 0.26268(19) 0.9002(2) 0.26366(7)
N27 N 0.2522(2) 0.8496(2) 0.18187(7)
H172 H 0.2905 0.8661 0.1846
H173 H 0.2401 0.8460 0.1691
C103 C 0.1820(3) 0.8086(3) 0.23017(9)
O28 O 0.2947(2) 0.7814(3) 0.27134(8)
N28 N 0.2290(2) 0.8343(2) 0.21709(7)
C104 C 0.1200(3) 0.7802(2) 0.22619(8)
O29 O 0.3589(2) 0.8758(3) 0.28480(8)
N29 N 0.0859(2) 0.7602(2) 0.24438(7)
C105 C 0.1014(2) 0.7777(2) 0.20527(8)
O30 O 0.3309(3) 1.0153(3) 0.24279(9)
N30 N 0.1855(2) 0.8067(2) 0.25201(7)
C106 C 0.1274(3) 0.7769(3) 0.25897(9)
H174 H 0.1176 0.7689 0.2730
C107 C 0.2403(3) 0.8371(3) 0.26479(10)
H175 H 0.2289 0.8241 0.2793
C108 C 0.2921(3) 0.8250(3) 0.25867(10)
H176 H 0.2906 0.8149 0.2438
C109 C 0.3480(3) 0.8860(4) 0.26380(13)
H177 H 0.3825 0.8951 0.2547
C110 C 0.3441(4) 0.8111(5) 0.28608(12)
C111 C 0.3175(5) 0.7879(6) 0.30801(14)
H178 H 0.2839 0.7947 0.3104
H179 H 0.3485 0.8095 0.3183
H180 H 0.3035 0.7451 0.3090
C112 C 0.3958(4) 0.8032(5) 0.28050(14)
H181 H 0.4275 0.8231 0.2907
H182 H 0.4109 0.8209 0.2670
H183 H 0.3828 0.7605 0.2801
C113 C 0.3292(3) 0.9337(4) 0.26226(11)
H184 H 0.3462 0.9619 0.2741
C114 C 0.3468(4) 0.9683(5) 0.24265(15)
H185 H 0.3904 0.9865 0.2406
H186 H 0.3264 0.9408 0.2311
Si6 Si 0.38077(17) 1.08541(15) 0.24923(7)
C115 C 0.4569(6) 1.1127(6) 0.2386(2)
H187 H 0.4732 1.0884 0.2440
H188 H 0.4830 1.1545 0.2426
H189 H 0.4547 1.1096 0.2237
C116 C 0.3871(8) 1.0922(7) 0.27932(18)
H190 H 0.4039 1.0682 0.2845
H191 H 0.3474 1.0778 0.2852
H192 H 0.4133 1.1341 0.2831
C117 C 0.3509(9) 1.1242(9) 0.2385(3)
C118 C 0.3435(6) 1.1180(6) 0.21467(19)
H193 H 0.3812 1.1254 0.2085
H194 H 0.3332 1.1473 0.2095
H195 H 0.3117 1.0776 0.2112
C119 C 0.2886(6) 1.1134(6) 0.2502(2)
H196 H 0.2952 1.1176 0.2650
H197 H 0.2557 1.0732 0.2471
H198 H 0.2784 1.1431 0.2454
C120 C 0.3925(9) 1.1997(7) 0.2433(3)
H199 H 0.4330 1.2153 0.2380
H200 H 0.3942 1.2067 0.2581
H201 H 0.3738 1.2202 0.2366
O31 O -0.00193(18) 0.85124(19) 0.20168(6)
N31 N 0.0980(2) 0.9036(2) 0.21195(7)
H202 H 0.1088 0.9118 0.1991
C121 C 0.1437(3) 0.9241(3) 0.22700(9)
O32 O 0.0817(4) 0.9271(4) 0.30282(14)
N32 N 0.2009(2) 0.9546(2) 0.22021(8)
H203 H 0.2306 0.9690 0.2290
H204 H 0.2082 0.9598 0.2070
C122 C 0.0731(3) 0.8837(3) 0.25168(9)
O33 O 0.2316(4) 0.9521(4) 0.31085(15)
N33 N 0.1319(2) 0.9159(2) 0.24709(7)
C123 C 0.0243(3) 0.8617(3) 0.23798(9)
O34 O 0.1574(3) 0.8599(3) 0.30631(8)
N34 N -0.0311(2) 0.8295(2) 0.24826(7)
C124 C 0.0369(3) 0.8711(2) 0.21633(8)
N35 N 0.0470(2) 0.8636(2) 0.27093(7)
C125 C -0.0148(3) 0.8316(3) 0.26770(9)
H205 H -0.0427 0.8130 0.2785
C126 C 0.0749(4) 0.8687(4) 0.29178(10)
H206 H 0.0517 0.8319 0.3002
C127 C 0.1416(4) 0.8887(3) 0.29085(12)
H207 H 0.1488 0.8752 0.2774
C128 C 0.1918(8) 0.9552(7) 0.2937(2)
H208 H 0.2134 0.9762 0.2809
C129 C 0.1975(4) 0.9008(4) 0.32079(10)
C130 C 0.2469(7) 0.8793(8) 0.3242(3)
H209 H 0.2281 0.8408 0.3314
H210 H 0.2802 0.9092 0.3324
H211 H 0.2619 0.8751 0.3109
C131 C 0.1768(6) 0.8940(6) 0.34160(15)
H212 H 0.1566 0.8516 0.3454
H213 H 0.1487 0.9089 0.3428
H214 H 0.2109 0.9168 0.3507
C132 C 0.1504(4) 0.9710(5) 0.30114(11)
H215 H 0.1647 0.9893 0.3149
C133 C 0.1491(7) 1.0265(7) 0.2852(2)
H216 H 0.1905 1.0599 0.2835
H217 H 0.1342 1.0089 0.2715
O35 O 0.1141(4) 1.0495(3) 0.29242(12)
Si7 Si 0.1185(3) 1.1111(3) 0.28659(16)
C134 C 0.1229(15) 1.1211(13) 0.2585(3)
H218 H 0.1625 1.1301 0.2537
H219 H 0.1163 1.1541 0.2549
H220 H 0.0922 1.0843 0.2520
C135 C 0.1806(8) 1.1700(8) 0.3012(3)
H221 H 0.1647 1.1850 0.3118
H222 H 0.2064 1.2028 0.2920
H223 H 0.2038 1.1537 0.3075
C136 C 0.0521(11) 1.1129(11) 0.2935(4)
C137 C -0.0077(9) 1.0641(11) 0.2823(4)
H224 H -0.0224 1.0251 0.2889
H225 H 0.0010 1.0613 0.2679
H226 H -0.0382 1.0759 0.2833
C138 C 0.0545(11) 1.1741(9) 0.2895(4)
H227 H 0.0144 1.1688 0.2911
H228 H 0.0688 1.1877 0.2756
H229 H 0.0817 1.2040 0.2994
C139 C 0.0415(14) 1.1005(15) 0.3175(3)
H231 H 0.0253 1.0579 0.3201
H232 H 0.0132 1.1125 0.3223
O36 O 0.10507(17) 0.90406(17) 0.16770(5)
N36 N 0.1339(2) 0.9243(2) 0.13344(7)
H248 H 0.0961 0.9055 0.1299
C146 C 0.1768(3) 0.9478(3) 0.11761(10)
O37 O 0.3940(2) 1.1078(2) 0.14235(8)
N37 N 0.1554(3) 0.9377(3) 0.09821(8)
H249 H 0.1802 0.9514 0.0878
H250 H 0.1167 0.9173 0.0960
C147 C 0.2496(3) 0.9835(3) 0.14165(10)
O38 O 0.4251(2) 1.0329(2) 0.11187(9)
N38 N 0.2358(2) 0.9789(2) 0.12116(8)
C148 C 0.2103(3) 0.9622(3) 0.15831(8)
O39 O 0.4325(2) 1.1130(2) 0.09506(8)
N39 N 0.2427(2) 0.9757(2) 0.17717(8)
C149 C 0.1476(3) 0.9290(3) 0.15447(9)
O40 O 0.3321(3) 1.1793(3) 0.14133(12)
N40 N 0.3080(2) 1.0108(2) 0.15011(8)
C150 C 0.2993(3) 1.0042(3) 0.17079(10)
H251 H 0.3318 1.0190 0.1801
C151 C 0.3686(3) 1.0442(3) 0.14012(11)
H252 H 0.3956 1.0326 0.1472
C152 C 0.3697(3) 1.0320(3) 0.11694(11)
H253 H 0.3333 0.9947 0.1123
C153 C 0.3767(3) 1.0896(3) 0.10624(12)
H254 H 0.3425 1.0799 0.0969
C154 C 0.4472(3) 1.0676(3) 0.09308(11)
C155 C 0.4170(4) 1.0276(4) 0.07421(14)
H255 H 0.4291 0.9973 0.0732
H256 H 0.4293 1.0522 0.0618
H257 H 0.3735 1.0079 0.0757
C156 C 0.5154(3) 1.0958(5) 0.09215(14)
H258 H 0.5257 1.0643 0.0908
H259 H 0.5331 1.1184 0.1047
H260 H 0.5309 1.1228 0.0804
C157 C 0.3809(3) 1.1316(3) 0.12343(12)
H261 H 0.4162 1.1719 0.1206
C158 C 0.3267(4) 1.1394(4) 0.12588(16)
H262 H 0.3193 1.1536 0.1127
H263 H 0.2914 1.0999 0.1288
Si9 Si 0.3600(3) 1.2533(2) 0.14042(7)
C159 C 0.3443(17) 1.2747(17) 0.1126(6)
H264 H 0.3611 1.2599 0.1022
H265 H 0.3631 1.3182 0.1114
H266 H 0.3012 1.2564 0.1105
C160 C 0.4451(7) 1.2944(8) 0.1467(4)
H267 H 0.4662 1.2849 0.1363
H268 H 0.4512 1.2814 0.1601
H269 H 0.4606 1.3377 0.1469
C161 C 0.3255(10) 1.2750(8) 0.1607(3)
C162 C 0.3467(10) 1.3423(7) 0.1619(3)
H270 H 0.3410 1.3561 0.1486
H271 H 0.3891 1.3644 0.1656
H272 H 0.3234 1.3491 0.1723
C163 C 0.3369(12) 1.2570(12) 0.1828(3)
H273 H 0.3208 1.2138 0.1834
H274 H 0.3170 1.2685 0.1931
H275 H 0.3799 1.2777 0.1855
C164 C 0.2542(8) 1.2388(11) 0.1563(4)
H276 H 0.2463 1.2505 0.1429
H277 H 0.2334 1.2482 0.1669
H278 H 0.2398 1.1958 0.1563
O41 O -0.4811(2) 0.1632(2) 0.47323(7)
C171 C -0.4679(3) 0.1302(3) 0.46309(10)
O42 O -0.4098(3) 0.2458(3) 0.44429(10)
N41 N -0.3844(3) 0.2157(3) 0.44413(9)
C172 C -0.4202(3) 0.1511(3) 0.44820(10)
C173 C -0.4030(3) 0.1141(3) 0.43745(11)
H294 H -0.3684 0.1320 0.4291
O43 O -0.3301(3) 0.2379(3) 0.43998(11)
O44 O -0.5930(3) -0.0182(3) 0.47391(10)
C174 C -0.4359(4) 0.0528(4) 0.43908(12)
H295 H -0.4258 0.0283 0.4312
O45 O -0.5511(3) 0.0583(3) 0.49509(10)
C175 C -0.4857(4) 0.0264(3) 0.45286(13)
H296 H -0.5088 -0.0157 0.4541
N42 N -0.5514(3) 0.0340(3) 0.47849(11)
C176 C -0.5007(3) 0.0635(3) 0.46474(11)
O46 O -0.0931(3) 0.6024(2) 0.28899(7)
C177 C -0.1039(3) 0.5969(3) 0.30825(10)
O47 O -0.0290(4) 0.7223(3) 0.29871(9)
N43 N -0.0671(4) 0.7075(4) 0.31220(12)
C178 C -0.0943(4) 0.6475(4) 0.32163(10)
C179 C -0.1103(5) 0.6407(5) 0.34204(15)
H297 H -0.1062 0.6745 0.3493
O48 O -0.0830(5) 0.7416(4) 0.31809(14)
O49 O -0.1470(7) 0.4444(4) 0.32030(16)
C180 C -0.1319(6) 0.5876(5) 0.35238(16)
H298 H -0.1397 0.5852 0.3666
C181 C -0.1421(5) 0.5368(5) 0.34110(13)
H299 H -0.1591 0.4990 0.3476
O50 O -0.1385(6) 0.4838(3) 0.29149(14)
C182 C -0.1270(4) 0.5421(4) 0.32002(12)
N44 N -0.1395(4) 0.4854(4) 0.30956(14)
N45 N -0.267(2) 0.733(2) 0.5000
C183 C -0.3094(14) 0.6906(14) 0.5000
C184 C -0.3611(13) 0.6389(13) 0.5000
N46 N -0.2368(7) 0.2806(8) 0.4053(2)
C185 C -0.2436(10) 0.2319(11) 0.4023(4)
C186 C -0.266(2) 0.1762(14) 0.3977(8)
H303 H -0.2343 0.1661 0.3971
H304 H -0.2860 0.1685 0.3843
H305 H -0.2954 0.1515 0.4081
N47 N -1.0903(18) 0.1160(18) 0.5170(6)
C187 C -1.075(2) 0.085(2) 0.5301(7)
C188 C -1.047(2) 0.063(2) 0.5459(7)
H306 H -1.0693 0.0196 0.5465
H307 H -1.0471 0.0799 0.5593
H308 H -1.0054 0.0766 0.5419
N48 N -0.0303(9) 0.5021(9) 0.3663(3)
C189 C -0.0195(11) 0.5416(12) 0.3776(4)
C190 C -0.0144(14) 0.5772(14) 0.3880(5)
H309 H -0.0446 0.5884 0.3849
H310 H 0.0256 0.6121 0.3864
H311 H -0.0196 0.5628 0.4022
N49 N -0.1352(16) 0.3461(16) 0.3631(5)
C191 C -0.1677(16) 0.3124(16) 0.3504(5)
C192 C -0.1967(12) 0.2887(12) 0.3283(4)
H312 H -0.1675 0.3121 0.3177
H313 H -0.2322 0.2929 0.3268
H314 H -0.2082 0.2465 0.3269
N51 N -0.355(2) 0.845(2) 0.3578(8)
C195 C -0.295(3) 0.875(4) 0.3588(14)
C196 C -0.231(3) 0.925(3) 0.3600(11)
H318 H -0.2044 0.9084 0.3611
H319 H -0.2261 0.9497 0.3720
H320 H -0.2211 0.9496 0.3477
N52 N -0.0722(10) 0.8508(10) 0.5055(3)
C197 C -0.093(2) 0.868(2) 0.4910(6)
C198 C -0.1007(13) 0.8825(13) 0.4713(4)
H321 H -0.1292 0.8969 0.4716
H322 H -0.1160 0.8472 0.4625
H323 H -0.0623 0.9140 0.4660
N53 N -0.298(3) 1.009(3) 0.3902(10)
C199 C -0.349(3) 0.968(4) 0.3953(11)
C200 C -0.384(4) 0.932(4) 0.4108(15)
H324 H -0.4237 0.9032 0.4054
H325 H -0.3884 0.9563 0.4214
H326 H -0.3657 0.9101 0.4167
O51 O -0.4931(19) 0.9094(19) 0.4140(6)
O53 O -0.531(2) 0.976(2) 0.3916(7)
O56 O -0.530(3) 0.911(3) 0.3750(10)
O58 O -0.9587(8) 0.0413(8) 0.5000
O59 O -1.163(2) -0.007(2) 0.4224(7)
O60 O -1.112(3) -0.017(3) 0.4422(10)
O61 O -0.566(2) 1.0000 0.3333
O62 O -0.958(2) -0.027(2) 0.5559(6)
O63 O -0.985(2) 0.027(2) 0.5520(7)
O65 O -0.322(3) 0.096(3) 0.3828(9)
O66 O -0.465(3) 0.052(3) 0.3439(9)
C96? C -0.1606(14) 0.8239(13) 0.3160(3)
H156? H -0.1255 0.8201 0.3128
H157? H -0.1857 0.7934 0.3260
H158? H -0.1475 0.8637 0.3217
C97? C -0.1489(16) 0.8865(10) 0.2761(5)
H159? H -0.1083 0.8926 0.2763
H160? H -0.1486 0.9216 0.2819
H161? H -0.1632 0.8808 0.2620
C98? C -0.2638(13) 0.8187(13) 0.2890(4)
C99? C -0.3284(11) 0.7586(13) 0.2927(6)
H162? H -0.3283 0.7413 0.3061
H163? H -0.3357 0.7295 0.2819
H164? H -0.3600 0.7691 0.2925
C100? C -0.2680(14) 0.8727(12) 0.3009(4)
H165? H -0.2598 0.8718 0.3154
H166? H -0.3081 0.8670 0.2991
H167? H -0.2385 0.9113 0.2951
C101? C -0.2703(17) 0.8331(18) 0.2643(4)
H168? H -0.2353 0.8710 0.2603
H169? H -0.3065 0.8358 0.2626
H170? H -0.2729 0.8008 0.2557
H230? H 0.0796 1.1236 0.3247
Si8? Si 0.0957(6) 1.1001(5) 0.30015(18)
C140? C 0.071(2) 1.094(2) 0.2678(7)
H233? H 0.1068 1.1134 0.2593
H234? H 0.0475 1.1143 0.2657
H235? H 0.0464 1.0521 0.2638
C141? C 0.1806(8) 1.1700(8) 0.3012(3)
H236? H 0.1998 1.1743 0.2879
H237? H 0.2030 1.1628 0.3117
H238? H 0.1799 1.2067 0.3044
C142? C 0.0440(14) 1.0669(12) 0.3224(5)
C143? C 0.025(3) 1.0000 0.3333
H239? H 0.0148 0.9698 0.3226
H240? H -0.0095 0.9878 0.3423
H241? H 0.0588 1.0038 0.3413
C144? C -0.0239(14) 1.047(4) 0.3123(9)
H242? H -0.0318 1.0195 0.3008
H243? H -0.0244 1.0823 0.3075
H244? H -0.0547 1.0265 0.3228
C145? C 0.051(3) 1.1096(18) 0.3399(7)
H245? H 0.0887 1.1229 0.3469
H246? H 0.0177 1.0888 0.3496
H247? H 0.0498 1.1444 0.3343
Si10? Si 0.3172(3) 1.2340(4) 0.13803(19)
C165? C 0.2390(17) 1.203(2) 0.1393(7)
H279? H 0.2197 1.1669 0.1306
H280? H 0.2282 1.2319 0.1345
H281? H 0.2256 1.1916 0.1534
C166? C 0.352(3) 1.279(3) 0.1146(11)
H282? H 0.3946 1.2915 0.1142
H283? H 0.3477 1.3148 0.1148
H284? H 0.3322 1.2553 0.1025
C167? C 0.3722(12) 1.2877(12) 0.1574(4)
C168? C 0.381(2) 1.3508(12) 0.1570(7)
H285? H 0.3437 1.3492 0.1612
H286? H 0.3912 1.3670 0.1431
H287? H 0.4130 1.3765 0.1664
C169? C 0.3614(17) 1.2622(16) 0.1804(3)
H288? H 0.3690 1.2288 0.1811
H289? H 0.3200 1.2485 0.1844
H290? H 0.3886 1.2940 0.1897
C170? C 0.4388(13) 1.296(3) 0.1528(8)
H291? H 0.4361 1.2565 0.1533
H292? H 0.4672 1.3219 0.1632
H293? H 0.4525 1.3134 0.1392
H300? H -0.3806 0.6331 0.4867
H301? H -0.3872 0.6397 0.5107
H302? H -0.3535 0.6060 0.5026
N50? N -1.0671(15) 0.0963(15) 0.4990(5)
C193? C -1.0545(15) 0.0864(15) 0.4822(5)
C194? C -1.061(2) 0.084(2) 0.4625(5)
H315? H -1.0347 0.0712 0.4563
H316? H -1.0497 0.1242 0.4574
H317? H -1.1023 0.0562 0.4589
N54? N -0.269(2) 0.242(2) 0.3333(7)
C201? C -0.3248(19) 0.1922(19) 0.3353(6)
C202? C -0.374(2) 0.150(2) 0.3252(7)
H327? H -0.4034 0.1228 0.3352
H328? H -0.3624 0.1270 0.3162
H329? H -0.3913 0.1691 0.3171
O52? O -0.425(4) 0.938(4) 0.3986(14)
O54? O -0.515(2) 0.921(2) 0.3895(8)
O55? O -0.147(5) 0.853(5) 0.5000
O57? O -0.5067(17) 0.9987(17) 0.3870(5)
O64? O -0.356(2) 0.674(2) 0.5162(8)
loop_
_geom_bond_atom_site_label_1
_geom_bond_atom_site_label_2
_geom_bond_site_symmetry_1
_geom_bond_site_symmetry_2
C1 N1 1_555 1_555
N1 H1 1_555 1_555
O1 C4 1_555 1_555
C2 C3 1_555 1_555
N2 C1 1_555 1_555
H2 N2 1_555 1_555
H3 N2 1_555 1_555
O2 C6 1_555 1_555
C3 C4 1_555 1_555
N3 C1 1_555 1_555
O3 C7 1_555 1_555
C4 N1 1_555 1_555
N4 C3 1_555 1_555
O4 C8 1_555 1_555
C5 N4 1_555 1_555
H4 C5 1_555 1_555
N5 C2 1_555 1_555
O5 C13 1_555 1_555
C6 N5 1_555 1_555
H5 C6 1_555 1_555
C7 C6 1_555 1_555
H6 C7 1_555 1_555
C8 C7 1_555 1_555
H7 C8 1_555 1_555
C9 O3 1_555 1_555
C10 C9 1_555 1_555
H8 C10 1_555 1_555
H9 C10 1_555 1_555
H10 C10 1_555 1_555
C11 C9 1_555 1_555
H11 C11 1_555 1_555
H12 C11 1_555 1_555
H13 C11 1_555 1_555
C12 O2 1_555 1_555
H14 C12 1_555 1_555
C13 C12 1_555 1_555
H15 C13 1_555 1_555
H16 C13 1_555 1_555
Si1 O5 1_555 1_555
C14 Si1 1_555 1_555
H17 C14 1_555 1_555
H18 C14 1_555 1_555
H19 C14 1_555 1_555
C15 Si1 1_555 1_555
H20 C15 1_555 1_555
H21 C15 1_555 1_555
H22 C15 1_555 1_555
C16 Si1 1_555 1_555
C17 C16 1_555 1_555
H23 C17 1_555 1_555
H24 C17 1_555 1_555
H25 C17 1_555 1_555
C18 C16 1_555 1_555
H26 C18 1_555 1_555
H27 C18 1_555 1_555
H28 C18 1_555 1_555
C19 C16 1_555 1_555
H29 C19 1_555 1_555
H30 C19 1_555 1_555
H31 C19 1_555 1_555
C20 N6 1_555 1_555
N6 H32 1_555 1_555
O6 C23 1_555 1_555
C21 C22 1_555 1_555
N7 C20 1_555 1_555
H33 N7 1_555 1_555
H34 N7 1_555 1_555
O7 C25 1_555 1_555
C22 C23 1_555 1_555
N8 C20 1_555 1_555
O8 C27 1_555 1_555
C23 N6 1_555 1_555
N9 C22 1_555 1_555
O9 C26 1_555 1_555
C24 N9 1_555 1_555
H35 C24 1_555 1_555
N10 C21 1_555 1_555
O10 C32 1_555 1_555
C25 N10 1_555 1_555
H36 C25 1_555 1_555
C26 C25 1_555 1_555
H37 C26 1_555 1_555
C27 C26 1_555 1_555
H38 C27 1_555 1_555
C28 O8 1_555 1_555
C29 C28 1_555 1_555
H39 C29 1_555 1_555
H40 C29 1_555 1_555
H41 C29 1_555 1_555
C30 C28 1_555 1_555
H42 C30 1_555 1_555
H43 C30 1_555 1_555
H44 C30 1_555 1_555
C31 O7 1_555 1_555
H45 C31 1_555 1_555
C32 C31 1_555 1_555
H46 C32 1_555 1_555
H47 C32 1_555 1_555
Si2 O10 1_555 1_555
C33 Si2 1_555 1_555
H48 C33 1_555 1_555
H49 C33 1_555 1_555
H50 C33 1_555 1_555
C34 Si2 1_555 1_555
H51 C34 1_555 1_555
H52 C34 1_555 1_555
H53 C34 1_555 1_555
C35 Si2 1_555 1_555
C36 C35 1_555 1_555
H54 C36 1_555 1_555
H55 C36 1_555 1_555
H56 C36 1_555 1_555
C37 C35 1_555 1_555
H57 C37 1_555 1_555
H58 C37 1_555 1_555
H59 C37 1_555 1_555
C38 C35 1_555 1_555
H60 C38 1_555 1_555
H61 C38 1_555 1_555
H62 C38 1_555 1_555
C39 N11 1_555 1_555
N11 H63 1_555 1_555
O11 C42 1_555 1_555
C40 C41 1_555 1_555
N12 C39 1_555 1_555
H64 N12 1_555 1_555
H65 N12 1_555 1_555
O12 C44 1_555 1_555
C41 C42 1_555 1_555
N13 C39 1_555 1_555
O13 C45 1_555 1_555
C42 N11 1_555 1_555
N14 C41 1_555 1_555
O14 C46 1_555 1_555
C43 N14 1_555 1_555
H66 C43 1_555 1_555
N15 C40 1_555 1_555
O15 C51 1_555 1_555
C44 N15 1_555 1_555
H67 C44 1_555 1_555
C45 C44 1_555 1_555
H68 C45 1_555 1_555
C46 C45 1_555 1_555
H69 C46 1_555 1_555
C47 O13 1_555 1_555
C48 C47 1_555 1_555
H70 C48 1_555 1_555
H71 C48 1_555 1_555
H72 C48 1_555 1_555
C49 C47 1_555 1_555
H73 C49 1_555 1_555
H74 C49 1_555 1_555
H75 C49 1_555 1_555
C50 O12 1_555 1_555
H76 C50 1_555 1_555
C51 C50 1_555 1_555
H77 C51 1_555 1_555
H78 C51 1_555 1_555
Si3 O15 1_555 1_555
C52 Si3 1_555 1_555
H79 C52 1_555 1_555
H80 C52 1_555 1_555
H81 C52 1_555 1_555
C53 Si3 1_555 1_555
H82 C53 1_555 1_555
H83 C53 1_555 1_555
H84 C53 1_555 1_555
C54 Si3 1_555 1_555
C55 C54 1_555 1_555
H85 C55 1_555 1_555
H86 C55 1_555 1_555
H87 C55 1_555 1_555
C56 C54 1_555 1_555
H88 C56 1_555 1_555
H89 C56 1_555 1_555
H90 C56 1_555 1_555
C57 C54 1_555 1_555
H91 C57 1_555 1_555
H92 C57 1_555 1_555
H93 C57 1_555 1_555
C58 N16 1_555 1_555
N16 H94 1_555 1_555
O16 C61 1_555 1_555
C59 C60 1_555 1_555
N17 C58 1_555 1_555
H95 N17 1_555 1_555
H96 N17 1_555 1_555
O17 C63 1_555 1_555
C60 C61 1_555 1_555
N18 C58 1_555 1_555
O18 C64 1_555 1_555
C61 N16 1_555 1_555
N19 C60 1_555 1_555
O19 C65 1_555 1_555
C62 N19 1_555 1_555
H97 C62 1_555 1_555
N20 C59 1_555 1_555
O20 C70 1_555 1_555
C63 N20 1_555 1_555
H98 C63 1_555 1_555
C64 C63 1_555 1_555
H99 C64 1_555 1_555
C65 C64 1_555 1_555
H100 C65 1_555 1_555
C66 O18 1_555 1_555
C67 C66 1_555 1_555
H101 C67 1_555 1_555
H102 C67 1_555 1_555
H103 C67 1_555 1_555
C68 C66 1_555 1_555
H104 C68 1_555 1_555
H105 C68 1_555 1_555
H106 C68 1_555 1_555
C69 O17 1_555 1_555
H107 C69 1_555 1_555
C70 C69 1_555 1_555
H108 C70 1_555 1_555
H109 C70 1_555 1_555
Si4 O20 1_555 1_555
C71 Si4 1_555 1_555
H110 C71 1_555 1_555
H111 C71 1_555 1_555
H112 C71 1_555 1_555
C72 Si4 1_555 1_555
H113 C72 1_555 1_555
H114 C72 1_555 1_555
H115 C72 1_555 1_555
C73 Si4 1_555 1_555
C74 C73 1_555 1_555
H116 C74 1_555 1_555
H117 C74 1_555 1_555
H118 C74 1_555 1_555
C75 C73 1_555 1_555
H119 C75 1_555 1_555
H120 C75 1_555 1_555
H121 C75 1_555 1_555
C76 C73 1_555 1_555
H122 C76 1_555 1_555
H123 C76 1_555 1_555
H124 C76 1_555 1_555
O21 C80 1_555 1_555
N21 H125 1_555 1_555
C77 N21 1_555 1_555
O22 C82 1_555 1_555
N22 C77 1_555 1_555
H126 N22 1_555 1_555
H127 N22 1_555 1_555
C78 N23 1_555 1_555
O23 C83 1_555 1_555
N23 C77 1_555 1_555
C79 C78 1_555 1_555
O24 C84 1_555 1_555
N24 C79 1_555 1_555
C80 N21 1_555 1_555
N25 C78 1_555 1_555
O25 C89 1_555 1_555
C81 N24 1_555 1_555
H128 C81 1_555 1_555
C82 N25 1_555 1_555
H129 C82 1_555 1_555
C83 C82 1_555 1_555
H130 C83 1_555 1_555
C84 C83 1_555 1_555
H131 C84 1_555 1_555
C85 O23 1_555 1_555
C86 C85 1_555 1_555
H132 C86 1_555 1_555
H133 C86 1_555 1_555
H134 C86 1_555 1_555
C87 C85 1_555 1_555
H135 C87 1_555 1_555
H136 C87 1_555 1_555
H137 C87 1_555 1_555
C88 O22 1_555 1_555
H138 C88 1_555 1_555
C89 C88 1_555 1_555
H139 C89 1_555 1_555
H140 C89 1_555 1_555
Si5 O25 1_555 1_555
C90 Si5 1_555 1_555
H141 C90 1_555 1_555
H142 C90 1_555 1_555
H143 C90 1_555 1_555
C91 Si5 1_555 1_555
H144 C91 1_555 1_555
H145 C91 1_555 1_555
H146 C91 1_555 1_555
C92 Si5 1_555 1_555
C93 C92 1_555 1_555
H147 C93 1_555 1_555
H148 C93 1_555 1_555
H149 C93 1_555 1_555
C94 C92 1_555 1_555
H150 C94 1_555 1_555
H151 C94 1_555 1_555
H152 C94 1_555 1_555
C95 C92 1_555 1_555
H153 C95 1_555 1_555
H154 C95 1_555 1_555
H155 C95 1_555 1_555
O26 C105 1_555 1_555
N26 H171 1_555 1_555
C102 N26 1_555 1_555
O27 C107 1_555 1_555
N27 C102 1_555 1_555
H172 N27 1_555 1_555
H173 N27 1_555 1_555
C103 N28 1_555 1_555
O28 C108 1_555 1_555
N28 C102 1_555 1_555
C104 C103 1_555 1_555
O29 C109 1_555 1_555
N29 C104 1_555 1_555
C105 N26 1_555 1_555
O30 C114 1_555 1_555
N30 C103 1_555 1_555
C106 N29 1_555 1_555
H174 C106 1_555 1_555
C107 N30 1_555 1_555
H175 C107 1_555 1_555
C108 C107 1_555 1_555
H176 C108 1_555 1_555
C109 C108 1_555 1_555
H177 C109 1_555 1_555
C110 O28 1_555 1_555
C111 C110 1_555 1_555
H178 C111 1_555 1_555
H179 C111 1_555 1_555
H180 C111 1_555 1_555
C112 C110 1_555 1_555
H181 C112 1_555 1_555
H182 C112 1_555 1_555
H183 C112 1_555 1_555
C113 O27 1_555 1_555
H184 C113 1_555 1_555
C114 C113 1_555 1_555
H185 C114 1_555 1_555
H186 C114 1_555 1_555
Si6 O30 1_555 1_555
C115 Si6 1_555 1_555
H187 C115 1_555 1_555
H188 C115 1_555 1_555
H189 C115 1_555 1_555
C116 Si6 1_555 1_555
H190 C116 1_555 1_555
H191 C116 1_555 1_555
H192 C116 1_555 1_555
C117 Si6 1_555 1_555
C118 C117 1_555 1_555
H193 C118 1_555 1_555
H194 C118 1_555 1_555
H195 C118 1_555 1_555
C119 C117 1_555 1_555
H196 C119 1_555 1_555
H197 C119 1_555 1_555
H198 C119 1_555 1_555
C120 C117 1_555 1_555
H199 C120 1_555 1_555
H200 C120 1_555 1_555
H201 C120 1_555 1_555
O31 C124 1_555 1_555
N31 H202 1_555 1_555
C121 N31 1_555 1_555
O32 C126 1_555 1_555
N32 C121 1_555 1_555
H203 N32 1_555 1_555
H204 N32 1_555 1_555
C122 N33 1_555 1_555
O33 C128 1_555 1_555
N33 C121 1_555 1_555
C123 C122 1_555 1_555
O34 C127 1_555 1_555
N34 C123 1_555 1_555
C124 N31 1_555 1_555
N35 C122 1_555 1_555
C125 N34 1_555 1_555
H205 C125 1_555 1_555
C126 N35 1_555 1_555
H206 C126 1_555 1_555
C127 C126 1_555 1_555
H207 C127 1_555 1_555
C128 C127 1_555 1_555
H208 C128 1_555 1_555
C129 O33 1_555 1_555
C130 C129 1_555 1_555
H209 C130 1_555 1_555
H210 C130 1_555 1_555
H211 C130 1_555 1_555
C131 C129 1_555 1_555
H212 C131 1_555 1_555
H213 C131 1_555 1_555
H214 C131 1_555 1_555
C132 O32 1_555 1_555
H215 C132 1_555 1_555
C133 C132 1_555 1_555
H216 C133 1_555 1_555
H217 C133 1_555 1_555
O35 C133 1_555 1_555
Si7 O35 1_555 1_555
C134 Si7 1_555 1_555
H218 C134 1_555 1_555
H219 C134 1_555 1_555
H220 C134 1_555 1_555
C135 Si7 1_555 1_555
H221 C135 1_555 1_555
H222 C135 1_555 1_555
H223 C135 1_555 1_555
C136 Si7 1_555 1_555
C137 C136 1_555 1_555
H224 C137 1_555 1_555
H225 C137 1_555 1_555
H226 C137 1_555 1_555
C138 C136 1_555 1_555
H227 C138 1_555 1_555
H228 C138 1_555 1_555
H229 C138 1_555 1_555
C139 C136 1_555 1_555
H231 C139 1_555 1_555
H232 C139 1_555 1_555
O36 C149 1_555 1_555
N36 H248 1_555 1_555
C146 N36 1_555 1_555
O37 C151 1_555 1_555
N37 C146 1_555 1_555
H249 N37 1_555 1_555
H250 N37 1_555 1_555
C147 N38 1_555 1_555
O38 C152 1_555 1_555
N38 C146 1_555 1_555
C148 C147 1_555 1_555
O39 C153 1_555 1_555
N39 C148 1_555 1_555
C149 N36 1_555 1_555
O40 C158 1_555 1_555
N40 C147 1_555 1_555
C150 N39 1_555 1_555
H251 C150 1_555 1_555
C151 N40 1_555 1_555
H252 C151 1_555 1_555
C152 C151 1_555 1_555
H253 C152 1_555 1_555
C153 C152 1_555 1_555
H254 C153 1_555 1_555
C154 O38 1_555 1_555
C155 C154 1_555 1_555
H255 C155 1_555 1_555
H256 C155 1_555 1_555
H257 C155 1_555 1_555
C156 C154 1_555 1_555
H258 C156 1_555 1_555
H259 C156 1_555 1_555
H260 C156 1_555 1_555
C157 O37 1_555 1_555
H261 C157 1_555 1_555
C158 C157 1_555 1_555
H262 C158 1_555 1_555
H263 C158 1_555 1_555
Si9 O40 1_555 1_555
C159 Si9 1_555 1_555
H264 C159 1_555 1_555
H265 C159 1_555 1_555
H266 C159 1_555 1_555
C160 Si9 1_555 1_555
H267 C160 1_555 1_555
H268 C160 1_555 1_555
H269 C160 1_555 1_555
C161 Si9 1_555 1_555
C162 C161 1_555 1_555
H270 C162 1_555 1_555
H271 C162 1_555 1_555
H272 C162 1_555 1_555
C163 C161 1_555 1_555
H273 C163 1_555 1_555
H274 C163 1_555 1_555
H275 C163 1_555 1_555
C164 C161 1_555 1_555
H276 C164 1_555 1_555
H277 C164 1_555 1_555
H278 C164 1_555 1_555
O41 C171 1_555 1_555
C171 C172 1_555 1_555
O42 N41 1_555 1_555
N41 C172 1_555 1_555
C172 C173 1_555 1_555
C173 H294 1_555 1_555
O43 N41 1_555 1_555
O44 N42 1_555 1_555
C174 C173 1_555 1_555
H295 C174 1_555 1_555
O45 N42 1_555 1_555
C175 C174 1_555 1_555
H296 C175 1_555 1_555
N42 C176 1_555 1_555
C176 C171 1_555 1_555
O46 C177 1_555 1_555
C177 C178 1_555 1_555
O47 N43 1_555 1_555
N43 C178 1_555 1_555
C178 C179 1_555 1_555
C179 H297 1_555 1_555
O48 N43 1_555 1_555
O49 N44 1_555 1_555
C180 C179 1_555 1_555
H298 C180 1_555 1_555
C181 C180 1_555 1_555
H299 C181 1_555 1_555
O50 N44 1_555 1_555
C182 C177 1_555 1_555
N44 C182 1_555 1_555
N45 C183 1_555 1_555
C183 C184 1_555 1_555
N46 C185 1_555 1_555
C185 C186 1_555 1_555
C186 H303 1_555 1_555
H304 C186 1_555 1_555
H305 C186 1_555 1_555
N47 C187 1_555 1_555
C187 C188 1_555 1_555
C188 H306 1_555 1_555
H307 C188 1_555 1_555
H308 C188 1_555 1_555
N48 C189 1_555 1_555
C189 C190 1_555 1_555
C190 H309 1_555 1_555
H310 C190 1_555 1_555
H311 C190 1_555 1_555
N49 C191 1_555 1_555
C191 C192 1_555 1_555
C192 H312 1_555 1_555
H313 C192 1_555 1_555
H314 C192 1_555 1_555
N51 C195 1_555 1_555
C195 C196 1_555 1_555
C196 H318 1_555 1_555
H319 C196 1_555 1_555
H320 C196 1_555 1_555
N52 C197 1_555 1_555
C197 C198 1_555 1_555
C198 H321 1_555 1_555
H322 C198 1_555 1_555
H323 C198 1_555 1_555
N53 C199 1_555 1_555
C199 C200 1_555 1_555
C200 H324 1_555 1_555
H325 C200 1_555 1_555
H326 C200 1_555 1_555
C2 N3 1_555 1_555
O4 C9 1_555 1_555
C5 N5 1_555 1_555
C8 C12 1_555 1_555
C21 N8 1_555 1_555
O9 C28 1_555 1_555
C24 N10 1_555 1_555
C27 C31 1_555 1_555
C40 N13 1_555 1_555
O14 C47 1_555 1_555
C43 N15 1_555 1_555
C46 C50 1_555 1_555
C59 N18 1_555 1_555
O19 C66 1_555 1_555
C62 N20 1_555 1_555
C65 C69 1_555 1_555
C79 C80 1_555 1_555
O24 C85 1_555 1_555
N25 C81 1_555 1_555
C84 C88 1_555 1_555
C104 C105 1_555 1_555
O29 C110 1_555 1_555
N30 C106 1_555 1_555
C109 C113 1_555 1_555
C123 C124 1_555 1_555
O34 C129 1_555 1_555
N35 C125 1_555 1_555
C128 C132 1_555 1_555
C148 C149 1_555 1_555
O39 C154 1_555 1_555
N40 C150 1_555 1_555
C153 C157 1_555 1_555
C175 C176 1_555 1_555
C181 C182 1_555 1_555

#END
