
#######################################################################
#
#                 Cambridge Crystallographic Data Centre
#                                CCDC 
#
#######################################################################
#
# If this CIF has been generated from an entry in the Cambridge 
# Structural Database, then it will include bibliographic, chemical, 
# crystal, experimental, refinement or atomic coordinate data resulting 
# from the CCDC's data processing and validation procedures.
#
#######################################################################

data_OLEBIS
_chemical_formula_moiety         'C28 H22 O1'
_chemical_name_systematic        1-(4-(Triphenylvinyl)phenyl)ethanone
_symmetry_cell_setting           triclinic
_symmetry_space_group_name_H-M   'P -1'
_symmetry_Int_Tables_number      2
_space_group_name_Hall           '-P 1'
loop_
_symmetry_equiv_pos_site_id
_symmetry_equiv_pos_as_xyz
1 x,y,z
2 -x,-y,-z
_cell_length_a                   9.075
_cell_length_b                   11.785
_cell_length_c                   19.801
_cell_angle_alpha                81.99
_cell_angle_beta                 81.95
_cell_angle_gamma                89.78
_cell_volume                     2076.1
_exptl_crystal_description       block
_cell_formula_units_Z            4
loop_
_atom_site_label
_atom_site_type_symbol
_atom_site_fract_x
_atom_site_fract_y
_atom_site_fract_z
O1 O 0.47993(13) 0.18318(9) 1.01860(5)
C1 C 0.85471(14) 0.10338(12) 0.82077(6)
C2 C 0.67023(16) 0.19872(12) 0.92345(7)
C3 C 0.80044(15) 0.18404(12) 0.61656(7)
H1 H 0.8927 0.1982 0.5896
C4 C 0.95463(14) 0.05009(11) 0.76734(7)
C5 C 1.13207(16) -0.11568(12) 0.77789(7)
H2 H 1.0780 -0.1545 0.7514
C6 C 0.84629(16) 0.22153(12) 0.81876(7)
H3 H 0.9016 0.2693 0.7829
C7 C 0.77111(16) 0.03332(12) 0.87523(7)
H4 H 0.7776 -0.0459 0.8778
C8 C 0.67867(16) 0.08030(12) 0.92539(7)
H5 H 0.6217 0.0324 0.9607
C9 C 0.75592(17) 0.26884(12) 0.86991(7)
H6 H 0.7526 0.3480 0.8684
C10 C 1.08640(14) -0.00818(12) 0.79327(6)
C11 C 0.92742(14) 0.05642(11) 0.70144(7)
C12 C 0.78969(15) 0.10883(12) 0.67793(7)
C13 C 1.03561(15) 0.01358(11) 0.64721(7)
C14 C 1.18452(16) 0.04765(12) 0.63617(7)
H7 H 1.2169 0.1009 0.6616
C15 C 0.56745(17) 0.24576(13) 0.97816(7)
C16 C 0.98915(19) -0.06378(14) 0.60701(8)
H8 H 0.8896 -0.0864 0.6129
C17 C 0.67552(17) 0.23842(13) 0.59487(8)
H9 H 0.6851 0.2894 0.5541
C18 C 1.25738(18) -0.16568(14) 0.80155(8)
H10 H 1.2872 -0.2371 0.7903
C19 C 1.28582(18) 0.00322(13) 0.58759(8)
H11 H 1.3854 0.0259 0.5812
C20 C 1.16793(16) 0.04614(14) 0.83479(7)
H12 H 1.1380 0.1171 0.8467
C21 C 1.29320(18) -0.00450(15) 0.85847(8)
H13 H 1.3467 0.0331 0.8857
C22 C 1.33836(18) -0.11001(15) 0.84184(8)
H14 H 1.4224 -0.1436 0.8575
C23 C 1.2386(2) -0.07457(14) 0.54877(8)
H15 H 1.3063 -0.1047 0.5165
C24 C 1.0906(2) -0.10728(15) 0.55818(9)
H16 H 1.0584 -0.1589 0.5316
C25 C 0.64841(17) 0.08545(16) 0.71556(8)
H17 H 0.6376 0.0329 0.7557
C26 C 0.52415(18) 0.13989(19) 0.69361(9)
H18 H 0.4310 0.1243 0.7195
C27 C 0.53731(18) 0.21698(16) 0.63365(9)
H19 H 0.4538 0.2540 0.6196
C28 C 0.5734(2) 0.37167(15) 0.98207(9)
H20 H 0.4930 0.3909 1.0152
H21 H 0.5645 0.4138 0.9377
H22 H 0.6665 0.3910 0.9958
C29 C 0.57546(14) 0.47679(11) 0.25031(7)
C30 C 0.44144(15) 0.37769(12) 0.17247(7)
H23 H 0.5339 0.3644 0.1483
C31 C 0.43371(15) 0.43931(11) 0.22822(7)
C32 C 0.49747(15) 0.38236(12) 0.37033(7)
C33 C 0.74207(14) 0.48860(12) 0.33990(7)
C34 C 0.79963(15) 0.59999(12) 0.32345(7)
H24 H 0.7536 0.6537 0.2947
C35 C 0.68207(14) 0.53892(11) 0.19292(6)
C36 C 0.60414(14) 0.45157(11) 0.31546(7)
C37 C 0.92533(16) 0.63152(13) 0.34969(7)
H25 H 0.9619 0.7064 0.3387
C38 C 0.94156(17) 0.44160(14) 0.40842(8)
H26 H 0.9898 0.3879 0.4363
C39 C 0.64336(16) 0.64325(13) 0.15859(8)
H27 H 0.5534 0.6762 0.1734
C40 C 0.81774(16) 0.49182(13) 0.16988(8)
H28 H 0.8466 0.4230 0.1930
C41 C 0.31420(16) 0.33594(13) 0.15241(8)
H29 H 0.3216 0.2933 0.1160
C42 C 0.43201(16) 0.43311(14) 0.42633(8)
H30 H 0.4553 0.5090 0.4290
C43 C 0.81413(16) 0.41000(13) 0.38339(8)
H31 H 0.7763 0.3356 0.3957
C44 C 0.99656(16) 0.55268(14) 0.39194(7)
H32 H 1.0809 0.5742 0.4091
C45 C 0.73733(17) 0.69893(13) 0.10248(8)
H33 H 0.7107 0.7695 0.0807
C46 C 0.29334(16) 0.46294(13) 0.26133(7)
H34 H 0.2853 0.5059 0.2976
C47 C 0.46507(17) 0.26790(13) 0.36798(8)
H35 H 0.5081 0.2325 0.3310
C48 C 0.16583(16) 0.42313(15) 0.24076(8)
H36 H 0.0729 0.4400 0.2631
O2 O 1.07921(19) 0.65188(14) -0.00777(8)
C49 C 0.87123(17) 0.65006(13) 0.07846(7)
C50 C 0.91012(18) 0.54587(14) 0.11319(8)
H37 H 0.9993 0.5122 0.0981
C51 C 0.17577(16) 0.35820(14) 0.18705(8)
H38 H 0.0899 0.3297 0.1743
C52 C 0.36830(18) 0.20644(15) 0.42093(10)
H39 H 0.3490 0.1293 0.4198
C53 C 0.33268(18) 0.37232(17) 0.47810(8)
H40 H 0.2877 0.4077 0.5147
C54 C 0.30071(17) 0.25850(17) 0.47506(9)
H41 H 0.2337 0.2173 0.5095
C55 C 0.9736(2) 0.70490(17) 0.01679(8)
C56 C 0.9467(3) 0.8259(2) -0.01237(12)
H42 H 0.9659 0.8762 0.0197
H43 H 0.8451 0.8332 -0.0206
H44 H 1.0118 0.8460 -0.0549
loop_
_geom_bond_atom_site_label_1
_geom_bond_atom_site_label_2
_geom_bond_site_symmetry_1
_geom_bond_site_symmetry_2
O1 C15 1_555 1_555
C1 C4 1_555 1_555
C2 C8 1_555 1_555
C3 H1 1_555 1_555
C4 C10 1_555 1_555
C5 H2 1_555 1_555
C6 C1 1_555 1_555
H3 C6 1_555 1_555
C7 C1 1_555 1_555
H4 C7 1_555 1_555
C8 C7 1_555 1_555
H5 C8 1_555 1_555
C9 C2 1_555 1_555
H6 C9 1_555 1_555
C10 C5 1_555 1_555
C11 C4 1_555 1_555
C12 C3 1_555 1_555
C13 C11 1_555 1_555
C14 C13 1_555 1_555
H7 C14 1_555 1_555
C15 C2 1_555 1_555
C16 C13 1_555 1_555
H8 C16 1_555 1_555
C17 C3 1_555 1_555
H9 C17 1_555 1_555
C18 C5 1_555 1_555
H10 C18 1_555 1_555
C19 C14 1_555 1_555
H11 C19 1_555 1_555
C20 C10 1_555 1_555
H12 C20 1_555 1_555
C21 C20 1_555 1_555
H13 C21 1_555 1_555
C22 C18 1_555 1_555
H14 C22 1_555 1_555
C23 C19 1_555 1_555
H15 C23 1_555 1_555
C24 C16 1_555 1_555
H16 C24 1_555 1_555
C25 C12 1_555 1_555
H17 C25 1_555 1_555
C26 C25 1_555 1_555
H18 C26 1_555 1_555
C27 C17 1_555 1_555
H19 C27 1_555 1_555
C28 C15 1_555 1_555
H20 C28 1_555 1_555
H21 C28 1_555 1_555
H22 C28 1_555 1_555
C29 C31 1_555 1_555
C30 H23 1_555 1_555
C31 C30 1_555 1_555
C32 C36 1_555 1_555
C33 C34 1_555 1_555
C34 H24 1_555 1_555
C35 C29 1_555 1_555
C36 C29 1_555 1_555
C37 C34 1_555 1_555
H25 C37 1_555 1_555
C38 H26 1_555 1_555
C39 C35 1_555 1_555
H27 C39 1_555 1_555
C40 C35 1_555 1_555
H28 C40 1_555 1_555
C41 C30 1_555 1_555
H29 C41 1_555 1_555
C42 C32 1_555 1_555
H30 C42 1_555 1_555
C43 C33 1_555 1_555
H31 C43 1_555 1_555
C44 C37 1_555 1_555
H32 C44 1_555 1_555
C45 C39 1_555 1_555
H33 C45 1_555 1_555
C46 C31 1_555 1_555
H34 C46 1_555 1_555
C47 C32 1_555 1_555
H35 C47 1_555 1_555
C48 C46 1_555 1_555
H36 C48 1_555 1_555
O2 C55 1_555 1_555
C49 C45 1_555 1_555
C50 C40 1_555 1_555
H37 C50 1_555 1_555
C51 C41 1_555 1_555
H38 C51 1_555 1_555
C52 C47 1_555 1_555
H39 C52 1_555 1_555
C53 C42 1_555 1_555
H40 C53 1_555 1_555
C54 C52 1_555 1_555
H41 C54 1_555 1_555
C55 C49 1_555 1_555
C56 C55 1_555 1_555
H42 C56 1_555 1_555
H43 C56 1_555 1_555
H44 C56 1_555 1_555
C6 C9 1_555 1_555
C11 C12 1_555 1_555
C21 C22 1_555 1_555
C23 C24 1_555 1_555
C26 C27 1_555 1_555
C33 C36 1_555 1_555
C38 C43 1_555 1_555
C38 C44 1_555 1_555
C48 C51 1_555 1_555
C49 C50 1_555 1_555
C53 C54 1_555 1_555

#END
