
#######################################################################
#
#                 Cambridge Crystallographic Data Centre
#                                CCDC 
#
#######################################################################
#
# If this CIF has been generated from an entry in the Cambridge 
# Structural Database, then it will include bibliographic, chemical, 
# crystal, experimental, refinement or atomic coordinate data resulting 
# from the CCDC's data processing and validation procedures.
#
#######################################################################

data_OLEBUE
_chemical_formula_moiety         'C27 H18 Br1 N3 O2'
_chemical_name_systematic        
5-Benzoyl-2-(5-bromo-1H-indol-3-yl)-4-(4-methoxyphenyl)-1H-pyrrole-3-carbonitrile
_symmetry_cell_setting           monoclinic
_symmetry_space_group_name_H-M   'P 21/n'
_symmetry_Int_Tables_number      14
_space_group_name_Hall           '-P 2yn'
loop_
_symmetry_equiv_pos_site_id
_symmetry_equiv_pos_as_xyz
1 x,y,z
2 1/2-x,1/2+y,1/2-z
3 -x,-y,-z
4 1/2+x,1/2-y,1/2+z
_cell_length_a                   14.6503(6)
_cell_length_b                   9.6974(3)
_cell_length_c                   15.2946(7)
_cell_angle_alpha                90
_cell_angle_beta                 93.284(2)
_cell_angle_gamma                90
_cell_volume                     2169.33
_exptl_crystal_colour            yellow
_exptl_crystal_description       block
_cell_formula_units_Z            4
_exptl_crystal_recrystallization_method ethanol
loop_
_atom_site_label
_atom_site_type_symbol
_atom_site_fract_x
_atom_site_fract_y
_atom_site_fract_z
Br1 Br 0.30324(3) -0.25826(4) 0.72049(3)
O1 O 1.10059(16) 0.3663(2) 0.55850(18)
N1 N 0.3744(2) 0.2552(2) 0.5243(2)
H1 H 0.3391 0.3156 0.4989
N2 N 0.63376(17) 0.0077(2) 0.62556(17)
H2 H 0.6021 -0.0643 0.6364
O2 O 0.73519(18) -0.2198(2) 0.66235(19)
C1 C 0.4113(2) -0.0522(3) 0.6453(2)
H3 H 0.4609 -0.1028 0.6683
C2 C 0.8450(2) 0.2048(3) 0.6045(2)
C3 C 0.4242(2) 0.0693(3) 0.5988(2)
C4 C 0.3459(2) 0.1408(3) 0.5665(2)
C5 C 0.9914(2) 0.1932(3) 0.5422(2)
H4 H 1.0320 0.1457 0.5087
C6 C 0.5976(2) 0.1268(3) 0.5936(2)
C7 C 0.9077(2) 0.1372(3) 0.5559(2)
H5 H 0.8927 0.0515 0.5318
C8 C 0.8702(2) -0.0997(3) 0.7049(2)
N3 N 0.6659(2) 0.4599(3) 0.5252(3)
C9 C 0.2471(2) -0.0223(4) 0.6240(2)
H6 H 0.1886 -0.0547 0.6331
C10 C 0.6715(2) 0.2150(3) 0.5857(2)
C11 C 0.7756(2) -0.1084(3) 0.6680(2)
C12 C 0.7530(2) 0.1458(3) 0.6133(2)
C13 C 0.9552(2) 0.3886(3) 0.6267(2)
H7 H 0.9710 0.4735 0.6515
C14 C 0.8703(2) 0.3318(3) 0.6391(2)
H8 H 0.8292 0.3803 0.6716
C15 C 0.7273(2) 0.0155(3) 0.6386(2)
C16 C 0.3234(2) -0.0953(3) 0.6562(2)
C17 C 1.0161(2) 0.3191(3) 0.5777(2)
C18 C 0.2583(2) 0.0967(4) 0.5790(2)
H9 H 0.2080 0.1472 0.5572
C19 C 0.9322(3) -0.2039(4) 0.6870(2)
H10 H 0.9132 -0.2779 0.6518
C20 C 0.8999(2) 0.0074(3) 0.7592(2)
H11 H 0.8597 0.0776 0.7724
C21 C 0.4662(3) 0.2596(3) 0.5283(2)
H12 H 0.5008 0.3284 0.5038
C22 C 0.5016(2) 0.1482(3) 0.5737(2)
C23 C 0.9885(3) 0.0102(4) 0.7935(3)
H13 H 1.0076 0.0816 0.8309
C24 C 1.0489(3) -0.0906(5) 0.7736(3)
H14 H 1.1093 -0.0861 0.7958
C25 C 0.6677(2) 0.3509(3) 0.5522(2)
C26 C 1.1307(3) 0.4935(4) 0.5947(3)
H15 H 1.1907 0.5138 0.5760
H16 H 1.1326 0.4879 0.6574
H17 H 1.0892 0.5652 0.5752
C27 C 1.0206(3) -0.1980(4) 0.7209(3)
H18 H 1.0616 -0.2673 0.7080
loop_
_geom_bond_atom_site_label_1
_geom_bond_atom_site_label_2
_geom_bond_site_symmetry_1
_geom_bond_site_symmetry_2
Br1 C16 1_555 1_555
O1 C17 1_555 1_555
N1 H1 1_555 1_555
N2 H2 1_555 1_555
O2 C11 1_555 1_555
C1 H3 1_555 1_555
C2 C7 1_555 1_555
C3 C1 1_555 1_555
C4 N1 1_555 1_555
C5 H4 1_555 1_555
C6 N2 1_555 1_555
C7 C5 1_555 1_555
H5 C7 1_555 1_555
C8 C11 1_555 1_555
N3 C25 1_555 1_555
C9 H6 1_555 1_555
C10 C6 1_555 1_555
C11 C15 1_555 1_555
C12 C2 1_555 1_555
C13 H7 1_555 1_555
C14 C2 1_555 1_555
H8 C14 1_555 1_555
C15 N2 1_555 1_555
C16 C1 1_555 1_555
C17 C5 1_555 1_555
C18 C4 1_555 1_555
H9 C18 1_555 1_555
C19 C8 1_555 1_555
H10 C19 1_555 1_555
C20 C8 1_555 1_555
H11 C20 1_555 1_555
C21 N1 1_555 1_555
H12 C21 1_555 1_555
C22 C3 1_555 1_555
C23 C20 1_555 1_555
H13 C23 1_555 1_555
C24 C23 1_555 1_555
H14 C24 1_555 1_555
C25 C10 1_555 1_555
C26 O1 1_555 1_555
H15 C26 1_555 1_555
H16 C26 1_555 1_555
H17 C26 1_555 1_555
C27 C19 1_555 1_555
H18 C27 1_555 1_555
C3 C4 1_555 1_555
C6 C22 1_555 1_555
C9 C16 1_555 1_555
C9 C18 1_555 1_555
C10 C12 1_555 1_555
C12 C15 1_555 1_555
C13 C14 1_555 1_555
C13 C17 1_555 1_555
C21 C22 1_555 1_555
C24 C27 1_555 1_555

#END
