
#######################################################################
#
#                 Cambridge Crystallographic Data Centre
#                                CCDC 
#
#######################################################################
#
# If this CIF has been generated from an entry in the Cambridge 
# Structural Database, then it will include bibliographic, chemical, 
# crystal, experimental, refinement or atomic coordinate data resulting 
# from the CCDC's data processing and validation procedures.
#
#######################################################################

data_OLEBAK
_chemical_formula_moiety         'C27 H20 O1'
_chemical_name_systematic        4-(Triphenylvinyl)benzaldehyde
_symmetry_cell_setting           monoclinic
_symmetry_space_group_name_H-M   'P 21'
_symmetry_Int_Tables_number      4
_space_group_name_Hall           'P 2yb'
loop_
_symmetry_equiv_pos_site_id
_symmetry_equiv_pos_as_xyz
1 x,y,z
2 -x,1/2+y,-z
_cell_length_a                   9.9253(7)
_cell_length_b                   9.3614(5)
_cell_length_c                   22.1685(16)
_cell_angle_alpha                90
_cell_angle_beta                 99.015(7)
_cell_angle_gamma                90
_cell_volume                     2034.34
_exptl_crystal_colour            colorless
_exptl_crystal_description       block
_cell_formula_units_Z            4
loop_
_atom_site_label
_atom_site_type_symbol
_atom_site_fract_x
_atom_site_fract_y
_atom_site_fract_z
C1 C 0.3744(7) 0.5923(9) 0.8630(4)
H1 H 0.3711 0.5211 0.8919
C2 C 0.6309(6) 0.5858(8) 0.8892(3)
C3 C 0.7295(7) 0.5416(8) 0.7929(4)
C4 C 0.5009(7) 0.6448(8) 0.8530(3)
C5 C 0.6361(6) 0.5762(9) 0.9554(3)
C6 C 0.9431(9) 0.3926(9) 0.8849(4)
H2 H 0.9030 0.3274 0.8559
C7 C 0.5013(9) 0.7536(9) 0.8112(4)
H3 H 0.5838 0.7929 0.8045
C8 C 1.0679(8) 0.3645(11) 0.9185(4)
H4 H 1.1103 0.2780 0.9129
C9 C 0.9413(8) 0.6178(9) 0.9368(3)
H5 H 0.8999 0.7045 0.9430
C10 C 0.7374(7) 0.5505(8) 0.8598(3)
C11 C 0.8761(7) 0.5202(8) 0.8946(3)
C12 C 0.8314(8) 0.5983(10) 0.7639(4)
H6 H 0.9076 0.6384 0.7877
C13 C 0.6892(8) 0.4532(9) 0.9875(4)
H7 H 0.7217 0.3768 0.9672
C14 C 0.2580(9) 0.6426(11) 0.8315(4)
H8 H 0.1755 0.6051 0.8390
C15 C 1.1318(9) 0.4594(12) 0.9598(4)
H9 H 1.2178 0.4389 0.9813
C16 C 0.6125(10) 0.4718(11) 0.6939(4)
H10 H 0.5376 0.4291 0.6702
C17 C 0.6211(9) 0.4758(10) 0.7558(4)
H11 H 0.5526 0.4334 0.7737
C18 C 0.5870(8) 0.6867(9) 0.9885(4)
H12 H 0.5502 0.7685 0.9686
C19 C 0.6434(9) 0.5597(13) 1.0843(5)
H13 H 0.6458 0.5543 1.1264
C20 C 0.8249(9) 0.5978(10) 0.7024(4)
H14 H 0.8932 0.6415 0.6846
C21 C 0.7157(11) 0.5316(10) 0.6658(4)
C22 C 0.6915(9) 0.4498(12) 1.0508(5)
H15 H 0.7275 0.3690 1.0719
C23 C 0.2573(9) 0.7474(13) 0.7888(4)
H16 H 0.1755 0.7793 0.7667
C24 C 1.0685(8) 0.5852(12) 0.9694(4)
H17 H 1.1112 0.6496 0.9982
C25 C 0.5935(10) 0.6734(13) 1.0516(4)
H18 H 0.5608 0.7490 1.0725
C26 C 0.3795(11) 0.8052(11) 0.7788(4)
H19 H 0.3806 0.8785 0.7506
O1 O 0.7865(11) 0.5789(17) 0.5720(4)
C27 C 0.7011(15) 0.5273(14) 0.6018(6)
H20 H 0.6238 0.4837 0.5805
C28 C 0.4376(9) 0.3943(10) 0.3592(5)
H21 H 0.4007 0.3305 0.3290
C29 C 0.1295(8) 0.5798(9) 0.4251(4)
C30 C 0.3657(8) 0.5194(9) 0.3677(4)
C31 C 0.2205(9) 0.5417(10) 0.2634(4)
C32 C 0.5538(9) 0.5849(14) 0.4465(5)
H22 H 0.5927 0.6498 0.4760
C33 C 0.1243(7) 0.5883(9) 0.3591(4)
C34 C -0.0057(8) 0.6461(9) 0.3257(4)
C35 C 0.2290(7) 0.5498(9) 0.3299(4)
C36 C 0.3280(9) 0.5983(10) 0.2346(4)
H23 H 0.4034 0.6409 0.2579
C37 C -0.0063(9) 0.7566(9) 0.2841(4)
H24 H 0.0759 0.7941 0.2761
C38 C 0.4304(8) 0.6131(12) 0.4114(4)
H25 H 0.3877 0.6994 0.4172
C39 C 0.6196(11) 0.4581(17) 0.4374(5)
H26 H 0.7038 0.4378 0.4607
C40 C 0.1158(10) 0.4730(11) 0.2273(5)
H27 H 0.0478 0.4282 0.2448
C41 C 0.1700(9) 0.4557(11) 0.4584(4)
H28 H 0.1923 0.3753 0.4374
C42 C 0.0926(9) 0.6942(11) 0.4593(4)
H29 H 0.0626 0.7781 0.4391
C43 C 0.1419(10) 0.5648(18) 0.5523(4)
C44 C 0.5615(11) 0.3625(13) 0.3943(6)
H30 H 0.6051 0.2768 0.3887
C45 C -0.1314(8) 0.5955(11) 0.3389(5)
H31 H -0.1335 0.5254 0.3684
C46 C 0.0985(9) 0.6886(12) 0.5196(5)
H32 H 0.0733 0.7682 0.5403
C47 C -0.1234(11) 0.8096(12) 0.2555(5)
H33 H -0.1220 0.8842 0.2278
C48 C -0.2509(9) 0.6500(13) 0.3079(5)
H34 H -0.3342 0.6146 0.3155
C49 C 0.2189(19) 0.5305(18) 0.1357(9)
H35 H 0.2177 0.5281 0.0937
C50 C -0.2476(12) 0.7557(14) 0.2661(5)
H36 H -0.3285 0.7918 0.2447
C51 C 0.3198(17) 0.5896(16) 0.1730(6)
H37 H 0.3911 0.6286 0.1558
C52 C 0.1779(10) 0.4479(13) 0.5193(5)
H38 H 0.2076 0.3640 0.5396
C53 C 0.1115(19) 0.4705(17) 0.1634(7)
H39 H 0.0373 0.4289 0.1389
O2 O 0.1273(13) 0.663(2) 0.6482(4)
C54 C 0.1489(14) 0.552(2) 0.6133(6)
H40 H 0.1691 0.4629 0.6314
loop_
_geom_bond_atom_site_label_1
_geom_bond_atom_site_label_2
_geom_bond_site_symmetry_1
_geom_bond_site_symmetry_2
C1 H1 1_555 1_555
C2 C4 1_555 1_555
C3 C10 1_555 1_555
C4 C1 1_555 1_555
C5 C2 1_555 1_555
C6 H2 1_555 1_555
C7 C4 1_555 1_555
H3 C7 1_555 1_555
C8 C6 1_555 1_555
H4 C8 1_555 1_555
C9 H5 1_555 1_555
C10 C2 1_555 1_555
C11 C6 1_555 1_555
C12 C3 1_555 1_555
H6 C12 1_555 1_555
C13 C5 1_555 1_555
H7 C13 1_555 1_555
C14 C1 1_555 1_555
H8 C14 1_555 1_555
C15 C8 1_555 1_555
H9 C15 1_555 1_555
C16 H10 1_555 1_555
C17 C3 1_555 1_555
H11 C17 1_555 1_555
C18 C5 1_555 1_555
H12 C18 1_555 1_555
C19 H13 1_555 1_555
C20 C12 1_555 1_555
H14 C20 1_555 1_555
C21 C16 1_555 1_555
C22 C13 1_555 1_555
H15 C22 1_555 1_555
C23 C14 1_555 1_555
H16 C23 1_555 1_555
C24 C9 1_555 1_555
H17 C24 1_555 1_555
C25 C18 1_555 1_555
H18 C25 1_555 1_555
C26 C7 1_555 1_555
H19 C26 1_555 1_555
O1 C27 1_555 1_555
C27 C21 1_555 1_555
H20 C27 1_555 1_555
C28 H21 1_555 1_555
C29 C33 1_555 1_555
C30 C28 1_555 1_555
C31 C35 1_555 1_555
C32 H22 1_555 1_555
C33 C34 1_555 1_555
C34 C37 1_555 1_555
C35 C30 1_555 1_555
C36 C31 1_555 1_555
H23 C36 1_555 1_555
C37 H24 1_555 1_555
C38 C30 1_555 1_555
H25 C38 1_555 1_555
C39 C32 1_555 1_555
H26 C39 1_555 1_555
C40 C31 1_555 1_555
H27 C40 1_555 1_555
C41 C29 1_555 1_555
H28 C41 1_555 1_555
C42 C29 1_555 1_555
H29 C42 1_555 1_555
C43 C46 1_555 1_555
C44 C28 1_555 1_555
H30 C44 1_555 1_555
C45 C34 1_555 1_555
H31 C45 1_555 1_555
C46 C42 1_555 1_555
H32 C46 1_555 1_555
C47 C37 1_555 1_555
H33 C47 1_555 1_555
C48 C45 1_555 1_555
H34 C48 1_555 1_555
C49 H35 1_555 1_555
C50 C47 1_555 1_555
H36 C50 1_555 1_555
C51 C36 1_555 1_555
H37 C51 1_555 1_555
C52 C41 1_555 1_555
H38 C52 1_555 1_555
C53 C40 1_555 1_555
H39 C53 1_555 1_555
O2 C54 1_555 1_555
C54 C43 1_555 1_555
H40 C54 1_555 1_555
C9 C11 1_555 1_555
C10 C11 1_555 1_555
C15 C24 1_555 1_555
C16 C17 1_555 1_555
C19 C22 1_555 1_555
C19 C25 1_555 1_555
C20 C21 1_555 1_555
C23 C26 1_555 1_555
C32 C38 1_555 1_555
C33 C35 1_555 1_555
C39 C44 1_555 1_555
C43 C52 1_555 1_555
C48 C50 1_555 1_555
C49 C51 1_555 1_555
C49 C53 1_555 1_555

#END
