
#######################################################################
#
#                 Cambridge Crystallographic Data Centre
#                                CCDC 
#
#######################################################################
#
# If this CIF has been generated from an entry in the Cambridge 
# Structural Database, then it will include bibliographic, chemical, 
# crystal, experimental, refinement or atomic coordinate data resulting 
# from the CCDC's data processing and validation procedures.
#
#######################################################################

data_OLEBUC
_chemical_formula_moiety         
'2(Ba1 2+),16(C19 H31 N5 O5 Si1),4(C6 H3 N2 O5 1-),7(C2 H3 N1),0.25(C1 H1 Cl3),6(H2 O1)'
_chemical_name_systematic        
"Di-barium hexadecakis(5'-((t-butyl)dimethylsilyl)-2',3'-O-isopropylideneguanosine) tetrakis(2,5-dinitrophenolato) acetonitrile chloroform solvate hexahydrate"
_symmetry_cell_setting           orthorhombic
_symmetry_space_group_name_H-M   'P 21 21 2'
_symmetry_Int_Tables_number      18
_space_group_name_Hall           'P 2 2ab'
loop_
_symmetry_equiv_pos_site_id
_symmetry_equiv_pos_as_xyz
1 x,y,z
2 -x,-y,z
3 1/2+x,1/2-y,-z
4 1/2-x,1/2+y,-z
_cell_length_a                   53.2556(18)
_cell_length_b                   66.114(2)
_cell_length_c                   27.3980(9)
_cell_angle_alpha                90
_cell_angle_beta                 90
_cell_angle_gamma                90
_cell_volume                     96466.7
_exptl_crystal_colour            red
_exptl_crystal_description       block
_chemical_melting_point          261-263deg.C(dec.)
_cell_formula_units_Z            8
loop_
_atom_site_label
_atom_site_type_symbol
_atom_site_fract_x
_atom_site_fract_y
_atom_site_fract_z
Ba1 Ba 0.952230(11) 0.221498(10) 0.48040(2)
O1 O 0.99407(17) 0.24869(14) 0.5388(3)
Si1 Si 0.86443(7) 0.30996(6) 0.24118(12)
C1 C 0.95293(17) 0.29316(14) 0.4000(3)
N1 N 0.95521(13) 0.27763(11) 0.4333(2)
H1 H 0.9672 0.2687 0.4285
O2 O 0.94307(11) 0.26064(9) 0.5015(2)
C2 C 0.92096(16) 0.30532(12) 0.4419(3)
N2 N 0.96924(15) 0.29324(12) 0.3620(3)
H2 H 0.9681 0.3027 0.3394
H3 H 0.9809 0.2839 0.3599
O3 O 0.87690(12) 0.32910(10) 0.3896(2)
C3 C 0.92187(16) 0.29124(13) 0.4774(3)
N3 N 0.93572(13) 0.30751(10) 0.4018(3)
O4 O 0.91349(16) 0.36742(9) 0.4397(3)
C4 C 0.94003(15) 0.27521(13) 0.4733(3)
N4 N 0.90327(14) 0.29400(11) 0.5131(3)
O5 O 0.88663(16) 0.37368(11) 0.3779(3)
C5 C 0.89180(18) 0.31008(15) 0.4978(3)
H4 H 0.8778 0.3157 0.5144
N5 N 0.90143(13) 0.31831(11) 0.4560(3)
O6 O 0.87924(15) 0.31103(10) 0.2957(2)
C6 C 0.89082(18) 0.33533(14) 0.4299(3)
H5 H 0.8796 0.3430 0.4525
C7 C 0.9115(2) 0.34982(15) 0.4105(4)
H6 H 0.9280 0.3429 0.4056
C8 C 0.9003(2) 0.35706(14) 0.3643(4)
H7 H 0.9134 0.3605 0.3395
C9 C 0.8989(3) 0.38346(17) 0.4167(5)
C10 C 0.8800(3) 0.3910(3) 0.4540(6)
H8 H 0.8888 0.3978 0.4807
H9 H 0.8705 0.3795 0.4670
H10 H 0.8685 0.4005 0.4383
C11 C 0.9171(3) 0.39925(18) 0.4022(5)
H11 H 0.9249 0.4051 0.4314
H12 H 0.9084 0.4099 0.3840
H13 H 0.9301 0.3932 0.3814
C12 C 0.8834(2) 0.34014(16) 0.3470(4)
H14 H 0.8679 0.3460 0.3323
C13 C 0.8957(2) 0.32506(17) 0.3097(4)
H15 H 0.9017 0.3326 0.2808
H16 H 0.9104 0.3184 0.3250
C14 C 0.8653(3) 0.3361(2) 0.2134(5)
H17 H 0.8573 0.3457 0.2356
H18 H 0.8563 0.3360 0.1822
H19 H 0.8828 0.3401 0.2080
C15 C 0.8787(3) 0.2897(2) 0.2035(5)
H20 H 0.8962 0.2932 0.1961
H21 H 0.8693 0.2883 0.1730
H22 H 0.8782 0.2769 0.2215
C16 C 0.8321(3) 0.3033(2) 0.2538(5)
C17 C 0.8206(3) 0.3180(4) 0.2946(10)
H23 H 0.8216 0.3321 0.2833
H24 H 0.8303 0.3166 0.3249
H25 H 0.8031 0.3144 0.3006
C18 C 0.8160(3) 0.3035(3) 0.2073(7)
H26 H 0.8158 0.3172 0.1937
H27 H 0.7989 0.2993 0.2153
H28 H 0.8232 0.2942 0.1833
C19 C 0.8291(3) 0.2821(2) 0.2751(6)
H29 H 0.8385 0.2811 0.3057
H30 H 0.8355 0.2721 0.2519
H31 H 0.8113 0.2794 0.2815
C20 C 0.90156(16) 0.25602(13) 0.6206(3)
N6 N 0.92097(13) 0.24856(10) 0.5940(2)
H32 H 0.9246 0.2547 0.5664
O7 O 0.95277(10) 0.22520(9) 0.57935(19)
C21 C 0.90720(17) 0.23176(13) 0.6759(3)
N7 N 0.89032(13) 0.27230(11) 0.6017(3)
H33 H 0.8774 0.2778 0.6166
H34 H 0.8959 0.2776 0.5742
O8 O 0.86109(11) 0.21764(10) 0.7331(2)
C22 C 0.92832(15) 0.22312(13) 0.6519(3)
N8 N 0.89336(14) 0.24778(12) 0.6625(3)
O9 O 0.89398(17) 0.24637(17) 0.8196(3)
C23 C 0.93565(16) 0.23178(13) 0.6073(3)
N9 N 0.93748(12) 0.20718(11) 0.6783(2)
O10 O 0.85202(16) 0.24190(15) 0.8323(3)
C24 C 0.92259(16) 0.20578(14) 0.7156(3)
H35 H 0.9243 0.1957 0.7401
N10 N 0.90386(12) 0.22047(12) 0.7161(2)
O11 O 0.81888(12) 0.22610(14) 0.6745(3)
C25 C 0.88477(18) 0.22309(18) 0.7539(4)
H36 H 0.8885 0.2138 0.7817
C26 C 0.8827(2) 0.24467(18) 0.7734(3)
H37 H 0.8896 0.2548 0.7498
C27 C 0.8546(2) 0.2475(2) 0.7814(4)
H38 H 0.8489 0.2616 0.7748
C28 C 0.8756(2) 0.2487(2) 0.8558(4)
C29 C 0.8828(4) 0.2321(3) 0.8966(6)
H39 H 0.8704 0.2325 0.9230
H40 H 0.8995 0.2352 0.9099
H41 H 0.8831 0.2187 0.8817
C30 C 0.8749(3) 0.2694(2) 0.8753(6)
H42 H 0.8616 0.2704 0.9000
H43 H 0.8714 0.2789 0.8487
H44 H 0.8911 0.2727 0.8901
C31 C 0.8422(2) 0.23200(17) 0.7479(4)
H45 H 0.8291 0.2246 0.7669
C32 C 0.8301(2) 0.24100(19) 0.7038(4)
H46 H 0.8171 0.2508 0.7143
H47 H 0.8428 0.2484 0.6845
Si2 Si 0.78823(8) 0.22443(10) 0.6701(3)
C33 C 0.7728(4) 0.2261(4) 0.7359(7)
H48 H 0.7787 0.2384 0.7524
H49 H 0.7776 0.2142 0.7550
H50 H 0.7545 0.2266 0.7327
C34 C 0.7759(4) 0.2478(3) 0.6408(7)
H51 H 0.7823 0.2597 0.6581
H52 H 0.7575 0.2477 0.6421
H53 H 0.7814 0.2483 0.6066
C35 C 0.7794(5) 0.2030(3) 0.6427(9)
C36 C 0.7899(6) 0.1834(4) 0.6659(12)
H54 H 0.7845 0.1826 0.7001
H55 H 0.8083 0.1835 0.6644
H56 H 0.7835 0.1716 0.6480
C37 C 0.7490(4) 0.1990(4) 0.6454(9)
H57 H 0.7400 0.2109 0.6331
H58 H 0.7441 0.1964 0.6794
H59 H 0.7447 0.1872 0.6254
C38 C 0.7879(4) 0.2050(3) 0.5885(6)
H60 H 0.7820 0.2180 0.5753
H61 H 0.7807 0.1939 0.5694
H62 H 0.8062 0.2044 0.5867
Si3 Si 0.96934(8) 0.08480(6) 0.61956(17)
C39 C 0.99454(15) 0.17960(13) 0.6225(3)
N11 N 0.99050(13) 0.19374(10) 0.5853(3)
H63 H 0.9788 0.2030 0.5896
O12 O 0.99801(11) 0.20715(10) 0.5106(2)
C40 C 1.02508(18) 0.16582(13) 0.5792(4)
N12 N 0.98078(13) 0.18173(10) 0.6619(3)
H64 H 0.9830 0.1736 0.6869
H65 H 0.9693 0.1913 0.6633
O13 O 1.03381(13) 0.11977(10) 0.5880(3)
C41 C 1.02310(15) 0.17976(14) 0.5398(3)
N13 N 1.01193(13) 0.16518(11) 0.6198(3)
O14 O 1.08419(13) 0.13918(12) 0.6538(4)
C42 C 1.00393(16) 0.19401(13) 0.5420(3)
N14 N 1.03956(14) 0.17566(11) 0.5034(3)
O15 O 1.06994(13) 0.10827(11) 0.6762(3)
C43 C 1.05151(18) 0.15933(16) 0.5187(4)
H66 H 1.0642 0.1528 0.5003
N15 N 1.04391(14) 0.15271(12) 0.5636(3)
O16 O 0.98596(12) 0.10571(11) 0.6153(3)
C44 C 1.05254(18) 0.13540(14) 0.5917(4)
H67 H 1.0681 0.1302 0.5757
C45 C 1.05857(19) 0.13885(16) 0.6447(4)
H68 H 1.0504 0.1515 0.6570
C46 C 1.0483(2) 0.12037(17) 0.6708(4)
H69 H 1.0403 0.1238 0.7028
C47 C 1.0898(2) 0.12060(18) 0.6796(4)
C48 C 1.0959(3) 0.1282(3) 0.7318(6)
H70 H 1.1105 0.1372 0.7307
H71 H 1.0995 0.1166 0.7529
H72 H 1.0814 0.1356 0.7448
C49 C 1.1136(4) 0.1122(3) 0.6587(8)
H73 H 1.1272 0.1220 0.6626
H74 H 1.1112 0.1093 0.6239
H75 H 1.1181 0.0996 0.6758
C50 C 1.03012(19) 0.11037(16) 0.6355(4)
H76 H 1.0335 0.0955 0.6336
C51 C 1.0029(2) 0.11422(19) 0.6482(4)
H77 H 0.9994 0.1087 0.6811
H78 H 1.0000 0.1290 0.6494
C52 C 0.9741(4) 0.0723(3) 0.6780(8)
H79 H 0.9698 0.0817 0.7045
H80 H 0.9917 0.0682 0.6811
H81 H 0.9633 0.0604 0.6800
C53 C 0.9356(3) 0.0924(3) 0.6225(8)
H82 H 0.9331 0.1016 0.6501
H83 H 0.9252 0.0804 0.6268
H84 H 0.9309 0.0993 0.5921
C54 C 0.9771(4) 0.0691(3) 0.5726(6)
C55 C 1.0036(4) 0.0595(4) 0.5792(10)
H85 H 1.0161 0.0703 0.5830
H86 H 1.0077 0.0514 0.5504
H87 H 1.0036 0.0509 0.6083
C56 C 0.9577(3) 0.0500(3) 0.5664(7)
H88 H 0.9424 0.0546 0.5502
H89 H 0.9535 0.0445 0.5987
H90 H 0.9657 0.0394 0.5467
C57 C 0.9763(5) 0.0779(4) 0.5177(7)
H91 H 0.9590 0.0817 0.5094
H92 H 0.9822 0.0675 0.4949
H93 H 0.9871 0.0898 0.5155
C58 C 1.03829(17) 0.21079(15) 0.3931(3)
N16 N 1.01989(13) 0.22002(11) 0.4197(3)
H94 H 1.0163 0.2145 0.4481
O17 O 0.98871(10) 0.24330(9) 0.4337(2)
C59 C 1.03253(17) 0.23446(15) 0.3370(3)
N17 N 1.05013(15) 0.19489(12) 0.4099(3)
H95 H 1.0622 0.1893 0.3925
H96 H 1.0461 0.1898 0.4385
O18 O 1.04049(12) 0.22395(11) 0.2287(2)
C60 C 1.01457(16) 0.24484(13) 0.3616(3)
N18 N 1.04489(14) 0.21812(11) 0.3497(3)
O19 O 1.09437(17) 0.25237(14) 0.2579(3)
C61 C 1.00613(15) 0.23705(12) 0.4071(3)
N19 N 1.00534(14) 0.26222(11) 0.3366(2)
O20 O 1.09555(18) 0.23066(17) 0.1910(3)
C62 C 1.0191(2) 0.26124(17) 0.2967(4)
H97 H 1.0176 0.2710 0.2715
N20 N 1.03554(14) 0.24563(11) 0.2933(3)
O21 O 1.03084(18) 0.18234(14) 0.2182(3)
C63 C 1.0509(2) 0.24031(16) 0.2539(4)
H98 H 1.0511 0.2521 0.2309
C64 C 1.0785(2) 0.23496(18) 0.2656(5)
H99 H 1.0804 0.2293 0.2992
C65 C 1.0849(2) 0.22035(17) 0.2286(4)
H100 H 1.0968 0.2100 0.2418
C66 C 1.1062(3) 0.2474(3) 0.2123(6)
C67 C 1.1341(3) 0.2437(3) 0.2203(7)
H101 H 1.1424 0.2416 0.1888
H102 H 1.1364 0.2316 0.2407
H103 H 1.1416 0.2554 0.2367
C68 C 1.1016(4) 0.2679(3) 0.1828(7)
H104 H 1.1097 0.2670 0.1508
H105 H 1.1088 0.2793 0.2011
H106 H 1.0836 0.2701 0.1785
C69 C 1.0600(2) 0.2104(2) 0.2121(5)
H107 H 1.0597 0.2099 0.1756
C70 C 1.0550(3) 0.1901(2) 0.2313(6)
H108 H 1.0681 0.1808 0.2190
H109 H 1.0563 0.1905 0.2673
Si4 Si 1.03101(17) 0.16518(13) 0.1803(3)
C71 C 1.0390(5) 0.1769(4) 0.1186(7)
H110 H 1.0548 0.1845 0.1213
H111 H 1.0256 0.1862 0.1088
H112 H 1.0408 0.1662 0.0941
C72 C 1.0516(7) 0.1442(4) 0.1893(13)
H113 H 1.0690 0.1489 0.1891
H114 H 1.0492 0.1344 0.1629
H115 H 1.0479 0.1378 0.2207
C73 C 1.0040(3) 0.1524(3) 0.1832(7)
C74 C 0.9963(5) 0.1423(4) 0.2273(8)
H116 H 0.9991 0.1512 0.2553
H117 H 1.0061 0.1299 0.2315
H118 H 0.9784 0.1389 0.2252
C75 C 0.9968(6) 0.1405(5) 0.1338(9)
H119 H 1.0026 0.1483 0.1056
H120 H 0.9785 0.1388 0.1320
H121 H 1.0049 0.1272 0.1339
C76 C 0.9806(5) 0.1707(5) 0.1740(14)
H122 H 0.9836 0.1777 0.1431
H123 H 0.9809 0.1804 0.2009
H124 H 0.9641 0.1641 0.1728
Si6 Si 0.78487(8) 0.22493(6) 0.37886(15)
C83 C 0.87813(15) 0.26715(13) 0.4117(3)
N21 N 0.89147(13) 0.25064(11) 0.4296(2)
H140 H 0.9045 0.2467 0.4122
O22 O 0.89991(10) 0.22522(9) 0.4842(2)
C84 C 0.85398(16) 0.26457(12) 0.4768(3)
N22 N 0.88558(13) 0.27536(11) 0.3689(3)
H141 H 0.8773 0.2857 0.3564
H142 H 0.8987 0.2704 0.3534
O23 O 0.79210(12) 0.27549(11) 0.4831(3)
C85 C 0.86539(16) 0.24875(14) 0.4971(3)
N23 N 0.85875(13) 0.27435(11) 0.4351(3)
O24 O 0.80940(13) 0.31978(11) 0.4974(3)
C86 C 0.88663(17) 0.23997(13) 0.4710(3)
N24 N 0.85409(15) 0.24214(12) 0.5397(3)
O25 O 0.78965(13) 0.31708(11) 0.4269(3)
C87 C 0.83548(18) 0.25486(16) 0.5463(3)
H143 H 0.8240 0.2545 0.5728
N25 N 0.83500(14) 0.26873(12) 0.5094(3)
O26 O 0.78192(15) 0.24770(12) 0.4038(3)
C88 C 0.81289(18) 0.28512(16) 0.5054(4)
H144 H 0.8082 0.2900 0.5386
C89 C 0.82023(17) 0.30215(14) 0.4745(4)
H145 H 0.8388 0.3032 0.4692
C90 C 0.80551(17) 0.30010(16) 0.4284(4)
H146 H 0.8167 0.2995 0.3992
C91 C 0.7983(2) 0.33158(17) 0.4615(4)
C92 C 0.8181(2) 0.34603(19) 0.4362(5)
H147 H 0.8098 0.3541 0.4109
H148 H 0.8315 0.3379 0.4214
H149 H 0.8254 0.3551 0.4608
C93 C 0.7767(3) 0.3435(2) 0.4817(5)
H150 H 0.7693 0.3517 0.4557
H151 H 0.7828 0.3523 0.5079
H152 H 0.7641 0.3342 0.4947
C94 C 0.7904(2) 0.28071(16) 0.4339(4)
H153 H 0.7724 0.2840 0.4270
C95 C 0.7982(2) 0.26327(17) 0.3992(4)
H154 H 0.7982 0.2682 0.3651
H155 H 0.8153 0.2587 0.4074
C96 C 0.7944(3) 0.2281(3) 0.3142(6)
H156 H 0.7815 0.2358 0.2967
H157 H 0.7964 0.2148 0.2990
H158 H 0.8104 0.2354 0.3127
C97 C 0.7532(3) 0.2145(3) 0.3830(6)
H159 H 0.7414 0.2233 0.3655
H160 H 0.7482 0.2136 0.4174
H161 H 0.7529 0.2010 0.3685
C98 C 0.8081(3) 0.2110(2) 0.4099(5)
C99 C 0.8357(4) 0.2176(3) 0.3990(7)
H162 H 0.8389 0.2166 0.3639
H163 H 0.8474 0.2087 0.4165
H164 H 0.8382 0.2316 0.4098
C100 C 0.8068(4) 0.1855(3) 0.3951(8)
H165 H 0.8081 0.1839 0.3596
H166 H 0.7909 0.1798 0.4065
H167 H 0.8208 0.1784 0.4108
C101 C 0.8063(4) 0.2129(3) 0.4639(8)
H168 H 0.7896 0.2085 0.4747
H169 H 0.8089 0.2270 0.4733
H170 H 0.8192 0.2044 0.4792
C102 C 0.88126(18) 0.19527(16) 0.6034(4)
N26 N 0.89736(14) 0.19664(11) 0.5619(3)
H171 H 0.8939 0.2057 0.5395
O27 O 0.93134(11) 0.18671(9) 0.5173(2)
C103 C 0.90544(19) 0.17012(15) 0.6308(3)
N27 N 0.86227(14) 0.20792(14) 0.6054(3)
H172 H 0.8517 0.2075 0.6301
H173 H 0.8601 0.2169 0.5820
O28 O 0.8944(3) 0.12710(14) 0.6975(4)
C104 C 0.92166(17) 0.17026(14) 0.5931(3)
N28 N 0.88484(15) 0.18191(13) 0.6378(3)
O29 O 0.88481(12) 0.15701(13) 0.7819(2)
C105 C 0.91848(15) 0.18427(13) 0.5550(3)
N29 N 0.94061(15) 0.15551(12) 0.5994(3)
O30 O 0.84655(18) 0.1454(3) 0.7616(4)
C106 C 0.9348(2) 0.14772(14) 0.6403(4)
H174 H 0.9443 0.1370 0.6543
N30 N 0.91510(16) 0.15536(12) 0.6620(3)
C107 C 0.9035(3) 0.14619(19) 0.7067(4)
H175 H 0.9172 0.1446 0.7313
C108 C 0.88335(18) 0.15976(18) 0.7304(3)
H176 H 0.8837 0.1742 0.7194
C109 C 0.8586(2) 0.1469(3) 0.7123(6)
H177 H 0.8481 0.1543 0.6878
C110 C 0.8601(2) 0.1549(2) 0.8002(5)
C111 C 0.8488(3) 0.1753(3) 0.8104(7)
H178 H 0.8583 0.1820 0.8364
H179 H 0.8313 0.1736 0.8208
H180 H 0.8494 0.1836 0.7808
C112 C 0.8597(3) 0.1428(2) 0.8433(5)
H181 H 0.8682 0.1501 0.8698
H182 H 0.8685 0.1301 0.8371
H183 H 0.8423 0.1400 0.8525
C113 C 0.8716(4) 0.1282(3) 0.6916(6)
H184 H 0.8632 0.1155 0.7031
O31 O 0.8407(7) 0.1335(6) 0.6294(8)
Si7 Si 0.8321(2) 0.12538(19) 0.5709(4)
C115 C 0.8067(7) 0.1078(7) 0.5770(16)
H187 H 0.7928 0.1142 0.5945
H188 H 0.8125 0.0959 0.5953
H189 H 0.8010 0.1036 0.5446
C116 C 0.8606(3) 0.1224(2) 0.5504(5)
H190 H 0.8707 0.1343 0.5587
H191 H 0.8602 0.1208 0.5149
H192 H 0.8681 0.1104 0.5653
C117 C 0.8251(4) 0.1446(4) 0.5159(9)
C118 C 0.8276(7) 0.1318(5) 0.4706(9)
H193 H 0.8393 0.1207 0.4768
H194 H 0.8341 0.1402 0.4438
C119 C 0.8491(7) 0.1590(5) 0.5188(13)
H196 H 0.8536 0.1612 0.5531
H197 H 0.8452 0.1720 0.5034
H198 H 0.8632 0.1526 0.5018
C120 C 0.8020(8) 0.1556(8) 0.5248(19)
H199 H 0.8028 0.1621 0.5569
H200 H 0.7878 0.1462 0.5240
H201 H 0.7998 0.1659 0.4995
C121 C 0.8700(5) 0.1302(5) 0.6330(10)
H202 H 0.8702 0.1447 0.6245
H203 H 0.8852 0.1240 0.6188
H218 H 0.8170 0.1311 0.4650
N31 N 0.9397(2) 0.3366(2) 0.1991(5)
O33 O 0.9381(3) 0.3478(2) 0.1606(6)
O34 O 0.9361(2) 0.3181(2) 0.1974(4)
O35 O 0.96629(18) 0.31447(15) 0.2729(3)
N32 N 0.9807(3) 0.3767(2) 0.3572(6)
O36 O 0.9874(3) 0.3677(2) 0.3923(5)
O37 O 0.9793(3) 0.3953(2) 0.3598(5)
C128 C 0.9498(3) 0.3462(2) 0.2397(5)
C129 C 0.9625(3) 0.3344(2) 0.2770(5)
C130 C 0.9713(2) 0.3449(2) 0.3172(5)
H219 H 0.9788 0.3376 0.3434
C131 C 0.9693(3) 0.3662(2) 0.3200(5)
C132 C 0.9563(3) 0.3776(2) 0.2828(5)
H220 H 0.9544 0.3919 0.2850
C133 C 0.9471(3) 0.3669(2) 0.2445(5)
H221 H 0.9384 0.3740 0.2197
N33 N 0.8460(3) 0.4238(2) 0.6915(5)
O38 O 0.8685(4) 0.4167(4) 0.6733(9)
O39 O 0.8381(4) 0.4388(3) 0.6750(8)
O40 O 0.8144(3) 0.4416(2) 0.7551(5)
N34 N 0.8169(4) 0.3833(3) 0.8568(6)
O41 O 0.8097(3) 0.3925(3) 0.8923(6)
O42 O 0.8212(4) 0.3638(3) 0.8587(8)
C134 C 0.8370(3) 0.4129(2) 0.7282(4)
C135 C 0.8234(3) 0.42276(16) 0.7644(5)
C136 C 0.8180(3) 0.41286(19) 0.8079(4)
H222 H 0.8087 0.4196 0.8327
C137 C 0.8262(3) 0.39314(19) 0.8152(4)
C138 C 0.8398(3) 0.38332(15) 0.7790(5)
H223 H 0.8455 0.3698 0.7840
C139 C 0.8452(3) 0.39322(19) 0.7354(4)
H224 H 0.8545 0.3865 0.7107
C140 C 0.9452(6) 0.1870(5) 1.0182(14)
H225 H 0.9495 0.1870 0.9827
Cl1 Cl 0.9197(3) 0.2024(2) 1.0167(6)
Cl2 Cl 0.9401(3) 0.1625(3) 1.0261(6)
Cl3 Cl 0.9731(3) 0.1960(3) 1.0416(7)
O43 O 1.0801(8) 0.0551(6) 0.6243(16)
O44 O 0.7935(16) 0.2734(13) 0.843(3)
N35 N 0.7729(3) 0.3929(3) 0.5279(6)
C141 C 0.7800(4) 0.3991(3) 0.4919(7)
C142 C 0.7847(6) 0.4053(4) 0.4385(8)
H226 H 0.7989 0.3975 0.4255
H227 H 0.7886 0.4197 0.4369
H228 H 0.7696 0.4024 0.4191
N36 N 0.8741(5) 0.2336(4) 0.0349(9)
C143 C 0.8614(5) 0.2464(4) 0.0435(9)
C144 C 0.8622(9) 0.2638(7) 0.0685(17)
H229 H 0.8536 0.2621 0.0998
H230 H 0.8538 0.2745 0.0496
H231 H 0.8797 0.2676 0.0743
N37 N 0.7475(5) 0.3625(4) 0.3662(9)
C145 C 0.7492(5) 0.3477(5) 0.3517(10)
C146 C 0.7465(5) 0.3258(4) 0.3368(9)
H232 H 0.7424 0.3176 0.3656
H233 H 0.7624 0.3210 0.3227
H234 H 0.7331 0.3245 0.3126
N38 N 0.7754(5) 0.3469(4) 0.7117(10)
C147 C 0.7687(5) 0.3499(4) 0.6769(11)
C148 C 0.7574(6) 0.3525(5) 0.6274(11)
H235 H 0.7554 0.3392 0.6119
H236 H 0.7684 0.3610 0.6074
H237 H 0.7409 0.3590 0.6305
Si5? Si 1.0164(2) 0.17315(16) 0.1632(4)
C77? C 1.0390(5) 0.1769(4) 0.1186(7)
H125? H 1.0425 0.1914 0.1156
H126? H 1.0329 0.1717 0.0873
H127? H 1.0545 0.1698 0.1277
C78? C 0.9873(5) 0.1842(7) 0.1540(15)
H128? H 0.9895 0.1980 0.1418
H129? H 0.9781 0.1845 0.1849
H130? H 0.9778 0.1762 0.1301
C79? C 1.0040(3) 0.1524(3) 0.1832(7)
C80? C 0.9877(6) 0.1525(5) 0.2313(9)
H131? H 0.9948 0.1622 0.2544
H132? H 0.9878 0.1390 0.2459
H133? H 0.9704 0.1564 0.2234
C81? C 0.9917(8) 0.1355(5) 0.1510(12)
H134? H 1.0008 0.1344 0.1201
H135? H 0.9741 0.1390 0.1445
H136? H 0.9925 0.1226 0.1683
C82? C 1.0270(8) 0.1370(7) 0.208(2)
H137? H 1.0370 0.1448 0.2312
H138? H 1.0379 0.1320 0.1817
H139? H 1.0191 0.1255 0.2245
C114? C 0.8700(5) 0.1302(5) 0.6330(10)
H185? H 0.8796 0.1419 0.6205
H186? H 0.8754 0.1177 0.6162
H195? H 0.8112 0.1263 0.4616
O32? O 0.8514(3) 0.1223(2) 0.6135(5)
Si8? Si 0.8436(4) 0.1183(3) 0.5559(5)
C122? C 0.8101(4) 0.1083(5) 0.5615(11)
H204? H 0.8097 0.0972 0.5850
H205? H 0.8044 0.1035 0.5296
H206? H 0.7991 0.1192 0.5727
C123? C 0.8642(5) 0.0987(4) 0.5292(10)
H207? H 0.8650 0.0870 0.5513
H208? H 0.8811 0.1042 0.5247
H209? H 0.8574 0.0944 0.4976
C124? C 0.8437(5) 0.1397(3) 0.5164(10)
C125? C 0.8717(5) 0.1473(5) 0.5106(12)
H210? H 0.8778 0.1525 0.5420
H211? H 0.8724 0.1581 0.4861
H212? H 0.8824 0.1360 0.5002
C126? C 0.8285(7) 0.1584(4) 0.5359(13)
H213? H 0.8340 0.1616 0.5691
H214? H 0.8105 0.1552 0.5360
H215? H 0.8316 0.1701 0.5146
C127? C 0.8348(8) 0.1348(6) 0.4644(9)
H216? H 0.8446 0.1235 0.4515
H217? H 0.8372 0.1467 0.4436
loop_
_geom_bond_atom_site_label_1
_geom_bond_atom_site_label_2
_geom_bond_site_symmetry_1
_geom_bond_site_symmetry_2
Si1 O6 1_555 1_555
C1 N1 1_555 1_555
N1 H1 1_555 1_555
O2 C4 1_555 1_555
C2 C3 1_555 1_555
N2 C1 1_555 1_555
H2 N2 1_555 1_555
H3 N2 1_555 1_555
O3 C6 1_555 1_555
C3 C4 1_555 1_555
N3 C1 1_555 1_555
O4 C7 1_555 1_555
C4 N1 1_555 1_555
N4 C3 1_555 1_555
O5 C8 1_555 1_555
C5 N4 1_555 1_555
H4 C5 1_555 1_555
N5 C2 1_555 1_555
O6 C13 1_555 1_555
C6 N5 1_555 1_555
H5 C6 1_555 1_555
C7 C6 1_555 1_555
H6 C7 1_555 1_555
C8 C7 1_555 1_555
H7 C8 1_555 1_555
C9 O4 1_555 1_555
C10 C9 1_555 1_555
H8 C10 1_555 1_555
H9 C10 1_555 1_555
H10 C10 1_555 1_555
C11 C9 1_555 1_555
H11 C11 1_555 1_555
H12 C11 1_555 1_555
H13 C11 1_555 1_555
C12 O3 1_555 1_555
H14 C12 1_555 1_555
C13 C12 1_555 1_555
H15 C13 1_555 1_555
H16 C13 1_555 1_555
C14 Si1 1_555 1_555
H17 C14 1_555 1_555
H18 C14 1_555 1_555
H19 C14 1_555 1_555
C15 Si1 1_555 1_555
H20 C15 1_555 1_555
H21 C15 1_555 1_555
H22 C15 1_555 1_555
C16 Si1 1_555 1_555
C17 C16 1_555 1_555
H23 C17 1_555 1_555
H24 C17 1_555 1_555
H25 C17 1_555 1_555
C18 C16 1_555 1_555
H26 C18 1_555 1_555
H27 C18 1_555 1_555
H28 C18 1_555 1_555
C19 C16 1_555 1_555
H29 C19 1_555 1_555
H30 C19 1_555 1_555
H31 C19 1_555 1_555
C20 N6 1_555 1_555
N6 H32 1_555 1_555
O7 C23 1_555 1_555
C21 C22 1_555 1_555
N7 C20 1_555 1_555
H33 N7 1_555 1_555
H34 N7 1_555 1_555
O8 C25 1_555 1_555
C22 C23 1_555 1_555
N8 C20 1_555 1_555
O9 C26 1_555 1_555
C23 N6 1_555 1_555
N9 C22 1_555 1_555
O10 C27 1_555 1_555
C24 N9 1_555 1_555
H35 C24 1_555 1_555
N10 C21 1_555 1_555
O11 C32 1_555 1_555
C25 N10 1_555 1_555
H36 C25 1_555 1_555
C26 C25 1_555 1_555
H37 C26 1_555 1_555
C27 C26 1_555 1_555
H38 C27 1_555 1_555
C28 O9 1_555 1_555
C29 C28 1_555 1_555
H39 C29 1_555 1_555
H40 C29 1_555 1_555
H41 C29 1_555 1_555
C30 C28 1_555 1_555
H42 C30 1_555 1_555
H43 C30 1_555 1_555
H44 C30 1_555 1_555
C31 O8 1_555 1_555
H45 C31 1_555 1_555
C32 C31 1_555 1_555
H46 C32 1_555 1_555
H47 C32 1_555 1_555
Si2 O11 1_555 1_555
C33 Si2 1_555 1_555
H48 C33 1_555 1_555
H49 C33 1_555 1_555
H50 C33 1_555 1_555
C34 Si2 1_555 1_555
H51 C34 1_555 1_555
H52 C34 1_555 1_555
H53 C34 1_555 1_555
C35 Si2 1_555 1_555
C36 C35 1_555 1_555
H54 C36 1_555 1_555
H55 C36 1_555 1_555
H56 C36 1_555 1_555
C37 C35 1_555 1_555
H57 C37 1_555 1_555
H58 C37 1_555 1_555
H59 C37 1_555 1_555
C38 C35 1_555 1_555
H60 C38 1_555 1_555
H61 C38 1_555 1_555
H62 C38 1_555 1_555
Si3 O16 1_555 1_555
C39 N11 1_555 1_555
N11 H63 1_555 1_555
O12 C42 1_555 1_555
C40 C41 1_555 1_555
N12 C39 1_555 1_555
H64 N12 1_555 1_555
H65 N12 1_555 1_555
O13 C44 1_555 1_555
C41 C42 1_555 1_555
N13 C39 1_555 1_555
O14 C45 1_555 1_555
C42 N11 1_555 1_555
N14 C41 1_555 1_555
O15 C46 1_555 1_555
C43 N14 1_555 1_555
H66 C43 1_555 1_555
N15 C40 1_555 1_555
O16 C51 1_555 1_555
C44 N15 1_555 1_555
H67 C44 1_555 1_555
C45 C44 1_555 1_555
H68 C45 1_555 1_555
C46 C45 1_555 1_555
H69 C46 1_555 1_555
C47 O14 1_555 1_555
C48 C47 1_555 1_555
H70 C48 1_555 1_555
H71 C48 1_555 1_555
H72 C48 1_555 1_555
C49 C47 1_555 1_555
H73 C49 1_555 1_555
H74 C49 1_555 1_555
H75 C49 1_555 1_555
C50 O13 1_555 1_555
H76 C50 1_555 1_555
C51 C50 1_555 1_555
H77 C51 1_555 1_555
H78 C51 1_555 1_555
C52 Si3 1_555 1_555
H79 C52 1_555 1_555
H80 C52 1_555 1_555
H81 C52 1_555 1_555
C53 Si3 1_555 1_555
H82 C53 1_555 1_555
H83 C53 1_555 1_555
H84 C53 1_555 1_555
C54 Si3 1_555 1_555
C55 C54 1_555 1_555
H85 C55 1_555 1_555
H86 C55 1_555 1_555
H87 C55 1_555 1_555
C56 C54 1_555 1_555
H88 C56 1_555 1_555
H89 C56 1_555 1_555
H90 C56 1_555 1_555
C57 C54 1_555 1_555
H91 C57 1_555 1_555
H92 C57 1_555 1_555
H93 C57 1_555 1_555
C58 N16 1_555 1_555
N16 H94 1_555 1_555
O17 C61 1_555 1_555
C59 C60 1_555 1_555
N17 C58 1_555 1_555
H95 N17 1_555 1_555
H96 N17 1_555 1_555
O18 C63 1_555 1_555
C60 C61 1_555 1_555
N18 C58 1_555 1_555
O19 C64 1_555 1_555
C61 N16 1_555 1_555
N19 C60 1_555 1_555
O20 C65 1_555 1_555
C62 N19 1_555 1_555
H97 C62 1_555 1_555
N20 C59 1_555 1_555
O21 C70 1_555 1_555
C63 N20 1_555 1_555
H98 C63 1_555 1_555
C64 C63 1_555 1_555
H99 C64 1_555 1_555
C65 C64 1_555 1_555
H100 C65 1_555 1_555
C66 O19 1_555 1_555
C67 C66 1_555 1_555
H101 C67 1_555 1_555
H102 C67 1_555 1_555
H103 C67 1_555 1_555
C68 C66 1_555 1_555
H104 C68 1_555 1_555
H105 C68 1_555 1_555
H106 C68 1_555 1_555
C69 O18 1_555 1_555
H107 C69 1_555 1_555
C70 C69 1_555 1_555
H108 C70 1_555 1_555
H109 C70 1_555 1_555
Si4 O21 1_555 1_555
C71 Si4 1_555 1_555
H110 C71 1_555 1_555
H111 C71 1_555 1_555
H112 C71 1_555 1_555
C72 Si4 1_555 1_555
H113 C72 1_555 1_555
H114 C72 1_555 1_555
H115 C72 1_555 1_555
C73 Si4 1_555 1_555
C74 C73 1_555 1_555
H116 C74 1_555 1_555
H117 C74 1_555 1_555
H118 C74 1_555 1_555
C75 C73 1_555 1_555
H119 C75 1_555 1_555
H120 C75 1_555 1_555
H121 C75 1_555 1_555
C76 C73 1_555 1_555
H122 C76 1_555 1_555
H123 C76 1_555 1_555
H124 C76 1_555 1_555
Si6 O26 1_555 1_555
C83 N21 1_555 1_555
N21 H140 1_555 1_555
O22 C86 1_555 1_555
C84 C85 1_555 1_555
N22 C83 1_555 1_555
H141 N22 1_555 1_555
H142 N22 1_555 1_555
O23 C88 1_555 1_555
C85 C86 1_555 1_555
N23 C83 1_555 1_555
O24 C89 1_555 1_555
C86 N21 1_555 1_555
N24 C85 1_555 1_555
O25 C90 1_555 1_555
C87 N24 1_555 1_555
H143 C87 1_555 1_555
N25 C84 1_555 1_555
O26 C95 1_555 1_555
C88 N25 1_555 1_555
H144 C88 1_555 1_555
C89 C88 1_555 1_555
H145 C89 1_555 1_555
C90 C89 1_555 1_555
H146 C90 1_555 1_555
C91 O24 1_555 1_555
C92 C91 1_555 1_555
H147 C92 1_555 1_555
H148 C92 1_555 1_555
H149 C92 1_555 1_555
C93 C91 1_555 1_555
H150 C93 1_555 1_555
H151 C93 1_555 1_555
H152 C93 1_555 1_555
C94 O23 1_555 1_555
H153 C94 1_555 1_555
C95 C94 1_555 1_555
H154 C95 1_555 1_555
H155 C95 1_555 1_555
C96 Si6 1_555 1_555
H156 C96 1_555 1_555
H157 C96 1_555 1_555
H158 C96 1_555 1_555
C97 Si6 1_555 1_555
H159 C97 1_555 1_555
H160 C97 1_555 1_555
H161 C97 1_555 1_555
C98 Si6 1_555 1_555
C99 C98 1_555 1_555
H162 C99 1_555 1_555
H163 C99 1_555 1_555
H164 C99 1_555 1_555
C100 C98 1_555 1_555
H165 C100 1_555 1_555
H166 C100 1_555 1_555
H167 C100 1_555 1_555
C101 C98 1_555 1_555
H168 C101 1_555 1_555
H169 C101 1_555 1_555
H170 C101 1_555 1_555
C102 N26 1_555 1_555
N26 H171 1_555 1_555
O27 C105 1_555 1_555
C103 C104 1_555 1_555
N27 C102 1_555 1_555
H172 N27 1_555 1_555
H173 N27 1_555 1_555
O28 C107 1_555 1_555
C104 C105 1_555 1_555
N28 C102 1_555 1_555
O29 C108 1_555 1_555
C105 N26 1_555 1_555
N29 C104 1_555 1_555
O30 C109 1_555 1_555
C106 N29 1_555 1_555
H174 C106 1_555 1_555
N30 C103 1_555 1_555
C107 N30 1_555 1_555
H175 C107 1_555 1_555
C108 C107 1_555 1_555
H176 C108 1_555 1_555
C109 C108 1_555 1_555
H177 C109 1_555 1_555
C110 O29 1_555 1_555
C111 C110 1_555 1_555
H178 C111 1_555 1_555
H179 C111 1_555 1_555
H180 C111 1_555 1_555
C112 C110 1_555 1_555
H181 C112 1_555 1_555
H182 C112 1_555 1_555
H183 C112 1_555 1_555
C113 O28 1_555 1_555
H184 C113 1_555 1_555
O31 Si7 1_555 1_555
Si7 C115 1_555 1_555
C115 H187 1_555 1_555
H188 C115 1_555 1_555
H189 C115 1_555 1_555
C116 Si7 1_555 1_555
H190 C116 1_555 1_555
H191 C116 1_555 1_555
H192 C116 1_555 1_555
C117 Si7 1_555 1_555
C118 C117 1_555 1_555
H193 C118 1_555 1_555
H194 C118 1_555 1_555
C119 C117 1_555 1_555
H196 C119 1_555 1_555
H197 C119 1_555 1_555
H198 C119 1_555 1_555
C120 C117 1_555 1_555
H199 C120 1_555 1_555
H200 C120 1_555 1_555
H201 C120 1_555 1_555
C121 C113 1_555 1_555
H202 C121 1_555 1_555
H203 C121 1_555 1_555
H218 C118 1_555 1_555
N31 O33 1_555 1_555
O34 N31 1_555 1_555
O35 C129 1_555 1_555
N32 O36 1_555 1_555
O37 N32 1_555 1_555
C128 N31 1_555 1_555
C129 C128 1_555 1_555
C130 C129 1_555 1_555
H219 C130 1_555 1_555
C131 N32 1_555 1_555
C132 C131 1_555 1_555
H220 C132 1_555 1_555
C133 C128 1_555 1_555
H221 C133 1_555 1_555
N33 O38 1_555 1_555
O39 N33 1_555 1_555
O40 C135 1_555 1_555
N34 O41 1_555 1_555
O42 N34 1_555 1_555
C134 N33 1_555 1_555
C135 C134 1_555 1_555
C136 C135 1_555 1_555
H222 C136 1_555 1_555
C137 N34 1_555 1_555
C138 C137 1_555 1_555
H223 C138 1_555 1_555
C139 C134 1_555 1_555
H224 C139 1_555 1_555
C140 H225 1_555 1_555
Cl1 C140 1_555 1_555
Cl2 C140 1_555 1_555
Cl3 C140 1_555 1_555
N35 C141 1_555 1_555
C141 C142 1_555 1_555
C142 H226 1_555 1_555
H227 C142 1_555 1_555
H228 C142 1_555 1_555
N36 C143 1_555 1_555
C143 C144 1_555 1_555
C144 H229 1_555 1_555
H230 C144 1_555 1_555
H231 C144 1_555 1_555
N37 C145 1_555 1_555
C145 C146 1_555 1_555
C146 H232 1_555 1_555
H233 C146 1_555 1_555
H234 C146 1_555 1_555
N38 C147 1_555 1_555
C147 C148 1_555 1_555
C148 H235 1_555 1_555
H236 C148 1_555 1_555
H237 C148 1_555 1_555
C2 N3 1_555 1_555
O5 C9 1_555 1_555
C5 N5 1_555 1_555
C8 C12 1_555 1_555
C21 N8 1_555 1_555
O10 C28 1_555 1_555
C24 N10 1_555 1_555
C27 C31 1_555 1_555
C40 N13 1_555 1_555
O15 C47 1_555 1_555
C43 N15 1_555 1_555
C46 C50 1_555 1_555
C59 N18 1_555 1_555
O20 C66 1_555 1_555
C62 N20 1_555 1_555
C65 C69 1_555 1_555
C84 N23 1_555 1_555
O25 C91 1_555 1_555
C87 N25 1_555 1_555
C90 C94 1_555 1_555
C103 N28 1_555 1_555
O30 C110 1_555 1_555
C106 N30 1_555 1_555
C109 C113 1_555 1_555
O31 C121 1_555 1_555
C130 C131 1_555 1_555
C132 C133 1_555 1_555
C136 C137 1_555 1_555
C138 C139 1_555 1_555

#END
