
#######################################################################
#
#                 Cambridge Crystallographic Data Centre
#                                CCDC 
#
#######################################################################
#
# If this CIF has been generated from an entry in the Cambridge 
# Structural Database, then it will include bibliographic, chemical, 
# crystal, experimental, refinement or atomic coordinate data resulting 
# from the CCDC's data processing and validation procedures.
#
#######################################################################

data_OLECEN
_chemical_formula_moiety         
'2(Ba1 2+),16(C19 H31 N5 O5 Si1),4(C7 H5 N2 O6 1-),7.4(C2 H3 N1),4.15(C1 H1 Cl3),6.1(H2 O1)'
_chemical_name_systematic        
"Di-barium hexadecakis(5'-((t-butyl)dimethylsilyl)-2',3'-O-isopropylideneguanosine) tetrakis(4-methoxy-2,6-dinitrophenolato) acetonitrile chloroform solvate hydrate"
_symmetry_cell_setting           monoclinic
_symmetry_space_group_name_H-M   'C 2'
_symmetry_Int_Tables_number      5
_space_group_name_Hall           'C 2y'
loop_
_symmetry_equiv_pos_site_id
_symmetry_equiv_pos_as_xyz
1 x,y,z
2 -x,y,-z
3 1/2+x,1/2+y,z
4 1/2-x,1/2+y,-z
_cell_length_a                   46.662(4)
_cell_length_b                   24.259(2)
_cell_length_c                   45.111(4)
_cell_angle_alpha                90
_cell_angle_beta                 93.139(2)
_cell_angle_gamma                90
_cell_volume                     50987.8
_exptl_crystal_colour            red
_exptl_crystal_description       block
_cell_formula_units_Z            4
loop_
_atom_site_label
_atom_site_type_symbol
_atom_site_fract_x
_atom_site_fract_y
_atom_site_fract_z
Ba1 Ba 0.307552(9) 0.27254(2) 0.254992(9)
Si1 Si 0.40333(13) -0.0473(2) 0.20473(14)
C1 C 0.40700(17) 0.1698(3) 0.24769(18)
N1 N 0.37744(15) 0.1806(2) 0.24527(15)
H1 H 0.3685 0.1833 0.2619
O1 O 0.33539(12) 0.1987(2) 0.21955(12)
C2 C 0.40631(18) 0.1694(3) 0.19869(16)
N2 N 0.41862(16) 0.1664(3) 0.27424(16)
H2 H 0.4371 0.1593 0.2769
H3 H 0.4081 0.1710 0.2896
O2 O 0.44526(18) 0.0871(4) 0.15679(18)
C3 C 0.37815(19) 0.1799(3) 0.19376(18)
N3 N 0.42194(13) 0.1631(3) 0.22419(15)
O3 O 0.49298(17) 0.1739(4) 0.1659(2)
C4 C 0.36130(15) 0.1872(3) 0.21940(16)
N4 N 0.36951(16) 0.1826(3) 0.16448(15)
O4 O 0.5084(2) 0.0994(5) 0.1886(3)
C5 C 0.3933(2) 0.1728(4) 0.1510(2)
H4 H 0.3944 0.1718 0.1301
N5 N 0.41652(15) 0.1642(3) 0.17074(15)
O5 O 0.4256(3) -0.0061(4) 0.1890(2)
C6 C 0.4450(2) 0.1466(4) 0.1611(2)
H5 H 0.4487 0.1650 0.1418
C7 C 0.4694(2) 0.1593(4) 0.1831(2)
H6 H 0.4647 0.1883 0.1978
C8 C 0.4793(2) 0.1068(5) 0.1971(3)
H7 H 0.4776 0.1066 0.2191
C9 C 0.5182(3) 0.1499(7) 0.1789(4)
C10 C 0.5299(4) 0.1827(8) 0.2077(4)
H8 H 0.5373 0.2186 0.2017
H9 H 0.5453 0.1615 0.2179
H10 H 0.5142 0.1882 0.2210
C11 C 0.5393(4) 0.1446(8) 0.1573(4)
H11 H 0.5460 0.1813 0.1517
H12 H 0.5309 0.1257 0.1397
H13 H 0.5556 0.1231 0.1657
C12 C 0.4619(3) 0.0629(5) 0.1817(3)
H14 H 0.4750 0.0342 0.1742
C13 C 0.4412(3) 0.0352(7) 0.2040(3)
H15 H 0.4525 0.0193 0.2212
H16 H 0.4279 0.0631 0.2116
C14 C 0.4126(5) -0.0600(9) 0.2450(4)
H17 H 0.4300 -0.0826 0.2471
H18 H 0.3968 -0.0793 0.2539
H19 H 0.4160 -0.0247 0.2552
C15 C 0.4044(7) -0.1157(13) 0.1847(6)
H20 H 0.4230 -0.1335 0.1891
H21 H 0.4016 -0.1096 0.1633
H22 H 0.3890 -0.1396 0.1914
C16 C 0.3755(4) -0.0143(7) 0.2013(4)
C17 C 0.3675(5) 0.0368(11) 0.2262(5)
H23 H 0.3774 0.0291 0.2455
H24 H 0.3467 0.0377 0.2284
H25 H 0.3738 0.0725 0.2188
C18 C 0.3616(7) 0.0080(13) 0.1697(6)
H26 H 0.3661 -0.0179 0.1539
H27 H 0.3697 0.0443 0.1654
H28 H 0.3408 0.0111 0.1707
C19 C 0.3459(6) -0.0549(13) 0.2130(7)
H29 H 0.3443 -0.0887 0.2011
H30 H 0.3281 -0.0336 0.2103
H31 H 0.3492 -0.0646 0.2340
C20 C 0.29062(19) 0.2092(3) 0.14384(18)
N6 N 0.28968(15) 0.2087(3) 0.17422(13)
H32 H 0.3053 0.1985 0.1846
O6 O 0.26761(12) 0.2222(2) 0.21778(11)
C21 C 0.24484(19) 0.2357(3) 0.14089(18)
N7 N 0.31513(16) 0.1949(3) 0.13174(15)
H33 H 0.3160 0.1938 0.1123
H34 H 0.3304 0.1866 0.1432
O7 O 0.18709(16) 0.2228(3) 0.09094(16)
C22 C 0.24209(18) 0.2362(3) 0.17104(19)
N8 N 0.26781(17) 0.2216(3) 0.12671(16)
O8 O 0.22093(18) 0.2870(2) 0.05015(13)
C23 C 0.26664(19) 0.2225(3) 0.18926(19)
N9 N 0.21508(15) 0.2538(3) 0.17821(16)
O9 O 0.22197(19) 0.2005(2) 0.03383(14)
C24 C 0.2026(2) 0.2651(4) 0.1522(2)
H35 H 0.1836 0.2793 0.1498
N10 N 0.21902(16) 0.2549(3) 0.12899(15)
O10 O 0.2159(3) 0.0825(3) 0.08793(19)
C25 C 0.2081(2) 0.2629(4) 0.0979(2)
H36 H 0.1995 0.3005 0.0956
C26 C 0.2304(2) 0.2550(4) 0.07577(19)
H37 H 0.2504 0.2639 0.0836
C27 C 0.2267(2) 0.1952(4) 0.0642(2)
H38 H 0.2439 0.1718 0.0695
C28 C 0.2276(3) 0.2557(4) 0.0239(2)
C29 C 0.2577(3) 0.2622(5) 0.0165(3)
H39 H 0.2703 0.2526 0.0338
H40 H 0.2612 0.3005 0.0108
H41 H 0.2617 0.2378 -0.0001
C30 C 0.2054(3) 0.2704(6) 0.0005(3)
H42 H 0.1863 0.2651 0.0081
H43 H 0.2075 0.2468 -0.0169
H44 H 0.2078 0.3091 -0.0052
C31 C 0.2006(2) 0.1751(5) 0.0782(2)
H45 H 0.1871 0.1592 0.0625
C32 C 0.2054(3) 0.1332(5) 0.1026(3)
H46 H 0.2199 0.1466 0.1178
H47 H 0.1873 0.1256 0.1123
Si2 Si 0.22669(17) 0.0224(3) 0.09717(18)
C33 C 0.2448(4) -0.0106(8) 0.0663(4)
H48 H 0.2342 -0.0024 0.0475
H49 H 0.2454 -0.0506 0.0694
H50 H 0.2645 0.0036 0.0658
C34 C 0.1943(11) -0.0173(19) 0.1024(17)
H51 H 0.1810 -0.0128 0.0850
H52 H 0.1852 -0.0041 0.1201
H53 H 0.1993 -0.0563 0.1048
C35 C 0.2413(6) 0.0091(13) 0.1319(5)
C36 C 0.2696(6) 0.0422(17) 0.1378(8)
H54 H 0.2656 0.0817 0.1360
H55 H 0.2835 0.0315 0.1232
H56 H 0.2777 0.0341 0.1578
C37 C 0.2196(7) 0.0263(16) 0.1571(6)
H57 H 0.2178 0.0666 0.1576
H58 H 0.2271 0.0130 0.1765
H59 H 0.2007 0.0098 0.1524
C38 C 0.2472(8) -0.0536(11) 0.1378(7)
H60 H 0.2289 -0.0737 0.1371
H61 H 0.2570 -0.0582 0.1574
H62 H 0.2593 -0.0682 0.1226
C45 C 0.19610(18) 0.2411(3) 0.2584(2)
N11 N 0.22529(13) 0.2311(3) 0.26191(15)
H78 H 0.2346 0.2285 0.2455
O11 O 0.26786(12) 0.2179(2) 0.28775(12)
C46 C 0.19504(18) 0.2339(3) 0.30732(19)
N12 N 0.18488(16) 0.2492(3) 0.23192(18)
H79 H 0.1662 0.2541 0.2291
H80 H 0.1959 0.2498 0.2167
O12 O 0.14414(16) 0.1800(3) 0.34828(17)
C47 C 0.22410(18) 0.2247(3) 0.31220(19)
N13 N 0.18017(14) 0.2401(3) 0.28148(17)
O13 O 0.11064(14) 0.2833(3) 0.33730(19)
C48 C 0.24167(18) 0.2246(3) 0.2884(2)
N14 N 0.23205(15) 0.2202(3) 0.34251(17)
O14 O 0.08919(16) 0.2205(4) 0.3057(2)
C49 C 0.2069(2) 0.2268(4) 0.3553(2)
H81 H 0.2050 0.2261 0.3761
N15 N 0.18419(16) 0.2346(3) 0.33507(19)
O15 O 0.1463(2) 0.0694(4) 0.3217(2)
C50 C 0.15444(19) 0.2350(4) 0.3443(2)
H82 H 0.1535 0.2560 0.3633
C51 C 0.1337(2) 0.2602(4) 0.3209(2)
H83 H 0.1428 0.2869 0.3074
C52 C 0.1192(2) 0.2103(5) 0.3049(3)
H84 H 0.1251 0.2074 0.2840
C53 C 0.0841(2) 0.2698(7) 0.3210(3)
C54 C 0.0789(4) 0.3123(7) 0.2948(4)
H85 H 0.0605 0.3044 0.2842
H86 H 0.0944 0.3091 0.2811
H87 H 0.0786 0.3498 0.3029
C55 C 0.0608(4) 0.2626(8) 0.3407(4)
H88 H 0.0429 0.2555 0.3289
H89 H 0.0587 0.2961 0.3525
H90 H 0.0650 0.2313 0.3540
C56 C 0.1286(3) 0.1615(5) 0.3225(3)
H91 H 0.1108 0.1432 0.3292
C57 C 0.1444(3) 0.1193(6) 0.3053(3)
H92 H 0.1341 0.1128 0.2858
H93 H 0.1639 0.1329 0.3016
Si4 Si 0.17444(17) 0.0279(3) 0.32068(18)
C58 C 0.2062(3) 0.0623(9) 0.3308(4)
H94 H 0.2175 0.0668 0.3133
H95 H 0.2172 0.0408 0.3459
H96 H 0.2017 0.0986 0.3388
C59 C 0.1746(6) -0.0060(11) 0.2853(5)
H97 H 0.1548 -0.0122 0.2776
H98 H 0.1846 -0.0414 0.2876
H99 H 0.1846 0.0172 0.2713
C60 C 0.1666(5) -0.0343(9) 0.3382(5)
C61 C 0.1359(5) -0.0576(10) 0.3315(6)
H100 H 0.1357 -0.0806 0.3137
H101 H 0.1223 -0.0271 0.3284
H102 H 0.1303 -0.0799 0.3484
C62 C 0.1884(7) -0.0815(13) 0.3377(10)
H103 H 0.1841 -0.1088 0.3528
H104 H 0.2078 -0.0669 0.3419
H105 H 0.1873 -0.0990 0.3181
C63 C 0.1652(10) -0.0210(18) 0.3739(5)
H106 H 0.1635 -0.0557 0.3848
H107 H 0.1486 0.0023 0.3771
H108 H 0.1828 -0.0019 0.3809
C70 C 0.31158(18) 0.1907(3) 0.36223(17)
N16 N 0.31252(15) 0.1941(3) 0.33242(14)
H124 H 0.2961 0.1976 0.3221
O16 O 0.33642(12) 0.1967(2) 0.28960(12)
C71 C 0.35962(19) 0.1814(3) 0.36598(18)
N17 N 0.28629(17) 0.1946(3) 0.37405(17)
H125 H 0.2852 0.1929 0.3934
H126 H 0.2706 0.1989 0.3625
O17 O 0.4099(2) 0.1181(6) 0.4130(2)
C72 C 0.36235(17) 0.1853(3) 0.33548(17)
N18 N 0.33399(17) 0.1843(3) 0.38020(15)
O18 O 0.38961(19) 0.1901(3) 0.45859(14)
C73 C 0.33744(19) 0.1926(3) 0.31660(18)
N19 N 0.39081(15) 0.1825(3) 0.32897(14)
O19 O 0.3680(2) 0.1104(3) 0.46904(17)
C74 C 0.4046(2) 0.1780(4) 0.3547(2)
H127 H 0.4249 0.1749 0.3572
N20 N 0.38618(18) 0.1784(3) 0.37847(16)
C75 C 0.3972(3) 0.1707(6) 0.4090(2)
H128 H 0.4124 0.1991 0.4134
C76 C 0.3759(2) 0.1752(4) 0.43156(19)
H129 H 0.3591 0.1991 0.4255
C77 C 0.3677(3) 0.1158(5) 0.4387(2)
H130 H 0.3483 0.1067 0.4295
C78 C 0.3766(3) 0.1614(5) 0.4818(2)
C79 C 0.3495(3) 0.1917(7) 0.4909(4)
H131 H 0.3549 0.2274 0.4998
H132 H 0.3398 0.1695 0.5055
H133 H 0.3365 0.1976 0.4734
C80 C 0.3982(3) 0.1537(6) 0.5065(3)
H134 H 0.4032 0.1896 0.5153
H135 H 0.4154 0.1364 0.4991
H136 H 0.3902 0.1300 0.5216
C81 C 0.3894(4) 0.0828(8) 0.4259(4)
H137 H 0.3992 0.0592 0.4415
C82 C 0.3844(8) 0.0472(9) 0.3945(10)
H138 H 0.3939 0.0683 0.3790
H139 H 0.3953 0.0124 0.3973
O20 O 0.3646(5) 0.0369(12) 0.3858(4)
Si6 Si 0.3437(4) 0.0043(5) 0.3625(3)
C83 C 0.3125(5) 0.0468(11) 0.3479(5)
H140 H 0.3190 0.0844 0.3439
H141 H 0.2978 0.0479 0.3626
H142 H 0.3043 0.0304 0.3294
C84 C 0.3268(10) -0.0500(16) 0.3858(10)
H143 H 0.3178 -0.0782 0.3729
H144 H 0.3123 -0.0330 0.3978
H145 H 0.3416 -0.0672 0.3990
C85 C 0.3597(7) -0.0137(13) 0.3349(7)
C86 C 0.3695(5) 0.0392(9) 0.3147(5)
H146 H 0.3902 0.0451 0.3179
H147 H 0.3592 0.0723 0.3207
H148 H 0.3648 0.0316 0.2937
C87 C 0.3855(6) -0.0539(12) 0.3433(7)
H149 H 0.4010 -0.0333 0.3539
H150 H 0.3927 -0.0699 0.3252
H151 H 0.3789 -0.0834 0.3561
C88 C 0.3402(8) -0.0461(16) 0.3091(7)
H152 H 0.3526 -0.0596 0.2938
H153 H 0.3259 -0.0207 0.3001
H154 H 0.3305 -0.0773 0.3180
Si7 Si 0.35606(9) 0.13127(14) 0.06156(9)
C89 C 0.35570(17) 0.3238(3) 0.15802(18)
N21 N 0.33968(14) 0.3278(2) 0.18338(14)
H155 H 0.3489 0.3232 0.2008
O21 O 0.29865(10) 0.3397(2) 0.20753(11)
C90 C 0.31504(17) 0.3384(3) 0.13143(16)
N22 N 0.38325(15) 0.3153(3) 0.16206(16)
H156 H 0.3939 0.3120 0.1467
H157 H 0.3912 0.3127 0.1802
O22 O 0.31258(14) 0.2852(2) 0.07042(13)
C91 C 0.29857(16) 0.3451(3) 0.15466(16)
N23 N 0.34394(15) 0.3276(3) 0.13119(15)
O23 O 0.3230(2) 0.4212(3) 0.0512(2)
C92 C 0.31121(16) 0.3383(3) 0.18316(18)
N24 N 0.27035(16) 0.3571(3) 0.14453(15)
O24 O 0.3378(2) 0.3564(4) 0.01943(17)
C93 C 0.27148(19) 0.3578(3) 0.11594(18)
H158 H 0.2553 0.3659 0.1029
N25 N 0.29780(14) 0.3459(3) 0.10614(14)
O25 O 0.34830(17) 0.1907(3) 0.07642(15)
C94 C 0.3058(2) 0.3413(4) 0.07561(18)
H159 H 0.2891 0.3522 0.0621
C95 C 0.3320(3) 0.3746(4) 0.0678(2)
H160 H 0.3438 0.3855 0.0860
C96 C 0.3478(3) 0.3389(5) 0.0492(2)
H161 H 0.3690 0.3431 0.0527
C97 C 0.3316(3) 0.4144(5) 0.0227(3)
C98 C 0.3578(3) 0.4466(7) 0.0182(3)
H162 H 0.3637 0.4411 -0.0021
H163 H 0.3731 0.4344 0.0324
H164 H 0.3539 0.4858 0.0214
C99 C 0.3057(4) 0.4262(8) 0.0031(4)
H165 H 0.3102 0.4211 -0.0177
H166 H 0.2995 0.4642 0.0062
H167 H 0.2902 0.4009 0.0079
C100 C 0.3379(2) 0.2803(4) 0.0542(2)
H168 H 0.3328 0.2626 0.0346
C101 C 0.3592(2) 0.2450(5) 0.0714(2)
H169 H 0.3769 0.2421 0.0603
H170 H 0.3644 0.2627 0.0907
C102 C 0.3920(5) 0.1331(10) 0.0504(5)
H171 H 0.4049 0.1444 0.0672
H172 H 0.3935 0.1596 0.0341
H173 H 0.3976 0.0964 0.0437
C103 C 0.3546(4) 0.0809(7) 0.0946(4)
H174 H 0.3347 0.0772 0.1003
H175 H 0.3665 0.0952 0.1115
H176 H 0.3619 0.0448 0.0889
C104 C 0.3264(4) 0.1103(7) 0.0345(4)
C105 C 0.3299(5) 0.0492(9) 0.0253(5)
H177 H 0.3267 0.0253 0.0424
H178 H 0.3493 0.0433 0.0188
H179 H 0.3159 0.0405 0.0091
C106 C 0.3321(5) 0.1450(9) 0.0044(5)
H180 H 0.3301 0.1845 0.0083
H181 H 0.3181 0.1339 -0.0114
H182 H 0.3515 0.1375 -0.0017
C107 C 0.2997(7) 0.1200(14) 0.0445(7)
H183 H 0.2969 0.0976 0.0622
H184 H 0.2851 0.1103 0.0290
H185 H 0.2979 0.1592 0.0495
Si8 Si 0.10550(9) 0.22380(16) 0.18619(11)
C108 C 0.21761(15) 0.3825(3) 0.20765(18)
N26 N 0.24203(13) 0.3660(3) 0.22479(14)
H186 H 0.2578 0.3590 0.2155
O26 O 0.26576(10) 0.3443(2) 0.26841(11)
C109 C 0.19387(16) 0.3823(3) 0.24877(19)
N27 N 0.22036(16) 0.3895(3) 0.17897(16)
H187 H 0.2054 0.3990 0.1674
H188 H 0.2372 0.3848 0.1714
O27 O 0.12979(13) 0.3475(3) 0.24448(17)
C110 C 0.21637(15) 0.3699(3) 0.26776(17)
N28 N 0.19237(14) 0.3894(3) 0.21968(16)
O28 O 0.12206(18) 0.4889(3) 0.2477(2)
C111 C 0.24303(16) 0.3601(3) 0.25485(18)
N29 N 0.20871(14) 0.3666(3) 0.29708(15)
O29 O 0.08731(14) 0.4402(3) 0.2226(2)
C112 C 0.18155(18) 0.3773(3) 0.2953(2)
H189 H 0.1702 0.3779 0.3121
N30 N 0.17044(14) 0.3879(3) 0.26676(16)
O30 O 0.12971(13) 0.2700(3) 0.19807(19)
C113 C 0.14037(19) 0.3972(3) 0.2579(2)
H190 H 0.1295 0.4054 0.2759
C114 C 0.1356(2) 0.4427(4) 0.2356(2)
H191 H 0.1537 0.4531 0.2262
C115 C 0.1132(2) 0.4212(4) 0.2130(3)
H192 H 0.1167 0.4326 0.1922
C116 C 0.09359(19) 0.4922(5) 0.2365(3)
C117 C 0.0738(5) 0.4996(9) 0.2596(5)
H193 H 0.0542 0.5019 0.2507
H194 H 0.0784 0.5338 0.2704
H195 H 0.0752 0.4683 0.2733
C118 C 0.0910(4) 0.5373(6) 0.2153(4)
H196 H 0.1050 0.5325 0.2001
H197 H 0.0945 0.5724 0.2256
H198 H 0.0716 0.5375 0.2058
C119 C 0.11318(19) 0.3572(4) 0.2174(2)
H199 H 0.0932 0.3425 0.2184
C120 C 0.1290(2) 0.3294(4) 0.1926(3)
H200 H 0.1190 0.3371 0.1731
H201 H 0.1488 0.3440 0.1923
C121 C 0.0753(3) 0.2249(6) 0.2129(4)
H202 H 0.0656 0.2607 0.2117
H203 H 0.0833 0.2190 0.2332
H204 H 0.0616 0.1955 0.2076
C122 C 0.0910(6) 0.2474(12) 0.1483(5)
H205 H 0.0828 0.2845 0.1499
H206 H 0.0760 0.2219 0.1409
H207 H 0.1065 0.2482 0.1346
C123 C 0.1225(3) 0.1547(6) 0.1909(4)
C124 C 0.1024(4) 0.1095(7) 0.1749(5)
H208 H 0.0974 0.1210 0.1544
H209 H 0.0848 0.1055 0.1856
H210 H 0.1125 0.0741 0.1747
C125 C 0.1497(4) 0.1526(7) 0.1718(5)
H211 H 0.1444 0.1638 0.1514
H212 H 0.1573 0.1149 0.1719
H213 H 0.1644 0.1777 0.1803
C126 C 0.1303(3) 0.1394(6) 0.2204(4)
H214 H 0.1133 0.1408 0.2323
H215 H 0.1449 0.1649 0.2288
H216 H 0.1380 0.1018 0.2207
C127 C 0.27040(18) 0.3427(3) 0.35634(18)
N31 N 0.28542(13) 0.3382(3) 0.33074(14)
H217 H 0.2756 0.3419 0.3136
O31 O 0.32627(11) 0.3233(2) 0.30587(11)
C128 C 0.31133(17) 0.3262(3) 0.38198(16)
N32 N 0.24303(14) 0.3541(3) 0.35282(15)
H218 H 0.2326 0.3571 0.3684
H219 H 0.2351 0.3587 0.3349
O32 O 0.30479(14) 0.2644(2) 0.44070(13)
C129 C 0.32763(16) 0.3239(3) 0.35845(17)
N33 N 0.28268(14) 0.3358(3) 0.38247(15)
O33 O 0.31893(15) 0.3932(3) 0.46869(15)
C130 C 0.31475(16) 0.3284(3) 0.33008(17)
N34 N 0.35570(14) 0.3120(3) 0.36770(14)
O34 O 0.28833(18) 0.3409(3) 0.49440(14)
C131 C 0.35560(17) 0.3080(3) 0.3964(2)
H220 H 0.3722 0.2994 0.4087
N35 N 0.32899(15) 0.3174(3) 0.40706(14)
O35 O 0.25474(18) 0.2002(3) 0.42963(16)
C132 C 0.3208(2) 0.3136(4) 0.43767(18)
H221 H 0.3387 0.3108 0.4508
C133 C 0.3039(2) 0.3617(4) 0.44740(19)
H222 H 0.2965 0.3845 0.4302
C134 C 0.2793(2) 0.3343(4) 0.4638(2)
H223 H 0.2606 0.3532 0.4590
C135 C 0.3040(3) 0.3902(4) 0.4962(2)
C136 C 0.2880(4) 0.4406(6) 0.4989(4)
H224 H 0.3012 0.4720 0.4996
H225 H 0.2775 0.4396 0.5171
H226 H 0.2743 0.4444 0.4817
C137 C 0.3267(4) 0.3847(6) 0.5228(3)
H227 H 0.3382 0.4184 0.5245
H228 H 0.3392 0.3532 0.5194
H229 H 0.3168 0.3790 0.5412
C138 C 0.2777(2) 0.2740(4) 0.45581(19)
H230 H 0.2780 0.2516 0.4744
Si9 Si 0.23646(9) 0.15153(16) 0.44530(9)
C139 C 0.2535(2) 0.2573(4) 0.4366(2)
H231 H 0.2355 0.2651 0.4464
H232 H 0.2533 0.2790 0.4180
C140 C 0.2033(5) 0.1411(13) 0.4182(5)
H233 H 0.1920 0.1752 0.4170
H234 H 0.1914 0.1111 0.4254
H235 H 0.2096 0.1317 0.3984
C141 C 0.2287(8) 0.1676(18) 0.4819(5)
H236 H 0.2180 0.2022 0.4822
H237 H 0.2467 0.1715 0.4941
H238 H 0.2172 0.1379 0.4900
C142 C 0.2552(4) 0.0915(6) 0.4423(4)
C143 C 0.2525(6) 0.0741(11) 0.4072(4)
H239 H 0.2322 0.0723 0.4005
H240 H 0.2614 0.0379 0.4047
H241 H 0.2623 0.1016 0.3955
C144 C 0.2876(4) 0.0918(12) 0.4466(6)
H242 H 0.2953 0.1228 0.4356
H243 H 0.2953 0.0571 0.4391
H244 H 0.2932 0.0957 0.4677
C145 C 0.2432(4) 0.0410(7) 0.4593(4)
H245 H 0.2222 0.0425 0.4583
H246 H 0.2504 0.0421 0.4801
H247 H 0.2495 0.0067 0.4501
Si10 Si 0.48979(10) 0.09973(14) 0.33130(9)
C146 C 0.41044(15) 0.3103(3) 0.30716(16)
N36 N 0.38517(12) 0.3137(3) 0.28931(14)
H248 H 0.3690 0.3171 0.2983
O36 O 0.35932(11) 0.3146(2) 0.24503(11)
C147 C 0.43390(14) 0.3034(3) 0.26590(17)
N37 N 0.40851(14) 0.3129(3) 0.33594(14)
H249 H 0.4241 0.3107 0.3478
H250 H 0.3916 0.3169 0.3435
O37 O 0.48986(13) 0.2319(2) 0.26969(14)
C148 C 0.41071(16) 0.3069(3) 0.24675(16)
N38 N 0.43529(13) 0.3044(3) 0.29559(15)
O38 O 0.51920(14) 0.3608(3) 0.27205(17)
C149 C 0.38331(17) 0.3122(3) 0.25865(16)
N39 N 0.41789(15) 0.3034(3) 0.21759(15)
O39 O 0.54190(13) 0.2953(3) 0.29937(17)
C150 C 0.44533(18) 0.2961(3) 0.21934(18)
H251 H 0.4564 0.2916 0.2025
N40 N 0.45716(13) 0.2952(3) 0.24848(15)
O40 O 0.47514(14) 0.1533(3) 0.31471(16)
C151 C 0.48686(18) 0.2866(3) 0.25823(19)
H252 H 0.4991 0.2906 0.2408
C152 C 0.4980(2) 0.3264(4) 0.2830(2)
H253 H 0.4821 0.3477 0.2916
C153 C 0.51331(18) 0.2903(3) 0.3052(2)
H254 H 0.5097 0.3017 0.3260
C154 C 0.5454(2) 0.3484(4) 0.2881(3)
C155 C 0.5509(4) 0.3905(5) 0.3123(3)
H255 H 0.5533 0.4269 0.3034
H256 H 0.5684 0.3807 0.3241
H257 H 0.5346 0.3913 0.3251
C156 C 0.5680(3) 0.3469(8) 0.2646(5)
H258 H 0.5702 0.3839 0.2563
H259 H 0.5618 0.3213 0.2487
H260 H 0.5864 0.3346 0.2738
C157 C 0.50304(17) 0.2311(3) 0.2988(2)
H261 H 0.5202 0.2065 0.2988
C158 C 0.4829(2) 0.2089(4) 0.3212(2)
H262 H 0.4924 0.2110 0.3413
H263 H 0.4654 0.2320 0.3209
C159 C 0.5287(4) 0.0974(12) 0.3241(6)
H264 H 0.5311 0.0992 0.3027
H265 H 0.5370 0.0629 0.3320
H266 H 0.5385 0.1288 0.3339
C160 C 0.4837(5) 0.0944(9) 0.3690(4)
H267 H 0.4896 0.1286 0.3791
H268 H 0.4948 0.0635 0.3776
H269 H 0.4632 0.0880 0.3714
C161 C 0.4817(5) 0.0415(11) 0.3093(6)
C162 C 0.4490(5) 0.0245(13) 0.3123(7)
H270 H 0.4473 0.0025 0.3304
H271 H 0.4423 0.0027 0.2950
H272 H 0.4372 0.0578 0.3135
C163 C 0.4983(5) -0.0135(8) 0.3205(5)
H273 H 0.4955 -0.0192 0.3416
H274 H 0.5189 -0.0095 0.3175
H275 H 0.4907 -0.0452 0.3091
C164 C 0.4866(7) 0.0484(13) 0.2768(5)
H276 H 0.5067 0.0580 0.2743
H277 H 0.4742 0.0779 0.2686
H278 H 0.4820 0.0138 0.2663
Ba2 Ba 0.329726(9) 0.53924(2) 0.263448(9)
C165 C 0.2676(6) 0.8428(12) 0.4649(6)
H279 H 0.2469 0.8418 0.4694
Cl1 Cl 0.28208(17) 0.7715(4) 0.4619(2)
Cl2 Cl 0.2717(3) 0.8748(4) 0.4348(2)
Cl3 Cl 0.28807(18) 0.8743(6) 0.4943(3)
N41 N 0.5000 0.4831(13) 0.5000
C166 C 0.5000 0.4385(16) 0.5000
C167 C 0.5000 0.3787(13) 0.5000
N42 N 0.5857(6) 0.5377(14) 0.4082(7)
C168 C 0.5793(7) 0.5604(14) 0.3820(8)
C169 C 0.5745(7) 0.5456(17) 0.3479(7)
H283 H 0.5841 0.5107 0.3438
H284 H 0.5824 0.5749 0.3359
H285 H 0.5539 0.5420 0.3428
N43 N 0.1117(10) 0.3122(16) 0.0510(10)
C171 C 0.1268(8) 0.2639(15) 0.0529(7)
C172 C 0.1333(10) 0.2177(16) 0.0307(10)
H289 H 0.1211 0.2223 0.0125
H290 H 0.1295 0.1818 0.0397
H291 H 0.1535 0.2197 0.0260
C173 C 0.15232(14) 0.4776(3) 0.14416(17)
C174 C 0.13595(18) 0.5249(3) 0.14715(19)
C175 C 0.10921(19) 0.5293(4) 0.1322(3)
H292 H 0.0980 0.5617 0.1342
C176 C 0.09885(17) 0.4864(5) 0.1142(3)
C177 C 0.1152(2) 0.4391(4) 0.1112(2)
H293 H 0.1081 0.4097 0.0990
C178 C 0.14196(19) 0.4347(3) 0.12621(19)
O41 O 0.17536(16) 0.4710(3) 0.15918(17)
N44 N 0.1468(3) 0.5718(4) 0.1654(3)
O42 O 0.1629(2) 0.5655(4) 0.1856(3)
O43 O 0.1335(5) 0.6165(9) 0.1604(4)
O44 O 0.0685(4) 0.4847(12) 0.1055(8)
O45 O 0.1420(3) 0.3434(5) 0.1157(3)
N45 N 0.1561(3) 0.3863(4) 0.1214(2)
O46 O 0.1818(2) 0.3845(3) 0.1235(2)
C179 C 0.0548(7) 0.521(2) 0.0912(13)
H294 H 0.0574 0.5568 0.1015
H295 H 0.0344 0.5118 0.0897
H296 H 0.0619 0.5242 0.0712
C180 C 0.21244(18) 0.4241(4) 0.4231(2)
O47 O 0.23121(15) 0.4120(3) 0.40605(15)
C181 C 0.2134(2) 0.4704(4) 0.4431(2)
N46 N 0.2368(2) 0.5066(4) 0.44351(19)
O48 O 0.2597(2) 0.4936(4) 0.43206(19)
C182 C 0.1907(3) 0.4822(5) 0.4623(3)
H297 H 0.1923 0.5137 0.4748
O49 O 0.2353(2) 0.5518(4) 0.4566(3)
C183 C 0.1673(3) 0.4498(5) 0.4632(3)
O50 O 0.1450(2) 0.4571(4) 0.4806(3)
C184 C 0.1663(3) 0.4021(4) 0.4460(3)
H298 H 0.1508 0.3772 0.4475
O51 O 0.1764(2) 0.2995(4) 0.4194(2)
C185 C 0.1871(2) 0.3904(4) 0.4270(2)
N47 N 0.18330(19) 0.3433(4) 0.4075(2)
O52 O 0.18533(17) 0.3488(3) 0.38125(19)
C186 C 0.1475(4) 0.5068(8) 0.4992(4)
H299 H 0.1658 0.5061 0.5109
H300 H 0.1317 0.5078 0.5126
H301 H 0.1467 0.5396 0.4865
O53 O 0.6099(12) 0.338(2) 0.4148(12)
O55 O 0.6007(9) 0.2858(17) 0.3507(9)
O56 O 0.1259(14) 0.019(3) 0.0570(14)
Si3? Si 0.2281(5) 0.0431(8) 0.1175(5)
C39? C 0.2662(6) 0.0634(16) 0.1232(9)
H63? H 0.2681 0.1031 0.1195
H64? H 0.2777 0.0429 0.1095
H65? H 0.2729 0.0552 0.1437
C40? C 0.2077(14) 0.083(3) 0.1486(10)
H66? H 0.2135 0.1216 0.1490
H67? H 0.2125 0.0660 0.1680
H68? H 0.1869 0.0803 0.1442
C41? C 0.2150(8) -0.0214(10) 0.1182(8)
C42? C 0.2365(11) -0.0709(14) 0.1179(15)
H69? H 0.2527 -0.0639 0.1321
H70? H 0.2435 -0.0751 0.0980
H71? H 0.2267 -0.1048 0.1235
C43? C 0.1909(9) -0.0370(18) 0.0932(11)
H72? H 0.1771 -0.0066 0.0908
H73? H 0.1809 -0.0705 0.0991
H74? H 0.1998 -0.0435 0.0744
C44? C 0.1981(17) -0.034(3) 0.1481(11)
H75? H 0.1829 -0.0065 0.1500
H76? H 0.2117 -0.0319 0.1654
H77? H 0.1897 -0.0708 0.1468
Si5? Si 0.1683(2) 0.0378(4) 0.3394(2)
C64? C 0.2062(3) 0.0623(9) 0.3308(4)
H109? H 0.2134 0.0397 0.3148
H110? H 0.2190 0.0587 0.3486
H111? H 0.2054 0.1010 0.3245
C65? C 0.1640(7) 0.0320(16) 0.3783(5)
H112? H 0.1556 0.0661 0.3856
H113? H 0.1827 0.0257 0.3886
H114? H 0.1512 0.0010 0.3820
C66? C 0.1666(5) -0.0343(9) 0.3382(5)
C67? C 0.1408(7) -0.0622(14) 0.3496(10)
H115? H 0.1407 -0.1011 0.3437
H116? H 0.1233 -0.0443 0.3412
H117? H 0.1414 -0.0595 0.3713
C68? C 0.1947(6) -0.0643(13) 0.3515(9)
H118? H 0.2032 -0.0425 0.3680
H119? H 0.2085 -0.0681 0.3360
H120? H 0.1896 -0.1010 0.3587
C69? C 0.1680(11) -0.0510(16) 0.3029(6)
H121? H 0.1615 -0.0891 0.3000
H122? H 0.1878 -0.0476 0.2969
H123? H 0.1556 -0.0262 0.2908
H280? H 0.4819 0.3652 0.5072
H281? H 0.5160 0.3652 0.5130
H282? H 0.5021 0.3652 0.4798
C170? C 0.5675(9) 0.5802(19) 0.3553(9)
H286? H 0.5567 0.5508 0.3449
H287? H 0.5829 0.5928 0.3430
H288? H 0.5547 0.6110 0.3591
O54? O 0.6232(13) 0.382(3) 0.4290(13)
loop_
_geom_bond_atom_site_label_1
_geom_bond_atom_site_label_2
_geom_bond_site_symmetry_1
_geom_bond_site_symmetry_2
Si1 O5 1_555 1_555
C1 N1 1_555 1_555
N1 H1 1_555 1_555
O1 C4 1_555 1_555
C2 C3 1_555 1_555
N2 C1 1_555 1_555
H2 N2 1_555 1_555
H3 N2 1_555 1_555
O2 C6 1_555 1_555
C3 C4 1_555 1_555
N3 C1 1_555 1_555
O3 C7 1_555 1_555
C4 N1 1_555 1_555
N4 C3 1_555 1_555
O4 C8 1_555 1_555
C5 N4 1_555 1_555
H4 C5 1_555 1_555
N5 C2 1_555 1_555
O5 C13 1_555 1_555
C6 N5 1_555 1_555
H5 C6 1_555 1_555
C7 C6 1_555 1_555
H6 C7 1_555 1_555
C8 C7 1_555 1_555
H7 C8 1_555 1_555
C9 O3 1_555 1_555
C10 C9 1_555 1_555
H8 C10 1_555 1_555
H9 C10 1_555 1_555
H10 C10 1_555 1_555
C11 C9 1_555 1_555
H11 C11 1_555 1_555
H12 C11 1_555 1_555
H13 C11 1_555 1_555
C12 O2 1_555 1_555
H14 C12 1_555 1_555
C13 C12 1_555 1_555
H15 C13 1_555 1_555
H16 C13 1_555 1_555
C14 Si1 1_555 1_555
H17 C14 1_555 1_555
H18 C14 1_555 1_555
H19 C14 1_555 1_555
C15 Si1 1_555 1_555
H20 C15 1_555 1_555
H21 C15 1_555 1_555
H22 C15 1_555 1_555
C16 Si1 1_555 1_555
C17 C16 1_555 1_555
H23 C17 1_555 1_555
H24 C17 1_555 1_555
H25 C17 1_555 1_555
C18 C16 1_555 1_555
H26 C18 1_555 1_555
H27 C18 1_555 1_555
H28 C18 1_555 1_555
C19 C16 1_555 1_555
H29 C19 1_555 1_555
H30 C19 1_555 1_555
H31 C19 1_555 1_555
C20 N6 1_555 1_555
N6 H32 1_555 1_555
O6 C23 1_555 1_555
C21 C22 1_555 1_555
N7 C20 1_555 1_555
H33 N7 1_555 1_555
H34 N7 1_555 1_555
O7 C25 1_555 1_555
C22 C23 1_555 1_555
N8 C20 1_555 1_555
O8 C26 1_555 1_555
C23 N6 1_555 1_555
N9 C22 1_555 1_555
O9 C27 1_555 1_555
C24 N9 1_555 1_555
H35 C24 1_555 1_555
N10 C21 1_555 1_555
O10 C32 1_555 1_555
C25 N10 1_555 1_555
H36 C25 1_555 1_555
C26 C25 1_555 1_555
H37 C26 1_555 1_555
C27 C26 1_555 1_555
H38 C27 1_555 1_555
C28 O8 1_555 1_555
C29 C28 1_555 1_555
H39 C29 1_555 1_555
H40 C29 1_555 1_555
H41 C29 1_555 1_555
C30 C28 1_555 1_555
H42 C30 1_555 1_555
H43 C30 1_555 1_555
H44 C30 1_555 1_555
C31 O7 1_555 1_555
H45 C31 1_555 1_555
C32 C31 1_555 1_555
H46 C32 1_555 1_555
H47 C32 1_555 1_555
Si2 O10 1_555 1_555
C33 Si2 1_555 1_555
H48 C33 1_555 1_555
H49 C33 1_555 1_555
H50 C33 1_555 1_555
C34 Si2 1_555 1_555
H51 C34 1_555 1_555
H52 C34 1_555 1_555
H53 C34 1_555 1_555
C35 Si2 1_555 1_555
C36 C35 1_555 1_555
H54 C36 1_555 1_555
H55 C36 1_555 1_555
H56 C36 1_555 1_555
C37 C35 1_555 1_555
H57 C37 1_555 1_555
H58 C37 1_555 1_555
H59 C37 1_555 1_555
C38 C35 1_555 1_555
H60 C38 1_555 1_555
H61 C38 1_555 1_555
H62 C38 1_555 1_555
C45 N11 1_555 1_555
N11 H78 1_555 1_555
O11 C48 1_555 1_555
C46 C47 1_555 1_555
N12 C45 1_555 1_555
H79 N12 1_555 1_555
H80 N12 1_555 1_555
O12 C50 1_555 1_555
C47 C48 1_555 1_555
N13 C45 1_555 1_555
O13 C51 1_555 1_555
C48 N11 1_555 1_555
N14 C47 1_555 1_555
O14 C52 1_555 1_555
C49 N14 1_555 1_555
H81 C49 1_555 1_555
N15 C46 1_555 1_555
O15 C57 1_555 1_555
C50 N15 1_555 1_555
H82 C50 1_555 1_555
C51 C50 1_555 1_555
H83 C51 1_555 1_555
C52 C51 1_555 1_555
H84 C52 1_555 1_555
C53 O13 1_555 1_555
C54 C53 1_555 1_555
H85 C54 1_555 1_555
H86 C54 1_555 1_555
H87 C54 1_555 1_555
C55 C53 1_555 1_555
H88 C55 1_555 1_555
H89 C55 1_555 1_555
H90 C55 1_555 1_555
C56 O12 1_555 1_555
H91 C56 1_555 1_555
C57 C56 1_555 1_555
H92 C57 1_555 1_555
H93 C57 1_555 1_555
Si4 O15 1_555 1_555
C58 Si4 1_555 1_555
H94 C58 1_555 1_555
H95 C58 1_555 1_555
H96 C58 1_555 1_555
C59 Si4 1_555 1_555
H97 C59 1_555 1_555
H98 C59 1_555 1_555
H99 C59 1_555 1_555
C60 Si4 1_555 1_555
C61 C60 1_555 1_555
H100 C61 1_555 1_555
H101 C61 1_555 1_555
H102 C61 1_555 1_555
C62 C60 1_555 1_555
H103 C62 1_555 1_555
H104 C62 1_555 1_555
H105 C62 1_555 1_555
C63 C60 1_555 1_555
H106 C63 1_555 1_555
H107 C63 1_555 1_555
H108 C63 1_555 1_555
C70 N16 1_555 1_555
N16 H124 1_555 1_555
O16 C73 1_555 1_555
C71 C72 1_555 1_555
N17 C70 1_555 1_555
H125 N17 1_555 1_555
H126 N17 1_555 1_555
O17 C75 1_555 1_555
C72 C73 1_555 1_555
N18 C70 1_555 1_555
O18 C76 1_555 1_555
C73 N16 1_555 1_555
N19 C72 1_555 1_555
O19 C77 1_555 1_555
C74 N19 1_555 1_555
H127 C74 1_555 1_555
N20 C71 1_555 1_555
C75 N20 1_555 1_555
H128 C75 1_555 1_555
C76 C75 1_555 1_555
H129 C76 1_555 1_555
C77 C76 1_555 1_555
H130 C77 1_555 1_555
C78 O18 1_555 1_555
C79 C78 1_555 1_555
H131 C79 1_555 1_555
H132 C79 1_555 1_555
H133 C79 1_555 1_555
C80 C78 1_555 1_555
H134 C80 1_555 1_555
H135 C80 1_555 1_555
H136 C80 1_555 1_555
C81 O17 1_555 1_555
H137 C81 1_555 1_555
C82 C81 1_555 1_555
H138 C82 1_555 1_555
H139 C82 1_555 1_555
O20 C82 1_555 1_555
Si6 O20 1_555 1_555
C83 Si6 1_555 1_555
H140 C83 1_555 1_555
H141 C83 1_555 1_555
H142 C83 1_555 1_555
C84 Si6 1_555 1_555
H143 C84 1_555 1_555
H144 C84 1_555 1_555
H145 C84 1_555 1_555
C85 Si6 1_555 1_555
C86 C85 1_555 1_555
H146 C86 1_555 1_555
H147 C86 1_555 1_555
H148 C86 1_555 1_555
C87 C85 1_555 1_555
H149 C87 1_555 1_555
H150 C87 1_555 1_555
H151 C87 1_555 1_555
C88 C85 1_555 1_555
H152 C88 1_555 1_555
H153 C88 1_555 1_555
H154 C88 1_555 1_555
Si7 O25 1_555 1_555
C89 N21 1_555 1_555
N21 H155 1_555 1_555
O21 C92 1_555 1_555
C90 C91 1_555 1_555
N22 C89 1_555 1_555
H156 N22 1_555 1_555
H157 N22 1_555 1_555
O22 C94 1_555 1_555
C91 C92 1_555 1_555
N23 C89 1_555 1_555
O23 C95 1_555 1_555
C92 N21 1_555 1_555
N24 C91 1_555 1_555
O24 C96 1_555 1_555
C93 N24 1_555 1_555
H158 C93 1_555 1_555
N25 C90 1_555 1_555
O25 C101 1_555 1_555
C94 N25 1_555 1_555
H159 C94 1_555 1_555
C95 C94 1_555 1_555
H160 C95 1_555 1_555
C96 C95 1_555 1_555
H161 C96 1_555 1_555
C97 O23 1_555 1_555
C98 C97 1_555 1_555
H162 C98 1_555 1_555
H163 C98 1_555 1_555
H164 C98 1_555 1_555
C99 C97 1_555 1_555
H165 C99 1_555 1_555
H166 C99 1_555 1_555
H167 C99 1_555 1_555
C100 O22 1_555 1_555
H168 C100 1_555 1_555
C101 C100 1_555 1_555
H169 C101 1_555 1_555
H170 C101 1_555 1_555
C102 Si7 1_555 1_555
H171 C102 1_555 1_555
H172 C102 1_555 1_555
H173 C102 1_555 1_555
C103 Si7 1_555 1_555
H174 C103 1_555 1_555
H175 C103 1_555 1_555
H176 C103 1_555 1_555
C104 Si7 1_555 1_555
C105 C104 1_555 1_555
H177 C105 1_555 1_555
H178 C105 1_555 1_555
H179 C105 1_555 1_555
C106 C104 1_555 1_555
H180 C106 1_555 1_555
H181 C106 1_555 1_555
H182 C106 1_555 1_555
C107 C104 1_555 1_555
H183 C107 1_555 1_555
H184 C107 1_555 1_555
H185 C107 1_555 1_555
Si8 O30 1_555 1_555
C108 N26 1_555 1_555
N26 H186 1_555 1_555
O26 C111 1_555 1_555
C109 C110 1_555 1_555
N27 C108 1_555 1_555
H187 N27 1_555 1_555
H188 N27 1_555 1_555
O27 C113 1_555 1_555
C110 C111 1_555 1_555
N28 C108 1_555 1_555
O28 C114 1_555 1_555
C111 N26 1_555 1_555
N29 C110 1_555 1_555
O29 C115 1_555 1_555
C112 N29 1_555 1_555
H189 C112 1_555 1_555
N30 C109 1_555 1_555
O30 C120 1_555 1_555
C113 N30 1_555 1_555
H190 C113 1_555 1_555
C114 C113 1_555 1_555
H191 C114 1_555 1_555
C115 C114 1_555 1_555
H192 C115 1_555 1_555
C116 O28 1_555 1_555
C117 C116 1_555 1_555
H193 C117 1_555 1_555
H194 C117 1_555 1_555
H195 C117 1_555 1_555
C118 C116 1_555 1_555
H196 C118 1_555 1_555
H197 C118 1_555 1_555
H198 C118 1_555 1_555
C119 O27 1_555 1_555
H199 C119 1_555 1_555
C120 C119 1_555 1_555
H200 C120 1_555 1_555
H201 C120 1_555 1_555
C121 Si8 1_555 1_555
H202 C121 1_555 1_555
H203 C121 1_555 1_555
H204 C121 1_555 1_555
C122 Si8 1_555 1_555
H205 C122 1_555 1_555
H206 C122 1_555 1_555
H207 C122 1_555 1_555
C123 Si8 1_555 1_555
C124 C123 1_555 1_555
H208 C124 1_555 1_555
H209 C124 1_555 1_555
H210 C124 1_555 1_555
C125 C123 1_555 1_555
H211 C125 1_555 1_555
H212 C125 1_555 1_555
H213 C125 1_555 1_555
C126 C123 1_555 1_555
H214 C126 1_555 1_555
H215 C126 1_555 1_555
H216 C126 1_555 1_555
C127 N31 1_555 1_555
N31 H217 1_555 1_555
O31 C130 1_555 1_555
C128 C129 1_555 1_555
N32 C127 1_555 1_555
H218 N32 1_555 1_555
H219 N32 1_555 1_555
O32 C132 1_555 1_555
C129 C130 1_555 1_555
N33 C127 1_555 1_555
O33 C133 1_555 1_555
C130 N31 1_555 1_555
N34 C129 1_555 1_555
O34 C134 1_555 1_555
C131 N34 1_555 1_555
H220 C131 1_555 1_555
N35 C128 1_555 1_555
O35 Si9 1_555 1_555
C132 N35 1_555 1_555
H221 C132 1_555 1_555
C133 C132 1_555 1_555
H222 C133 1_555 1_555
C134 C133 1_555 1_555
H223 C134 1_555 1_555
C135 O33 1_555 1_555
C136 C135 1_555 1_555
H224 C136 1_555 1_555
H225 C136 1_555 1_555
H226 C136 1_555 1_555
C137 C135 1_555 1_555
H227 C137 1_555 1_555
H228 C137 1_555 1_555
H229 C137 1_555 1_555
C138 O32 1_555 1_555
H230 C138 1_555 1_555
Si9 C140 1_555 1_555
C139 O35 1_555 1_555
H231 C139 1_555 1_555
H232 C139 1_555 1_555
C140 H233 1_555 1_555
H234 C140 1_555 1_555
H235 C140 1_555 1_555
C141 Si9 1_555 1_555
H236 C141 1_555 1_555
H237 C141 1_555 1_555
H238 C141 1_555 1_555
C142 Si9 1_555 1_555
C143 C142 1_555 1_555
H239 C143 1_555 1_555
H240 C143 1_555 1_555
H241 C143 1_555 1_555
C144 C142 1_555 1_555
H242 C144 1_555 1_555
H243 C144 1_555 1_555
H244 C144 1_555 1_555
C145 C142 1_555 1_555
H245 C145 1_555 1_555
H246 C145 1_555 1_555
H247 C145 1_555 1_555
Si10 O40 1_555 1_555
C146 N36 1_555 1_555
N36 H248 1_555 1_555
O36 C149 1_555 1_555
C147 C148 1_555 1_555
N37 C146 1_555 1_555
H249 N37 1_555 1_555
H250 N37 1_555 1_555
O37 C151 1_555 1_555
C148 C149 1_555 1_555
N38 C146 1_555 1_555
O38 C152 1_555 1_555
C149 N36 1_555 1_555
N39 C148 1_555 1_555
O39 C153 1_555 1_555
C150 N39 1_555 1_555
H251 C150 1_555 1_555
N40 C147 1_555 1_555
O40 C158 1_555 1_555
C151 N40 1_555 1_555
H252 C151 1_555 1_555
C152 C151 1_555 1_555
H253 C152 1_555 1_555
C153 C152 1_555 1_555
H254 C153 1_555 1_555
C154 O38 1_555 1_555
C155 C154 1_555 1_555
H255 C155 1_555 1_555
H256 C155 1_555 1_555
H257 C155 1_555 1_555
C156 C154 1_555 1_555
H258 C156 1_555 1_555
H259 C156 1_555 1_555
H260 C156 1_555 1_555
C157 O37 1_555 1_555
H261 C157 1_555 1_555
C158 C157 1_555 1_555
H262 C158 1_555 1_555
H263 C158 1_555 1_555
C159 Si10 1_555 1_555
H264 C159 1_555 1_555
H265 C159 1_555 1_555
H266 C159 1_555 1_555
C160 Si10 1_555 1_555
H267 C160 1_555 1_555
H268 C160 1_555 1_555
H269 C160 1_555 1_555
C161 Si10 1_555 1_555
C162 C161 1_555 1_555
H270 C162 1_555 1_555
H271 C162 1_555 1_555
H272 C162 1_555 1_555
C163 C161 1_555 1_555
H273 C163 1_555 1_555
H274 C163 1_555 1_555
H275 C163 1_555 1_555
C164 C161 1_555 1_555
H276 C164 1_555 1_555
H277 C164 1_555 1_555
H278 C164 1_555 1_555
C165 H279 1_555 1_555
Cl1 C165 1_555 1_555
Cl2 C165 1_555 1_555
Cl3 C165 1_555 1_555
N41 C166 1_555 1_555
C166 C167 1_555 1_555
N42 C168 1_555 1_555
C168 C169 1_555 1_555
C169 H283 1_555 1_555
H284 C169 1_555 1_555
H285 C169 1_555 1_555
N43 C171 1_555 1_555
C171 C172 1_555 1_555
C172 H289 1_555 1_555
H290 C172 1_555 1_555
H291 C172 1_555 1_555
C173 C174 1_555 1_555
C174 C175 1_555 1_555
C175 H292 1_555 1_555
C176 C175 1_555 1_555
C177 C176 1_555 1_555
H293 C177 1_555 1_555
C178 C173 1_555 1_555
O41 C173 1_555 1_555
N44 C174 1_555 1_555
O42 N44 1_555 1_555
O43 N44 1_555 1_555
O44 C176 1_555 1_555
O45 N45 1_555 1_555
N45 C178 1_555 1_555
O46 N45 1_555 1_555
C179 O44 1_555 1_555
H294 C179 1_555 1_555
H295 C179 1_555 1_555
H296 C179 1_555 1_555
C180 O47 1_555 1_555
C181 C180 1_555 1_555
N46 C181 1_555 1_555
O48 N46 1_555 1_555
C182 C181 1_555 1_555
H297 C182 1_555 1_555
O49 N46 1_555 1_555
C183 C182 1_555 1_555
O50 C183 1_555 1_555
C184 C183 1_555 1_555
H298 C184 1_555 1_555
O51 N47 1_555 1_555
C185 C180 1_555 1_555
N47 C185 1_555 1_555
O52 N47 1_555 1_555
C186 O50 1_555 1_555
H299 C186 1_555 1_555
H300 C186 1_555 1_555
H301 C186 1_555 1_555
C2 N3 1_555 1_555
O4 C9 1_555 1_555
C5 N5 1_555 1_555
C8 C12 1_555 1_555
C21 N8 1_555 1_555
O9 C28 1_555 1_555
C24 N10 1_555 1_555
C27 C31 1_555 1_555
C46 N13 1_555 1_555
O14 C53 1_555 1_555
C49 N15 1_555 1_555
C52 C56 1_555 1_555
C71 N18 1_555 1_555
O19 C78 1_555 1_555
C74 N20 1_555 1_555
C77 C81 1_555 1_555
C90 N23 1_555 1_555
O24 C97 1_555 1_555
C93 N25 1_555 1_555
C96 C100 1_555 1_555
C109 N28 1_555 1_555
O29 C116 1_555 1_555
C112 N30 1_555 1_555
C115 C119 1_555 1_555
C128 N33 1_555 1_555
O34 C135 1_555 1_555
C131 N35 1_555 1_555
C134 C138 1_555 1_555
C138 C139 1_555 1_555
C147 N38 1_555 1_555
O39 C154 1_555 1_555
C150 N40 1_555 1_555
C153 C157 1_555 1_555
C177 C178 1_555 1_555
C184 C185 1_555 1_555

#END
