
#######################################################################
#
#                 Cambridge Crystallographic Data Centre
#                                CCDC 
#
#######################################################################
#
# If this CIF has been generated from an entry in the Cambridge 
# Structural Database, then it will include bibliographic, chemical, 
# crystal, experimental, refinement or atomic coordinate data resulting 
# from the CCDC's data processing and validation procedures.
#
#######################################################################

data_OLEFAO
_chemical_formula_moiety         'C23 H21 N1 O3 S1'
_chemical_name_systematic        
2-(3-Methylphenyl)-N-((4-methylphenyl)sulfonyl)-3-phenylacrylamide
_symmetry_cell_setting           triclinic
_symmetry_space_group_name_H-M   'P -1'
_symmetry_Int_Tables_number      2
_space_group_name_Hall           '-P 1'
loop_
_symmetry_equiv_pos_site_id
_symmetry_equiv_pos_as_xyz
1 x,y,z
2 -x,-y,-z
_cell_length_a                   9.2595(10)
_cell_length_b                   10.1158(11)
_cell_length_c                   11.9271(12)
_cell_angle_alpha                72.396(1)
_cell_angle_beta                 67.518(1)
_cell_angle_gamma                79.346(1)
_cell_volume                     980.887
_exptl_crystal_colour            colorless
_exptl_crystal_description       block
_cell_formula_units_Z            2
loop_
_atom_site_label
_atom_site_type_symbol
_atom_site_fract_x
_atom_site_fract_y
_atom_site_fract_z
S1 S 0.95790(5) 0.26449(4) 0.05551(4)
O1 O 1.04900(15) 0.37065(13) -0.04088(12)
O2 O 0.90276(16) 0.16492(14) 0.02290(13)
O3 O 0.68817(16) 0.16464(13) 0.28061(14)
N1 N 0.80466(16) 0.35319(15) 0.13653(14)
C1 C 1.3053(3) -0.0307(3) 0.4111(2)
C2 C 1.2199(2) 0.0429(2) 0.32171(19)
C3 C 1.1116(3) -0.0221(2) 0.3086(3)
C4 C 1.0318(3) 0.0434(2) 0.2278(2)
C5 C 1.05970(19) 0.17789(17) 0.15828(17)
C6 C 1.1700(3) 0.2442(2) 0.1675(2)
C7 C 1.2484(3) 0.1761(2) 0.2490(2)
C8 C 0.68331(19) 0.28973(18) 0.24058(16)
C9 C 0.55006(18) 0.38643(17) 0.29569(16)
C10 C 0.44805(19) 0.32908(18) 0.40848(16)
C11 C 0.3048(2) 0.39036(19) 0.48921(16)
C12 C 0.1949(2) 0.2998(2) 0.57903(18)
C13 C 0.0586(3) 0.3480(3) 0.6607(2)
C14 C 0.0297(2) 0.4866(3) 0.6551(2)
C15 C 0.1372(3) 0.5781(2) 0.5689(2)
C16 C 0.2740(2) 0.5309(2) 0.48597(18)
C17 C 0.52982(18) 0.53233(17) 0.22211(15)
C18 C 0.60582(19) 0.63895(17) 0.22063(16)
C19 C 0.5787(2) 0.77626(19) 0.15814(18)
C20 C 0.4696(3) 0.8034(2) 0.0996(2)
C21 C 0.3957(3) 0.6992(3) 0.0975(3)
C22 C 0.4264(2) 0.5634(2) 0.1573(2)
C23 C 0.6632(3) 0.8906(2) 0.1559(2)
H1 H 0.80020 0.44260 0.11300
H2 H 1.23480 -0.03780 0.49580
H3 H 1.39150 0.02090 0.39490
H4 H 1.34430 -0.12220 0.39960
H5 H 1.09170 -0.11290 0.35580
H6 H 0.95940 -0.00300 0.22020
H7 H 1.19150 0.33430 0.11900
H8 H 1.32280 0.22150 0.25500
H9 H 0.47200 0.23520 0.44070
H10 H 0.21380 0.20500 0.58400
H11 H -0.01370 0.28600 0.71960
H12 H -0.06280 0.51920 0.70970
H13 H 0.11800 0.67230 0.56630
H14 H 0.34570 0.59370 0.42760
H15 H 0.67690 0.61820 0.26250
H16 H 0.44570 0.89480 0.06040
H17 H 0.32450 0.72020 0.05570
H18 H 0.37780 0.49260 0.15420
H19 H 0.74480 0.91580 0.07570
H20 H 0.70830 0.85900 0.22060
H21 H 0.59060 0.97000 0.16980
loop_
_geom_bond_atom_site_label_1
_geom_bond_atom_site_label_2
_geom_bond_site_symmetry_1
_geom_bond_site_symmetry_2
S1 O1 1_555 1_555
O2 S1 1_555 1_555
O3 C8 1_555 1_555
N1 S1 1_555 1_555
C1 C2 1_555 1_555
C2 C3 1_555 1_555
C3 C4 1_555 1_555
C4 C5 1_555 1_555
C5 S1 1_555 1_555
C6 C5 1_555 1_555
C7 C2 1_555 1_555
C8 N1 1_555 1_555
C9 C8 1_555 1_555
C10 C9 1_555 1_555
C11 C10 1_555 1_555
C12 C11 1_555 1_555
C13 C12 1_555 1_555
C14 C13 1_555 1_555
C15 C14 1_555 1_555
C16 C11 1_555 1_555
C17 C9 1_555 1_555
C18 C17 1_555 1_555
C19 C18 1_555 1_555
C20 C19 1_555 1_555
C21 C20 1_555 1_555
C22 C17 1_555 1_555
C23 C19 1_555 1_555
H1 N1 1_555 1_555
H2 C1 1_555 1_555
H3 C1 1_555 1_555
H4 C1 1_555 1_555
H5 C3 1_555 1_555
H6 C4 1_555 1_555
H7 C6 1_555 1_555
H8 C7 1_555 1_555
H9 C10 1_555 1_555
H10 C12 1_555 1_555
H11 C13 1_555 1_555
H12 C14 1_555 1_555
H13 C15 1_555 1_555
H14 C16 1_555 1_555
H15 C18 1_555 1_555
H16 C20 1_555 1_555
H17 C21 1_555 1_555
H18 C22 1_555 1_555
H19 C23 1_555 1_555
H20 C23 1_555 1_555
H21 C23 1_555 1_555
C6 C7 1_555 1_555
C15 C16 1_555 1_555
C21 C22 1_555 1_555

#END
