
#######################################################################
#
#                 Cambridge Crystallographic Data Centre
#                                CCDC 
#
#######################################################################
#
# If this CIF has been generated from an entry in the Cambridge 
# Structural Database, then it will include bibliographic, chemical, 
# crystal, experimental, refinement or atomic coordinate data resulting 
# from the CCDC's data processing and validation procedures.
#
#######################################################################

data_OLETIK
_chemical_formula_moiety         'C17 H13 N1 O3 S1'
_chemical_name_systematic        
'2,6-dimethylphenanthro[9,10-d][1,2]thiazol-3(2H)-one 1,1-dioxide unknown solvate'
_symmetry_cell_setting           monoclinic
_symmetry_space_group_name_H-M   'P 21/c'
_symmetry_Int_Tables_number      14
_space_group_name_Hall           '-P 2ybc'
loop_
_symmetry_equiv_pos_site_id
_symmetry_equiv_pos_as_xyz
1 x,y,z
2 -x,1/2+y,1/2-z
3 -x,-y,-z
4 x,1/2-y,1/2+z
_cell_length_a                   21.2968(3)
_cell_length_b                   7.11439(11)
_cell_length_c                   21.9163(4)
_cell_angle_alpha                90
_cell_angle_beta                 108.6465(18)
_cell_angle_gamma                90
_cell_volume                     3146.32
_cell_formula_units_Z            8
loop_
_atom_site_label
_atom_site_type_symbol
_atom_site_fract_x
_atom_site_fract_y
_atom_site_fract_z
S1 S 0.38471(3) 0.35741(9) 0.24793(3)
O1 O 0.38449(9) 0.5316(3) 0.21545(9)
O2 O 0.38300(11) 0.1904(3) 0.21174(10)
O3 O 0.47271(9) 0.3372(3) 0.42378(10)
N1 N 0.44843(10) 0.3531(3) 0.31545(12)
C1 C 0.12097(14) 0.3409(4) 0.20770(15)
H1 H 0.0751 0.3376 0.1898
C2 C 0.16012(15) 0.3559(5) 0.16776(14)
H2 H 0.1403 0.3624 0.1234
C3 C 0.22698(14) 0.3611(4) 0.19334(13)
H3 H 0.2529 0.3714 0.1665
C4 C 0.25727(11) 0.3508(3) 0.26041(11)
C5 C 0.21825(11) 0.3358(3) 0.30150(11)
C6 C 0.25086(12) 0.3278(3) 0.37119(11)
C7 C 0.32724(12) 0.3529(3) 0.28968(11)
C8 C 0.43201(13) 0.3439(3) 0.37154(13)
C9 C 0.35824(12) 0.3446(3) 0.35401(11)
C10 C 0.51635(14) 0.3575(5) 0.31418(17)
H4 H 0.5285 0.2351 0.3032
H5 H 0.5456 0.3932 0.3558
H6 H 0.5198 0.4470 0.2826
C11 C 0.32025(12) 0.3337(3) 0.39744(11)
C12 C 0.21377(14) 0.3135(3) 0.41406(13)
H7 H 0.1678 0.3083 0.3973
C13 C 0.24294(18) 0.3070(4) 0.47921(14)
C14 C 0.31163(18) 0.3140(4) 0.50431(13)
H8 H 0.3319 0.3088 0.5487
C15 C 0.35020(15) 0.3284(4) 0.46502(12)
H9 H 0.3961 0.3347 0.4828
C16 C 0.2028(2) 0.2876(5) 0.52398(17)
H10 H 0.1570 0.3111 0.5008
H11 H 0.2181 0.3768 0.5585
H12 H 0.2076 0.1626 0.5414
C17 C 0.14931(13) 0.3309(4) 0.27278(14)
H13 H 0.1224 0.3207 0.2987
S2 S 0.10084(3) 0.81763(10) 0.34004(4)
O4 O 0.07194(10) 0.6444(3) 0.34926(11)
O5 O 0.07139(10) 0.9852(3) 0.35428(11)
O6 O 0.18151(10) 0.8438(3) 0.21312(10)
N2 N 0.10562(10) 0.8279(3) 0.26656(11)
C18 C 0.22093(13) 0.8069(3) 0.44276(12)
C19 C 0.18704(16) 0.7900(4) 0.48863(15)
H14 H 0.1410 0.7879 0.4753
C20 C 0.2226(2) 0.7767(5) 0.55275(16)
H15 H 0.2007 0.7641 0.5831
C21 C 0.2908(2) 0.7820(5) 0.57225(16)
H16 H 0.3144 0.7745 0.6160
C22 C 0.32469(16) 0.7978(4) 0.52912(14)
H17 H 0.3708 0.8007 0.5440
C23 C 0.29093(13) 0.8100(3) 0.46225(12)
C24 C 0.32482(12) 0.8247(3) 0.41496(12)
C25 C 0.39452(13) 0.8269(3) 0.43217(14)
H18 H 0.4195 0.8158 0.4754
C26 C 0.42676(13) 0.8446(3) 0.38751(15)
C27 C 0.50139(15) 0.8457(5) 0.40746(19)
H19 H 0.5186 0.9307 0.4429
H20 H 0.5151 0.8857 0.3719
H21 H 0.5179 0.7214 0.4203
C28 C 0.38884(14) 0.8585(4) 0.32266(15)
H22 H 0.4102 0.8716 0.2920
C29 C 0.32226(13) 0.8534(3) 0.30329(13)
H23 H 0.2985 0.8607 0.2596
C30 C 0.28817(11) 0.8371(3) 0.34825(12)
C31 C 0.21738(12) 0.8310(3) 0.33010(12)
C32 C 0.18713(12) 0.8184(3) 0.37556(13)
C33 C 0.16964(12) 0.8363(3) 0.26306(14)
C34 C 0.04647(15) 0.8268(5) 0.20996(17)
H24 H 0.0218 0.7136 0.2096
H25 H 0.0592 0.8325 0.1718
H26 H 0.0194 0.9338 0.2113
loop_
_geom_bond_atom_site_label_1
_geom_bond_atom_site_label_2
_geom_bond_site_symmetry_1
_geom_bond_site_symmetry_2
S1 O1 1_555 1_555
O2 S1 1_555 1_555
O3 C8 1_555 1_555
N1 S1 1_555 1_555
C1 H1 1_555 1_555
C2 C1 1_555 1_555
H2 C2 1_555 1_555
C3 C2 1_555 1_555
H3 C3 1_555 1_555
C4 C3 1_555 1_555
C5 C4 1_555 1_555
C6 C5 1_555 1_555
C7 S1 1_555 1_555
C8 N1 1_555 1_555
C9 C7 1_555 1_555
C10 N1 1_555 1_555
H4 C10 1_555 1_555
H5 C10 1_555 1_555
H6 C10 1_555 1_555
C11 C6 1_555 1_555
C12 C6 1_555 1_555
H7 C12 1_555 1_555
C13 C12 1_555 1_555
C14 C13 1_555 1_555
H8 C14 1_555 1_555
C15 C11 1_555 1_555
H9 C15 1_555 1_555
C16 C13 1_555 1_555
H10 C16 1_555 1_555
H11 C16 1_555 1_555
H12 C16 1_555 1_555
C17 C1 1_555 1_555
H13 C17 1_555 1_555
S2 O4 1_555 1_555
O5 S2 1_555 1_555
O6 C33 1_555 1_555
N2 S2 1_555 1_555
C18 C19 1_555 1_555
C19 H14 1_555 1_555
C20 C19 1_555 1_555
H15 C20 1_555 1_555
C21 C20 1_555 1_555
H16 C21 1_555 1_555
C22 C21 1_555 1_555
H17 C22 1_555 1_555
C23 C18 1_555 1_555
C24 C23 1_555 1_555
C25 C24 1_555 1_555
H18 C25 1_555 1_555
C26 C25 1_555 1_555
C27 C26 1_555 1_555
H19 C27 1_555 1_555
H20 C27 1_555 1_555
H21 C27 1_555 1_555
C28 C26 1_555 1_555
H22 C28 1_555 1_555
C29 C28 1_555 1_555
H23 C29 1_555 1_555
C30 C24 1_555 1_555
C31 C30 1_555 1_555
C32 S2 1_555 1_555
C33 N2 1_555 1_555
C34 N2 1_555 1_555
H24 C34 1_555 1_555
H25 C34 1_555 1_555
H26 C34 1_555 1_555
C4 C7 1_555 1_555
C5 C17 1_555 1_555
C8 C9 1_555 1_555
C9 C11 1_555 1_555
C14 C15 1_555 1_555
C18 C32 1_555 1_555
C22 C23 1_555 1_555
C29 C30 1_555 1_555
C31 C32 1_555 1_555
C31 C33 1_555 1_555

#END
