
#######################################################################
#
#                 Cambridge Crystallographic Data Centre
#                                CCDC 
#
#######################################################################
#
# If this CIF has been generated from an entry in the Cambridge 
# Structural Database, then it will include bibliographic, chemical, 
# crystal, experimental, refinement or atomic coordinate data resulting 
# from the CCDC's data processing and validation procedures.
#
#######################################################################

data_OLEVAD
_chemical_formula_moiety         'C16 H22 O5'
_chemical_name_systematic        
'(+)-(1S,2R)-(2-(Hydroxymethyl)-3-methylenecyclopropyl)methyl 4,7,7-trimethyl-3-oxo-2-oxabicyclo[2.2.1]heptane-1-carboxylate'
_symmetry_cell_setting           orthorhombic
_symmetry_space_group_name_H-M   'P 21 21 21'
_symmetry_Int_Tables_number      19
_space_group_name_Hall           'P 2ac 2ab'
loop_
_symmetry_equiv_pos_site_id
_symmetry_equiv_pos_as_xyz
1 x,y,z
2 1/2-x,-y,1/2+z
3 1/2+x,1/2-y,-z
4 -x,1/2+y,1/2-z
_cell_length_a                   7.0978(1)
_cell_length_b                   11.0309(2)
_cell_length_c                   20.4301(5)
_cell_angle_alpha                90
_cell_angle_beta                 90
_cell_angle_gamma                90
_cell_volume                     1599.58
_exptl_crystal_colour            colorless
_exptl_crystal_description       prism
_cell_formula_units_Z            4
loop_
_atom_site_label
_atom_site_type_symbol
_atom_site_fract_x
_atom_site_fract_y
_atom_site_fract_z
C1 C 1.1131(5) 0.8933(3) 0.89259(16)
C2 C 0.8643(5) 0.9017(3) 0.82389(17)
C3 C 0.9219(6) 0.7726(3) 0.83685(17)
C4 C 0.8610(7) 0.7534(5) 0.9086(2)
H1 H 0.8773 0.6695 0.9217
H2 H 0.7303 0.7763 0.915
C5 C 0.9946(8) 0.8380(5) 0.94781(19)
H3 H 0.9249 0.8997 0.9715
H4 H 1.072 0.7926 0.9783
C6 C 1.1389(5) 0.7908(3) 0.84227(18)
C7 C 1.2289(6) 0.8342(5) 0.7789(2)
H5 H 1.3624 0.8424 0.785
H6 H 1.1764 0.9112 0.7668
H7 H 1.2048 0.7763 0.7448
C8 C 1.2442(9) 0.6813(4) 0.8686(3)
H8 H 1.2435 0.6179 0.8364
H9 H 1.1837 0.6531 0.9078
H10 H 1.3719 0.7037 0.8783
C9 C 0.8482(8) 0.6802(4) 0.7881(2)
H11 H 0.713 0.6808 0.7886
H12 H 0.8927 0.6009 0.8
H13 H 0.8923 0.7003 0.7451
C10 C 1.2885(5) 0.9588(3) 0.91336(17)
C11 C 1.4712(6) 1.1384(3) 0.9011(2)
H14 H 1.5858 1.0941 0.8912
H15 H 1.4711 1.1588 0.9473
C12 C 1.4588(6) 1.2488(3) 0.86087(19)
H16 H 1.4915 1.2381 0.8146
C13 C 1.5062(6) 1.3676(3) 0.88830(19)
C14 C 1.3077(7) 1.3445(4) 0.8744(2)
H17 H 1.2591 1.3854 0.8353
C15 C 1.1694(8) 1.3300(5) 0.9277(3)
H18 H 1.2301 1.2909 0.9647
H19 H 1.1273 1.4094 0.9419
C16 C 1.6326(7) 1.4365(4) 0.9126(3)
H20 H 1.5986 1.5094 0.9322
H21 H 1.7586 1.4138 0.9108
O1 O 0.7403(4) 0.9434(3) 0.79113(17)
O2 O 0.9830(3) 0.9744(2) 0.85900(13)
O3 O 1.4018(5) 0.9168(3) 0.95039(16)
O4 O 1.3052(4) 1.0655(2) 0.88463(14)
O5 O 1.0093(5) 1.2597(4) 0.9084(3)
H22 H 1.0418 1.2089 0.8813
loop_
_geom_bond_atom_site_label_1
_geom_bond_atom_site_label_2
_geom_bond_site_symmetry_1
_geom_bond_site_symmetry_2
C1 C5 1_555 1_555
C2 C3 1_555 1_555
C3 C4 1_555 1_555
C4 H1 1_555 1_555
H2 C4 1_555 1_555
C5 C4 1_555 1_555
H3 C5 1_555 1_555
H4 C5 1_555 1_555
C6 C1 1_555 1_555
C7 C6 1_555 1_555
H5 C7 1_555 1_555
H6 C7 1_555 1_555
H7 C7 1_555 1_555
C8 C6 1_555 1_555
H8 C8 1_555 1_555
H9 C8 1_555 1_555
H10 C8 1_555 1_555
C9 C3 1_555 1_555
H11 C9 1_555 1_555
H12 C9 1_555 1_555
H13 C9 1_555 1_555
C10 C1 1_555 1_555
C11 H14 1_555 1_555
H15 C11 1_555 1_555
C12 C11 1_555 1_555
H16 C12 1_555 1_555
C13 C12 1_555 1_555
C14 C12 1_555 1_555
H17 C14 1_555 1_555
C15 C14 1_555 1_555
H18 C15 1_555 1_555
H19 C15 1_555 1_555
C16 C13 1_555 1_555
H20 C16 1_555 1_555
H21 C16 1_555 1_555
O1 C2 1_555 1_555
O2 C1 1_555 1_555
O3 C10 1_555 1_555
O4 C10 1_555 1_555
O5 C15 1_555 1_555
H22 O5 1_555 1_555
C2 O2 1_555 1_555
C3 C6 1_555 1_555
C11 O4 1_555 1_555
C13 C14 1_555 1_555

#END
