
#######################################################################
#
#                 Cambridge Crystallographic Data Centre
#                                CCDC 
#
#######################################################################
#
# If this CIF has been generated from an entry in the Cambridge 
# Structural Database, then it will include bibliographic, chemical, 
# crystal, experimental, refinement or atomic coordinate data resulting 
# from the CCDC's data processing and validation procedures.
#
#######################################################################

data_OLEWIM
_chemical_formula_moiety         'C23 H24 Cl1 N1 O4'
_chemical_name_systematic        
'Ethyl 2-(4-chlorophenyl)-1-formamido-6-(4-methylphenyl)-4-oxocyclohexanecarboxylate'
_symmetry_cell_setting           monoclinic
_symmetry_space_group_name_H-M   'P 21/c'
_symmetry_Int_Tables_number      14
_space_group_name_Hall           '-P 2ybc'
loop_
_symmetry_equiv_pos_site_id
_symmetry_equiv_pos_as_xyz
1 x,y,z
2 -x,1/2+y,1/2-z
3 -x,-y,-z
4 x,1/2-y,1/2+z
_cell_length_a                   14.586(5)
_cell_length_b                   11.703(4)
_cell_length_c                   13.249(4)
_cell_angle_alpha                90
_cell_angle_beta                 97.945(5)
_cell_angle_gamma                90
_cell_volume                     2239.9
_cell_formula_units_Z            4
loop_
_atom_site_label
_atom_site_type_symbol
_atom_site_fract_x
_atom_site_fract_y
_atom_site_fract_z
Cl1 Cl 0.75152(15) 0.2887(2) 0.68738(16)
O1 O 0.4168(2) 0.4120(3) 0.2746(3)
O2 O 0.2675(3) 0.0789(3) 0.4720(2)
C1 C 0.3390(3) 0.2301(4) 0.3940(3)
C2 C 0.2941(4) 0.1873(5) 0.4841(4)
O3 O 0.2850(3) 0.2421(3) 0.5569(3)
N1 N 0.3658(3) 0.3475(3) 0.4213(3)
C3 C 0.2677(3) 0.2286(4) 0.2935(3)
H1 H 0.2896 0.2848 0.2475
O4 O 0.3689(3) 0.0276(3) 0.1330(2)
C4 C 0.4431(4) 0.1410(4) 0.2709(3)
H2 H 0.4540 0.2161 0.2440
H3 H 0.4977 0.0947 0.2676
C5 C 0.5180(4) 0.1445(4) 0.5559(3)
H4 H 0.4732 0.0959 0.5755
C6 C 0.4252(3) 0.1518(4) 0.3829(3)
H5 H 0.4081 0.0750 0.4031
C7 C 0.5094(4) 0.1848(4) 0.4574(4)
C8 C 0.1724(4) 0.2679(5) 0.3129(3)
C9 C 0.3609(4) 0.0869(5) 0.2078(4)
C10 C 0.4016(3) 0.4245(5) 0.3635(4)
H6 H 0.4167 0.4953 0.3932
C11 C 0.2683(4) 0.1115(4) 0.2396(3)
H7 H 0.2530 0.0519 0.2854
H8 H 0.2214 0.1111 0.1800
C12 C 0.1557(4) 0.3843(5) 0.3246(4)
H9 H 0.2020 0.4368 0.3168
C13 C 0.6589(4) 0.2492(5) 0.5974(5)
C14 C 0.5765(4) 0.2576(5) 0.4319(4)
H10 H 0.5714 0.2856 0.3657
C15 C 0.0712(5) 0.4232(6) 0.3477(5)
H11 H 0.0625 0.5012 0.3560
C16 C 0.5928(5) 0.1761(5) 0.6253(4)
H12 H 0.5987 0.1479 0.6915
C17 C 0.6510(4) 0.2906(5) 0.5013(5)
H13 H 0.6952 0.3406 0.4823
C18 C 0.0999(5) 0.1943(5) 0.3206(4)
H14 H 0.1074 0.1163 0.3107
C19 C 0.2259(7) 0.0280(7) 0.5544(5)
H15 H 0.2714 -0.0215 0.5927
H16 H 0.2119 0.0885 0.5999
C20 C -0.0001(5) 0.3492(8) 0.3587(5)
C21 C 0.0144(5) 0.2359(7) 0.3434(5)
H17 H -0.0335 0.1845 0.3482
C22 C 0.1564(9) -0.0267(17) 0.5298(9)
H18 H 0.1343 -0.0561 0.5897
H19 H 0.1696 -0.0891 0.4870
H20 H 0.1100 0.0215 0.4933
C23 C -0.0943(4) 0.3919(6) 0.3880(5)
H21 H -0.0919 0.4732 0.3977
H22 H -0.1057 0.3554 0.4500
H23 H -0.1432 0.3733 0.3344
H24 H 0.352(3) 0.361(5) 0.492(4)
loop_
_geom_bond_atom_site_label_1
_geom_bond_atom_site_label_2
_geom_bond_site_symmetry_1
_geom_bond_site_symmetry_2
Cl1 C13 1_555 1_555
O1 C10 1_555 1_555
O2 C2 1_555 1_555
C1 C2 1_555 1_555
C2 O3 1_555 1_555
N1 C1 1_555 1_555
C3 C1 1_555 1_555
H1 C3 1_555 1_555
O4 C9 1_555 1_555
C4 H2 1_555 1_555
H3 C4 1_555 1_555
C5 H4 1_555 1_555
C6 C1 1_555 1_555
H5 C6 1_555 1_555
C7 C5 1_555 1_555
C8 C3 1_555 1_555
C9 C4 1_555 1_555
C10 N1 1_555 1_555
H6 C10 1_555 1_555
C11 C3 1_555 1_555
H7 C11 1_555 1_555
H8 C11 1_555 1_555
C12 C8 1_555 1_555
H9 C12 1_555 1_555
C13 C16 1_555 1_555
C14 C7 1_555 1_555
H10 C14 1_555 1_555
C15 C12 1_555 1_555
H11 C15 1_555 1_555
C16 C5 1_555 1_555
H12 C16 1_555 1_555
C17 C13 1_555 1_555
H13 C17 1_555 1_555
C18 C8 1_555 1_555
H14 C18 1_555 1_555
C19 O2 1_555 1_555
H15 C19 1_555 1_555
H16 C19 1_555 1_555
C20 C15 1_555 1_555
C21 C18 1_555 1_555
H17 C21 1_555 1_555
C22 C19 1_555 1_555
H18 C22 1_555 1_555
H19 C22 1_555 1_555
H20 C22 1_555 1_555
C23 C20 1_555 1_555
H21 C23 1_555 1_555
H22 C23 1_555 1_555
H23 C23 1_555 1_555
H24 N1 1_555 1_555
C4 C6 1_555 1_555
C6 C7 1_555 1_555
C9 C11 1_555 1_555
C14 C17 1_555 1_555
C20 C21 1_555 1_555

#END
