
#######################################################################
#
#                 Cambridge Crystallographic Data Centre
#                                CCDC 
#
#######################################################################
#
# If this CIF has been generated from an entry in the Cambridge 
# Structural Database, then it will include bibliographic, chemical, 
# crystal, experimental, refinement or atomic coordinate data resulting 
# from the CCDC's data processing and validation procedures.
#
#######################################################################

data_OLEWOS01
_chemical_formula_moiety         'C22 H19 Br2 N1 O3'
_chemical_name_systematic        
'ethyl 2,6-bis(4-bromophenyl)-1-(isocyano)-4-oxocyclohexanecarboxylate'
_symmetry_cell_setting           monoclinic
_symmetry_space_group_name_H-M   'C 2/c'
_symmetry_Int_Tables_number      15
_space_group_name_Hall           '-C 2yn'
loop_
_symmetry_equiv_pos_site_id
_symmetry_equiv_pos_as_xyz
1 x,y,z
2 -x,y,1/2-z
3 1/2+x,1/2+y,z
4 1/2-x,1/2+y,1/2-z
5 -x,-y,-z
6 x,-y,1/2+z
7 1/2-x,1/2-y,-z
8 1/2+x,1/2-y,1/2+z
_cell_length_a                   21.9920(17)
_cell_length_b                   11.0750(19)
_cell_length_c                   17.648(3)
_cell_angle_alpha                90
_cell_angle_beta                 103.560(2)
_cell_angle_gamma                90
_cell_volume                     4178.55
_exptl_crystal_colour            colorless
_exptl_crystal_description       block
_cell_formula_units_Z            8
loop_
_atom_site_label
_atom_site_type_symbol
_atom_site_fract_x
_atom_site_fract_y
_atom_site_fract_z
Br1 Br -0.01743(2) 0.57808(4) 0.12001(3)
Br2 Br 0.59543(3) 0.56713(6) 0.49860(4)
O1 O 0.30729(12) 0.7231(2) 0.34697(15)
C1 C 0.19183(17) 0.6993(3) 0.1672(2)
C2 C 0.25738(17) 0.7509(3) 0.1820(2)
H1 H 0.2588 0.8177 0.2188
N1 N 0.30420(15) 0.5508(3) 0.1772(2)
C3 C 0.27366(18) 0.8048(4) 0.1094(2)
H2 H 0.2798 0.7402 0.0749
H3 H 0.2392 0.8544 0.0818
C4 C 0.30963(17) 0.6605(3) 0.2217(2)
O2 O 0.28934(16) 0.5274(3) 0.32118(18)
C5 C 0.30092(17) 0.6265(4) 0.3028(2)
C6 C 0.33168(19) 0.8799(4) 0.1308(2)
C7 C 0.37673(17) 0.7151(3) 0.2243(2)
H4 H 0.3893 0.6799 0.1794
O3 O 0.34440(16) 0.9555(3) 0.08779(19)
C8 C 0.16493(18) 0.6331(4) 0.1019(2)
H5 H 0.1885 0.6140 0.0661
C9 C 0.15553(18) 0.7240(4) 0.2200(2)
H6 H 0.1731 0.7666 0.2653
C10 C 0.42738(17) 0.6782(4) 0.2946(2)
C11 C 0.4465(2) 0.5596(4) 0.3050(3)
H7 H 0.4261 0.5013 0.2703
C12 C 0.5261(2) 0.6100(5) 0.4171(3)
C13 C 0.10326(19) 0.5942(4) 0.0883(2)
H8 H 0.0859 0.5486 0.0443
C14 C 0.06841(17) 0.6234(3) 0.1403(2)
C15 C 0.2992(2) 0.7071(5) 0.4265(2)
H9 H 0.2574 0.7320 0.4290
H10 H 0.3043 0.6226 0.4411
C16 C 0.37386(18) 0.8521(4) 0.2093(2)
H11 H 0.3582 0.8925 0.2497
H12 H 0.4156 0.8824 0.2112
C17 C 0.09395(19) 0.6872(4) 0.2070(3)
H13 H 0.0702 0.7052 0.2428
C18 C 0.5071(2) 0.7263(5) 0.4093(3)
H14 H 0.5272 0.7839 0.4448
C19 C 0.4580(2) 0.7598(4) 0.3488(3)
H15 H 0.4453 0.8401 0.3446
C20 C 0.3003(3) 0.4647(5) 0.1399(3)
C21 C 0.4956(2) 0.5251(5) 0.3664(3)
H16 H 0.5076 0.4445 0.3727
C22 C 0.3453(3) 0.7792(6) 0.4799(3)
H17 H 0.3401 0.7688 0.5320
H18 H 0.3398 0.8628 0.4655
H19 H 0.3866 0.7537 0.4775
loop_
_geom_bond_atom_site_label_1
_geom_bond_atom_site_label_2
_geom_bond_site_symmetry_1
_geom_bond_site_symmetry_2
Br1 C14 1_555 1_555
Br2 C12 1_555 1_555
O1 C5 1_555 1_555
C1 C2 1_555 1_555
C2 H1 1_555 1_555
N1 C4 1_555 1_555
C3 C2 1_555 1_555
H2 C3 1_555 1_555
H3 C3 1_555 1_555
C4 C2 1_555 1_555
O2 C5 1_555 1_555
C5 C4 1_555 1_555
C6 C3 1_555 1_555
C7 C4 1_555 1_555
H4 C7 1_555 1_555
O3 C6 1_555 1_555
C8 C1 1_555 1_555
H5 C8 1_555 1_555
C9 C1 1_555 1_555
H6 C9 1_555 1_555
C10 C7 1_555 1_555
C11 C10 1_555 1_555
H7 C11 1_555 1_555
C12 C18 1_555 1_555
C13 C8 1_555 1_555
H8 C13 1_555 1_555
C14 C13 1_555 1_555
C15 O1 1_555 1_555
H9 C15 1_555 1_555
H10 C15 1_555 1_555
C16 C6 1_555 1_555
H11 C16 1_555 1_555
H12 C16 1_555 1_555
C17 C9 1_555 1_555
H13 C17 1_555 1_555
C18 H14 1_555 1_555
C19 C10 1_555 1_555
H15 C19 1_555 1_555
C20 N1 1_555 1_555
C21 C11 1_555 1_555
H16 C21 1_555 1_555
C22 C15 1_555 1_555
H17 C22 1_555 1_555
H18 C22 1_555 1_555
H19 C22 1_555 1_555
C7 C16 1_555 1_555
C12 C21 1_555 1_555
C14 C17 1_555 1_555
C18 C19 1_555 1_555

#END
