
#######################################################################
#
#                 Cambridge Crystallographic Data Centre
#                                CCDC 
#
#######################################################################
#
# If this CIF has been generated from an entry in the Cambridge 
# Structural Database, then it will include bibliographic, chemical, 
# crystal, experimental, refinement or atomic coordinate data resulting 
# from the CCDC's data processing and validation procedures.
#
#######################################################################

data_OLEXIN
_chemical_formula_moiety         'C12 H15 B1 Br2 O3'
_chemical_name_systematic        
2,4-Dibromo-3-(4,4,5,5-tetramethyl-1,3,2-dioxaborolan-2-yl)phenol
_symmetry_cell_setting           monoclinic
_symmetry_space_group_name_H-M   'P 21/c'
_symmetry_Int_Tables_number      14
_space_group_name_Hall           '-P 2ybc'
loop_
_symmetry_equiv_pos_site_id
_symmetry_equiv_pos_as_xyz
1 x,y,z
2 -x,1/2+y,1/2-z
3 -x,-y,-z
4 x,1/2-y,1/2+z
_cell_length_a                   9.867(2)
_cell_length_b                   11.972(2)
_cell_length_c                   13.193(3)
_cell_angle_alpha                90
_cell_angle_beta                 98.78(3)
_cell_angle_gamma                90
_cell_volume                     1540.2
_cell_formula_units_Z            4
loop_
_atom_site_label
_atom_site_type_symbol
_atom_site_fract_x
_atom_site_fract_y
_atom_site_fract_z
B1 B 0.1894(12) 0.4451(8) 0.2670(6)
Br1 Br 0.34874(9) 0.53560(8) 0.08878(6)
Br2 Br 0.24152(10) 0.52651(8) 0.49805(6)
C1 C 0.2972(8) 0.5396(7) 0.2943(6)
C2 C 0.3224(9) 0.5865(7) 0.3914(7)
C3 C 0.4158(9) 0.6732(7) 0.4189(6)
H1 H 0.4306 0.6994 0.4860
C4 C 0.4865(9) 0.7201(6) 0.3465(7)
H2 H 0.5484 0.7781 0.3637
C5 C 0.4622(8) 0.6779(7) 0.2477(7)
C6 C 0.3703(9) 0.5894(6) 0.2243(6)
C7 C 0.0038(9) 0.3551(7) 0.2094(7)
C8 C 0.1113(9) 0.2697(6) 0.2501(6)
C9 C -0.0230(8) 0.3626(7) 0.0932(6)
H3 H -0.0869 0.4219 0.0728
H4 H -0.0605 0.2932 0.0653
H5 H 0.0615 0.3776 0.0681
C10 C -0.1242(9) 0.3409(7) 0.2493(7)
H6 H -0.1084 0.3504 0.3224
H7 H -0.1597 0.2673 0.2329
H8 H -0.1893 0.3955 0.2190
C11 C 0.1271(8) 0.1752(6) 0.1772(6)
H9 H 0.1679 0.2029 0.1206
H10 H 0.0386 0.1442 0.1522
H11 H 0.1847 0.1185 0.2125
C12 C 0.0970(9) 0.2255(7) 0.3569(6)
H12 H 0.1732 0.1777 0.3811
H13 H 0.0132 0.1839 0.3534
H14 H 0.0956 0.2871 0.4033
O1 O 0.0629(5) 0.4614(4) 0.2450(4)
O2 O 0.2361(5) 0.3379(4) 0.2630(3)
O3 O 0.5316(7) 0.7239(5) 0.1729(4)
H15 H 0.5033 0.6955 0.1172
loop_
_geom_bond_atom_site_label_1
_geom_bond_atom_site_label_2
_geom_bond_site_symmetry_1
_geom_bond_site_symmetry_2
B1 C1 1_555 1_555
Br1 C6 1_555 1_555
Br2 C2 1_555 1_555
C1 C2 1_555 1_555
C2 C3 1_555 1_555
C3 H1 1_555 1_555
C4 C3 1_555 1_555
H2 C4 1_555 1_555
C5 C4 1_555 1_555
C6 C1 1_555 1_555
C7 C8 1_555 1_555
C8 C11 1_555 1_555
C9 C7 1_555 1_555
H3 C9 1_555 1_555
H4 C9 1_555 1_555
H5 C9 1_555 1_555
C10 C7 1_555 1_555
H6 C10 1_555 1_555
H7 C10 1_555 1_555
H8 C10 1_555 1_555
C11 H9 1_555 1_555
H10 C11 1_555 1_555
H11 C11 1_555 1_555
C12 C8 1_555 1_555
H12 C12 1_555 1_555
H13 C12 1_555 1_555
H14 C12 1_555 1_555
O1 B1 1_555 1_555
O2 B1 1_555 1_555
O3 C5 1_555 1_555
H15 O3 1_555 1_555
C5 C6 1_555 1_555
C7 O1 1_555 1_555
C8 O2 1_555 1_555

#END
