
#######################################################################
#
#                 Cambridge Crystallographic Data Centre
#                                CCDC 
#
#######################################################################
#
# If this CIF has been generated from an entry in the Cambridge 
# Structural Database, then it will include bibliographic, chemical, 
# crystal, experimental, refinement or atomic coordinate data resulting 
# from the CCDC's data processing and validation procedures.
#
#######################################################################

data_OLEXOT
_chemical_formula_moiety         'C7 H8 B1 I1 O3'
_chemical_name_systematic        '(5-Iodo-2-methoxyphenyl)boronic acid'
_symmetry_cell_setting           triclinic
_symmetry_space_group_name_H-M   'P -1'
_symmetry_Int_Tables_number      2
_space_group_name_Hall           '-P 1'
loop_
_symmetry_equiv_pos_site_id
_symmetry_equiv_pos_as_xyz
1 x,y,z
2 -x,-y,-z
_cell_length_a                   7.7408(15)
_cell_length_b                   8.0624(16)
_cell_length_c                   8.4396(17)
_cell_angle_alpha                69.97(3)
_cell_angle_beta                 72.46(3)
_cell_angle_gamma                86.33(3)
_cell_volume                     471.392
_cell_formula_units_Z            2
loop_
_atom_site_label
_atom_site_type_symbol
_atom_site_fract_x
_atom_site_fract_y
_atom_site_fract_z
B1 B 0.7643(11) 0.1356(10) 0.4832(10)
C1 C 0.5735(9) 0.2179(8) 0.4701(9)
C2 C 0.4570(9) 0.2531(8) 0.6176(8)
H1 H 0.4949 0.2335 0.7169
C3 C 0.2830(9) 0.3179(8) 0.6171(9)
C4 C 0.2251(10) 0.3481(9) 0.4672(9)
H2 H 0.1106 0.3906 0.4669
C5 C 0.3400(10) 0.3141(9) 0.3170(10)
H3 H 0.3016 0.3349 0.2178
C6 C 0.5129(9) 0.2486(8) 0.3183(9)
C7 C 0.5698(12) 0.2129(10) 0.0314(10)
H4 H 0.4577 0.1443 0.0762
H5 H 0.6587 0.1641 -0.0455
H6 H 0.5508 0.3327 -0.0332
I1 I 0.10345(6) 0.35851(6) 0.84923(5)
O1 O 0.8848(7) 0.0903(7) 0.3489(7)
O2 O 0.8034(7) 0.1099(8) 0.6394(7)
O3 O 0.6332(8) 0.2093(7) 0.1772(7)
H7 H 0.908(11) 0.070(10) 0.640(10)
H8 H 0.834(16) 0.133(16) 0.271(16)
loop_
_geom_bond_atom_site_label_1
_geom_bond_atom_site_label_2
_geom_bond_site_symmetry_1
_geom_bond_site_symmetry_2
B1 C1 1_555 1_555
C1 C2 1_555 1_555
C2 H1 1_555 1_555
C3 C2 1_555 1_555
C4 C3 1_555 1_555
H2 C4 1_555 1_555
C5 C4 1_555 1_555
H3 C5 1_555 1_555
C6 C1 1_555 1_555
C7 H4 1_555 1_555
H5 C7 1_555 1_555
H6 C7 1_555 1_555
I1 C3 1_555 1_555
O1 B1 1_555 1_555
O2 B1 1_555 1_555
O3 C6 1_555 1_555
H7 O2 1_555 1_555
H8 O1 1_555 1_555
C5 C6 1_555 1_555
C7 O3 1_555 1_555

#END
