
#######################################################################
#
#                 Cambridge Crystallographic Data Centre
#                                CCDC 
#
#######################################################################
#
# If this CIF has been generated from an entry in the Cambridge 
# Structural Database, then it will include bibliographic, chemical, 
# crystal, experimental, refinement or atomic coordinate data resulting 
# from the CCDC's data processing and validation procedures.
#
#######################################################################

data_OLICAO
_chemical_formula_moiety         'C33 H38 N2 O8'
_chemical_name_systematic        
'Ethyl 3-amino-2-(4,5-bis(benzyloxy)-6-((benzyloxy)methyl)-3-nitrotetrahydro-2H-pyran-2-yl)but-2-enoate'
_symmetry_cell_setting           orthorhombic
_symmetry_space_group_name_H-M   'P 21 21 21'
_symmetry_Int_Tables_number      19
_space_group_name_Hall           'P 2ac 2ab'
loop_
_symmetry_equiv_pos_site_id
_symmetry_equiv_pos_as_xyz
1 x,y,z
2 1/2-x,-y,1/2+z
3 -x,1/2+y,1/2-z
4 1/2+x,1/2-y,-z
_cell_length_a                   9.8359(17)
_cell_length_b                   19.719(3)
_cell_length_c                   32.342(6)
_cell_angle_alpha                90
_cell_angle_beta                 90
_cell_angle_gamma                90
_cell_volume                     6272.86
_exptl_crystal_colour            yellow
_exptl_crystal_description       plate
_cell_formula_units_Z            8
loop_
_atom_site_label
_atom_site_type_symbol
_atom_site_fract_x
_atom_site_fract_y
_atom_site_fract_z
O1 O 0.2068(2) 0.50940(11) 0.93309(6)
O2 O 0.3357(3) 0.37620(12) 0.92960(8)
O3 O 0.1172(2) 0.39664(12) 0.84729(7)
O4 O 0.1941(3) 0.52217(12) 0.80593(7)
O5 O 0.0099(4) 0.64401(16) 0.85038(10)
O6 O 0.2116(4) 0.68681(16) 0.84587(10)
O7 O 0.4125(3) 0.61924(12) 0.92652(8)
O8 O 0.3585(3) 0.70536(13) 0.96846(8)
N1 N 0.1325(5) 0.64123(18) 0.85415(10)
N2 N 0.1004(3) 0.72232(15) 0.98668(9)
H1 H 0.1809 0.7388 0.9890
H2 H 0.0330 0.7421 0.9986
C1 C 0.1488(4) 0.45064(17) 0.91282(10)
H3 H 0.0496 0.4536 0.9150
C2 C 0.1867(4) 0.45169(17) 0.86697(10)
H4 H 0.2852 0.4463 0.8638
C3 C 0.1409(4) 0.51703(17) 0.84684(10)
H5 H 0.0414 0.5183 0.8458
C4 C 0.1930(4) 0.57695(16) 0.87195(10)
H6 H 0.2924 0.5790 0.8703
C5 C 0.1490(4) 0.57114(17) 0.91734(10)
H7 H 0.0500 0.5658 0.9176
C6 C 0.1944(5) 0.38758(18) 0.93481(12)
H8 H 0.1742 0.3917 0.9641
H9 H 0.1444 0.3490 0.9242
C7 C 0.3768(5) 0.3168(2) 0.95175(14)
H10 H 0.3187 0.2792 0.9440
H11 H 0.3657 0.3246 0.9812
C8 C 0.5217(6) 0.2988(2) 0.94294(16)
C9 C 0.5546(7) 0.2704(3) 0.90557(17)
H12 H 0.4882 0.2637 0.8855
C10 C 0.6876(9) 0.2517(3) 0.8982(2)
H13 H 0.7097 0.2308 0.8733
C11 C 0.7867(8) 0.2631(4) 0.9264(3)
H14 H 0.8764 0.2520 0.9202
C12 C 0.7557(9) 0.2907(3) 0.9633(3)
H15 H 0.8236 0.2975 0.9828
C13 C 0.6217(8) 0.3088(2) 0.97223(19)
H16 H 0.6000 0.3276 0.9978
C14 C 0.2021(4) 0.3483(2) 0.82716(14)
H17 H 0.2560 0.3237 0.8473
H18 H 0.2633 0.3709 0.8081
C15 C 0.1092(4) 0.3006(2) 0.80422(14)
C16 C 0.0305(5) 0.2552(2) 0.82567(13)
H19 H 0.0393 0.2521 0.8542
C17 C -0.0620(5) 0.2139(2) 0.80531(18)
H20 H -0.1159 0.1836 0.8201
C18 C -0.0726(6) 0.2183(3) 0.7637(2)
H21 H -0.1343 0.1906 0.7499
C19 C 0.0047(6) 0.2622(3) 0.74181(15)
H22 H -0.0044 0.2645 0.7132
C20 C 0.0993(5) 0.3045(2) 0.76217(15)
H23 H 0.1536 0.3343 0.7473
C21 C 0.0945(4) 0.5173(2) 0.77405(11)
H24 H 0.0336 0.5559 0.7754
H25 H 0.0412 0.4764 0.7777
C22 C 0.1642(4) 0.5158(2) 0.73276(11)
C23 C 0.2720(5) 0.5585(2) 0.72363(14)
H26 H 0.3037 0.5885 0.7436
C24 C 0.3328(5) 0.5570(2) 0.68523(16)
H27 H 0.4041 0.5864 0.6792
C25 C 0.2877(5) 0.5122(3) 0.65624(14)
H28 H 0.3292 0.5105 0.6304
C26 C 0.1825(5) 0.4700(2) 0.66496(14)
H29 H 0.1516 0.4398 0.6450
C27 C 0.1218(4) 0.4718(2) 0.70288(12)
H30 H 0.0502 0.4424 0.7085
C28 C 0.1829(4) 0.63137(17) 0.94454(10)
C29 C 0.0799(4) 0.66594(18) 0.96455(11)
C30 C -0.0665(4) 0.64418(19) 0.96472(12)
H31 H -0.1105 0.6615 0.9890
H32 H -0.0714 0.5956 0.9647
H33 H -0.1112 0.6615 0.9405
C31 C 0.3213(4) 0.6560(2) 0.94790(11)
C32 C 0.5537(4) 0.6437(2) 0.92636(14)
H34 H 0.5965 0.6343 0.9528
H35 H 0.5558 0.6923 0.9217
C33 C 0.6272(5) 0.6079(2) 0.89270(14)
H36 H 0.5843 0.6177 0.8667
H37 H 0.6247 0.5599 0.8977
H38 H 0.7199 0.6230 0.8919
O9 O 0.2198(3) 0.93427(11) 0.91263(8)
O10 O 0.4144(3) 0.84467(13) 0.86431(9)
O11 O 0.2593(3) 0.94758(13) 0.80050(8)
O12 O 0.2926(3) 1.08729(13) 0.82919(7)
O13 O 0.0160(4) 1.11815(16) 0.89521(11)
O14 O 0.1977(5) 1.16626(16) 0.91615(11)
O15 O 0.4002(3) 1.01254(14) 0.95853(9)
O16 O 0.3223(3) 1.02892(15) 1.02307(9)
N3 N 0.1372(5) 1.1176(2) 0.90247(11)
N4 N 0.0554(4) 1.02512(17) 1.03286(11)
H39 H 0.1328 1.0310 1.0447
H40 H -0.0182 1.0267 1.0472
C34 C 0.2077(4) 0.91453(19) 0.87032(12)
H41 H 0.1110 0.9118 0.8632
C35 C 0.2749(4) 0.96730(19) 0.84281(11)
H42 H 0.3721 0.9694 0.8494
C36 C 0.2126(4) 1.03707(18) 0.84909(10)
H43 H 0.1192 1.0380 0.8386
C37 C 0.2148(4) 1.05365(17) 0.89441(10)
H44 H 0.3095 1.0609 0.9027
C38 C 0.1535(4) 0.99747(18) 0.92238(11)
H45 H 0.0570 0.9929 0.9154
C39 C 0.2698(4) 0.8442(2) 0.86652(14)
H46 H 0.2421 0.8173 0.8902
H47 H 0.2341 0.8225 0.8419
C40 C 0.4817(5) 0.8528(2) 0.90219(15)
H48 H 0.4398 0.8242 0.9230
H49 H 0.4748 0.8996 0.9112
C41 C 0.6302(5) 0.8335(2) 0.89691(15)
C42 C 0.7221(6) 0.8508(2) 0.92687(14)
H50 H 0.6946 0.8762 0.9496
C43 C 0.8596(6) 0.8298(3) 0.92303(18)
H51 H 0.9233 0.8419 0.9430
C44 C 0.8965(6) 0.7920(3) 0.8899(2)
H52 H 0.9859 0.7773 0.8873
C45 C 0.8051(7) 0.7756(2) 0.86088(18)
H53 H 0.8318 0.7496 0.8383
C46 C 0.6725(5) 0.7967(2) 0.86411(16)
H54 H 0.6109 0.7854 0.8434
C47 C 0.3866(5) 0.9401(2) 0.77864(13)
H55 H 0.4342 0.9001 0.7885
H56 H 0.4439 0.9793 0.7836
C48 C 0.3578(4) 0.93334(19) 0.73322(12)
C49 C 0.4540(5) 0.9554(2) 0.70546(16)
H57 H 0.5346 0.9747 0.7148
C50 C 0.4299(5) 0.9488(3) 0.66347(17)
H58 H 0.4951 0.9635 0.6447
C51 C 0.3115(6) 0.9210(2) 0.64933(16)
H59 H 0.2962 0.9172 0.6210
C52 C 0.2160(5) 0.8988(2) 0.67651(15)
H60 H 0.1355 0.8798 0.6669
C53 C 0.2391(4) 0.9047(2) 0.71812(14)
H61 H 0.1737 0.8892 0.7366
C54 C 0.2493(4) 1.1084(2) 0.78871(11)
H62 H 0.1625 1.1316 0.7904
H63 H 0.2390 1.0693 0.7708
C55 C 0.3553(4) 1.1551(2) 0.77194(13)
C56 C 0.4112(5) 1.2059(2) 0.79556(14)
H64 H 0.3815 1.2117 0.8226
C57 C 0.5091(6) 1.2480(2) 0.78030(18)
H65 H 0.5454 1.2818 0.7970
C58 C 0.5538(6) 1.2406(3) 0.7407(2)
H66 H 0.6203 1.2694 0.7302
C59 C 0.4993(6) 1.1901(3) 0.71630(16)
H67 H 0.5290 1.1849 0.6892
C60 C 0.4003(5) 1.1468(2) 0.73190(14)
H68 H 0.3646 1.1125 0.7154
C61 C 0.1635(4) 1.01038(18) 0.96777(12)
C62 C 0.0496(5) 1.01344(19) 0.99209(14)
C63 C -0.0923(5) 1.0062(2) 0.97569(14)
H69 H -0.1557 1.0078 0.9982
H70 H -0.1009 0.9636 0.9615
H71 H -0.1111 1.0426 0.9568
C64 C 0.2981(5) 1.0186(2) 0.98612(14)
C65 C 0.5363(5) 1.0341(3) 0.97005(16)
H72 H 0.5437 1.0354 0.9999
H73 H 0.6020 1.0015 0.9598
C66 C 0.5668(5) 1.1000(3) 0.95342(15)
H74 H 0.5036 1.1325 0.9642
H75 H 0.5596 1.0987 0.9238
H76 H 0.6576 1.1127 0.9611
loop_
_geom_bond_atom_site_label_1
_geom_bond_atom_site_label_2
_geom_bond_site_symmetry_1
_geom_bond_site_symmetry_2
O1 C1 1_555 1_555
O2 C6 1_555 1_555
O3 C2 1_555 1_555
O4 C3 1_555 1_555
O5 N1 1_555 1_555
O6 N1 1_555 1_555
O7 C31 1_555 1_555
O8 C31 1_555 1_555
N1 C4 1_555 1_555
N2 H1 1_555 1_555
H2 N2 1_555 1_555
C1 H3 1_555 1_555
C2 C1 1_555 1_555
H4 C2 1_555 1_555
C3 C2 1_555 1_555
H5 C3 1_555 1_555
C4 C3 1_555 1_555
H6 C4 1_555 1_555
C5 O1 1_555 1_555
H7 C5 1_555 1_555
C6 C1 1_555 1_555
H8 C6 1_555 1_555
H9 C6 1_555 1_555
C7 O2 1_555 1_555
H10 C7 1_555 1_555
H11 C7 1_555 1_555
C8 C7 1_555 1_555
C9 C8 1_555 1_555
H12 C9 1_555 1_555
C10 C9 1_555 1_555
H13 C10 1_555 1_555
C11 C10 1_555 1_555
H14 C11 1_555 1_555
C12 C11 1_555 1_555
H15 C12 1_555 1_555
C13 C8 1_555 1_555
H16 C13 1_555 1_555
C14 O3 1_555 1_555
H17 C14 1_555 1_555
H18 C14 1_555 1_555
C15 C14 1_555 1_555
C16 C15 1_555 1_555
H19 C16 1_555 1_555
C17 C16 1_555 1_555
H20 C17 1_555 1_555
C18 C17 1_555 1_555
H21 C18 1_555 1_555
C19 C18 1_555 1_555
H22 C19 1_555 1_555
C20 C15 1_555 1_555
H23 C20 1_555 1_555
C21 O4 1_555 1_555
H24 C21 1_555 1_555
H25 C21 1_555 1_555
C22 C21 1_555 1_555
C23 C22 1_555 1_555
H26 C23 1_555 1_555
C24 C23 1_555 1_555
H27 C24 1_555 1_555
C25 C24 1_555 1_555
H28 C25 1_555 1_555
C26 C25 1_555 1_555
H29 C26 1_555 1_555
C27 C22 1_555 1_555
H30 C27 1_555 1_555
C28 C5 1_555 1_555
C29 N2 1_555 1_555
C30 C29 1_555 1_555
H31 C30 1_555 1_555
H32 C30 1_555 1_555
H33 C30 1_555 1_555
C31 C28 1_555 1_555
C32 O7 1_555 1_555
H34 C32 1_555 1_555
H35 C32 1_555 1_555
C33 C32 1_555 1_555
H36 C33 1_555 1_555
H37 C33 1_555 1_555
H38 C33 1_555 1_555
O9 C34 1_555 1_555
O10 C39 1_555 1_555
O11 C35 1_555 1_555
O12 C36 1_555 1_555
O13 N3 1_555 1_555
O14 N3 1_555 1_555
O15 C64 1_555 1_555
O16 C64 1_555 1_555
N3 C37 1_555 1_555
N4 H39 1_555 1_555
H40 N4 1_555 1_555
C34 H41 1_555 1_555
C35 C34 1_555 1_555
H42 C35 1_555 1_555
C36 C35 1_555 1_555
H43 C36 1_555 1_555
C37 C36 1_555 1_555
H44 C37 1_555 1_555
C38 O9 1_555 1_555
H45 C38 1_555 1_555
C39 C34 1_555 1_555
H46 C39 1_555 1_555
H47 C39 1_555 1_555
C40 O10 1_555 1_555
H48 C40 1_555 1_555
H49 C40 1_555 1_555
C41 C40 1_555 1_555
C42 C41 1_555 1_555
H50 C42 1_555 1_555
C43 C42 1_555 1_555
H51 C43 1_555 1_555
C44 C43 1_555 1_555
H52 C44 1_555 1_555
C45 C44 1_555 1_555
H53 C45 1_555 1_555
C46 C41 1_555 1_555
H54 C46 1_555 1_555
C47 O11 1_555 1_555
H55 C47 1_555 1_555
H56 C47 1_555 1_555
C48 C47 1_555 1_555
C49 C48 1_555 1_555
H57 C49 1_555 1_555
C50 C49 1_555 1_555
H58 C50 1_555 1_555
C51 C50 1_555 1_555
H59 C51 1_555 1_555
C52 C51 1_555 1_555
H60 C52 1_555 1_555
C53 C48 1_555 1_555
H61 C53 1_555 1_555
C54 O12 1_555 1_555
H62 C54 1_555 1_555
H63 C54 1_555 1_555
C55 C54 1_555 1_555
C56 C55 1_555 1_555
H64 C56 1_555 1_555
C57 C56 1_555 1_555
H65 C57 1_555 1_555
C58 C57 1_555 1_555
H66 C58 1_555 1_555
C59 C58 1_555 1_555
H67 C59 1_555 1_555
C60 C55 1_555 1_555
H68 C60 1_555 1_555
C61 C38 1_555 1_555
C62 N4 1_555 1_555
C63 C62 1_555 1_555
H69 C63 1_555 1_555
H70 C63 1_555 1_555
H71 C63 1_555 1_555
C64 C61 1_555 1_555
C65 O15 1_555 1_555
H72 C65 1_555 1_555
H73 C65 1_555 1_555
C66 C65 1_555 1_555
H74 C66 1_555 1_555
H75 C66 1_555 1_555
H76 C66 1_555 1_555
C4 C5 1_555 1_555
C12 C13 1_555 1_555
C19 C20 1_555 1_555
C26 C27 1_555 1_555
C28 C29 1_555 1_555
C37 C38 1_555 1_555
C45 C46 1_555 1_555
C52 C53 1_555 1_555
C59 C60 1_555 1_555
C61 C62 1_555 1_555

#END
