
#######################################################################
#
#                 Cambridge Crystallographic Data Centre
#                                CCDC 
#
#######################################################################
#
# If this CIF has been generated from an entry in the Cambridge 
# Structural Database, then it will include bibliographic, chemical, 
# crystal, experimental, refinement or atomic coordinate data resulting 
# from the CCDC's data processing and validation procedures.
#
#######################################################################

data_OLIDEU
_chemical_formula_moiety         'C15 H9 I1 O1 S1'
_chemical_name_systematic        3-Iodo-2-phenyl-4H-thiochromen-4-one
_symmetry_cell_setting           monoclinic
_symmetry_space_group_name_H-M   'P 21/c'
_symmetry_Int_Tables_number      14
_space_group_name_Hall           '-P 2ybc'
loop_
_symmetry_equiv_pos_site_id
_symmetry_equiv_pos_as_xyz
1 x,y,z
2 -x,1/2+y,1/2-z
3 -x,-y,-z
4 x,1/2-y,1/2+z
_cell_length_a                   5.44550(10)
_cell_length_b                   21.2270(5)
_cell_length_c                   11.1431(2)
_cell_angle_alpha                90
_cell_angle_beta                 99.5094(6)
_cell_angle_gamma                90
_cell_volume                     1270.35
_exptl_crystal_colour            colorless
_exptl_crystal_description       'part of a needle'
_cell_formula_units_Z            4
loop_
_atom_site_label
_atom_site_type_symbol
_atom_site_fract_x
_atom_site_fract_y
_atom_site_fract_z
C1 C 0.0719(3) 0.36114(8) 0.94756(16)
C2 C -0.0838(4) 0.34675(9) 1.03228(17)
H1 H -0.1827 0.3788 1.0599
C3 C -0.0933(4) 0.28609(9) 1.07538(17)
H2 H -0.1999 0.2760 1.1320
C4 C 0.0550(4) 0.23958(9) 1.03521(17)
H3 H 0.0519 0.1980 1.0663
C5 C 0.2053(4) 0.25335(8) 0.95122(17)
H4 H 0.3032 0.2209 0.9242
C6 C 0.2168(3) 0.31453(8) 0.90462(15)
C7 C 0.3783(3) 0.32553(8) 0.81164(16)
C8 C 0.3817(3) 0.38923(8) 0.75914(16)
C9 C 0.2667(3) 0.44063(8) 0.79417(15)
C10 C 0.2829(3) 0.50640(8) 0.74808(16)
C11 C 0.4920(3) 0.54296(9) 0.78811(18)
H5 H 0.6309 0.5249 0.8394
C12 C 0.4989(4) 0.60567(9) 0.75363(19)
H6 H 0.6422 0.6304 0.7818
C13 C 0.2983(3) 0.63226(8) 0.67852(16)
H7 H 0.3030 0.6752 0.6550
C14 C 0.0906(4) 0.59582(9) 0.63793(19)
H8 H -0.0472 0.6138 0.5857
C15 C 0.0817(4) 0.53310(8) 0.67291(18)
H9 H -0.0624 0.5085 0.6453
I1 I 0.57605(2) 0.39548(2) 0.61204(2)
O1 O 0.5018(3) 0.28270(6) 0.77874(13)
S1 S 0.07658(9) 0.43963(2) 0.90381(4)
loop_
_geom_bond_atom_site_label_1
_geom_bond_atom_site_label_2
_geom_bond_site_symmetry_1
_geom_bond_site_symmetry_2
C1 C2 1_555 1_555
C2 H1 1_555 1_555
C3 C2 1_555 1_555
H2 C3 1_555 1_555
C4 C3 1_555 1_555
H3 C4 1_555 1_555
C5 C4 1_555 1_555
H4 C5 1_555 1_555
C6 C1 1_555 1_555
C7 C6 1_555 1_555
C8 C7 1_555 1_555
C9 C8 1_555 1_555
C10 C9 1_555 1_555
C11 C10 1_555 1_555
H5 C11 1_555 1_555
C12 C11 1_555 1_555
H6 C12 1_555 1_555
C13 C12 1_555 1_555
H7 C13 1_555 1_555
C14 C13 1_555 1_555
H8 C14 1_555 1_555
C15 C10 1_555 1_555
H9 C15 1_555 1_555
I1 C8 1_555 1_555
O1 C7 1_555 1_555
S1 C1 1_555 1_555
C5 C6 1_555 1_555
C9 S1 1_555 1_555
C14 C15 1_555 1_555

#END
