
#######################################################################
#
#                 Cambridge Crystallographic Data Centre
#                                CCDC 
#
#######################################################################
#
# If this CIF has been generated from an entry in the Cambridge 
# Structural Database, then it will include bibliographic, chemical, 
# crystal, experimental, refinement or atomic coordinate data resulting 
# from the CCDC's data processing and validation procedures.
#
#######################################################################

data_OLIDIY
_chemical_formula_moiety         'C21 H18 N2 S1'
_chemical_name_systematic        
3-Methyl-5-(4-methylphenyl)-1-phenyl-4-(2-thienyl)-1H-pyrazole
_symmetry_cell_setting           monoclinic
_symmetry_space_group_name_H-M   'P 21/n'
_symmetry_Int_Tables_number      14
_space_group_name_Hall           '-P 2yn'
loop_
_symmetry_equiv_pos_site_id
_symmetry_equiv_pos_as_xyz
1 x,y,z
2 1/2-x,1/2+y,1/2-z
3 -x,-y,-z
4 1/2+x,1/2-y,1/2+z
_cell_length_a                   8.9475(19)
_cell_length_b                   10.159(2)
_cell_length_c                   19.164(4)
_cell_angle_alpha                90
_cell_angle_beta                 98.019(4)
_cell_angle_gamma                90
_cell_volume                     1724.93
_cell_formula_units_Z            4
_exptl_crystal_recrystallization_method dichloromethane/n-hexane
loop_
_atom_site_label
_atom_site_type_symbol
_atom_site_fract_x
_atom_site_fract_y
_atom_site_fract_z
S1 S 0.40719(7) 0.32942(6) 0.04116(3)
N1 N 0.51862(17) -0.05432(15) 0.16442(8)
N2 N 0.38494(18) -0.06685(17) 0.19110(9)
C1 C 0.3087(3) 0.4714(2) 0.04883(15)
H1 H 0.3017 0.5396 0.0162
C2 C 0.2425(3) 0.4730(2) 0.10756(15)
H2 H 0.1851 0.5429 0.1204
C3 C 0.2697(2) 0.3570(2) 0.14749(12)
H3 H 0.2311 0.3422 0.1894
C4 C 0.3586(2) 0.26771(19) 0.11863(10)
C5 C 0.4029(2) 0.13566(18) 0.14368(9)
C6 C 0.3156(2) 0.0477(2) 0.17834(10)
C7 C 0.5330(2) 0.06659(17) 0.13540(9)
C8 C 0.66002(19) 0.10570(18) 0.09822(9)
C9 C 0.7451(2) 0.21690(19) 0.11861(10)
H4 H 0.7278 0.2630 0.1586
C10 C 0.8548(2) 0.2596(2) 0.08023(11)
H5 H 0.9110 0.3341 0.0949
C11 C 0.8830(2) 0.1941(2) 0.02030(11)
C12 C 0.7999(2) 0.0817(2) 0.00099(11)
H6 H 0.8183 0.0350 -0.0387
C13 C 0.6904(2) 0.0375(2) 0.03940(10)
H7 H 0.6367 -0.0387 0.0256
C14 C 0.6204(2) -0.16326(18) 0.17005(10)
C15 C 0.5631(3) -0.2882(2) 0.15628(12)
H8 H 0.4601 -0.3005 0.1430
C16 C 0.6588(3) -0.3936(2) 0.16237(14)
H9 H 0.6204 -0.4778 0.1529
C17 C 0.8113(3) -0.3768(2) 0.18226(12)
H10 H 0.8755 -0.4492 0.1866
C18 C 0.8681(3) -0.2528(2) 0.19570(11)
H11 H 0.9714 -0.2413 0.2087
C19 C 0.7743(2) -0.1450(2) 0.19024(10)
H12 H 0.8133 -0.0611 0.1999
C20 C 0.1602(2) 0.0674(3) 0.19817(14)
H13 H 0.1211 -0.0156 0.2113
H14 H 0.0949 0.1029 0.1587
H15 H 0.1655 0.1274 0.2371
C21 C 1.0011(3) 0.2428(3) -0.02246(14)
H16 H 1.0977 0.2073 -0.0035
H17 H 1.0052 0.3372 -0.0206
H18 H 0.9755 0.2150 -0.0705
loop_
_geom_bond_atom_site_label_1
_geom_bond_atom_site_label_2
_geom_bond_site_symmetry_1
_geom_bond_site_symmetry_2
S1 C1 1_555 1_555
N1 N2 1_555 1_555
N2 C6 1_555 1_555
C1 H1 1_555 1_555
C2 C1 1_555 1_555
H2 C2 1_555 1_555
C3 C2 1_555 1_555
H3 C3 1_555 1_555
C4 S1 1_555 1_555
C5 C4 1_555 1_555
C6 C5 1_555 1_555
C7 N1 1_555 1_555
C8 C7 1_555 1_555
C9 C8 1_555 1_555
H4 C9 1_555 1_555
C10 C9 1_555 1_555
H5 C10 1_555 1_555
C11 C10 1_555 1_555
C12 C11 1_555 1_555
H6 C12 1_555 1_555
C13 C8 1_555 1_555
H7 C13 1_555 1_555
C14 N1 1_555 1_555
C15 C14 1_555 1_555
H8 C15 1_555 1_555
C16 C15 1_555 1_555
H9 C16 1_555 1_555
C17 C16 1_555 1_555
H10 C17 1_555 1_555
C18 C17 1_555 1_555
H11 C18 1_555 1_555
C19 C14 1_555 1_555
H12 C19 1_555 1_555
C20 C6 1_555 1_555
H13 C20 1_555 1_555
H14 C20 1_555 1_555
H15 C20 1_555 1_555
C21 C11 1_555 1_555
H16 C21 1_555 1_555
H17 C21 1_555 1_555
H18 C21 1_555 1_555
C3 C4 1_555 1_555
C5 C7 1_555 1_555
C12 C13 1_555 1_555
C18 C19 1_555 1_555

#END
