
#######################################################################
#
#                 Cambridge Crystallographic Data Centre
#                                CCDC 
#
#######################################################################
#
# If this CIF has been generated from an entry in the Cambridge 
# Structural Database, then it will include bibliographic, chemical, 
# crystal, experimental, refinement or atomic coordinate data resulting 
# from the CCDC's data processing and validation procedures.
#
#######################################################################

data_OLIGOF
_chemical_name_common            
9-Ethylidene-5,6,9,10,11a,12-hexahydro-6,10-methanoindolo(3,2-b)quinolizin-11(8H)-one
_chemical_formula_moiety         'C18 H18 N2 O1'
_chemical_name_systematic        17-Norkoumidin-16-one
_symmetry_cell_setting           monoclinic
_symmetry_space_group_name_H-M   'P 21'
_symmetry_Int_Tables_number      4
_space_group_name_Hall           'P 2yb'
loop_
_symmetry_equiv_pos_site_id
_symmetry_equiv_pos_as_xyz
1 x,y,z
2 -x,1/2+y,-z
_cell_length_a                   9.0546(17)
_cell_length_b                   7.3592(12)
_cell_length_c                   11.652(2)
_cell_angle_alpha                90
_cell_angle_beta                 105.800(4)
_cell_angle_gamma                90
_cell_volume                     747.092
_exptl_crystal_colour            colorless
_exptl_crystal_description       plate
_cell_formula_units_Z            2
loop_
_atom_site_label
_atom_site_type_symbol
_atom_site_fract_x
_atom_site_fract_y
_atom_site_fract_z
N1 N 0.1961(2) 0.8210(3) 1.0510(2)
C1 C 0.1111(3) 0.9078(4) 0.9498(3)
C2 C -0.0413(3) 0.8419(4) 0.8750(2)
H1 H -0.1004 0.7950 0.9276
N2 N -0.1212(2) 1.0046(3) 0.8106(2)
C3 C -0.0241(3) 1.0853(4) 0.7389(3)
H2 H -0.0850 1.1790 0.6872
C4 C 0.1179(3) 1.1779(4) 0.8206(3)
H3 H 0.1939 1.1983 0.7772
H4 H 0.0895 1.2946 0.8468
C5 C 0.1836(3) 1.0593(4) 0.9260(2)
C6 C 0.3235(3) 1.0765(4) 1.0206(3)
C7 C 0.4423(3) 1.2032(4) 1.0494(3)
H5 H 0.4404 1.3046 1.0014
C8 C 0.5617(3) 1.1763(5) 1.1492(3)
H6 H 0.6413 1.2605 1.1683
C9 C 0.5667(4) 1.0263(5) 1.2224(3)
H7 H 0.6499 1.0118 1.2892
C10 C 0.4503(3) 0.8976(5) 1.1981(3)
H8 H 0.4535 0.7975 1.2474
C11 C 0.3285(3) 0.9247(4) 1.0969(3)
C12 C -0.0272(3) 0.6892(4) 0.7851(3)
H9 H 0.0780 0.6465 0.8032
H10 H -0.0924 0.5873 0.7915
C13 C -0.0765(3) 0.7679(4) 0.6580(3)
H11 H -0.0599 0.6804 0.5993
C14 C 0.0150(4) 0.9390(4) 0.6587(3)
O1 O 0.1096(3) 0.9610(4) 0.6039(2)
C15 C -0.2689(3) 0.9433(4) 0.7282(3)
H12 H -0.3274 1.0486 0.6914
H13 H -0.3284 0.8796 0.7733
C16 C -0.2434(3) 0.8197(4) 0.6323(3)
C17 C -0.3542(4) 0.7616(5) 0.5400(3)
H14 H -0.3257 0.6915 0.4831
C18 C -0.5219(4) 0.8000(5) 0.5203(3)
H15 H -0.5792 0.7421 0.4481
H16 H -0.5390 0.9288 0.5139
H17 H -0.5549 0.7537 0.5863
loop_
_geom_bond_atom_site_label_1
_geom_bond_atom_site_label_2
_geom_bond_site_symmetry_1
_geom_bond_site_symmetry_2
N1 C1 1_555 1_555
C1 C2 1_555 1_555
C2 H1 1_555 1_555
N2 C2 1_555 1_555
C3 N2 1_555 1_555
H2 C3 1_555 1_555
C4 C3 1_555 1_555
H3 C4 1_555 1_555
H4 C4 1_555 1_555
C5 C1 1_555 1_555
C6 C5 1_555 1_555
C7 C6 1_555 1_555
H5 C7 1_555 1_555
C8 C7 1_555 1_555
H6 C8 1_555 1_555
C9 C8 1_555 1_555
H7 C9 1_555 1_555
C10 C9 1_555 1_555
H8 C10 1_555 1_555
C11 N1 1_555 1_555
C12 C2 1_555 1_555
H9 C12 1_555 1_555
H10 C12 1_555 1_555
C13 C12 1_555 1_555
H11 C13 1_555 1_555
C14 C3 1_555 1_555
O1 C14 1_555 1_555
C15 N2 1_555 1_555
H12 C15 1_555 1_555
H13 C15 1_555 1_555
C16 C13 1_555 1_555
C17 C16 1_555 1_555
H14 C17 1_555 1_555
C18 C17 1_555 1_555
H15 C18 1_555 1_555
H16 C18 1_555 1_555
H17 C18 1_555 1_555
C4 C5 1_555 1_555
C6 C11 1_555 1_555
C10 C11 1_555 1_555
C13 C14 1_555 1_555
C15 C16 1_555 1_555

#END
