
#######################################################################
#
#                 Cambridge Crystallographic Data Centre
#                                CCDC 
#
#######################################################################
#
# If this CIF has been generated from an entry in the Cambridge 
# Structural Database, then it will include bibliographic, chemical, 
# crystal, experimental, refinement or atomic coordinate data resulting 
# from the CCDC's data processing and validation procedures.
#
#######################################################################

data_OLIKEB
_chemical_formula_moiety         'C27 H18 N3 O4 P1'
_chemical_name_systematic        'Triquinolin-8-yl phosphate'
_symmetry_cell_setting           cubic
_symmetry_space_group_name_H-M   'P 21 3'
_symmetry_Int_Tables_number      198
_space_group_name_Hall           'P 2ac 2ab 3'
loop_
_symmetry_equiv_pos_site_id
_symmetry_equiv_pos_as_xyz
1 x,y,z
2 1/2-x,-y,1/2+z
3 -x,1/2+y,1/2-z
4 1/2+x,1/2-y,-z
5 z,x,y
6 1/2+z,1/2-x,-y
7 1/2-z,-x,1/2+y
8 -z,1/2+x,1/2-y
9 y,z,x
10 -y,1/2+z,1/2-x
11 1/2+y,1/2-z,-x
12 1/2-y,-z,1/2+x
_cell_length_a                   13.3936(15)
_cell_length_b                   13.3936(15)
_cell_length_c                   13.3936(15)
_cell_angle_alpha                90
_cell_angle_beta                 90
_cell_angle_gamma                90
_cell_volume                     2402.66
_exptl_crystal_colour            colorless
_exptl_crystal_description       block
_cell_formula_units_Z            4
loop_
_atom_site_label
_atom_site_type_symbol
_atom_site_fract_x
_atom_site_fract_y
_atom_site_fract_z
O1 O -0.03163(14) 0.46837(14) 1.03163(14)
C1 C 0.1723(2) 0.3959(2) 0.9566(2)
C2 C 0.1348(3) 0.3262(3) 0.8945(3)
H1 H 0.0861 0.3432 0.8481
C3 C 0.1703(3) 0.2270(3) 0.9007(3)
H2 H 0.1431 0.1779 0.8598
C4 C 0.2439(3) 0.2031(2) 0.9661(3)
H3 H 0.2673 0.1378 0.9687
C5 C 0.2851(2) 0.2751(2) 1.0297(3)
C6 C 0.3629(3) 0.2556(3) 1.0983(3)
H4 H 0.3900 0.1919 1.1026
C7 C 0.3977(3) 0.3287(3) 1.1571(3)
H5 H 0.4483 0.3159 1.2029
C8 C 0.3566(3) 0.4250(3) 1.1487(3)
H6 H 0.3820 0.4750 1.1897
C9 C 0.2489(2) 0.3744(2) 1.0264(2)
N1 N 0.28416(19) 0.44867(18) 1.0864(2)
O2 O 0.14169(14) 0.49646(14) 0.95332(17)
P1 P 0.03091(5) 0.53091(5) 0.96909(5)
C1G C 0.0434(2) 0.6723(2) 1.1041(2)
C2G C 0.1055(3) 0.6348(3) 1.1738(3)
H1G H 0.1519 0.5861 1.1568
C3G C 0.0993(3) 0.6703(3) 1.2730(3)
H2G H 0.1402 0.6431 1.3221
C4G C 0.0339(3) 0.7439(3) 1.2969(2)
H3G H 0.0313 0.7673 1.3622
C5G C -0.0297(3) 0.7851(2) 1.2249(2)
C6G C -0.0983(3) 0.8629(3) 1.2444(3)
H4G H -0.1026 0.8900 1.3081
C7G C -0.1571(3) 0.8977(3) 1.1713(3)
H5G H -0.2029 0.9483 1.1841
C8G C -0.1487(3) 0.8566(3) 1.0750(3)
H6G H -0.1897 0.8820 1.0250
C9G C -0.0264(2) 0.7489(2) 1.1256(2)
N1G N -0.0864(2) 0.78416(19) 1.05133(18)
O2G O 0.04668(17) 0.64169(14) 1.00354(14)
C1J C -0.1041(2) 0.5434(2) 0.8277(2)
C2J C -0.1738(3) 0.6055(3) 0.8652(3)
H1J H -0.1568 0.6519 0.9139
C3J C -0.2730(3) 0.5993(3) 0.8297(3)
H2J H -0.3221 0.6402 0.8569
C4J C -0.2969(2) 0.5339(3) 0.7561(3)
H3J H -0.3622 0.5313 0.7327
C5J C -0.2249(2) 0.4703(3) 0.7149(2)
C6J C -0.2444(3) 0.4017(3) 0.6371(3)
H4J H -0.3081 0.3974 0.6100
C7J C -0.1713(3) 0.3429(3) 0.6023(3)
H5J H -0.1841 0.2971 0.5517
C8J C -0.0750(3) 0.3513(3) 0.6434(3)
H6J H -0.0250 0.3103 0.6180
C9J C -0.1256(2) 0.4736(2) 0.7511(2)
N1J N -0.05133(18) 0.4136(2) 0.71584(19)
O2J O -0.00354(14) 0.54668(17) 0.85831(14)
loop_
_geom_bond_atom_site_label_1
_geom_bond_atom_site_label_2
_geom_bond_site_symmetry_1
_geom_bond_site_symmetry_2
O1 P1 1_555 1_555
C1 C2 1_555 1_555
C2 H1 1_555 1_555
C3 C2 1_555 1_555
H2 C3 1_555 1_555
C4 C3 1_555 1_555
H3 C4 1_555 1_555
C5 C4 1_555 1_555
C6 C5 1_555 1_555
H4 C6 1_555 1_555
C7 C6 1_555 1_555
H5 C7 1_555 1_555
C8 C7 1_555 1_555
H6 C8 1_555 1_555
C9 C1 1_555 1_555
N1 C8 1_555 1_555
O2 C1 1_555 1_555
P1 O2 1_555 1_555
C1G C2G 1_555 1_555
C2G H1G 1_555 1_555
C3G C2G 1_555 1_555
H2G C3G 1_555 1_555
C4G C3G 1_555 1_555
H3G C4G 1_555 1_555
C5G C4G 1_555 1_555
C6G C5G 1_555 1_555
H4G C6G 1_555 1_555
C7G C6G 1_555 1_555
H5G C7G 1_555 1_555
C8G C7G 1_555 1_555
H6G C8G 1_555 1_555
C9G C1G 1_555 1_555
N1G C8G 1_555 1_555
O2G P1 1_555 1_555
C1J C2J 1_555 1_555
C2J H1J 1_555 1_555
C3J C2J 1_555 1_555
H2J C3J 1_555 1_555
C4J C3J 1_555 1_555
H3J C4J 1_555 1_555
C5J C4J 1_555 1_555
C6J C5J 1_555 1_555
H4J C6J 1_555 1_555
C7J C6J 1_555 1_555
H5J C7J 1_555 1_555
C8J C7J 1_555 1_555
H6J C8J 1_555 1_555
C9J C1J 1_555 1_555
N1J C8J 1_555 1_555
O2J P1 1_555 1_555
C5 C9 1_555 1_555
C9 N1 1_555 1_555
C1G O2G 1_555 1_555
C5G C9G 1_555 1_555
C9G N1G 1_555 1_555
C1J O2J 1_555 1_555
C5J C9J 1_555 1_555
C9J N1J 1_555 1_555

#END
