
#######################################################################
#
#                 Cambridge Crystallographic Data Centre
#                                CCDC 
#
#######################################################################
#
# If this CIF has been generated from an entry in the Cambridge 
# Structural Database, then it will include bibliographic, chemical, 
# crystal, experimental, refinement or atomic coordinate data resulting 
# from the CCDC's data processing and validation procedures.
#
#######################################################################

data_OLIKOL
_chemical_formula_moiety         'C30 H21 O4 P1'
_chemical_name_systematic        'Trinaphth-1-yl phosphate'
_symmetry_cell_setting           monoclinic
_symmetry_space_group_name_H-M   'P 21/c'
_symmetry_Int_Tables_number      14
_space_group_name_Hall           '-P 2ybc'
loop_
_symmetry_equiv_pos_site_id
_symmetry_equiv_pos_as_xyz
1 x,y,z
2 -x,1/2+y,1/2-z
3 -x,-y,-z
4 x,1/2-y,1/2+z
_cell_length_a                   13.7844(15)
_cell_length_b                   9.8719(11)
_cell_length_c                   21.2839(19)
_cell_angle_alpha                90
_cell_angle_beta                 125.688(5)
_cell_angle_gamma                90
_cell_volume                     2352.37
_exptl_crystal_colour            green
_exptl_crystal_description       block
_cell_formula_units_Z            4
loop_
_atom_site_label
_atom_site_type_symbol
_atom_site_fract_x
_atom_site_fract_y
_atom_site_fract_z
P1 P 0.26759(5) -0.69936(5) 0.03863(3)
O1 O 0.18014(12) -0.69596(13) -0.05237(7)
O2 O 0.36891(12) -0.79527(14) 0.05231(8)
O3 O 0.20708(12) -0.78975(14) 0.06751(8)
O4 O 0.29967(14) -0.56832(15) 0.07550(9)
C1 C 0.09590(17) -0.5918(2) -0.09327(11)
C2 C 0.0096(2) -0.5665(2) -0.08293(13)
H1 H 0.0069 -0.6161 -0.0468
C3 C -0.0752(2) -0.4660(3) -0.12642(17)
H2 H -0.1343 -0.4482 -0.1192
C4 C -0.0713(2) -0.3946(3) -0.17917(17)
H3 H -0.1280 -0.3275 -0.2077
C5 C 0.0171(2) -0.4197(2) -0.19181(13)
C6 C 0.0231(3) -0.3497(3) -0.24715(18)
H4 H -0.0330 -0.2827 -0.2769
C7 C 0.1077(4) -0.3773(4) -0.25794(19)
H5 H 0.1099 -0.3292 -0.2947
C8 C 0.1922(3) -0.4774(4) -0.21438(18)
H6 H 0.2506 -0.4955 -0.2223
C9 C 0.1908(2) -0.5494(3) -0.16031(13)
H7 H 0.2473 -0.6168 -0.1321
C10 C 0.10395(18) -0.5216(2) -0.14723(11)
C11 C 0.42470(19) -0.7751(2) 0.01450(12)
C12 C 0.5081(2) -0.6768(3) 0.03945(16)
H8 H 0.5291 -0.6225 0.0813
C13 C 0.5622(3) -0.6582(3) 0.0015(2)
H9 H 0.6193 -0.5906 0.0181
C14 C 0.5328(3) -0.7365(4) -0.0586(2)
H10 H 0.5687 -0.7211 -0.0838
C15 C 0.4481(2) -0.8424(3) -0.08457(15)
C16 C 0.4163(3) -0.9299(4) -0.14631(19)
H11 H 0.4513 -0.9182 -0.1723
C17 C 0.3363(3) -1.0298(4) -0.16817(19)
H12 H 0.3166 -1.0857 -0.2092
C18 C 0.2824(3) -1.0510(3) -0.13035(18)
H13 H 0.2273 -1.1206 -0.1462
C19 C 0.3105(2) -0.9699(3) -0.07023(15)
H14 H 0.2751 -0.9851 -0.0447
C20 C 0.39262(19) -0.8634(2) -0.04647(13)
C21 C 0.18906(18) -0.9308(2) 0.05292(12)
C22 C 0.1033(2) -0.9786(3) -0.01795(14)
H15 H 0.0537 -0.9194 -0.0585
C23 C 0.0900(2) -1.1201(3) -0.02974(18)
H16 H 0.0317 -1.1541 -0.0786
C24 C 0.1608(3) -1.2069(3) 0.0290(2)
H17 H 0.1515 -1.2997 0.0198
C25 C 0.2487(2) -1.1584(2) 0.10432(16)
C26 C 0.3231(3) -1.2458(3) 0.1674(2)
H18 H 0.3139 -1.3391 0.1602
C27 C 0.4080(3) -1.1951(3) 0.2385(2)
H19 H 0.4558 -1.2539 0.2796
C28 C 0.4240(2) -1.0563(3) 0.25041(15)
H20 H 0.4836 -1.0231 0.2992
C29 C 0.3533(2) -0.9681(2) 0.19128(13)
H21 H 0.3643 -0.8753 0.2003
C30 C 0.26328(19) -1.0168(2) 0.11624(13)
loop_
_geom_bond_atom_site_label_1
_geom_bond_atom_site_label_2
_geom_bond_site_symmetry_1
_geom_bond_site_symmetry_2
P1 O1 1_555 1_555
O1 C1 1_555 1_555
O2 P1 1_555 1_555
O3 P1 1_555 1_555
O4 P1 1_555 1_555
C1 C2 1_555 1_555
C2 H1 1_555 1_555
C3 C2 1_555 1_555
H2 C3 1_555 1_555
C4 C3 1_555 1_555
H3 C4 1_555 1_555
C5 C4 1_555 1_555
C6 C5 1_555 1_555
H4 C6 1_555 1_555
C7 C6 1_555 1_555
H5 C7 1_555 1_555
C8 C7 1_555 1_555
H6 C8 1_555 1_555
C9 C8 1_555 1_555
H7 C9 1_555 1_555
C10 C1 1_555 1_555
C11 O2 1_555 1_555
C12 C11 1_555 1_555
H8 C12 1_555 1_555
C13 C12 1_555 1_555
H9 C13 1_555 1_555
C14 C13 1_555 1_555
H10 C14 1_555 1_555
C15 C14 1_555 1_555
C16 C15 1_555 1_555
H11 C16 1_555 1_555
C17 C16 1_555 1_555
H12 C17 1_555 1_555
C18 C17 1_555 1_555
H13 C18 1_555 1_555
C19 C18 1_555 1_555
H14 C19 1_555 1_555
C20 C11 1_555 1_555
C21 O3 1_555 1_555
C22 C21 1_555 1_555
H15 C22 1_555 1_555
C23 C22 1_555 1_555
H16 C23 1_555 1_555
C24 C23 1_555 1_555
H17 C24 1_555 1_555
C25 C24 1_555 1_555
C26 C25 1_555 1_555
H18 C26 1_555 1_555
C27 C26 1_555 1_555
H19 C27 1_555 1_555
C28 C27 1_555 1_555
H20 C28 1_555 1_555
C29 C28 1_555 1_555
H21 C29 1_555 1_555
C30 C21 1_555 1_555
C5 C10 1_555 1_555
C9 C10 1_555 1_555
C15 C20 1_555 1_555
C19 C20 1_555 1_555
C25 C30 1_555 1_555
C29 C30 1_555 1_555

#END
