
#######################################################################
#
#                 Cambridge Crystallographic Data Centre
#                                CCDC 
#
#######################################################################
#
# If this CIF has been generated from an entry in the Cambridge 
# Structural Database, then it will include bibliographic, chemical, 
# crystal, experimental, refinement or atomic coordinate data resulting 
# from the CCDC's data processing and validation procedures.
#
#######################################################################

data_OLIQAD
_chemical_formula_moiety         'C31 H28 Cl2 N2 O2'
_chemical_name_systematic        
(5R,8R,9S)-4-t-Butyl-8-(4-chlorophenyl)-9-(2-(4-chlorophenyl)vinyl)-2-phenyl-2,3-diazaspiro[4.4]non-3-ene-1,6-dione
_symmetry_cell_setting           monoclinic
_symmetry_space_group_name_H-M   'P 21'
_symmetry_Int_Tables_number      4
_space_group_name_Hall           'P 2yb'
loop_
_symmetry_equiv_pos_site_id
_symmetry_equiv_pos_as_xyz
1 x,y,z
2 -x,1/2+y,-z
_cell_length_a                   12.11454(12)
_cell_length_b                   11.67183(10)
_cell_length_c                   19.96566(17)
_cell_angle_alpha                90
_cell_angle_beta                 103.8328(9)
_cell_angle_gamma                90
_cell_volume                     2741.24
_exptl_crystal_colour            colorless
_exptl_crystal_description       plate
_cell_formula_units_Z            4
loop_
_atom_site_label
_atom_site_type_symbol
_atom_site_fract_x
_atom_site_fract_y
_atom_site_fract_z
C1 C 0.1777(3) 0.6186(3) 1.04132(17)
C2 C 0.1456(3) 0.6245(4) 1.10308(19)
H1 H 0.1511 0.5604 1.1314
C3 C 0.1051(4) 0.7274(4) 1.1222(2)
H2 H 0.0826 0.7322 1.1635
C4 C 0.0978(4) 0.8227(4) 1.0805(3)
H3 H 0.0718 0.8918 1.0942
C5 C 0.1293(4) 0.8155(3) 1.0187(3)
H4 H 0.1238 0.8797 0.9905
C6 C 0.1689(3) 0.7131(3) 0.9985(2)
H5 H 0.1894 0.7078 0.9566
C7 C 0.3077(3) 0.5018(3) 0.98906(16)
C8 C 0.3396(3) 0.3744(3) 0.99507(14)
C9 C 0.2602(3) 0.3306(3) 1.03722(15)
C10 C 0.2487(3) 0.2098(3) 1.0625(2)
C11 C 0.2145(6) 0.2127(5) 1.1299(3)
H6 H 0.2768 0.2405 1.1654
H7 H 0.1947 0.1368 1.1414
H8 H 0.1503 0.2625 1.1260
C12 C 0.3535(4) 0.1386(4) 1.0655(3)
H9 H 0.3737 0.1426 1.0219
H10 H 0.3384 0.0604 1.0754
H11 H 0.4150 0.1675 1.1012
C13 C 0.1514(5) 0.1505(5) 1.0080(3)
H12 H 0.0821 0.1929 1.0035
H13 H 0.1409 0.0738 1.0227
H14 H 0.1713 0.1483 0.9643
C14 C 0.4658(3) 0.3745(2) 1.03548(15)
C15 C 0.5380(3) 0.3455(3) 0.98646(15)
H15 H 0.5659 0.2674 0.9936
H16 H 0.6025 0.3970 0.9927
C16 C 0.4597(3) 0.3594(3) 0.91418(15)
H17 H 0.4550 0.4413 0.9030
C17 C 0.3421(3) 0.3208(3) 0.92396(15)
H18 H 0.3514 0.2386 0.9334
C18 C 0.2319(6) 0.3294(8) 0.8716(4)
H19 H 0.1724 0.2810 0.8747
C19 C 0.2171(5) 0.4060(5) 0.8200(4)
H20 H 0.2808 0.4446 0.8134
C20 C 0.1063(8) 0.4329(9) 0.7731(4)
C21 C 0.0778(9) 0.5441(9) 0.7507(5)
H21 H 0.1314 0.6023 0.7624
C22 C -0.0270(13) 0.5681(16) 0.7121(6)
H22 H -0.0456 0.6432 0.6984
C23 C -0.1114(17) 0.4780(18) 0.6914(8)
C24 C -0.092(3) 0.373(3) 0.7060(15)
H23 H -0.1458 0.3152 0.6908
C25 C 0.0277(12) 0.3488(13) 0.7512(7)
H24 H 0.0475 0.2736 0.7642
C26 C 0.5028(3) 0.2981(3) 0.85891(14)
C27 C 0.5365(3) 0.3618(3) 0.80780(15)
H25 H 0.5248 0.4406 0.8056
C28 C 0.5871(3) 0.3091(3) 0.76020(15)
H26 H 0.6095 0.3518 0.7264
C29 C 0.6032(3) 0.1923(3) 0.76433(15)
C30 C 0.5684(3) 0.1261(3) 0.81321(16)
H27 H 0.5787 0.0471 0.8145
C31 C 0.5182(3) 0.1800(3) 0.85980(16)
H28 H 0.4941 0.1363 0.8926
Cl1 Cl 0.67220(8) 0.12584(8) 0.70729(4)
Cl2 Cl -0.2466(4) 0.5138(4) 0.6479(2)
N1 N 0.1982(2) 0.4109(2) 1.05320(13)
N2 N 0.2235(2) 0.5136(2) 1.02329(13)
O1 O 0.3510(2) 0.5766(2) 0.96181(13)
O2 O 0.4964(2) 0.4000(2) 1.09572(11)
C40 C 0.1881(3) 0.6656(3) 0.53626(15)
C41 C 0.1607(3) 0.6869(3) 0.59877(17)
H36 H 0.1733 0.6315 0.6332
C42 C 0.1140(3) 0.7926(3) 0.6090(2)
H37 H 0.0962 0.8082 0.6509
C43 C 0.0941(3) 0.8743(3) 0.5575(2)
H38 H 0.0637 0.9450 0.5650
C44 C 0.1191(3) 0.8513(3) 0.4949(2)
H39 H 0.1042 0.9061 0.4600
C45 C 0.1666(3) 0.7469(3) 0.48381(17)
H40 H 0.1839 0.7314 0.4418
C46 C 0.3234(2) 0.5444(2) 0.49130(13)
C47 C 0.3518(2) 0.4160(2) 0.49871(14)
C48 C 0.2692(3) 0.3765(2) 0.53968(14)
C49 C 0.2522(3) 0.2545(3) 0.56213(16)
C50 C 0.1976(4) 0.2575(3) 0.62395(19)
H41 H 0.2469 0.2972 0.6616
H42 H 0.1858 0.1805 0.6378
H43 H 0.1259 0.2965 0.6111
C51 C 0.3648(3) 0.1904(3) 0.58283(19)
H44 H 0.3992 0.1872 0.5442
H45 H 0.3515 0.1140 0.5969
H46 H 0.4148 0.2296 0.6204
C52 C 0.1725(3) 0.1918(3) 0.50190(19)
H47 H 0.0996 0.2288 0.4912
H48 H 0.1637 0.1137 0.5147
H49 H 0.2042 0.1938 0.4622
C53 C 0.4774(3) 0.4147(2) 0.54145(15)
C54 C 0.5536(2) 0.3878(3) 0.49414(14)
H50 H 0.5840 0.3108 0.5023
H51 H 0.6163 0.4416 0.5011
C55 C 0.4776(2) 0.3986(2) 0.42099(14)
H52 H 0.4717 0.4801 0.4089
C56 C 0.3592(3) 0.3583(2) 0.43016(14)
H53 H 0.3641 0.2754 0.4384
C57 C 0.2643(3) 0.3782(3) 0.36810(14)
H54 H 0.2749 0.3497 0.3266
C58 C 0.1671(3) 0.4315(3) 0.36528(15)
H55 H 0.1571 0.4624 0.4064
C59 C 0.0730(3) 0.4471(3) 0.30384(15)
C60 C -0.0139(3) 0.5237(3) 0.30640(16)
H56 H -0.0081 0.5691 0.3454
C61 C -0.1092(3) 0.5339(3) 0.25204(17)
H57 H -0.1670 0.5849 0.2547
C62 C -0.1169(3) 0.4676(3) 0.19437(16)
C63 C -0.0309(3) 0.3929(4) 0.18921(19)
H58 H -0.0363 0.3494 0.1495
C64 C 0.0632(3) 0.3837(4) 0.24385(18)
H59 H 0.1215 0.3339 0.2404
C65 C 0.5181(2) 0.3357(3) 0.36516(14)
C66 C 0.5515(3) 0.3984(3) 0.31386(15)
H60 H 0.5484 0.4779 0.3148
C67 C 0.5892(3) 0.3445(3) 0.26149(15)
H61 H 0.6118 0.3872 0.2277
C68 C 0.5925(3) 0.2271(3) 0.26057(16)
C69 C 0.5602(3) 0.1611(3) 0.31081(16)
H62 H 0.5631 0.0816 0.3094
C70 C 0.5237(3) 0.2166(3) 0.36290(16)
H63 H 0.5025 0.1736 0.3970
Cl4 Cl 0.63845(8) 0.16021(8) 0.19377(4)
Cl5 Cl -0.24058(8) 0.47332(10) 0.12874(5)
N3 N 0.2105(2) 0.4590(2) 0.55591(12)
N4 N 0.2401(2) 0.5602(2) 0.52589(12)
O3 O 0.36920(19) 0.61721(18) 0.46378(10)
O4 O 0.50458(19) 0.4361(2) 0.60237(11)
H29? H 0.3329 0.2374 0.9229
C32? C 0.2521(7) 0.3833(10) 0.8657(5)
H30? H 0.2618 0.4614 0.8596
C33? C 0.1660(7) 0.3342(7) 0.8260(4)
H31? H 0.1623 0.2548 0.8280
C34? C 0.0731(11) 0.3932(11) 0.7776(6)
C35? C 0.0614(13) 0.5122(12) 0.7755(10)
H32? H 0.1213 0.5574 0.7993
C36? C -0.0407(19) 0.567(2) 0.7375(11)
H33? H -0.0498 0.6456 0.7399
C37? C -0.1174(17) 0.5058(13) 0.7009(9)
C38? C -0.100(3) 0.387(4) 0.7056(19)
H34? H -0.1603 0.3424 0.6815
C39? C -0.0132(12) 0.3311(14) 0.7381(8)
H35? H -0.0091 0.2518 0.7349
Cl3? Cl -0.2470(5) 0.5623(4) 0.6541(3)
loop_
_geom_bond_atom_site_label_1
_geom_bond_atom_site_label_2
_geom_bond_site_symmetry_1
_geom_bond_site_symmetry_2
C1 C2 1_555 1_555
C2 H1 1_555 1_555
C3 C2 1_555 1_555
H2 C3 1_555 1_555
C4 C3 1_555 1_555
H3 C4 1_555 1_555
C5 C4 1_555 1_555
H4 C5 1_555 1_555
C6 C1 1_555 1_555
H5 C6 1_555 1_555
C7 C8 1_555 1_555
C8 C9 1_555 1_555
C9 C10 1_555 1_555
C10 C11 1_555 1_555
C11 H6 1_555 1_555
H7 C11 1_555 1_555
H8 C11 1_555 1_555
C12 C10 1_555 1_555
H9 C12 1_555 1_555
H10 C12 1_555 1_555
H11 C12 1_555 1_555
C13 C10 1_555 1_555
H12 C13 1_555 1_555
H13 C13 1_555 1_555
H14 C13 1_555 1_555
C14 C8 1_555 1_555
C15 C14 1_555 1_555
H15 C15 1_555 1_555
H16 C15 1_555 1_555
C16 C15 1_555 1_555
H17 C16 1_555 1_555
C17 C8 1_555 1_555
H18 C17 1_555 1_555
C18 C17 1_555 1_555
H19 C18 1_555 1_555
C19 C18 1_555 1_555
H20 C19 1_555 1_555
C20 C19 1_555 1_555
C21 C20 1_555 1_555
H21 C21 1_555 1_555
C22 C21 1_555 1_555
H22 C22 1_555 1_555
C23 C22 1_555 1_555
C24 C23 1_555 1_555
H23 C24 1_555 1_555
C25 C20 1_555 1_555
H24 C25 1_555 1_555
C26 C16 1_555 1_555
C27 C26 1_555 1_555
H25 C27 1_555 1_555
C28 C27 1_555 1_555
H26 C28 1_555 1_555
C29 C28 1_555 1_555
C30 C29 1_555 1_555
H27 C30 1_555 1_555
C31 C26 1_555 1_555
H28 C31 1_555 1_555
Cl1 C29 1_555 1_555
Cl2 C23 1_555 1_555
N1 C9 1_555 1_555
N2 C1 1_555 1_555
O1 C7 1_555 1_555
O2 C14 1_555 1_555
C40 C41 1_555 1_555
C41 H36 1_555 1_555
C42 C41 1_555 1_555
H37 C42 1_555 1_555
C43 C42 1_555 1_555
H38 C43 1_555 1_555
C44 C43 1_555 1_555
H39 C44 1_555 1_555
C45 C40 1_555 1_555
H40 C45 1_555 1_555
C46 C47 1_555 1_555
C47 C48 1_555 1_555
C48 C49 1_555 1_555
C49 C50 1_555 1_555
C50 H41 1_555 1_555
H42 C50 1_555 1_555
H43 C50 1_555 1_555
C51 C49 1_555 1_555
H44 C51 1_555 1_555
H45 C51 1_555 1_555
H46 C51 1_555 1_555
C52 C49 1_555 1_555
H47 C52 1_555 1_555
H48 C52 1_555 1_555
H49 C52 1_555 1_555
C53 C47 1_555 1_555
C54 C53 1_555 1_555
H50 C54 1_555 1_555
H51 C54 1_555 1_555
C55 C54 1_555 1_555
H52 C55 1_555 1_555
C56 C47 1_555 1_555
H53 C56 1_555 1_555
C57 C56 1_555 1_555
H54 C57 1_555 1_555
C58 C57 1_555 1_555
H55 C58 1_555 1_555
C59 C58 1_555 1_555
C60 C59 1_555 1_555
H56 C60 1_555 1_555
C61 C60 1_555 1_555
H57 C61 1_555 1_555
C62 C61 1_555 1_555
C63 C62 1_555 1_555
H58 C63 1_555 1_555
C64 C59 1_555 1_555
H59 C64 1_555 1_555
C65 C55 1_555 1_555
C66 C65 1_555 1_555
H60 C66 1_555 1_555
C67 C66 1_555 1_555
H61 C67 1_555 1_555
C68 C67 1_555 1_555
C69 C68 1_555 1_555
H62 C69 1_555 1_555
C70 C65 1_555 1_555
H63 C70 1_555 1_555
Cl4 C68 1_555 1_555
Cl5 C62 1_555 1_555
N3 C48 1_555 1_555
N4 C40 1_555 1_555
O3 C46 1_555 1_555
O4 C53 1_555 1_555
C5 C6 1_555 1_555
C7 N2 1_555 1_555
C16 C17 1_555 1_555
C24 C25 1_555 1_555
C30 C31 1_555 1_555
N1 N2 1_555 1_555
C44 C45 1_555 1_555
C46 N4 1_555 1_555
C55 C56 1_555 1_555
C63 C64 1_555 1_555
C69 C70 1_555 1_555
N3 N4 1_555 1_555

#END
