
#######################################################################
#
#                 Cambridge Crystallographic Data Centre
#                                CCDC 
#
#######################################################################
#
# If this CIF has been generated from an entry in the Cambridge 
# Structural Database, then it will include bibliographic, chemical, 
# crystal, experimental, refinement or atomic coordinate data resulting 
# from the CCDC's data processing and validation procedures.
#
#######################################################################

data_OLIVOV
_chemical_formula_moiety         'C15 H13 N1 O3'
_chemical_name_systematic        2,5-Dimethoxyphenanthridin-6(5H)-one
_symmetry_cell_setting           orthorhombic
_symmetry_space_group_name_H-M   'P 21 21 21'
_symmetry_Int_Tables_number      19
_space_group_name_Hall           'P 2ac 2ab'
loop_
_symmetry_equiv_pos_site_id
_symmetry_equiv_pos_as_xyz
1 x,y,z
2 1/2-x,-y,1/2+z
3 1/2+x,1/2-y,-z
4 -x,1/2+y,1/2-z
_cell_length_a                   6.2890(2)
_cell_length_b                   12.4866(6)
_cell_length_c                   15.3930(6)
_cell_angle_alpha                90
_cell_angle_beta                 90
_cell_angle_gamma                90
_cell_volume                     1208.79
_exptl_crystal_colour            yellow
_exptl_crystal_description       block
_cell_formula_units_Z            4
loop_
_atom_site_label
_atom_site_type_symbol
_atom_site_fract_x
_atom_site_fract_y
_atom_site_fract_z
O1 O 0.00748(18) 0.22522(10) 0.12795(9)
C1 C 0.2646(3) -0.00051(15) 0.29806(12)
C2 C -0.2908(3) 0.17811(16) 0.36306(14)
H1 H -0.4113 0.2178 0.3768
O2 O -0.3012(2) 0.08200(11) 0.50110(9)
C3 C 0.5316(3) -0.04408(16) 0.18902(13)
H2 H 0.5845 -0.0363 0.1330
C4 C 0.3491(3) 0.01253(15) 0.21445(13)
O3 O 0.32487(19) 0.10153(12) 0.07714(9)
C5 C -0.1896(3) 0.19288(16) 0.28407(14)
H3 H -0.2421 0.2428 0.2447
C6 C 0.5513(3) -0.12295(16) 0.32986(14)
H4 H 0.6204 -0.1678 0.3689
C7 C 0.2570(3) 0.08773(16) 0.15145(13)
C8 C -0.0103(3) 0.13348(15) 0.26350(12)
C9 C 0.0745(3) 0.05943(15) 0.32233(12)
C10 C 0.3706(3) -0.06958(15) 0.35549(13)
H5 H 0.3181 -0.0794 0.4114
C11 C 0.6318(3) -0.11082(17) 0.24671(14)
H6 H 0.7535 -0.1478 0.2300
C12 C -0.0300(3) 0.04644(15) 0.40230(12)
H7 H 0.0237 -0.0015 0.4430
C13 C -0.1443(3) 0.18164(17) 0.06672(13)
H8 H -0.0813 0.1223 0.0365
H9 H -0.1838 0.2360 0.0257
H10 H -0.2685 0.1577 0.0974
C14 C -0.2115(3) 0.10393(16) 0.42123(13)
C15 C -0.4819(3) 0.14202(18) 0.52694(15)
H11 H -0.4460 0.2167 0.5287
H12 H -0.5269 0.1191 0.5836
H13 H -0.5950 0.1309 0.4861
N1 N 0.0862(2) 0.14472(12) 0.18171(10)
loop_
_geom_bond_atom_site_label_1
_geom_bond_atom_site_label_2
_geom_bond_site_symmetry_1
_geom_bond_site_symmetry_2
O1 C13 1_555 1_555
C1 C4 1_555 1_555
C2 H1 1_555 1_555
O2 C14 1_555 1_555
C3 H2 1_555 1_555
C4 C3 1_555 1_555
O3 C7 1_555 1_555
C5 C2 1_555 1_555
H3 C5 1_555 1_555
C6 H4 1_555 1_555
C7 C4 1_555 1_555
C8 C5 1_555 1_555
C9 C1 1_555 1_555
C10 C1 1_555 1_555
H5 C10 1_555 1_555
C11 C3 1_555 1_555
H6 C11 1_555 1_555
C12 C9 1_555 1_555
H7 C12 1_555 1_555
C13 H8 1_555 1_555
H9 C13 1_555 1_555
H10 C13 1_555 1_555
C14 C2 1_555 1_555
C15 O2 1_555 1_555
H11 C15 1_555 1_555
H12 C15 1_555 1_555
H13 C15 1_555 1_555
N1 O1 1_555 1_555
C6 C10 1_555 1_555
C6 C11 1_555 1_555
C7 N1 1_555 1_555
C8 C9 1_555 1_555
C8 N1 1_555 1_555
C12 C14 1_555 1_555

#END
