
#######################################################################
#
#                 Cambridge Crystallographic Data Centre
#                                CCDC 
#
#######################################################################
#
# If this CIF has been generated from an entry in the Cambridge 
# Structural Database, then it will include bibliographic, chemical, 
# crystal, experimental, refinement or atomic coordinate data resulting 
# from the CCDC's data processing and validation procedures.
#
#######################################################################

data_OLIVIO
_chemical_formula_moiety         '2(C15 H23 B1 N2 O2),C4 H8 O1'
_chemical_name_systematic        
'2-(2-(4,4,5,5-Tetramethyl-1,3,2-dioxaborolan-2-yl)phenyl-B)imidazolidine tetrahydrofuran solvate'
_chemical_properties_biological  
'potent antifungal and moderate antibacterial activity'
_symmetry_cell_setting           triclinic
_symmetry_space_group_name_H-M   'P -1'
_symmetry_Int_Tables_number      2
_space_group_name_Hall           '-P 1'
loop_
_symmetry_equiv_pos_site_id
_symmetry_equiv_pos_as_xyz
1 x,y,z
2 -x,-y,-z
_cell_length_a                   10.0250(16)
_cell_length_b                   10.9140(17)
_cell_length_c                   17.365(3)
_cell_angle_alpha                106.609(2)
_cell_angle_beta                 105.779(2)
_cell_angle_gamma                93.244(2)
_cell_volume                     1733.39
_exptl_crystal_colour            colorless
_exptl_crystal_description       parallelepiped
_chemical_melting_point          192deg.C
_cell_formula_units_Z            2
loop_
_atom_site_label
_atom_site_type_symbol
_atom_site_fract_x
_atom_site_fract_y
_atom_site_fract_z
B1 B 0.0977(3) 0.4208(3) 0.36439(14)
O1 O 0.13660(15) 0.34777(14) 0.29056(8)
C1 C 0.2229(2) 0.2543(2) 0.31284(13)
C2 C 0.1710(2) 0.2271(2) 0.38429(13)
O2 O 0.13445(16) 0.35027(14) 0.42426(8)
C3 C 0.2005(3) 0.1375(3) 0.23559(15)
C4 C 0.3755(3) 0.3169(3) 0.34396(17)
C5 C 0.0410(3) 0.1255(3) 0.35086(16)
C6 C 0.2831(3) 0.1919(3) 0.45014(16)
C7 C 0.1469(2) 0.5743(2) 0.40262(12)
C8 C 0.0372(2) 0.6451(2) 0.38712(12)
C9 C 0.0565(3) 0.7789(3) 0.41532(15)
C10 C 0.1887(3) 0.8454(3) 0.46205(17)
C11 C 0.3000(3) 0.7771(3) 0.47936(15)
C12 C 0.2798(3) 0.6439(2) 0.44934(13)
C13 C -0.1025(2) 0.5627(2) 0.34112(13)
N1 N -0.2044(2) 0.5842(2) 0.38746(12)
C14 C -0.2830(3) 0.4572(3) 0.36621(15)
C15 C -0.1737(3) 0.3668(3) 0.36546(16)
N2 N -0.07567(19) 0.42270(18) 0.32838(11)
H1 H 0.255(2) 0.067(2) 0.2506(14)
H2 H 0.234(3) 0.159(3) 0.1911(18)
H3 H 0.097(3) 0.099(2) 0.2092(16)
H4 H 0.439(2) 0.250(2) 0.3510(14)
H5 H 0.395(3) 0.351(2) 0.2987(16)
H6 H 0.399(3) 0.395(2) 0.3992(16)
H7 H 0.067(2) 0.040(2) 0.3336(14)
H8 H -0.031(3) 0.145(2) 0.3066(16)
H9 H -0.003(2) 0.130(2) 0.3994(15)
H10 H 0.316(3) 0.111(3) 0.4249(16)
H11 H 0.366(3) 0.269(3) 0.4812(16)
H12 H 0.244(2) 0.172(2) 0.4944(15)
H13 H -0.020(3) 0.824(2) 0.4077(14)
H14 H 0.204(3) 0.939(3) 0.4854(15)
H15 H 0.395(3) 0.824(2) 0.5081(15)
H16 H 0.362(2) 0.598(2) 0.4609(13)
H17 H -0.142(2) 0.5700(19) 0.2848(13)
H18 H -0.155(3) 0.613(2) 0.4474(16)
H19 H -0.351(3) 0.435(2) 0.3100(16)
H20 H -0.332(3) 0.455(2) 0.4071(16)
H21 H -0.206(3) 0.274(3) 0.3330(15)
H22 H -0.116(2) 0.370(2) 0.4241(15)
H23 H -0.102(2) 0.386(2) 0.2708(16)
B2 B 0.8853(3) 0.4065(3) 0.10047(14)
O3 O 0.82517(15) 0.33635(14) 0.14688(8)
C16 C 0.7175(2) 0.2343(2) 0.08716(13)
C17 C 0.7687(2) 0.2023(2) 0.00741(13)
O4 O 0.83301(16) 0.32719(14) 0.01317(8)
C18 C 0.5779(3) 0.2858(3) 0.07400(17)
C19 C 0.7103(4) 0.1238(3) 0.12361(19)
C20 C 0.8767(3) 0.1103(3) 0.00983(18)
C21 C 0.6513(3) 0.1510(3) -0.07579(15)
C22 C 0.8720(2) 0.5575(2) 0.11888(12)
C23 C 1.0000(2) 0.6369(2) 0.16039(12)
C24 C 1.0125(3) 0.7706(2) 0.18061(14)
C25 C 0.8940(3) 0.8269(3) 0.15835(15)
C26 C 0.7641(3) 0.7498(3) 0.11712(14)
C27 C 0.7534(3) 0.6173(2) 0.09831(13)
C28 C 1.1210(2) 0.5649(2) 0.17925(13)
N3 N 1.2305(2) 0.5873(2) 0.14337(12)
C29 C 1.2790(3) 0.4630(3) 0.11942(15)
C30 C 1.1467(3) 0.3652(3) 0.08449(15)
N4 N 1.06053(19) 0.42045(18) 0.14078(10)
H24 H 0.494(3) 0.215(3) 0.0398(16)
H25 H 0.573(3) 0.354(3) 0.0449(17)
H26 H 0.563(3) 0.324(2) 0.1277(17)
H27 H 0.647(3) 0.044(3) 0.0832(17)
H28 H 0.805(3) 0.100(3) 0.1407(17)
H29 H 0.667(3) 0.151(3) 0.1688(19)
H30 H 0.828(3) 0.016(3) -0.0033(15)
H31 H 0.917(3) 0.111(2) -0.0349(17)
H32 H 0.952(3) 0.139(3) 0.0626(19)
H33 H 0.596(3) 0.066(3) -0.0823(16)
H34 H 0.694(3) 0.131(2) -0.1211(16)
H35 H 0.580(2) 0.220(2) -0.0831(13)
H36 H 1.109(3) 0.824(2) 0.2078(14)
H37 H 0.899(2) 0.920(2) 0.1705(14)
H38 H 0.681(2) 0.790(2) 0.1047(13)
H39 H 0.663(2) 0.565(2) 0.0726(13)
H40 H 1.165(2) 0.582(2) 0.2434(14)
H41 H 1.196(2) 0.613(2) 0.0976(14)
H42 H 1.336(3) 0.461(2) 0.0809(15)
H43 H 1.338(2) 0.446(2) 0.1675(15)
H44 H 1.095(2) 0.361(2) 0.0258(14)
H45 H 1.156(2) 0.275(2) 0.0840(12)
H46 H 1.081(3) 0.384(2) 0.1865(16)
O5 O 0.4841(3) 0.9818(2) 0.31997(15)
C31 C 0.4560(5) 0.8689(5) 0.3375(3)
C32 C 0.5448(7) 0.7788(4) 0.3042(3)
C33 C 0.6713(6) 0.8686(7) 0.3157(3)
C34 C 0.6114(5) 0.9799(5) 0.2993(2)
H47 H 0.370(5) 0.837(5) 0.315(3)
H48 H 0.486(4) 0.892(4) 0.407(3)
H49 H 0.525(4) 0.736(4) 0.244(3)
H50 H 0.554(5) 0.723(5) 0.338(3)
H51 H 0.737(5) 0.834(5) 0.280(3)
H52 H 0.744(5) 0.897(4) 0.384(3)
H53 H 0.593(4) 0.975(4) 0.243(3)
H54 H 0.670(5) 1.067(4) 0.333(3)
loop_
_geom_bond_atom_site_label_1
_geom_bond_atom_site_label_2
_geom_bond_site_symmetry_1
_geom_bond_site_symmetry_2
B1 O1 1_555 1_555
O1 C1 1_555 1_555
C1 C2 1_555 1_555
C2 O2 1_555 1_555
O2 B1 1_555 1_555
C3 C1 1_555 1_555
C4 C1 1_555 1_555
C5 C2 1_555 1_555
C6 C2 1_555 1_555
C7 B1 1_555 1_555
C8 C7 1_555 1_555
C9 C8 1_555 1_555
C10 C9 1_555 1_555
C11 C10 1_555 1_555
C12 C7 1_555 1_555
C13 C8 1_555 1_555
N1 C13 1_555 1_555
C14 N1 1_555 1_555
C15 C14 1_555 1_555
N2 B1 1_555 1_555
H1 C3 1_555 1_555
H2 C3 1_555 1_555
H3 C3 1_555 1_555
H4 C4 1_555 1_555
H5 C4 1_555 1_555
H6 C4 1_555 1_555
H7 C5 1_555 1_555
H8 C5 1_555 1_555
H9 C5 1_555 1_555
H10 C6 1_555 1_555
H11 C6 1_555 1_555
H12 C6 1_555 1_555
H13 C9 1_555 1_555
H14 C10 1_555 1_555
H15 C11 1_555 1_555
H16 C12 1_555 1_555
H17 C13 1_555 1_555
H18 N1 1_555 1_555
H19 C14 1_555 1_555
H20 C14 1_555 1_555
H21 C15 1_555 1_555
H22 C15 1_555 1_555
H23 N2 1_555 1_555
B2 O3 1_555 1_555
O3 C16 1_555 1_555
C16 C17 1_555 1_555
C17 O4 1_555 1_555
O4 B2 1_555 1_555
C18 C16 1_555 1_555
C19 C16 1_555 1_555
C20 C17 1_555 1_555
C21 C17 1_555 1_555
C22 B2 1_555 1_555
C23 C22 1_555 1_555
C24 C23 1_555 1_555
C25 C24 1_555 1_555
C26 C25 1_555 1_555
C27 C22 1_555 1_555
C28 C23 1_555 1_555
N3 C28 1_555 1_555
C29 N3 1_555 1_555
C30 C29 1_555 1_555
N4 B2 1_555 1_555
H24 C18 1_555 1_555
H25 C18 1_555 1_555
H26 C18 1_555 1_555
H27 C19 1_555 1_555
H28 C19 1_555 1_555
H29 C19 1_555 1_555
H30 C20 1_555 1_555
H31 C20 1_555 1_555
H32 C20 1_555 1_555
H33 C21 1_555 1_555
H34 C21 1_555 1_555
H35 C21 1_555 1_555
H36 C24 1_555 1_555
H37 C25 1_555 1_555
H38 C26 1_555 1_555
H39 C27 1_555 1_555
H40 C28 1_555 1_555
H41 N3 1_555 1_555
H42 C29 1_555 1_555
H43 C29 1_555 1_555
H44 C30 1_555 1_555
H45 C30 1_555 1_555
H46 N4 1_555 1_555
O5 C31 1_555 1_555
C31 C32 1_555 1_555
C32 C33 1_555 1_555
C33 C34 1_555 1_555
C34 O5 1_555 1_555
H47 C31 1_555 1_555
H48 C31 1_555 1_555
H49 C32 1_555 1_555
H50 C32 1_555 1_555
H51 C33 1_555 1_555
H52 C33 1_555 1_555
H53 C34 1_555 1_555
H54 C34 1_555 1_555
C11 C12 1_555 1_555
C13 N2 1_555 1_555
C15 N2 1_555 1_555
C26 C27 1_555 1_555
C28 N4 1_555 1_555
C30 N4 1_555 1_555

#END
