
#######################################################################
#
#                 Cambridge Crystallographic Data Centre
#                                CCDC 
#
#######################################################################
#
# If this CIF has been generated from an entry in the Cambridge 
# Structural Database, then it will include bibliographic, chemical, 
# crystal, experimental, refinement or atomic coordinate data resulting 
# from the CCDC's data processing and validation procedures.
#
#######################################################################

data_OLIVEK
_chemical_formula_moiety         'C21 H27 B1 N2 O2,C2 H6 O1'
_chemical_name_systematic        
'1-Phenyl-2-(2-(4,4,5,5-tetramethyl-1,3,2-dioxaborolan-2-yl)phenyl-B)imidazolidine ethanol solvate'
_chemical_properties_biological  
'potent antifungal and moderate antibacterial activity'
_symmetry_cell_setting           triclinic
_symmetry_space_group_name_H-M   'P -1'
_symmetry_Int_Tables_number      2
_space_group_name_Hall           '-P 1'
loop_
_symmetry_equiv_pos_site_id
_symmetry_equiv_pos_as_xyz
1 x,y,z
2 -x,-y,-z
_cell_length_a                   9.5447(12)
_cell_length_b                   10.5484(13)
_cell_length_c                   10.9073(13)
_cell_angle_alpha                95.987(2)
_cell_angle_beta                 92.320(2)
_cell_angle_gamma                91.666(2)
_cell_volume                     1090.66
_exptl_crystal_colour            colorless
_exptl_crystal_description       parallelepiped
_chemical_melting_point          163-164deg.C
_cell_formula_units_Z            2
loop_
_atom_site_label
_atom_site_type_symbol
_atom_site_fract_x
_atom_site_fract_y
_atom_site_fract_z
B1 B 0.14222(14) 0.00272(13) 0.79509(13)
O1 O 0.14992(9) -0.10526(8) 0.86201(8)
C1 C 0.18754(14) -0.21213(12) 0.78036(13)
C2 C 0.27562(14) -0.14864(12) 0.68707(13)
O2 O 0.20572(9) -0.03132(8) 0.67827(8)
C3 C 0.05484(17) -0.27871(14) 0.72174(17)
C4 C 0.26522(19) -0.30225(15) 0.85567(17)
C5 C 0.2771(2) -0.22004(17) 0.55999(16)
C6 C 0.42473(15) -0.11528(16) 0.73594(16)
C7 C 0.18578(12) 0.13684(11) 0.87056(11)
C8 C 0.30149(13) 0.17086(12) 0.94891(12)
C9 C 0.31765(14) 0.29204(13) 1.00908(13)
C10 C 0.21756(15) 0.38151(13) 0.99276(13)
C11 C 0.10110(14) 0.35005(12) 0.91599(13)
C12 C 0.08733(13) 0.22828(11) 0.85519(11)
C13 C -0.03166(12) 0.17892(11) 0.76678(12)
N1 N -0.17133(10) 0.20656(10) 0.80787(10)
C14 C -0.24381(13) 0.09109(12) 0.83552(13)
C15 C -0.12680(13) 0.00116(12) 0.84771(12)
N2 N -0.02401(10) 0.03810(9) 0.75914(10)
C16 C -0.24402(13) 0.30764(12) 0.76953(12)
C17 C -0.17859(15) 0.40380(12) 0.71299(13)
C18 C -0.25426(17) 0.50305(14) 0.67579(15)
C19 C -0.39504(17) 0.51063(14) 0.69573(16)
C20 C -0.45929(16) 0.41820(15) 0.75434(15)
C21 C -0.38663(14) 0.31689(14) 0.79077(14)
H1 H 0.0073(19) -0.2227(17) 0.6651(16)
H2 H -0.006(2) -0.3005(17) 0.7906(19)
H3 H 0.0792(18) -0.3601(17) 0.6695(16)
H4 H 0.2970(18) -0.3734(17) 0.8034(16)
H5 H 0.200(2) -0.3357(18) 0.9133(19)
H6 H 0.350(2) -0.2616(16) 0.9014(17)
H7 H 0.182(2) -0.2335(17) 0.5243(17)
H8 H 0.334(2) -0.1722(17) 0.5061(18)
H9 H 0.3153(19) -0.3073(18) 0.5658(17)
H10 H 0.4826(18) -0.1912(16) 0.7342(16)
H11 H 0.4641(19) -0.0567(17) 0.6850(17)
H12 H 0.4254(17) -0.0717(15) 0.8215(17)
H13 H 0.3703(16) 0.1083(14) 0.9636(13)
H14 H 0.3975(17) 0.3153(14) 1.0616(15)
H15 H 0.2272(17) 0.4652(16) 1.0367(16)
H16 H 0.0334(16) 0.4148(14) 0.9070(14)
H17 H -0.0176(13) 0.2067(12) 0.6851(12)
H18 H -0.2909(16) 0.1049(14) 0.9105(15)
H19 H -0.3111(15) 0.0596(13) 0.7674(14)
H20 H -0.0835(15) 0.0148(13) 0.9287(14)
H21 H -0.1520(15) -0.0884(14) 0.8285(14)
H22 H -0.0521(15) 0.0045(13) 0.6852(14)
H23 H -0.0776(18) 0.4033(14) 0.6985(14)
H24 H -0.2091(18) 0.5655(17) 0.6342(16)
H25 H -0.446(2) 0.5828(18) 0.6734(18)
H26 H -0.557(2) 0.4208(18) 0.7712(18)
H27 H -0.4331(18) 0.2528(16) 0.8331(15)
C22 C 0.2568(3) 0.2726(3) 0.56081(18)
C23 C 0.26448(17) 0.16111(19) 0.46753(16)
O3 O 0.14876(11) 0.07547(10) 0.47089(9)
H28 H 0.262(3) 0.242(2) 0.638(3)
H29 H 0.161(5) 0.325(5) 0.543(5)
H30 H 0.333(3) 0.331(3) 0.550(3)
H31 H 0.2642(18) 0.1899(16) 0.3849(17)
H32 H 0.353(3) 0.115(2) 0.478(2)
H33 H 0.159(2) 0.0311(19) 0.540(2)
loop_
_geom_bond_atom_site_label_1
_geom_bond_atom_site_label_2
_geom_bond_site_symmetry_1
_geom_bond_site_symmetry_2
B1 O1 1_555 1_555
O1 C1 1_555 1_555
C1 C2 1_555 1_555
C2 O2 1_555 1_555
O2 B1 1_555 1_555
C3 C1 1_555 1_555
C4 C1 1_555 1_555
C5 C2 1_555 1_555
C6 C2 1_555 1_555
C7 B1 1_555 1_555
C8 C7 1_555 1_555
C9 C8 1_555 1_555
C10 C9 1_555 1_555
C11 C10 1_555 1_555
C12 C7 1_555 1_555
C13 C12 1_555 1_555
N1 C13 1_555 1_555
C14 N1 1_555 1_555
C15 C14 1_555 1_555
N2 B1 1_555 1_555
C16 N1 1_555 1_555
C17 C16 1_555 1_555
C18 C17 1_555 1_555
C19 C18 1_555 1_555
C20 C19 1_555 1_555
C21 C16 1_555 1_555
H1 C3 1_555 1_555
H2 C3 1_555 1_555
H3 C3 1_555 1_555
H4 C4 1_555 1_555
H5 C4 1_555 1_555
H6 C4 1_555 1_555
H7 C5 1_555 1_555
H8 C5 1_555 1_555
H9 C5 1_555 1_555
H10 C6 1_555 1_555
H11 C6 1_555 1_555
H12 C6 1_555 1_555
H13 C8 1_555 1_555
H14 C9 1_555 1_555
H15 C10 1_555 1_555
H16 C11 1_555 1_555
H17 C13 1_555 1_555
H18 C14 1_555 1_555
H19 C14 1_555 1_555
H20 C15 1_555 1_555
H21 C15 1_555 1_555
H22 N2 1_555 1_555
H23 C17 1_555 1_555
H24 C18 1_555 1_555
H25 C19 1_555 1_555
H26 C20 1_555 1_555
H27 C21 1_555 1_555
C22 C23 1_555 1_555
C23 O3 1_555 1_555
O3 H33 1_555 1_555
H28 C22 1_555 1_555
H29 C22 1_555 1_555
H30 C22 1_555 1_555
H31 C23 1_555 1_555
H32 C23 1_555 1_555
C11 C12 1_555 1_555
C13 N2 1_555 1_555
C15 N2 1_555 1_555
C20 C21 1_555 1_555

#END
