
#######################################################################
#
#                 Cambridge Crystallographic Data Centre
#                                CCDC 
#
#######################################################################
#
# If this CIF has been generated from an entry in the Cambridge 
# Structural Database, then it will include bibliographic, chemical, 
# crystal, experimental, refinement or atomic coordinate data resulting 
# from the CCDC's data processing and validation procedures.
#
#######################################################################

data_OLIZAL
_chemical_formula_moiety         
'2(C5 H9 N1 O2),2(C5 H10 N1 O2 1+),2(C12 H4 N4 1-),C12 H4 N4'
_chemical_name_systematic        
'bis(2-Carboxypyrrolidinium) bis(7,7,8,8-tetracyanoquinodimethanide) bis(tetracyanoquinodimethane) pyrrolidinium-2-carboxylate'
_symmetry_cell_setting           orthorhombic
_symmetry_space_group_name_H-M   'P 21 21 2'
_symmetry_Int_Tables_number      18
_space_group_name_Hall           'P 2 2ab'
loop_
_symmetry_equiv_pos_site_id
_symmetry_equiv_pos_as_xyz
1 x,y,z
2 -x,-y,z
3 1/2+x,1/2-y,-z
4 1/2-x,1/2+y,-z
_cell_length_a                   34.868(3)
_cell_length_b                   7.7456(6)
_cell_length_c                   9.6186(7)
_cell_angle_alpha                90
_cell_angle_beta                 90
_cell_angle_gamma                90
_cell_volume                     2597.73
_exptl_crystal_colour            'dark blue'
_exptl_crystal_description       plate
_cell_formula_units_Z            2
loop_
_atom_site_label
_atom_site_type_symbol
_atom_site_fract_x
_atom_site_fract_y
_atom_site_fract_z
C1 C -0.00144(10) 0.1786(4) 0.9351(2)
H1 H -0.0023 0.3012 0.9336
C7 C 0.03330(9) 0.0977(4) 0.9355(3)
H4 H 0.0561 0.1652 0.9351
C11 C 0.03619(9) -0.0845(3) 0.9367(3)
C13 C 0.10705(9) -0.0718(4) 0.9436(3)
C14 C 0.07220(9) -0.1686(4) 0.9393(3)
N4 N 0.07801(7) -0.4984(4) 0.9139(3)
C17 C 0.07565(8) -0.3514(4) 0.9257(3)
N7 N 0.13448(7) 0.0100(3) 0.9480(2)
C1A C 0.00144(10) -0.1786(4) 0.9351(2)
H1A H 0.0023 -0.3012 0.9336
C7A C -0.03330(9) -0.0977(4) 0.9355(3)
H4A H -0.0561 -0.1652 0.9351
C11A C -0.03619(9) 0.0845(3) 0.9367(3)
C13A C -0.10705(9) 0.0718(4) 0.9436(3)
C14A C -0.07220(9) 0.1686(4) 0.9393(3)
N4A N -0.07801(7) 0.4984(4) 0.9139(3)
C17A C -0.07565(8) 0.3514(4) 0.9257(3)
N7A N -0.13448(7) -0.0100(3) 0.9480(2)
C2 C 0.03538(8) 0.5874(3) 0.6023(3)
H2 H 0.0595 0.6445 0.6019
C3 C 0.03409(8) 0.4014(3) 0.6021(3)
C4 C 0.00312(8) 0.6808(3) 0.6030(3)
H3 H 0.0047 0.8032 0.6041
C6 C 0.06712(8) 0.1207(4) 0.6009(3)
N1 N 0.06853(6) -0.0273(3) 0.6039(3)
C12 C 0.10485(10) 0.3791(4) 0.5950(3)
C15 C 0.06720(8) 0.3060(3) 0.6004(3)
N6 N 0.13595(8) 0.4278(3) 0.5903(3)
C2A C -0.03538(8) 0.4126(3) 0.6023(3)
H2A H -0.0595 0.3555 0.6019
C3A C -0.03409(8) 0.5986(3) 0.6021(3)
C4A C -0.00312(8) 0.3192(3) 0.6030(3)
H3A H -0.0047 0.1968 0.6041
C6A C -0.06712(8) 0.8793(4) 0.6009(3)
N1A N -0.06853(6) 1.0273(3) 0.6039(3)
C12A C -0.10485(10) 0.6209(4) 0.5950(3)
C15A C -0.06720(8) 0.6940(3) 0.6004(3)
N6A N -0.13595(8) 0.5722(3) 0.5903(3)
C5 C 0.03506(9) 0.9066(4) 0.2715(3)
C8 C 0.07014(9) 0.8159(4) 0.2707(3)
N3 N 0.07199(7) 0.4838(4) 0.2809(3)
C10 C 0.07111(8) 0.6315(4) 0.2751(3)
C16 C -0.00092(9) 0.8207(4) 0.2728(2)
H5 H -0.0015 0.6981 0.2742
C19 C 0.10608(9) 0.9017(4) 0.2762(3)
C22 C 0.03431(9) 1.0904(4) 0.2721(3)
H11 H 0.0579 1.1521 0.2721
N5 N 0.13509(8) 0.9727(3) 0.2796(2)
C5A C -0.03506(9) 1.0934(4) 0.2715(3)
C8A C -0.07014(9) 1.1841(4) 0.2707(3)
N3A N -0.07199(7) 1.5162(4) 0.2809(3)
C10A C -0.07111(8) 1.3685(4) 0.2751(3)
C16A C 0.00092(9) 1.1793(4) 0.2728(2)
H5A H 0.0015 1.3019 0.2742
C19A C -0.10608(9) 1.0983(4) 0.2762(3)
C22A C -0.03431(9) 0.9096(4) 0.2721(3)
H11A H -0.0579 0.8479 0.2721
N5A N -0.13509(8) 1.0273(3) 0.2796(2)
O1 O 0.25110(6) 0.3973(3) 0.15786(18)
C9 C 0.24360(9) 0.3791(4) 0.0349(3)
O4 O 0.26647(6) 0.4212(3) -0.06449(18)
C18 C 0.16488(9) 0.5284(4) 0.0969(3)
H6 H 0.1852 0.5957 0.1442
H7 H 0.1416 0.6007 0.0885
C20 C 0.20435(8) 0.3130(4) -0.0074(3)
H8 H 0.2063 0.2293 -0.0862
C25 C 0.17830(8) 0.4658(4) -0.0446(3)
H14 H 0.1927 0.5569 -0.0944
H15 H 0.1564 0.4282 -0.1027
C28 C 0.15644(9) 0.3627(4) 0.1741(3)
H19 H 0.1603 0.3779 0.2753
H20 H 0.1297 0.3247 0.1573
N8 N 0.18464(8) 0.2334(3) 0.1158(3)
H23 H 0.1724(7) 0.142(4) 0.092(3)
H24 H 0.2030(13) 0.192(6) 0.191(5)
O2 O 0.22115(5) 0.1024(2) 0.35728(18)
N2 N 0.20773(7) 0.0272(3) 0.6246(3)
O3 O 0.24557(6) -0.1590(3) 0.3069(2)
C21 C 0.15927(8) -0.1801(4) 0.6264(3)
H9 H 0.1338 -0.2126 0.5895
H10 H 0.1615 -0.2227 0.7231
C23 C 0.23009(8) -0.0467(4) 0.3880(3)
C24 C 0.19104(8) -0.2531(4) 0.5361(3)
H12 H 0.1815 -0.2759 0.4409
H13 H 0.2009 -0.3624 0.5758
C26 C 0.16493(8) 0.0132(3) 0.6205(3)
H16 H 0.1544 0.0626 0.5336
H17 H 0.1530 0.0714 0.7013
C27 C 0.22286(8) -0.1145(3) 0.5337(3)
H18 H 0.2471 -0.1623 0.5737
H21 H 0.2172(8) 0.006(4) 0.723(3)
H22 H 0.2162(10) 0.135(4) 0.594(4)
H25 H 0.2437(14) -0.124(6) 0.2208(19)
loop_
_geom_bond_atom_site_label_1
_geom_bond_atom_site_label_2
_geom_bond_site_symmetry_1
_geom_bond_site_symmetry_2
C1 H1 1_555 1_555
C2 H2 1_555 1_555
C3 C2 1_555 1_555
C4 C2 1_555 1_555
H3 C4 1_555 1_555
C5 C8 1_555 1_555
C6 N1 1_555 1_555
O1 C9 1_555 1_555
C7 C1 1_555 1_555
H4 C7 1_555 1_555
O2 C23 1_555 1_555
N2 C26 1_555 1_555
C8 C10 1_555 1_555
C9 O4 1_555 1_555
N3 C10 1_555 1_555
O3 C23 1_555 1_555
C11 C7 1_555 1_555
C12 C15 1_555 1_555
C13 C14 1_555 1_555
C14 C11 1_555 1_555
C15 C3 1_555 1_555
C16 C5 1_555 1_555
H5 C16 1_555 1_555
N4 C17 1_555 1_555
C17 C14 1_555 1_555
C18 H6 1_555 1_555
H7 C18 1_555 1_555
C19 C8 1_555 1_555
C20 C9 1_555 1_555
H8 C20 1_555 1_555
C21 H9 1_555 1_555
H10 C21 1_555 1_555
C22 C5 1_555 1_555
H11 C22 1_555 1_555
N5 C19 1_555 1_555
N6 C12 1_555 1_555
C23 C27 1_555 1_555
C24 C21 1_555 1_555
H12 C24 1_555 1_555
H13 C24 1_555 1_555
C25 C18 1_555 1_555
H14 C25 1_555 1_555
H15 C25 1_555 1_555
C26 C21 1_555 1_555
H16 C26 1_555 1_555
H17 C26 1_555 1_555
C27 N2 1_555 1_555
H18 C27 1_555 1_555
N7 C13 1_555 1_555
C28 C18 1_555 1_555
H19 C28 1_555 1_555
H20 C28 1_555 1_555
N8 C20 1_555 1_555
H21 N2 1_555 1_555
H22 N2 1_555 1_555
H23 N8 1_555 1_555
H24 N8 1_555 1_555
H25 O3 1_555 1_555
C1A C11 1_555 1_555
H1A C1A 1_555 1_555
C2A H2A 1_555 1_555
C3A C4 1_555 1_555
C4A C3 1_555 1_555
H3A C4A 1_555 1_555
C5A C8A 1_555 1_555
C6A N1A 1_555 1_555
C7A C1A 1_555 1_555
H4A C7A 1_555 1_555
C8A C10A 1_555 1_555
N3A C10A 1_555 1_555
C11A C1 1_555 1_555
C12A C15A 1_555 1_555
C13A C14A 1_555 1_555
C14A C11A 1_555 1_555
C15A C3A 1_555 1_555
C16A C22 1_555 1_555
H5A C16A 1_555 1_555
N4A C17A 1_555 1_555
C17A C14A 1_555 1_555
C19A C8A 1_555 1_555
C22A C16 1_555 1_555
H11A C22A 1_555 1_555
N5A C19A 1_555 1_555
N6A C12A 1_555 1_555
N7A C13A 1_555 1_555
C6 C15 1_555 1_555
C20 C25 1_555 1_555
C24 C27 1_555 1_555
C28 N8 1_555 1_555
C2A C3A 1_555 1_555
C2A C4A 1_555 1_555
C5A C16A 1_555 1_555
C5A C22A 1_555 1_555
C6A C15A 1_555 1_555
C7A C11A 1_555 1_555

#END
