
#######################################################################
#
#                 Cambridge Crystallographic Data Centre
#                                CCDC 
#
#######################################################################
#
# If this CIF has been generated from an entry in the Cambridge 
# Structural Database, then it will include bibliographic, chemical, 
# crystal, experimental, refinement or atomic coordinate data resulting 
# from the CCDC's data processing and validation procedures.
#
#######################################################################

data_OLOCAT
_chemical_name_common            'C.I. Pigment Red 266'
_chemical_formula_moiety         'C25 H20 N4 O4'
_chemical_name_systematic        
4-((4-(Aminocarbonyl)phenyl)hydrazono)-N-(2-methoxyphenyl)-3-oxo-3,4-dihydronaphthalene-2-carboxamide
_symmetry_cell_setting           monoclinic
_symmetry_space_group_name_H-M   'P 21/n'
_symmetry_Int_Tables_number      14
_space_group_name_Hall           '-P 2yn'
loop_
_symmetry_equiv_pos_site_id
_symmetry_equiv_pos_as_xyz
1 x,y,z
2 1/2+x,1/2-y,1/2+z
3 -x,-y,-z
4 1/2-x,1/2+y,1/2-z
_cell_length_a                   7.2540(10)
_cell_length_b                   24.115(3)
_cell_length_c                   11.565(2)
_cell_angle_alpha                90
_cell_angle_beta                 94.220(10)
_cell_angle_gamma                90
_cell_volume                     2017.58
_exptl_crystal_colour            red
_exptl_crystal_description       'triangular plate'
_cell_formula_units_Z            4
_exptl_crystal_recrystallization_method nitrobenzene
_exptl_crystal_preparation       pigment
loop_
_atom_site_label
_atom_site_type_symbol
_atom_site_fract_x
_atom_site_fract_y
_atom_site_fract_z
N1 N 0.7260(2) 0.21014(5) 0.81610(12)
H1 H 0.826(3) 0.1985(8) 0.7912(16)
N2 N 0.70924(19) 0.26380(5) 0.81015(11)
C1 C 0.5895(2) 0.17576(7) 0.85697(14)
C2 C 0.6343(2) 0.11985(7) 0.86939(14)
H2 H 0.7535 0.1071 0.8528
C3 C 0.5056(2) 0.08300(6) 0.90571(15)
H3 H 0.5369 0.0449 0.9152
C4 C 0.3295(2) 0.10119(7) 0.92866(14)
C5 C 0.2873(2) 0.15742(7) 0.91831(14)
H4 H 0.1686 0.1702 0.9358
C6 C 0.4167(2) 0.19500(7) 0.88274(15)
H5 H 0.3874 0.2333 0.8761
C7 C 0.1912(2) 0.05846(6) 0.95898(14)
O1 O 0.21751(17) 0.00909(5) 0.93557(12)
N3 N 0.0402(2) 0.07550(6) 1.00793(14)
H6 H -0.042(3) 0.0479(8) 1.0285(16)
H7 H 0.026(3) 0.1111(8) 1.0283(16)
C8 C 0.8457(2) 0.29263(7) 0.76501(14)
C9 C 1.0063(2) 0.26650(7) 0.71928(14)
O2 O 1.02365(16) 0.21421(5) 0.72299(11)
C10 C 1.1446(2) 0.30173(7) 0.67047(14)
C11 C 1.1245(2) 0.35767(7) 0.67620(14)
H8 H 1.2189 0.3802 0.6481
C12 C 0.9696(2) 0.38480(7) 0.72198(14)
C13 C 0.9566(3) 0.44295(7) 0.72281(15)
H9 H 1.0538 0.4647 0.6957
C14 C 0.8045(3) 0.46865(7) 0.76242(16)
H10 H 0.7971 0.5080 0.7634
C15 C 0.6608(3) 0.43667(7) 0.80128(16)
H11 H 0.5546 0.4545 0.8271
C16 C 0.6707(2) 0.37968(7) 0.80278(15)
H12 H 0.5722 0.3586 0.8303
C17 C 0.8258(2) 0.35248(7) 0.76388(14)
O3 O 1.42644(16) 0.31045(5) 0.57583(11)
C18 C 1.3109(2) 0.27915(7) 0.61400(14)
N4 N 1.3190(2) 0.22321(6) 0.60724(12)
H13 H 1.228(3) 0.2058(8) 0.6389(16)
C19 C 1.4588(2) 0.18879(7) 0.56802(14)
C20 C 1.6272(2) 0.20672(8) 0.53259(15)
H14 H 1.6537 0.2453 0.5299
C21 C 1.7574(3) 0.16828(8) 0.50092(16)
H15 H 1.8735 0.1807 0.4779
C22 C 1.7193(3) 0.11237(8) 0.50274(17)
H16 H 1.8086 0.0864 0.4803
C23 C 1.5502(3) 0.09372(8) 0.53736(16)
H17 H 1.5240 0.0551 0.5385
C24 C 1.4208(2) 0.13150(7) 0.57008(15)
O4 O 1.25075(18) 0.11823(5) 0.60622(11)
C25 C 1.2120(3) 0.06142(7) 0.62649(19)
H18 H 1.2100 0.0410 0.5532
H19 H 1.0914 0.0582 0.6589
H20 H 1.3080 0.0460 0.6813
loop_
_geom_bond_atom_site_label_1
_geom_bond_atom_site_label_2
_geom_bond_site_symmetry_1
_geom_bond_site_symmetry_2
N1 H1 1_555 1_555
N2 N1 1_555 1_555
C1 N1 1_555 1_555
C2 C1 1_555 1_555
H2 C2 1_555 1_555
C3 C2 1_555 1_555
H3 C3 1_555 1_555
C4 C3 1_555 1_555
C5 C4 1_555 1_555
H4 C5 1_555 1_555
C6 C1 1_555 1_555
H5 C6 1_555 1_555
C7 C4 1_555 1_555
O1 C7 1_555 1_555
N3 C7 1_555 1_555
H6 N3 1_555 1_555
H7 N3 1_555 1_555
C8 N2 1_555 1_555
C9 C8 1_555 1_555
O2 C9 1_555 1_555
C10 C9 1_555 1_555
C11 C10 1_555 1_555
H8 C11 1_555 1_555
C12 C11 1_555 1_555
C13 C12 1_555 1_555
H9 C13 1_555 1_555
C14 C13 1_555 1_555
H10 C14 1_555 1_555
C15 C14 1_555 1_555
H11 C15 1_555 1_555
C16 C15 1_555 1_555
H12 C16 1_555 1_555
C17 C8 1_555 1_555
O3 C18 1_555 1_555
C18 C10 1_555 1_555
N4 C18 1_555 1_555
H13 N4 1_555 1_555
C19 N4 1_555 1_555
C20 C19 1_555 1_555
H14 C20 1_555 1_555
C21 C20 1_555 1_555
H15 C21 1_555 1_555
C22 C21 1_555 1_555
H16 C22 1_555 1_555
C23 C22 1_555 1_555
H17 C23 1_555 1_555
C24 C19 1_555 1_555
O4 C24 1_555 1_555
C25 O4 1_555 1_555
H18 C25 1_555 1_555
H19 C25 1_555 1_555
H20 C25 1_555 1_555
C5 C6 1_555 1_555
C12 C17 1_555 1_555
C16 C17 1_555 1_555
C23 C24 1_555 1_555

#END
