
#######################################################################
#
#                 Cambridge Crystallographic Data Centre
#                                CCDC 
#
#######################################################################
#
# If this CIF has been generated from an entry in the Cambridge 
# Structural Database, then it will include bibliographic, chemical, 
# crystal, experimental, refinement or atomic coordinate data resulting 
# from the CCDC's data processing and validation procedures.
#
#######################################################################

data_OLOCEZ
_chemical_formula_moiety         'C20 H15 Br1 O2'
_chemical_name_systematic        
(R)-7-bromo-1-(4-methoxyphenyl)-2-methylene-1,2-dihydronaphtho[2,1-b]furan
_symmetry_cell_setting           monoclinic
_symmetry_space_group_name_H-M   'P 21'
_symmetry_Int_Tables_number      4
_space_group_name_Hall           'P 2yb'
loop_
_symmetry_equiv_pos_site_id
_symmetry_equiv_pos_as_xyz
1 x,y,z
2 -x,1/2+y,-z
_cell_length_a                   5.3188(17)
_cell_length_b                   13.857(4)
_cell_length_c                   10.960(5)
_cell_angle_alpha                90
_cell_angle_beta                 95.524(5)
_cell_angle_gamma                90
_cell_volume                     804.029
_exptl_crystal_colour            colorless
_exptl_crystal_description       block
_chemical_melting_point          '104-106 deg.C'
_cell_formula_units_Z            2
loop_
_atom_site_label
_atom_site_type_symbol
_atom_site_fract_x
_atom_site_fract_y
_atom_site_fract_z
Br1 Br 1.19355(7) 0.41378(4) 0.91103(3)
O1 O 0.5382(5) 0.61462(19) 0.0874(3)
O2 O 0.5857(6) 0.11782(19) 0.3053(2)
C1 C 0.4223(6) 0.2720(2) 0.3610(3)
H1 H 0.2715 0.2752 0.4056
C2 C 0.6467(6) 0.2396(2) 0.4468(3)
C3 C 0.7671(6) 0.2836(2) 0.5529(3)
C4 C 0.9849(6) 0.2354(2) 0.6121(3)
C5 C 1.0652(7) 0.1460(3) 0.5649(3)
H2 H 1.2067 0.1154 0.6037
C6 C 0.9396(7) 0.1040(3) 0.4639(4)
H3 H 0.9911 0.0452 0.4339
C7 C 0.7296(7) 0.1534(3) 0.4077(3)
C8 C 0.4001(7) 0.1866(2) 0.2718(3)
C9 C 0.2379(8) 0.1734(3) 0.1736(4)
H4 H 0.2472 0.1180 0.1264
H5 H 0.1148 0.2196 0.1518
C10 C 0.6851(6) 0.3700(2) 0.6054(3)
H6 H 0.5450 0.4020 0.5675
C11 C 0.8060(6) 0.4076(3) 0.7101(3)
H7 H 0.7464 0.4635 0.7446
C12 C 1.0245(7) 0.3602(3) 0.7657(3)
C13 C 1.1118(7) 0.2770(3) 0.7199(3)
H8 H 1.2544 0.2472 0.7588
C14 C 0.4563(6) 0.3672(3) 0.2951(3)
C15 C 0.6521(6) 0.3779(2) 0.2185(3)
H9 H 0.7673 0.3280 0.2126
C16 C 0.6751(6) 0.4610(3) 0.1524(3)
H10 H 0.8069 0.4674 0.1031
C17 C 0.5018(6) 0.5360(2) 0.1588(3)
C18 C 0.3112(7) 0.5269(3) 0.2358(4)
H11 H 0.1974 0.5771 0.2429
C19 C 0.2910(6) 0.4426(3) 0.3019(3)
H12 H 0.1614 0.4370 0.3527
C20 C 0.3368(8) 0.6819(3) 0.0704(5)
H13 H 0.3756 0.7297 0.0117
H14 H 0.3143 0.7127 0.1471
H15 H 0.1843 0.6488 0.0410
loop_
_geom_bond_atom_site_label_1
_geom_bond_atom_site_label_2
_geom_bond_site_symmetry_1
_geom_bond_site_symmetry_2
Br1 C12 1_555 1_555
O1 C17 1_555 1_555
O2 C7 1_555 1_555
C1 H1 1_555 1_555
C2 C1 1_555 1_555
C3 C2 1_555 1_555
C4 C3 1_555 1_555
C5 C4 1_555 1_555
H2 C5 1_555 1_555
C6 C5 1_555 1_555
H3 C6 1_555 1_555
C7 C2 1_555 1_555
C8 O2 1_555 1_555
C9 C8 1_555 1_555
H4 C9 1_555 1_555
H5 C9 1_555 1_555
C10 C3 1_555 1_555
H6 C10 1_555 1_555
C11 C10 1_555 1_555
H7 C11 1_555 1_555
C12 C11 1_555 1_555
C13 C4 1_555 1_555
H8 C13 1_555 1_555
C14 C1 1_555 1_555
C15 C14 1_555 1_555
H9 C15 1_555 1_555
C16 C15 1_555 1_555
H10 C16 1_555 1_555
C17 C16 1_555 1_555
C18 C17 1_555 1_555
H11 C18 1_555 1_555
C19 C14 1_555 1_555
H12 C19 1_555 1_555
C20 O1 1_555 1_555
H13 C20 1_555 1_555
H14 C20 1_555 1_555
H15 C20 1_555 1_555
C1 C8 1_555 1_555
C6 C7 1_555 1_555
C12 C13 1_555 1_555
C18 C19 1_555 1_555

#END
