
#######################################################################
#
#                 Cambridge Crystallographic Data Centre
#                                CCDC 
#
#######################################################################
#
# If this CIF has been generated from an entry in the Cambridge 
# Structural Database, then it will include bibliographic, chemical, 
# crystal, experimental, refinement or atomic coordinate data resulting 
# from the CCDC's data processing and validation procedures.
#
#######################################################################

data_OLODUP
_chemical_name_common            
'4,9,14,19,24-pentabutoxy-26,29,31,33,35-pentamethoxypillar[5]arene hexane solvate'
_chemical_formula_moiety         'C60 H80 O10,C6 H14'
_chemical_name_systematic        
'4,9,14,19,24-Pentabutoxy-26,28,30,32,34-pentamethoxyhexacyclo[21.2.2.2^3,6^.2^8,11^.2^13,16^.2^18,21^]pentatriaconta-1(25),3,5,8,10,13,15,18,20,23,26,28,30,32,34-pentadecaene hexane solvate'
_symmetry_cell_setting           triclinic
_symmetry_space_group_name_H-M   'P -1'
_symmetry_Int_Tables_number      2
_space_group_name_Hall           '-P 1'
loop_
_symmetry_equiv_pos_site_id
_symmetry_equiv_pos_as_xyz
1 x,y,z
2 -x,-y,-z
_cell_length_a                   12.4158(4)
_cell_length_b                   14.2139(5)
_cell_length_c                   18.3290(6)
_cell_angle_alpha                79.011(3)
_cell_angle_beta                 78.437(3)
_cell_angle_gamma                75.797(3)
_cell_volume                     3037.87
_exptl_crystal_colour            colorless
_exptl_crystal_description       block
_cell_formula_units_Z            2
loop_
_atom_site_label
_atom_site_type_symbol
_atom_site_fract_x
_atom_site_fract_y
_atom_site_fract_z
O1 O 0.20421(18) 0.66366(17) 0.56447(13)
C1 C 0.3651(9) 0.4291(10) 0.0378(7)
H1 H 0.4092 0.4050 -0.0068
H2 H 0.3281 0.3795 0.0679
H3 H 0.4135 0.4452 0.0663
C2 C 0.4646(3) 0.9237(2) 0.39368(17)
O2 O -0.10503(19) 1.01438(16) 0.24178(13)
C3 C 0.1852(6) 0.5305(4) 0.0773(3)
H4 H 0.2039 0.4967 0.1259
H5 H 0.1258 0.5045 0.0665
O3 O 0.26334(18) 0.92451(17) 0.04591(12)
C4 C 0.2866(6) 0.5109(4) 0.0182(4)
H6 H 0.2625 0.5040 -0.0273
H7 H 0.3214 0.5672 0.0067
O4 O -0.12593(18) 0.70534(16) 0.42914(13)
C5 C 0.8706(5) 0.7281(3) -0.0254(3)
H8 H 0.8180 0.7498 -0.0602
H9 H 0.9149 0.6643 -0.0334
H10 H 0.9193 0.7735 -0.0332
O5 O 0.60398(18) 0.90165(16) 0.17020(12)
C6 C 0.2524(3) 0.7801(3) -0.1358(2)
H11 H 0.2016 0.8103 -0.1709
H12 H 0.2205 0.7323 -0.0991
H13 H 0.3228 0.7483 -0.1623
O6 O 0.27674(18) 0.44717(16) 0.34993(12)
C7 C 0.8777(4) 0.4269(3) 0.1719(3)
H14 H 0.8919 0.3789 0.1388
H15 H 0.9323 0.4085 0.2053
H16 H 0.8829 0.4898 0.1427
O7 O 0.42133(19) 0.92787(15) 0.46917(12)
C8 C 0.1416(4) 0.6423(3) 0.0815(3)
H17 H 0.2031 0.6715 0.0847
H18 H 0.1097 0.6753 0.0368
O8 O 0.60097(18) 0.58999(16) 0.36300(12)
C9 C 0.2721(3) 0.8583(2) -0.09643(19)
H19 H 0.3009 0.9080 -0.1340
H20 H 0.2009 0.8897 -0.0695
O9 O 0.0596(2) 0.65199(17) 0.14557(14)
C10 C 0.5514(3) 0.2026(3) 0.3302(2)
H21 H 0.5645 0.1700 0.2869
H22 H 0.5586 0.1546 0.3745
H23 H 0.6056 0.2426 0.3242
O10 O 0.22645(19) 1.15760(17) 0.26281(13)
C11 C 0.1763(3) 0.7509(3) 0.5970(2)
H24 H 0.1739 0.8065 0.5579
H25 H 0.2320 0.7500 0.6268
H26 H 0.1039 0.7555 0.6285
C12 C 0.8077(4) 0.7232(3) 0.0538(2)
H27 H 0.8616 0.7028 0.0885
H28 H 0.7631 0.6738 0.0623
C13 C 0.7603(3) 0.4326(3) 0.2177(2)
H29 H 0.7055 0.4487 0.1837
H30 H 0.7554 0.3691 0.2472
C14 C 0.4338(3) 0.2668(2) 0.33802(19)
H31 H 0.3797 0.2263 0.3422
H32 H 0.4189 0.2952 0.3841
C15 C -0.0837(3) 0.6559(2) 0.28390(19)
H33 H -0.1603 0.6718 0.3104
H34 H -0.0803 0.6081 0.2517
C16 C 0.0457(3) 1.0099(2) 0.10736(18)
H35 H -0.0154 1.0666 0.1146
H36 H 0.0617 1.0043 0.0542
C17 C 0.2399(3) 0.5011(2) 0.49189(18)
H37 H 0.2792 0.4348 0.4847
H38 H 0.2019 0.4992 0.5437
C18 C -0.1890(3) 1.0204(3) 0.3074(2)
H39 H -0.2538 1.0011 0.2991
H40 H -0.2101 1.0867 0.3180
H41 H -0.1595 0.9776 0.3494
C19 C 0.5671(3) 0.7510(2) 0.43867(18)
H42 H 0.5658 0.7750 0.4850
H43 H 0.6422 0.7130 0.4242
C20 C -0.1489(3) 0.7343(3) 0.5013(2)
H44 H -0.0912 0.7656 0.5065
H45 H -0.1505 0.6775 0.5391
H46 H -0.2206 0.7793 0.5071
C21 C 0.3494(3) 1.0173(2) 0.48777(19)
H47 H 0.2823 1.0292 0.4659
H48 H 0.3875 1.0702 0.4685
H49 H 0.3297 1.0129 0.5415
C22 C 0.4442(3) 1.0733(2) 0.19925(18)
H50 H 0.4278 1.1361 0.2171
H51 H 0.5047 1.0738 0.1566
C23 C 0.1180(3) 1.1972(3) 0.2999(2)
H52 H 0.0747 1.2395 0.2638
H53 H 0.1247 1.2342 0.3369
H54 H 0.0811 1.1449 0.3242
C24 C 0.0495(3) 0.8287(2) 0.12581(19)
H55 H 0.0976 0.8250 0.0800
C25 C 0.3545(3) 0.8157(2) -0.04166(19)
H56 H 0.3285 0.7620 -0.0073
H57 H 0.4269 0.7887 -0.0697
C26 C 0.3709(3) 0.8877(3) 0.00415(19)
H58 H 0.4240 0.8551 0.0381
H59 H 0.3999 0.9410 -0.0288
C27 C 0.7292(3) 0.8221(3) 0.0710(2)
H60 H 0.7712 0.8739 0.0573
H61 H 0.6684 0.8388 0.0417
C28 C 0.4174(3) 0.3486(2) 0.27233(19)
H62 H 0.4710 0.3895 0.2686
H63 H 0.4333 0.3202 0.2262
C29 C 0.1386(3) 1.0845(2) 0.18591(18)
H64 H 0.0670 1.1133 0.2082
C30 C -0.0963(3) 0.8382(2) 0.26027(19)
H65 H -0.1464 0.8421 0.3053
C31 C 0.0961(3) 0.5453(2) 0.31987(19)
H66 H 0.1105 0.5247 0.2730
C32 C 0.3839(3) 0.7042(2) 0.50326(18)
H67 H 0.3704 0.7565 0.5300
C33 C 0.7323(3) 0.5094(2) 0.26996(19)
H68 H 0.7901 0.4956 0.3015
H69 H 0.7330 0.5734 0.2400
C34 C 0.2999(3) 0.4123(3) 0.27914(19)
H70 H 0.2954 0.4670 0.2383
H71 H 0.2457 0.3745 0.2769
C35 C 0.3517(3) 1.0019(2) 0.11908(17)
H72 H 0.4232 0.9747 0.0955
C36 C 0.4235(3) 0.5467(2) 0.42758(17)
H73 H 0.4378 0.4931 0.4022
C37 C 0.0197(3) 0.7437(2) 0.16794(19)
C38 C 0.4362(3) 0.9990(2) 0.33634(17)
H74 H 0.3851 1.0560 0.3481
C39 C 0.0526(3) 0.6022(2) 0.46040(19)
H75 H 0.0368 0.6210 0.5080
C40 C 0.6820(3) 0.8132(2) 0.15358(19)
H76 H 0.6444 0.7586 0.1677
H77 H 0.7428 0.8002 0.1826
C41 C -0.0534(3) 0.7478(2) 0.23585(18)
C42 C -0.0245(3) 0.6389(2) 0.41170(19)
C43 C 0.2327(3) 1.1007(2) 0.20832(17)
C44 C -0.0664(3) 0.9224(2) 0.21921(18)
C45 C 0.6189(3) 0.5125(2) 0.31975(18)
H78 H 0.5601 0.5246 0.2893
H79 H 0.6183 0.4505 0.3527
C46 C 0.5876(3) 0.8308(2) 0.30263(18)
H80 H 0.6389 0.7739 0.2909
C47 C 0.0086(3) 0.9192(2) 0.15122(18)
C48 C 0.4819(3) 0.9915(2) 0.26174(17)
C49 C 0.3044(3) 0.6472(2) 0.51516(18)
C50 C 0.1533(3) 0.5377(2) 0.43968(18)
C51 C 0.1497(3) 1.0262(2) 0.13102(17)
C52 C 0.3249(3) 0.5659(2) 0.47807(17)
C53 C 0.2573(3) 0.9839(2) 0.09827(17)
C54 C 0.5601(3) 0.9061(2) 0.24492(17)
C55 C 0.5020(3) 0.6055(2) 0.41369(17)
C56 C 0.4835(3) 0.6854(2) 0.45237(17)
C57 C -0.0048(3) 0.6120(2) 0.34033(18)
C58 C 0.1741(3) 0.5100(2) 0.36780(18)
C59 C 0.3406(3) 1.0596(2) 0.17442(17)
C60 C 0.5410(3) 0.8373(2) 0.37776(17)
C61 C 0.3156(9) 0.7270(7) 0.2434(6)
H81 H 0.3049 0.6643 0.2722
H82 H 0.2644 0.7451 0.2070
C62 C 0.1266(9) 0.9013(8) 0.3896(7)
H83 H 0.0751 0.9531 0.3644
H84 H 0.1849 0.9274 0.4006
H85 H 0.0868 0.8728 0.4357
C63 C 0.2810(10) 0.8001(9) 0.2954(7)
H86 H 0.3357 0.7810 0.3295
H87 H 0.2948 0.8611 0.2649
C64 C 0.1765(11) 0.8261(10) 0.3411(8)
H88 H 0.1683 0.7655 0.3742
H89 H 0.1229 0.8362 0.3070
C65 C 0.4278(11) 0.7125(11) 0.2026(9)
H90 H 0.4802 0.6907 0.2383
H91 H 0.4406 0.7749 0.1744
C66 C 0.4526(9) 0.6395(8) 0.1492(6)
H92 H 0.4152 0.6676 0.1066
H93 H 0.4261 0.5817 0.1743
H94 H 0.5323 0.6223 0.1326
loop_
_geom_bond_atom_site_label_1
_geom_bond_atom_site_label_2
_geom_bond_site_symmetry_1
_geom_bond_site_symmetry_2
O1 C11 1_555 1_555
C1 H1 1_555 1_555
H2 C1 1_555 1_555
H3 C1 1_555 1_555
C2 O7 1_555 1_555
O2 C18 1_555 1_555
C3 H4 1_555 1_555
H5 C3 1_555 1_555
O3 C26 1_555 1_555
C4 C1 1_555 1_555
H6 C4 1_555 1_555
H7 C4 1_555 1_555
O4 C20 1_555 1_555
C5 H8 1_555 1_555
H9 C5 1_555 1_555
H10 C5 1_555 1_555
O5 C40 1_555 1_555
C6 H11 1_555 1_555
H12 C6 1_555 1_555
H13 C6 1_555 1_555
O6 C34 1_555 1_555
C7 H14 1_555 1_555
H15 C7 1_555 1_555
H16 C7 1_555 1_555
O7 C21 1_555 1_555
C8 C3 1_555 1_555
H17 C8 1_555 1_555
H18 C8 1_555 1_555
O8 C45 1_555 1_555
C9 C6 1_555 1_555
H19 C9 1_555 1_555
H20 C9 1_555 1_555
O9 C8 1_555 1_555
C10 H21 1_555 1_555
H22 C10 1_555 1_555
H23 C10 1_555 1_555
O10 C23 1_555 1_555
C11 H24 1_555 1_555
H25 C11 1_555 1_555
H26 C11 1_555 1_555
C12 C5 1_555 1_555
H27 C12 1_555 1_555
H28 C12 1_555 1_555
C13 C7 1_555 1_555
H29 C13 1_555 1_555
H30 C13 1_555 1_555
C14 C10 1_555 1_555
H31 C14 1_555 1_555
H32 C14 1_555 1_555
C15 H33 1_555 1_555
H34 C15 1_555 1_555
C16 H35 1_555 1_555
H36 C16 1_555 1_555
C17 H37 1_555 1_555
H38 C17 1_555 1_555
C18 H39 1_555 1_555
H40 C18 1_555 1_555
H41 C18 1_555 1_555
C19 H42 1_555 1_555
H43 C19 1_555 1_555
C20 H44 1_555 1_555
H45 C20 1_555 1_555
H46 C20 1_555 1_555
C21 H47 1_555 1_555
H48 C21 1_555 1_555
H49 C21 1_555 1_555
C22 H50 1_555 1_555
H51 C22 1_555 1_555
C23 H52 1_555 1_555
H53 C23 1_555 1_555
H54 C23 1_555 1_555
C24 H55 1_555 1_555
C25 C9 1_555 1_555
H56 C25 1_555 1_555
H57 C25 1_555 1_555
C26 C25 1_555 1_555
H58 C26 1_555 1_555
H59 C26 1_555 1_555
C27 C12 1_555 1_555
H60 C27 1_555 1_555
H61 C27 1_555 1_555
C28 C14 1_555 1_555
H62 C28 1_555 1_555
H63 C28 1_555 1_555
C29 H64 1_555 1_555
C30 H65 1_555 1_555
C31 H66 1_555 1_555
C32 H67 1_555 1_555
C33 C13 1_555 1_555
H68 C33 1_555 1_555
H69 C33 1_555 1_555
C34 C28 1_555 1_555
H70 C34 1_555 1_555
H71 C34 1_555 1_555
C35 H72 1_555 1_555
C36 H73 1_555 1_555
C37 O9 1_555 1_555
C38 C2 1_555 1_555
H74 C38 1_555 1_555
C39 H75 1_555 1_555
C40 C27 1_555 1_555
H76 C40 1_555 1_555
H77 C40 1_555 1_555
C41 C15 1_555 1_555
C42 O4 1_555 1_555
C43 O10 1_555 1_555
C44 O2 1_555 1_555
C45 C33 1_555 1_555
H78 C45 1_555 1_555
H79 C45 1_555 1_555
C46 H80 1_555 1_555
C47 C16 1_555 1_555
C48 C22 1_555 1_555
C49 O1 1_555 1_555
C50 C17 1_555 1_555
C51 C16 1_555 1_555
C52 C17 1_555 1_555
C53 O3 1_555 1_555
C54 O5 1_555 1_555
C55 O8 1_555 1_555
C56 C19 1_555 1_555
C57 C15 1_555 1_555
C58 O6 1_555 1_555
C59 C22 1_555 1_555
C60 C2 1_555 1_555
C61 H81 1_555 1_555
H82 C61 1_555 1_555
C62 H83 1_555 1_555
H84 C62 1_555 1_555
H85 C62 1_555 1_555
C63 C61 1_555 1_555
H86 C63 1_555 1_555
H87 C63 1_555 1_555
C64 C62 1_555 1_555
H88 C64 1_555 1_555
H89 C64 1_555 1_555
C65 C61 1_555 1_555
H90 C65 1_555 1_555
H91 C65 1_555 1_555
C66 C65 1_555 1_555
H92 C66 1_555 1_555
H93 C66 1_555 1_555
H94 C66 1_555 1_555
C3 C4 1_555 1_555
C19 C60 1_555 1_555
C24 C37 1_555 1_555
C24 C47 1_555 1_555
C29 C43 1_555 1_555
C29 C51 1_555 1_555
C30 C41 1_555 1_555
C30 C44 1_555 1_555
C31 C57 1_555 1_555
C31 C58 1_555 1_555
C32 C49 1_555 1_555
C32 C56 1_555 1_555
C35 C53 1_555 1_555
C35 C59 1_555 1_555
C36 C52 1_555 1_555
C36 C55 1_555 1_555
C37 C41 1_555 1_555
C38 C48 1_555 1_555
C39 C42 1_555 1_555
C39 C50 1_555 1_555
C42 C57 1_555 1_555
C43 C59 1_555 1_555
C44 C47 1_555 1_555
C46 C54 1_555 1_555
C46 C60 1_555 1_555
C48 C54 1_555 1_555
C49 C52 1_555 1_555
C50 C58 1_555 1_555
C51 C53 1_555 1_555
C55 C56 1_555 1_555
C63 C64 1_555 1_555

#END
