
#######################################################################
#
#                 Cambridge Crystallographic Data Centre
#                                CCDC 
#
#######################################################################
#
# If this CIF has been generated from an entry in the Cambridge 
# Structural Database, then it will include bibliographic, chemical, 
# crystal, experimental, refinement or atomic coordinate data resulting 
# from the CCDC's data processing and validation procedures.
#
#######################################################################

data_OLOGOL
_chemical_compound_source        'Gerbera piloselloides (L.) Cass'
_chemical_name_common            'Dibothrioclinin II'
_chemical_formula_moiety         'C30 H28 O6'
_chemical_name_systematic        
(+-)-(11RS,12RS,25RS,27SR)-3,3,7,17,21-Pentamethyl-4,12,18,26-tetraoxaheptacyclo(15.11.1.0^2,15^.0^5,14^.0^6,11^.0^19,28^.0^20,25^)nonacosa-5(14),6,8,10,19(28),20,22,24-octaene-13,27-dione
_chemical_properties_biological  'antiHIV activity'
_symmetry_cell_setting           monoclinic
_symmetry_space_group_name_H-M   'P 21/c'
_symmetry_Int_Tables_number      14
_space_group_name_Hall           '-P 2ybc'
loop_
_symmetry_equiv_pos_site_id
_symmetry_equiv_pos_as_xyz
1 x,y,z
2 x,1/2-y,1/2+z
3 -x,-y,-z
4 -x,1/2+y,1/2-z
_cell_length_a                   15.517(3)
_cell_length_b                   19.411(4)
_cell_length_c                   7.963(2)
_cell_angle_alpha                90
_cell_angle_beta                 102.90(3)
_cell_angle_gamma                90
_cell_volume                     2337.93
_exptl_crystal_colour            colorless
_exptl_crystal_description       block
_cell_formula_units_Z            4
_exptl_crystal_recrystallization_method chloroform
loop_
_atom_site_label
_atom_site_type_symbol
_atom_site_fract_x
_atom_site_fract_y
_atom_site_fract_z
O1 O 0.03621(11) 0.47239(9) 0.7275(2)
O2 O 0.15966(12) 0.52699(10) 0.8351(2)
O3 O 0.05187(11) 0.35392(9) 1.1577(2)
O4 O 0.43745(11) 0.22477(9) 1.1862(2)
O5 O 0.31980(13) 0.21359(9) 1.2955(3)
O6 O 0.43873(11) 0.43504(9) 1.2440(2)
C1 C 0.10974(17) 0.48231(14) 0.8602(3)
C2 C 0.11841(16) 0.43835(13) 1.0101(3)
C3 C 0.05082(16) 0.39516(13) 1.0219(3)
C4 C -0.02983(16) 0.38913(13) 0.8876(3)
C5 C -0.10339(17) 0.34695(13) 0.8915(3)
C6 C -0.17184(17) 0.34547(14) 0.7468(4)
H1 H -0.2216 0.3190 0.7491
C7 C -0.16915(18) 0.38181(14) 0.5988(4)
H2 H -0.2156 0.3782 0.5026
C8 C -0.09805(17) 0.42330(14) 0.5931(3)
H3 H -0.0955 0.4479 0.4941
C9 C -0.03088(16) 0.42733(13) 0.7378(3)
C10 C 0.13262(16) 0.34270(13) 1.2957(3)
C11 C 0.21214(15) 0.36568(12) 1.2283(3)
H4 H 0.2149 0.3355 1.1310
C12 C 0.19930(15) 0.43949(12) 1.1563(3)
H5 H 0.1858 0.4690 1.2470
C13 C -0.11279(18) 0.30387(14) 1.0449(4)
H6 H -0.1677 0.2791 1.0175
H7 H -0.1119 0.3334 1.1420
H8 H -0.0647 0.2717 1.0725
C14 C 0.11824(19) 0.38248(14) 1.4530(3)
H9 H 0.0670 0.3648 1.4872
H10 H 0.1096 0.4304 1.4244
H11 H 0.1691 0.3772 1.5461
C15 C 0.13023(18) 0.26571(13) 1.3266(3)
H12 H 0.1394 0.2416 1.2268
H13 H 0.0738 0.2533 1.3481
H14 H 0.1761 0.2536 1.4246
C16 C 0.37286(17) 0.25337(14) 1.2595(3)
C17 C 0.37308(16) 0.32691(13) 1.2810(3)
C18 C 0.43707(16) 0.36570(13) 1.2355(3)
C19 C 0.51009(16) 0.33507(14) 1.1732(3)
C20 C 0.58517(17) 0.36972(14) 1.1419(3)
C21 C 0.64612(18) 0.33189(15) 1.0763(3)
H15 H 0.6951 0.3543 1.0529
C22 C 0.63622(18) 0.26188(15) 1.0448(3)
H16 H 0.6774 0.2384 0.9975
C23 C 0.56672(17) 0.22700(14) 1.0823(3)
H17 H 0.5608 0.1797 1.0640
C24 C 0.50492(17) 0.26356(14) 1.1483(3)
C25 C 0.36000(16) 0.46824(13) 1.2812(3)
C26 C 0.33610(16) 0.42898(12) 1.4302(3)
H18 H 0.2905 0.4533 1.4723
H19 H 0.3876 0.4241 1.5243
C27 C 0.30265(16) 0.35833(12) 1.3606(3)
H20 H 0.2946 0.3293 1.4566
C28 C 0.60413(18) 0.44519(14) 1.1780(4)
H21 H 0.6582 0.4574 1.1458
H22 H 0.6098 0.4540 1.2986
H23 H 0.5565 0.4722 1.1125
C29 C 0.28511(16) 0.46543(13) 1.1169(3)
H24 H 0.2758 0.5111 1.0667
H25 H 0.3025 0.4352 1.0333
C30 C 0.38962(17) 0.54159(13) 1.3277(3)
H26 H 0.4357 0.5415 1.4308
H27 H 0.3404 0.5681 1.3467
H28 H 0.4115 0.5617 1.2352
loop_
_geom_bond_atom_site_label_1
_geom_bond_atom_site_label_2
_geom_bond_site_symmetry_1
_geom_bond_site_symmetry_2
O1 C1 1_555 1_555
O2 C1 1_555 1_555
O3 C3 1_555 1_555
O4 C16 1_555 1_555
O5 C16 1_555 1_555
O6 C18 1_555 1_555
C1 C2 1_555 1_555
C2 C3 1_555 1_555
C3 C4 1_555 1_555
C4 C5 1_555 1_555
C5 C6 1_555 1_555
C6 H1 1_555 1_555
C7 C6 1_555 1_555
H2 C7 1_555 1_555
C8 C7 1_555 1_555
H3 C8 1_555 1_555
C9 O1 1_555 1_555
C10 O3 1_555 1_555
C11 C10 1_555 1_555
H4 C11 1_555 1_555
C12 C2 1_555 1_555
H5 C12 1_555 1_555
C13 C5 1_555 1_555
H6 C13 1_555 1_555
H7 C13 1_555 1_555
H8 C13 1_555 1_555
C14 C10 1_555 1_555
H9 C14 1_555 1_555
H10 C14 1_555 1_555
H11 C14 1_555 1_555
C15 C10 1_555 1_555
H12 C15 1_555 1_555
H13 C15 1_555 1_555
H14 C15 1_555 1_555
C16 C17 1_555 1_555
C17 C18 1_555 1_555
C18 C19 1_555 1_555
C19 C20 1_555 1_555
C20 C21 1_555 1_555
C21 H15 1_555 1_555
C22 C21 1_555 1_555
H16 C22 1_555 1_555
C23 C22 1_555 1_555
H17 C23 1_555 1_555
C24 O4 1_555 1_555
C25 O6 1_555 1_555
C26 C25 1_555 1_555
H18 C26 1_555 1_555
H19 C26 1_555 1_555
C27 C11 1_555 1_555
H20 C27 1_555 1_555
C28 C20 1_555 1_555
H21 C28 1_555 1_555
H22 C28 1_555 1_555
H23 C28 1_555 1_555
C29 C12 1_555 1_555
H24 C29 1_555 1_555
H25 C29 1_555 1_555
C30 C25 1_555 1_555
H26 C30 1_555 1_555
H27 C30 1_555 1_555
H28 C30 1_555 1_555
C4 C9 1_555 1_555
C8 C9 1_555 1_555
C11 C12 1_555 1_555
C17 C27 1_555 1_555
C19 C24 1_555 1_555
C23 C24 1_555 1_555
C25 C29 1_555 1_555
C26 C27 1_555 1_555

#END
