
#######################################################################
#
#                 Cambridge Crystallographic Data Centre
#                                CCDC 
#
#######################################################################
#
# If this CIF has been generated from an entry in the Cambridge 
# Structural Database, then it will include bibliographic, chemical, 
# crystal, experimental, refinement or atomic coordinate data resulting 
# from the CCDC's data processing and validation procedures.
#
#######################################################################

data_OLOGIF
_chemical_compound_source        'Gerbera piloselloides (L.) Cass'
_chemical_name_common            'Dibothrioclinin I'
_chemical_formula_moiety         'C30 H28 O6'
_chemical_name_systematic        
(+)-(11R,12S,25R,27S)-3,3,7,17,21-Pentamethyl-4,12,18,26-tetraoxaheptacyclo(15.11.1.0^2,15^.0^5,14^.0^6,11^.0^19,28^.0^20,25^)nonacosa-5(14),6,8,10,19(28),20,22,24-octaene-13,27-dione
_chemical_properties_biological  'antiHIV activity'
_symmetry_cell_setting           monoclinic
_symmetry_space_group_name_H-M   'P 21'
_symmetry_Int_Tables_number      4
_space_group_name_Hall           'P 2yb'
loop_
_symmetry_equiv_pos_site_id
_symmetry_equiv_pos_as_xyz
1 x,y,z
2 -x,1/2+y,-z
_cell_length_a                   11.001(2)
_cell_length_b                   8.307(2)
_cell_length_c                   13.332(3)
_cell_angle_alpha                90
_cell_angle_beta                 90.39(3)
_cell_angle_gamma                90
_cell_volume                     1218.32
_exptl_crystal_colour            colorless
_exptl_crystal_description       block
_cell_formula_units_Z            2
_exptl_crystal_recrystallization_method methanol/chloroform
loop_
_atom_site_label
_atom_site_type_symbol
_atom_site_fract_x
_atom_site_fract_y
_atom_site_fract_z
O1 O 0.7355(3) 0.2776(4) -0.14454(18)
O2 O 0.8216(3) 0.1374(4) -0.0228(2)
O3 O 0.6770(2) 0.6634(3) 0.04218(18)
O4 O 0.6584(2) 0.2453(4) 0.45755(18)
O5 O 0.6168(2) 0.4948(4) 0.4124(2)
O6 O 0.9704(2) 0.2404(3) 0.29082(16)
C1 C 0.7763(4) 0.2653(5) -0.0467(2)
C2 C 0.7620(3) 0.4032(4) 0.0175(2)
C3 C 0.6996(3) 0.5345(5) -0.0158(2)
C4 C 0.6504(3) 0.5440(5) -0.1176(2)
C5 C 0.5853(3) 0.6767(6) -0.1592(3)
C6 C 0.5506(4) 0.6651(8) -0.2605(3)
H1 H 0.5078 0.7500 -0.2893
C7 C 0.5773(4) 0.5335(9) -0.3187(3)
H2 H 0.5533 0.5318 -0.3857
C8 C 0.6390(4) 0.4043(8) -0.2791(3)
H3 H 0.6568 0.3148 -0.3182
C9 C 0.6741(3) 0.4114(6) -0.1787(3)
C10 C 0.7515(3) 0.6904(4) 0.1339(2)
C11 C 0.7614(3) 0.5278(4) 0.1887(2)
H4 H 0.6776 0.4980 0.2052
C12 C 0.8097(3) 0.3885(4) 0.1239(2)
H5 H 0.7751 0.2893 0.1514
C13 C 0.5560(5) 0.8283(8) -0.1029(4)
H6 H 0.5109 0.8998 -0.1458
H7 H 0.6301 0.8795 -0.0819
H8 H 0.5083 0.8023 -0.0451
C14 C 0.8674(4) 0.7694(5) 0.0978(3)
H9 H 0.8480 0.8691 0.0650
H10 H 0.9077 0.6991 0.0515
H11 H 0.9200 0.7900 0.1541
C15 C 0.6741(5) 0.8099(6) 0.1928(3)
H12 H 0.6698 0.9100 0.1570
H13 H 0.7102 0.8275 0.2576
H14 H 0.5937 0.7671 0.2008
C16 C 0.6883(3) 0.3854(5) 0.4071(2)
C17 C 0.7993(3) 0.3854(4) 0.3504(2)
C18 C 0.8705(3) 0.2522(4) 0.3484(2)
C19 C 0.8438(3) 0.1088(4) 0.4075(2)
C20 C 0.9172(3) -0.0313(4) 0.4168(2)
C21 C 0.8725(4) -0.1588(5) 0.4723(3)
H15 H 0.9206 -0.2500 0.4804
C22 C 0.7584(4) -0.1556(5) 0.5163(3)
H16 H 0.7297 -0.2460 0.5498
C23 C 0.6882(4) -0.0202(6) 0.5106(3)
H17 H 0.6125 -0.0163 0.5413
C24 C 0.7323(3) 0.1118(5) 0.4580(2)
C25 C 1.0080(3) 0.3801(4) 0.2292(2)
C26 C 0.9692(3) 0.5335(4) 0.2813(2)
H18 H 0.9952 0.6263 0.2428
H19 H 1.0065 0.5396 0.3473
C27 C 0.8302(3) 0.5333(4) 0.2907(2)
H20 H 0.8047 0.6291 0.3280
C28 C 1.0431(4) -0.0474(5) 0.3722(3)
H21 H 1.0755 -0.1518 0.3878
H22 H 1.0953 0.0342 0.3998
H23 H 1.0381 -0.0348 0.3007
C29 C 0.9487(3) 0.3673(4) 0.1257(2)
H24 H 0.9680 0.2627 0.0976
H25 H 0.9843 0.4482 0.0824
C30 C 1.1448(3) 0.3621(6) 0.2214(3)
H26 H 1.1808 0.3710 0.2869
H27 H 1.1764 0.4453 0.1789
H28 H 1.1638 0.2588 0.1933
loop_
_geom_bond_atom_site_label_1
_geom_bond_atom_site_label_2
_geom_bond_site_symmetry_1
_geom_bond_site_symmetry_2
O1 C1 1_555 1_555
O2 C1 1_555 1_555
O3 C3 1_555 1_555
O4 C16 1_555 1_555
O5 C16 1_555 1_555
O6 C18 1_555 1_555
C1 C2 1_555 1_555
C2 C3 1_555 1_555
C3 C4 1_555 1_555
C4 C5 1_555 1_555
C5 C6 1_555 1_555
C6 H1 1_555 1_555
C7 C6 1_555 1_555
H2 C7 1_555 1_555
C8 C7 1_555 1_555
H3 C8 1_555 1_555
C9 O1 1_555 1_555
C10 O3 1_555 1_555
C11 C10 1_555 1_555
H4 C11 1_555 1_555
C12 C2 1_555 1_555
H5 C12 1_555 1_555
C13 C5 1_555 1_555
H6 C13 1_555 1_555
H7 C13 1_555 1_555
H8 C13 1_555 1_555
C14 C10 1_555 1_555
H9 C14 1_555 1_555
H10 C14 1_555 1_555
H11 C14 1_555 1_555
C15 C10 1_555 1_555
H12 C15 1_555 1_555
H13 C15 1_555 1_555
H14 C15 1_555 1_555
C16 C17 1_555 1_555
C17 C18 1_555 1_555
C18 C19 1_555 1_555
C19 C20 1_555 1_555
C20 C21 1_555 1_555
C21 H15 1_555 1_555
C22 C21 1_555 1_555
H16 C22 1_555 1_555
C23 C22 1_555 1_555
H17 C23 1_555 1_555
C24 O4 1_555 1_555
C25 O6 1_555 1_555
C26 C25 1_555 1_555
H18 C26 1_555 1_555
H19 C26 1_555 1_555
C27 C11 1_555 1_555
H20 C27 1_555 1_555
C28 C20 1_555 1_555
H21 C28 1_555 1_555
H22 C28 1_555 1_555
H23 C28 1_555 1_555
C29 C12 1_555 1_555
H24 C29 1_555 1_555
H25 C29 1_555 1_555
C30 C25 1_555 1_555
H26 C30 1_555 1_555
H27 C30 1_555 1_555
H28 C30 1_555 1_555
C4 C9 1_555 1_555
C8 C9 1_555 1_555
C11 C12 1_555 1_555
C17 C27 1_555 1_555
C19 C24 1_555 1_555
C23 C24 1_555 1_555
C25 C29 1_555 1_555
C26 C27 1_555 1_555

#END
