
#######################################################################
#
#                 Cambridge Crystallographic Data Centre
#                                CCDC 
#
#######################################################################
#
# If this CIF has been generated from an entry in the Cambridge 
# Structural Database, then it will include bibliographic, chemical, 
# crystal, experimental, refinement or atomic coordinate data resulting 
# from the CCDC's data processing and validation procedures.
#
#######################################################################

data_OLOJAB
_chemical_formula_moiety         'C34 H36 N2 O2'
_chemical_name_systematic        
(R)-N,N'-(6,6'-Dimethylbiphenyl-2,2'-diyl)-bis(2,4,6-trimethylbenzamide)
_symmetry_cell_setting           orthorhombic
_symmetry_space_group_name_H-M   'P 21 21 21'
_symmetry_Int_Tables_number      19
_space_group_name_Hall           'P 2ac 2ab'
loop_
_symmetry_equiv_pos_site_id
_symmetry_equiv_pos_as_xyz
1 x,y,z
2 1/2+x,1/2-y,-z
3 -x,1/2+y,1/2-z
4 1/2-x,-y,1/2+z
_cell_length_a                   8.6919(10)
_cell_length_b                   17.638(2)
_cell_length_c                   18.832(3)
_cell_angle_alpha                90
_cell_angle_beta                 90
_cell_angle_gamma                90
_cell_volume                     2887.09
_exptl_crystal_colour            colorless
_exptl_crystal_description       block
_cell_formula_units_Z            4
loop_
_atom_site_label
_atom_site_type_symbol
_atom_site_fract_x
_atom_site_fract_y
_atom_site_fract_z
O1 O 0.43225(15) 0.45000(6) 0.79458(7)
O2 O 0.55808(17) 0.67694(7) 0.65537(7)
N1 N 0.46142(17) 0.57156(7) 0.75679(7)
N2 N 0.56310(18) 0.78850(8) 0.71598(8)
C1 C 0.5529(2) 0.67491(9) 0.82976(8)
C2 C 0.5674(2) 0.59867(9) 0.80825(8)
C3 C 0.6845(2) 0.55326(9) 0.83535(9)
H1 H 0.6933 0.5018 0.8209
C4 C 0.7882(2) 0.58347(10) 0.88364(9)
H2 H 0.8674 0.5525 0.9028
C5 C 0.7767(2) 0.65883(11) 0.90411(9)
H3 H 0.8491 0.6791 0.9368
C6 C 0.6610(2) 0.70516(10) 0.87752(9)
C7 C 0.6507(3) 0.78736(11) 0.90008(11)
H4 H 0.7314 0.7982 0.9349
H5 H 0.5497 0.7969 0.9214
H6 H 0.6643 0.8201 0.8585
C8 C 0.4160(2) 0.72080(9) 0.80771(8)
C9 C 0.4228(2) 0.77584(9) 0.75424(9)
C10 C 0.2960(2) 0.82094(10) 0.73835(10)
H7 H 0.3026 0.8580 0.7019
C11 C 0.1602(3) 0.81172(11) 0.77572(11)
H8 H 0.0736 0.8425 0.7652
C12 C 0.1514(2) 0.75706(11) 0.82890(10)
H9 H 0.0581 0.7510 0.8545
C13 C 0.2766(2) 0.71113(10) 0.84520(9)
C14 C 0.2639(2) 0.65309(11) 0.90375(10)
H10 H 0.1585 0.6527 0.9222
H11 H 0.3354 0.6661 0.9421
H12 H 0.2895 0.6028 0.8850
C15 C 0.4039(2) 0.50073(8) 0.75149(8)
C16 C 0.2948(2) 0.48936(9) 0.69074(9)
C17 C 0.1373(2) 0.48202(9) 0.70649(9)
C18 C 0.0346(2) 0.47299(10) 0.65061(10)
H13 H -0.0721 0.4687 0.6609
C19 C 0.0824(2) 0.47001(10) 0.58000(10)
C20 C 0.2397(2) 0.47579(9) 0.56605(9)
H14 H 0.2743 0.4731 0.5183
C21 C 0.3478(2) 0.48543(9) 0.62036(9)
C22 C 0.0797(2) 0.48530(13) 0.78215(10)
H15 H -0.0328 0.4818 0.7824
H16 H 0.1114 0.5333 0.8039
H17 H 0.1232 0.4430 0.8092
C23 C -0.0344(3) 0.46015(13) 0.52130(11)
H18 H -0.0775 0.4089 0.5234
H19 H 0.0157 0.4678 0.4752
H20 H -0.1171 0.4974 0.5272
C24 C 0.5177(2) 0.48878(11) 0.60359(10)
H21 H 0.5559 0.5403 0.6119
H22 H 0.5342 0.4750 0.5538
H23 H 0.5733 0.4532 0.6343
C25 C 0.6177(2) 0.73909(9) 0.66641(9)
C26 C 0.7590(2) 0.76583(9) 0.62830(9)
C27 C 0.9011(2) 0.73179(10) 0.64459(9)
C28 C 1.0325(2) 0.75798(11) 0.61041(9)
H24 H 1.1290 0.7355 0.6214
C29 C 1.0267(2) 0.81665(11) 0.56014(9)
C30 C 0.8833(2) 0.84647(10) 0.54268(9)
H25 H 0.8770 0.8844 0.5070
C31 C 0.7487(2) 0.82238(9) 0.57597(9)
C32 C 0.9113(3) 0.66795(11) 0.69793(11)
H26 H 1.0196 0.6561 0.7072
H27 H 0.8595 0.6230 0.6789
H28 H 0.8614 0.6834 0.7423
C33 C 1.1720(3) 0.84589(13) 0.52615(11)
H29 H 1.2516 0.8066 0.5281
H30 H 1.2076 0.8910 0.5518
H31 H 1.1514 0.8592 0.4765
C34 C 0.5946(2) 0.85439(11) 0.55393(10)
H32 H 0.6030 0.8766 0.5064
H33 H 0.5630 0.8936 0.5878
H34 H 0.5178 0.8137 0.5534
H35 H 0.595(3) 0.8392(12) 0.7107(12)
H36 H 0.434(3) 0.6058(14) 0.7211(13)
loop_
_geom_bond_atom_site_label_1
_geom_bond_atom_site_label_2
_geom_bond_site_symmetry_1
_geom_bond_site_symmetry_2
O1 C15 1_555 1_555
O2 C25 1_555 1_555
N1 C2 1_555 1_555
N2 C9 1_555 1_555
C1 C2 1_555 1_555
C2 C3 1_555 1_555
C3 H1 1_555 1_555
C4 C3 1_555 1_555
H2 C4 1_555 1_555
C5 C4 1_555 1_555
H3 C5 1_555 1_555
C6 C1 1_555 1_555
C7 C6 1_555 1_555
H4 C7 1_555 1_555
H5 C7 1_555 1_555
H6 C7 1_555 1_555
C8 C1 1_555 1_555
C9 C8 1_555 1_555
C10 C9 1_555 1_555
H7 C10 1_555 1_555
C11 C10 1_555 1_555
H8 C11 1_555 1_555
C12 C11 1_555 1_555
H9 C12 1_555 1_555
C13 C8 1_555 1_555
C14 C13 1_555 1_555
H10 C14 1_555 1_555
H11 C14 1_555 1_555
H12 C14 1_555 1_555
C15 N1 1_555 1_555
C16 C15 1_555 1_555
C17 C16 1_555 1_555
C18 C17 1_555 1_555
H13 C18 1_555 1_555
C19 C18 1_555 1_555
C20 C19 1_555 1_555
H14 C20 1_555 1_555
C21 C16 1_555 1_555
C22 C17 1_555 1_555
H15 C22 1_555 1_555
H16 C22 1_555 1_555
H17 C22 1_555 1_555
C23 C19 1_555 1_555
H18 C23 1_555 1_555
H19 C23 1_555 1_555
H20 C23 1_555 1_555
C24 C21 1_555 1_555
H21 C24 1_555 1_555
H22 C24 1_555 1_555
H23 C24 1_555 1_555
C25 N2 1_555 1_555
C26 C25 1_555 1_555
C27 C26 1_555 1_555
C28 C27 1_555 1_555
H24 C28 1_555 1_555
C29 C28 1_555 1_555
C30 C29 1_555 1_555
H25 C30 1_555 1_555
C31 C26 1_555 1_555
C32 C27 1_555 1_555
H26 C32 1_555 1_555
H27 C32 1_555 1_555
H28 C32 1_555 1_555
C33 C29 1_555 1_555
H29 C33 1_555 1_555
H30 C33 1_555 1_555
H31 C33 1_555 1_555
C34 C31 1_555 1_555
H32 C34 1_555 1_555
H33 C34 1_555 1_555
H34 C34 1_555 1_555
H35 N2 1_555 1_555
H36 N1 1_555 1_555
C5 C6 1_555 1_555
C12 C13 1_555 1_555
C20 C21 1_555 1_555
C30 C31 1_555 1_555

#END
