
#######################################################################
#
#                 Cambridge Crystallographic Data Centre
#                                CCDC 
#
#######################################################################
#
# If this CIF has been generated from an entry in the Cambridge 
# Structural Database, then it will include bibliographic, chemical, 
# crystal, experimental, refinement or atomic coordinate data resulting 
# from the CCDC's data processing and validation procedures.
#
#######################################################################

data_OLONIO
_chemical_name_common            
N-((1R,10bS)-1-isobutyl-2-oxo-3-tosyl-1,2,3,5,6,10b-hexahydropyrazolo[5,1-a]isoquinolin-1-yl)-2-naphthamide
_chemical_formula_moiety         'C33 H33 N3 O4 S1'
_chemical_name_systematic        
N-((1R,10bS)-1-isobutyl-3-((4-methylphenyl)sulfonyl)-2-oxo-1,2,3,5,6,10b-hexahydropyrazolo[5,1-a]isoquinolin-1-yl)-2-naphthamide
_symmetry_cell_setting           orthorhombic
_symmetry_space_group_name_H-M   'P 21 21 21'
_symmetry_Int_Tables_number      19
_space_group_name_Hall           'P 2ac 2ab'
loop_
_symmetry_equiv_pos_site_id
_symmetry_equiv_pos_as_xyz
1 x,y,z
2 1/2-x,-y,1/2+z
3 1/2+x,1/2-y,-z
4 -x,1/2+y,1/2-z
_cell_length_a                   9.88462(17)
_cell_length_b                   16.4919(3)
_cell_length_c                   17.5162(4)
_cell_angle_alpha                90
_cell_angle_beta                 90
_cell_angle_gamma                90
_cell_volume                     2855.42
_exptl_crystal_colour            colorless
_exptl_crystal_description       block
_cell_formula_units_Z            4
loop_
_atom_site_label
_atom_site_type_symbol
_atom_site_fract_x
_atom_site_fract_y
_atom_site_fract_z
S1 S 0.87122(6) 0.51694(3) 0.17768(4)
O1 O 1.06593(18) 0.43164(9) 0.29081(10)
O2 O 1.24685(16) 0.33871(10) 0.18177(10)
O3 O 0.95233(18) 0.57639(10) 0.21548(12)
O4 O 0.8233(2) 0.53201(11) 0.10202(11)
N1 N 0.9154(2) 0.37545(12) 0.11664(11)
N2 N 0.96998(19) 0.43250(10) 0.17028(11)
N3 N 1.10803(17) 0.25625(10) 0.24759(10)
H1 H 1.1008 0.2127 0.2743
C1 C 0.9229(2) 0.29390(13) 0.15196(12)
H2 H 0.8291 0.2770 0.1608
C2 C 0.9846(2) 0.22982(14) 0.10199(12)
C3 C 0.9526(3) 0.14966(14) 0.11548(15)
H3 H 0.8933 0.1370 0.1549
C4 C 1.0065(4) 0.08755(17) 0.07187(17)
H4 H 0.9844 0.0339 0.0823
C5 C 1.0920(5) 0.1059(2) 0.01379(17)
H5 H 1.1288 0.0646 -0.0158
C6 C 1.1245(5) 0.1859(2) -0.00148(17)
H6 H 1.1821 0.1977 -0.0420
C7 C 1.0726(3) 0.24925(18) 0.04262(14)
C8 C 1.0993(4) 0.3378(2) 0.0269(2)
H7 H 1.1718 0.3570 0.0595
H8 H 1.1269 0.3449 -0.0258
C9 C 0.9753(4) 0.38473(19) 0.04178(17)
H9 H 0.9957 0.4417 0.0342
H10 H 0.9083 0.3695 0.0039
C10 C 1.0194(2) 0.39532(13) 0.23759(12)
C11 C 0.9886(2) 0.30433(12) 0.23384(11)
C12 C 0.8799(2) 0.28338(13) 0.29443(11)
H11 H 0.7971 0.3103 0.2790
H12 H 0.8632 0.2256 0.2908
C13 C 0.9014(3) 0.30275(16) 0.37928(13)
H13 H 0.9119 0.3616 0.3841
C14 C 0.7734(3) 0.2790(2) 0.42150(16)
H14 H 0.6973 0.3062 0.3991
H15 H 0.7813 0.2942 0.4742
H16 H 0.7606 0.2214 0.4179
C15 C 1.0241(4) 0.2634(3) 0.41512(16)
H17 H 1.0195 0.2058 0.4081
H18 H 1.0262 0.2756 0.4687
H19 H 1.1046 0.2840 0.3913
C16 C 1.2306(2) 0.27719(13) 0.22011(13)
C17 C 1.3469(2) 0.22306(12) 0.23943(13)
C18 C 1.4494(2) 0.21291(15) 0.18373(15)
H20 H 1.4419 0.2384 0.1366
C19 C 1.5586(3) 0.16584(16) 0.19945(16)
H21 H 1.6235 0.1581 0.1617
C20 C 1.5768(2) 0.12841(14) 0.27086(15)
C21 C 1.6895(3) 0.07889(16) 0.28799(19)
H22 H 1.7542 0.0691 0.2506
C22 C 1.7046(3) 0.04552(18) 0.3582(2)
H23 H 1.7801 0.0138 0.3687
C23 C 1.6077(3) 0.05847(19) 0.41473(19)
H24 H 1.6193 0.0355 0.4628
C24 C 1.4953(3) 0.10492(17) 0.40000(16)
H25 H 1.4310 0.1127 0.4380
C25 C 1.4767(2) 0.14073(13) 0.32788(14)
C26 C 1.3616(2) 0.18776(12) 0.30977(13)
H26 H 1.2944 0.1949 0.3463
C27 C 0.7364(2) 0.48862(13) 0.23706(14)
C28 C 0.6302(3) 0.44393(14) 0.20784(15)
H27 H 0.6288 0.4293 0.1566
C29 C 0.5267(3) 0.42133(17) 0.25568(19)
H28 H 0.4548 0.3914 0.2362
C30 C 0.5270(3) 0.44219(18) 0.33213(19)
C31 C 0.6364(3) 0.4860(2) 0.35972(18)
H29 H 0.6392 0.4993 0.4113
C32 C 0.7404(3) 0.51040(17) 0.31333(16)
H30 H 0.8119 0.5408 0.3326
C33 C 0.4111(4) 0.4174(3) 0.3829(3)
H31 H 0.3276 0.4225 0.3553
H32 H 0.4088 0.4519 0.4271
H33 H 0.4231 0.3621 0.3987
loop_
_geom_bond_atom_site_label_1
_geom_bond_atom_site_label_2
_geom_bond_site_symmetry_1
_geom_bond_site_symmetry_2
S1 O3 1_555 1_555
O1 C10 1_555 1_555
O2 C16 1_555 1_555
O4 S1 1_555 1_555
N1 N2 1_555 1_555
N2 S1 1_555 1_555
N3 H1 1_555 1_555
C1 N1 1_555 1_555
H2 C1 1_555 1_555
C2 C1 1_555 1_555
C3 C2 1_555 1_555
H3 C3 1_555 1_555
C4 C3 1_555 1_555
H4 C4 1_555 1_555
C5 C4 1_555 1_555
H5 C5 1_555 1_555
C6 C5 1_555 1_555
H6 C6 1_555 1_555
C7 C2 1_555 1_555
C8 C7 1_555 1_555
H7 C8 1_555 1_555
H8 C8 1_555 1_555
C9 N1 1_555 1_555
H9 C9 1_555 1_555
H10 C9 1_555 1_555
C10 N2 1_555 1_555
C11 N3 1_555 1_555
C12 C11 1_555 1_555
H11 C12 1_555 1_555
H12 C12 1_555 1_555
C13 C12 1_555 1_555
H13 C13 1_555 1_555
C14 C13 1_555 1_555
H14 C14 1_555 1_555
H15 C14 1_555 1_555
H16 C14 1_555 1_555
C15 C13 1_555 1_555
H17 C15 1_555 1_555
H18 C15 1_555 1_555
H19 C15 1_555 1_555
C16 N3 1_555 1_555
C17 C16 1_555 1_555
C18 C17 1_555 1_555
H20 C18 1_555 1_555
C19 C18 1_555 1_555
H21 C19 1_555 1_555
C20 C19 1_555 1_555
C21 C20 1_555 1_555
H22 C21 1_555 1_555
C22 C21 1_555 1_555
H23 C22 1_555 1_555
C23 C22 1_555 1_555
H24 C23 1_555 1_555
C24 C23 1_555 1_555
H25 C24 1_555 1_555
C25 C20 1_555 1_555
C26 C17 1_555 1_555
H26 C26 1_555 1_555
C27 S1 1_555 1_555
C28 C27 1_555 1_555
H27 C28 1_555 1_555
C29 C28 1_555 1_555
H28 C29 1_555 1_555
C30 C29 1_555 1_555
C31 C30 1_555 1_555
H29 C31 1_555 1_555
C32 C27 1_555 1_555
H30 C32 1_555 1_555
C33 C30 1_555 1_555
H31 C33 1_555 1_555
H32 C33 1_555 1_555
H33 C33 1_555 1_555
C1 C11 1_555 1_555
C6 C7 1_555 1_555
C8 C9 1_555 1_555
C10 C11 1_555 1_555
C24 C25 1_555 1_555
C25 C26 1_555 1_555
C31 C32 1_555 1_555

#END
