
#######################################################################
#
#                 Cambridge Crystallographic Data Centre
#                                CCDC 
#
#######################################################################
#
# If this CIF has been generated from an entry in the Cambridge 
# Structural Database, then it will include bibliographic, chemical, 
# crystal, experimental, refinement or atomic coordinate data resulting 
# from the CCDC's data processing and validation procedures.
#
#######################################################################

data_OLOROW
_chemical_name_common            '7,8-Diphenylglycoluril pyridine solvate'
_chemical_formula_moiety         'C16 H14 N4 O2,C5 H5 N1'
_chemical_name_systematic        
'3a,6a-Diphenyl-tetrahydroimidazo(4,5-d)imidazole-2,5(1H,3H)-dione pyridine solvate'
_symmetry_cell_setting           orthorhombic
_symmetry_space_group_name_H-M   'P b c a'
_symmetry_Int_Tables_number      61
_space_group_name_Hall           '-P 2ac 2ab'
loop_
_symmetry_equiv_pos_site_id
_symmetry_equiv_pos_as_xyz
1 x,y,z
2 1/2+x,y,1/2-z
3 x,1/2-y,1/2+z
4 1/2-x,1/2+y,z
5 -x,-y,-z
6 1/2-x,-y,1/2+z
7 -x,1/2+y,1/2-z
8 1/2+x,1/2-y,-z
_cell_length_a                   12.4638(12)
_cell_length_b                   11.6208(12)
_cell_length_c                   26.636(3)
_cell_angle_alpha                90
_cell_angle_beta                 90
_cell_angle_gamma                90
_cell_volume                     3857.94
_exptl_crystal_colour            colorless
_exptl_crystal_description       plate
_cell_formula_units_Z            8
loop_
_atom_site_label
_atom_site_type_symbol
_atom_site_fract_x
_atom_site_fract_y
_atom_site_fract_z
O1 O 0.06057(14) 0.78034(16) 0.23023(7)
O2 O -0.30919(14) 1.07137(16) 0.25707(7)
N1 N -0.08320(16) 0.77841(18) 0.28479(8)
H1 H -0.0970 0.7060 0.2833
N2 N -0.14421(16) 1.05910(18) 0.29585(8)
H2 H -0.1303 1.1315 0.2971
N3 N 0.00648(17) 0.93924(18) 0.27469(8)
H3 H 0.0525 0.9867 0.2624
N4 N -0.23897(16) 0.90144(18) 0.28592(8)
H4 H -0.2902 0.8575 0.2759
C1 C -0.07126(19) 0.9715(2) 0.31284(9)
C2 C -0.23731(19) 1.0154(2) 0.27760(9)
C3 C -0.00002(19) 0.8288(2) 0.26039(9)
C4 C -0.14608(18) 0.8592(2) 0.31344(9)
C5 C -0.1774(2) 0.8145(2) 0.36482(10)
C6 C -0.0165(2) 1.0012(2) 0.36206(10)
C7 C 0.0712(3) 0.9381(3) 0.37747(13)
H5 H 0.0979 0.8797 0.3571
C8 C -0.1293(2) 0.7191(3) 0.38552(12)
H6 H -0.0785 0.6782 0.3672
C9 C -0.0533(3) 1.0877(3) 0.39252(12)
H7 H -0.1124 1.1310 0.3826
C10 C -0.2523(2) 0.8743(3) 0.39312(11)
H8 H -0.2862 0.9386 0.3796
C11 C -0.2769(3) 0.8388(4) 0.44131(12)
H9 H -0.3262 0.8802 0.4602
C12 C -0.2298(3) 0.7442(4) 0.46123(13)
H10 H -0.2474 0.7205 0.4935
C13 C 0.1195(3) 0.9611(4) 0.42300(16)
H11 H 0.1780 0.9174 0.4333
C14 C -0.1562(3) 0.6837(4) 0.43380(14)
H12 H -0.1241 0.6186 0.4475
C15 C -0.0036(4) 1.1114(4) 0.43785(13)
H13 H -0.0286 1.1710 0.4580
C16 C 0.0824(4) 1.0471(4) 0.45287(14)
H14 H 0.1154 1.0622 0.4835
N5 N -0.1032(5) 1.0491(8) 0.0555(2)
C17 C -0.1475(5) 1.1165(6) 0.0908(3)
H15 H -0.1720 1.1892 0.0818
C18 C -0.1209(5) 0.9795(8) 0.1517(2)
H16 H -0.1250 0.9540 0.1847
C19 C -0.0706(5) 0.9505(9) 0.0697(3)
H17 H -0.0399 0.9027 0.0456
C20 C -0.1576(5) 1.0820(7) 0.1395(3)
H18 H -0.1895 1.1294 0.1634
C21 C -0.0772(5) 0.9114(7) 0.1161(3)
H19 H -0.0523 0.8383 0.1241
loop_
_geom_bond_atom_site_label_1
_geom_bond_atom_site_label_2
_geom_bond_site_symmetry_1
_geom_bond_site_symmetry_2
O1 C3 1_555 1_555
O2 C2 1_555 1_555
N1 H1 1_555 1_555
N2 H2 1_555 1_555
N3 H3 1_555 1_555
N4 H4 1_555 1_555
C1 N2 1_555 1_555
C2 N2 1_555 1_555
C3 N1 1_555 1_555
C4 N1 1_555 1_555
C5 C4 1_555 1_555
C6 C1 1_555 1_555
C7 C6 1_555 1_555
H5 C7 1_555 1_555
C8 C5 1_555 1_555
H6 C8 1_555 1_555
C9 C6 1_555 1_555
H7 C9 1_555 1_555
C10 C5 1_555 1_555
H8 C10 1_555 1_555
C11 C10 1_555 1_555
H9 C11 1_555 1_555
C12 C11 1_555 1_555
H10 C12 1_555 1_555
C13 C7 1_555 1_555
H11 C13 1_555 1_555
C14 C8 1_555 1_555
H12 C14 1_555 1_555
C15 C9 1_555 1_555
H13 C15 1_555 1_555
C16 C13 1_555 1_555
H14 C16 1_555 1_555
N5 C17 1_555 1_555
C17 H15 1_555 1_555
C18 H16 1_555 1_555
C19 N5 1_555 1_555
H17 C19 1_555 1_555
C20 C17 1_555 1_555
H18 C20 1_555 1_555
C21 C18 1_555 1_555
H19 C21 1_555 1_555
N3 C1 1_555 1_555
N3 C3 1_555 1_555
N4 C4 1_555 1_555
N4 C2 1_555 1_555
C1 C4 1_555 1_555
C12 C14 1_555 1_555
C15 C16 1_555 1_555
C18 C20 1_555 1_555
C19 C21 1_555 1_555

#END
