
#######################################################################
#
#                 Cambridge Crystallographic Data Centre
#                                CCDC 
#
#######################################################################
#
# If this CIF has been generated from an entry in the Cambridge 
# Structural Database, then it will include bibliographic, chemical, 
# crystal, experimental, refinement or atomic coordinate data resulting 
# from the CCDC's data processing and validation procedures.
#
#######################################################################

data_OLOYUL
_chemical_formula_moiety         'C16 H15 F3 N2 O3'
_chemical_name_systematic        
5-(4-(2,3-dihydro-1H-pyrrolo[2,3-b]pyridin-1-yl)-1,1,1-trifluoro-4-oxobutan-2-yl)-5-methylfuran-2(5H)-one
_symmetry_cell_setting           orthorhombic
_symmetry_space_group_name_H-M   'P 21 21 21'
_symmetry_Int_Tables_number      19
_space_group_name_Hall           'P 2ac 2ab'
loop_
_symmetry_equiv_pos_site_id
_symmetry_equiv_pos_as_xyz
1 x,y,z
2 1/2-x,-y,1/2+z
3 1/2+x,1/2-y,-z
4 -x,1/2+y,1/2-z
_cell_length_a                   5.72646(10)
_cell_length_b                   10.51973(19)
_cell_length_c                   25.3204(5)
_cell_angle_alpha                90
_cell_angle_beta                 90
_cell_angle_gamma                90
_cell_volume                     1525.32
_exptl_crystal_colour            colorless
_exptl_crystal_description       platelet
_cell_formula_units_Z            4
loop_
_atom_site_label
_atom_site_type_symbol
_atom_site_fract_x
_atom_site_fract_y
_atom_site_fract_z
F1 F 0.5185(2) 0.44089(11) 0.55552(5)
F2 F 0.3623(2) 0.38221(11) 0.62898(5)
F3 F 0.6864(2) 0.29891(11) 0.60283(5)
O1 O 0.5377(2) 0.50287(11) 0.72157(5)
O2 O 0.8665(3) 0.67185(13) 0.55555(6)
O3 O 0.3116(2) 0.38478(14) 0.77461(6)
N1 N 0.6142(3) 0.83129(14) 0.56700(6)
N2 N 0.2856(3) 0.85751(16) 0.62553(6)
C1 C 0.4237(3) 0.90002(17) 0.58760(7)
C2 C 0.4071(3) 1.01779(17) 0.56218(7)
C3 C 0.6987(3) 0.71409(18) 0.57961(7)
C4 C 0.7299(3) 0.90416(18) 0.52446(7)
H1 H 0.7205 0.8579 0.4905
H2 H 0.8962 0.9193 0.5331
C5 C 0.7535(3) 0.48599(18) 0.69200(7)
C6 C 0.4837(4) 0.39252(18) 0.74792(8)
C7 C 0.8212(3) 0.35112(18) 0.70455(7)
H3 H 0.9557 0.3092 0.6912
C8 C 0.2303(4) 1.09754(19) 0.57769(8)
H4 H 0.2107 1.1784 0.5616
C9 C 0.5842(4) 0.64154(17) 0.62431(7)
H5 H 0.4172 0.6278 0.6160
H6 H 0.5934 0.6924 0.6571
C10 C 0.7036(3) 0.51242(18) 0.63310(7)
H7 H 0.8588 0.5172 0.6151
C11 C 0.6667(4) 0.29935(18) 0.73681(8)
H8 H 0.6734 0.2154 0.7505
C12 C 0.1132(4) 0.93816(19) 0.63974(8)
H9 H 0.0082 0.9117 0.6666
C13 C 0.5680(4) 0.40886(19) 0.60568(8)
C14 C 0.5952(4) 1.03054(17) 0.52139(8)
H10 H 0.6989 1.1032 0.5295
H11 H 0.5272 1.0429 0.4858
C15 C 0.0804(4) 1.05702(19) 0.61752(8)
H12 H -0.0430 1.1103 0.6293
C16 C 0.9338(4) 0.57934(18) 0.71308(8)
H13 H 1.0804 0.5692 0.6935
H14 H 0.8760 0.6664 0.7086
H15 H 0.9612 0.5626 0.7507
loop_
_geom_bond_atom_site_label_1
_geom_bond_atom_site_label_2
_geom_bond_site_symmetry_1
_geom_bond_site_symmetry_2
F1 C13 1_555 1_555
F2 C13 1_555 1_555
F3 C13 1_555 1_555
O1 C5 1_555 1_555
O2 C3 1_555 1_555
O3 C6 1_555 1_555
N1 C1 1_555 1_555
N2 C1 1_555 1_555
C1 C2 1_555 1_555
C2 C8 1_555 1_555
C3 N1 1_555 1_555
C4 N1 1_555 1_555
H1 C4 1_555 1_555
H2 C4 1_555 1_555
C5 C7 1_555 1_555
C6 O1 1_555 1_555
C7 H3 1_555 1_555
C8 H4 1_555 1_555
C9 C3 1_555 1_555
H5 C9 1_555 1_555
H6 C9 1_555 1_555
C10 C5 1_555 1_555
H7 C10 1_555 1_555
C11 C6 1_555 1_555
H8 C11 1_555 1_555
C12 N2 1_555 1_555
H9 C12 1_555 1_555
C13 C10 1_555 1_555
C14 C2 1_555 1_555
H10 C14 1_555 1_555
H11 C14 1_555 1_555
C15 C8 1_555 1_555
H12 C15 1_555 1_555
C16 C5 1_555 1_555
H13 C16 1_555 1_555
H14 C16 1_555 1_555
H15 C16 1_555 1_555
C4 C14 1_555 1_555
C7 C11 1_555 1_555
C9 C10 1_555 1_555
C12 C15 1_555 1_555

#END
