
#######################################################################
#
#                 Cambridge Crystallographic Data Centre
#                                CCDC 
#
#######################################################################
#
# If this CIF has been generated from an entry in the Cambridge 
# Structural Database, then it will include bibliographic, chemical, 
# crystal, experimental, refinement or atomic coordinate data resulting 
# from the CCDC's data processing and validation procedures.
#
#######################################################################

data_OLOZOG
_chemical_name_common            
'10,26-dimethyl-2,18-bis(pentafluorophenyl)-7,13,23,29-tetraphenyl-3,4-hexaphyrin unknown solvate'
_chemical_formula_moiety         'C68 H40 F10 N6'
_chemical_name_systematic        
'10,26-dimethyl-2,18-bis(pentafluorophenyl)-7,13,23,29-tetraphenyl-10,26,33,34,35,36-hexaazaheptacyclo[28.2.1.1^3,6^.1^14,17^.1^19,22^.0^8,12^.0^24,28^]hexatriaconta-1(33),2,4,6,8,11,13,15,17(35),18,20,22,24,27,29,31-hexadecaene unknown solvate'
_symmetry_cell_setting           monoclinic
_symmetry_space_group_name_H-M   'P 21/c'
_symmetry_Int_Tables_number      14
_space_group_name_Hall           '-P 2ybc'
loop_
_symmetry_equiv_pos_site_id
_symmetry_equiv_pos_as_xyz
1 x,y,z
2 -x,1/2+y,1/2-z
3 -x,-y,-z
4 x,1/2-y,1/2+z
_cell_length_a                   15.1045(19)
_cell_length_b                   30.660(4)
_cell_length_c                   15.5567(19)
_cell_angle_alpha                90
_cell_angle_beta                 105.475(4)
_cell_angle_gamma                90
_cell_volume                     6943.19
_exptl_crystal_colour            blue
_exptl_crystal_description       Block
_cell_formula_units_Z            4
loop_
_atom_site_label
_atom_site_type_symbol
_atom_site_fract_x
_atom_site_fract_y
_atom_site_fract_z
C1 C 0.6826(2) 0.84546(12) 0.8155(2)
C2 C 0.6450(2) 0.81809(12) 0.8706(2)
C3 C 0.6886(3) 0.78162(14) 0.9241(3)
H1 H 0.7491 0.7725 0.9325
C4 C 0.6258(3) 0.76335(13) 0.9592(3)
H2 H 0.6348 0.7392 0.9965
C5 C 0.5409(2) 0.78800(12) 0.9286(2)
C6 C 0.4562(2) 0.77764(11) 0.9383(2)
C7 C 0.3720(2) 0.79950(11) 0.8875(2)
C8 C 0.3530(3) 0.81081(13) 0.7983(3)
H3 H 0.3944 0.8098 0.7636
C9 C 0.2246(3) 0.82112(13) 0.8383(3)
H4 H 0.1639 0.8281 0.8353
C10 C 0.2883(2) 0.80664(11) 0.9129(2)
C11 C 0.2712(3) 0.80007(12) 1.0008(3)
C12 C 0.3360(2) 0.80948(12) 1.0781(2)
C13 C 0.3441(3) 0.79325(13) 1.1670(3)
H5 H 0.3004 0.7769 1.1850
C14 C 0.4260(3) 0.80606(13) 1.2190(3)
H6 H 0.4506 0.7988 1.2786
C15 C 0.4690(3) 0.83309(11) 1.1658(2)
C16 C 0.5519(3) 0.85622(12) 1.1909(2)
C17 C 0.5799(2) 0.88509(11) 1.1331(2)
C18 C 0.6609(3) 0.91290(12) 1.1519(3)
H7 H 0.7078 0.9134 1.2046
C19 C 0.6559(3) 0.93761(12) 1.0798(3)
H8 H 0.6989 0.9583 1.0737
C20 C 0.5722(2) 0.92669(11) 1.0132(2)
C21 C 0.5335(2) 0.94681(11) 0.9328(2)
C22 C 0.4368(2) 0.94067(11) 0.8861(2)
C23 C 0.3665(3) 0.93651(12) 0.9269(3)
H9 H 0.3745 0.9338 0.9880
C24 C 0.2990(3) 0.94105(13) 0.7829(3)
C25 C 0.3917(3) 0.94338(11) 0.7910(2)
C26 C 0.4334(3) 0.94725(11) 0.7172(2)
C27 C 0.5146(3) 0.92632(11) 0.7193(2)
C28 C 0.5817(3) 0.93463(14) 0.6697(3)
H10 H 0.5760 0.9550 0.6243
C29 C 0.6534(3) 0.90791(13) 0.7005(3)
H11 H 0.7066 0.9071 0.6812
C30 C 0.6336(2) 0.88040(12) 0.7692(2)
C31 C 0.7713(3) 0.83316(13) 0.7976(3)
C32 C 0.8511(3) 0.85642(17) 0.8262(3)
C33 C 0.9319(3) 0.8458(2) 0.8071(4)
C34 C 0.9348(3) 0.8092(2) 0.7580(3)
C35 C 0.8582(3) 0.78485(16) 0.7277(3)
C36 C 0.7793(3) 0.79680(15) 0.7470(3)
C37 C 0.4450(3) 0.73951(12) 0.9925(2)
C38 C 0.4988(3) 0.73316(13) 1.0781(3)
H12 H 0.5427 0.7539 1.1040
C39 C 0.4888(3) 0.69650(15) 1.1260(3)
H13 H 0.5264 0.6925 1.1834
C40 C 0.4229(3) 0.66570(15) 1.0888(3)
H14 H 0.4158 0.6411 1.1214
C41 C 0.3681(3) 0.67137(14) 1.0037(3)
H15 H 0.3242 0.6505 0.9783
C42 C 0.3781(3) 0.70798(13) 0.9558(3)
H16 H 0.3400 0.7119 0.8985
C43 C 0.1800(3) 0.78249(14) 1.0032(3)
C44 C 0.1374(3) 0.75000(16) 0.9458(3)
H17 H 0.1655 0.7389 0.9041
C45 C 0.0515(4) 0.7335(2) 0.9498(4)
H18 H 0.0231 0.7115 0.9110
C46 C 0.0108(4) 0.7497(3) 1.0101(5)
H19 H -0.0450 0.7381 1.0135
C47 C 0.0493(4) 0.7826(3) 1.0659(5)
H20 H 0.0193 0.7943 1.1056
C48 C 0.1356(3) 0.7984(2) 1.0624(4)
H21 H 0.1632 0.8204 1.1015
C49 C 0.6124(3) 0.85041(12) 1.2840(3)
C50 C 0.5841(4) 0.86221(15) 1.3584(3)
C51 C 0.6396(6) 0.8559(2) 1.4434(3)
C52 C 0.7268(6) 0.8392(3) 1.4552(5)
C53 C 0.7572(4) 0.8279(2) 1.3832(6)
C54 C 0.7002(3) 0.83341(15) 1.2998(3)
C55 C 0.5894(3) 0.97774(11) 0.8965(2)
C56 C 0.6812(3) 0.96911(13) 0.8996(3)
H22 H 0.7080 0.9431 0.9244
C57 C 0.7323(3) 0.99869(17) 0.8663(3)
H23 H 0.7933 0.9926 0.8691
C58 C 0.6934(4) 1.03712(18) 0.8289(4)
H24 H 0.7284 1.0572 0.8074
C59 C 0.6039(4) 1.04583(14) 0.8234(3)
H25 H 0.5777 1.0716 0.7970
C60 C 0.5514(3) 1.01671(12) 0.8566(2)
H26 H 0.4902 1.0231 0.8524
C61 C 0.3867(3) 0.97399(13) 0.6390(3)
C62 C 0.3406(3) 1.01192(14) 0.6484(3)
H27 H 0.3419 1.0216 0.7054
C63 C 0.2930(4) 1.03559(17) 0.5757(5)
H28 H 0.2622 1.0609 0.5833
C64 C 0.2917(4) 1.0213(3) 0.4915(4)
H29 H 0.2594 1.0371 0.4420
C65 C 0.3372(4) 0.9843(2) 0.4795(3)
H30 H 0.3363 0.9751 0.4223
C66 C 0.3844(3) 0.96063(15) 0.5527(3)
H31 H 0.4152 0.9354 0.5444
C67 C 0.1950(3) 0.93481(18) 0.8858(3)
H32 H 0.1474 0.9303 0.8317
H33 H 0.1842 0.9617 0.9131
H34 H 0.1951 0.9111 0.9261
C68 C 0.2154(3) 0.83564(19) 0.6773(3)
H35 H 0.1537 0.8444 0.6744
H36 H 0.2142 0.8110 0.6391
H37 H 0.2473 0.8593 0.6583
F1 F 0.7794(3) 0.83313(17) 1.5384(2)
F2 F 0.6089(3) 0.86795(13) 1.5132(2)
F3 F 0.5015(2) 0.87998(10) 1.34921(17)
F4 F 0.73167(19) 0.82145(9) 1.2314(2)
F5 F 0.8400(3) 0.81108(15) 1.3964(3)
F6 F 0.70530(18) 0.77185(10) 0.7160(2)
F7 F 0.8620(2) 0.74987(12) 0.6773(3)
F8 F 1.01324(18) 0.79861(12) 0.7377(2)
F9 F 1.0073(2) 0.86982(14) 0.8377(3)
F10 F 0.85008(19) 0.89339(12) 0.8742(3)
H38 H 0.247(3) 0.9421(11) 0.726(3)
N1 N 0.53049(19) 0.89379(9) 1.04992(19)
H39 H 0.4802 0.8809 1.0230
N2 N 0.41415(19) 0.83444(9) 1.08143(19)
N3 N 0.2633(2) 0.82372(11) 0.7697(2)
N4 N 0.5589(2) 0.82171(9) 0.87696(19)
H40 H 0.5207 0.8418 0.8527
N5 N 0.5500(2) 0.89304(9) 0.77950(18)
N6 N 0.2845(2) 0.93688(10) 0.8653(2)
loop_
_geom_bond_atom_site_label_1
_geom_bond_atom_site_label_2
_geom_bond_site_symmetry_1
_geom_bond_site_symmetry_2
C1 C2 1_555 1_555
C2 C3 1_555 1_555
C3 H1 1_555 1_555
C4 C3 1_555 1_555
H2 C4 1_555 1_555
C5 C4 1_555 1_555
C6 C5 1_555 1_555
C7 C6 1_555 1_555
C8 C7 1_555 1_555
H3 C8 1_555 1_555
C9 H4 1_555 1_555
C10 C7 1_555 1_555
C11 C10 1_555 1_555
C12 C11 1_555 1_555
C13 C12 1_555 1_555
H5 C13 1_555 1_555
C14 C13 1_555 1_555
H6 C14 1_555 1_555
C15 C14 1_555 1_555
C16 C15 1_555 1_555
C17 C16 1_555 1_555
C18 C17 1_555 1_555
H7 C18 1_555 1_555
C19 C18 1_555 1_555
H8 C19 1_555 1_555
C20 C19 1_555 1_555
C21 C20 1_555 1_555
C22 C21 1_555 1_555
C23 C22 1_555 1_555
H9 C23 1_555 1_555
C24 C25 1_555 1_555
C25 C22 1_555 1_555
C26 C25 1_555 1_555
C27 C26 1_555 1_555
C28 C27 1_555 1_555
H10 C28 1_555 1_555
C29 C28 1_555 1_555
H11 C29 1_555 1_555
C30 C1 1_555 1_555
C31 C1 1_555 1_555
C32 C31 1_555 1_555
C33 C32 1_555 1_555
C34 C33 1_555 1_555
C35 C34 1_555 1_555
C36 C31 1_555 1_555
C37 C6 1_555 1_555
C38 C37 1_555 1_555
H12 C38 1_555 1_555
C39 C38 1_555 1_555
H13 C39 1_555 1_555
C40 C39 1_555 1_555
H14 C40 1_555 1_555
C41 C40 1_555 1_555
H15 C41 1_555 1_555
C42 C37 1_555 1_555
H16 C42 1_555 1_555
C43 C11 1_555 1_555
C44 C43 1_555 1_555
H17 C44 1_555 1_555
C45 C44 1_555 1_555
H18 C45 1_555 1_555
C46 C45 1_555 1_555
H19 C46 1_555 1_555
C47 C46 1_555 1_555
H20 C47 1_555 1_555
C48 C43 1_555 1_555
H21 C48 1_555 1_555
C49 C16 1_555 1_555
C50 C49 1_555 1_555
C51 C50 1_555 1_555
C52 C51 1_555 1_555
C53 C52 1_555 1_555
C54 C49 1_555 1_555
C55 C21 1_555 1_555
C56 C55 1_555 1_555
H22 C56 1_555 1_555
C57 C56 1_555 1_555
H23 C57 1_555 1_555
C58 C57 1_555 1_555
H24 C58 1_555 1_555
C59 C58 1_555 1_555
H25 C59 1_555 1_555
C60 C55 1_555 1_555
H26 C60 1_555 1_555
C61 C26 1_555 1_555
C62 C61 1_555 1_555
H27 C62 1_555 1_555
C63 C62 1_555 1_555
H28 C63 1_555 1_555
C64 C63 1_555 1_555
H29 C64 1_555 1_555
C65 C64 1_555 1_555
H30 C65 1_555 1_555
C66 C61 1_555 1_555
H31 C66 1_555 1_555
C67 H32 1_555 1_555
H33 C67 1_555 1_555
H34 C67 1_555 1_555
C68 H35 1_555 1_555
H36 C68 1_555 1_555
H37 C68 1_555 1_555
F1 C52 1_555 1_555
F2 C51 1_555 1_555
F3 C50 1_555 1_555
F4 C54 1_555 1_555
F5 C53 1_555 1_555
F6 C36 1_555 1_555
F7 C35 1_555 1_555
F8 C34 1_555 1_555
F9 C33 1_555 1_555
F10 C32 1_555 1_555
H38 C24 1_555 1_555
N1 C17 1_555 1_555
H39 N1 1_555 1_555
N2 C12 1_555 1_555
N3 C8 1_555 1_555
N4 C2 1_555 1_555
H40 N4 1_555 1_555
N5 C27 1_555 1_555
N6 C23 1_555 1_555
C5 N4 1_555 1_555
C9 C10 1_555 1_555
C9 N3 1_555 1_555
C15 N2 1_555 1_555
C20 N1 1_555 1_555
C24 N6 1_555 1_555
C29 C30 1_555 1_555
C30 N5 1_555 1_555
C35 C36 1_555 1_555
C41 C42 1_555 1_555
C47 C48 1_555 1_555
C53 C54 1_555 1_555
C59 C60 1_555 1_555
C65 C66 1_555 1_555
C67 N6 1_555 1_555
C68 N3 1_555 1_555

#END
