
#######################################################################
#
#                 Cambridge Crystallographic Data Centre
#                                CCDC 
#
#######################################################################
#
# If this CIF has been generated from an entry in the Cambridge 
# Structural Database, then it will include bibliographic, chemical, 
# crystal, experimental, refinement or atomic coordinate data resulting 
# from the CCDC's data processing and validation procedures.
#
#######################################################################

data_OLUHOT
_chemical_formula_moiety         'C6 H18 F4 O2 P2 Si1'
_chemical_name_systematic        
'trans-Tetrafluorido-bis(trimethylphosphane oxide-O)silicon(iv)'
_symmetry_cell_setting           monoclinic
_symmetry_space_group_name_H-M   'P 21/n'
_symmetry_Int_Tables_number      14
_space_group_name_Hall           '-P 2yn'
loop_
_symmetry_equiv_pos_site_id
_symmetry_equiv_pos_as_xyz
1 x,y,z
2 1/2-x,1/2+y,1/2-z
3 -x,-y,-z
4 1/2+x,1/2-y,1/2+z
_cell_length_a                   6.285(2)
_cell_length_b                   9.560(3)
_cell_length_c                   10.287(3)
_cell_angle_alpha                90
_cell_angle_beta                 96.845(15)
_cell_angle_gamma                90
_cell_volume                     613.685
_exptl_crystal_colour            colorless
_exptl_crystal_description       block
_cell_formula_units_Z            2
loop_
_atom_site_label
_atom_site_type_symbol
_atom_site_fract_x
_atom_site_fract_y
_atom_site_fract_z
Si1 Si 0.5000 1.0000 1.0000
F1 F 0.41475(15) 1.14351(9) 1.07097(8)
F2 F 0.35425(15) 0.89965(10) 1.08796(9)
P1 P 0.16403(6) 0.90985(4) 0.77648(3)
O1 O 0.27450(17) 1.01666(11) 0.87218(10)
C1 C 0.0756(3) 0.75973(16) 0.85731(15)
H1 H 0.1975 0.7170 0.9112
H2 H 0.0135 0.6920 0.7920
H3 H -0.0330 0.7875 0.9132
C2 C 0.3310(3) 0.85596(16) 0.65632(15)
H4 H 0.3744 0.9381 0.6089
H5 H 0.2514 0.7913 0.5945
H6 H 0.4587 0.8089 0.6997
C3 C -0.0683(3) 0.98953(17) 0.69092(16)
H7 H -0.1657 1.0181 0.7537
H8 H -0.1410 0.9224 0.6287
H9 H -0.0258 1.0718 0.6434
F1B F 0.58525(15) 0.85649(9) 0.92903(8)
F2B F 0.64575(15) 1.10035(10) 0.91204(9)
P1B P 0.83597(6) 1.09015(4) 1.22352(3)
O1B O 0.72550(17) 0.98334(11) 1.12782(10)
C1B C 0.9244(3) 1.24027(16) 1.14269(15)
H1B H 0.8025 1.2830 1.0888
H2B H 0.9865 1.3080 1.2080
H3B H 1.0330 1.2125 1.0868
C2B C 0.6690(3) 1.14404(16) 1.34368(15)
H4B H 0.6256 1.0619 1.3911
H5B H 0.7486 1.2087 1.4055
H6B H 0.5413 1.1911 1.3003
C3B C 1.0683(3) 1.01047(17) 1.30908(16)
H7B H 1.1657 0.9819 1.2463
H8B H 1.1410 1.0776 1.3713
H9B H 1.0258 0.9282 1.3566
loop_
_geom_bond_atom_site_label_1
_geom_bond_atom_site_label_2
_geom_bond_site_symmetry_1
_geom_bond_site_symmetry_2
Si1 F1 1_555 1_555
F2 Si1 1_555 1_555
P1 O1 1_555 1_555
O1 Si1 1_555 1_555
C1 P1 1_555 1_555
H1 C1 1_555 1_555
H2 C1 1_555 1_555
H3 C1 1_555 1_555
C2 P1 1_555 1_555
H4 C2 1_555 1_555
H5 C2 1_555 1_555
H6 C2 1_555 1_555
C3 P1 1_555 1_555
H7 C3 1_555 1_555
H8 C3 1_555 1_555
H9 C3 1_555 1_555
F1B Si1 1_555 1_555
F2B Si1 1_555 1_555
P1B O1B 1_555 1_555
O1B Si1 1_555 1_555
C1B P1B 1_555 1_555
H1B C1B 1_555 1_555
H2B C1B 1_555 1_555
H3B C1B 1_555 1_555
C2B P1B 1_555 1_555
H4B C2B 1_555 1_555
H5B C2B 1_555 1_555
H6B C2B 1_555 1_555
C3B P1B 1_555 1_555
H7B C3B 1_555 1_555
H8B C3B 1_555 1_555
H9B C3B 1_555 1_555

#END
