
#######################################################################
#
#                 Cambridge Crystallographic Data Centre
#                                CCDC 
#
#######################################################################
#
# If this CIF has been generated from an entry in the Cambridge 
# Structural Database, then it will include bibliographic, chemical, 
# crystal, experimental, refinement or atomic coordinate data resulting 
# from the CCDC's data processing and validation procedures.
#
#######################################################################

data_OLUHUZ
_chemical_formula_moiety         'C36 H30 F4 O2 P2 Si1'
_chemical_name_systematic        
'trans-tetrafluorido-bis(triphenylphosphane oxide-O)silicon(iv)'
_symmetry_cell_setting           triclinic
_symmetry_space_group_name_H-M   'P -1'
_symmetry_Int_Tables_number      2
_space_group_name_Hall           '-P 1'
loop_
_symmetry_equiv_pos_site_id
_symmetry_equiv_pos_as_xyz
1 x,y,z
2 -x,-y,-z
_cell_length_a                   12.6885(15)
_cell_length_b                   13.7509(15)
_cell_length_c                   14.869(2)
_cell_angle_alpha                62.564(6)
_cell_angle_beta                 82.697(6)
_cell_angle_gamma                80.305(6)
_cell_volume                     2266
_exptl_crystal_colour            colorless
_exptl_crystal_description       block
_cell_formula_units_Z            3
loop_
_atom_site_label
_atom_site_type_symbol
_atom_site_fract_x
_atom_site_fract_y
_atom_site_fract_z
Si1 Si 0.35918(9) 0.33047(9) 0.32959(9)
F1 F 0.28579(18) 0.41752(19) 0.36916(18)
F2 F 0.36550(18) 0.23389(19) 0.44863(17)
F3 F 0.43268(18) 0.24322(19) 0.29110(18)
F4 F 0.35348(18) 0.42825(19) 0.21057(17)
P1 P 0.11781(8) 0.31278(9) 0.32340(8)
P2 P 0.60138(8) 0.34814(8) 0.33821(8)
O1 O 0.2384(2) 0.2827(2) 0.3164(2)
O2 O 0.4807(2) 0.3786(2) 0.3426(2)
C1 C 0.0602(3) 0.2108(3) 0.3080(3)
C2 C 0.0952(3) 0.1926(3) 0.2233(3)
H1 H 0.1477 0.2338 0.1759
C3 C 0.0537(3) 0.1148(3) 0.2082(3)
H2 H 0.0765 0.1034 0.1500
C4 C -0.0215(4) 0.0536(4) 0.2787(4)
H3 H -0.0502 0.0002 0.2685
C5 C -0.0551(4) 0.0693(4) 0.3634(3)
H4 H -0.1056 0.0257 0.4118
C6 C -0.0153(3) 0.1487(3) 0.3783(3)
H5 H -0.0395 0.1605 0.4361
C7 C 0.0688(3) 0.4465(3) 0.2260(3)
C8 C -0.0038(3) 0.4572(3) 0.1586(3)
H6 H -0.0280 0.3934 0.1628
C9 C -0.0414(4) 0.5617(4) 0.0846(3)
H7 H -0.0908 0.5693 0.0382
C10 C -0.0063(3) 0.6545(4) 0.0792(3)
H8 H -0.0320 0.7258 0.0292
C11 C 0.0660(3) 0.6440(3) 0.1463(3)
H9 H 0.0897 0.7080 0.1421
C12 C 0.1038(3) 0.5409(3) 0.2194(3)
H10 H 0.1536 0.5340 0.2653
C13 C 0.0692(3) 0.3077(3) 0.4443(3)
C14 C 0.1207(3) 0.2292(3) 0.5309(3)
H11 H 0.1818 0.1814 0.5253
C15 C 0.0822(4) 0.2214(4) 0.6251(3)
H12 H 0.1166 0.1680 0.6845
C16 C -0.0070(4) 0.2918(4) 0.6324(3)
H13 H -0.0340 0.2855 0.6972
C17 C -0.0570(4) 0.3708(4) 0.5470(4)
H14 H -0.1167 0.4199 0.5526
C18 C -0.0193(4) 0.3780(4) 0.4525(3)
H15 H -0.0543 0.4313 0.3934
C19 C 0.6571(3) 0.4503(3) 0.3544(3)
C20 C 0.6186(4) 0.4677(4) 0.4389(4)
H16 H 0.5657 0.4258 0.4850
C21 C 0.6574(4) 0.5460(4) 0.4554(4)
H17 H 0.6313 0.5576 0.5129
C22 C 0.7340(4) 0.6072(4) 0.3886(4)
H18 H 0.7602 0.6613 0.3998
C23 C 0.7729(4) 0.5899(4) 0.3050(4)
H19 H 0.8258 0.6321 0.2592
C24 C 0.7349(3) 0.5111(4) 0.2877(3)
H20 H 0.7621 0.4991 0.2306
C25 C 0.6480(3) 0.2151(3) 0.4375(3)
C26 C 0.7208(4) 0.2036(4) 0.5061(3)
H21 H 0.7480 0.2668 0.5001
C27 C 0.7532(4) 0.1010(4) 0.5823(4)
H22 H 0.8026 0.0937 0.6286
C28 C 0.7142(4) 0.0077(4) 0.5919(4)
H23 H 0.7356 -0.0627 0.6456
C29 C 0.6445(3) 0.0180(4) 0.5235(4)
H24 H 0.6195 -0.0459 0.5288
C30 C 0.6105(3) 0.1212(3) 0.4465(3)
H25 H 0.5617 0.1277 0.4000
C31 C 0.6520(3) 0.3525(3) 0.2188(3)
C32 C 0.5964(3) 0.4253(3) 0.1325(3)
H26 H 0.5319 0.4690 0.1384
C33 C 0.6359(3) 0.4334(4) 0.0390(3)
H27 H 0.5986 0.4834 -0.0199
C34 C 0.7291(4) 0.3696(4) 0.0299(3)
H28 H 0.7552 0.3756 -0.0350
C35 C 0.7846(4) 0.2970(4) 0.1147(4)
H29 H 0.8487 0.2533 0.1081
C36 C 0.7464(3) 0.2882(4) 0.2095(3)
H30 H 0.7843 0.2384 0.2679
Si2 Si 0.0000 0.0000 0.0000
F5 F -0.06783(19) 0.1050(2) 0.01668(19)
F6 F -0.00521(19) -0.0778(2) 0.12428(18)
P3 P 0.24672(9) 0.01929(9) 0.00131(8)
O3 O 0.1258(2) 0.0461(2) 0.0078(2)
C37 C 0.2998(3) 0.1087(4) 0.0373(3)
C38 C 0.3633(3) 0.0684(4) 0.1202(3)
H31 H 0.3825 -0.0090 0.1578
C39 C 0.3989(4) 0.1405(4) 0.1482(3)
H32 H 0.4409 0.1125 0.2055
C40 C 0.3727(4) 0.2527(4) 0.0923(3)
H33 H 0.3972 0.3020 0.1110
C41 C 0.3102(3) 0.2946(4) 0.0081(3)
H34 H 0.2928 0.3721 -0.0304
C42 C 0.2741(3) 0.2231(4) -0.0186(3)
H35 H 0.2314 0.2516 -0.0754
C43 C 0.2934(3) -0.1205(4) 0.0872(3)
C44 C 0.2429(4) -0.1690(4) 0.1833(3)
H36 H 0.1816 -0.1301 0.2014
C45 C 0.2822(4) -0.2747(4) 0.2529(4)
H37 H 0.2479 -0.3079 0.3187
C46 C 0.3704(4) -0.3310(4) 0.2267(4)
H38 H 0.3971 -0.4030 0.2748
C47 C 0.4210(4) -0.2843(4) 0.1309(4)
H39 H 0.4814 -0.3241 0.1129
C48 C 0.3824(4) -0.1787(4) 0.0619(4)
H40 H 0.4172 -0.1458 -0.0037
C49 C 0.3022(3) 0.0439(3) -0.1235(3)
C50 C 0.2667(4) -0.0117(4) -0.1707(4)
H41 H 0.2132 -0.0596 -0.1377
C51 C 0.3102(4) 0.0038(5) -0.2658(4)
H42 H 0.2869 -0.0344 -0.2974
C52 C 0.3869(4) 0.0742(4) -0.3154(4)
H43 H 0.4160 0.0841 -0.3807
C53 C 0.4214(4) 0.1300(4) -0.2699(4)
H44 H 0.4732 0.1795 -0.3044
C54 C 0.3799(4) 0.1137(4) -0.1730(4)
H45 H 0.4050 0.1507 -0.1410
F5A F 0.06783(19) -0.1050(2) -0.01668(19)
F6A F 0.00521(19) 0.0778(2) -0.12428(18)
P3A P -0.24672(9) -0.01929(9) -0.00131(8)
O3A O -0.1258(2) -0.0461(2) -0.0078(2)
C37A C -0.2998(3) -0.1087(4) -0.0373(3)
C38A C -0.3633(3) -0.0684(4) -0.1202(3)
H31A H -0.3825 0.0090 -0.1578
C39A C -0.3989(4) -0.1405(4) -0.1482(3)
H32A H -0.4409 -0.1125 -0.2055
C40A C -0.3727(4) -0.2527(4) -0.0923(3)
H33A H -0.3972 -0.3020 -0.1110
C41A C -0.3102(3) -0.2946(4) -0.0081(3)
H34A H -0.2928 -0.3721 0.0304
C42A C -0.2741(3) -0.2231(4) 0.0186(3)
H35A H -0.2314 -0.2516 0.0754
C43A C -0.2934(3) 0.1205(4) -0.0872(3)
C44A C -0.2429(4) 0.1690(4) -0.1833(3)
H36A H -0.1816 0.1301 -0.2014
C45A C -0.2822(4) 0.2747(4) -0.2529(4)
H37A H -0.2479 0.3079 -0.3187
C46A C -0.3704(4) 0.3310(4) -0.2267(4)
H38A H -0.3971 0.4030 -0.2748
C47A C -0.4210(4) 0.2843(4) -0.1309(4)
H39A H -0.4814 0.3241 -0.1129
C48A C -0.3824(4) 0.1787(4) -0.0619(4)
H40A H -0.4172 0.1458 0.0037
C49A C -0.3022(3) -0.0439(3) 0.1235(3)
C50A C -0.2667(4) 0.0117(4) 0.1707(4)
H41A H -0.2132 0.0596 0.1377
C51A C -0.3102(4) -0.0038(5) 0.2658(4)
H42A H -0.2869 0.0344 0.2974
C52A C -0.3869(4) -0.0742(4) 0.3154(4)
H43A H -0.4160 -0.0841 0.3807
C53A C -0.4214(4) -0.1300(4) 0.2699(4)
H44A H -0.4732 -0.1795 0.3044
C54A C -0.3799(4) -0.1137(4) 0.1730(4)
H45A H -0.4050 -0.1507 0.1410
loop_
_geom_bond_atom_site_label_1
_geom_bond_atom_site_label_2
_geom_bond_site_symmetry_1
_geom_bond_site_symmetry_2
Si1 F1 1_555 1_555
Si2 F5 1_555 1_555
F2 Si1 1_555 1_555
F3 Si1 1_555 1_555
F4 Si1 1_555 1_555
F6 Si2 1_555 1_555
P1 O1 1_555 1_555
P2 O2 1_555 1_555
P3 O3 1_555 1_555
O1 Si1 1_555 1_555
O2 Si1 1_555 1_555
O3 Si2 1_555 1_555
C1 P1 1_555 1_555
C2 C1 1_555 1_555
H1 C2 1_555 1_555
C3 C2 1_555 1_555
H2 C3 1_555 1_555
C4 C3 1_555 1_555
H3 C4 1_555 1_555
C5 C4 1_555 1_555
H4 C5 1_555 1_555
C6 C1 1_555 1_555
H5 C6 1_555 1_555
C7 P1 1_555 1_555
C8 C7 1_555 1_555
H6 C8 1_555 1_555
C9 C8 1_555 1_555
H7 C9 1_555 1_555
C10 C9 1_555 1_555
H8 C10 1_555 1_555
C11 C10 1_555 1_555
H9 C11 1_555 1_555
C12 C7 1_555 1_555
H10 C12 1_555 1_555
C13 P1 1_555 1_555
C14 C13 1_555 1_555
H11 C14 1_555 1_555
C15 C14 1_555 1_555
H12 C15 1_555 1_555
C16 C15 1_555 1_555
H13 C16 1_555 1_555
C17 C16 1_555 1_555
H14 C17 1_555 1_555
C18 C13 1_555 1_555
H15 C18 1_555 1_555
C19 P2 1_555 1_555
C20 C19 1_555 1_555
H16 C20 1_555 1_555
C21 C20 1_555 1_555
H17 C21 1_555 1_555
C22 C21 1_555 1_555
H18 C22 1_555 1_555
C23 C22 1_555 1_555
H19 C23 1_555 1_555
C24 C19 1_555 1_555
H20 C24 1_555 1_555
C25 P2 1_555 1_555
C26 C25 1_555 1_555
H21 C26 1_555 1_555
C27 C26 1_555 1_555
H22 C27 1_555 1_555
C28 C27 1_555 1_555
H23 C28 1_555 1_555
C29 C28 1_555 1_555
H24 C29 1_555 1_555
C30 C25 1_555 1_555
H25 C30 1_555 1_555
C31 P2 1_555 1_555
C32 C31 1_555 1_555
H26 C32 1_555 1_555
C33 C32 1_555 1_555
H27 C33 1_555 1_555
C34 C33 1_555 1_555
H28 C34 1_555 1_555
C35 C34 1_555 1_555
H29 C35 1_555 1_555
C36 C31 1_555 1_555
H30 C36 1_555 1_555
C37 P3 1_555 1_555
C38 C37 1_555 1_555
H31 C38 1_555 1_555
C39 C38 1_555 1_555
H32 C39 1_555 1_555
C40 C39 1_555 1_555
H33 C40 1_555 1_555
C41 C40 1_555 1_555
H34 C41 1_555 1_555
C42 C37 1_555 1_555
H35 C42 1_555 1_555
C43 P3 1_555 1_555
C44 C43 1_555 1_555
H36 C44 1_555 1_555
C45 C44 1_555 1_555
H37 C45 1_555 1_555
C46 C45 1_555 1_555
H38 C46 1_555 1_555
C47 C46 1_555 1_555
H39 C47 1_555 1_555
C48 C43 1_555 1_555
H40 C48 1_555 1_555
C49 P3 1_555 1_555
C50 C49 1_555 1_555
H41 C50 1_555 1_555
C51 C50 1_555 1_555
H42 C51 1_555 1_555
C52 C51 1_555 1_555
H43 C52 1_555 1_555
C53 C52 1_555 1_555
H44 C53 1_555 1_555
C54 C49 1_555 1_555
H45 C54 1_555 1_555
F5A Si2 1_555 1_555
F6A Si2 1_555 1_555
P3A O3A 1_555 1_555
O3A Si2 1_555 1_555
C37A P3A 1_555 1_555
C38A C37A 1_555 1_555
H31A C38A 1_555 1_555
C39A C38A 1_555 1_555
H32A C39A 1_555 1_555
C40A C39A 1_555 1_555
H33A C40A 1_555 1_555
C41A C40A 1_555 1_555
H34A C41A 1_555 1_555
C42A C37A 1_555 1_555
H35A C42A 1_555 1_555
C43A P3A 1_555 1_555
C44A C43A 1_555 1_555
H36A C44A 1_555 1_555
C45A C44A 1_555 1_555
H37A C45A 1_555 1_555
C46A C45A 1_555 1_555
H38A C46A 1_555 1_555
C47A C46A 1_555 1_555
H39A C47A 1_555 1_555
C48A C43A 1_555 1_555
H40A C48A 1_555 1_555
C49A P3A 1_555 1_555
C50A C49A 1_555 1_555
H41A C50A 1_555 1_555
C51A C50A 1_555 1_555
H42A C51A 1_555 1_555
C52A C51A 1_555 1_555
H43A C52A 1_555 1_555
C53A C52A 1_555 1_555
H44A C53A 1_555 1_555
C54A C49A 1_555 1_555
H45A C54A 1_555 1_555
C5 C6 1_555 1_555
C11 C12 1_555 1_555
C17 C18 1_555 1_555
C23 C24 1_555 1_555
C29 C30 1_555 1_555
C35 C36 1_555 1_555
C41 C42 1_555 1_555
C47 C48 1_555 1_555
C53 C54 1_555 1_555
C41A C42A 1_555 1_555
C47A C48A 1_555 1_555
C53A C54A 1_555 1_555

#END
