
#######################################################################
#
#                 Cambridge Crystallographic Data Centre
#                                CCDC 
#
#######################################################################
#
# If this CIF has been generated from an entry in the Cambridge 
# Structural Database, then it will include bibliographic, chemical, 
# crystal, experimental, refinement or atomic coordinate data resulting 
# from the CCDC's data processing and validation procedures.
#
#######################################################################

data_OLUJOV
_chemical_formula_moiety         '2(C3 H10 As1 O1 1+),F6 Si1 2-'
_chemical_name_systematic        
'bis(Hydroxy(trimethyl)arsonium) hexafluorosilicate(iv)'
_symmetry_cell_setting           tetragonal
_symmetry_space_group_name_H-M   'P 43'
_symmetry_Int_Tables_number      78
_space_group_name_Hall           'P 4cw'
loop_
_symmetry_equiv_pos_site_id
_symmetry_equiv_pos_as_xyz
1 x,y,z
2 -x,-y,1/2+z
3 -y,x,3/4+z
4 y,-x,1/4+z
_cell_length_a                   7.9450(5)
_cell_length_b                   7.9450(5)
_cell_length_c                   22.347(3)
_cell_angle_alpha                90
_cell_angle_beta                 90
_cell_angle_gamma                90
_cell_volume                     1410.61
_exptl_crystal_colour            colorless
_exptl_crystal_description       block
_cell_formula_units_Z            4
loop_
_atom_site_label
_atom_site_type_symbol
_atom_site_fract_x
_atom_site_fract_y
_atom_site_fract_z
Si1 Si 0.5302(2) 0.0451(2) 0.33051(12)
F1 F 0.4626(5) -0.1515(5) 0.3208(2)
F2 F 0.3295(5) 0.1086(5) 0.3426(2)
F3 F 0.5042(5) 0.0859(5) 0.2555(2)
F4 F 0.7285(4) -0.0170(5) 0.3171(2)
F5 F 0.5552(5) 0.0071(5) 0.40487(19)
F6 F 0.5978(5) 0.2438(5) 0.3416(2)
As1 As 0.52349(8) 0.54733(7) 0.41995(2)
O1 O 0.4914(6) 0.7272(6) 0.4621(2)
C1 C 0.5389(9) 0.3788(8) 0.4794(3)
H1 H 0.6396 0.3981 0.5038
H2 H 0.5465 0.2681 0.4602
H3 H 0.4387 0.3828 0.5049
C2 C 0.3300(8) 0.5151(8) 0.3705(3)
H4 H 0.2300 0.5581 0.3912
H5 H 0.3155 0.3948 0.3623
H6 H 0.3451 0.5758 0.3327
C3 C 0.7323(9) 0.5829(9) 0.3803(3)
H7 H 0.7192 0.6720 0.3503
H8 H 0.7676 0.4786 0.3606
H9 H 0.8177 0.6165 0.4096
H19 H 0.505(11) 0.802(9) 0.436(3)
As2 As 1.03382(7) 0.02825(8) 0.24158(2)
O2 O 1.2168(6) 0.0471(6) 0.1996(2)
C4 C 0.8710(8) -0.0144(9) 0.1818(3)
H10 H 0.8666 0.0810 0.1540
H11 H 0.7605 -0.0295 0.2005
H12 H 0.9015 -0.1167 0.1598
C5 C 1.0648(8) -0.1570(8) 0.2927(3)
H13 H 1.0936 -0.2566 0.2689
H14 H 0.9607 -0.1783 0.3150
H15 H 1.1562 -0.1327 0.3208
C6 C 0.9925(8) 0.2408(8) 0.2769(3)
H16 H 1.0911 0.2755 0.3001
H17 H 0.8944 0.2331 0.3033
H18 H 0.9705 0.3239 0.2454
H20 H 1.293(9) 0.076(11) 0.223(3)
loop_
_geom_bond_atom_site_label_1
_geom_bond_atom_site_label_2
_geom_bond_site_symmetry_1
_geom_bond_site_symmetry_2
Si1 F1 1_555 1_555
F2 Si1 1_555 1_555
F3 Si1 1_555 1_555
F4 Si1 1_555 1_555
F5 Si1 1_555 1_555
F6 Si1 1_555 1_555
As1 O1 1_555 1_555
As2 O2 1_555 1_555
O1 H19 1_555 1_555
O2 H20 1_555 1_555
C1 As1 1_555 1_555
H1 C1 1_555 1_555
H2 C1 1_555 1_555
H3 C1 1_555 1_555
C2 As1 1_555 1_555
H4 C2 1_555 1_555
H5 C2 1_555 1_555
H6 C2 1_555 1_555
C3 As1 1_555 1_555
H7 C3 1_555 1_555
H8 C3 1_555 1_555
H9 C3 1_555 1_555
C4 As2 1_555 1_555
H10 C4 1_555 1_555
H11 C4 1_555 1_555
H12 C4 1_555 1_555
C5 As2 1_555 1_555
H13 C5 1_555 1_555
H14 C5 1_555 1_555
H15 C5 1_555 1_555
C6 As2 1_555 1_555
H16 C6 1_555 1_555
H17 C6 1_555 1_555
H18 C6 1_555 1_555

#END
