
#######################################################################
#
#                 Cambridge Crystallographic Data Centre
#                                CCDC 
#
#######################################################################
#
# If this CIF has been generated from an entry in the Cambridge 
# Structural Database, then it will include bibliographic, chemical, 
# crystal, experimental, refinement or atomic coordinate data resulting 
# from the CCDC's data processing and validation procedures.
#
#######################################################################

data_OLUMUF
_chemical_formula_moiety         'C13 H13 Cl1 N2 O3'
_chemical_name_systematic        
'2-{5-[(4-chlorophenyl)amino]-3-methyl-1,2-oxazol-4-yl}ethyl formate'
_symmetry_cell_setting           monoclinic
_symmetry_space_group_name_H-M   'P 21/n'
_symmetry_Int_Tables_number      14
_space_group_name_Hall           '-P 2yn'
loop_
_symmetry_equiv_pos_site_id
_symmetry_equiv_pos_as_xyz
1 x,y,z
2 1/2-x,1/2+y,1/2-z
3 -x,-y,-z
4 1/2+x,1/2-y,1/2+z
_cell_length_a                   5.5307(8)
_cell_length_b                   21.530(3)
_cell_length_c                   11.1271(15)
_cell_angle_alpha                90
_cell_angle_beta                 96.547(2)
_cell_angle_gamma                90
_cell_volume                     1316.33
_exptl_crystal_colour            colorless
_exptl_crystal_description       block
_chemical_melting_point          '403 K'
_cell_formula_units_Z            4
loop_
_atom_site_label
_atom_site_type_symbol
_atom_site_fract_x
_atom_site_fract_y
_atom_site_fract_z
Cl1 Cl 0.2695(2) 1.02016(5) 0.15966(12)
C1 C 0.6632(7) 0.84604(17) 0.0690(4)
C2 C 0.4232(8) 0.95337(18) 0.1229(4)
C3 C 0.6490(8) 0.94110(19) 0.1820(4)
H1 H 0.7205 0.9688 0.2396
C4 C 0.7713(8) 0.88727(18) 0.1558(3)
H2 H 0.9246 0.8788 0.1959
C5 C 0.4337(8) 0.85980(18) 0.0102(4)
H3 H 0.3596 0.8323 -0.0471
C6 C 0.3157(8) 0.91333(19) 0.0357(4)
H4 H 0.1641 0.9226 -0.0055
N1 N 0.7810(6) 0.79176(15) 0.0328(3)
O1 O 0.5444(6) 0.56310(15) -0.0811(3)
C7 C 1.4439(8) 0.64960(19) 0.1964(4)
H5 H 1.4867 0.6431 0.2815
H6 H 1.5835 0.6643 0.1610
H7 H 1.3895 0.6112 0.1589
C8 C 0.9570(7) 0.75886(16) 0.1008(4)
C9 C 1.2461(7) 0.69625(17) 0.1776(4)
C10 C 1.1084(7) 0.71334(17) 0.0676(4)
O2 O 0.9914(5) 0.76867(13) 0.2215(3)
N2 N 1.1815(7) 0.72758(16) 0.2702(3)
O3 O 0.9286(6) 0.58970(13) -0.0213(3)
C11 C 1.1150(7) 0.68727(18) -0.0559(4)
H8 H 1.2642 0.6638 -0.0577
H9 H 1.1172 0.7212 -0.1132
C12 C 0.9018(8) 0.64584(16) -0.0949(4)
C13 C 0.7343(8) 0.5528(2) -0.0258(5)
H10 H 0.7501 0.5160 0.0182
H11? H 1.0733 0.5802 0.0262
H12? H 0.7755 0.6545 -0.1552
H13? H 1.3085 0.7493 0.3066
H14? H 1.1274 0.7017 0.3247
loop_
_geom_bond_atom_site_label_1
_geom_bond_atom_site_label_2
_geom_bond_site_symmetry_1
_geom_bond_site_symmetry_2
Cl1 C2 1_555 1_555
C1 C4 1_555 1_555
C2 C3 1_555 1_555
C3 H1 1_555 1_555
C4 C3 1_555 1_555
H2 C4 1_555 1_555
C5 C1 1_555 1_555
H3 C5 1_555 1_555
C6 C2 1_555 1_555
H4 C6 1_555 1_555
N1 C1 1_555 1_555
O1 C13 1_555 1_555
C7 H5 1_555 1_555
H6 C7 1_555 1_555
H7 C7 1_555 1_555
C8 N1 1_555 1_555
C9 C7 1_555 1_555
C10 C8 1_555 1_555
O2 C8 1_555 1_555
N2 C9 1_555 1_555
O3 C12 1_555 1_555
C11 C10 1_555 1_555
H8 C11 1_555 1_555
H9 C11 1_555 1_555
C12 C11 1_555 1_555
C13 O3 1_555 1_555
H10 C13 1_555 1_555
C5 C6 1_555 1_555
C9 C10 1_555 1_555
O2 N2 1_555 1_555

#END
