
#######################################################################
#
#                 Cambridge Crystallographic Data Centre
#                                CCDC 
#
#######################################################################
#
# If this CIF has been generated from an entry in the Cambridge 
# Structural Database, then it will include bibliographic, chemical, 
# crystal, experimental, refinement or atomic coordinate data resulting 
# from the CCDC's data processing and validation procedures.
#
#######################################################################

data_OLUTUM
_chemical_formula_moiety         'C12 H10 N4 O3'
_chemical_name_systematic        
4-nitro-2-(pyridin-2-ylcarbonohydrazonoyl)phenol
_symmetry_cell_setting           monoclinic
_symmetry_space_group_name_H-M   'P 21/c'
_symmetry_Int_Tables_number      14
_space_group_name_Hall           '-P 2ybc'
loop_
_symmetry_equiv_pos_site_id
_symmetry_equiv_pos_as_xyz
1 x,y,z
2 -x,1/2+y,1/2-z
3 -x,-y,-z
4 x,1/2-y,1/2+z
_cell_length_a                   8.5236(6)
_cell_length_b                   5.7168(4)
_cell_length_c                   22.9928(16)
_cell_angle_alpha                90
_cell_angle_beta                 92.226(4)
_cell_angle_gamma                90
_cell_volume                     1119.54
_exptl_crystal_colour            orange
_exptl_crystal_description       Plate
_cell_formula_units_Z            4
loop_
_atom_site_label
_atom_site_type_symbol
_atom_site_fract_x
_atom_site_fract_y
_atom_site_fract_z
O1 O 0.11236(19) 0.1890(3) 0.47845(7)
H1 H 0.1702 0.2976 0.4914
N1 N 0.2554(2) 0.5872(4) 0.47820(8)
C1 C 0.0777(2) 0.4707(4) 0.40175(9)
N2 N 0.3597(2) 0.7403(4) 0.50187(8)
H2 H 0.392(3) 0.862(5) 0.4805(11)
C2 C -0.0985(2) 0.3677(4) 0.32248(9)
C3 C 0.1892(2) 0.6331(4) 0.42857(9)
H3 H 0.2133 0.7747 0.4092
O2 O -0.2522(2) 0.2817(3) 0.24057(7)
N3 N 0.5211(2) 0.8666(4) 0.57659(8)
C4 C 0.0044(2) 0.5234(4) 0.34866(9)
H4 H 0.0254 0.6682 0.3302
N4 N -0.1736(2) 0.4301(4) 0.26697(8)
C5 C 0.5862(3) 0.8352(4) 0.63015(10)
H5 H 0.6529 0.9552 0.6455
C6 C 0.3977(2) 0.4926(4) 0.58706(10)
H6 H 0.3313 0.3741 0.5708
C7 C -0.0628(2) 0.1003(4) 0.40036(10)
H7 H -0.0864 -0.0442 0.4185
C8 C 0.4264(2) 0.6964(4) 0.55627(9)
O3 O -0.1562(2) 0.6295(4) 0.24854(8)
C9 C 0.5635(3) 0.6436(5) 0.66410(10)
H8 H 0.6117 0.6317 0.7019
C10 C -0.1328(2) 0.1554(4) 0.34743(10)
H9 H -0.2034 0.0495 0.3283
C11 C 0.0429(2) 0.2553(4) 0.42787(10)
C12 C 0.4677(2) 0.4663(5) 0.64163(10)
H10 H 0.4507 0.3286 0.6636
loop_
_geom_bond_atom_site_label_1
_geom_bond_atom_site_label_2
_geom_bond_site_symmetry_1
_geom_bond_site_symmetry_2
O1 H1 1_555 1_555
N1 N2 1_555 1_555
C1 C3 1_555 1_555
N2 H2 1_555 1_555
C2 C4 1_555 1_555
C3 N1 1_555 1_555
H3 C3 1_555 1_555
O2 N4 1_555 1_555
N3 C5 1_555 1_555
C4 C1 1_555 1_555
H4 C4 1_555 1_555
N4 C2 1_555 1_555
C5 H5 1_555 1_555
C6 H6 1_555 1_555
C7 H7 1_555 1_555
C8 N2 1_555 1_555
O3 N4 1_555 1_555
C9 C5 1_555 1_555
H8 C9 1_555 1_555
C10 C2 1_555 1_555
H9 C10 1_555 1_555
C11 O1 1_555 1_555
C12 C6 1_555 1_555
H10 C12 1_555 1_555
C1 C11 1_555 1_555
N3 C8 1_555 1_555
C6 C8 1_555 1_555
C7 C10 1_555 1_555
C7 C11 1_555 1_555
C9 C12 1_555 1_555

#END
