
#######################################################################
#
#                 Cambridge Crystallographic Data Centre
#                                CCDC 
#
#######################################################################
#
# If this CIF has been generated from an entry in the Cambridge 
# Structural Database, then it will include bibliographic, chemical, 
# crystal, experimental, refinement or atomic coordinate data resulting 
# from the CCDC's data processing and validation procedures.
#
#######################################################################

data_OLUVAU
_chemical_formula_moiety         'C12 H11 N3 O2,0.5(H2 O1)'
_chemical_name_systematic        
'3-(pyridin-2-ylcarbonohydrazonoyl)benzene-1,2-diol hemihydrate'
_symmetry_cell_setting           orthorhombic
_symmetry_space_group_name_H-M   'P b c n'
_symmetry_Int_Tables_number      60
_space_group_name_Hall           '-P 2n 2ab'
loop_
_symmetry_equiv_pos_site_id
_symmetry_equiv_pos_as_xyz
1 x,y,z
2 1/2-x,1/2-y,1/2+z
3 -x,y,1/2-z
4 1/2+x,1/2-y,-z
5 -x,-y,-z
6 1/2+x,1/2+y,1/2-z
7 x,-y,1/2+z
8 1/2-x,1/2+y,z
_cell_length_a                   11.855(3)
_cell_length_b                   11.184(2)
_cell_length_c                   16.693(4)
_cell_angle_alpha                90
_cell_angle_beta                 90
_cell_angle_gamma                90
_cell_volume                     2213.26
_exptl_crystal_colour            colorless
_exptl_crystal_description       Block
_cell_formula_units_Z            8
loop_
_atom_site_label
_atom_site_type_symbol
_atom_site_fract_x
_atom_site_fract_y
_atom_site_fract_z
O1 O 0.07926(9) 0.08725(10) 0.37061(7)
H1 H 0.0665 0.0441 0.3304
O2 O 0.14238(9) 0.27151(10) 0.45990(7)
H2 H 0.1715 0.3277 0.4861
N1 N 0.35036(12) 0.48980(12) 0.56579(8)
H3 H 0.4235(18) 0.4851(17) 0.5786(11)
N2 N 0.33145(11) 0.63752(12) 0.65945(8)
N3 N 0.30709(12) 0.40385(11) 0.51633(8)
C1 C 0.27984(13) 0.56706(13) 0.60588(9)
C2 C 0.16343(14) 0.57359(14) 0.59090(10)
H4 H 0.1286 0.5219 0.5531
C3 C 0.15355(14) 0.73147(15) 0.68800(10)
H5 H 0.1118 0.7894 0.7172
C4 C 0.19237(13) 0.11029(13) 0.37555(9)
C5 C 0.34014(13) 0.23797(14) 0.42898(9)
C6 C 0.38736(14) 0.07037(14) 0.34380(10)
H6 H 0.4423 0.0232 0.3170
C7 C 0.42058(13) 0.16805(14) 0.38882(9)
H7 H 0.4983 0.1879 0.3926
C8 C 0.27318(14) 0.04105(14) 0.33766(9)
H8 H 0.2508 -0.0268 0.3073
C9 C 0.10109(14) 0.65715(14) 0.63255(10)
H9 H 0.0223 0.6639 0.6234
C10 C 0.26821(14) 0.71835(14) 0.69921(9)
H10 H 0.3046 0.7689 0.7369
C11 C 0.22493(13) 0.20874(13) 0.42190(9)
C12 C 0.37841(14) 0.33577(14) 0.48005(9)
H11 H 0.4569 0.3494 0.4867
O3 O 0.5000 0.54381(14) 0.7500
H12 H 0.4494(17) 0.5925(17) 0.7212(11)
H12B H 0.5506(17) 0.5925(17) 0.7788(11)
loop_
_geom_bond_atom_site_label_1
_geom_bond_atom_site_label_2
_geom_bond_site_symmetry_1
_geom_bond_site_symmetry_2
O1 H1 1_555 1_555
O2 H2 1_555 1_555
N1 H3 1_555 1_555
N2 C1 1_555 1_555
N3 N1 1_555 1_555
C1 N1 1_555 1_555
C2 C1 1_555 1_555
H4 C2 1_555 1_555
C3 H5 1_555 1_555
C4 O1 1_555 1_555
C5 C7 1_555 1_555
C6 H6 1_555 1_555
C7 C6 1_555 1_555
H7 C7 1_555 1_555
C8 C4 1_555 1_555
H8 C8 1_555 1_555
C9 C2 1_555 1_555
H9 C9 1_555 1_555
C10 N2 1_555 1_555
H10 C10 1_555 1_555
C11 O2 1_555 1_555
C12 N3 1_555 1_555
H11 C12 1_555 1_555
O3 H12 1_555 1_555
H12B O3 1_555 1_555
C3 C9 1_555 1_555
C3 C10 1_555 1_555
C4 C11 1_555 1_555
C5 C11 1_555 1_555
C5 C12 1_555 1_555
C6 C8 1_555 1_555

#END
