
#######################################################################
#
#                 Cambridge Crystallographic Data Centre
#                                CCDC 
#
#######################################################################
#
# If this CIF has been generated from an entry in the Cambridge 
# Structural Database, then it will include bibliographic, chemical, 
# crystal, experimental, refinement or atomic coordinate data resulting 
# from the CCDC's data processing and validation procedures.
#
#######################################################################

data_OLUYOK
_chemical_formula_moiety         
'C60 H80 K2 O20 2+,2(Cl1 O4 1-),2(C6 H6),4(H2 O1)'
_chemical_name_systematic        
"(\m~2~-15,15',15'',15'''-Cyclobutane-r-1,c-2,t-4-tetrayl-tetrakis(2,3,5,6,8,9,11,12-octahydro-1,4,7,10,13-benzopentaoxoacyclopentadecine))-di-potassium diperchlorate benzene solvate tetrahydrate"
_symmetry_cell_setting           monoclinic
_symmetry_space_group_name_H-M   'C 2/c'
_symmetry_Int_Tables_number      15
_space_group_name_Hall           '-C 2yn'
loop_
_symmetry_equiv_pos_site_id
_symmetry_equiv_pos_as_xyz
1 x,y,z
2 -x,y,1/2-z
3 1/2+x,1/2+y,z
4 1/2-x,1/2+y,1/2-z
5 -x,-y,-z
6 x,-y,1/2+z
7 1/2-x,1/2-y,-z
8 1/2+x,1/2-y,1/2+z
_cell_length_a                   13.9879(9)
_cell_length_b                   26.9584(19)
_cell_length_c                   21.0031(15)
_cell_angle_alpha                90
_cell_angle_beta                 103.011(4)
_cell_angle_gamma                90
_cell_volume                     7716.75
_exptl_crystal_colour            colorless
_exptl_crystal_description       plate
_cell_formula_units_Z            4
loop_
_atom_site_label
_atom_site_type_symbol
_atom_site_fract_x
_atom_site_fract_y
_atom_site_fract_z
K1 K 0.65655(9) 0.61971(4) 0.59476(6)
O5 O 0.7073(3) 0.53664(15) 0.51143(18)
O6 O 0.7838(4) 0.5287(2) 0.6409(2)
O7 O 0.6222(4) 0.55971(19) 0.6930(2)
O8 O 0.4544(3) 0.59665(17) 0.5900(2)
O9 O 0.5325(3) 0.56751(15) 0.48615(18)
O10 O 0.5686(3) 0.71273(15) 0.54513(17)
O11 O 0.5653(3) 0.68938(15) 0.67206(18)
O12 O 0.7741(3) 0.66586(14) 0.70203(18)
O13 O 0.8552(3) 0.63490(14) 0.59249(18)
O14 O 0.7217(3) 0.69151(14) 0.50684(17)
C1 C 0.5547(4) 0.6261(2) 0.2669(2)
H1 H 0.5939 0.6184 0.2337
C2 C 0.5930(4) 0.5957(2) 0.3266(3)
C3 C 0.6882(4) 0.5775(2) 0.3408(3)
H2 H 0.7260 0.5793 0.3085
C4 C 0.7297(5) 0.5566(2) 0.4016(3)
H3 H 0.7948 0.5440 0.4103
C5 C 0.6754(4) 0.55439(19) 0.4488(3)
C6 C 0.5780(4) 0.57150(19) 0.4350(3)
C7 C 0.5372(4) 0.5908(2) 0.3744(3)
H4 H 0.4704 0.6008 0.3645
C8 C 0.8078(5) 0.5217(2) 0.5329(3)
H5 H 0.8518 0.5509 0.5389
H6 H 0.8268 0.4990 0.5008
C9 C 0.8128(5) 0.4956(3) 0.5972(3)
H7 H 0.7689 0.4663 0.5904
H8 H 0.8806 0.4840 0.6154
C10 C 0.7545(7) 0.5015(4) 0.6919(4)
H9 H 0.7087 0.4747 0.6725
H10 H 0.8129 0.4859 0.7204
C11 C 0.7089(8) 0.5327(4) 0.7291(5)
H11 H 0.7577 0.5573 0.7514
H12 H 0.6891 0.5125 0.7634
C12 C 0.5347(8) 0.5346(3) 0.6700(4)
H13 H 0.5210 0.5124 0.7045
H14 H 0.5392 0.5141 0.6317
C13 C 0.4530(6) 0.5727(4) 0.6509(3)
H15 H 0.3889 0.5561 0.6473
H16 H 0.4599 0.5981 0.6857
C14 C 0.3989(5) 0.5698(3) 0.5357(3)
H17 H 0.3283 0.5777 0.5298
H18 H 0.4076 0.5337 0.5438
C15 C 0.4330(4) 0.5836(2) 0.4757(3)
H19 H 0.3922 0.5671 0.4369
H20 H 0.4286 0.6200 0.4689
C16 C 0.5505(4) 0.6850(2) 0.2756(2)
H21 H 0.6030 0.7025 0.2590
C17 C 0.5491(4) 0.69977(19) 0.3455(2)
C18 C 0.4646(4) 0.7122(2) 0.3669(3)
H22 H 0.4044 0.7169 0.3359
C19 C 0.4679(4) 0.7177(2) 0.4335(3)
H23 H 0.4104 0.7266 0.4477
C20 C 0.5546(4) 0.71009(19) 0.4782(2)
C21 C 0.6406(4) 0.69865(19) 0.4574(3)
C22 C 0.6376(4) 0.6945(2) 0.3914(3)
H24 H 0.6962 0.6881 0.3771
C23 C 0.4874(4) 0.7280(2) 0.5728(3)
H25 H 0.4363 0.7020 0.5665
H26 H 0.4578 0.7590 0.5521
C24 C 0.5306(5) 0.7360(2) 0.6441(3)
H27 H 0.5855 0.7600 0.6499
H28 H 0.4802 0.7494 0.6658
C25 C 0.6297(5) 0.6945(3) 0.7347(3)
H29 H 0.6297 0.6631 0.7592
H30 H 0.6044 0.7210 0.7592
C26 C 0.7325(5) 0.7067(2) 0.7319(3)
H31 H 0.7334 0.7373 0.7059
H32 H 0.7722 0.7127 0.7765
C27 C 0.8716(4) 0.6763(2) 0.6977(3)
H33 H 0.9147 0.6779 0.7421
H34 H 0.8743 0.7087 0.6761
C28 C 0.9061(4) 0.6363(2) 0.6593(3)
H35 H 0.9769 0.6411 0.6615
H36 H 0.8981 0.6039 0.6797
C29 C 0.8864(4) 0.6731(2) 0.5536(3)
H37 H 0.9514 0.6646 0.5455
H38 H 0.8920 0.7051 0.5772
C30 C 0.8127(4) 0.6772(2) 0.4905(3)
H39 H 0.8334 0.7025 0.4621
H40 H 0.8052 0.6450 0.4672
K1A K 0.34345(9) 0.61971(4) -0.09476(6)
O5A O 0.2927(3) 0.53664(15) -0.01143(18)
O6A O 0.2162(4) 0.5287(2) -0.1409(2)
O7A O 0.3778(4) 0.55971(19) -0.1930(2)
O8A O 0.5456(3) 0.59665(17) -0.0900(2)
O9A O 0.4675(3) 0.56751(15) 0.01385(18)
O10A O 0.4314(3) 0.71273(15) -0.04513(17)
O11A O 0.4347(3) 0.68938(15) -0.17206(18)
O12A O 0.2259(3) 0.66586(14) -0.20203(18)
O13A O 0.1448(3) 0.63490(14) -0.09249(18)
O14A O 0.2783(3) 0.69151(14) -0.00684(17)
C1A C 0.4453(4) 0.6261(2) 0.2331(2)
H1A H 0.4061 0.6184 0.2663
C2A C 0.4070(4) 0.5957(2) 0.1734(3)
C3A C 0.3118(4) 0.5775(2) 0.1592(3)
H2A H 0.2740 0.5793 0.1915
C4A C 0.2703(5) 0.5566(2) 0.0984(3)
H3A H 0.2052 0.5440 0.0897
C5A C 0.3246(4) 0.55439(19) 0.0512(3)
C6A C 0.4220(4) 0.57150(19) 0.0650(3)
C7A C 0.4628(4) 0.5908(2) 0.1256(3)
H4A H 0.5296 0.6008 0.1355
C8A C 0.1922(5) 0.5217(2) -0.0329(3)
H5A H 0.1482 0.5509 -0.0389
H6A H 0.1732 0.4990 -0.0008
C9A C 0.1872(5) 0.4956(3) -0.0972(3)
H7A H 0.2311 0.4663 -0.0904
H8A H 0.1194 0.4840 -0.1154
C10A C 0.2455(7) 0.5015(4) -0.1919(4)
H9A H 0.2913 0.4747 -0.1725
H10A H 0.1871 0.4859 -0.2204
C11A C 0.2911(8) 0.5327(4) -0.2291(5)
H11A H 0.2423 0.5573 -0.2514
H12A H 0.3109 0.5125 -0.2634
C12A C 0.4653(8) 0.5346(3) -0.1700(4)
H13A H 0.4790 0.5124 -0.2045
H14A H 0.4608 0.5141 -0.1317
C13A C 0.5470(6) 0.5727(4) -0.1509(3)
H15A H 0.6111 0.5561 -0.1473
H16A H 0.5401 0.5981 -0.1857
C14A C 0.6011(5) 0.5698(3) -0.0357(3)
H17A H 0.6717 0.5777 -0.0298
H18A H 0.5924 0.5337 -0.0438
C15A C 0.5670(4) 0.5836(2) 0.0243(3)
H19A H 0.6078 0.5671 0.0631
H20A H 0.5714 0.6200 0.0311
C16A C 0.4495(4) 0.6850(2) 0.2244(2)
H21A H 0.3970 0.7025 0.2410
C17A C 0.4509(4) 0.69977(19) 0.1545(2)
C18A C 0.5354(4) 0.7122(2) 0.1331(3)
H22A H 0.5956 0.7169 0.1641
C19A C 0.5321(4) 0.7177(2) 0.0665(3)
H23A H 0.5896 0.7266 0.0523
C20A C 0.4454(4) 0.71009(19) 0.0218(2)
C21A C 0.3594(4) 0.69865(19) 0.0426(3)
C22A C 0.3624(4) 0.6945(2) 0.1086(3)
H24A H 0.3038 0.6881 0.1229
C23A C 0.5126(4) 0.7280(2) -0.0728(3)
H25A H 0.5637 0.7020 -0.0665
H26A H 0.5422 0.7590 -0.0521
C24A C 0.4694(5) 0.7360(2) -0.1441(3)
H27A H 0.4145 0.7600 -0.1499
H28A H 0.5198 0.7494 -0.1658
C25A C 0.3703(5) 0.6945(3) -0.2347(3)
H29A H 0.3703 0.6631 -0.2592
H30A H 0.3956 0.7210 -0.2592
C26A C 0.2675(5) 0.7067(2) -0.2319(3)
H31A H 0.2666 0.7373 -0.2059
H32A H 0.2278 0.7127 -0.2765
C27A C 0.1284(4) 0.6763(2) -0.1977(3)
H33A H 0.0853 0.6779 -0.2421
H34A H 0.1257 0.7087 -0.1761
C28A C 0.0939(4) 0.6363(2) -0.1593(3)
H35A H 0.0231 0.6411 -0.1615
H36A H 0.1019 0.6039 -0.1797
C29A C 0.1136(4) 0.6731(2) -0.0536(3)
H37A H 0.0486 0.6646 -0.0455
H38A H 0.1080 0.7051 -0.0772
C30A C 0.1873(4) 0.6772(2) 0.0095(3)
H39A H 0.1666 0.7025 0.0379
H40A H 0.1948 0.6450 0.0328
Cl1 Cl 0.20202(12) 0.66262(7) 0.32461(9)
O1 O 0.2210(4) 0.6750(2) 0.2627(3)
O2 O 0.1050(5) 0.6446(4) 0.3181(4)
O3 O 0.2719(5) 0.6279(2) 0.3563(3)
O4 O 0.2126(5) 0.7077(2) 0.3620(3)
C31 C 0.1791(7) 0.6241(3) 0.6220(4)
H41 H 0.2009 0.6246 0.6683
C32 C 0.2092(8) 0.6590(4) 0.5852(5)
H42 H 0.2513 0.6844 0.6067
C33 C 0.1825(8) 0.6597(4) 0.5185(5)
H43 H 0.2078 0.6837 0.4936
C34 C 0.1166(8) 0.6238(5) 0.4892(5)
H44 H 0.0944 0.6239 0.4430
C35 C 0.0819(8) 0.5876(4) 0.5252(6)
H45 H 0.0359 0.5634 0.5044
C36 C 0.1164(7) 0.5878(4) 0.5918(5)
H46 H 0.0964 0.5624 0.6174
O15 O -0.0791(8) 0.6336(5) 0.3456(6)
O16 O 1.0000 0.5146(8) 0.7500
O17 O -0.0626(8) 0.5316(6) 0.3455(8)
O18? O -0.0243(17) 0.5677(8) 0.2876(12)
loop_
_geom_bond_atom_site_label_1
_geom_bond_atom_site_label_2
_geom_bond_site_symmetry_1
_geom_bond_site_symmetry_2
K1 O5 1_555 1_555
Cl1 O1 1_555 1_555
O2 Cl1 1_555 1_555
O3 Cl1 1_555 1_555
O4 Cl1 1_555 1_555
O5 C5 1_555 1_555
O6 K1 1_555 1_555
O7 K1 1_555 1_555
O8 K1 1_555 1_555
O9 K1 1_555 1_555
O10 K1 1_555 1_555
O11 K1 1_555 1_555
O12 K1 1_555 1_555
O13 K1 1_555 1_555
O14 K1 1_555 1_555
C1 H1 1_555 1_555
C2 C1 1_555 1_555
C3 C2 1_555 1_555
H2 C3 1_555 1_555
C4 C3 1_555 1_555
H3 C4 1_555 1_555
C5 C4 1_555 1_555
C6 O9 1_555 1_555
C7 C2 1_555 1_555
H4 C7 1_555 1_555
C8 O5 1_555 1_555
H5 C8 1_555 1_555
H6 C8 1_555 1_555
C9 O6 1_555 1_555
H7 C9 1_555 1_555
H8 C9 1_555 1_555
C10 O6 1_555 1_555
H9 C10 1_555 1_555
H10 C10 1_555 1_555
C11 O7 1_555 1_555
H11 C11 1_555 1_555
H12 C11 1_555 1_555
C12 O7 1_555 1_555
H13 C12 1_555 1_555
H14 C12 1_555 1_555
C13 O8 1_555 1_555
H15 C13 1_555 1_555
H16 C13 1_555 1_555
C14 O8 1_555 1_555
H17 C14 1_555 1_555
H18 C14 1_555 1_555
C15 O9 1_555 1_555
H19 C15 1_555 1_555
H20 C15 1_555 1_555
C16 C1 1_555 1_555
H21 C16 1_555 1_555
C17 C16 1_555 1_555
C18 C17 1_555 1_555
H22 C18 1_555 1_555
C19 C18 1_555 1_555
H23 C19 1_555 1_555
C20 O10 1_555 1_555
C21 O14 1_555 1_555
C22 C17 1_555 1_555
H24 C22 1_555 1_555
C23 O10 1_555 1_555
H25 C23 1_555 1_555
H26 C23 1_555 1_555
C24 O11 1_555 1_555
H27 C24 1_555 1_555
H28 C24 1_555 1_555
C25 O11 1_555 1_555
H29 C25 1_555 1_555
H30 C25 1_555 1_555
C26 O12 1_555 1_555
H31 C26 1_555 1_555
H32 C26 1_555 1_555
C27 O12 1_555 1_555
H33 C27 1_555 1_555
H34 C27 1_555 1_555
C28 O13 1_555 1_555
H35 C28 1_555 1_555
H36 C28 1_555 1_555
C29 O13 1_555 1_555
H37 C29 1_555 1_555
H38 C29 1_555 1_555
C30 O14 1_555 1_555
H39 C30 1_555 1_555
H40 C30 1_555 1_555
C31 H41 1_555 1_555
C32 C31 1_555 1_555
H42 C32 1_555 1_555
C33 C32 1_555 1_555
H43 C33 1_555 1_555
C34 C33 1_555 1_555
H44 C34 1_555 1_555
C35 C34 1_555 1_555
H45 C35 1_555 1_555
C36 C31 1_555 1_555
H46 C36 1_555 1_555
K1A O5A 1_555 1_555
O5A C5A 1_555 1_555
O6A K1A 1_555 1_555
O7A K1A 1_555 1_555
O8A K1A 1_555 1_555
O9A K1A 1_555 1_555
O10A K1A 1_555 1_555
O11A K1A 1_555 1_555
O12A K1A 1_555 1_555
O13A K1A 1_555 1_555
O14A K1A 1_555 1_555
C1A C1 1_555 1_555
H1A C1A 1_555 1_555
C2A C1A 1_555 1_555
C3A C2A 1_555 1_555
H2A C3A 1_555 1_555
C4A C3A 1_555 1_555
H3A C4A 1_555 1_555
C5A C4A 1_555 1_555
C6A O9A 1_555 1_555
C7A C2A 1_555 1_555
H4A C7A 1_555 1_555
C8A O5A 1_555 1_555
H5A C8A 1_555 1_555
H6A C8A 1_555 1_555
C9A O6A 1_555 1_555
H7A C9A 1_555 1_555
H8A C9A 1_555 1_555
C10A O6A 1_555 1_555
H9A C10A 1_555 1_555
H10A C10A 1_555 1_555
C11A O7A 1_555 1_555
H11A C11A 1_555 1_555
H12A C11A 1_555 1_555
C12A O7A 1_555 1_555
H13A C12A 1_555 1_555
H14A C12A 1_555 1_555
C13A O8A 1_555 1_555
H15A C13A 1_555 1_555
H16A C13A 1_555 1_555
C14A O8A 1_555 1_555
H17A C14A 1_555 1_555
H18A C14A 1_555 1_555
C15A O9A 1_555 1_555
H19A C15A 1_555 1_555
H20A C15A 1_555 1_555
C16A C16 1_555 1_555
H21A C16A 1_555 1_555
C17A C16A 1_555 1_555
C18A C17A 1_555 1_555
H22A C18A 1_555 1_555
C19A C18A 1_555 1_555
H23A C19A 1_555 1_555
C20A O10A 1_555 1_555
C21A O14A 1_555 1_555
C22A C17A 1_555 1_555
H24A C22A 1_555 1_555
C23A O10A 1_555 1_555
H25A C23A 1_555 1_555
H26A C23A 1_555 1_555
C24A O11A 1_555 1_555
H27A C24A 1_555 1_555
H28A C24A 1_555 1_555
C25A O11A 1_555 1_555
H29A C25A 1_555 1_555
H30A C25A 1_555 1_555
C26A O12A 1_555 1_555
H31A C26A 1_555 1_555
H32A C26A 1_555 1_555
C27A O12A 1_555 1_555
H33A C27A 1_555 1_555
H34A C27A 1_555 1_555
C28A O13A 1_555 1_555
H35A C28A 1_555 1_555
H36A C28A 1_555 1_555
C29A O13A 1_555 1_555
H37A C29A 1_555 1_555
H38A C29A 1_555 1_555
C30A O14A 1_555 1_555
H39A C30A 1_555 1_555
H40A C30A 1_555 1_555
C5 C6 1_555 1_555
C6 C7 1_555 1_555
C8 C9 1_555 1_555
C10 C11 1_555 1_555
C12 C13 1_555 1_555
C14 C15 1_555 1_555
C19 C20 1_555 1_555
C20 C21 1_555 1_555
C21 C22 1_555 1_555
C23 C24 1_555 1_555
C25 C26 1_555 1_555
C27 C28 1_555 1_555
C29 C30 1_555 1_555
C35 C36 1_555 1_555
C1A C16A 1_555 1_555
C5A C6A 1_555 1_555
C6A C7A 1_555 1_555
C8A C9A 1_555 1_555
C10A C11A 1_555 1_555
C12A C13A 1_555 1_555
C14A C15A 1_555 1_555
C19A C20A 1_555 1_555
C20A C21A 1_555 1_555
C21A C22A 1_555 1_555
C23A C24A 1_555 1_555
C25A C26A 1_555 1_555
C27A C28A 1_555 1_555
C29A C30A 1_555 1_555

#END
