
#######################################################################
#
#                 Cambridge Crystallographic Data Centre
#                                CCDC 
#
#######################################################################
#
# If this CIF has been generated from an entry in the Cambridge 
# Structural Database, then it will include bibliographic, chemical, 
# crystal, experimental, refinement or atomic coordinate data resulting 
# from the CCDC's data processing and validation procedures.
#
#######################################################################

data_OLUZIF
_chemical_formula_moiety         'C25 H16 N2 O1 S1'
_chemical_name_systematic        
2-(1,3-Benzothiazol-2-yl)-5-(9H-carbazol-9-yl)phenol
_symmetry_cell_setting           monoclinic
_symmetry_space_group_name_H-M   'P 21/n'
_symmetry_Int_Tables_number      14
_space_group_name_Hall           '-P 2yn'
loop_
_symmetry_equiv_pos_site_id
_symmetry_equiv_pos_as_xyz
1 x,y,z
2 1/2-x,1/2+y,1/2-z
3 -x,-y,-z
4 1/2+x,1/2-y,1/2+z
_cell_length_a                   9.949(2)
_cell_length_b                   15.759(3)
_cell_length_c                   13.031(3)
_cell_angle_alpha                90
_cell_angle_beta                 109.10(3)
_cell_angle_gamma                90
_cell_volume                     1930.61
_cell_formula_units_Z            4
loop_
_atom_site_label
_atom_site_type_symbol
_atom_site_fract_x
_atom_site_fract_y
_atom_site_fract_z
C1 C 0.45031(17) 0.02839(11) 1.22899(13)
C2 C 0.4915(2) -0.03933(12) 1.30052(16)
H1 H 0.5697 -0.0726 1.3030
C3 C 0.4130(2) -0.05558(14) 1.36749(18)
H2 H 0.4389 -0.1004 1.4165
C4 C 0.2962(2) -0.00641(16) 1.36330(18)
H3 H 0.2437 -0.0198 1.4085
C5 C 0.2556(2) 0.06177(13) 1.29402(17)
H4 H 0.1779 0.0950 1.2928
C6 C 0.33463(17) 0.07949(10) 1.22571(13)
C7 C 0.39636(15) 0.14218(10) 1.09498(13)
C8 C 0.39153(15) 0.20204(10) 1.00881(12)
C9 C 0.28932(16) 0.26740(10) 0.98185(13)
C10 C 0.28448(16) 0.32393(10) 0.89932(13)
H5 H 0.2168 0.3670 0.8818
C11 C 0.37984(16) 0.31651(10) 0.84301(13)
C12 C 0.48055(17) 0.25176(11) 0.86757(14)
H6 H 0.5440 0.2466 0.8291
C13 C 0.48520(16) 0.19561(10) 0.94921(13)
H7 H 0.5523 0.1522 0.9653
C14 C 0.37857(15) 0.46443(10) 0.77210(14)
C15 C 0.38852(18) 0.51245(11) 0.86303(15)
H8 H 0.3894 0.4870 0.9277
C16 C 0.3971(2) 0.59970(12) 0.85458(18)
H9 H 0.4046 0.6336 0.9147
C17 C 0.3946(2) 0.63744(13) 0.75749(19)
H10 H 0.4007 0.6962 0.7537
C18 C 0.38324(19) 0.58957(12) 0.66746(17)
H11 H 0.3811 0.6156 0.6029
C19 C 0.37490(16) 0.50138(11) 0.67338(14)
C20 C 0.36679(16) 0.43315(11) 0.59804(14)
C21 C 0.35437(19) 0.42952(15) 0.48790(16)
H12 H 0.3516 0.4791 0.4486
C22 C 0.3464(2) 0.35192(17) 0.43879(16)
H13 H 0.3379 0.3493 0.3656
C23 C 0.35092(19) 0.27729(15) 0.49617(16)
H14 H 0.3471 0.2256 0.4610
C24 C 0.36101(18) 0.27804(12) 0.60457(15)
H15 H 0.3624 0.2279 0.6426
C25 C 0.36891(16) 0.35667(11) 0.65427(13)
N1 N 0.30661(14) 0.14380(9) 1.14887(11)
N2 N 0.37588(14) 0.37596(9) 0.76040(11)
O1 O 0.19176(14) 0.27698(8) 1.03195(11)
H16 H 0.2027 0.2399 1.0781
S1 S 0.52411(5) 0.06191(3) 1.13278(4)
loop_
_geom_bond_atom_site_label_1
_geom_bond_atom_site_label_2
_geom_bond_site_symmetry_1
_geom_bond_site_symmetry_2
C1 C2 1_555 1_555
C2 H1 1_555 1_555
C3 C2 1_555 1_555
H2 C3 1_555 1_555
C4 C3 1_555 1_555
H3 C4 1_555 1_555
C5 C4 1_555 1_555
H4 C5 1_555 1_555
C6 C1 1_555 1_555
C7 C8 1_555 1_555
C8 C9 1_555 1_555
C9 C10 1_555 1_555
C10 H5 1_555 1_555
C11 C10 1_555 1_555
C12 C11 1_555 1_555
H6 C12 1_555 1_555
C13 C8 1_555 1_555
H7 C13 1_555 1_555
C14 C15 1_555 1_555
C15 H8 1_555 1_555
C16 C15 1_555 1_555
H9 C16 1_555 1_555
C17 C16 1_555 1_555
H10 C17 1_555 1_555
C18 C17 1_555 1_555
H11 C18 1_555 1_555
C19 C14 1_555 1_555
C20 C19 1_555 1_555
C21 C20 1_555 1_555
H12 C21 1_555 1_555
C22 C21 1_555 1_555
H13 C22 1_555 1_555
C23 C22 1_555 1_555
H14 C23 1_555 1_555
C24 C23 1_555 1_555
H15 C24 1_555 1_555
C25 C20 1_555 1_555
N1 C6 1_555 1_555
N2 C11 1_555 1_555
O1 C9 1_555 1_555
H16 O1 1_555 1_555
S1 C1 1_555 1_555
C5 C6 1_555 1_555
C7 N1 1_555 1_555
C7 S1 1_555 1_555
C12 C13 1_555 1_555
C14 N2 1_555 1_555
C18 C19 1_555 1_555
C24 C25 1_555 1_555
C25 N2 1_555 1_555

#END
