
#######################################################################
#
#                 Cambridge Crystallographic Data Centre
#                                CCDC 
#
#######################################################################
#
# If this CIF has been generated from an entry in the Cambridge 
# Structural Database, then it will include bibliographic, chemical, 
# crystal, experimental, refinement or atomic coordinate data resulting 
# from the CCDC's data processing and validation procedures.
#
#######################################################################

data_OLUZAX
_chemical_formula_moiety         'C15 H14 N2 O1 S1'
_chemical_name_systematic        
2-(1,3-Benzothiazol-2-yl)-4-(dimethylamino)phenol
_symmetry_cell_setting           monoclinic
_symmetry_space_group_name_H-M   'P 21/n'
_symmetry_Int_Tables_number      14
_space_group_name_Hall           '-P 2yn'
loop_
_symmetry_equiv_pos_site_id
_symmetry_equiv_pos_as_xyz
1 x,y,z
2 1/2-x,1/2+y,1/2-z
3 -x,-y,-z
4 1/2+x,1/2-y,1/2+z
_cell_length_a                   6.9711(14)
_cell_length_b                   11.626(2)
_cell_length_c                   16.440(3)
_cell_angle_alpha                90
_cell_angle_beta                 90.97(3)
_cell_angle_gamma                90
_cell_volume                     1332.21
_exptl_crystal_colour            yellow
_exptl_crystal_description       block
_cell_formula_units_Z            4
loop_
_atom_site_label
_atom_site_type_symbol
_atom_site_fract_x
_atom_site_fract_y
_atom_site_fract_z
C1 C 0.2221(4) -0.0602(2) 0.63249(15)
C2 C 0.0736(5) -0.1366(2) 0.64982(17)
H1 H -0.0448 -0.1324 0.6230
C3 C 0.1115(5) -0.2194(3) 0.70930(18)
H2 H 0.0158 -0.2715 0.7227
C4 C 0.2850(6) -0.2259(3) 0.74826(17)
H3 H 0.3055 -0.2833 0.7869
C5 C 0.4322(5) -0.1494(2) 0.73206(16)
H4 H 0.5499 -0.1535 0.7594
C6 C 0.3958(4) -0.0665(2) 0.67333(15)
C7 C 0.4592(4) 0.0837(2) 0.59317(14)
C8 C 0.5626(4) 0.1797(2) 0.55886(14)
C9 C 0.7460(4) 0.2067(2) 0.58853(17)
C10 C 0.8448(5) 0.2977(3) 0.55438(19)
H5 H 0.9681 0.3146 0.5732
C11 C 0.7649(5) 0.3630(3) 0.49368(19)
H6 H 0.8345 0.4237 0.4721
C12 C 0.5774(5) 0.3400(2) 0.46300(16)
C13 C 0.4821(4) 0.2470(2) 0.49647(14)
H7 H 0.3600 0.2288 0.4767
C14 C 0.6027(6) 0.4973(3) 0.3644(2)
H8 H 0.6390 0.5548 0.4036
H9 H 0.5264 0.5319 0.3219
H10 H 0.7158 0.4640 0.3417
C15 C 0.3072(6) 0.3833(3) 0.3731(2)
H11 H 0.3091 0.3104 0.3456
H12 H 0.2673 0.4422 0.3355
H13 H 0.2191 0.3799 0.4172
N1 N 0.5298(3) 0.01741(19) 0.65000(13)
N2 N 0.4927(5) 0.4087(2) 0.40368(17)
O1 O 0.8363(3) 0.1460(2) 0.65008(14)
H14 H 0.7714 0.0897 0.6617
S1 S 0.22380(10) 0.05124(5) 0.56217(4)
loop_
_geom_bond_atom_site_label_1
_geom_bond_atom_site_label_2
_geom_bond_site_symmetry_1
_geom_bond_site_symmetry_2
C1 C2 1_555 1_555
C2 H1 1_555 1_555
C3 C2 1_555 1_555
H2 C3 1_555 1_555
C4 C3 1_555 1_555
H3 C4 1_555 1_555
C5 C4 1_555 1_555
H4 C5 1_555 1_555
C6 C1 1_555 1_555
C7 C8 1_555 1_555
C8 C9 1_555 1_555
C9 C10 1_555 1_555
C10 H5 1_555 1_555
C11 C10 1_555 1_555
H6 C11 1_555 1_555
C12 C11 1_555 1_555
C13 C8 1_555 1_555
H7 C13 1_555 1_555
C14 H8 1_555 1_555
H9 C14 1_555 1_555
H10 C14 1_555 1_555
C15 H11 1_555 1_555
H12 C15 1_555 1_555
H13 C15 1_555 1_555
N1 C6 1_555 1_555
N2 C12 1_555 1_555
O1 C9 1_555 1_555
H14 O1 1_555 1_555
S1 C1 1_555 1_555
C5 C6 1_555 1_555
C7 N1 1_555 1_555
C7 S1 1_555 1_555
C12 C13 1_555 1_555
C14 N2 1_555 1_555
C15 N2 1_555 1_555

#END
