
#######################################################################
#
#                 Cambridge Crystallographic Data Centre
#                                CCDC 
#
#######################################################################
#
# If this CIF has been generated from an entry in the Cambridge 
# Structural Database, then it will include bibliographic, chemical, 
# crystal, experimental, refinement or atomic coordinate data resulting 
# from the CCDC's data processing and validation procedures.
#
#######################################################################

data_OMAHIV
_chemical_formula_moiety         'C27 H20 O4'
_chemical_name_systematic        
(R,E)-2-(1-oxo-1-phenylpropan-2-ylidene)-4-phenyl-1,10b-dihydro-2H,5H-pyrano[3,4-c]chromen-5-one
_symmetry_cell_setting           orthorhombic
_symmetry_space_group_name_H-M   'P 21 21 21'
_symmetry_Int_Tables_number      19
_space_group_name_Hall           'P 2ac 2ab'
loop_
_symmetry_equiv_pos_site_id
_symmetry_equiv_pos_as_xyz
1 x,y,z
2 1/2-x,-y,1/2+z
3 -x,1/2+y,1/2-z
4 1/2+x,1/2-y,-z
_cell_length_a                   10.0372(4)
_cell_length_b                   13.0997(5)
_cell_length_c                   15.0079(5)
_cell_angle_alpha                90
_cell_angle_beta                 90
_cell_angle_gamma                90
_cell_volume                     1973.3
_exptl_crystal_colour            white
_exptl_crystal_description       Rod
_cell_formula_units_Z            4
_exptl_crystal_recrystallization_method 'ethyl acetate/hexane'
loop_
_atom_site_label
_atom_site_type_symbol
_atom_site_fract_x
_atom_site_fract_y
_atom_site_fract_z
O1 O 0.73809(11) 0.75155(9) 0.43915(8)
O2 O 0.35825(11) 0.53345(9) 0.39984(8)
O3 O 0.75473(12) 0.59502(9) 0.48715(8)
O4 O 0.04759(12) 0.75935(10) 0.37203(9)
C1 C 0.67127(17) 0.83090(12) 0.39713(10)
C2 C 0.74913(16) 0.91460(13) 0.37523(11)
H1 H 0.8418 0.9149 0.3881
C3 C 0.68972(18) 0.99771(13) 0.33438(11)
H2 H 0.7418 1.0551 0.3177
C4 C 0.55314(18) 0.99670(13) 0.31789(12)
H3 H 0.5117 1.0542 0.2911
C5 C 0.47758(17) 0.91222(13) 0.34044(11)
H4 H 0.3846 0.9123 0.3286
C6 C 0.53589(17) 0.82700(12) 0.38025(11)
C7 C 0.45747(15) 0.73491(12) 0.40974(11)
H5 H 0.4167 0.7508 0.4689
C8 C 0.54531(16) 0.64211(13) 0.42098(10)
C9 C 0.68364(16) 0.65659(12) 0.45133(10)
C10 C 0.34441(16) 0.70818(12) 0.34487(11)
H6 H 0.2801 0.7654 0.3419
H7 H 0.3813 0.6971 0.2844
C11 C 0.27507(16) 0.61347(12) 0.37595(11)
C12 C 0.49256(16) 0.54809(13) 0.41248(11)
C13 C 0.55941(18) 0.44698(13) 0.41490(12)
C14 C 0.68050(19) 0.43077(15) 0.37168(13)
H8 H 0.7224 0.4849 0.3402
C15 C 0.7393(2) 0.33515(18) 0.37496(16)
H9 H 0.8222 0.3239 0.3460
C16 C 0.6776(3) 0.25567(16) 0.42030(18)
H10 H 0.7194 0.1907 0.4234
C17 C 0.5556(3) 0.27086(16) 0.46100(17)
H11 H 0.5125 0.2161 0.4909
C18 C 0.4965(2) 0.36594(15) 0.45809(14)
H12 H 0.4124 0.3763 0.4857
C19 C 0.14409(16) 0.59345(13) 0.37890(11)
C20 C 0.04852(17) 0.67163(13) 0.34402(11)
C21 C -0.04454(17) 0.64034(14) 0.27080(11)
C22 C -0.13997(17) 0.70986(14) 0.24172(12)
H13 H -0.1459 0.7749 0.2694
C23 C -0.22644(19) 0.68563(15) 0.17304(12)
H14 H -0.2921 0.7333 0.1545
C24 C -0.21670(18) 0.59083(15) 0.13115(11)
H15 H -0.2755 0.5740 0.0838
C25 C -0.12149(17) 0.52141(14) 0.15860(12)
H16 H -0.1149 0.4570 0.1299
C26 C -0.03536(17) 0.54533(13) 0.22798(11)
H17 H 0.0299 0.4973 0.2465
C27 C 0.09111(17) 0.49350(14) 0.41506(12)
H18 H 0.1264 0.4368 0.3796
H19 H -0.0064 0.4935 0.4118
H20 H 0.1190 0.4855 0.4772
loop_
_geom_bond_atom_site_label_1
_geom_bond_atom_site_label_2
_geom_bond_site_symmetry_1
_geom_bond_site_symmetry_2
O1 C1 1_555 1_555
O2 C11 1_555 1_555
O3 C9 1_555 1_555
O4 C20 1_555 1_555
C1 C2 1_555 1_555
C2 H1 1_555 1_555
C3 C2 1_555 1_555
H2 C3 1_555 1_555
C4 C3 1_555 1_555
H3 C4 1_555 1_555
C5 C4 1_555 1_555
H4 C5 1_555 1_555
C6 C1 1_555 1_555
C7 C6 1_555 1_555
H5 C7 1_555 1_555
C8 C7 1_555 1_555
C9 O1 1_555 1_555
C10 C7 1_555 1_555
H6 C10 1_555 1_555
H7 C10 1_555 1_555
C11 C10 1_555 1_555
C12 O2 1_555 1_555
C13 C12 1_555 1_555
C14 C13 1_555 1_555
H8 C14 1_555 1_555
C15 C14 1_555 1_555
H9 C15 1_555 1_555
C16 C15 1_555 1_555
H10 C16 1_555 1_555
C17 C16 1_555 1_555
H11 C17 1_555 1_555
C18 C13 1_555 1_555
H12 C18 1_555 1_555
C19 C11 1_555 1_555
C20 C19 1_555 1_555
C21 C20 1_555 1_555
C22 C21 1_555 1_555
H13 C22 1_555 1_555
C23 C22 1_555 1_555
H14 C23 1_555 1_555
C24 C23 1_555 1_555
H15 C24 1_555 1_555
C25 C24 1_555 1_555
H16 C25 1_555 1_555
C26 C21 1_555 1_555
H17 C26 1_555 1_555
C27 C19 1_555 1_555
H18 C27 1_555 1_555
H19 C27 1_555 1_555
H20 C27 1_555 1_555
C5 C6 1_555 1_555
C8 C9 1_555 1_555
C8 C12 1_555 1_555
C17 C18 1_555 1_555
C25 C26 1_555 1_555

#END
