
#######################################################################
#
#                 Cambridge Crystallographic Data Centre
#                                CCDC 
#
#######################################################################
#
# If this CIF has been generated from an entry in the Cambridge 
# Structural Database, then it will include bibliographic, chemical, 
# crystal, experimental, refinement or atomic coordinate data resulting 
# from the CCDC's data processing and validation procedures.
#
#######################################################################

data_OMEKIB
_chemical_formula_moiety         'C12 H14 N4 O2'
_chemical_name_systematic        
3-Amino-5-(4,5,6,7-tetrahydro-1H-indol-2-yl)-1,2-oxazole-4-carboxamide
_symmetry_cell_setting           monoclinic
_symmetry_space_group_name_H-M   'P 21/c'
_symmetry_Int_Tables_number      14
_space_group_name_Hall           '-P 2ybc'
loop_
_symmetry_equiv_pos_site_id
_symmetry_equiv_pos_as_xyz
1 x,y,z
2 -x,1/2+y,1/2-z
3 -x,-y,-z
4 x,1/2-y,1/2+z
_cell_length_a                   13.341(3)
_cell_length_b                   6.5946(13)
_cell_length_c                   12.590(3)
_cell_angle_alpha                90
_cell_angle_beta                 93.03(3)
_cell_angle_gamma                90
_cell_volume                     1106.1
_cell_formula_units_Z            4
loop_
_atom_site_label
_atom_site_type_symbol
_atom_site_fract_x
_atom_site_fract_y
_atom_site_fract_z
O1 O 0.15721(8) 0.18577(16) 0.66390(8)
O2 O 0.16058(10) -0.03145(18) 0.34087(8)
N1 N 0.25497(10) 0.31391(19) 0.40812(10)
H1 H 0.2323(14) 0.216(3) 0.3631(15)
N2 N 0.10333(10) 0.0178(2) 0.70180(10)
N3 N 0.04115(12) -0.2921(2) 0.63147(11)
H2 H -0.0076(17) -0.279(3) 0.6699(17)
H3 H 0.0771(16) -0.377(3) 0.6706(17)
N4 N 0.08868(11) -0.3045(2) 0.41270(11)
H4 H 0.0939(16) -0.370(3) 0.3545(17)
H5 H 0.0698(16) -0.360(3) 0.4720(17)
C1 C 0.31635(11) 0.4733(2) 0.39011(11)
C2 C 0.35357(12) 0.5324(2) 0.28454(12)
H6 H 0.2996 0.6017 0.2415
H7 H 0.3739 0.4100 0.2455
C3 C 0.44365(12) 0.6747(2) 0.30287(12)
H8 H 0.4606 0.7362 0.2344
H9 H 0.5025 0.5958 0.3306
C4 C 0.42068(13) 0.8429(2) 0.38210(13)
H10 H 0.4773 0.9399 0.3870
H11 H 0.3600 0.9176 0.3558
C5 C 0.40369(12) 0.7576(3) 0.49290(12)
H12 H 0.4690 0.7195 0.5283
H13 H 0.3729 0.8631 0.5366
C6 C 0.33649(11) 0.5751(2) 0.48563(11)
C7 C 0.28467(12) 0.4724(2) 0.56424(12)
H14 H 0.2840 0.5075 0.6374
C8 C 0.23462(11) 0.3098(2) 0.51462(11)
C9 C 0.17516(11) 0.1553(2) 0.55991(11)
C10 C 0.13301(11) -0.0270(2) 0.52671(11)
C11 C 0.09072(11) -0.1050(2) 0.62078(11)
C12 C 0.12953(11) -0.1209(2) 0.41992(11)
loop_
_geom_bond_atom_site_label_1
_geom_bond_atom_site_label_2
_geom_bond_site_symmetry_1
_geom_bond_site_symmetry_2
O1 N2 1_555 1_555
O2 C12 1_555 1_555
N1 H1 1_555 1_555
N2 C11 1_555 1_555
N3 H2 1_555 1_555
H3 N3 1_555 1_555
N4 H4 1_555 1_555
H5 N4 1_555 1_555
C1 N1 1_555 1_555
C2 C1 1_555 1_555
H6 C2 1_555 1_555
H7 C2 1_555 1_555
C3 C2 1_555 1_555
H8 C3 1_555 1_555
H9 C3 1_555 1_555
C4 C3 1_555 1_555
H10 C4 1_555 1_555
H11 C4 1_555 1_555
C5 C4 1_555 1_555
H12 C5 1_555 1_555
H13 C5 1_555 1_555
C6 C1 1_555 1_555
C7 C6 1_555 1_555
H14 C7 1_555 1_555
C8 N1 1_555 1_555
C9 O1 1_555 1_555
C10 C9 1_555 1_555
C11 N3 1_555 1_555
C12 N4 1_555 1_555
C5 C6 1_555 1_555
C7 C8 1_555 1_555
C8 C9 1_555 1_555
C10 C11 1_555 1_555
C10 C12 1_555 1_555

#END
