
#######################################################################
#
#                 Cambridge Crystallographic Data Centre
#                                CCDC 
#
#######################################################################
#
# If this CIF has been generated from an entry in the Cambridge 
# Structural Database, then it will include bibliographic, chemical, 
# crystal, experimental, refinement or atomic coordinate data resulting 
# from the CCDC's data processing and validation procedures.
#
#######################################################################

data_OMELUO
_chemical_name_common            'Mefloquinium 3-nitrobenzoate'
_chemical_formula_moiety         'C17 H17 F6 N2 O1 1+,C7 H4 N1 O4 1-'
_chemical_name_systematic        
'2-((2,8-bis(trifluoromethyl)quinolin-4-yl)(hydroxy)methyl)piperidinium 3-nitrobenzoate'
_chemical_properties_biological  
'Mefloquine hydrochloride is an antimalarial agent'
_symmetry_cell_setting           monoclinic
_symmetry_space_group_name_H-M   'P 21/n'
_symmetry_Int_Tables_number      14
_space_group_name_Hall           '-P 2yn'
loop_
_symmetry_equiv_pos_site_id
_symmetry_equiv_pos_as_xyz
1 x,y,z
2 1/2-x,1/2+y,1/2-z
3 -x,-y,-z
4 1/2+x,1/2-y,1/2+z
_cell_length_a                   6.8389(2)
_cell_length_b                   12.8432(4)
_cell_length_c                   26.7910(9)
_cell_angle_alpha                90
_cell_angle_beta                 90.868(2)
_cell_angle_gamma                90
_cell_volume                     2352.87
_exptl_crystal_colour            colorless
_exptl_crystal_description       block
_cell_formula_units_Z            4
loop_
_atom_site_label
_atom_site_type_symbol
_atom_site_fract_x
_atom_site_fract_y
_atom_site_fract_z
F1 F 0.25070(16) 0.95196(10) 0.07567(5)
F2 F 0.44635(18) 1.06471(13) 0.04655(6)
F3 F 0.34522(19) 1.07808(11) 0.12143(6)
F4 F 0.94787(17) 1.15990(9) 0.17329(4)
F5 F 1.07811(19) 1.11735(10) 0.24389(5)
F6 F 0.76990(18) 1.09613(9) 0.23166(4)
O1 O 0.68635(19) 0.65974(11) 0.03431(5)
H1 H 0.592(2) 0.6389(18) 0.0517(8)
N1 N 0.6928(2) 0.98979(13) 0.13896(6)
N2 N 1.0635(2) 0.63448(13) 0.00124(6)
H2 H 1.096(3) 0.5836(13) 0.0237(6)
H3 H 0.961(2) 0.6130(16) -0.0182(7)
C1 C 0.5791(3) 0.94654(15) 0.10486(7)
C2 C 0.6159(3) 0.85105(15) 0.08106(7)
H4 H 0.5276 0.8250 0.0564
C3 C 0.7807(3) 0.79628(15) 0.09393(7)
C4 C 0.9034(3) 0.83598(15) 0.13319(7)
C5 C 1.0736(3) 0.78343(16) 0.15153(7)
H5 H 1.1062 0.7169 0.1386
C6 C 1.1902(3) 0.82767(16) 0.18739(7)
H6 H 1.3017 0.7911 0.1996
C7 C 1.1467(3) 0.92743(16) 0.20653(8)
H7 H 1.2309 0.9581 0.2309
C8 C 0.9840(3) 0.98011(15) 0.19018(7)
C9 C 0.8553(3) 0.93497(15) 0.15375(7)
C10 C 0.8400(3) 0.70051(15) 0.06442(7)
H8 H 0.8884 0.6454 0.0879
C11 C 1.0047(3) 0.73080(14) 0.02856(7)
H9 H 1.1193 0.7559 0.0488
C12 C 0.9499(3) 0.81429(16) -0.00926(8)
H10 H 0.9150 0.8792 0.0085
H11 H 0.8341 0.7914 -0.0290
C13 C 1.1195(3) 0.83575(16) -0.04436(8)
H12 H 1.0777 0.8870 -0.0700
H13 H 1.2302 0.8662 -0.0251
C14 C 1.1867(3) 0.73622(16) -0.06992(7)
H14 H 1.0825 0.7116 -0.0931
H15 H 1.3044 0.7512 -0.0898
C15 C 1.2335(3) 0.65161(16) -0.03239(7)
H16 H 1.2640 0.5861 -0.0501
H17 H 1.3499 0.6718 -0.0122
C16 C 0.4060(3) 1.01062(16) 0.08778(8)
C17 C 0.9443(3) 1.08733(16) 0.20957(7)
O2 O 0.36681(19) 0.60472(11) 0.08314(5)
O3 O 0.14805(18) 0.47885(11) 0.07046(5)
O4 O 0.9582(2) 0.39468(14) 0.23291(7)
O5 O 0.9581(2) 0.52455(14) 0.18135(6)
N3 N 0.8814(2) 0.44755(15) 0.19990(7)
C18 C 0.4068(3) 0.44783(15) 0.12903(7)
C19 C 0.5885(3) 0.47920(16) 0.14755(7)
H18 H 0.6451 0.5428 0.1369
C20 C 0.6855(3) 0.41627(16) 0.18175(7)
C21 C 0.6064(3) 0.32458(16) 0.19947(7)
H19 H 0.6743 0.2839 0.2237
C22 C 0.4249(3) 0.29358(17) 0.18086(8)
H20 H 0.3674 0.2307 0.1922
C23 C 0.3277(3) 0.35424(16) 0.14572(7)
H21 H 0.2048 0.3317 0.1327
C24 C 0.3005(3) 0.51514(15) 0.09148(7)
loop_
_geom_bond_atom_site_label_1
_geom_bond_atom_site_label_2
_geom_bond_site_symmetry_1
_geom_bond_site_symmetry_2
F1 C16 1_555 1_555
F2 C16 1_555 1_555
F3 C16 1_555 1_555
F4 C17 1_555 1_555
F5 C17 1_555 1_555
F6 C17 1_555 1_555
O1 H1 1_555 1_555
N1 C1 1_555 1_555
N2 H2 1_555 1_555
H3 N2 1_555 1_555
C1 C2 1_555 1_555
C2 H4 1_555 1_555
C3 C2 1_555 1_555
C4 C3 1_555 1_555
C5 C4 1_555 1_555
H5 C5 1_555 1_555
C6 C5 1_555 1_555
H6 C6 1_555 1_555
C7 C6 1_555 1_555
H7 C7 1_555 1_555
C8 C7 1_555 1_555
C9 N1 1_555 1_555
C10 O1 1_555 1_555
H8 C10 1_555 1_555
C11 N2 1_555 1_555
H9 C11 1_555 1_555
C12 C11 1_555 1_555
H10 C12 1_555 1_555
H11 C12 1_555 1_555
C13 C12 1_555 1_555
H12 C13 1_555 1_555
H13 C13 1_555 1_555
C14 C13 1_555 1_555
H14 C14 1_555 1_555
H15 C14 1_555 1_555
C15 N2 1_555 1_555
H16 C15 1_555 1_555
H17 C15 1_555 1_555
C16 C1 1_555 1_555
C17 C8 1_555 1_555
O2 C24 1_555 1_555
O3 C24 1_555 1_555
O4 N3 1_555 1_555
O5 N3 1_555 1_555
N3 C20 1_555 1_555
C18 C19 1_555 1_555
C19 H18 1_555 1_555
C20 C19 1_555 1_555
C21 C20 1_555 1_555
H19 C21 1_555 1_555
C22 C21 1_555 1_555
H20 C22 1_555 1_555
C23 C18 1_555 1_555
H21 C23 1_555 1_555
C24 C18 1_555 1_555
C3 C10 1_555 1_555
C4 C9 1_555 1_555
C8 C9 1_555 1_555
C10 C11 1_555 1_555
C14 C15 1_555 1_555
C22 C23 1_555 1_555

#END
