
#######################################################################
#
#                 Cambridge Crystallographic Data Centre
#                                CCDC 
#
#######################################################################
#
# If this CIF has been generated from an entry in the Cambridge 
# Structural Database, then it will include bibliographic, chemical, 
# crystal, experimental, refinement or atomic coordinate data resulting 
# from the CCDC's data processing and validation procedures.
#
#######################################################################

data_OMERUU
_chemical_formula_moiety         'C32 H19 N5'
_chemical_name_systematic        
(4-(3,3-Dicyano-1-(4-(diphenylamino)phenyl)prop-2-en-1-ylidene)cyclohexa-2,5-dien-1-ylidene)malononitrile
_symmetry_cell_setting           triclinic
_symmetry_space_group_name_H-M   'P -1'
_symmetry_Int_Tables_number      2
_space_group_name_Hall           '-P 1'
loop_
_symmetry_equiv_pos_site_id
_symmetry_equiv_pos_as_xyz
1 x,y,z
2 -x,-y,-z
_cell_length_a                   10.190(2)
_cell_length_b                   10.426(2)
_cell_length_c                   27.174(5)
_cell_angle_alpha                99.24(3)
_cell_angle_beta                 91.06(3)
_cell_angle_gamma                116.77(3)
_cell_volume                     2530.58
_exptl_crystal_colour            black
_exptl_crystal_description       plate
_cell_formula_units_Z            4
loop_
_atom_site_label
_atom_site_type_symbol
_atom_site_fract_x
_atom_site_fract_y
_atom_site_fract_z
N1 N 1.1919(3) -0.0211(3) 0.19793(9)
N2 N 0.2375(4) -0.5834(3) -0.05419(12)
N3 N 0.2914(4) -0.2673(4) -0.15205(13)
N4 N 1.1569(3) 0.6265(3) 0.04888(11)
N5 N 1.3110(3) 0.3442(3) 0.09642(12)
C1 C 1.3242(4) -0.1667(4) 0.18792(13)
H1 H 1.4131 -0.0803 0.1872
C2 C 1.3263(4) -0.2999(4) 0.18512(13)
H2 H 1.4169 -0.3046 0.1823
C3 C 1.1983(4) -0.4249(4) 0.18635(12)
H3 H 1.2008 -0.5152 0.1856
C4 C 1.0675(4) -0.4191(4) 0.18861(13)
H4 H 0.9783 -0.5061 0.1882
C5 C 1.0639(4) -0.2870(4) 0.19149(13)
H5 H 0.9726 -0.2834 0.1933
C6 C 1.1927(3) -0.1607(3) 0.19170(11)
C7 C 1.2517(4) 0.0721(4) 0.24555(13)
C8 C 1.3523(5) 0.2144(5) 0.24982(18)
H6 H 1.3851 0.2554 0.2209
C9 C 1.4087(6) 0.3028(5) 0.29965(18)
H7 H 1.4810 0.4023 0.3039
C10 C 1.3565(6) 0.2410(5) 0.34029(18)
H8 H 1.3947 0.2989 0.3728
C11 C 1.2507(6) 0.0981(5) 0.33593(16)
H9 H 1.2126 0.0590 0.3648
C12 C 1.2012(6) 0.0129(5) 0.28874(14)
H10 H 1.1319 -0.0874 0.2852
C13 C 1.1104(3) 0.0070(3) 0.16319(11)
C14 C 1.0676(3) -0.0766(3) 0.11453(11)
H11 H 1.0918 -0.1546 0.1054
C15 C 0.9908(3) -0.0463(3) 0.08002(11)
H12 H 0.9614 -0.1050 0.0474
C16 C 0.9545(3) 0.0695(3) 0.09179(11)
C17 C 0.9945(3) 0.1497(3) 0.14095(11)
H13 H 0.9698 0.2273 0.1501
C18 C 1.0684(3) 0.1187(3) 0.17601(11)
H14 H 1.0917 0.1730 0.2093
C19 C 0.8801(3) 0.1072(3) 0.05387(10)
C20 C 0.7519(3) 0.0039(3) 0.02373(11)
C21 C 0.6688(3) -0.1410(3) 0.03423(11)
H15 H 0.7006 -0.1648 0.0630
C22 C 0.5475(3) -0.2439(3) 0.00470(12)
H16 H 0.4949 -0.3375 0.0134
C23 C 0.4965(3) -0.2142(3) -0.03977(11)
C24 C 0.5764(3) -0.0694(3) -0.04999(11)
H17 H 0.5444 -0.0455 -0.0787
C25 C 0.6960(3) 0.0334(3) -0.01972(11)
H18 H 0.7450 0.1286 -0.0274
C26 C 0.3761(3) -0.3212(3) -0.07150(12)
C27 C 0.2983(4) -0.4675(4) -0.06221(12)
C28 C 0.3281(4) -0.2932(4) -0.11642(13)
C29 C 0.9443(3) 0.2587(3) 0.04809(10)
H19 H 0.8797 0.2875 0.0330
C30 C 1.0854(3) 0.3644(3) 0.06164(11)
C31 C 1.1252(4) 0.5108(3) 0.05444(11)
C32 C 1.2071(4) 0.3467(3) 0.08153(12)
N6 N 0.6898(3) 0.9947(3) 0.30105(11)
N7 N 0.3254(4) 1.5934(4) 0.55660(13)
N8 N 0.0421(4) 1.2656(4) 0.64595(13)
N9 N 0.0272(4) 0.3634(3) 0.45158(13)
N10 N 0.4469(3) 0.6085(3) 0.40306(13)
C33 C 0.9436(2) 1.1906(2) 0.30657(6)
H20 H 0.9786 1.1221 0.3107
C34 C 1.0435(2) 1.3349(2) 0.30573(6)
H21 H 1.1466 1.3651 0.3093
C35 C 0.9923(2) 1.4351(2) 0.29968(6)
H22 H 1.0605 1.5337 0.2991
C36 C 0.8413(2) 1.3909(2) 0.29448(6)
H23 H 0.8063 1.4594 0.2903
C37 C 0.7415(2) 1.2466(2) 0.29532(6)
H24 H 0.6383 1.2165 0.2918
C38 C 0.7927(2) 1.1465(2) 0.30137(6)
C39 C 0.6854(2) 0.8801(2) 0.26345(6)
C40 C 0.6474(2) 0.7417(2) 0.27357(6)
H25 H 0.6242 0.7225 0.3062
C41 C 0.6430(6) 0.6313(5) 0.23637(17)
H26 H 0.6142 0.5364 0.2434
C42 C 0.6796(5) 0.6582(5) 0.18993(16)
H27 H 0.6765 0.5823 0.1646
C43 C 0.7207(4) 0.7934(5) 0.17972(14)
H28 H 0.7488 0.8121 0.1475
C44 C 0.7223(4) 0.9067(4) 0.21628(13)
H29 H 0.7485 1.0003 0.2085
C45 C 0.5864(4) 0.9691(4) 0.33642(12)
C46 C 0.6255(3) 1.0586(4) 0.38384(12)
H30 H 0.7216 1.1389 0.3918
C47 C 0.5263(3) 1.0316(3) 0.41892(11)
H31 H 0.5554 1.0931 0.4511
C48 C 0.3828(3) 0.9155(3) 0.40845(11)
C49 C 0.3437(3) 0.8300(3) 0.36008(11)
H32 H 0.2463 0.7522 0.3516
C50 C 0.4423(4) 0.8557(3) 0.32482(12)
H33 H 0.4126 0.7961 0.2923
C51 C 0.2767(3) 0.8843(3) 0.44592(10)
C52 C 0.2549(3) 0.9937(3) 0.47667(11)
C53 C 0.3193(3) 1.1424(3) 0.46847(11)
H34 H 0.3767 1.1664 0.4411
C54 C 0.3010(3) 1.2480(3) 0.49830(11)
H35 H 0.3448 1.3442 0.4913
C55 C 0.2167(3) 1.2184(3) 0.54038(11)
C56 C 0.1507(3) 1.0712(3) 0.54869(11)
H36 H 0.0932 1.0474 0.5761
C57 C 0.1685(3) 0.9654(3) 0.51844(11)
H37 H 0.1222 0.8687 0.5250
C58 C 0.1996(3) 1.3276(4) 0.57189(12)
C59 C 0.2684(4) 1.4756(4) 0.56401(13)
C60 C 0.1136(4) 1.2957(4) 0.61348(13)
C61 C 0.1893(3) 0.7334(3) 0.45107(11)
H38 H 0.1003 0.7128 0.4661
C62 C 0.2166(3) 0.6180(3) 0.43749(11)
C63 C 0.1104(4) 0.4763(4) 0.44525(12)
C64 C 0.3478(4) 0.6199(3) 0.41784(13)
C65? C 0.9556(2) 1.1532(2) 0.31265(6)
C66? C 1.0732(2) 1.2905(2) 0.31321(6)
C67? C 1.0465(2) 1.4053(2) 0.30518(6)
C68? C 0.9021(2) 1.3829(2) 0.29658(6)
C69? C 0.7845(2) 1.2456(2) 0.29602(6)
C70? C 0.8113(2) 1.1308(2) 0.30406(6)
H39? H 0.9739 1.0747 0.3181
H40? H 1.1718 1.3058 0.3191
H41? H 1.1268 1.4992 0.3056
H42? H 0.8839 1.4614 0.2911
H43? H 0.6859 1.2303 0.2901
loop_
_geom_bond_atom_site_label_1
_geom_bond_atom_site_label_2
_geom_bond_site_symmetry_1
_geom_bond_site_symmetry_2
N1 C6 1_555 1_555
N2 C27 1_555 1_555
N3 C28 1_555 1_555
N4 C31 1_555 1_555
N5 C32 1_555 1_555
N6 C38 1_555 1_555
N7 C59 1_555 1_555
N8 C60 1_555 1_555
N9 C63 1_555 1_555
N10 C64 1_555 1_555
C1 H1 1_555 1_555
C2 C1 1_555 1_555
H2 C2 1_555 1_555
C3 C2 1_555 1_555
H3 C3 1_555 1_555
C4 C3 1_555 1_555
H4 C4 1_555 1_555
C5 C4 1_555 1_555
H5 C5 1_555 1_555
C6 C1 1_555 1_555
C7 N1 1_555 1_555
C8 C7 1_555 1_555
H6 C8 1_555 1_555
C9 C8 1_555 1_555
H7 C9 1_555 1_555
C10 C9 1_555 1_555
H8 C10 1_555 1_555
C11 C10 1_555 1_555
H9 C11 1_555 1_555
C12 C7 1_555 1_555
H10 C12 1_555 1_555
C13 N1 1_555 1_555
C14 C13 1_555 1_555
H11 C14 1_555 1_555
C15 C14 1_555 1_555
H12 C15 1_555 1_555
C16 C15 1_555 1_555
C17 C16 1_555 1_555
H13 C17 1_555 1_555
C18 C13 1_555 1_555
H14 C18 1_555 1_555
C19 C16 1_555 1_555
C20 C19 1_555 1_555
C21 C20 1_555 1_555
H15 C21 1_555 1_555
C22 C21 1_555 1_555
H16 C22 1_555 1_555
C23 C22 1_555 1_555
C24 C23 1_555 1_555
H17 C24 1_555 1_555
C25 C20 1_555 1_555
H18 C25 1_555 1_555
C26 C23 1_555 1_555
C27 C26 1_555 1_555
C28 C26 1_555 1_555
C29 C19 1_555 1_555
H19 C29 1_555 1_555
C30 C29 1_555 1_555
C31 C30 1_555 1_555
C32 C30 1_555 1_555
C33 H20 1_555 1_555
C34 C33 1_555 1_555
H21 C34 1_555 1_555
C35 C34 1_555 1_555
H22 C35 1_555 1_555
C36 C35 1_555 1_555
H23 C36 1_555 1_555
C37 C36 1_555 1_555
H24 C37 1_555 1_555
C38 C33 1_555 1_555
C39 N6 1_555 1_555
C40 C39 1_555 1_555
H25 C40 1_555 1_555
C41 C40 1_555 1_555
H26 C41 1_555 1_555
C42 C41 1_555 1_555
H27 C42 1_555 1_555
C43 C42 1_555 1_555
H28 C43 1_555 1_555
C44 C39 1_555 1_555
H29 C44 1_555 1_555
C45 N6 1_555 1_555
C46 C45 1_555 1_555
H30 C46 1_555 1_555
C47 C46 1_555 1_555
H31 C47 1_555 1_555
C48 C47 1_555 1_555
C49 C48 1_555 1_555
H32 C49 1_555 1_555
C50 C45 1_555 1_555
H33 C50 1_555 1_555
C51 C48 1_555 1_555
C52 C51 1_555 1_555
C53 C52 1_555 1_555
H34 C53 1_555 1_555
C54 C53 1_555 1_555
H35 C54 1_555 1_555
C55 C54 1_555 1_555
C56 C55 1_555 1_555
H36 C56 1_555 1_555
C57 C52 1_555 1_555
H37 C57 1_555 1_555
C58 C55 1_555 1_555
C59 C58 1_555 1_555
C60 C58 1_555 1_555
C61 C51 1_555 1_555
H38 C61 1_555 1_555
C62 C61 1_555 1_555
C63 C62 1_555 1_555
C64 C62 1_555 1_555
C5 C6 1_555 1_555
C11 C12 1_555 1_555
C17 C18 1_555 1_555
C24 C25 1_555 1_555
C37 C38 1_555 1_555
C43 C44 1_555 1_555
C49 C50 1_555 1_555
C56 C57 1_555 1_555

#END
