
#######################################################################
#
#                 Cambridge Crystallographic Data Centre
#                                CCDC 
#
#######################################################################
#
# If this CIF has been generated from an entry in the Cambridge 
# Structural Database, then it will include bibliographic, chemical, 
# crystal, experimental, refinement or atomic coordinate data resulting 
# from the CCDC's data processing and validation procedures.
#
#######################################################################

data_OMETUX
_chemical_formula_moiety         'C19 H13 Br1 Cl1 N1 O4'
_chemical_name_systematic        
'Ethyl 3-(4-bromophenyl)-4-(4-chlorobenzoyl)-1,2-oxazole-5-carboxylate'
_symmetry_cell_setting           orthorhombic
_symmetry_space_group_name_H-M   'P n a 21'
_symmetry_Int_Tables_number      33
_space_group_name_Hall           'P 2c -2n'
loop_
_symmetry_equiv_pos_site_id
_symmetry_equiv_pos_as_xyz
1 x,y,z
2 -x,-y,1/2+z
3 1/2+x,1/2-y,z
4 1/2-x,1/2+y,1/2+z
_cell_length_a                   23.776(4)
_cell_length_b                   7.8746(12)
_cell_length_c                   19.818(3)
_cell_angle_alpha                90
_cell_angle_beta                 90
_cell_angle_gamma                90
_cell_volume                     3710.45
_exptl_crystal_colour            white
_exptl_crystal_description       block
_cell_formula_units_Z            8
loop_
_atom_site_label
_atom_site_type_symbol
_atom_site_fract_x
_atom_site_fract_y
_atom_site_fract_z
Br1 Br 0.44242(5) 0.86391(11) 0.25077(5)
Cl1 Cl 0.87835(9) 0.4414(3) 0.07262(14)
O1 O 0.56480(19) -0.0232(5) 0.0945(3)
O2 O 0.6476(2) -0.2553(5) 0.0829(4)
O3 O 0.7048(2) -0.0890(6) 0.1435(3)
O4 O 0.6494(2) 0.2699(7) 0.2557(4)
C1 C 0.7684(3) 0.3620(8) 0.0665(4)
H1 H 0.7710 0.3805 0.0192
C2 C 0.6575(3) -0.1284(7) 0.1126(4)
C3 C 0.8152(3) 0.3832(8) 0.1072(4)
C4 C 0.8112(3) 0.3598(8) 0.1772(5)
H2 H 0.8433 0.3753 0.2050
C5 C 0.7189(3) 0.3142(8) 0.0949(4)
H3 H 0.6871 0.2952 0.0669
C6 C 0.7138(3) 0.2925(7) 0.1652(4)
C7 C 0.6605(3) 0.2444(7) 0.1970(5)
N1 N 0.5291(2) 0.1141(7) 0.1095(3)
C8 C 0.6156(3) 0.0098(8) 0.1219(3)
C9 C 0.4791(4) 0.6669(9) 0.2158(4)
C10 C 0.5308(3) 0.3783(8) 0.1683(4)
C11 C 0.6146(3) 0.1623(7) 0.1538(3)
C12 C 0.7610(3) 0.3149(8) 0.2049(4)
H4 H 0.7584 0.2985 0.2523
C13 C 0.5343(4) 0.6688(9) 0.2057(4)
H5 H 0.5552 0.7690 0.2149
C14 C 0.8008(3) -0.1374(11) 0.1622(7)
H6 H 0.8107 -0.0340 0.1374
H7 H 0.8319 -0.2187 0.1595
H8 H 0.7935 -0.1091 0.2095
C15 C 0.5587(3) 0.2210(9) 0.1441(4)
C16 C 0.4469(3) 0.5215(11) 0.2040(5)
H9 H 0.4076 0.5211 0.2127
C17 C 0.4733(3) 0.3794(9) 0.1794(4)
H10 H 0.4518 0.2804 0.1699
C18 C 0.7509(3) -0.2116(10) 0.1328(5)
H11 H 0.7420 -0.3211 0.1550
H12 H 0.7565 -0.2323 0.0840
C19 C 0.5614(3) 0.5253(9) 0.1820(4)
H13 H 0.6009 0.5270 0.1749
Br2 Br 0.69564(4) -0.35181(10) 0.31531(5)
Cl2 Cl 1.12638(9) 0.0554(3) 0.49420(14)
O5 O 0.95487(19) 0.5976(6) 0.4301(3)
O6 O 0.81467(19) 0.5357(5) 0.4754(2)
O7 O 0.9025(2) 0.2733(6) 0.3105(4)
O8 O 0.8968(2) 0.7719(6) 0.4866(3)
C20 C 0.9091(3) 0.2798(8) 0.3721(5)
C21 C 0.8643(3) 0.3542(7) 0.4148(3)
C22 C 0.8650(3) 0.5038(8) 0.4474(3)
N2 N 0.7784(2) 0.4006(7) 0.4606(3)
C23 C 0.9670(3) 0.1975(8) 0.4727(4)
H14 H 0.9353 0.2168 0.5009
C24 C 1.0627(3) 0.1206(8) 0.4595(5)
C25 C 0.9069(3) 0.6411(8) 0.4579(4)
C26 C 1.0592(3) 0.1414(9) 0.3904(5)
H15 H 1.0911 0.1217 0.3627
C27 C 0.9626(3) 0.2206(7) 0.4030(4)
C28 C 0.7824(3) 0.1372(8) 0.3982(4)
C29 C 1.0090(3) 0.1906(9) 0.3622(4)
H16 H 1.0061 0.2042 0.3147
C30 C 0.7297(4) -0.1520(8) 0.3496(4)
C31 C 1.0180(3) 0.1461(8) 0.5008(4)
H17 H 1.0215 0.1291 0.5481
C32 C 0.8121(3) -0.0092(9) 0.3855(4)
H18 H 0.8515 -0.0101 0.3933
C33 C 0.8083(3) 0.2936(9) 0.4226(4)
C34 C 1.0006(3) 0.7210(10) 0.4343(6)
H19 H 1.0070 0.7542 0.4818
H20 H 0.9909 0.8241 0.4082
C35 C 0.7869(4) -0.1531(8) 0.3621(5)
H21 H 0.8084 -0.2530 0.3544
C36 C 0.6995(3) -0.0092(9) 0.3616(5)
H22 H 0.6601 -0.0090 0.3537
C37 C 0.7251(3) 0.1339(9) 0.3847(4)
H23 H 0.7033 0.2336 0.3918
C38 C 1.0521(3) 0.6409(11) 0.4061(6)
H24 H 1.0593 0.5334 0.4295
H25 H 1.0842 0.7173 0.4124
H26 H 1.0467 0.6190 0.3578
loop_
_geom_bond_atom_site_label_1
_geom_bond_atom_site_label_2
_geom_bond_site_symmetry_1
_geom_bond_site_symmetry_2
Br1 C9 1_555 1_555
Cl1 C3 1_555 1_555
O1 N1 1_555 1_555
O2 C2 1_555 1_555
O3 C2 1_555 1_555
O4 C7 1_555 1_555
C1 H1 1_555 1_555
C2 C8 1_555 1_555
C3 C1 1_555 1_555
C4 C3 1_555 1_555
H2 C4 1_555 1_555
C5 C1 1_555 1_555
H3 C5 1_555 1_555
C6 C5 1_555 1_555
C7 C6 1_555 1_555
N1 C15 1_555 1_555
C8 O1 1_555 1_555
C9 C13 1_555 1_555
C10 C15 1_555 1_555
C11 C7 1_555 1_555
C12 C4 1_555 1_555
H4 C12 1_555 1_555
C13 H5 1_555 1_555
C14 H6 1_555 1_555
H7 C14 1_555 1_555
H8 C14 1_555 1_555
C15 C11 1_555 1_555
C16 C9 1_555 1_555
H9 C16 1_555 1_555
C17 C10 1_555 1_555
H10 C17 1_555 1_555
C18 O3 1_555 1_555
H11 C18 1_555 1_555
H12 C18 1_555 1_555
C19 C10 1_555 1_555
H13 C19 1_555 1_555
Br2 C30 1_555 1_555
Cl2 C24 1_555 1_555
O5 C25 1_555 1_555
O6 C22 1_555 1_555
O7 C20 1_555 1_555
O8 C25 1_555 1_555
C20 C21 1_555 1_555
C21 C22 1_555 1_555
C22 C25 1_555 1_555
N2 O6 1_555 1_555
C23 H14 1_555 1_555
C24 C26 1_555 1_555
C26 H15 1_555 1_555
C27 C20 1_555 1_555
C28 C32 1_555 1_555
C29 C26 1_555 1_555
H16 C29 1_555 1_555
C30 C35 1_555 1_555
C31 C23 1_555 1_555
H17 C31 1_555 1_555
C32 H18 1_555 1_555
C33 C21 1_555 1_555
C34 O5 1_555 1_555
H19 C34 1_555 1_555
H20 C34 1_555 1_555
C35 C32 1_555 1_555
H21 C35 1_555 1_555
C36 C30 1_555 1_555
H22 C36 1_555 1_555
C37 C28 1_555 1_555
H23 C37 1_555 1_555
C38 C34 1_555 1_555
H24 C38 1_555 1_555
H25 C38 1_555 1_555
H26 C38 1_555 1_555
C6 C12 1_555 1_555
C8 C11 1_555 1_555
C13 C19 1_555 1_555
C14 C18 1_555 1_555
C16 C17 1_555 1_555
N2 C33 1_555 1_555
C23 C27 1_555 1_555
C24 C31 1_555 1_555
C27 C29 1_555 1_555
C28 C33 1_555 1_555
C36 C37 1_555 1_555

#END
