
#######################################################################
#
#                 Cambridge Crystallographic Data Centre
#                                CCDC 
#
#######################################################################
#
# If this CIF has been generated from an entry in the Cambridge 
# Structural Database, then it will include bibliographic, chemical, 
# crystal, experimental, refinement or atomic coordinate data resulting 
# from the CCDC's data processing and validation procedures.
#
#######################################################################

data_OMEVEH
_chemical_formula_moiety         'C8 H6 N2 O3'
_chemical_name_systematic        
'N-Methyl-N-(5-oxo-2,1-benzisoxazole-4(5H)-ylidene)amine N-oxide'
_symmetry_cell_setting           monoclinic
_symmetry_space_group_name_H-M   'P 21'
_symmetry_Int_Tables_number      4
_space_group_name_Hall           'P 2yb'
loop_
_symmetry_equiv_pos_site_id
_symmetry_equiv_pos_as_xyz
1 x,y,z
2 -x,1/2+y,-z
_cell_length_a                   4.009(3)
_cell_length_b                   6.794(6)
_cell_length_c                   14.123(12)
_cell_angle_alpha                90
_cell_angle_beta                 95.894(10)
_cell_angle_gamma                90
_cell_volume                     382.637
_exptl_crystal_colour            green-yellow
_exptl_crystal_description       block
_chemical_melting_point          '140.0-141.0 deg.C'
_cell_formula_units_Z            2
loop_
_atom_site_label
_atom_site_type_symbol
_atom_site_fract_x
_atom_site_fract_y
_atom_site_fract_z
C1 C 0.1488(4) 0.1092(3) 0.09562(12)
H1 H 0.0442 0.1118 0.0322
O1 O 0.1997(3) 0.40511(18) 0.30579(9)
C2 C 0.5142(4) -0.0622(2) 0.22479(11)
O2 O 0.8391(3) -0.05192(19) 0.39945(8)
C3 C 0.1120(4) 0.2575(3) 0.15483(12)
H2 H -0.0191 0.3667 0.1311
N1 N 0.6431(3) 0.0917(2) 0.37639(9)
C4 C 0.4784(4) 0.0988(2) 0.28925(10)
C5 C 0.3530(4) -0.0567(2) 0.13044(11)
C6 C 0.2604(4) 0.2654(2) 0.25540(11)
N2 N 0.4079(4) -0.2134(2) 0.08137(10)
O3 O 0.6178(3) -0.33172(18) 0.14432(9)
C7 C 0.6213(5) 0.2428(3) 0.45043(13)
H3 H 0.7517 0.2005 0.5094
H4 H 0.3864 0.2610 0.4620
H5 H 0.7115 0.3674 0.4291
C8 C 0.6775(4) -0.2382(2) 0.22899(12)
H6 H 0.8124 -0.2876 0.2830
loop_
_geom_bond_atom_site_label_1
_geom_bond_atom_site_label_2
_geom_bond_site_symmetry_1
_geom_bond_site_symmetry_2
C1 H1 1_555 1_555
O1 C6 1_555 1_555
C2 C4 1_555 1_555
O2 N1 1_555 1_555
C3 C1 1_555 1_555
H2 C3 1_555 1_555
N1 C4 1_555 1_555
C4 C6 1_555 1_555
C5 C1 1_555 1_555
C6 C3 1_555 1_555
N2 C5 1_555 1_555
O3 N2 1_555 1_555
C7 N1 1_555 1_555
H3 C7 1_555 1_555
H4 C7 1_555 1_555
H5 C7 1_555 1_555
C8 C2 1_555 1_555
H6 C8 1_555 1_555
C2 C5 1_555 1_555
O3 C8 1_555 1_555

#END
