
#######################################################################
#
#                 Cambridge Crystallographic Data Centre
#                                CCDC 
#
#######################################################################
#
# If this CIF has been generated from an entry in the Cambridge 
# Structural Database, then it will include bibliographic, chemical, 
# crystal, experimental, refinement or atomic coordinate data resulting 
# from the CCDC's data processing and validation procedures.
#
#######################################################################

data_OMEVAF
_chemical_formula_moiety         'C19 H14 Cl1 N1 O4'
_chemical_name_systematic        
'Ethyl 4-benzoyl-3-(3-chlorophenyl)-1,2-oxazole-5-carboxylate'
_symmetry_cell_setting           monoclinic
_symmetry_space_group_name_H-M   'P 2/n'
_symmetry_Int_Tables_number      13
_space_group_name_Hall           '-P 2yac'
loop_
_symmetry_equiv_pos_site_id
_symmetry_equiv_pos_as_xyz
1 x,y,z
2 1/2-x,y,1/2-z
3 -x,-y,-z
4 1/2+x,-y,1/2+z
_cell_length_a                   8.5937(12)
_cell_length_b                   8.5019(12)
_cell_length_c                   24.045(3)
_cell_angle_alpha                90
_cell_angle_beta                 98.822(4)
_cell_angle_gamma                90
_cell_volume                     1736.01
_exptl_crystal_colour            white
_exptl_crystal_description       block
_cell_formula_units_Z            4
loop_
_atom_site_label
_atom_site_type_symbol
_atom_site_fract_x
_atom_site_fract_y
_atom_site_fract_z
Cl1 Cl 1.23890(7) 0.47552(8) 0.56309(3)
O1 O 0.50999(17) 0.22083(18) 0.51286(5)
O2 O 0.26977(17) -0.00232(18) 0.58806(6)
C1 C 0.5682(2) 0.0752(2) 0.65813(7)
O3 O 0.5504(2) 0.16528(18) 0.69574(6)
C2 C 0.8604(2) 0.2781(2) 0.61106(7)
C3 C 0.9633(2) 0.3481(2) 0.57907(8)
H1 H 0.9302 0.3687 0.5402
C4 C 0.5790(2) 0.1427(2) 0.60112(7)
N1 N 0.6594(2) 0.2818(2) 0.53064(7)
C5 C 0.7010(2) 0.2349(2) 0.58276(7)
O4 O 0.22976(19) 0.0701(2) 0.49741(6)
C6 C 0.5796(2) -0.0958(2) 0.66656(7)
C7 C 0.4658(2) 0.1385(2) 0.55577(8)
C8 C 1.1131(2) 0.3871(2) 0.60386(8)
C9 C 0.6260(3) -0.1937(3) 0.62628(9)
H2 H 0.6532 -0.1508 0.5926
C10 C 0.3074(2) 0.0660(3) 0.54290(8)
C11 C 0.9116(3) 0.2494(3) 0.66722(8)
H3 H 0.8426 0.2020 0.6897
C12 C 1.1645(3) 0.3582(3) 0.65952(9)
H4 H 1.2686 0.3853 0.6761
C13 C 0.5411(3) -0.1599(3) 0.71565(9)
H5 H 0.5107 -0.0932 0.7438
C14 C 1.0629(3) 0.2892(4) 0.69103(9)
H6 H 1.0972 0.2685 0.7298
C15 C 0.1198(3) -0.0866(3) 0.58106(11)
H7 H 0.1181 -0.1689 0.5518
H8 H 0.0317 -0.0129 0.5693
C16 C 0.5467(4) -0.3197(3) 0.72353(12)
H9 H 0.5188 -0.3635 0.7570
C17 C 0.6328(4) -0.3544(3) 0.63527(12)
H10 H 0.6657 -0.4220 0.6078
C18 C 0.5922(4) -0.4163(3) 0.68360(14)
H11 H 0.5957 -0.5268 0.6894
C19 C 0.1033(4) -0.1588(4) 0.63570(12)
H12 H 0.1900 -0.2330 0.6466
H13 H 0.0027 -0.2149 0.6324
H14 H 0.1065 -0.0765 0.6644
loop_
_geom_bond_atom_site_label_1
_geom_bond_atom_site_label_2
_geom_bond_site_symmetry_1
_geom_bond_site_symmetry_2
Cl1 C8 1_555 1_555
O1 N1 1_555 1_555
O2 C10 1_555 1_555
C1 O3 1_555 1_555
C2 C3 1_555 1_555
C3 H1 1_555 1_555
C4 C1 1_555 1_555
N1 C5 1_555 1_555
C5 C2 1_555 1_555
O4 C10 1_555 1_555
C6 C1 1_555 1_555
C7 O1 1_555 1_555
C8 C3 1_555 1_555
C9 C6 1_555 1_555
H2 C9 1_555 1_555
C10 C7 1_555 1_555
C11 C2 1_555 1_555
H3 C11 1_555 1_555
C12 C8 1_555 1_555
H4 C12 1_555 1_555
C13 C6 1_555 1_555
H5 C13 1_555 1_555
C14 C11 1_555 1_555
H6 C14 1_555 1_555
C15 O2 1_555 1_555
H7 C15 1_555 1_555
H8 C15 1_555 1_555
C16 C13 1_555 1_555
H9 C16 1_555 1_555
C17 C9 1_555 1_555
H10 C17 1_555 1_555
C18 C16 1_555 1_555
H11 C18 1_555 1_555
C19 C15 1_555 1_555
H12 C19 1_555 1_555
H13 C19 1_555 1_555
H14 C19 1_555 1_555
C4 C5 1_555 1_555
C4 C7 1_555 1_555
C12 C14 1_555 1_555
C17 C18 1_555 1_555

#END
