
#######################################################################
#
#                 Cambridge Crystallographic Data Centre
#                                CCDC 
#
#######################################################################
#
# If this CIF has been generated from an entry in the Cambridge 
# Structural Database, then it will include bibliographic, chemical, 
# crystal, experimental, refinement or atomic coordinate data resulting 
# from the CCDC's data processing and validation procedures.
#
#######################################################################

data_OMEVUX
_chemical_formula_moiety         'C17 H18 N2 O3'
_chemical_name_systematic        
3-(t-Butoxycarbonyl)-1a,2-dihydro-1H-4-azacyclopropa(c)benzo(e)indol-5-one
_chemical_properties_biological  'low cytotoxic activity'
_symmetry_cell_setting           monoclinic
_symmetry_space_group_name_H-M   'P 21/c'
_symmetry_Int_Tables_number      14
_space_group_name_Hall           '-P 2ybc'
loop_
_symmetry_equiv_pos_site_id
_symmetry_equiv_pos_as_xyz
1 x,y,z
2 x,1/2-y,1/2+z
3 -x,-y,-z
4 -x,1/2+y,1/2-z
_cell_length_a                   9.0906(13)
_cell_length_b                   26.865(4)
_cell_length_c                   12.5924(18)
_cell_angle_alpha                90
_cell_angle_beta                 90.153(3)
_cell_angle_gamma                90
_cell_volume                     3075.29
_exptl_crystal_colour            colorless
_exptl_crystal_description       parallelepiped
_cell_formula_units_Z            8
_exptl_crystal_recrystallization_method hexanes/dichloromethane
loop_
_atom_site_label
_atom_site_type_symbol
_atom_site_fract_x
_atom_site_fract_y
_atom_site_fract_z
O1 O 0.2756(4) 0.15556(12) 0.2894(3)
O2 O 0.1372(4) 0.32545(12) 0.3547(3)
O3 O 0.1495(3) 0.35870(11) 0.5206(2)
N1 N 0.0832(4) 0.27923(13) 0.5038(3)
N2 N 0.1843(4) 0.21958(14) 0.3877(3)
C1 C 0.0235(5) 0.28089(17) 0.6137(3)
H1 H -0.0562 0.3047 0.6192
H2 H 0.0997 0.2896 0.6645
C2 C 0.1022(5) 0.23130(16) 0.4675(3)
C3 C 0.2083(5) 0.16863(17) 0.3691(4)
C4 C 0.2042(5) 0.08090(18) 0.4391(4)
H3 H 0.2630 0.0716 0.3821
C5 C 0.1611(5) 0.13073(16) 0.4505(3)
C6 C 0.1597(6) 0.04559(19) 0.5120(4)
H4 H 0.1881 0.0125 0.5043
C7 C 0.0726(6) 0.05984(19) 0.5968(4)
H5 H 0.0439 0.0362 0.6464
C8 C 0.0278(5) 0.10857(18) 0.6088(4)
H6 H -0.0317 0.1174 0.6657
C9 C 0.0718(5) 0.14473(16) 0.5354(3)
C10 C 0.0228(4) 0.19711(15) 0.5381(3)
C11 C -0.1410(5) 0.21036(17) 0.5544(3)
H7 H -0.1847 0.2345 0.5064
H8 H -0.2067 0.1840 0.5769
C12 C -0.0310(5) 0.22863(16) 0.6320(3)
H9 H -0.0289 0.2146 0.7039
C13 C 0.1260(5) 0.32225(18) 0.4500(4)
C14 C 0.1998(5) 0.40903(17) 0.4866(4)
C15 C 0.3450(6) 0.4046(2) 0.4307(5)
H10 H 0.4099 0.3839 0.4717
H11 H 0.3878 0.4371 0.4230
H12 H 0.3302 0.3901 0.3619
C16 C 0.2134(7) 0.43625(19) 0.5904(4)
H13 H 0.2804 0.4187 0.6361
H14 H 0.1186 0.4381 0.6237
H15 H 0.2498 0.4693 0.5778
C17 C 0.0807(6) 0.43281(19) 0.4187(4)
H16 H 0.0762 0.4163 0.3511
H17 H 0.1032 0.4674 0.4081
H18 H -0.0124 0.4298 0.4538
O4 O 0.7718(4) 0.15507(12) 0.9481(2)
O5 O 0.6462(5) 0.32545(12) 0.8807(3)
O6 O 0.6444(4) 0.35925(11) 0.7151(2)
N3 N 0.5829(4) 0.27975(13) 0.7329(3)
N4 N 0.6841(4) 0.21948(13) 0.8494(3)
C18 C 0.5207(5) 0.28103(16) 0.6228(3)
H19 H 0.5957 0.2899 0.5716
H20 H 0.4406 0.3048 0.6178
C19 C 0.6011(5) 0.23134(16) 0.7689(3)
C20 C 0.7055(5) 0.16886(17) 0.8668(4)
C21 C 0.7045(5) 0.08153(17) 0.7951(4)
H21 H 0.7628 0.0721 0.8524
C22 C 0.6615(5) 0.13075(16) 0.7853(3)
C23 C 0.6624(6) 0.04613(18) 0.7213(4)
H22 H 0.6912 0.0131 0.7291
C24 C 0.5758(6) 0.06082(19) 0.6346(4)
H23 H 0.5486 0.0375 0.5835
C25 C 0.5307(5) 0.10948(17) 0.6244(4)
H24 H 0.4724 0.1187 0.5669
C26 C 0.5714(4) 0.14521(16) 0.6992(3)
C27 C 0.5213(4) 0.19720(16) 0.6975(3)
C28 C 0.3574(5) 0.21059(17) 0.6823(3)
H25 H 0.2912 0.1843 0.6597
H26 H 0.3147 0.2346 0.7308
C29 C 0.4668(5) 0.22905(16) 0.6044(3)
H27 H 0.4677 0.2152 0.5324
C30 C 0.6276(5) 0.32253(18) 0.7856(4)
C31 C 0.7024(5) 0.40861(17) 0.7474(4)
C32 C 0.8558(6) 0.4028(2) 0.7916(6)
H28 H 0.8522 0.3838 0.8561
H29 H 0.8966 0.4351 0.8060
H30 H 0.9162 0.3859 0.7407
C33 C 0.6002(7) 0.4330(2) 0.8217(5)
H31 H 0.6047 0.4165 0.8893
H32 H 0.5018 0.4309 0.7941
H33 H 0.6274 0.4673 0.8301
C34 C 0.7027(8) 0.4360(2) 0.6441(5)
H34 H 0.6036 0.4393 0.6186
H35 H 0.7599 0.4178 0.5932
H36 H 0.7449 0.4684 0.6541
loop_
_geom_bond_atom_site_label_1
_geom_bond_atom_site_label_2
_geom_bond_site_symmetry_1
_geom_bond_site_symmetry_2
O1 C3 1_555 1_555
O2 C13 1_555 1_555
O3 C13 1_555 1_555
N1 C1 1_555 1_555
N2 C2 1_555 1_555
C1 H1 1_555 1_555
H2 C1 1_555 1_555
C2 N1 1_555 1_555
C3 N2 1_555 1_555
C4 H3 1_555 1_555
C5 C3 1_555 1_555
C6 C4 1_555 1_555
H4 C6 1_555 1_555
C7 C6 1_555 1_555
H5 C7 1_555 1_555
C8 C7 1_555 1_555
H6 C8 1_555 1_555
C9 C5 1_555 1_555
C10 C2 1_555 1_555
C11 C10 1_555 1_555
H7 C11 1_555 1_555
H8 C11 1_555 1_555
C12 C1 1_555 1_555
H9 C12 1_555 1_555
C13 N1 1_555 1_555
C14 O3 1_555 1_555
C15 C14 1_555 1_555
H10 C15 1_555 1_555
H11 C15 1_555 1_555
H12 C15 1_555 1_555
C16 C14 1_555 1_555
H13 C16 1_555 1_555
H14 C16 1_555 1_555
H15 C16 1_555 1_555
C17 C14 1_555 1_555
H16 C17 1_555 1_555
H17 C17 1_555 1_555
H18 C17 1_555 1_555
O4 C20 1_555 1_555
O5 C30 1_555 1_555
O6 C30 1_555 1_555
N3 C18 1_555 1_555
N4 C19 1_555 1_555
C18 H19 1_555 1_555
H20 C18 1_555 1_555
C19 N3 1_555 1_555
C20 N4 1_555 1_555
C21 H21 1_555 1_555
C22 C20 1_555 1_555
C23 C21 1_555 1_555
H22 C23 1_555 1_555
C24 C23 1_555 1_555
H23 C24 1_555 1_555
C25 C24 1_555 1_555
H24 C25 1_555 1_555
C26 C22 1_555 1_555
C27 C19 1_555 1_555
C28 C27 1_555 1_555
H25 C28 1_555 1_555
H26 C28 1_555 1_555
C29 C18 1_555 1_555
H27 C29 1_555 1_555
C30 N3 1_555 1_555
C31 O6 1_555 1_555
C32 C31 1_555 1_555
H28 C32 1_555 1_555
H29 C32 1_555 1_555
H30 C32 1_555 1_555
C33 C31 1_555 1_555
H31 C33 1_555 1_555
H32 C33 1_555 1_555
H33 C33 1_555 1_555
C34 C31 1_555 1_555
H34 C34 1_555 1_555
H35 C34 1_555 1_555
H36 C34 1_555 1_555
C4 C5 1_555 1_555
C8 C9 1_555 1_555
C9 C10 1_555 1_555
C10 C12 1_555 1_555
C11 C12 1_555 1_555
C21 C22 1_555 1_555
C25 C26 1_555 1_555
C26 C27 1_555 1_555
C27 C29 1_555 1_555
C28 C29 1_555 1_555

#END
