
#######################################################################
#
#                 Cambridge Crystallographic Data Centre
#                                CCDC 
#
#######################################################################
#
# If this CIF has been generated from an entry in the Cambridge 
# Structural Database, then it will include bibliographic, chemical, 
# crystal, experimental, refinement or atomic coordinate data resulting 
# from the CCDC's data processing and validation procedures.
#
#######################################################################

data_OMEVOR
_chemical_formula_moiety         'C11 H7 N1 O1'
_chemical_name_systematic        Naphtho(1,2-d)(1,3)oxazole
_symmetry_cell_setting           monoclinic
_symmetry_space_group_name_H-M   'P 21/n'
_symmetry_Int_Tables_number      14
_space_group_name_Hall           '-P 2yn'
loop_
_symmetry_equiv_pos_site_id
_symmetry_equiv_pos_as_xyz
1 x,y,z
2 1/2+x,1/2-y,1/2+z
3 -x,-y,-z
4 1/2-x,1/2+y,1/2-z
_cell_length_a                   9.413(7)
_cell_length_b                   7.138(5)
_cell_length_c                   12.327(9)
_cell_angle_alpha                90
_cell_angle_beta                 103.842(10)
_cell_angle_gamma                90
_cell_volume                     804.198
_exptl_crystal_colour            colorless
_exptl_crystal_description       plate
_chemical_melting_point          '61-63 deg.C'
_cell_formula_units_Z            4
loop_
_atom_site_label
_atom_site_type_symbol
_atom_site_fract_x
_atom_site_fract_y
_atom_site_fract_z
O1 O 0.4528(2) 0.1445(3) 0.40378(16)
N1 N 0.3911(3) 0.3827(3) 0.28260(19)
C1 C 0.5251(3) 0.4228(4) 0.3591(2)
C2 C 0.5615(3) 0.2765(4) 0.4317(2)
C3 C 0.6886(3) 0.2679(4) 0.5179(2)
H1 H 0.7099 0.1637 0.5671
C4 C 0.7796(3) 0.4174(4) 0.5268(2)
H2 H 0.8675 0.4172 0.5840
C5 C 0.7483(3) 0.5751(4) 0.4537(2)
C6 C 0.8460(3) 0.7271(4) 0.4638(3)
H3 H 0.9339 0.7263 0.5209
C7 C 0.8153(4) 0.8751(5) 0.3926(3)
H4 H 0.8830 0.9757 0.3998
C8 C 0.6850(3) 0.8812(4) 0.3084(3)
H5 H 0.6648 0.9862 0.2598
C9 C 0.5876(3) 0.7372(4) 0.2962(2)
H6 H 0.4995 0.7424 0.2394
C10 C 0.6170(3) 0.5805(4) 0.3675(2)
C11 C 0.3572(3) 0.2213(4) 0.3142(3)
H7 H 0.2702 0.1584 0.2771
loop_
_geom_bond_atom_site_label_1
_geom_bond_atom_site_label_2
_geom_bond_site_symmetry_1
_geom_bond_site_symmetry_2
O1 C2 1_555 1_555
N1 C1 1_555 1_555
C1 C2 1_555 1_555
C2 C3 1_555 1_555
C3 H1 1_555 1_555
C4 C3 1_555 1_555
H2 C4 1_555 1_555
C5 C4 1_555 1_555
C6 C5 1_555 1_555
H3 C6 1_555 1_555
C7 C6 1_555 1_555
H4 C7 1_555 1_555
C8 C7 1_555 1_555
H5 C8 1_555 1_555
C9 C8 1_555 1_555
H6 C9 1_555 1_555
C10 C1 1_555 1_555
C11 O1 1_555 1_555
H7 C11 1_555 1_555
N1 C11 1_555 1_555
C5 C10 1_555 1_555
C9 C10 1_555 1_555

#END
