
#######################################################################
#
#                 Cambridge Crystallographic Data Centre
#                                CCDC 
#
#######################################################################
#
# If this CIF has been generated from an entry in the Cambridge 
# Structural Database, then it will include bibliographic, chemical, 
# crystal, experimental, refinement or atomic coordinate data resulting 
# from the CCDC's data processing and validation procedures.
#
#######################################################################

data_OMEVEJ
_chemical_formula_moiety         'C19 H13 Cl2 N1 O4'
_chemical_name_systematic        
'Ethyl 4-(4-chlorobenzoyl)-3-(2-chlorophenyl)-1,2-oxazole-5-carboxylate'
_symmetry_cell_setting           monoclinic
_symmetry_space_group_name_H-M   'P 21/c'
_symmetry_Int_Tables_number      14
_space_group_name_Hall           '-P 2ybc'
loop_
_symmetry_equiv_pos_site_id
_symmetry_equiv_pos_as_xyz
1 x,y,z
2 -x,1/2+y,1/2-z
3 -x,-y,-z
4 x,1/2-y,1/2+z
_cell_length_a                   12.460(2)
_cell_length_b                   7.6906(11)
_cell_length_c                   19.627(3)
_cell_angle_alpha                90
_cell_angle_beta                 106.349(5)
_cell_angle_gamma                90
_cell_volume                     1804.71
_exptl_crystal_colour            yellow
_exptl_crystal_description       block
_cell_formula_units_Z            4
loop_
_atom_site_label
_atom_site_type_symbol
_atom_site_fract_x
_atom_site_fract_y
_atom_site_fract_z
Cl1 Cl 0.16280(8) 1.00492(10) 1.04782(5)
Cl2 Cl 0.21709(10) 1.55253(13) 0.75811(5)
O1 O 0.46823(15) 0.7019(3) 1.00798(11)
C1 C 0.2970(2) 0.7023(3) 1.01349(14)
O2 O 0.11154(17) 0.7808(3) 0.88120(11)
N1 N 0.3972(2) 0.6469(3) 1.04792(13)
O3 O 0.41364(17) 0.8843(3) 0.84050(11)
C2 C 0.2978(2) 0.7959(3) 0.95035(13)
C3 C 0.2031(2) 0.6603(3) 1.04324(13)
C4 C 0.1975(2) 0.8670(4) 0.89702(14)
C5 C 0.2022(2) 1.0397(4) 0.86447(13)
C6 C 0.4071(2) 0.7890(4) 0.95084(14)
C7 C 0.1808(2) 0.4888(4) 1.05608(15)
H1 H 0.2251 0.3988 1.0448
C8 C 0.1374(2) 0.7873(4) 1.06095(15)
C9 C 0.4746(3) 0.8540(4) 0.90512(16)
C10 C 0.0316(3) 0.5751(4) 1.10218(15)
H2 H -0.0271 0.5457 1.1222
C11 C 0.2810(3) 1.3252(4) 0.86661(16)
H3 H 0.3320 1.4124 0.8902
C12 C 0.2770(2) 1.1669(4) 0.89830(15)
H4 H 0.3262 1.1445 0.9441
C13 C 0.1329(3) 1.2326(4) 0.76572(15)
H5 H 0.0830 1.2564 0.7203
C14 C 0.0951(3) 0.4468(4) 1.08497(16)
H6 H 0.0804 0.3285 1.0929
C15 C 0.0521(2) 0.7469(4) 1.09060(15)
H7 H 0.0083 0.8364 1.1028
C16 C 0.1295(2) 1.0757(4) 0.79804(15)
H8 H 0.0767 0.9904 0.7748
O4 O 0.5732(2) 0.8764(4) 0.92682(13)
C17 C 0.2097(3) 1.3554(4) 0.80001(16)
C18 C 0.4717(3) 0.9644(7) 0.7930(2)
H9 H 0.4994 1.0812 0.8107
H10 H 0.5365 0.8922 0.7910
C19 C 0.3939(4) 0.9781(8) 0.7233(2)
H11 H 0.3606 0.8639 0.7083
H12 H 0.4333 1.0186 0.6895
H13 H 0.3348 1.0611 0.7245
loop_
_geom_bond_atom_site_label_1
_geom_bond_atom_site_label_2
_geom_bond_site_symmetry_1
_geom_bond_site_symmetry_2
Cl1 C8 1_555 1_555
Cl2 C17 1_555 1_555
O1 N1 1_555 1_555
C1 N1 1_555 1_555
O2 C4 1_555 1_555
O3 C9 1_555 1_555
C2 C1 1_555 1_555
C3 C1 1_555 1_555
C4 C2 1_555 1_555
C5 C4 1_555 1_555
C6 O1 1_555 1_555
C7 C3 1_555 1_555
H1 C7 1_555 1_555
C8 C3 1_555 1_555
C9 C6 1_555 1_555
C10 H2 1_555 1_555
C11 H3 1_555 1_555
C12 C5 1_555 1_555
H4 C12 1_555 1_555
C13 H5 1_555 1_555
C14 C7 1_555 1_555
H6 C14 1_555 1_555
C15 C8 1_555 1_555
H7 C15 1_555 1_555
C16 C5 1_555 1_555
H8 C16 1_555 1_555
O4 C9 1_555 1_555
C17 C11 1_555 1_555
C18 O3 1_555 1_555
H9 C18 1_555 1_555
H10 C18 1_555 1_555
C19 C18 1_555 1_555
H11 C19 1_555 1_555
H12 C19 1_555 1_555
H13 C19 1_555 1_555
C2 C6 1_555 1_555
C10 C14 1_555 1_555
C10 C15 1_555 1_555
C11 C12 1_555 1_555
C13 C16 1_555 1_555
C13 C17 1_555 1_555

#END
