
#######################################################################
#
#                 Cambridge Crystallographic Data Centre
#                                CCDC 
#
#######################################################################
#
# If this CIF has been generated from an entry in the Cambridge 
# Structural Database, then it will include bibliographic, chemical, 
# crystal, experimental, refinement or atomic coordinate data resulting 
# from the CCDC's data processing and validation procedures.
#
#######################################################################

data_OMIFUN
_chemical_formula_moiety         'C4 H8 O2'
_chemical_name_systematic        'Methyl propionate'
_symmetry_cell_setting           triclinic
_symmetry_space_group_name_H-M   'P -1'
_symmetry_Int_Tables_number      2
_space_group_name_Hall           '-P 1'
loop_
_symmetry_equiv_pos_site_id
_symmetry_equiv_pos_as_xyz
1 x,y,z
2 -x,-y,-z
_cell_length_a                   5.9523(5)
_cell_length_b                   6.7864(5)
_cell_length_c                   12.7209(11)
_cell_angle_alpha                87.987(3)
_cell_angle_beta                 89.585(3)
_cell_angle_gamma                84.399(4)
_cell_volume                     511.084
_exptl_crystal_colour            colorless
_exptl_crystal_description       cylinder
_chemical_melting_point          '185 K'
_cell_formula_units_Z            4
_exptl_crystal_recrystallization_method 'Zone refinement of a frozen sample'
loop_
_atom_site_label
_atom_site_type_symbol
_atom_site_fract_x
_atom_site_fract_y
_atom_site_fract_z
O1 O 0.6536(3) 0.2491(2) 0.20934(13)
C1 C 0.8137(4) 0.2425(3) 0.26701(17)
O2 O 0.7918(3) 0.2457(2) 0.37237(12)
C2 C 0.5618(5) 0.2555(4) 0.4114(2)
C3 C 1.0558(4) 0.2300(4) 0.23429(19)
C4 C 1.0870(5) 0.2265(5) 0.1160(2)
H1 H 0.566(6) 0.250(4) 0.490(3)
H2 H 0.474(6) 0.374(5) 0.380(3)
H3 H 0.500(6) 0.137(5) 0.384(3)
H4 H 1.121(5) 0.352(4) 0.264(2)
H5 H 1.126(5) 0.109(4) 0.266(2)
H6 H 1.250(7) 0.217(4) 0.098(3)
H7 H 1.008(6) 0.358(5) 0.082(3)
H8 H 1.010(6) 0.115(5) 0.091(3)
O3 O 0.8756(3) 0.7475(3) 0.27727(13)
C5 C 0.9361(5) 0.7367(5) 0.3871(2)
C6 C 0.6564(4) 0.7549(3) 0.25497(17)
O4 O 0.5125(3) 0.7535(3) 0.32170(13)
C7 C 0.6162(4) 0.7662(4) 0.1388(2)
C8 C 0.3933(5) 0.7050(5) 0.1068(2)
H9 H 1.106(7) 0.744(5) 0.390(3)
H10 H 0.872(6) 0.853(5) 0.422(3)
H11 H 0.886(6) 0.623(5) 0.424(3)
H12 H 0.616(5) 0.905(4) 0.120(2)
H13 H 0.737(5) 0.688(4) 0.108(2)
H14 H 0.377(6) 0.723(5) 0.031(3)
H15 H 0.272(7) 0.789(5) 0.135(3)
H16 H 0.384(6) 0.575(5) 0.130(3)
loop_
_geom_bond_atom_site_label_1
_geom_bond_atom_site_label_2
_geom_bond_site_symmetry_1
_geom_bond_site_symmetry_2
O1 C1 1_555 1_555
C1 O2 1_555 1_555
O2 C2 1_555 1_555
C2 H1 1_555 1_555
C3 C1 1_555 1_555
C4 C3 1_555 1_555
H2 C2 1_555 1_555
H3 C2 1_555 1_555
H4 C3 1_555 1_555
H5 C3 1_555 1_555
H6 C4 1_555 1_555
H7 C4 1_555 1_555
H8 C4 1_555 1_555
O3 C5 1_555 1_555
C5 H9 1_555 1_555
C6 O3 1_555 1_555
O4 C6 1_555 1_555
C7 C6 1_555 1_555
C8 C7 1_555 1_555
H10 C5 1_555 1_555
H11 C5 1_555 1_555
H12 C7 1_555 1_555
H13 C7 1_555 1_555
H14 C8 1_555 1_555
H15 C8 1_555 1_555
H16 C8 1_555 1_555

#END
