
#######################################################################
#
#                 Cambridge Crystallographic Data Centre
#                                CCDC 
#
#######################################################################
#
# If this CIF has been generated from an entry in the Cambridge 
# Structural Database, then it will include bibliographic, chemical, 
# crystal, experimental, refinement or atomic coordinate data resulting 
# from the CCDC's data processing and validation procedures.
#
#######################################################################

data_OMIGAS
_chemical_formula_moiety         'C21 H30 N2 P1 S1 1+,I1 1-'
_chemical_name_systematic        
'1-(Diphenylthiophosphoramido)-2-(trimethylammonio)cyclohexane iodide'
_symmetry_cell_setting           monoclinic
_symmetry_space_group_name_H-M   'P 21'
_symmetry_Int_Tables_number      4
_space_group_name_Hall           'P 2yb'
loop_
_symmetry_equiv_pos_site_id
_symmetry_equiv_pos_as_xyz
1 x,y,z
2 -x,1/2+y,-z
_cell_length_a                   8.9294(8)
_cell_length_b                   8.7601(8)
_cell_length_c                   14.5754(13)
_cell_angle_alpha                90
_cell_angle_beta                 91.826(2)
_cell_angle_gamma                90
_cell_volume                     1139.54
_exptl_crystal_colour            colorless
_chemical_melting_point          214-215deg.C
_cell_formula_units_Z            2
loop_
_atom_site_label
_atom_site_type_symbol
_atom_site_fract_x
_atom_site_fract_y
_atom_site_fract_z
I1 I 0.33737(4) 0.96144(4) 0.44450(3)
P1 P 0.12166(17) 0.7679(2) 0.15840(10)
S1 S -0.0532(2) 0.7321(3) 0.07959(15)
N1 N -0.1634(5) 0.8447(7) 0.3958(4)
N2 N 0.0798(5) 0.8565(7) 0.2535(3)
H1 H 0.1301 0.8362 0.3033
C1 C -0.1012(6) 0.9928(7) 0.3534(4)
C2 C -0.0428(5) 0.9711(9) 0.2554(4)
C3 C 0.0104(9) 1.1215(9) 0.2189(5)
H2 H 0.0432 1.1070 0.1567
H3 H 0.0961 1.1555 0.2560
C4 C -0.1098(10) 1.2452(10) 0.2187(6)
H4 H -0.0702 1.3390 0.1937
H5 H -0.1951 1.2138 0.1804
C5 C -0.1587(10) 1.2722(9) 0.3164(6)
H6 H -0.2357 1.3503 0.3168
H7 H -0.0742 1.3068 0.3543
C6 C -0.2200(8) 1.1219(10) 0.3546(5)
H8 H -0.3076 1.0910 0.3181
H9 H -0.2507 1.1380 0.4171
C7 C -0.2841(9) 0.7706(11) 0.3372(6)
H10 H -0.2464 0.7491 0.2776
H11 H -0.3685 0.8382 0.3311
H12 H -0.3147 0.6772 0.3655
C8 C -0.2289(9) 0.8854(10) 0.4881(5)
H13 H -0.2679 0.7949 0.5159
H14 H -0.3081 0.9584 0.4789
H15 H -0.1519 0.9283 0.5277
C9 C -0.0456(8) 0.7327(9) 0.4179(6)
H16 H -0.0880 0.6475 0.4493
H17 H 0.0305 0.7794 0.4566
H18 H -0.0020 0.6980 0.3623
C10 C 0.2191(7) 0.5989(8) 0.1969(4)
C11 C 0.3007(8) 0.5914(9) 0.2796(5)
H19 H 0.3029 0.6742 0.3195
C12 C 0.3805(8) 0.4560(13) 0.3023(5)
H20 H 0.4322 0.4486 0.3585
C13 C 0.3819(10) 0.3386(9) 0.2434(7)
H21 H 0.4384 0.2523 0.2582
C14 C 0.3009(10) 0.3438(9) 0.1612(6)
H22 H 0.3014 0.2607 0.1215
C15 C 0.2203(7) 0.4707(11) 0.1383(5)
H23 H 0.1651 0.4731 0.0832
C16 C 0.2686(7) 0.8706(7) 0.1026(4)
C17 C 0.4003(9) 0.9036(11) 0.1493(6)
H24 H 0.4132 0.8724 0.2100
C18 C 0.5135(9) 0.9818(13) 0.1084(6)
H25 H 0.6024 1.0014 0.1411
C19 C 0.4959(11) 1.0307(11) 0.0199(7)
H26 H 0.5705 1.0872 -0.0075
C20 C 0.3661(11) 0.9948(11) -0.0279(6)
H27 H 0.3548 1.0229 -0.0893
C21 C 0.2528(9) 0.9183(10) 0.0132(5)
H28 H 0.1641 0.8985 -0.0198
H29 H -0.015(4) 1.016(5) 0.392(3)
H30 H -0.125(6) 0.938(7) 0.218(3)
loop_
_geom_bond_atom_site_label_1
_geom_bond_atom_site_label_2
_geom_bond_site_symmetry_1
_geom_bond_site_symmetry_2
P1 S1 1_555 1_555
N1 C1 1_555 1_555
N2 P1 1_555 1_555
H1 N2 1_555 1_555
C1 C2 1_555 1_555
C2 N2 1_555 1_555
C3 C2 1_555 1_555
H2 C3 1_555 1_555
H3 C3 1_555 1_555
C4 C3 1_555 1_555
H4 C4 1_555 1_555
H5 C4 1_555 1_555
C5 C4 1_555 1_555
H6 C5 1_555 1_555
H7 C5 1_555 1_555
C6 C1 1_555 1_555
H8 C6 1_555 1_555
H9 C6 1_555 1_555
C7 N1 1_555 1_555
H10 C7 1_555 1_555
H11 C7 1_555 1_555
H12 C7 1_555 1_555
C8 N1 1_555 1_555
H13 C8 1_555 1_555
H14 C8 1_555 1_555
H15 C8 1_555 1_555
C9 N1 1_555 1_555
H16 C9 1_555 1_555
H17 C9 1_555 1_555
H18 C9 1_555 1_555
C10 P1 1_555 1_555
C11 C10 1_555 1_555
H19 C11 1_555 1_555
C12 C11 1_555 1_555
H20 C12 1_555 1_555
C13 C12 1_555 1_555
H21 C13 1_555 1_555
C14 C13 1_555 1_555
H22 C14 1_555 1_555
C15 C10 1_555 1_555
H23 C15 1_555 1_555
C16 P1 1_555 1_555
C17 C16 1_555 1_555
H24 C17 1_555 1_555
C18 C17 1_555 1_555
H25 C18 1_555 1_555
C19 C18 1_555 1_555
H26 C19 1_555 1_555
C20 C19 1_555 1_555
H27 C20 1_555 1_555
C21 C16 1_555 1_555
H28 C21 1_555 1_555
H29 C1 1_555 1_555
H30 C2 1_555 1_555
C5 C6 1_555 1_555
C14 C15 1_555 1_555
C20 C21 1_555 1_555

#END
