
#######################################################################
#
#                 Cambridge Crystallographic Data Centre
#                                CCDC 
#
#######################################################################
#
# If this CIF has been generated from an entry in the Cambridge 
# Structural Database, then it will include bibliographic, chemical, 
# crystal, experimental, refinement or atomic coordinate data resulting 
# from the CCDC's data processing and validation procedures.
#
#######################################################################

data_OMIHID
_chemical_formula_moiety         'C134 H110 B2 N2'
_chemical_name_systematic        
"4-(2-(2',5'-bis((4-(Dimesitylboryl)phenyl)ethynyl)-4''-(2-(4-(diphenylamino)phenyl)-1,2-diphenylvinyl)-1,1':4',1''-terphenyl-4-yl)-1,2-diphenylvinyl)-N,N-diphenylaniline unknown solvate"
_symmetry_cell_setting           monoclinic
_symmetry_space_group_name_H-M   'P 21/n'
_symmetry_Int_Tables_number      14
_space_group_name_Hall           '-P 2yn'
loop_
_symmetry_equiv_pos_site_id
_symmetry_equiv_pos_as_xyz
1 x,y,z
2 1/2-x,1/2+y,1/2-z
3 -x,-y,-z
4 1/2+x,1/2-y,1/2+z
_cell_length_a                   9.407(2)
_cell_length_b                   26.048(7)
_cell_length_c                   24.745(6)
_cell_angle_alpha                90
_cell_angle_beta                 94.940(3)
_cell_angle_gamma                90
_cell_volume                     6040.83
_exptl_crystal_colour            yellow
_exptl_crystal_description       rod
_cell_formula_units_Z            2
_exptl_crystal_recrystallization_method 
'Re-crystallisation from solvent: dichloromethane and hexane'
_exptl_crystal_preparation       Luminescent
loop_
_atom_site_label
_atom_site_type_symbol
_atom_site_fract_x
_atom_site_fract_y
_atom_site_fract_z
N1 N 0.7562(6) 0.5669(2) 0.6776(2)
C1 C 0.1234(5) 0.50611(19) 0.53353(17)
H1 H 0.2069 0.5100 0.5562
C2 C 0.1120(5) 0.53084(18) 0.48262(17)
C3 C -0.0150(5) 0.52369(17) 0.44916(16)
C4 C -0.0271(5) 0.5465(2) 0.39597(18)
C5 C -0.0227(5) 0.5667(2) 0.35310(19)
C6 C 0.0057(6) 0.59396(19) 0.30455(16)
C7 C 0.1447(5) 0.6001(2) 0.29369(18)
H2 H 0.2180 0.5876 0.3177
C8 C 0.1758(5) 0.6253(2) 0.2463(2)
H3 H 0.2702 0.6269 0.2379
C9 C 0.0702(6) 0.6484(2) 0.21109(18)
C10 C -0.0694(6) 0.6436(2) 0.2252(2)
H4 H -0.1425 0.6593 0.2035
C11 C -0.1030(6) 0.6163(2) 0.27031(19)
H5 H -0.1977 0.6128 0.2778
C12 C 0.2526(6) 0.6644(3) 0.13569(19)
C13 C 0.2788(7) 0.6132(3) 0.1215(2)
C14 C 0.4115(8) 0.6002(3) 0.1046(2)
H6 H 0.4259 0.5667 0.0932
C15 C 0.5248(7) 0.6353(3) 0.1040(2)
C16 C 0.4947(7) 0.6848(3) 0.1191(2)
H7 H 0.5677 0.7089 0.1194
C17 C 0.3644(6) 0.7010(2) 0.13363(17)
C18 C 0.1619(7) 0.5729(3) 0.1195(3)
H8 H 0.1831 0.5484 0.1480
H9 H 0.1564 0.5558 0.0851
H10 H 0.0722 0.5892 0.1243
C19 C 0.6704(7) 0.6194(3) 0.0889(3)
H11 H 0.6947 0.5865 0.1048
H12 H 0.7398 0.6444 0.1023
H13 H 0.6695 0.6170 0.0502
C20 C 0.3439(6) 0.7564(2) 0.1485(2)
H14 H 0.2698 0.7712 0.1243
H15 H 0.4313 0.7748 0.1457
H16 H 0.3175 0.7585 0.1851
C21 C 0.0055(6) 0.7241(2) 0.1396(2)
C22 C -0.0511(6) 0.7255(3) 0.0858(2)
C23 C -0.1602(8) 0.7628(3) 0.0715(3)
H17 H -0.2013 0.7630 0.0359
C24 C -0.2078(7) 0.7983(3) 0.1071(3)
C25 C -0.1437(7) 0.7970(3) 0.1580(3)
H18 H -0.1691 0.8216 0.1827
C26 C -0.0399(6) 0.7601(3) 0.1756(2)
C27 C -0.0050(7) 0.6885(3) 0.0436(2)
H19 H 0.0962 0.6832 0.0491
H20 H -0.0288 0.7024 0.0081
H21 H -0.0531 0.6563 0.0469
C28 C -0.3191(8) 0.8381(3) 0.0878(3)
H22 H -0.2722 0.8693 0.0787
H23 H -0.3800 0.8449 0.1162
H24 H -0.3751 0.8254 0.0564
C29 C 0.0228(8) 0.7664(3) 0.2354(3)
H25 H -0.0418 0.7518 0.2592
H26 H 0.0358 0.8022 0.2435
H27 H 0.1131 0.7491 0.2405
C30 C 0.2313(5) 0.56292(19) 0.46718(16)
C31 C 0.3698(6) 0.5444(2) 0.4699(2)
H28 H 0.3871 0.5103 0.4795
C32 C 0.4824(5) 0.5752(2) 0.4586(2)
H29 H 0.5736 0.5612 0.4609
C33 C 0.4652(5) 0.6254(2) 0.44409(17)
C34 C 0.3243(6) 0.6435(2) 0.43883(18)
H30 H 0.3080 0.6770 0.4270
C35 C 0.2097(5) 0.61444(19) 0.45008(17)
H31 H 0.1184 0.6284 0.4466
C36 C 0.5861(5) 0.66109(18) 0.43404(19)
C37 C 0.7009(5) 0.66586(19) 0.4698(2)
C38 C 0.8251(6) 0.6973(2) 0.45523(19)
C39 C 0.8887(6) 0.6904(2) 0.4073(2)
H32 H 0.8512 0.6654 0.3833
C40 C 1.0061(7) 0.7189(3) 0.3926(3)
H33 H 1.0454 0.7131 0.3599
C41 C 1.0611(8) 0.7560(3) 0.4288(3)
H34 H 1.1388 0.7756 0.4202
C42 C 1.0039(8) 0.7644(3) 0.4766(3)
H35 H 1.0404 0.7903 0.4997
C43 C 0.8892(8) 0.7340(3) 0.4911(2)
H36 H 0.8554 0.7384 0.5250
C44 C 0.7157(6) 0.64140(19) 0.52361(18)
C45 C 0.8401(5) 0.61492(19) 0.54298(19)
H37 H 0.9164 0.6140 0.5215
C46 C 0.8539(6) 0.5904(2) 0.59215(19)
H38 H 0.9363 0.5720 0.6027
C47 C 0.7432(7) 0.5931(2) 0.62631(19)
C48 C 0.6216(6) 0.6202(2) 0.6089(2)
H39 H 0.5476 0.6227 0.6314
C49 C 0.6083(5) 0.6438(2) 0.5580(2)
H40 H 0.5250 0.6616 0.5471
B1 B 0.1069(7) 0.6798(3) 0.1607(2)
C50 C 0.6543(18) 0.5367(7) 0.6966(5)
C51 C 0.6306(16) 0.5332(6) 0.7519(5)
H41 H 0.6891 0.5513 0.7774
C52 C 0.5207(16) 0.5029(7) 0.7690(6)
H42 H 0.5082 0.4998 0.8058
C53 C 0.4313(19) 0.4776(7) 0.7312(6)
H43 H 0.3569 0.4575 0.7419
C54 C 0.4544(16) 0.4827(6) 0.6758(6)
H44 H 0.3887 0.4681 0.6500
C55 C 0.5691(15) 0.5081(6) 0.6585(7)
H45 H 0.5899 0.5065 0.6224
C56 C 0.5808(15) 0.6855(6) 0.3779(6)
C57 C 0.5525(13) 0.6589(6) 0.3297(5)
H46 H 0.5356 0.6238 0.3310
C58 C 0.5486(13) 0.6827(6) 0.2798(5)
H47 H 0.5344 0.6642 0.2476
C59 C 0.5681(15) 0.7386(6) 0.2801(6)
H48 H 0.5672 0.7557 0.2470
C60 C 0.5883(16) 0.7680(6) 0.3290(6)
H49 H 0.5961 0.8035 0.3287
C61 C 0.5956(16) 0.7395(6) 0.3780(6)
H50 H 0.6105 0.7567 0.4109
C62 C 0.8724(16) 0.5698(6) 0.7131(7)
C63 C 0.9577(15) 0.6136(7) 0.7158(7)
H51 H 0.9311 0.6418 0.6942
C64 C 1.0825(15) 0.6156(5) 0.7504(5)
H52 H 1.1459 0.6429 0.7489
C65 C 1.1101(18) 0.5757(5) 0.7875(6)
H53 H 1.1904 0.5774 0.8121
C66 C 1.0203(16) 0.5334(5) 0.7883(5)
H54 H 1.0391 0.5076 0.8139
C67 C 0.9013(16) 0.5299(5) 0.7504(5)
H55 H 0.8419 0.5013 0.7500
N1B N -0.7562(6) 0.4331(2) 0.3224(2)
C1B C -0.1234(5) 0.49389(19) 0.46647(17)
H1B H -0.2069 0.4900 0.4438
C2B C -0.1120(5) 0.46916(18) 0.51738(17)
C3B C 0.0150(5) 0.47631(17) 0.55084(16)
C4B C 0.0271(5) 0.4535(2) 0.60403(18)
C5B C 0.0227(5) 0.4333(2) 0.64690(19)
C6B C -0.0057(6) 0.40604(19) 0.69545(16)
C7B C -0.1447(5) 0.3999(2) 0.70631(18)
H2B H -0.2180 0.4124 0.6823
C8B C -0.1758(5) 0.3747(2) 0.7537(2)
H3B H -0.2702 0.3731 0.7621
C9B C -0.0702(6) 0.3516(2) 0.78891(18)
C10B C 0.0694(6) 0.3564(2) 0.7748(2)
H4B H 0.1425 0.3407 0.7965
C11B C 0.1030(6) 0.3837(2) 0.72969(19)
H5B H 0.1977 0.3872 0.7222
C12B C -0.2526(6) 0.3356(3) 0.86431(19)
C13B C -0.2788(7) 0.3868(3) 0.8785(2)
C14B C -0.4115(8) 0.3998(3) 0.8954(2)
H6B H -0.4259 0.4333 0.9068
C15B C -0.5248(7) 0.3647(3) 0.8960(2)
C16B C -0.4947(7) 0.3152(3) 0.8809(2)
H7B H -0.5677 0.2911 0.8806
C17B C -0.3644(6) 0.2990(2) 0.86637(17)
C18B C -0.1619(7) 0.4271(3) 0.8805(3)
H8B H -0.1831 0.4516 0.8520
H9B H -0.1564 0.4442 0.9149
H10B H -0.0722 0.4108 0.8757
C19B C -0.6704(7) 0.3806(3) 0.9111(3)
H11B H -0.6947 0.4135 0.8952
H12B H -0.7398 0.3556 0.8977
H13B H -0.6695 0.3830 0.9498
C20B C -0.3439(6) 0.2436(2) 0.8515(2)
H14B H -0.2698 0.2288 0.8757
H15B H -0.4313 0.2252 0.8543
H16B H -0.3175 0.2415 0.8149
C21B C -0.0055(6) 0.2759(2) 0.8604(2)
C22B C 0.0511(6) 0.2745(3) 0.9142(2)
C23B C 0.1602(8) 0.2372(3) 0.9285(3)
H17B H 0.2013 0.2370 0.9641
C24B C 0.2078(7) 0.2017(3) 0.8929(3)
C25B C 0.1437(7) 0.2030(3) 0.8420(3)
H18B H 0.1691 0.1784 0.8173
C26B C 0.0399(6) 0.2399(3) 0.8244(2)
C27B C 0.0050(7) 0.3115(3) 0.9564(2)
H19B H -0.0962 0.3168 0.9509
H20B H 0.0288 0.2976 0.9919
H21B H 0.0531 0.3437 0.9531
C28B C 0.3191(8) 0.1619(3) 0.9122(3)
H22B H 0.2722 0.1307 0.9213
H23B H 0.3800 0.1551 0.8838
H24B H 0.3751 0.1746 0.9436
C29B C -0.0228(8) 0.2336(3) 0.7646(3)
H25B H 0.0418 0.2482 0.7408
H26B H -0.0358 0.1978 0.7565
H27B H -0.1131 0.2509 0.7595
C30B C -0.2313(5) 0.43708(19) 0.53282(16)
C31B C -0.3698(6) 0.4556(2) 0.5301(2)
H28B H -0.3871 0.4897 0.5205
C32B C -0.4824(5) 0.4248(2) 0.5414(2)
H29B H -0.5736 0.4388 0.5391
C33B C -0.4652(5) 0.3746(2) 0.55591(17)
C34B C -0.3243(6) 0.3565(2) 0.56117(18)
H30B H -0.3080 0.3230 0.5730
C35B C -0.2097(5) 0.38556(19) 0.54992(17)
H31B H -0.1184 0.3716 0.5534
C36B C -0.5861(5) 0.33891(18) 0.56596(19)
C37B C -0.7009(5) 0.33414(19) 0.5302(2)
C38B C -0.8251(6) 0.3027(2) 0.54477(19)
C39B C -0.8887(6) 0.3096(2) 0.5927(2)
H32B H -0.8512 0.3346 0.6167
C40B C -1.0061(7) 0.2811(3) 0.6074(3)
H33B H -1.0454 0.2869 0.6401
C41B C -1.0611(8) 0.2440(3) 0.5712(3)
H34B H -1.1388 0.2244 0.5798
C42B C -1.0039(8) 0.2356(3) 0.5234(3)
H35B H -1.0404 0.2097 0.5003
C43B C -0.8892(8) 0.2660(3) 0.5089(2)
H36B H -0.8554 0.2616 0.4750
C44B C -0.7157(6) 0.35860(19) 0.47639(18)
C45B C -0.8401(5) 0.38508(19) 0.45702(19)
H37B H -0.9164 0.3860 0.4785
C46B C -0.8539(6) 0.4096(2) 0.40785(19)
H38B H -0.9363 0.4280 0.3973
C47B C -0.7432(7) 0.4069(2) 0.37369(19)
C48B C -0.6216(6) 0.3798(2) 0.3911(2)
H39B H -0.5476 0.3773 0.3686
C49B C -0.6083(5) 0.3562(2) 0.4420(2)
H40B H -0.5250 0.3384 0.4529
B1B B -0.1069(7) 0.3202(3) 0.8393(2)
C50B C -0.6543(18) 0.4633(7) 0.3034(5)
C51B C -0.6306(16) 0.4668(6) 0.2481(5)
H41B H -0.6891 0.4487 0.2226
C52B C -0.5207(16) 0.4971(7) 0.2310(6)
H42B H -0.5082 0.5002 0.1942
C53B C -0.4313(19) 0.5224(7) 0.2688(6)
H43B H -0.3569 0.5425 0.2581
C54B C -0.4544(16) 0.5173(6) 0.3242(6)
H44B H -0.3887 0.5319 0.3500
C55B C -0.5691(15) 0.4919(6) 0.3415(7)
H45B H -0.5899 0.4935 0.3776
C56B C -0.5808(15) 0.3145(6) 0.6221(6)
C57B C -0.5525(13) 0.3411(6) 0.6703(5)
H46B H -0.5356 0.3762 0.6690
C58B C -0.5486(13) 0.3173(6) 0.7202(5)
H47B H -0.5344 0.3358 0.7524
C59B C -0.5681(15) 0.2614(6) 0.7199(6)
H48B H -0.5672 0.2443 0.7530
C60B C -0.5883(16) 0.2320(6) 0.6710(6)
H49B H -0.5961 0.1965 0.6713
C61B C -0.5956(16) 0.2605(6) 0.6220(6)
H50B H -0.6105 0.2433 0.5891
C62B C -0.8724(16) 0.4302(6) 0.2869(7)
C63B C -0.9577(15) 0.3864(7) 0.2842(7)
H51B H -0.9311 0.3582 0.3058
C64B C -1.0825(15) 0.3844(5) 0.2496(5)
H52B H -1.1459 0.3571 0.2511
C65B C -1.1101(18) 0.4243(5) 0.2125(6)
H53B H -1.1904 0.4226 0.1879
C66B C -1.0203(16) 0.4666(5) 0.2117(5)
H54B H -1.0391 0.4924 0.1861
C67B C -0.9013(16) 0.4701(5) 0.2496(5)
H55B H -0.8419 0.4987 0.2500
C68? C 0.5471(19) 0.6974(6) 0.3887(6)
C69? C 0.5147(18) 0.6756(6) 0.3382(5)
H56? H 0.5032 0.6403 0.3353
C70? C 0.4988(19) 0.7059(6) 0.2919(6)
H57? H 0.4900 0.6910 0.2576
C71? C 0.497(2) 0.7592(6) 0.2979(6)
H58? H 0.4828 0.7798 0.2672
C72? C 0.514(2) 0.7819(7) 0.3482(6)
H59? H 0.5035 0.8172 0.3521
C73? C 0.5476(18) 0.7506(6) 0.3928(7)
H60? H 0.5712 0.7656 0.4264
C74? C 0.912(4) 0.5733(14) 0.7124(16)
C75? C 0.995(3) 0.6131(15) 0.7119(15)
H61? H 0.9654 0.6432 0.6940
C76? C 1.130(3) 0.6085(13) 0.7396(12)
H62? H 1.1899 0.6368 0.7381
C77? C 1.180(3) 0.5708(11) 0.7661(11)
H63? H 1.2723 0.5714 0.7833
C78? C 1.100(3) 0.5313(11) 0.7686(11)
H64? H 1.1304 0.5049 0.7921
C79? C 0.979(3) 0.5264(10) 0.7396(9)
H65? H 0.9338 0.4946 0.7359
C80? C 0.613(2) 0.5470(9) 0.6922(7)
C81? C 0.5660(19) 0.5627(8) 0.7416(7)
H66? H 0.6170 0.5862 0.7640
C82? C 0.4387(18) 0.5413(8) 0.7553(7)
H67? H 0.4093 0.5484 0.7894
C83? C 0.353(2) 0.5099(8) 0.7208(7)
H68? H 0.2656 0.4992 0.7318
C84? C 0.392(2) 0.4938(9) 0.6708(8)
H69? H 0.3388 0.4715 0.6476
C85? C 0.519(2) 0.5155(9) 0.6607(10)
H70? H 0.5483 0.5079 0.6266
loop_
_geom_bond_atom_site_label_1
_geom_bond_atom_site_label_2
_geom_bond_site_symmetry_1
_geom_bond_site_symmetry_2
N1 C47 1_555 1_555
C1 H1 1_555 1_555
C2 C1 1_555 1_555
C3 C2 1_555 1_555
C4 C3 1_555 1_555
C5 C4 1_555 1_555
C6 C5 1_555 1_555
C7 C6 1_555 1_555
H2 C7 1_555 1_555
C8 C7 1_555 1_555
H3 C8 1_555 1_555
C9 C8 1_555 1_555
C10 C9 1_555 1_555
H4 C10 1_555 1_555
C11 C6 1_555 1_555
H5 C11 1_555 1_555
C12 C13 1_555 1_555
C13 C14 1_555 1_555
C14 H6 1_555 1_555
C15 C14 1_555 1_555
C16 C15 1_555 1_555
H7 C16 1_555 1_555
C17 C12 1_555 1_555
C18 C13 1_555 1_555
H8 C18 1_555 1_555
H9 C18 1_555 1_555
H10 C18 1_555 1_555
C19 C15 1_555 1_555
H11 C19 1_555 1_555
H12 C19 1_555 1_555
H13 C19 1_555 1_555
C20 C17 1_555 1_555
H14 C20 1_555 1_555
H15 C20 1_555 1_555
H16 C20 1_555 1_555
C21 C22 1_555 1_555
C22 C23 1_555 1_555
C23 H17 1_555 1_555
C24 C23 1_555 1_555
C25 C24 1_555 1_555
H18 C25 1_555 1_555
C26 C21 1_555 1_555
C27 C22 1_555 1_555
H19 C27 1_555 1_555
H20 C27 1_555 1_555
H21 C27 1_555 1_555
C28 C24 1_555 1_555
H22 C28 1_555 1_555
H23 C28 1_555 1_555
H24 C28 1_555 1_555
C29 C26 1_555 1_555
H25 C29 1_555 1_555
H26 C29 1_555 1_555
H27 C29 1_555 1_555
C30 C2 1_555 1_555
C31 C30 1_555 1_555
H28 C31 1_555 1_555
C32 C31 1_555 1_555
H29 C32 1_555 1_555
C33 C32 1_555 1_555
C34 C33 1_555 1_555
H30 C34 1_555 1_555
C35 C30 1_555 1_555
H31 C35 1_555 1_555
C36 C33 1_555 1_555
C37 C36 1_555 1_555
C38 C37 1_555 1_555
C39 C38 1_555 1_555
H32 C39 1_555 1_555
C40 C39 1_555 1_555
H33 C40 1_555 1_555
C41 C40 1_555 1_555
H34 C41 1_555 1_555
C42 C41 1_555 1_555
H35 C42 1_555 1_555
C43 C38 1_555 1_555
H36 C43 1_555 1_555
C44 C37 1_555 1_555
C45 C44 1_555 1_555
H37 C45 1_555 1_555
C46 C45 1_555 1_555
H38 C46 1_555 1_555
C47 C46 1_555 1_555
C48 C47 1_555 1_555
H39 C48 1_555 1_555
C49 C44 1_555 1_555
H40 C49 1_555 1_555
B1 C9 1_555 1_555
C50 N1 1_555 1_555
C51 C50 1_555 1_555
H41 C51 1_555 1_555
C52 C51 1_555 1_555
H42 C52 1_555 1_555
C53 C52 1_555 1_555
H43 C53 1_555 1_555
C54 C53 1_555 1_555
H44 C54 1_555 1_555
C55 C50 1_555 1_555
H45 C55 1_555 1_555
C56 C36 1_555 1_555
C57 C56 1_555 1_555
H46 C57 1_555 1_555
C58 C57 1_555 1_555
H47 C58 1_555 1_555
C59 C58 1_555 1_555
H48 C59 1_555 1_555
C60 C59 1_555 1_555
H49 C60 1_555 1_555
C61 C56 1_555 1_555
H50 C61 1_555 1_555
C62 N1 1_555 1_555
C63 C62 1_555 1_555
H51 C63 1_555 1_555
C64 C63 1_555 1_555
H52 C64 1_555 1_555
C65 C64 1_555 1_555
H53 C65 1_555 1_555
C66 C65 1_555 1_555
H54 C66 1_555 1_555
C67 C62 1_555 1_555
H55 C67 1_555 1_555
N1B C47B 1_555 1_555
C1B C3 1_555 1_555
H1B C1B 1_555 1_555
C2B C1B 1_555 1_555
C3B C1 1_555 1_555
C4B C3B 1_555 1_555
C5B C4B 1_555 1_555
C6B C5B 1_555 1_555
C7B C6B 1_555 1_555
H2B C7B 1_555 1_555
C8B C7B 1_555 1_555
H3B C8B 1_555 1_555
C9B C8B 1_555 1_555
C10B C9B 1_555 1_555
H4B C10B 1_555 1_555
C11B C6B 1_555 1_555
H5B C11B 1_555 1_555
C12B C13B 1_555 1_555
C13B C14B 1_555 1_555
C14B H6B 1_555 1_555
C15B C14B 1_555 1_555
C16B C15B 1_555 1_555
H7B C16B 1_555 1_555
C17B C12B 1_555 1_555
C18B C13B 1_555 1_555
H8B C18B 1_555 1_555
H9B C18B 1_555 1_555
H10B C18B 1_555 1_555
C19B C15B 1_555 1_555
H11B C19B 1_555 1_555
H12B C19B 1_555 1_555
H13B C19B 1_555 1_555
C20B C17B 1_555 1_555
H14B C20B 1_555 1_555
H15B C20B 1_555 1_555
H16B C20B 1_555 1_555
C21B C22B 1_555 1_555
C22B C23B 1_555 1_555
C23B H17B 1_555 1_555
C24B C23B 1_555 1_555
C25B C24B 1_555 1_555
H18B C25B 1_555 1_555
C26B C21B 1_555 1_555
C27B C22B 1_555 1_555
H19B C27B 1_555 1_555
H20B C27B 1_555 1_555
H21B C27B 1_555 1_555
C28B C24B 1_555 1_555
H22B C28B 1_555 1_555
H23B C28B 1_555 1_555
H24B C28B 1_555 1_555
C29B C26B 1_555 1_555
H25B C29B 1_555 1_555
H26B C29B 1_555 1_555
H27B C29B 1_555 1_555
C30B C2B 1_555 1_555
C31B C30B 1_555 1_555
H28B C31B 1_555 1_555
C32B C31B 1_555 1_555
H29B C32B 1_555 1_555
C33B C32B 1_555 1_555
C34B C33B 1_555 1_555
H30B C34B 1_555 1_555
C35B C30B 1_555 1_555
H31B C35B 1_555 1_555
C36B C33B 1_555 1_555
C37B C36B 1_555 1_555
C38B C37B 1_555 1_555
C39B C38B 1_555 1_555
H32B C39B 1_555 1_555
C40B C39B 1_555 1_555
H33B C40B 1_555 1_555
C41B C40B 1_555 1_555
H34B C41B 1_555 1_555
C42B C41B 1_555 1_555
H35B C42B 1_555 1_555
C43B C38B 1_555 1_555
H36B C43B 1_555 1_555
C44B C37B 1_555 1_555
C45B C44B 1_555 1_555
H37B C45B 1_555 1_555
C46B C45B 1_555 1_555
H38B C46B 1_555 1_555
C47B C46B 1_555 1_555
C48B C47B 1_555 1_555
H39B C48B 1_555 1_555
C49B C44B 1_555 1_555
H40B C49B 1_555 1_555
B1B C9B 1_555 1_555
C50B N1B 1_555 1_555
C51B C50B 1_555 1_555
H41B C51B 1_555 1_555
C52B C51B 1_555 1_555
H42B C52B 1_555 1_555
C53B C52B 1_555 1_555
H43B C53B 1_555 1_555
C54B C53B 1_555 1_555
H44B C54B 1_555 1_555
C55B C50B 1_555 1_555
H45B C55B 1_555 1_555
C56B C36B 1_555 1_555
C57B C56B 1_555 1_555
H46B C57B 1_555 1_555
C58B C57B 1_555 1_555
H47B C58B 1_555 1_555
C59B C58B 1_555 1_555
H48B C59B 1_555 1_555
C60B C59B 1_555 1_555
H49B C60B 1_555 1_555
C61B C56B 1_555 1_555
H50B C61B 1_555 1_555
C62B N1B 1_555 1_555
C63B C62B 1_555 1_555
H51B C63B 1_555 1_555
C64B C63B 1_555 1_555
H52B C64B 1_555 1_555
C65B C64B 1_555 1_555
H53B C65B 1_555 1_555
C66B C65B 1_555 1_555
H54B C66B 1_555 1_555
C67B C62B 1_555 1_555
H55B C67B 1_555 1_555
C10 C11 1_555 1_555
C12 B1 1_555 1_555
C16 C17 1_555 1_555
C21 B1 1_555 1_555
C25 C26 1_555 1_555
C34 C35 1_555 1_555
C42 C43 1_555 1_555
C48 C49 1_555 1_555
C54 C55 1_555 1_555
C60 C61 1_555 1_555
C66 C67 1_555 1_555
C2B C3B 1_555 1_555
C10B C11B 1_555 1_555
C12B B1B 1_555 1_555
C16B C17B 1_555 1_555
C21B B1B 1_555 1_555
C25B C26B 1_555 1_555
C34B C35B 1_555 1_555
C42B C43B 1_555 1_555
C48B C49B 1_555 1_555
C54B C55B 1_555 1_555
C60B C61B 1_555 1_555
C66B C67B 1_555 1_555

#END
