
#######################################################################
#
#                 Cambridge Crystallographic Data Centre
#                                CCDC 
#
#######################################################################
#
# If this CIF has been generated from an entry in the Cambridge 
# Structural Database, then it will include bibliographic, chemical, 
# crystal, experimental, refinement or atomic coordinate data resulting 
# from the CCDC's data processing and validation procedures.
#
#######################################################################

data_OMIJEB
_chemical_formula_moiety         
'C45 H60 K1 N6 O14 1+,C33 H34 N6 O7,C12 H26 K1 O7 1+,O4 S1 2-,1.25(H2 O1)'
_chemical_name_systematic        
'Aqua-(18-crown-6)-(27,30,33,36-tetraoxa-2,4,11,13,20,22-hexa-azapentacyclo[35.2.2.2^23,26^.0^5,10^.0^14,19^]tritetraconta-1(39),5,7,9,14,16,18,23,25,37,40,42-dodecaene-3,12,21-trione)-potassium (18-crown-6)-potassium 27,30,33,36-tetraoxa-2,4,11,13,20,22-hexa-azapentacyclo[35.2.2.2^23,26^.0^5,10^.0^14,19^]tritetraconta-1(39),5,7,9,14,16,18,23,25,37,40,42-dodecaene-3,12,21-trione sulfate hydrate'
_symmetry_cell_setting           monoclinic
_symmetry_space_group_name_H-M   'P 21/c'
_symmetry_Int_Tables_number      14
_space_group_name_Hall           '-P 2ybc'
loop_
_symmetry_equiv_pos_site_id
_symmetry_equiv_pos_as_xyz
1 x,y,z
2 -x,1/2+y,1/2-z
3 -x,-y,-z
4 x,1/2-y,1/2+z
_cell_length_a                   16.6867(18)
_cell_length_b                   19.400(2)
_cell_length_c                   32.767(3)
_cell_angle_alpha                90
_cell_angle_beta                 112.755(4)
_cell_angle_gamma                90
_cell_volume                     9781.79
_exptl_crystal_colour            colorless
_exptl_crystal_description       block
_cell_formula_units_Z            4
loop_
_atom_site_label
_atom_site_type_symbol
_atom_site_fract_x
_atom_site_fract_y
_atom_site_fract_z
K1 K 0.29470(4) 0.74811(3) 0.55068(2)
O1 O 0.27045(12) 0.88500(10) 0.51189(6)
O2 O 0.21415(13) 0.85476(10) 0.57986(6)
O3 O 0.18083(13) 0.71658(11) 0.59278(7)
O4 O 0.26506(14) 0.60971(12) 0.56802(9)
O5 O 0.30523(14) 0.64277(12) 0.49462(9)
O6 O 0.34792(13) 0.78087(12) 0.48214(7)
O7 O 0.46996(14) 0.73466(14) 0.58601(8)
C1 C 0.2637(2) 0.93653(15) 0.54124(11)
H1 H 0.2518 0.9819 0.5263
H2 H 0.3188 0.9397 0.5676
C2 C 0.1907(2) 0.91671(16) 0.55478(11)
H3 H 0.1802 0.9539 0.5728
H4 H 0.1368 0.9096 0.5282
C3 C 0.1490(2) 0.83502(17) 0.59557(11)
H5 H 0.0932 0.8273 0.5703
H6 H 0.1406 0.8720 0.6143
C4 C 0.1774(2) 0.77038(19) 0.62181(11)
H7 H 0.2355 0.7770 0.6457
H8 H 0.1359 0.7581 0.6355
C5 C 0.2001(2) 0.65222(19) 0.61562(13)
H9 H 0.1569 0.6423 0.6287
H10 H 0.2585 0.6540 0.6398
C6 C 0.1977(2) 0.59791(19) 0.58385(15)
H11 H 0.2058 0.5523 0.5984
H12 H 0.1405 0.5982 0.5587
C7 C 0.2649(3) 0.5601(2) 0.53637(17)
H13 H 0.2067 0.5580 0.5121
H14 H 0.2784 0.5140 0.5504
C8 C 0.3309(3) 0.5791(2) 0.51833(17)
H15 H 0.3885 0.5844 0.5428
H16 H 0.3351 0.5424 0.4982
C9 C 0.3618(2) 0.6608(2) 0.47298(14)
H17 H 0.3597 0.6246 0.4513
H18 H 0.4223 0.6640 0.4950
C10 C 0.3350(2) 0.7280(2) 0.44993(12)
H19 H 0.3699 0.7379 0.4321
H20 H 0.2730 0.7262 0.4297
C11 C 0.33530(19) 0.84770(19) 0.46325(10)
H21 H 0.2781 0.8502 0.4383
H22 H 0.3809 0.8577 0.4518
C12 C 0.33937(19) 0.89946(17) 0.49772(10)
H23 H 0.3960 0.8964 0.5231
H24 H 0.3330 0.9466 0.4853
H25 H 0.494(3) 0.764(2) 0.5736(15)
H26 H 0.511(2) 0.7088(19) 0.6026(12)
K2 K 1.10767(4) 0.74932(3) 0.82801(2)
O8 O 0.92316(11) 0.96118(9) 0.90589(6)
O9 O 0.93647(12) 0.75575(10) 0.77674(6)
O10 O 0.91322(11) 0.53499(9) 0.90441(6)
O11 O 0.86040(12) 0.58203(10) 1.09100(6)
O12 O 0.94302(12) 0.68580(10) 1.17110(6)
O13 O 0.87616(14) 0.82518(11) 1.15310(6)
O14 O 0.99016(12) 0.82405(10) 1.09899(6)
O15 O 1.15103(14) 0.62141(11) 0.87741(7)
O16 O 1.02068(14) 0.70433(12) 0.88722(7)
O17 O 1.07467(16) 0.84391(13) 0.88830(8)
O18 O 1.21640(16) 0.87748(13) 0.86563(8)
O19 O 1.27151(14) 0.77358(13) 0.82333(8)
O20 O 1.20115(14) 0.64098(13) 0.80577(7)
O21 O 1.09135(18) 0.80551(16) 0.75106(9)
N1 N 0.83778(13) 0.87656(11) 0.91733(7)
H27 H 0.7907 0.8518 0.9039
N2 N 0.81125(13) 0.91320(11) 0.84721(7)
H28 H 0.7586 0.8961 0.8396
N3 N 0.82884(14) 0.81344(11) 0.79024(7)
H29 H 0.7834 0.8074 0.7972
N4 N 0.82768(14) 0.69656(11) 0.78773(7)
H30 H 0.7799 0.7015 0.7928
N5 N 0.81857(13) 0.59808(11) 0.84652(7)
H31 H 0.7713 0.6235 0.8386
N6 N 0.82854(14) 0.61991(11) 0.91629(7)
H32 H 0.7972 0.6562 0.9036
C13 C 0.95371(16) 0.84217(14) 1.05467(8)
C14 C 0.95445(17) 0.90845(14) 1.03868(8)
H33 H 0.9798 0.9452 1.0587
C15 C 0.91795(16) 0.92097(14) 0.99328(8)
H34 H 0.9185 0.9663 0.9825
C16 C 0.88074(16) 0.86754(14) 0.96366(8)
C17 C 0.88164(16) 0.80125(14) 0.98019(8)
H35 H 0.8572 0.7642 0.9603
C18 C 0.91763(16) 0.78870(14) 1.02520(8)
H36 H 0.9177 0.7432 1.0360
C19 C 0.86278(16) 0.92045(13) 0.89134(8)
C20 C 0.84083(16) 0.93256(14) 0.81343(8)
C21 C 0.85744(18) 1.00105(14) 0.80755(9)
H37 H 0.8466 1.0357 0.8253
C22 C 0.88991(19) 1.01945(15) 0.77583(9)
H38 H 0.9016 1.0664 0.7719
C23 C 0.90503(19) 0.96883(16) 0.75009(9)
H39 H 0.9287 0.9811 0.7290
C24 C 0.88623(18) 0.90057(15) 0.75448(9)
H40 H 0.8957 0.8664 0.7361
C25 C 0.85316(16) 0.88199(14) 0.78614(8)
C26 C 0.87025(17) 0.75534(14) 0.78425(8)
C27 C 0.85467(16) 0.62858(14) 0.78383(8)
C28 C 0.88402(18) 0.61039(15) 0.75091(9)
H41 H 0.8893 0.6444 0.7313
C29 C 0.90547(18) 0.54231(15) 0.74691(9)
H42 H 0.9262 0.5301 0.7247
C30 C 0.89703(17) 0.49225(15) 0.77487(9)
H43 H 0.9110 0.4457 0.7715
C31 C 0.86806(16) 0.51002(14) 0.80791(8)
H44 H 0.8617 0.4755 0.8270
C32 C 0.84834(15) 0.57815(13) 0.81308(8)
C33 C 0.85828(16) 0.58055(13) 0.89021(8)
C34 C 0.84232(16) 0.60888(13) 0.96110(8)
C35 C 0.91425(17) 0.57420(13) 0.99135(8)
H45 H 0.9577 0.5566 0.9822
C36 C 0.92224(17) 0.56533(14) 1.03494(8)
H46 H 0.9708 0.5411 1.0553
C37 C 0.85964(17) 0.59170(13) 1.04885(8)
C38 C 0.78900(16) 0.62754(14) 1.01919(8)
H47 H 0.7467 0.6465 1.0287
C39 C 0.78034(16) 0.63558(13) 0.97573(8)
H48 H 0.7315 0.6596 0.9555
C40 C 0.94412(18) 0.58329(15) 1.12740(8)
H49 H 0.9868 0.5585 1.1186
H50 H 0.9398 0.5586 1.1529
C41 C 0.97676(17) 0.65521(14) 1.14153(8)
H51 H 1.0410 0.6540 1.1560
H52 H 0.9611 0.6846 1.1149
C42 C 0.85296(18) 0.70471(15) 1.15254(9)
H53 H 0.8327 0.7118 1.1769
H54 H 0.8191 0.6661 1.1341
C43 C 0.83495(19) 0.76865(15) 1.12486(9)
H55 H 0.8581 0.7637 1.1014
H56 H 0.7715 0.7767 1.1106
C44 C 0.8996(2) 0.88137(15) 1.13245(9)
H57 H 0.8983 0.9242 1.1486
H58 H 0.8557 0.8861 1.1019
C45 C 0.9877(2) 0.87435(16) 1.13071(9)
H59 H 1.0057 0.9196 1.1231
H60 H 1.0301 0.8611 1.1604
C46 C 1.0957(2) 0.59891(17) 0.89828(11)
H61 H 1.1254 0.5633 0.9206
H62 H 1.0423 0.5784 0.8761
C47 C 1.0723(2) 0.65967(17) 0.92028(10)
H63 H 1.0401 0.6438 0.9384
H64 H 1.1257 0.6836 0.9399
C48 C 0.9873(2) 0.76026(18) 0.90409(11)
H65 H 0.9694 0.7429 0.9277
H66 H 0.9349 0.7788 0.8801
C49 C 1.0528(2) 0.8182(2) 0.92262(11)
H67 H 1.0274 0.8553 0.9346
H68 H 1.1054 0.8006 0.9469
C50 C 1.1176(3) 0.90773(18) 0.89888(13)
H69 H 1.1660 0.9050 0.9282
H70 H 1.0767 0.9438 0.9002
C51 C 1.1526(3) 0.9261(2) 0.86382(15)
H71 H 1.1049 0.9255 0.8341
H72 H 1.1782 0.9729 0.8693
C52 C 1.2535(2) 0.89351(19) 0.83392(12)
H73 H 1.2833 0.9387 0.8409
H74 H 1.2074 0.8958 0.8038
C53 C 1.3181(2) 0.83679(19) 0.83619(12)
H75 H 1.3480 0.8476 0.8161
H76 H 1.3625 0.8329 0.8667
C54 C 1.3213(2) 0.7198(2) 0.81562(12)
H77 H 1.3590 0.6984 0.8440
H78 H 1.3587 0.7382 0.8009
C55 C 1.2591(2) 0.6673(2) 0.78641(12)
H79 H 1.2246 0.6886 0.7575
H80 H 1.2925 0.6286 0.7811
C56 C 1.2392(2) 0.59029(19) 0.83764(12)
H81 H 1.2907 0.6092 0.8620
H82 H 1.2582 0.5509 0.8243
C57 C 1.1724(2) 0.56685(17) 0.85512(12)
H83 H 1.1196 0.5510 0.8303
H84 H 1.1958 0.5277 0.8757
S1 S 0.67000(4) 0.75083(3) 0.836733(19)
O22 O 0.58964(11) 0.75115(9) 0.84587(6)
O23 O 0.66995(11) 0.68937(9) 0.80992(6)
O24 O 0.74708(12) 0.74974(9) 0.87842(6)
O25 O 0.67062(11) 0.81341(9) 0.81087(6)
O26 O 0.46587(14) 0.53938(11) 0.86570(7)
O27 O 0.35776(12) 0.74386(10) 0.71785(6)
O28 O 0.47022(13) 0.96626(10) 0.86089(6)
O29 O 0.67324(12) 0.88703(11) 1.07276(6)
O30 O 0.62783(12) 0.83265(11) 1.14420(6)
O31 O 0.65311(13) 0.69092(11) 1.15166(6)
O32 O 0.56166(12) 0.64792(10) 1.06593(6)
N7 N 0.54445(14) 0.63788(12) 0.89249(7)
H85 H 0.5731 0.6710 0.8856
N8 N 0.49560(14) 0.61433(12) 0.81877(7)
H86 H 0.5224 0.6535 0.8189
N9 N 0.48812(14) 0.68759(11) 0.74465(7)
H87 H 0.5450 0.6918 0.7548
N10 N 0.48370(13) 0.80634(11) 0.74303(7)
H88 H 0.5408 0.8049 0.7534
N11 N 0.49604(13) 0.88683(11) 0.81474(7)
H89 H 0.5229 0.8475 0.8156
N12 N 0.56555(14) 0.87666(12) 0.88913(7)
H90 H 0.5905 0.8421 0.8812
C58 C 0.56191(16) 0.64123(15) 1.02398(9)
C59 C 0.56066(17) 0.57855(15) 1.00361(9)
H91 H 0.5640 0.5369 1.0195
C60 C 0.55459(17) 0.57597(14) 0.96016(9)
H92 H 0.5543 0.5327 0.9466
C61 C 0.54895(16) 0.63655(14) 0.93642(9)
C62 C 0.55126(17) 0.69895(15) 0.95737(9)
H93 H 0.5477 0.7407 0.9416
C63 C 0.55863(17) 0.70170(15) 1.00086(9)
H94 H 0.5614 0.7450 1.0149
C64 C 0.49916(17) 0.59197(14) 0.85920(9)
C65 C 0.45485(16) 0.58295(14) 0.77727(9)
C66 C 0.41888(17) 0.51671(15) 0.77152(10)
H95 H 0.4219 0.4903 0.7965
C67 C 0.37877(18) 0.48967(15) 0.72915(10)
H96 H 0.3533 0.4451 0.7254
C68 C 0.37519(18) 0.52613(16) 0.69245(10)
H97 H 0.3478 0.5068 0.6637
C69 C 0.41191(18) 0.59134(15) 0.69779(10)
H98 H 0.4104 0.6164 0.6726
C70 C 0.45085(16) 0.62027(14) 0.73970(9)
C71 C 0.43780(16) 0.74567(14) 0.73406(8)
C72 C 0.44103(15) 0.87170(14) 0.73586(8)
C73 C 0.39422(17) 0.89461(15) 0.69291(9)
H99 H 0.3902 0.8665 0.6685
C74 C 0.35345(18) 0.95838(15) 0.68572(9)
H100 H 0.3209 0.9738 0.6564
C75 C 0.36045(17) 0.99928(15) 0.72147(9)
H101 H 0.3333 1.0433 0.7165
C76 C 0.40666(16) 0.97699(14) 0.76458(9)
H102 H 0.4106 1.0056 0.7888
C77 C 0.44724(15) 0.91279(14) 0.77230(8)
C78 C 0.50736(17) 0.91488(14) 0.85525(8)
C79 C 0.59024(16) 0.88601(13) 0.93517(8)
C80 C 0.54119(17) 0.92152(14) 0.95434(9)
H103 H 0.4894 0.9444 0.9361
C81 C 0.56804(17) 0.92353(14) 1.00027(9)
H104 H 0.5344 0.9481 1.0131
C82 C 0.64331(17) 0.89014(14) 1.02744(8)
C83 C 0.69318(17) 0.85569(14) 1.00816(9)
H105 H 0.7455 0.8334 1.0264
C84 C 0.66679(16) 0.85396(14) 0.96288(8)
H106 H 0.7015 0.8304 0.9502
C85 C 0.62528(19) 0.92220(16) 1.09461(9)
H107 H 0.5628 0.9106 1.0803
H108 H 0.6317 0.9727 1.0927
C86 C 0.66072(19) 0.89965(15) 1.14209(9)
H109 H 0.7250 0.8986 1.1539
H110 H 0.6426 0.9323 1.1601
C87 C 0.67142(19) 0.80028(16) 1.18601(9)
H111 H 0.6624 0.8273 1.2095
H112 H 0.7346 0.7982 1.1929
C88 C 0.6360(2) 0.72862(17) 1.18444(9)
H113 H 0.6642 0.7060 1.2136
H114 H 0.5727 0.7305 1.1771
C89 C 0.6126(2) 0.62500(16) 1.14278(10)
H115 H 0.5522 0.6285 1.1411
H116 H 0.6449 0.5924 1.1668
C90 C 0.6126(2) 0.59973(16) 1.09936(9)
H117 H 0.6727 0.5976 1.1005
H118 H 0.5868 0.5531 1.0927
O33 O 0.22651(14) 0.83915(12) 0.71947(7)
H119 H 0.1776 0.8538 0.7252
H120 H 0.2833 0.8532 0.7384
O34 O 0.4370(12) 0.5970(11) 0.6067(6)
O35? O 1.0535(15) 0.7176(13) 0.7336(8)
loop_
_geom_bond_atom_site_label_1
_geom_bond_atom_site_label_2
_geom_bond_site_symmetry_1
_geom_bond_site_symmetry_2
K1 O1 1_555 1_555
O1 C1 1_555 1_555
O2 K1 1_555 1_555
O3 K1 1_555 1_555
O4 K1 1_555 1_555
O5 K1 1_555 1_555
O6 K1 1_555 1_555
O7 K1 1_555 1_555
C1 H1 1_555 1_555
H2 C1 1_555 1_555
C2 O2 1_555 1_555
H3 C2 1_555 1_555
H4 C2 1_555 1_555
C3 O2 1_555 1_555
H5 C3 1_555 1_555
H6 C3 1_555 1_555
C4 O3 1_555 1_555
H7 C4 1_555 1_555
H8 C4 1_555 1_555
C5 O3 1_555 1_555
H9 C5 1_555 1_555
H10 C5 1_555 1_555
C6 O4 1_555 1_555
H11 C6 1_555 1_555
H12 C6 1_555 1_555
C7 O4 1_555 1_555
H13 C7 1_555 1_555
H14 C7 1_555 1_555
C8 O5 1_555 1_555
H15 C8 1_555 1_555
H16 C8 1_555 1_555
C9 O5 1_555 1_555
H17 C9 1_555 1_555
H18 C9 1_555 1_555
C10 O6 1_555 1_555
H19 C10 1_555 1_555
H20 C10 1_555 1_555
C11 O6 1_555 1_555
H21 C11 1_555 1_555
H22 C11 1_555 1_555
C12 O1 1_555 1_555
H23 C12 1_555 1_555
H24 C12 1_555 1_555
H25 O7 1_555 1_555
H26 O7 1_555 1_555
K2 O9 1_555 1_555
O8 C19 1_555 1_555
O9 C26 1_555 1_555
O10 C33 1_555 1_555
O11 C37 1_555 1_555
O12 C41 1_555 1_555
O13 C43 1_555 1_555
O14 C13 1_555 1_555
O15 K2 1_555 1_555
O16 K2 1_555 1_555
O17 K2 1_555 1_555
O18 K2 1_555 1_555
O19 K2 1_555 1_555
O20 K2 1_555 1_555
O21 K2 1_555 1_555
N1 H27 1_555 1_555
N2 H28 1_555 1_555
N3 H29 1_555 1_555
N4 H30 1_555 1_555
N5 H31 1_555 1_555
N6 H32 1_555 1_555
C13 C14 1_555 1_555
C14 H33 1_555 1_555
C15 C14 1_555 1_555
H34 C15 1_555 1_555
C16 N1 1_555 1_555
C17 C16 1_555 1_555
H35 C17 1_555 1_555
C18 C13 1_555 1_555
H36 C18 1_555 1_555
C19 N1 1_555 1_555
C20 N2 1_555 1_555
C21 C20 1_555 1_555
H37 C21 1_555 1_555
C22 C21 1_555 1_555
H38 C22 1_555 1_555
C23 C22 1_555 1_555
H39 C23 1_555 1_555
C24 C23 1_555 1_555
H40 C24 1_555 1_555
C25 N3 1_555 1_555
C26 N3 1_555 1_555
C27 N4 1_555 1_555
C28 C27 1_555 1_555
H41 C28 1_555 1_555
C29 C28 1_555 1_555
H42 C29 1_555 1_555
C30 C29 1_555 1_555
H43 C30 1_555 1_555
C31 C30 1_555 1_555
H44 C31 1_555 1_555
C32 N5 1_555 1_555
C33 N5 1_555 1_555
C34 N6 1_555 1_555
C35 C34 1_555 1_555
H45 C35 1_555 1_555
C36 C35 1_555 1_555
H46 C36 1_555 1_555
C37 C36 1_555 1_555
C38 C37 1_555 1_555
H47 C38 1_555 1_555
C39 C34 1_555 1_555
H48 C39 1_555 1_555
C40 O11 1_555 1_555
H49 C40 1_555 1_555
H50 C40 1_555 1_555
C41 C40 1_555 1_555
H51 C41 1_555 1_555
H52 C41 1_555 1_555
C42 O12 1_555 1_555
H53 C42 1_555 1_555
H54 C42 1_555 1_555
C43 C42 1_555 1_555
H55 C43 1_555 1_555
H56 C43 1_555 1_555
C44 O13 1_555 1_555
H57 C44 1_555 1_555
H58 C44 1_555 1_555
C45 O14 1_555 1_555
H59 C45 1_555 1_555
H60 C45 1_555 1_555
C46 O15 1_555 1_555
H61 C46 1_555 1_555
H62 C46 1_555 1_555
C47 O16 1_555 1_555
H63 C47 1_555 1_555
H64 C47 1_555 1_555
C48 O16 1_555 1_555
H65 C48 1_555 1_555
H66 C48 1_555 1_555
C49 O17 1_555 1_555
H67 C49 1_555 1_555
H68 C49 1_555 1_555
C50 O17 1_555 1_555
H69 C50 1_555 1_555
H70 C50 1_555 1_555
C51 O18 1_555 1_555
H71 C51 1_555 1_555
H72 C51 1_555 1_555
C52 O18 1_555 1_555
H73 C52 1_555 1_555
H74 C52 1_555 1_555
C53 O19 1_555 1_555
H75 C53 1_555 1_555
H76 C53 1_555 1_555
C54 O19 1_555 1_555
H77 C54 1_555 1_555
H78 C54 1_555 1_555
C55 O20 1_555 1_555
H79 C55 1_555 1_555
H80 C55 1_555 1_555
C56 O20 1_555 1_555
H81 C56 1_555 1_555
H82 C56 1_555 1_555
C57 O15 1_555 1_555
H83 C57 1_555 1_555
H84 C57 1_555 1_555
S1 O22 1_555 1_555
O23 S1 1_555 1_555
O24 S1 1_555 1_555
O25 S1 1_555 1_555
O26 C64 1_555 1_555
O27 C71 1_555 1_555
O28 C78 1_555 1_555
O29 C82 1_555 1_555
O30 C86 1_555 1_555
O31 C88 1_555 1_555
O32 C58 1_555 1_555
N7 H85 1_555 1_555
N8 H86 1_555 1_555
N9 H87 1_555 1_555
N10 H88 1_555 1_555
N11 H89 1_555 1_555
N12 H90 1_555 1_555
C58 C59 1_555 1_555
C59 H91 1_555 1_555
C60 C59 1_555 1_555
H92 C60 1_555 1_555
C61 N7 1_555 1_555
C62 C61 1_555 1_555
H93 C62 1_555 1_555
C63 C58 1_555 1_555
H94 C63 1_555 1_555
C64 N7 1_555 1_555
C65 N8 1_555 1_555
C66 C65 1_555 1_555
H95 C66 1_555 1_555
C67 C66 1_555 1_555
H96 C67 1_555 1_555
C68 C67 1_555 1_555
H97 C68 1_555 1_555
C69 C68 1_555 1_555
H98 C69 1_555 1_555
C70 N9 1_555 1_555
C71 N9 1_555 1_555
C72 N10 1_555 1_555
C73 C72 1_555 1_555
H99 C73 1_555 1_555
C74 C73 1_555 1_555
H100 C74 1_555 1_555
C75 C74 1_555 1_555
H101 C75 1_555 1_555
C76 C75 1_555 1_555
H102 C76 1_555 1_555
C77 N11 1_555 1_555
C78 N11 1_555 1_555
C79 N12 1_555 1_555
C80 C79 1_555 1_555
H103 C80 1_555 1_555
C81 C80 1_555 1_555
H104 C81 1_555 1_555
C82 C81 1_555 1_555
C83 C82 1_555 1_555
H105 C83 1_555 1_555
C84 C79 1_555 1_555
H106 C84 1_555 1_555
C85 O29 1_555 1_555
H107 C85 1_555 1_555
H108 C85 1_555 1_555
C86 C85 1_555 1_555
H109 C86 1_555 1_555
H110 C86 1_555 1_555
C87 O30 1_555 1_555
H111 C87 1_555 1_555
H112 C87 1_555 1_555
C88 C87 1_555 1_555
H113 C88 1_555 1_555
H114 C88 1_555 1_555
C89 O31 1_555 1_555
H115 C89 1_555 1_555
H116 C89 1_555 1_555
C90 O32 1_555 1_555
H117 C90 1_555 1_555
H118 C90 1_555 1_555
O33 H119 1_555 1_555
H120 O33 1_555 1_555
C1 C2 1_555 1_555
C3 C4 1_555 1_555
C5 C6 1_555 1_555
C7 C8 1_555 1_555
C9 C10 1_555 1_555
C11 C12 1_555 1_555
N2 C19 1_555 1_555
N4 C26 1_555 1_555
N6 C33 1_555 1_555
C15 C16 1_555 1_555
C17 C18 1_555 1_555
C20 C25 1_555 1_555
C24 C25 1_555 1_555
C27 C32 1_555 1_555
C31 C32 1_555 1_555
C38 C39 1_555 1_555
C44 C45 1_555 1_555
C46 C47 1_555 1_555
C48 C49 1_555 1_555
C50 C51 1_555 1_555
C52 C53 1_555 1_555
C54 C55 1_555 1_555
C56 C57 1_555 1_555
N8 C64 1_555 1_555
N10 C71 1_555 1_555
N12 C78 1_555 1_555
C60 C61 1_555 1_555
C62 C63 1_555 1_555
C65 C70 1_555 1_555
C69 C70 1_555 1_555
C72 C77 1_555 1_555
C76 C77 1_555 1_555
C83 C84 1_555 1_555
C89 C90 1_555 1_555

#END
