
#######################################################################
#
#                 Cambridge Crystallographic Data Centre
#                                CCDC 
#
#######################################################################
#
# If this CIF has been generated from an entry in the Cambridge 
# Structural Database, then it will include bibliographic, chemical, 
# crystal, experimental, refinement or atomic coordinate data resulting 
# from the CCDC's data processing and validation procedures.
#
#######################################################################

data_OMIJAX
_chemical_formula_moiety         
'C39 H46 N6 O10,0.5(C16 H36 N1 1+),C6 H11 N2 1+,0.5(C4 H10 O1),C3 H6 O1,0.5(O4 P1 3-)'
_chemical_name_systematic        
'27,30,33,36,39,42,45-Heptaoxa-2,4,11,13,20,22-hexa-azapentacyclo[44.2.2.2^23,26^.0^5,10^.0^14,19^]dopentaconta-1(48),5,7,9,14,16,18,23,25,46,49,51-dodecaene-3,12,21-trione hemikis(tetra-n-butylammonium) 1-ethyl-3-methylimidazolium hemikis(phosphate) acetone diethyl ether solvate'
_symmetry_cell_setting           triclinic
_symmetry_space_group_name_H-M   'P -1'
_symmetry_Int_Tables_number      2
_space_group_name_Hall           '-P 1'
loop_
_symmetry_equiv_pos_site_id
_symmetry_equiv_pos_as_xyz
1 x,y,z
2 -x,-y,-z
_cell_length_a                   14.782(2)
_cell_length_b                   19.415(3)
_cell_length_c                   21.552(3)
_cell_angle_alpha                85.538(2)
_cell_angle_beta                 85.989(2)
_cell_angle_gamma                89.867(2)
_cell_volume                     6151.38
_exptl_crystal_colour            'light yellow'
_exptl_crystal_description       block
_cell_formula_units_Z            4
loop_
_atom_site_label
_atom_site_type_symbol
_atom_site_fract_x
_atom_site_fract_y
_atom_site_fract_z
C1 C 0.8228(4) 0.1024(3) 0.2638(3)
C2 C 0.8512(4) 0.0884(3) 0.1547(3)
C3 C 0.8368(5) 0.0240(4) 0.1357(4)
H1 H 0.8526 -0.0157 0.1613
C4 C 0.7998(5) 0.0160(4) 0.0797(4)
H2 H 0.7903 -0.0290 0.0668
C5 C 0.7768(6) 0.0725(5) 0.0427(4)
H3 H 0.7513 0.0667 0.0042
C6 C 0.7904(5) 0.1384(4) 0.0608(3)
H4 H 0.7743 0.1777 0.0350
C7 C 0.8282(4) 0.1462(4) 0.1177(3)
C8 C 0.7968(4) 0.2695(4) 0.1289(3)
C9 C 0.7965(4) 0.3915(4) 0.1573(3)
C10 C 0.7321(5) 0.4191(4) 0.1182(4)
H5 H 0.7025 0.3902 0.0923
C11 C 0.7115(5) 0.4890(4) 0.1175(4)
H6 H 0.6686 0.5080 0.0901
C12 C 0.7524(5) 0.5311(4) 0.1560(4)
C13 C 0.8128(5) 0.5035(4) 0.1983(4)
H7 H 0.8387 0.5318 0.2264
C14 C 0.8341(5) 0.4340(4) 0.1985(4)
H8 H 0.8751 0.4147 0.2271
C15 C 0.7889(10) 0.6430(6) 0.1241(7)
H9 H 0.7989 0.6296 0.0808
H10 H 0.8476 0.6392 0.1436
C16 C 0.7575(8) 0.7165(5) 0.1229(6)
H11 H 0.7572 0.7358 0.0790
H12 H 0.6945 0.7178 0.1418
C17 C 0.7839(11) 0.8264(7) 0.1520(7)
H13 H 0.7465 0.8397 0.1167
H14 H 0.8408 0.8536 0.1456
C18 C 0.7336(10) 0.8451(7) 0.2117(7)
H15 H 0.7262 0.8958 0.2113
H16 H 0.6726 0.8235 0.2160
C19 C 0.728(2) 0.8368(16) 0.3145(14)
H17 H 0.6676 0.8502 0.3011
H18 H 0.7204 0.7930 0.3412
C20 C 0.7517(12) 0.8801(9) 0.3474(8)
H19 H 0.7265 0.8622 0.3892
H20 H 0.7126 0.9198 0.3355
C21 C 0.8876(8) 0.9358(6) 0.3160(5)
H21 H 0.8562 0.9712 0.2898
H22 H 0.9039 0.8977 0.2894
C22 C 0.9703(8) 0.9660(5) 0.3317(5)
H23 H 0.9561 1.0038 0.3590
H24 H 1.0037 0.9861 0.2931
C23 C 1.0899(8) 0.8859(5) 0.3227(5)
H25 H 1.1321 0.9217 0.3023
H26 H 1.0584 0.8648 0.2897
C24 C 1.1446(8) 0.8291(5) 0.3599(5)
H27 H 1.2017 0.8182 0.3358
H28 H 1.1596 0.8449 0.4005
C25 C 1.1195(7) 0.7217(4) 0.4159(4)
H29 H 1.1163 0.7425 0.4565
H30 H 1.1836 0.7103 0.4046
C26 C 1.0629(7) 0.6579(4) 0.4207(4)
H31 H 1.0724 0.6303 0.4602
H32 H 0.9979 0.6704 0.4205
C27 C 1.0452(6) 0.5560(4) 0.3671(4)
C28 C 0.9772(7) 0.5304(4) 0.4095(4)
H33 H 0.9568 0.5570 0.4429
C29 C 0.9380(6) 0.4665(4) 0.4047(4)
H34 H 0.8910 0.4501 0.4345
C30 C 0.9667(5) 0.4260(4) 0.3564(3)
C31 C 1.0357(6) 0.4528(4) 0.3139(3)
H35 H 1.0567 0.4263 0.2806
C32 C 1.0743(6) 0.5163(4) 0.3187(4)
H36 H 1.1209 0.5331 0.2889
C33 C 0.8794(5) 0.3195(4) 0.3901(3)
C34 C 0.8023(4) 0.2054(4) 0.3958(3)
C35 C 0.7479(6) 0.2137(4) 0.4506(4)
H37 H 0.7493 0.2561 0.4699
C36 C 0.6915(6) 0.1598(5) 0.4772(4)
H38 H 0.6547 0.1657 0.5143
C37 C 0.6894(5) 0.0976(4) 0.4495(4)
H39 H 0.6512 0.0610 0.4674
C38 C 0.7434(5) 0.0897(4) 0.3956(3)
H40 H 0.7418 0.0474 0.3764
C39 C 0.7997(4) 0.1425(4) 0.3690(3)
N1 N 0.8543(3) 0.1334(3) 0.3132(2)
H41 H 0.9107 0.1484 0.3103
N2 N 0.8860(3) 0.0969(3) 0.2138(2)
H42 H 0.9447 0.0986 0.2182
N3 N 0.8473(4) 0.2120(3) 0.1377(2)
H43 H 0.8967 0.2158 0.1578
N4 N 0.8281(4) 0.3232(3) 0.1587(3)
H44 H 0.8740 0.3138 0.1818
N5 N 0.9312(4) 0.3611(3) 0.3483(3)
H45 H 0.9439 0.3451 0.3116
N6 N 0.8579(4) 0.2586(3) 0.3667(3)
H46 H 0.8817 0.2520 0.3290
O1 O 0.7320(4) 0.6009(3) 0.1544(4)
O2 O 0.8061(9) 0.7524(4) 0.1512(5)
O3 O 0.7824(7) 0.8217(6) 0.2601(5)
O4 O 0.8289(6) 0.9114(4) 0.3602(4)
O5 O 1.0268(5) 0.9161(3) 0.3630(3)
O6 O 1.0862(5) 0.7693(3) 0.3690(3)
O7 O 1.0882(4) 0.6185(3) 0.3688(2)
O8 O 0.8575(4) 0.3339(3) 0.4437(2)
O9 O 0.7450(3) 0.0810(2) 0.2633(2)
O10 O 0.7296(3) 0.2735(3) 0.0971(2)
C40 C 0.2204(4) 0.0944(3) 0.2329(3)
C41 C 0.2054(5) 0.0983(3) 0.3450(3)
C42 C 0.1995(6) 0.0399(4) 0.3846(4)
H47 H 0.1697 0.0003 0.3724
C43 C 0.2358(7) 0.0372(5) 0.4420(5)
H48 H 0.2319 -0.0041 0.4688
C44 C 0.2779(6) 0.0950(5) 0.4601(4)
H49 H 0.3023 0.0939 0.4998
C45 C 0.2844(5) 0.1540(4) 0.4210(3)
H50 H 0.3144 0.1934 0.4334
C46 C 0.2475(5) 0.1570(4) 0.3634(3)
C47 C 0.3021(5) 0.2751(3) 0.3223(3)
C48 C 0.3130(5) 0.3922(3) 0.2659(3)
C49 C 0.3958(5) 0.4139(4) 0.2833(4)
H51 H 0.4288 0.3850 0.3112
C50 C 0.4306(6) 0.4773(4) 0.2606(5)
H52 H 0.4870 0.4923 0.2734
C51 C 0.3830(6) 0.5197(4) 0.2187(5)
C52 C 0.3001(5) 0.4996(4) 0.2032(4)
H53 H 0.2666 0.5287 0.1757
C53 C 0.2647(5) 0.4370(4) 0.2274(4)
H54 H 0.2057 0.4241 0.2176
C54 C 0.4980(11) 0.5900(8) 0.1700(8)
H55 H 0.5157 0.5461 0.1521
H56 H 0.5372 0.5958 0.2047
C55 C 0.5202(11) 0.6489(8) 0.1196(8)
H57 H 0.5863 0.6582 0.1154
H58 H 0.5009 0.6365 0.0788
C56 C 0.4826(11) 0.7615(8) 0.0819(9)
H59 H 0.4332 0.7592 0.0534
H60 H 0.5425 0.7617 0.0582
C57 C 0.4695(11) 0.8290(9) 0.1311(9)
H61 H 0.4929 0.8171 0.1726
H62 H 0.4971 0.8727 0.1122
C58 C 0.3449(9) 0.8895(8) 0.1693(7)
H63 H 0.3625 0.9328 0.1441
H64 H 0.3788 0.8860 0.2074
C59 C 0.2457(9) 0.8871(7) 0.1853(7)
H65 H 0.2295 0.8417 0.2074
H66 H 0.2293 0.9232 0.2140
C60 C 0.1038(6) 0.9204(4) 0.1477(4)
H67 H 0.0717 0.8844 0.1759
H68 H 0.1071 0.9626 0.1704
C61 C 0.0535(6) 0.9350(5) 0.0941(5)
H69 H 0.0024 0.9662 0.1042
H70 H 0.0930 0.9582 0.0598
C62 C -0.0113(6) 0.8791(4) 0.0140(4)
H71 H 0.0394 0.8947 -0.0163
H72 H -0.0595 0.9145 0.0122
C63 C -0.0467(6) 0.8134(4) -0.0030(4)
H73 H -0.1027 0.8014 0.0235
H74 H -0.0628 0.8186 -0.0470
C64 C -0.0130(5) 0.7005(4) -0.0252(4)
H75 H -0.0168 0.7126 -0.0704
H76 H -0.0741 0.6861 -0.0072
C65 C 0.0521(6) 0.6424(4) -0.0155(3)
H77 H 0.0424 0.6066 -0.0446
H78 H 0.1154 0.6594 -0.0229
C66 C 0.0727(6) 0.5506(4) 0.0612(4)
C67 C 0.1380(6) 0.5203(4) 0.0242(4)
H79 H 0.1600 0.5444 -0.0139
C68 C 0.1733(6) 0.4554(4) 0.0405(4)
H80 H 0.2202 0.4364 0.0147
C69 C 0.1386(5) 0.4184(4) 0.0956(3)
C70 C 0.0714(5) 0.4490(3) 0.1329(3)
H81 H 0.0472 0.4245 0.1702
C71 C 0.0395(5) 0.5143(4) 0.1166(3)
H82 H -0.0053 0.5346 0.1431
C72 C 0.2173(5) 0.3070(4) 0.0808(3)
C73 C 0.2577(4) 0.1834(3) 0.0882(3)
C74 C 0.3112(5) 0.1833(4) 0.0318(3)
H83 H 0.3256 0.2258 0.0083
C75 C 0.3429(5) 0.1222(4) 0.0100(4)
H84 H 0.3801 0.1233 -0.0278
C76 C 0.3215(5) 0.0602(4) 0.0418(4)
H85 H 0.3426 0.0183 0.0259
C77 C 0.2696(5) 0.0592(4) 0.0968(4)
H86 H 0.2550 0.0161 0.1192
C78 C 0.2375(4) 0.1197(3) 0.1207(3)
N7 N 0.1840(4) 0.1181(3) 0.1792(3)
H87 H 0.1275 0.1325 0.1802
N8 N 0.1652(4) 0.1009(3) 0.2863(3)
H88 H 0.1064 0.1066 0.2844
N9 N 0.2477(4) 0.2179(3) 0.3228(3)
H89 H 0.2078 0.2193 0.2942
N10 N 0.2724(4) 0.3279(3) 0.2842(3)
H90 H 0.2200 0.3209 0.2687
N11 N 0.1694(4) 0.3522(3) 0.1159(3)
H91 H 0.1565 0.3386 0.1555
N12 N 0.2247(4) 0.2432(3) 0.1129(3)
H92 H 0.2069 0.2401 0.1529
O11 O 0.2959(3) 0.0687(2) 0.2345(2)
O12 O 0.3682(3) 0.2786(2) 0.3539(2)
O13 O 0.4146(4) 0.5834(3) 0.1937(4)
O14 O 0.4743(7) 0.7053(6) 0.1381(6)
O15 O 0.3615(8) 0.8303(6) 0.1337(6)
O16 O 0.1942(4) 0.8972(3) 0.1315(3)
O17 O 0.0200(4) 0.8718(3) 0.0753(3)
O18 O 0.0162(3) 0.7598(2) 0.0041(2)
O19 O 0.0354(4) 0.6144(3) 0.0481(2)
O20 O 0.2493(3) 0.3215(3) 0.0272(2)
C79 C 0.4792(5) 0.1470(4) 0.2752(4)
H93 H 0.4208 0.1319 0.2607
H94 H 0.4650 0.1785 0.3086
C80 C 0.5272(5) 0.0838(4) 0.3033(4)
H95 H 0.5892 0.0965 0.3129
H96 H 0.5322 0.0480 0.2729
C81 C 0.4736(6) 0.0551(4) 0.3630(4)
H97 H 0.4088 0.0512 0.3548
H98 H 0.4782 0.0878 0.3957
C82 C 0.5086(7) -0.0164(5) 0.3870(5)
H99 H 0.5040 -0.0490 0.3548
H100 H 0.4720 -0.0333 0.4247
H101 H 0.5721 -0.0124 0.3966
C83 C 0.4660(5) 0.2388(4) 0.1937(4)
H102 H 0.4398 0.2661 0.2275
H103 H 0.4156 0.2129 0.1783
C84 C 0.5047(6) 0.2887(6) 0.1407(5)
H104 H 0.5560 0.3140 0.1555
H105 H 0.5290 0.2617 0.1062
C85 C 0.4403(6) 0.3383(5) 0.1167(4)
H106 H 0.4163 0.3646 0.1518
H107 H 0.3888 0.3122 0.1030
C86 C 0.4710(7) 0.3887(6) 0.0649(5)
H108 H 0.4970 0.4291 0.0816
H109 H 0.4193 0.4029 0.0408
H110 H 0.5171 0.3674 0.0377
C87 C 0.6131(4) 0.2239(4) 0.2439(3)
H111 H 0.6556 0.1882 0.2596
H112 H 0.6446 0.2501 0.2075
C88 C 0.5934(6) 0.2723(5) 0.2936(5)
H113 H 0.5357 0.2965 0.2861
H114 H 0.5854 0.2452 0.3345
C89 C 0.6656(5) 0.3241(4) 0.2963(4)
H115 H 0.6717 0.3511 0.2553
H116 H 0.7232 0.2989 0.3013
C90 C 0.6562(7) 0.3738(5) 0.3451(5)
H117 H 0.5984 0.3983 0.3424
H118 H 0.7063 0.4071 0.3390
H119 H 0.6578 0.3488 0.3863
C91 C 0.5693(5) 0.1404(4) 0.1729(4)
H120 H 0.6121 0.1077 0.1927
H121 H 0.6044 0.1690 0.1396
C92 C 0.4986(5) 0.0990(5) 0.1428(4)
H122 H 0.4555 0.0771 0.1757
H123 H 0.4639 0.1305 0.1150
C93 C 0.5437(7) 0.0438(6) 0.1056(6)
H124 H 0.5955 0.0641 0.0787
H125 H 0.4998 0.0253 0.0784
C94 C 0.5787(9) -0.0174(7) 0.1523(6)
H126 H 0.6212 0.0013 0.1797
H127 H 0.6094 -0.0524 0.1282
H128 H 0.5269 -0.0385 0.1777
N13 N 0.5313(4) 0.1873(3) 0.2215(3)
C95 C 0.0916(7) 0.7236(5) 0.1450(6)
H129 H 0.0502 0.7392 0.1153
C96 C 0.2150(7) 0.6903(6) 0.1890(5)
H130 H 0.2764 0.6781 0.1943
C97 C 0.1487(5) 0.6917(4) 0.2335(4)
H131 H 0.1529 0.6807 0.2769
C98 C -0.0262(9) 0.7110(8) 0.2402(7)
H132 H -0.0631 0.7484 0.2220
H133 H -0.0201 0.7174 0.2843
H134 H -0.0555 0.6665 0.2363
C99 C 0.2233(12) 0.7394(9) 0.0743(7)
H135 H 0.1808 0.7566 0.0432
H136 H 0.2678 0.7757 0.0807
C100 C 0.2642(10) 0.6770(6) 0.0600(6)
H137 H 0.3096 0.6646 0.0900
H138 H 0.2937 0.6822 0.0178
H139 H 0.2180 0.6406 0.0624
N14 N 0.1770(7) 0.7104(6) 0.1326(4)
N15 N 0.0724(5) 0.7123(4) 0.2039(4)
C101 C 0.9156(6) 0.8136(5) 0.4728(4)
H140 H 0.9209 0.8431 0.4355
C102 C 0.8711(6) 0.7523(5) 0.4821(4)
H141 H 0.8384 0.7307 0.4525
C103 C 0.9308(5) 0.7727(4) 0.5697(3)
H142 H 0.9475 0.7685 0.6116
C104 C 0.9999(8) 0.8852(6) 0.5432(6)
H143 H 0.9530 0.9196 0.5538
H144 H 1.0299 0.8722 0.5820
C105 C 0.8441(7) 0.6587(5) 0.5712(5)
H145 H 0.8602 0.6512 0.6146
H146 H 0.8693 0.6214 0.5472
H147 H 0.7779 0.6591 0.5701
C106 C 1.0520(16) 0.9133(12) 0.5105(11)
H148 H 1.0974 0.8804 0.4956
H149 H 1.0817 0.9484 0.5325
H150 H 1.0226 0.9357 0.4749
N16 N 0.9518(5) 0.8243(4) 0.5287(3)
N17 N 0.8824(5) 0.7272(3) 0.5432(3)
C107 C 0.4302(13) 0.3150(10) 0.5096(10)
C108 C 0.4290(13) 0.3792(9) 0.4731(9)
H151 H 0.3770 0.4065 0.4877
H152 H 0.4240 0.3708 0.4293
H153 H 0.4852 0.4046 0.4773
C109 C 0.4739(13) 0.2495(9) 0.4973(9)
H154 H 0.4401 0.2116 0.5210
H155 H 0.5362 0.2500 0.5099
H156 H 0.4745 0.2430 0.4526
O21 O 0.3447(11) 0.2907(8) 0.5317(7)
C110 C 0.715(2) 0.6207(14) 0.3634(14)
C111 C 0.6632(19) 0.6504(15) 0.3075(15)
H157 H 0.6002 0.6341 0.3125
H158 H 0.6924 0.6348 0.2688
H159 H 0.6644 0.7009 0.3057
C112 C 0.8053(18) 0.6508(17) 0.3673(15)
H160 H 0.7993 0.6945 0.3872
H161 H 0.8346 0.6594 0.3252
H162 H 0.8421 0.6187 0.3921
O22 O 0.7097(18) 0.5525(13) 0.3694(12)
C113 C 0.6969(17) 0.4292(13) 0.5283(12)
H163 H 0.7329 0.4718 0.5218
H164 H 0.6412 0.4351 0.5063
H165 H 0.7322 0.3910 0.5119
C114 C 0.673(2) 0.4132(14) 0.5978(12)
H166 H 0.6224 0.4429 0.6124
H167 H 0.7256 0.4205 0.6222
C115 C 0.614(2) 0.2962(15) 0.6680(13)
H168 H 0.6694 0.2891 0.6908
H169 H 0.5749 0.3280 0.6917
C116 C 0.5657(19) 0.2286(14) 0.6735(13)
H170 H 0.6096 0.1912 0.6797
H171 H 0.5352 0.2231 0.6352
H172 H 0.5207 0.2270 0.7092
O23 O 0.6436(14) 0.3364(12) 0.6045(10)
O24 O 0.0218(3) 0.1968(2) 0.18495(19)
O25 O 0.0264(3) 0.1976(2) 0.3008(2)
O26 O -0.0401(3) 0.2979(2) 0.2403(2)
O27 O 0.1290(3) 0.2762(2) 0.2297(2)
P1 P 0.03372(11) 0.24277(8) 0.23890(8)
loop_
_geom_bond_atom_site_label_1
_geom_bond_atom_site_label_2
_geom_bond_site_symmetry_1
_geom_bond_site_symmetry_2
C1 N1 1_555 1_555
C2 C3 1_555 1_555
C3 H1 1_555 1_555
C4 C3 1_555 1_555
H2 C4 1_555 1_555
C5 C4 1_555 1_555
H3 C5 1_555 1_555
C6 C5 1_555 1_555
H4 C6 1_555 1_555
C7 C2 1_555 1_555
C8 N3 1_555 1_555
C9 C10 1_555 1_555
C10 H5 1_555 1_555
C11 C10 1_555 1_555
H6 C11 1_555 1_555
C12 C11 1_555 1_555
C13 C12 1_555 1_555
H7 C13 1_555 1_555
C14 C9 1_555 1_555
H8 C14 1_555 1_555
C15 H9 1_555 1_555
H10 C15 1_555 1_555
C16 C15 1_555 1_555
H11 C16 1_555 1_555
H12 C16 1_555 1_555
C17 H13 1_555 1_555
H14 C17 1_555 1_555
C18 C17 1_555 1_555
H15 C18 1_555 1_555
H16 C18 1_555 1_555
C19 H17 1_555 1_555
H18 C19 1_555 1_555
C20 C19 1_555 1_555
H19 C20 1_555 1_555
H20 C20 1_555 1_555
C21 H21 1_555 1_555
H22 C21 1_555 1_555
C22 C21 1_555 1_555
H23 C22 1_555 1_555
H24 C22 1_555 1_555
C23 H25 1_555 1_555
H26 C23 1_555 1_555
C24 C23 1_555 1_555
H27 C24 1_555 1_555
H28 C24 1_555 1_555
C25 H29 1_555 1_555
H30 C25 1_555 1_555
C26 C25 1_555 1_555
H31 C26 1_555 1_555
H32 C26 1_555 1_555
C27 C28 1_555 1_555
C28 H33 1_555 1_555
C29 C28 1_555 1_555
H34 C29 1_555 1_555
C30 C29 1_555 1_555
C31 C30 1_555 1_555
H35 C31 1_555 1_555
C32 C27 1_555 1_555
H36 C32 1_555 1_555
C33 N5 1_555 1_555
C34 C35 1_555 1_555
C35 H37 1_555 1_555
C36 C35 1_555 1_555
H38 C36 1_555 1_555
C37 C36 1_555 1_555
H39 C37 1_555 1_555
C38 C37 1_555 1_555
H40 C38 1_555 1_555
C39 C34 1_555 1_555
N1 C39 1_555 1_555
H41 N1 1_555 1_555
N2 C1 1_555 1_555
H42 N2 1_555 1_555
N3 C7 1_555 1_555
H43 N3 1_555 1_555
N4 C8 1_555 1_555
H44 N4 1_555 1_555
N5 C30 1_555 1_555
H45 N5 1_555 1_555
N6 C33 1_555 1_555
H46 N6 1_555 1_555
O1 C12 1_555 1_555
O2 C16 1_555 1_555
O3 C18 1_555 1_555
O4 C20 1_555 1_555
O5 C22 1_555 1_555
O6 C24 1_555 1_555
O7 C26 1_555 1_555
O8 C33 1_555 1_555
O9 C1 1_555 1_555
O10 C8 1_555 1_555
C40 N7 1_555 1_555
C41 C42 1_555 1_555
C42 H47 1_555 1_555
C43 C42 1_555 1_555
H48 C43 1_555 1_555
C44 C43 1_555 1_555
H49 C44 1_555 1_555
C45 C44 1_555 1_555
H50 C45 1_555 1_555
C46 C41 1_555 1_555
C47 N9 1_555 1_555
C48 C49 1_555 1_555
C49 H51 1_555 1_555
C50 C49 1_555 1_555
H52 C50 1_555 1_555
C51 C50 1_555 1_555
C52 C51 1_555 1_555
H53 C52 1_555 1_555
C53 C48 1_555 1_555
H54 C53 1_555 1_555
C54 H55 1_555 1_555
H56 C54 1_555 1_555
C55 C54 1_555 1_555
H57 C55 1_555 1_555
H58 C55 1_555 1_555
C56 H59 1_555 1_555
H60 C56 1_555 1_555
C57 C56 1_555 1_555
H61 C57 1_555 1_555
H62 C57 1_555 1_555
C58 H63 1_555 1_555
H64 C58 1_555 1_555
C59 C58 1_555 1_555
H65 C59 1_555 1_555
H66 C59 1_555 1_555
C60 H67 1_555 1_555
H68 C60 1_555 1_555
C61 C60 1_555 1_555
H69 C61 1_555 1_555
H70 C61 1_555 1_555
C62 H71 1_555 1_555
H72 C62 1_555 1_555
C63 C62 1_555 1_555
H73 C63 1_555 1_555
H74 C63 1_555 1_555
C64 H75 1_555 1_555
H76 C64 1_555 1_555
C65 C64 1_555 1_555
H77 C65 1_555 1_555
H78 C65 1_555 1_555
C66 C67 1_555 1_555
C67 H79 1_555 1_555
C68 C67 1_555 1_555
H80 C68 1_555 1_555
C69 C68 1_555 1_555
C70 C69 1_555 1_555
H81 C70 1_555 1_555
C71 C66 1_555 1_555
H82 C71 1_555 1_555
C72 N11 1_555 1_555
C73 C74 1_555 1_555
C74 H83 1_555 1_555
C75 C74 1_555 1_555
H84 C75 1_555 1_555
C76 C75 1_555 1_555
H85 C76 1_555 1_555
C77 C76 1_555 1_555
H86 C77 1_555 1_555
C78 C73 1_555 1_555
N7 C78 1_555 1_555
H87 N7 1_555 1_555
N8 C40 1_555 1_555
H88 N8 1_555 1_555
N9 C46 1_555 1_555
H89 N9 1_555 1_555
N10 C47 1_555 1_555
H90 N10 1_555 1_555
N11 C69 1_555 1_555
H91 N11 1_555 1_555
N12 C72 1_555 1_555
H92 N12 1_555 1_555
O11 C40 1_555 1_555
O12 C47 1_555 1_555
O13 C51 1_555 1_555
O14 C55 1_555 1_555
O15 C57 1_555 1_555
O16 C59 1_555 1_555
O17 C61 1_555 1_555
O18 C63 1_555 1_555
O19 C65 1_555 1_555
O20 C72 1_555 1_555
C79 H93 1_555 1_555
H94 C79 1_555 1_555
C80 C79 1_555 1_555
H95 C80 1_555 1_555
H96 C80 1_555 1_555
C81 C80 1_555 1_555
H97 C81 1_555 1_555
H98 C81 1_555 1_555
C82 C81 1_555 1_555
H99 C82 1_555 1_555
H100 C82 1_555 1_555
H101 C82 1_555 1_555
C83 H102 1_555 1_555
H103 C83 1_555 1_555
C84 C83 1_555 1_555
H104 C84 1_555 1_555
H105 C84 1_555 1_555
C85 C84 1_555 1_555
H106 C85 1_555 1_555
H107 C85 1_555 1_555
C86 C85 1_555 1_555
H108 C86 1_555 1_555
H109 C86 1_555 1_555
H110 C86 1_555 1_555
C87 H111 1_555 1_555
H112 C87 1_555 1_555
C88 C87 1_555 1_555
H113 C88 1_555 1_555
H114 C88 1_555 1_555
C89 C88 1_555 1_555
H115 C89 1_555 1_555
H116 C89 1_555 1_555
C90 C89 1_555 1_555
H117 C90 1_555 1_555
H118 C90 1_555 1_555
H119 C90 1_555 1_555
C91 H120 1_555 1_555
H121 C91 1_555 1_555
C92 C91 1_555 1_555
H122 C92 1_555 1_555
H123 C92 1_555 1_555
C93 C92 1_555 1_555
H124 C93 1_555 1_555
H125 C93 1_555 1_555
C94 C93 1_555 1_555
H126 C94 1_555 1_555
H127 C94 1_555 1_555
H128 C94 1_555 1_555
N13 C79 1_555 1_555
C95 H129 1_555 1_555
C96 H130 1_555 1_555
C97 C96 1_555 1_555
H131 C97 1_555 1_555
C98 H132 1_555 1_555
H133 C98 1_555 1_555
H134 C98 1_555 1_555
C99 H135 1_555 1_555
H136 C99 1_555 1_555
C100 C99 1_555 1_555
H137 C100 1_555 1_555
H138 C100 1_555 1_555
H139 C100 1_555 1_555
N14 C95 1_555 1_555
N15 C95 1_555 1_555
C101 H140 1_555 1_555
C102 C101 1_555 1_555
H141 C102 1_555 1_555
C103 H142 1_555 1_555
C104 H143 1_555 1_555
H144 C104 1_555 1_555
C105 H145 1_555 1_555
H146 C105 1_555 1_555
H147 C105 1_555 1_555
C106 C104 1_555 1_555
H148 C106 1_555 1_555
H149 C106 1_555 1_555
H150 C106 1_555 1_555
N16 C101 1_555 1_555
N17 C102 1_555 1_555
C107 C108 1_555 1_555
C108 H151 1_555 1_555
H152 C108 1_555 1_555
H153 C108 1_555 1_555
C109 C107 1_555 1_555
H154 C109 1_555 1_555
H155 C109 1_555 1_555
H156 C109 1_555 1_555
O21 C107 1_555 1_555
C110 C111 1_555 1_555
C111 H157 1_555 1_555
H158 C111 1_555 1_555
H159 C111 1_555 1_555
C112 C110 1_555 1_555
H160 C112 1_555 1_555
H161 C112 1_555 1_555
H162 C112 1_555 1_555
O22 C110 1_555 1_555
C113 H163 1_555 1_555
H164 C113 1_555 1_555
H165 C113 1_555 1_555
C114 C113 1_555 1_555
H166 C114 1_555 1_555
H167 C114 1_555 1_555
C115 H168 1_555 1_555
H169 C115 1_555 1_555
C116 C115 1_555 1_555
H170 C116 1_555 1_555
H171 C116 1_555 1_555
H172 C116 1_555 1_555
O23 C114 1_555 1_555
O24 P1 1_555 1_555
O25 P1 1_555 1_555
O26 P1 1_555 1_555
O27 P1 1_555 1_555
C2 N2 1_555 1_555
C6 C7 1_555 1_555
C9 N4 1_555 1_555
C13 C14 1_555 1_555
C15 O1 1_555 1_555
C17 O2 1_555 1_555
C19 O3 1_555 1_555
C21 O4 1_555 1_555
C23 O5 1_555 1_555
C25 O6 1_555 1_555
C27 O7 1_555 1_555
C31 C32 1_555 1_555
C34 N6 1_555 1_555
C38 C39 1_555 1_555
C41 N8 1_555 1_555
C45 C46 1_555 1_555
C48 N10 1_555 1_555
C52 C53 1_555 1_555
C54 O13 1_555 1_555
C56 O14 1_555 1_555
C58 O15 1_555 1_555
C60 O16 1_555 1_555
C62 O17 1_555 1_555
C64 O18 1_555 1_555
C66 O19 1_555 1_555
C70 C71 1_555 1_555
C73 N12 1_555 1_555
C77 C78 1_555 1_555
C83 N13 1_555 1_555
C87 N13 1_555 1_555
C91 N13 1_555 1_555
C96 N14 1_555 1_555
C97 N15 1_555 1_555
C98 N15 1_555 1_555
C99 N14 1_555 1_555
C103 N16 1_555 1_555
C103 N17 1_555 1_555
C104 N16 1_555 1_555
C105 N17 1_555 1_555
C115 O23 1_555 1_555

#END
