
#######################################################################
#
#                 Cambridge Crystallographic Data Centre
#                                CCDC 
#
#######################################################################
#
# If this CIF has been generated from an entry in the Cambridge 
# Structural Database, then it will include bibliographic, chemical, 
# crystal, experimental, refinement or atomic coordinate data resulting 
# from the CCDC's data processing and validation procedures.
#
#######################################################################

data_OMIJIF
_chemical_formula_moiety         
'C49 H68 K1 N6 O16 1+,O4 S1 2-,C49 H66 K1 N6 O15 1+'
_chemical_name_systematic        
'aqua-(18-crown-6)-(5,7,12,20,21,23,24,26,27,29,30,32,33,41-tetradecahydro-6H-15,18:35,38-diethenodibenzo[x,c_1_][1,4,7,10,13,16,21,23,26,28,31,33]hexaoxahexaazacycloheptatriacontine-6,13,40(14H,39H)-trione)-potassium (18-crown-6)-(5,7,12,20,21,23,24,26,27,29,30,32,33,41-tetradecahydro-6H-15,18:35,38-diethenodibenzo[x,c_1_][1,4,7,10,13,16,21,23,26,28,31,33]hexaoxahexaazacycloheptatriacontine-6,13,40(14H,39H)-trione)-potassium sulfate'
_symmetry_cell_setting           monoclinic
_symmetry_space_group_name_H-M   'P 21/c'
_symmetry_Int_Tables_number      14
_space_group_name_Hall           '-P 2ybc'
loop_
_symmetry_equiv_pos_site_id
_symmetry_equiv_pos_as_xyz
1 x,y,z
2 -x,1/2+y,1/2-z
3 -x,-y,-z
4 x,1/2-y,1/2+z
_cell_length_a                   18.0761(18)
_cell_length_b                   21.110(2)
_cell_length_c                   32.803(3)
_cell_angle_alpha                90
_cell_angle_beta                 122.130(4)
_cell_angle_gamma                90
_cell_volume                     10600.1
_exptl_crystal_colour            colorless
_exptl_crystal_description       block
_cell_formula_units_Z            4
loop_
_atom_site_label
_atom_site_type_symbol
_atom_site_fract_x
_atom_site_fract_y
_atom_site_fract_z
C1 C 0.0929(9) 0.3707(8) 0.4953(6)
C2 C 0.1128(9) 0.4606(7) 0.4536(5)
C3 C 0.0631(9) 0.5075(7) 0.4554(6)
H1 H 0.0203 0.4985 0.4630
C4 C 0.0771(11) 0.5700(8) 0.4455(6)
H2 H 0.0373 0.6022 0.4418
C5 C 0.1435(10) 0.5852(8) 0.4413(6)
H3 H 0.1550 0.6282 0.4381
C6 C 0.1955(10) 0.5382(7) 0.4417(5)
H4 H 0.2410 0.5484 0.4365
C7 C 0.1830(9) 0.4764(6) 0.4495(5)
C8 C 0.3219(9) 0.4303(6) 0.4618(4)
C9 C 0.4281(9) 0.3560(6) 0.4608(4)
C10 C 0.4919(8) 0.3991(6) 0.4695(4)
H5 H 0.4869 0.4424 0.4755
C11 C 0.5620(9) 0.3778(6) 0.4692(4)
H6 H 0.6052 0.4078 0.4742
C12 C 0.5751(10) 0.3166(7) 0.4622(5)
C13 C 0.5136(9) 0.2727(6) 0.4543(4)
H7 H 0.5207 0.2294 0.4493
C14 C 0.4395(8) 0.2936(6) 0.4538(4)
H8 H 0.3959 0.2637 0.4485
C15 C 0.6654(12) 0.2358(8) 0.4553(7)
H9 H 0.6221 0.2247 0.4213
H10 H 0.6567 0.2070 0.4762
C16 C 0.7545(14) 0.2279(9) 0.4650(9)
H11 H 0.7978 0.2463 0.4968
H12 H 0.7679 0.1824 0.4653
C17 C 0.7480(16) 0.2303(11) 0.3778(10)
H13 H 0.7070 0.1941 0.3644
H14 H 0.7346 0.2621 0.3526
C18 C 0.8502(16) 0.2095(11) 0.4091(10)
H15 H 0.8796 0.2148 0.3910
H16 H 0.8834 0.2320 0.4403
C19 C 0.9254(15) 0.1123(11) 0.4525(9)
H17 H 0.9711 0.1178 0.4448
H18 H 0.9481 0.1265 0.4859
C20 C 0.8928(14) 0.0478(10) 0.4444(9)
H19 H 0.9381 0.0164 0.4502
H20 H 0.8404 0.0419 0.4118
C21 C 0.8461(13) -0.0150(9) 0.4924(8)
H21 H 0.7982 -0.0320 0.4613
H22 H 0.8964 -0.0441 0.5040
C22 C 0.8191(12) -0.0180(9) 0.5249(7)
H23 H 0.8619 0.0038 0.5552
H24 H 0.8147 -0.0627 0.5324
C23 C 0.7158(10) 0.0273(8) 0.5389(6)
H25 H 0.7609 0.0567 0.5626
H26 H 0.7174 -0.0121 0.5557
C24 C 0.6272(9) 0.0572(7) 0.5149(5)
H27 H 0.6239 0.0945 0.4957
H28 H 0.5814 0.0265 0.4934
C25 C 0.5373(9) 0.0993(6) 0.5433(5)
C26 C 0.4688(8) 0.1092(5) 0.4983(4)
H29 H 0.4732 0.0997 0.4713
C27 C 0.3949(9) 0.1322(6) 0.4918(5)
H30 H 0.3470 0.1391 0.4599
C28 C 0.3850(9) 0.1466(7) 0.5300(5)
C29 C 0.4562(9) 0.1365(6) 0.5768(5)
H31 H 0.4518 0.1469 0.6036
C30 C 0.5314(10) 0.1119(7) 0.5838(5)
H32 H 0.5794 0.1034 0.6154
C31 C 0.2695(11) 0.1717(8) 0.5478(6)
C32 C 0.1367(12) 0.2115(9) 0.5437(6)
C33 C 0.1376(12) 0.1691(10) 0.5789(7)
H33 H 0.1713 0.1313 0.5884
C34 C 0.0878(14) 0.1853(11) 0.5984(8)
H34 H 0.0868 0.1603 0.6222
C35 C 0.0414(14) 0.2386(11) 0.5812(8)
H35 H 0.0147 0.2525 0.5979
C36 C 0.0236(13) 0.2818(9) 0.5387(7)
H36 H -0.0205 0.3134 0.5242
C37 C 0.0827(12) 0.2667(9) 0.5255(7)
C38 C 0.1642(14) 0.5915(9) 0.6268(7)
H37 H 0.2186 0.5986 0.6585
H38 H 0.1225 0.6253 0.6223
C39 C 0.1845(14) 0.5981(9) 0.5887(7)
H39 H 0.1333 0.5867 0.5568
H40 H 0.2023 0.6420 0.5874
C40 C 0.2909(14) 0.5536(8) 0.5752(7)
H41 H 0.3176 0.5956 0.5778
H42 H 0.2427 0.5479 0.5413
C41 C 0.3574(11) 0.5041(7) 0.5875(6)
H43 H 0.3794 0.5078 0.5679
H44 H 0.4028 0.5086 0.6189
C42 C 0.3662(12) 0.3968(9) 0.5854(7)
H45 H 0.4168 0.3960 0.6190
H46 H 0.3890 0.4042 0.5642
C43 C 0.3248(12) 0.3352(8) 0.5741(7)
H47 H 0.2766 0.3339 0.5399
H48 H 0.3678 0.3021 0.5793
C44 C 0.3465(13) 0.2945(9) 0.6465(7)
H49 H 0.3977 0.3223 0.6661
H50 H 0.3678 0.2548 0.6402
C45 C 0.3068(14) 0.2795(9) 0.6745(7)
H51 H 0.2507 0.2569 0.6541
H52 H 0.3463 0.2522 0.7023
C46 C 0.2649(15) 0.3332(10) 0.7209(7)
H53 H 0.3073 0.3080 0.7494
H54 H 0.2080 0.3109 0.7049
C47 C 0.2550(15) 0.3974(9) 0.7368(6)
H55 H 0.3110 0.4206 0.7512
H56 H 0.2401 0.3929 0.7616
C48 C 0.1853(15) 0.4966(9) 0.7098(7)
H57 H 0.2418 0.5175 0.7205
H58 H 0.1751 0.4974 0.7366
C49 C 0.1126(15) 0.5286(9) 0.6664(7)
H59 H 0.0586 0.5034 0.6539
H60 H 0.1024 0.5708 0.6757
K1 K 0.2115(3) 0.43029(17) 0.61772(13)
N1 N 0.3504(6) 0.3704(4) 0.4586(3)
H61 H 0.3162 0.3383 0.4549
N2 N 0.3038(7) 0.1709(6) 0.5195(4)
H62 H 0.2708 0.1879 0.4908
N3 N 0.0949(6) 0.3950(5) 0.4575(4)
H63 H 0.0848 0.3691 0.4340
N4 N 0.2358(7) 0.4269(5) 0.4490(3)
H64 H 0.2106 0.3896 0.4393
N5 N 0.0839(7) 0.3055(6) 0.4915(5)
H65 H 0.0787 0.2873 0.4660
N6 N 0.1868(8) 0.1978(6) 0.5242(4)
H66 H 0.1633 0.2068 0.4935
O1 O 0.0918(6) 0.3994(5) 0.5264(4)
O2 O 0.3622(6) 0.4763(4) 0.4719(3)
O3 O 0.6521(7) 0.3008(5) 0.4643(4)
O4 O 0.7583(10) 0.2606(7) 0.4270(6)
O5 O 0.8362(11) 0.1477(8) 0.4144(7)
O6 O 0.8715(8) 0.0462(7) 0.4829(5)
O7 O 0.7297(7) 0.0144(5) 0.5019(4)
O8 O 0.6171(6) 0.0760(4) 0.5550(3)
O9 O 0.3070(7) 0.1529(4) 0.5887(3)
O10 O 0.2576(9) 0.5532(5) 0.6033(5)
O11 O 0.3174(8) 0.4438(6) 0.5808(5)
O12 O 0.2917(8) 0.3234(6) 0.6042(5)
O13 O 0.2929(9) 0.3377(7) 0.6903(4)
O14 O 0.1844(10) 0.4343(6) 0.6948(4)
O15 O 0.1310(9) 0.5364(6) 0.6280(4)
O16 O 0.3305(11) 0.4724(7) 0.6772(5)
O17 O 0.0925(6) 0.3129(5) 0.3869(3)
O18 O 0.1130(7) 0.2114(5) 0.4202(3)
O19 O 0.1607(9) 0.2364(5) 0.3698(4)
O20 O 0.2280(6) 0.2761(5) 0.4496(4)
S1 S 0.1497(3) 0.25922(18) 0.40653(14)
C50 C -0.1010(11) 0.3060(7) 0.8044(6)
C51 C -0.1290(11) 0.1979(7) 0.7742(5)
C52 C -0.2178(11) 0.1884(7) 0.7536(5)
H67 H -0.2484 0.2123 0.7646
C53 C -0.2627(11) 0.1441(8) 0.7168(5)
H68 H -0.3236 0.1374 0.7026
C54 C -0.2135(11) 0.1080(7) 0.7007(5)
H69 H -0.2424 0.0787 0.6749
C55 C -0.1278(10) 0.1171(6) 0.7228(5)
H70 H -0.0952 0.0922 0.7136
C56 C -0.0845(11) 0.1622(7) 0.7591(5)
C57 C 0.0575(11) 0.1632(7) 0.7624(6)
C58 C 0.2132(12) 0.1733(7) 0.7885(6)
C59 C 0.2940(12) 0.1750(7) 0.8296(6)
H71 H 0.2987 0.1835 0.8593
C60 C 0.3701(12) 0.1645(8) 0.8292(7)
H72 H 0.4261 0.1638 0.8581
C61 C 0.3605(14) 0.1552(9) 0.7858(8)
C62 C 0.2821(12) 0.1516(8) 0.7437(6)
H73 H 0.2782 0.1410 0.7145
C63 C 0.2076(12) 0.1640(7) 0.7449(6)
H74 H 0.1523 0.1662 0.7157
C64 C 0.5127(13) 0.1483(11) 0.8207(8)
H75 H 0.5215 0.1221 0.8479
H76 H 0.5319 0.1924 0.8315
C65 C 0.565(2) 0.1131(15) 0.7894(13)
H77 H 0.6174 0.0874 0.8104
H78 H 0.5235 0.0906 0.7591
C66 C 0.548(2) 0.178(2) 0.7288(12)
H79 H 0.5792 0.1440 0.7232
H80 H 0.4854 0.1678 0.7114
C67 C 0.561(2) 0.239(2) 0.7111(14)
H81 H 0.5087 0.2453 0.6786
H82 H 0.6104 0.2322 0.7064
C68 C 0.628(2) 0.3438(16) 0.7212(13)
H83 H 0.6143 0.3350 0.6883
H84 H 0.6917 0.3435 0.7446
C69 C 0.581(2) 0.4053(16) 0.7246(13)
O21 O 0.6497(16) 0.4105(13) 0.7605(10)
C70 C 0.661(2) 0.4793(16) 0.7828(12)
C71 C 0.6181(19) 0.4825(15) 0.8535(10)
H85 H 0.6009 0.5277 0.8498
H86 H 0.6824 0.4832 0.8758
C72 C 0.5904(17) 0.4610(11) 0.8882(9)
H87 H 0.6426 0.4569 0.9212
H88 H 0.5510 0.4929 0.8889
C73 C 0.4626(16) 0.3999(13) 0.8699(7)
C74 C 0.4201(13) 0.3442(10) 0.8591(5)
H89 H 0.4444 0.3075 0.8540
C75 C 0.3421(12) 0.3411(9) 0.8556(5)
H90 H 0.3118 0.3018 0.8471
C76 C 0.3046(12) 0.3926(9) 0.8638(5)
C77 C 0.3492(12) 0.4496(8) 0.8751(5)
H91 H 0.3265 0.4868 0.8810
C78 C 0.4295(14) 0.4506(10) 0.8777(6)
H92 H 0.4610 0.4893 0.8853
C79 C 0.1654(12) 0.4302(8) 0.8504(5)
C80 C 0.0219(12) 0.4441(7) 0.8464(5)
C81 C 0.0196(13) 0.5113(7) 0.8458(5)
H93 H 0.0675 0.5354 0.8499
C82 C -0.0524(13) 0.5400(8) 0.8393(6)
H94 H -0.0527 0.5849 0.8408
C83 C -0.1253(13) 0.5080(7) 0.8306(6)
H95 H -0.1766 0.5296 0.8240
C84 C -0.1206(12) 0.4424(7) 0.8318(5)
H96 H -0.1693 0.4186 0.8271
C85 C -0.0486(12) 0.4109(7) 0.8396(5)
C86 C -0.4206(16) 0.3438(14) 0.5920(9)
H97 H -0.4799 0.3475 0.5865
H98 H -0.4246 0.3614 0.5629
C87 C -0.4060(17) 0.2814(13) 0.5917(10)
H99 H -0.4298 0.2597 0.6091
H100 H -0.4405 0.2668 0.5579
C88 C -0.3784(14) 0.4509(12) 0.6197(8)
H101 H -0.4318 0.4654 0.6182
H102 H -0.3870 0.4578 0.5876
C89 C -0.3030(16) 0.4889(11) 0.6558(8)
H103 H -0.3127 0.5333 0.6444
H104 H -0.3028 0.4884 0.6861
C90 C -0.1378(16) 0.4973(10) 0.6927(8)
H105 H -0.1453 0.5363 0.6741
H106 H -0.1348 0.5124 0.7221
C91 C -0.0537(15) 0.4830(10) 0.7099(8)
H107 H -0.0142 0.5083 0.7390
H108 H -0.0388 0.4906 0.6853
C92 C 0.0204(14) 0.3979(10) 0.7264(8)
H109 H 0.0687 0.4239 0.7517
H110 H 0.0176 0.4048 0.6958
C93 C 0.0354(14) 0.3331(10) 0.7393(8)
H111 H 0.0052 0.3203 0.7558
H112 H 0.0987 0.3247 0.7609
C94 C -0.0145(15) 0.2853(11) 0.6752(8)
H113 H 0.0479 0.2731 0.6942
H114 H -0.0227 0.3236 0.6558
C95 C -0.0756(16) 0.2296(12) 0.6446(8)
H115 H -0.0640 0.2167 0.6195
H116 H -0.0664 0.1926 0.6653
C96 C -0.2280(19) 0.2325(12) 0.6060(9)
H117 H -0.2267 0.2202 0.6355
H118 H -0.2217 0.1917 0.5933
C97 C -0.3207(18) 0.2376(13) 0.5751(9)
H119 H -0.3389 0.2664 0.5475
H120 H -0.3498 0.1960 0.5637
K2 K -0.1968(3) 0.3442(2) 0.68034(12)
N7 N -0.0872(7) 0.2427(5) 0.8118(4)
H121 H -0.0506 0.2290 0.8412
N8 N 0.2256(9) 0.3846(6) 0.8624(4)
H122 H 0.2151 0.3471 0.8698
N9 N 0.0959(9) 0.4094(5) 0.8540(4)
H123 H 0.0979 0.3693 0.8620
N10 N 0.0034(9) 0.1732(5) 0.7805(4)
H124 H 0.0297 0.1888 0.8099
N11 N 0.1407(9) 0.1840(5) 0.7924(4)
H125 H 0.1501 0.2068 0.8172
N12 N -0.0459(8) 0.3428(4) 0.8419(4)
H126 H -0.0066 0.3245 0.8691
O22 O -0.1627(6) 0.3272(4) 0.7656(4)
O23 O 0.0307(6) 0.1397(4) 0.7229(4)
O24 O 0.4276(9) 0.1448(6) 0.7806(5)
O25 O 0.5844(16) 0.1845(13) 0.7823(10)
O26 O 0.5785(16) 0.3024(15) 0.7359(9)
C98 C 0.589(2) 0.4671(16) 0.7536(11)
O27 O 0.6136(16) 0.4735(12) 0.8129(9)
O28 O 0.5444(10) 0.3984(8) 0.8719(5)
O29 O 0.1701(7) 0.4831(5) 0.8385(4)
O30 O -0.3666(9) 0.3870(8) 0.6303(5)
O31 O -0.2225(11) 0.4711(7) 0.6664(5)
O32 O -0.0474(9) 0.4133(7) 0.7220(5)
O33 O -0.0464(9) 0.2904(7) 0.6996(5)
O34 O -0.1498(14) 0.2495(8) 0.6264(6)
O35 O -0.3316(11) 0.2631(8) 0.6088(6)
H127? H 0.7046 0.4461 0.7893
H128? H 0.6809 0.5223 0.7810
H129? H 0.5314 0.3973 0.7290
H130? H 0.5668 0.4381 0.7000
loop_
_geom_bond_atom_site_label_1
_geom_bond_atom_site_label_2
_geom_bond_site_symmetry_1
_geom_bond_site_symmetry_2
C1 N3 1_555 1_555
C2 C3 1_555 1_555
C3 H1 1_555 1_555
C4 C3 1_555 1_555
H2 C4 1_555 1_555
C5 C4 1_555 1_555
H3 C5 1_555 1_555
C6 C5 1_555 1_555
H4 C6 1_555 1_555
C7 C2 1_555 1_555
C8 N1 1_555 1_555
C9 C10 1_555 1_555
C10 H5 1_555 1_555
C11 C10 1_555 1_555
H6 C11 1_555 1_555
C12 C11 1_555 1_555
C13 C12 1_555 1_555
H7 C13 1_555 1_555
C14 C9 1_555 1_555
H8 C14 1_555 1_555
C15 H9 1_555 1_555
H10 C15 1_555 1_555
C16 C15 1_555 1_555
H11 C16 1_555 1_555
H12 C16 1_555 1_555
C17 H13 1_555 1_555
H14 C17 1_555 1_555
C18 C17 1_555 1_555
H15 C18 1_555 1_555
H16 C18 1_555 1_555
C19 H17 1_555 1_555
H18 C19 1_555 1_555
C20 C19 1_555 1_555
H19 C20 1_555 1_555
H20 C20 1_555 1_555
C21 H21 1_555 1_555
H22 C21 1_555 1_555
C22 C21 1_555 1_555
H23 C22 1_555 1_555
H24 C22 1_555 1_555
C23 H25 1_555 1_555
H26 C23 1_555 1_555
C24 C23 1_555 1_555
H27 C24 1_555 1_555
H28 C24 1_555 1_555
C25 C26 1_555 1_555
C26 H29 1_555 1_555
C27 C26 1_555 1_555
H30 C27 1_555 1_555
C28 C27 1_555 1_555
C29 C28 1_555 1_555
H31 C29 1_555 1_555
C30 C25 1_555 1_555
H32 C30 1_555 1_555
C31 N2 1_555 1_555
C32 C33 1_555 1_555
C33 H33 1_555 1_555
C34 C33 1_555 1_555
H34 C34 1_555 1_555
C35 C34 1_555 1_555
H35 C35 1_555 1_555
C36 C35 1_555 1_555
H36 C36 1_555 1_555
C37 C32 1_555 1_555
C38 H37 1_555 1_555
H38 C38 1_555 1_555
C39 C38 1_555 1_555
H39 C39 1_555 1_555
H40 C39 1_555 1_555
C40 H41 1_555 1_555
H42 C40 1_555 1_555
C41 C40 1_555 1_555
H43 C41 1_555 1_555
H44 C41 1_555 1_555
C42 H45 1_555 1_555
H46 C42 1_555 1_555
C43 C42 1_555 1_555
H47 C43 1_555 1_555
H48 C43 1_555 1_555
C44 H49 1_555 1_555
H50 C44 1_555 1_555
C45 C44 1_555 1_555
H51 C45 1_555 1_555
H52 C45 1_555 1_555
C46 H53 1_555 1_555
H54 C46 1_555 1_555
C47 C46 1_555 1_555
H55 C47 1_555 1_555
H56 C47 1_555 1_555
C48 H57 1_555 1_555
H58 C48 1_555 1_555
C49 C48 1_555 1_555
H59 C49 1_555 1_555
H60 C49 1_555 1_555
K1 O1 1_555 1_555
N1 C9 1_555 1_555
H61 N1 1_555 1_555
N2 C28 1_555 1_555
H62 N2 1_555 1_555
N3 C2 1_555 1_555
H63 N3 1_555 1_555
N4 C7 1_555 1_555
H64 N4 1_555 1_555
N5 C1 1_555 1_555
H65 N5 1_555 1_555
N6 C31 1_555 1_555
H66 N6 1_555 1_555
O1 C1 1_555 1_555
O2 C8 1_555 1_555
O3 C12 1_555 1_555
O4 C16 1_555 1_555
O5 C18 1_555 1_555
O6 C20 1_555 1_555
O7 C22 1_555 1_555
O8 C24 1_555 1_555
O9 C31 1_555 1_555
O10 C39 1_555 1_555
O11 C41 1_555 1_555
O12 C43 1_555 1_555
O13 C45 1_555 1_555
O14 C47 1_555 1_555
O15 C38 1_555 1_555
O16 K1 1_555 1_555
O17 S1 1_555 1_555
O18 S1 1_555 1_555
O19 S1 1_555 1_555
O20 S1 1_555 1_555
C50 N7 1_555 1_555
C51 C52 1_555 1_555
C52 H67 1_555 1_555
C53 C52 1_555 1_555
H68 C53 1_555 1_555
C54 C53 1_555 1_555
H69 C54 1_555 1_555
C55 C54 1_555 1_555
H70 C55 1_555 1_555
C56 C51 1_555 1_555
C57 N10 1_555 1_555
C58 C59 1_555 1_555
C59 H71 1_555 1_555
C60 C59 1_555 1_555
H72 C60 1_555 1_555
C61 C60 1_555 1_555
C62 C61 1_555 1_555
H73 C62 1_555 1_555
C63 C58 1_555 1_555
H74 C63 1_555 1_555
C64 H75 1_555 1_555
H76 C64 1_555 1_555
C65 C64 1_555 1_555
H77 C65 1_555 1_555
H78 C65 1_555 1_555
C66 H79 1_555 1_555
H80 C66 1_555 1_555
C67 C66 1_555 1_555
H81 C67 1_555 1_555
H82 C67 1_555 1_555
C68 H83 1_555 1_555
H84 C68 1_555 1_555
C69 C68 1_555 1_555
O21 C69 1_555 1_555
C70 O21 1_555 1_555
C71 H85 1_555 1_555
H86 C71 1_555 1_555
C72 C71 1_555 1_555
H87 C72 1_555 1_555
H88 C72 1_555 1_555
C73 C74 1_555 1_555
C74 H89 1_555 1_555
C75 C74 1_555 1_555
H90 C75 1_555 1_555
C76 C75 1_555 1_555
C77 C76 1_555 1_555
H91 C77 1_555 1_555
C78 C73 1_555 1_555
H92 C78 1_555 1_555
C79 N8 1_555 1_555
C80 C81 1_555 1_555
C81 H93 1_555 1_555
C82 C81 1_555 1_555
H94 C82 1_555 1_555
C83 C82 1_555 1_555
H95 C83 1_555 1_555
C84 C83 1_555 1_555
H96 C84 1_555 1_555
C85 C80 1_555 1_555
C86 H97 1_555 1_555
H98 C86 1_555 1_555
C87 C86 1_555 1_555
H99 C87 1_555 1_555
H100 C87 1_555 1_555
C88 H101 1_555 1_555
H102 C88 1_555 1_555
C89 C88 1_555 1_555
H103 C89 1_555 1_555
H104 C89 1_555 1_555
C90 H105 1_555 1_555
H106 C90 1_555 1_555
C91 C90 1_555 1_555
H107 C91 1_555 1_555
H108 C91 1_555 1_555
C92 H109 1_555 1_555
H110 C92 1_555 1_555
C93 C92 1_555 1_555
H111 C93 1_555 1_555
H112 C93 1_555 1_555
C94 H113 1_555 1_555
H114 C94 1_555 1_555
C95 C94 1_555 1_555
H115 C95 1_555 1_555
H116 C95 1_555 1_555
C96 H117 1_555 1_555
H118 C96 1_555 1_555
C97 C96 1_555 1_555
H119 C97 1_555 1_555
H120 C97 1_555 1_555
K2 O22 1_555 1_555
N7 C51 1_555 1_555
H121 N7 1_555 1_555
N8 C76 1_555 1_555
H122 N8 1_555 1_555
N9 C79 1_555 1_555
H123 N9 1_555 1_555
N10 C56 1_555 1_555
H124 N10 1_555 1_555
N11 C57 1_555 1_555
H125 N11 1_555 1_555
N12 C50 1_555 1_555
H126 N12 1_555 1_555
O22 C50 1_555 1_555
O23 C57 1_555 1_555
O24 C61 1_555 1_555
O25 C65 1_555 1_555
O26 C67 1_555 1_555
C98 C70 1_555 1_555
O27 C71 1_555 1_555
O28 C72 1_555 1_555
O29 C79 1_555 1_555
O30 C86 1_555 1_555
O31 C89 1_555 1_555
O32 C91 1_555 1_555
O33 C93 1_555 1_555
O34 C95 1_555 1_555
O35 C87 1_555 1_555
C6 C7 1_555 1_555
C8 N4 1_555 1_555
C13 C14 1_555 1_555
C15 O3 1_555 1_555
C17 O4 1_555 1_555
C19 O5 1_555 1_555
C21 O6 1_555 1_555
C23 O7 1_555 1_555
C25 O8 1_555 1_555
C29 C30 1_555 1_555
C32 N6 1_555 1_555
C36 C37 1_555 1_555
C37 N5 1_555 1_555
C40 O10 1_555 1_555
C42 O11 1_555 1_555
C44 O12 1_555 1_555
C46 O13 1_555 1_555
C48 O14 1_555 1_555
C49 O15 1_555 1_555
K1 O10 1_555 1_555
K1 O11 1_555 1_555
K1 O12 1_555 1_555
K1 O13 1_555 1_555
K1 O14 1_555 1_555
K1 O15 1_555 1_555
C55 C56 1_555 1_555
C58 N11 1_555 1_555
C62 C63 1_555 1_555
C64 O24 1_555 1_555
C66 O25 1_555 1_555
C68 O26 1_555 1_555
C73 O28 1_555 1_555
C77 C78 1_555 1_555
C80 N9 1_555 1_555
C84 C85 1_555 1_555
C85 N12 1_555 1_555
C88 O30 1_555 1_555
C90 O31 1_555 1_555
C92 O32 1_555 1_555
C94 O33 1_555 1_555
C96 O34 1_555 1_555
C97 O35 1_555 1_555
K2 O30 1_555 1_555
K2 O31 1_555 1_555
K2 O32 1_555 1_555
K2 O33 1_555 1_555
K2 O34 1_555 1_555
K2 O35 1_555 1_555
C98 O27 1_555 1_555

#END
