
#######################################################################
#
#                 Cambridge Crystallographic Data Centre
#                                CCDC 
#
#######################################################################
#
# If this CIF has been generated from an entry in the Cambridge 
# Structural Database, then it will include bibliographic, chemical, 
# crystal, experimental, refinement or atomic coordinate data resulting 
# from the CCDC's data processing and validation procedures.
#
#######################################################################

data_OMIKAY
_chemical_formula_moiety         'C39 H46 N6 O10,2(C6 H11 N2 1+),2(I1 1-)'
_chemical_name_systematic        
'27,30,33,36,39,42,45-Heptaoxa-2,4,11,13,20,22-hexa-azapentacyclo[44.2.2.2^23,26^.0^5,10^.0^14,19^]dopentaconta-1(48),5,7,9,14,16,18,23,25,46,49,51-dodecaene-3,12,21-trione bis(1-ethyl-3-methylimidazolium) bis(iodide)'
_symmetry_cell_setting           triclinic
_symmetry_space_group_name_H-M   'P -1'
_symmetry_Int_Tables_number      2
_space_group_name_Hall           '-P 1'
loop_
_symmetry_equiv_pos_site_id
_symmetry_equiv_pos_as_xyz
1 x,y,z
2 -x,-y,-z
_cell_length_a                   12.2750(16)
_cell_length_b                   13.0629(17)
_cell_length_c                   19.863(3)
_cell_angle_alpha                71.072(2)
_cell_angle_beta                 78.8600(10)
_cell_angle_gamma                70.582(2)
_cell_volume                     2828.34
_exptl_crystal_colour            'light yellow'
_exptl_crystal_description       block
_cell_formula_units_Z            2
loop_
_atom_site_label
_atom_site_type_symbol
_atom_site_fract_x
_atom_site_fract_y
_atom_site_fract_z
I1 I 0.54341(4) 0.52434(4) 0.35604(2)
I2 I 0.05230(5) 0.51295(6) 0.69725(3)
C1 C 0.2781(5) 0.4605(5) 0.8477(3)
C2 C 0.4126(5) 0.1543(6) 0.4419(4)
C3 C 0.4417(5) 0.2619(5) 0.5111(4)
H1 H 0.4683 0.3210 0.5136
C4 C 0.3910(5) 0.2003(5) 0.5722(3)
C5 C 0.3495(6) 0.1774(5) 0.7037(4)
C6 C 0.3617(6) 0.0929(6) 0.5023(4)
H2 H 0.3333 0.0352 0.4995
C7 C 0.4539(5) 0.2386(6) 0.4471(4)
H3 H 0.4908 0.2802 0.4059
C8 C 0.3516(6) 0.1157(6) 0.5680(4)
H4 H 0.3175 0.0724 0.6098
C9 C 0.2946(6) 0.2604(6) 0.8697(4)
C10 C 0.3419(6) 0.1839(6) 0.8281(4)
C11 C 0.3799(8) 0.0692(6) 0.8626(4)
H5 H 0.4114 0.0166 0.8352
C12 C 0.3296(7) 0.1054(7) 0.9772(4)
H6 H 0.3274 0.0785 1.0278
C13 C 0.3724(8) 0.0305(7) 0.9365(4)
H7 H 0.3971 -0.0484 0.9594
C14 C 0.2896(6) 0.2208(6) 0.9437(4)
H8 H 0.2586 0.2726 0.9716
C15 C 0.3785(6) 0.0599(7) 0.3660(5)
H9 H 0.2944 0.0797 0.3816
H10 H 0.4159 -0.0173 0.3952
C16 C 0.3978(6) 0.0642(6) 0.2890(5)
H11 H 0.4794 0.0615 0.2708
H12 H 0.3826 -0.0020 0.2828
C17 C 0.2310(6) 0.6678(5) 0.8151(3)
C18 C 0.2412(6) 0.7545(6) 0.7526(3)
C19 C 0.2561(8) 0.8674(6) 0.8236(4)
H13 H 0.2658 0.9349 0.8267
C20 C 0.2320(6) 0.6822(6) 0.8822(3)
H14 H 0.2240 0.6240 0.9247
C21 C 0.2535(7) 0.8546(6) 0.7570(4)
H15 H 0.2599 0.9138 0.7148
C22 C 0.2447(8) 0.7810(6) 0.8858(4)
H16 H 0.2456 0.7906 0.9311
C23 C 0.2174(5) 0.8125(5) 0.6227(3)
C24 C 0.2856(5) 0.7570(5) 0.4456(3)
H17 H 0.3392 0.6845 0.4616
C25 C 0.1512(5) 0.9257(5) 0.4704(3)
H18 H 0.1124 0.9689 0.5030
C26 C 0.2277(5) 0.8184(5) 0.4945(3)
C27 C 0.1313(6) 0.9700(6) 0.3982(3)
H19 H 0.0797 1.0436 0.3819
C28 C 0.2658(5) 0.8005(6) 0.3740(3)
H20 H 0.3058 0.7582 0.3411
C29 C 0.1864(6) 0.9074(6) 0.3505(3)
C30 C 0.0771(8) 1.0413(6) 0.2546(4)
H21 H 0.0923 1.1088 0.2587
H22 H 0.0042 1.0331 0.2843
C31 C 0.0667(9) 1.0543(7) 0.1781(4)
H23 H 0.0075 1.1263 0.1585
H24 H 0.1418 1.0565 0.1494
C32 C -0.0287(8) 0.8845(7) 0.0989(4)
H25 H -0.0835 0.8662 0.1415
H26 H -0.0704 0.9093 0.0558
C33 C 0.0132(9) 0.9776(7) 0.1019(4)
H27 H 0.0857 0.9786 0.0699
H28 H -0.0456 1.0512 0.0851
C34 C 0.1397(7) 0.6045(7) 0.0798(4)
H29 H 0.2076 0.6299 0.0535
H30 H 0.1562 0.5666 0.1302
C35 C 0.0345(7) 0.7061(6) 0.0766(4)
H31 H 0.0099 0.7384 0.0276
H32 H -0.0306 0.6841 0.1097
O1 O 0.3209(4) 0.0899(4) 0.7211(3)
O2 O 0.1672(4) 0.9114(4) 0.6173(2)
O3 O 0.3495(4) 0.4427(4) 0.8890(2)
O4 O 0.0341(5) 0.9617(4) 0.1735(2)
O5 O 0.1715(5) 0.9424(4) 0.2784(2)
O6 O 0.0658(5) 0.7872(4) 0.0970(3)
O7 O 0.4279(4) 0.1391(4) 0.3750(3)
O8 O 0.3220(6) 0.1657(5) 0.2497(4)
N1 N 0.2185(5) 0.5673(4) 0.8103(3)
H33 H 0.1693 0.5731 0.7814
N2 N 0.2508(5) 0.3773(4) 0.8342(3)
H34 H 0.2029 0.3967 0.8014
N3 N 0.2484(5) 0.7328(5) 0.6867(3)
H35 H 0.2752 0.6617 0.6861
N4 N 0.3807(5) 0.2316(5) 0.6361(3)
H36 H 0.3969 0.2947 0.6307
N5 N 0.2504(4) 0.7653(4) 0.5666(3)
H37 H 0.2905 0.6934 0.5769
N6 N 0.3548(6) 0.2289(5) 0.7530(3)
H38 H 0.3674 0.2956 0.7363
O9 O 0.1237(4) 0.5257(4) 0.0496(3)
C36 C 0.0431(6) 0.4675(6) 0.0922(4)
H39 H -0.0357 0.5100 0.0772
H40 H 0.0421 0.4633 0.1430
C37 C 0.0748(7) 0.3529(7) 0.0847(5)
H41 H 0.0087 0.3216 0.1058
H42 H 0.0862 0.3583 0.0330
O10 O 0.1771(5) 0.2744(5) 0.1169(5)
C38 C 0.3560(13) 0.1791(13) 0.1680(7)
H43 H 0.4381 0.1791 0.1561
H44 H 0.3482 0.1139 0.1562
C39 C 0.2783(12) 0.2897(12) 0.1228(8)
H45 H 0.2624 0.3507 0.1458
H46 H 0.3187 0.3126 0.0747
N7 N 0.8763(5) 0.6513(5) 0.5012(3)
N8 N 0.9294(5) 0.7552(5) 0.3987(3)
C40 C 0.9148(6) 0.7300(7) 0.5144(4)
H47 H 0.9175 0.7374 0.5600
C41 C 0.8847(6) 0.6676(6) 0.4313(4)
H48 H 0.8632 0.6252 0.4080
C42 C 0.9479(7) 0.7945(7) 0.4508(4)
H49 H 0.9784 0.8558 0.4432
C43 C 0.9506(7) 0.8011(8) 0.3216(4)
H50 H 0.9463 0.7481 0.2975
H51 H 1.0279 0.8123 0.3101
H52 H 0.8919 0.8737 0.3054
C44 C 0.8294(6) 0.5673(6) 0.5572(4)
H53 H 0.7572 0.6071 0.5816
H54 H 0.8860 0.5246 0.5931
C45 C 0.8031(7) 0.4848(6) 0.5282(4)
H55 H 0.7466 0.5266 0.4928
H56 H 0.7709 0.4316 0.5675
H57 H 0.8747 0.4431 0.5055
N9 N 0.3832(8) 0.4652(11) 0.2276(4)
C46 C 0.4072(8) 0.5650(12) 0.1923(4)
H58 H 0.4787 0.5744 0.1667
N10 N 0.3149(10) 0.6431(11) 0.2007(5)
C47 C 0.2303(9) 0.5967(13) 0.2426(5)
H59 H 0.1542 0.6354 0.2584
C48 C 0.4724(10) 0.3535(11) 0.2333(5)
H60 H 0.5240 0.3396 0.2693
H61 H 0.5179 0.3537 0.1869
H62 H 0.4341 0.2938 0.2474
C49 C 0.2811(15) 0.480(2) 0.2565(6)
H63 H 0.2451 0.4228 0.2828
C50 C 0.3092(15) 0.7496(16) 0.1759(10)
H64 H 0.2563 0.7816 0.2133
H65 H 0.2621 0.7748 0.1351
C51 C 0.3819(15) 0.8175(15) 0.1524(9)
H66 H 0.4422 0.7910 0.1851
H67 H 0.3370 0.8957 0.1509
H68 H 0.4181 0.8141 0.1043
loop_
_geom_bond_atom_site_label_1
_geom_bond_atom_site_label_2
_geom_bond_site_symmetry_1
_geom_bond_site_symmetry_2
C1 O3 1_555 1_555
C2 C6 1_555 1_555
C3 H1 1_555 1_555
C4 C3 1_555 1_555
C5 O1 1_555 1_555
C6 H2 1_555 1_555
C7 C2 1_555 1_555
H3 C7 1_555 1_555
C8 C4 1_555 1_555
H4 C8 1_555 1_555
C9 C10 1_555 1_555
C10 C11 1_555 1_555
C11 H5 1_555 1_555
C12 H6 1_555 1_555
C13 C11 1_555 1_555
H7 C13 1_555 1_555
C14 C9 1_555 1_555
H8 C14 1_555 1_555
C15 H9 1_555 1_555
H10 C15 1_555 1_555
C16 C15 1_555 1_555
H11 C16 1_555 1_555
H12 C16 1_555 1_555
C17 C18 1_555 1_555
C18 C21 1_555 1_555
C19 H13 1_555 1_555
C20 C17 1_555 1_555
H14 C20 1_555 1_555
C21 C19 1_555 1_555
H15 C21 1_555 1_555
C22 C19 1_555 1_555
H16 C22 1_555 1_555
C23 O2 1_555 1_555
C24 H17 1_555 1_555
C25 H18 1_555 1_555
C26 C24 1_555 1_555
C27 C25 1_555 1_555
H19 C27 1_555 1_555
C28 C24 1_555 1_555
H20 C28 1_555 1_555
C29 C27 1_555 1_555
C30 H21 1_555 1_555
H22 C30 1_555 1_555
C31 C30 1_555 1_555
H23 C31 1_555 1_555
H24 C31 1_555 1_555
C32 H25 1_555 1_555
H26 C32 1_555 1_555
C33 C32 1_555 1_555
H27 C33 1_555 1_555
H28 C33 1_555 1_555
C34 H29 1_555 1_555
H30 C34 1_555 1_555
C35 C34 1_555 1_555
H31 C35 1_555 1_555
H32 C35 1_555 1_555
O4 C31 1_555 1_555
O5 C29 1_555 1_555
O6 C32 1_555 1_555
O7 C2 1_555 1_555
O8 C16 1_555 1_555
N1 C1 1_555 1_555
H33 N1 1_555 1_555
N2 C1 1_555 1_555
H34 N2 1_555 1_555
N3 C18 1_555 1_555
H35 N3 1_555 1_555
N4 C4 1_555 1_555
H36 N4 1_555 1_555
N5 C23 1_555 1_555
H37 N5 1_555 1_555
N6 C5 1_555 1_555
H38 N6 1_555 1_555
O9 C34 1_555 1_555
C36 O9 1_555 1_555
H39 C36 1_555 1_555
H40 C36 1_555 1_555
C37 C36 1_555 1_555
H41 C37 1_555 1_555
H42 C37 1_555 1_555
O10 C37 1_555 1_555
C38 O8 1_555 1_555
H43 C38 1_555 1_555
H44 C38 1_555 1_555
C39 O10 1_555 1_555
H45 C39 1_555 1_555
H46 C39 1_555 1_555
N7 C40 1_555 1_555
N8 C41 1_555 1_555
C40 H47 1_555 1_555
C41 N7 1_555 1_555
H48 C41 1_555 1_555
C42 N8 1_555 1_555
H49 C42 1_555 1_555
C43 N8 1_555 1_555
H50 C43 1_555 1_555
H51 C43 1_555 1_555
H52 C43 1_555 1_555
C44 N7 1_555 1_555
H53 C44 1_555 1_555
H54 C44 1_555 1_555
C45 C44 1_555 1_555
H55 C45 1_555 1_555
H56 C45 1_555 1_555
H57 C45 1_555 1_555
N9 C46 1_555 1_555
C46 H58 1_555 1_555
N10 C46 1_555 1_555
C47 N10 1_555 1_555
H59 C47 1_555 1_555
C48 N9 1_555 1_555
H60 C48 1_555 1_555
H61 C48 1_555 1_555
H62 C48 1_555 1_555
C49 N9 1_555 1_555
H63 C49 1_555 1_555
C50 N10 1_555 1_555
H64 C50 1_555 1_555
H65 C50 1_555 1_555
C51 C50 1_555 1_555
H66 C51 1_555 1_555
H67 C51 1_555 1_555
H68 C51 1_555 1_555
C3 C7 1_555 1_555
C5 N4 1_555 1_555
C6 C8 1_555 1_555
C9 N2 1_555 1_555
C10 N6 1_555 1_555
C12 C13 1_555 1_555
C12 C14 1_555 1_555
C15 O7 1_555 1_555
C17 N1 1_555 1_555
C20 C22 1_555 1_555
C23 N3 1_555 1_555
C25 C26 1_555 1_555
C26 N5 1_555 1_555
C28 C29 1_555 1_555
C30 O5 1_555 1_555
C33 O4 1_555 1_555
C35 O6 1_555 1_555
C38 C39 1_555 1_555
C40 C42 1_555 1_555
C47 C49 1_555 1_555

#END
