
#######################################################################
#
#                 Cambridge Crystallographic Data Centre
#                                CCDC 
#
#######################################################################
#
# If this CIF has been generated from an entry in the Cambridge 
# Structural Database, then it will include bibliographic, chemical, 
# crystal, experimental, refinement or atomic coordinate data resulting 
# from the CCDC's data processing and validation procedures.
#
#######################################################################

data_OMIMOO
_chemical_formula_moiety         'C24 H25 O5 P1'
_chemical_name_systematic        
'Methyl 2-((5,5-dimethyl-2-oxido-1,3,2-dioxaphosphinan-2-yl)(phenyl)methyl)-1-naphthoate'
_symmetry_cell_setting           orthorhombic
_symmetry_space_group_name_H-M   'P b c a'
_symmetry_Int_Tables_number      61
_space_group_name_Hall           '-P 2ac 2ab'
loop_
_symmetry_equiv_pos_site_id
_symmetry_equiv_pos_as_xyz
1 x,y,z
2 1/2-x,-y,1/2+z
3 1/2+x,1/2-y,-z
4 -x,1/2+y,1/2-z
5 -x,-y,-z
6 1/2+x,y,1/2-z
7 1/2-x,1/2+y,z
8 x,1/2-y,1/2+z
_cell_length_a                   17.381(3)
_cell_length_b                   13.319(2)
_cell_length_c                   18.156(3)
_cell_angle_alpha                90
_cell_angle_beta                 90
_cell_angle_gamma                90
_cell_volume                     4203.07
_exptl_crystal_colour            white
_exptl_crystal_description       block
_cell_formula_units_Z            8
loop_
_atom_site_label
_atom_site_type_symbol
_atom_site_fract_x
_atom_site_fract_y
_atom_site_fract_z
P1 P 0.10599(4) 0.38237(5) 0.19619(4)
O1 O 0.08205(10) 0.49121(14) 0.21676(9)
O2 O 0.18408(9) 0.39225(13) 0.15409(10)
C1 C 0.03801(12) 0.33985(17) 0.12765(12)
H1 H 0.0448 0.3831 0.0845
C2 C 0.09263(13) 0.10970(19) 0.01134(13)
O3 O 0.11192(11) 0.31937(15) 0.26068(9)
C3 C 0.18401(14) 0.5756(2) 0.14760(13)
C4 C 0.04730(13) 0.1557(2) 0.15429(13)
H2 H 0.0326 0.1709 0.2023
C5 C 0.07884(12) 0.21073(18) 0.03262(12)
C6 C 0.05622(12) 0.23390(18) 0.10323(12)
O4 O 0.15527(10) 0.30050(15) -0.04892(9)
C7 C -0.04560(13) 0.34831(17) 0.15028(12)
C8 C 0.10062(15) 0.5752(2) 0.16986(15)
H3 H 0.0889 0.6372 0.1956
H4 H 0.0688 0.5726 0.1260
C9 C 0.08280(13) 0.03351(19) 0.06389(14)
C10 C -0.07091(16) 0.3444(2) 0.22226(13)
H5 H -0.0355 0.3396 0.2605
C11 C 0.11302(14) 0.0818(2) -0.06117(15)
H6 H 0.1184 0.1310 -0.0972
C12 C 0.05940(14) 0.0600(2) 0.13564(14)
H7 H 0.0522 0.0098 0.1706
C13 C 0.09527(15) -0.0668(2) 0.04271(17)
H8 H 0.0886 -0.1178 0.0771
O5 O 0.03221(12) 0.3382(2) -0.04630(11)
C14 C 0.20025(16) 0.4780(2) 0.10870(15)
H9 H 0.1692 0.4743 0.0644
H10 H 0.2539 0.4764 0.0941
C15 C 0.08453(15) 0.2899(2) -0.02438(13)
C16 C -0.14814(16) 0.3477(2) 0.23765(15)
H11 H -0.1644 0.3464 0.2864
C17 C -0.09994(14) 0.3554(2) 0.09568(14)
H12 H -0.0843 0.3595 0.0468
C18 C -0.20114(16) 0.3527(2) 0.18300(16)
H13 H -0.2534 0.3534 0.1940
C19 C 0.11673(16) -0.0901(2) -0.0266(2)
H14 H 0.1261 -0.1566 -0.0393
C20 C 0.12475(16) -0.0156(2) -0.07869(17)
H15 H 0.1384 -0.0325 -0.1266
C21 C 0.23554(16) 0.5874(2) 0.21481(15)
H16 H 0.2238 0.6495 0.2392
H17 H 0.2884 0.5876 0.1996
H18 H 0.2269 0.5325 0.2481
C22 C -0.17675(15) 0.3567(2) 0.11198(16)
H19 H -0.2126 0.3603 0.0741
C23 C 0.1981(2) 0.6614(2) 0.09456(16)
H20 H 0.1879 0.7240 0.1189
H21 H 0.1646 0.6546 0.0528
H22 H 0.2506 0.6600 0.0784
C24 C 0.1663(2) 0.3666(3) -0.11064(17)
H23 H 0.2199 0.3686 -0.1234
H24 H 0.1492 0.4329 -0.0978
H25 H 0.1372 0.3425 -0.1519
loop_
_geom_bond_atom_site_label_1
_geom_bond_atom_site_label_2
_geom_bond_site_symmetry_1
_geom_bond_site_symmetry_2
P1 O1 1_555 1_555
O1 C8 1_555 1_555
O2 P1 1_555 1_555
C1 P1 1_555 1_555
H1 C1 1_555 1_555
C2 C5 1_555 1_555
O3 P1 1_555 1_555
C3 C8 1_555 1_555
C4 H2 1_555 1_555
C5 C6 1_555 1_555
C6 C1 1_555 1_555
O4 C15 1_555 1_555
C7 C1 1_555 1_555
C8 H3 1_555 1_555
H4 C8 1_555 1_555
C9 C2 1_555 1_555
C10 C7 1_555 1_555
H5 C10 1_555 1_555
C11 C2 1_555 1_555
H6 C11 1_555 1_555
C12 C4 1_555 1_555
H7 C12 1_555 1_555
C13 C9 1_555 1_555
H8 C13 1_555 1_555
O5 C15 1_555 1_555
C14 O2 1_555 1_555
H9 C14 1_555 1_555
H10 C14 1_555 1_555
C15 C5 1_555 1_555
C16 C10 1_555 1_555
H11 C16 1_555 1_555
C17 C7 1_555 1_555
H12 C17 1_555 1_555
C18 C16 1_555 1_555
H13 C18 1_555 1_555
C19 C13 1_555 1_555
H14 C19 1_555 1_555
C20 C11 1_555 1_555
H15 C20 1_555 1_555
C21 C3 1_555 1_555
H16 C21 1_555 1_555
H17 C21 1_555 1_555
H18 C21 1_555 1_555
C22 C17 1_555 1_555
H19 C22 1_555 1_555
C23 C3 1_555 1_555
H20 C23 1_555 1_555
H21 C23 1_555 1_555
H22 C23 1_555 1_555
C24 O4 1_555 1_555
H23 C24 1_555 1_555
H24 C24 1_555 1_555
H25 C24 1_555 1_555
C3 C14 1_555 1_555
C4 C6 1_555 1_555
C9 C12 1_555 1_555
C18 C22 1_555 1_555
C19 C20 1_555 1_555

#END
