
#######################################################################
#
#                 Cambridge Crystallographic Data Centre
#                                CCDC 
#
#######################################################################
#
# If this CIF has been generated from an entry in the Cambridge 
# Structural Database, then it will include bibliographic, chemical, 
# crystal, experimental, refinement or atomic coordinate data resulting 
# from the CCDC's data processing and validation procedures.
#
#######################################################################

data_OMINAB
_chemical_compound_source        
'leaves of Rhodomyrtus tomentosa (Aiton) Hassk (Rose myrtle)'
_chemical_name_common            'Tomentodione A'
_chemical_formula_moiety         'C30 H46 O3'
_chemical_name_systematic        
10-Isobutyl-2,2,4a,6,6,8,8-heptamethyl-13-methylene-2,2a,3,4,4a,6,10,10a,11,12,13,13a-dodecahydrocyclobuta[6,7]cyclonona[1,2-b]chromene-7,9(1H,8H)-dione
_symmetry_cell_setting           orthorhombic
_symmetry_space_group_name_H-M   'P 21 21 21'
_symmetry_Int_Tables_number      19
_space_group_name_Hall           'P 2ac 2ab'
loop_
_symmetry_equiv_pos_site_id
_symmetry_equiv_pos_as_xyz
1 x,y,z
2 1/2-x,-y,1/2+z
3 1/2+x,1/2-y,-z
4 -x,1/2+y,1/2-z
_cell_length_a                   10.0146(3)
_cell_length_b                   10.5472(2)
_cell_length_c                   26.3161(5)
_cell_angle_alpha                90
_cell_angle_beta                 90
_cell_angle_gamma                90
_cell_volume                     2779.66
_exptl_crystal_colour            colorless
_exptl_crystal_description       block
_chemical_melting_point          '81-82 deg.C'
_cell_formula_units_Z            4
loop_
_atom_site_label
_atom_site_type_symbol
_atom_site_fract_x
_atom_site_fract_y
_atom_site_fract_z
O1 O -0.42173(13) -0.98980(12) -0.14723(5)
O2 O -0.50993(17) -1.36132(15) -0.05677(5)
C1 C -0.5837(2) -1.2878(2) -0.18856(8)
C2 C -0.51560(19) -1.29986(18) -0.09599(7)
C3 C -0.3550(2) -1.13768(19) -0.05895(7)
H1 H -0.4113 -1.1346 -0.0285
C4 C -0.46225(18) -1.11165(17) -0.14409(7)
O3 O -0.6116(2) -1.34647(16) -0.22642(6)
C5 C -0.44311(19) -1.18174(17) -0.10209(6)
C6 C -0.3008(2) -1.00163(19) -0.06749(7)
H2 H -0.2194 -1.0087 -0.0880
C7 C -0.5209(2) -1.15645(19) -0.19379(7)
C8 C -0.2483(2) -0.7739(2) -0.15379(9)
H3 H -0.2791 -0.8126 -0.1851
H4 H -0.2390 -0.6838 -0.1603
C9 C -0.3584(2) -0.7904(2) -0.11426(10)
H5 H -0.4371 -0.7473 -0.1270
H6 H -0.3304 -0.7457 -0.0839
C10 C -0.1817(2) -1.3039(2) -0.09234(9)
H7 H -0.2539 -1.3487 -0.1099
C11 C -0.4016(2) -0.92418(18) -0.09799(8)
C12 C -0.2422(2) -1.2334(2) -0.04797(8)
H8 H -0.1708 -1.1883 -0.0308
H9 H -0.2765 -1.2958 -0.0243
C13 C -0.1134(2) -1.2202(2) -0.13053(9)
H10 H -0.1774 -1.1632 -0.1452
H11 H -0.0747 -1.2716 -0.1568
H12 H -0.0445 -1.1723 -0.1140
C14 C -0.6158(2) -1.3420(2) -0.13683(8)
C15 C -0.1108(2) -0.82576(18) -0.14272(7)
H13 H -0.1165 -0.9185 -0.1421
C16 C -0.6286(3) -1.0634(2) -0.21323(10)
H14 H -0.6664 -1.0953 -0.2442
H15 H -0.5887 -0.9821 -0.2194
H16 H -0.6975 -1.0549 -0.1881
C17 C -0.4069(3) -1.1644(2) -0.23274(7)
H17 H -0.3412 -1.2241 -0.2212
H18 H -0.3664 -1.0824 -0.2365
H19 H -0.4419 -1.1917 -0.2649
C18 C -0.2606(3) -0.9462(2) -0.01534(8)
H20 H -0.3415 -0.9182 0.0016
H21 H -0.2235 -1.0145 0.0049
C19 C 0.0093(3) -0.7877(2) -0.17720(9)
C20 C -0.0367(3) -0.8529(2) -0.04579(9)
C21 C -0.0278(3) -0.7824(2) -0.09559(9)
H22 H -0.0459 -0.6925 -0.0893
C22 C -0.5371(2) -0.9144(2) -0.07147(10)
H23 H -0.6025 -0.8834 -0.0951
H24 H -0.5304 -0.8570 -0.0433
H25 H -0.5634 -0.9966 -0.0594
C23 C 0.0975(3) -0.7932(3) -0.12929(10)
H26 H 0.1580 -0.7219 -0.1261
H27 H 0.1449 -0.8728 -0.1253
C24 C 0.0002(3) -0.6536(2) -0.19895(10)
H28 H -0.0674 -0.6511 -0.2248
H29 H 0.0847 -0.6304 -0.2135
H30 H -0.0223 -0.5953 -0.1723
C25 C -0.1609(3) -0.8358(2) -0.01438(9)
H31 H -0.2064 -0.7600 -0.0260
H32 H -0.1343 -0.8213 0.0206
C26 C -0.7513(3) -1.2858(4) -0.12004(13)
H33 H -0.7455 -1.1949 -0.1195
H34 H -0.7731 -1.3161 -0.0866
H35 H -0.8196 -1.3114 -0.1435
C27 C -0.0848(3) -1.4032(3) -0.07169(12)
H36 H -0.0153 -1.3619 -0.0528
H37 H -0.0462 -1.4495 -0.0995
H38 H -0.1320 -1.4607 -0.0499
C28 C 0.0402(3) -0.8808(3) -0.21900(11)
H39 H 0.0473 -0.9645 -0.2050
H40 H 0.1231 -0.8581 -0.2349
H41 H -0.0301 -0.8791 -0.2438
C29 C -0.6246(4) -1.4851(3) -0.13873(10)
H42 H -0.6949 -1.5098 -0.1615
H43 H -0.6433 -1.5173 -0.1053
H44 H -0.5413 -1.5192 -0.1506
C30 C 0.0622(3) -0.9246(3) -0.02899(12)
H45? H 0.0839 -0.9873 -0.0541
H46? H 0.1391 -0.8727 -0.0226
H47? H 0.0355 -0.9659 0.0019
loop_
_geom_bond_atom_site_label_1
_geom_bond_atom_site_label_2
_geom_bond_site_symmetry_1
_geom_bond_site_symmetry_2
O1 C4 1_555 1_555
O2 C2 1_555 1_555
C1 O3 1_555 1_555
C2 C5 1_555 1_555
C3 H1 1_555 1_555
C4 C5 1_555 1_555
C5 C3 1_555 1_555
C6 C3 1_555 1_555
H2 C6 1_555 1_555
C7 C1 1_555 1_555
C8 H3 1_555 1_555
H4 C8 1_555 1_555
C9 C8 1_555 1_555
H5 C9 1_555 1_555
H6 C9 1_555 1_555
C10 H7 1_555 1_555
C11 O1 1_555 1_555
C12 C3 1_555 1_555
H8 C12 1_555 1_555
H9 C12 1_555 1_555
C13 C10 1_555 1_555
H10 C13 1_555 1_555
H11 C13 1_555 1_555
H12 C13 1_555 1_555
C14 C1 1_555 1_555
C15 C8 1_555 1_555
H13 C15 1_555 1_555
C16 C7 1_555 1_555
H14 C16 1_555 1_555
H15 C16 1_555 1_555
H16 C16 1_555 1_555
C17 C7 1_555 1_555
H17 C17 1_555 1_555
H18 C17 1_555 1_555
H19 C17 1_555 1_555
C18 C6 1_555 1_555
H20 C18 1_555 1_555
H21 C18 1_555 1_555
C19 C15 1_555 1_555
C20 C21 1_555 1_555
C21 C15 1_555 1_555
H22 C21 1_555 1_555
C22 C11 1_555 1_555
H23 C22 1_555 1_555
H24 C22 1_555 1_555
H25 C22 1_555 1_555
C23 C19 1_555 1_555
H26 C23 1_555 1_555
H27 C23 1_555 1_555
C24 C19 1_555 1_555
H28 C24 1_555 1_555
H29 C24 1_555 1_555
H30 C24 1_555 1_555
C25 C18 1_555 1_555
H31 C25 1_555 1_555
H32 C25 1_555 1_555
C26 C14 1_555 1_555
H33 C26 1_555 1_555
H34 C26 1_555 1_555
H35 C26 1_555 1_555
C27 C10 1_555 1_555
H36 C27 1_555 1_555
H37 C27 1_555 1_555
H38 C27 1_555 1_555
C28 C19 1_555 1_555
H39 C28 1_555 1_555
H40 C28 1_555 1_555
H41 C28 1_555 1_555
C29 C14 1_555 1_555
H42 C29 1_555 1_555
H43 C29 1_555 1_555
H44 C29 1_555 1_555
C30 C20 1_555 1_555
C2 C14 1_555 1_555
C4 C7 1_555 1_555
C6 C11 1_555 1_555
C9 C11 1_555 1_555
C10 C12 1_555 1_555
C20 C25 1_555 1_555
C21 C23 1_555 1_555

#END
