
#######################################################################
#
#                 Cambridge Crystallographic Data Centre
#                                CCDC 
#
#######################################################################
#
# If this CIF has been generated from an entry in the Cambridge 
# Structural Database, then it will include bibliographic, chemical, 
# crystal, experimental, refinement or atomic coordinate data resulting 
# from the CCDC's data processing and validation procedures.
#
#######################################################################

data_OMIQEH
_chemical_formula_moiety         'C35 H23 N1 O1'
_chemical_name_systematic        
5,6,13-Triphenyl-8H-isoquinolino[3,2-a]isoquinolin-8-one
_symmetry_cell_setting           monoclinic
_symmetry_space_group_name_H-M   'P 21/c'
_symmetry_Int_Tables_number      14
_space_group_name_Hall           '-P 2ybc'
loop_
_symmetry_equiv_pos_site_id
_symmetry_equiv_pos_as_xyz
1 x,y,z
2 -x,1/2+y,1/2-z
3 -x,-y,-z
4 x,1/2-y,1/2+z
_cell_length_a                   17.420(3)
_cell_length_b                   11.314(2)
_cell_length_c                   12.965(2)
_cell_angle_alpha                90
_cell_angle_beta                 107.127(3)
_cell_angle_gamma                90
_cell_volume                     2441.96
_exptl_crystal_colour            colorless
_exptl_crystal_description       square
_cell_formula_units_Z            4
loop_
_atom_site_label
_atom_site_type_symbol
_atom_site_fract_x
_atom_site_fract_y
_atom_site_fract_z
O1 O 0.64896(11) -0.18051(19) 0.14564(16)
N1 N 0.71508(13) -0.0048(2) 0.14658(17)
C1 C 0.64610(17) -0.0732(3) 0.1425(2)
C2 C 0.70670(16) 0.1122(3) 0.1044(2)
C3 C 0.64068(16) 0.1773(3) 0.1019(2)
C4 C 0.57417(16) 0.1204(3) 0.1285(2)
C5 C 0.57535(16) -0.0027(3) 0.1415(2)
C6 C 0.50976(19) -0.0612(3) 0.1599(2)
H1 H 0.5109 -0.1429 0.1682
C7 C 0.4435(2) 0.0020(4) 0.1658(3)
H2 H 0.3994 -0.0371 0.1765
C8 C 0.44287(19) 0.1241(4) 0.1559(3)
H3 H 0.3987 0.1667 0.1619
C9 C 0.50631(18) 0.1831(3) 0.1373(2)
H4 H 0.5046 0.2649 0.1304
C10 C 0.77219(16) 0.1466(2) 0.0593(2)
C11 C 0.84767(17) 0.0926(2) 0.1005(2)
C12 C 0.85835(16) 0.0022(2) 0.1837(2)
C13 C 0.79337(17) -0.0496(2) 0.2005(2)
C14 C 0.63507(16) 0.3058(3) 0.0758(2)
C15 C 0.68196(17) 0.3861(3) 0.1483(2)
H5 H 0.7176 0.3587 0.2121
C16 C 0.67672(19) 0.5062(3) 0.1275(3)
H6 H 0.7084 0.5587 0.1773
C17 C 0.6251(2) 0.5475(3) 0.0336(3)
H7 H 0.6216 0.6282 0.0193
C18 C 0.5785(2) 0.4699(3) -0.0392(3)
H8 H 0.5438 0.4979 -0.1035
C19 C 0.58270(19) 0.3509(3) -0.0180(2)
H9 H 0.5497 0.2995 -0.0677
C20 C 0.75977(18) 0.2241(3) -0.0281(2)
H10 H 0.7091 0.2568 -0.0585
C21 C 0.8214(2) 0.2526(3) -0.0699(2)
H11 H 0.8123 0.3038 -0.1284
C22 C 0.8973(2) 0.2048(3) -0.0244(3)
H12 H 0.9395 0.2263 -0.0508
C23 C 0.91007(18) 0.1259(3) 0.0592(2)
H13 H 0.9610 0.0941 0.0888
C24 C 0.94264(16) -0.0223(3) 0.2509(2)
C25 C 0.97461(19) 0.0430(3) 0.3420(3)
H14 H 0.9415 0.0942 0.3655
C26 C 1.0544(2) 0.0351(4) 0.4001(3)
H15 H 1.0745 0.0817 0.4612
C27 C 1.1039(2) -0.0403(4) 0.3687(3)
H16 H 1.1579 -0.0457 0.4077
C28 C 1.0733(2) -0.1076(3) 0.2795(3)
H17 H 1.1067 -0.1599 0.2578
C29 C 0.99290(19) -0.0996(3) 0.2201(3)
H18 H 0.9729 -0.1467 0.1593
C30 C 0.79879(16) -0.1439(3) 0.2821(2)
C31 C 0.76623(17) -0.1273(3) 0.3669(2)
H19 H 0.7400 -0.0569 0.3723
C32 C 0.77269(18) -0.2146(3) 0.4429(2)
H20 H 0.7507 -0.2029 0.4994
C33 C 0.81131(19) -0.3189(3) 0.4361(3)
H21 H 0.8150 -0.3778 0.4873
C34 C 0.84448(18) -0.3358(3) 0.3535(3)
H22 H 0.8713 -0.4059 0.3492
C35 C 0.83808(17) -0.2491(3) 0.2770(2)
H23 H 0.8605 -0.2613 0.2210
loop_
_geom_bond_atom_site_label_1
_geom_bond_atom_site_label_2
_geom_bond_site_symmetry_1
_geom_bond_site_symmetry_2
O1 C1 1_555 1_555
N1 C1 1_555 1_555
C1 C5 1_555 1_555
C2 N1 1_555 1_555
C3 C2 1_555 1_555
C4 C3 1_555 1_555
C5 C4 1_555 1_555
C6 C5 1_555 1_555
H1 C6 1_555 1_555
C7 C6 1_555 1_555
H2 C7 1_555 1_555
C8 C7 1_555 1_555
H3 C8 1_555 1_555
C9 C4 1_555 1_555
H4 C9 1_555 1_555
C10 C2 1_555 1_555
C11 C10 1_555 1_555
C12 C11 1_555 1_555
C13 N1 1_555 1_555
C14 C3 1_555 1_555
C15 C14 1_555 1_555
H5 C15 1_555 1_555
C16 C15 1_555 1_555
H6 C16 1_555 1_555
C17 C16 1_555 1_555
H7 C17 1_555 1_555
C18 C17 1_555 1_555
H8 C18 1_555 1_555
C19 C14 1_555 1_555
H9 C19 1_555 1_555
C20 C10 1_555 1_555
H10 C20 1_555 1_555
C21 C20 1_555 1_555
H11 C21 1_555 1_555
C22 C21 1_555 1_555
H12 C22 1_555 1_555
C23 C11 1_555 1_555
H13 C23 1_555 1_555
C24 C12 1_555 1_555
C25 C24 1_555 1_555
H14 C25 1_555 1_555
C26 C25 1_555 1_555
H15 C26 1_555 1_555
C27 C26 1_555 1_555
H16 C27 1_555 1_555
C28 C27 1_555 1_555
H17 C28 1_555 1_555
C29 C24 1_555 1_555
H18 C29 1_555 1_555
C30 C13 1_555 1_555
C31 C30 1_555 1_555
H19 C31 1_555 1_555
C32 C31 1_555 1_555
H20 C32 1_555 1_555
C33 C32 1_555 1_555
H21 C33 1_555 1_555
C34 C33 1_555 1_555
H22 C34 1_555 1_555
C35 C30 1_555 1_555
H23 C35 1_555 1_555
C8 C9 1_555 1_555
C12 C13 1_555 1_555
C18 C19 1_555 1_555
C22 C23 1_555 1_555
C28 C29 1_555 1_555
C34 C35 1_555 1_555

#END
