
#######################################################################
#
#                 Cambridge Crystallographic Data Centre
#                                CCDC 
#
#######################################################################
#
# If this CIF has been generated from an entry in the Cambridge 
# Structural Database, then it will include bibliographic, chemical, 
# crystal, experimental, refinement or atomic coordinate data resulting 
# from the CCDC's data processing and validation procedures.
#
#######################################################################

data_OMIZOZ
_chemical_formula_moiety         'C14 H11 Cl2 N1 O2'
_chemical_name_systematic        
2a,5a-Dichloro-4-methyl-1-methylene-2-phenyl-2a,5a-dihydrocyclobuta(c)pyrrole-3,5-dione
_symmetry_cell_setting           monoclinic
_symmetry_space_group_name_H-M   'C 2/c'
_symmetry_Int_Tables_number      15
_space_group_name_Hall           '-C 2yn'
loop_
_symmetry_equiv_pos_site_id
_symmetry_equiv_pos_as_xyz
1 x,y,z
2 1/2+x,1/2+y,z
3 x,-y,1/2+z
4 1/2+x,1/2-y,1/2+z
5 -x,-y,-z
6 1/2-x,1/2-y,-z
7 -x,y,1/2-z
8 1/2-x,1/2+y,1/2-z
_cell_length_a                   14.8302(11)
_cell_length_b                   7.3973(5)
_cell_length_c                   25.3885(18)
_cell_angle_alpha                90
_cell_angle_beta                 106.1670(10)
_cell_angle_gamma                90
_cell_volume                     2675.06
_exptl_crystal_colour            colorless
_exptl_crystal_description       plate
_chemical_melting_point          '407-408 K'
_cell_formula_units_Z            8
_exptl_crystal_recrystallization_method 'petroleum ether-ethyl acetate'
loop_
_atom_site_label
_atom_site_type_symbol
_atom_site_fract_x
_atom_site_fract_y
_atom_site_fract_z
Cl1 Cl -0.01248(4) 0.95649(9) 0.07205(3)
Cl2 Cl 0.10127(6) 0.92538(11) 0.20482(3)
O1 O 0.09626(15) 0.6853(3) 0.01726(8)
O2 O 0.27917(15) 0.7240(3) 0.19346(9)
N1 N 0.20372(15) 0.6917(3) 0.10169(10)
C1 C 0.11558(18) 0.7078(4) 0.06601(11)
C2 C 0.04696(17) 0.7578(3) 0.09887(10)
C3 C 0.10893(18) 0.7510(4) 0.15935(10)
C4 C 0.20898(19) 0.7243(4) 0.15627(12)
C5 C 0.2864(2) 0.6441(4) 0.08401(15)
H1 H 0.2889 0.7187 0.0535
H2 H 0.2827 0.5194 0.0732
H3 H 0.3420 0.6631 0.1137
C6 C 0.06019(18) 0.5739(4) 0.16548(11)
C7 C -0.01225(19) 0.5920(4) 0.10977(11)
C8 C -0.11163(18) 0.6327(3) 0.11099(11)
C9 C -0.1848(2) 0.6099(4) 0.06379(12)
C10 C -0.2768(2) 0.6453(5) 0.06369(14)
C11 C -0.2962(2) 0.7040(4) 0.11067(14)
C12 C -0.2244(2) 0.7273(5) 0.15780(14)
C13 C -0.1328(2) 0.6916(4) 0.15785(12)
C14 C 0.0794(3) 0.4499(5) 0.20380(15)
H4 H 0.040(3) 0.344(5) 0.1978(14)
H5 H -0.085(2) 0.708(4) 0.1898(12)
H6 H -0.0099(18) 0.497(4) 0.0871(11)
H7 H -0.172(2) 0.568(5) 0.0330(14)
H8 H -0.320(2) 0.625(5) 0.0327(15)
H9 H -0.358(2) 0.736(4) 0.1114(12)
H10 H -0.237(2) 0.768(5) 0.1862(14)
H11 H 0.132(2) 0.466(5) 0.2363(15)
loop_
_geom_bond_atom_site_label_1
_geom_bond_atom_site_label_2
_geom_bond_site_symmetry_1
_geom_bond_site_symmetry_2
Cl1 C2 1_555 1_555
Cl2 C3 1_555 1_555
O1 C1 1_555 1_555
O2 C4 1_555 1_555
N1 C1 1_555 1_555
C1 C2 1_555 1_555
C2 C3 1_555 1_555
C3 C4 1_555 1_555
C4 N1 1_555 1_555
C5 N1 1_555 1_555
H1 C5 1_555 1_555
H2 C5 1_555 1_555
H3 C5 1_555 1_555
C6 C3 1_555 1_555
C7 C2 1_555 1_555
C8 C7 1_555 1_555
C9 C8 1_555 1_555
C10 C9 1_555 1_555
C11 C10 1_555 1_555
C12 C11 1_555 1_555
C13 C8 1_555 1_555
C14 C6 1_555 1_555
H4 C14 1_555 1_555
H5 C13 1_555 1_555
H6 C7 1_555 1_555
H7 C9 1_555 1_555
H8 C10 1_555 1_555
H9 C11 1_555 1_555
H10 C12 1_555 1_555
H11 C14 1_555 1_555
C6 C7 1_555 1_555
C12 C13 1_555 1_555

#END
