
#######################################################################
#
#                 Cambridge Crystallographic Data Centre
#                                CCDC 
#
#######################################################################
#
# If this CIF has been generated from an entry in the Cambridge 
# Structural Database, then it will include bibliographic, chemical, 
# crystal, experimental, refinement or atomic coordinate data resulting 
# from the CCDC's data processing and validation procedures.
#
#######################################################################

data_OMIZUF
_chemical_formula_moiety         'C18 H10 Cl2 O2'
_chemical_name_systematic        
2a,8a-Dichloro-2a,8a-dihydro-1-phenyldichlorocyclobuta(b)naphthalene-3,8-dione
_symmetry_cell_setting           triclinic
_symmetry_space_group_name_H-M   'P -1'
_symmetry_Int_Tables_number      2
_space_group_name_Hall           '-P 1'
loop_
_symmetry_equiv_pos_site_id
_symmetry_equiv_pos_as_xyz
1 x,y,z
2 -x,-y,-z
_cell_length_a                   7.1114(7)
_cell_length_b                   8.3052(8)
_cell_length_c                   13.8250(13)
_cell_angle_alpha                77.338(2)
_cell_angle_beta                 81.395(2)
_cell_angle_gamma                65.793(2)
_cell_volume                     724.978
_exptl_crystal_colour            colorless
_exptl_crystal_description       block
_cell_formula_units_Z            2
_exptl_crystal_recrystallization_method 'petroleum ether-acetone'
loop_
_atom_site_label
_atom_site_type_symbol
_atom_site_fract_x
_atom_site_fract_y
_atom_site_fract_z
Cl1 Cl 0.32682(15) 0.85046(11) 0.27295(6)
Cl2 Cl 0.56105(14) 1.10013(13) 0.17250(7)
O1 O 0.2362(3) 0.8796(3) 0.48039(16)
O2 O 0.5347(4) 1.3570(4) 0.29171(18)
C1 C 0.2478(4) 1.1596(4) 0.4792(2)
C2 C 0.1764(5) 1.1637(5) 0.5779(2)
C3 C 0.1704(5) 1.2970(5) 0.6243(3)
C4 C 0.2368(5) 1.4299(5) 0.5715(3)
C5 C 0.3105(5) 1.4264(4) 0.4749(3)
C6 C 0.3201(4) 1.2916(4) 0.4267(2)
C7 C 0.4176(4) 1.2829(4) 0.3253(2)
C8 C 0.3560(4) 1.1879(4) 0.2610(2)
C9 C 0.1428(4) 1.3048(4) 0.2212(2)
C10 C 0.0564(5) 1.1965(4) 0.2751(2)
C11 C 0.2482(4) 1.0549(4) 0.3185(2)
C12 C 0.2473(4) 1.0154(4) 0.4322(2)
C13 C 0.0726(5) 1.4746(4) 0.1534(2)
C14 C -0.1308(6) 1.5554(4) 0.1294(2)
C15 C -0.1983(8) 1.7140(5) 0.0618(3)
C16 C -0.0657(9) 1.7923(5) 0.0191(3)
C17 C 0.1396(10) 1.7154(6) 0.0421(3)
C18 C 0.2105(7) 1.5564(5) 0.1095(3)
H1 H 0.136(4) 1.074(4) 0.611(2)
H2 H 0.097(5) 1.301(4) 0.697(2)
H3 H 0.243(5) 1.523(5) 0.602(3)
H4 H 0.351(5) 1.509(5) 0.438(2)
H5 H -0.080(5) 1.204(4) 0.284(2)
H6 H -0.237(6) 1.492(5) 0.159(3)
H7 H -0.345(7) 1.766(6) 0.044(3)
H8 H -0.122(6) 1.898(5) -0.028(3)
H9 H 0.233(6) 1.762(5) 0.011(3)
H10 H 0.351(6) 1.497(5) 0.124(3)
loop_
_geom_bond_atom_site_label_1
_geom_bond_atom_site_label_2
_geom_bond_site_symmetry_1
_geom_bond_site_symmetry_2
Cl1 C11 1_555 1_555
Cl2 C8 1_555 1_555
O1 C12 1_555 1_555
O2 C7 1_555 1_555
C1 C2 1_555 1_555
C2 C3 1_555 1_555
C3 C4 1_555 1_555
C4 C5 1_555 1_555
C5 C6 1_555 1_555
C6 C1 1_555 1_555
C7 C6 1_555 1_555
C8 C7 1_555 1_555
C9 C8 1_555 1_555
C10 C9 1_555 1_555
C11 C8 1_555 1_555
C12 C1 1_555 1_555
C13 C9 1_555 1_555
C14 C13 1_555 1_555
C15 C14 1_555 1_555
C16 C15 1_555 1_555
C17 C16 1_555 1_555
C18 C13 1_555 1_555
H1 C2 1_555 1_555
H2 C3 1_555 1_555
H3 C4 1_555 1_555
H4 C5 1_555 1_555
H5 C10 1_555 1_555
H6 C14 1_555 1_555
H7 C15 1_555 1_555
H8 C16 1_555 1_555
H9 C17 1_555 1_555
H10 C18 1_555 1_555
C10 C11 1_555 1_555
C11 C12 1_555 1_555
C17 C18 1_555 1_555

#END
