
#######################################################################
#
#                 Cambridge Crystallographic Data Centre
#                                CCDC 
#
#######################################################################
#
# If this CIF has been generated from an entry in the Cambridge 
# Structural Database, then it will include bibliographic, chemical, 
# crystal, experimental, refinement or atomic coordinate data resulting 
# from the CCDC's data processing and validation procedures.
#
#######################################################################

data_OMOBOJ
_chemical_formula_moiety         '2(C2 H7 N4 O1 1+),C2 N8 O2 2-,2(H2 O1)'
_chemical_name_systematic        
"bis(amino(carbamoylamino)methaniminium) 1H,1'H-5,5'-bitetrazole-1,1'-diolate dihydrate"
_symmetry_cell_setting           triclinic
_symmetry_space_group_name_H-M   'P 1'
_symmetry_Int_Tables_number      1
_space_group_name_Hall           'P 1'
loop_
_symmetry_equiv_pos_site_id
_symmetry_equiv_pos_as_xyz
1 x,y,z
_cell_length_a                   3.5356(14)
_cell_length_b                   13.300(5)
_cell_length_c                   18.164(7)
_cell_angle_alpha                72.222(4)
_cell_angle_beta                 87.207(4)
_cell_angle_gamma                86.316(4)
_cell_volume                     811.285
_cell_formula_units_Z            2
loop_
_atom_site_label
_atom_site_type_symbol
_atom_site_fract_x
_atom_site_fract_y
_atom_site_fract_z
O1 O 0.4831(11) 0.4888(3) 0.1633(2)
O2 O 1.0765(11) 0.4536(3) 0.4297(2)
N1 N 0.6040(14) 0.5514(3) 0.1991(3)
N2 N 0.6074(14) 0.6558(4) 0.1682(3)
N3 N 0.7365(15) 0.6937(4) 0.2198(3)
N4 N 0.8247(14) 0.6144(4) 0.2845(3)
N5 N 0.9365(13) 0.3931(3) 0.3931(3)
N6 N 0.9337(15) 0.2878(4) 0.4247(3)
N7 N 0.7931(16) 0.2506(4) 0.3736(3)
N8 N 0.7030(14) 0.3299(4) 0.3091(3)
C1 C 0.7399(16) 0.5256(4) 0.2709(3)
C2 C 0.7924(17) 0.4181(4) 0.3231(3)
O3 O 0.756(3) -0.0711(8) 0.1034(7)
H1 H 0.6311 -0.0373 0.1383
H2 H 0.5814 -0.1137 0.0890
O4 O 1.267(4) -0.0101(5) 1.0054(4)
H3 H 1.0549 0.0350 0.9821
H4 H 1.3845 -0.0430 0.9692
O5 O 0.6338(11) 0.4404(3) 0.6773(2)
O6 O -0.0673(12) 0.4339(3) 0.9425(2)
N9 N 0.5163(14) 0.5059(3) 0.7166(3)
N10 N 0.5763(15) 0.6093(4) 0.6895(3)
N11 N 0.4351(14) 0.6524(4) 0.7415(3)
N12 N 0.2960(14) 0.5794(4) 0.8029(3)
N13 N 0.0683(13) 0.3681(3) 0.9062(2)
N14 N 0.0366(15) 0.2628(4) 0.9376(3)
N15 N 0.1972(15) 0.2169(4) 0.8877(3)
N16 N 0.3271(14) 0.2911(4) 0.8245(3)
C3 C 0.3456(16) 0.4867(4) 0.7865(3)
C4 C 0.2472(17) 0.3836(4) 0.8376(3)
O7 O -0.307(8) 0.9881(10) 0.5155(7)
H5 H -0.1617 0.9518 0.4845
H6 H -0.5186 1.0272 0.4868
O8 O 0.168(4) 0.9030(9) 0.5996(5)
H7 H -0.0888 0.9052 0.6192
H8 H 0.3098 0.8451 0.6339
O9 O 0.3440(13) 0.0413(3) 0.2180(2)
N17 N 0.4422(17) 0.0805(4) 0.3288(3)
H9 H 0.3748 0.0187 0.3594
H10 H 0.5133 0.1286 0.3486
N18 N 0.5580(14) 0.2025(4) 0.2111(3)
H11 H 0.5690 0.2490 0.2365
N19 N 0.7745(14) 0.3299(4) 0.1050(3)
H12 H 0.8501 0.3536 0.0562
H13 H 0.7749 0.3710 0.1348
N20 N 0.6556(15) 0.1696(4) 0.0917(3)
H14 H 0.7294 0.1909 0.0426
H15 H 0.5781 0.1051 0.1124
C5 C 0.4364(17) 0.1012(4) 0.2520(3)
C6 C 0.6612(16) 0.2330(4) 0.1333(3)
O10 O 0.1715(11) 0.8691(3) 0.4123(2)
N21 N 0.0978(15) 0.8368(4) 0.2980(3)
H16 H 0.1745 0.8991 0.2703
H17 H 0.0308 0.7917 0.2748
N22 N -0.0324(13) 0.7081(3) 0.4122(3)
H18 H -0.0498 0.6660 0.3836
N23 N -0.2508(14) 0.5740(4) 0.5142(3)
H19 H -0.3124 0.5466 0.5635
H20 H -0.2775 0.5378 0.4817
N24 N -0.0764(14) 0.7244(4) 0.5361(3)
H21 H -0.1362 0.6986 0.5856
H22 H 0.0125 0.7879 0.5180
C7 C 0.0829(16) 0.8107(4) 0.3748(3)
C8 C -0.1198(15) 0.6683(4) 0.4893(3)
O11 O 0.5896(13) 0.0332(3) 0.6984(2)
N25 N 0.7491(15) 0.0931(4) 0.7950(3)
H23 H 0.8312 0.0303 0.8239
H24 H 0.7578 0.1484 0.8117
N26 N 0.5051(14) 0.2101(4) 0.6862(3)
H25 H 0.5289 0.2583 0.7095
N27 N 0.2791(15) 0.3442(3) 0.5847(3)
H26 H 0.1900 0.3697 0.5379
H27 H 0.3102 0.3868 0.6125
N28 N 0.3229(15) 0.1766(4) 0.5736(3)
H28 H 0.2345 0.1997 0.5266
H29 H 0.3835 0.1089 0.5943
C9 C 0.6142(15) 0.1044(4) 0.7270(3)
C10 C 0.3647(15) 0.2436(4) 0.6130(3)
O12 O 0.0089(13) 0.8866(3) 0.8809(2)
N29 N -0.1793(16) 0.8197(4) 0.7895(3)
H30 H -0.2464 0.8821 0.7577
H31 H -0.2058 0.7622 0.7763
N30 N 0.0597(14) 0.7088(4) 0.9012(3)
H32 H 0.0319 0.6587 0.8799
N31 N 0.2666(15) 0.5756(4) 1.0073(3)
H33 H 0.3557 0.5530 1.0542
H34 H 0.2255 0.5301 0.9825
N32 N 0.2534(15) 0.7467(4) 1.0095(3)
H35 H 0.3424 0.7248 1.0565
H36 H 0.2048 0.8147 0.9870
C11 C -0.0381(16) 0.8123(4) 0.8576(3)
C12 C 0.1939(16) 0.6791(4) 0.9736(3)
loop_
_geom_bond_atom_site_label_1
_geom_bond_atom_site_label_2
_geom_bond_site_symmetry_1
_geom_bond_site_symmetry_2
O1 N1 1_555 1_555
O2 N5 1_555 1_555
N1 N2 1_555 1_555
N2 N3 1_555 1_555
N3 N4 1_555 1_555
N4 C1 1_555 1_555
N5 N6 1_555 1_555
N6 N7 1_555 1_555
N7 N8 1_555 1_555
N8 C2 1_555 1_555
C1 N1 1_555 1_555
C2 N5 1_555 1_555
O3 H1 1_555 1_555
H2 O3 1_555 1_555
O4 H3 1_555 1_555
H4 O4 1_555 1_555
O5 N9 1_555 1_555
O6 N13 1_555 1_555
N9 N10 1_555 1_555
N10 N11 1_555 1_555
N11 N12 1_555 1_555
N12 C3 1_555 1_555
N13 N14 1_555 1_555
N14 N15 1_555 1_555
N15 N16 1_555 1_555
N16 C4 1_555 1_555
C3 N9 1_555 1_555
C4 N13 1_555 1_555
O7 H5 1_555 1_555
H6 O7 1_555 1_555
O8 H7 1_555 1_555
H8 O8 1_555 1_555
O9 C5 1_555 1_555
N17 H9 1_555 1_555
H10 N17 1_555 1_555
N18 H11 1_555 1_555
N19 H12 1_555 1_555
H13 N19 1_555 1_555
N20 H14 1_555 1_555
H15 N20 1_555 1_555
C5 N17 1_555 1_555
C6 N18 1_555 1_555
O10 C7 1_555 1_555
N21 H16 1_555 1_555
H17 N21 1_555 1_555
N22 H18 1_555 1_555
N23 H19 1_555 1_555
H20 N23 1_555 1_555
N24 H21 1_555 1_555
H22 N24 1_555 1_555
C7 N21 1_555 1_555
C8 N22 1_555 1_555
O11 C9 1_555 1_555
N25 H23 1_555 1_555
H24 N25 1_555 1_555
N26 H25 1_555 1_555
N27 H26 1_555 1_555
H27 N27 1_555 1_555
N28 H28 1_555 1_555
H29 N28 1_555 1_555
C9 N25 1_555 1_555
C10 N26 1_555 1_555
O12 C11 1_555 1_555
N29 H30 1_555 1_555
H31 N29 1_555 1_555
N30 H32 1_555 1_555
N31 H33 1_555 1_555
H34 N31 1_555 1_555
N32 H35 1_555 1_555
H36 N32 1_555 1_555
C11 N29 1_555 1_555
C12 N30 1_555 1_555
C1 C2 1_555 1_555
C3 C4 1_555 1_555
N18 C5 1_555 1_555
N19 C6 1_555 1_555
N20 C6 1_555 1_555
N22 C7 1_555 1_555
N23 C8 1_555 1_555
N24 C8 1_555 1_555
N26 C9 1_555 1_555
N27 C10 1_555 1_555
N28 C10 1_555 1_555
N30 C11 1_555 1_555
N31 C12 1_555 1_555
N32 C12 1_555 1_555

#END
