
#######################################################################
#
#                 Cambridge Crystallographic Data Centre
#                                CCDC 
#
#######################################################################
#
# If this CIF has been generated from an entry in the Cambridge 
# Structural Database, then it will include bibliographic, chemical, 
# crystal, experimental, refinement or atomic coordinate data resulting 
# from the CCDC's data processing and validation procedures.
#
#######################################################################

data_OMOBAT
_chemical_formula_moiety         'C16 H16 N2 O5'
_chemical_name_systematic        
"Ethyl 1-acetyl-2'-methyl-2-oxo-4',5'-dihydro-1H-indoline-3-spiro-5'-oxazole-4'-carboxylate"
_symmetry_cell_setting           triclinic
_symmetry_space_group_name_H-M   'P -1'
_symmetry_Int_Tables_number      2
_space_group_name_Hall           '-P 1'
loop_
_symmetry_equiv_pos_site_id
_symmetry_equiv_pos_as_xyz
1 x,y,z
2 -x,-y,-z
_cell_length_a                   9.348(2)
_cell_length_b                   9.614(2)
_cell_length_c                   9.872(2)
_cell_angle_alpha                77.015(4)
_cell_angle_beta                 63.933(3)
_cell_angle_gamma                88.200(4)
_cell_volume                     774.287
_exptl_crystal_colour            colorless
_exptl_crystal_description       block
_cell_formula_units_Z            2
_exptl_crystal_recrystallization_method 'petroleum ether-acetone'
loop_
_atom_site_label
_atom_site_type_symbol
_atom_site_fract_x
_atom_site_fract_y
_atom_site_fract_z
O1 O 0.30739(14) 0.57549(13) -0.14506(13)
O2 O 0.42104(17) 0.15219(14) -0.12144(17)
O3 O 0.27378(11) 0.63940(10) 0.14496(12)
O4 O -0.16134(14) 0.37897(13) 0.42009(13)
O5 O -0.04497(13) 0.29579(11) 0.20439(13)
N1 N 0.35867(13) 0.35248(13) -0.02983(14)
N2 N 0.00556(14) 0.64982(13) 0.25250(15)
C1 C 0.30131(16) 0.48861(16) -0.03393(17)
C2 C 0.21875(16) 0.50624(15) 0.13327(16)
C3 C 0.26257(15) 0.37856(15) 0.22084(16)
C4 C 0.23698(19) 0.34449(18) 0.37334(19)
C5 C 0.2924(2) 0.2187(2) 0.4264(2)
C6 C 0.3726(2) 0.13138(19) 0.3278(2)
C7 C 0.3992(2) 0.16460(17) 0.1742(2)
C8 C 0.34167(16) 0.28908(15) 0.12318(17)
C9 C 0.40784(18) 0.27915(19) -0.15106(19)
C10 C 0.4419(2) 0.3643(2) -0.3084(2)
H1 H 0.4946 0.3077 -0.3827
H2 H 0.5096 0.4484 -0.3332
H3 H 0.3435 0.3919 -0.3113
C11 C 0.13932(17) 0.70613(15) 0.22284(17)
C12 C 0.1726(2) 0.83908(18) 0.2595(2)
H4 H 0.0736 0.8737 0.3226
H5 H 0.2292 0.9103 0.1650
H6 H 0.2363 0.8194 0.3148
C13 C 0.03618(16) 0.52730(16) 0.18267(18)
C14 C -0.07001(16) 0.39431(16) 0.28674(17)
C15 C -0.1422(3) 0.16131(19) 0.2825(2)
H7 H -0.2526 0.1787 0.3424
H8 H -0.1047 0.1029 0.3523
C16 C -0.1289(4) 0.0874(2) 0.1617(3)
H9 H -0.1871 -0.0048 0.2102
H10 H -0.0186 0.0756 0.0994
H11 H -0.1725 0.1434 0.0972
H12 H 0.0199(17) 0.5521(15) 0.0914(18)
H13 H 0.456(2) 0.1060(19) 0.108(2)
H14 H 0.185(2) 0.4065(19) 0.441(2)
H15 H 0.412(2) 0.045(2) 0.366(2)
H16 H 0.272(2) 0.191(2) 0.531(2)
loop_
_geom_bond_atom_site_label_1
_geom_bond_atom_site_label_2
_geom_bond_site_symmetry_1
_geom_bond_site_symmetry_2
O1 C1 1_555 1_555
O2 C9 1_555 1_555
O3 C2 1_555 1_555
O4 C14 1_555 1_555
O5 C14 1_555 1_555
N1 C1 1_555 1_555
N2 C11 1_555 1_555
C1 C2 1_555 1_555
C2 C3 1_555 1_555
C3 C4 1_555 1_555
C4 C5 1_555 1_555
C5 C6 1_555 1_555
C6 C7 1_555 1_555
C7 C8 1_555 1_555
C8 N1 1_555 1_555
C9 N1 1_555 1_555
C10 C9 1_555 1_555
H1 C10 1_555 1_555
H2 C10 1_555 1_555
H3 C10 1_555 1_555
C11 O3 1_555 1_555
C12 C11 1_555 1_555
H4 C12 1_555 1_555
H5 C12 1_555 1_555
H6 C12 1_555 1_555
C13 N2 1_555 1_555
C14 C13 1_555 1_555
C15 O5 1_555 1_555
H7 C15 1_555 1_555
H8 C15 1_555 1_555
C16 C15 1_555 1_555
H9 C16 1_555 1_555
H10 C16 1_555 1_555
H11 C16 1_555 1_555
H12 C13 1_555 1_555
H13 C7 1_555 1_555
H14 C4 1_555 1_555
H15 C6 1_555 1_555
H16 C5 1_555 1_555
C2 C13 1_555 1_555
C3 C8 1_555 1_555

#END
