
#######################################################################
#
#                 Cambridge Crystallographic Data Centre
#                                CCDC 
#
#######################################################################
#
# If this CIF has been generated from an entry in the Cambridge 
# Structural Database, then it will include bibliographic, chemical, 
# crystal, experimental, refinement or atomic coordinate data resulting 
# from the CCDC's data processing and validation procedures.
#
#######################################################################

data_OMOGON
_chemical_formula_moiety         'C22 H52 Mg1 N4 P2 S2'
_chemical_name_systematic        
bis(N,N'-Di-t-butyl-S-((dimethylphosphino)methyl)diimidosulfinato-N,N',P)-magnesium
_symmetry_cell_setting           orthorhombic
_symmetry_space_group_name_H-M   'F d d 2'
_symmetry_Int_Tables_number      43
_space_group_name_Hall           'F 2 -2d'
loop_
_symmetry_equiv_pos_site_id
_symmetry_equiv_pos_as_xyz
1 x,y,z
2 -x,-y,z
3 1/4+x,1/4-y,1/4+z
4 1/4-x,1/4+y,1/4+z
5 x,1/2+y,1/2+z
6 -x,1/2-y,1/2+z
7 1/4+x,3/4-y,3/4+z
8 1/4-x,3/4+y,3/4+z
9 1/2+x,y,1/2+z
10 1/2-x,-y,1/2+z
11 3/4+x,1/4-y,3/4+z
12 3/4-x,1/4+y,3/4+z
13 1/2+x,1/2+y,z
14 1/2-x,1/2-y,z
15 3/4+x,3/4-y,1/4+z
16 3/4-x,3/4+y,1/4+z
_cell_length_a                   37.169(8)
_cell_length_b                   10.175(2)
_cell_length_c                   16.851(4)
_cell_angle_alpha                90
_cell_angle_beta                 90
_cell_angle_gamma                90
_cell_volume                     6372.96
_exptl_crystal_colour            colorless
_exptl_crystal_description       plate
_chemical_melting_point          '165.5 deg.C (dec.)'
_cell_formula_units_Z            8
_exptl_crystal_recrystallization_method n-pentane
loop_
_atom_site_label
_atom_site_type_symbol
_atom_site_fract_x
_atom_site_fract_y
_atom_site_fract_z
N1 N 0.04436(6) 0.5778(3) 0.15105(17)
C1 C 0.05529(9) 0.6541(4) 0.0802(2)
C2 C 0.0226(3) 0.7331(13) 0.0564(10)
H1 H 0.0019 0.6752 0.0521
H2 H 0.0269 0.7750 0.0056
H3 H 0.0179 0.7998 0.0962
C3 C 0.0871(3) 0.7453(11) 0.0943(8)
H4 H 0.0801 0.8152 0.1301
H5 H 0.0948 0.7828 0.0441
H6 H 0.1068 0.6959 0.1175
C4 C 0.0632(3) 0.5511(10) 0.0142(5)
H7 H 0.0818 0.4915 0.0321
H8 H 0.0711 0.5959 -0.0335
H9 H 0.0414 0.5017 0.0029
C5 C 0.05905(9) 0.2408(3) 0.2373(3)
C6 C 0.09105(13) 0.2313(5) 0.2946(4)
H10 H 0.1115 0.2780 0.2724
H11 H 0.0974 0.1397 0.3024
H12 H 0.0845 0.2702 0.3451
C7 C 0.06966(15) 0.1831(5) 0.1576(4)
H13 H 0.0497 0.1915 0.1208
H14 H 0.0757 0.0910 0.1642
H15 H 0.0904 0.2301 0.1370
C8 C 0.02786(12) 0.1642(4) 0.2716(4)
H16 H 0.0217 0.1993 0.3233
H17 H 0.0346 0.0725 0.2768
H18 H 0.0072 0.1715 0.2366
C9 C 0.08799(9) 0.5740(4) 0.2795(2)
H19 H 0.1010 0.6536 0.2637
H20 H 0.1041 0.5201 0.3121
C10 C 0.05448(16) 0.5347(6) 0.4306(3)
H21 H 0.0539 0.4404 0.4225
H22 H 0.0356 0.5597 0.4674
H23 H 0.0777 0.5598 0.4523
C11 C 0.05825(15) 0.7869(5) 0.3658(4)
H24 H 0.0791 0.7866 0.4005
H25 H 0.0379 0.8247 0.3936
H26 H 0.0635 0.8388 0.3189
Mg1 Mg 0.0000 0.5000 0.21247(7)
N2 N 0.04595(6) 0.3766(2) 0.22910(17)
P1 P 0.04754(2) 0.61786(10) 0.33627(6)
S1 S 0.073878(17) 0.48167(8) 0.19106(5)
N1A N -0.04436(6) 0.4222(3) 0.15105(17)
C1A C -0.05529(9) 0.3459(4) 0.0802(2)
C2A C -0.0226(3) 0.2669(13) 0.0564(10)
H1A H -0.0019 0.3248 0.0521
H2A H -0.0269 0.2250 0.0056
H3A H -0.0179 0.2002 0.0962
C3A C -0.0871(3) 0.2547(11) 0.0943(8)
H4A H -0.0801 0.1848 0.1301
H5A H -0.0948 0.2172 0.0441
H6A H -0.1068 0.3041 0.1175
C4A C -0.0632(3) 0.4489(10) 0.0142(5)
H7A H -0.0818 0.5085 0.0321
H8A H -0.0711 0.4041 -0.0335
H9A H -0.0414 0.4983 0.0029
C5A C -0.05905(9) 0.7592(3) 0.2373(3)
C6A C -0.09105(13) 0.7687(5) 0.2946(4)
H10A H -0.1115 0.7220 0.2724
H11A H -0.0974 0.8603 0.3024
H12A H -0.0845 0.7298 0.3451
C7A C -0.06966(15) 0.8169(5) 0.1576(4)
H13A H -0.0497 0.8085 0.1208
H14A H -0.0757 0.9090 0.1642
H15A H -0.0904 0.7699 0.1370
C8A C -0.02786(12) 0.8358(4) 0.2716(4)
H16A H -0.0217 0.8007 0.3233
H17A H -0.0346 0.9275 0.2768
H18A H -0.0072 0.8285 0.2366
C9A C -0.08799(9) 0.4260(4) 0.2795(2)
H19A H -0.1010 0.3464 0.2637
H20A H -0.1041 0.4799 0.3121
C10A C -0.05448(16) 0.4653(6) 0.4306(3)
H21A H -0.0539 0.5596 0.4225
H22A H -0.0356 0.4403 0.4674
H23A H -0.0777 0.4402 0.4523
C11A C -0.05825(15) 0.2131(5) 0.3658(4)
H24A H -0.0791 0.2134 0.4005
H25A H -0.0379 0.1753 0.3936
H26A H -0.0635 0.1612 0.3189
N2A N -0.04595(6) 0.6234(2) 0.22910(17)
P1A P -0.04754(2) 0.38214(10) 0.33627(6)
S1A S -0.073878(17) 0.51833(8) 0.19106(5)
C12? C 0.05529(9) 0.6541(4) 0.0802(2)
C13? C 0.0221(5) 0.682(2) 0.0335(15)
C14? C 0.0689(4) 0.7896(13) 0.1151(11)
C15? C 0.0870(4) 0.6052(17) 0.0330(8)
H27? H 0.0171 0.6088 -0.0015
H28? H 0.0257 0.7612 0.0022
H29? H 0.0020 0.6949 0.0694
H30? H 0.0494 0.8323 0.1433
H31? H 0.0769 0.8457 0.0721
H32? H 0.0887 0.7740 0.1513
H33? H 0.1084 0.6064 0.0661
H34? H 0.0907 0.6617 -0.0127
H35? H 0.0824 0.5161 0.0152
N3? N 0.04436(6) 0.5778(3) 0.15105(17)
loop_
_geom_bond_atom_site_label_1
_geom_bond_atom_site_label_2
_geom_bond_site_symmetry_1
_geom_bond_site_symmetry_2
N1 C1 1_555 1_555
C1 C2 1_555 1_555
C2 H1 1_555 1_555
H2 C2 1_555 1_555
H3 C2 1_555 1_555
C3 C1 1_555 1_555
H4 C3 1_555 1_555
H5 C3 1_555 1_555
H6 C3 1_555 1_555
C4 C1 1_555 1_555
H7 C4 1_555 1_555
H8 C4 1_555 1_555
H9 C4 1_555 1_555
C5 C6 1_555 1_555
C6 H10 1_555 1_555
H11 C6 1_555 1_555
H12 C6 1_555 1_555
C7 C5 1_555 1_555
H13 C7 1_555 1_555
H14 C7 1_555 1_555
H15 C7 1_555 1_555
C8 C5 1_555 1_555
H16 C8 1_555 1_555
H17 C8 1_555 1_555
H18 C8 1_555 1_555
C9 H19 1_555 1_555
H20 C9 1_555 1_555
C10 H21 1_555 1_555
H22 C10 1_555 1_555
H23 C10 1_555 1_555
C11 H24 1_555 1_555
H25 C11 1_555 1_555
H26 C11 1_555 1_555
Mg1 N1 1_555 1_555
N2 C5 1_555 1_555
P1 C9 1_555 1_555
S1 N1 1_555 1_555
N1A Mg1 1_555 1_555
C1A N1A 1_555 1_555
C2A C1A 1_555 1_555
H1A C2A 1_555 1_555
H2A C2A 1_555 1_555
H3A C2A 1_555 1_555
C3A C1A 1_555 1_555
H4A C3A 1_555 1_555
H5A C3A 1_555 1_555
H6A C3A 1_555 1_555
C4A C1A 1_555 1_555
H7A C4A 1_555 1_555
H8A C4A 1_555 1_555
H9A C4A 1_555 1_555
C5A C6A 1_555 1_555
C6A H10A 1_555 1_555
H11A C6A 1_555 1_555
H12A C6A 1_555 1_555
C7A C5A 1_555 1_555
H13A C7A 1_555 1_555
H14A C7A 1_555 1_555
H15A C7A 1_555 1_555
C8A C5A 1_555 1_555
H16A C8A 1_555 1_555
H17A C8A 1_555 1_555
H18A C8A 1_555 1_555
C9A H19A 1_555 1_555
H20A C9A 1_555 1_555
C10A H21A 1_555 1_555
H22A C10A 1_555 1_555
H23A C10A 1_555 1_555
C11A H24A 1_555 1_555
H25A C11A 1_555 1_555
H26A C11A 1_555 1_555
N2A Mg1 1_555 1_555
P1A Mg1 1_555 1_555
S1A N1A 1_555 1_555
C9 S1 1_555 1_555
C10 P1 1_555 1_555
C11 P1 1_555 1_555
Mg1 N2 1_555 1_555
Mg1 P1 1_555 1_555
N2 S1 1_555 1_555
C5A N2A 1_555 1_555
C9A P1A 1_555 1_555
C9A S1A 1_555 1_555
C10A P1A 1_555 1_555
C11A P1A 1_555 1_555
N2A S1A 1_555 1_555

#END
