
#######################################################################
#
#                 Cambridge Crystallographic Data Centre
#                                CCDC 
#
#######################################################################
#
# If this CIF has been generated from an entry in the Cambridge 
# Structural Database, then it will include bibliographic, chemical, 
# crystal, experimental, refinement or atomic coordinate data resulting 
# from the CCDC's data processing and validation procedures.
#
#######################################################################

data_OMOHOO
_chemical_formula_moiety         'C18 H52 Mg1 N4 P2 S2 Si4'
_chemical_name_systematic        
bis(N,N'-bis(Trimethylsilyl)-S-((dimethylphosphino)methyl)diimidosulfinato-N,N',P)-magnesium
_symmetry_cell_setting           monoclinic
_symmetry_space_group_name_H-M   'P 21/n'
_symmetry_Int_Tables_number      14
_space_group_name_Hall           '-P 2yn'
loop_
_symmetry_equiv_pos_site_id
_symmetry_equiv_pos_as_xyz
1 x,y,z
2 1/2-x,1/2+y,1/2-z
3 -x,-y,-z
4 1/2+x,1/2-y,1/2+z
_cell_length_a                   10.2563(5)
_cell_length_b                   17.8142(8)
_cell_length_c                   19.2917(9)
_cell_angle_alpha                90
_cell_angle_beta                 99.273(1)
_cell_angle_gamma                90
_cell_volume                     3478.68
_exptl_crystal_colour            colorless
_exptl_crystal_description       block
_chemical_melting_point          '206.5 deg.C (dec.)'
_cell_formula_units_Z            4
_exptl_crystal_recrystallization_method n-pentane
loop_
_atom_site_label
_atom_site_type_symbol
_atom_site_fract_x
_atom_site_fract_y
_atom_site_fract_z
C1 C 0.55174(12) 0.05301(7) 0.15089(7)
H1 H 0.6384 0.0374 0.1758
H2 H 0.5039 0.0090 0.1295
H3 H 0.5012 0.0764 0.1841
C2 C 0.40448(10) 0.14667(6) 0.03437(6)
H4 H 0.3529 0.1682 0.0681
H5 H 0.3605 0.1013 0.0135
H6 H 0.4114 0.1834 -0.0027
C3 C 0.67192(13) 0.08001(7) 0.01762(8)
H7 H 0.6755 0.1151 -0.0211
H8 H 0.6301 0.0331 -0.0009
H9 H 0.7618 0.0696 0.0416
C4 C 0.97153(11) 0.30443(9) 0.32816(6)
H10 H 1.0184 0.2623 0.3106
H11 H 0.9971 0.3082 0.3792
H12 H 0.9946 0.3511 0.3061
C5 C 0.74229(13) 0.20379(7) 0.35344(6)
H13 H 0.6465 0.1964 0.3421
H14 H 0.7675 0.2109 0.4042
H15 H 0.7876 0.1596 0.3386
C6 C 0.70040(13) 0.37085(7) 0.33575(6)
H16 H 0.7259 0.4164 0.3129
H17 H 0.7232 0.3763 0.3868
H18 H 0.6050 0.3630 0.3230
C7 C 0.53375(9) 0.32681(6) 0.13889(5)
H19 H 0.5195 0.3642 0.1749
H20 H 0.4468 0.3130 0.1117
C8 C 0.54262(11) 0.35128(7) -0.00674(6)
H21 H 0.4518 0.3681 -0.0063
H22 H 0.5425 0.2977 -0.0183
H23 H 0.5808 0.3798 -0.0420
C9 C 0.61499(12) 0.46717(6) 0.09177(7)
H24 H 0.6570 0.4956 0.0579
H25 H 0.6540 0.4818 0.1396
H26 H 0.5200 0.4778 0.0842
C10 C 1.10769(16) 0.03233(7) 0.11427(7)
H27 H 1.0254 0.0201 0.0829
H28 H 1.1409 -0.0126 0.1408
H29 H 1.1736 0.0498 0.0864
C11 C 0.95284(13) 0.07306(7) 0.22977(8)
H30 H 0.9419 0.1105 0.2656
H31 H 0.9838 0.0257 0.2526
H32 H 0.8679 0.0648 0.1993
C12 C 1.23366(13) 0.12980(8) 0.23581(7)
H33 H 1.2988 0.1482 0.2079
H34 H 1.2675 0.0844 0.2613
H35 H 1.2174 0.1685 0.2695
C13 C 0.97530(11) 0.47737(6) 0.15723(6)
H36 H 0.9154 0.4868 0.1131
H37 H 1.0189 0.5243 0.1742
H38 H 0.9248 0.4579 0.1924
C14 C 1.19183(11) 0.44243(6) 0.07076(6)
H39 H 1.2555 0.4045 0.0609
H40 H 1.2386 0.4890 0.0862
H41 H 1.1281 0.4521 0.0281
C15 C 1.23021(11) 0.39622(7) 0.22227(6)
H42 H 1.1868 0.3923 0.2638
H43 H 1.2890 0.4399 0.2271
H44 H 1.2818 0.3507 0.2180
C16 C 1.07110(9) 0.24072(5) 0.01281(5)
H45 H 1.0963 0.1899 -0.0010
H46 H 1.1237 0.2780 -0.0089
C17 C 0.86535(12) 0.19627(7) -0.09518(6)
H47 H 0.7746 0.2029 -0.1196
H48 H 0.8792 0.1437 -0.0809
H49 H 0.9274 0.2100 -0.1267
C18 C 0.89229(12) 0.34899(6) -0.05865(6)
H50 H 0.9617 0.3510 -0.0881
H51 H 0.9086 0.3878 -0.0223
H52 H 0.8062 0.3577 -0.0878
Mg1 Mg 0.84415(3) 0.259423(15) 0.125479(15)
N1 N 0.65840(7) 0.20131(4) 0.11403(4)
N2 N 0.75639(7) 0.27743(5) 0.21678(4)
N3 N 1.00987(7) 0.18657(4) 0.13298(4)
N4 N 1.01921(7) 0.32483(4) 0.11849(4)
P1 P 0.64113(2) 0.366561(13) 0.079863(12)
P2 P 0.89308(2) 0.256598(13) -0.017241(12)
S1 S 0.61595(2) 0.243711(12) 0.180783(11)
S2 S 1.10343(2) 0.250117(11) 0.108218(11)
Si1 Si 0.57413(2) 0.122104(14) 0.080760(14)
Si2 Si 0.79036(3) 0.288572(16) 0.306406(13)
Si3 Si 1.07576(2) 0.107430(13) 0.176304(13)
Si4 Si 1.10212(2) 0.407293(13) 0.141933(13)
loop_
_geom_bond_atom_site_label_1
_geom_bond_atom_site_label_2
_geom_bond_site_symmetry_1
_geom_bond_site_symmetry_2
C1 H1 1_555 1_555
H2 C1 1_555 1_555
H3 C1 1_555 1_555
C2 H4 1_555 1_555
H5 C2 1_555 1_555
H6 C2 1_555 1_555
C3 H7 1_555 1_555
H8 C3 1_555 1_555
H9 C3 1_555 1_555
C4 H10 1_555 1_555
H11 C4 1_555 1_555
H12 C4 1_555 1_555
C5 H13 1_555 1_555
H14 C5 1_555 1_555
H15 C5 1_555 1_555
C6 H16 1_555 1_555
H17 C6 1_555 1_555
H18 C6 1_555 1_555
C7 H19 1_555 1_555
H20 C7 1_555 1_555
C8 H21 1_555 1_555
H22 C8 1_555 1_555
H23 C8 1_555 1_555
C9 H24 1_555 1_555
H25 C9 1_555 1_555
H26 C9 1_555 1_555
C10 H27 1_555 1_555
H28 C10 1_555 1_555
H29 C10 1_555 1_555
C11 H30 1_555 1_555
H31 C11 1_555 1_555
H32 C11 1_555 1_555
C12 H33 1_555 1_555
H34 C12 1_555 1_555
H35 C12 1_555 1_555
C13 H36 1_555 1_555
H37 C13 1_555 1_555
H38 C13 1_555 1_555
C14 H39 1_555 1_555
H40 C14 1_555 1_555
H41 C14 1_555 1_555
C15 H42 1_555 1_555
H43 C15 1_555 1_555
H44 C15 1_555 1_555
C16 H45 1_555 1_555
H46 C16 1_555 1_555
C17 H47 1_555 1_555
H48 C17 1_555 1_555
H49 C17 1_555 1_555
C18 H50 1_555 1_555
H51 C18 1_555 1_555
H52 C18 1_555 1_555
Mg1 N1 1_555 1_555
N1 S1 1_555 1_555
N2 Mg1 1_555 1_555
N3 Mg1 1_555 1_555
N4 Mg1 1_555 1_555
P1 C7 1_555 1_555
P2 C16 1_555 1_555
S1 C7 1_555 1_555
S2 C16 1_555 1_555
Si1 C1 1_555 1_555
Si2 C4 1_555 1_555
Si3 C10 1_555 1_555
Si4 C13 1_555 1_555
C2 Si1 1_555 1_555
C3 Si1 1_555 1_555
C5 Si2 1_555 1_555
C6 Si2 1_555 1_555
C8 P1 1_555 1_555
C9 P1 1_555 1_555
C11 Si3 1_555 1_555
C12 Si3 1_555 1_555
C14 Si4 1_555 1_555
C15 Si4 1_555 1_555
C17 P2 1_555 1_555
C18 P2 1_555 1_555
Mg1 P1 1_555 1_555
Mg1 P2 1_555 1_555
N1 Si1 1_555 1_555
N2 S1 1_555 1_555
N2 Si2 1_555 1_555
N3 S2 1_555 1_555
N3 Si3 1_555 1_555
N4 S2 1_555 1_555
N4 Si4 1_555 1_555

#END
