
#######################################################################
#
#                 Cambridge Crystallographic Data Centre
#                                CCDC 
#
#######################################################################
#
# If this CIF has been generated from an entry in the Cambridge 
# Structural Database, then it will include bibliographic, chemical, 
# crystal, experimental, refinement or atomic coordinate data resulting 
# from the CCDC's data processing and validation procedures.
#
#######################################################################

data_OMOLEH
_chemical_formula_moiety         'C13 H9 I1 N4 O4'
_chemical_name_systematic        '4-Iodobenzaldehyde 2,4-dinitrophenylhydrazone'
_symmetry_cell_setting           monoclinic
_symmetry_space_group_name_H-M   'C 2/c'
_symmetry_Int_Tables_number      15
_space_group_name_Hall           '-C 2yn'
loop_
_symmetry_equiv_pos_site_id
_symmetry_equiv_pos_as_xyz
1 x,y,z
2 x,-y,1/2+z
3 1/2+x,1/2+y,z
4 1/2+x,1/2-y,1/2+z
5 -x,-y,-z
6 -x,y,1/2-z
7 1/2-x,1/2-y,-z
8 1/2-x,1/2+y,1/2-z
_cell_length_a                   32.359(2)
_cell_length_b                   4.6293(3)
_cell_length_c                   18.4169(15)
_cell_angle_alpha                90
_cell_angle_beta                 97.631(3)
_cell_angle_gamma                90
_cell_volume                     2734.41
_exptl_crystal_colour            orange
_exptl_crystal_description       needle
_cell_formula_units_Z            8
_exptl_crystal_recrystallization_method ethanol
loop_
_atom_site_label
_atom_site_type_symbol
_atom_site_fract_x
_atom_site_fract_y
_atom_site_fract_z
C1 C 0.64812(15) 0.1563(13) 0.5656(3)
C2 C 0.68385(16) 0.1696(13) 0.5303(3)
C3 C 0.71950(16) 0.0187(12) 0.5565(3)
C4 C 0.71927(15) -0.1527(13) 0.6195(3)
I1 I 0.775212(12) -0.34687(10) 0.66469(2)
C5 C 0.68422(16) -0.1763(13) 0.6532(3)
C6 C 0.64889(16) -0.0236(11) 0.6271(3)
C7 C 0.61134(15) 0.3253(13) 0.5414(3)
N1 N 0.61077(13) 0.4974(10) 0.4869(3)
N2 N 0.57452(12) 0.6449(10) 0.4666(2)
C8 C 0.57281(15) 0.8431(13) 0.4120(3)
C9 C 0.53684(15) 0.9993(11) 0.3841(3)
C10 C 0.53751(15) 1.2104(11) 0.3306(3)
C11 C 0.57387(17) 1.2603(11) 0.3020(3)
C12 C 0.61022(15) 1.1059(12) 0.3265(3)
C13 C 0.60956(16) 0.9011(12) 0.3802(3)
N3 N 0.49666(13) 0.9529(10) 0.4092(3)
O1 O 0.49351(11) 0.7448(7) 0.4517(2)
O2 O 0.46768(10) 1.1144(8) 0.38838(19)
N4 N 0.57510(15) 1.4769(10) 0.2455(3)
O3 O 0.54354(11) 1.6251(9) 0.2271(2)
O4 O 0.60789(12) 1.5108(9) 0.2191(2)
H1 H 0.6835 0.2845 0.4874
H2 H 0.7437 0.0304 0.5326
H3 H 0.6843 -0.2982 0.6947
H4 H 0.6247 -0.0402 0.6509
H5 H 0.5875 0.3086 0.5660
H6 H 0.5525 0.6118 0.4888
H7 H 0.5131 1.3185 0.3140
H8 H 0.6352 1.1424 0.3060
H9 H 0.6343 0.7958 0.3965
loop_
_geom_bond_atom_site_label_1
_geom_bond_atom_site_label_2
_geom_bond_site_symmetry_1
_geom_bond_site_symmetry_2
C1 C2 1_555 1_555
C2 C3 1_555 1_555
C3 C4 1_555 1_555
C4 I1 1_555 1_555
C5 C4 1_555 1_555
C6 C1 1_555 1_555
C7 C1 1_555 1_555
N1 C7 1_555 1_555
N2 N1 1_555 1_555
C8 N2 1_555 1_555
C9 C8 1_555 1_555
C10 C9 1_555 1_555
C11 C10 1_555 1_555
C12 C11 1_555 1_555
C13 C8 1_555 1_555
N3 C9 1_555 1_555
O1 N3 1_555 1_555
O2 N3 1_555 1_555
N4 C11 1_555 1_555
O3 N4 1_555 1_555
O4 N4 1_555 1_555
H1 C2 1_555 1_555
H2 C3 1_555 1_555
H3 C5 1_555 1_555
H4 C6 1_555 1_555
H5 C7 1_555 1_555
H6 N2 1_555 1_555
H7 C10 1_555 1_555
H8 C12 1_555 1_555
H9 C13 1_555 1_555
C5 C6 1_555 1_555
C12 C13 1_555 1_555

#END
