
#######################################################################
#
#                 Cambridge Crystallographic Data Centre
#                                CCDC 
#
#######################################################################
#
# If this CIF has been generated from an entry in the Cambridge 
# Structural Database, then it will include bibliographic, chemical, 
# crystal, experimental, refinement or atomic coordinate data resulting 
# from the CCDC's data processing and validation procedures.
#
#######################################################################

data_OMOMOS
_chemical_formula_moiety         'C7 H7 N3 O2'
_chemical_name_systematic        '4-Nitrobenzaldehyde hydrazone'
_symmetry_cell_setting           monoclinic
_symmetry_space_group_name_H-M   'P c'
_symmetry_Int_Tables_number      7
_space_group_name_Hall           'P -2yc'
loop_
_symmetry_equiv_pos_site_id
_symmetry_equiv_pos_as_xyz
1 x,y,z
2 x,-y,1/2+z
_cell_length_a                   3.7070(2)
_cell_length_b                   6.3963(3)
_cell_length_c                   15.4047(10)
_cell_angle_alpha                90
_cell_angle_beta                 95.064(2)
_cell_angle_gamma                90
_cell_volume                     363.836
_exptl_crystal_colour            colorless
_exptl_crystal_description       plate
_chemical_melting_point          '407-408 K'
_cell_formula_units_Z            2
_exptl_crystal_recrystallization_method ethanol
loop_
_atom_site_label
_atom_site_type_symbol
_atom_site_fract_x
_atom_site_fract_y
_atom_site_fract_z
C1 C 0.4362(7) 0.2888(5) 0.32040(19)
C2 C 0.4310(7) 0.1965(5) 0.40249(19)
C3 C 0.3088(8) 0.3066(5) 0.4712(2)
C4 C 0.1947(7) 0.5132(5) 0.4569(2)
C5 C 0.2066(7) 0.6112(5) 0.37713(19)
C6 C 0.3267(8) 0.4974(5) 0.30925(19)
C7 C 0.5515(7) 0.1757(5) 0.24483(19)
N1 N 0.0612(7) 0.6280(4) 0.52911(17)
N2 N 0.6376(7) -0.0166(4) 0.24894(16)
N3 N 0.7161(8) -0.1091(4) 0.17187(19)
O1 O -0.0046(8) 0.8169(3) 0.51917(18)
O2 O 0.0131(6) 0.5344(4) 0.59654(15)
H1 H 0.5106 0.0595 0.4109
H2 H 0.3024 0.2449 0.5257
H3 H 0.1357 0.7499 0.3695
H4 H 0.3351 0.5604 0.2551
H5 H 0.5620 0.2466 0.1924
H6 H 0.7053 -0.0369 0.1246
H7 H 0.7759 -0.2390 0.1711
loop_
_geom_bond_atom_site_label_1
_geom_bond_atom_site_label_2
_geom_bond_site_symmetry_1
_geom_bond_site_symmetry_2
C1 C2 1_555 1_555
C2 C3 1_555 1_555
C3 C4 1_555 1_555
C4 C5 1_555 1_555
C5 C6 1_555 1_555
C6 C1 1_555 1_555
C7 C1 1_555 1_555
N1 C4 1_555 1_555
N2 C7 1_555 1_555
N3 N2 1_555 1_555
O1 N1 1_555 1_555
O2 N1 1_555 1_555
H1 C2 1_555 1_555
H2 C3 1_555 1_555
H3 C5 1_555 1_555
H4 C6 1_555 1_555
H5 C7 1_555 1_555
H6 N3 1_555 1_555
H7 N3 1_555 1_555

#END
