
#######################################################################
#
#                 Cambridge Crystallographic Data Centre
#                                CCDC 
#
#######################################################################
#
# If this CIF has been generated from an entry in the Cambridge 
# Structural Database, then it will include bibliographic, chemical, 
# crystal, experimental, refinement or atomic coordinate data resulting 
# from the CCDC's data processing and validation procedures.
#
#######################################################################

data_OMOMUZ
_chemical_formula_moiety         'C25 H23 N1 O4'
_chemical_name_systematic        
'Dimethyl 2-(3-(dimethylamino)-1,5-diphenylpenta-1,4-diyn-3-yl)but-2-enedioate'
_symmetry_cell_setting           triclinic
_symmetry_space_group_name_H-M   'P -1'
_symmetry_Int_Tables_number      2
_space_group_name_Hall           '-P 1'
loop_
_symmetry_equiv_pos_site_id
_symmetry_equiv_pos_as_xyz
1 x,y,z
2 -x,-y,-z
_cell_length_a                   7.8193(4)
_cell_length_b                   8.5267(5)
_cell_length_c                   17.8337(11)
_cell_angle_alpha                80.8660(15)
_cell_angle_beta                 87.4443(18)
_cell_angle_gamma                71.5581(14)
_cell_volume                     1113.64
_exptl_crystal_colour            colorless
_exptl_crystal_description       block
_cell_formula_units_Z            2
loop_
_atom_site_label
_atom_site_type_symbol
_atom_site_fract_x
_atom_site_fract_y
_atom_site_fract_z
O1 O 0.66763(19) 0.61771(16) 0.26305(9)
O2 O 0.7072(2) 0.4996(2) 0.02138(9)
O3 O 0.91625(19) 0.39652(19) 0.28590(10)
O4 O 0.8337(2) 0.5783(2) 0.11287(10)
N1 N 0.4594(2) 0.3658(2) 0.32250(10)
C1 C 0.6724(2) 0.3710(2) 0.22000(11)
C2 C 0.6693(3) 0.3847(2) 0.14494(12)
H1 H 0.6149 0.3197 0.1235
C3 C 0.5844(3) 0.2581(2) 0.27302(11)
C4 C 0.7673(3) 0.4617(2) 0.25921(12)
C5 C 0.4935(3) 0.1712(2) 0.23001(12)
C6 C 0.7301(3) 0.1306(2) 0.32009(12)
C7 C 0.7473(3) 0.4972(3) 0.09368(12)
C8 C 0.3128(3) 0.4968(3) 0.27857(15)
H2 H 0.2435 0.4458 0.2532
H3 H 0.3632 0.5645 0.2416
H4 H 0.2363 0.5658 0.3122
C9 C 0.7540(4) 0.7159(3) 0.29655(17)
H5 H 0.7975 0.6601 0.3464
H6 H 0.6688 0.8237 0.3002
H7 H 0.8533 0.7293 0.2654
C10 C 0.3824(4) 0.2703(3) 0.38265(15)
H8 H 0.3076 0.2198 0.3603
H9 H 0.3113 0.3440 0.4158
H10 H 0.4780 0.1846 0.4112
C11 C 0.7595(4) 0.6179(4) -0.03481(15)
H11 H 0.6759 0.7279 -0.0342
H12 H 0.7588 0.5869 -0.0842
H13 H 0.8784 0.6175 -0.0233
C12 C 0.4112(3) 0.1009(2) 0.20005(12)
C13 C 0.3115(3) 0.0189(2) 0.16335(11)
C14 C 0.1280(3) 0.0553(3) 0.17455(14)
H14 H 0.0690 0.1335 0.2057
C15 C 0.9890(3) -0.0933(2) 0.40429(12)
C16 C 0.3967(3) -0.0982(3) 0.11707(14)
H15 H 0.5204 -0.1247 0.1094
C17 C 0.8494(3) 0.0280(2) 0.35705(12)
C18 C 0.1173(4) -0.1391(3) 0.09376(17)
H16 H 0.0518 -0.1922 0.0705
C19 C 0.2987(4) -0.1759(3) 0.08223(16)
H17 H 0.3564 -0.2537 0.0507
C20 C 0.0321(3) -0.0238(3) 0.13978(17)
H18 H -0.0914 0.0013 0.1476
C21 C 1.1684(4) -0.1201(4) 0.38756(15)
H19 H 1.2016 -0.0615 0.3438
C22 C 0.9450(3) -0.1834(3) 0.46901(13)
H20 H 0.8244 -0.1677 0.4810
C23 C 1.0772(4) -0.2967(3) 0.51642(15)
H21 H 1.0450 -0.3567 0.5599
C24 C 1.2530(4) -0.3211(3) 0.49998(16)
H22 H 1.3417 -0.3967 0.5323
C25 C 1.2998(4) -0.2342(4) 0.43576(19)
H23 H 1.4210 -0.2517 0.4242
loop_
_geom_bond_atom_site_label_1
_geom_bond_atom_site_label_2
_geom_bond_site_symmetry_1
_geom_bond_site_symmetry_2
O1 C4 1_555 1_555
O2 C7 1_555 1_555
O3 C4 1_555 1_555
O4 C7 1_555 1_555
N1 C3 1_555 1_555
C1 C2 1_555 1_555
C2 H1 1_555 1_555
C3 C1 1_555 1_555
C4 C1 1_555 1_555
C5 C3 1_555 1_555
C6 C3 1_555 1_555
C7 C2 1_555 1_555
C8 N1 1_555 1_555
H2 C8 1_555 1_555
H3 C8 1_555 1_555
H4 C8 1_555 1_555
C9 O1 1_555 1_555
H5 C9 1_555 1_555
H6 C9 1_555 1_555
H7 C9 1_555 1_555
C10 N1 1_555 1_555
H8 C10 1_555 1_555
H9 C10 1_555 1_555
H10 C10 1_555 1_555
C11 O2 1_555 1_555
H11 C11 1_555 1_555
H12 C11 1_555 1_555
H13 C11 1_555 1_555
C12 C5 1_555 1_555
C13 C12 1_555 1_555
C14 C13 1_555 1_555
H14 C14 1_555 1_555
C15 C17 1_555 1_555
C16 C13 1_555 1_555
H15 C16 1_555 1_555
C17 C6 1_555 1_555
C18 H16 1_555 1_555
C19 C16 1_555 1_555
H17 C19 1_555 1_555
C20 C14 1_555 1_555
H18 C20 1_555 1_555
C21 C15 1_555 1_555
H19 C21 1_555 1_555
C22 C15 1_555 1_555
H20 C22 1_555 1_555
C23 C22 1_555 1_555
H21 C23 1_555 1_555
C24 C23 1_555 1_555
H22 C24 1_555 1_555
C25 C21 1_555 1_555
H23 C25 1_555 1_555
C18 C19 1_555 1_555
C18 C20 1_555 1_555
C24 C25 1_555 1_555

#END
