
#######################################################################
#
#                 Cambridge Crystallographic Data Centre
#                                CCDC 
#
#######################################################################
#
# If this CIF has been generated from an entry in the Cambridge 
# Structural Database, then it will include bibliographic, chemical, 
# crystal, experimental, refinement or atomic coordinate data resulting 
# from the CCDC's data processing and validation procedures.
#
#######################################################################

data_OMOMIO
_chemical_formula_moiety         'C2 N8 O2 2-,2(C2 H4 N3 1+)'
_chemical_name_systematic        
"bis(4H-1,2,4-Triazol-1-ium) 1H,1'H-5,5'-bitetrazole-1,1'-diolate"
_symmetry_cell_setting           monoclinic
_symmetry_space_group_name_H-M   'C 2/c'
_symmetry_Int_Tables_number      15
_space_group_name_Hall           '-C 2yn'
loop_
_symmetry_equiv_pos_site_id
_symmetry_equiv_pos_as_xyz
1 x,y,z
2 -x,y,1/2-z
3 1/2+x,1/2+y,z
4 1/2-x,1/2+y,1/2-z
5 -x,-y,-z
6 x,-y,1/2+z
7 1/2-x,1/2-y,-z
8 1/2+x,1/2-y,1/2+z
_cell_length_a                   15.2410(12)
_cell_length_b                   10.5185(8)
_cell_length_c                   7.7546(7)
_cell_angle_alpha                90
_cell_angle_beta                 100.767(8)
_cell_angle_gamma                90
_cell_volume                     1221.27
_exptl_crystal_colour            colorless
_cell_formula_units_Z            4
loop_
_atom_site_label
_atom_site_type_symbol
_atom_site_fract_x
_atom_site_fract_y
_atom_site_fract_z
O1 O 0.38603(8) 0.15503(12) 0.60408(18)
N1 N 0.46001(9) 0.16114(13) 0.53880(19)
N2 N 0.57799(10) 0.11814(15) 0.4341(2)
N3 N 0.49712(11) 0.27213(15) 0.5100(2)
N4 N 0.56813(11) 0.24424(16) 0.4463(2)
C1 C 0.50961(10) 0.06647(16) 0.4930(2)
O1D O 0.61397(8) -0.15503(12) 0.39592(18)
N1D N 0.53999(9) -0.16114(13) 0.46120(19)
N2D N 0.42201(10) -0.11814(15) 0.5659(2)
N3D N 0.50288(11) -0.27213(15) 0.4900(2)
N4D N 0.43187(11) -0.24424(16) 0.5537(2)
C1D C 0.49039(10) -0.06647(16) 0.5070(2)
N5 N 0.22659(9) 0.48603(14) 0.79069(19)
N6 N 0.32017(11) 0.36936(14) 0.6959(2)
N7 N 0.28916(10) 0.56678(15) 0.7516(2)
C2 C 0.24483(13) 0.36912(16) 0.7579(2)
H1 H 0.2112 0.2980 0.7747
C3 C 0.34531(13) 0.49195(17) 0.6943(3)
H2 H 0.3966 0.5198 0.6568
H3 H 0.1793(16) 0.521(2) 0.837(3)
H4 H 0.3524(19) 0.295(3) 0.649(3)
loop_
_geom_bond_atom_site_label_1
_geom_bond_atom_site_label_2
_geom_bond_site_symmetry_1
_geom_bond_site_symmetry_2
O1 N1 1_555 1_555
N1 N3 1_555 1_555
N2 N4 1_555 1_555
N3 N4 1_555 1_555
C1 N1 1_555 1_555
N5 N7 1_555 1_555
N6 C2 1_555 1_555
N7 C3 1_555 1_555
C2 N5 1_555 1_555
H1 C2 1_555 1_555
C3 N6 1_555 1_555
H2 C3 1_555 1_555
H3 N5 1_555 1_555
H4 N6 1_555 1_555
O1D N1D 1_555 1_555
N1D N3D 1_555 1_555
N2D N4D 1_555 1_555
N3D N4D 1_555 1_555
C1D C1 1_555 1_555
N2 C1 1_555 1_555
N1D C1D 1_555 1_555
N2D C1D 1_555 1_555

#END
