
#######################################################################
#
#                 Cambridge Crystallographic Data Centre
#                                CCDC 
#
#######################################################################
#
# If this CIF has been generated from an entry in the Cambridge 
# Structural Database, then it will include bibliographic, chemical, 
# crystal, experimental, refinement or atomic coordinate data resulting 
# from the CCDC's data processing and validation procedures.
#
#######################################################################

data_OMOMAE
_chemical_formula_moiety         'C14 H12 N2 O2'
_chemical_name_systematic        N^2^-(Benzoyloxy)benzamidine
_symmetry_cell_setting           monoclinic
_symmetry_space_group_name_H-M   'P 21/n'
_symmetry_Int_Tables_number      14
_space_group_name_Hall           '-P 2yn'
loop_
_symmetry_equiv_pos_site_id
_symmetry_equiv_pos_as_xyz
1 x,y,z
2 1/2+x,1/2-y,1/2+z
3 -x,-y,-z
4 1/2-x,1/2+y,1/2-z
_cell_length_a                   7.0415(2)
_cell_length_b                   21.4704(7)
_cell_length_c                   8.0570(3)
_cell_angle_alpha                90
_cell_angle_beta                 108.4804(16)
_cell_angle_gamma                90
_cell_volume                     1155.27
_exptl_crystal_colour            colorless
_exptl_crystal_description       plate
_cell_formula_units_Z            4
_exptl_crystal_recrystallization_method acetonitrile
loop_
_atom_site_label
_atom_site_type_symbol
_atom_site_fract_x
_atom_site_fract_y
_atom_site_fract_z
O1 O 0.68674(18) 0.20793(5) 1.03591(14)
O2 O 0.62128(19) 0.11800(5) 0.87945(15)
N1 N 0.6429(2) 0.23953(6) 0.86857(17)
N2 N 0.8343(2) 0.31800(7) 1.05407(17)
C1 C 0.7286(2) 0.29369(7) 0.8972(2)
C2 C 0.6621(2) 0.14541(8) 1.0169(2)
C3 C 0.6990(2) 0.33248(7) 0.7376(2)
C4 C 0.6842(2) 0.30402(8) 0.5786(2)
C5 C 0.6554(2) 0.33948(8) 0.4299(2)
C6 C 0.6435(3) 0.40380(8) 0.4378(2)
C7 C 0.6600(3) 0.43238(8) 0.5957(2)
C8 C 0.6863(2) 0.39696(8) 0.7450(2)
C9 C 0.6908(2) 0.11529(7) 1.1906(2)
C10 C 0.7371(2) 0.14931(8) 1.3457(2)
C11 C 0.7585(3) 0.11870(8) 1.5029(2)
C12 C 0.7311(3) 0.05492(8) 1.5044(2)
C13 C 0.6868(3) 0.02098(8) 1.3499(2)
C14 C 0.6678(3) 0.05123(8) 1.1937(2)
H1 H 0.6939 0.2600 0.5725
H2 H 0.6437 0.3198 0.3216
H3 H 0.6240 0.4281 0.3353
H4 H 0.6534 0.4765 0.6017
H5 H 0.6957 0.4168 0.8527
H6 H 0.7540 0.1932 1.3441
H7 H 0.7919 0.1416 1.6092
H8 H 0.7426 0.0342 1.6114
H9 H 0.6696 -0.0229 1.3515
H10 H 0.6388 0.0280 1.0883
H11 H 0.8959 0.2907 1.1487
H12 H 0.9223 0.3516 1.0544
loop_
_geom_bond_atom_site_label_1
_geom_bond_atom_site_label_2
_geom_bond_site_symmetry_1
_geom_bond_site_symmetry_2
O1 N1 1_555 1_555
O2 C2 1_555 1_555
N1 C1 1_555 1_555
N2 C1 1_555 1_555
C1 C3 1_555 1_555
C2 O1 1_555 1_555
C3 C4 1_555 1_555
C4 C5 1_555 1_555
C5 C6 1_555 1_555
C6 C7 1_555 1_555
C7 C8 1_555 1_555
C8 C3 1_555 1_555
C9 C2 1_555 1_555
C10 C9 1_555 1_555
C11 C10 1_555 1_555
C12 C11 1_555 1_555
C13 C12 1_555 1_555
C14 C9 1_555 1_555
H1 C4 1_555 1_555
H2 C5 1_555 1_555
H3 C6 1_555 1_555
H4 C7 1_555 1_555
H5 C8 1_555 1_555
H6 C10 1_555 1_555
H7 C11 1_555 1_555
H8 C12 1_555 1_555
H9 C13 1_555 1_555
H10 C14 1_555 1_555
H11 N2 1_555 1_555
H12 N2 1_555 1_555
C13 C14 1_555 1_555

#END
