
#######################################################################
#
#                 Cambridge Crystallographic Data Centre
#                                CCDC 
#
#######################################################################
#
# If this CIF has been generated from an entry in the Cambridge 
# Structural Database, then it will include bibliographic, chemical, 
# crystal, experimental, refinement or atomic coordinate data resulting 
# from the CCDC's data processing and validation procedures.
#
#######################################################################

data_OMONIO
_chemical_formula_moiety         'C76 H26 O8,C6 H12'
_chemical_name_systematic        
'bis(1,1-bis(ethoxycarbonyl)ethyl)-dihydro-C60fullerene cyclohexane solvate'
_symmetry_cell_setting           monoclinic
_symmetry_space_group_name_H-M   'P 21/a'
_symmetry_Int_Tables_number      14
_space_group_name_Hall           '-P 2yab'
loop_
_symmetry_equiv_pos_site_id
_symmetry_equiv_pos_as_xyz
1 x,y,z
2 1/2-x,1/2+y,-z
3 -x,-y,-z
4 1/2+x,1/2-y,z
_cell_length_a                   15.0742(3)
_cell_length_b                   20.5227(4)
_cell_length_c                   16.5372(3)
_cell_angle_alpha                90
_cell_angle_beta                 105.9750(7)
_cell_angle_gamma                90
_cell_volume                     4918.43
_exptl_crystal_colour            black
_exptl_crystal_description       block
_cell_formula_units_Z            4
loop_
_atom_site_label
_atom_site_type_symbol
_atom_site_fract_x
_atom_site_fract_y
_atom_site_fract_z
O1 O 0.72433(15) 0.84286(10) 0.52474(12)
O2 O 0.66458(13) 0.78596(8) 0.25463(11)
O3 O 0.60444(13) 0.84196(9) 0.40844(11)
O4 O 0.72203(13) 0.72594(8) 0.37091(11)
O5 O 0.84589(13) 0.79202(9) 0.23685(11)
O6 O 0.77934(16) 0.85490(10) -0.03073(12)
O7 O 0.78809(13) 0.73284(8) 0.12018(11)
O8 O 0.90024(14) 0.85476(10) 0.08515(12)
C1 C 0.74818(17) 0.90686(11) 0.34135(15)
C2 C 0.83326(17) 0.92427(11) 0.31180(15)
C3 C 0.83463(18) 0.92613(11) 0.22926(16)
C4 C 0.75129(18) 0.91107(11) 0.15484(15)
C5 C 0.66522(18) 0.92255(11) 0.18523(15)
C6 C 0.66382(17) 0.92049(11) 0.26768(15)
C7 C 0.7453(2) 0.96117(12) 0.40602(16)
C8 C 0.8463(6) 0.9895(3) 0.4320(4)
C9 C 0.89952(19) 0.96705(13) 0.36628(18)
C10 C 0.9582(4) 1.0093(3) 0.3518(4)
C11 C 0.9597(4) 1.0119(3) 0.2655(5)
C12 C 0.90203(18) 0.97067(13) 0.21284(18)
C13 C 0.8537(6) 0.9982(3) 0.1246(5)
C14 C 0.7494(3) 0.96822(13) 0.09303(18)
C15 C 0.6910(5) 1.0062(3) 0.0541(3)
C16 C 0.6017(5) 1.0031(3) 0.0734(4)
C17 C 0.59505(17) 0.96409(12) 0.13273(16)
C18 C 0.5415(4) 0.9849(3) 0.1944(5)
C19 C 0.59239(19) 0.96062(13) 0.2859(2)
C20 C 0.5937(5) 0.9953(3) 0.3462(4)
C21 C 0.6819(5) 0.9971(3) 0.4141(4)
C22 C 0.6924(8) 1.0624(4) 0.4474(7)
C23 C 0.7802(12) 1.0886(5) 0.4736(9)
C24 C 0.8588(4) 1.0523(3) 0.4656(3)
C25 C 0.9201(6) 1.0955(4) 0.4420(6)
C26 C 0.9720(5) 1.0753(4) 0.3861(4)
C27 C 0.9803(4) 1.1183(3) 0.3190(4)
C28 C 0.9750(5) 1.0794(4) 0.2447(5)
C29 C 0.9311(7) 1.1040(4) 0.1668(6)
C30 C 0.8692(4) 1.0627(3) 0.1043(4)
C31 C 0.7938(7) 1.1008(4) 0.0587(6)
C32 C 0.7038(11) 1.0735(4) 0.0343(8)
C33 C 0.6246(4) 1.1109(3) 0.0405(3)
C34 C 0.5619(7) 1.0681(4) 0.0644(6)
C35 C 0.5136(8) 1.0883(4) 0.1213(7)
C36 C 0.5028(3) 1.0467(3) 0.1863(3)
C37 C 0.5075(14) 1.0846(7) 0.2577(14)
C38 C 0.5541(6) 1.0606(4) 0.3394(5)
C39 C 0.6154(4) 1.1015(3) 0.4019(4)
C40 C 0.6290(7) 1.1654(4) 0.3834(6)
C41 C 0.7189(5) 1.1946(4) 0.4091(5)
C42 C 0.7954(6) 1.1570(3) 0.4528(4)
C43 C 0.8815(7) 1.1624(5) 0.4324(6)
C44 C 0.8916(2) 1.20116(13) 0.37403(19)
C45 C 0.9422(5) 1.1808(3) 0.3109(6)
C46 C 0.8926(2) 1.20493(14) 0.2170(2)
C47 C 0.8903(6) 1.1691(3) 0.1569(5)
C48 C 0.8043(6) 1.1677(4) 0.0900(5)
C49 C 0.7390(2) 1.20261(13) 0.09894(18)
C50 C 0.6377(7) 1.1743(3) 0.0714(4)
C51 C 0.5870(7) 1.1973(6) 0.1277(6)
C52 C 0.5258(4) 1.1552(3) 0.1534(5)
C53 C 0.5236(4) 1.1523(3) 0.2406(5)
C54 C 0.5803(2) 1.19426(13) 0.2929(2)
C55 C 0.7339(2) 1.23771(12) 0.34151(17)
C56 C 0.8189(2) 1.24088(12) 0.32099(18)
C57 C 0.8203(2) 1.24318(12) 0.23553(18)
C58 C 0.7356(2) 1.24197(12) 0.17063(17)
C59 C 0.6502(2) 1.23952(12) 0.19072(17)
C60 C 0.6491(2) 1.23705(12) 0.27671(17)
C61 C 0.75247(18) 0.83795(11) 0.38641(15)
C62 C 0.85228(18) 0.82231(13) 0.43555(17)
H1 H 0.8778 0.8587 0.4732
H2 H 0.8894 0.8156 0.3961
H3 H 0.8533 0.7827 0.4688
C63 C 0.6942(2) 0.84121(12) 0.44961(16)
C64 C 0.70834(17) 0.78200(11) 0.32695(16)
C65 C 0.5402(2) 0.84506(17) 0.46026(19)
H4 H 0.5483 0.8863 0.4925
H5 H 0.5508 0.8082 0.5004
C66 C 0.4457(2) 0.84140(16) 0.4012(2)
H6 H 0.3998 0.8442 0.4330
H7 H 0.4384 0.8000 0.3705
H8 H 0.4368 0.8776 0.3611
C67 C 0.67612(19) 0.66850(12) 0.32631(17)
H9 H 0.7074 0.6288 0.3543
H10 H 0.6815 0.6690 0.2680
C68 C 0.5756(2) 0.66609(14) 0.32423(18)
H11 H 0.5483 0.6255 0.2974
H12 H 0.5433 0.7033 0.2922
H13 H 0.5699 0.6679 0.3818
C69 C 0.75245(18) 0.84393(12) 0.10707(15)
C70 C 0.65408(19) 0.82483(13) 0.05752(17)
H14 H 0.6178 0.8147 0.0968
H15 H 0.6564 0.7865 0.0228
H16 H 0.6252 0.8611 0.0213
C71 C 0.80044(17) 0.78836(12) 0.16488(16)
C72 C 0.8103(2) 0.85206(12) 0.04423(17)
C73 C 0.83722(19) 0.67601(12) 0.16344(17)
H17 H 0.8088 0.6360 0.1341
H18 H 0.8312 0.6746 0.2215
C74 C 0.9382(2) 0.67766(14) 0.16632(19)
H19 H 0.9676 0.6368 0.1903
H20 H 0.9682 0.7143 0.2013
H21 H 0.9443 0.6830 0.1092
C75 C 0.9635(2) 0.8617(2) 0.0325(2)
H22 H 0.9528 0.9036 0.0018
H23 H 0.9542 0.8258 -0.0090
C76 C 1.0592(3) 0.8594(2) 0.0908(2)
H24 H 1.1042 0.8602 0.0580
H25 H 1.0669 0.8192 0.1242
H26 H 1.0689 0.8971 0.1285
C77 C 0.7699(2) 0.96647(15) 0.6534(2)
H27 H 0.7563 0.9503 0.5948
H28 H 0.8225 0.9972 0.6630
C78 C 0.6865(2) 1.00131(17) 0.6660(2)
H29 H 0.6327 0.9716 0.6514
H30 H 0.6721 1.0395 0.6280
C79 C 0.7039(2) 1.02391(16) 0.7572(2)
H31 H 0.7514 1.0586 0.7687
H32 H 0.6463 1.0429 0.7647
C80 C 0.7355(2) 0.96932(19) 0.8204(2)
H33 H 0.6840 0.9385 0.8163
H34 H 0.7534 0.9876 0.8780
C81 C 0.8176(2) 0.93295(17) 0.8043(2)
H35 H 0.8720 0.9621 0.8164
H36 H 0.8331 0.8949 0.8424
C82 C 0.7954(2) 0.91005(15) 0.7137(2)
H37 H 0.8495 0.8872 0.7044
H38 H 0.7434 0.8788 0.7027
C83? C 0.89952(19) 0.96705(13) 0.36628(18)
C84? C 0.9511(4) 0.9937(3) 0.3016(5)
C85? C 0.90203(18) 0.97067(13) 0.21284(18)
C86? C 0.8935(5) 1.0084(4) 0.1499(5)
C87? C 0.8046(5) 1.0078(3) 0.0837(4)
C88? C 0.7494(3) 0.96822(13) 0.09303(18)
C89? C 0.6417(6) 0.9921(3) 0.0688(4)
C90? C 0.59505(17) 0.96409(12) 0.13273(16)
C91? C 0.5321(4) 1.0024(3) 0.1533(5)
C92? C 0.5324(4) 1.0012(3) 0.2405(4)
C93? C 0.59239(19) 0.96062(13) 0.2859(2)
C94? C 0.6424(6) 0.9870(3) 0.3788(5)
C95? C 0.6220(4) 1.0485(3) 0.4028(4)
C96? C 0.6975(9) 1.0888(4) 0.4503(7)
C97? C 0.7876(13) 1.0662(5) 0.4707(9)
C98? C 0.8625(5) 1.1078(3) 0.4639(3)
C99? C 0.9311(7) 1.0704(4) 0.4351(6)
C100? C 0.9718(4) 1.0957(4) 0.3799(4)
C101? C 0.9843(4) 1.0571(3) 0.3121(4)
C102? C 0.9710(5) 1.0980(4) 0.2395(4)
C103? C 0.9258(6) 1.0757(4) 0.1585(5)
C104? C 0.8613(4) 1.1152(3) 0.1004(4)
C105? C 0.7849(8) 1.0744(4) 0.0529(6)
C106? C 0.6968(10) 1.0975(4) 0.0307(8)
C107? C 0.6220(4) 1.0556(3) 0.0390(3)
C108? C 0.5561(8) 1.0950(4) 0.0679(6)
C109? C 0.5115(5) 1.0691(6) 0.1226(6)
C110? C 0.5006(4) 1.1079(3) 0.1925(4)
C111? C 0.5147(15) 1.0664(8) 0.2676(16)
C112? C 0.5579(6) 1.0895(4) 0.3453(6)
C113? C 0.5911(6) 1.1564(4) 0.3560(6)
C114? C 0.6767(6) 1.1562(3) 0.4210(4)
C115? C 0.7507(7) 1.1961(3) 0.4128(4)
C116? C 0.8432(8) 1.1715(5) 0.4381(6)
C117? C 0.8916(2) 1.20116(13) 0.37403(19)
C118? C 0.9528(4) 1.1629(3) 0.3508(5)
C119? C 0.9518(4) 1.1644(3) 0.2628(5)
C120? C 0.8926(2) 1.20493(14) 0.2170(2)
C121? C 0.8424(7) 1.1777(3) 0.1228(6)
C122? C 0.7390(2) 1.20261(13) 0.09894(18)
C123? C 0.6762(5) 1.1636(3) 0.0553(4)
C124? C 0.5899(6) 1.1614(3) 0.0772(4)
C125? C 0.5769(7) 1.1992(4) 0.1449(6)
C126? C 0.5320(4) 1.1718(3) 0.2021(6)
C127? C 0.5803(2) 1.19426(13) 0.2929(2)
C128? C 0.7453(2) 0.96117(12) 0.40602(16)
C129? C 0.8058(5) 1.0005(3) 0.4471(4)
C130? C 0.8938(5) 1.0032(3) 0.4254(3)
loop_
_geom_bond_atom_site_label_1
_geom_bond_atom_site_label_2
_geom_bond_site_symmetry_1
_geom_bond_site_symmetry_2
O1 C63 1_555 1_555
O2 C64 1_555 1_555
O3 C63 1_555 1_555
O4 C64 1_555 1_555
O5 C71 1_555 1_555
O6 C72 1_555 1_555
O7 C71 1_555 1_555
O8 C72 1_555 1_555
C1 C2 1_555 1_555
C2 C3 1_555 1_555
C3 C4 1_555 1_555
C4 C5 1_555 1_555
C5 C6 1_555 1_555
C6 C1 1_555 1_555
C7 C1 1_555 1_555
C8 C7 1_555 1_555
C9 C2 1_555 1_555
C10 C9 1_555 1_555
C11 C10 1_555 1_555
C12 C3 1_555 1_555
C13 C12 1_555 1_555
C14 C4 1_555 1_555
C15 C14 1_555 1_555
C16 C15 1_555 1_555
C17 C5 1_555 1_555
C18 C17 1_555 1_555
C19 C6 1_555 1_555
C20 C19 1_555 1_555
C21 C7 1_555 1_555
C22 C21 1_555 1_555
C23 C22 1_555 1_555
C24 C8 1_555 1_555
C25 C24 1_555 1_555
C26 C10 1_555 1_555
C27 C26 1_555 1_555
C28 C11 1_555 1_555
C29 C28 1_555 1_555
C30 C13 1_555 1_555
C31 C30 1_555 1_555
C32 C15 1_555 1_555
C33 C32 1_555 1_555
C34 C16 1_555 1_555
C35 C34 1_555 1_555
C36 C18 1_555 1_555
C37 C36 1_555 1_555
C38 C20 1_555 1_555
C39 C22 1_555 1_555
C40 C39 1_555 1_555
C41 C40 1_555 1_555
C42 C23 1_555 1_555
C43 C25 1_555 1_555
C44 C43 1_555 1_555
C45 C27 1_555 1_555
C46 C45 1_555 1_555
C47 C29 1_555 1_555
C48 C31 1_555 1_555
C49 C48 1_555 1_555
C50 C33 1_555 1_555
C51 C50 1_555 1_555
C52 C35 1_555 1_555
C53 C37 1_555 1_555
C54 C40 1_555 1_555
C55 C41 1_555 1_555
C56 C44 1_555 1_555
C57 C46 1_555 1_555
C58 C49 1_555 1_555
C59 C51 1_555 1_555
C60 C54 1_555 1_555
C61 C1 1_555 1_555
C62 C61 1_555 1_555
H1 C62 1_555 1_555
H2 C62 1_555 1_555
H3 C62 1_555 1_555
C63 C61 1_555 1_555
C64 C61 1_555 1_555
C65 O3 1_555 1_555
H4 C65 1_555 1_555
H5 C65 1_555 1_555
C66 C65 1_555 1_555
H6 C66 1_555 1_555
H7 C66 1_555 1_555
H8 C66 1_555 1_555
C67 O4 1_555 1_555
H9 C67 1_555 1_555
H10 C67 1_555 1_555
C68 C67 1_555 1_555
H11 C68 1_555 1_555
H12 C68 1_555 1_555
H13 C68 1_555 1_555
C69 C4 1_555 1_555
C70 C69 1_555 1_555
H14 C70 1_555 1_555
H15 C70 1_555 1_555
H16 C70 1_555 1_555
C71 C69 1_555 1_555
C72 C69 1_555 1_555
C73 O7 1_555 1_555
H17 C73 1_555 1_555
H18 C73 1_555 1_555
C74 C73 1_555 1_555
H19 C74 1_555 1_555
H20 C74 1_555 1_555
H21 C74 1_555 1_555
C75 O8 1_555 1_555
H22 C75 1_555 1_555
H23 C75 1_555 1_555
C76 C75 1_555 1_555
H24 C76 1_555 1_555
H25 C76 1_555 1_555
H26 C76 1_555 1_555
C77 H27 1_555 1_555
H28 C77 1_555 1_555
C78 C77 1_555 1_555
H29 C78 1_555 1_555
H30 C78 1_555 1_555
C79 C78 1_555 1_555
H31 C79 1_555 1_555
H32 C79 1_555 1_555
C80 C79 1_555 1_555
H33 C80 1_555 1_555
H34 C80 1_555 1_555
C81 C80 1_555 1_555
H35 C81 1_555 1_555
H36 C81 1_555 1_555
C82 C77 1_555 1_555
H37 C82 1_555 1_555
H38 C82 1_555 1_555
C8 C9 1_555 1_555
C11 C12 1_555 1_555
C13 C14 1_555 1_555
C16 C17 1_555 1_555
C18 C19 1_555 1_555
C20 C21 1_555 1_555
C23 C24 1_555 1_555
C25 C26 1_555 1_555
C27 C28 1_555 1_555
C29 C30 1_555 1_555
C31 C32 1_555 1_555
C33 C34 1_555 1_555
C35 C36 1_555 1_555
C37 C38 1_555 1_555
C38 C39 1_555 1_555
C41 C42 1_555 1_555
C42 C43 1_555 1_555
C44 C45 1_555 1_555
C46 C47 1_555 1_555
C47 C48 1_555 1_555
C49 C50 1_555 1_555
C51 C52 1_555 1_555
C52 C53 1_555 1_555
C53 C54 1_555 1_555
C55 C56 1_555 1_555
C55 C60 1_555 1_555
C56 C57 1_555 1_555
C57 C58 1_555 1_555
C58 C59 1_555 1_555
C59 C60 1_555 1_555
C81 C82 1_555 1_555

#END
