
#######################################################################
#
#                 Cambridge Crystallographic Data Centre
#                                CCDC 
#
#######################################################################
#
# If this CIF has been generated from an entry in the Cambridge 
# Structural Database, then it will include bibliographic, chemical, 
# crystal, experimental, refinement or atomic coordinate data resulting 
# from the CCDC's data processing and validation procedures.
#
#######################################################################

data_OMONOU
_chemical_formula_moiety         'C33 H26 N4 O3'
_chemical_name_systematic        
4-Benzyl-3-((2-(6-phenyl-6H-chromeno[3,4-b]quinoxalin-6-yl)ethylidene)amino)-1,3-oxazolidin-2-one
_symmetry_cell_setting           orthorhombic
_symmetry_space_group_name_H-M   'P 21 21 21'
_symmetry_Int_Tables_number      19
_space_group_name_Hall           'P 2ac 2ab'
loop_
_symmetry_equiv_pos_site_id
_symmetry_equiv_pos_as_xyz
1 x,y,z
2 1/2-x,-y,1/2+z
3 -x,1/2+y,1/2-z
4 1/2+x,1/2-y,-z
_cell_length_a                   10.009(4)
_cell_length_b                   15.153(6)
_cell_length_c                   17.540(6)
_cell_angle_alpha                90
_cell_angle_beta                 90
_cell_angle_gamma                90
_cell_volume                     2660.23
_exptl_crystal_colour            colorless
_exptl_crystal_description       block
_cell_formula_units_Z            4
loop_
_atom_site_label
_atom_site_type_symbol
_atom_site_fract_x
_atom_site_fract_y
_atom_site_fract_z
O1 O 0.82603(10) 0.09751(6) 0.71125(6)
O2 O 0.21032(12) 0.09035(11) 0.88960(8)
O3 O 0.31844(12) 0.08293(10) 1.00121(7)
N1 N 0.60476(12) 0.11750(8) 0.55412(7)
N2 N 0.85539(12) 0.13005(8) 0.48041(7)
N3 N 0.45774(12) 0.10206(8) 0.82009(7)
N4 N 0.43956(13) 0.10055(9) 0.89732(7)
C1 C 0.70980(13) 0.13839(9) 0.67778(8)
C2 C 0.71583(13) 0.12842(8) 0.59178(7)
C3 C 0.61519(14) 0.11102(10) 0.47666(8)
C4 C 0.49923(17) 0.09530(13) 0.43279(10)
H1 H 0.410(2) 0.0895(13) 0.4583(12)
C5 C 0.50879(18) 0.08714(14) 0.35571(10)
H2 H 0.437(2) 0.0794(15) 0.3288(13)
C6 C 0.63276(19) 0.09574(13) 0.31887(9)
H3 H 0.643(2) 0.0951(14) 0.2640(13)
C7 C 0.74648(17) 0.11156(11) 0.35956(9)
H4 H 0.829(2) 0.1180(15) 0.3339(13)
C8 C 0.74037(14) 0.11864(9) 0.43992(8)
C9 C 0.84297(14) 0.13425(9) 0.55540(8)
C10 C 0.96173(14) 0.14114(9) 0.60373(9)
C11 C 1.08871(15) 0.16055(12) 0.57508(10)
H5 H 1.102(2) 0.1788(14) 0.5215(12)
C12 C 1.19836(16) 0.15922(12) 0.62288(11)
H6 H 1.282(2) 0.1746(14) 0.6023(12)
C13 C 1.18257(16) 0.13785(12) 0.69924(11)
H7 H 1.258(2) 0.1392(13) 0.7327(12)
C14 C 1.05799(16) 0.11906(11) 0.72893(10)
H8 H 1.0464(18) 0.1039(12) 0.7801(11)
C15 C 0.94737(14) 0.12104(9) 0.68079(8)
C16 C 0.59076(14) 0.08671(10) 0.70936(8)
H9 H 0.6075(17) 0.0282(13) 0.6964(10)
H10 H 0.5067(17) 0.1072(11) 0.6853(9)
C17 C 0.57500(14) 0.09214(9) 0.79379(8)
H11 H 0.6482(18) 0.0870(11) 0.8265(10)
C18 C 0.31229(16) 0.09167(12) 0.92447(9)
C19 C 0.45443(19) 0.07822(16) 1.02606(10)
H12 H 0.466(3) 0.138(2) 1.069(2)
C20 C 0.54202(15) 0.09566(10) 0.95611(8)
H13 H 0.6028(16) 0.0463(12) 0.9498(10)
C21 C 0.70433(13) 0.23571(9) 0.69996(7)
C22 C 0.62705(14) 0.29435(10) 0.65780(8)
H14 H 0.5826(17) 0.2720(11) 0.6134(9)
C23 C 0.62134(15) 0.38273(10) 0.67767(9)
H15 H 0.5688(19) 0.4208(13) 0.6482(11)
C24 C 0.68995(16) 0.41353(10) 0.74016(10)
H16 H 0.685(2) 0.4713(15) 0.7528(12)
C25 C 0.76442(16) 0.35521(11) 0.78343(10)
H17 H 0.813(2) 0.3712(16) 0.8268(14)
C26 C 0.77255(15) 0.26712(10) 0.76341(8)
H18 H 0.8251(19) 0.2265(13) 0.7885(11)
C27 C 0.62301(18) 0.18095(10) 0.96352(9)
H19 H 0.657(2) 0.2014(16) 0.9169(13)
H20 H 0.559(3) 0.2312(16) 0.9774(13)
C28 C 0.73470(18) 0.16857(10) 1.01900(9)
C29 C 0.7210(3) 0.20119(16) 1.09334(11)
C30 C 0.8009(5) 0.1973(3) 1.1494(3)
H21 H 0.7817 0.2233 1.1974
C31 C 0.9195(5) 0.1517(3) 1.1346(3)
H22 H 0.9849 0.1473 1.1737
C32 C 0.9438(5) 0.1137(4) 1.0663(3)
H23 H 1.0227 0.0797 1.0598
C33 C 0.8484(2) 0.12371(13) 0.99956(16)
H24 H 0.861(2) 0.1089(15) 0.9544(13)
H25 H 0.464(3) 0.0321(18) 1.0478(15)
H26 H 0.642(4) 0.232(3) 1.104(2)
C34? C 0.8455(6) 0.1766(4) 1.1407(3)
C35? C 0.9552(6) 0.1302(4) 1.1118(4)
C36? C 0.9580(5) 0.1053(4) 1.0344(4)
H27? H 0.8478 0.1941 1.1927
H28? H 1.0277 0.1154 1.1444
H29? H 1.0326 0.0779 1.0107
loop_
_geom_bond_atom_site_label_1
_geom_bond_atom_site_label_2
_geom_bond_site_symmetry_1
_geom_bond_site_symmetry_2
O1 C1 1_555 1_555
O2 C18 1_555 1_555
O3 C18 1_555 1_555
N1 C2 1_555 1_555
N2 C8 1_555 1_555
N3 N4 1_555 1_555
N4 C18 1_555 1_555
C1 C2 1_555 1_555
C2 C9 1_555 1_555
C3 N1 1_555 1_555
C4 C3 1_555 1_555
H1 C4 1_555 1_555
C5 C4 1_555 1_555
H2 C5 1_555 1_555
C6 C5 1_555 1_555
H3 C6 1_555 1_555
C7 C6 1_555 1_555
H4 C7 1_555 1_555
C8 C3 1_555 1_555
C9 N2 1_555 1_555
C10 C9 1_555 1_555
C11 C10 1_555 1_555
H5 C11 1_555 1_555
C12 C11 1_555 1_555
H6 C12 1_555 1_555
C13 C12 1_555 1_555
H7 C13 1_555 1_555
C14 C13 1_555 1_555
H8 C14 1_555 1_555
C15 O1 1_555 1_555
C16 C1 1_555 1_555
H9 C16 1_555 1_555
H10 C16 1_555 1_555
C17 N3 1_555 1_555
H11 C17 1_555 1_555
C19 O3 1_555 1_555
H12 C19 1_555 1_555
C20 N4 1_555 1_555
H13 C20 1_555 1_555
C21 C1 1_555 1_555
C22 C21 1_555 1_555
H14 C22 1_555 1_555
C23 C22 1_555 1_555
H15 C23 1_555 1_555
C24 C23 1_555 1_555
H16 C24 1_555 1_555
C25 C24 1_555 1_555
H17 C25 1_555 1_555
C26 C21 1_555 1_555
H18 C26 1_555 1_555
C27 C20 1_555 1_555
H19 C27 1_555 1_555
H20 C27 1_555 1_555
C28 C27 1_555 1_555
C29 C28 1_555 1_555
C30 C29 1_555 1_555
H21 C30 1_555 1_555
C31 C30 1_555 1_555
H22 C31 1_555 1_555
C32 C31 1_555 1_555
H23 C32 1_555 1_555
C33 C28 1_555 1_555
H24 C33 1_555 1_555
H25 C19 1_555 1_555
H26 C29 1_555 1_555
C7 C8 1_555 1_555
C10 C15 1_555 1_555
C14 C15 1_555 1_555
C16 C17 1_555 1_555
C19 C20 1_555 1_555
C25 C26 1_555 1_555
C32 C33 1_555 1_555

#END
