
#######################################################################
#
#                 Cambridge Crystallographic Data Centre
#                                CCDC 
#
#######################################################################
#
# If this CIF has been generated from an entry in the Cambridge 
# Structural Database, then it will include bibliographic, chemical, 
# crystal, experimental, refinement or atomic coordinate data resulting 
# from the CCDC's data processing and validation procedures.
#
#######################################################################

data_OMONIP
_chemical_formula_moiety         'C15 H20 N2 O3 P1 1+,Br1 1-'
_chemical_name_systematic        
"5'-((Diethylphosphoryl)methyl)-[2,2'-bipyridin]-1-ium bromide"
_symmetry_cell_setting           monoclinic
_symmetry_space_group_name_H-M   'P 21/c'
_symmetry_Int_Tables_number      14
_space_group_name_Hall           '-P 2ybc'
loop_
_symmetry_equiv_pos_site_id
_symmetry_equiv_pos_as_xyz
1 x,y,z
2 -x,1/2+y,1/2-z
3 -x,-y,-z
4 x,1/2-y,1/2+z
_cell_length_a                   8.3257(3)
_cell_length_b                   22.9352(7)
_cell_length_c                   8.9128(2)
_cell_angle_alpha                90
_cell_angle_beta                 93.940(2)
_cell_angle_gamma                90
_cell_volume                     1697.89
_exptl_crystal_colour            colorless
_exptl_crystal_description       blocks
_cell_formula_units_Z            4
loop_
_atom_site_label
_atom_site_type_symbol
_atom_site_fract_x
_atom_site_fract_y
_atom_site_fract_z
P1 P -0.04605(11) 0.32389(4) 0.12188(11)
O1 O -0.1322(3) 0.32140(13) 0.2596(4)
O2 O 0.0851(3) 0.27567(11) 0.1065(3)
O3 O -0.1558(4) 0.31855(16) -0.0286(4)
C1 C 0.4573(4) 0.41001(14) 0.4208(4)
C2 C 0.4888(4) 0.38707(17) 0.2824(4)
H1 H 0.5953 0.3767 0.2609
C3 C 0.3617(4) 0.37959(16) 0.1759(4)
H2 H 0.3803 0.3640 0.0799
C4 C 0.2071(4) 0.39496(14) 0.2095(4)
C5 C 0.1884(4) 0.41748(16) 0.3513(4)
H3 H 0.0831 0.4282 0.3756
N1 N 0.3087(3) 0.42507(13) 0.4562(3)
C6 C 0.0651(4) 0.38907(15) 0.0960(4)
H4 H 0.1040 0.3892 -0.0065
H5 H -0.0069 0.4231 0.1047
C7 C 0.0618(5) 0.21485(18) 0.1393(6)
H6 H 0.0248 0.1940 0.0460
H7 H -0.0221 0.2108 0.2121
C8 C 0.2123(6) 0.1891(2) 0.2021(7)
H8 H 0.1950 0.1478 0.2239
H9 H 0.2947 0.1928 0.1293
H10 H 0.2480 0.2095 0.2951
C9 C -0.3198(7) 0.3145(3) -0.0544(7)
H11 H -0.3493 0.3234 -0.1615
H12 H -0.3713 0.3442 0.0072
C10 C -0.3837(9) 0.2563(3) -0.0186(9)
H13 H -0.5008 0.2561 -0.0391
H14 H -0.3352 0.2268 -0.0808
H15 H -0.3573 0.2476 0.0879
C11 C 0.5860(4) 0.42159(14) 0.5402(4)
C12 C 0.7489(4) 0.41179(16) 0.5287(4)
H16 H 0.7863 0.3948 0.4404
C13 C 0.8566(4) 0.42708(16) 0.6477(4)
H17 H 0.9687 0.4213 0.6399
C14 C 0.8020(4) 0.45072(15) 0.7780(4)
H18 H 0.8756 0.4611 0.8599
C15 C 0.6395(4) 0.45893(14) 0.7865(4)
H19 H 0.5993 0.4745 0.8753
N2 N 0.5379(3) 0.44491(12) 0.6691(3)
H20 H 0.435(5) 0.4519(17) 0.672(4)
Br1 Br 0.23200(4) 0.49227(2) 0.83052(4)
C16? C -0.2986(9) 0.2821(4) -0.0295(9)
H21? H -0.3529 0.2882 0.0646
H22? H -0.2672 0.2405 -0.0346
C17? C -0.4092(10) 0.2964(5) -0.1584(11)
H23? H -0.5049 0.2716 -0.1577
H24? H -0.4412 0.3375 -0.1525
H25? H -0.3557 0.2899 -0.2515
loop_
_geom_bond_atom_site_label_1
_geom_bond_atom_site_label_2
_geom_bond_site_symmetry_1
_geom_bond_site_symmetry_2
P1 O1 1_555 1_555
O2 P1 1_555 1_555
O3 P1 1_555 1_555
C1 C2 1_555 1_555
C2 H1 1_555 1_555
C3 C2 1_555 1_555
H2 C3 1_555 1_555
C4 C3 1_555 1_555
C5 C4 1_555 1_555
H3 C5 1_555 1_555
N1 C1 1_555 1_555
C6 P1 1_555 1_555
H4 C6 1_555 1_555
H5 C6 1_555 1_555
C7 O2 1_555 1_555
H6 C7 1_555 1_555
H7 C7 1_555 1_555
C8 C7 1_555 1_555
H8 C8 1_555 1_555
H9 C8 1_555 1_555
H10 C8 1_555 1_555
C9 O3 1_555 1_555
H11 C9 1_555 1_555
H12 C9 1_555 1_555
C10 C9 1_555 1_555
H13 C10 1_555 1_555
H14 C10 1_555 1_555
H15 C10 1_555 1_555
C11 C1 1_555 1_555
C12 C11 1_555 1_555
H16 C12 1_555 1_555
C13 C12 1_555 1_555
H17 C13 1_555 1_555
C14 C13 1_555 1_555
H18 C14 1_555 1_555
C15 C14 1_555 1_555
H19 C15 1_555 1_555
N2 C11 1_555 1_555
H20 N2 1_555 1_555
C4 C6 1_555 1_555
C5 N1 1_555 1_555
C15 N2 1_555 1_555

#END
