
#######################################################################
#
#                 Cambridge Crystallographic Data Centre
#                                CCDC 
#
#######################################################################
#
# If this CIF has been generated from an entry in the Cambridge 
# Structural Database, then it will include bibliographic, chemical, 
# crystal, experimental, refinement or atomic coordinate data resulting 
# from the CCDC's data processing and validation procedures.
#
#######################################################################

data_OMONAF
_chemical_formula_moiety         'C18 H20 N2'
_chemical_name_systematic        
(E,E)-1,4-Diethyl-1,4-diphenyl-2,3-diazabutadiene
_symmetry_cell_setting           monoclinic
_symmetry_space_group_name_H-M   'P 21/c'
_symmetry_Int_Tables_number      14
_space_group_name_Hall           '-P 2ybc'
loop_
_symmetry_equiv_pos_site_id
_symmetry_equiv_pos_as_xyz
1 x,y,z
2 x,1/2-y,1/2+z
3 -x,-y,-z
4 -x,1/2+y,1/2-z
_cell_length_a                   4.5985(2)
_cell_length_b                   9.6973(5)
_cell_length_c                   16.3968(8)
_cell_angle_alpha                90
_cell_angle_beta                 94.935(3)
_cell_angle_gamma                90
_cell_volume                     728.473
_exptl_crystal_colour            yellow
_exptl_crystal_description       block
_chemical_melting_point          '339-341 K'
_cell_formula_units_Z            2
loop_
_atom_site_label
_atom_site_type_symbol
_atom_site_fract_x
_atom_site_fract_y
_atom_site_fract_z
C1 C 0.3907(2) 0.39840(11) 0.32881(7)
C2 C 0.1733(2) 0.49248(12) 0.30155(7)
C3 C 0.0427(2) 0.48631(13) 0.22268(7)
C4 C 0.1237(2) 0.38577(13) 0.16920(7)
C5 C 0.3360(3) 0.29201(13) 0.19478(7)
C6 C 0.4689(2) 0.29827(12) 0.27405(7)
C7 C 0.5276(2) 0.40414(11) 0.41414(7)
N1 N 0.4372(2) 0.50154(9) 0.45939(6)
C8 C 0.7471(2) 0.29573(12) 0.44309(7)
C9 C 0.5971(3) 0.16391(12) 0.46709(8)
H1 H 0.1148 0.5616 0.3378
H2 H -0.1036 0.5515 0.2050
H3 H 0.0327 0.3816 0.1150
H4 H 0.3921 0.2228 0.1582
H5 H 0.6157 0.2330 0.2911
H6 H 0.8714 0.3312 0.4908
H7 H 0.8746 0.2753 0.3989
H8 H 0.4811 0.1827 0.5133
H9 H 0.7446 0.0938 0.4830
H10 H 0.4689 0.1303 0.4205
N1B N 0.5628(2) 0.49846(9) 0.54061(6)
C7B C 0.4724(2) 0.59586(11) 0.58586(7)
C1B C 0.6093(2) 0.60160(11) 0.67119(7)
C2B C 0.8267(2) 0.50752(12) 0.69845(7)
C3B C 0.9573(2) 0.51369(13) 0.77732(7)
C4B C 0.8763(2) 0.61423(13) 0.83080(7)
C5B C 0.6640(3) 0.70799(13) 0.80522(7)
C6B C 0.5311(2) 0.70173(12) 0.72595(7)
H5B H 0.3843 0.7670 0.7089
H4B H 0.6079 0.7772 0.8418
H3B H 0.9673 0.6184 0.8850
H2B H 1.1036 0.4485 0.7950
H1B H 0.8852 0.4384 0.6622
C8B C 0.2529(2) 0.70427(12) 0.55691(7)
C9B C 0.4029(3) 0.83609(12) 0.53291(8)
H8B H 0.5189 0.8173 0.4867
H9B H 0.2554 0.9062 0.5170
H10B H 0.5311 0.8697 0.5795
H6B H 0.1286 0.6688 0.5092
H7B H 0.1254 0.7247 0.6011
loop_
_geom_bond_atom_site_label_1
_geom_bond_atom_site_label_2
_geom_bond_site_symmetry_1
_geom_bond_site_symmetry_2
C1 C2 1_555 1_555
C2 C3 1_555 1_555
C3 C4 1_555 1_555
C4 C5 1_555 1_555
C5 C6 1_555 1_555
C6 C1 1_555 1_555
C7 C1 1_555 1_555
N1 C7 1_555 1_555
C8 C7 1_555 1_555
C9 C8 1_555 1_555
H1 C2 1_555 1_555
H2 C3 1_555 1_555
H3 C4 1_555 1_555
H4 C5 1_555 1_555
H5 C6 1_555 1_555
H6 C8 1_555 1_555
H7 C8 1_555 1_555
H8 C9 1_555 1_555
H9 C9 1_555 1_555
H10 C9 1_555 1_555
N1B N1 1_555 1_555
C7B N1B 1_555 1_555
C1B C7B 1_555 1_555
C2B C1B 1_555 1_555
C3B C2B 1_555 1_555
C4B C3B 1_555 1_555
C5B C4B 1_555 1_555
C6B C1B 1_555 1_555
H5B C6B 1_555 1_555
H4B C5B 1_555 1_555
H3B C4B 1_555 1_555
H2B C3B 1_555 1_555
H1B C2B 1_555 1_555
C8B C7B 1_555 1_555
C9B C8B 1_555 1_555
H8B C9B 1_555 1_555
H9B C9B 1_555 1_555
H10B C9B 1_555 1_555
H6B C8B 1_555 1_555
H7B C8B 1_555 1_555
C5B C6B 1_555 1_555

#END
