
#######################################################################
#
#                 Cambridge Crystallographic Data Centre
#                                CCDC 
#
#######################################################################
#
# If this CIF has been generated from an entry in the Cambridge 
# Structural Database, then it will include bibliographic, chemical, 
# crystal, experimental, refinement or atomic coordinate data resulting 
# from the CCDC's data processing and validation procedures.
#
#######################################################################

data_OMSTER01
_chemical_compound_source        'fungus Aspergillus sp. CRI328-01'
_chemical_name_common            o-Methylsterigmatocystin
_chemical_formula_moiety         'C19 H14 O6'
_chemical_name_systematic        
6,8-Dimethoxy-3a,12c-dihydro-7H-furo[3',2':4,5]furo[2,3-c]xanthen-7-one
_chemical_properties_biological  'cytotoxic activity'
_symmetry_cell_setting           monoclinic
_symmetry_space_group_name_H-M   'P 21'
_symmetry_Int_Tables_number      4
_space_group_name_Hall           'P 2yb'
loop_
_symmetry_equiv_pos_site_id
_symmetry_equiv_pos_as_xyz
1 x,y,z
2 -x,1/2+y,-z
_cell_length_a                   5.4046(11)
_cell_length_b                   16.778(3)
_cell_length_c                   8.7181(17)
_cell_angle_alpha                90
_cell_angle_beta                 106.68(3)
_cell_angle_gamma                90
_cell_volume                     757.279
_exptl_crystal_colour            colorless
_exptl_crystal_description       block
_cell_formula_units_Z            2
_exptl_crystal_recrystallization_method ethanol
loop_
_atom_site_label
_atom_site_type_symbol
_atom_site_fract_x
_atom_site_fract_y
_atom_site_fract_z
C1 C 1.3304(4) -0.00936(14) 0.7668(3)
H1 H 1.4789 -0.0397 0.8073
C2 C 1.1262(4) -0.03698(13) 0.6429(3)
C3 C 0.9015(4) 0.01031(13) 0.5777(3)
C4 C 0.6852(4) -0.01560(14) 0.4415(3)
C5 C 0.4703(4) 0.04192(14) 0.3881(3)
C6 C 0.2425(4) 0.02636(14) 0.2603(3)
C7 C 0.0466(4) 0.08255(15) 0.2202(3)
H2 H -0.1023 0.0721 0.1375
C8 C 0.0709(4) 0.15383(15) 0.3019(3)
H3 H -0.0621 0.1910 0.2724
C9 C 0.2867(4) 0.17140(15) 0.4260(3)
H4 H 0.3016 0.2196 0.4804
C10 C 0.4807(4) 0.11478(13) 0.4670(2)
C11 C 0.8931(4) 0.08519(12) 0.6467(2)
C12 C 1.0914(4) 0.11315(13) 0.7733(3)
C13 C 1.3046(4) 0.06525(14) 0.8279(3)
C14 C 1.3977(4) 0.17369(15) 0.9905(3)
H5 H 1.3819 0.1730 1.0997
C15 C 1.4341(5) 0.28186(16) 0.8448(3)
H6 H 1.5101 0.3243 0.8067
C16 C 1.1929(5) 0.26148(14) 0.7825(3)
H7 H 1.0764 0.2878 0.6982
C17 C 1.1313(4) 0.18917(14) 0.8670(3)
H8 H 0.9945 0.1992 0.9179
C18 C 1.3477(6) -0.15966(17) 0.6375(4)
H9 H 1.4991 -0.1324 0.6285
H10 H 1.3258 -0.2083 0.5772
H11 H 1.3667 -0.1716 0.7480
C19 C -0.0029(5) -0.06094(18) 0.0593(3)
H12 H -0.1462 -0.0604 0.1036
H13 H 0.0103 -0.1126 0.0149
H14 H -0.0290 -0.0214 -0.0234
O1 O 1.1279(4) -0.11028(10) 0.5767(2)
O2 O 0.6833(5) -0.07931(14) 0.3769(3)
O3 O 0.2301(3) -0.04381(11) 0.1826(2)
O4 O 0.6888(3) 0.13622(9) 0.59270(18)
O5 O 1.4914(3) 0.09842(10) 0.9516(2)
O6 O 1.5676(3) 0.23471(11) 0.9732(2)
loop_
_geom_bond_atom_site_label_1
_geom_bond_atom_site_label_2
_geom_bond_site_symmetry_1
_geom_bond_site_symmetry_2
C1 H1 1_555 1_555
C2 C1 1_555 1_555
C3 C2 1_555 1_555
C4 C3 1_555 1_555
C5 C4 1_555 1_555
C6 C5 1_555 1_555
C7 C6 1_555 1_555
H2 C7 1_555 1_555
C8 C7 1_555 1_555
H3 C8 1_555 1_555
C9 C8 1_555 1_555
H4 C9 1_555 1_555
C10 C5 1_555 1_555
C11 C3 1_555 1_555
C12 C11 1_555 1_555
C13 C1 1_555 1_555
C14 H5 1_555 1_555
C15 H6 1_555 1_555
C16 C15 1_555 1_555
H7 C16 1_555 1_555
C17 C12 1_555 1_555
H8 C17 1_555 1_555
C18 H9 1_555 1_555
H10 C18 1_555 1_555
H11 C18 1_555 1_555
C19 H12 1_555 1_555
H13 C19 1_555 1_555
H14 C19 1_555 1_555
O1 C2 1_555 1_555
O2 C4 1_555 1_555
O3 C6 1_555 1_555
O4 C10 1_555 1_555
O5 C13 1_555 1_555
O6 C14 1_555 1_555
C9 C10 1_555 1_555
C11 O4 1_555 1_555
C12 C13 1_555 1_555
C14 C17 1_555 1_555
C14 O5 1_555 1_555
C15 O6 1_555 1_555
C16 C17 1_555 1_555
C18 O1 1_555 1_555
C19 O3 1_555 1_555

#END
