
#######################################################################
#
#                 Cambridge Crystallographic Data Centre
#                                CCDC 
#
#######################################################################
#
# If this CIF has been generated from an entry in the Cambridge 
# Structural Database, then it will include bibliographic, chemical, 
# crystal, experimental, refinement or atomic coordinate data resulting 
# from the CCDC's data processing and validation procedures.
#
#######################################################################

data_OMTHTC
_chemical_formula_moiety         'C20 H32 O2 S2'
_chemical_name_systematic        
'3,3,7,7,10,10,14,14-Octamethyl-2,12-dioxo-5,12-dithiatricyclo (7.5.0.0^1,8^)tetradeca-8-ene'
_symmetry_cell_setting           triclinic
_symmetry_space_group_name_H-M   'P -1'
_symmetry_Int_Tables_number      2
_space_group_name_Hall           '-P 1'
loop_
_symmetry_equiv_pos_site_id
_symmetry_equiv_pos_as_xyz
1 x,y,z
2 -x,-y,-z
_cell_length_a                   14.08(3)
_cell_length_b                   8.78(2)
_cell_length_c                   9.46(2)
_cell_angle_alpha                115.95(4)
_cell_angle_beta                 98.18(4)
_cell_angle_gamma                85.74(3)
_cell_volume                     1040.76
_exptl_crystal_colour            colorless
_cell_formula_units_Z            2
loop_
_atom_site_label
_atom_site_type_symbol
_atom_site_fract_x
_atom_site_fract_y
_atom_site_fract_z
S1 S 0.85890 0.62770 0.12990
S2 S 0.65190 0.75180 -0.55180
O1 O 0.65210 1.04660 -0.07360
O2 O 0.95360 0.58170 0.19810
C1 C 0.73630 0.79240 -0.11830
C2 C 0.65180 0.89430 -0.15000
C3 C 0.56380 0.81780 -0.27510
C4 C 0.58490 0.68820 -0.43960
C5 C 0.77390 0.77630 -0.45780
C6 C 0.81740 0.63770 -0.40960
C7 C 0.77240 0.65400 -0.27000
C8 C 0.73490 0.59970 -0.18460
C9 C 0.72710 0.45560 -0.14050
C10 C 0.82540 0.44320 -0.05130
C11 C 0.88800 0.77220 0.05230
C12 C 0.80760 0.89090 0.03060
C13 C 0.50370 0.96330 -0.29280
C14 C 0.50390 0.72880 -0.21260
C15 C 0.80400 0.46110 -0.54440
C16 C 0.92490 0.67340 -0.36140
C17 C 0.64830 0.48170 -0.03710
C18 C 0.71070 0.29130 -0.29190
C19 C 0.75520 0.96890 0.17880
C20 C 0.85780 1.03300 0.01670
loop_
_geom_bond_atom_site_label_1
_geom_bond_atom_site_label_2
_geom_bond_site_symmetry_1
_geom_bond_site_symmetry_2
S1 O2 1_555 1_555
S2 C4 1_555 1_555
O1 C2 1_555 1_555
C1 C2 1_555 1_555
C2 C3 1_555 1_555
C3 C4 1_555 1_555
C5 S2 1_555 1_555
C6 C5 1_555 1_555
C7 C1 1_555 1_555
C8 C1 1_555 1_555
C9 C8 1_555 1_555
C10 S1 1_555 1_555
C11 S1 1_555 1_555
C12 C1 1_555 1_555
C13 C3 1_555 1_555
C14 C3 1_555 1_555
C15 C6 1_555 1_555
C16 C6 1_555 1_555
C17 C9 1_555 1_555
C18 C9 1_555 1_555
C19 C12 1_555 1_555
C20 C12 1_555 1_555
C6 C7 1_555 1_555
C7 C8 1_555 1_555
C9 C10 1_555 1_555
C11 C12 1_555 1_555

#END
