
#######################################################################
#
#                 Cambridge Crystallographic Data Centre
#                                CCDC 
#
#######################################################################
#
# If this CIF has been generated from an entry in the Cambridge 
# Structural Database, then it will include bibliographic, chemical, 
# crystal, experimental, refinement or atomic coordinate data resulting 
# from the CCDC's data processing and validation procedures.
#
#######################################################################

data_OMUMEP
_chemical_formula_moiety         'C16 H20 O3'
_chemical_name_systematic        
5-Methoxy-4,8,12-trimethyl-10-oxatricyclo[7.3.1.0^2,7^]trideca-2,4,6-trien-11-one
_symmetry_cell_setting           orthorhombic
_symmetry_space_group_name_H-M   'P 21 21 21'
_symmetry_Int_Tables_number      19
_space_group_name_Hall           'P 2ac 2ab'
loop_
_symmetry_equiv_pos_site_id
_symmetry_equiv_pos_as_xyz
1 x,y,z
2 1/2-x,-y,1/2+z
3 -x,1/2+y,1/2-z
4 1/2+x,1/2-y,-z
_cell_length_a                   7.521(10)
_cell_length_b                   9.936(12)
_cell_length_c                   18.87(2)
_cell_angle_alpha                90
_cell_angle_beta                 90
_cell_angle_gamma                90
_cell_volume                     1410.13
_exptl_crystal_colour            yellow
_exptl_crystal_description       block
_cell_formula_units_Z            4
loop_
_atom_site_label
_atom_site_type_symbol
_atom_site_fract_x
_atom_site_fract_y
_atom_site_fract_z
C1 C 0.7029(3) 0.3164(2) 0.12660(12)
C2 C 0.6889(3) 0.2017(2) 0.16790(12)
H1 H 0.6943 0.2107 0.2169
C3 C 0.6670(3) 0.0728(2) 0.13915(11)
C4 C 0.6480(3) -0.0477(2) 0.18934(12)
H2 H 0.5734 -0.0215 0.2296
C5 C 0.5613(3) -0.1668(2) 0.15110(13)
H3 H 0.5618 -0.2458 0.1813
H4 H 0.4392 -0.1456 0.1389
C6 C 0.6694(3) -0.1925(2) 0.08454(13)
H5 H 0.6269 -0.2764 0.0631
C7 C 0.6446(3) -0.0794(2) 0.03065(12)
H6 H 0.5219 -0.0857 0.0134
C8 C 0.6638(3) 0.0586(2) 0.06570(11)
C9 C 0.6748(3) 0.1738(2) 0.02294(11)
H7 H 0.6699 0.1649 -0.0261
C10 C 0.6928(3) 0.3015(2) 0.05285(12)
C11 C 0.8301(3) -0.0952(2) 0.21709(12)
H8 H 0.8964 -0.0145 0.2311
C12 C 0.9393(3) -0.1661(2) 0.16115(14)
C13 C 0.7277(4) 0.4551(2) 0.15898(13)
H9 H 0.7446 0.4465 0.2092
H10 H 0.6242 0.5089 0.1499
H11 H 0.8300 0.4975 0.1383
C14 C 0.8156(3) -0.1866(3) 0.28399(12)
H12 H 0.7483 -0.2658 0.2726
H13 H 0.7570 -0.1381 0.3213
H14 H 0.9326 -0.2121 0.2993
C15 C 0.7668(4) -0.0988(2) -0.03436(13)
H15 H 0.7323 -0.0372 -0.0711
H16 H 0.7562 -0.1894 -0.0514
H17 H 0.8879 -0.0816 -0.0210
C16 C 0.6837(3) 0.4089(2) -0.06137(12)
H18 H 0.7788 0.3557 -0.0805
H19 H 0.6870 0.4973 -0.0818
H20 H 0.5720 0.3671 -0.0723
O1 O 0.86133(18) -0.20856(14) 0.10056(8)
O2 O 1.0980(2) -0.18797(17) 0.16865(9)
O3 O 0.7034(2) 0.41895(14) 0.01440(8)
loop_
_geom_bond_atom_site_label_1
_geom_bond_atom_site_label_2
_geom_bond_site_symmetry_1
_geom_bond_site_symmetry_2
C1 C2 1_555 1_555
C2 H1 1_555 1_555
C3 C2 1_555 1_555
C4 C3 1_555 1_555
H2 C4 1_555 1_555
C5 C4 1_555 1_555
H3 C5 1_555 1_555
H4 C5 1_555 1_555
C6 C5 1_555 1_555
H5 C6 1_555 1_555
C7 C6 1_555 1_555
H6 C7 1_555 1_555
C8 C3 1_555 1_555
C9 C8 1_555 1_555
H7 C9 1_555 1_555
C10 C1 1_555 1_555
C11 C4 1_555 1_555
H8 C11 1_555 1_555
C12 C11 1_555 1_555
C13 C1 1_555 1_555
H9 C13 1_555 1_555
H10 C13 1_555 1_555
H11 C13 1_555 1_555
C14 C11 1_555 1_555
H12 C14 1_555 1_555
H13 C14 1_555 1_555
H14 C14 1_555 1_555
C15 C7 1_555 1_555
H15 C15 1_555 1_555
H16 C15 1_555 1_555
H17 C15 1_555 1_555
C16 H18 1_555 1_555
H19 C16 1_555 1_555
H20 C16 1_555 1_555
O1 C6 1_555 1_555
O2 C12 1_555 1_555
O3 C10 1_555 1_555
C7 C8 1_555 1_555
C9 C10 1_555 1_555
C12 O1 1_555 1_555
C16 O3 1_555 1_555

#END
