
#######################################################################
#
#                 Cambridge Crystallographic Data Centre
#                                CCDC 
#
#######################################################################
#
# If this CIF has been generated from an entry in the Cambridge 
# Structural Database, then it will include bibliographic, chemical, 
# crystal, experimental, refinement or atomic coordinate data resulting 
# from the CCDC's data processing and validation procedures.
#
#######################################################################

data_OMUNOA
_chemical_formula_moiety         'C20 H13 N1 O2'
_chemical_name_systematic        
4-(4-Methylphenyl)benzo[g]quinoline-5,10-dione
_symmetry_cell_setting           monoclinic
_symmetry_space_group_name_H-M   'P 21/n'
_symmetry_Int_Tables_number      14
_space_group_name_Hall           '-P 2yn'
loop_
_symmetry_equiv_pos_site_id
_symmetry_equiv_pos_as_xyz
1 x,y,z
2 1/2-x,1/2+y,1/2-z
3 -x,-y,-z
4 1/2+x,1/2-y,1/2+z
_cell_length_a                   8.6310(17)
_cell_length_b                   13.985(3)
_cell_length_c                   12.831(3)
_cell_angle_alpha                90
_cell_angle_beta                 104.59(3)
_cell_angle_gamma                90
_cell_volume                     1498.82
_cell_formula_units_Z            4
loop_
_atom_site_label
_atom_site_type_symbol
_atom_site_fract_x
_atom_site_fract_y
_atom_site_fract_z
N1 N 0.1509(3) 0.47268(18) 0.30714(18)
O1 O -0.2166(3) 0.33520(15) 0.00405(16)
C1 C -0.2777(4) -0.0702(2) 0.0837(3)
H1 H -0.1932 -0.1123 0.0765
H2 H -0.3560 -0.0656 0.0159
H3 H -0.3273 -0.0950 0.1372
O2 O 0.0630(3) 0.64366(15) 0.21502(18)
C2 C -0.2098(4) 0.0273(2) 0.1174(2)
C3 C -0.3046(3) 0.1030(2) 0.1340(2)
H4 H -0.4135 0.0931 0.1261
C4 C -0.2411(3) 0.1923(2) 0.1620(2)
H5 H -0.3080 0.2417 0.1722
C5 C -0.0784(3) 0.21027(18) 0.1754(2)
C6 C 0.0177(3) 0.1342(2) 0.1607(2)
H6 H 0.1271 0.1435 0.1706
C7 C -0.0476(3) 0.0453(2) 0.1315(2)
H7 H 0.0189 -0.0041 0.1209
C8 C -0.0033(3) 0.30378(19) 0.2137(2)
C9 C -0.0463(3) 0.39411(18) 0.1654(2)
C10 C -0.1661(3) 0.4042(2) 0.0588(2)
C11 C -0.2170(3) 0.50198(19) 0.0190(2)
C12 C -0.3396(3) 0.5127(2) -0.0742(2)
H8 H -0.3909 0.4590 -0.1096
C13 C -0.3852(4) 0.6025(2) -0.1142(3)
H9 H -0.4681 0.6092 -0.1761
C14 C -0.3087(4) 0.6825(2) -0.0631(3)
H10 H -0.3394 0.7429 -0.0909
C15 C -0.1872(4) 0.6730(2) 0.0289(3)
H11 H -0.1360 0.7272 0.0631
C16 C -0.1403(3) 0.58286(19) 0.0714(2)
C17 C -0.0076(3) 0.5741(2) 0.1706(2)
C18 C 0.0330(3) 0.47560(19) 0.2158(2)
C19 C 0.1915(4) 0.3870(2) 0.3495(2)
H12 H 0.2737 0.3835 0.4122
C20 C 0.1201(3) 0.3027(2) 0.3070(2)
H13 H 0.1547 0.2450 0.3409
loop_
_geom_bond_atom_site_label_1
_geom_bond_atom_site_label_2
_geom_bond_site_symmetry_1
_geom_bond_site_symmetry_2
N1 C18 1_555 1_555
O1 C10 1_555 1_555
C1 H1 1_555 1_555
H2 C1 1_555 1_555
H3 C1 1_555 1_555
O2 C17 1_555 1_555
C2 C1 1_555 1_555
C3 C2 1_555 1_555
H4 C3 1_555 1_555
C4 C3 1_555 1_555
H5 C4 1_555 1_555
C5 C4 1_555 1_555
C6 C5 1_555 1_555
H6 C6 1_555 1_555
C7 C2 1_555 1_555
H7 C7 1_555 1_555
C8 C5 1_555 1_555
C9 C8 1_555 1_555
C10 C9 1_555 1_555
C11 C10 1_555 1_555
C12 C11 1_555 1_555
H8 C12 1_555 1_555
C13 C12 1_555 1_555
H9 C13 1_555 1_555
C14 C13 1_555 1_555
H10 C14 1_555 1_555
C15 C14 1_555 1_555
H11 C15 1_555 1_555
C16 C11 1_555 1_555
C17 C16 1_555 1_555
C18 C9 1_555 1_555
C19 N1 1_555 1_555
H12 C19 1_555 1_555
C20 C8 1_555 1_555
H13 C20 1_555 1_555
C6 C7 1_555 1_555
C15 C16 1_555 1_555
C17 C18 1_555 1_555
C19 C20 1_555 1_555

#END
