
#######################################################################
#
#                 Cambridge Crystallographic Data Centre
#                                CCDC 
#
#######################################################################
#
# If this CIF has been generated from an entry in the Cambridge 
# Structural Database, then it will include bibliographic, chemical, 
# crystal, experimental, refinement or atomic coordinate data resulting 
# from the CCDC's data processing and validation procedures.
#
#######################################################################

data_ONABEL
_chemical_formula_moiety         'C19 H13 N3 O3'
_chemical_name_systematic        
2-((E)-3-(2-Nitrophenyl)-1-(4-methoxyphenyl)allylidene)malononitrile
_symmetry_cell_setting           triclinic
_symmetry_space_group_name_H-M   'P -1'
_symmetry_Int_Tables_number      2
_space_group_name_Hall           '-P 1'
loop_
_symmetry_equiv_pos_site_id
_symmetry_equiv_pos_as_xyz
1 x,y,z
2 -x,-y,-z
_cell_length_a                   7.3834(13)
_cell_length_b                   10.901(3)
_cell_length_c                   11.227(2)
_cell_angle_alpha                88.64(2)
_cell_angle_beta                 71.596(14)
_cell_angle_gamma                78.186(18)
_cell_volume                     838.428
_exptl_crystal_colour            yellow
_exptl_crystal_description       block
_chemical_melting_point          '455-457 K'
_cell_formula_units_Z            2
_exptl_crystal_recrystallization_method dimethylformamide/water
loop_
_atom_site_label
_atom_site_type_symbol
_atom_site_fract_x
_atom_site_fract_y
_atom_site_fract_z
O1 O 1.1194(2) 0.25855(12) 0.96881(12)
O2 O 0.6768(2) 0.73155(16) 0.80343(15)
O3 O 0.4493(3) 0.8693(2) 0.9235(3)
N1 N 1.8002(3) 0.43761(17) 0.59311(17)
N2 N 1.6774(3) 0.81581(18) 0.4666(2)
N3 N 0.6024(3) 0.8400(2) 0.83841(19)
C1 C 1.5436(3) 0.63853(15) 0.59786(16)
C2 C 1.3506(2) 0.65223(15) 0.66451(15)
C3 C 1.2145(3) 0.76464(16) 0.65247(16)
H1 H 1.2568 0.8151 0.5857
C4 C 1.0337(3) 0.80051(15) 0.73009(15)
H2 H 0.9881 0.7476 0.7937
C5 C 1.6847(3) 0.52661(17) 0.59681(16)
C6 C 1.6195(3) 0.73685(18) 0.52405(18)
C7 C 1.2804(2) 0.55275(15) 0.74791(15)
C8 C 1.1304(2) 0.50150(16) 0.73635(16)
H3 H 1.0675 0.5338 0.6790
C9 C 1.0713(3) 0.40314(16) 0.80805(16)
H4 H 0.9717 0.3686 0.7978
C10 C 1.1623(3) 0.35703(15) 0.89491(15)
C11 C 1.3084(3) 0.41024(17) 0.91116(16)
H5 H 1.3660 0.3808 0.9719
C12 C 1.3684(3) 0.50605(16) 0.83812(15)
H6 H 1.4682 0.5403 0.8485
C13 C 0.9765(4) 0.1975(2) 0.9526(2)
H7 H 0.8551 0.2568 0.9683
H8 H 0.9594 0.1312 1.0105
H9 H 1.0182 0.1629 0.8682
C14 C 0.9017(2) 0.91798(15) 0.72190(15)
C15 C 0.6987(3) 0.94028(18) 0.77592(17)
C16 C 0.5794(3) 1.0538(2) 0.7713(2)
H10 H 0.4451 1.0654 0.8090
C17 C 0.6609(3) 1.1504(2) 0.7102(2)
H11 H 0.5814 1.2275 0.7063
C18 C 0.8579(3) 1.13293(17) 0.65582(19)
H12 H 0.9128 1.1978 0.6142
C19 C 0.9753(3) 1.01937(16) 0.66253(16)
H13 H 1.1095 1.0097 0.6259
loop_
_geom_bond_atom_site_label_1
_geom_bond_atom_site_label_2
_geom_bond_site_symmetry_1
_geom_bond_site_symmetry_2
O1 C10 1_555 1_555
O2 N3 1_555 1_555
O3 N3 1_555 1_555
N1 C5 1_555 1_555
N2 C6 1_555 1_555
N3 C15 1_555 1_555
C1 C2 1_555 1_555
C2 C3 1_555 1_555
C3 H1 1_555 1_555
C4 C3 1_555 1_555
H2 C4 1_555 1_555
C5 C1 1_555 1_555
C6 C1 1_555 1_555
C7 C2 1_555 1_555
C8 C7 1_555 1_555
H3 C8 1_555 1_555
C9 C8 1_555 1_555
H4 C9 1_555 1_555
C10 C9 1_555 1_555
C11 C10 1_555 1_555
H5 C11 1_555 1_555
C12 C7 1_555 1_555
H6 C12 1_555 1_555
C13 O1 1_555 1_555
H7 C13 1_555 1_555
H8 C13 1_555 1_555
H9 C13 1_555 1_555
C14 C4 1_555 1_555
C15 C14 1_555 1_555
C16 C15 1_555 1_555
H10 C16 1_555 1_555
C17 C16 1_555 1_555
H11 C17 1_555 1_555
C18 C17 1_555 1_555
H12 C18 1_555 1_555
C19 C14 1_555 1_555
H13 C19 1_555 1_555
C11 C12 1_555 1_555
C18 C19 1_555 1_555

#END
