
#######################################################################
#
#                 Cambridge Crystallographic Data Centre
#                                CCDC 
#
#######################################################################
#
# If this CIF has been generated from an entry in the Cambridge 
# Structural Database, then it will include bibliographic, chemical, 
# crystal, experimental, refinement or atomic coordinate data resulting 
# from the CCDC's data processing and validation procedures.
#
#######################################################################

data_ONAHIV
_chemical_formula_moiety         'C16 H7 F12 O2 P1'
_chemical_name_systematic        
'bis(2,5-bis(Trifluoromethyl)phenyl)phosphinic acid'
_symmetry_cell_setting           monoclinic
_symmetry_space_group_name_H-M   'P 21/c'
_symmetry_Int_Tables_number      14
_space_group_name_Hall           '-P 2ybc'
loop_
_symmetry_equiv_pos_site_id
_symmetry_equiv_pos_as_xyz
1 x,y,z
2 -x,1/2+y,1/2-z
3 -x,-y,-z
4 x,1/2-y,1/2+z
_cell_length_a                   12.8361(6)
_cell_length_b                   16.8192(8)
_cell_length_c                   8.1211(4)
_cell_angle_alpha                90
_cell_angle_beta                 99.4550(10)
_cell_angle_gamma                90
_cell_volume                     1729.47
_exptl_crystal_description       block
_cell_formula_units_Z            4
loop_
_atom_site_label
_atom_site_type_symbol
_atom_site_fract_x
_atom_site_fract_y
_atom_site_fract_z
P1 P 0.62904(4) 0.52008(3) 0.66891(7)
O1 O 0.62569(12) 0.52196(10) 0.4830(2)
F1 F 0.64086(11) 0.50772(10) 1.04119(18)
F2 F 0.82598(12) 0.74339(9) 0.6288(2)
F3 F 0.37209(13) 0.67938(9) 1.01968(19)
O2 O 0.53944(13) 0.47073(9) 0.7231(2)
F4 F 0.79341(11) 0.62109(9) 0.5692(2)
F5 F 0.86303(12) 0.65366(11) 0.8184(2)
F6 F 0.77520(15) 0.58345(10) 1.0886(2)
C1 C 0.75221(16) 0.47394(12) 0.7643(3)
F7 F 0.77457(16) 0.47248(12) 1.21808(19)
C2 C 0.61376(16) 0.62072(12) 0.7432(3)
F8 F 0.36680(15) 0.79955(9) 0.9280(2)
C3 C 0.68288(17) 0.68546(13) 0.7350(3)
C4 C 0.80570(17) 0.43731(13) 0.6489(3)
H1 H 0.7788 0.4415 0.5330
C5 C 0.79446(17) 0.46726(13) 0.9352(3)
C6 C 0.89784(18) 0.39473(15) 0.7011(3)
C7 C 0.51747(17) 0.63554(13) 0.7958(3)
H2 H 0.4706 0.5927 0.8051
C8 C 0.74580(19) 0.50700(14) 1.0710(3)
C9 C 0.93899(19) 0.38813(15) 0.8688(3)
H3 H 1.0021 0.3589 0.9039
F9 F 0.30364(12) 0.70388(12) 0.7662(2)
C10 C 0.48900(18) 0.71261(14) 0.8350(3)
C11 C 0.79112(18) 0.67585(14) 0.6872(3)
C12 C 0.88703(19) 0.42466(15) 0.9855(3)
H4 H 0.9150 0.4205 1.1009
C13 C 0.5565(2) 0.77548(14) 0.8243(3)
H5 H 0.5366 0.8279 0.8500
C14 C 0.6536(2) 0.76178(14) 0.7758(3)
H6 H 0.7007 0.8049 0.7704
C15 C 0.3830(2) 0.72424(15) 0.8870(3)
C16 C 0.9513(2) 0.35482(19) 0.5725(4)
F10 F 1.0340(6) 0.3135(5) 0.6149(12)
F11 F 0.9827(5) 0.4175(4) 0.4677(8)
F12 F 0.8846(5) 0.3189(5) 0.4491(7)
H7 H 0.468(4) 0.472(3) 0.632(7)
F13? F 0.9573(6) 0.4005(4) 0.4356(7)
F14? F 1.0499(7) 0.3324(5) 0.6292(14)
F15? F 0.8972(5) 0.2886(4) 0.5107(8)
F16? F 0.9207(5) 0.3717(5) 0.4244(7)
F17? F 1.0562(6) 0.3558(5) 0.6300(11)
F18? F 0.9345(5) 0.2716(3) 0.5875(7)
loop_
_geom_bond_atom_site_label_1
_geom_bond_atom_site_label_2
_geom_bond_site_symmetry_1
_geom_bond_site_symmetry_2
P1 O1 1_555 1_555
F1 C8 1_555 1_555
F2 C11 1_555 1_555
F3 C15 1_555 1_555
O2 P1 1_555 1_555
F4 C11 1_555 1_555
F5 C11 1_555 1_555
F6 C8 1_555 1_555
C1 P1 1_555 1_555
F7 C8 1_555 1_555
C2 P1 1_555 1_555
F8 C15 1_555 1_555
C3 C2 1_555 1_555
C4 C1 1_555 1_555
H1 C4 1_555 1_555
C5 C1 1_555 1_555
C6 C4 1_555 1_555
C7 C2 1_555 1_555
H2 C7 1_555 1_555
C8 C5 1_555 1_555
C9 C6 1_555 1_555
H3 C9 1_555 1_555
F9 C15 1_555 1_555
C10 C7 1_555 1_555
C11 C3 1_555 1_555
C12 C5 1_555 1_555
H4 C12 1_555 1_555
C13 C10 1_555 1_555
H5 C13 1_555 1_555
C14 C3 1_555 1_555
H6 C14 1_555 1_555
C15 C10 1_555 1_555
C16 C6 1_555 1_555
F10 C16 1_555 1_555
F11 C16 1_555 1_555
F12 C16 1_555 1_555
H7 O2 1_555 1_555
C9 C12 1_555 1_555
C13 C14 1_555 1_555

#END
