
#######################################################################
#
#                 Cambridge Crystallographic Data Centre
#                                CCDC 
#
#######################################################################
#
# If this CIF has been generated from an entry in the Cambridge 
# Structural Database, then it will include bibliographic, chemical, 
# crystal, experimental, refinement or atomic coordinate data resulting 
# from the CCDC's data processing and validation procedures.
#
#######################################################################

data_ONAHAN
_chemical_formula_moiety         'C16 H6 Cl1 F12 P1'
_chemical_name_systematic        
'bis(2,5-bis(Trifluoromethyl)phenyl)phosphinous chloride'
_symmetry_cell_setting           triclinic
_symmetry_space_group_name_H-M   'P -1'
_symmetry_Int_Tables_number      2
_space_group_name_Hall           '-P 1'
loop_
_symmetry_equiv_pos_site_id
_symmetry_equiv_pos_as_xyz
1 x,y,z
2 -x,-y,-z
_cell_length_a                   8.400(2)
_cell_length_b                   10.220(3)
_cell_length_c                   11.474(3)
_cell_angle_alpha                72.765(3)
_cell_angle_beta                 72.896(3)
_cell_angle_gamma                78.100(3)
_cell_volume                     891.5
_exptl_crystal_colour            colorless
_exptl_crystal_description       block
_cell_formula_units_Z            2
loop_
_atom_site_label
_atom_site_type_symbol
_atom_site_fract_x
_atom_site_fract_y
_atom_site_fract_z
P1 P 0.40867(10) 0.63311(8) 0.05018(7)
Cl1 Cl 0.64435(10) 0.65757(9) 0.05598(8)
F1 F 0.2611(3) 0.7916(2) -0.18224(18)
F2 F 0.5052(3) 0.8413(2) -0.19822(19)
F3 F -0.0489(3) 0.4458(2) 0.1857(2)
F4 F 0.3140(3) 1.0017(2) -0.26076(19)
F5 F -0.0846(3) 0.6342(3) 0.2420(2)
F6 F 0.4578(3) 0.2922(3) 0.6021(2)
C1 C 0.3319(4) 0.5240(3) 0.2114(3)
C2 C 0.2441(4) 0.8377(3) 0.1840(3)
H1 H 0.2598 0.7683 0.2574
F7 F 0.6586(3) 0.3591(3) 0.4441(2)
C3 C 0.3024(4) 0.8073(3) 0.0669(3)
C4 C 0.4448(4) 0.4614(3) 0.2874(3)
H2 H 0.5567 0.4831 0.2594
F8 F 0.5696(3) 0.1667(3) 0.4736(2)
C5 C 0.2793(4) 0.9128(3) -0.0402(3)
C6 C 0.1629(4) 0.9687(3) 0.1950(3)
C7 C 0.0314(4) 0.5439(3) 0.1878(3)
C8 C 0.3948(4) 0.3679(3) 0.4031(3)
C9 C 0.1024(4) 0.9973(3) 0.3232(3)
C10 C 0.1678(4) 0.4870(3) 0.2572(3)
C11 C 0.1994(4) 1.0440(3) -0.0289(3)
H3 H 0.1857 1.1148 -0.1020
C12 C 0.1396(4) 1.0712(3) 0.0893(3)
H4 H 0.0830 1.1599 0.0973
C13 C 0.1206(4) 0.3937(3) 0.3732(3)
H5 H 0.0090 0.3713 0.4025
C14 C 0.3398(5) 0.8878(3) -0.1701(3)
C15 C 0.2337(4) 0.3329(3) 0.4468(3)
H6 H 0.2011 0.2685 0.5257
C16 C 0.5210(5) 0.2970(4) 0.4801(3)
F9 F 0.0140(5) 0.8992(4) 0.4057(4)
F10 F 0.2355(6) 1.0003(4) 0.3674(5)
F11 F 0.0057(5) 1.1214(4) 0.3221(4)
F12 F 0.0855(2) 0.6132(2) 0.06735(17)
F13? F 0.0804(11) 0.8757(7) 0.4229(7)
F14? F 0.2125(11) 1.0425(9) 0.3611(9)
F15? F -0.0392(9) 1.0789(8) 0.3464(8)
F16? F -0.0452(9) 0.9477(9) 0.3795(7)
F17? F 0.2115(10) 0.9500(9) 0.3875(8)
F18? F 0.0672(10) 1.1372(7) 0.3064(8)
loop_
_geom_bond_atom_site_label_1
_geom_bond_atom_site_label_2
_geom_bond_site_symmetry_1
_geom_bond_site_symmetry_2
P1 Cl1 1_555 1_555
F1 C14 1_555 1_555
F2 C14 1_555 1_555
F3 C7 1_555 1_555
F4 C14 1_555 1_555
F5 C7 1_555 1_555
F6 C16 1_555 1_555
C1 P1 1_555 1_555
C2 H1 1_555 1_555
F7 C16 1_555 1_555
C3 P1 1_555 1_555
C4 C1 1_555 1_555
H2 C4 1_555 1_555
F8 C16 1_555 1_555
C5 C3 1_555 1_555
C6 C2 1_555 1_555
C7 C10 1_555 1_555
C8 C4 1_555 1_555
C9 C6 1_555 1_555
C10 C1 1_555 1_555
C11 C5 1_555 1_555
H3 C11 1_555 1_555
C12 C6 1_555 1_555
H4 C12 1_555 1_555
C13 C10 1_555 1_555
H5 C13 1_555 1_555
C14 C5 1_555 1_555
C15 C8 1_555 1_555
H6 C15 1_555 1_555
C16 C8 1_555 1_555
F9 C9 1_555 1_555
F10 C9 1_555 1_555
F11 C9 1_555 1_555
F12 C7 1_555 1_555
C2 C3 1_555 1_555
C11 C12 1_555 1_555
C13 C15 1_555 1_555

#END
