
#######################################################################
#
#                 Cambridge Crystallographic Data Centre
#                                CCDC 
#
#######################################################################
#
# If this CIF has been generated from an entry in the Cambridge 
# Structural Database, then it will include bibliographic, chemical, 
# crystal, experimental, refinement or atomic coordinate data resulting 
# from the CCDC's data processing and validation procedures.
#
#######################################################################

data_ONEBOZ
_chemical_formula_moiety         'C33 H30 N12 S3,0.5(C1 H2 Cl2)'
_chemical_name_systematic        
'syn-2,4,6-tris(((1-Phenyl-1H-tetrazol-5-yl)sulfanyl)methyl)-1,3,5-trimethylbenzene hemikis(dichloromethane) clathrate'
_symmetry_cell_setting           rhombohedral
_symmetry_space_group_name_H-M   'R -3'
_symmetry_Int_Tables_number      148
_space_group_name_Hall           '-R 3'
loop_
_symmetry_equiv_pos_site_id
_symmetry_equiv_pos_as_xyz
1 x,y,z
2 -y,x-y,z
3 -x+y,-x,z
4 2/3+x,1/3+y,1/3+z
5 2/3-y,1/3+x-y,1/3+z
6 2/3-x+y,1/3-x,1/3+z
7 1/3+x,2/3+y,2/3+z
8 1/3-y,2/3+x-y,2/3+z
9 1/3-x+y,2/3-x,2/3+z
10 -x,-y,-z
11 y,-x+y,-z
12 x-y,x,-z
13 1/3-x,2/3-y,2/3-z
14 1/3+y,2/3-x+y,2/3-z
15 1/3+x-y,2/3+x,2/3-z
16 2/3-x,1/3-y,1/3-z
17 2/3+y,1/3-x+y,1/3-z
18 2/3+x-y,1/3+x,1/3-z
_cell_length_a                   21.8938(5)
_cell_length_b                   21.8938(5)
_cell_length_c                   66.196(3)
_cell_angle_alpha                90
_cell_angle_beta                 90
_cell_angle_gamma                120
_cell_volume                     27479.2
_exptl_crystal_colour            colorless
_exptl_crystal_description       block
_cell_formula_units_Z            30
loop_
_atom_site_label
_atom_site_type_symbol
_atom_site_fract_x
_atom_site_fract_y
_atom_site_fract_z
S2 S 0.11503(11) -0.05293(9) 0.05499(2)
N5 N 0.2126(4) -0.0868(3) 0.04065(9)
N6 N 0.2384(4) -0.1275(3) 0.04789(13)
N7 N 0.2116(4) -0.1554(3) 0.06534(12)
N8 N 0.1661(3) -0.1328(2) 0.06998(8)
C12 C 0.1491(4) 0.1079(3) 0.02767(9)
H11 H 0.1753 0.0901 0.0348
H12 H 0.1539 0.1486 0.0346
H13 H 0.1671 0.1207 0.0142
C13 C 0.0717(3) 0.0512(2) 0.02690(6)
C14 C 0.0516(3) -0.0201(2) 0.02670(5)
C15 C 0.1059(4) -0.0423(3) 0.02786(7)
H14 H 0.1503 -0.0066 0.0221
H15 H 0.0903 -0.0864 0.0207
C16 C 0.1671(4) -0.0916(3) 0.05492(9)
C17 C 0.1235(4) -0.1547(3) 0.08773(11)
C18 C 0.0808(6) -0.2258(4) 0.09186(15)
H16 H 0.0806 -0.2597 0.0833
C19 C 0.0381(8) -0.2459(5) 0.10902(18)
H17 H 0.0108 -0.2936 0.1122
C20 C 0.0354(7) -0.1974(5) 0.12124(14)
H18 H 0.0046 -0.2114 0.1322
C21 C 0.0787(6) -0.1278(4) 0.11710(11)
H19 H 0.0787 -0.0944 0.1258
C22 C 0.1223(5) -0.1052(3) 0.10061(10)
H20 H 0.1508 -0.0573 0.0981
S2B S -0.16796(14) -0.11503(11) 0.05499(2)
S2A S 0.05293(9) 0.16796(14) 0.05499(2)
N5B N -0.2994(5) -0.2126(4) 0.04065(9)
N5A N 0.0868(3) 0.2994(5) 0.04065(9)
N6B N -0.3659(5) -0.2384(4) 0.04789(13)
N6A N 0.1275(3) 0.3659(5) 0.04789(13)
N7B N -0.3670(5) -0.2116(4) 0.06534(12)
N7A N 0.1554(3) 0.3670(5) 0.06534(12)
N8B N -0.2989(4) -0.1661(3) 0.06998(8)
N8A N 0.1328(2) 0.2989(4) 0.06998(8)
C12A C -0.1079(3) 0.0412(5) 0.02767(9)
C12B C -0.0412(5) -0.1491(4) 0.02767(9)
H11A H -0.0901 0.0852 0.0348
H11B H -0.0852 -0.1753 0.0348
H12A H -0.1486 0.0053 0.0346
H12B H -0.0053 -0.1539 0.0346
H13A H -0.1207 0.0464 0.0142
H13B H -0.0464 -0.1671 0.0142
C13A C -0.0512(2) 0.0205(4) 0.02690(6)
C13B C -0.0205(4) -0.0717(3) 0.02690(6)
C14A C 0.0201(2) 0.0717(4) 0.02670(5)
C14B C -0.0717(4) -0.0516(3) 0.02670(5)
C15B C -0.1482(5) -0.1059(4) 0.02786(7)
C15A C 0.0423(3) 0.1482(5) 0.02786(7)
H14B H -0.1569 -0.1503 0.0221
H14A H 0.0066 0.1569 0.0221
H15B H -0.1767 -0.0903 0.0207
H15A H 0.0864 0.1767 0.0207
C16B C -0.2587(5) -0.1671(4) 0.05492(9)
C16A C 0.0916(3) 0.2587(5) 0.05492(9)
C17B C -0.2782(5) -0.1235(4) 0.08773(11)
C17A C 0.1547(3) 0.2782(5) 0.08773(11)
C18B C -0.3066(7) -0.0808(6) 0.09186(15)
C18A C 0.2258(4) 0.3066(7) 0.09186(15)
H16B H -0.3403 -0.0806 0.0833
H16A H 0.2597 0.3403 0.0833
C19B C -0.2840(9) -0.0381(8) 0.10902(18)
C19A C 0.2459(5) 0.2840(9) 0.10902(18)
H17B H -0.3044 -0.0108 0.1122
H17A H 0.2936 0.3044 0.1122
C20B C -0.2328(9) -0.0354(7) 0.12124(14)
C20A C 0.1974(5) 0.2328(9) 0.12124(14)
H18B H -0.2160 -0.0046 0.1322
H18A H 0.2114 0.2160 0.1322
C21B C -0.2065(7) -0.0787(6) 0.11710(11)
C21A C 0.1278(4) 0.2065(7) 0.11710(11)
H19B H -0.1731 -0.0787 0.1258
H19A H 0.0944 0.1731 0.1258
C22B C -0.2275(6) -0.1223(5) 0.10061(10)
C22A C 0.1052(3) 0.2275(6) 0.10061(10)
H20B H -0.2081 -0.1508 0.0981
H20A H 0.0573 0.2081 0.0981
Cl1 Cl 0.3471(9) 0.5914(9) 0.1808(2)
C23 C 0.3333 0.6667 0.1851(7)
Cl1B Cl 0.2443(13) 0.6529(9) 0.1808(2)
Cl1A Cl 0.4086(9) 0.7557(13) 0.1808(2)
S3 S 0.15412(12) 0.62815(9) 0.11884(2)
N9 N 0.0380(4) 0.5991(3) 0.09554(9)
N10 N -0.0336(6) 0.5737(4) 0.10056(17)
N11 N -0.0450(4) 0.5614(3) 0.11936(16)
N12 N 0.0167(4) 0.5785(2) 0.12798(11)
C24 C 0.3011(4) 0.7798(3) 0.09577(9)
H21 H 0.3003 0.7959 0.0823
H22 H 0.3365 0.8180 0.1036
H23 H 0.2558 0.7630 0.1020
C25 C 0.3171(4) 0.7221(3) 0.09487(6)
C26 C 0.2627(4) 0.6511(3) 0.09456(6)
C27 C 0.1874(4) 0.6342(3) 0.09337(8)
H24 H 0.1594 0.5899 0.0863
H25 H 0.1846 0.6709 0.0859
C28 C 0.0658(4) 0.6008(3) 0.11343(11)
C29 C 0.0227(6) 0.5711(4) 0.14858(18)
C30 C 0.0439(11) 0.6238(8) 0.1620(2)
H26 H 0.0517 0.6669 0.1571
C31 C 0.0546(18) 0.6206(12) 0.1808(2)
H27 H 0.0754 0.6619 0.1883
C32 C 0.0385(25) 0.565(2) 0.1891(3)
H28 H 0.0410 0.5620 0.2031
C33 C 0.0167(16) 0.5092(12) 0.1778(3)
H29 H 0.0094 0.4680 0.1840
C34 C 0.0026(11) 0.5062(8) 0.1555(3)
H30 H -0.0172 0.4654 0.1477
S3A S 0.37185(9) 0.52597(15) 0.11884(2)
S3B S 0.47403(15) 0.84588(12) 0.11884(2)
N9A N 0.4009(3) 0.4389(5) 0.09554(9)
N9B N 0.5611(5) 0.9620(4) 0.09554(9)
N10A N 0.4263(4) 0.3927(7) 0.10056(17)
N10B N 0.6073(7) 1.0336(6) 0.10056(17)
N11A N 0.4386(3) 0.3936(5) 0.11936(16)
N11B N 0.6064(5) 1.0450(4) 0.11936(16)
N12A N 0.4215(2) 0.4382(4) 0.12798(11)
N12B N 0.5618(4) 0.9833(4) 0.12798(11)
C24B C 0.4787(5) 0.6989(4) 0.09577(9)
C24A C 0.2202(3) 0.5213(5) 0.09577(9)
H21B H 0.4956 0.6997 0.0823
H21A H 0.2041 0.5044 0.0823
H22B H 0.4815 0.6635 0.1036
H22A H 0.1820 0.5185 0.1036
H23B H 0.5072 0.7442 0.1020
H23A H 0.2370 0.4928 0.1020
C25B C 0.4050(5) 0.6829(4) 0.09487(6)
C25A C 0.2779(3) 0.5950(5) 0.09487(6)
C26B C 0.3884(5) 0.7373(4) 0.09456(6)
C26A C 0.3489(3) 0.6116(5) 0.09456(6)
C27A C 0.3658(3) 0.5532(5) 0.09337(8)
C27B C 0.4468(5) 0.8126(4) 0.09337(8)
H24A H 0.4101 0.5695 0.0863
H24B H 0.4305 0.8406 0.0863
H25A H 0.3291 0.5137 0.0859
H25B H 0.4863 0.8154 0.0859
C28A C 0.3992(3) 0.4650(5) 0.11343(11)
C28B C 0.5350(5) 0.9342(4) 0.11343(11)
C29A C 0.4289(4) 0.4516(7) 0.14858(18)
C29B C 0.5484(7) 0.9773(6) 0.14858(18)
C30A C 0.3762(8) 0.4201(14) 0.1620(2)
C30B C 0.5799(14) 0.9561(11) 0.1620(2)
H26A H 0.3331 0.3848 0.1571
H26B H 0.6152 0.9483 0.1571
C31A C 0.3794(12) 0.4340(22) 0.1808(2)
C31B C 0.5660(22) 0.9454(18) 0.1808(2)
H27A H 0.3381 0.4135 0.1883
H27B H 0.5865 0.9246 0.1883
C32A C 0.435(2) 0.4735(32) 0.1891(3)
C32B C 0.5265(32) 0.9615(25) 0.1891(3)
H28A H 0.4380 0.4790 0.2031
H28B H 0.5210 0.9590 0.2031
C33A C 0.4908(12) 0.5075(20) 0.1778(3)
C33B C 0.4925(20) 0.9833(16) 0.1778(3)
H29A H 0.5320 0.5414 0.1840
H29B H 0.4586 0.9906 0.1840
C34A C 0.4938(8) 0.4964(14) 0.1555(3)
C34B C 0.5036(14) 0.9974(11) 0.1555(3)
H30A H 0.5346 0.5174 0.1477
H30B H 0.4826 1.0172 0.1477
Cl2 Cl 0.6667 0.3333 0.05531(7)
Cl3 Cl 0.6667 0.3333 0.01360(11)
C35 C 0.6439(17) 0.3742(13) 0.0340(3)
C35A C 0.6258(13) 0.2697(21) 0.0340(3)
C35B C 0.7303(21) 0.3561(17) 0.0340(3)
S4 S 0.84465(12) 0.38991(9) 0.08018(2)
N13 N 0.9667(4) 0.4273(3) 0.10092(9)
N14 N 1.0343(5) 0.4480(4) 0.09594(13)
N15 N 1.0436(4) 0.4537(3) 0.07618(15)
N16 N 0.9793(3) 0.4337(2) 0.06733(10)
C36 C 0.7139(4) 0.2305(3) 0.10535(8)
H31 H 0.7584 0.2505 0.0985
H32 H 0.6796 0.1895 0.0982
H33 H 0.7190 0.2174 0.1188
C37 C 0.6900(4) 0.2836(3) 0.10624(6)
C38 C 0.7387(4) 0.3557(3) 0.10651(6)
C39 C 0.8166(4) 0.3807(3) 0.10656(8)
H34 H 0.8255 0.3468 0.1134
H35 H 0.8422 0.4256 0.1135
C40 C 0.9344(4) 0.4189(3) 0.08344(11)
C41 C 0.9678(4) 0.4292(3) 0.04682(11)
C42 C 0.9964(6) 0.3974(4) 0.03453(18)
H36 H 1.0242 0.3808 0.0402
C43 C 0.9833(6) 0.3909(4) 0.01423(17)
H37 H 1.0023 0.3698 0.0062
C44 C 0.9440(7) 0.4139(4) 0.00601(15)
H38 H 0.9359 0.4086 -0.0078
C45 C 0.9144(7) 0.4459(5) 0.01714(14)
H39 H 0.8869 0.4620 0.0110
C46 C 0.9266(6) 0.4532(4) 0.03740(14)
H40 H 0.9072 0.4747 0.0451
S4A S 0.61009(9) 0.45474(15) 0.08018(2)
S4B S 0.54526(15) 0.15535(12) 0.08018(2)
N13A N 0.5727(3) 0.5394(5) 0.10092(9)
N13B N 0.4606(5) 0.0333(4) 0.10092(9)
N14A N 0.5520(4) 0.5863(6) 0.09594(13)
N14B N 0.4137(6) -0.0343(5) 0.09594(13)
N15A N 0.5463(3) 0.5899(5) 0.07618(15)
N15B N 0.4101(5) -0.0436(4) 0.07618(15)
N16A N 0.5663(2) 0.5456(4) 0.06733(10)
N16B N 0.4544(4) 0.0207(3) 0.06733(10)
C36B C 0.5166(5) 0.2861(4) 0.10535(8)
C36A C 0.7695(3) 0.4834(5) 0.10535(8)
H31B H 0.4921 0.2416 0.0985
H31A H 0.7495 0.5079 0.0985
H32B H 0.5099 0.3204 0.0982
H32A H 0.8105 0.4901 0.0982
H33B H 0.4984 0.2810 0.1188
H33A H 0.7826 0.5016 0.1188
C37B C 0.5936(5) 0.3100(4) 0.10624(6)
C37A C 0.7164(3) 0.4064(5) 0.10624(6)
C38B C 0.6170(5) 0.2613(4) 0.10651(6)
C38A C 0.6443(3) 0.3830(5) 0.10651(6)
C39A C 0.6193(3) 0.4359(5) 0.10656(8)
C39B C 0.5641(5) 0.1834(4) 0.10656(8)
H34A H 0.6532 0.4787 0.1134
H34B H 0.5213 0.1745 0.1134
H35A H 0.5744 0.4166 0.1135
H35B H 0.5834 0.1578 0.1135
C40A C 0.5811(3) 0.5155(5) 0.08344(11)
C40B C 0.4845(5) 0.0656(4) 0.08344(11)
C41A C 0.5708(3) 0.5386(5) 0.04682(11)
C41B C 0.4614(5) 0.0322(4) 0.04682(11)
C42A C 0.6026(4) 0.5990(7) 0.03453(18)
C42B C 0.4010(7) 0.0036(6) 0.03453(18)
H36A H 0.6192 0.6434 0.0402
H36B H 0.3566 -0.0242 0.0402
C43A C 0.6091(4) 0.5924(7) 0.01423(17)
C43B C 0.4076(7) 0.0167(6) 0.01423(17)
H37A H 0.6302 0.6325 0.0062
H37B H 0.3675 -0.0023 0.0062
C44A C 0.5861(4) 0.5301(8) 0.00601(15)
C44B C 0.4699(8) 0.0560(7) 0.00601(15)
H38A H 0.5914 0.5273 -0.0078
H38B H 0.4727 0.0641 -0.0078
C45A C 0.5541(5) 0.4685(9) 0.01714(14)
C45B C 0.5315(9) 0.0856(7) 0.01714(14)
H39A H 0.5380 0.4249 0.0110
H39B H 0.5751 0.1131 0.0110
C46A C 0.5468(4) 0.4734(7) 0.03740(14)
C46B C 0.5266(7) 0.0734(6) 0.03740(14)
H40A H 0.5253 0.4325 0.0451
H40B H 0.5675 0.0928 0.0451
S5 S 0.77777(10) 0.27217(8) -0.012058(19)
N17 N 0.8898(3) 0.2598(2) -0.02613(7)
N18 N 0.9255(4) 0.2275(3) -0.01867(10)
N19 N 0.9000(3) 0.1969(2) -0.00177(8)
N20 N 0.84622(26) 0.20809(19) 0.00264(6)
C47 C 0.6214(4) 0.1834(2) -0.03884(8)
H41 H 0.5784 0.1587 -0.0312
H42 H 0.6574 0.1773 -0.0325
H43 H 0.6137 0.1649 -0.0523
C48 C 0.6444(3) 0.2606(2) -0.03959(6)
C49 C 0.7173(3) 0.3119(2) -0.03969(5)
C50 C 0.7708(3) 0.2882(2) -0.03885(6)
H44 H 0.8158 0.3244 -0.0441
H45 H 0.7551 0.2454 -0.0467
C51 C 0.8411(3) 0.2469(2) -0.01232(8)
C52 C 0.8032(3) 0.1795(2) 0.02040(8)
C53 C 0.7676(4) 0.1078(3) 0.02332(10)
H46 H 0.7721 0.0778 0.0143
C54 C 0.7247(5) 0.0816(3) 0.04031(11)
H47 H 0.7002 0.0334 0.0429
C55 C 0.7185(6) 0.1270(4) 0.05326(10)
H48 H 0.6901 0.1094 0.0647
C56 C 0.7531(6) 0.1969(4) 0.04971(10)
H49 H 0.7478 0.2269 0.0586
C57 C 0.7958(4) 0.2243(3) 0.03343(8)
H50 H 0.8199 0.2727 0.0311
S5A S 0.72783(8) 0.50560(13) -0.012058(19)
S5B S 0.49440(13) 0.22223(10) -0.012058(19)
N17A N 0.7402(2) 0.6300(4) -0.02613(7)
N17B N 0.3700(4) 0.1102(3) -0.02613(7)
N18A N 0.7725(3) 0.6980(5) -0.01867(10)
N18B N 0.3020(5) 0.0745(4) -0.01867(10)
N19A N 0.8031(2) 0.7031(4) -0.00177(8)
N19B N 0.2969(4) 0.1000(3) -0.00177(8)
N20A N 0.79191(19) 0.63813(32) 0.00264(6)
N20B N 0.36187(32) 0.15378(26) 0.00264(6)
C47B C 0.5620(4) 0.3786(4) -0.03884(8)
C47A C 0.8166(2) 0.4380(4) -0.03884(8)
H41B H 0.5803 0.4216 -0.0312
H41A H 0.8413 0.4197 -0.0312
H42B H 0.5199 0.3426 -0.0325
H42A H 0.8227 0.4801 -0.0325
H43B H 0.5512 0.3863 -0.0523
H43A H 0.8351 0.4488 -0.0523
C48B C 0.6162(4) 0.3556(3) -0.03959(6)
C48A C 0.7394(2) 0.3838(4) -0.03959(6)
C49B C 0.5946(4) 0.2827(3) -0.03969(5)
C49A C 0.6881(2) 0.4054(4) -0.03969(5)
C50A C 0.7118(2) 0.4826(4) -0.03885(6)
C50B C 0.5174(4) 0.2292(3) -0.03885(6)
H44A H 0.6756 0.4914 -0.0441
H44B H 0.5086 0.1842 -0.0441
H45A H 0.7546 0.5097 -0.0467
H45B H 0.4903 0.2449 -0.0467
C51A C 0.7531(2) 0.5942(4) -0.01232(8)
C51B C 0.4058(4) 0.1589(3) -0.01232(8)
C52A C 0.8205(2) 0.6237(4) 0.02040(8)
C52B C 0.3763(4) 0.1968(3) 0.02040(8)
C53A C 0.8922(3) 0.6598(5) 0.02332(10)
C53B C 0.3402(5) 0.2324(4) 0.02332(10)
H46A H 0.9222 0.6943 0.0143
H46B H 0.3057 0.2279 0.0143
C54A C 0.9184(3) 0.6431(6) 0.04031(11)
C54B C 0.3569(6) 0.2753(5) 0.04031(11)
H47A H 0.9666 0.6668 0.0429
H47B H 0.3332 0.2998 0.0429
C55A C 0.8730(4) 0.5915(7) 0.05326(10)
C55B C 0.4085(7) 0.2815(6) 0.05326(10)
H48A H 0.8906 0.5807 0.0647
H48B H 0.4193 0.3099 0.0647
C56A C 0.8031(4) 0.5562(7) 0.04971(10)
C56B C 0.4438(7) 0.2469(6) 0.04971(10)
H49A H 0.7731 0.5209 0.0586
H49B H 0.4791 0.2522 0.0586
C57A C 0.7757(3) 0.5715(5) 0.03343(8)
C57B C 0.4285(5) 0.2042(4) 0.03343(8)
H50A H 0.7273 0.5472 0.0311
H50B H 0.4528 0.1801 0.0311
Cl4 Cl 0.0000 0.0000 0.12181(10)
Cl5 Cl 0.0000 0.0000 0.08150(16)
C58 C -0.0324(11) 0.0372(9) 0.0998(3)
C58A C -0.0372(9) -0.0696(14) 0.0998(3)
C58B C 0.0696(14) 0.0324(11) 0.0998(3)
S1 S -0.12937(17) -0.18318(11) 0.14798(3)
N1 N -0.2171(7) -0.2994(6) 0.17024(14)
C1 C 0.0428(8) -0.1056(6) 0.17203(11)
H1 H 0.0125 -0.1479 0.1647
H2 H 0.0480 -0.1175 0.1856
H3 H 0.0882 -0.0814 0.1656
N2 N -0.2671(11) -0.3673(8) 0.1662(2)
C2 C 0.0099(14) -0.0571(6) 0.17231(11)
N3 N -0.2745(6) -0.3804(4) 0.1479(2)
C3 C -0.0599(12) -0.0703(7) 0.17257(10)
N4 N -0.2272(6) -0.3190(4) 0.13703(19)
C4 C -0.1071(8) -0.1502(6) 0.17391(10)
H4 H -0.1496 -0.1622 0.1815
H5 H -0.0825 -0.1710 0.1807
C5 C -0.1954(8) -0.2719(6) 0.15267(16)
C6 C -0.2183(6) -0.3112(3) 0.11677(19)
C7 C -0.1562(11) -0.3020(8) 0.1076(3)
H6 H -0.1219 -0.3030 0.1157
C8 C -0.1447(16) -0.2919(11) 0.0878(3)
H7 H -0.1016 -0.2806 0.0821
C9 C -0.1978(10) -0.2988(6) 0.0769(2)
H8 H -0.1917 -0.2953 0.0629
C10 C -0.2582(9) -0.3101(5) 0.0838(3)
H9 H -0.2929 -0.3131 0.0751
C11 C -0.2691(8) -0.3174(5) 0.1038(2)
H10 H -0.3125 -0.3269 0.1090
S1B S -0.05381(20) 0.12937(17) 0.14798(3)
S1A S 0.18318(11) 0.05381(20) 0.14798(3)
N1B N -0.0823(9) 0.2171(7) 0.17024(14)
N1A N 0.2994(6) 0.0823(9) 0.17024(14)
C1A C 0.1056(6) 0.1484(10) 0.17203(11)
C1B C -0.1484(10) -0.0428(8) 0.17203(11)
H1A H 0.1479 0.1604 0.1647
H1B H -0.1604 -0.0125 0.1647
H2A H 0.1175 0.1655 0.1856
H2B H -0.1655 -0.0480 0.1856
H3A H 0.0814 0.1696 0.1656
H3B H -0.1696 -0.0882 0.1656
N2B N -0.1002(14) 0.2671(11) 0.1662(2)
N2A N 0.3673(8) 0.1002(14) 0.1662(2)
C2A C 0.0571(6) 0.0670(15) 0.17231(11)
C2B C -0.0670(15) -0.0099(14) 0.17231(11)
N3B N -0.1059(7) 0.2745(6) 0.1479(2)
N3A N 0.3804(4) 0.1059(7) 0.1479(2)
C3A C 0.0703(7) 0.0104(14) 0.17257(10)
C3B C -0.0104(14) 0.0599(12) 0.17257(10)
N4B N -0.0918(7) 0.2272(6) 0.13703(19)
N4A N 0.3190(4) 0.0918(7) 0.13703(19)
C4B C -0.0431(10) 0.1071(8) 0.17391(10)
C4A C 0.1502(6) 0.0431(10) 0.17391(10)
H4B H -0.0126 0.1496 0.1815
H4A H 0.1622 0.0126 0.1815
H5B H -0.0885 0.0825 0.1807
H5A H 0.1710 0.0885 0.1807
C5B C -0.0765(10) 0.1954(8) 0.15267(16)
C5A C 0.2719(6) 0.0765(10) 0.15267(16)
C6B C -0.0929(7) 0.2183(6) 0.11677(19)
C6A C 0.3112(3) 0.0929(7) 0.11677(19)
C7B C -0.1458(14) 0.1562(11) 0.1076(3)
C7A C 0.3020(8) 0.1458(14) 0.1076(3)
H6B H -0.1811 0.1219 0.1157
H6A H 0.3030 0.1811 0.1157
C8B C -0.1472(19) 0.1447(16) 0.0878(3)
C8A C 0.2919(11) 0.1472(19) 0.0878(3)
H7B H -0.1790 0.1016 0.0821
H7A H 0.2806 0.1790 0.0821
C9B C -0.1010(12) 0.1978(10) 0.0769(2)
C9A C 0.2988(6) 0.1010(12) 0.0769(2)
H8B H -0.1036 0.1917 0.0629
H8A H 0.2953 0.1036 0.0629
C10B C -0.0519(10) 0.2582(9) 0.0838(3)
C10A C 0.3101(5) 0.0519(10) 0.0838(3)
H9B H -0.0202 0.2929 0.0751
H9A H 0.3131 0.0202 0.0751
C11B C -0.0483(9) 0.2691(8) 0.1038(2)
C11A C 0.3174(5) 0.0483(9) 0.1038(2)
H10B H -0.0144 0.3125 0.1090
H10A H 0.3269 0.0144 0.1090
loop_
_geom_bond_atom_site_label_1
_geom_bond_atom_site_label_2
_geom_bond_site_symmetry_1
_geom_bond_site_symmetry_2
S1 C4 1_555 1_555
N1 N2 1_555 1_555
C1 H1 1_555 1_555
H2 C1 1_555 1_555
H3 C1 1_555 1_555
N2 N3 1_555 1_555
C2 C1 1_555 1_555
N3 N4 1_555 1_555
C3 C2 1_555 1_555
N4 C5 1_555 1_555
C4 C3 1_555 1_555
H4 C4 1_555 1_555
H5 C4 1_555 1_555
C5 S1 1_555 1_555
C6 N4 1_555 1_555
C7 C6 1_555 1_555
H6 C7 1_555 1_555
C8 C7 1_555 1_555
H7 C8 1_555 1_555
C9 C8 1_555 1_555
H8 C9 1_555 1_555
C10 C9 1_555 1_555
H9 C10 1_555 1_555
C11 C6 1_555 1_555
H10 C11 1_555 1_555
S2 C15 1_555 1_555
N5 N6 1_555 1_555
N6 N7 1_555 1_555
N7 N8 1_555 1_555
N8 C16 1_555 1_555
C12 H11 1_555 1_555
H12 C12 1_555 1_555
H13 C12 1_555 1_555
C13 C12 1_555 1_555
C14 C13 1_555 1_555
C15 C14 1_555 1_555
H14 C15 1_555 1_555
H15 C15 1_555 1_555
C16 S2 1_555 1_555
C17 N8 1_555 1_555
C18 C17 1_555 1_555
H16 C18 1_555 1_555
C19 C18 1_555 1_555
H17 C19 1_555 1_555
C20 C19 1_555 1_555
H18 C20 1_555 1_555
C21 C20 1_555 1_555
H19 C21 1_555 1_555
C22 C17 1_555 1_555
H20 C22 1_555 1_555
Cl1 C23 1_555 1_555
C23 Cl1B 1_555 1_555
S3 C27 1_555 1_555
N9 N10 1_555 1_555
N10 N11 1_555 1_555
N11 N12 1_555 1_555
N12 C28 1_555 1_555
C24 H21 1_555 1_555
H22 C24 1_555 1_555
H23 C24 1_555 1_555
C25 C24 1_555 1_555
C26 C25 1_555 1_555
C27 C26 1_555 1_555
H24 C27 1_555 1_555
H25 C27 1_555 1_555
C28 S3 1_555 1_555
C29 N12 1_555 1_555
C30 C29 1_555 1_555
H26 C30 1_555 1_555
C31 C30 1_555 1_555
H27 C31 1_555 1_555
C32 C31 1_555 1_555
H28 C32 1_555 1_555
C33 C32 1_555 1_555
H29 C33 1_555 1_555
C34 C29 1_555 1_555
H30 C34 1_555 1_555
Cl2 C35 1_555 1_555
Cl3 C35 1_555 1_555
S4 C39 1_555 1_555
N13 N14 1_555 1_555
N14 N15 1_555 1_555
N15 N16 1_555 1_555
N16 C40 1_555 1_555
C36 H31 1_555 1_555
H32 C36 1_555 1_555
H33 C36 1_555 1_555
C37 C36 1_555 1_555
C38 C37 1_555 1_555
C39 C38 1_555 1_555
H34 C39 1_555 1_555
H35 C39 1_555 1_555
C40 S4 1_555 1_555
C41 N16 1_555 1_555
C42 C41 1_555 1_555
H36 C42 1_555 1_555
C43 C42 1_555 1_555
H37 C43 1_555 1_555
C44 C43 1_555 1_555
H38 C44 1_555 1_555
C45 C44 1_555 1_555
H39 C45 1_555 1_555
C46 C41 1_555 1_555
H40 C46 1_555 1_555
S5 C50 1_555 1_555
N17 N18 1_555 1_555
N18 N19 1_555 1_555
N19 N20 1_555 1_555
N20 C51 1_555 1_555
C47 H41 1_555 1_555
H42 C47 1_555 1_555
H43 C47 1_555 1_555
C48 C47 1_555 1_555
C49 C48 1_555 1_555
C50 C49 1_555 1_555
H44 C50 1_555 1_555
H45 C50 1_555 1_555
C51 S5 1_555 1_555
C52 N20 1_555 1_555
C53 C52 1_555 1_555
H46 C53 1_555 1_555
C54 C53 1_555 1_555
H47 C54 1_555 1_555
C55 C54 1_555 1_555
H48 C55 1_555 1_555
C56 C55 1_555 1_555
H49 C56 1_555 1_555
C57 C52 1_555 1_555
H50 C57 1_555 1_555
Cl4 C58 1_555 1_555
Cl5 C58 1_555 1_555
S1B C4B 1_555 1_555
S1A C4A 1_555 1_555
N1B N2B 1_555 1_555
N1A N2A 1_555 1_555
C1A H1A 1_555 1_555
C1B H1B 1_555 1_555
H2A C1A 1_555 1_555
H2B C1B 1_555 1_555
H3A C1A 1_555 1_555
H3B C1B 1_555 1_555
N2B N3B 1_555 1_555
N2A N3A 1_555 1_555
C2A C1A 1_555 1_555
C2B C3 1_555 1_555
N3B N4B 1_555 1_555
N3A N4A 1_555 1_555
C3A C2 1_555 1_555
C3B C2A 1_555 1_555
N4B C5B 1_555 1_555
N4A C5A 1_555 1_555
C4B C3B 1_555 1_555
C4A C3A 1_555 1_555
H4B C4B 1_555 1_555
H4A C4A 1_555 1_555
H5B C4B 1_555 1_555
H5A C4A 1_555 1_555
C5B S1B 1_555 1_555
C5A S1A 1_555 1_555
C6B N4B 1_555 1_555
C6A N4A 1_555 1_555
C7B C6B 1_555 1_555
C7A C6A 1_555 1_555
H6B C7B 1_555 1_555
H6A C7A 1_555 1_555
C8B C7B 1_555 1_555
C8A C7A 1_555 1_555
H7B C8B 1_555 1_555
H7A C8A 1_555 1_555
C9B C8B 1_555 1_555
C9A C8A 1_555 1_555
H8B C9B 1_555 1_555
H8A C9A 1_555 1_555
C10B C9B 1_555 1_555
C10A C9A 1_555 1_555
H9B C10B 1_555 1_555
H9A C10A 1_555 1_555
C11B C6B 1_555 1_555
C11A C6A 1_555 1_555
H10B C11B 1_555 1_555
H10A C11A 1_555 1_555
S2B C15B 1_555 1_555
S2A C15A 1_555 1_555
N5B N6B 1_555 1_555
N5A N6A 1_555 1_555
N6B N7B 1_555 1_555
N6A N7A 1_555 1_555
N7B N8B 1_555 1_555
N7A N8A 1_555 1_555
N8B C16B 1_555 1_555
N8A C16A 1_555 1_555
C12A H11A 1_555 1_555
C12B H11B 1_555 1_555
H12A C12A 1_555 1_555
H12B C12B 1_555 1_555
H13A C12A 1_555 1_555
H13B C12B 1_555 1_555
C13A C12A 1_555 1_555
C13B C14 1_555 1_555
C14A C13 1_555 1_555
C14B C13A 1_555 1_555
C15B C14B 1_555 1_555
C15A C14A 1_555 1_555
H14B C15B 1_555 1_555
H14A C15A 1_555 1_555
H15B C15B 1_555 1_555
H15A C15A 1_555 1_555
C16B S2B 1_555 1_555
C16A S2A 1_555 1_555
C17B N8B 1_555 1_555
C17A N8A 1_555 1_555
C18B C17B 1_555 1_555
C18A C17A 1_555 1_555
H16B C18B 1_555 1_555
H16A C18A 1_555 1_555
C19B C18B 1_555 1_555
C19A C18A 1_555 1_555
H17B C19B 1_555 1_555
H17A C19A 1_555 1_555
C20B C19B 1_555 1_555
C20A C19A 1_555 1_555
H18B C20B 1_555 1_555
H18A C20A 1_555 1_555
C21B C20B 1_555 1_555
C21A C20A 1_555 1_555
H19B C21B 1_555 1_555
H19A C21A 1_555 1_555
C22B C17B 1_555 1_555
C22A C17A 1_555 1_555
H20B C22B 1_555 1_555
H20A C22A 1_555 1_555
Cl1A C23 1_555 1_555
S3A C27A 1_555 1_555
S3B C27B 1_555 1_555
N9A N10A 1_555 1_555
N9B N10B 1_555 1_555
N10A N11A 1_555 1_555
N10B N11B 1_555 1_555
N11A N12A 1_555 1_555
N11B N12B 1_555 1_555
N12A C28A 1_555 1_555
N12B C28B 1_555 1_555
C24B H21B 1_555 1_555
C24A H21A 1_555 1_555
H22B C24B 1_555 1_555
H22A C24A 1_555 1_555
H23B C24B 1_555 1_555
H23A C24A 1_555 1_555
C25B C24B 1_555 1_555
C25A C26 1_555 1_555
C26B C25 1_555 1_555
C26A C25B 1_555 1_555
C27A C26A 1_555 1_555
C27B C26B 1_555 1_555
H24A C27A 1_555 1_555
H24B C27B 1_555 1_555
H25A C27A 1_555 1_555
H25B C27B 1_555 1_555
C28A S3A 1_555 1_555
C28B S3B 1_555 1_555
C29A N12A 1_555 1_555
C29B N12B 1_555 1_555
C30A C29A 1_555 1_555
C30B C29B 1_555 1_555
H26A C30A 1_555 1_555
H26B C30B 1_555 1_555
C31A C30A 1_555 1_555
C31B C30B 1_555 1_555
H27A C31A 1_555 1_555
H27B C31B 1_555 1_555
C32A C31A 1_555 1_555
C32B C31B 1_555 1_555
H28A C32A 1_555 1_555
H28B C32B 1_555 1_555
C33A C32A 1_555 1_555
C33B C32B 1_555 1_555
H29A C33A 1_555 1_555
H29B C33B 1_555 1_555
C34A C29A 1_555 1_555
C34B C29B 1_555 1_555
H30A C34A 1_555 1_555
H30B C34B 1_555 1_555
C35A Cl2 1_555 1_555
C35B Cl2 1_555 1_555
S4A C39A 1_555 1_555
S4B C39B 1_555 1_555
N13A N14A 1_555 1_555
N13B N14B 1_555 1_555
N14A N15A 1_555 1_555
N14B N15B 1_555 1_555
N15A N16A 1_555 1_555
N15B N16B 1_555 1_555
N16A C40A 1_555 1_555
N16B C40B 1_555 1_555
C36B H31B 1_555 1_555
C36A H31A 1_555 1_555
H32B C36B 1_555 1_555
H32A C36A 1_555 1_555
H33B C36B 1_555 1_555
H33A C36A 1_555 1_555
C37B C36B 1_555 1_555
C37A C38 1_555 1_555
C38B C37 1_555 1_555
C38A C37B 1_555 1_555
C39A C38A 1_555 1_555
C39B C38B 1_555 1_555
H34A C39A 1_555 1_555
H34B C39B 1_555 1_555
H35A C39A 1_555 1_555
H35B C39B 1_555 1_555
C40A S4A 1_555 1_555
C40B S4B 1_555 1_555
C41A N16A 1_555 1_555
C41B N16B 1_555 1_555
C42A C41A 1_555 1_555
C42B C41B 1_555 1_555
H36A C42A 1_555 1_555
H36B C42B 1_555 1_555
C43A C42A 1_555 1_555
C43B C42B 1_555 1_555
H37A C43A 1_555 1_555
H37B C43B 1_555 1_555
C44A C43A 1_555 1_555
C44B C43B 1_555 1_555
H38A C44A 1_555 1_555
H38B C44B 1_555 1_555
C45A C44A 1_555 1_555
C45B C44B 1_555 1_555
H39A C45A 1_555 1_555
H39B C45B 1_555 1_555
C46A C41A 1_555 1_555
C46B C41B 1_555 1_555
H40A C46A 1_555 1_555
H40B C46B 1_555 1_555
S5A C50A 1_555 1_555
S5B C50B 1_555 1_555
N17A N18A 1_555 1_555
N17B N18B 1_555 1_555
N18A N19A 1_555 1_555
N18B N19B 1_555 1_555
N19A N20A 1_555 1_555
N19B N20B 1_555 1_555
N20A C51A 1_555 1_555
N20B C51B 1_555 1_555
C47B H41B 1_555 1_555
C47A H41A 1_555 1_555
H42B C47B 1_555 1_555
H42A C47A 1_555 1_555
H43B C47B 1_555 1_555
H43A C47A 1_555 1_555
C48B C47B 1_555 1_555
C48A C49 1_555 1_555
C49B C48 1_555 1_555
C49A C48B 1_555 1_555
C50A C49A 1_555 1_555
C50B C49B 1_555 1_555
H44A C50A 1_555 1_555
H44B C50B 1_555 1_555
H45A C50A 1_555 1_555
H45B C50B 1_555 1_555
C51A S5A 1_555 1_555
C51B S5B 1_555 1_555
C52A N20A 1_555 1_555
C52B N20B 1_555 1_555
C53A C52A 1_555 1_555
C53B C52B 1_555 1_555
H46A C53A 1_555 1_555
H46B C53B 1_555 1_555
C54A C53A 1_555 1_555
C54B C53B 1_555 1_555
H47A C54A 1_555 1_555
H47B C54B 1_555 1_555
C55A C54A 1_555 1_555
C55B C54B 1_555 1_555
H48A C55A 1_555 1_555
H48B C55B 1_555 1_555
C56A C55A 1_555 1_555
C56B C55B 1_555 1_555
H49A C56A 1_555 1_555
H49B C56B 1_555 1_555
C57A C52A 1_555 1_555
C57B C52B 1_555 1_555
H50A C57A 1_555 1_555
H50B C57B 1_555 1_555
C58A Cl4 1_555 1_555
C58B Cl4 1_555 1_555
N1 C5 1_555 1_555
C10 C11 1_555 1_555
N5 C16 1_555 1_555
C21 C22 1_555 1_555
N9 C28 1_555 1_555
C33 C34 1_555 1_555
Cl3 C35A 1_555 1_555
Cl3 C35B 1_555 1_555
N13 C40 1_555 1_555
C45 C46 1_555 1_555
N17 C51 1_555 1_555
C56 C57 1_555 1_555
Cl5 C58A 1_555 1_555
Cl5 C58B 1_555 1_555
N1B C5B 1_555 1_555
N1A C5A 1_555 1_555
C1B C2B 1_555 1_555
C2A C3A 1_555 1_555
C2B C3B 1_555 1_555
C10B C11B 1_555 1_555
C10A C11A 1_555 1_555
N5B C16B 1_555 1_555
N5A C16A 1_555 1_555
C12B C13B 1_555 1_555
C13A C14A 1_555 1_555
C13B C14B 1_555 1_555
C21B C22B 1_555 1_555
C21A C22A 1_555 1_555
N9A C28A 1_555 1_555
N9B C28B 1_555 1_555
C24A C25A 1_555 1_555
C25B C26B 1_555 1_555
C25A C26A 1_555 1_555
C33A C34A 1_555 1_555
C33B C34B 1_555 1_555
N13A C40A 1_555 1_555
N13B C40B 1_555 1_555
C36A C37A 1_555 1_555
C37B C38B 1_555 1_555
C37A C38A 1_555 1_555
C45A C46A 1_555 1_555
C45B C46B 1_555 1_555
N17A C51A 1_555 1_555
N17B C51B 1_555 1_555
C47A C48A 1_555 1_555
C48B C49B 1_555 1_555
C48A C49A 1_555 1_555
C56A C57A 1_555 1_555
C56B C57B 1_555 1_555

#END
