
#######################################################################
#
#                 Cambridge Crystallographic Data Centre
#                                CCDC 
#
#######################################################################
#
# If this CIF has been generated from an entry in the Cambridge 
# Structural Database, then it will include bibliographic, chemical, 
# crystal, experimental, refinement or atomic coordinate data resulting 
# from the CCDC's data processing and validation procedures.
#
#######################################################################

data_ONECEQ
_chemical_formula_moiety         'C33 H30 N12 S3,0.5(C8 H8)'
_chemical_name_systematic        
'syn-2,4,6-tris(((1-Phenyl-1H-tetrazol-5-yl)sulfanyl)methyl)-1,3,5-trimethylbenzene hemikis(phenylethylene) clathrate'
_symmetry_cell_setting           triclinic
_symmetry_space_group_name_H-M   'P -1'
_symmetry_Int_Tables_number      2
_space_group_name_Hall           '-P 1'
loop_
_symmetry_equiv_pos_site_id
_symmetry_equiv_pos_as_xyz
1 x,y,z
2 -x,-y,-z
_cell_length_a                   13.0761(6)
_cell_length_b                   13.6229(6)
_cell_length_c                   22.4652(10)
_cell_angle_alpha                90.499(1)
_cell_angle_beta                 95.288(1)
_cell_angle_gamma                108.725(1)
_cell_volume                     3770.77
_exptl_crystal_colour            colorless
_exptl_crystal_description       prism
_cell_formula_units_Z            4
loop_
_atom_site_label
_atom_site_type_symbol
_atom_site_fract_x
_atom_site_fract_y
_atom_site_fract_z
S4 S 0.28107(14) 0.14117(12) 0.38928(8)
S5 S 0.46641(17) 0.28467(14) 0.65089(7)
S6 S 0.76086(12) 0.31203(13) 0.45618(8)
N13 N 0.1393(4) 0.1730(4) 0.2984(2)
N14 N 0.0634(5) 0.1102(5) 0.2584(3)
N15 N 0.0550(5) 0.0144(5) 0.2637(3)
N16 N 0.1290(4) 0.0116(4) 0.3090(2)
N17 N 0.4620(5) 0.4201(6) 0.7411(3)
N18 N 0.4498(7) 0.4091(10) 0.8024(3)
N19 N 0.4442(8) 0.3147(10) 0.8172(4)
N20 N 0.4480(5) 0.2598(7) 0.7684(2)
N21 N 0.9451(4) 0.4622(5) 0.4291(3)
N22 N 1.0455(5) 0.4641(6) 0.4148(3)
N23 N 1.0535(5) 0.3738(7) 0.4134(4)
N24 N 0.9554(4) 0.3070(5) 0.4281(3)
C34 C 0.5333(5) 0.3320(5) 0.3607(3)
H31 H 0.5299 0.3901 0.3377
H32 H 0.4784 0.2702 0.3441
H33 H 0.6035 0.3240 0.3598
C35 C 0.5143(4) 0.3507(4) 0.4255(2)
C36 C 0.4076(4) 0.3234(4) 0.4415(2)
C37 C 0.3138(4) 0.2817(4) 0.3944(2)
H34 H 0.3331 0.3111 0.3562
H35 H 0.2517 0.2998 0.4051
C38 C 0.1811(5) 0.1102(5) 0.3302(3)
C39 C 0.1389(6) -0.0849(5) 0.3312(3)
C40 C 0.2394(7) -0.0944(6) 0.3405(4)
H36 H 0.3011 -0.0412 0.3323
C41 C 0.2460(10) -0.1901(9) 0.3636(5)
H37 H 0.3133 -0.1991 0.3720
C42 C 0.1531(11) -0.2683(8) 0.3732(4)
H38 H 0.1574 -0.3311 0.3872
C43 C 0.0566(8) -0.2547(6) 0.3627(4)
H39 H -0.0055 -0.3083 0.3699
C44 C 0.0464(7) -0.1639(6) 0.3414(4)
H40 H -0.0216 -0.1559 0.3341
C45 C 0.2740(4) 0.2978(5) 0.5191(3)
H41 H 0.2428 0.3524 0.5137
H42 H 0.2751 0.2798 0.5603
H43 H 0.2314 0.2381 0.4945
C46 C 0.3889(4) 0.3342(4) 0.5014(2)
C47 C 0.4781(4) 0.3777(4) 0.5447(2)
C48 C 0.4605(5) 0.3960(4) 0.6084(2)
H44 H 0.3903 0.4054 0.6100
H45 H 0.5161 0.4583 0.6255
C49 C 0.4585(5) 0.3284(6) 0.7219(3)
C50 C 0.6788(4) 0.4464(5) 0.5756(3)
H46 H 0.6867 0.5166 0.5872
H47 H 0.7437 0.4443 0.5595
H48 H 0.6667 0.4041 0.6098
C51 C 0.5834(4) 0.4057(4) 0.5285(2)
C52 C 0.7158(4) 0.4249(4) 0.4512(3)
H49 H 0.7627 0.4805 0.4781
H50 H 0.7180 0.4493 0.4108
C53 C 0.6014(4) 0.3933(4) 0.4683(2)
C54 C 0.8915(5) 0.3643(5) 0.4375(3)
C55 C 0.9286(5) 0.1969(6) 0.4288(4)
C56 C 0.9070(13) 0.1461(11) 0.4794(6)
H51 H 0.9148 0.1813 0.5161
C57 C 0.8723(17) 0.0381(13) 0.4744(8)
H52 H 0.8450 0.0007 0.5071
C58 C 0.8764(12) -0.0111(10) 0.4272(10)
H53 H 0.8677 -0.0816 0.4282
C59 C 0.8933(10) 0.0378(9) 0.3762(7)
H54 H 0.8838 0.0001 0.3402
C60 C 0.9243(4) 0.1424(3) 0.37691(19)
H55 H 0.9427 0.1773 0.3420
C72 C 0.5297(4) 0.1311(3) 0.77200(19)
H56 H 0.5937 0.1870 0.7754
C73 C 0.3397(4) 0.0965(3) 0.77110(19)
H57 H 0.2824 0.1231 0.7707
C74 C 0.4463(4) -0.0343(3) 0.77120(19)
H58 H 0.4432 -0.1034 0.7696
C75 C 0.5402(4) 0.0303(3) 0.77076(19)
H59 H 0.6044 0.0149 0.7698
C76 C 0.4578(4) 0.1486(3) 0.76946(19)
C77 C 0.3421(4) -0.0181(3) 0.77376(19)
H60 H 0.2792 -0.0736 0.7769
C61 C 0.5299(4) 0.0736(3) 0.42401(19)
C62 C 0.4998(4) 0.0886(3) 0.47991(19)
C63 C 0.4745(4) 0.0124(3) 0.52077(19)
C64 C 0.4607(4) 0.0941(3) 0.53710(19)
C65 C 0.5714(4) -0.0249(3) 0.41725(19)
C66 C 0.5915(4) 0.0265(3) 0.37325(19)
C61A C 0.4701(4) -0.0736(3) 0.57599(19)
C62A C 0.5002(4) -0.0886(3) 0.52009(19)
C63A C 0.5255(4) -0.0124(3) 0.47923(19)
C64A C 0.5393(4) -0.0941(3) 0.46290(19)
C65A C 0.4286(4) 0.0249(3) 0.58275(19)
C66A C 0.4085(4) -0.0265(3) 0.62675(19)
C67 C -0.0266(4) 0.4063(3) -0.00607(19)
C68 C 0.0259(4) 0.5060(3) -0.01835(19)
C69 C -0.0750(4) 0.3984(3) 0.04432(19)
C70 C 0.0106(4) 0.5294(3) -0.08812(19)
C71 C -0.0172(4) 0.4261(3) -0.05890(19)
C67A C 0.0266(4) 0.5937(3) 0.00607(19)
C68A C -0.0259(4) 0.4940(3) 0.01835(19)
C69A C 0.0750(4) 0.6016(3) -0.04432(19)
C70A C -0.0106(4) 0.4706(3) 0.08812(19)
C71A C 0.0172(4) 0.5739(3) 0.05890(19)
S1 S -0.15250(16) 0.72671(14) -0.09713(8)
S2 S -0.11750(19) 0.65408(18) 0.17211(9)
S3 S 0.29005(13) 0.82181(13) 0.04814(9)
N1 N -0.2815(4) 0.8189(4) -0.1630(2)
N2 N -0.3489(5) 0.7937(6) -0.2155(3)
N3 N -0.3528(5) 0.7040(5) -0.2366(2)
N4 N -0.2846(4) 0.6690(4) -0.1996(2)
N5 N -0.1868(5) 0.6956(5) 0.2710(3)
C1 C -0.1697(5) 0.6384(5) 0.2421(3)
N6 N -0.2243(6) 0.6429(6) 0.3274(3)
N7 N -0.2266(7) 0.5560(8) 0.3183(4)
N8 N -0.1920(6) 0.5346(6) 0.2657(3)
N9 N 0.4812(4) 0.9793(5) 0.0766(3)
N10 N 0.5876(5) 0.9926(6) 0.0692(3)
N11 N 0.5997(5) 0.9144(6) 0.0431(3)
N12 N 0.4990(4) 0.8431(5) 0.0316(2)
C2 C 0.1138(6) 0.9169(6) -0.0542(3)
H1 H 0.1461 0.9910 -0.0533
H2 H 0.0610 0.8949 -0.0884
H3 H 0.1690 0.8851 -0.0567
C3 C 0.0584(5) 0.8847(4) 0.0028(2)
C4 C -0.0550(5) 0.8505(4) 0.0008(2)
C5 C -0.1231(5) 0.8517(5) -0.0566(3)
H4 H -0.0845 0.9078 -0.0807
H5 H -0.1903 0.8625 -0.0482
C6 C -0.2431(5) 0.7418(5) -0.1544(2)
C7 C -0.2628(5) 0.5740(5) -0.2101(3)
C8 C -0.2808(7) 0.5003(6) -0.1684(3)
H6 H -0.3111 0.5086 -0.1336
C9 C -0.2531(8) 0.4141(7) -0.1788(4)
H7 H -0.2618 0.3641 -0.1501
C10 C -0.2127(7) 0.3999(6) -0.2309(4)
H8 H -0.1973 0.3391 -0.2381
C11 C -0.1950(6) 0.4736(6) -0.2721(3)
H9 H -0.1662 0.4638 -0.3071
C12 C -0.2191(5) 0.5622(5) -0.2627(3)
H10 H -0.2066 0.6135 -0.2907
C13 C -0.2287(5) 0.7682(6) 0.0486(3)
H11 H -0.2593 0.8224 0.0546
H12 H -0.2487 0.7182 0.0789
H13 H -0.2558 0.7348 0.0099
C14 C -0.1062(4) 0.8140(4) 0.0525(3)
C15 C -0.0441(4) 0.8212(4) 0.1066(2)
C16 C -0.0972(5) 0.7909(6) 0.1630(3)
H14 H -0.1663 0.8036 0.1604
H15 H -0.0514 0.8314 0.1969
C17 C -0.1814(12) 0.4575(11) 0.2502(6)
C18 C -0.279(2) 0.3765(19) 0.2117(11)
H16 H -0.3500 0.3769 0.2089
C19 C -0.243(2) 0.301(2) 0.1808(14)
H17 H -0.2870 0.2726 0.1458
C20 C -0.1523(19) 0.2586(19) 0.1931(10)
H18 H -0.1355 0.2051 0.1748
C21 C -0.0930(18) 0.3366(18) 0.2489(11)
H19 H -0.0427 0.3152 0.2728
C22 C -0.1011(12) 0.4172(12) 0.2656(6)
H20 H -0.0448 0.4574 0.2928
C23 C 0.1408(5) 0.8628(5) 0.1669(3)
H21 H 0.1614 0.9310 0.1855
H22 H 0.2047 0.8472 0.1585
H23 H 0.1013 0.8129 0.1934
C24 C 0.0708(4) 0.8587(4) 0.1098(2)
C25 C 0.1200(4) 0.8905(4) 0.0573(2)
C26 C 0.2421(4) 0.9323(5) 0.0600(3)
H24 H 0.2724 0.9665 0.0987
H25 H 0.2641 0.9822 0.0293
C27 C 0.4277(5) 0.8854(6) 0.0530(3)
C28 C 0.4790(5) 0.7483(6) -0.0007(3)
C29 C 0.4243(8) 0.6584(7) 0.0233(4)
H26 H 0.4038 0.6574 0.0619
C30 C 0.3998(10) 0.5676(9) -0.0114(5)
H27 H 0.3571 0.5057 0.0031
C31 C 0.4363(10) 0.5668(10) -0.0658(5)
H28 H 0.4254 0.5043 -0.0865
C32 C 0.4889(8) 0.6579(11) -0.0898(4)
H29 H 0.5089 0.6581 -0.1285
C33 C 0.5131(6) 0.7505(8) -0.0574(4)
H30 H 0.5514 0.8128 -0.0732
loop_
_geom_bond_atom_site_label_1
_geom_bond_atom_site_label_2
_geom_bond_site_symmetry_1
_geom_bond_site_symmetry_2
S1 C5 1_555 1_555
S2 C1 1_555 1_555
S3 C26 1_555 1_555
S4 C37 1_555 1_555
S5 C48 1_555 1_555
S6 C52 1_555 1_555
N1 N2 1_555 1_555
N2 N3 1_555 1_555
N3 N4 1_555 1_555
N4 C6 1_555 1_555
N5 C1 1_555 1_555
C1 N8 1_555 1_555
N6 N5 1_555 1_555
N7 N6 1_555 1_555
N8 N7 1_555 1_555
N9 N10 1_555 1_555
N10 N11 1_555 1_555
N11 N12 1_555 1_555
N12 C27 1_555 1_555
N13 N14 1_555 1_555
N14 N15 1_555 1_555
N15 N16 1_555 1_555
N16 C38 1_555 1_555
N17 N18 1_555 1_555
N18 N19 1_555 1_555
N19 N20 1_555 1_555
N20 C49 1_555 1_555
N21 N22 1_555 1_555
N22 N23 1_555 1_555
N23 N24 1_555 1_555
N24 C54 1_555 1_555
C2 H1 1_555 1_555
H2 C2 1_555 1_555
H3 C2 1_555 1_555
C3 C2 1_555 1_555
C4 C3 1_555 1_555
C5 C4 1_555 1_555
H4 C5 1_555 1_555
H5 C5 1_555 1_555
C6 S1 1_555 1_555
C7 N4 1_555 1_555
C8 C7 1_555 1_555
H6 C8 1_555 1_555
C9 C8 1_555 1_555
H7 C9 1_555 1_555
C10 C9 1_555 1_555
H8 C10 1_555 1_555
C11 C10 1_555 1_555
H9 C11 1_555 1_555
C12 C7 1_555 1_555
H10 C12 1_555 1_555
C13 H11 1_555 1_555
H12 C13 1_555 1_555
H13 C13 1_555 1_555
C14 C4 1_555 1_555
C15 C14 1_555 1_555
C16 S2 1_555 1_555
H14 C16 1_555 1_555
H15 C16 1_555 1_555
C17 N8 1_555 1_555
C18 C17 1_555 1_555
H16 C18 1_555 1_555
C19 C18 1_555 1_555
H17 C19 1_555 1_555
C20 C19 1_555 1_555
H18 C20 1_555 1_555
C21 C20 1_555 1_555
H19 C21 1_555 1_555
C22 C17 1_555 1_555
H20 C22 1_555 1_555
C23 H21 1_555 1_555
H22 C23 1_555 1_555
H23 C23 1_555 1_555
C24 C15 1_555 1_555
C25 C3 1_555 1_555
C26 C25 1_555 1_555
H24 C26 1_555 1_555
H25 C26 1_555 1_555
C27 S3 1_555 1_555
C28 N12 1_555 1_555
C29 C28 1_555 1_555
H26 C29 1_555 1_555
C30 C29 1_555 1_555
H27 C30 1_555 1_555
C31 C30 1_555 1_555
H28 C31 1_555 1_555
C32 C31 1_555 1_555
H29 C32 1_555 1_555
C33 C28 1_555 1_555
H30 C33 1_555 1_555
C34 H31 1_555 1_555
H32 C34 1_555 1_555
H33 C34 1_555 1_555
C35 C34 1_555 1_555
C36 C35 1_555 1_555
C37 C36 1_555 1_555
H34 C37 1_555 1_555
H35 C37 1_555 1_555
C38 S4 1_555 1_555
C39 N16 1_555 1_555
C40 C39 1_555 1_555
H36 C40 1_555 1_555
C41 C40 1_555 1_555
H37 C41 1_555 1_555
C42 C41 1_555 1_555
H38 C42 1_555 1_555
C43 C42 1_555 1_555
H39 C43 1_555 1_555
C44 C39 1_555 1_555
H40 C44 1_555 1_555
C45 H41 1_555 1_555
H42 C45 1_555 1_555
H43 C45 1_555 1_555
C46 C36 1_555 1_555
C47 C46 1_555 1_555
C48 C47 1_555 1_555
H44 C48 1_555 1_555
H45 C48 1_555 1_555
C49 S5 1_555 1_555
C50 H46 1_555 1_555
H47 C50 1_555 1_555
H48 C50 1_555 1_555
C51 C47 1_555 1_555
C52 H49 1_555 1_555
H50 C52 1_555 1_555
C53 C35 1_555 1_555
C54 S6 1_555 1_555
C55 N24 1_555 1_555
C56 C55 1_555 1_555
H51 C56 1_555 1_555
C57 C56 1_555 1_555
H52 C57 1_555 1_555
C58 C57 1_555 1_555
H53 C58 1_555 1_555
C59 C58 1_555 1_555
H54 C59 1_555 1_555
C60 C55 1_555 1_555
H55 C60 1_555 1_555
C61 C62 1_555 1_555
C62 C63 1_555 1_555
C63 C64 1_555 1_555
C64 C62 1_555 1_555
C65 C61 1_555 1_555
C66 C65 1_555 1_555
C67 C68 1_555 1_555
C68 C70 1_555 1_555
C69 C67 1_555 1_555
C70 C71 1_555 1_555
C71 C67 1_555 1_555
C72 H56 1_555 1_555
C73 H57 1_555 1_555
C74 H58 1_555 1_555
C75 C72 1_555 1_555
H59 C75 1_555 1_555
C76 N20 1_555 1_555
C77 C73 1_555 1_555
H60 C77 1_555 1_555
C61A C62A 1_555 1_555
C62A C63 1_555 1_555
C63A C62 1_555 1_555
C64A C65 1_555 1_555
C65A C63 1_555 1_555
C66A C65A 1_555 1_555
C67A C68 1_555 1_555
C68A C67 1_555 1_555
C69A C68 1_555 1_555
C70A C69 1_555 1_555
C71A C67A 1_555 1_555
N1 C6 1_555 1_555
N9 C27 1_555 1_555
N13 C38 1_555 1_555
N17 C49 1_555 1_555
N21 C54 1_555 1_555
C11 C12 1_555 1_555
C13 C14 1_555 1_555
C15 C16 1_555 1_555
C21 C22 1_555 1_555
C23 C24 1_555 1_555
C24 C25 1_555 1_555
C32 C33 1_555 1_555
C43 C44 1_555 1_555
C45 C46 1_555 1_555
C50 C51 1_555 1_555
C51 C53 1_555 1_555
C52 C53 1_555 1_555
C59 C60 1_555 1_555
C63 C63A 1_555 1_555
C64 C65A 1_555 1_555
C65 C63A 1_555 1_555
C68 C71 1_555 1_555
C68 C68A 1_555 1_555
C69 C68A 1_555 1_555
C70 C69A 1_555 1_555
C72 C76 1_555 1_555
C73 C76 1_555 1_555
C74 C75 1_555 1_555
C74 C77 1_555 1_555
C61A C65A 1_555 1_555
C62A C63A 1_555 1_555
C62A C64A 1_555 1_555
C63A C64A 1_555 1_555
C67A C68A 1_555 1_555
C67A C69A 1_555 1_555
C68A C70A 1_555 1_555
C68A C71A 1_555 1_555
C70A C71A 1_555 1_555

#END
