
#######################################################################
#
#                 Cambridge Crystallographic Data Centre
#                                CCDC 
#
#######################################################################
#
# If this CIF has been generated from an entry in the Cambridge 
# Structural Database, then it will include bibliographic, chemical, 
# crystal, experimental, refinement or atomic coordinate data resulting 
# from the CCDC's data processing and validation procedures.
#
#######################################################################

data_ONECUG
_chemical_formula_moiety         'C33 H30 N12 S3,C6 H6'
_chemical_name_systematic        
'syn-2,4,6-tris(((1-Phenyl-1H-tetrazol-5-yl)sulfanyl)methyl)-1,3,5-trimethylbenzene benzene clathrate'
_symmetry_cell_setting           trigonal
_symmetry_space_group_name_H-M   'P -3 c 1'
_symmetry_Int_Tables_number      165
_space_group_name_Hall           '-P 3 2"c'
loop_
_symmetry_equiv_pos_site_id
_symmetry_equiv_pos_as_xyz
1 x,y,z
2 -y,x-y,z
3 -x+y,-x,z
4 x-y,-y,1/2-z
5 -x,-x+y,1/2-z
6 y,x,1/2-z
7 -x,-y,-z
8 y,-x+y,-z
9 x-y,x,-z
10 -x+y,y,1/2+z
11 x,x-y,1/2+z
12 -y,-x,1/2+z
_cell_length_a                   13.0587(3)
_cell_length_b                   13.0587(3)
_cell_length_c                   27.2749(10)
_cell_angle_alpha                90
_cell_angle_beta                 90
_cell_angle_gamma                120
_cell_volume                     4028.04
_exptl_crystal_colour            colorless
_exptl_crystal_description       prism
_cell_formula_units_Z            4
loop_
_atom_site_label
_atom_site_type_symbol
_atom_site_fract_x
_atom_site_fract_y
_atom_site_fract_z
S1 S 0.96363(4) 0.39077(6) 0.132560(17)
N1 N 1.1524(2) 0.4258(3) 0.18892(8)
C1 C 0.8595(2) 0.57866(19) 0.19129(9)
H1 H 0.8339 0.6277 0.1755
H2 H 0.9260 0.5841 0.1739
H3 H 0.8820 0.6048 0.2245
N2 N 1.2634(2) 0.4463(4) 0.17966(10)
C2 C 0.75948(16) 0.45156(16) 0.19124(6)
N3 N 1.2849(2) 0.4510(4) 0.13362(10)
C3 C 0.78414(16) 0.35842(17) 0.19180(6)
N4 N 1.18408(17) 0.4332(2) 0.11053(7)
C4 C 0.91063(17) 0.3860(2) 0.19501(7)
H4 H 0.9153 0.3254 0.2139
H5 H 0.9588 0.4615 0.2111
C5 C 1.10533(18) 0.4192(2) 0.14557(8)
C6 C 1.1760(2) 0.4314(2) 0.05837(8)
C7 C 1.1998(3) 0.3548(3) 0.03286(12)
H6 H 1.2185 0.3037 0.0492
C8 C 1.1950(4) 0.3561(4) -0.01815(13)
H7 H 1.2126 0.3065 -0.0363
C9 C 1.1649(3) 0.4288(4) -0.04171(11)
H8 H 1.1610 0.4277 -0.0758
C10 C 1.1407(3) 0.5029(3) -0.01609(11)
H9 H 1.1202 0.5524 -0.0326
C11 C 1.1463(2) 0.5055(2) 0.03501(9)
H10 H 1.1301 0.5566 0.0528
S1A S 0.60923(6) 0.57286(7) 0.132560(17)
S1B S 0.42714(7) 0.03637(4) 0.132560(17)
N1A N 0.5742(3) 0.7266(4) 0.18892(8)
N1B N 0.2734(4) -0.1524(2) 0.18892(8)
C1A C 0.42134(19) 0.28084(28) 0.19129(9)
C1B C 0.71916(28) 0.1405(2) 0.19129(9)
H1A H 0.3723 0.2062 0.1755
H1B H 0.7938 0.1661 0.1755
H2A H 0.4159 0.3419 0.1739
H2B H 0.6581 0.0740 0.1739
H3A H 0.3952 0.2772 0.2245
H3B H 0.7228 0.1180 0.2245
N2A N 0.5537(4) 0.8171(4) 0.17966(10)
N2B N 0.1829(4) -0.2634(2) 0.17966(10)
C2A C 0.54844(16) 0.30792(23) 0.19124(6)
C2B C 0.69208(23) 0.24052(16) 0.19124(6)
N3A N 0.5490(4) 0.8339(4) 0.13362(10)
N3B N 0.1661(4) -0.2849(2) 0.13362(10)
C3A C 0.64158(17) 0.42572(23) 0.19180(6)
C3B C 0.57428(23) 0.21586(16) 0.19180(6)
N4A N 0.5668(2) 0.75088(26) 0.11053(7)
N4B N 0.24912(26) -0.18408(17) 0.11053(7)
C4A C 0.6140(2) 0.52463(26) 0.19501(7)
C4B C 0.47537(26) 0.08937(17) 0.19501(7)
H4A H 0.6746 0.5899 0.2139
H4B H 0.4101 0.0847 0.2139
H5A H 0.5385 0.4973 0.2111
H5B H 0.5027 0.0412 0.2111
C5A C 0.5808(2) 0.68613(27) 0.14557(8)
C5B C 0.31387(27) -0.10533(18) 0.14557(8)
C6A C 0.5686(2) 0.7446(3) 0.05837(8)
C6B C 0.2554(3) -0.1760(2) 0.05837(8)
C7A C 0.6452(3) 0.8450(4) 0.03286(12)
C7B C 0.1550(4) -0.1998(3) 0.03286(12)
H6A H 0.6963 0.9148 0.0492
H6B H 0.0852 -0.2185 0.0492
C8A C 0.6439(4) 0.8389(6) -0.01815(13)
C8B C 0.1611(6) -0.1950(4) -0.01815(13)
H7A H 0.6935 0.9061 -0.0363
H7B H 0.0939 -0.2126 -0.0363
C9A C 0.5712(4) 0.7361(5) -0.04171(11)
C9B C 0.2639(5) -0.1649(3) -0.04171(11)
H8A H 0.5723 0.7333 -0.0758
H8B H 0.2667 -0.1610 -0.0758
C10A C 0.4971(3) 0.6378(4) -0.01609(11)
C10B C 0.3622(4) -0.1407(3) -0.01609(11)
H9A H 0.4476 0.5678 -0.0326
H9B H 0.4322 -0.1202 -0.0326
C11A C 0.4945(2) 0.6408(3) 0.03501(9)
C11B C 0.3592(3) -0.1463(2) 0.03501(9)
H10A H 0.4434 0.5735 0.0528
H10B H 0.4265 -0.1301 0.0528
H11 H 1.0000 0.8159 0.2500
H12 H 0.8232 0.8232 0.2500
C12 C 0.8927(2) 0.8927(2) 0.25000(9)
C13 C 1.0000 0.8888(19) 0.2500
H11A H 1.1841 1.1841 0.2500
H11B H 0.8159 1.0000 0.2500
H12A H 1.1768 1.0000 0.2500
H12B H 1.0000 1.1768 0.2500
C12A C 1.1073(2) 1.0000(3) 0.25000(9)
C12B C 1.0000(3) 1.1073(2) 0.25000(9)
C13A C 1.1112(19) 1.1112(19) 0.2500
C13B C 0.8888(19) 1.0000 0.2500
loop_
_geom_bond_atom_site_label_1
_geom_bond_atom_site_label_2
_geom_bond_site_symmetry_1
_geom_bond_site_symmetry_2
S1 C4 1_555 1_555
N1 N2 1_555 1_555
C1 H1 1_555 1_555
H2 C1 1_555 1_555
H3 C1 1_555 1_555
N2 N3 1_555 1_555
C2 C1 1_555 1_555
N3 N4 1_555 1_555
C3 C2 1_555 1_555
N4 C5 1_555 1_555
C4 C3 1_555 1_555
H4 C4 1_555 1_555
H5 C4 1_555 1_555
C5 S1 1_555 1_555
C6 N4 1_555 1_555
C7 C6 1_555 1_555
H6 C7 1_555 1_555
C8 C7 1_555 1_555
H7 C8 1_555 1_555
C9 C8 1_555 1_555
H8 C9 1_555 1_555
C10 C9 1_555 1_555
H9 C10 1_555 1_555
C11 C6 1_555 1_555
H10 C11 1_555 1_555
H11 C13 1_555 1_555
H12 C12 1_555 1_555
C12 C13 1_555 1_555
C13 C12A 1_555 1_555
S1A C4A 1_555 1_555
S1B C4B 1_555 1_555
N1A N2A 1_555 1_555
N1B N2B 1_555 1_555
C1A H1A 1_555 1_555
C1B H1B 1_555 1_555
H2A C1A 1_555 1_555
H2B C1B 1_555 1_555
H3A C1A 1_555 1_555
H3B C1B 1_555 1_555
N2A N3A 1_555 1_555
N2B N3B 1_555 1_555
C2A C1A 1_555 1_555
C2B C3 1_555 1_555
N3A N4A 1_555 1_555
N3B N4B 1_555 1_555
C3A C2 1_555 1_555
C3B C2A 1_555 1_555
N4A C5A 1_555 1_555
N4B C5B 1_555 1_555
C4A C3A 1_555 1_555
C4B C3B 1_555 1_555
H4A C4A 1_555 1_555
H4B C4B 1_555 1_555
H5A C4A 1_555 1_555
H5B C4B 1_555 1_555
C5A S1A 1_555 1_555
C5B S1B 1_555 1_555
C6A N4A 1_555 1_555
C6B N4B 1_555 1_555
C7A C6A 1_555 1_555
C7B C6B 1_555 1_555
H6A C7A 1_555 1_555
H6B C7B 1_555 1_555
C8A C7A 1_555 1_555
C8B C7B 1_555 1_555
H7A C8A 1_555 1_555
H7B C8B 1_555 1_555
C9A C8A 1_555 1_555
C9B C8B 1_555 1_555
H8A C9A 1_555 1_555
H8B C9B 1_555 1_555
C10A C9A 1_555 1_555
C10B C9B 1_555 1_555
H9A C10A 1_555 1_555
H9B C10B 1_555 1_555
C11A C6A 1_555 1_555
C11B C6B 1_555 1_555
H10A C11A 1_555 1_555
H10B C11B 1_555 1_555
H11A C13A 1_555 1_555
H11B C13B 1_555 1_555
H12A C12A 1_555 1_555
H12B C12B 1_555 1_555
C12A C13A 1_555 1_555
C12B C13A 1_555 1_555
C13B C12 1_555 1_555
N1 C5 1_555 1_555
C10 C11 1_555 1_555
N1A C5A 1_555 1_555
N1B C5B 1_555 1_555
C1B C2B 1_555 1_555
C2A C3A 1_555 1_555
C2B C3B 1_555 1_555
C10A C11A 1_555 1_555
C10B C11B 1_555 1_555
C12B C13B 1_555 1_555

#END
