
#######################################################################
#
#                 Cambridge Crystallographic Data Centre
#                                CCDC 
#
#######################################################################
#
# If this CIF has been generated from an entry in the Cambridge 
# Structural Database, then it will include bibliographic, chemical, 
# crystal, experimental, refinement or atomic coordinate data resulting 
# from the CCDC's data processing and validation procedures.
#
#######################################################################

data_ONECOA
_chemical_formula_moiety         'C33 H30 N12 S3,0.5(I2)'
_chemical_name_systematic        
'syn-2,4,6-tris(((1-Phenyl-1H-tetrazol-5-yl)sulfanyl)methyl)-1,3,5-trimethylbenzene hemikis(diiodine) clathrate'
_symmetry_cell_setting           triclinic
_symmetry_space_group_name_H-M   'P -1'
_symmetry_Int_Tables_number      2
_space_group_name_Hall           '-P 1'
loop_
_symmetry_equiv_pos_site_id
_symmetry_equiv_pos_as_xyz
1 x,y,z
2 -x,-y,-z
_cell_length_a                   13.2137(6)
_cell_length_b                   13.3168(6)
_cell_length_c                   22.191(1)
_cell_angle_alpha                92.285(2)
_cell_angle_beta                 93.507(2)
_cell_angle_gamma                108.605(1)
_cell_volume                     3686.54
_exptl_crystal_colour            red
_exptl_crystal_description       prism
_cell_formula_units_Z            4
loop_
_atom_site_label
_atom_site_type_symbol
_atom_site_fract_x
_atom_site_fract_y
_atom_site_fract_z
I1 I 0.5178(5) 0.9340(5) -0.0177(4)
I1A I 0.4822(5) 1.0660(5) 0.0177(4)
I2 I 1.006(2) 0.5817(12) 0.4968(12)
I2A I 0.994(2) 0.4183(12) 0.5032(12)
S1 S 0.52913(18) 0.72500(15) -0.14539(7)
S2 S 0.71865(16) 0.85957(14) 0.11080(8)
S3 S 0.24743(14) 0.70632(15) 0.05676(10)
N1 N 0.5314(5) 0.5917(6) -0.2435(3)
N2 N 0.5405(8) 0.6050(9) -0.3034(3)
N3 N 0.5434(9) 0.7001(9) -0.3170(3)
N4 N 0.5379(6) 0.7531(6) -0.2646(3)
N5 N 0.8587(6) 0.8284(5) 0.1987(3)
N6 N 0.9387(7) 0.8938(6) 0.2387(4)
N7 N 0.9497(7) 0.9916(6) 0.2309(4)
N8 N 0.8783(5) 0.9938(5) 0.1860(3)
N9 N 0.0539(5) 0.5548(5) 0.0725(3)
N10 N -0.0466(5) 0.5562(8) 0.0795(4)
N11 N -0.0511(5) 0.6527(8) 0.0807(4)
N12 N 0.0515(5) 0.7183(6) 0.0732(3)
C1 C 0.3169(5) 0.5606(5) -0.0706(3)
H1 H 0.3325 0.6003 -0.1060
H2 H 0.2548 0.5701 -0.0542
H3 H 0.3034 0.4867 -0.0813
C2 C 0.4112(4) 0.5996(4) -0.0241(2)
C3 C 0.5149(5) 0.6223(4) -0.0427(2)
C4 C 0.5305(5) 0.6042(5) -0.1090(2)
H4 H 0.4731 0.5432 -0.1272
H5 H 0.5982 0.5917 -0.1133
C5 C 0.5332(6) 0.6861(7) -0.2204(3)
C6 C 0.5366(8) 0.8628(8) -0.2607(4)
C7 C 0.639(2) 0.933(2) -0.2539(11)
H6 H 0.7016 0.9161 -0.2498
C8 C 0.630(2) 1.050(2) -0.2544(11)
H7 H 0.6902 1.1085 -0.2581
C9 C 0.5280(17) 1.0614(16) -0.2491(8)
H8 H 0.5234 1.1227 -0.2294
C10 C 0.4440(13) 0.9914(13) -0.2701(6)
H9 H 0.3825 1.0058 -0.2839
C11 C 0.4525(12) 0.8839(12) -0.2708(6)
H10 H 0.3897 0.8271 -0.2794
C12 C 0.7157(5) 0.6895(6) -0.0203(3)
H11 H 0.7379 0.6275 -0.0208
H12 H 0.7633 0.7434 0.0075
H13 H 0.7176 0.7154 -0.0601
C13 C 0.6039(5) 0.6616(4) -0.0009(3)
C14 C 0.5870(5) 0.6745(4) 0.0611(2)
C15 C 0.6810(5) 0.7160(5) 0.1064(3)
H14 H 0.7402 0.6939 0.0939
H15 H 0.6625 0.6890 0.1455
C16 C 0.8206(6) 0.8933(6) 0.1671(3)
C17 C 0.8763(7) 1.0923(6) 0.1613(4)
C18 C 0.9696(7) 1.1689(7) 0.1517(4)
H16 H 1.0352 1.1595 0.1619
C19 C 0.9652(9) 1.2612(7) 0.1264(5)
H17 H 1.0286 1.3132 0.1190
C20 C 0.8730(9) 1.2767(8) 0.1127(4)
H18 H 0.8716 1.3385 0.0950
C21 C 0.7785(9) 1.2008(8) 0.1247(5)
H19 H 0.7136 1.2122 0.1157
C22 C 0.7797(7) 1.1076(7) 0.1503(4)
H20 H 0.7166 1.0571 0.1595
C23 C 0.4677(6) 0.6710(6) 0.1452(3)
H21 H 0.4786 0.6148 0.1677
H22 H 0.3961 0.6723 0.1487
H23 H 0.5180 0.7376 0.1609
C24 C 0.4842(5) 0.6525(5) 0.0798(2)
C25 C 0.3952(4) 0.6124(4) 0.0364(2)
C26 C 0.2822(5) 0.5849(5) 0.0564(3)
H24 H 0.2791 0.5581 0.0965
H25 H 0.2327 0.5309 0.0285
C27 C 0.1130(6) 0.6549(6) 0.0680(3)
C28 C 0.0881(8) 0.8313(9) 0.0794(5)
C29 C 0.1018(11) 0.8827(12) 0.1330(7)
H26 H 0.0892 0.8410 0.1661
C30 C 0.1338(14) 0.9953(15) 0.1460(9)
H27 H 0.1265 1.0310 0.1815
C31 C 0.1768(16) 1.0382(15) 0.0955(10)
H28 H 0.2440 1.0898 0.0992
C32 C 0.1246(19) 1.008(2) 0.0384(12)
H29 H 0.1128 1.0540 0.0102
C33 C 0.087(2) 0.878(3) 0.0293(15)
H30 H 0.0664 0.8408 -0.0082
S4 S 1.28820(15) 0.81960(16) 0.54618(11)
S5 S 0.8773(2) 0.65322(17) 0.66682(9)
S6 S 0.85739(18) 0.72474(16) 0.39855(9)
N13 N 1.4770(5) 0.9797(6) 0.5775(3)
N14 N 1.5836(5) 0.9923(6) 0.5710(3)
N15 N 1.5952(5) 0.9121(7) 0.5447(3)
N16 N 1.4962(5) 0.8386(6) 0.5320(3)
N17 N 0.8025(5) 0.7089(6) 0.7710(3)
N18 N 0.7661(6) 0.6545(10) 0.8220(3)
N19 N 0.7639(6) 0.5575(9) 0.8164(4)
N20 N 0.7988(5) 0.5453(7) 0.7630(3)
N21 N 0.7244(5) 0.8162(5) 0.3378(3)
N22 N 0.6545(6) 0.7851(7) 0.2871(3)
N23 N 0.6526(6) 0.6948(6) 0.2634(3)
N24 N 0.7217(5) 0.6611(5) 0.2987(2)
C34 C 1.1198(6) 0.9135(6) 0.4428(3)
H31 H 1.1517 0.9891 0.4426
H32 H 1.0687 0.8883 0.4085
H33 H 1.1745 0.8806 0.4409
C35 C 1.0640(5) 0.8861(5) 0.5002(3)
C36 C 1.1208(5) 0.8911(5) 0.5552(3)
C37 C 1.2429(5) 0.9307(5) 0.5590(3)
H34 H 1.2710 0.9653 0.5985
H35 H 1.2679 0.9816 0.5287
C38 C 1.4254(6) 0.8841(6) 0.5525(3)
C39 C 1.4760(6) 0.7419(7) 0.4985(3)
C40 C 1.4943(8) 0.6445(11) 0.4102(4)
H36 H 1.5254 0.6420 0.3739
C41 C 1.4305(10) 0.5525(10) 0.4311(5)
H37 H 1.4134 0.4895 0.4072
C42 C 1.3911(9) 0.5518(8) 0.4874(5)
H38 H 1.3492 0.4888 0.5022
C43 C 1.4160(8) 0.6492(7) 0.5219(4)
H39 H 1.3920 0.6508 0.5604
C44 C 1.5136(7) 0.7402(8) 0.4413(4)
H40 H 1.5512 0.8029 0.4246
C45 C 1.1341(6) 0.8645(7) 0.6670(3)
H41 H 1.1926 0.8386 0.6597
H42 H 1.0896 0.8211 0.6949
H43 H 1.1618 0.9365 0.6837
C46 C 1.0689(5) 0.8603(5) 0.6082(3)
C47 C 0.9577(5) 0.8251(5) 0.6046(3)
C48 C 0.9011(6) 0.7944(6) 0.6617(3)
H44 H 0.8339 0.8094 0.6597
H45 H 0.9455 0.8338 0.6968
C49 C 0.8232(6) 0.6361(7) 0.7364(3)
C50 C 0.8098(9) 0.4515(10) 0.7434(5)
C51 C 0.8938(12) 0.4181(12) 0.7695(7)
H46 H 0.9378 0.4593 0.8018
C52 C 0.9127(16) 0.3268(16) 0.7489(9)
H47 H 0.9659 0.3031 0.7666
C53 C 0.8466(18) 0.2749(16) 0.7003(9)
H48 H 0.8712 0.2277 0.6782
C54 C 0.747(2) 0.281(2) 0.6780(11)
H49 H 0.6962 0.2290 0.6527
C55 C 0.7329(18) 0.3897(18) 0.7024(10)
H50 H 0.6745 0.4098 0.6890
C56 C 0.7753(5) 0.7738(7) 0.5455(4)
H51 H 0.7523 0.7119 0.5684
H52 H 0.7492 0.7552 0.5038
H53 H 0.7476 0.8270 0.5612
C57 C 0.8975(5) 0.8169(5) 0.5501(3)
C58 C 0.8884(6) 0.8534(5) 0.4391(3)
H54 H 0.9299 0.9088 0.4150
H55 H 0.8227 0.8676 0.4471
C59 C 0.9511(5) 0.8524(5) 0.4975(3)
C60 C 0.7636(6) 0.7360(6) 0.3434(3)
C61 C 0.7452(6) 0.5681(6) 0.2851(3)
C62 C 0.7287(8) 0.4910(7) 0.3277(4)
H56 H 0.7002 0.5002 0.3640
C63 C 0.7556(10) 0.4010(8) 0.3147(5)
H57 H 0.7439 0.3482 0.3421
C64 C 0.7993(9) 0.3893(7) 0.2617(4)
H58 H 0.8178 0.3285 0.2537
C65 C 0.8165(7) 0.4647(7) 0.2203(4)
H59 H 0.8466 0.4555 0.1845
C66 C 0.7891(6) 0.5543(7) 0.2318(3)
H60 H 0.8002 0.6059 0.2036
I3? I 0.9109(15) 0.430(3) 0.5007(17)
I4? I 0.9683(16) 0.536(2) 0.5433(8)
loop_
_geom_bond_atom_site_label_1
_geom_bond_atom_site_label_2
_geom_bond_site_symmetry_1
_geom_bond_site_symmetry_2
I1 I1A 1_555 1_555
I2 I2A 1_555 1_555
S1 C4 1_555 1_555
S2 C15 1_555 1_555
S3 C26 1_555 1_555
S4 C37 1_555 1_555
S5 C48 1_555 1_555
S6 C58 1_555 1_555
N1 N2 1_555 1_555
N2 N3 1_555 1_555
N3 N4 1_555 1_555
N4 C5 1_555 1_555
N5 N6 1_555 1_555
N6 N7 1_555 1_555
N7 N8 1_555 1_555
N8 C16 1_555 1_555
N9 N10 1_555 1_555
N10 N11 1_555 1_555
N11 N12 1_555 1_555
N12 C27 1_555 1_555
N13 N14 1_555 1_555
N14 N15 1_555 1_555
N15 N16 1_555 1_555
N16 C38 1_555 1_555
N17 N18 1_555 1_555
N18 N19 1_555 1_555
N19 N20 1_555 1_555
N20 C49 1_555 1_555
N21 N22 1_555 1_555
N22 N23 1_555 1_555
N23 N24 1_555 1_555
N24 C60 1_555 1_555
C1 H1 1_555 1_555
H2 C1 1_555 1_555
H3 C1 1_555 1_555
C2 C1 1_555 1_555
C3 C2 1_555 1_555
C4 C3 1_555 1_555
H4 C4 1_555 1_555
H5 C4 1_555 1_555
C5 S1 1_555 1_555
C6 N4 1_555 1_555
C7 C6 1_555 1_555
H6 C7 1_555 1_555
C8 C7 1_555 1_555
H7 C8 1_555 1_555
C9 C8 1_555 1_555
H8 C9 1_555 1_555
C10 C9 1_555 1_555
H9 C10 1_555 1_555
C11 C6 1_555 1_555
H10 C11 1_555 1_555
C12 H11 1_555 1_555
H12 C12 1_555 1_555
H13 C12 1_555 1_555
C13 C3 1_555 1_555
C14 C13 1_555 1_555
C15 C14 1_555 1_555
H14 C15 1_555 1_555
H15 C15 1_555 1_555
C16 S2 1_555 1_555
C17 N8 1_555 1_555
C18 C17 1_555 1_555
H16 C18 1_555 1_555
C19 C18 1_555 1_555
H17 C19 1_555 1_555
C20 C19 1_555 1_555
H18 C20 1_555 1_555
C21 C20 1_555 1_555
H19 C21 1_555 1_555
C22 C17 1_555 1_555
H20 C22 1_555 1_555
C23 H21 1_555 1_555
H22 C23 1_555 1_555
H23 C23 1_555 1_555
C24 C14 1_555 1_555
C25 C2 1_555 1_555
C26 C25 1_555 1_555
H24 C26 1_555 1_555
H25 C26 1_555 1_555
C27 S3 1_555 1_555
C28 N12 1_555 1_555
C29 C28 1_555 1_555
H26 C29 1_555 1_555
C30 C29 1_555 1_555
H27 C30 1_555 1_555
C31 C30 1_555 1_555
H28 C31 1_555 1_555
C32 C31 1_555 1_555
H29 C32 1_555 1_555
C33 C28 1_555 1_555
H30 C33 1_555 1_555
C34 H31 1_555 1_555
H32 C34 1_555 1_555
H33 C34 1_555 1_555
C35 C34 1_555 1_555
C36 C35 1_555 1_555
C37 C36 1_555 1_555
H34 C37 1_555 1_555
H35 C37 1_555 1_555
C38 S4 1_555 1_555
C39 N16 1_555 1_555
C40 H36 1_555 1_555
C41 C40 1_555 1_555
H37 C41 1_555 1_555
C42 C41 1_555 1_555
H38 C42 1_555 1_555
C43 C39 1_555 1_555
H39 C43 1_555 1_555
C44 C39 1_555 1_555
H40 C44 1_555 1_555
C45 H41 1_555 1_555
H42 C45 1_555 1_555
H43 C45 1_555 1_555
C46 C36 1_555 1_555
C47 C46 1_555 1_555
C48 C47 1_555 1_555
H44 C48 1_555 1_555
H45 C48 1_555 1_555
C49 S5 1_555 1_555
C50 N20 1_555 1_555
C51 C50 1_555 1_555
H46 C51 1_555 1_555
C52 C51 1_555 1_555
H47 C52 1_555 1_555
C53 C52 1_555 1_555
H48 C53 1_555 1_555
C54 C53 1_555 1_555
H49 C54 1_555 1_555
C55 C50 1_555 1_555
H50 C55 1_555 1_555
C56 H51 1_555 1_555
H52 C56 1_555 1_555
H53 C56 1_555 1_555
C57 C47 1_555 1_555
C58 H54 1_555 1_555
H55 C58 1_555 1_555
C59 C35 1_555 1_555
C60 S6 1_555 1_555
C61 N24 1_555 1_555
C62 C61 1_555 1_555
H56 C62 1_555 1_555
C63 C62 1_555 1_555
H57 C63 1_555 1_555
C64 C63 1_555 1_555
H58 C64 1_555 1_555
C65 C64 1_555 1_555
H59 C65 1_555 1_555
C66 C61 1_555 1_555
H60 C66 1_555 1_555
N1 C5 1_555 1_555
N5 C16 1_555 1_555
N9 C27 1_555 1_555
N13 C38 1_555 1_555
N17 C49 1_555 1_555
N21 C60 1_555 1_555
C10 C11 1_555 1_555
C12 C13 1_555 1_555
C21 C22 1_555 1_555
C23 C24 1_555 1_555
C24 C25 1_555 1_555
C32 C33 1_555 1_555
C40 C44 1_555 1_555
C42 C43 1_555 1_555
C45 C46 1_555 1_555
C54 C55 1_555 1_555
C56 C57 1_555 1_555
C57 C59 1_555 1_555
C58 C59 1_555 1_555
C65 C66 1_555 1_555

#END
