
#######################################################################
#
#                 Cambridge Crystallographic Data Centre
#                                CCDC 
#
#######################################################################
#
# If this CIF has been generated from an entry in the Cambridge 
# Structural Database, then it will include bibliographic, chemical, 
# crystal, experimental, refinement or atomic coordinate data resulting 
# from the CCDC's data processing and validation procedures.
#
#######################################################################

data_ONEDIV
_chemical_formula_moiety         'C33 H30 N12 S3,C6 H5 Br1'
_chemical_name_systematic        
'syn-2,4,6-tris(((1-Phenyl-1H-tetrazol-5-yl)sulfanyl)methyl)-1,3,5-trimethylbenzene bromobenzene clathrate'
_symmetry_cell_setting           trigonal
_symmetry_space_group_name_H-M   'P -3 c 1'
_symmetry_Int_Tables_number      165
_space_group_name_Hall           '-P 3 2"c'
loop_
_symmetry_equiv_pos_site_id
_symmetry_equiv_pos_as_xyz
1 x,y,z
2 -y,x-y,z
3 -x+y,-x,z
4 x-y,-y,1/2-z
5 -x,-x+y,1/2-z
6 y,x,1/2-z
7 -x,-y,-z
8 y,-x+y,-z
9 x-y,x,-z
10 -x+y,y,1/2+z
11 x,x-y,1/2+z
12 -y,-x,1/2+z
_cell_length_a                   13.0859(2)
_cell_length_b                   13.0859(2)
_cell_length_c                   27.2294(9)
_cell_angle_alpha                90
_cell_angle_beta                 90
_cell_angle_gamma                120
_cell_volume                     4038.09
_exptl_crystal_colour            colorless
_exptl_crystal_description       prism
_cell_formula_units_Z            4
loop_
_atom_site_label
_atom_site_type_symbol
_atom_site_fract_x
_atom_site_fract_y
_atom_site_fract_z
S1 S 0.38989(9) 0.96345(7) 0.36779(3)
N1 N 0.4320(5) 1.1537(4) 0.31127(14)
C1 C 0.5771(3) 0.8601(4) 0.30915(15)
H1 H 0.6259 0.8373 0.3269
H2 H 0.5812 0.9282 0.3244
H3 H 0.6044 0.8787 0.2759
N2 N 0.4539(7) 1.2652(4) 0.32040(18)
C2 C 0.4514(3) 0.7600(3) 0.30954(10)
N3 N 0.4584(6) 1.2868(4) 0.36604(17)
C3 C 0.3571(3) 0.7834(3) 0.30883(10)
N4 N 0.4372(4) 1.1858(3) 0.38949(12)
C4 C 0.3844(3) 0.9091(3) 0.30534(11)
H4 H 0.3239 0.9134 0.2865
H5 H 0.4597 0.9568 0.2891
C5 C 0.4218(4) 1.1057(3) 0.35442(13)
C6 C 0.4320(4) 1.1764(3) 0.44133(14)
C7 C 0.5059(4) 1.1471(4) 0.46585(16)
H6 H 0.5584 1.1325 0.4484
C8 C 0.5018(5) 1.1397(5) 0.51587(19)
H7 H 0.5506 1.1185 0.5324
C9 C 0.4259(6) 1.1634(5) 0.54208(18)
H8 H 0.4243 1.1590 0.5762
C10 C 0.3541(7) 1.1929(6) 0.5183(2)
H9 H 0.3039 1.2097 0.5363
C11 C 0.3539(5) 1.1985(5) 0.4671(2)
H10 H 0.3026 1.2167 0.4507
S1A S 0.03655(7) 0.42644(11) 0.36779(3)
S1B S 0.57356(11) 0.61011(9) 0.36779(3)
N1A N -0.1537(4) 0.2783(6) 0.31127(14)
N1B N 0.7217(6) 0.5680(5) 0.31127(14)
C1B C 0.2830(5) 0.4229(3) 0.30915(15)
C1A C 0.1399(4) 0.7170(5) 0.30915(15)
H1B H 0.2114 0.3741 0.3269
H1A H 0.1627 0.7886 0.3269
H2B H 0.3470 0.4188 0.3244
H2A H 0.0718 0.6530 0.3244
H3B H 0.2743 0.3956 0.2759
H3A H 0.1213 0.7257 0.2759
N2A N -0.2652(4) 0.1887(8) 0.32040(18)
N2B N 0.8113(8) 0.5461(7) 0.32040(18)
C2B C 0.3086(4) 0.5486(3) 0.30954(10)
C2A C 0.2400(3) 0.6914(4) 0.30954(10)
N3A N -0.2868(4) 0.1716(7) 0.36604(17)
N3B N 0.8284(7) 0.5416(6) 0.36604(17)
C3B C 0.4263(4) 0.6429(3) 0.30883(10)
C3A C 0.2166(3) 0.5737(4) 0.30883(10)
N4A N -0.1858(3) 0.2514(5) 0.38949(12)
N4B N 0.7486(5) 0.5628(4) 0.38949(12)
C4A C 0.0909(3) 0.4753(4) 0.30534(11)
C4B C 0.5247(4) 0.6156(3) 0.30534(11)
H4A H 0.0866 0.4105 0.2865
H4B H 0.5895 0.6761 0.2865
H5A H 0.0432 0.5029 0.2891
H5B H 0.4971 0.5403 0.2891
C5A C -0.1057(3) 0.3161(5) 0.35442(13)
C5B C 0.6839(5) 0.5782(4) 0.35442(13)
C6A C -0.1764(3) 0.2556(5) 0.44133(14)
C6B C 0.7444(5) 0.5680(4) 0.44133(14)
C7A C -0.1471(4) 0.3588(6) 0.46585(16)
C7B C 0.6412(6) 0.4941(4) 0.46585(16)
H6A H -0.1325 0.4259 0.4484
H6B H 0.5741 0.4416 0.4484
C8A C -0.1397(5) 0.3621(7) 0.51587(19)
C8B C 0.6379(7) 0.4982(5) 0.51587(19)
H7A H -0.1185 0.4321 0.5324
H7B H 0.5679 0.4494 0.5324
C9A C -0.1634(5) 0.2625(8) 0.54208(18)
C9B C 0.7375(8) 0.5741(6) 0.54208(18)
H8A H -0.1590 0.2653 0.5762
H8B H 0.7347 0.5757 0.5762
C10A C -0.1929(6) 0.1612(9) 0.5183(2)
C10B C 0.8388(9) 0.6459(7) 0.5183(2)
H9A H -0.2097 0.0942 0.5363
H9B H 0.9058 0.6961 0.5363
C11A C -0.1985(5) 0.1554(7) 0.4671(2)
C11B C 0.8446(7) 0.6461(5) 0.4671(2)
H10A H -0.2167 0.0859 0.4507
H10B H 0.9141 0.6974 0.4507
Br1 Br 0.0000 1.0000 0.4318(2)
C12 C 0.0000 1.0000 0.3556(9)
C13 C -0.0639(16) 0.8836(15) 0.3353(7)
C14 C -0.126(3) 0.861(3) 0.2910(9)
C15 C -0.144(3) 0.949(3) 0.2723(12)
C16 C -0.053(2) 0.843(2) 0.2982(10)
Br1C Br 0.0000 1.0000 0.0682(2)
C12C C 0.0000 1.0000 0.1444(9)
C13C C 0.0525(22) 1.1164(15) 0.1647(7)
C13D C 0.0639(16) 0.9475(22) 0.1647(7)
C13B C -0.0525(22) 1.0639(16) 0.3353(7)
C13A C 0.1164(15) 1.0525(22) 0.3353(7)
C13E C -0.1164(15) 0.9361(16) 0.1647(7)
C14C C 0.013(4) 1.139(3) 0.2090(9)
C14D C 0.126(3) 0.987(4) 0.2090(9)
C14B C -0.013(4) 1.126(3) 0.2910(9)
C14A C 0.139(3) 1.013(4) 0.2910(9)
C14E C -0.139(3) 0.874(3) 0.2090(9)
C15C C -0.093(4) 1.051(3) 0.2277(12)
C15D C 0.144(3) 1.093(4) 0.2277(12)
C15B C 0.093(4) 1.144(3) 0.2723(12)
C15A C 0.051(3) 0.907(4) 0.2723(12)
C15E C -0.051(3) 0.856(3) 0.2277(12)
C16E C -0.157(2) 0.947(2) 0.2018(10)
C16D C 0.053(2) 0.896(3) 0.2018(10)
C16A C 0.157(2) 1.104(3) 0.2982(10)
C16B C -0.104(3) 1.053(2) 0.2982(10)
C16C C 0.104(3) 1.157(2) 0.2018(10)
loop_
_geom_bond_atom_site_label_1
_geom_bond_atom_site_label_2
_geom_bond_site_symmetry_1
_geom_bond_site_symmetry_2
Br1 C12 1_555 1_555
S1 C4 1_555 1_555
N1 N2 1_555 1_555
C1 H1 1_555 1_555
H2 C1 1_555 1_555
H3 C1 1_555 1_555
N2 N3 1_555 1_555
C2 C1 1_555 1_555
N3 N4 1_555 1_555
C3 C2 1_555 1_555
N4 C5 1_555 1_555
C4 C3 1_555 1_555
H4 C4 1_555 1_555
H5 C4 1_555 1_555
C5 S1 1_555 1_555
C6 N4 1_555 1_555
C7 C6 1_555 1_555
H6 C7 1_555 1_555
C8 C7 1_555 1_555
H7 C8 1_555 1_555
C9 C8 1_555 1_555
H8 C9 1_555 1_555
C10 C9 1_555 1_555
H9 C10 1_555 1_555
C11 C6 1_555 1_555
H10 C11 1_555 1_555
C12 C13 1_555 1_555
C13 C14 1_555 1_555
C14 C15 1_555 1_555
C15 C15C 1_555 1_555
C16 C13 1_555 1_555
Br1C C12C 1_555 1_555
S1A C4A 1_555 1_555
S1B C4B 1_555 1_555
N1A N2A 1_555 1_555
N1B N2B 1_555 1_555
C1B H1B 1_555 1_555
C1A H1A 1_555 1_555
H2B C1B 1_555 1_555
H2A C1A 1_555 1_555
H3B C1B 1_555 1_555
H3A C1A 1_555 1_555
N2A N3A 1_555 1_555
N2B N3B 1_555 1_555
C2B C1B 1_555 1_555
C2A C3 1_555 1_555
N3A N4A 1_555 1_555
N3B N4B 1_555 1_555
C3B C2 1_555 1_555
C3A C2B 1_555 1_555
N4A C5A 1_555 1_555
N4B C5B 1_555 1_555
C4A C3A 1_555 1_555
C4B C3B 1_555 1_555
H4A C4A 1_555 1_555
H4B C4B 1_555 1_555
H5A C4A 1_555 1_555
H5B C4B 1_555 1_555
C5A S1A 1_555 1_555
C5B S1B 1_555 1_555
C6A N4A 1_555 1_555
C6B N4B 1_555 1_555
C7A C6A 1_555 1_555
C7B C6B 1_555 1_555
H6A C7A 1_555 1_555
H6B C7B 1_555 1_555
C8A C7A 1_555 1_555
C8B C7B 1_555 1_555
H7A C8A 1_555 1_555
H7B C8B 1_555 1_555
C9A C8A 1_555 1_555
C9B C8B 1_555 1_555
H8A C9A 1_555 1_555
H8B C9B 1_555 1_555
C10A C9A 1_555 1_555
C10B C9B 1_555 1_555
H9A C10A 1_555 1_555
H9B C10B 1_555 1_555
C11A C6A 1_555 1_555
C11B C6B 1_555 1_555
H10A C11A 1_555 1_555
H10B C11B 1_555 1_555
C12C C13C 1_555 1_555
C13C C14C 1_555 1_555
C13D C12C 1_555 1_555
C13B C12 1_555 1_555
C13A C12 1_555 1_555
C13E C12C 1_555 1_555
C14C C15C 1_555 1_555
C14D C13D 1_555 1_555
C14B C13B 1_555 1_555
C14A C13A 1_555 1_555
C14E C13E 1_555 1_555
C15C C16E 1_555 1_555
C15D C14D 1_555 1_555
C15B C14B 1_555 1_555
C15A C16 1_555 1_555
C15E C14E 1_555 1_555
C16E C13E 1_555 1_555
C16D C13D 1_555 1_555
C16A C13A 1_555 1_555
C16B C15 1_555 1_555
C16C C13C 1_555 1_555
N1 C5 1_555 1_555
C10 C11 1_555 1_555
C14 C16 1_555 1_555
N1A C5A 1_555 1_555
N1B C5B 1_555 1_555
C1A C2A 1_555 1_555
C2B C3B 1_555 1_555
C2A C3A 1_555 1_555
C10A C11A 1_555 1_555
C10B C11B 1_555 1_555
C13B C16B 1_555 1_555
C14C C16C 1_555 1_555
C14D C16D 1_555 1_555
C14B C16B 1_555 1_555
C14A C15A 1_555 1_555
C14A C16A 1_555 1_555
C14E C16E 1_555 1_555
C15D C15B 1_555 1_555
C15D C16C 1_555 1_555
C15B C16A 1_555 1_555
C15A C15E 1_555 1_555
C15E C16D 1_555 1_555

#END
