
#######################################################################
#
#                 Cambridge Crystallographic Data Centre
#                                CCDC 
#
#######################################################################
#
# If this CIF has been generated from an entry in the Cambridge 
# Structural Database, then it will include bibliographic, chemical, 
# crystal, experimental, refinement or atomic coordinate data resulting 
# from the CCDC's data processing and validation procedures.
#
#######################################################################

data_ONEDER
_chemical_formula_moiety         'C33 H30 N12 S3,C6 H5 Cl1'
_chemical_name_systematic        
'syn-2,4,6-tris(((1-Phenyl-1H-tetrazol-5-yl)sulfanyl)methyl)-1,3,5-trimethylbenzene chlorobenzene clathrate'
_symmetry_cell_setting           trigonal
_symmetry_space_group_name_H-M   'P -3 c 1'
_symmetry_Int_Tables_number      165
_space_group_name_Hall           '-P 3 2"c'
loop_
_symmetry_equiv_pos_site_id
_symmetry_equiv_pos_as_xyz
1 x,y,z
2 -y,x-y,z
3 -x+y,-x,z
4 x-y,-y,1/2-z
5 -x,-x+y,1/2-z
6 y,x,1/2-z
7 -x,-y,-z
8 y,-x+y,-z
9 x-y,x,-z
10 -x+y,y,1/2+z
11 x,x-y,1/2+z
12 -y,-x,1/2+z
_cell_length_a                   13.0884(2)
_cell_length_b                   13.0884(2)
_cell_length_c                   27.2076(9)
_cell_angle_alpha                90
_cell_angle_beta                 90
_cell_angle_gamma                120
_cell_volume                     4036.4
_exptl_crystal_colour            colorless
_exptl_crystal_description       prism
_cell_formula_units_Z            4
loop_
_atom_site_label
_atom_site_type_symbol
_atom_site_fract_x
_atom_site_fract_y
_atom_site_fract_z
S1 S 0.96331(7) 0.39033(9) 0.13232(3)
N1 N 1.1531(3) 0.4317(4) 0.18914(12)
N2 N 1.2643(3) 0.4523(5) 0.17989(15)
N3 N 1.2852(3) 0.4555(5) 0.13330(14)
N4 N 1.1835(3) 0.4348(3) 0.11050(11)
C1 C 0.8594(3) 0.5772(3) 0.19102(13)
H1 H 0.8343 0.6263 0.1751
H2 H 0.9260 0.5826 0.1738
H3 H 0.8813 0.6030 0.2243
C2 C 0.7597(2) 0.4508(2) 0.19070(9)
C3 C 0.7831(2) 0.3578(3) 0.19133(9)
C4 C 0.9092(3) 0.3842(3) 0.19470(11)
H4 H 0.9130 0.3231 0.2134
H5 H 0.9574 0.4591 0.2112
C5 C 1.1050(3) 0.4214(4) 0.14524(12)
C6 C 1.1754(3) 0.4314(3) 0.05831(13)
C7 C 1.1459(3) 0.5050(4) 0.03432(14)
H6 H 1.1295 0.5561 0.0518
C8 C 1.1410(4) 0.5017(4) -0.01607(16)
H7 H 1.1212 0.5515 -0.0326
C9 C 1.1642(4) 0.4284(5) -0.04207(17)
H8 H 1.1616 0.4286 -0.0762
C10 C 1.1920(5) 0.3526(6) -0.01767(19)
H9 H 1.2076 0.3015 -0.0356
C11 C 1.1969(4) 0.3523(4) 0.03279(16)
H10 H 1.2141 0.3005 0.0493
S1B S 0.42702(11) 0.03669(7) 0.13232(3)
S1A S 0.60967(9) 0.57298(11) 0.13232(3)
N1B N 0.2786(5) -0.1531(3) 0.18914(12)
N1A N 0.5683(4) 0.7214(5) 0.18914(12)
N2B N 0.1880(6) -0.2643(3) 0.17989(15)
N2A N 0.5477(5) 0.8120(6) 0.17989(15)
N3B N 0.1703(6) -0.2852(3) 0.13330(14)
N3A N 0.5445(5) 0.8297(6) 0.13330(14)
N4B N 0.2513(4) -0.1835(3) 0.11050(11)
N4A N 0.5652(3) 0.7487(4) 0.11050(11)
C1A C 0.4228(3) 0.2822(4) 0.19102(13)
C1B C 0.7178(4) 0.1406(3) 0.19102(13)
H1A H 0.3737 0.2080 0.1751
H1B H 0.7920 0.1657 0.1751
H2A H 0.4174 0.3434 0.1738
H2B H 0.6566 0.0740 0.1738
H3A H 0.3970 0.2783 0.2243
H3B H 0.7217 0.1187 0.2243
C2A C 0.5492(2) 0.3089(3) 0.19070(9)
C2B C 0.6911(3) 0.2403(2) 0.19070(9)
C3A C 0.6422(3) 0.4253(4) 0.19133(9)
C3B C 0.5747(4) 0.2169(2) 0.19133(9)
C4B C 0.4750(4) 0.0908(3) 0.19470(11)
C4A C 0.6158(3) 0.5250(4) 0.19470(11)
H4B H 0.4101 0.0870 0.2134
H4A H 0.6769 0.5899 0.2134
H5B H 0.5017 0.0426 0.2112
H5A H 0.5409 0.4983 0.2112
C5B C 0.3164(5) -0.1050(3) 0.14524(12)
C5A C 0.5786(4) 0.6836(5) 0.14524(12)
C6B C 0.2560(4) -0.1754(3) 0.05831(13)
C6A C 0.5686(3) 0.7440(4) 0.05831(13)
C7B C 0.3591(5) -0.1459(3) 0.03432(14)
C7A C 0.4950(4) 0.6409(5) 0.03432(14)
H6B H 0.4266 -0.1295 0.0518
H6A H 0.4439 0.5734 0.0518
C8B C 0.3607(6) -0.1410(4) -0.01607(16)
C8A C 0.4983(4) 0.6393(6) -0.01607(16)
H7B H 0.4303 -0.1212 -0.0326
H7A H 0.4485 0.5697 -0.0326
C9B C 0.2642(6) -0.1642(4) -0.04207(17)
C9A C 0.5716(5) 0.7358(6) -0.04207(17)
H8B H 0.2670 -0.1616 -0.0762
H8A H 0.5714 0.7330 -0.0762
C10B C 0.1606(8) -0.1920(5) -0.01767(19)
C10A C 0.6474(6) 0.8394(8) -0.01767(19)
H9B H 0.0939 -0.2076 -0.0356
H9A H 0.6985 0.9061 -0.0356
C11B C 0.1554(6) -0.1969(4) 0.03279(16)
C11A C 0.6477(4) 0.8446(6) 0.03279(16)
H10B H 0.0864 -0.2141 0.0493
H10A H 0.6995 0.9136 0.0493
Cl1 Cl 1.0000 0.0000 0.0752(7)
C12 C 1.0000 0.0000 0.1387(11)
C13 C 1.0600(19) -0.0569(19) 0.1539(8)
C14 C 1.0791(19) -0.0681(19) 0.1997(8)
C15 C 0.934(3) -0.139(3) 0.2235(10)
C13B C 0.8831(27) -0.0600(19) 0.1539(8)
C13A C 1.0569(19) 0.1169(27) 0.1539(8)
C14B C 0.8528(27) -0.0791(19) 0.1997(8)
C14A C 1.0681(19) 0.1472(27) 0.1997(8)
C15A C 1.139(3) 0.073(4) 0.2235(10)
C15B C 0.927(4) 0.066(3) 0.2235(10)
loop_
_geom_bond_atom_site_label_1
_geom_bond_atom_site_label_2
_geom_bond_site_symmetry_1
_geom_bond_site_symmetry_2
Cl1 C12 1_555 1_555
S1 C4 1_555 1_555
N1 N2 1_555 1_555
N2 N3 1_555 1_555
N3 N4 1_555 1_555
N4 C5 1_555 1_555
C1 H1 1_555 1_555
H2 C1 1_555 1_555
H3 C1 1_555 1_555
C2 C1 1_555 1_555
C3 C2 1_555 1_555
C4 C3 1_555 1_555
H4 C4 1_555 1_555
H5 C4 1_555 1_555
C5 S1 1_555 1_555
C6 N4 1_555 1_555
C7 C6 1_555 1_555
H6 C7 1_555 1_555
C8 C7 1_555 1_555
H7 C8 1_555 1_555
C9 C8 1_555 1_555
H8 C9 1_555 1_555
C10 C9 1_555 1_555
H9 C10 1_555 1_555
C11 C6 1_555 1_555
H10 C11 1_555 1_555
C12 C13 1_555 1_555
C13 C14 1_555 1_555
C14 C15 1_555 1_555
C15 C14B 1_555 1_555
S1B C4B 1_555 1_555
S1A C4A 1_555 1_555
N1B N2B 1_555 1_555
N1A N2A 1_555 1_555
N2B N3B 1_555 1_555
N2A N3A 1_555 1_555
N3B N4B 1_555 1_555
N3A N4A 1_555 1_555
N4B C5B 1_555 1_555
N4A C5A 1_555 1_555
C1A H1A 1_555 1_555
C1B H1B 1_555 1_555
H2A C1A 1_555 1_555
H2B C1B 1_555 1_555
H3A C1A 1_555 1_555
H3B C1B 1_555 1_555
C2A C1A 1_555 1_555
C2B C3 1_555 1_555
C3A C2 1_555 1_555
C3B C2A 1_555 1_555
C4B C3B 1_555 1_555
C4A C3A 1_555 1_555
H4B C4B 1_555 1_555
H4A C4A 1_555 1_555
H5B C4B 1_555 1_555
H5A C4A 1_555 1_555
C5B S1B 1_555 1_555
C5A S1A 1_555 1_555
C6B N4B 1_555 1_555
C6A N4A 1_555 1_555
C7B C6B 1_555 1_555
C7A C6A 1_555 1_555
H6B C7B 1_555 1_555
H6A C7A 1_555 1_555
C8B C7B 1_555 1_555
C8A C7A 1_555 1_555
H7B C8B 1_555 1_555
H7A C8A 1_555 1_555
C9B C8B 1_555 1_555
C9A C8A 1_555 1_555
H8B C9B 1_555 1_555
H8A C9A 1_555 1_555
C10B C9B 1_555 1_555
C10A C9A 1_555 1_555
H9B C10B 1_555 1_555
H9A C10A 1_555 1_555
C11B C6B 1_555 1_555
C11A C6A 1_555 1_555
H10B C11B 1_555 1_555
H10A C11A 1_555 1_555
C13B C12 1_555 1_555
C13A C12 1_555 1_555
C14B C13B 1_555 1_555
C14A C13A 1_555 1_555
C15A C14 1_555 1_555
C15B C14B 1_555 1_555
N1 C5 1_555 1_555
C10 C11 1_555 1_555
N1B C5B 1_555 1_555
N1A C5A 1_555 1_555
C1B C2B 1_555 1_555
C2A C3A 1_555 1_555
C2B C3B 1_555 1_555
C10B C11B 1_555 1_555
C10A C11A 1_555 1_555
C14A C15A 1_555 1_555
C14A C15B 1_555 1_555

#END
