
#######################################################################
#
#                 Cambridge Crystallographic Data Centre
#                                CCDC 
#
#######################################################################
#
# If this CIF has been generated from an entry in the Cambridge 
# Structural Database, then it will include bibliographic, chemical, 
# crystal, experimental, refinement or atomic coordinate data resulting 
# from the CCDC's data processing and validation procedures.
#
#######################################################################

data_ONEMUQ
_chemical_formula_moiety         'C27 H26 Br1 N1 O4 S1,C3 H8 O1'
_chemical_name_systematic        
'2-(10-Benzyl-10a-hydroxy-9-methyl-5,5-dioxido-8,9,10,10a-tetrahydro-7H-pyrido[1,2-b][1,2]benzothiazol-7-yl)-1-(3-bromophenyl)ethanone isopropanol solvate'
_symmetry_cell_setting           monoclinic
_symmetry_space_group_name_H-M   'P 21'
_symmetry_Int_Tables_number      4
_space_group_name_Hall           'P 2yb'
loop_
_symmetry_equiv_pos_site_id
_symmetry_equiv_pos_as_xyz
1 x,y,z
2 -x,1/2+y,-z
_cell_length_a                   11.0734(19)
_cell_length_b                   10.0951(17)
_cell_length_c                   12.728(2)
_cell_angle_alpha                90
_cell_angle_beta                 101.651(2)
_cell_angle_gamma                90
_cell_volume                     1393.51
_exptl_crystal_colour            colorless
_exptl_crystal_description       block
_cell_formula_units_Z            2
loop_
_atom_site_label
_atom_site_type_symbol
_atom_site_fract_x
_atom_site_fract_y
_atom_site_fract_z
Br1 Br 0.92143(3) 0.25695(3) 0.13199(2)
S1 S 0.69195(6) 0.45985(7) 0.80494(6)
O1 O 0.46026(15) 0.66690(18) 0.66323(15)
H1 H 0.5169(19) 0.723(3) 0.6905(19)
O2 O 0.73151(15) 0.32691(16) 0.83439(14)
O3 O 0.79199(15) 0.54781(18) 0.79173(15)
O4 O 0.65911(17) 0.46949(19) 0.40135(16)
N1 N 0.57480(18) 0.4631(2) 0.70393(18)
C1 C 0.6086(2) 0.5296(2) 0.8948(2)
C2 C 0.6494(2) 0.5411(3) 1.0046(2)
H2 H 0.7279 0.5090 1.0396
C3 C 0.5700(2) 0.6020(3) 1.0608(2)
H3 H 0.5928 0.6096 1.1366
C4 C 0.4565(2) 0.6523(3) 1.0071(2)
H4 H 0.4053 0.6979 1.0466
C5 C 0.4178(2) 0.6368(3) 0.8976(2)
H5 H 0.3399 0.6696 0.8618
C6 C 0.4953(2) 0.5724(2) 0.8411(2)
C7 C 0.4680(2) 0.5462(3) 0.7207(2)
C8 C 0.3515(2) 0.4673(3) 0.6771(2)
H6 H 0.2792 0.5236 0.6841
C9 C 0.3445(2) 0.4418(3) 0.5573(2)
H7 H 0.3388 0.5297 0.5204
C10 C 0.4626(2) 0.3722(3) 0.5380(2)
H8 H 0.4649 0.2809 0.5667
H9 H 0.4589 0.3660 0.4598
C11 C 0.5810(2) 0.4434(3) 0.5900(2)
H10 H 0.5815 0.5324 0.5555
C12 C 0.6948(2) 0.3674(3) 0.5735(2)
H11 H 0.7680 0.3990 0.6255
H12 H 0.6839 0.2720 0.5869
C13 C 0.7155(2) 0.3866(3) 0.4597(2)
C14 C 0.8123(2) 0.3040(2) 0.4236(2)
C15 C 0.8919(2) 0.2208(3) 0.4908(2)
H13 H 0.8861 0.2129 0.5640
C16 C 0.9807(2) 0.1484(3) 0.4517(2)
H14 H 1.0352 0.0920 0.4989
C17 C 0.9906(2) 0.1575(3) 0.3455(2)
H15 H 1.0503 0.1073 0.3186
C18 C 0.9100(2) 0.2429(3) 0.27879(19)
C19 C 0.8218(2) 0.3128(2) 0.3158(2)
H16 H 0.7663 0.3678 0.2682
C20 C 0.3459(2) 0.3395(2) 0.7430(2)
H17 H 0.3803 0.2659 0.7068
H18 H 0.4002 0.3514 0.8143
C21 C 0.2195(2) 0.2985(3) 0.7595(2)
C22 C 0.1490(2) 0.3826(3) 0.8098(2)
H19 H 0.1781 0.4692 0.8303
C23 C 0.0365(2) 0.3407(3) 0.8303(2)
H20 H -0.0112 0.3996 0.8637
C24 C -0.0065(2) 0.2162(3) 0.8031(2)
H21 H -0.0833 0.1881 0.8178
C25 C 0.0635(2) 0.1306(3) 0.7537(2)
H22 H 0.0347 0.0434 0.7350
C26 C 0.1747(2) 0.1723(3) 0.7318(2)
H23 H 0.2212 0.1135 0.6973
C27 C 0.2312(2) 0.3615(3) 0.5063(2)
H24 H 0.1567 0.4064 0.5184
H25 H 0.2362 0.2731 0.5387
H26 H 0.2278 0.3534 0.4290
O5 O 0.68027(18) -0.20609(18) 0.73473(18)
H27 H 0.7284(19) -0.264(2) 0.759(2)
C28 C 0.6337(3) 0.0208(3) 0.7432(2)
H28 H 0.6331 0.0274 0.6663
H29 H 0.6596 0.1056 0.7779
H30 H 0.5507 -0.0012 0.7536
C29 C 0.7226(3) -0.0865(3) 0.7921(3)
H31 H 0.8044 -0.0643 0.7747
C30 C 0.7424(3) -0.1010(3) 0.9092(3)
H32 H 0.6630 -0.1157 0.9301
H33 H 0.7806 -0.0203 0.9437
H34 H 0.7967 -0.1768 0.9318
loop_
_geom_bond_atom_site_label_1
_geom_bond_atom_site_label_2
_geom_bond_site_symmetry_1
_geom_bond_site_symmetry_2
Br1 C18 1_555 1_555
S1 O2 1_555 1_555
O1 H1 1_555 1_555
O3 S1 1_555 1_555
O4 C13 1_555 1_555
N1 S1 1_555 1_555
C1 S1 1_555 1_555
C2 C1 1_555 1_555
H2 C2 1_555 1_555
C3 C2 1_555 1_555
H3 C3 1_555 1_555
C4 C3 1_555 1_555
H4 C4 1_555 1_555
C5 C4 1_555 1_555
H5 C5 1_555 1_555
C6 C1 1_555 1_555
C7 O1 1_555 1_555
C8 C7 1_555 1_555
H6 C8 1_555 1_555
C9 C8 1_555 1_555
H7 C9 1_555 1_555
C10 C9 1_555 1_555
H8 C10 1_555 1_555
H9 C10 1_555 1_555
C11 N1 1_555 1_555
H10 C11 1_555 1_555
C12 C11 1_555 1_555
H11 C12 1_555 1_555
H12 C12 1_555 1_555
C13 C12 1_555 1_555
C14 C13 1_555 1_555
C15 C14 1_555 1_555
H13 C15 1_555 1_555
C16 C15 1_555 1_555
H14 C16 1_555 1_555
C17 C16 1_555 1_555
H15 C17 1_555 1_555
C18 C17 1_555 1_555
C19 C14 1_555 1_555
H16 C19 1_555 1_555
C20 C8 1_555 1_555
H17 C20 1_555 1_555
H18 C20 1_555 1_555
C21 C20 1_555 1_555
C22 C21 1_555 1_555
H19 C22 1_555 1_555
C23 C22 1_555 1_555
H20 C23 1_555 1_555
C24 C23 1_555 1_555
H21 C24 1_555 1_555
C25 C24 1_555 1_555
H22 C25 1_555 1_555
C26 C21 1_555 1_555
H23 C26 1_555 1_555
C27 C9 1_555 1_555
H24 C27 1_555 1_555
H25 C27 1_555 1_555
H26 C27 1_555 1_555
O5 H27 1_555 1_555
C28 H28 1_555 1_555
H29 C28 1_555 1_555
H30 C28 1_555 1_555
C29 O5 1_555 1_555
H31 C29 1_555 1_555
C30 C29 1_555 1_555
H32 C30 1_555 1_555
H33 C30 1_555 1_555
H34 C30 1_555 1_555
N1 C7 1_555 1_555
C5 C6 1_555 1_555
C6 C7 1_555 1_555
C10 C11 1_555 1_555
C18 C19 1_555 1_555
C25 C26 1_555 1_555
C28 C29 1_555 1_555

#END
