
#######################################################################
#
#                 Cambridge Crystallographic Data Centre
#                                CCDC 
#
#######################################################################
#
# If this CIF has been generated from an entry in the Cambridge 
# Structural Database, then it will include bibliographic, chemical, 
# crystal, experimental, refinement or atomic coordinate data resulting 
# from the CCDC's data processing and validation procedures.
#
#######################################################################

data_ONEQEE
_chemical_formula_moiety         'C33 H34 N2 S1'
_chemical_name_systematic        
4-t-Butyl-6-cyclohexyl-3,7-diphenyl-2-(2-thienyl)-1H-pyrrolo[3,2-c]pyridine
_symmetry_cell_setting           monoclinic
_symmetry_space_group_name_H-M   'P 21/c'
_symmetry_Int_Tables_number      14
_space_group_name_Hall           '-P 2ybc'
loop_
_symmetry_equiv_pos_site_id
_symmetry_equiv_pos_as_xyz
1 x,y,z
2 -x,1/2+y,1/2-z
3 -x,-y,-z
4 x,1/2-y,1/2+z
_cell_length_a                   14.388(3)
_cell_length_b                   20.335(4)
_cell_length_c                   9.3497(19)
_cell_angle_alpha                90
_cell_angle_beta                 95.85(3)
_cell_angle_gamma                90
_cell_volume                     2721.29
_exptl_crystal_colour            colorless
_cell_formula_units_Z            4
loop_
_atom_site_label
_atom_site_type_symbol
_atom_site_fract_x
_atom_site_fract_y
_atom_site_fract_z
C1 C 0.6123(3) 0.54893(18) -0.0947(4)
C2 C 0.6520(3) 0.57018(18) 0.0367(4)
C3 C 0.7329(2) 0.52763(17) 0.0780(4)
C4 C 0.8051(2) 0.52003(18) 0.1944(4)
C5 C 0.8668(3) 0.42952(18) 0.0784(4)
C6 C 0.8010(3) 0.43283(19) -0.0403(4)
C7 C 0.7361(3) 0.48244(18) -0.0362(4)
C8 C 0.7981(3) 0.38918(18) -0.1689(4)
C9 C 0.8556(4) 0.4004(3) -0.2728(6)
H1 H 0.8962 0.4361 -0.2637
C10 C 0.8550(5) 0.3601(3) -0.3918(6)
H2 H 0.8980 0.3669 -0.4583
C11 C 0.7911(4) 0.3102(3) -0.4119(6)
H3 H 0.7875 0.2852 -0.4955
C12 C 0.7322(4) 0.2970(3) -0.3084(6)
H4 H 0.6904 0.2621 -0.3189
C13 C 0.7370(3) 0.3379(2) -0.1855(5)
H5 H 0.6977 0.3296 -0.1145
C14 C 0.9443(3) 0.37834(19) 0.0955(4)
H6 H 0.9364 0.3495 0.0112
C15 C 0.9382(3) 0.3364(2) 0.2259(5)
H7 H 0.8778 0.3148 0.2185
H8 H 0.9425 0.3643 0.3104
C16 C 1.0144(3) 0.2848(2) 0.2444(6)
H9 H 1.0094 0.2607 0.3328
H10 H 1.0062 0.2539 0.1651
C17 C 1.1102(4) 0.3159(2) 0.2492(6)
H11 H 1.1218 0.3424 0.3355
H12 H 1.1574 0.2817 0.2525
C18 C 1.1167(3) 0.3581(3) 0.1196(6)
H13 H 1.1133 0.3303 0.0348
H14 H 1.1768 0.3801 0.1282
C19 C 1.0401(3) 0.4092(2) 0.1002(6)
H15 H 1.0452 0.4331 0.0115
H16 H 1.0481 0.4404 0.1789
C20 C 0.8179(3) 0.56236(18) 0.3308(4)
C21 C 0.9061(3) 0.5411(2) 0.4241(5)
H17 H 0.8992 0.4964 0.4546
H18 H 0.9156 0.5692 0.5068
H19 H 0.9589 0.5443 0.3694
C22 C 0.7366(3) 0.5535(2) 0.4206(5)
H20 H 0.6797 0.5668 0.3657
H21 H 0.7466 0.5801 0.5058
H22 H 0.7321 0.5081 0.4473
C23 C 0.8314(3) 0.6342(2) 0.2930(5)
H23 H 0.8845 0.6383 0.2392
H24 H 0.8417 0.6596 0.3797
H25 H 0.7766 0.6501 0.2363
C24 C 0.6145(3) 0.62958(19) 0.1046(4)
C25 C 0.6370(3) 0.6909(2) 0.0585(5)
H26 H 0.6765 0.6951 -0.0138
C26 C 0.6018(5) 0.7466(3) 0.1181(7)
H27 H 0.6185 0.7879 0.0866
C27 C 0.5437(5) 0.7415(3) 0.2211(7)
H28 H 0.5207 0.7792 0.2616
C28 C 0.5185(4) 0.6807(3) 0.2662(6)
H29 H 0.4778 0.6768 0.3369
C29 C 0.5534(3) 0.6255(2) 0.2068(5)
H30 H 0.5350 0.5843 0.2368
C30 C 0.5285(3) 0.57178(18) -0.1878(5)
C31 C 0.4211(4) 0.5935(2) -0.3831(6)
H31 H 0.3908 0.5985 -0.4752
C32 C 0.3788(4) 0.6082(2) -0.2650(8)
H32 H 0.3174 0.6230 -0.2714
H33 H 0.662(3) 0.459(3) -0.222(6)
N1 N 0.6641(2) 0.49625(16) -0.1414(4)
N2 N 0.8671(2) 0.47185(15) 0.1898(3)
S1 S 0.43563(11) 0.59960(9) -0.1231(2)
S2 S 0.52274(15) 0.56768(11) -0.3578(2)
loop_
_geom_bond_atom_site_label_1
_geom_bond_atom_site_label_2
_geom_bond_site_symmetry_1
_geom_bond_site_symmetry_2
C1 C2 1_555 1_555
C2 C3 1_555 1_555
C3 C4 1_555 1_555
C4 C20 1_555 1_555
C5 C6 1_555 1_555
C6 C7 1_555 1_555
C7 C3 1_555 1_555
C8 C6 1_555 1_555
C9 C8 1_555 1_555
H1 C9 1_555 1_555
C10 C9 1_555 1_555
H2 C10 1_555 1_555
C11 C10 1_555 1_555
H3 C11 1_555 1_555
C12 C11 1_555 1_555
H4 C12 1_555 1_555
C13 C8 1_555 1_555
H5 C13 1_555 1_555
C14 C5 1_555 1_555
H6 C14 1_555 1_555
C15 C14 1_555 1_555
H7 C15 1_555 1_555
H8 C15 1_555 1_555
C16 C15 1_555 1_555
H9 C16 1_555 1_555
H10 C16 1_555 1_555
C17 C16 1_555 1_555
H11 C17 1_555 1_555
H12 C17 1_555 1_555
C18 C17 1_555 1_555
H13 C18 1_555 1_555
H14 C18 1_555 1_555
C19 C14 1_555 1_555
H15 C19 1_555 1_555
H16 C19 1_555 1_555
C20 C21 1_555 1_555
C21 H17 1_555 1_555
H18 C21 1_555 1_555
H19 C21 1_555 1_555
C22 C20 1_555 1_555
H20 C22 1_555 1_555
H21 C22 1_555 1_555
H22 C22 1_555 1_555
C23 C20 1_555 1_555
H23 C23 1_555 1_555
H24 C23 1_555 1_555
H25 C23 1_555 1_555
C24 C2 1_555 1_555
C25 C24 1_555 1_555
H26 C25 1_555 1_555
C26 C25 1_555 1_555
H27 C26 1_555 1_555
C27 C26 1_555 1_555
H28 C27 1_555 1_555
C28 C27 1_555 1_555
H29 C28 1_555 1_555
C29 C24 1_555 1_555
H30 C29 1_555 1_555
C30 C1 1_555 1_555
C31 H31 1_555 1_555
C32 C31 1_555 1_555
H32 C32 1_555 1_555
H33 N1 1_555 1_555
N1 C1 1_555 1_555
N2 C4 1_555 1_555
S1 C30 1_555 1_555
S2 C30 1_555 1_555
C5 N2 1_555 1_555
C7 N1 1_555 1_555
C12 C13 1_555 1_555
C18 C19 1_555 1_555
C28 C29 1_555 1_555
C31 S2 1_555 1_555
C32 S1 1_555 1_555

#END
