
#######################################################################
#
#                 Cambridge Crystallographic Data Centre
#                                CCDC 
#
#######################################################################
#
# If this CIF has been generated from an entry in the Cambridge 
# Structural Database, then it will include bibliographic, chemical, 
# crystal, experimental, refinement or atomic coordinate data resulting 
# from the CCDC's data processing and validation procedures.
#
#######################################################################

data_ONIBIY
_chemical_formula_moiety         'C96 H156 Li6 N2 O16,3(C4 H8 O1)'
_chemical_name_systematic        
'bis(\m-N,N-bis(3,5-di-t-butyl-2-oxybenzyl)glycinato)-octakis(tetrahydrofuran)-hexa-lithium tetrahydrofuran solvate'
_symmetry_cell_setting           monoclinic
_symmetry_space_group_name_H-M   'C 2/c'
_symmetry_Int_Tables_number      15
_space_group_name_Hall           '-C 2yn'
loop_
_symmetry_equiv_pos_site_id
_symmetry_equiv_pos_as_xyz
1 x,y,z
2 -x,y,1/2-z
3 1/2+x,1/2+y,z
4 1/2-x,1/2+y,1/2-z
5 -x,-y,-z
6 x,-y,1/2+z
7 1/2-x,1/2-y,-z
8 1/2+x,1/2-y,1/2+z
_cell_length_a                   17.2206(6)
_cell_length_b                   26.5314(12)
_cell_length_c                   26.9480(10)
_cell_angle_alpha                90
_cell_angle_beta                 103.886(4)
_cell_angle_gamma                90
_cell_volume                     11952.4
_exptl_crystal_colour            colorless
_exptl_crystal_description       block
_cell_formula_units_Z            4
loop_
_atom_site_label
_atom_site_type_symbol
_atom_site_fract_x
_atom_site_fract_y
_atom_site_fract_z
Li1 Li 0.2261(3) 0.1149(2) 0.1546(2)
Li2 Li 0.3240(3) 0.1168(2) 0.1020(2)
Li3 Li -0.0709(4) 0.1173(3) 0.2151(3)
O1 O 0.27633(13) 0.06146(9) 0.12576(9)
O2 O 0.27924(13) 0.17030(9) 0.13189(9)
O3 O 0.16424(13) 0.11382(10) 0.20426(9)
O4 O 0.03842(14) 0.11695(11) 0.21157(9)
O5 O 0.44352(14) 0.11545(12) 0.12394(11)
O6 O 0.31291(17) 0.12924(12) 0.02848(10)
O7 O -0.13411(18) 0.05787(17) 0.18720(15)
O8 O -0.1307(2) 0.17694(15) 0.18701(15)
N1 N 0.12077(15) 0.11747(11) 0.09949(10)
C1 C 0.2277(2) 0.02252(13) 0.12613(13)
C2 C 0.2535(2) -0.02236(14) 0.15368(14)
C3 C 0.1980(2) -0.06011(15) 0.15353(16)
H1 H 0.2153 -0.0891 0.1723
C4 C 0.1179(2) -0.05758(16) 0.12712(16)
C5 C 0.0939(2) -0.01342(14) 0.09985(14)
H2 H 0.0408 -0.0102 0.0819
C6 C 0.1463(2) 0.02584(13) 0.09858(13)
C7 C 0.1190(2) 0.07218(13) 0.06744(13)
H3 H 0.1532 0.0776 0.0441
H4 H 0.0649 0.0670 0.0472
C8 C 0.1231(2) 0.16461(13) 0.07051(12)
H5 H 0.0698 0.1717 0.0498
H6 H 0.1581 0.1598 0.0475
C9 C 0.15182(19) 0.20915(13) 0.10418(13)
C10 C 0.1013(2) 0.24903(14) 0.10633(13)
H7 H 0.0486 0.2474 0.0873
C11 C 0.1265(2) 0.29187(14) 0.13612(13)
C12 C 0.2061(2) 0.29252(14) 0.16305(13)
H8 H 0.2245 0.3207 0.1830
C13 C 0.2601(2) 0.25375(14) 0.16209(13)
C14 C 0.23295(19) 0.20992(13) 0.13298(13)
C15 C 0.05897(18) 0.11729(15) 0.12820(12)
H9 H 0.0248 0.0882 0.1179
H10 H 0.0262 0.1472 0.1192
C16 C 0.09080(19) 0.11598(14) 0.18534(13)
C17 C 0.3406(2) -0.02841(15) 0.18333(15)
C18 C 0.3613(2) 0.01148(17) 0.22509(15)
H11 H 0.3266 0.0079 0.2479
H12 H 0.3545 0.0444 0.2099
H13 H 0.4159 0.0073 0.2438
C19 C 0.3575(3) -0.08011(17) 0.2090(2)
H14 H 0.3239 -0.0848 0.2325
H15 H 0.4126 -0.0819 0.2273
H16 H 0.3464 -0.1060 0.1835
C20 C 0.3962(2) -0.02323(17) 0.14695(17)
H17 H 0.3881 0.0091 0.1304
H18 H 0.3846 -0.0494 0.1217
H19 H 0.4508 -0.0261 0.1660
C21 C 0.0593(3) -0.10032(19) 0.1300(2)
C22 C 0.0422(6) -0.0938(3) 0.1905(4)
H20 H 0.0922 -0.0891 0.2150
H21 H 0.0164 -0.1236 0.1990
H22 H 0.0084 -0.0651 0.1910
C23 C 0.0054(7) -0.1108(4) 0.0693(4)
H23 H 0.0408 -0.1125 0.0468
H24 H -0.0321 -0.0838 0.0589
H25 H -0.0231 -0.1421 0.0680
C24 C 0.0984(3) -0.15071(18) 0.1363(2)
H26 H 0.1115 -0.1603 0.1050
H27 H 0.0625 -0.1751 0.1449
H28 H 0.1463 -0.1492 0.1632
C25 C 0.0696(2) 0.33455(15) 0.14249(16)
C26 C 0.0478(3) 0.32794(17) 0.19405(18)
H29 H 0.0229 0.2957 0.1950
H30 H 0.0116 0.3542 0.1983
H31 H 0.0955 0.3298 0.2211
C27 C -0.0074(3) 0.33356(18) 0.1006(2)
H32 H -0.0325 0.3012 0.1002
H33 H 0.0046 0.3396 0.0681
H34 H -0.0429 0.3593 0.1071
C28 C 0.1088(3) 0.38638(16) 0.14277(19)
H35 H 0.1228 0.3917 0.1108
H36 H 0.1562 0.3879 0.1701
H37 H 0.0720 0.4121 0.1476
C29 C 0.3483(2) 0.25796(15) 0.19149(14)
C30 C 0.3668(2) 0.30849(17) 0.21906(18)
H38 H 0.3338 0.3124 0.2429
H39 H 0.3560 0.3354 0.1945
H40 H 0.4221 0.3094 0.2370
C31 C 0.3681(2) 0.21624(17) 0.23237(15)
H41 H 0.3341 0.2197 0.2557
H42 H 0.4230 0.2191 0.2508
H43 H 0.3595 0.1838 0.2161
C32 C 0.4024(2) 0.25314(16) 0.15411(16)
H44 H 0.3898 0.2794 0.1289
H45 H 0.3940 0.2209 0.1375
H46 H 0.4573 0.2561 0.1725
C33 C 0.4904(2) 0.1149(2) 0.17534(17)
H47 H 0.4742 0.0873 0.1941
H48 H 0.4835 0.1462 0.1924
C34 C 0.5760(3) 0.1087(3) 0.1731(2)
C35 C 0.5679(5) 0.0760(5) 0.1269(4)
H49 H 0.5686 0.0407 0.1364
H50 H 0.6115 0.0821 0.1106
C36 C 0.4860(4) 0.0899(4) 0.0898(3)
H51 H 0.4934 0.1121 0.0628
H52 H 0.4575 0.0599 0.0748
C37 C 0.2883(4) 0.0989(2) -0.0157(2)
H53 H 0.2615 0.0688 -0.0081
H54 H 0.3340 0.0890 -0.0287
C38 C 0.2327(3) 0.1307(3) -0.0535(2)
H55 H 0.2428 0.1266 -0.0872
H56 H 0.1777 0.1213 -0.0552
C39 C 0.2475(3) 0.1835(2) -0.03599(19)
H57 H 0.2629 0.2041 -0.0618
H58 H 0.2002 0.1981 -0.0280
C40 C 0.3134(3) 0.1798(2) 0.0103(2)
H59 H 0.3641 0.1872 0.0022
H60 H 0.3054 0.2035 0.0360
C41 C -0.1262(8) 0.0080(5) 0.2235(5)
H61 H -0.0721 -0.0052 0.2310
H62 H -0.1403 0.0158 0.2554
C42 C -0.1793(4) -0.0261(3) 0.1953(4)
H63 H -0.1800 -0.0569 0.2117
C43 C -0.2411(4) 0.0028(3) 0.1594(3)
H64 H -0.2936 -0.0041 0.1651
H65 H -0.2415 -0.0058 0.1243
C44 C -0.2190(3) 0.0580(3) 0.1700(2)
H66 H -0.2361 0.0780 0.1392
H67 H -0.2435 0.0714 0.1961
C45 C -0.2157(11) 0.2384(7) 0.1874(12)
H68 H -0.2695 0.2503 0.1726
H69 H -0.2003 0.2492 0.2228
C46 C -0.1594(7) 0.2589(4) 0.1587(6)
H70 H -0.1296 0.2875 0.1759
H71 H -0.1864 0.2683 0.1241
C47 C -0.1059(8) 0.2125(4) 0.1597(7)
H72 H -0.1095 0.2006 0.1252
H73 H -0.0506 0.2211 0.1751
C48 C -0.2119(6) 0.1810(5) 0.1840(6)
H74 H -0.2271 0.1646 0.2124
H75 H -0.2441 0.1683 0.1519
Li1A Li -0.2261(3) 0.1149(2) 0.3454(2)
Li2A Li -0.3240(3) 0.1168(2) 0.3980(2)
Li3A Li 0.0709(4) 0.1173(3) 0.2849(3)
O1A O -0.27633(13) 0.06146(9) 0.37424(9)
O2A O -0.27924(13) 0.17030(9) 0.36811(9)
O3A O -0.16424(13) 0.11382(10) 0.29574(9)
O4A O -0.03842(14) 0.11695(11) 0.28843(9)
O5A O -0.44352(14) 0.11545(12) 0.37606(11)
O6A O -0.31291(17) 0.12924(12) 0.47152(10)
O7A O 0.13411(18) 0.05787(17) 0.31280(15)
O8A O 0.1307(2) 0.17694(15) 0.31299(15)
N1A N -0.12077(15) 0.11747(11) 0.40051(10)
C1A C -0.2277(2) 0.02252(13) 0.37387(13)
C2A C -0.2535(2) -0.02236(14) 0.34632(14)
C3A C -0.1980(2) -0.06011(15) 0.34647(16)
H1A H -0.2153 -0.0891 0.3277
C4A C -0.1179(2) -0.05758(16) 0.37288(16)
C5A C -0.0939(2) -0.01342(14) 0.40015(14)
H2A H -0.0408 -0.0102 0.4181
C6A C -0.1463(2) 0.02584(13) 0.40142(13)
C7A C -0.1190(2) 0.07218(13) 0.43256(13)
H3A H -0.1532 0.0776 0.4559
H4A H -0.0649 0.0670 0.4528
C8A C -0.1231(2) 0.16461(13) 0.42949(12)
H5A H -0.0698 0.1717 0.4502
H6A H -0.1581 0.1598 0.4525
C9A C -0.15182(19) 0.20915(13) 0.39582(13)
C10A C -0.1013(2) 0.24903(14) 0.39367(13)
H7A H -0.0486 0.2474 0.4127
C11A C -0.1265(2) 0.29187(14) 0.36388(13)
C12A C -0.2061(2) 0.29252(14) 0.33695(13)
H8A H -0.2245 0.3207 0.3170
C13A C -0.2601(2) 0.25375(14) 0.33791(13)
C14A C -0.23295(19) 0.20992(13) 0.36702(13)
C15A C -0.05897(18) 0.11729(15) 0.37180(12)
H9A H -0.0248 0.0882 0.3821
H10A H -0.0262 0.1472 0.3808
C16A C -0.09080(19) 0.11598(14) 0.31466(13)
C17A C -0.3406(2) -0.02841(15) 0.31667(15)
C18A C -0.3613(2) 0.01148(17) 0.27491(15)
H11A H -0.3266 0.0079 0.2521
H12A H -0.3545 0.0444 0.2901
H13A H -0.4159 0.0073 0.2562
C19A C -0.3575(3) -0.08011(17) 0.2910(2)
H14A H -0.3239 -0.0848 0.2675
H15A H -0.4126 -0.0819 0.2727
H16A H -0.3464 -0.1060 0.3165
C20A C -0.3962(2) -0.02323(17) 0.35305(17)
H17A H -0.3881 0.0091 0.3696
H18A H -0.3846 -0.0494 0.3783
H19A H -0.4508 -0.0261 0.3340
C21A C -0.0593(3) -0.10032(19) 0.3700(2)
C22A C -0.0422(6) -0.0938(3) 0.3095(4)
H20A H -0.0922 -0.0891 0.2850
H21A H -0.0164 -0.1236 0.3010
H22A H -0.0084 -0.0651 0.3090
C23A C -0.0054(7) -0.1108(4) 0.4307(4)
H23A H -0.0408 -0.1125 0.4532
H24A H 0.0321 -0.0838 0.4411
H25A H 0.0231 -0.1421 0.4320
C24A C -0.0984(3) -0.15071(18) 0.3637(2)
H26A H -0.1115 -0.1603 0.3950
H27A H -0.0625 -0.1751 0.3551
H28A H -0.1463 -0.1492 0.3368
C25A C -0.0696(2) 0.33455(15) 0.35751(16)
C26A C -0.0478(3) 0.32794(17) 0.30595(18)
H29A H -0.0229 0.2957 0.3050
H30A H -0.0116 0.3542 0.3017
H31A H -0.0955 0.3298 0.2789
C27A C 0.0074(3) 0.33356(18) 0.3994(2)
H32A H 0.0325 0.3012 0.3998
H33A H -0.0046 0.3396 0.4319
H34A H 0.0429 0.3593 0.3929
C28A C -0.1088(3) 0.38638(16) 0.35723(19)
H35A H -0.1228 0.3917 0.3892
H36A H -0.1562 0.3879 0.3299
H37A H -0.0720 0.4121 0.3524
C29A C -0.3483(2) 0.25796(15) 0.30851(14)
C30A C -0.3668(2) 0.30849(17) 0.28094(18)
H38A H -0.3338 0.3124 0.2571
H39A H -0.3560 0.3354 0.3055
H40A H -0.4221 0.3094 0.2630
C31A C -0.3681(2) 0.21624(17) 0.26763(15)
H41A H -0.3341 0.2197 0.2443
H42A H -0.4230 0.2191 0.2492
H43A H -0.3595 0.1838 0.2839
C32A C -0.4024(2) 0.25314(16) 0.34589(16)
H44A H -0.3898 0.2794 0.3711
H45A H -0.3940 0.2209 0.3625
H46A H -0.4573 0.2561 0.3275
C33A C -0.4904(2) 0.1149(2) 0.32466(17)
H47A H -0.4742 0.0873 0.3059
H48A H -0.4835 0.1462 0.3076
C34A C -0.5760(3) 0.1087(3) 0.3269(2)
C35A C -0.5679(5) 0.0760(5) 0.3731(4)
H49A H -0.5686 0.0407 0.3636
H50A H -0.6115 0.0821 0.3894
C36A C -0.4860(4) 0.0899(4) 0.4102(3)
H51A H -0.4934 0.1121 0.4372
H52A H -0.4575 0.0599 0.4252
C37A C -0.2883(4) 0.0989(2) 0.5157(2)
H53A H -0.2615 0.0688 0.5081
H54A H -0.3340 0.0890 0.5287
C38A C -0.2327(3) 0.1307(3) 0.5535(2)
H55A H -0.2428 0.1266 0.5872
H56A H -0.1777 0.1213 0.5552
C39A C -0.2475(3) 0.1835(2) 0.53599(19)
H57A H -0.2629 0.2041 0.5618
H58A H -0.2002 0.1981 0.5280
C40A C -0.3134(3) 0.1798(2) 0.4897(2)
H59A H -0.3641 0.1872 0.4978
H60A H -0.3054 0.2035 0.4640
C41A C 0.1262(8) 0.0080(5) 0.2765(5)
H61A H 0.0721 -0.0052 0.2690
H62A H 0.1403 0.0158 0.2446
C42A C 0.1793(4) -0.0261(3) 0.3047(4)
H63A H 0.1800 -0.0569 0.2883
C43A C 0.2411(4) 0.0028(3) 0.3406(3)
H64A H 0.2936 -0.0041 0.3349
H65A H 0.2415 -0.0058 0.3757
C44A C 0.2190(3) 0.0580(3) 0.3300(2)
H66A H 0.2361 0.0780 0.3608
H67A H 0.2435 0.0714 0.3039
C45A C 0.2157(11) 0.2384(7) 0.3126(12)
H68A H 0.2695 0.2503 0.3274
H69A H 0.2003 0.2492 0.2772
C46A C 0.1594(7) 0.2589(4) 0.3413(6)
H70A H 0.1296 0.2875 0.3241
H71A H 0.1864 0.2683 0.3759
C47A C 0.1059(8) 0.2125(4) 0.3403(7)
H72A H 0.1095 0.2006 0.3748
H73A H 0.0506 0.2211 0.3249
C48A C 0.2119(6) 0.1810(5) 0.3160(6)
H74A H 0.2271 0.1646 0.2876
H75A H 0.2441 0.1683 0.3481
C49 C 0.2183(12) -0.1054(8) -0.0014(13)
H76 H 0.2142 -0.1255 0.0279
H77 H 0.2498 -0.1233 -0.0211
O9 O 0.2465(8) -0.0612(9) 0.0116(5)
C50 C 0.1468(7) -0.0443(6) -0.0368(5)
H78 H 0.1248 -0.0274 -0.0113
H79 H 0.1152 -0.0349 -0.0704
C51 C 0.1441(7) -0.0918(7) -0.0310(6)
H80 H 0.1335 -0.1088 -0.0639
H81 H 0.1024 -0.1007 -0.0140
C52 C 0.2262(10) -0.0297(5) -0.0316(6)
C53? C -0.0202(9) -0.0928(6) 0.0992(6)
H82? H -0.0199 -0.0956 0.0637
H83? H -0.0386 -0.0598 0.1057
H84? H -0.0552 -0.1178 0.1076
C54? C 0.0001(11) -0.0874(7) 0.1528(7)
H85? H -0.0472 -0.0789 0.1272
H86? H 0.0167 -0.0589 0.1748
H87? H -0.0112 -0.1153 0.1727
C55? C 0.5821(6) 0.1397(7) 0.1356(6)
H88? H 0.6198 0.1266 0.1172
H89? H 0.6004 0.1727 0.1491
C56? C 0.4974(5) 0.1434(5) 0.0997(4)
H90? H 0.4809 0.1784 0.0949
H91? H 0.4971 0.1290 0.0666
C57? C -0.1015(10) 0.0194(7) 0.1958(10)
H92? H -0.0637 0.0201 0.2289
H93? H -0.0729 0.0114 0.1698
C58? C -0.204(3) 0.2412(11) 0.1425(13)
H94? H -0.2577 0.2283 0.1281
H95? H -0.1947 0.2694 0.1218
C59? C -0.1480(10) 0.2039(8) 0.1436(7)
H96? H -0.1674 0.1812 0.1151
H97? H -0.0992 0.2193 0.1389
C60? C -0.1620(8) 0.2131(4) 0.2247(4)
H98? H -0.2020 0.1961 0.2387
H99? H -0.1182 0.2234 0.2527
C61? C -0.1970(19) 0.2569(9) 0.1943(8)
H100? H -0.2489 0.2652 0.2002
H101? H -0.1623 0.2861 0.2024
C62? C -0.207(3) 0.247(2) -0.026(2)
C63? C -0.143(2) 0.2425(8) 0.0290(9)
O10? O -0.0954(7) 0.2386(5) -0.0120(5)
C64? C -0.1815(16) 0.2848(9) 0.0082(12)
C65? C -0.0540(9) 0.2816(5) -0.0775(5)
C66? C -0.0287(9) 0.2499(5) -0.0322(4)
C67? C -0.1395(8) 0.3007(5) -0.0319(5)
C68? C -0.1048(10) 0.3153(5) -0.0625(8)
C69? C 0.5607(11) 0.0090(12) 0.0284(10)
C70? C 0.5072(13) 0.0308(7) -0.0255(7)
loop_
_geom_bond_atom_site_label_1
_geom_bond_atom_site_label_2
_geom_bond_site_symmetry_1
_geom_bond_site_symmetry_2
Li1 O1 1_555 1_555
Li2 O1 1_555 1_555
Li3 O4 1_555 1_555
O1 C1 1_555 1_555
O2 Li1 1_555 1_555
O3 Li1 1_555 1_555
O4 C16 1_555 1_555
O5 Li2 1_555 1_555
O6 Li2 1_555 1_555
O7 Li3 1_555 1_555
O8 Li3 1_555 1_555
N1 Li1 1_555 1_555
C1 C2 1_555 1_555
C2 C3 1_555 1_555
C3 H1 1_555 1_555
C4 C3 1_555 1_555
C5 C4 1_555 1_555
H2 C5 1_555 1_555
C6 C1 1_555 1_555
C7 N1 1_555 1_555
H3 C7 1_555 1_555
H4 C7 1_555 1_555
C8 N1 1_555 1_555
H5 C8 1_555 1_555
H6 C8 1_555 1_555
C9 C8 1_555 1_555
C10 C9 1_555 1_555
H7 C10 1_555 1_555
C11 C10 1_555 1_555
C12 C11 1_555 1_555
H8 C12 1_555 1_555
C13 C12 1_555 1_555
C14 O2 1_555 1_555
C15 N1 1_555 1_555
H9 C15 1_555 1_555
H10 C15 1_555 1_555
C16 O3 1_555 1_555
C17 C2 1_555 1_555
C18 C17 1_555 1_555
H11 C18 1_555 1_555
H12 C18 1_555 1_555
H13 C18 1_555 1_555
C19 C17 1_555 1_555
H14 C19 1_555 1_555
H15 C19 1_555 1_555
H16 C19 1_555 1_555
C20 C17 1_555 1_555
H17 C20 1_555 1_555
H18 C20 1_555 1_555
H19 C20 1_555 1_555
C21 C4 1_555 1_555
C22 C21 1_555 1_555
H20 C22 1_555 1_555
H21 C22 1_555 1_555
H22 C22 1_555 1_555
C23 C21 1_555 1_555
H23 C23 1_555 1_555
H24 C23 1_555 1_555
H25 C23 1_555 1_555
C24 C21 1_555 1_555
H26 C24 1_555 1_555
H27 C24 1_555 1_555
H28 C24 1_555 1_555
C25 C11 1_555 1_555
C26 C25 1_555 1_555
H29 C26 1_555 1_555
H30 C26 1_555 1_555
H31 C26 1_555 1_555
C27 C25 1_555 1_555
H32 C27 1_555 1_555
H33 C27 1_555 1_555
H34 C27 1_555 1_555
C28 C25 1_555 1_555
H35 C28 1_555 1_555
H36 C28 1_555 1_555
H37 C28 1_555 1_555
C29 C13 1_555 1_555
C30 C29 1_555 1_555
H38 C30 1_555 1_555
H39 C30 1_555 1_555
H40 C30 1_555 1_555
C31 C29 1_555 1_555
H41 C31 1_555 1_555
H42 C31 1_555 1_555
H43 C31 1_555 1_555
C32 C29 1_555 1_555
H44 C32 1_555 1_555
H45 C32 1_555 1_555
H46 C32 1_555 1_555
C33 O5 1_555 1_555
H47 C33 1_555 1_555
H48 C33 1_555 1_555
C34 C33 1_555 1_555
C35 C34 1_555 1_555
H49 C35 1_555 1_555
H50 C35 1_555 1_555
C36 O5 1_555 1_555
H51 C36 1_555 1_555
H52 C36 1_555 1_555
C37 O6 1_555 1_555
H53 C37 1_555 1_555
H54 C37 1_555 1_555
C38 C37 1_555 1_555
H55 C38 1_555 1_555
H56 C38 1_555 1_555
C39 C38 1_555 1_555
H57 C39 1_555 1_555
H58 C39 1_555 1_555
C40 O6 1_555 1_555
H59 C40 1_555 1_555
H60 C40 1_555 1_555
C41 O7 1_555 1_555
H61 C41 1_555 1_555
H62 C41 1_555 1_555
C42 C41 1_555 1_555
H63 C42 1_555 1_555
C43 C42 1_555 1_555
H64 C43 1_555 1_555
H65 C43 1_555 1_555
C44 O7 1_555 1_555
H66 C44 1_555 1_555
H67 C44 1_555 1_555
C45 H68 1_555 1_555
H69 C45 1_555 1_555
C46 C45 1_555 1_555
H70 C46 1_555 1_555
H71 C46 1_555 1_555
C47 O8 1_555 1_555
H72 C47 1_555 1_555
H73 C47 1_555 1_555
C48 O8 1_555 1_555
H74 C48 1_555 1_555
H75 C48 1_555 1_555
C49 H76 1_555 1_555
H77 C49 1_555 1_555
O9 C49 1_555 1_555
C50 H78 1_555 1_555
H79 C50 1_555 1_555
C51 C49 1_555 1_555
H80 C51 1_555 1_555
H81 C51 1_555 1_555
C52 O9 1_555 1_555
Li1A O1A 1_555 1_555
Li2A O1A 1_555 1_555
Li3A O4 1_555 1_555
O1A C1A 1_555 1_555
O2A Li1A 1_555 1_555
O3A Li1A 1_555 1_555
O4A Li3 1_555 1_555
O5A Li2A 1_555 1_555
O6A Li2A 1_555 1_555
O7A Li3A 1_555 1_555
O8A Li3A 1_555 1_555
N1A Li1A 1_555 1_555
C1A C2A 1_555 1_555
C2A C3A 1_555 1_555
C3A H1A 1_555 1_555
C4A C3A 1_555 1_555
C5A C4A 1_555 1_555
H2A C5A 1_555 1_555
C6A C1A 1_555 1_555
C7A N1A 1_555 1_555
H3A C7A 1_555 1_555
H4A C7A 1_555 1_555
C8A N1A 1_555 1_555
H5A C8A 1_555 1_555
H6A C8A 1_555 1_555
C9A C8A 1_555 1_555
C10A C9A 1_555 1_555
H7A C10A 1_555 1_555
C11A C10A 1_555 1_555
C12A C11A 1_555 1_555
H8A C12A 1_555 1_555
C13A C12A 1_555 1_555
C14A O2A 1_555 1_555
C15A N1A 1_555 1_555
H9A C15A 1_555 1_555
H10A C15A 1_555 1_555
C16A O3A 1_555 1_555
C17A C2A 1_555 1_555
C18A C17A 1_555 1_555
H11A C18A 1_555 1_555
H12A C18A 1_555 1_555
H13A C18A 1_555 1_555
C19A C17A 1_555 1_555
H14A C19A 1_555 1_555
H15A C19A 1_555 1_555
H16A C19A 1_555 1_555
C20A C17A 1_555 1_555
H17A C20A 1_555 1_555
H18A C20A 1_555 1_555
H19A C20A 1_555 1_555
C21A C4A 1_555 1_555
C22A C21A 1_555 1_555
H20A C22A 1_555 1_555
H21A C22A 1_555 1_555
H22A C22A 1_555 1_555
C23A C21A 1_555 1_555
H23A C23A 1_555 1_555
H24A C23A 1_555 1_555
H25A C23A 1_555 1_555
C24A C21A 1_555 1_555
H26A C24A 1_555 1_555
H27A C24A 1_555 1_555
H28A C24A 1_555 1_555
C25A C11A 1_555 1_555
C26A C25A 1_555 1_555
H29A C26A 1_555 1_555
H30A C26A 1_555 1_555
H31A C26A 1_555 1_555
C27A C25A 1_555 1_555
H32A C27A 1_555 1_555
H33A C27A 1_555 1_555
H34A C27A 1_555 1_555
C28A C25A 1_555 1_555
H35A C28A 1_555 1_555
H36A C28A 1_555 1_555
H37A C28A 1_555 1_555
C29A C13A 1_555 1_555
C30A C29A 1_555 1_555
H38A C30A 1_555 1_555
H39A C30A 1_555 1_555
H40A C30A 1_555 1_555
C31A C29A 1_555 1_555
H41A C31A 1_555 1_555
H42A C31A 1_555 1_555
H43A C31A 1_555 1_555
C32A C29A 1_555 1_555
H44A C32A 1_555 1_555
H45A C32A 1_555 1_555
H46A C32A 1_555 1_555
C33A O5A 1_555 1_555
H47A C33A 1_555 1_555
H48A C33A 1_555 1_555
C34A C33A 1_555 1_555
C35A C34A 1_555 1_555
H49A C35A 1_555 1_555
H50A C35A 1_555 1_555
C36A O5A 1_555 1_555
H51A C36A 1_555 1_555
H52A C36A 1_555 1_555
C37A O6A 1_555 1_555
H53A C37A 1_555 1_555
H54A C37A 1_555 1_555
C38A C37A 1_555 1_555
H55A C38A 1_555 1_555
H56A C38A 1_555 1_555
C39A C38A 1_555 1_555
H57A C39A 1_555 1_555
H58A C39A 1_555 1_555
C40A O6A 1_555 1_555
H59A C40A 1_555 1_555
H60A C40A 1_555 1_555
C41A O7A 1_555 1_555
H61A C41A 1_555 1_555
H62A C41A 1_555 1_555
C42A C41A 1_555 1_555
H63A C42A 1_555 1_555
C43A C42A 1_555 1_555
H64A C43A 1_555 1_555
H65A C43A 1_555 1_555
C44A O7A 1_555 1_555
H66A C44A 1_555 1_555
H67A C44A 1_555 1_555
C45A H68A 1_555 1_555
H69A C45A 1_555 1_555
C46A C45A 1_555 1_555
H70A C46A 1_555 1_555
H71A C46A 1_555 1_555
C47A O8A 1_555 1_555
H72A C47A 1_555 1_555
H73A C47A 1_555 1_555
C48A O8A 1_555 1_555
H74A C48A 1_555 1_555
H75A C48A 1_555 1_555
Li2 O2 1_555 1_555
C5 C6 1_555 1_555
C6 C7 1_555 1_555
C9 C14 1_555 1_555
C13 C14 1_555 1_555
C15 C16 1_555 1_555
C35 C36 1_555 1_555
C39 C40 1_555 1_555
C43 C44 1_555 1_555
C45 C48 1_555 1_555
C46 C47 1_555 1_555
C50 C51 1_555 1_555
C50 C52 1_555 1_555
Li2A O2A 1_555 1_555
Li3A O4A 1_555 1_555
O4A C16A 1_555 1_555
C5A C6A 1_555 1_555
C6A C7A 1_555 1_555
C9A C14A 1_555 1_555
C13A C14A 1_555 1_555
C15A C16A 1_555 1_555
C35A C36A 1_555 1_555
C39A C40A 1_555 1_555
C43A C44A 1_555 1_555
C45A C48A 1_555 1_555
C46A C47A 1_555 1_555

#END
