
#######################################################################
#
#                 Cambridge Crystallographic Data Centre
#                                CCDC 
#
#######################################################################
#
# If this CIF has been generated from an entry in the Cambridge 
# Structural Database, then it will include bibliographic, chemical, 
# crystal, experimental, refinement or atomic coordinate data resulting 
# from the CCDC's data processing and validation procedures.
#
#######################################################################

data_ONIGOJ
_chemical_formula_moiety         'C28 H52 Li2 N4 O2 P2'
_chemical_name_systematic        
bis(\m-3,5-di-t-butyl-1,2,4-diazaphospholato)-bis(tetrahydrofuran)-di-lithium
_symmetry_cell_setting           monoclinic
_symmetry_space_group_name_H-M   'C 2/m'
_symmetry_Int_Tables_number      12
_space_group_name_Hall           '-C 2y'
loop_
_symmetry_equiv_pos_site_id
_symmetry_equiv_pos_as_xyz
1 x,y,z
2 -x,y,-z
3 1/2+x,1/2+y,z
4 1/2-x,1/2+y,-z
5 -x,-y,-z
6 x,-y,z
7 1/2-x,1/2-y,-z
8 1/2+x,1/2-y,z
_cell_length_a                   9.9007(11)
_cell_length_b                   18.4778(10)
_cell_length_c                   10.4804(10)
_cell_angle_alpha                90
_cell_angle_beta                 114.866(12)
_cell_angle_gamma                90
_cell_volume                     1739.57
_exptl_crystal_colour            colorless
_exptl_crystal_description       block
_cell_formula_units_Z            2
loop_
_atom_site_label
_atom_site_type_symbol
_atom_site_fract_x
_atom_site_fract_y
_atom_site_fract_z
P1 P 0.0000 0.22737(5) 0.0000
N1 N 0.0610(2) 0.09218(11) 0.0644(2)
C1 C 0.1051(3) 0.15871(12) 0.1116(2)
O1 O 0.2643(4) 0.0000 -0.0573(3)
C2 C 0.2369(3) 0.16703(16) 0.2548(3)
C3 C 0.2662(6) 0.0628(2) -0.1364(4)
H1 H 0.1910 0.0970 -0.1389
H2 H 0.3628 0.0862 -0.0942
C4 C 0.2789(5) 0.2477(2) 0.2833(5)
H3 H 0.1969 0.2740 0.2866
H4 H 0.3016 0.2667 0.2093
H5 H 0.3643 0.2525 0.3716
C5 C 0.1941(5) 0.1392(3) 0.3680(4)
H6 H 0.1094 0.1656 0.3653
H7 H 0.2761 0.1455 0.4583
H8 H 0.1697 0.0887 0.3526
C6 C 0.3722(4) 0.1285(2) 0.2549(4)
H9 H 0.4567 0.1376 0.3423
H10 H 0.3923 0.1461 0.1785
H11 H 0.3533 0.0774 0.2441
Li1 Li 0.1552(8) 0.0000 0.0545(7)
C7 C 0.2365(10) 0.0389(3) -0.2733(6)
H12 H 0.3121 0.0569 -0.3012
H13 H 0.1405 0.0569 -0.3394
N1A N -0.0610(2) 0.09218(11) -0.0644(2)
C1A C -0.1051(3) 0.15871(12) -0.1116(2)
C2A C -0.2369(3) 0.16703(16) -0.2548(3)
C4A C -0.2789(5) 0.2477(2) -0.2833(5)
H3A H -0.1969 0.2740 -0.2866
H4A H -0.3016 0.2667 -0.2093
H5A H -0.3643 0.2525 -0.3716
C5A C -0.1941(5) 0.1392(3) -0.3680(4)
H6A H -0.1094 0.1656 -0.3653
H7A H -0.2761 0.1455 -0.4583
H8A H -0.1697 0.0887 -0.3526
C6A C -0.3722(4) 0.1285(2) -0.2549(4)
H9A H -0.4567 0.1376 -0.3423
H10A H -0.3923 0.1461 -0.1785
H11A H -0.3533 0.0774 -0.2441
C3E C 0.2662(6) -0.0628(2) -0.1364(4)
H1E H 0.1910 -0.0970 -0.1389
H2E H 0.3628 -0.0862 -0.0942
C7E C 0.2365(10) -0.0389(3) -0.2733(6)
H12E H 0.3121 -0.0569 -0.3012
H13E H 0.1405 -0.0569 -0.3394
O1A O -0.2643(4) 0.0000 0.0573(3)
C3A C -0.2662(6) 0.0628(2) 0.1364(4)
H1A H -0.1910 0.0970 0.1389
H2A H -0.3628 0.0862 0.0942
Li1A Li -0.1552(8) 0.0000 -0.0545(7)
C7A C -0.2365(10) 0.0389(3) 0.2733(6)
H12A H -0.3121 0.0569 0.3012
H13A H -0.1405 0.0569 0.3394
C3D C -0.2662(6) -0.0628(2) 0.1364(4)
H1D H -0.1910 -0.0970 0.1389
H2D H -0.3628 -0.0862 0.0942
C7D C -0.2365(10) -0.0389(3) 0.2733(6)
H12D H -0.3121 -0.0569 0.3012
H13D H -0.1405 -0.0569 0.3394
P1D P 0.0000 -0.22737(5) 0.0000
N1D N -0.0610(2) -0.09218(11) -0.0644(2)
C1D C -0.1051(3) -0.15871(12) -0.1116(2)
C2D C -0.2369(3) -0.16703(16) -0.2548(3)
C4D C -0.2789(5) -0.2477(2) -0.2833(5)
H3D H -0.1969 -0.2740 -0.2866
H4D H -0.3016 -0.2667 -0.2093
H5D H -0.3643 -0.2525 -0.3716
C5D C -0.1941(5) -0.1392(3) -0.3680(4)
H6D H -0.1094 -0.1656 -0.3653
H7D H -0.2761 -0.1455 -0.4583
H8D H -0.1697 -0.0887 -0.3526
C6D C -0.3722(4) -0.1285(2) -0.2549(4)
H9D H -0.4567 -0.1376 -0.3423
H10D H -0.3923 -0.1461 -0.1785
H11D H -0.3533 -0.0774 -0.2441
N1E N 0.0610(2) -0.09218(11) 0.0644(2)
C1E C 0.1051(3) -0.15871(12) 0.1116(2)
C2E C 0.2369(3) -0.16703(16) 0.2548(3)
C4E C 0.2789(5) -0.2477(2) 0.2833(5)
H3E H 0.1969 -0.2740 0.2866
H4E H 0.3016 -0.2667 0.2093
H5E H 0.3643 -0.2525 0.3716
C5E C 0.1941(5) -0.1392(3) 0.3680(4)
H6E H 0.1094 -0.1656 0.3653
H7E H 0.2761 -0.1455 0.4583
H8E H 0.1697 -0.0887 0.3526
C6E C 0.3722(4) -0.1285(2) 0.2549(4)
H9E H 0.4567 -0.1376 0.3423
H10E H 0.3923 -0.1461 0.1785
H11E H 0.3533 -0.0774 0.2441
loop_
_geom_bond_atom_site_label_1
_geom_bond_atom_site_label_2
_geom_bond_site_symmetry_1
_geom_bond_site_symmetry_2
P1 C1 1_555 1_555
N1 C1 1_555 1_555
C1 C2 1_555 1_555
O1 C3 1_555 1_555
C2 C4 1_555 1_555
C3 H1 1_555 1_555
H2 C3 1_555 1_555
C4 H3 1_555 1_555
H4 C4 1_555 1_555
H5 C4 1_555 1_555
C5 C2 1_555 1_555
H6 C5 1_555 1_555
H7 C5 1_555 1_555
H8 C5 1_555 1_555
C6 C2 1_555 1_555
H9 C6 1_555 1_555
H10 C6 1_555 1_555
H11 C6 1_555 1_555
Li1 N1 1_555 1_555
C7 C3 1_555 1_555
H12 C7 1_555 1_555
H13 C7 1_555 1_555
N1A N1 1_555 1_555
C1A P1 1_555 1_555
C2A C1A 1_555 1_555
C4A C2A 1_555 1_555
H3A C4A 1_555 1_555
H4A C4A 1_555 1_555
H5A C4A 1_555 1_555
C5A C2A 1_555 1_555
H6A C5A 1_555 1_555
H7A C5A 1_555 1_555
H8A C5A 1_555 1_555
C6A C2A 1_555 1_555
H9A C6A 1_555 1_555
H10A C6A 1_555 1_555
H11A C6A 1_555 1_555
C3E O1 1_555 1_555
H1E C3E 1_555 1_555
H2E C3E 1_555 1_555
C7E C7 1_555 1_555
H12E C7E 1_555 1_555
H13E C7E 1_555 1_555
O1A C3A 1_555 1_555
C3A H1A 1_555 1_555
H2A C3A 1_555 1_555
Li1A N1A 1_555 1_555
C7A C3A 1_555 1_555
H12A C7A 1_555 1_555
H13A C7A 1_555 1_555
C3D O1A 1_555 1_555
H1D C3D 1_555 1_555
H2D C3D 1_555 1_555
C7D C7A 1_555 1_555
H12D C7D 1_555 1_555
H13D C7D 1_555 1_555
P1D C1D 1_555 1_555
N1D Li1A 1_555 1_555
C1D N1D 1_555 1_555
C2D C1D 1_555 1_555
C4D C2D 1_555 1_555
H3D C4D 1_555 1_555
H4D C4D 1_555 1_555
H5D C4D 1_555 1_555
C5D C2D 1_555 1_555
H6D C5D 1_555 1_555
H7D C5D 1_555 1_555
H8D C5D 1_555 1_555
C6D C2D 1_555 1_555
H9D C6D 1_555 1_555
H10D C6D 1_555 1_555
H11D C6D 1_555 1_555
N1E Li1 1_555 1_555
C1E P1D 1_555 1_555
C2E C1E 1_555 1_555
C4E C2E 1_555 1_555
H3E C4E 1_555 1_555
H4E C4E 1_555 1_555
H5E C4E 1_555 1_555
C5E C2E 1_555 1_555
H6E C5E 1_555 1_555
H7E C5E 1_555 1_555
H8E C5E 1_555 1_555
C6E C2E 1_555 1_555
H9E C6E 1_555 1_555
H10E C6E 1_555 1_555
H11E C6E 1_555 1_555
O1 Li1 1_555 1_555
N1A C1A 1_555 1_555
C3E C7E 1_555 1_555
O1A Li1A 1_555 1_555
C3D C7D 1_555 1_555
N1D N1E 1_555 1_555
N1E C1E 1_555 1_555

#END
