
#######################################################################
#
#                 Cambridge Crystallographic Data Centre
#                                CCDC 
#
#######################################################################
#
# If this CIF has been generated from an entry in the Cambridge 
# Structural Database, then it will include bibliographic, chemical, 
# crystal, experimental, refinement or atomic coordinate data resulting 
# from the CCDC's data processing and validation procedures.
#
#######################################################################

data_ONIJAY
_chemical_compound_source        'Edgeworthia gardneri'
_chemical_formula_moiety         'C19 H16 O7'
_chemical_name_systematic        
'methyl 3-(2-hydroxy-4-((7-hydroxy-2-oxo-2H-chromen-8-yl)oxy)phenyl)propanoate'
_chemical_properties_biological  '-glucosidase inhibitory activity'
_symmetry_cell_setting           monoclinic
_symmetry_space_group_name_H-M   'P 21/c'
_symmetry_Int_Tables_number      14
_space_group_name_Hall           '-P 2ybc'
loop_
_symmetry_equiv_pos_site_id
_symmetry_equiv_pos_as_xyz
1 x,y,z
2 -x,1/2+y,1/2-z
3 -x,-y,-z
4 x,1/2-y,1/2+z
_cell_length_a                   14.7352(17)
_cell_length_b                   8.7127(9)
_cell_length_c                   14.2158(12)
_cell_angle_alpha                90
_cell_angle_beta                 114.431(12)
_cell_angle_gamma                90
_cell_volume                     1661.66
_exptl_crystal_colour            'light colorless'
_exptl_crystal_description       block
_cell_formula_units_Z            4
loop_
_atom_site_label
_atom_site_type_symbol
_atom_site_fract_x
_atom_site_fract_y
_atom_site_fract_z
O1 O 0.48571(18) 0.2071(3) 0.45354(17)
O2 O 0.34171(17) -0.0085(3) 0.39455(16)
C1 C 0.3603(3) 0.0768(4) 0.4829(2)
C2 C 0.4383(3) 0.1812(4) 0.5175(2)
O3 O 0.2205(2) -0.0320(4) 0.02972(17)
H1 H 0.2749 -0.0730 0.0452
O4 O -0.0569(2) 0.2650(4) -0.20148(19)
O5 O -0.1558(2) 0.3897(4) -0.1470(2)
C3 C 0.2802(3) -0.0187(4) 0.2145(2)
H2 H 0.3275 -0.0942 0.2228
C4 C 0.3085(3) 0.0478(5) 0.5434(3)
O6 O 0.6033(2) 0.3151(4) 0.4209(2)
O7 O 0.2306(2) -0.0526(4) 0.5058(2)
C5 C 0.2742(2) 0.0480(5) 0.3000(2)
C6 C 0.3363(3) 0.1221(5) 0.6380(3)
H3 H 0.3012 0.1038 0.6782
C7 C 0.4673(3) 0.2551(4) 0.6121(3)
C8 C 0.2042(3) 0.1577(5) 0.2895(3)
H4 H 0.2004 0.2028 0.3471
C9 C 0.2155(3) 0.0273(5) 0.1170(3)
C10 C 0.5658(3) 0.3046(5) 0.4823(3)
C11 C 0.1422(3) 0.1373(5) 0.1018(3)
C12 C 0.4149(3) 0.2218(5) 0.6721(3)
H5 H 0.4339 0.2683 0.7363
C13 C 0.1390(3) 0.1996(5) 0.1904(3)
H6 H 0.0906 0.2730 0.1827
C14 C 0.5965(3) 0.3824(5) 0.5793(3)
H7 H 0.6499 0.4504 0.5996
C15 C 0.5498(3) 0.3593(5) 0.6413(3)
H8 H 0.5711 0.4113 0.7039
C16 C -0.0153(3) 0.2647(6) -0.0219(3)
H9 H 0.0028 0.3556 0.0214
H10 H -0.0531 0.1988 0.0037
C17 C -0.0832(3) 0.3138(5) -0.1294(3)
C18 C 0.0756(3) 0.1853(6) -0.0073(3)
H11 H 0.1140 0.2511 -0.0324
H12 H 0.0580 0.0941 -0.0503
C19 C -0.1221(4) 0.3085(7) -0.3070(3)
H13 H -0.1118 0.2399 -0.3545
H14 H -0.1072 0.4116 -0.3198
H15 H -0.1903 0.3026 -0.3161
H16 H 0.201(4) -0.064(7) 0.553(4)
loop_
_geom_bond_atom_site_label_1
_geom_bond_atom_site_label_2
_geom_bond_site_symmetry_1
_geom_bond_site_symmetry_2
O1 C2 1_555 1_555
O2 C1 1_555 1_555
C1 C2 1_555 1_555
C2 C7 1_555 1_555
O3 H1 1_555 1_555
O4 C17 1_555 1_555
O5 C17 1_555 1_555
C3 H2 1_555 1_555
C4 C1 1_555 1_555
O6 C10 1_555 1_555
O7 C4 1_555 1_555
C5 O2 1_555 1_555
C6 C4 1_555 1_555
H3 C6 1_555 1_555
C7 C12 1_555 1_555
C8 C5 1_555 1_555
H4 C8 1_555 1_555
C9 O3 1_555 1_555
C10 O1 1_555 1_555
C11 C9 1_555 1_555
C12 C6 1_555 1_555
H5 C12 1_555 1_555
C13 C8 1_555 1_555
H6 C13 1_555 1_555
C14 C10 1_555 1_555
H7 C14 1_555 1_555
C15 C7 1_555 1_555
H8 C15 1_555 1_555
C16 H9 1_555 1_555
H10 C16 1_555 1_555
C17 C16 1_555 1_555
C18 C11 1_555 1_555
H11 C18 1_555 1_555
H12 C18 1_555 1_555
C19 O4 1_555 1_555
H13 C19 1_555 1_555
H14 C19 1_555 1_555
H15 C19 1_555 1_555
H16 O7 1_555 1_555
C3 C5 1_555 1_555
C3 C9 1_555 1_555
C11 C13 1_555 1_555
C14 C15 1_555 1_555
C16 C18 1_555 1_555

#END
