
#######################################################################
#
#                 Cambridge Crystallographic Data Centre
#                                CCDC 
#
#######################################################################
#
# If this CIF has been generated from an entry in the Cambridge 
# Structural Database, then it will include bibliographic, chemical, 
# crystal, experimental, refinement or atomic coordinate data resulting 
# from the CCDC's data processing and validation procedures.
#
#######################################################################

data_ONIKED
_chemical_formula_moiety         'C1 H8 N5 1+,C2 H3 N6 O1 1-'
_chemical_name_systematic        
'dihydrazinomethaniminium (2-methyl-2H-tetrazol-5-yl)diazenolate'
_symmetry_cell_setting           monoclinic
_symmetry_space_group_name_H-M   'P 2/c'
_symmetry_Int_Tables_number      13
_space_group_name_Hall           '-P 2yc'
loop_
_symmetry_equiv_pos_site_id
_symmetry_equiv_pos_as_xyz
1 x,y,z
2 -x,y,1/2-z
3 -x,-y,-z
4 x,-y,1/2+z
_cell_length_a                   15.703(5)
_cell_length_b                   3.7767(11)
_cell_length_c                   16.028(5)
_cell_angle_alpha                90
_cell_angle_beta                 100.331(5)
_cell_angle_gamma                90
_cell_volume                     935.139
_exptl_crystal_colour            colorless
_exptl_crystal_description       Prism
_cell_formula_units_Z            4
loop_
_atom_site_label
_atom_site_type_symbol
_atom_site_fract_x
_atom_site_fract_y
_atom_site_fract_z
O1 O 0.10974(7) 0.9535(3) 0.31083(6)
C1 C 0.31202(9) 0.6087(4) 0.35007(8)
C2 C 0.52012(10) 0.2570(4) 0.36990(10)
H1 H 0.5459 0.1375 0.4227
H2 H 0.5568 0.4566 0.3598
H3 H 0.5154 0.0895 0.3226
N1 N 0.32297(8) 0.4813(3) 0.43068(7)
N2 N 0.40158(8) 0.3390(3) 0.44617(8)
N3 N 0.43440(8) 0.3866(3) 0.37680(8)
N4 N 0.38151(8) 0.5530(3) 0.31439(7)
N5 N 0.23886(8) 0.7735(3) 0.30447(7)
N6 N 0.17989(8) 0.8117(3) 0.35032(8)
C3 C 0.14766(9) 0.7971(4) 0.59714(8)
N7 N 0.01277(8) 0.5788(4) 0.62114(8)
H4 H 0.0109(11) 0.383(5) 0.6497(12)
N8 N 0.09323(8) 0.7431(4) 0.65073(8)
H5 H 0.1059(13) 0.823(6) 0.7022(14)
N9 N 0.22225(8) 0.9584(4) 0.62695(8)
H6 H 0.2335(13) 1.026(5) 0.6797(13)
N10 N 0.28495(9) 1.0378(4) 0.57730(8)
H7 H 0.3009(13) 0.840(6) 0.5536(14)
H8 H 0.2590(13) 1.185(6) 0.5319(14)
N11 N 0.12870(9) 0.6869(4) 0.51721(8)
H9 H 0.1629(13) 0.740(5) 0.4794(12)
H10 H 0.0761(14) 0.595(5) 0.4990(13)
H11 H -0.0282(12) 0.730(5) 0.6311(12)
loop_
_geom_bond_atom_site_label_1
_geom_bond_atom_site_label_2
_geom_bond_site_symmetry_1
_geom_bond_site_symmetry_2
O1 N6 1_555 1_555
C1 N1 1_555 1_555
C2 H1 1_555 1_555
H2 C2 1_555 1_555
H3 C2 1_555 1_555
N1 N2 1_555 1_555
N2 N3 1_555 1_555
N3 C2 1_555 1_555
N4 C1 1_555 1_555
N5 C1 1_555 1_555
N6 N5 1_555 1_555
C3 N8 1_555 1_555
N7 H4 1_555 1_555
N8 N7 1_555 1_555
H5 N8 1_555 1_555
N9 C3 1_555 1_555
H6 N9 1_555 1_555
N10 N9 1_555 1_555
H7 N10 1_555 1_555
H8 N10 1_555 1_555
N11 C3 1_555 1_555
H9 N11 1_555 1_555
H10 N11 1_555 1_555
H11 N7 1_555 1_555
N3 N4 1_555 1_555

#END
