
#######################################################################
#
#                 Cambridge Crystallographic Data Centre
#                                CCDC 
#
#######################################################################
#
# If this CIF has been generated from an entry in the Cambridge 
# Structural Database, then it will include bibliographic, chemical, 
# crystal, experimental, refinement or atomic coordinate data resulting 
# from the CCDC's data processing and validation procedures.
#
#######################################################################

data_ONILEE
_chemical_formula_moiety         'C28 H34 O8'
_chemical_name_systematic        
1,12-dihydroxy-15-(1-hydroxyhex-4-en-1-ylidene)-2,10,13,17-tetramethyl-5-(prop-1-en-1-yl)-4,11,18-trioxahexacyclo[8.8.0.0^2,16^.0^3,8^.0^9,13^.0^12,17^]octadec-3(8)-ene-7,14-dione
_chemical_properties_biological  'antibacterial activity'
_symmetry_cell_setting           orthorhombic
_symmetry_space_group_name_H-M   'P 21 21 2'
_symmetry_Int_Tables_number      18
_space_group_name_Hall           'P 2 2ab'
loop_
_symmetry_equiv_pos_site_id
_symmetry_equiv_pos_as_xyz
1 x,y,z
2 -x,-y,z
3 1/2+x,1/2-y,-z
4 1/2-x,1/2+y,-z
_cell_length_a                   23.0058(10)
_cell_length_b                   15.2127(5)
_cell_length_c                   7.8037(3)
_cell_angle_alpha                90
_cell_angle_beta                 90
_cell_angle_gamma                90
_cell_volume                     2731.14
_exptl_crystal_colour            'light yellow'
_exptl_crystal_description       block
_cell_formula_units_Z            4
loop_
_atom_site_label
_atom_site_type_symbol
_atom_site_fract_x
_atom_site_fract_y
_atom_site_fract_z
O1 O 0.33283(9) 0.38633(11) 0.2483(3)
O2 O 0.39088(9) 0.51849(13) 0.2473(3)
O3 O 0.40955(10) 0.50694(16) -0.0410(3)
H1 H 0.4280 0.4613 -0.0280
O4 O 0.30023(10) 0.41803(13) 0.5203(3)
H2 H 0.2843 0.3698 0.5220
O5 O 0.26550(12) 0.66064(15) -0.1433(3)
O6 O 0.15640(9) 0.54160(12) 0.2980(3)
O7 O 0.18188(13) 0.57755(18) -0.2543(4)
H3 H 0.1527 0.5662 -0.3103
O8 O 0.24981(11) 0.76611(14) 0.3738(3)
C1 C 0.26146(13) 0.44280(18) 0.0671(4)
H4 H 0.2428 0.3890 0.0256
C2 C 0.31113(13) 0.61155(17) 0.2594(4)
H5 H 0.3289 0.6664 0.2995
C3 C 0.32751(13) 0.42400(18) 0.0814(4)
C4 C 0.34107(13) 0.53565(17) 0.3545(4)
C5 C 0.36593(13) 0.51133(19) 0.0797(4)
C6 C 0.30309(13) 0.44799(17) 0.3542(4)
C7 C 0.32998(13) 0.59826(18) 0.0668(4)
C8 C 0.24259(12) 0.45567(15) 0.2603(4)
C9 C 0.27819(14) 0.59122(19) -0.0506(4)
C10 C 0.21501(13) 0.54362(17) 0.2882(4)
C11 C 0.24537(13) 0.51562(19) -0.0545(4)
C12 C 0.24693(13) 0.61744(17) 0.2951(4)
C13 C 0.19552(16) 0.5116(2) -0.1637(4)
C14 C 0.22142(14) 0.69879(18) 0.3530(4)
C15 C 0.15806(15) 0.4312(2) -0.1750(5)
H6 H 0.1463 0.4146 -0.0601
H7 H 0.1812 0.3834 -0.2210
C16 C 0.15756(14) 0.69453(19) 0.3923(4)
H8 H 0.1401 0.7519 0.3751
H9 H 0.1519 0.6778 0.5111
C17 C 0.10387(17) 0.4411(3) -0.2845(6)
H10 H 0.0780 0.4833 -0.2311
H11 H 0.1148 0.4640 -0.3960
C18 C 0.12859(14) 0.62756(19) 0.2756(4)
H12 H 0.1346 0.6463 0.1568
C19 C 0.0723(2) 0.3555(3) -0.3077(7)
H13 H 0.0935 0.3096 -0.3558
C20 C 0.06481(15) 0.6160(2) 0.3033(5)
H14 H 0.0524 0.5919 0.4065
C21 C 0.0191(2) 0.3388(4) -0.2680(8)
H15 H -0.0022 0.3848 -0.2209
C22 C 0.02598(19) 0.6375(4) 0.1918(7)
H16 H 0.0395 0.6588 0.0874
C23 C -0.0125(3) 0.2529(5) -0.2896(10)
H17 H -0.0497 0.2634 -0.3414
H18 H -0.0179 0.2259 -0.1795
H19 H 0.0099 0.2146 -0.3616
C24 C -0.0393(2) 0.6318(5) 0.2131(9)
H20 H -0.0556 0.5985 0.1203
H21 H -0.0556 0.6900 0.2128
H22 H -0.0482 0.6034 0.3198
C25 C 0.34718(15) 0.3560(2) -0.0491(5)
H23 H 0.3879 0.3444 -0.0340
H24 H 0.3405 0.3780 -0.1627
H25 H 0.3256 0.3026 -0.0329
C26 C 0.36227(15) 0.5612(2) 0.5292(4)
H26 H 0.3808 0.5117 0.5823
H27 H 0.3299 0.5797 0.5981
H28 H 0.3896 0.6086 0.5191
C27 C 0.36913(16) 0.67492(19) 0.0109(5)
H29 H 0.3790 0.6683 -0.1079
H30 H 0.4040 0.6749 0.0785
H31 H 0.3489 0.7294 0.0273
C28 C 0.20222(14) 0.38047(18) 0.3134(4)
H32 H 0.1691 0.3790 0.2386
H33 H 0.1894 0.3895 0.4292
H34 H 0.2228 0.3257 0.3059
loop_
_geom_bond_atom_site_label_1
_geom_bond_atom_site_label_2
_geom_bond_site_symmetry_1
_geom_bond_site_symmetry_2
O1 C3 1_555 1_555
O2 C4 1_555 1_555
O3 H1 1_555 1_555
O4 H2 1_555 1_555
O5 C9 1_555 1_555
O6 C10 1_555 1_555
O7 H3 1_555 1_555
O8 C14 1_555 1_555
C1 H4 1_555 1_555
C2 H5 1_555 1_555
C3 C1 1_555 1_555
C4 C2 1_555 1_555
C5 O2 1_555 1_555
C6 O1 1_555 1_555
C7 C2 1_555 1_555
C8 C1 1_555 1_555
C9 C7 1_555 1_555
C10 C8 1_555 1_555
C11 C1 1_555 1_555
C12 C2 1_555 1_555
C13 O7 1_555 1_555
C14 C12 1_555 1_555
C15 C13 1_555 1_555
H6 C15 1_555 1_555
H7 C15 1_555 1_555
C16 C14 1_555 1_555
H8 C16 1_555 1_555
H9 C16 1_555 1_555
C17 C15 1_555 1_555
H10 C17 1_555 1_555
H11 C17 1_555 1_555
C18 O6 1_555 1_555
H12 C18 1_555 1_555
C19 C17 1_555 1_555
H13 C19 1_555 1_555
C20 C18 1_555 1_555
H14 C20 1_555 1_555
C21 C19 1_555 1_555
H15 C21 1_555 1_555
C22 C20 1_555 1_555
H16 C22 1_555 1_555
C23 C21 1_555 1_555
H17 C23 1_555 1_555
H18 C23 1_555 1_555
H19 C23 1_555 1_555
C24 C22 1_555 1_555
H20 C24 1_555 1_555
H21 C24 1_555 1_555
H22 C24 1_555 1_555
C25 C3 1_555 1_555
H23 C25 1_555 1_555
H24 C25 1_555 1_555
H25 C25 1_555 1_555
C26 C4 1_555 1_555
H26 C26 1_555 1_555
H27 C26 1_555 1_555
H28 C26 1_555 1_555
C27 C7 1_555 1_555
H29 C27 1_555 1_555
H30 C27 1_555 1_555
H31 C27 1_555 1_555
C28 C8 1_555 1_555
H32 C28 1_555 1_555
H33 C28 1_555 1_555
H34 C28 1_555 1_555
O3 C5 1_555 1_555
O4 C6 1_555 1_555
C3 C5 1_555 1_555
C4 C6 1_555 1_555
C5 C7 1_555 1_555
C6 C8 1_555 1_555
C9 C11 1_555 1_555
C10 C12 1_555 1_555
C11 C13 1_555 1_555
C16 C18 1_555 1_555

#END
