
#######################################################################
#
#                 Cambridge Crystallographic Data Centre
#                                CCDC 
#
#######################################################################
#
# If this CIF has been generated from an entry in the Cambridge 
# Structural Database, then it will include bibliographic, chemical, 
# crystal, experimental, refinement or atomic coordinate data resulting 
# from the CCDC's data processing and validation procedures.
#
#######################################################################

data_ONIMEE
_chemical_formula_moiety         'C17 H25 N1 O5'
_chemical_name_systematic        
3-(t-Butylperoxy)-3-((t-butylperoxy)methyl)-1,3-dihydro-2H-indol-2-one
_symmetry_cell_setting           monoclinic
_symmetry_space_group_name_H-M   'P 21/n'
_symmetry_Int_Tables_number      14
_space_group_name_Hall           '-P 2yn'
loop_
_symmetry_equiv_pos_site_id
_symmetry_equiv_pos_as_xyz
1 x,y,z
2 1/2-x,1/2+y,1/2-z
3 -x,-y,-z
4 1/2+x,1/2-y,1/2+z
_cell_length_a                   11.4665(13)
_cell_length_b                   7.9203(9)
_cell_length_c                   19.816(2)
_cell_angle_alpha                90
_cell_angle_beta                 95.306(2)
_cell_angle_gamma                90
_cell_volume                     1791.94
_cell_formula_units_Z            4
loop_
_atom_site_label
_atom_site_type_symbol
_atom_site_fract_x
_atom_site_fract_y
_atom_site_fract_z
C1 C 0.38276(16) 0.4906(3) 0.24186(10)
C2 C 0.47222(15) 0.4285(2) 0.19399(10)
C3 C 0.47441(15) 0.5711(2) 0.14467(9)
C4 C 0.53265(18) 0.5904(3) 0.08735(11)
H1 H 0.5856 0.5090 0.0755
C5 C 0.51098(18) 0.7329(3) 0.04783(11)
H2 H 0.5502 0.7480 0.0093
C6 C 0.43173(18) 0.8528(3) 0.06512(12)
H3 H 0.4181 0.9475 0.0378
C7 C 0.37245(19) 0.8349(3) 0.12193(11)
H4 H 0.3187 0.9155 0.1334
C8 C 0.39565(16) 0.6931(2) 0.16116(10)
C9 C 0.70084(18) 0.4708(3) 0.32749(11)
C10 C 0.7189(2) 0.6235(3) 0.37308(12)
H5 H 0.7449 0.7170 0.3475
H6 H 0.7770 0.5983 0.4098
H7 H 0.6464 0.6521 0.3909
C11 C 0.81016(19) 0.4295(3) 0.29392(13)
H8 H 0.7943 0.3382 0.2625
H9 H 0.8713 0.3969 0.3278
H10 H 0.8345 0.5270 0.2701
C12 C 0.6555(2) 0.3203(3) 0.36460(13)
H11 H 0.5812 0.3480 0.3805
H12 H 0.7102 0.2920 0.4025
H13 H 0.6462 0.2257 0.3343
C13 C 0.43855(18) 0.2568(3) 0.16259(11)
H14 H 0.5070 0.2077 0.1449
H15 H 0.4155 0.1826 0.1980
C14 C 0.14980(18) 0.3512(3) 0.09263(11)
C15 C 0.18434(18) 0.4759(3) 0.04008(11)
H16 H 0.2052 0.5816 0.0616
H17 H 0.1196 0.4927 0.0064
H18 H 0.2501 0.4325 0.0189
C16 C 0.05820(19) 0.4229(3) 0.13555(13)
H19 H 0.0441 0.3440 0.1706
H20 H -0.0133 0.4426 0.1075
H21 H 0.0860 0.5274 0.1556
C17 C 0.11192(19) 0.1831(3) 0.06117(12)
H22 H 0.1754 0.1351 0.0392
H23 H 0.0459 0.2000 0.0284
H24 H 0.0905 0.1077 0.0959
N1 N 0.34579(14) 0.6451(2) 0.22015(9)
H25 H 0.2924 0.7015 0.2346
O1 O 0.34985(14) 0.4115(2) 0.28936(8)
O2 O 0.58175(12) 0.38799(18) 0.23055(8)
O3 O 0.61018(12) 0.53150(18) 0.27697(7)
O4 O 0.34724(12) 0.26307(19) 0.11026(7)
O5 O 0.24586(12) 0.32338(18) 0.14400(7)
loop_
_geom_bond_atom_site_label_1
_geom_bond_atom_site_label_2
_geom_bond_site_symmetry_1
_geom_bond_site_symmetry_2
C1 C2 1_555 1_555
C2 C3 1_555 1_555
C3 C4 1_555 1_555
C4 H1 1_555 1_555
C5 C4 1_555 1_555
H2 C5 1_555 1_555
C6 C5 1_555 1_555
H3 C6 1_555 1_555
C7 C6 1_555 1_555
H4 C7 1_555 1_555
C8 C3 1_555 1_555
C9 C10 1_555 1_555
C10 H5 1_555 1_555
H6 C10 1_555 1_555
H7 C10 1_555 1_555
C11 C9 1_555 1_555
H8 C11 1_555 1_555
H9 C11 1_555 1_555
H10 C11 1_555 1_555
C12 C9 1_555 1_555
H11 C12 1_555 1_555
H12 C12 1_555 1_555
H13 C12 1_555 1_555
C13 C2 1_555 1_555
H14 C13 1_555 1_555
H15 C13 1_555 1_555
C14 C15 1_555 1_555
C15 H16 1_555 1_555
H17 C15 1_555 1_555
H18 C15 1_555 1_555
C16 C14 1_555 1_555
H19 C16 1_555 1_555
H20 C16 1_555 1_555
H21 C16 1_555 1_555
C17 C14 1_555 1_555
H22 C17 1_555 1_555
H23 C17 1_555 1_555
H24 C17 1_555 1_555
N1 C1 1_555 1_555
H25 N1 1_555 1_555
O1 C1 1_555 1_555
O2 C2 1_555 1_555
O3 C9 1_555 1_555
O4 C13 1_555 1_555
O5 C14 1_555 1_555
C7 C8 1_555 1_555
C8 N1 1_555 1_555
O2 O3 1_555 1_555
O4 O5 1_555 1_555

#END
