
#######################################################################
#
#                 Cambridge Crystallographic Data Centre
#                                CCDC 
#
#######################################################################
#
# If this CIF has been generated from an entry in the Cambridge 
# Structural Database, then it will include bibliographic, chemical, 
# crystal, experimental, refinement or atomic coordinate data resulting 
# from the CCDC's data processing and validation procedures.
#
#######################################################################

data_ONITAN
_chemical_name_common            o-Nitroaniline
_chemical_formula_moiety         'C6 H6 N2 O2'
_chemical_name_systematic        2-Nitroaniline
_symmetry_cell_setting           monoclinic
_symmetry_space_group_name_H-M   'P 21/a'
_symmetry_Int_Tables_number      14
_space_group_name_Hall           '-P 2yab'
loop_
_symmetry_equiv_pos_site_id
_symmetry_equiv_pos_as_xyz
1 x,y,z
2 1/2-x,1/2+y,-z
3 -x,-y,-z
4 1/2+x,1/2-y,z
_cell_length_a                   15.45(2)
_cell_length_b                   10.01(2)
_cell_length_c                   8.57(1)
_cell_angle_alpha                90
_cell_angle_beta                 107.4(2)
_cell_angle_gamma                90
_cell_volume                     1264.74
_cell_formula_units_Z            8
loop_
_atom_site_label
_atom_site_type_symbol
_atom_site_fract_x
_atom_site_fract_y
_atom_site_fract_z
C1 C 0.06820 0.29650 -0.43590
C2 C 0.10450 0.19520 -0.50060
C3 C 0.20090 0.17890 -0.46210
C4 C 0.26150 0.26640 -0.36400
C5 C 0.22090 0.36870 -0.30350
C6 C 0.13030 0.38520 -0.33090
N1 N -0.02190 0.32130 -0.45770
N2 N 0.05020 0.09360 -0.61600
O1 O -0.03180 0.10390 -0.64190
O2 O 0.08830 0.00700 -0.67030
H1 H 0.22600 0.10800 -0.50300
H2 H 0.32600 0.26000 -0.34400
H3 H 0.25400 0.43200 -0.23200
H4 H 0.10500 0.46200 -0.27300
H5 H -0.03300 0.40700 -0.42400
H6 H -0.04300 0.25500 -0.49700
C7 C 0.08740 0.20830 -0.00030
C8 C 0.12420 0.31240 0.11280
C9 C 0.22100 0.33060 0.17480
C10 C 0.27640 0.24680 0.12130
C11 C 0.24210 0.14490 0.01490
C12 C 0.14910 0.12350 -0.04130
N3 N -0.00230 0.18170 -0.05440
N4 N 0.07050 0.40420 0.17190
O3 O -0.01350 0.38890 0.12730
O4 O 0.10540 0.49780 0.26000
H7 H 0.23700 0.39900 0.22900
H8 H 0.34200 0.26900 0.15100
H9 H 0.27800 0.07500 -0.01100
H10 H 0.11400 0.03100 -0.12700
H11 H -0.03200 0.09400 -0.11000
H12 H -0.03300 0.25500 -0.04700
loop_
_geom_bond_atom_site_label_1
_geom_bond_atom_site_label_2
_geom_bond_site_symmetry_1
_geom_bond_site_symmetry_2
C1 C2 1_555 1_555
C2 C3 1_555 1_555
C3 C4 1_555 1_555
C4 C5 1_555 1_555
C5 C6 1_555 1_555
C6 C1 1_555 1_555
N1 C1 1_555 1_555
N2 C2 1_555 1_555
O1 N2 1_555 1_555
O2 N2 1_555 1_555
H1 C3 1_555 1_555
H2 C4 1_555 1_555
H3 C5 1_555 1_555
H4 C6 1_555 1_555
H5 N1 1_555 1_555
H6 N1 1_555 1_555
C7 C8 1_555 1_555
C8 C9 1_555 1_555
C9 C10 1_555 1_555
C10 C11 1_555 1_555
C11 C12 1_555 1_555
C12 C7 1_555 1_555
N3 C7 1_555 1_555
N4 C8 1_555 1_555
O3 N4 1_555 1_555
O4 N4 1_555 1_555
H7 C9 1_555 1_555
H8 C10 1_555 1_555
H9 C11 1_555 1_555
H10 C12 1_555 1_555
H11 N3 1_555 1_555
H12 N3 1_555 1_555

#END
