
#######################################################################
#
#                 Cambridge Crystallographic Data Centre
#                                CCDC 
#
#######################################################################
#
# If this CIF has been generated from an entry in the Cambridge 
# Structural Database, then it will include bibliographic, chemical, 
# crystal, experimental, refinement or atomic coordinate data resulting 
# from the CCDC's data processing and validation procedures.
#
#######################################################################

data_ONITPH01
_chemical_formula_moiety         'C6 H5 N1 O3'
_chemical_name_systematic        2-nitrophenol
_symmetry_cell_setting           monoclinic
_symmetry_space_group_name_H-M   'P 21/c'
_symmetry_Int_Tables_number      14
_space_group_name_Hall           '-P 2ybc'
loop_
_symmetry_equiv_pos_site_id
_symmetry_equiv_pos_as_xyz
1 x,y,z
2 -x,1/2+y,1/2-z
3 -x,-y,-z
4 x,1/2-y,1/2+z
_cell_length_a                   6.3511(6)
_cell_length_b                   14.3305(14)
_cell_length_c                   6.6757(6)
_cell_angle_alpha                90
_cell_angle_beta                 103.348(2)
_cell_angle_gamma                90
_cell_volume                     591.172
_exptl_crystal_colour            yellow
_exptl_crystal_description       block
_cell_formula_units_Z            4
loop_
_atom_site_label
_atom_site_type_symbol
_atom_site_fract_x
_atom_site_fract_y
_atom_site_fract_z
O1 O 0.38553(12) 0.67485(6) 0.54131(13)
H1 H 0.443(3) 0.6160(15) 0.556(3)
N1 N 0.82933(14) 0.60384(6) 0.66946(13)
C1 C 0.55884(15) 0.73181(7) 0.59071(15)
O2 O 0.67944(13) 0.54530(5) 0.62690(13)
C2 C 0.77512(15) 0.70215(6) 0.65153(15)
O3 O 1.01920(13) 0.58080(6) 0.72739(14)
C3 C 0.94591(16) 0.76574(7) 0.69923(15)
H2 H 1.0909 0.7440 0.7381
C4 C 0.90333(17) 0.86036(7) 0.68978(16)
H3 H 1.0184 0.9042 0.7223
C5 C 0.68816(17) 0.89091(7) 0.63161(16)
H4 H 0.6580 0.9559 0.6264
C6 C 0.51918(17) 0.82807(7) 0.58181(16)
H5 H 0.3747 0.8503 0.5411
loop_
_geom_bond_atom_site_label_1
_geom_bond_atom_site_label_2
_geom_bond_site_symmetry_1
_geom_bond_site_symmetry_2
O1 H1 1_555 1_555
N1 O2 1_555 1_555
C1 O1 1_555 1_555
C2 N1 1_555 1_555
O3 N1 1_555 1_555
C3 C2 1_555 1_555
H2 C3 1_555 1_555
C4 C3 1_555 1_555
H3 C4 1_555 1_555
C5 C4 1_555 1_555
H4 C5 1_555 1_555
C6 C1 1_555 1_555
H5 C6 1_555 1_555
C1 C2 1_555 1_555
C5 C6 1_555 1_555

#END
