
#######################################################################
#
#                 Cambridge Crystallographic Data Centre
#                                CCDC 
#
#######################################################################
#
# If this CIF has been generated from an entry in the Cambridge 
# Structural Database, then it will include bibliographic, chemical, 
# crystal, experimental, refinement or atomic coordinate data resulting 
# from the CCDC's data processing and validation procedures.
#
#######################################################################

data_ONIYUG
_chemical_formula_moiety         'C58 H72 B1 N3 O4,C8 H18'
_chemical_name_systematic        
'methoxy-(5,10,15-tris(3,5-di-t-butyl-4-hydroxyphenyl)subporphyrinato)-boron(iii) n-octane solvate'
_symmetry_cell_setting           monoclinic
_symmetry_space_group_name_H-M   'P 21/a'
_symmetry_Int_Tables_number      14
_space_group_name_Hall           '-P 2yab'
loop_
_symmetry_equiv_pos_site_id
_symmetry_equiv_pos_as_xyz
1 x,y,z
2 1/2-x,1/2+y,-z
3 -x,-y,-z
4 1/2+x,1/2-y,z
_cell_length_a                   18.016(5)
_cell_length_b                   18.660(4)
_cell_length_c                   19.494(4)
_cell_angle_alpha                90
_cell_angle_beta                 116.063(9)
_cell_angle_gamma                90
_cell_volume                     5887.05
_exptl_crystal_colour            violet
_exptl_crystal_description       prism
_cell_formula_units_Z            4
loop_
_atom_site_label
_atom_site_type_symbol
_atom_site_fract_x
_atom_site_fract_y
_atom_site_fract_z
O1 O 0.14003(12) 0.06590(10) 0.88370(11)
N1 N 0.15142(14) 0.10595(11) 0.77057(13)
O2 O 0.22229(15) -0.40898(10) 0.85186(15)
H1 H 0.1847 -0.4274 0.8606
N2 N 0.23878(14) 0.01078(11) 0.84128(13)
N3 N 0.09588(14) -0.01011(11) 0.76823(13)
O3 O 0.57105(14) 0.30464(12) 0.89342(17)
H2 H 0.5582 0.3483 0.8879
C1 C 0.18816(19) 0.19654(14) 0.71741(17)
H3 H 0.2196 0.2334 0.7090
C2 C 0.10703(18) -0.08245(14) 0.77808(17)
C3 C -0.16917(19) 0.08437(15) 0.47995(17)
C4 C 0.25893(19) -0.29868(15) 0.81619(17)
C5 C 0.37470(18) -0.00176(15) 0.88491(17)
H4 H 0.4319 0.0087 0.9033
C6 C -0.06054(18) 0.10120(15) 0.60905(17)
C7 C 0.15428(18) -0.22658(15) 0.86469(17)
H5 H 0.1185 -0.2015 0.8805
C8 C 0.19853(18) -0.18806(14) 0.83414(17)
C9 C 0.29950(18) 0.12113(14) 0.82705(17)
C10 C -0.09314(19) 0.16838(15) 0.61116(17)
H6 H -0.0667 0.1967 0.6560
C11 C 0.44653(18) 0.14510(15) 0.85040(17)
H7 H 0.4531 0.0954 0.8439
C12 C 0.21907(18) 0.14498(14) 0.77815(17)
C13 C 0.42488(18) 0.29216(15) 0.86353(17)
C14 C 0.18674(18) -0.10964(14) 0.82469(17)
C15 C 0.34149(19) -0.06835(15) 0.88320(17)
H8 H 0.3717 -0.1118 0.8995
C16 C 0.10642(19) 0.18379(15) 0.67390(18)
H9 H 0.0711 0.2101 0.6299
C17 C 0.25404(18) -0.06127(14) 0.85283(16)
C18 C -0.1624(2) 0.19559(16) 0.55066(17)
C19 C 0.37026(18) 0.16960(14) 0.84234(16)
C20 C 0.21337(19) -0.33553(15) 0.84782(18)
C21 C -0.09917(19) 0.06048(15) 0.54291(17)
H10 H -0.0770 0.0148 0.5407
O4 O -0.26725(15) 0.17962(12) 0.42469(13)
H11 H -0.2847 0.1492 0.3893
C22 C 0.41006(19) 0.37308(15) 0.86736(18)
C23 C -0.01776(19) -0.06069(15) 0.67880(18)
H12 H -0.0713 -0.0668 0.6379
C24 C 0.36172(19) 0.24282(15) 0.84941(17)
H13 H 0.3100 0.2602 0.8444
C25 C 0.02448(18) 0.00639(14) 0.70546(17)
C26 C 0.1438(2) 0.01243(17) 0.93680(18)
H14 H 0.0964 -0.0199 0.9129
H15 H 0.1425 0.0352 0.9816
H16 H 0.1952 -0.0149 0.9527
C27 C 0.30870(18) 0.04928(14) 0.85427(16)
C28 C -0.1644(2) -0.03306(17) 0.4162(2)
H17 H -0.1923 -0.0613 0.3694
H18 H -0.1643 -0.0598 0.4595
H19 H -0.1073 -0.0236 0.4253
C29 C -0.19881(19) 0.15283(16) 0.48554(17)
C30 C 0.50106(19) 0.26387(15) 0.87403(18)
C31 C 0.03272(18) -0.11423(15) 0.72275(17)
H20 H 0.0204 -0.1640 0.7173
C32 C 0.01432(18) 0.07701(15) 0.67572(17)
C33 C 0.16062(19) -0.30070(15) 0.87298(17)
C34 C 0.25027(18) -0.22478(15) 0.81111(17)
H21 H 0.2812 -0.1983 0.7910
C35 C 0.4246(2) 0.41274(16) 0.80510(19)
H22 H 0.3866 0.3942 0.7548
H23 H 0.4817 0.4052 0.8132
H24 H 0.4147 0.4641 0.8076
C36 C 0.3557(2) -0.28460(18) 0.7542(2)
H25 H 0.3119 -0.2632 0.7084
H26 H 0.3946 -0.3102 0.7402
H27 H 0.3850 -0.2468 0.7911
C37 C 0.08276(18) 0.12411(14) 0.70579(17)
B1 B 0.1555(2) 0.04390(16) 0.8198(2)
C38 C -0.1964(2) 0.26973(17) 0.55675(19)
C39 C 0.4657(2) 0.40251(18) 0.9470(2)
H28 H 0.4597 0.4547 0.9470
H29 H 0.5234 0.3905 0.9604
H30 H 0.4497 0.3812 0.9845
C40 C 0.51337(19) 0.19037(15) 0.86752(18)
C41 C 0.5966(2) 0.16081(17) 0.8749(2)
C42 C -0.2097(2) 0.03784(16) 0.40774(18)
C43 C 0.3173(2) -0.33737(16) 0.78996(19)
C44 C 0.5943(2) 0.07937(18) 0.8659(2)
H31 H 0.5826 0.0571 0.9056
H32 H 0.6479 0.0625 0.8708
H33 H 0.5510 0.0662 0.8155
C45 C 0.3215(2) 0.38944(16) 0.8527(2)
H34 H 0.2834 0.3715 0.8022
H35 H 0.3145 0.4414 0.8548
H36 H 0.3096 0.3660 0.8918
C46 C 0.2717(2) -0.39460(18) 0.7290(2)
H37 H 0.2488 -0.4310 0.7504
H38 H 0.3105 -0.4172 0.7128
H39 H 0.2268 -0.3720 0.6849
C47 C -0.1471(2) 0.30336(18) 0.6351(2)
H40 H -0.1730 0.3486 0.6383
H41 H -0.0904 0.3125 0.6427
H42 H -0.1461 0.2705 0.6747
C48 C 0.0674(2) -0.28864(19) 0.9393(2)
H43 H 0.1086 -0.2573 0.9774
H44 H 0.0384 -0.3158 0.9631
H45 H 0.0276 -0.2595 0.8975
C49 C 0.0428(2) -0.38568(19) 0.8465(2)
H46 H 0.0056 -0.3543 0.8055
H47 H 0.0113 -0.4110 0.8692
H48 H 0.0680 -0.4206 0.8256
C50 C 0.3880(2) -0.37196(18) 0.8587(2)
H49 H 0.4163 -0.3354 0.8976
H50 H 0.4273 -0.3937 0.8426
H51 H 0.3658 -0.4090 0.8802
C51 C 0.1106(2) -0.34052(17) 0.9080(2)
C52 C 0.6134(2) 0.19302(19) 0.8110(2)
H52 H 0.5673 0.1820 0.7615
H53 H 0.6645 0.1726 0.8131
H54 H 0.6193 0.2451 0.8175
C53 C 0.1662(3) -0.3879(2) 0.9757(2)
H55 H 0.1342 -0.4058 1.0018
H56 H 0.2131 -0.3597 1.0115
H57 H 0.1866 -0.4285 0.9570
C54 C 0.6666(2) 0.17806(19) 0.9524(2)
H58 H 0.6742 0.2301 0.9578
H59 H 0.7177 0.1556 0.9567
H60 H 0.6533 0.1596 0.9927
C55 C -0.2988(2) 0.0189(2) 0.3921(2)
H61 H -0.3233 -0.0121 0.3471
H62 H -0.3314 0.0629 0.3830
H63 H -0.2984 -0.0063 0.4364
C56 C -0.1928(3) 0.32109(19) 0.4971(2)
H64 H -0.2161 0.3676 0.5009
H65 H -0.2249 0.3012 0.4459
H66 H -0.1352 0.3274 0.5062
C57 C -0.2857(2) 0.2624(2) 0.5456(2)
H67 H -0.2881 0.2266 0.5813
H68 H -0.3209 0.2471 0.4931
H69 H -0.3050 0.3087 0.5551
C58 C -0.2075(3) 0.0752(2) 0.3388(2)
H70 H -0.1500 0.0829 0.3484
H71 H -0.2359 0.1214 0.3305
H72 H -0.2353 0.0451 0.2934
C59 C 0.5507(4) -0.2078(4) 0.6091(4)
H73 H 0.5904 -0.2258 0.6598
H74 H 0.5825 -0.1785 0.5889
C60 C 0.5464(4) -0.0335(4) 0.6138(3)
H75 H 0.4957 -0.0229 0.5667
H76 H 0.5867 -0.0552 0.5981
C61 C 0.4924(3) -0.1599(4) 0.6207(3)
H77 H 0.4695 -0.1861 0.6513
H78 H 0.4459 -0.1502 0.5701
C62 C 0.5165(4) -0.2715(3) 0.5572(3)
H79 H 0.4789 -0.2981 0.5720
H80 H 0.5620 -0.3028 0.5615
H81 H 0.4864 -0.2550 0.5043
C63 C 0.5822(5) 0.0373(3) 0.6543(4)
H82 H 0.5396 0.0612 0.6654
H83 H 0.6294 0.0262 0.7040
C64 C 0.6838(5) 0.0611(4) 0.5990(4)
H84 H 0.7328 0.0549 0.6479
H85 H 0.6958 0.0958 0.5675
H86 H 0.6687 0.0149 0.5723
C65 C 0.5253(4) -0.0882(4) 0.6596(4)
H87 H 0.4836 -0.0669 0.6737
H88 H 0.5756 -0.0973 0.7076
C66 C 0.6107(6) 0.0890(4) 0.6138(4)
H89 H 0.6281 0.1336 0.6442
H90 H 0.5639 0.1009 0.5642
loop_
_geom_bond_atom_site_label_1
_geom_bond_atom_site_label_2
_geom_bond_site_symmetry_1
_geom_bond_site_symmetry_2
O1 C26 1_555 1_555
N1 C12 1_555 1_555
O2 H1 1_555 1_555
N2 C17 1_555 1_555
N3 C2 1_555 1_555
O3 H2 1_555 1_555
C1 H3 1_555 1_555
C2 C14 1_555 1_555
C3 C21 1_555 1_555
C4 C20 1_555 1_555
C5 H4 1_555 1_555
C6 C10 1_555 1_555
C7 H5 1_555 1_555
C8 C7 1_555 1_555
C9 C12 1_555 1_555
C10 H6 1_555 1_555
C11 H7 1_555 1_555
C12 C1 1_555 1_555
C13 C22 1_555 1_555
C14 C8 1_555 1_555
C15 C5 1_555 1_555
H8 C15 1_555 1_555
C16 C1 1_555 1_555
H9 C16 1_555 1_555
C17 C14 1_555 1_555
C18 C10 1_555 1_555
C19 C9 1_555 1_555
C20 O2 1_555 1_555
C21 C6 1_555 1_555
H10 C21 1_555 1_555
O4 H11 1_555 1_555
C22 C35 1_555 1_555
C23 H12 1_555 1_555
C24 C13 1_555 1_555
H13 C24 1_555 1_555
C25 N3 1_555 1_555
C26 H14 1_555 1_555
H15 C26 1_555 1_555
H16 C26 1_555 1_555
C27 N2 1_555 1_555
C28 H17 1_555 1_555
H18 C28 1_555 1_555
H19 C28 1_555 1_555
C29 C3 1_555 1_555
C30 O3 1_555 1_555
C31 C2 1_555 1_555
H20 C31 1_555 1_555
C32 C6 1_555 1_555
C33 C7 1_555 1_555
C34 C4 1_555 1_555
H21 C34 1_555 1_555
C35 H22 1_555 1_555
H23 C35 1_555 1_555
H24 C35 1_555 1_555
C36 H25 1_555 1_555
H26 C36 1_555 1_555
H27 C36 1_555 1_555
C37 N1 1_555 1_555
B1 O1 1_555 1_555
C38 C18 1_555 1_555
C39 C22 1_555 1_555
H28 C39 1_555 1_555
H29 C39 1_555 1_555
H30 C39 1_555 1_555
C40 C11 1_555 1_555
C41 C40 1_555 1_555
C42 C3 1_555 1_555
C43 C4 1_555 1_555
C44 C41 1_555 1_555
H31 C44 1_555 1_555
H32 C44 1_555 1_555
H33 C44 1_555 1_555
C45 C22 1_555 1_555
H34 C45 1_555 1_555
H35 C45 1_555 1_555
H36 C45 1_555 1_555
C46 C43 1_555 1_555
H37 C46 1_555 1_555
H38 C46 1_555 1_555
H39 C46 1_555 1_555
C47 C38 1_555 1_555
H40 C47 1_555 1_555
H41 C47 1_555 1_555
H42 C47 1_555 1_555
C48 H43 1_555 1_555
H44 C48 1_555 1_555
H45 C48 1_555 1_555
C49 H46 1_555 1_555
H47 C49 1_555 1_555
H48 C49 1_555 1_555
C50 C43 1_555 1_555
H49 C50 1_555 1_555
H50 C50 1_555 1_555
H51 C50 1_555 1_555
C51 C33 1_555 1_555
C52 C41 1_555 1_555
H52 C52 1_555 1_555
H53 C52 1_555 1_555
H54 C52 1_555 1_555
C53 C51 1_555 1_555
H55 C53 1_555 1_555
H56 C53 1_555 1_555
H57 C53 1_555 1_555
C54 C41 1_555 1_555
H58 C54 1_555 1_555
H59 C54 1_555 1_555
H60 C54 1_555 1_555
C55 C42 1_555 1_555
H61 C55 1_555 1_555
H62 C55 1_555 1_555
H63 C55 1_555 1_555
C56 C38 1_555 1_555
H64 C56 1_555 1_555
H65 C56 1_555 1_555
H66 C56 1_555 1_555
C57 C38 1_555 1_555
H67 C57 1_555 1_555
H68 C57 1_555 1_555
H69 C57 1_555 1_555
C58 C42 1_555 1_555
H70 C58 1_555 1_555
H71 C58 1_555 1_555
H72 C58 1_555 1_555
C59 H73 1_555 1_555
H74 C59 1_555 1_555
C60 H75 1_555 1_555
H76 C60 1_555 1_555
C61 C59 1_555 1_555
H77 C61 1_555 1_555
H78 C61 1_555 1_555
C62 C59 1_555 1_555
H79 C62 1_555 1_555
H80 C62 1_555 1_555
H81 C62 1_555 1_555
C63 C60 1_555 1_555
H82 C63 1_555 1_555
H83 C63 1_555 1_555
C64 H84 1_555 1_555
H85 C64 1_555 1_555
H86 C64 1_555 1_555
C65 C60 1_555 1_555
H87 C65 1_555 1_555
H88 C65 1_555 1_555
C66 C63 1_555 1_555
H89 C66 1_555 1_555
H90 C66 1_555 1_555
N1 B1 1_555 1_555
N2 B1 1_555 1_555
N3 B1 1_555 1_555
C5 C27 1_555 1_555
C8 C34 1_555 1_555
C9 C27 1_555 1_555
C11 C19 1_555 1_555
C13 C30 1_555 1_555
C15 C17 1_555 1_555
C16 C37 1_555 1_555
C18 C29 1_555 1_555
C19 C24 1_555 1_555
C20 C33 1_555 1_555
O4 C29 1_555 1_555
C23 C25 1_555 1_555
C23 C31 1_555 1_555
C25 C32 1_555 1_555
C28 C42 1_555 1_555
C30 C40 1_555 1_555
C32 C37 1_555 1_555
C36 C43 1_555 1_555
C48 C51 1_555 1_555
C49 C51 1_555 1_555
C61 C65 1_555 1_555
C64 C66 1_555 1_555

#END
