
#######################################################################
#
#                 Cambridge Crystallographic Data Centre
#                                CCDC 
#
#######################################################################
#
# If this CIF has been generated from an entry in the Cambridge 
# Structural Database, then it will include bibliographic, chemical, 
# crystal, experimental, refinement or atomic coordinate data resulting 
# from the CCDC's data processing and validation procedures.
#
#######################################################################

data_ONIZAO
_chemical_compound_source        'Hypericum japonicum'
_chemical_formula_moiety         'C20 H30 O6'
_chemical_name_systematic        
2-methyl-1-(2,4,6-trihydroxy-3-((2-hydroxy-5-(2-hydroxypropan-2-yl)-2-methylcyclopentyl)methyl)phenyl)propan-1-one
_symmetry_cell_setting           orthorhombic
_symmetry_space_group_name_H-M   'P 21 21 21'
_symmetry_Int_Tables_number      19
_space_group_name_Hall           'P 2ac 2ab'
loop_
_symmetry_equiv_pos_site_id
_symmetry_equiv_pos_as_xyz
1 x,y,z
2 1/2+x,1/2-y,-z
3 -x,1/2+y,1/2-z
4 1/2-x,-y,1/2+z
_cell_length_a                   9.9306(12)
_cell_length_b                   13.3269(16)
_cell_length_c                   14.2698(17)
_cell_angle_alpha                90
_cell_angle_beta                 90
_cell_angle_gamma                90
_cell_volume                     1888.52
_exptl_crystal_colour            brown
_exptl_crystal_description       block
_cell_formula_units_Z            4
loop_
_atom_site_label
_atom_site_type_symbol
_atom_site_fract_x
_atom_site_fract_y
_atom_site_fract_z
O1 O -0.14130(13) 0.11230(9) 1.34710(9)
H1 H -0.2147 0.0810 1.3467
O2 O -0.09023(14) 0.13896(9) 0.96819(8)
H2 H -0.0827 0.1925 0.9376
O3 O 0.09063(14) -0.19746(9) 1.10506(8)
H3 H 0.1240 -0.2542 1.1157
O4 O 0.17708(14) -0.30033(9) 0.79510(9)
H4 H 0.1560 -0.2872 0.7394
O5 O 0.07941(15) -0.19965(9) 0.66235(8)
O6 O -0.10591(13) -0.01542(9) 0.85655(8)
H5 H -0.1057 0.0319 0.8954
C1 C -0.0500(2) -0.04684(13) 1.29774(12)
H6 H -0.0277 -0.0610 1.3633
H7 H 0.0165 -0.0788 1.2567
H8 H -0.1398 -0.0734 1.2836
C2 C -0.04879(18) 0.06583(12) 1.28160(12)
C3 C -0.09807(19) 0.09127(12) 1.18159(12)
H9 H -0.1924 0.0660 1.1753
C4 C -0.01290(18) 0.04348(12) 1.10125(12)
H10 H 0.0730 0.0183 1.1292
C5 C -0.08571(18) -0.04656(12) 1.05555(12)
H11 H -0.1131 -0.0932 1.1061
H12 H -0.1691 -0.0213 1.0257
C6 C -0.00846(19) -0.10586(12) 0.98322(12)
C7 C -0.02306(18) -0.08984(12) 0.88725(12)
C8 C 0.04057(18) -0.15158(12) 0.81843(12)
C9 C 0.03645(18) -0.13350(13) 0.71652(12)
C10 C -0.00627(19) -0.03425(13) 0.67359(12)
H13 H -0.0908 -0.0114 0.7051
C11 C 0.1047(2) 0.04379(13) 0.69211(14)
H14 H 0.1183 0.0509 0.7598
H15 H 0.0777 0.1086 0.6656
H16 H 0.1888 0.0217 0.6627
C12 C 0.0876(2) 0.10982(14) 1.30581(13)
H17 H 0.0841 0.1830 1.3000
H18 H 0.1557 0.0831 1.2628
H19 H 0.1113 0.0917 1.3703
C13 C 0.0222(2) 0.13022(13) 1.03401(12)
C14 C 0.0203(3) 0.22223(13) 1.09703(13)
H20 H 0.1047 0.2273 1.1337
H21 H 0.0087 0.2843 1.0597
C15 C -0.0996(2) 0.20511(13) 1.16093(13)
H22 H -0.1844 0.2248 1.1295
H23 H -0.0902 0.2442 1.2195
C16 C 0.1523(2) 0.11808(16) 0.98013(14)
H24 H 0.1506 0.0546 0.9455
H25 H 0.2283 0.1179 1.0240
H26 H 0.1624 0.1739 0.9360
C17 C 0.07468(19) -0.18528(12) 1.01213(12)
C18 C 0.13643(19) -0.24885(13) 0.94816(12)
H27 H 0.1919 -0.3023 0.9695
C19 C 0.11690(19) -0.23403(12) 0.85309(13)
C20 C -0.0333(2) -0.04351(15) 0.56891(12)
H28 H 0.0487 -0.0659 0.5370
H29 H -0.0608 0.0219 0.5440
H30 H -0.1054 -0.0925 0.5584
loop_
_geom_bond_atom_site_label_1
_geom_bond_atom_site_label_2
_geom_bond_site_symmetry_1
_geom_bond_site_symmetry_2
O1 H1 1_555 1_555
O2 H2 1_555 1_555
O3 H3 1_555 1_555
O4 H4 1_555 1_555
O5 C9 1_555 1_555
O6 H5 1_555 1_555
C1 H6 1_555 1_555
H7 C1 1_555 1_555
H8 C1 1_555 1_555
C2 O1 1_555 1_555
C3 C2 1_555 1_555
H9 C3 1_555 1_555
C4 C3 1_555 1_555
H10 C4 1_555 1_555
C5 C4 1_555 1_555
H11 C5 1_555 1_555
H12 C5 1_555 1_555
C6 C5 1_555 1_555
C7 O6 1_555 1_555
C8 C7 1_555 1_555
C9 C8 1_555 1_555
C10 C9 1_555 1_555
H13 C10 1_555 1_555
C11 C10 1_555 1_555
H14 C11 1_555 1_555
H15 C11 1_555 1_555
H16 C11 1_555 1_555
C12 C2 1_555 1_555
H17 C12 1_555 1_555
H18 C12 1_555 1_555
H19 C12 1_555 1_555
C13 O2 1_555 1_555
C14 C13 1_555 1_555
H20 C14 1_555 1_555
H21 C14 1_555 1_555
C15 C3 1_555 1_555
H22 C15 1_555 1_555
H23 C15 1_555 1_555
C16 C13 1_555 1_555
H24 C16 1_555 1_555
H25 C16 1_555 1_555
H26 C16 1_555 1_555
C17 O3 1_555 1_555
C18 C17 1_555 1_555
H27 C18 1_555 1_555
C19 O4 1_555 1_555
C20 C10 1_555 1_555
H28 C20 1_555 1_555
H29 C20 1_555 1_555
H30 C20 1_555 1_555
C1 C2 1_555 1_555
C4 C13 1_555 1_555
C6 C7 1_555 1_555
C6 C17 1_555 1_555
C8 C19 1_555 1_555
C14 C15 1_555 1_555
C18 C19 1_555 1_555

#END
