
#######################################################################
#
#                 Cambridge Crystallographic Data Centre
#                                CCDC 
#
#######################################################################
#
# If this CIF has been generated from an entry in the Cambridge 
# Structural Database, then it will include bibliographic, chemical, 
# crystal, experimental, refinement or atomic coordinate data resulting 
# from the CCDC's data processing and validation procedures.
#
#######################################################################

data_ONIZAN
_chemical_formula_moiety         
'C57 H68 B1 N3 O4,0.37(C3 H6 O1),0.25(C2 H3 N1)'
_chemical_name_systematic        
'hydroxo-(5,10-bis(3,5-di-t-butyl-4-oxocyclohexadienylidene)-15-(3,5-di-t-butyl-4-hydroxyphenyl)subporphyrinato)-boron(iii) acetone acetonitrile solvate'
_symmetry_cell_setting           monoclinic
_symmetry_space_group_name_H-M   'P 21/a'
_symmetry_Int_Tables_number      14
_space_group_name_Hall           '-P 2yab'
loop_
_symmetry_equiv_pos_site_id
_symmetry_equiv_pos_as_xyz
1 x,y,z
2 1/2-x,1/2+y,-z
3 -x,-y,-z
4 1/2+x,1/2-y,z
_cell_length_a                   14.919(3)
_cell_length_b                   24.058(6)
_cell_length_c                   18.377(5)
_cell_angle_alpha                90
_cell_angle_beta                 114.996(9)
_cell_angle_gamma                90
_cell_volume                     5978.11
_exptl_crystal_colour            violet
_exptl_crystal_description       prism
_cell_formula_units_Z            4
loop_
_atom_site_label
_atom_site_type_symbol
_atom_site_fract_x
_atom_site_fract_y
_atom_site_fract_z
O1 O -0.01441(15) -0.10911(8) 0.25937(13)
H1 H -0.0393 -0.0930 0.2871
N1 N 0.05854(18) -0.08562(10) 0.16820(14)
O2 O 0.47082(17) -0.29174(9) 0.19563(16)
H2 H 0.4692 -0.3216 0.2188
N2 N 0.02904(17) -0.01133(10) 0.24214(14)
O3 O 0.12072(17) 0.07325(10) 0.65818(13)
O4 O -0.3841(2) 0.05330(11) -0.16403(15)
C1 C 0.1982(2) 0.01364(13) 0.60044(18)
C2 C 0.2097(2) -0.13912(12) 0.23229(18)
C3 C 0.1991(2) -0.00302(13) 0.53065(18)
H3 H 0.2380 -0.0345 0.5315
C4 C -0.0264(2) 0.01528(12) 0.17196(18)
N3 N 0.15861(17) -0.07599(10) 0.30939(14)
C5 C 0.1283(2) -0.12057(12) 0.16212(18)
C6 C 0.0713(2) 0.02533(12) 0.30383(18)
C7 C -0.0646(2) -0.01716(12) 0.09718(18)
C8 C 0.2427(2) -0.22143(13) 0.16824(19)
H4 H 0.1733 -0.2247 0.1380
C9 C -0.1529(2) -0.00465(12) 0.03299(18)
C10 C 0.1377(2) 0.00210(12) 0.38269(18)
C11 C -0.3019(2) 0.05342(13) -0.02251(19)
C12 C 0.2259(2) -0.11426(12) 0.30717(18)
C13 C -0.0196(2) 0.07187(13) 0.18973(19)
H5 H -0.0508 0.1010 0.1528
C14 C 0.2786(2) -0.17819(13) 0.22327(18)
C15 C 0.1354(2) 0.06181(13) 0.59846(19)
C16 C 0.0009(2) -0.06279(12) 0.09707(18)
C17 C 0.0899(2) 0.09466(13) 0.52433(18)
C18 C 0.1446(2) 0.02420(13) 0.45503(18)
C19 C 0.1097(2) -0.12053(13) 0.08025(18)
H6 H 0.1449 -0.1413 0.0568
C20 C -0.1867(2) -0.03429(13) -0.04195(18)
H7 H -0.1507 -0.0661 -0.0450
C21 C 0.3808(2) -0.17206(13) 0.26509(18)
H8 H 0.4063 -0.1415 0.3006
C22 C 0.5582(2) -0.19942(14) 0.3000(2)
C23 C -0.3733(2) 0.09577(14) -0.0136(2)
C24 C -0.2667(2) -0.01890(13) -0.10773(18)
C25 C 0.0925(2) 0.07385(13) 0.45721(19)
H9 H 0.0576 0.0932 0.4082
C26 C -0.0617(2) 0.13424(15) 0.5299(2)
H10 H -0.1015 0.1091 0.4862
H11 H -0.0989 0.1685 0.5262
H12 H -0.0465 0.1162 0.5816
C27 C 0.4462(2) -0.20955(13) 0.25607(19)
C28 C 0.2581(3) -0.30476(14) 0.0899(2)
C29 C 0.0318(2) -0.08520(13) 0.04031(19)
H13 H 0.0037 -0.0773 -0.0156
C30 C 0.3076(2) -0.11053(14) 0.38304(19)
H14 H 0.3656 -0.1328 0.4011
C31 C 0.0410(2) 0.07815(13) 0.27135(19)
H15 H 0.0585 0.1123 0.2998
C32 C -0.2190(2) 0.03648(13) 0.03993(19)
H16 H -0.2034 0.0525 0.0912
C33 C 0.3039(2) -0.25998(12) 0.15553(19)
C34 C 0.3153(2) -0.06534(15) 0.6691(2)
H17 H 0.2722 -0.0923 0.6300
H18 H 0.3511 -0.0837 0.7210
H19 H 0.3627 -0.0503 0.6502
B1 B 0.0525(3) -0.07223(14) 0.2465(2)
C35 C 0.2523(2) -0.01782(14) 0.67870(19)
C36 C 0.4058(2) -0.25462(13) 0.2032(2)
C37 C 0.0346(2) 0.14813(14) 0.52333(19)
C38 C 0.1943(2) -0.04672(13) 0.37831(18)
C39 C 0.1771(3) -0.04421(16) 0.7060(2)
H20 H 0.1396 -0.0148 0.7176
H21 H 0.2125 -0.0664 0.7545
H22 H 0.1316 -0.0682 0.6632
C40 C 0.2887(2) -0.06901(14) 0.42614(19)
H23 H 0.3316 -0.0574 0.4789
C41 C -0.3024(2) -0.05065(14) -0.18705(19)
C42 C -0.3642(3) 0.15077(14) -0.0510(2)
H24 H -0.3782 0.1449 -0.1076
H25 H -0.2969 0.1653 -0.0223
H26 H -0.4115 0.1775 -0.0472
C43 C 0.6016(3) -0.19133(16) 0.2386(2)
H27 H 0.5735 -0.1578 0.2070
H28 H 0.5855 -0.2236 0.2028
H29 H 0.6736 -0.1874 0.2668
C44 C 0.2584(3) -0.36156(14) 0.1271(2)
H30 H 0.2230 -0.3591 0.1614
H31 H 0.3268 -0.3732 0.1595
H32 H 0.2257 -0.3888 0.0844
C45 C -0.3222(2) 0.03123(14) -0.1031(2)
C46 C 0.0075(3) 0.18027(15) 0.4448(2)
H33 H 0.0677 0.1883 0.4377
H34 H -0.0249 0.2153 0.4470
H35 H -0.0375 0.1579 0.3996
C47 C 0.1504(3) -0.29143(16) 0.0353(2)
H36 H 0.1239 -0.3198 -0.0067
H37 H 0.1464 -0.2549 0.0105
H38 H 0.1116 -0.2910 0.0670
C48 C 0.3222(3) 0.02120(16) 0.7445(2)
H39 H 0.3704 0.0374 0.7272
H40 H 0.3572 0.0001 0.7942
H41 H 0.2838 0.0510 0.7541
C49 C -0.4102(3) -0.06739(18) -0.2142(2)
H42 H -0.4325 -0.0880 -0.2649
H43 H -0.4509 -0.0340 -0.2221
H44 H -0.4166 -0.0910 -0.1732
C50 C 0.3136(3) -0.30876(17) 0.0359(3)
H45 H 0.2807 -0.3361 -0.0067
H46 H 0.3820 -0.3204 0.0682
H47 H 0.3133 -0.2724 0.0119
C51 C 0.6103(3) -0.24850(17) 0.3566(2)
H48 H 0.6817 -0.2416 0.3827
H49 H 0.5975 -0.2829 0.3253
H50 H 0.5847 -0.2520 0.3975
C52 C -0.4796(3) 0.07396(16) -0.0553(3)
H51 H -0.4992 0.0716 -0.1133
H52 H -0.5242 0.0994 -0.0449
H53 H -0.4834 0.0370 -0.0344
C53 C 0.0996(3) 0.18669(15) 0.5918(2)
H54 H 0.1137 0.1689 0.6435
H55 H 0.0649 0.2219 0.5881
H56 H 0.1619 0.1939 0.5875
C54 C 0.5822(3) -0.14718(17) 0.3519(2)
H57 H 0.6540 -0.1423 0.3789
H58 H 0.5556 -0.1509 0.3921
H59 H 0.5523 -0.1148 0.3179
C55 C -0.2410(3) -0.10298(16) -0.1791(2)
H60 H -0.2431 -0.1266 -0.1365
H61 H -0.1723 -0.0925 -0.1658
H62 H -0.2680 -0.1234 -0.2300
C56 C -0.2911(3) -0.01377(18) -0.2511(2)
H63 H -0.3104 -0.0349 -0.3011
H64 H -0.2220 -0.0020 -0.2321
H65 H -0.3336 0.0190 -0.2610
C57 C -0.3496(3) 0.10589(18) 0.0741(2)
H66 H -0.4002 0.1301 0.0780
H67 H -0.2847 0.1238 0.1005
H68 H -0.3487 0.0703 0.1005
C58 C -0.0875(17) 0.3834(13) 0.4446(17)
C59 C -0.192(2) 0.3640(13) 0.4255(16)
H69 H -0.2031 0.3280 0.3981
H70 H -0.2391 0.3912 0.3907
H71 H -0.1996 0.3601 0.4755
O5 O -0.0176(16) 0.3678(15) 0.4486(13)
C60 C -0.103(3) 0.4347(15) 0.483(2)
H72 H -0.0415 0.4567 0.5033
H73 H -0.1197 0.4249 0.5268
H74 H -0.1563 0.4566 0.4426
C61 C 0.043(4) 0.249(2) 0.195(3)
H75 H 0.1025 0.2583 0.2428
H76 H 0.0292 0.2780 0.1544
H77 H 0.0518 0.2133 0.1733
N4 N -0.128(3) 0.237(2) 0.204(3)
C62 C -0.045(3) 0.245(2) 0.218(3)
loop_
_geom_bond_atom_site_label_1
_geom_bond_atom_site_label_2
_geom_bond_site_symmetry_1
_geom_bond_site_symmetry_2
O1 H1 1_555 1_555
N1 C5 1_555 1_555
O2 H2 1_555 1_555
N2 C4 1_555 1_555
O3 C15 1_555 1_555
O4 C45 1_555 1_555
C1 C3 1_555 1_555
C2 C5 1_555 1_555
C3 H3 1_555 1_555
C4 C7 1_555 1_555
N3 C12 1_555 1_555
C5 C19 1_555 1_555
C6 N2 1_555 1_555
C7 C9 1_555 1_555
C8 H4 1_555 1_555
C9 C20 1_555 1_555
C10 C6 1_555 1_555
C11 C23 1_555 1_555
C12 C2 1_555 1_555
C13 C4 1_555 1_555
H5 C13 1_555 1_555
C14 C2 1_555 1_555
C15 C1 1_555 1_555
C16 N1 1_555 1_555
C17 C15 1_555 1_555
C18 C3 1_555 1_555
C19 H6 1_555 1_555
C20 H7 1_555 1_555
C21 C14 1_555 1_555
H8 C21 1_555 1_555
C22 C27 1_555 1_555
C23 C42 1_555 1_555
C24 C20 1_555 1_555
C25 C17 1_555 1_555
H9 C25 1_555 1_555
C26 H10 1_555 1_555
H11 C26 1_555 1_555
H12 C26 1_555 1_555
C27 C21 1_555 1_555
C28 C33 1_555 1_555
C29 C16 1_555 1_555
H13 C29 1_555 1_555
C30 C12 1_555 1_555
H14 C30 1_555 1_555
C31 C6 1_555 1_555
H15 C31 1_555 1_555
C32 C9 1_555 1_555
H16 C32 1_555 1_555
C33 C8 1_555 1_555
C34 H17 1_555 1_555
H18 C34 1_555 1_555
H19 C34 1_555 1_555
B1 O1 1_555 1_555
C35 C1 1_555 1_555
C36 O2 1_555 1_555
C37 C17 1_555 1_555
C38 N3 1_555 1_555
C39 C35 1_555 1_555
H20 C39 1_555 1_555
H21 C39 1_555 1_555
H22 C39 1_555 1_555
C40 C30 1_555 1_555
H23 C40 1_555 1_555
C41 C24 1_555 1_555
C42 H24 1_555 1_555
H25 C42 1_555 1_555
H26 C42 1_555 1_555
C43 C22 1_555 1_555
H27 C43 1_555 1_555
H28 C43 1_555 1_555
H29 C43 1_555 1_555
C44 C28 1_555 1_555
H30 C44 1_555 1_555
H31 C44 1_555 1_555
H32 C44 1_555 1_555
C45 C11 1_555 1_555
C46 C37 1_555 1_555
H33 C46 1_555 1_555
H34 C46 1_555 1_555
H35 C46 1_555 1_555
C47 C28 1_555 1_555
H36 C47 1_555 1_555
H37 C47 1_555 1_555
H38 C47 1_555 1_555
C48 C35 1_555 1_555
H39 C48 1_555 1_555
H40 C48 1_555 1_555
H41 C48 1_555 1_555
C49 C41 1_555 1_555
H42 C49 1_555 1_555
H43 C49 1_555 1_555
H44 C49 1_555 1_555
C50 C28 1_555 1_555
H45 C50 1_555 1_555
H46 C50 1_555 1_555
H47 C50 1_555 1_555
C51 C22 1_555 1_555
H48 C51 1_555 1_555
H49 C51 1_555 1_555
H50 C51 1_555 1_555
C52 C23 1_555 1_555
H51 C52 1_555 1_555
H52 C52 1_555 1_555
H53 C52 1_555 1_555
C53 C37 1_555 1_555
H54 C53 1_555 1_555
H55 C53 1_555 1_555
H56 C53 1_555 1_555
C54 C22 1_555 1_555
H57 C54 1_555 1_555
H58 C54 1_555 1_555
H59 C54 1_555 1_555
C55 C41 1_555 1_555
H60 C55 1_555 1_555
H61 C55 1_555 1_555
H62 C55 1_555 1_555
C56 C41 1_555 1_555
H63 C56 1_555 1_555
H64 C56 1_555 1_555
H65 C56 1_555 1_555
C57 C23 1_555 1_555
H66 C57 1_555 1_555
H67 C57 1_555 1_555
H68 C57 1_555 1_555
C58 C59 1_555 1_555
C59 H69 1_555 1_555
H70 C59 1_555 1_555
H71 C59 1_555 1_555
O5 C58 1_555 1_555
C60 C58 1_555 1_555
H72 C60 1_555 1_555
H73 C60 1_555 1_555
H74 C60 1_555 1_555
C61 H75 1_555 1_555
H76 C61 1_555 1_555
H77 C61 1_555 1_555
N4 C62 1_555 1_555
C62 C61 1_555 1_555
N1 B1 1_555 1_555
N2 B1 1_555 1_555
N3 B1 1_555 1_555
C7 C16 1_555 1_555
C8 C14 1_555 1_555
C10 C18 1_555 1_555
C10 C38 1_555 1_555
C11 C32 1_555 1_555
C13 C31 1_555 1_555
C18 C25 1_555 1_555
C19 C29 1_555 1_555
C24 C45 1_555 1_555
C26 C37 1_555 1_555
C27 C36 1_555 1_555
C33 C36 1_555 1_555
C34 C35 1_555 1_555
C38 C40 1_555 1_555

#END
