
#######################################################################
#
#                 Cambridge Crystallographic Data Centre
#                                CCDC 
#
#######################################################################
#
# If this CIF has been generated from an entry in the Cambridge 
# Structural Database, then it will include bibliographic, chemical, 
# crystal, experimental, refinement or atomic coordinate data resulting 
# from the CCDC's data processing and validation procedures.
#
#######################################################################

data_ONOBUP
_chemical_formula_moiety         'C15 H23 N1 O3 S1'
_chemical_name_systematic        
1-(t-butylsulfonyl)-2-(2-phenylethyl)azetidin-3-ol
_symmetry_cell_setting           monoclinic
_symmetry_space_group_name_H-M   'P 21'
_symmetry_Int_Tables_number      4
_space_group_name_Hall           'P 2yb'
loop_
_symmetry_equiv_pos_site_id
_symmetry_equiv_pos_as_xyz
1 x,y,z
2 -x,1/2+y,-z
_cell_length_a                   10.787(3)
_cell_length_b                   5.8351(13)
_cell_length_c                   12.999(3)
_cell_angle_alpha                90
_cell_angle_beta                 105.889(7)
_cell_angle_gamma                90
_cell_volume                     786.939
_exptl_crystal_colour            colorless
_exptl_crystal_description       plate
_cell_formula_units_Z            2
loop_
_atom_site_label
_atom_site_type_symbol
_atom_site_fract_x
_atom_site_fract_y
_atom_site_fract_z
C1 C 0.2453(4) 0.4742(8) 0.9886(4)
C2 C 0.1353(5) 0.6105(9) 1.0051(4)
H1 H 0.1250 0.7476 0.9628
H2 H 0.1523 0.6504 1.0793
H3 H 0.0578 0.5210 0.9838
C3 C 0.3663(4) 0.6139(9) 1.0055(4)
H4 H 0.3941 0.6637 1.0786
H5 H 0.3495 0.7451 0.9592
H6 H 0.4325 0.5221 0.9896
C4 C 0.2697(5) 0.2642(9) 1.0581(4)
H7 H 0.2960 0.3091 1.1319
H8 H 0.3365 0.1742 1.0420
H9 H 0.1921 0.1750 1.0447
C5 C 0.0392(4) 0.6881(10) 0.7243(4)
H10 H 0.0015 0.7936 0.7649
H11 H -0.0201 0.5649 0.6943
C6 C 0.0974(4) 0.8035(10) 0.6445(3)
H12 H 0.1166 0.9640 0.6650
C7 C 0.2190(4) 0.6567(8) 0.6879(3)
H13 H 0.2158 0.5183 0.6446
C8 C 0.3504(4) 0.7666(9) 0.7124(3)
H14 H 0.3556 0.8889 0.7640
H15 H 0.4157 0.6536 0.7441
C9 C 0.3762(5) 0.8621(14) 0.6129(4)
H16 H 0.3148 0.9834 0.5847
H17 H 0.3634 0.7423 0.5593
C10 C 0.5114(4) 0.9560(9) 0.6333(3)
C11 C 0.6048(5) 0.8387(10) 0.6019(3)
H18 H 0.5844 0.6984 0.5675
C12 C 0.7256(5) 0.9214(13) 0.6196(4)
H19 H 0.7868 0.8373 0.5974
C13 C 0.7586(6) 1.1225(14) 0.6687(5)
H20 H 0.8423 1.1772 0.6808
C14 C 0.6697(7) 1.2462(10) 0.7008(4)
H21 H 0.6922 1.3865 0.7347
C15 C 0.5464(5) 1.1645(9) 0.6832(4)
H22 H 0.4857 1.2505 0.7052
N1 N 0.1707(3) 0.6090(7) 0.7821(3)
O1 O 0.0851(4) 0.2451(7) 0.8349(3)
O2 O 0.3083(3) 0.2733(6) 0.8300(3)
O3 O 0.0305(4) 0.7907(9) 0.5363(3)
H23 H 0.0142 0.6563 0.5194
S1 S 0.20019(10) 0.3742(2) 0.85183(9)
loop_
_geom_bond_atom_site_label_1
_geom_bond_atom_site_label_2
_geom_bond_site_symmetry_1
_geom_bond_site_symmetry_2
C1 C2 1_555 1_555
C2 H1 1_555 1_555
H2 C2 1_555 1_555
H3 C2 1_555 1_555
C3 C1 1_555 1_555
H4 C3 1_555 1_555
H5 C3 1_555 1_555
H6 C3 1_555 1_555
C4 C1 1_555 1_555
H7 C4 1_555 1_555
H8 C4 1_555 1_555
H9 C4 1_555 1_555
C5 H10 1_555 1_555
H11 C5 1_555 1_555
C6 C5 1_555 1_555
H12 C6 1_555 1_555
C7 C6 1_555 1_555
H13 C7 1_555 1_555
C8 C7 1_555 1_555
H14 C8 1_555 1_555
H15 C8 1_555 1_555
C9 C8 1_555 1_555
H16 C9 1_555 1_555
H17 C9 1_555 1_555
C10 C9 1_555 1_555
C11 C10 1_555 1_555
H18 C11 1_555 1_555
C12 C11 1_555 1_555
H19 C12 1_555 1_555
C13 C12 1_555 1_555
H20 C13 1_555 1_555
C14 C13 1_555 1_555
H21 C14 1_555 1_555
C15 C10 1_555 1_555
H22 C15 1_555 1_555
N1 C5 1_555 1_555
O1 S1 1_555 1_555
O2 S1 1_555 1_555
O3 C6 1_555 1_555
H23 O3 1_555 1_555
S1 C1 1_555 1_555
C7 N1 1_555 1_555
C14 C15 1_555 1_555
N1 S1 1_555 1_555

#END
