
#######################################################################
#
#                 Cambridge Crystallographic Data Centre
#                                CCDC 
#
#######################################################################
#
# If this CIF has been generated from an entry in the Cambridge 
# Structural Database, then it will include bibliographic, chemical, 
# crystal, experimental, refinement or atomic coordinate data resulting 
# from the CCDC's data processing and validation procedures.
#
#######################################################################

data_ONOCAW
_chemical_formula_moiety         'C11 H15 N1 O4 S1'
_chemical_name_systematic        
N-(3-(2-Furyl)-2-hydroxyprop-2-en-1-ylidene)-2-methylpropane-2-sulfonamide
_symmetry_cell_setting           monoclinic
_symmetry_space_group_name_H-M   'P 21/c'
_symmetry_Int_Tables_number      14
_space_group_name_Hall           '-P 2ybc'
loop_
_symmetry_equiv_pos_site_id
_symmetry_equiv_pos_as_xyz
1 x,y,z
2 -x,1/2+y,1/2-z
3 -x,-y,-z
4 x,1/2-y,1/2+z
_cell_length_a                   10.3951(14)
_cell_length_b                   12.1742(16)
_cell_length_c                   10.4530(14)
_cell_angle_alpha                90
_cell_angle_beta                 112.157(2)
_cell_angle_gamma                90
_cell_volume                     1225.16
_exptl_crystal_colour            yellow
_exptl_crystal_description       block
_cell_formula_units_Z            4
loop_
_atom_site_label
_atom_site_type_symbol
_atom_site_fract_x
_atom_site_fract_y
_atom_site_fract_z
C1 C 0.4235(4) 0.1050(3) 0.2310(4)
C2 C 0.5122(5) 0.1760(4) 0.3489(6)
H1 H 0.6075 0.1537 0.3773
H2 H 0.4824 0.1684 0.4249
H3 H 0.5033 0.2513 0.3197
C3 C 0.4453(5) -0.0168(4) 0.2676(6)
H4 H 0.5415 -0.0350 0.2926
H5 H 0.3899 -0.0599 0.1893
H6 H 0.4180 -0.0320 0.3439
C4 C 0.4494(6) 0.1308(5) 0.1002(6)
H7 H 0.4303 0.2070 0.0773
H8 H 0.3896 0.0863 0.0256
H9 H 0.5446 0.1154 0.1152
C5 C 0.1887(4) 0.3303(3) 0.2194(4)
H10 H 0.1810 0.3078 0.3012
C6 C 0.1672(4) 0.4442(3) 0.1787(4)
C7 C 0.1501(4) 0.5168(3) 0.2667(4)
H11 H 0.1446 0.4883 0.3471
C8 C 0.1393(4) 0.6331(3) 0.2510(4)
C9 C 0.1152(4) 0.6932(3) 0.1366(4)
H12 H 0.1015 0.6672 0.0488
C10 C 0.1150(5) 0.8036(4) 0.1764(6)
H13 H 0.0976 0.8639 0.1176
C11 C 0.1427(5) 0.8080(4) 0.3077(6)
H14 H 0.1522 0.8723 0.3584
N1 N 0.2187(3) 0.2596(3) 0.1431(4)
O1 O 0.1576(3) 0.0644(2) 0.0843(3)
O2 O 0.2227(3) 0.1192(2) 0.3265(3)
O3 O 0.1736(3) 0.4750(2) 0.0572(3)
H15 H 0.1953 0.4221 0.0212
O4 O 0.1565(4) 0.7014(3) 0.3626(4)
S1 S 0.24198(10) 0.13051(8) 0.19879(11)
loop_
_geom_bond_atom_site_label_1
_geom_bond_atom_site_label_2
_geom_bond_site_symmetry_1
_geom_bond_site_symmetry_2
C1 C2 1_555 1_555
C2 H1 1_555 1_555
H2 C2 1_555 1_555
H3 C2 1_555 1_555
C3 C1 1_555 1_555
H4 C3 1_555 1_555
H5 C3 1_555 1_555
H6 C3 1_555 1_555
C4 C1 1_555 1_555
H7 C4 1_555 1_555
H8 C4 1_555 1_555
H9 C4 1_555 1_555
C5 H10 1_555 1_555
C6 C5 1_555 1_555
C7 C6 1_555 1_555
H11 C7 1_555 1_555
C8 C7 1_555 1_555
C9 C8 1_555 1_555
H12 C9 1_555 1_555
C10 C9 1_555 1_555
H13 C10 1_555 1_555
C11 C10 1_555 1_555
H14 C11 1_555 1_555
N1 C5 1_555 1_555
O1 S1 1_555 1_555
O2 S1 1_555 1_555
O3 C6 1_555 1_555
H15 O3 1_555 1_555
O4 C8 1_555 1_555
S1 C1 1_555 1_555
C11 O4 1_555 1_555
N1 S1 1_555 1_555

#END
