
#######################################################################
#
#                 Cambridge Crystallographic Data Centre
#                                CCDC 
#
#######################################################################
#
# If this CIF has been generated from an entry in the Cambridge 
# Structural Database, then it will include bibliographic, chemical, 
# crystal, experimental, refinement or atomic coordinate data resulting 
# from the CCDC's data processing and validation procedures.
#
#######################################################################

data_ONONUC
_chemical_formula_moiety         'C17 H15 N1 O1'
_chemical_name_systematic        
1-(9b-methyl-2,9b-dihydro-1H-indeno[1,2,3-cd]isoindol-1-yl)ethanone
_symmetry_cell_setting           monoclinic
_symmetry_space_group_name_H-M   'P 21'
_symmetry_Int_Tables_number      4
_space_group_name_Hall           'P 2yb'
loop_
_symmetry_equiv_pos_site_id
_symmetry_equiv_pos_as_xyz
1 x,y,z
2 -x,1/2+y,-z
_cell_length_a                   8.6543(5)
_cell_length_b                   14.3664(10)
_cell_length_c                   10.7483(7)
_cell_angle_alpha                90
_cell_angle_beta                 90.845(6)
_cell_angle_gamma                90
_cell_volume                     1336.2
_cell_formula_units_Z            4
loop_
_atom_site_label
_atom_site_type_symbol
_atom_site_fract_x
_atom_site_fract_y
_atom_site_fract_z
O1 O 0.99603(19) 0.54108(15) 1.55263(17)
C1 C 1.2582(2) 0.55559(17) 1.3993(2)
C2 C 1.3385(2) 0.61471(17) 1.5011(2)
C3 C 0.9745(3) 0.54951(18) 1.4400(3)
C4 C 1.3272(2) 0.59753(16) 1.2860(2)
N1 N 1.0920(2) 0.56362(15) 1.36096(16)
C5 C 0.8146(3) 0.5456(2) 1.3824(3)
H1 H 0.8093 0.4954 1.3235
H2 H 0.7926 0.6033 1.3408
H3 H 0.7402 0.5355 1.4464
C6 C 1.4498(2) 0.65652(18) 1.3092(2)
C7 C 1.4601(2) 0.66541(17) 1.4468(2)
C8 C 1.2333(3) 0.60025(18) 1.1836(2)
C9 C 1.3219(3) 0.6146(2) 1.6285(2)
H4 H 1.2443 0.5797 1.6651
C10 C 1.0768(3) 0.5639(2) 1.2223(2)
H5 H 0.9941 0.6049 1.1944
H6 H 1.0581 0.5018 1.1902
C11 C 1.5034(3) 0.7070(2) 1.2080(2)
H7 H 1.5902 0.7448 1.2158
C12 C 1.5607(3) 0.7173(2) 1.5207(3)
H8 H 1.6407 0.7508 1.4852
C13 C 1.2993(3) 0.4529(2) 1.4197(3)
H9 H 1.4095 0.4463 1.4261
H10 H 1.2611 0.4167 1.3507
H11 H 1.2531 0.4312 1.4950
C14 C 1.4241(3) 0.6996(2) 1.0948(3)
H12 H 1.4652 0.7283 1.0252
C15 C 1.2855(3) 0.6507(2) 1.0816(2)
H13 H 1.2296 0.6518 1.0070
C16 C 1.5400(3) 0.7184(2) 1.6482(3)
H14 H 1.6056 0.7539 1.6984
C17 C 1.4230(3) 0.6674(2) 1.7018(3)
H15 H 1.4116 0.6683 1.7877
O2 O 0.8749(2) 0.77776(16) 1.29731(17)
N2 N 1.0935(2) 0.85081(15) 1.24232(17)
C18 C 1.0819(3) 0.8236(2) 0.9076(2)
C19 C 1.0357(2) 0.87738(18) 1.1161(2)
C20 C 1.0025(3) 0.8092(2) 1.3270(2)
C21 C 1.2956(3) 0.93348(19) 1.1489(3)
C22 C 1.1830(3) 0.91235(18) 1.0633(2)
C23 C 0.9102(3) 0.9527(2) 1.1266(3)
H16 H 0.8880 0.9781 1.0456
H17 H 0.9462 1.0013 1.1809
H18 H 0.8181 0.9256 1.1596
C24 C 1.0645(3) 0.8009(2) 1.4577(2)
H19 H 1.0620 0.8608 1.4972
H20 H 1.1690 0.7787 1.4561
H21 H 1.0020 0.7580 1.5033
C25 C 1.2076(3) 0.8880(2) 0.9415(2)
C26 C 0.9895(2) 0.80752(19) 1.0140(2)
C27 C 1.4413(3) 0.9536(2) 1.1039(3)
H22 H 1.5211 0.9718 1.1574
C28 C 0.9369(4) 0.7089(3) 0.7954(3)
H23 H 0.9187 0.6753 0.7227
C29 C 1.0540(3) 0.7732(2) 0.8002(2)
H24 H 1.1148 0.7830 0.7308
C30 C 1.2350(3) 0.9066(2) 1.2751(2)
H25 H 1.3098 0.8695 1.3213
H26 H 1.2089 0.9612 1.3235
C31 C 0.8454(3) 0.6938(2) 0.8983(3)
H27 H 0.7671 0.6495 0.8944
C32 C 0.8703(3) 0.7444(2) 1.0074(2)
H28 H 0.8066 0.7356 1.0753
C33 C 1.3547(3) 0.9091(2) 0.8944(3)
H29 H 1.3776 0.8989 0.8112
C34 C 1.4648(3) 0.9458(3) 0.9769(4)
H30 H 1.5584 0.9660 0.9453
loop_
_geom_bond_atom_site_label_1
_geom_bond_atom_site_label_2
_geom_bond_site_symmetry_1
_geom_bond_site_symmetry_2
O1 C3 1_555 1_555
C1 C2 1_555 1_555
C2 C7 1_555 1_555
C3 N1 1_555 1_555
C4 C1 1_555 1_555
N1 C1 1_555 1_555
C5 C3 1_555 1_555
H1 C5 1_555 1_555
H2 C5 1_555 1_555
H3 C5 1_555 1_555
C6 C4 1_555 1_555
C7 C6 1_555 1_555
C8 C4 1_555 1_555
C9 C2 1_555 1_555
H4 C9 1_555 1_555
C10 N1 1_555 1_555
H5 C10 1_555 1_555
H6 C10 1_555 1_555
C11 C6 1_555 1_555
H7 C11 1_555 1_555
C12 C7 1_555 1_555
H8 C12 1_555 1_555
C13 C1 1_555 1_555
H9 C13 1_555 1_555
H10 C13 1_555 1_555
H11 C13 1_555 1_555
C14 C11 1_555 1_555
H12 C14 1_555 1_555
C15 C8 1_555 1_555
H13 C15 1_555 1_555
C16 C12 1_555 1_555
H14 C16 1_555 1_555
C17 C9 1_555 1_555
H15 C17 1_555 1_555
O2 C20 1_555 1_555
N2 C19 1_555 1_555
C18 C25 1_555 1_555
C19 C22 1_555 1_555
C20 N2 1_555 1_555
C21 C22 1_555 1_555
C22 C25 1_555 1_555
C23 C19 1_555 1_555
H16 C23 1_555 1_555
H17 C23 1_555 1_555
H18 C23 1_555 1_555
C24 C20 1_555 1_555
H19 C24 1_555 1_555
H20 C24 1_555 1_555
H21 C24 1_555 1_555
C25 C33 1_555 1_555
C26 C18 1_555 1_555
C27 C21 1_555 1_555
H22 C27 1_555 1_555
C28 H23 1_555 1_555
C29 C18 1_555 1_555
H24 C29 1_555 1_555
C30 N2 1_555 1_555
H25 C30 1_555 1_555
H26 C30 1_555 1_555
C31 C28 1_555 1_555
H27 C31 1_555 1_555
C32 C26 1_555 1_555
H28 C32 1_555 1_555
C33 H29 1_555 1_555
C34 C27 1_555 1_555
H30 C34 1_555 1_555
C8 C10 1_555 1_555
C14 C15 1_555 1_555
C16 C17 1_555 1_555
C19 C26 1_555 1_555
C21 C30 1_555 1_555
C28 C29 1_555 1_555
C31 C32 1_555 1_555
C33 C34 1_555 1_555

#END
