
#######################################################################
#
#                 Cambridge Crystallographic Data Centre
#                                CCDC 
#
#######################################################################
#
# If this CIF has been generated from an entry in the Cambridge 
# Structural Database, then it will include bibliographic, chemical, 
# crystal, experimental, refinement or atomic coordinate data resulting 
# from the CCDC's data processing and validation procedures.
#
#######################################################################

data_ONOQAL
_chemical_formula_moiety         'C30 H22 N2'
_chemical_name_systematic        
1,2,4,5-tetraphenyl-1,4-dihydropyrrolo[3,2-b]pyrrole
_symmetry_cell_setting           triclinic
_symmetry_space_group_name_H-M   'P -1'
_symmetry_Int_Tables_number      2
_space_group_name_Hall           '-P 1'
loop_
_symmetry_equiv_pos_site_id
_symmetry_equiv_pos_as_xyz
1 x,y,z
2 -x,-y,-z
_cell_length_a                   6.1843(15)
_cell_length_b                   7.4512(13)
_cell_length_c                   11.960(2)
_cell_angle_alpha                95.690(15)
_cell_angle_beta                 95.670(18)
_cell_angle_gamma                100.847(18)
_cell_volume                     534.704
_cell_formula_units_Z            1
loop_
_atom_site_label
_atom_site_type_symbol
_atom_site_fract_x
_atom_site_fract_y
_atom_site_fract_z
N1 N 0.0904(5) 0.0067(4) 0.8684(3)
C1 C 0.0463(6) 0.0484(5) 1.0522(3)
C2 C 0.2454(6) 0.1660(5) 1.0366(3)
H1 H 0.3409 0.2471 1.0922
C3 C 0.2715(6) 0.1388(5) 0.9254(3)
C4 C 0.4459(6) 0.2381(5) 0.8646(3)
C5 C 0.6646(6) 0.2819(5) 0.9162(3)
H2 H 0.6997 0.2467 0.9871
C6 C 0.8291(6) 0.3774(6) 0.8624(4)
H3 H 0.9740 0.4073 0.8980
C7 C 0.7816(7) 0.4287(6) 0.7573(4)
H4 H 0.8944 0.4901 0.7209
C8 C 0.5650(8) 0.3884(6) 0.7057(4)
H5 H 0.5311 0.4251 0.6351
C9 C 0.3979(7) 0.2931(6) 0.7596(4)
H6 H 0.2525 0.2661 0.7247
C10 C 0.0609(6) -0.0787(5) 0.7547(3)
C11 C 0.2227(7) -0.1636(6) 0.7124(4)
H7 H 0.3527 -0.1642 0.7585
C12 C 0.1905(9) -0.2468(7) 0.6023(4)
H8 H 0.2998 -0.3014 0.5733
C13 C -0.0067(9) -0.2484(7) 0.5348(4)
H9 H -0.0298 -0.3057 0.4608
C14 C -0.1650(8) -0.1671(6) 0.5765(4)
H10 H -0.2964 -0.1690 0.5308
C15 C -0.1325(7) -0.0811(6) 0.6864(3)
H11 H -0.2415 -0.0248 0.7142
N1A N -0.0904(5) -0.0067(4) 1.1316(3)
C1A C -0.0463(6) -0.0484(5) 0.9478(3)
C2A C -0.2454(6) -0.1660(5) 0.9634(3)
H1A H -0.3409 -0.2471 0.9078
C3A C -0.2715(6) -0.1388(5) 1.0746(3)
C4A C -0.4459(6) -0.2381(5) 1.1354(3)
C5A C -0.6646(6) -0.2819(5) 1.0838(3)
H2A H -0.6997 -0.2467 1.0129
C6A C -0.8291(6) -0.3774(6) 1.1376(4)
H3A H -0.9740 -0.4073 1.1020
C7A C -0.7816(7) -0.4287(6) 1.2427(4)
H4A H -0.8944 -0.4901 1.2791
C8A C -0.5650(8) -0.3884(6) 1.2943(4)
H5A H -0.5311 -0.4251 1.3649
C9A C -0.3979(7) -0.2931(6) 1.2404(4)
H6A H -0.2525 -0.2661 1.2753
C10A C -0.0609(6) 0.0787(5) 1.2453(3)
C11A C -0.2227(7) 0.1636(6) 1.2876(4)
H7A H -0.3527 0.1642 1.2415
C12A C -0.1905(9) 0.2468(7) 1.3977(4)
H8A H -0.2998 0.3014 1.4267
C13A C 0.0067(9) 0.2484(7) 1.4652(4)
H9A H 0.0298 0.3057 1.5392
C14A C 0.1650(8) 0.1671(6) 1.4235(4)
H10A H 0.2964 0.1690 1.4692
C15A C 0.1325(7) 0.0811(6) 1.3136(3)
H11A H 0.2415 0.0248 1.2858
loop_
_geom_bond_atom_site_label_1
_geom_bond_atom_site_label_2
_geom_bond_site_symmetry_1
_geom_bond_site_symmetry_2
N1 C3 1_555 1_555
C1 C2 1_555 1_555
C2 H1 1_555 1_555
C3 C2 1_555 1_555
C4 C3 1_555 1_555
C5 C4 1_555 1_555
H2 C5 1_555 1_555
C6 C5 1_555 1_555
H3 C6 1_555 1_555
C7 C6 1_555 1_555
H4 C7 1_555 1_555
C8 C7 1_555 1_555
H5 C8 1_555 1_555
C9 C4 1_555 1_555
H6 C9 1_555 1_555
C10 N1 1_555 1_555
C11 C10 1_555 1_555
H7 C11 1_555 1_555
C12 C11 1_555 1_555
H8 C12 1_555 1_555
C13 C12 1_555 1_555
H9 C13 1_555 1_555
C14 C13 1_555 1_555
H10 C14 1_555 1_555
C15 C10 1_555 1_555
H11 C15 1_555 1_555
N1A C1 1_555 1_555
C1A N1 1_555 1_555
C2A C1A 1_555 1_555
H1A C2A 1_555 1_555
C3A N1A 1_555 1_555
C4A C3A 1_555 1_555
C5A C4A 1_555 1_555
H2A C5A 1_555 1_555
C6A C5A 1_555 1_555
H3A C6A 1_555 1_555
C7A C6A 1_555 1_555
H4A C7A 1_555 1_555
C8A C7A 1_555 1_555
H5A C8A 1_555 1_555
C9A C4A 1_555 1_555
H6A C9A 1_555 1_555
C10A N1A 1_555 1_555
C11A C10A 1_555 1_555
H7A C11A 1_555 1_555
C12A C11A 1_555 1_555
H8A C12A 1_555 1_555
C13A C12A 1_555 1_555
H9A C13A 1_555 1_555
C14A C13A 1_555 1_555
H10A C14A 1_555 1_555
C15A C10A 1_555 1_555
H11A C15A 1_555 1_555
C1 C1A 1_555 1_555
C8 C9 1_555 1_555
C14 C15 1_555 1_555
C2A C3A 1_555 1_555
C8A C9A 1_555 1_555
C14A C15A 1_555 1_555

#END
