
#######################################################################
#
#                 Cambridge Crystallographic Data Centre
#                                CCDC 
#
#######################################################################
#
# If this CIF has been generated from an entry in the Cambridge 
# Structural Database, then it will include bibliographic, chemical, 
# crystal, experimental, refinement or atomic coordinate data resulting 
# from the CCDC's data processing and validation procedures.
#
#######################################################################

data_ONOQEP
_chemical_formula_moiety         'C54 H40 N4,C7 H8'
_chemical_name_systematic        
'4-(5-(4-(diphenylamino)phenyl)-1,4-diphenyl-1,4-dihydropyrrolo[3,2-b]pyrrol-2-yl)-N,N-diphenylaniline toluene solvate'
_symmetry_cell_setting           monoclinic
_symmetry_space_group_name_H-M   'P 21/c'
_symmetry_Int_Tables_number      14
_space_group_name_Hall           '-P 2ybc'
loop_
_symmetry_equiv_pos_site_id
_symmetry_equiv_pos_as_xyz
1 x,y,z
2 -x,1/2+y,1/2-z
3 -x,-y,-z
4 x,1/2-y,1/2+z
_cell_length_a                   14.2789(13)
_cell_length_b                   8.5519(10)
_cell_length_c                   36.498(3)
_cell_angle_alpha                90
_cell_angle_beta                 90.697(10)
_cell_angle_gamma                90
_cell_volume                     4456.5
_cell_formula_units_Z            4
loop_
_atom_site_label
_atom_site_type_symbol
_atom_site_fract_x
_atom_site_fract_y
_atom_site_fract_z
N1 N 0.5867(2) 0.2019(4) 1.00830(10)
N2 N 0.5236(2) 0.3314(4) 0.92183(10)
N3 N 0.8240(2) 0.4148(4) 0.78309(10)
N4 N 0.3089(2) 0.1047(4) 1.15219(10)
C1 C 0.5967(3) 0.2397(5) 0.97149(12)
C2 C 0.6651(3) 0.2577(5) 0.94486(12)
H1 H 0.7300 0.2348 0.9473
C3 C 0.6193(3) 0.3157(5) 0.91418(12)
C4 C 0.5110(3) 0.2863(5) 0.95822(13)
C5 C 0.4454(3) 0.2826(5) 0.98656(12)
H2 H 0.3811 0.3103 0.9849
C6 C 0.4935(3) 0.2301(5) 1.01743(13)
C7 C 0.6652(3) 0.1550(6) 1.02997(13)
C8 C 0.6934(3) 0.2411(6) 1.06061(13)
H3 H 0.6582 0.3294 1.0682
C9 C 0.7728(4) 0.1967(7) 1.07969(15)
H4 H 0.7916 0.2536 1.1009
C10 C 0.8251(4) 0.0717(8) 1.06849(16)
H5 H 0.8801 0.0426 1.0817
C11 C 0.7973(4) -0.0119(7) 1.03784(16)
H6 H 0.8334 -0.0988 1.0300
C12 C 0.7177(3) 0.0300(6) 1.01852(14)
H7 H 0.6992 -0.0274 0.9973
C13 C 0.4486(3) 0.3848(5) 0.89862(12)
C14 C 0.4574(3) 0.5184(5) 0.87771(13)
H8 H 0.5137 0.5775 0.8784
C15 C 0.3829(3) 0.5645(5) 0.85577(13)
H9 H 0.3886 0.6558 0.8411
C16 C 0.3009(3) 0.4815(6) 0.85469(14)
H10 H 0.2504 0.5145 0.8394
C17 C 0.2926(3) 0.3498(6) 0.87608(14)
H11 H 0.2356 0.2925 0.8758
C18 C 0.3659(3) 0.3004(6) 0.89792(13)
H12 H 0.3599 0.2089 0.9124
C19 C 0.6644(3) 0.3476(5) 0.87913(12)
C20 C 0.7565(3) 0.4015(5) 0.88053(12)
H13 H 0.7851 0.4203 0.9038
C21 C 0.8074(3) 0.4284(5) 0.84942(13)
H14 H 0.8694 0.4679 0.8514
C22 C 0.7678(3) 0.3975(5) 0.81485(12)
C23 C 0.6762(3) 0.3466(5) 0.81291(13)
H15 H 0.6478 0.3276 0.7897
C24 C 0.6247(3) 0.3229(5) 0.84464(12)
H16 H 0.5614 0.2893 0.8427
C25 C 0.4530(3) 0.1986(5) 1.05360(13)
C26 C 0.3713(3) 0.2775(5) 1.06293(12)
H17 H 0.3468 0.3545 1.0467
C27 C 0.3250(3) 0.2469(5) 1.09516(13)
H18 H 0.2692 0.3022 1.1007
C28 C 0.3594(3) 0.1361(5) 1.11945(12)
C29 C 0.4411(3) 0.0586(5) 1.11079(13)
H19 H 0.4667 -0.0155 1.1275
C30 C 0.4862(3) 0.0873(5) 1.07810(13)
H20 H 0.5409 0.0296 1.0724
C31 C 0.9217(3) 0.3905(5) 0.78508(13)
C32 C 0.9613(3) 0.2729(5) 0.80653(13)
H21 H 0.9221 0.2059 0.8204
C33 C 1.0567(3) 0.2532(6) 0.80781(14)
H22 H 1.0825 0.1750 0.8234
C34 C 1.1156(3) 0.3428(6) 0.78726(15)
H23 H 1.1814 0.3267 0.7882
C35 C 1.0766(3) 0.4573(6) 0.76520(14)
H24 H 1.1161 0.5197 0.7504
C36 C 0.9816(3) 0.4822(6) 0.76438(13)
H25 H 0.9564 0.5633 0.7494
C37 C 0.7808(3) 0.4394(5) 0.74784(13)
C38 C 0.8101(3) 0.3508(6) 0.71829(14)
H26 H 0.8577 0.2743 0.7215
C39 C 0.7694(3) 0.3747(6) 0.68401(13)
H27 H 0.7900 0.3145 0.6638
C40 C 0.7004(4) 0.4830(6) 0.67884(14)
H28 H 0.6730 0.4983 0.6553
C41 C 0.6708(3) 0.5702(5) 0.70843(15)
H29 H 0.6226 0.6456 0.7052
C42 C 0.7110(3) 0.5483(5) 0.74281(13)
H30 H 0.6903 0.6089 0.7630
C43 C 0.3530(3) 0.0998(5) 1.18706(13)
C44 C 0.3132(3) 0.0129(5) 1.21515(13)
H31 H 0.2560 -0.0413 1.2109
C45 C 0.3562(3) 0.0051(6) 1.24916(13)
H32 H 0.3280 -0.0536 1.2682
C46 C 0.4392(3) 0.0815(6) 1.25575(13)
H33 H 0.4686 0.0764 1.2792
C47 C 0.4794(3) 0.1657(6) 1.22773(14)
H34 H 0.5379 0.2161 1.2318
C48 C 0.4358(3) 0.1777(6) 1.19400(13)
H35 H 0.4630 0.2400 1.1754
C49 C 0.2094(3) 0.0982(6) 1.14895(14)
C50 C 0.1682(3) 0.0077(6) 1.12120(14)
H36 H 0.2060 -0.0514 1.1050
C51 C 0.0722(3) 0.0052(6) 1.11761(15)
H37 H 0.0442 -0.0547 1.0985
C52 C 0.0158(3) 0.0876(6) 1.14109(15)
H38 H -0.0504 0.0847 1.1382
C53 C 0.0565(3) 0.1740(6) 1.16872(14)
H39 H 0.0182 0.2306 1.1852
C54 C 0.1523(3) 0.1791(5) 1.17269(13)
H40 H 0.1796 0.2389 1.1920
C55 C 0.9475(5) 0.3540(9) 0.9639(2)
H41 H 0.9731 0.2515 0.9649
C56 C 0.8789(6) 0.4021(11) 0.9886(2)
H42 H 0.8590 0.3290 1.0065
C57 C 0.8387(5) 0.5470(12) 0.9887(3)
H43 H 0.7925 0.5754 1.0060
C58 C 0.8697(6) 0.6523(10) 0.9616(3)
H44 H 0.8438 0.7545 0.9603
C59 C 0.9380(5) 0.6072(9) 0.9368(2)
H45 H 0.9576 0.6799 0.9187
C60 C 0.9774(5) 0.4637(10) 0.9375(2)
C61 C 1.0502(5) 0.4236(9) 0.9115(2)
H46 H 1.0620 0.5133 0.8955
H47 H 1.0296 0.3343 0.8966
H48 H 1.1078 0.3963 0.9248
loop_
_geom_bond_atom_site_label_1
_geom_bond_atom_site_label_2
_geom_bond_site_symmetry_1
_geom_bond_site_symmetry_2
N1 C1 1_555 1_555
N2 C3 1_555 1_555
N3 C22 1_555 1_555
N4 C28 1_555 1_555
C1 C2 1_555 1_555
C2 H1 1_555 1_555
C3 C2 1_555 1_555
C4 N2 1_555 1_555
C5 C4 1_555 1_555
H2 C5 1_555 1_555
C6 N1 1_555 1_555
C7 N1 1_555 1_555
C8 C7 1_555 1_555
H3 C8 1_555 1_555
C9 C8 1_555 1_555
H4 C9 1_555 1_555
C10 C9 1_555 1_555
H5 C10 1_555 1_555
C11 C10 1_555 1_555
H6 C11 1_555 1_555
C12 C7 1_555 1_555
H7 C12 1_555 1_555
C13 N2 1_555 1_555
C14 C13 1_555 1_555
H8 C14 1_555 1_555
C15 C14 1_555 1_555
H9 C15 1_555 1_555
C16 C15 1_555 1_555
H10 C16 1_555 1_555
C17 C16 1_555 1_555
H11 C17 1_555 1_555
C18 C13 1_555 1_555
H12 C18 1_555 1_555
C19 C3 1_555 1_555
C20 C19 1_555 1_555
H13 C20 1_555 1_555
C21 C20 1_555 1_555
H14 C21 1_555 1_555
C22 C21 1_555 1_555
C23 C22 1_555 1_555
H15 C23 1_555 1_555
C24 C19 1_555 1_555
H16 C24 1_555 1_555
C25 C6 1_555 1_555
C26 C25 1_555 1_555
H17 C26 1_555 1_555
C27 C26 1_555 1_555
H18 C27 1_555 1_555
C28 C27 1_555 1_555
C29 C28 1_555 1_555
H19 C29 1_555 1_555
C30 C25 1_555 1_555
H20 C30 1_555 1_555
C31 N3 1_555 1_555
C32 C31 1_555 1_555
H21 C32 1_555 1_555
C33 C32 1_555 1_555
H22 C33 1_555 1_555
C34 C33 1_555 1_555
H23 C34 1_555 1_555
C35 C34 1_555 1_555
H24 C35 1_555 1_555
C36 C31 1_555 1_555
H25 C36 1_555 1_555
C37 N3 1_555 1_555
C38 C37 1_555 1_555
H26 C38 1_555 1_555
C39 C38 1_555 1_555
H27 C39 1_555 1_555
C40 C39 1_555 1_555
H28 C40 1_555 1_555
C41 C40 1_555 1_555
H29 C41 1_555 1_555
C42 C37 1_555 1_555
H30 C42 1_555 1_555
C43 N4 1_555 1_555
C44 C43 1_555 1_555
H31 C44 1_555 1_555
C45 C44 1_555 1_555
H32 C45 1_555 1_555
C46 C45 1_555 1_555
H33 C46 1_555 1_555
C47 C46 1_555 1_555
H34 C47 1_555 1_555
C48 C43 1_555 1_555
H35 C48 1_555 1_555
C49 N4 1_555 1_555
C50 C49 1_555 1_555
H36 C50 1_555 1_555
C51 C50 1_555 1_555
H37 C51 1_555 1_555
C52 C51 1_555 1_555
H38 C52 1_555 1_555
C53 C52 1_555 1_555
H39 C53 1_555 1_555
C54 C49 1_555 1_555
H40 C54 1_555 1_555
C55 H41 1_555 1_555
C56 C55 1_555 1_555
H42 C56 1_555 1_555
C57 C56 1_555 1_555
H43 C57 1_555 1_555
C58 C57 1_555 1_555
H44 C58 1_555 1_555
C59 C58 1_555 1_555
H45 C59 1_555 1_555
C60 C55 1_555 1_555
C61 C60 1_555 1_555
H46 C61 1_555 1_555
H47 C61 1_555 1_555
H48 C61 1_555 1_555
C1 C4 1_555 1_555
C5 C6 1_555 1_555
C11 C12 1_555 1_555
C17 C18 1_555 1_555
C23 C24 1_555 1_555
C29 C30 1_555 1_555
C35 C36 1_555 1_555
C41 C42 1_555 1_555
C47 C48 1_555 1_555
C53 C54 1_555 1_555
C59 C60 1_555 1_555

#END
