
#######################################################################
#
#                 Cambridge Crystallographic Data Centre
#                                CCDC 
#
#######################################################################
#
# If this CIF has been generated from an entry in the Cambridge 
# Structural Database, then it will include bibliographic, chemical, 
# crystal, experimental, refinement or atomic coordinate data resulting 
# from the CCDC's data processing and validation procedures.
#
#######################################################################

data_ONOSER
_chemical_formula_moiety         'C19 H20 N2 O4'
_chemical_name_systematic        
13-ethyl-19-oxa-9,17-diazapentacyclo[15.2.1.0^3,8^.0^9,18^.0^13,18^]icosa-3,5,7-triene-2,10,20-trione
_symmetry_cell_setting           monoclinic
_symmetry_space_group_name_H-M   'P 21/c'
_symmetry_Int_Tables_number      14
_space_group_name_Hall           '-P 2ybc'
loop_
_symmetry_equiv_pos_site_id
_symmetry_equiv_pos_as_xyz
1 x,y,z
2 -x,1/2+y,1/2-z
3 -x,-y,-z
4 x,1/2-y,1/2+z
_cell_length_a                   7.62730(18)
_cell_length_b                   13.8785(4)
_cell_length_c                   15.3331(4)
_cell_angle_alpha                90
_cell_angle_beta                 95.314(2)
_cell_angle_gamma                90
_cell_volume                     1616.12
_exptl_crystal_colour            colorless
_exptl_crystal_description       prism
_cell_formula_units_Z            4
loop_
_atom_site_label
_atom_site_type_symbol
_atom_site_fract_x
_atom_site_fract_y
_atom_site_fract_z
O1 O 0.42236(12) 0.61532(7) 0.32137(6)
O2 O 0.12062(15) 0.42448(7) 0.31465(7)
O3 O 0.23399(13) 0.87643(7) 0.35716(7)
O4 O 0.32006(14) 0.56861(8) 0.52212(6)
N1 N 0.17257(14) 0.56642(8) 0.24275(7)
N2 N 0.19361(14) 0.72848(8) 0.29404(7)
C1 C 0.28925(16) 0.64849(9) 0.25693(8)
C2 C 0.34600(18) 0.54119(10) 0.37004(8)
H1 H 0.4347 0.4909 0.3899
C3 C 0.19993(18) 0.49976(9) 0.30641(8)
C4 C 0.02845(18) 0.56920(10) 0.17296(9)
H2 H -0.0624 0.6155 0.1884
H3 H -0.0267 0.5047 0.1660
C5 C 0.09933(18) 0.59959(11) 0.08732(9)
H4 H -0.0004 0.6131 0.0429
H5 H 0.1692 0.5463 0.0652
C6 C 0.21479(18) 0.68944(10) 0.10052(8)
H6 H 0.1413 0.7441 0.1171
H7 H 0.2621 0.7060 0.0444
C7 C 0.36970(17) 0.67585(9) 0.17176(8)
C8 C 0.47579(19) 0.76898(10) 0.18779(9)
H8 H 0.5814 0.7551 0.2283
H9 H 0.5164 0.7909 0.1316
C9 C 0.3725(2) 0.84997(10) 0.22598(10)
H10 H 0.4562 0.9009 0.2477
H11 H 0.2922 0.8783 0.1783
C10 C 0.26553(18) 0.82106(10) 0.29939(9)
C11 C 0.06792(17) 0.70717(9) 0.35600(8)
C12 C -0.09142(18) 0.75629(10) 0.34413(9)
H12 H -0.1125 0.7997 0.2964
C13 C -0.21979(18) 0.74254(11) 0.40118(9)
H13 H -0.3287 0.7758 0.3920
C14 C -0.18949(19) 0.68015(11) 0.47180(9)
H14 H -0.2779 0.6702 0.5106
C15 C -0.03047(18) 0.63273(10) 0.48524(9)
H15 H -0.0092 0.5911 0.5343
C16 C 0.10027(17) 0.64496(9) 0.42779(8)
C17 C 0.26221(18) 0.58576(9) 0.44756(8)
C18 C 0.49335(18) 0.59361(10) 0.14837(9)
H16 H 0.5889 0.5871 0.1963
H17 H 0.4259 0.5326 0.1453
C19 C 0.5761(2) 0.60707(11) 0.06229(10)
H18 H 0.4830 0.6118 0.0140
H19 H 0.6520 0.5518 0.0525
H20 H 0.6465 0.6662 0.0651
loop_
_geom_bond_atom_site_label_1
_geom_bond_atom_site_label_2
_geom_bond_site_symmetry_1
_geom_bond_site_symmetry_2
O1 C1 1_555 1_555
O2 C3 1_555 1_555
O3 C10 1_555 1_555
O4 C17 1_555 1_555
N1 C1 1_555 1_555
N2 C1 1_555 1_555
C1 C7 1_555 1_555
C2 O1 1_555 1_555
H1 C2 1_555 1_555
C3 N1 1_555 1_555
C4 N1 1_555 1_555
H2 C4 1_555 1_555
H3 C4 1_555 1_555
C5 C4 1_555 1_555
H4 C5 1_555 1_555
H5 C5 1_555 1_555
C6 C5 1_555 1_555
H6 C6 1_555 1_555
H7 C6 1_555 1_555
C7 C6 1_555 1_555
C8 C7 1_555 1_555
H8 C8 1_555 1_555
H9 C8 1_555 1_555
C9 C8 1_555 1_555
H10 C9 1_555 1_555
H11 C9 1_555 1_555
C10 N2 1_555 1_555
C11 N2 1_555 1_555
C12 C11 1_555 1_555
H12 C12 1_555 1_555
C13 C12 1_555 1_555
H13 C13 1_555 1_555
C14 C13 1_555 1_555
H14 C14 1_555 1_555
C15 C14 1_555 1_555
H15 C15 1_555 1_555
C16 C11 1_555 1_555
C17 C2 1_555 1_555
C18 C7 1_555 1_555
H16 C18 1_555 1_555
H17 C18 1_555 1_555
C19 C18 1_555 1_555
H18 C19 1_555 1_555
H19 C19 1_555 1_555
H20 C19 1_555 1_555
C2 C3 1_555 1_555
C9 C10 1_555 1_555
C15 C16 1_555 1_555
C16 C17 1_555 1_555

#END
