
#######################################################################
#
#                 Cambridge Crystallographic Data Centre
#                                CCDC 
#
#######################################################################
#
# If this CIF has been generated from an entry in the Cambridge 
# Structural Database, then it will include bibliographic, chemical, 
# crystal, experimental, refinement or atomic coordinate data resulting 
# from the CCDC's data processing and validation procedures.
#
#######################################################################

data_ONOTIW
_chemical_formula_moiety         'C19 H22 N2 O4,H2 O1'
_chemical_name_systematic        
"N-(4a-ethyl-7,13-dioxo-3,4,4a,5,6,7-hexahydro-2H,13H-pyrano[2',3':2,3]pyrido[1,2-a]indol-2-yl)acetamide monohydrate"
_symmetry_cell_setting           orthorhombic
_symmetry_space_group_name_H-M   'P 21 21 2'
_symmetry_Int_Tables_number      18
_space_group_name_Hall           'P 2 2ab'
loop_
_symmetry_equiv_pos_site_id
_symmetry_equiv_pos_as_xyz
1 x,y,z
2 -x,-y,z
3 1/2-x,1/2+y,-z
4 1/2+x,1/2-y,-z
_cell_length_a                   17.3461(2)
_cell_length_b                   13.7870(2)
_cell_length_c                   7.60339(11)
_cell_angle_alpha                90
_cell_angle_beta                 90
_cell_angle_gamma                90
_cell_volume                     1818.36
_exptl_crystal_colour            colorless
_exptl_crystal_description       prism
_cell_formula_units_Z            4
loop_
_atom_site_label
_atom_site_type_symbol
_atom_site_fract_x
_atom_site_fract_y
_atom_site_fract_z
O1 O 0.41418(6) 0.35884(8) 0.45612(14)
O2 O 0.60500(7) 0.23673(10) -0.12742(17)
O3 O 0.43765(6) 0.17933(7) 0.23463(13)
O4 O 0.38558(8) 0.04793(9) 0.62178(15)
N1 N 0.52647(7) 0.27709(9) 0.09845(16)
N2 N 0.36236(8) 0.05401(9) 0.32931(18)
H1 H 0.3601(13) 0.0243(16) 0.229(3)
C1 C 0.44996(8) 0.27775(10) 0.18068(18)
C2 C 0.46364(8) 0.33840(10) 0.35032(18)
C3 C 0.54661(8) 0.35813(10) 0.35892(19)
C4 C 0.58857(9) 0.40851(12) 0.4855(2)
H2 H 0.5640 0.4353 0.5860
C5 C 0.66733(9) 0.41848(12) 0.4605(2)
H3 H 0.6973 0.4531 0.5440
C6 C 0.70254(9) 0.37798(12) 0.3136(2)
H4 H 0.7567 0.3850 0.2998
C7 C 0.66138(8) 0.32774(11) 0.1865(2)
H5 H 0.6863 0.3002 0.0871
C8 C 0.58206(8) 0.31936(10) 0.21058(19)
C9 C 0.53997(9) 0.24722(13) -0.0707(2)
C10 C 0.46935(14) 0.2496(3) -0.1952(3)
H6 H 0.4744 0.3071 -0.2722
H7 H 0.4718 0.1915 -0.2717
C11 C 0.39395(10) 0.25237(12) -0.1148(2)
H8 H 0.3783 0.1851 -0.0864
H9 H 0.3568 0.2778 -0.2021
C12 C 0.38766(8) 0.31410(10) 0.05389(18)
C13 C 0.30867(8) 0.29827(11) 0.1413(2)
H10 H 0.3040 0.3418 0.2444
H11 H 0.2674 0.3156 0.0569
C14 C 0.29754(9) 0.19328(12) 0.2008(3)
H12 H 0.2488 0.1882 0.2680
H13 H 0.2930 0.1511 0.0959
C15 C 0.36349(8) 0.15766(10) 0.3142(2)
H14 H 0.3603 0.1878 0.4336
C16 C 0.40142(9) 0.42304(11) 0.0176(2)
H15 H 0.3986 0.4586 0.1305
H16 H 0.4543 0.4313 -0.0292
C17 C 0.34493(11) 0.46893(12) -0.1108(2)
H17 H 0.3478 0.4352 -0.2240
H18 H 0.3581 0.5375 -0.1273
H19 H 0.2925 0.4637 -0.0637
C18 C 0.37777(9) 0.00625(12) 0.4799(2)
C19 C 0.38356(13) -0.10206(12) 0.4619(3)
H20 H 0.4366 -0.1199 0.4318
H21 H 0.3487 -0.1241 0.3688
H22 H 0.3692 -0.1328 0.5734
O5 O 0.35974(10) -0.02984(11) -0.03604(19)
H27 H 0.3713(18) -0.001(2) -0.147(4)
H28 H 0.3748(18) -0.100(2) -0.042(4)
C20? C 0.4722(3) 0.1912(5) -0.1402(8)
H23? H 0.4679 0.1287 -0.0770
H24? H 0.4800 0.1771 -0.2666
H25? H 0.3879 0.2960 -0.2173
H26? H 0.3502 0.2062 -0.1167
loop_
_geom_bond_atom_site_label_1
_geom_bond_atom_site_label_2
_geom_bond_site_symmetry_1
_geom_bond_site_symmetry_2
O1 C2 1_555 1_555
O2 C9 1_555 1_555
O3 C1 1_555 1_555
O4 C18 1_555 1_555
N1 C1 1_555 1_555
N2 H1 1_555 1_555
C1 C2 1_555 1_555
C2 C3 1_555 1_555
C3 C4 1_555 1_555
C4 H2 1_555 1_555
C5 C4 1_555 1_555
H3 C5 1_555 1_555
C6 C5 1_555 1_555
H4 C6 1_555 1_555
C7 C6 1_555 1_555
H5 C7 1_555 1_555
C8 N1 1_555 1_555
C9 N1 1_555 1_555
C10 C9 1_555 1_555
H6 C10 1_555 1_555
H7 C10 1_555 1_555
C11 C10 1_555 1_555
H8 C11 1_555 1_555
H9 C11 1_555 1_555
C12 C1 1_555 1_555
C13 C12 1_555 1_555
H10 C13 1_555 1_555
H11 C13 1_555 1_555
C14 C13 1_555 1_555
H12 C14 1_555 1_555
H13 C14 1_555 1_555
C15 O3 1_555 1_555
H14 C15 1_555 1_555
C16 C12 1_555 1_555
H15 C16 1_555 1_555
H16 C16 1_555 1_555
C17 C16 1_555 1_555
H17 C17 1_555 1_555
H18 C17 1_555 1_555
H19 C17 1_555 1_555
C18 N2 1_555 1_555
C19 C18 1_555 1_555
H20 C19 1_555 1_555
H21 C19 1_555 1_555
H22 C19 1_555 1_555
O5 H27 1_555 1_555
H28 O5 1_555 1_555
N2 C15 1_555 1_555
C3 C8 1_555 1_555
C7 C8 1_555 1_555
C11 C12 1_555 1_555
C14 C15 1_555 1_555

#END
