
#######################################################################
#
#                 Cambridge Crystallographic Data Centre
#                                CCDC 
#
#######################################################################
#
# If this CIF has been generated from an entry in the Cambridge 
# Structural Database, then it will include bibliographic, chemical, 
# crystal, experimental, refinement or atomic coordinate data resulting 
# from the CCDC's data processing and validation procedures.
#
#######################################################################

data_ONOTAO
_chemical_formula_moiety         'C19 H21 Cl1 N2 O2'
_chemical_name_systematic        
5a-chloro-12a-ethyl-1,2,3,5,5a,11,12,12a-octahydro-4H,10H-3a,9b-diazaindeno[7,1-jk]fluorene-4,10-dione
_symmetry_cell_setting           monoclinic
_symmetry_space_group_name_H-M   'P 21/n'
_symmetry_Int_Tables_number      14
_space_group_name_Hall           '-P 2yn'
loop_
_symmetry_equiv_pos_site_id
_symmetry_equiv_pos_as_xyz
1 x,y,z
2 1/2-x,1/2+y,1/2-z
3 -x,-y,-z
4 1/2+x,1/2-y,1/2+z
_cell_length_a                   8.4071(5)
_cell_length_b                   11.7277(6)
_cell_length_c                   16.3593(10)
_cell_angle_alpha                90
_cell_angle_beta                 102.232(6)
_cell_angle_gamma                90
_cell_volume                     1576.34
_exptl_crystal_colour            colorless
_exptl_crystal_description       prism
_cell_formula_units_Z            4
loop_
_atom_site_label
_atom_site_type_symbol
_atom_site_fract_x
_atom_site_fract_y
_atom_site_fract_z
Cl1 Cl 0.28390(4) -0.01727(3) 0.01114(2)
O1 O 0.74202(13) 0.29811(10) 0.04635(7)
O2 O 0.11374(12) 0.24078(10) 0.22900(7)
N1 N 0.51060(13) 0.23159(10) 0.07925(7)
N2 N 0.27564(14) 0.27230(10) 0.13485(7)
C1 C 0.33166(16) 0.21672(12) 0.06507(9)
C2 C 0.31228(17) 0.08877(12) 0.09284(9)
C3 C 0.47380(17) 0.06877(12) 0.15137(9)
C4 C 0.5193(2) -0.02000(12) 0.20694(10)
H1 H 0.4436 -0.0777 0.2133
C5 C 0.6788(2) -0.02323(13) 0.25349(10)
H2 H 0.7120 -0.0830 0.2926
C6 C 0.78864(19) 0.06047(14) 0.24285(10)
H3 H 0.8975 0.0560 0.2740
C7 C 0.74387(18) 0.15125(13) 0.18771(9)
H4 H 0.8195 0.2092 0.1815
C8 C 0.58483(16) 0.15367(12) 0.14227(8)
C9 C 0.59817(17) 0.27607(12) 0.02329(10)
C10 C 0.51028(18) 0.28881(14) -0.06635(9)
H5 H 0.5759 0.2520 -0.1026
H6 H 0.5025 0.3710 -0.0805
C11 C 0.33955(18) 0.23780(13) -0.08627(9)
H7 H 0.3477 0.1538 -0.0898
H8 H 0.2807 0.2661 -0.1414
C12 C 0.24285(17) 0.26846(13) -0.02001(9)
C13 C 0.23933(19) 0.40077(13) -0.01152(10)
H9 H 0.3509 0.4301 -0.0084
H10 H 0.1695 0.4323 -0.0630
C14 C 0.17828(19) 0.44597(13) 0.06339(10)
H11 H 0.1856 0.5302 0.0651
H12 H 0.0630 0.4241 0.0589
C15 C 0.28212(18) 0.39593(12) 0.14232(9)
H13 H 0.3959 0.4227 0.1493
H14 H 0.2403 0.4204 0.1917
C16 C 0.18065(16) 0.20744(13) 0.17385(9)
C17 C 0.17093(17) 0.08911(13) 0.13745(9)
H15 H 0.0659 0.0764 0.0978
H16 H 0.1853 0.0303 0.1818
C18 C 0.06661(17) 0.22286(14) -0.04368(10)
H17 H 0.0697 0.1388 -0.0381
H18 H 0.0053 0.2529 -0.0029
C19 C -0.0263(2) 0.25320(18) -0.13174(11)
H19 H -0.0191 0.3355 -0.1406
H20 H -0.1408 0.2312 -0.1381
H21 H 0.0213 0.2123 -0.1730
loop_
_geom_bond_atom_site_label_1
_geom_bond_atom_site_label_2
_geom_bond_site_symmetry_1
_geom_bond_site_symmetry_2
Cl1 C2 1_555 1_555
O1 C9 1_555 1_555
O2 C16 1_555 1_555
N1 C1 1_555 1_555
N2 C1 1_555 1_555
C1 C2 1_555 1_555
C2 C3 1_555 1_555
C3 C4 1_555 1_555
C4 H1 1_555 1_555
C5 C4 1_555 1_555
H2 C5 1_555 1_555
C6 C5 1_555 1_555
H3 C6 1_555 1_555
C7 C6 1_555 1_555
H4 C7 1_555 1_555
C8 N1 1_555 1_555
C9 N1 1_555 1_555
C10 C9 1_555 1_555
H5 C10 1_555 1_555
H6 C10 1_555 1_555
C11 C10 1_555 1_555
H7 C11 1_555 1_555
H8 C11 1_555 1_555
C12 C1 1_555 1_555
C13 C12 1_555 1_555
H9 C13 1_555 1_555
H10 C13 1_555 1_555
C14 C13 1_555 1_555
H11 C14 1_555 1_555
H12 C14 1_555 1_555
C15 N2 1_555 1_555
H13 C15 1_555 1_555
H14 C15 1_555 1_555
C16 N2 1_555 1_555
C17 C2 1_555 1_555
H15 C17 1_555 1_555
H16 C17 1_555 1_555
C18 C12 1_555 1_555
H17 C18 1_555 1_555
H18 C18 1_555 1_555
C19 C18 1_555 1_555
H19 C19 1_555 1_555
H20 C19 1_555 1_555
H21 C19 1_555 1_555
C3 C8 1_555 1_555
C7 C8 1_555 1_555
C11 C12 1_555 1_555
C14 C15 1_555 1_555
C16 C17 1_555 1_555

#END
