
#######################################################################
#
#                 Cambridge Crystallographic Data Centre
#                                CCDC 
#
#######################################################################
#
# If this CIF has been generated from an entry in the Cambridge 
# Structural Database, then it will include bibliographic, chemical, 
# crystal, experimental, refinement or atomic coordinate data resulting 
# from the CCDC's data processing and validation procedures.
#
#######################################################################

data_ONOTUI
_chemical_formula_moiety         'C19 H22 N2 O3'
_chemical_name_systematic        
14-ethyl-11-hydroxy-1,10-diazapentacyclo[9.6.2.0^2,10^.0^2,14^.0^4,9^]nonadeca-4,6,8-triene-3,18-dione
_symmetry_cell_setting           monoclinic
_symmetry_space_group_name_H-M   'C c'
_symmetry_Int_Tables_number      9
_space_group_name_Hall           'C -2yc'
loop_
_symmetry_equiv_pos_site_id
_symmetry_equiv_pos_as_xyz
1 x,y,z
2 x,-y,1/2+z
3 1/2+x,1/2+y,z
4 1/2+x,1/2-y,1/2+z
_cell_length_a                   11.3917(2)
_cell_length_b                   16.06981(17)
_cell_length_c                   9.85692(17)
_cell_angle_alpha                90
_cell_angle_beta                 117.860(2)
_cell_angle_gamma                90
_cell_volume                     1595.28
_exptl_crystal_colour            yellow
_exptl_crystal_description       prism
_cell_formula_units_Z            4
loop_
_atom_site_label
_atom_site_type_symbol
_atom_site_fract_x
_atom_site_fract_y
_atom_site_fract_z
O1 O 0.00221(9) 0.52802(5) 0.50670(11)
O2 O -0.09238(9) 0.22473(5) 0.77789(10)
H1 H -0.125(2) 0.1880(13) 0.705(3)
O3 O 0.29420(9) 0.38726(5) 1.04324(10)
N1 N -0.05050(9) 0.34238(6) 0.66096(11)
N2 N 0.15577(9) 0.41872(6) 0.79557(11)
C1 C 0.04749(11) 0.39285(7) 0.64304(13)
C2 C -0.15466(12) 0.39253(7) 0.64889(13)
C3 C -0.25940(12) 0.37445(8) 0.68114(14)
H2 H -0.2627 0.3233 0.7275
C4 C -0.35806(13) 0.43392(9) 0.64291(16)
H3 H -0.4303 0.4221 0.6628
C5 C -0.35606(12) 0.51047(8) 0.57640(16)
H4 H -0.4258 0.5494 0.5517
C6 C -0.25178(13) 0.52881(8) 0.54701(14)
H5 H -0.2484 0.5804 0.5020
C7 C -0.15139(12) 0.46977(7) 0.58498(13)
C8 C -0.03243(12) 0.47365(7) 0.56599(14)
C9 C 0.25632(12) 0.47439(7) 0.78902(14)
H6 H 0.3233 0.4898 0.8943
H7 H 0.2132 0.5260 0.7331
C10 C 0.32368(12) 0.43005(8) 0.70730(14)
H8 H 0.3778 0.3834 0.7717
H9 H 0.3839 0.4693 0.6927
C11 C 0.22126(12) 0.39664(8) 0.55127(14)
H10 H 0.2676 0.3619 0.5082
H11 H 0.1808 0.4442 0.4809
C12 C 0.10959(12) 0.34452(7) 0.55602(13)
C13 C 0.16790(12) 0.26392(8) 0.64921(14)
H12 H 0.1955 0.2267 0.5892
H13 H 0.2484 0.2784 0.7452
C14 C 0.07283(12) 0.21636(7) 0.69041(14)
H14 H 0.1226 0.1710 0.7625
H15 H 0.0030 0.1904 0.5961
C15 C 0.00599(11) 0.26986(7) 0.76327(13)
C16 C 0.09954(12) 0.30382(8) 0.92152(13)
H16 H 0.0457 0.3247 0.9693
H17 H 0.1547 0.2574 0.9858
C17 C 0.19055(12) 0.37271(7) 0.92400(13)
C18 C -0.00072(13) 0.32720(8) 0.39142(14)
H18 H -0.0728 0.2959 0.3978
H19 H -0.0382 0.3811 0.3412
C19 C 0.04302(15) 0.27865(9) 0.29002(16)
H20 H 0.1123 0.3098 0.2796
H21 H -0.0332 0.2705 0.1885
H22 H 0.0781 0.2244 0.3368
loop_
_geom_bond_atom_site_label_1
_geom_bond_atom_site_label_2
_geom_bond_site_symmetry_1
_geom_bond_site_symmetry_2
O1 C8 1_555 1_555
O2 H1 1_555 1_555
O3 C17 1_555 1_555
N1 C1 1_555 1_555
N2 C1 1_555 1_555
C1 C8 1_555 1_555
C2 N1 1_555 1_555
C3 C2 1_555 1_555
H2 C3 1_555 1_555
C4 C3 1_555 1_555
H3 C4 1_555 1_555
C5 C4 1_555 1_555
H4 C5 1_555 1_555
C6 C5 1_555 1_555
H5 C6 1_555 1_555
C7 C2 1_555 1_555
C8 C7 1_555 1_555
C9 N2 1_555 1_555
H6 C9 1_555 1_555
H7 C9 1_555 1_555
C10 C9 1_555 1_555
H8 C10 1_555 1_555
H9 C10 1_555 1_555
C11 C10 1_555 1_555
H10 C11 1_555 1_555
H11 C11 1_555 1_555
C12 C1 1_555 1_555
C13 C12 1_555 1_555
H12 C13 1_555 1_555
H13 C13 1_555 1_555
C14 C13 1_555 1_555
H14 C14 1_555 1_555
H15 C14 1_555 1_555
C15 O2 1_555 1_555
C16 C15 1_555 1_555
H16 C16 1_555 1_555
H17 C16 1_555 1_555
C17 N2 1_555 1_555
C18 C12 1_555 1_555
H18 C18 1_555 1_555
H19 C18 1_555 1_555
C19 C18 1_555 1_555
H20 C19 1_555 1_555
H21 C19 1_555 1_555
H22 C19 1_555 1_555
N1 C15 1_555 1_555
C6 C7 1_555 1_555
C11 C12 1_555 1_555
C14 C15 1_555 1_555
C16 C17 1_555 1_555

#END
