
#######################################################################
#
#                 Cambridge Crystallographic Data Centre
#                                CCDC 
#
#######################################################################
#
# If this CIF has been generated from an entry in the Cambridge 
# Structural Database, then it will include bibliographic, chemical, 
# crystal, experimental, refinement or atomic coordinate data resulting 
# from the CCDC's data processing and validation procedures.
#
#######################################################################

data_ONOWAQ
_chemical_formula_moiety         'C29 H40 B1 N2 O1 1-,C11 H21 N2 1+,0.67(C7 H8)'
_chemical_name_systematic        
'1,3-Diisopropyl-4,5-dimethyl-1H-imidazol-3-ium 1,3-bis(2,6-diisopropylphenyl)-6-methyl-4-methylene-3,4-dihydro-2-oxo-1,3,2-diazaborinine toluene solvate'
_symmetry_cell_setting           monoclinic
_symmetry_space_group_name_H-M   'C 2/c'
_symmetry_Int_Tables_number      15
_space_group_name_Hall           '-C 2yn'
loop_
_symmetry_equiv_pos_site_id
_symmetry_equiv_pos_as_xyz
1 x,y,z
2 -x,y,1/2-z
3 1/2+x,1/2+y,z
4 1/2-x,1/2+y,1/2-z
5 -x,-y,-z
6 x,-y,1/2+z
7 1/2-x,1/2-y,-z
8 1/2+x,1/2-y,1/2+z
_cell_length_a                   32.772(4)
_cell_length_b                   18.365(2)
_cell_length_c                   22.270(3)
_cell_angle_alpha                90
_cell_angle_beta                 108.531(2)
_cell_angle_gamma                90
_cell_volume                     12708.4
_exptl_crystal_colour            colorless
_exptl_crystal_description       prism
_chemical_melting_point          189-190deg.C
_cell_formula_units_Z            12
loop_
_atom_site_label
_atom_site_type_symbol
_atom_site_fract_x
_atom_site_fract_y
_atom_site_fract_z
B2 B 0.5000 0.34522(17) 0.2500
O2 O 0.5000 0.27515(11) 0.2500
N5 N 0.47549(5) 0.38972(8) 0.19467(7)
C41 C 0.4496(5) 0.5097(9) 0.1426(6)
H56 H 0.4190 0.4993 0.1340
H57 H 0.4582 0.4952 0.1060
H58 H 0.4548 0.5620 0.1503
C42 C 0.4755(8) 0.4680(7) 0.1998(7)
C43 C 0.5027(9) 0.50098(18) 0.2471(8)
H59 H 0.4959 0.5526 0.2540
C46 C 0.44600(6) 0.35194(11) 0.14182(9)
C47 C 0.40487(6) 0.33477(10) 0.14456(9)
C48 C 0.37674(6) 0.29677(11) 0.09346(10)
H62 H 0.3487 0.2850 0.0943
C49 C 0.38880(7) 0.27601(12) 0.04204(10)
H63 H 0.3693 0.2502 0.0080
C50 C 0.42950(7) 0.29304(13) 0.04038(10)
H64 H 0.4377 0.2785 0.0049
C51 C 0.45876(7) 0.33111(12) 0.08971(10)
C52 C 0.39072(6) 0.35407(11) 0.20106(10)
H65 H 0.4147 0.3817 0.2317
C53 C 0.35091(8) 0.40265(14) 0.18260(13)
H66 H 0.3573 0.4480 0.1642
H67 H 0.3428 0.4138 0.2203
H68 H 0.3271 0.3774 0.1515
C54 C 0.38290(8) 0.28523(13) 0.23429(11)
H69 H 0.3594 0.2572 0.2053
H70 H 0.3752 0.2987 0.2719
H71 H 0.4091 0.2556 0.2470
C55 C 0.50379(7) 0.34687(15) 0.08728(11)
H72 H 0.5172 0.3837 0.1208
C56 C 0.50294(9) 0.3792(2) 0.02324(13)
H73 H 0.5325 0.3883 0.0236
H74 H 0.4868 0.4250 0.0160
H75 H 0.4890 0.3447 -0.0107
C57 C 0.53113(8) 0.27876(18) 0.10235(15)
H76 H 0.5304 0.2584 0.1427
H77 H 0.5609 0.2909 0.1056
H78 H 0.5198 0.2429 0.0686
N5A N 0.52451(5) 0.38972(8) 0.30533(7)
C41A C 0.5504(5) 0.5097(9) 0.3574(6)
H56A H 0.5810 0.4993 0.3660
H57A H 0.5418 0.4952 0.3940
H58A H 0.5452 0.5620 0.3497
C42A C 0.5245(8) 0.4680(7) 0.3002(7)
C43A C 0.4973(9) 0.50098(18) 0.2529(8)
H59A H 0.5041 0.5526 0.2460
C46A C 0.55400(6) 0.35194(11) 0.35818(9)
C47A C 0.59513(6) 0.33477(10) 0.35544(9)
C48A C 0.62326(6) 0.29677(11) 0.40654(10)
H62A H 0.6513 0.2850 0.4057
C49A C 0.61120(7) 0.27601(12) 0.45796(10)
H63A H 0.6307 0.2502 0.4920
C50A C 0.57050(7) 0.29304(13) 0.45962(10)
H64A H 0.5623 0.2785 0.4951
C51A C 0.54124(7) 0.33111(12) 0.41029(10)
C52A C 0.60928(6) 0.35407(11) 0.29894(10)
H65A H 0.5853 0.3817 0.2683
C53A C 0.64909(8) 0.40265(14) 0.31740(13)
H66A H 0.6427 0.4480 0.3358
H67A H 0.6572 0.4138 0.2797
H68A H 0.6729 0.3774 0.3485
C54A C 0.61710(8) 0.28523(13) 0.26571(11)
H69A H 0.6406 0.2572 0.2947
H70A H 0.6248 0.2987 0.2281
H71A H 0.5909 0.2556 0.2530
C55A C 0.49621(7) 0.34687(15) 0.41272(11)
H72A H 0.4828 0.3837 0.3792
C56A C 0.49706(9) 0.3792(2) 0.47676(13)
H73A H 0.4675 0.3883 0.4764
H74A H 0.5132 0.4250 0.4840
H75A H 0.5110 0.3447 0.5107
C57A C 0.46887(8) 0.27876(18) 0.39765(15)
H76A H 0.4696 0.2584 0.3573
H77A H 0.4391 0.2909 0.3944
H78A H 0.4802 0.2429 0.4314
N3 N 0.35210(5) 0.55568(9) 0.29977(8)
N4 N 0.30929(6) 0.57593(9) 0.20516(8)
C30 C 0.31223(6) 0.54599(10) 0.26093(10)
H35 H 0.2897 0.5218 0.2712
C31 C 0.37558(7) 0.59378(13) 0.26794(12)
C32 C 0.34860(8) 0.60661(12) 0.20898(11)
C33 C 0.42177(8) 0.61554(19) 0.29570(16)
H36 H 0.4317 0.6376 0.2627
H37 H 0.4392 0.5724 0.3128
H38 H 0.4247 0.6509 0.3298
C34 C 0.35617(11) 0.64712(18) 0.15525(14)
H39 H 0.3871 0.6550 0.1643
H40 H 0.3414 0.6942 0.1500
H41 H 0.3449 0.6187 0.1162
C35 C 0.36593(8) 0.52650(14) 0.36555(11)
H42 H 0.3400 0.5052 0.3733
C36 C 0.38271(11) 0.58676(17) 0.41360(13)
H43 H 0.4081 0.6091 0.4069
H44 H 0.3906 0.5664 0.4565
H45 H 0.3603 0.6237 0.4085
C37 C 0.39834(11) 0.46531(18) 0.37181(17)
H46 H 0.3861 0.4283 0.3394
H47 H 0.4051 0.4432 0.4139
H48 H 0.4247 0.4850 0.3662
C38 C 0.27059(8) 0.57896(14) 0.14831(12)
H49 H 0.2805 0.5831 0.1104
C39 C 0.24474(10) 0.64657(15) 0.15071(16)
H50 H 0.2333 0.6428 0.1863
H51 H 0.2209 0.6511 0.1110
H52 H 0.2633 0.6895 0.1564
C40 C 0.24496(8) 0.51044(13) 0.14158(11)
H53 H 0.2631 0.4687 0.1396
H54 H 0.2203 0.5126 0.1026
H55 H 0.2346 0.5051 0.1781
N6 N -0.02461(5) 0.58477(9) 0.20383(8)
C58 C 0.0000 0.62698(15) 0.2500
H79 H 0.0000 0.6787 0.2500
C59 C -0.01533(6) 0.51213(10) 0.22108(9)
C60 C -0.03600(7) 0.44890(12) 0.18095(11)
H80 H -0.0228 0.4036 0.2014
H81 H -0.0319 0.4531 0.1394
H82 H -0.0668 0.4484 0.1757
C61 C -0.05504(7) 0.61714(13) 0.14563(10)
H83 H -0.0528 0.6712 0.1510
C62 C -0.04228(8) 0.59905(16) 0.08766(11)
H84 H -0.0119 0.6113 0.0957
H85 H -0.0601 0.6272 0.0514
H86 H -0.0466 0.5469 0.0784
C63 C -0.10140(7) 0.59662(15) 0.13863(12)
H87 H -0.1054 0.5442 0.1310
H88 H -0.1210 0.6233 0.1029
H89 H -0.1077 0.6093 0.1775
N6A N 0.02461(5) 0.58477(9) 0.29617(8)
C59A C 0.01533(6) 0.51213(10) 0.27892(9)
C60A C 0.03600(7) 0.44890(12) 0.31905(11)
H80A H 0.0228 0.4036 0.2986
H81A H 0.0319 0.4531 0.3606
H82A H 0.0668 0.4484 0.3243
C61A C 0.05504(7) 0.61714(13) 0.35437(10)
H83A H 0.0528 0.6712 0.3490
C62A C 0.04228(8) 0.59905(16) 0.41234(11)
H84A H 0.0119 0.6113 0.4043
H85A H 0.0601 0.6272 0.4486
H86A H 0.0466 0.5469 0.4216
C63A C 0.10140(7) 0.59662(15) 0.36137(12)
H87A H 0.1054 0.5442 0.3690
H88A H 0.1210 0.6233 0.3971
H89A H 0.1077 0.6093 0.3225
C64 C 0.0607(3) 0.2297(5) 0.4140(5)
H90 H 0.0583 0.2285 0.3690
H91 H 0.0520 0.1825 0.4265
H92 H 0.0906 0.2399 0.4393
C65 C 0.03285(15) 0.2865(2) 0.4247(3)
C66 C 0.05484(10) 0.3389(3) 0.4680(2)
H93 H 0.0851 0.3353 0.4871
C67 C 0.03251(14) 0.3965(2) 0.4834(2)
H94 H 0.0475 0.4323 0.5130
C68 C -0.01181(14) 0.4018(2) 0.4554(2)
H95 H -0.0271 0.4412 0.4659
C69 C -0.03380(10) 0.3495(3) 0.4121(2)
H96 H -0.0641 0.3531 0.3930
C70 C -0.01147(15) 0.2918(3) 0.3967(2)
H97 H -0.0265 0.2560 0.3671
B1 B 0.21509(7) 0.44995(12) 0.31485(10)
O1 O 0.24377(4) 0.47899(8) 0.29343(6)
N1 N 0.21974(5) 0.44412(9) 0.38354(7)
N2 N 0.17365(5) 0.41805(9) 0.27387(7)
C1 C 0.1912(3) 0.4168(4) 0.4717(3)
C2 C 0.1882(3) 0.4143(6) 0.4030(4)
C3 C 0.1514(3) 0.3845(5) 0.3630(4)
C4 C 0.1456(4) 0.3798(8) 0.2950(4)
C5 C 0.1099(3) 0.3464(7) 0.2544(5)
C6 C 0.25898(6) 0.46888(11) 0.42915(9)
C7 C 0.26210(6) 0.54099(11) 0.45190(9)
C8 C 0.30056(7) 0.56309(13) 0.49602(11)
H1 H 0.3032 0.6115 0.5118
C9 C 0.33504(7) 0.51595(14) 0.51745(11)
H2 H 0.3610 0.5321 0.5477
C10 C 0.33174(8) 0.44560(14) 0.49497(11)
H3 H 0.3557 0.4137 0.5095
C11 C 0.29364(7) 0.42047(12) 0.45115(10)
C12 C 0.22511(7) 0.59384(11) 0.42850(10)
H4 H 0.1985 0.5651 0.4071
C13 C 0.21718(8) 0.63658(14) 0.48256(11)
H5 H 0.2138 0.6026 0.5145
H6 H 0.1910 0.6658 0.4660
H7 H 0.2417 0.6687 0.5018
C14 C 0.23286(9) 0.64535(14) 0.38000(12)
H8 H 0.2585 0.6749 0.4001
H9 H 0.2078 0.6773 0.3634
H10 H 0.2373 0.6171 0.3452
C15 C 0.29066(9) 0.34198(13) 0.42829(12)
H11 H 0.2599 0.3319 0.4036
C16 C 0.31735(11) 0.33029(16) 0.38456(15)
H12 H 0.3080 0.3645 0.3490
H13 H 0.3134 0.2803 0.3684
H14 H 0.3478 0.3386 0.4080
C17 C 0.30389(13) 0.28912(16) 0.48465(16)
H15 H 0.3343 0.2964 0.5087
H16 H 0.2995 0.2389 0.4690
H17 H 0.2863 0.2983 0.5122
C18 C 0.16382(6) 0.42061(11) 0.20638(9)
C19 C 0.13803(7) 0.47722(14) 0.17198(10)
C20 C 0.12824(7) 0.47790(17) 0.10601(10)
H18 H 0.1111 0.5162 0.0821
C21 C 0.14304(7) 0.42399(16) 0.07518(10)
H19 H 0.1360 0.4250 0.0304
C22 C 0.16812(7) 0.36861(13) 0.10956(10)
H20 H 0.1782 0.3316 0.0880
C23 C 0.17907(6) 0.36578(11) 0.17546(9)
C24 C 0.12278(8) 0.53826(16) 0.20530(11)
H21 H 0.1236 0.5197 0.2479
C25 C 0.07674(9) 0.56292(19) 0.17101(13)
H22 H 0.0752 0.5840 0.1299
H23 H 0.0681 0.5995 0.1967
H24 H 0.0573 0.5210 0.1644
C26 C 0.15357(11) 0.60140(19) 0.21584(17)
H25 H 0.1829 0.5843 0.2378
H26 H 0.1455 0.6384 0.2417
H27 H 0.1524 0.6225 0.1749
C27 C 0.20700(8) 0.30445(11) 0.21128(11)
H28 H 0.2082 0.3083 0.2566
C28 C 0.25295(8) 0.31188(12) 0.20910(11)
H29 H 0.2704 0.2713 0.2321
H30 H 0.2653 0.3580 0.2289
H31 H 0.2526 0.3112 0.1649
C29 C 0.18819(10) 0.23003(14) 0.18694(15)
H32 H 0.1599 0.2248 0.1927
H33 H 0.2075 0.1917 0.2106
H34 H 0.1851 0.2258 0.1418
C44? C 0.5237(8) 0.4631(8) 0.3111(8)
C45? C 0.5445(5) 0.5005(10) 0.3637(7)
H60? H 0.5613 0.4754 0.4006
H61? H 0.5424 0.5521 0.3641
C71? C 0.1038(10) 0.340(2) 0.2610(14)
C72? C 0.1419(10) 0.383(2) 0.3018(11)
C73? C 0.1566(8) 0.3716(13) 0.3642(12)
C74? C 0.1901(9) 0.4101(16) 0.4155(7)
C75? C 0.2024(6) 0.4084(12) 0.4793(7)
C76? C 0.0278(3) 0.2204(4) 0.3632(4)
C77? C 0.02519(15) 0.2801(2) 0.4033(2)
C78? C 0.06269(12) 0.3068(3) 0.4467(2)
C79? C 0.06081(14) 0.3655(3) 0.4852(2)
C80? C 0.02141(18) 0.3975(3) 0.4801(3)
C81? C -0.01609(13) 0.3707(3) 0.4367(3)
C82? C -0.01421(12) 0.3120(3) 0.3983(2)
H98? H 0.0579 0.2054 0.3729
H99? H 0.0166 0.2356 0.3188
H100? H 0.0108 0.1795 0.3704
H101? H 0.0896 0.2850 0.4501
H102? H 0.0864 0.3838 0.5148
H103? H 0.0201 0.4376 0.5064
H104? H -0.0430 0.3926 0.4333
H105? H -0.0398 0.2938 0.3686
loop_
_geom_bond_atom_site_label_1
_geom_bond_atom_site_label_2
_geom_bond_site_symmetry_1
_geom_bond_site_symmetry_2
B1 O1 1_555 1_555
B2 O2 1_555 1_555
N1 B1 1_555 1_555
N2 B1 1_555 1_555
N3 C30 1_555 1_555
N4 C30 1_555 1_555
N5 B2 1_555 1_555
N6 C58 1_555 1_555
C1 C2 1_555 1_555
C2 N1 1_555 1_555
C3 C2 1_555 1_555
C4 N2 1_555 1_555
C5 C4 1_555 1_555
C6 N1 1_555 1_555
C7 C6 1_555 1_555
C8 C7 1_555 1_555
H1 C8 1_555 1_555
C9 C8 1_555 1_555
H2 C9 1_555 1_555
C10 C9 1_555 1_555
H3 C10 1_555 1_555
C11 C6 1_555 1_555
C12 C7 1_555 1_555
H4 C12 1_555 1_555
C13 C12 1_555 1_555
H5 C13 1_555 1_555
H6 C13 1_555 1_555
H7 C13 1_555 1_555
C14 C12 1_555 1_555
H8 C14 1_555 1_555
H9 C14 1_555 1_555
H10 C14 1_555 1_555
C15 C11 1_555 1_555
H11 C15 1_555 1_555
C16 C15 1_555 1_555
H12 C16 1_555 1_555
H13 C16 1_555 1_555
H14 C16 1_555 1_555
C17 C15 1_555 1_555
H15 C17 1_555 1_555
H16 C17 1_555 1_555
H17 C17 1_555 1_555
C18 N2 1_555 1_555
C19 C18 1_555 1_555
C20 C19 1_555 1_555
H18 C20 1_555 1_555
C21 C20 1_555 1_555
H19 C21 1_555 1_555
C22 C21 1_555 1_555
H20 C22 1_555 1_555
C23 C18 1_555 1_555
C24 C19 1_555 1_555
H21 C24 1_555 1_555
C25 C24 1_555 1_555
H22 C25 1_555 1_555
H23 C25 1_555 1_555
H24 C25 1_555 1_555
C26 C24 1_555 1_555
H25 C26 1_555 1_555
H26 C26 1_555 1_555
H27 C26 1_555 1_555
C27 C23 1_555 1_555
H28 C27 1_555 1_555
C28 C27 1_555 1_555
H29 C28 1_555 1_555
H30 C28 1_555 1_555
H31 C28 1_555 1_555
C29 C27 1_555 1_555
H32 C29 1_555 1_555
H33 C29 1_555 1_555
H34 C29 1_555 1_555
C30 H35 1_555 1_555
C31 N3 1_555 1_555
C32 N4 1_555 1_555
C33 C31 1_555 1_555
H36 C33 1_555 1_555
H37 C33 1_555 1_555
H38 C33 1_555 1_555
C34 C32 1_555 1_555
H39 C34 1_555 1_555
H40 C34 1_555 1_555
H41 C34 1_555 1_555
C35 N3 1_555 1_555
H42 C35 1_555 1_555
C36 C35 1_555 1_555
H43 C36 1_555 1_555
H44 C36 1_555 1_555
H45 C36 1_555 1_555
C37 C35 1_555 1_555
H46 C37 1_555 1_555
H47 C37 1_555 1_555
H48 C37 1_555 1_555
C38 N4 1_555 1_555
H49 C38 1_555 1_555
C39 C38 1_555 1_555
H50 C39 1_555 1_555
H51 C39 1_555 1_555
H52 C39 1_555 1_555
C40 C38 1_555 1_555
H53 C40 1_555 1_555
H54 C40 1_555 1_555
H55 C40 1_555 1_555
C41 H56 1_555 1_555
H57 C41 1_555 1_555
H58 C41 1_555 1_555
C42 N5 1_555 1_555
C43 C42 1_555 1_555
H59 C43 1_555 1_555
C46 N5 1_555 1_555
C47 C46 1_555 1_555
C48 C47 1_555 1_555
H62 C48 1_555 1_555
C49 C48 1_555 1_555
H63 C49 1_555 1_555
C50 C49 1_555 1_555
H64 C50 1_555 1_555
C51 C46 1_555 1_555
C52 C47 1_555 1_555
H65 C52 1_555 1_555
C53 C52 1_555 1_555
H66 C53 1_555 1_555
H67 C53 1_555 1_555
H68 C53 1_555 1_555
C54 C52 1_555 1_555
H69 C54 1_555 1_555
H70 C54 1_555 1_555
H71 C54 1_555 1_555
C55 C51 1_555 1_555
H72 C55 1_555 1_555
C56 C55 1_555 1_555
H73 C56 1_555 1_555
H74 C56 1_555 1_555
H75 C56 1_555 1_555
C57 C55 1_555 1_555
H76 C57 1_555 1_555
H77 C57 1_555 1_555
H78 C57 1_555 1_555
C58 H79 1_555 1_555
C59 N6 1_555 1_555
C60 C59 1_555 1_555
H80 C60 1_555 1_555
H81 C60 1_555 1_555
H82 C60 1_555 1_555
C61 N6 1_555 1_555
H83 C61 1_555 1_555
C62 C61 1_555 1_555
H84 C62 1_555 1_555
H85 C62 1_555 1_555
H86 C62 1_555 1_555
C63 C61 1_555 1_555
H87 C63 1_555 1_555
H88 C63 1_555 1_555
H89 C63 1_555 1_555
C64 H90 1_555 1_555
H91 C64 1_555 1_555
H92 C64 1_555 1_555
C65 C64 1_555 1_555
C66 C65 1_555 1_555
H93 C66 1_555 1_555
C67 C66 1_555 1_555
H94 C67 1_555 1_555
C68 C67 1_555 1_555
H95 C68 1_555 1_555
C69 C68 1_555 1_555
H96 C69 1_555 1_555
C70 C65 1_555 1_555
H97 C70 1_555 1_555
N5A B2 1_555 1_555
N6A C58 1_555 1_555
C41A H56A 1_555 1_555
H57A C41A 1_555 1_555
H58A C41A 1_555 1_555
C42A C43 1_555 1_555
C43A C42 1_555 1_555
H59A C43 1_555 1_555
C46A N5A 1_555 1_555
C47A C46A 1_555 1_555
C48A C47A 1_555 1_555
H62A C48A 1_555 1_555
C49A C48A 1_555 1_555
H63A C49A 1_555 1_555
C50A C49A 1_555 1_555
H64A C50A 1_555 1_555
C51A C46A 1_555 1_555
C52A C47A 1_555 1_555
H65A C52A 1_555 1_555
C53A C52A 1_555 1_555
H66A C53A 1_555 1_555
H67A C53A 1_555 1_555
H68A C53A 1_555 1_555
C54A C52A 1_555 1_555
H69A C54A 1_555 1_555
H70A C54A 1_555 1_555
H71A C54A 1_555 1_555
C55A C51A 1_555 1_555
H72A C55A 1_555 1_555
C56A C55A 1_555 1_555
H73A C56A 1_555 1_555
H74A C56A 1_555 1_555
H75A C56A 1_555 1_555
C57A C55A 1_555 1_555
H76A C57A 1_555 1_555
H77A C57A 1_555 1_555
H78A C57A 1_555 1_555
C59A C59 1_555 1_555
C60A C59A 1_555 1_555
H80A C60A 1_555 1_555
H81A C60A 1_555 1_555
H82A C60A 1_555 1_555
C61A N6A 1_555 1_555
H83A C61A 1_555 1_555
C62A C61A 1_555 1_555
H84A C62A 1_555 1_555
H85A C62A 1_555 1_555
H86A C62A 1_555 1_555
C63A C61A 1_555 1_555
H87A C63A 1_555 1_555
H88A C63A 1_555 1_555
H89A C63A 1_555 1_555
C3 C4 1_555 1_555
C10 C11 1_555 1_555
C22 C23 1_555 1_555
C31 C32 1_555 1_555
C41 C42 1_555 1_555
C43 C43A 1_555 1_555
H59 C43A 1_555 1_555
H59 H59A 1_555 1_555
C50 C51 1_555 1_555
C69 C70 1_555 1_555
N5A C42A 1_555 1_555
N6A C59A 1_555 1_555
C41A C42A 1_555 1_555
C42A C43A 1_555 1_555
C43A H59A 1_555 1_555
C50A C51A 1_555 1_555

#END
