
#######################################################################
#
#                 Cambridge Crystallographic Data Centre
#                                CCDC 
#
#######################################################################
#
# If this CIF has been generated from an entry in the Cambridge 
# Structural Database, then it will include bibliographic, chemical, 
# crystal, experimental, refinement or atomic coordinate data resulting 
# from the CCDC's data processing and validation procedures.
#
#######################################################################

data_ONOWIZ
_chemical_formula_moiety         'C29 H32 N2 O2'
_chemical_name_systematic        
N-benzyl-N-(1,2-diphenylvinyl)-N',N'-diisopropylethanediamide
_symmetry_cell_setting           monoclinic
_symmetry_space_group_name_H-M   'P 21/n'
_symmetry_Int_Tables_number      14
_space_group_name_Hall           '-P 2yn'
loop_
_symmetry_equiv_pos_site_id
_symmetry_equiv_pos_as_xyz
1 x,y,z
2 1/2-x,1/2+y,1/2-z
3 -x,-y,-z
4 1/2+x,1/2-y,1/2+z
_cell_length_a                   8.6895(4)
_cell_length_b                   9.8563(6)
_cell_length_c                   30.266(2)
_cell_angle_alpha                90
_cell_angle_beta                 94.399(5)
_cell_angle_gamma                90
_cell_volume                     2584.54
_cell_formula_units_Z            4
loop_
_atom_site_label
_atom_site_type_symbol
_atom_site_fract_x
_atom_site_fract_y
_atom_site_fract_z
C1 C 0.62093(15) 0.35201(14) 0.29703(5)
H1 H 0.6058 0.2878 0.3188
C2 C 0.54897(17) 0.33623(16) 0.25477(5)
H2 H 0.4852 0.2618 0.2484
C3 C 0.57132(18) 0.42969(19) 0.22235(5)
H3 H 0.5251 0.4172 0.1939
C4 C 0.66233(18) 0.54228(19) 0.23187(5)
H4 H 0.6766 0.6064 0.2100
C5 C 0.73221(16) 0.55924(15) 0.27416(5)
H5 H 0.7914 0.6363 0.2807
C6 C 0.71535(14) 0.46327(13) 0.30692(4)
C7 C 0.79368(15) 0.48125(12) 0.35180(4)
C8 C 0.93486(15) 0.53158(13) 0.36217(4)
H6 H 0.9575 0.5504 0.3921
C9 C 1.05936(15) 0.56158(14) 0.33357(5)
C10 C 1.15736(16) 0.66967(16) 0.34476(5)
H7 H 1.1433 0.7204 0.3700
C11 C 1.27628(18) 0.7026(2) 0.31847(7)
H8 H 1.3399 0.7763 0.3258
C12 C 1.2995(2) 0.6266(2) 0.28194(8)
H9 H 1.3785 0.6492 0.2642
C13 C 1.2073(2) 0.5175(2) 0.27128(7)
H10 H 1.2253 0.4648 0.2467
C14 C 1.08780(18) 0.48494(17) 0.29663(6)
H11 H 1.0254 0.4107 0.2889
C15 C 0.55595(16) 0.51363(15) 0.39221(5)
H12 H 0.4978 0.4623 0.4126
H13 H 0.4975 0.5127 0.3636
C16 C 0.56956(15) 0.65824(15) 0.40828(5)
C17 C 0.63118(19) 0.75853(16) 0.38298(6)
H14 H 0.6689 0.7359 0.3560
C18 C 0.6376(2) 0.89176(18) 0.39711(7)
H15 H 0.6809 0.9579 0.3800
C19 C 0.5799(3) 0.9263(2) 0.43652(8)
H16 H 0.5833 1.0160 0.4461
C20 C 0.5174(3) 0.8283(2) 0.46176(7)
H17 H 0.4779 0.8519 0.4884
C21 C 0.51257(19) 0.69484(19) 0.44799(6)
H18 H 0.4707 0.6290 0.4655
C22 C 0.75310(16) 0.34608(14) 0.41687(4)
C23 C 0.88429(17) 0.25554(13) 0.40247(4)
C24 C 1.1405(2) 0.15419(17) 0.41739(6)
H19 H 1.2262 0.1674 0.4400
C25 C 1.0841(3) 0.00892(19) 0.42251(8)
H20 H 1.0402 -0.0005 0.4505
H21 H 1.1694 -0.0525 0.4213
H22 H 1.0073 -0.0116 0.3990
C26 C 1.2044(3) 0.1791(2) 0.37299(7)
H23 H 1.1255 0.1617 0.3497
H24 H 1.2903 0.1196 0.3697
H25 H 1.2378 0.2716 0.3713
C27 C 1.05307(18) 0.34798(15) 0.46440(4)
H26 H 0.9689 0.4144 0.4635
C28 C 1.0522(2) 0.2732(2) 0.50848(5)
H27 H 0.9519 0.2346 0.5112
H28 H 1.0760 0.3357 0.5324
H29 H 1.1280 0.2022 0.5096
C29 C 1.20214(19) 0.42688(19) 0.46040(6)
H30 H 1.2884 0.3660 0.4640
H31 H 1.2121 0.4955 0.4830
H32 H 1.1999 0.4689 0.4317
N1 N 0.70473(12) 0.44484(11) 0.38789(4)
N2 N 1.02016(14) 0.25475(12) 0.42677(4)
O1 O 0.68819(13) 0.31713(12) 0.44994(3)
O2 O 0.85117(13) 0.18057(10) 0.37067(3)
loop_
_geom_bond_atom_site_label_1
_geom_bond_atom_site_label_2
_geom_bond_site_symmetry_1
_geom_bond_site_symmetry_2
C1 H1 1_555 1_555
C2 C1 1_555 1_555
H2 C2 1_555 1_555
C3 C2 1_555 1_555
H3 C3 1_555 1_555
C4 C3 1_555 1_555
H4 C4 1_555 1_555
C5 C4 1_555 1_555
H5 C5 1_555 1_555
C6 C1 1_555 1_555
C7 C6 1_555 1_555
C8 C7 1_555 1_555
H6 C8 1_555 1_555
C9 C8 1_555 1_555
C10 C9 1_555 1_555
H7 C10 1_555 1_555
C11 C10 1_555 1_555
H8 C11 1_555 1_555
C12 C11 1_555 1_555
H9 C12 1_555 1_555
C13 C12 1_555 1_555
H10 C13 1_555 1_555
C14 C9 1_555 1_555
H11 C14 1_555 1_555
C15 H12 1_555 1_555
H13 C15 1_555 1_555
C16 C15 1_555 1_555
C17 C16 1_555 1_555
H14 C17 1_555 1_555
C18 C17 1_555 1_555
H15 C18 1_555 1_555
C19 C18 1_555 1_555
H16 C19 1_555 1_555
C20 C19 1_555 1_555
H17 C20 1_555 1_555
C21 C16 1_555 1_555
H18 C21 1_555 1_555
C22 C23 1_555 1_555
C23 N2 1_555 1_555
C24 H19 1_555 1_555
C25 C24 1_555 1_555
H20 C25 1_555 1_555
H21 C25 1_555 1_555
H22 C25 1_555 1_555
C26 C24 1_555 1_555
H23 C26 1_555 1_555
H24 C26 1_555 1_555
H25 C26 1_555 1_555
C27 H26 1_555 1_555
C28 C27 1_555 1_555
H27 C28 1_555 1_555
H28 C28 1_555 1_555
H29 C28 1_555 1_555
C29 C27 1_555 1_555
H30 C29 1_555 1_555
H31 C29 1_555 1_555
H32 C29 1_555 1_555
N1 C7 1_555 1_555
N2 C24 1_555 1_555
O1 C22 1_555 1_555
O2 C23 1_555 1_555
C5 C6 1_555 1_555
C13 C14 1_555 1_555
C15 N1 1_555 1_555
C20 C21 1_555 1_555
C22 N1 1_555 1_555
C27 N2 1_555 1_555

#END
