
#######################################################################
#
#                 Cambridge Crystallographic Data Centre
#                                CCDC 
#
#######################################################################
#
# If this CIF has been generated from an entry in the Cambridge 
# Structural Database, then it will include bibliographic, chemical, 
# crystal, experimental, refinement or atomic coordinate data resulting 
# from the CCDC's data processing and validation procedures.
#
#######################################################################

data_ONOYIB
_chemical_formula_moiety         'C42 H78 N2 O14,C3 H7 N1 O1'
_chemical_name_systematic        
'9-((4-(dimethylamino)-3-hydroxy-6-methyltetrahydro-2H-pyran-2-yl)oxy)-3-ethyl-2,10-dihydroxy-7-((5-hydroxy-4-methoxy-4,6-dimethyltetrahydro-2H-pyran-2-yl)oxy)-15-((2-methoxyethoxy)methyl)-2,6,8,10,12,17-hexamethyl-4,16-dioxa-14-azabicyclo[11.3.1]heptadecan-5-one N,N-dimethylformamide solvate'
_symmetry_cell_setting           monoclinic
_symmetry_space_group_name_H-M   'P 21'
_symmetry_Int_Tables_number      4
_space_group_name_Hall           'P 2yb'
loop_
_symmetry_equiv_pos_site_id
_symmetry_equiv_pos_as_xyz
1 x,y,z
2 -x,1/2+y,-z
_cell_length_a                   14.3719(8)
_cell_length_b                   11.6958(5)
_cell_length_c                   14.695(3)
_cell_angle_alpha                90
_cell_angle_beta                 94.890(8)
_cell_angle_gamma                90
_cell_volume                     2461.1
_cell_formula_units_Z            2
loop_
_atom_site_label
_atom_site_type_symbol
_atom_site_fract_x
_atom_site_fract_y
_atom_site_fract_z
O1 O 0.56335(12) 0.54494(15) 0.26997(12)
O2 O 0.85990(12) 0.35944(16) 0.37895(12)
O3 O 0.52418(11) 0.36368(15) 0.30285(11)
O4 O 0.51080(13) 0.30740(14) 0.11302(12)
H1 H 0.5019 0.3087 0.0558
O5 O 0.76801(11) -0.00660(14) 0.54659(11)
O6 O 0.84275(13) 0.04583(17) 0.78658(12)
H2 H 0.8737 -0.0151 0.7858
O7 O 0.87918(11) 0.22124(15) 0.68302(12)
O8 O 0.74893(11) 0.23100(14) 0.31199(11)
O9 O 0.50874(12) 0.48999(15) 0.45677(12)
H3 H 0.5090 0.5094 0.4018
N1 N 0.49781(17) 0.4803(2) -0.01148(15)
C1 C 0.90355(18) 0.4614(2) 0.24541(19)
H4 H 0.9699 0.4549 0.2716
O10 O 0.78932(11) 0.37393(15) 0.14613(12)
O11 O 0.89622(16) 0.56571(17) 0.19627(15)
H5 H 0.8469 0.5656 0.1612
C2 C 0.56523(17) 0.4299(2) 0.23834(16)
H6 H 0.6309 0.4046 0.2326
O12 O 1.01443(13) 0.41635(17) 0.74461(13)
O13 O 0.88947(12) 0.04220(17) 0.46853(13)
C3 C 0.82900(17) -0.0165(2) 0.63051(17)
H7 H 0.8917 0.0156 0.6201
C4 C 0.58242(16) 0.3315(2) 0.38411(16)
H8 H 0.6426 0.3746 0.3850
C5 C 0.54443(18) 0.6252(2) 0.11696(17)
H9 H 0.5722 0.6782 0.0743
H10 H 0.4794 0.6496 0.1234
C6 C 0.78438(16) 0.1837(2) 0.67059(17)
H11 H 0.7653 0.1845 0.6036
C7 C 0.84345(18) 0.4619(2) 0.32558(18)
H12 H 0.7761 0.4659 0.3024
C8 C 0.54550(17) 0.5033(2) 0.07981(16)
H13 H 0.6126 0.4829 0.0761
C9 C 0.60069(19) 0.6277(2) 0.20979(18)
H14 H 0.6671 0.6076 0.2015
C10 C 0.60441(16) 0.2009(2) 0.38198(17)
H15 H 0.5813 0.1673 0.4384
C11 C 0.88388(17) 0.3575(3) 0.18460(19)
C12 C 0.8665(2) 0.5605(3) 0.3908(2)
H16 H 0.8268 0.5562 0.4418
H17 H 0.8554 0.6331 0.3585
H18 H 0.9323 0.5558 0.4145
C13 C 0.73182(18) 0.0466(2) 0.39443(17)
H19 H 0.6739 0.0061 0.4099
C14 C 0.50773(17) 0.4202(2) 0.14731(17)
H20 H 0.4415 0.4406 0.1558
C15 C 0.78471(17) 0.0569(2) 0.70270(17)
C16 C 0.80615(17) 0.0270(2) 0.47137(17)
C17 C 0.55155(19) 0.1395(2) 0.30054(18)
H21 H 0.4849 0.1582 0.2988
H22 H 0.5599 0.0567 0.3073
H23 H 0.5762 0.1647 0.2437
C18 C 0.58832(16) 0.3541(2) 0.55868(16)
H24 H 0.5506 0.3838 0.6068
H25 H 0.5954 0.2708 0.5691
C19 C 0.72134(17) 0.2682(2) 0.71632(16)
H26 H 0.6552 0.2428 0.7030
C20 C 0.84647(17) 0.2549(2) 0.33131(18)
H27 H 0.8736 0.1928 0.3721
C21 C 0.70938(17) 0.1789(2) 0.38764(16)
H28 H 0.7379 0.2160 0.4447
C22 C 0.7625(2) -0.0057(2) 0.30680(18)
H29 H 0.8234 0.0257 0.2945
H30 H 0.7165 0.0125 0.2558
H31 H 0.7674 -0.0889 0.3138
C23 C 0.89527(17) 0.2513(2) 0.24411(18)
H32 H 0.8713 0.1847 0.2076
H33 H 0.9628 0.2386 0.2603
C24 C 0.8892(2) -0.2103(2) 0.5836(2)
H34 H 0.8520 -0.2079 0.5246
H35 H 0.8969 -0.2899 0.6037
H36 H 0.9507 -0.1764 0.5772
N2 N 0.83113(14) 0.41870(18) 0.67356(15)
H37 H 0.8560 0.4315 0.7294
C25 C 0.83953(17) -0.1428(2) 0.65413(18)
H38 H 0.7768 -0.1762 0.6589
H39 H 0.8752 -0.1504 0.7145
C26 C 0.43823(17) 0.3059(2) 0.46918(18)
H40 H 0.4019 0.3404 0.5155
H41 H 0.4512 0.2256 0.4848
H42 H 0.4026 0.3102 0.4094
C27 C 0.68528(18) 0.5370(2) 0.55921(19)
H43 H 0.6703 0.5536 0.4942
H44 H 0.7470 0.5680 0.5790
H45 H 0.6383 0.5722 0.5948
C28 C 0.68771(18) 0.0164(2) 0.71747(19)
H46 H 0.6902 -0.0635 0.7376
H47 H 0.6479 0.0226 0.6602
H48 H 0.6620 0.0637 0.7643
C29 C 0.68555(17) 0.4076(2) 0.57412(16)
H49 H 0.7262 0.3723 0.5299
O14 O 1.03755(16) 0.4866(2) 0.92842(15)
C30 C 0.88959(17) 0.3323(2) 0.64056(18)
H50 H 0.8741 0.3241 0.5732
C31 C 0.73187(17) 0.3871(2) 0.67196(17)
H51 H 0.7028 0.4432 0.7123
C32 C 0.53045(16) 0.3706(2) 0.46581(16)
C33 C 0.95038(19) 0.3508(3) 0.1092(2)
H52 H 0.9350 0.4112 0.0642
H53 H 0.9441 0.2760 0.0792
H54 H 1.0148 0.3608 0.1357
C34 C 0.7416(2) 0.2763(3) 0.82090(17)
H55 H 0.7351 0.2005 0.8480
H56 H 0.6973 0.3292 0.8456
H57 H 0.8054 0.3043 0.8356
C35 C 0.99099(17) 0.3676(3) 0.65735(19)
H58 H 1.0308 0.2996 0.6504
H59 H 1.0053 0.4237 0.6100
C36 C 0.5983(3) 0.7413(3) 0.2570(2)
H60 H 0.5336 0.7603 0.2675
H61 H 0.6236 0.8003 0.2187
H62 H 0.6360 0.7374 0.3157
C37 C 0.4034(2) 0.5270(3) -0.0247(2)
H63 H 0.3690 0.5072 0.0279
H64 H 0.3713 0.4946 -0.0803
H65 H 0.4066 0.6103 -0.0305
C38 C 0.75133(19) 0.2855(3) 0.0884(2)
H66 H 0.7913 0.2735 0.0384
H67 H 0.6885 0.3073 0.0631
H68 H 0.7479 0.2148 0.1237
C39 C 1.0340(2) 0.3384(3) 0.8157(2)
H69 H 1.0698 0.2730 0.7940
H70 H 0.9750 0.3089 0.8371
C40 C 0.5535(2) 0.5146(3) -0.08547(19)
H71 H 0.5590 0.5981 -0.0863
H72 H 0.5230 0.4882 -0.1439
H73 H 0.6158 0.4805 -0.0759
C41 C 1.0908(2) 0.3992(3) 0.8937(2)
H74 H 1.1097 0.3438 0.9427
H75 H 1.1482 0.4319 0.8712
C42 C 1.0885(3) 0.5458(3) 1.0021(2)
H76 H 1.1421 0.5849 0.9793
H77 H 1.1106 0.4908 1.0495
H78 H 1.0477 0.6020 1.0280
C43 C 0.8009(2) 0.6172(3) -0.0074(2)
H79 H 0.8400 0.5516 -0.0029
N3 N 0.79130(16) 0.67107(19) -0.08782(17)
O15 O 0.76323(17) 0.6451(2) 0.06141(17)
C44 C 0.8401(2) 0.6326(3) -0.1638(2)
H80 H 0.8798 0.6945 -0.1836
H81 H 0.7948 0.6107 -0.2144
H82 H 0.8791 0.5665 -0.1451
C45 C 0.7321(2) 0.7711(3) -0.1014(2)
H83 H 0.6785 0.7529 -0.1447
H84 H 0.7679 0.8337 -0.1259
H85 H 0.7101 0.7945 -0.0429
loop_
_geom_bond_atom_site_label_1
_geom_bond_atom_site_label_2
_geom_bond_site_symmetry_1
_geom_bond_site_symmetry_2
O1 C2 1_555 1_555
O2 C7 1_555 1_555
O3 C2 1_555 1_555
O4 H1 1_555 1_555
O5 C3 1_555 1_555
O6 H2 1_555 1_555
O7 C6 1_555 1_555
O8 C20 1_555 1_555
O9 H3 1_555 1_555
N1 C8 1_555 1_555
C1 H4 1_555 1_555
O10 C11 1_555 1_555
O11 C1 1_555 1_555
H5 O11 1_555 1_555
C2 H6 1_555 1_555
O12 C35 1_555 1_555
O13 C16 1_555 1_555
C3 H7 1_555 1_555
C4 O3 1_555 1_555
H8 C4 1_555 1_555
C5 H9 1_555 1_555
H10 C5 1_555 1_555
C6 H11 1_555 1_555
C7 C1 1_555 1_555
H12 C7 1_555 1_555
C8 C5 1_555 1_555
H13 C8 1_555 1_555
C9 O1 1_555 1_555
H14 C9 1_555 1_555
C10 C4 1_555 1_555
H15 C10 1_555 1_555
C11 C1 1_555 1_555
C12 C7 1_555 1_555
H16 C12 1_555 1_555
H17 C12 1_555 1_555
H18 C12 1_555 1_555
C13 H19 1_555 1_555
C14 O4 1_555 1_555
H20 C14 1_555 1_555
C15 O6 1_555 1_555
C16 O5 1_555 1_555
C17 C10 1_555 1_555
H21 C17 1_555 1_555
H22 C17 1_555 1_555
H23 C17 1_555 1_555
C18 H24 1_555 1_555
H25 C18 1_555 1_555
C19 C6 1_555 1_555
H26 C19 1_555 1_555
C20 O2 1_555 1_555
H27 C20 1_555 1_555
C21 O8 1_555 1_555
H28 C21 1_555 1_555
C22 C13 1_555 1_555
H29 C22 1_555 1_555
H30 C22 1_555 1_555
H31 C22 1_555 1_555
C23 C11 1_555 1_555
H32 C23 1_555 1_555
H33 C23 1_555 1_555
C24 H34 1_555 1_555
H35 C24 1_555 1_555
H36 C24 1_555 1_555
N2 H37 1_555 1_555
C25 C3 1_555 1_555
H38 C25 1_555 1_555
H39 C25 1_555 1_555
C26 H40 1_555 1_555
H41 C26 1_555 1_555
H42 C26 1_555 1_555
C27 H43 1_555 1_555
H44 C27 1_555 1_555
H45 C27 1_555 1_555
C28 C15 1_555 1_555
H46 C28 1_555 1_555
H47 C28 1_555 1_555
H48 C28 1_555 1_555
C29 C18 1_555 1_555
H49 C29 1_555 1_555
O14 C41 1_555 1_555
C30 O7 1_555 1_555
H50 C30 1_555 1_555
C31 C19 1_555 1_555
H51 C31 1_555 1_555
C32 O9 1_555 1_555
C33 C11 1_555 1_555
H52 C33 1_555 1_555
H53 C33 1_555 1_555
H54 C33 1_555 1_555
C34 C19 1_555 1_555
H55 C34 1_555 1_555
H56 C34 1_555 1_555
H57 C34 1_555 1_555
C35 C30 1_555 1_555
H58 C35 1_555 1_555
H59 C35 1_555 1_555
C36 C9 1_555 1_555
H60 C36 1_555 1_555
H61 C36 1_555 1_555
H62 C36 1_555 1_555
C37 N1 1_555 1_555
H63 C37 1_555 1_555
H64 C37 1_555 1_555
H65 C37 1_555 1_555
C38 O10 1_555 1_555
H66 C38 1_555 1_555
H67 C38 1_555 1_555
H68 C38 1_555 1_555
C39 O12 1_555 1_555
H69 C39 1_555 1_555
H70 C39 1_555 1_555
C40 N1 1_555 1_555
H71 C40 1_555 1_555
H72 C40 1_555 1_555
H73 C40 1_555 1_555
C41 C39 1_555 1_555
H74 C41 1_555 1_555
H75 C41 1_555 1_555
C42 O14 1_555 1_555
H76 C42 1_555 1_555
H77 C42 1_555 1_555
H78 C42 1_555 1_555
C43 H79 1_555 1_555
N3 C43 1_555 1_555
O15 C43 1_555 1_555
C44 N3 1_555 1_555
H80 C44 1_555 1_555
H81 C44 1_555 1_555
H82 C44 1_555 1_555
C45 N3 1_555 1_555
H83 C45 1_555 1_555
H84 C45 1_555 1_555
H85 C45 1_555 1_555
C2 C14 1_555 1_555
C3 C15 1_555 1_555
C4 C32 1_555 1_555
C5 C9 1_555 1_555
C6 C15 1_555 1_555
C8 C14 1_555 1_555
C10 C21 1_555 1_555
C13 C16 1_555 1_555
C13 C21 1_555 1_555
C18 C32 1_555 1_555
C20 C23 1_555 1_555
C24 C25 1_555 1_555
N2 C30 1_555 1_555
N2 C31 1_555 1_555
C26 C32 1_555 1_555
C27 C29 1_555 1_555
C29 C31 1_555 1_555

#END
