
#######################################################################
#
#                 Cambridge Crystallographic Data Centre
#                                CCDC 
#
#######################################################################
#
# If this CIF has been generated from an entry in the Cambridge 
# Structural Database, then it will include bibliographic, chemical, 
# crystal, experimental, refinement or atomic coordinate data resulting 
# from the CCDC's data processing and validation procedures.
#
#######################################################################

data_ONOZAT
_chemical_formula_moiety         'C33 H38 N4 O5 Si1'
_chemical_name_systematic        
"4-Azido-1-(((t-butyl(diphenyl)silyl)oxy)methyl)-2'-(4-methoxyphenyl)-2,5'-dimethylspiro[6-oxabicyclo[3.1.0]hexane-3,4'-[1,3]oxazol]-2-ol ethyl acetate solvate"
_symmetry_cell_setting           monoclinic
_symmetry_space_group_name_H-M   'C 2'
_symmetry_Int_Tables_number      5
_space_group_name_Hall           'C 2y'
loop_
_symmetry_equiv_pos_site_id
_symmetry_equiv_pos_as_xyz
1 x,y,z
2 -x,y,-z
3 1/2+x,1/2+y,z
4 1/2-x,1/2+y,-z
_cell_length_a                   17.8975(7)
_cell_length_b                   7.3027(3)
_cell_length_c                   28.5293(11)
_cell_angle_alpha                90
_cell_angle_beta                 103.955(2)
_cell_angle_gamma                90
_cell_volume                     3618.73
_exptl_crystal_colour            colorless
_exptl_crystal_description       block
_cell_formula_units_Z            4
loop_
_atom_site_label
_atom_site_type_symbol
_atom_site_fract_x
_atom_site_fract_y
_atom_site_fract_z
Si1 Si 0.20022(4) 1.05454(9) 0.36941(2)
O1 O -0.02336(12) 0.7504(4) 0.07452(8)
O2 O 0.16748(13) 0.7144(3) 0.18637(9)
H1 H 0.1842 0.6168 0.2007
O3 O 0.04664(11) 1.0208(3) 0.23593(7)
O4 O 0.18349(11) 1.0346(3) 0.31019(7)
O5 O -0.38693(13) 0.8295(4) 0.02266(8)
N1 N -0.03531(14) 0.8585(4) 0.14681(9)
N2 N 0.02801(19) 1.1994(4) 0.12921(10)
N3 N -0.0315(2) 1.2309(5) 0.14221(11)
N4 N -0.0863(2) 1.2844(6) 0.14892(16)
C1 C 0.1032(2) 0.8470(7) 0.07247(13)
H2 H 0.0971 0.7778 0.0423
H3 H 0.1575 0.8464 0.0900
H4 H 0.0862 0.9735 0.0651
C2 C 0.05567(18) 0.7601(5) 0.10309(11)
H5 H 0.0749 0.6327 0.1113
C3 C 0.04775(17) 0.8580(5) 0.15081(11)
C4 C 0.09557(17) 0.7615(4) 0.19690(11)
C5 C 0.11223(15) 0.9110(4) 0.23506(10)
C6 C 0.10323(17) 1.0890(4) 0.21127(11)
H6 H 0.1378 1.1931 0.2252
C7 C 0.08023(17) 1.0584(5) 0.15718(10)
H7 H 0.1285 1.0597 0.1454
C8 C 0.0554(2) 0.5955(5) 0.21201(14)
H8 H 0.0084 0.6350 0.2210
H9 H 0.0899 0.5358 0.2397
H10 H 0.0420 0.5090 0.1850
C9 C 0.16725(17) 0.8719(4) 0.28313(11)
H11 H 0.1441 0.7811 0.3012
H12 H 0.2156 0.8196 0.2778
C10 C -0.06789(17) 0.8041(5) 0.10416(10)
C11 C -0.15122(18) 0.8007(5) 0.08294(10)
C12 C -0.20077(19) 0.8943(6) 0.10531(12)
H13 H -0.1807 0.9564 0.1349
C13 C -0.27958(19) 0.8978(6) 0.08464(12)
H14 H -0.3132 0.9613 0.1002
C14 C -0.30869(19) 0.8079(5) 0.04114(11)
C15 C -0.26069(19) 0.7129(5) 0.01882(11)
H15 H -0.2809 0.6503 -0.0107
C16 C -0.18236(18) 0.7097(5) 0.03993(10)
H16 H -0.1492 0.6436 0.0246
C17 C -0.4180(2) 0.7549(7) -0.02465(13)
H17 H -0.3923 0.8113 -0.0477
H18 H -0.4733 0.7803 -0.0345
H19 H -0.4095 0.6222 -0.0240
C18 C 0.1192(6) 0.9344(18) 0.3879(4)
C19 C 0.1278(5) 0.8566(10) 0.4338(3)
H20 H 0.1763 0.8629 0.4564
C20 C 0.0661(5) 0.7698(10) 0.4467(3)
H21 H 0.0719 0.7262 0.4787
C21 C -0.0040(5) 0.7466(14) 0.4129(3)
H22 H -0.0439 0.6737 0.4200
C22 C -0.0135(5) 0.8347(10) 0.3683(3)
H23 H -0.0630 0.8358 0.3466
C23 C 0.0469(7) 0.920(2) 0.3549(4)
H24 H 0.0397 0.9687 0.3232
C24 C 0.2971(6) 0.946(2) 0.3973(4)
C25 C 0.3415(6) 0.8714(10) 0.3672(4)
H25 H 0.3229 0.8775 0.3331
C26 C 0.4128(7) 0.7885(16) 0.3869(4)
H26 H 0.4421 0.7406 0.3660
C27 C 0.4408(6) 0.7755(15) 0.4358(4)
H27 H 0.4893 0.7198 0.4488
C28 C 0.3977(4) 0.8444(13) 0.4660(3)
H28 H 0.4159 0.8299 0.5000
C29 C 0.3280(4) 0.9349(11) 0.4475(3)
H29 H 0.3012 0.9892 0.4690
C30 C 0.2015(2) 1.3088(4) 0.38051(11)
C31 C 0.2253(4) 1.3477(7) 0.43460(15)
H30 H 0.2776 1.3015 0.4478
H31 H 0.1896 1.2865 0.4506
H32 H 0.2242 1.4800 0.4401
C32 C 0.1213(3) 1.3872(6) 0.3585(2)
H33 H 0.1218 1.5198 0.3638
H34 H 0.0838 1.3300 0.3740
H35 H 0.1071 1.3618 0.3238
C33 C 0.2593(2) 1.3993(5) 0.35598(16)
H36 H 0.2436 1.3769 0.3211
H37 H 0.3106 1.3474 0.3690
H38 H 0.2605 1.5314 0.3621
C34? C 0.1217(10) 0.945(3) 0.3941(7)
C35? C 0.1245(9) 0.909(2) 0.4427(6)
C36? C 0.0660(9) 0.8254(18) 0.4593(5)
C37? C -0.0003(10) 0.777(3) 0.4250(6)
C38? C -0.0033(9) 0.797(2) 0.3763(6)
C39? C 0.0526(13) 0.895(4) 0.3609(8)
C40? C 0.2954(7) 0.941(3) 0.3939(5)
C41? C 0.3439(7) 0.9298(13) 0.3624(5)
C42? C 0.4137(8) 0.8363(18) 0.3745(5)
C43? C 0.4335(7) 0.7454(18) 0.4185(4)
C44? C 0.3879(5) 0.7611(14) 0.4505(4)
C45? C 0.3185(5) 0.8530(12) 0.4382(4)
C46? C 0.2052(12) 1.298(2) 0.3930(7)
C47? C 0.218(2) 1.291(3) 0.4480(6)
C48? C 0.1297(15) 1.396(3) 0.3705(13)
C49? C 0.2726(14) 1.402(2) 0.3811(9)
H39? H 0.1696 0.9438 0.4660
H40? H 0.0711 0.8022 0.4927
H41? H -0.0436 0.7310 0.4349
H42? H -0.0444 0.7432 0.3531
H43? H 0.0445 0.9288 0.3279
H44? H 0.3289 0.9875 0.3317
H45? H 0.4471 0.8347 0.3532
H46? H 0.4787 0.6723 0.4264
H47? H 0.4042 0.7078 0.4816
H48? H 0.2863 0.8558 0.4603
H49? H 0.2097 1.4131 0.4601
H50? H 0.2701 1.2496 0.4626
H51? H 0.1807 1.2051 0.4564
H52? H 0.1399 1.5258 0.3665
H53? H 0.0944 1.3826 0.3917
H54? H 0.1064 1.3414 0.3390
H55? H 0.2946 1.3290 0.3590
H56? H 0.3121 1.4244 0.4110
H57? H 0.2542 1.5191 0.3659
loop_
_geom_bond_atom_site_label_1
_geom_bond_atom_site_label_2
_geom_bond_site_symmetry_1
_geom_bond_site_symmetry_2
Si1 O4 1_555 1_555
O1 C2 1_555 1_555
O2 H1 1_555 1_555
O3 C5 1_555 1_555
O4 C9 1_555 1_555
O5 C14 1_555 1_555
N1 C3 1_555 1_555
N2 N3 1_555 1_555
N3 N4 1_555 1_555
C1 H2 1_555 1_555
H3 C1 1_555 1_555
H4 C1 1_555 1_555
C2 C1 1_555 1_555
H5 C2 1_555 1_555
C3 C2 1_555 1_555
C4 O2 1_555 1_555
C5 C4 1_555 1_555
C6 O3 1_555 1_555
H6 C6 1_555 1_555
C7 N2 1_555 1_555
H7 C7 1_555 1_555
C8 C4 1_555 1_555
H8 C8 1_555 1_555
H9 C8 1_555 1_555
H10 C8 1_555 1_555
C9 C5 1_555 1_555
H11 C9 1_555 1_555
H12 C9 1_555 1_555
C10 O1 1_555 1_555
C11 C10 1_555 1_555
C12 C11 1_555 1_555
H13 C12 1_555 1_555
C13 C12 1_555 1_555
H14 C13 1_555 1_555
C14 C13 1_555 1_555
C15 C14 1_555 1_555
H15 C15 1_555 1_555
C16 C11 1_555 1_555
H16 C16 1_555 1_555
C17 O5 1_555 1_555
H17 C17 1_555 1_555
H18 C17 1_555 1_555
H19 C17 1_555 1_555
C18 Si1 1_555 1_555
C19 C18 1_555 1_555
H20 C19 1_555 1_555
C20 C19 1_555 1_555
H21 C20 1_555 1_555
C21 C20 1_555 1_555
H22 C21 1_555 1_555
C22 C21 1_555 1_555
H23 C22 1_555 1_555
C23 C18 1_555 1_555
H24 C23 1_555 1_555
C24 Si1 1_555 1_555
C25 C24 1_555 1_555
H25 C25 1_555 1_555
C26 C25 1_555 1_555
H26 C26 1_555 1_555
C27 C26 1_555 1_555
H27 C27 1_555 1_555
C28 C27 1_555 1_555
H28 C28 1_555 1_555
C29 C24 1_555 1_555
H29 C29 1_555 1_555
C30 Si1 1_555 1_555
C31 C30 1_555 1_555
H30 C31 1_555 1_555
H31 C31 1_555 1_555
H32 C31 1_555 1_555
C32 C30 1_555 1_555
H33 C32 1_555 1_555
H34 C32 1_555 1_555
H35 C32 1_555 1_555
C33 C30 1_555 1_555
H36 C33 1_555 1_555
H37 C33 1_555 1_555
H38 C33 1_555 1_555
N1 C10 1_555 1_555
C3 C4 1_555 1_555
C3 C7 1_555 1_555
C5 C6 1_555 1_555
C6 C7 1_555 1_555
C15 C16 1_555 1_555
C22 C23 1_555 1_555
C28 C29 1_555 1_555

#END
