
#######################################################################
#
#                 Cambridge Crystallographic Data Centre
#                                CCDC 
#
#######################################################################
#
# If this CIF has been generated from an entry in the Cambridge 
# Structural Database, then it will include bibliographic, chemical, 
# crystal, experimental, refinement or atomic coordinate data resulting 
# from the CCDC's data processing and validation procedures.
#
#######################################################################

data_ONUJOY
_chemical_formula_moiety         'C15 H13 Br1 N2'
_chemical_name_systematic        
'1-(4-bromophenyl)-5-phenyl-4,5-dihydro-1H-pyrazole unknown solvate'
_symmetry_cell_setting           tetragonal
_symmetry_space_group_name_H-M   'P 41'
_symmetry_Int_Tables_number      76
_space_group_name_Hall           'P 4w'
loop_
_symmetry_equiv_pos_site_id
_symmetry_equiv_pos_as_xyz
1 x,y,z
2 -y,x,1/4+z
3 -x,-y,1/2+z
4 y,-x,3/4+z
_cell_length_a                   15.9607(8)
_cell_length_b                   15.9607(8)
_cell_length_c                   5.43130(10)
_cell_angle_alpha                90
_cell_angle_beta                 90
_cell_angle_gamma                90
_cell_volume                     1383.59
_exptl_crystal_colour            colorless
_exptl_crystal_description       block
_cell_formula_units_Z            4
loop_
_atom_site_label
_atom_site_type_symbol
_atom_site_fract_x
_atom_site_fract_y
_atom_site_fract_z
Br1 Br 0.58954(2) 1.264795(19) 0.56252(10)
N1 N 0.63506(14) 0.88819(15) 0.4990(4)
N2 N 0.59561(16) 0.83633(17) 0.6657(5)
C1 C 0.67103(16) 0.84280(17) 0.2884(5)
H1 H 0.6479 0.8648 0.1343
C2 C 0.63857(18) 0.75320(19) 0.3335(7)
H2 H 0.5979 0.7368 0.2098
H3 H 0.6841 0.7129 0.3359
C3 C 0.59884(19) 0.76187(19) 0.5820(8)
H4 H 0.5780 0.7162 0.6690
C4 C 0.76610(14) 0.84755(15) 0.2824(5)
C5 C 0.81242(17) 0.88567(16) 0.4672(5)
H5 H 0.7851 0.9098 0.6007
C6 C 0.89958(17) 0.88805(17) 0.4546(5)
H6 H 0.9300 0.9141 0.5789
C7 C 0.94102(16) 0.85175(16) 0.2575(5)
H7 H 0.9992 0.8534 0.2492
C8 C 0.89527(17) 0.81279(16) 0.0719(6)
H8 H 0.9228 0.7880 -0.0602
C9 C 0.80793(16) 0.81096(15) 0.0845(5)
H9 H 0.7774 0.7851 -0.0400
C10 C 0.62316(14) 0.97435(17) 0.5127(4)
C11 C 0.57876(16) 1.01014(19) 0.7088(5)
H10 H 0.5557 0.9761 0.8301
C12 C 0.56938(17) 1.0958(2) 0.7217(5)
H11 H 0.5405 1.1196 0.8529
C13 C 0.60265(15) 1.14623(17) 0.5411(6)
C14 C 0.64644(16) 1.11250(18) 0.3446(5)
H12 H 0.6685 1.1473 0.2235
C15 C 0.65716(15) 1.02659(17) 0.3298(5)
H13 H 0.6868 1.0035 0.1990
loop_
_geom_bond_atom_site_label_1
_geom_bond_atom_site_label_2
_geom_bond_site_symmetry_1
_geom_bond_site_symmetry_2
Br1 C13 1_555 1_555
N1 N2 1_555 1_555
N2 C3 1_555 1_555
C1 N1 1_555 1_555
H1 C1 1_555 1_555
C2 C1 1_555 1_555
H2 C2 1_555 1_555
H3 C2 1_555 1_555
C3 C2 1_555 1_555
H4 C3 1_555 1_555
C4 C1 1_555 1_555
C5 C4 1_555 1_555
H5 C5 1_555 1_555
C6 C5 1_555 1_555
H6 C6 1_555 1_555
C7 C6 1_555 1_555
H7 C7 1_555 1_555
C8 C7 1_555 1_555
H8 C8 1_555 1_555
C9 C4 1_555 1_555
H9 C9 1_555 1_555
C10 N1 1_555 1_555
C11 C10 1_555 1_555
H10 C11 1_555 1_555
C12 C11 1_555 1_555
H11 C12 1_555 1_555
C13 C12 1_555 1_555
C14 C13 1_555 1_555
H12 C14 1_555 1_555
C15 C10 1_555 1_555
H13 C15 1_555 1_555
C8 C9 1_555 1_555
C14 C15 1_555 1_555

#END
