
#######################################################################
#
#                 Cambridge Crystallographic Data Centre
#                                CCDC 
#
#######################################################################
#
# If this CIF has been generated from an entry in the Cambridge 
# Structural Database, then it will include bibliographic, chemical, 
# crystal, experimental, refinement or atomic coordinate data resulting 
# from the CCDC's data processing and validation procedures.
#
#######################################################################

data_ONUNUI
_chemical_formula_moiety         'C24 H24 B1 N3 O4'
_chemical_name_systematic        
7-(1-(2-(4,4,5,5-tetramethyl-1,3,2-dioxaborolan-2-yl)benzyl)-1H-1,2,3-triazol-4-yl)-2H-chromen-2-one
_symmetry_cell_setting           triclinic
_symmetry_space_group_name_H-M   'P -1'
_symmetry_Int_Tables_number      2
_space_group_name_Hall           '-P 1'
loop_
_symmetry_equiv_pos_site_id
_symmetry_equiv_pos_as_xyz
1 x,y,z
2 -x,-y,-z
_cell_length_a                   7.1065(4)
_cell_length_b                   9.0913(6)
_cell_length_c                   17.6850(11)
_cell_angle_alpha                81.994(5)
_cell_angle_beta                 84.409(5)
_cell_angle_gamma                68.790(6)
_cell_volume                     1053.43
_exptl_crystal_colour            colorless
_exptl_crystal_description       plate
_cell_formula_units_Z            2
loop_
_atom_site_label
_atom_site_type_symbol
_atom_site_fract_x
_atom_site_fract_y
_atom_site_fract_z
O1 O 0.79462(17) -0.17181(13) 1.12464(7)
O2 O 0.84422(19) -0.32336(15) 1.23499(7)
O3 O 0.52079(18) 0.31518(14) 0.64115(7)
O4 O 0.22026(19) 0.45730(14) 0.58753(8)
C1 C 0.7580(2) -0.00303(19) 1.00900(10)
H1 H 0.7651 0.0760 1.0356
N1 N 0.7313(2) 0.30006(16) 0.92423(8)
N2 N 0.6923(2) 0.38142(16) 0.80492(8)
C2 C 0.7725(2) -0.15079(19) 1.04697(9)
C3 C 0.7627(2) -0.27264(19) 1.00912(10)
C4 C 0.7812(2) -0.42230(19) 1.05326(10)
H2 H 0.7729 -0.5048 1.0296
C5 C 0.7174(2) 0.18000(19) 0.88894(10)
C6 C 0.7230(2) -0.09633(19) 0.89167(10)
H3 H 0.7063 -0.0778 0.8393
N3 N 0.7165(2) 0.42241(16) 0.87254(8)
C7 C 0.7329(2) 0.02522(18) 0.93082(10)
C8 C 0.8190(2) -0.3159(2) 1.16765(10)
C9 C 0.8105(2) -0.44319(19) 1.12838(10)
H4 H 0.8257 -0.5414 1.1559
C10 C 0.7378(2) -0.24251(19) 0.93025(10)
H5 H 0.7312 -0.3217 0.9036
C11 C 0.4085(3) 0.7463(2) 0.76888(10)
H6 H 0.5017 0.7559 0.7995
C12 C 0.6917(2) 0.23236(18) 0.81260(10)
H7 H 0.6771 0.1768 0.7745
C13 C 0.1324(3) 0.7197(2) 0.67751(10)
H8 H 0.0383 0.7123 0.6466
C14 C 0.3240(3) 0.59851(19) 0.68178(9)
C15 C 0.0805(3) 0.8495(2) 0.71814(11)
H9 H -0.0468 0.9281 0.7140
C16 C 0.4636(2) 0.61534(19) 0.72786(9)
C17 C 0.2176(3) 0.8626(2) 0.76496(11)
H10 H 0.1821 0.9482 0.7934
C18 C 0.2805(3) 0.3053(2) 0.55759(11)
C19 C 0.4926(3) 0.2077(2) 0.59288(11)
B1 B 0.3576(3) 0.4535(2) 0.63638(12)
C20 C 0.6760(2) 0.4942(2) 0.73556(10)
H11 H 0.7139 0.4361 0.6911
H12 H 0.7697 0.5491 0.7370
C21 C 0.4934(3) 0.0606(2) 0.64605(14)
H13 H 0.6245 0.0081 0.6665
H14 H 0.4626 -0.0103 0.6180
H15 H 0.3937 0.0913 0.6872
C22 C 0.2838(4) 0.3355(3) 0.47204(13)
H16 H 0.1500 0.3975 0.4561
H17 H 0.3302 0.2360 0.4508
H18 H 0.3733 0.3922 0.4544
C23 C 0.6687(3) 0.1683(3) 0.53506(14)
H19 H 0.6744 0.2645 0.5063
H20 H 0.6522 0.1009 0.5010
H21 H 0.7919 0.1144 0.5610
C24 C 0.1150(3) 0.2376(3) 0.58737(17)
H22 H 0.1035 0.2303 0.6422
H23 H 0.1495 0.1338 0.5715
H24 H -0.0116 0.3062 0.5671
loop_
_geom_bond_atom_site_label_1
_geom_bond_atom_site_label_2
_geom_bond_site_symmetry_1
_geom_bond_site_symmetry_2
O1 C2 1_555 1_555
O2 C8 1_555 1_555
O3 C19 1_555 1_555
O4 C18 1_555 1_555
C1 H1 1_555 1_555
N1 C5 1_555 1_555
N2 N3 1_555 1_555
C2 C1 1_555 1_555
C3 C2 1_555 1_555
C4 C3 1_555 1_555
H2 C4 1_555 1_555
C5 C7 1_555 1_555
C6 H3 1_555 1_555
N3 N1 1_555 1_555
C7 C1 1_555 1_555
C8 O1 1_555 1_555
C9 C4 1_555 1_555
H4 C9 1_555 1_555
C10 C3 1_555 1_555
H5 C10 1_555 1_555
C11 H6 1_555 1_555
C12 N2 1_555 1_555
H7 C12 1_555 1_555
C13 H8 1_555 1_555
C14 C13 1_555 1_555
C15 C13 1_555 1_555
H9 C15 1_555 1_555
C16 C11 1_555 1_555
C17 C11 1_555 1_555
H10 C17 1_555 1_555
C18 C19 1_555 1_555
C19 C21 1_555 1_555
B1 O3 1_555 1_555
C20 N2 1_555 1_555
H11 C20 1_555 1_555
H12 C20 1_555 1_555
C21 H13 1_555 1_555
H14 C21 1_555 1_555
H15 C21 1_555 1_555
C22 C18 1_555 1_555
H16 C22 1_555 1_555
H17 C22 1_555 1_555
H18 C22 1_555 1_555
C23 C19 1_555 1_555
H19 C23 1_555 1_555
H20 C23 1_555 1_555
H21 C23 1_555 1_555
C24 C18 1_555 1_555
H22 C24 1_555 1_555
H23 C24 1_555 1_555
H24 C24 1_555 1_555
O4 B1 1_555 1_555
C5 C12 1_555 1_555
C6 C7 1_555 1_555
C6 C10 1_555 1_555
C8 C9 1_555 1_555
C14 C16 1_555 1_555
C14 B1 1_555 1_555
C15 C17 1_555 1_555
C16 C20 1_555 1_555

#END
