
#######################################################################
#
#                 Cambridge Crystallographic Data Centre
#                                CCDC 
#
#######################################################################
#
# If this CIF has been generated from an entry in the Cambridge 
# Structural Database, then it will include bibliographic, chemical, 
# crystal, experimental, refinement or atomic coordinate data resulting 
# from the CCDC's data processing and validation procedures.
#
#######################################################################

data_ONUWAW
_chemical_formula_moiety         'C36 H36 N2 S2'
_chemical_name_systematic        
1,4-bis[4-(2-cyanoethylsulfanyl)phenylethynyl]-2,5-di-t-butylbenzene
_symmetry_cell_setting           triclinic
_symmetry_space_group_name_H-M   'P -1'
_symmetry_Int_Tables_number      2
_space_group_name_Hall           '-P 1'
loop_
_symmetry_equiv_pos_site_id
_symmetry_equiv_pos_as_xyz
1 x,y,z
2 -x,-y,-z
_cell_length_a                   6.6930(14)
_cell_length_b                   13.459(3)
_cell_length_c                   16.804(3)
_cell_angle_alpha                95.46(3)
_cell_angle_beta                 92.07(3)
_cell_angle_gamma                98.41(3)
_cell_volume                     1488.73
_exptl_crystal_colour            colorless
_exptl_crystal_description       blade
_chemical_melting_point          '372 K'
_cell_formula_units_Z            2
loop_
_atom_site_label
_atom_site_type_symbol
_atom_site_fract_x
_atom_site_fract_y
_atom_site_fract_z
S1 S -0.8693(2) 0.14622(12) 0.64547(9)
S2 S 1.5022(2) 0.25918(11) -0.04948(9)
N1 N -0.7003(9) 0.4725(4) 0.8385(3)
N2 N 1.7556(8) 0.3569(4) -0.2293(3)
C1 C -0.6627(9) 0.1547(4) 0.5818(3)
C2 C -0.6983(9) 0.1015(4) 0.5063(3)
H1 H -0.8277 0.0638 0.4913
C3 C -0.5460(9) 0.1032(4) 0.4528(3)
H2 H -0.5710 0.0644 0.4022
C4 C -0.3586(9) 0.1608(4) 0.4713(3)
C5 C -0.3255(9) 0.2151(5) 0.5470(3)
H3 H -0.1989 0.2563 0.5608
C6 C -0.4765(8) 0.2102(4) 0.6023(3)
H4 H -0.4498 0.2457 0.6541
C7 C -0.2007(9) 0.1690(4) 0.4157(3)
C8 C -0.0592(9) 0.1835(4) 0.3749(3)
C9 C 0.1188(8) 0.1988(4) 0.3275(3)
C10 C 0.1632(8) 0.1149(4) 0.2804(3)
H5 H 0.0730 0.0533 0.2796
C11 C 0.3311(8) 0.1159(4) 0.2342(3)
C12 C 0.4560(8) 0.2090(4) 0.2355(3)
C13 C 0.4094(8) 0.2946(4) 0.2824(3)
H6 H 0.4958 0.3570 0.2815
C14 C 0.2444(8) 0.2915(4) 0.3303(3)
C15 C 0.6319(9) 0.2250(4) 0.1892(3)
C16 C 0.7784(9) 0.2438(4) 0.1516(3)
C17 C 0.9505(9) 0.2537(4) 0.1030(3)
C18 C 0.9653(9) 0.1817(5) 0.0379(3)
H7 H 0.8578 0.1273 0.0257
C19 C 1.1275(9) 0.1876(4) -0.0078(3)
H8 H 1.1307 0.1392 -0.0525
C20 C 1.2915(8) 0.2660(4) 0.0106(3)
C21 C 1.2795(9) 0.3374(4) 0.0738(3)
H9 H 1.3893 0.3906 0.0865
C22 C 1.1126(9) 0.3328(4) 0.1193(3)
H10 H 1.1065 0.3840 0.1618
C23 C 0.3825(9) 0.0184(4) 0.1881(3)
C24 C 0.2291(9) -0.0736(4) 0.2017(3)
H11 H 0.2343 -0.0839 0.2587
H12 H 0.2625 -0.1334 0.1701
H13 H 0.0927 -0.0624 0.1854
C25 C 0.3789(9) 0.0283(4) 0.0974(3)
H14 H 0.4226 -0.0315 0.0694
H15 H 0.4707 0.0888 0.0870
H16 H 0.2412 0.0336 0.0782
C26 C 0.5907(9) -0.0021(4) 0.2170(3)
H17 H 0.5950 -0.0033 0.2752
H18 H 0.6949 0.0515 0.2027
H19 H 0.6158 -0.0674 0.1915
C27 C 0.2077(9) 0.3869(4) 0.3824(3)
C28 C 0.2251(10) 0.3677(5) 0.4717(3)
H20 H 0.3615 0.3538 0.4849
H21 H 0.1256 0.3097 0.4814
H22 H 0.1993 0.4276 0.5053
C29 C -0.0028(9) 0.4153(5) 0.3607(3)
H23 H -0.0057 0.4341 0.3057
H24 H -0.0285 0.4724 0.3976
H25 H -0.1076 0.3572 0.3649
C30 C 0.3672(10) 0.4774(4) 0.3726(4)
H26 H 0.3565 0.4961 0.3178
H27 H 0.5020 0.4599 0.3833
H28 H 0.3460 0.5345 0.4104
C31 C -0.7865(9) 0.2390(4) 0.7287(3)
H29 H -0.8770 0.2266 0.7731
H30 H -0.6487 0.2305 0.7474
C32 C -0.7835(9) 0.3477(4) 0.7094(3)
H31 H -0.6825 0.3633 0.6690
H32 H -0.9178 0.3557 0.6864
C33 C -0.7327(10) 0.4187(5) 0.7820(4)
C34 C 1.6505(9) 0.3827(4) -0.0262(3)
H33 H 1.5690 0.4353 -0.0391
H34 H 1.6897 0.3937 0.0317
C35 C 1.8399(8) 0.3908(5) -0.0746(3)
H35 H 1.9176 0.4595 -0.0628
H36 H 1.9263 0.3420 -0.0578
C36 C 1.7927(8) 0.3710(4) -0.1609(4)
loop_
_geom_bond_atom_site_label_1
_geom_bond_atom_site_label_2
_geom_bond_site_symmetry_1
_geom_bond_site_symmetry_2
S1 C1 1_555 1_555
S2 C20 1_555 1_555
N1 C33 1_555 1_555
N2 C36 1_555 1_555
C1 C2 1_555 1_555
C2 H1 1_555 1_555
C3 C2 1_555 1_555
H2 C3 1_555 1_555
C4 C3 1_555 1_555
C5 C4 1_555 1_555
H3 C5 1_555 1_555
C6 C1 1_555 1_555
H4 C6 1_555 1_555
C7 C4 1_555 1_555
C8 C7 1_555 1_555
C9 C8 1_555 1_555
C10 C9 1_555 1_555
H5 C10 1_555 1_555
C11 C10 1_555 1_555
C12 C11 1_555 1_555
C13 C12 1_555 1_555
H6 C13 1_555 1_555
C14 C9 1_555 1_555
C15 C12 1_555 1_555
C16 C15 1_555 1_555
C17 C16 1_555 1_555
C18 C17 1_555 1_555
H7 C18 1_555 1_555
C19 C18 1_555 1_555
H8 C19 1_555 1_555
C20 C19 1_555 1_555
C21 C20 1_555 1_555
H9 C21 1_555 1_555
C22 C17 1_555 1_555
H10 C22 1_555 1_555
C23 C11 1_555 1_555
C24 C23 1_555 1_555
H11 C24 1_555 1_555
H12 C24 1_555 1_555
H13 C24 1_555 1_555
C25 C23 1_555 1_555
H14 C25 1_555 1_555
H15 C25 1_555 1_555
H16 C25 1_555 1_555
C26 C23 1_555 1_555
H17 C26 1_555 1_555
H18 C26 1_555 1_555
H19 C26 1_555 1_555
C27 C14 1_555 1_555
C28 C27 1_555 1_555
H20 C28 1_555 1_555
H21 C28 1_555 1_555
H22 C28 1_555 1_555
C29 C27 1_555 1_555
H23 C29 1_555 1_555
H24 C29 1_555 1_555
H25 C29 1_555 1_555
C30 C27 1_555 1_555
H26 C30 1_555 1_555
H27 C30 1_555 1_555
H28 C30 1_555 1_555
C31 S1 1_555 1_555
H29 C31 1_555 1_555
H30 C31 1_555 1_555
C32 C31 1_555 1_555
H31 C32 1_555 1_555
H32 C32 1_555 1_555
C33 C32 1_555 1_555
C34 S2 1_555 1_555
H33 C34 1_555 1_555
H34 C34 1_555 1_555
C35 C34 1_555 1_555
H35 C35 1_555 1_555
H36 C35 1_555 1_555
C36 C35 1_555 1_555
C5 C6 1_555 1_555
C13 C14 1_555 1_555
C21 C22 1_555 1_555

#END
