
#######################################################################
#
#                 Cambridge Crystallographic Data Centre
#                                CCDC 
#
#######################################################################
#
# If this CIF has been generated from an entry in the Cambridge 
# Structural Database, then it will include bibliographic, chemical, 
# crystal, experimental, refinement or atomic coordinate data resulting 
# from the CCDC's data processing and validation procedures.
#
#######################################################################

data_OPABAK
_chemical_formula_moiety         'C20 H20 F1 N1 O3'
_chemical_name_systematic        
12-((2-fluorophenyl)(hydroxy)methyl)-14-oxa-7-azatetracyclo[6.6.1.0^1,11^.0^2,7^]pentadeca-9,11-dien-13-one
_chemical_properties_biological  'anti-proliferative activity'
_symmetry_cell_setting           monoclinic
_symmetry_space_group_name_H-M   'P 21'
_symmetry_Int_Tables_number      4
_space_group_name_Hall           'P 2yb'
loop_
_symmetry_equiv_pos_site_id
_symmetry_equiv_pos_as_xyz
1 x,y,z
2 -x,1/2+y,-z
_cell_length_a                   8.08980(10)
_cell_length_b                   12.38670(10)
_cell_length_c                   8.52430(10)
_cell_angle_alpha                90
_cell_angle_beta                 104.6270(10)
_cell_angle_gamma                90
_cell_volume                     826.501
_exptl_crystal_colour            colorless
_exptl_crystal_description       block
_cell_formula_units_Z            2
loop_
_atom_site_label
_atom_site_type_symbol
_atom_site_fract_x
_atom_site_fract_y
_atom_site_fract_z
F1 F 0.14640(17) 0.39244(11) 0.60108(18)
O1 O 0.41032(17) 0.35841(11) 0.12204(16)
O2 O 0.62329(17) 0.50234(14) 0.63001(16)
H1 H 0.6354 0.4947 0.7278
O3 O 0.29563(19) 0.28233(13) 0.30992(18)
N1 N 0.7207(2) 0.50191(14) -0.02632(19)
C1 C 0.3819(2) 0.35293(17) 0.2748(2)
C2 C 0.4626(2) 0.46004(17) 0.5453(2)
H2 H 0.4441 0.3904 0.5926
C3 C 0.5470(2) 0.50224(17) 0.2790(2)
C4 C 0.4706(2) 0.44345(17) 0.3724(2)
C5 C 0.6952(2) 0.41794(16) 0.0869(2)
H3 H 0.7823 0.4279 0.1890
C6 C 0.5195(3) 0.44896(17) 0.1167(2)
C7 C 0.6754(3) 0.64731(17) 0.1656(3)
H4 H 0.7369 0.7115 0.1759
C8 C 0.6420(3) 0.60316(18) 0.2972(3)
H5 H 0.6785 0.6361 0.3980
C9 C 0.6154(3) 0.59533(17) -0.0010(2)
H6 H 0.6028 0.6487 -0.0881
C10 C 0.3163(3) 0.53646(17) 0.5514(2)
C11 C 0.1644(3) 0.50007(19) 0.5774(2)
C12 C 0.3306(3) 0.64720(19) 0.5290(3)
H7 H 0.4309 0.6749 0.5106
C13 C 0.7239(3) 0.30839(17) 0.0193(3)
H8 H 0.6468 0.2980 -0.0870
H9 H 0.7043 0.2514 0.0905
C14 C 0.1978(3) 0.7167(2) 0.5335(3)
H10 H 0.2094 0.7904 0.5180
C15 C 0.0474(3) 0.6766(2) 0.5612(3)
H11 H -0.0413 0.7234 0.5652
C16 C 0.4478(3) 0.53368(17) -0.0117(3)
H12 H 0.3617 0.5785 0.0173
H13 H 0.4020 0.5020 -0.1179
C17 C 0.9574(3) 0.4055(2) -0.0812(3)
H14 H 1.0801 0.4066 -0.0674
H15 H 0.9040 0.3983 -0.1962
C18 C 0.0293(3) 0.5670(2) 0.5829(3)
H16 H -0.0710 0.5390 0.6008
C19 C 0.9021(3) 0.51265(19) -0.0212(3)
H17 H 0.9680 0.5273 0.0885
H18 H 0.9194 0.5714 -0.0906
C20 C 0.9106(3) 0.3068(2) 0.0078(3)
H19 H 0.9853 0.3043 0.1164
H20 H 0.9299 0.2418 -0.0485
loop_
_geom_bond_atom_site_label_1
_geom_bond_atom_site_label_2
_geom_bond_site_symmetry_1
_geom_bond_site_symmetry_2
F1 C11 1_555 1_555
O1 C1 1_555 1_555
O2 H1 1_555 1_555
O3 C1 1_555 1_555
N1 C5 1_555 1_555
C1 C4 1_555 1_555
C2 O2 1_555 1_555
H2 C2 1_555 1_555
C3 C4 1_555 1_555
C4 C2 1_555 1_555
C5 H3 1_555 1_555
C6 O1 1_555 1_555
C7 H4 1_555 1_555
C8 C3 1_555 1_555
H5 C8 1_555 1_555
C9 N1 1_555 1_555
H6 C9 1_555 1_555
C10 C2 1_555 1_555
C11 C10 1_555 1_555
C12 C10 1_555 1_555
H7 C12 1_555 1_555
C13 C5 1_555 1_555
H8 C13 1_555 1_555
H9 C13 1_555 1_555
C14 C12 1_555 1_555
H10 C14 1_555 1_555
C15 C14 1_555 1_555
H11 C15 1_555 1_555
C16 C6 1_555 1_555
H12 C16 1_555 1_555
H13 C16 1_555 1_555
C17 H14 1_555 1_555
H15 C17 1_555 1_555
C18 C11 1_555 1_555
H16 C18 1_555 1_555
C19 N1 1_555 1_555
H17 C19 1_555 1_555
H18 C19 1_555 1_555
C20 C13 1_555 1_555
H19 C20 1_555 1_555
H20 C20 1_555 1_555
C3 C6 1_555 1_555
C5 C6 1_555 1_555
C7 C8 1_555 1_555
C7 C9 1_555 1_555
C9 C16 1_555 1_555
C15 C18 1_555 1_555
C17 C19 1_555 1_555
C17 C20 1_555 1_555

#END
