
#######################################################################
#
#                 Cambridge Crystallographic Data Centre
#                                CCDC 
#
#######################################################################
#
# If this CIF has been generated from an entry in the Cambridge 
# Structural Database, then it will include bibliographic, chemical, 
# crystal, experimental, refinement or atomic coordinate data resulting 
# from the CCDC's data processing and validation procedures.
#
#######################################################################

data_OPAJIA
_chemical_formula_moiety         'C13 H4 F5 N1 S1'
_chemical_name_systematic        4-(pentafluorophenyl)-1,3-benzothiazole
_symmetry_cell_setting           monoclinic
_symmetry_space_group_name_H-M   'P 21/c'
_symmetry_Int_Tables_number      14
_space_group_name_Hall           '-P 2ybc'
loop_
_symmetry_equiv_pos_site_id
_symmetry_equiv_pos_as_xyz
1 x,y,z
2 -x,1/2+y,1/2-z
3 -x,-y,-z
4 x,1/2-y,1/2+z
_cell_length_a                   14.4070(11)
_cell_length_b                   7.3079(5)
_cell_length_c                   11.1275(9)
_cell_angle_alpha                90
_cell_angle_beta                 109.808(9)
_cell_angle_gamma                90
_cell_volume                     1102.24
_exptl_crystal_colour            'reddish colorless'
_exptl_crystal_description       prism
_cell_formula_units_Z            4
loop_
_atom_site_label
_atom_site_type_symbol
_atom_site_fract_x
_atom_site_fract_y
_atom_site_fract_z
S1 S 0.05226(3) 0.71727(6) 0.95293(4)
F1 F 0.14825(7) 0.36850(14) 0.63872(9)
F2 F 0.44922(6) 0.68181(14) 0.82614(9)
F3 F 0.48153(7) 0.67008(15) 0.60363(10)
F4 F 0.17851(7) 0.36871(15) 0.41333(9)
F5 F 0.34551(7) 0.51430(16) 0.39448(9)
N1 N 0.11659(10) 0.69813(19) 0.76137(13)
C1 C 0.18686(11) 0.6144(2) 0.86483(14)
C2 C 0.27573(11) 0.5362(2) 0.86220(14)
C3 C 0.34060(11) 0.4662(2) 0.97491(15)
H1 H 0.4003 0.4168 0.9756
C4 C 0.22949(11) 0.4498(2) 0.63169(15)
C5 C 0.29620(11) 0.5282(2) 0.74041(14)
C6 C 0.16528(11) 0.6124(2) 0.97863(15)
C7 C 0.31839(11) 0.4682(2) 1.08797(15)
H2 H 0.3638 0.4210 1.1623
C8 C 0.38159(11) 0.5995(2) 0.72685(15)
C9 C 0.23018(11) 0.5390(2) 1.09156(15)
H3 H 0.2148 0.5376 1.1663
C10 C 0.33029(12) 0.5188(2) 0.50648(15)
C11 C 0.24487(12) 0.4456(2) 0.51606(15)
C12 C 0.39899(11) 0.5955(2) 0.61232(16)
C13 C 0.04441(12) 0.7545(2) 0.79597(16)
H4 H -0.0099 0.8130 0.7386
loop_
_geom_bond_atom_site_label_1
_geom_bond_atom_site_label_2
_geom_bond_site_symmetry_1
_geom_bond_site_symmetry_2
S1 C6 1_555 1_555
F1 C4 1_555 1_555
F2 C8 1_555 1_555
F3 C12 1_555 1_555
F4 C11 1_555 1_555
F5 C10 1_555 1_555
N1 C1 1_555 1_555
C1 C2 1_555 1_555
C2 C3 1_555 1_555
C3 H1 1_555 1_555
C4 C5 1_555 1_555
C5 C2 1_555 1_555
C6 C1 1_555 1_555
C7 C3 1_555 1_555
H2 C7 1_555 1_555
C8 C5 1_555 1_555
C9 C6 1_555 1_555
H3 C9 1_555 1_555
C10 C11 1_555 1_555
C11 C4 1_555 1_555
C12 C8 1_555 1_555
C13 S1 1_555 1_555
H4 C13 1_555 1_555
N1 C13 1_555 1_555
C7 C9 1_555 1_555
C10 C12 1_555 1_555

#END
