
#######################################################################
#
#                 Cambridge Crystallographic Data Centre
#                                CCDC 
#
#######################################################################
#
# If this CIF has been generated from an entry in the Cambridge 
# Structural Database, then it will include bibliographic, chemical, 
# crystal, experimental, refinement or atomic coordinate data resulting 
# from the CCDC's data processing and validation procedures.
#
#######################################################################

data_OPAJAR
_chemical_formula_moiety         'C42 H34 N4 O6,0.5(C1 H2 Cl2)'
_chemical_name_systematic        
'Diethyl 6,13-dioxo-1,8-bis(phenylethynyl)-5,7,12,14-tetrahydro-5a,6a,12a,13a-tetraazabenzo[5,6]azuleno[2,1,8-ija]benzo[f]azulene-13b,13c-dicarboxylate dichloromethane solvate'
_symmetry_cell_setting           orthorhombic
_symmetry_space_group_name_H-M   'P c c n'
_symmetry_Int_Tables_number      56
_space_group_name_Hall           '-P 2ab 2ac'
loop_
_symmetry_equiv_pos_site_id
_symmetry_equiv_pos_as_xyz
1 x,y,z
2 1/2-x,1/2-y,z
3 -x,1/2+y,1/2-z
4 1/2+x,-y,1/2-z
5 -x,-y,-z
6 1/2+x,1/2+y,-z
7 x,1/2-y,1/2+z
8 1/2-x,y,1/2+z
_cell_length_a                   19.2485(19)
_cell_length_b                   19.7914(19)
_cell_length_c                   19.069(2)
_cell_angle_alpha                90
_cell_angle_beta                 90
_cell_angle_gamma                90
_cell_volume                     7264.43
_exptl_crystal_colour            colorless
_exptl_crystal_description       block
_cell_formula_units_Z            8
loop_
_atom_site_label
_atom_site_type_symbol
_atom_site_fract_x
_atom_site_fract_y
_atom_site_fract_z
C1 C -0.0390(4) 0.6695(3) 0.1718(3)
H1 H -0.0521 0.6402 0.2075
C2 C -0.0619(4) 0.7335(3) 0.1717(3)
H2 H -0.0908 0.7486 0.2075
C3 C -0.0429(6) 0.7758(4) 0.1201(5)
H3 H -0.0588 0.8202 0.1201
C4 C -0.0011(6) 0.7540(5) 0.0685(5)
H4 H 0.0120 0.7833 0.0328
C5 C 0.0218(5) 0.6899(5) 0.0686(5)
H5 H 0.0507 0.6748 0.0329
C6 C 0.0028(5) 0.6477(3) 0.1202(4)
C7 C 0.03289(17) 0.57948(18) 0.12091(17)
C8 C 0.05294(16) 0.52358(18) 0.11544(16)
C9 C 0.08097(17) 0.45641(16) 0.10943(16)
C10 C 0.0723(2) 0.4109(2) 0.1649(2)
H6 H 0.0484 0.4241 0.2050
C11 C 0.0992(3) 0.3469(2) 0.1602(2)
H7 H 0.0937 0.3170 0.1974
C12 C 0.1339(2) 0.32647(18) 0.10125(19)
H8 H 0.1508 0.2825 0.0986
C13 C 0.14438(15) 0.37013(15) 0.04561(15)
C14 C 0.11729(15) 0.43596(14) 0.04923(15)
C15 C 0.12532(15) 0.48463(15) -0.01139(16)
H9 H 0.0995 0.4673 -0.0512
H10 H 0.1049 0.5276 0.0017
C16 C 0.18077(16) 0.34412(14) -0.01898(17)
H11 H 0.1940 0.2975 -0.0110
H12 H 0.1482 0.3448 -0.0578
C17 C 0.23846(16) 0.54420(14) -0.00180(16)
C18 C 0.30641(16) 0.37223(15) -0.00977(16)
C19 C 0.23640(15) 0.44749(14) -0.07295(15)
C20 C 0.20614(19) 0.44146(17) -0.14730(17)
C21 C 0.2195(3) 0.3884(3) -0.2586(3)
H13 H 0.1920 0.4268 -0.2736
H14 H 0.2601 0.3853 -0.2886
C22 C 0.1787(6) 0.3266(5) -0.2632(6)
H15 H 0.2076 0.2885 -0.2521
H16 H 0.1608 0.3217 -0.3099
H17 H 0.1408 0.3288 -0.2305
C23 C 0.31298(15) 0.47550(14) -0.06846(15)
C24 C 0.34739(17) 0.48993(17) -0.13985(16)
C25 C 0.3395(2) 0.5588(2) -0.24158(19)
H18 H 0.3827 0.5838 -0.2380
H19 H 0.3480 0.5182 -0.2687
C26 C 0.2882(3) 0.5992(3) -0.2754(3)
H20 H 0.2468 0.5729 -0.2822
H21 H 0.3055 0.6140 -0.3201
H22 H 0.2778 0.6378 -0.2468
C27 C 0.36385(17) 0.57057(15) 0.00341(17)
H23 H 0.3503 0.6162 0.0158
H24 H 0.4004 0.5737 -0.0314
C28 C 0.41920(15) 0.43154(16) -0.00338(17)
H25 H 0.4476 0.4544 -0.0380
H26 H 0.4394 0.3873 0.0047
C29 C 0.39279(15) 0.53620(16) 0.06800(16)
C30 C 0.39226(18) 0.57060(19) 0.13154(19)
H27 H 0.3723 0.6133 0.1340
C31 C 0.4208(2) 0.5426(2) 0.1907(2)
H28 H 0.4189 0.5657 0.2331
C32 C 0.45189(19) 0.4806(2) 0.18713(19)
H29 H 0.4725 0.4625 0.2270
C33 C 0.45318(16) 0.44407(18) 0.12492(17)
C34 C 0.42190(15) 0.47128(16) 0.06434(16)
C35 C 0.48997(17) 0.3804(2) 0.12295(17)
C36 C 0.5260(2) 0.33350(19) 0.1235(2)
C37 C 0.5648(4) 0.2719(3) 0.1331(3)
C38 C 0.5860(3) 0.2479(3) 0.1950(3)
H30 H 0.5737 0.2700 0.2362
C39 C 0.6249(4) 0.1919(3) 0.1977(4)
H31 H 0.6396 0.1752 0.2408
C40 C 0.6426(4) 0.1601(3) 0.1385(4)
H32 H 0.6697 0.1212 0.1404
C41 C 0.6214(4) 0.1841(4) 0.0766(4)
H33 H 0.6337 0.1620 0.0354
C42 C 0.5825(4) 0.2401(4) 0.0738(3)
H34 H 0.5678 0.2568 0.0308
N1 N 0.19728(12) 0.49600(12) -0.03291(12)
N2 N 0.24284(12) 0.38231(11) -0.03924(13)
N3 N 0.30453(13) 0.53680(11) -0.02793(13)
N4 N 0.34984(12) 0.42278(12) -0.03181(12)
O1 O 0.21967(12) 0.58697(10) 0.03938(11)
O2 O 0.32320(12) 0.32502(10) 0.02811(12)
O3 O 0.15814(14) 0.47325(15) -0.16803(13)
O4 O 0.24095(14) 0.39661(15) -0.18411(13)
O5 O 0.39544(13) 0.45947(14) -0.16241(12)
O6 O 0.31461(12) 0.54065(12) -0.17115(11)
C43 C 0.2500 0.7500 0.0689(5)
H35 H 0.2513 0.7894 0.0386
Cl1 Cl 0.17589(16) 0.75228(11) 0.1125(2)
H35A H 0.2487 0.7106 0.0386
Cl1A Cl 0.32411(16) 0.74772(11) 0.1125(2)
C44? C 0.0233(5) 0.6905(4) 0.1897(4)
C45? C 0.0013(5) 0.7574(4) 0.1939(5)
C46? C 0.2439(13) 0.4335(12) -0.3166(11)
C47? C -0.0269(9) 0.7882(8) 0.1350(6)
C48? C 0.5783(5) 0.2752(4) 0.1186(7)
C49? C 0.6512(4) 0.2830(4) 0.1224(5)
C50? C 0.6979(5) 0.2284(5) 0.1264(5)
C51? C -0.0360(5) 0.7506(4) 0.0732(6)
C52? C 0.6721(6) 0.1630(6) 0.1220(7)
C53? C 0.6011(5) 0.1526(5) 0.1178(6)
C54? C 0.5564(4) 0.2072(4) 0.1135(5)
C55? C -0.0135(4) 0.6841(4) 0.0699(5)
C56? C 0.0154(7) 0.6525(4) 0.1291(5)
H36? H 0.0440 0.6707 0.2287
H37? H 0.0054 0.7812 0.2357
H38? H 0.1692 0.3904 -0.2589
H39? H 0.2316 0.3424 -0.2715
H40? H 0.2104 0.4688 -0.3241
H41? H 0.2491 0.4076 -0.3588
H42? H 0.2877 0.4532 -0.3041
H43? H -0.0397 0.8335 0.1364
H44? H 0.6693 0.3266 0.1223
H45? H 0.7453 0.2361 0.1319
H46? H -0.0573 0.7703 0.0345
H47? H 0.7024 0.1264 0.1219
H48? H 0.5834 0.1089 0.1179
H49? H 0.5094 0.1987 0.1068
H50? H -0.0175 0.6602 0.0281
loop_
_geom_bond_atom_site_label_1
_geom_bond_atom_site_label_2
_geom_bond_site_symmetry_1
_geom_bond_site_symmetry_2
C1 H1 1_555 1_555
C2 C1 1_555 1_555
H2 C2 1_555 1_555
C3 C2 1_555 1_555
H3 C3 1_555 1_555
C4 C3 1_555 1_555
H4 C4 1_555 1_555
C5 C4 1_555 1_555
H5 C5 1_555 1_555
C6 C1 1_555 1_555
C7 C6 1_555 1_555
C8 C7 1_555 1_555
C9 C8 1_555 1_555
C10 C9 1_555 1_555
H6 C10 1_555 1_555
C11 C10 1_555 1_555
H7 C11 1_555 1_555
C12 C11 1_555 1_555
H8 C12 1_555 1_555
C13 C12 1_555 1_555
C14 C9 1_555 1_555
C15 C14 1_555 1_555
H9 C15 1_555 1_555
H10 C15 1_555 1_555
C16 C13 1_555 1_555
H11 C16 1_555 1_555
H12 C16 1_555 1_555
C17 N1 1_555 1_555
C18 N2 1_555 1_555
C19 C20 1_555 1_555
C20 O3 1_555 1_555
C21 H13 1_555 1_555
H14 C21 1_555 1_555
C22 C21 1_555 1_555
H15 C22 1_555 1_555
H16 C22 1_555 1_555
H17 C22 1_555 1_555
C23 C19 1_555 1_555
C24 C23 1_555 1_555
C25 H18 1_555 1_555
H19 C25 1_555 1_555
C26 C25 1_555 1_555
H20 C26 1_555 1_555
H21 C26 1_555 1_555
H22 C26 1_555 1_555
C27 H23 1_555 1_555
H24 C27 1_555 1_555
C28 H25 1_555 1_555
H26 C28 1_555 1_555
C29 C27 1_555 1_555
C30 C29 1_555 1_555
H27 C30 1_555 1_555
C31 C30 1_555 1_555
H28 C31 1_555 1_555
C32 C31 1_555 1_555
H29 C32 1_555 1_555
C33 C32 1_555 1_555
C34 C28 1_555 1_555
C35 C33 1_555 1_555
C36 C35 1_555 1_555
C37 C36 1_555 1_555
C38 C37 1_555 1_555
H30 C38 1_555 1_555
C39 C38 1_555 1_555
H31 C39 1_555 1_555
C40 C39 1_555 1_555
H32 C40 1_555 1_555
C41 C40 1_555 1_555
H33 C41 1_555 1_555
C42 C37 1_555 1_555
H34 C42 1_555 1_555
C43 H35 1_555 1_555
Cl1 C43 1_555 1_555
N1 C15 1_555 1_555
N2 C16 1_555 1_555
N3 C17 1_555 1_555
N4 C18 1_555 1_555
O1 C17 1_555 1_555
O2 C18 1_555 1_555
O4 C20 1_555 1_555
O5 C24 1_555 1_555
O6 C24 1_555 1_555
H35A C43 1_555 1_555
Cl1A C43 1_555 1_555
C5 C6 1_555 1_555
C13 C14 1_555 1_555
C19 N1 1_555 1_555
C19 N2 1_555 1_555
C21 O4 1_555 1_555
C23 N3 1_555 1_555
C23 N4 1_555 1_555
C25 O6 1_555 1_555
C27 N3 1_555 1_555
C28 N4 1_555 1_555
C29 C34 1_555 1_555
C33 C34 1_555 1_555
C41 C42 1_555 1_555

#END
