
#######################################################################
#
#                 Cambridge Crystallographic Data Centre
#                                CCDC 
#
#######################################################################
#
# If this CIF has been generated from an entry in the Cambridge 
# Structural Database, then it will include bibliographic, chemical, 
# crystal, experimental, refinement or atomic coordinate data resulting 
# from the CCDC's data processing and validation procedures.
#
#######################################################################

data_OPARUU
_chemical_formula_moiety         'C20 H21 N2 O9 P1 S1'
_chemical_name_systematic        
'diethyl 1-(4-nitrophenyl)-2-((2-(4-nitrophenyl)-2-oxoethyl)sulfanyl)vinyl phosphate'
_symmetry_cell_setting           triclinic
_symmetry_space_group_name_H-M   'P -1'
_symmetry_Int_Tables_number      2
_space_group_name_Hall           '-P 1'
loop_
_symmetry_equiv_pos_site_id
_symmetry_equiv_pos_as_xyz
1 x,y,z
2 -x,-y,-z
_cell_length_a                   8.5482(17)
_cell_length_b                   11.007(2)
_cell_length_c                   12.743(3)
_cell_angle_alpha                73.48(3)
_cell_angle_beta                 82.03(3)
_cell_angle_gamma                83.95(3)
_cell_volume                     1135.64
_cell_formula_units_Z            2
loop_
_atom_site_label
_atom_site_type_symbol
_atom_site_fract_x
_atom_site_fract_y
_atom_site_fract_z
S1 S 0.39947(10) 0.75530(7) 0.13384(7)
P1 P 0.43729(10) 0.78486(7) -0.16189(7)
O1 O -0.1138(4) 1.3528(3) -0.3712(2)
O2 O -0.0367(4) 1.4597(3) -0.2723(3)
O3 O 0.2806(2) 0.80681(19) -0.08389(18)
O4 O 0.3788(3) 0.7739(2) -0.26916(18)
O5 O 0.4938(3) 0.64896(19) -0.09612(19)
O6 O 0.5479(3) 0.8841(2) -0.1875(2)
O7 O 0.5613(4) 0.6063(2) 0.3164(2)
O8 O 0.8454(5) 1.0009(4) 0.6042(3)
O9 O 0.9077(3) 0.8072(3) 0.6929(3)
N1 N -0.0456(4) 1.3604(3) -0.2954(3)
N2 N 0.8462(4) 0.8859(4) 0.6189(3)
C1 C 0.0279(4) 1.2439(3) -0.2272(3)
C2 C 0.0239(4) 1.1311(3) -0.2526(3)
H1 H -0.0285(4) 1.1281(3) -0.3110(3)
C3 C 0.0983(4) 1.0222(3) -0.1905(3)
H2 H 0.0952(4) 0.9456(3) -0.2072(3)
C4 C 0.1779(3) 1.0255(3) -0.1033(2)
C5 C 0.1780(4) 1.1422(3) -0.0797(3)
H3 H 0.2297(4) 1.1465(3) -0.0213(3)
C6 C 0.1033(4) 1.2502(3) -0.1410(3)
H4 H 0.1038(4) 1.3270(3) -0.1242(3)
C7 C 0.2603(3) 0.9110(3) -0.0384(3)
C8 C 0.2781(5) 0.6754(4) -0.2706(3)
H5 H 0.3269(5) 0.5923(4) -0.2369(3)
H6 H 0.1762(5) 0.6857(4) -0.2287(3)
C9 C 0.2559(5) 0.6852(4) -0.3863(3)
H7 H 0.210(3) 0.7682(10) -0.4197(8)
H8 H 0.3567(7) 0.672(3) -0.4266(7)
H9 H 0.187(3) 0.6222(18) -0.3873(3)
C10 C 0.6425(5) 0.5871(3) -0.1329(3)
H10 H 0.6262(5) 0.5003(3) -0.1300(3)
H11 H 0.6771(5) 0.6314(3) -0.2087(3)
C11 C 0.7646(6) 0.5875(5) -0.0632(4)
H12 H 0.794(3) 0.6728(7) -0.076(2)
H13 H 0.7243(16) 0.555(3) 0.0128(4)
H14 H 0.8558(18) 0.535(3) -0.081(2)
C12 C 0.3085(4) 0.8952(3) 0.0593(3)
H15 H 0.2925(4) 0.9636(3) 0.0898(3)
C13 C 0.4379(4) 0.8101(3) 0.2471(3)
H16 H 0.4899(4) 0.8890(3) 0.2188(3)
H17 H 0.3382(4) 0.8270(3) 0.2889(3)
C14 C 0.5400(4) 0.7147(3) 0.3216(3)
C15 C 0.6151(3) 0.7593(3) 0.4018(2)
C16 C 0.6033(4) 0.8872(3) 0.4003(3)
H18 H 0.5430(4) 0.9456(3) 0.3509(3)
C17 C 0.6795(4) 0.9277(3) 0.4705(3)
H19 H 0.6732(4) 1.0132(3) 0.4684(3)
C18 C 0.7653(4) 0.8396(3) 0.5442(3)
C19 C 0.7785(4) 0.7120(3) 0.5496(3)
H20 H 0.8368(4) 0.6541(3) 0.6007(3)
C20 C 0.7034(4) 0.6727(3) 0.4777(3)
H21 H 0.7116(4) 0.5872(3) 0.4797(3)
loop_
_geom_bond_atom_site_label_1
_geom_bond_atom_site_label_2
_geom_bond_site_symmetry_1
_geom_bond_site_symmetry_2
S1 C12 1_555 1_555
P1 O3 1_555 1_555
O1 N1 1_555 1_555
O2 N1 1_555 1_555
O3 C7 1_555 1_555
O4 P1 1_555 1_555
O5 P1 1_555 1_555
O6 P1 1_555 1_555
O7 C14 1_555 1_555
O8 N2 1_555 1_555
O9 N2 1_555 1_555
N1 C1 1_555 1_555
N2 C18 1_555 1_555
C1 C2 1_555 1_555
C2 H1 1_555 1_555
C3 C2 1_555 1_555
H2 C3 1_555 1_555
C4 C3 1_555 1_555
C5 C4 1_555 1_555
H3 C5 1_555 1_555
C6 C1 1_555 1_555
H4 C6 1_555 1_555
C7 C4 1_555 1_555
C8 O4 1_555 1_555
H5 C8 1_555 1_555
H6 C8 1_555 1_555
C9 C8 1_555 1_555
H7 C9 1_555 1_555
H8 C9 1_555 1_555
H9 C9 1_555 1_555
C10 O5 1_555 1_555
H10 C10 1_555 1_555
H11 C10 1_555 1_555
C11 C10 1_555 1_555
H12 C11 1_555 1_555
H13 C11 1_555 1_555
H14 C11 1_555 1_555
C12 C7 1_555 1_555
H15 C12 1_555 1_555
C13 S1 1_555 1_555
H16 C13 1_555 1_555
H17 C13 1_555 1_555
C14 C13 1_555 1_555
C15 C14 1_555 1_555
C16 C15 1_555 1_555
H18 C16 1_555 1_555
C17 C16 1_555 1_555
H19 C17 1_555 1_555
C18 C17 1_555 1_555
C19 C18 1_555 1_555
H20 C19 1_555 1_555
C20 C15 1_555 1_555
H21 C20 1_555 1_555
C5 C6 1_555 1_555
C19 C20 1_555 1_555

#END
