
#######################################################################
#
#                 Cambridge Crystallographic Data Centre
#                                CCDC 
#
#######################################################################
#
# If this CIF has been generated from an entry in the Cambridge 
# Structural Database, then it will include bibliographic, chemical, 
# crystal, experimental, refinement or atomic coordinate data resulting 
# from the CCDC's data processing and validation procedures.
#
#######################################################################

data_OPAXUA
_chemical_formula_moiety         'C29 H21 N3 O2'
_chemical_name_systematic        
N-benzyl-N-(11-oxo-5,11-dihydrobenzimidazo[1,2-b]isoquinolin-6-yl)benzamide
_symmetry_cell_setting           triclinic
_symmetry_space_group_name_H-M   'P -1'
_symmetry_Int_Tables_number      2
_space_group_name_Hall           '-P 1'
loop_
_symmetry_equiv_pos_site_id
_symmetry_equiv_pos_as_xyz
1 x,y,z
2 -x,-y,-z
_cell_length_a                   10.1264(7)
_cell_length_b                   11.3087(7)
_cell_length_c                   11.5564(11)
_cell_angle_alpha                67.874(7)
_cell_angle_beta                 65.230(8)
_cell_angle_gamma                83.135(5)
_cell_volume                     1112
_cell_formula_units_Z            2
loop_
_atom_site_label
_atom_site_type_symbol
_atom_site_fract_x
_atom_site_fract_y
_atom_site_fract_z
N1 N 0.43902(14) 0.21173(12) 0.41976(14)
O1 O 0.66408(13) 0.30561(11) 0.33034(13)
N2 N 0.27438(15) 0.00320(12) 0.32901(14)
N3 N 0.20804(15) 0.14337(13) 0.51584(15)
H1 H 0.1282 0.1079 0.5327
C1 C 0.34046(18) 0.13623(15) 0.41850(18)
C2 C 0.53421(19) 0.07201(16) 0.24905(18)
C3 C 0.38307(18) 0.07319(15) 0.33007(18)
C4 C 0.63397(18) 0.15013(16) 0.24903(18)
C5 C 0.36481(18) 0.26233(15) 0.52346(18)
O2 O 0.05003(13) 0.01039(11) 0.33020(13)
C6 C 0.19690(18) 0.20016(15) 0.18981(18)
C7 C 0.16808(18) 0.06539(16) 0.28841(18)
C8 C 0.23904(18) -0.22506(16) 0.35725(19)
C9 C 0.58620(18) 0.22960(16) 0.33115(18)
C10 C 0.22112(19) 0.21671(15) 0.58414(18)
C11 C 0.5918(2) -0.00480(17) 0.1689(2)
H2 H 0.5291 -0.0568 0.1666
C12 C 0.4108(2) 0.33974(16) 0.5689(2)
H3 H 0.5069 0.3707 0.5283
C13 C 0.0825(2) 0.28158(18) 0.20474(19)
H4 H -0.0066 0.2531 0.2788
C14 C 0.2810(2) -0.19625(18) 0.2195(2)
H5 H 0.3110 -0.1128 0.1591
C15 C 0.7829(2) 0.15027(19) 0.1696(2)
H6 H 0.8473 0.2028 0.1691
C16 C 0.7383(2) -0.00414(19) 0.0945(2)
H7 H 0.7742 -0.0571 0.0439
C17 C 0.2355(2) -0.4122(2) 0.2570(3)
H8 H 0.2356 -0.4752 0.2235
C18 C 0.1935(2) -0.34968(17) 0.4445(2)
H9 H 0.1637 -0.3713 0.5380
C19 C 0.3271(2) 0.24383(17) 0.07856(19)
H10 H 0.4049 0.1902 0.0669
C20 C 0.2794(2) -0.28874(19) 0.1694(2)
H11 H 0.3082 -0.2674 0.0760
C21 C 0.1184(2) 0.24556(17) 0.6922(2)
H12 H 0.0222 0.2148 0.7327
C22 C 0.3076(2) 0.36916(18) 0.6773(2)
H13 H 0.3347 0.4214 0.7102
C23 C 0.8349(2) 0.0755(2) 0.0936(2)
H14 H 0.9342 0.0769 0.0411
C24 C 0.3433(2) 0.3667(2) -0.0161(2)
H15 H 0.4316 0.3953 -0.0913
C25 C 0.0992(2) 0.40443(19) 0.1109(2)
H16 H 0.0220 0.4587 0.1224
C26 C 0.1916(2) -0.44194(18) 0.3946(3)
H17 H 0.1603 -0.5253 0.4547
C27 C 0.1647(2) 0.32261(18) 0.7381(2)
H18 H 0.0983 0.3436 0.8116
C28 C 0.2291(3) 0.44619(19) 0.0010(2)
H19 H 0.2401 0.5289 -0.0624
C29 C 0.2436(2) -0.13204(15) 0.42012(19)
H20 H 0.1505 -0.1389 0.4964
H21 H 0.3172 -0.1577 0.4569
loop_
_geom_bond_atom_site_label_1
_geom_bond_atom_site_label_2
_geom_bond_site_symmetry_1
_geom_bond_site_symmetry_2
N1 C1 1_555 1_555
O1 C9 1_555 1_555
N2 C3 1_555 1_555
N3 H1 1_555 1_555
C1 N3 1_555 1_555
C2 C3 1_555 1_555
C3 C1 1_555 1_555
C4 C2 1_555 1_555
C5 N1 1_555 1_555
O2 C7 1_555 1_555
C6 C7 1_555 1_555
C7 N2 1_555 1_555
C8 C14 1_555 1_555
C9 N1 1_555 1_555
C10 N3 1_555 1_555
C11 C2 1_555 1_555
H2 C11 1_555 1_555
C12 C5 1_555 1_555
H3 C12 1_555 1_555
C13 C6 1_555 1_555
H4 C13 1_555 1_555
C14 H5 1_555 1_555
C15 C4 1_555 1_555
H6 C15 1_555 1_555
C16 C11 1_555 1_555
H7 C16 1_555 1_555
C17 H8 1_555 1_555
C18 C8 1_555 1_555
H9 C18 1_555 1_555
C19 C6 1_555 1_555
H10 C19 1_555 1_555
C20 C14 1_555 1_555
H11 C20 1_555 1_555
C21 C10 1_555 1_555
H12 C21 1_555 1_555
C22 C12 1_555 1_555
H13 C22 1_555 1_555
C23 C15 1_555 1_555
H14 C23 1_555 1_555
C24 C19 1_555 1_555
H15 C24 1_555 1_555
C25 C13 1_555 1_555
H16 C25 1_555 1_555
C26 C17 1_555 1_555
H17 C26 1_555 1_555
C27 C21 1_555 1_555
H18 C27 1_555 1_555
C28 C24 1_555 1_555
H19 C28 1_555 1_555
C29 N2 1_555 1_555
H20 C29 1_555 1_555
H21 C29 1_555 1_555
C4 C9 1_555 1_555
C5 C10 1_555 1_555
C8 C29 1_555 1_555
C16 C23 1_555 1_555
C17 C20 1_555 1_555
C18 C26 1_555 1_555
C22 C27 1_555 1_555
C25 C28 1_555 1_555

#END
