
#######################################################################
#
#                 Cambridge Crystallographic Data Centre
#                                CCDC 
#
#######################################################################
#
# If this CIF has been generated from an entry in the Cambridge 
# Structural Database, then it will include bibliographic, chemical, 
# crystal, experimental, refinement or atomic coordinate data resulting 
# from the CCDC's data processing and validation procedures.
#
#######################################################################

data_OPEGUN
_chemical_formula_moiety         'C20 H22 N2 O4'
_chemical_name_systematic        
N-(2-(6-methoxy-1-(4-methoxybenzyl)-2-oxo-2,3-dihydro-1H-indol-3-yl)ethyl)formamide
_symmetry_cell_setting           monoclinic
_symmetry_space_group_name_H-M   'P 21'
_symmetry_Int_Tables_number      4
_space_group_name_Hall           'P 2yb'
loop_
_symmetry_equiv_pos_site_id
_symmetry_equiv_pos_as_xyz
1 x,y,z
2 -x,1/2+y,-z
_cell_length_a                   12.2554(3)
_cell_length_b                   4.96200(10)
_cell_length_c                   15.2826(3)
_cell_angle_alpha                90
_cell_angle_beta                 109.7830(10)
_cell_angle_gamma                90
_cell_volume                     874.505
_exptl_crystal_colour            colorless
_exptl_crystal_description       plate
_cell_formula_units_Z            2
loop_
_atom_site_label
_atom_site_type_symbol
_atom_site_fract_x
_atom_site_fract_y
_atom_site_fract_z
O1 O 0.07548(19) 1.0709(4) 1.04778(15)
N1 N 0.1499(2) 0.9507(5) 0.93354(18)
C1 C 0.1358(3) 0.9260(6) 1.0180(2)
O2 O 0.4057(2) 0.5052(5) 0.78983(16)
N2 N 0.3970(3) 0.6375(6) 1.3259(2)
H1 H 0.396(4) 0.822(11) 1.336(3)
C2 C 0.2112(3) 0.6909(6) 1.0702(2)
H2 H 0.1596 0.5385 1.0740
O3 O -0.1664(2) 0.8408(6) 0.49816(16)
C3 C 0.2755(3) 0.6127(6) 1.0056(2)
O4 O 0.4279(2) 0.2135(5) 1.38668(15)
C4 C 0.3573(3) 0.4151(6) 1.0092(2)
H3 H 0.3846 0.3000 1.0618
C5 C 0.3989(3) 0.3863(7) 0.9359(2)
H4 H 0.4549 0.2514 0.9386
C6 C 0.3592(3) 0.5536(7) 0.8583(2)
C7 C 0.2764(3) 0.7514(6) 0.8521(2)
H5 H 0.2489 0.8662 0.7995
C8 C 0.2359(3) 0.7738(6) 0.9262(2)
C9 C 0.0956(3) 1.1631(6) 0.8659(2)
H6 H 0.1569 1.2857 0.8608
H7 H 0.0432 1.2698 0.8896
C10 C 0.0271(3) 1.0584(7) 0.7700(2)
C11 C -0.0544(3) 0.8546(7) 0.7553(2)
H8 H -0.0655 0.7692 0.8073
C12 C -0.1205(3) 0.7720(7) 0.6660(2)
H9 H -0.1758 0.6314 0.6572
C13 C -0.1048(3) 0.8968(7) 0.5900(2)
C14 C -0.0214(3) 1.0974(8) 0.6035(2)
H10 H -0.0086 1.1797 0.5516
C15 C 0.0427(3) 1.1759(7) 0.6928(2)
H11 H 0.0991 1.3142 0.7016
C16 C 0.3623(3) 0.6667(8) 0.7077(2)
H12 H 0.4038 0.6212 0.6650
H13 H 0.3742 0.8577 0.7246
H14 H 0.2793 0.6317 0.6774
C17 C -0.2466(3) 0.6218(9) 0.4799(3)
H15 H -0.2861 0.6050 0.4127
H16 H -0.3039 0.6556 0.5104
H17 H -0.2047 0.4546 0.5041
C18 C 0.2826(3) 0.7798(6) 1.1689(2)
H18 H 0.3397 0.9172 1.1655
H19 H 0.2304 0.8648 1.1981
C19 C 0.3462(3) 0.5492(7) 1.2292(2)
H20 H 0.2916 0.3988 1.2252
H21 H 0.4082 0.4834 1.2067
C20 C 0.4315(3) 0.4618(8) 1.3956(2)
H22 H 0.4613 0.5321 1.4569
loop_
_geom_bond_atom_site_label_1
_geom_bond_atom_site_label_2
_geom_bond_site_symmetry_1
_geom_bond_site_symmetry_2
O1 C1 1_555 1_555
N1 C1 1_555 1_555
C1 C2 1_555 1_555
O2 C6 1_555 1_555
N2 H1 1_555 1_555
C2 H2 1_555 1_555
O3 C13 1_555 1_555
C3 C2 1_555 1_555
O4 C20 1_555 1_555
C4 C3 1_555 1_555
H3 C4 1_555 1_555
C5 C4 1_555 1_555
H4 C5 1_555 1_555
C6 C5 1_555 1_555
C7 C6 1_555 1_555
H5 C7 1_555 1_555
C8 N1 1_555 1_555
C9 N1 1_555 1_555
H6 C9 1_555 1_555
H7 C9 1_555 1_555
C10 C9 1_555 1_555
C11 C10 1_555 1_555
H8 C11 1_555 1_555
C12 C11 1_555 1_555
H9 C12 1_555 1_555
C13 C12 1_555 1_555
C14 C13 1_555 1_555
H10 C14 1_555 1_555
C15 C10 1_555 1_555
H11 C15 1_555 1_555
C16 O2 1_555 1_555
H12 C16 1_555 1_555
H13 C16 1_555 1_555
H14 C16 1_555 1_555
C17 O3 1_555 1_555
H15 C17 1_555 1_555
H16 C17 1_555 1_555
H17 C17 1_555 1_555
C18 C2 1_555 1_555
H18 C18 1_555 1_555
H19 C18 1_555 1_555
C19 N2 1_555 1_555
H20 C19 1_555 1_555
H21 C19 1_555 1_555
C20 N2 1_555 1_555
H22 C20 1_555 1_555
C3 C8 1_555 1_555
C7 C8 1_555 1_555
C14 C15 1_555 1_555
C18 C19 1_555 1_555

#END
