
#######################################################################
#
#                 Cambridge Crystallographic Data Centre
#                                CCDC 
#
#######################################################################
#
# If this CIF has been generated from an entry in the Cambridge 
# Structural Database, then it will include bibliographic, chemical, 
# crystal, experimental, refinement or atomic coordinate data resulting 
# from the CCDC's data processing and validation procedures.
#
#######################################################################

data_OPEHIB
_chemical_formula_moiety         'C35 H42 N4 O3,0.5(C6 H14)'
_chemical_name_systematic        
"3',6'-bis(diethylamino)-2-(2-((4-oxopent-2-en-2-yl)amino)ethyl)spiro[isoindole-1,9'-xanthen]-3(2H)-one hexane solvate"
_symmetry_cell_setting           monoclinic
_symmetry_space_group_name_H-M   'P 21/n'
_symmetry_Int_Tables_number      14
_space_group_name_Hall           '-P 2yn'
loop_
_symmetry_equiv_pos_site_id
_symmetry_equiv_pos_as_xyz
1 x,y,z
2 1/2-x,1/2+y,1/2-z
3 -x,-y,-z
4 1/2+x,1/2-y,1/2+z
_cell_length_a                   12.697(3)
_cell_length_b                   9.589(3)
_cell_length_c                   29.157(7)
_cell_angle_alpha                90
_cell_angle_beta                 100.273(8)
_cell_angle_gamma                90
_cell_volume                     3493
_cell_formula_units_Z            4
loop_
_atom_site_label
_atom_site_type_symbol
_atom_site_fract_x
_atom_site_fract_y
_atom_site_fract_z
C1 C -0.0850(3) 0.4625(4) 0.42651(13)
H1 H -0.1365 0.4999 0.4014
H2 H -0.0143 0.4885 0.4224
H3 H -0.0984 0.4990 0.4556
C2 C -0.0939(3) 0.3090(3) 0.42675(9)
H4 H -0.1662 0.2836 0.4300
H5 H -0.0816 0.2731 0.3971
C3 C 0.1758(3) 0.2929(4) 0.47064(15)
H6 H 0.2402 0.2553 0.4626
H7 H 0.1846 0.3031 0.5039
H8 H 0.1613 0.3824 0.4561
C4 C 0.0850(3) 0.1970(3) 0.45411(10)
H9 H 0.0782 0.1859 0.4206
H10 H 0.1017 0.1062 0.4682
C5 C -0.0417(2) 0.2292(3) 0.50868(8)
C6 C -0.1348(2) 0.2874(3) 0.52070(8)
H11 H -0.1813 0.3378 0.4985
C7 C -0.15888(18) 0.2712(3) 0.56501(8)
H12 H -0.2210 0.3115 0.5718
C8 C -0.09274(16) 0.1966(2) 0.59956(7)
C9 C -0.00172(17) 0.1395(2) 0.58739(7)
C10 C 0.02476(19) 0.1554(2) 0.54350(8)
H13 H 0.0877 0.1163 0.5373
C11 C -0.11829(15) 0.1834(2) 0.64836(7)
C12 C -0.04140(15) 0.0815(2) 0.67695(7)
C13 C -0.05511(17) 0.0380(2) 0.72108(7)
H14 H -0.1116 0.0754 0.7334
C14 C 0.01055(17) -0.0572(2) 0.74723(8)
H15 H -0.0029 -0.0839 0.7763
C15 C 0.09834(16) -0.1148(2) 0.73030(7)
C16 C 0.11519(16) -0.0686(2) 0.68666(7)
H16 H 0.1737 -0.1017 0.6748
C17 C 0.04572(16) 0.0260(2) 0.66079(7)
C18 C 0.26452(19) -0.2551(3) 0.74045(9)
H17 H 0.3148 -0.2885 0.7672
H18 H 0.2965 -0.1749 0.7280
C19 C 0.2473(2) -0.3680(3) 0.70397(10)
H19 H 0.3144 -0.3910 0.6950
H20 H 0.1981 -0.3356 0.6772
H21 H 0.2185 -0.4493 0.7164
C20 C 0.1399(2) -0.2808(3) 0.79714(9)
H22 H 0.1622 -0.3775 0.7969
H23 H 0.0628 -0.2798 0.7952
C21 C 0.1907(3) -0.2165(4) 0.84212(10)
H24 H 0.1701 -0.2672 0.8675
H25 H 0.1677 -0.1213 0.8431
H26 H 0.2672 -0.2194 0.8448
C22 C -0.11864(17) 0.3244(2) 0.67209(7)
C23 C -0.03551(19) 0.4187(2) 0.68340(8)
H27 H 0.0323 0.3993 0.6771
C24 C -0.0564(2) 0.5428(3) 0.70436(9)
H28 H -0.0020 0.6082 0.7119
C25 C -0.1562(3) 0.5713(3) 0.71432(9)
H29 H -0.1676 0.6546 0.7290
C26 C -0.2392(2) 0.4784(3) 0.70281(9)
H30 H -0.3071 0.4986 0.7089
C27 C -0.21889(18) 0.3532(2) 0.68178(7)
C28 C -0.29144(18) 0.2364(2) 0.66563(8)
C29 C -0.27808(18) 0.0141(2) 0.62474(8)
H31 H -0.2408 -0.0098 0.5995
H32 H -0.3524 0.0316 0.6113
C30 C -0.2726(2) -0.1087(3) 0.65769(11)
H33 H -0.1989 -0.1401 0.6657
H34 H -0.2955 -0.0791 0.6862
C31 C -0.4869(3) -0.1583(4) 0.67478(15)
H35 H -0.4359 -0.0881 0.6874
H36 H -0.5054 -0.2132 0.6997
H37 H -0.5501 -0.1144 0.6579
C32 C -0.4390(3) -0.2503(3) 0.64260(10)
C33 C -0.4938(3) -0.3616(3) 0.62037(12)
H38 H -0.5631 -0.3769 0.6255
C34 C -0.4530(3) -0.4550(4) 0.59021(12)
C35 C -0.5243(4) -0.5688(5) 0.56627(15)
H39 H -0.4859 -0.6221 0.5467
H40 H -0.5865 -0.5280 0.5476
H41 H -0.5458 -0.6289 0.5893
N1 N -0.01790(19) 0.2428(3) 0.46446(7)
N2 N 0.16618(14) -0.2106(2) 0.75595(6)
N3 N -0.23176(13) 0.14087(18) 0.64698(6)
N4 N -0.33910(19) -0.2239(2) 0.63750(8)
H47 H -0.3109 -0.2811 0.6205
O1 O -0.38678(13) 0.2232(2) 0.66780(6)
O2 O -0.3609(2) -0.4472(3) 0.58237(9)
O3 O 0.07121(11) 0.06025(16) 0.61800(5)
C36 C 0.6765(7) 0.0313(10) 0.4454(3)
H42 H 0.6987 -0.0323 0.4236
H43 H 0.7337 0.0440 0.4714
H44 H 0.6583 0.1195 0.4305
C37 C 0.5811(10) -0.0265(15) 0.4622(4)
H45 H 0.5246 -0.0428 0.4356
H46 H 0.5999 -0.1155 0.4772
C38 C 0.544(2) 0.0610(14) 0.4930(7)
H48 H 0.5083 0.1432 0.4782
H49 H 0.5984 0.0873 0.5192
C36B C 0.3235(7) -0.0313(10) 0.5546(3)
H42B H 0.3013 0.0323 0.5764
H43B H 0.2663 -0.0440 0.5286
H44B H 0.3417 -0.1195 0.5695
C37B C 0.4189(10) 0.0265(15) 0.5378(4)
H45B H 0.4754 0.0428 0.5644
H46B H 0.4001 0.1155 0.5228
C38B C 0.456(2) -0.0610(14) 0.5070(7)
H48B H 0.4917 -0.1432 0.5218
H49B H 0.4016 -0.0873 0.4808
loop_
_geom_bond_atom_site_label_1
_geom_bond_atom_site_label_2
_geom_bond_site_symmetry_1
_geom_bond_site_symmetry_2
C1 H1 1_555 1_555
H2 C1 1_555 1_555
H3 C1 1_555 1_555
C2 C1 1_555 1_555
H4 C2 1_555 1_555
H5 C2 1_555 1_555
C3 H6 1_555 1_555
H7 C3 1_555 1_555
H8 C3 1_555 1_555
C4 C3 1_555 1_555
H9 C4 1_555 1_555
H10 C4 1_555 1_555
C5 C6 1_555 1_555
C6 H11 1_555 1_555
C7 C6 1_555 1_555
H12 C7 1_555 1_555
C8 C7 1_555 1_555
C9 C8 1_555 1_555
C10 C5 1_555 1_555
H13 C10 1_555 1_555
C11 C8 1_555 1_555
C12 C11 1_555 1_555
C13 C12 1_555 1_555
H14 C13 1_555 1_555
C14 C13 1_555 1_555
H15 C14 1_555 1_555
C15 C14 1_555 1_555
C16 C15 1_555 1_555
H16 C16 1_555 1_555
C17 C12 1_555 1_555
C18 H17 1_555 1_555
H18 C18 1_555 1_555
C19 C18 1_555 1_555
H19 C19 1_555 1_555
H20 C19 1_555 1_555
H21 C19 1_555 1_555
C20 H22 1_555 1_555
H23 C20 1_555 1_555
C21 C20 1_555 1_555
H24 C21 1_555 1_555
H25 C21 1_555 1_555
H26 C21 1_555 1_555
C22 C11 1_555 1_555
C23 C22 1_555 1_555
H27 C23 1_555 1_555
C24 C23 1_555 1_555
H28 C24 1_555 1_555
C25 C24 1_555 1_555
H29 C25 1_555 1_555
C26 C25 1_555 1_555
H30 C26 1_555 1_555
C27 C22 1_555 1_555
C28 C27 1_555 1_555
C29 H31 1_555 1_555
H32 C29 1_555 1_555
C30 C29 1_555 1_555
H33 C30 1_555 1_555
H34 C30 1_555 1_555
C31 H35 1_555 1_555
H36 C31 1_555 1_555
H37 C31 1_555 1_555
C32 C31 1_555 1_555
C33 C32 1_555 1_555
H38 C33 1_555 1_555
C34 C33 1_555 1_555
C35 C34 1_555 1_555
H39 C35 1_555 1_555
H40 C35 1_555 1_555
H41 C35 1_555 1_555
C36 H42 1_555 1_555
H43 C36 1_555 1_555
H44 C36 1_555 1_555
C37 C36 1_555 1_555
H45 C37 1_555 1_555
H46 C37 1_555 1_555
N1 C2 1_555 1_555
N2 C15 1_555 1_555
N3 C11 1_555 1_555
N4 C30 1_555 1_555
H47 N4 1_555 1_555
O1 C28 1_555 1_555
O2 C34 1_555 1_555
C38 C37 1_555 1_555
H48 C38 1_555 1_555
H49 C38 1_555 1_555
O3 C9 1_555 1_555
C36B H42B 1_555 1_555
H43B C36B 1_555 1_555
H44B C36B 1_555 1_555
C37B C36B 1_555 1_555
H45B C37B 1_555 1_555
H46B C37B 1_555 1_555
C38B C38 1_555 1_555
H48B C38B 1_555 1_555
H49B C38B 1_555 1_555
C4 N1 1_555 1_555
C5 N1 1_555 1_555
C9 C10 1_555 1_555
C16 C17 1_555 1_555
C17 O3 1_555 1_555
C18 N2 1_555 1_555
C20 N2 1_555 1_555
C26 C27 1_555 1_555
C28 N3 1_555 1_555
C29 N3 1_555 1_555
C32 N4 1_555 1_555
C37B C38B 1_555 1_555

#END
