
#######################################################################
#
#                 Cambridge Crystallographic Data Centre
#                                CCDC 
#
#######################################################################
#
# If this CIF has been generated from an entry in the Cambridge 
# Structural Database, then it will include bibliographic, chemical, 
# crystal, experimental, refinement or atomic coordinate data resulting 
# from the CCDC's data processing and validation procedures.
#
#######################################################################

data_OPESOT
_chemical_formula_moiety         'C23 H22 N2 O4 S2'
_chemical_name_systematic        
4-methyl-N-(3-(((4-methylphenyl)sulfonyl)imino)prop-1-en-1-yl)-N-phenylbenzenesulfonamide
_symmetry_cell_setting           triclinic
_symmetry_space_group_name_H-M   'P -1'
_symmetry_Int_Tables_number      2
_space_group_name_Hall           '-P 1'
loop_
_symmetry_equiv_pos_site_id
_symmetry_equiv_pos_as_xyz
1 x,y,z
2 -x,-y,-z
_cell_length_a                   10.559(3)
_cell_length_b                   10.991(3)
_cell_length_c                   11.719(3)
_cell_angle_alpha                63.538(6)
_cell_angle_beta                 78.349(6)
_cell_angle_gamma                71.093(6)
_cell_volume                     1149.19
_exptl_crystal_colour            colorless
_exptl_crystal_description       prismatic
_cell_formula_units_Z            2
loop_
_atom_site_label
_atom_site_type_symbol
_atom_site_fract_x
_atom_site_fract_y
_atom_site_fract_z
S1 S 0.58873(17) 0.81610(17) 0.89248(15)
S2 S 0.93589(15) 1.28585(16) 0.3366(2)
N1 N 0.5657(5) 0.9773(5) 0.7728(5)
N2 N 0.7901(5) 1.2774(5) 0.4169(6)
O1 O 0.7227(5) 0.7769(5) 0.9256(5)
O2 O 0.4801(6) 0.8263(5) 0.9840(4)
O3 O 1.0432(4) 1.1692(5) 0.4042(6)
O4 O 0.9486(5) 1.4237(5) 0.2984(6)
C1 C 0.6732(6) 1.0192(6) 0.6948(6)
H1 H 0.7579 0.9586 0.7173
C2 C 0.6680(6) 1.1379(6) 0.5906(6)
H2 H 0.5860 1.2032 0.5652
C3 C 0.7881(6) 1.1640(6) 0.5187(7)
H3 H 0.8688 1.0968 0.5457
C4 C 0.4316(6) 1.0586(6) 0.7358(5)
C5 C 0.3804(7) 1.0487(7) 0.6434(6)
H4 H 0.4300 0.9856 0.6077
C6 C 0.2572(9) 1.1310(10) 0.6036(8)
H5 H 0.2214 1.1220 0.5424
C7 C 0.1859(9) 1.2261(11) 0.6520(11)
H6 H 0.1029 1.2850 0.6219
C8 C 0.2375(10) 1.2352(9) 0.7469(11)
H7 H 0.1881 1.2990 0.7818
C9 C 0.3608(7) 1.1506(7) 0.7895(7)
H8 H 0.3956 1.1557 0.8536
C10 C 0.5738(6) 0.7089(6) 0.8254(5)
C11 C 0.6722(9) 0.6774(8) 0.7409(8)
H9 H 0.7466 0.7131 0.7182
C12 C 0.6595(10) 0.5912(8) 0.6891(8)
H10 H 0.7261 0.5707 0.6300
C13 C 0.5538(9) 0.5357(7) 0.7213(7)
C14 C 0.4569(7) 0.5689(8) 0.8074(9)
H11 H 0.3833 0.5318 0.8317
C15 C 0.4662(6) 0.6552(7) 0.8584(7)
H12 H 0.3985 0.6775 0.9159
C16 C 0.5420(12) 0.4415(10) 0.6668(10)
H13 H 0.6137 0.4364 0.6026
H14 H 0.4574 0.4782 0.6291
H15 H 0.5471 0.3489 0.7334
C17 C 0.9136(6) 1.2667(7) 0.2032(7)
C18 C 0.8984(8) 1.3795(9) 0.0850(10)
H16 H 0.8986 1.4682 0.0753
C19 C 0.8829(9) 1.3582(11) -0.0194(10)
H17 H 0.8784 1.4321 -0.1001
C20 C 0.8744(8) 1.2335(11) -0.0062(9)
C21 C 0.8863(8) 1.1233(9) 0.1111(10)
H18 H 0.8800 1.0370 0.1200
C22 C 0.9073(8) 1.1364(8) 0.2151(9)
H19 H 0.9173 1.0593 0.2938
C23 C 0.8496(11) 1.2132(14) -0.1186(11)
H20 H 0.8686 1.1143 -0.0972
H21 H 0.9069 1.2543 -0.1912
H22 H 0.7575 1.2582 -0.1385
loop_
_geom_bond_atom_site_label_1
_geom_bond_atom_site_label_2
_geom_bond_site_symmetry_1
_geom_bond_site_symmetry_2
S1 N1 1_555 1_555
S2 N2 1_555 1_555
N1 C1 1_555 1_555
N2 C3 1_555 1_555
O1 S1 1_555 1_555
O2 S1 1_555 1_555
O3 S2 1_555 1_555
O4 S2 1_555 1_555
C1 H1 1_555 1_555
C2 C1 1_555 1_555
H2 C2 1_555 1_555
C3 C2 1_555 1_555
H3 C3 1_555 1_555
C4 N1 1_555 1_555
C5 C4 1_555 1_555
H4 C5 1_555 1_555
C6 C5 1_555 1_555
H5 C6 1_555 1_555
C7 C6 1_555 1_555
H6 C7 1_555 1_555
C8 C7 1_555 1_555
H7 C8 1_555 1_555
C9 C4 1_555 1_555
H8 C9 1_555 1_555
C10 S1 1_555 1_555
C11 C10 1_555 1_555
H9 C11 1_555 1_555
C12 C11 1_555 1_555
H10 C12 1_555 1_555
C13 C12 1_555 1_555
C14 C13 1_555 1_555
H11 C14 1_555 1_555
C15 C10 1_555 1_555
H12 C15 1_555 1_555
C16 C13 1_555 1_555
H13 C16 1_555 1_555
H14 C16 1_555 1_555
H15 C16 1_555 1_555
C17 S2 1_555 1_555
C18 C17 1_555 1_555
H16 C18 1_555 1_555
C19 C18 1_555 1_555
H17 C19 1_555 1_555
C20 C19 1_555 1_555
C21 C20 1_555 1_555
H18 C21 1_555 1_555
C22 C17 1_555 1_555
H19 C22 1_555 1_555
C23 C20 1_555 1_555
H20 C23 1_555 1_555
H21 C23 1_555 1_555
H22 C23 1_555 1_555
C8 C9 1_555 1_555
C14 C15 1_555 1_555
C21 C22 1_555 1_555

#END
