
#######################################################################
#
#                 Cambridge Crystallographic Data Centre
#                                CCDC 
#
#######################################################################
#
# If this CIF has been generated from an entry in the Cambridge 
# Structural Database, then it will include bibliographic, chemical, 
# crystal, experimental, refinement or atomic coordinate data resulting 
# from the CCDC's data processing and validation procedures.
#
#######################################################################

data_OPESIN
_chemical_formula_moiety         'C23 H20 N2 O4 S2'
_chemical_name_systematic        
4-methyl-N-((1-((4-methylphenyl)sulfonyl)-1H-indol-3-yl)methylene)benzenesulfonamide
_symmetry_cell_setting           orthorhombic
_symmetry_space_group_name_H-M   'P n a 21'
_symmetry_Int_Tables_number      33
_space_group_name_Hall           'P 2c -2n'
loop_
_symmetry_equiv_pos_site_id
_symmetry_equiv_pos_as_xyz
1 x,y,z
2 -x,-y,1/2+z
3 1/2+x,1/2-y,z
4 1/2-x,1/2+y,1/2+z
_cell_length_a                   8.0251(6)
_cell_length_b                   25.4919(18)
_cell_length_c                   10.5814(8)
_cell_angle_alpha                90
_cell_angle_beta                 90
_cell_angle_gamma                90
_cell_volume                     2164.69
_exptl_crystal_colour            colorless
_exptl_crystal_description       prismatic
_cell_formula_units_Z            4
loop_
_atom_site_label
_atom_site_type_symbol
_atom_site_fract_x
_atom_site_fract_y
_atom_site_fract_z
S1 S 0.02713(9) 0.56969(3) 0.61404(8)
S2 S 0.16823(10) 0.83606(3) 0.92093(10)
N1 N 0.0166(3) 0.63452(8) 0.6333(2)
N2 N 0.1027(3) 0.79966(9) 0.8008(3)
O1 O -0.1199(3) 0.55384(8) 0.5512(2)
O2 O 0.0665(3) 0.54954(8) 0.7351(2)
O3 O 0.2511(3) 0.80510(9) 1.0144(3)
O4 O 0.2534(3) 0.87982(8) 0.8667(3)
C1 C -0.0330(4) 0.67290(11) 0.5430(3)
C2 C -0.0982(4) 0.66632(13) 0.4230(4)
H1 H -0.1173 0.6333 0.3887
C3 C -0.1332(5) 0.71174(14) 0.3572(4)
H2 H -0.1772 0.7092 0.2761
C4 C -0.1051(4) 0.76078(14) 0.4081(4)
H3 H -0.1308 0.7904 0.3607
C5 C -0.0398(4) 0.76673(13) 0.5272(3)
H4 H -0.0219 0.8000 0.5606
C6 C -0.0011(3) 0.72221(11) 0.5968(3)
C7 C 0.0690(3) 0.71335(11) 0.7190(3)
C8 C 0.0779(3) 0.66016(11) 0.7372(3)
H5 H 0.1194 0.6439 0.8093
C9 C 0.1196(4) 0.74992(13) 0.8137(3)
H6 H 0.1668 0.7371 0.8878
C10 C -0.0232(4) 0.85802(11) 0.9823(3)
C11 C -0.1163(5) 0.82551(12) 1.0582(3)
H7 H -0.0776 0.7922 1.0792
C12 C -0.2673(4) 0.84296(12) 1.1023(4)
H8 H -0.3308 0.8209 1.1531
C13 C -0.3279(4) 0.89249(12) 1.0735(3)
C14 C -0.2288(4) 0.92481(12) 0.9993(3)
H9 H -0.2648 0.9586 0.9807
C15 C -0.0781(4) 0.90761(12) 0.9525(3)
H10 H -0.0141 0.9293 0.9013
C16 C -0.4948(4) 0.91060(13) 1.1185(4)
H11 H -0.4807 0.9389 1.1775
H12 H -0.5515 0.8821 1.1591
H13 H -0.5594 0.9225 1.0477
C17 C 0.1968(3) 0.56147(10) 0.5120(3)
C18 C 0.3468(4) 0.58552(13) 0.5401(4)
H14 H 0.3573 0.6060 0.6123
C19 C 0.4804(4) 0.57887(15) 0.4602(4)
H15 H 0.5816 0.5948 0.4792
C20 C 0.4658(4) 0.54860(12) 0.3515(4)
C21 C 0.3157(4) 0.52458(11) 0.3280(3)
H16 H 0.3053 0.5034 0.2569
C22 C 0.1806(4) 0.53080(11) 0.4061(3)
H17 H 0.0798 0.5145 0.3876
C23 C 0.6106(5) 0.54334(16) 0.2629(4)
H18 H 0.5829 0.5190 0.1969
H19 H 0.7059 0.5307 0.3085
H20 H 0.6357 0.5769 0.2266
loop_
_geom_bond_atom_site_label_1
_geom_bond_atom_site_label_2
_geom_bond_site_symmetry_1
_geom_bond_site_symmetry_2
S1 N1 1_555 1_555
S2 N2 1_555 1_555
N1 C1 1_555 1_555
N2 C9 1_555 1_555
O1 S1 1_555 1_555
O2 S1 1_555 1_555
O3 S2 1_555 1_555
O4 S2 1_555 1_555
C1 C2 1_555 1_555
C2 H1 1_555 1_555
C3 C2 1_555 1_555
H2 C3 1_555 1_555
C4 C3 1_555 1_555
H3 C4 1_555 1_555
C5 C4 1_555 1_555
H4 C5 1_555 1_555
C6 C1 1_555 1_555
C7 C6 1_555 1_555
C8 N1 1_555 1_555
H5 C8 1_555 1_555
C9 C7 1_555 1_555
H6 C9 1_555 1_555
C10 S2 1_555 1_555
C11 C10 1_555 1_555
H7 C11 1_555 1_555
C12 C11 1_555 1_555
H8 C12 1_555 1_555
C13 C12 1_555 1_555
C14 C13 1_555 1_555
H9 C14 1_555 1_555
C15 C10 1_555 1_555
H10 C15 1_555 1_555
C16 C13 1_555 1_555
H11 C16 1_555 1_555
H12 C16 1_555 1_555
H13 C16 1_555 1_555
C17 S1 1_555 1_555
C18 C17 1_555 1_555
H14 C18 1_555 1_555
C19 C18 1_555 1_555
H15 C19 1_555 1_555
C20 C19 1_555 1_555
C21 C20 1_555 1_555
H16 C21 1_555 1_555
C22 C17 1_555 1_555
H17 C22 1_555 1_555
C23 C20 1_555 1_555
H18 C23 1_555 1_555
H19 C23 1_555 1_555
H20 C23 1_555 1_555
C5 C6 1_555 1_555
C7 C8 1_555 1_555
C14 C15 1_555 1_555
C21 C22 1_555 1_555

#END
