
#######################################################################
#
#                 Cambridge Crystallographic Data Centre
#                                CCDC 
#
#######################################################################
#
# If this CIF has been generated from an entry in the Cambridge 
# Structural Database, then it will include bibliographic, chemical, 
# crystal, experimental, refinement or atomic coordinate data resulting 
# from the CCDC's data processing and validation procedures.
#
#######################################################################

data_OPIBOF
_chemical_formula_moiety         'C23 H19 N1 O2'
_chemical_name_systematic        
'Ethyl 3-(biphenyl-4-yl)-1H-indole-2-carboxylate'
_symmetry_cell_setting           triclinic
_symmetry_space_group_name_H-M   'P -1'
_symmetry_Int_Tables_number      2
_space_group_name_Hall           '-P 1'
loop_
_symmetry_equiv_pos_site_id
_symmetry_equiv_pos_as_xyz
1 x,y,z
2 -x,-y,-z
_cell_length_a                   7.881(7)
_cell_length_b                   9.856(9)
_cell_length_c                   12.446(11)
_cell_angle_alpha                101.219(15)
_cell_angle_beta                 90.086(14)
_cell_angle_gamma                104.921(15)
_cell_volume                     914.938
_exptl_crystal_colour            colorless
_exptl_crystal_description       prismatic
_cell_formula_units_Z            2
loop_
_atom_site_label
_atom_site_type_symbol
_atom_site_fract_x
_atom_site_fract_y
_atom_site_fract_z
N1 N 0.81379(18) 0.02444(15) 0.62669(11)
O1 O 1.16935(17) 0.12731(16) 0.59227(10)
O2 O 1.20636(15) 0.26331(14) 0.76069(10)
C1 C 0.9326(2) 0.10630(17) 0.71001(12)
C2 C 0.8493(2) 0.12291(16) 0.80763(13)
C3 C 0.6693(2) 0.04670(17) 0.78190(13)
C4 C 0.6526(2) -0.01336(17) 0.66847(13)
C5 C 0.4927(2) -0.09765(19) 0.61701(16)
H1 H 0.4824 -0.1359 0.5421
C6 C 0.3514(3) -0.1219(2) 0.68110(18)
H2 H 0.2432 -0.1779 0.6486
C7 C 0.3645(3) -0.0648(2) 0.79435(18)
H3 H 0.2657 -0.0845 0.8353
C8 C 0.5199(2) 0.0189(2) 0.84489(15)
H4 H 0.5277 0.0572 0.9197
C9 C 1.1134(2) 0.16396(18) 0.68053(13)
C10 C 1.3904(2) 0.3243(2) 0.74416(17)
H5 H 1.4019 0.3763 0.6848
H6 H 1.4511 0.2494 0.7265
C11 C 1.4634(3) 0.4218(4) 0.8483(2)
H7 H 1.4189 0.5050 0.8573
H8 H 1.5893 0.4503 0.8475
H9 H 1.4297 0.3736 0.9080
C12 C 0.9233(2) 0.19734(17) 0.91924(12)
C13 C 0.8492(2) 0.29711(19) 0.98324(14)
H10 H 0.7546 0.3206 0.9538
C14 C 0.9120(2) 0.3618(2) 1.08880(14)
H11 H 0.8605 0.4293 1.1287
C15 C 1.0498(2) 0.32851(16) 1.13663(13)
C16 C 1.1252(2) 0.22895(18) 1.07222(13)
H12 H 1.2195 0.2052 1.1017
C17 C 1.0631(2) 0.16541(18) 0.96637(13)
H13 H 1.1163 0.0996 0.9257
C18 C 1.1147(2) 0.39561(17) 1.25169(13)
C19 C 1.1129(2) 0.53509(19) 1.29724(15)
H14 H 1.0673 0.5872 1.2553
C20 C 1.1767(3) 0.5984(2) 1.40286(17)
H15 H 1.1738 0.6921 1.4317
C21 C 1.2446(3) 0.5227(2) 1.46569(16)
H16 H 1.2892 0.5653 1.5370
C22 C 1.2464(3) 0.3846(2) 1.42280(17)
H17 H 1.2917 0.3330 1.4654
C23 C 1.1817(3) 0.3210(2) 1.31704(15)
H18 H 1.1832 0.2266 1.2892
H19 H 0.839(2) -0.005(2) 0.5576(16)
loop_
_geom_bond_atom_site_label_1
_geom_bond_atom_site_label_2
_geom_bond_site_symmetry_1
_geom_bond_site_symmetry_2
N1 C1 1_555 1_555
O1 C9 1_555 1_555
O2 C9 1_555 1_555
C1 C2 1_555 1_555
C2 C3 1_555 1_555
C3 C4 1_555 1_555
C4 N1 1_555 1_555
C5 C4 1_555 1_555
H1 C5 1_555 1_555
C6 C5 1_555 1_555
H2 C6 1_555 1_555
C7 C6 1_555 1_555
H3 C7 1_555 1_555
C8 C3 1_555 1_555
H4 C8 1_555 1_555
C9 C1 1_555 1_555
C10 O2 1_555 1_555
H5 C10 1_555 1_555
H6 C10 1_555 1_555
C11 C10 1_555 1_555
H7 C11 1_555 1_555
H8 C11 1_555 1_555
H9 C11 1_555 1_555
C12 C2 1_555 1_555
C13 C12 1_555 1_555
H10 C13 1_555 1_555
C14 C13 1_555 1_555
H11 C14 1_555 1_555
C15 C14 1_555 1_555
C16 C15 1_555 1_555
H12 C16 1_555 1_555
C17 C12 1_555 1_555
H13 C17 1_555 1_555
C18 C15 1_555 1_555
C19 C18 1_555 1_555
H14 C19 1_555 1_555
C20 C19 1_555 1_555
H15 C20 1_555 1_555
C21 C20 1_555 1_555
H16 C21 1_555 1_555
C22 C21 1_555 1_555
H17 C22 1_555 1_555
C23 C18 1_555 1_555
H18 C23 1_555 1_555
H19 N1 1_555 1_555
C7 C8 1_555 1_555
C16 C17 1_555 1_555
C22 C23 1_555 1_555

#END
