
#######################################################################
#
#                 Cambridge Crystallographic Data Centre
#                                CCDC 
#
#######################################################################
#
# If this CIF has been generated from an entry in the Cambridge 
# Structural Database, then it will include bibliographic, chemical, 
# crystal, experimental, refinement or atomic coordinate data resulting 
# from the CCDC's data processing and validation procedures.
#
#######################################################################

data_OPICUM
_chemical_formula_moiety         'C29 H30 Cl1 N3 O6,C1 H4 O1,H2 O1'
_chemical_name_systematic        
'Methyl 5-(t-butylcarbamoyl)-1-(4-chlorophenyl)-4-(2-hydroxy-5-methoxyphenyl)-2-oxo-5-(pyridin-4-yl)pyrrolidine-3-carboxylate methanol solvate monohydrate'
_symmetry_cell_setting           triclinic
_symmetry_space_group_name_H-M   'P -1'
_symmetry_Int_Tables_number      2
_space_group_name_Hall           '-P 1'
loop_
_symmetry_equiv_pos_site_id
_symmetry_equiv_pos_as_xyz
1 x,y,z
2 -x,-y,-z
_cell_length_a                   10.171(2)
_cell_length_b                   10.807(2)
_cell_length_c                   15.410(3)
_cell_angle_alpha                96.13(3)
_cell_angle_beta                 103.50(3)
_cell_angle_gamma                100.83(3)
_cell_volume                     1597.45
_cell_formula_units_Z            2
loop_
_atom_site_label
_atom_site_type_symbol
_atom_site_fract_x
_atom_site_fract_y
_atom_site_fract_z
C1 C 0.4572(2) 0.36471(17) 0.39769(14)
C2 C 0.43718(19) 0.44172(16) 0.25626(12)
C3 C 0.59558(19) 0.43890(16) 0.29803(12)
H1 H 0.6110 0.3579 0.2718
C4 C 0.60173(19) 0.43300(17) 0.39746(12)
H2 H 0.6198 0.5203 0.4295
C5 C 0.2245(2) 0.31238(17) 0.29265(13)
C6 C 0.1811(2) 0.19462(19) 0.31650(15)
H3 H 0.2457 0.1548 0.3489
C7 C 0.0419(2) 0.1360(2) 0.29221(17)
H4 H 0.0128 0.0579 0.3097
C8 C -0.0532(2) 0.1928(2) 0.24238(17)
C9 C -0.0114(2) 0.3091(2) 0.21773(17)
H5 H -0.0762 0.3476 0.1842
C10 C 0.1275(2) 0.36876(19) 0.24299(15)
H6 H 0.1559 0.4477 0.2263
C11 C 0.3774(2) 0.36905(17) 0.15787(13)
C12 C 0.3214(2) 0.15836(19) 0.05898(14)
C13 C 0.3473(3) 0.0281(2) 0.07760(17)
H7 H 0.4450 0.0346 0.1010
H8 H 0.3139 -0.0319 0.0225
H9 H 0.2995 -0.0006 0.1211
C14 C 0.1672(3) 0.1523(2) 0.02508(18)
H10 H 0.1212 0.1259 0.0700
H11 H 0.1298 0.0920 -0.0297
H12 H 0.1531 0.2350 0.0136
C15 C 0.3969(3) 0.2047(2) -0.00943(16)
H13 H 0.3832 0.2882 -0.0190
H14 H 0.3613 0.1469 -0.0655
H15 H 0.4942 0.2083 0.0129
C16 C 0.42205(19) 0.58030(16) 0.26270(13)
C17 C 0.4651(2) 0.65909(17) 0.20449(13)
H16 H 0.4945 0.6259 0.1560
C18 C 0.4637(2) 0.78673(19) 0.21907(15)
H17 H 0.4937 0.8377 0.1794
C19 C 0.3824(3) 0.7665(2) 0.34139(16)
H18 H 0.3541 0.8027 0.3895
C20 C 0.3796(2) 0.63647(18) 0.33292(14)
H19 H 0.3495 0.5882 0.3739
C21 C 0.70212(19) 0.54495(17) 0.28138(13)
C22 C 0.7448(2) 0.53117(19) 0.20256(14)
C23 C 0.8422(2) 0.6275(2) 0.18596(17)
H20 H 0.8734 0.6156 0.1342
C24 C 0.8931(3) 0.7396(2) 0.24451(18)
H21 H 0.9573 0.8041 0.2321
C25 C 0.8487(2) 0.7569(2) 0.32247(16)
C26 C 0.7546(2) 0.65969(18) 0.34073(15)
H22 H 0.7258 0.6711 0.3935
C27 C 0.8252(4) 0.9121(3) 0.4359(2)
H23 H 0.7296 0.8969 0.4029
H24 H 0.8592 1.0015 0.4588
H25 H 0.8334 0.8647 0.4854
C28 C 0.7137(2) 0.3689(2) 0.44313(14)
C29 C 0.9172(3) 0.3899(3) 0.5595(2)
H26 H 0.8794 0.3158 0.5824
H27 H 0.9768 0.4523 0.6089
H28 H 0.9694 0.3664 0.5184
Cl1 Cl -0.22805(7) 0.11700(8) 0.20946(6)
N1 N 0.36925(15) 0.37044(13) 0.31662(10)
N2 N 0.37820(18) 0.24562(15) 0.14649(12)
N3 N 0.4222(2) 0.84213(16) 0.28648(14)
O1 O 0.42563(15) 0.31998(13) 0.46090(9)
O2 O 0.32815(16) 0.42400(12) 0.09609(9)
O3 O 0.7188(2) 0.26170(18) 0.42162(15)
O4 O 0.80367(16) 0.44402(16) 0.51189(11)
O5 O 0.68615(17) 0.41964(14) 0.14354(10)
H34 H 0.7100 0.4245 0.0965
O6 O 0.90320(19) 0.87301(15) 0.37830(13)
H36 H 0.410(2) 0.211(2) 0.1958(14)
C30 C 0.1380(3) 0.6647(3) 0.0398(2)
H29 H 0.1561 0.6628 0.1036
H30 H 0.0408 0.6330 0.0121
H31 H 0.1653 0.7508 0.0297
O7 O 0.2125(2) 0.5890(2) 0.00259(12)
H35 H 0.2439 0.5457 0.0395
H32 H 0.456(3) 0.015(3) 0.2970(19)
H33 H 0.537(3) 0.127(3) 0.332(2)
O8 O 0.4773(2) 0.11082(17) 0.29569(15)
loop_
_geom_bond_atom_site_label_1
_geom_bond_atom_site_label_2
_geom_bond_site_symmetry_1
_geom_bond_site_symmetry_2
C1 C4 1_555 1_555
C2 C3 1_555 1_555
C3 H1 1_555 1_555
C4 C3 1_555 1_555
H2 C4 1_555 1_555
C5 C6 1_555 1_555
C6 H3 1_555 1_555
C7 C6 1_555 1_555
H4 C7 1_555 1_555
C8 C7 1_555 1_555
C9 C8 1_555 1_555
H5 C9 1_555 1_555
C10 C5 1_555 1_555
H6 C10 1_555 1_555
C11 C2 1_555 1_555
C12 C13 1_555 1_555
C13 H7 1_555 1_555
H8 C13 1_555 1_555
H9 C13 1_555 1_555
C14 C12 1_555 1_555
H10 C14 1_555 1_555
H11 C14 1_555 1_555
H12 C14 1_555 1_555
C15 C12 1_555 1_555
H13 C15 1_555 1_555
H14 C15 1_555 1_555
H15 C15 1_555 1_555
C16 C2 1_555 1_555
C17 C16 1_555 1_555
H16 C17 1_555 1_555
C18 C17 1_555 1_555
H17 C18 1_555 1_555
C19 H18 1_555 1_555
C20 C16 1_555 1_555
H19 C20 1_555 1_555
C21 C3 1_555 1_555
C22 C21 1_555 1_555
C23 C22 1_555 1_555
H20 C23 1_555 1_555
C24 C23 1_555 1_555
H21 C24 1_555 1_555
C25 C24 1_555 1_555
C26 C21 1_555 1_555
H22 C26 1_555 1_555
C27 H23 1_555 1_555
H24 C27 1_555 1_555
H25 C27 1_555 1_555
C28 C4 1_555 1_555
C29 H26 1_555 1_555
H27 C29 1_555 1_555
H28 C29 1_555 1_555
C30 H29 1_555 1_555
H30 C30 1_555 1_555
H31 C30 1_555 1_555
Cl1 C8 1_555 1_555
H32 O8 1_555 1_555
H33 O8 1_555 1_555
N1 C1 1_555 1_555
N2 C11 1_555 1_555
N3 C18 1_555 1_555
O1 C1 1_555 1_555
O2 C11 1_555 1_555
O3 C28 1_555 1_555
O4 C28 1_555 1_555
O5 C22 1_555 1_555
H34 O5 1_555 1_555
O6 C25 1_555 1_555
O7 C30 1_555 1_555
H35 O7 1_555 1_555
H36 N2 1_555 1_555
C2 N1 1_555 1_555
C5 N1 1_555 1_555
C9 C10 1_555 1_555
C12 N2 1_555 1_555
C19 C20 1_555 1_555
C19 N3 1_555 1_555
C25 C26 1_555 1_555
C27 O6 1_555 1_555
C29 O4 1_555 1_555

#END
