
#######################################################################
#
#                 Cambridge Crystallographic Data Centre
#                                CCDC 
#
#######################################################################
#
# If this CIF has been generated from an entry in the Cambridge 
# Structural Database, then it will include bibliographic, chemical, 
# crystal, experimental, refinement or atomic coordinate data resulting 
# from the CCDC's data processing and validation procedures.
#
#######################################################################

data_OPIKUV
_chemical_formula_moiety         'C21 H15 N3 O1'
_chemical_name_systematic        
7-methoxybenzo[h]naphtho[1,2-f]quinazolin-3-amine
_symmetry_cell_setting           monoclinic
_symmetry_space_group_name_H-M   'C 2/c'
_symmetry_Int_Tables_number      15
_space_group_name_Hall           '-C 2yn'
loop_
_symmetry_equiv_pos_site_id
_symmetry_equiv_pos_as_xyz
1 x,y,z
2 -x,y,1/2-z
3 1/2+x,1/2+y,z
4 1/2-x,1/2+y,1/2-z
5 -x,-y,-z
6 x,-y,1/2+z
7 1/2-x,1/2-y,-z
8 1/2+x,1/2-y,1/2+z
_cell_length_a                   18.237(10)
_cell_length_b                   13.871(8)
_cell_length_c                   14.473(9)
_cell_angle_alpha                90
_cell_angle_beta                 121.706(9)
_cell_angle_gamma                90
_cell_volume                     3114.76
_exptl_crystal_colour            brown
_exptl_crystal_description       prism
_cell_formula_units_Z            8
loop_
_atom_site_label
_atom_site_type_symbol
_atom_site_fract_x
_atom_site_fract_y
_atom_site_fract_z
N1 N 0.21408(13) -0.07734(14) 0.11428(17)
N2 N 0.11718(13) 0.05416(14) 0.07188(18)
N3 N 0.07025(14) -0.09363(15) -0.01276(19)
H1 H 0.0791 -0.1530 -0.0213
H2 H 0.0191 -0.0699 -0.0499
O1 O 0.59761(12) -0.19431(13) 0.46072(17)
C1 C 0.67467(18) -0.1420(2) 0.5295(2)
H3 H 0.6911 -0.1070 0.4859
H4 H 0.7198 -0.1861 0.5759
H5 H 0.6651 -0.0976 0.5730
C2 C 0.51486(16) -0.04598(19) 0.3907(2)
H6 H 0.5624 -0.0083 0.4372
C3 C 0.52262(17) -0.14496(19) 0.3937(2)
C4 C 0.45178(17) -0.20293(19) 0.3254(2)
H7 H 0.4573 -0.2697 0.3280
C5 C 0.37477(17) -0.16101(19) 0.2553(2)
H8 H 0.3276 -0.1998 0.2102
C6 C 0.36464(15) -0.06054(17) 0.2492(2)
C7 C 0.43520(15) -0.00133(18) 0.3176(2)
C8 C 0.42563(16) 0.10380(17) 0.3084(2)
C9 C 0.49670(17) 0.16579(19) 0.3750(2)
H9 H 0.5490 0.1386 0.4271
C10 C 0.49058(18) 0.2623(2) 0.3649(2)
H10 H 0.5371 0.3002 0.4135
C11 C 0.41458(17) 0.30710(18) 0.2818(2)
C12 C 0.41188(19) 0.40709(19) 0.2620(3)
H11 H 0.4588 0.4452 0.3094
C13 C 0.3423(2) 0.4491(2) 0.1753(3)
H12 H 0.3416 0.5150 0.1634
C14 C 0.2717(2) 0.3916(2) 0.1040(3)
H13 H 0.2246 0.4196 0.0435
C15 C 0.27081(18) 0.29498(18) 0.1220(2)
H14 H 0.2228 0.2586 0.0738
C16 C 0.34184(17) 0.24891(18) 0.2129(2)
C17 C 0.34600(16) 0.14570(17) 0.2337(2)
C18 C 0.27000(16) 0.08290(17) 0.1764(2)
C19 C 0.28076(15) -0.01714(17) 0.1769(2)
C20 C 0.13682(16) -0.03757(18) 0.0592(2)
C21 C 0.18448(16) 0.11166(18) 0.1288(2)
H15 H 0.1738 0.1755 0.1376
loop_
_geom_bond_atom_site_label_1
_geom_bond_atom_site_label_2
_geom_bond_site_symmetry_1
_geom_bond_site_symmetry_2
N1 C19 1_555 1_555
N2 C20 1_555 1_555
N3 H1 1_555 1_555
H2 N3 1_555 1_555
O1 C1 1_555 1_555
C1 H3 1_555 1_555
H4 C1 1_555 1_555
H5 C1 1_555 1_555
C2 H6 1_555 1_555
C3 O1 1_555 1_555
C4 C3 1_555 1_555
H7 C4 1_555 1_555
C5 C4 1_555 1_555
H8 C5 1_555 1_555
C6 C5 1_555 1_555
C7 C2 1_555 1_555
C8 C7 1_555 1_555
C9 C8 1_555 1_555
H9 C9 1_555 1_555
C10 C9 1_555 1_555
H10 C10 1_555 1_555
C11 C10 1_555 1_555
C12 C11 1_555 1_555
H11 C12 1_555 1_555
C13 C12 1_555 1_555
H12 C13 1_555 1_555
C14 C13 1_555 1_555
H13 C14 1_555 1_555
C15 C14 1_555 1_555
H14 C15 1_555 1_555
C16 C11 1_555 1_555
C17 C8 1_555 1_555
C18 C17 1_555 1_555
C19 C6 1_555 1_555
C20 N1 1_555 1_555
C21 N2 1_555 1_555
H15 C21 1_555 1_555
N3 C20 1_555 1_555
C2 C3 1_555 1_555
C6 C7 1_555 1_555
C15 C16 1_555 1_555
C16 C17 1_555 1_555
C18 C19 1_555 1_555
C18 C21 1_555 1_555

#END
