
#######################################################################
#
#                 Cambridge Crystallographic Data Centre
#                                CCDC 
#
#######################################################################
#
# If this CIF has been generated from an entry in the Cambridge 
# Structural Database, then it will include bibliographic, chemical, 
# crystal, experimental, refinement or atomic coordinate data resulting 
# from the CCDC's data processing and validation procedures.
#
#######################################################################

data_OPIMOR
_chemical_formula_moiety         'C48 H65 Mg1 N3 O1 Si3,C7 H8'
_chemical_name_systematic        
'(2-((benzyl((1-butylpyrrolidin-2-yl)methyl)amino)methyl)-4-methyl-6-(triphenylsilyl)phenolato)-(bis(trimethylsilyl)amido)-magnesium toluene solvate'
_symmetry_cell_setting           orthorhombic
_symmetry_space_group_name_H-M   'P 21 21 21'
_symmetry_Int_Tables_number      19
_space_group_name_Hall           'P 2ac 2ab'
loop_
_symmetry_equiv_pos_site_id
_symmetry_equiv_pos_as_xyz
1 x,y,z
2 1/2+x,1/2-y,-z
3 -x,1/2+y,1/2-z
4 1/2-x,-y,1/2+z
_cell_length_a                   10.0092(4)
_cell_length_b                   22.1908(9)
_cell_length_c                   23.6773(9)
_cell_angle_alpha                90
_cell_angle_beta                 90
_cell_angle_gamma                90
_cell_volume                     5259.02
_exptl_crystal_colour            colorless
_cell_formula_units_Z            4
loop_
_atom_site_label
_atom_site_type_symbol
_atom_site_fract_x
_atom_site_fract_y
_atom_site_fract_z
Mg1 Mg 0.92487(15) 0.88826(7) 0.75131(8)
N1 N 0.9174(4) 0.79847(19) 0.71179(19)
N2 N 1.1317(4) 0.8551(2) 0.77218(19)
N3 N 0.8989(4) 0.96753(19) 0.7124(2)
O1 O 0.7912(3) 0.86770(16) 0.80546(17)
Si1 Si 0.63436(13) 0.87401(6) 0.91954(7)
Si2 Si 0.83532(14) 0.97816(7) 0.64641(7)
Si3 Si 0.93961(15) 1.02631(7) 0.75610(7)
C1 C 0.7259(5) 0.8172(2) 0.8170(2)
C2 C 0.6540(5) 0.8106(2) 0.8684(2)
C3 C 0.5937(5) 0.7548(2) 0.8798(3)
H1 H 0.5455 0.7502 0.9141
C4 C 0.6015(5) 0.7060(3) 0.8431(3)
C5 C 0.6663(5) 0.7146(2) 0.7923(3)
H2 H 0.6698 0.6822 0.7661
C6 C 0.7267(5) 0.7690(2) 0.7782(2)
C7 C 0.7779(5) 0.7751(3) 0.7184(3)
H3 H 0.7728 0.7351 0.7001
H4 H 0.7169 0.8024 0.6976
C8 C 1.0127(5) 0.7620(2) 0.7448(3)
H5 H 1.0233 0.7221 0.7265
H6 H 0.9762 0.7554 0.7831
C9 C 1.1487(5) 0.7923(2) 0.7493(3)
H7 H 1.1918 0.7940 0.7113
C10 C 1.2402(6) 0.7583(3) 0.7909(3)
H8 H 1.2022 0.7183 0.8001
H9 H 1.3301 0.7525 0.7744
C11 C 1.2480(6) 0.7976(3) 0.8437(3)
H10 H 1.3372 0.8166 0.8471
H11 H 1.2302 0.7735 0.8781
C12 C 1.1390(6) 0.8454(3) 0.8347(2)
H12 H 1.0521 0.8310 0.8495
H13 H 1.1628 0.8833 0.8543
C13 C 0.9533(5) 0.7997(2) 0.6495(2)
H14 H 0.8940 0.8291 0.6305
H15 H 1.0459 0.8149 0.6459
C14 C 0.9438(5) 0.7407(2) 0.6183(2)
C15 C 1.0552(6) 0.7045(3) 0.6111(3)
H16 H 1.1391 0.7170 0.6258
C16 C 1.0451(6) 0.6496(3) 0.5824(3)
H17 H 1.1223 0.6252 0.5774
C17 C 0.9254(7) 0.6309(3) 0.5615(3)
H18 H 0.9185 0.5931 0.5429
C18 C 0.8149(6) 0.6668(3) 0.5674(3)
H19 H 0.7316 0.6540 0.5524
C19 C 0.8237(6) 0.7219(3) 0.5952(3)
H20 H 0.7469 0.7468 0.5982
C20 C 0.5391(7) 0.6457(3) 0.8583(3)
H21 H 0.5133 0.6245 0.8236
H22 H 0.4597 0.6524 0.8817
H23 H 0.6039 0.6213 0.8793
C21 C 0.5469(5) 0.8449(2) 0.9846(3)
C22 C 0.4130(6) 0.8284(3) 0.9844(3)
H24 H 0.3639 0.8313 0.9501
C23 C 0.3485(6) 0.8078(3) 1.0325(3)
H25 H 0.2575 0.7958 1.0305
C24 C 0.4149(6) 0.8046(3) 1.0827(3)
H26 H 0.3702 0.7913 1.1158
C25 C 0.5479(6) 0.8210(3) 1.0848(3)
H27 H 0.5952 0.8186 1.1195
C26 C 0.6129(6) 0.8409(3) 1.0364(3)
H28 H 0.7044 0.8519 1.0386
C27 C 0.5286(5) 0.9371(2) 0.8909(3)
C28 C 0.4287(6) 0.9644(3) 0.9232(3)
H29 H 0.4132 0.9501 0.9605
C29 C 0.3520(7) 1.0110(3) 0.9032(4)
H30 H 0.2839 1.0277 0.9264
C30 C 0.3729(6) 1.0335(3) 0.8502(4)
H31 H 0.3203 1.0660 0.8364
C31 C 0.4706(6) 1.0087(3) 0.8175(3)
H32 H 0.4859 1.0243 0.7807
C32 C 0.5478(5) 0.9610(3) 0.8367(3)
H33 H 0.6147 0.9444 0.8129
C33 C 0.7988(5) 0.9045(3) 0.9439(2)
C34 C 0.8117(6) 0.9638(3) 0.9637(3)
H34 H 0.7374 0.9903 0.9613
C35 C 0.9303(7) 0.9845(3) 0.9865(3)
H35 H 0.9362 1.0245 1.0005
C36 C 1.0385(7) 0.9475(4) 0.9889(3)
H36 H 1.1207 0.9623 1.0033
C37 C 1.0294(6) 0.8893(4) 0.9706(3)
H37 H 1.1049 0.8635 0.9732
C38 C 0.9107(5) 0.8677(3) 0.9481(3)
H38 H 0.9058 0.8272 0.9353
C39 C 1.2470(5) 0.8934(3) 0.7539(3)
H39 H 1.3310 0.8708 0.7600
H40 H 1.2501 0.9300 0.7777
C40 C 1.2385(6) 0.9123(3) 0.6915(3)
H41 H 1.2414 0.8760 0.6672
H42 H 1.1526 0.9331 0.6846
C41 C 1.3535(6) 0.9540(3) 0.6760(3)
H43 H 1.3486 0.9906 0.6998
H44 H 1.4390 0.9334 0.6845
C42 C 1.3525(6) 0.9723(3) 0.6144(3)
H45 H 1.3539 0.9362 0.5906
H46 H 1.4314 0.9970 0.6063
H47 H 1.2715 0.9956 0.6064
C43 C 0.7099(6) 0.9186(3) 0.6263(3)
H48 H 0.7518 0.8895 0.6007
H49 H 0.6336 0.9375 0.6074
H50 H 0.6790 0.8977 0.6604
C44 C 0.9659(6) 0.9787(3) 0.5896(3)
H51 H 1.0251 1.0134 0.5950
H52 H 0.9225 0.9816 0.5526
H53 H 1.0183 0.9415 0.5915
C45 C 0.7391(7) 1.0492(3) 0.6378(3)
H54 H 0.6624 1.0489 0.6636
H55 H 0.7073 1.0524 0.5988
H56 H 0.7967 1.0836 0.6466
C46 C 1.0766(6) 1.0755(3) 0.7281(3)
H57 H 1.1556 1.0508 0.7202
H58 H 1.0991 1.1062 0.7563
H59 H 1.0467 1.0951 0.6933
C47 C 0.8010(6) 1.0792(3) 0.7744(3)
H60 H 0.7686 1.0989 0.7400
H61 H 0.8340 1.1098 0.8008
H62 H 0.7278 1.0567 0.7920
C48 C 0.9970(6) 0.9957(3) 0.8258(3)
H63 H 0.9296 0.9679 0.8406
H64 H 1.0096 1.0291 0.8524
H65 H 1.0817 0.9743 0.8207
C49 C 0.4312(7) 0.6877(3) 0.5636(3)
C50 C 0.4481(7) 0.7490(3) 0.5564(3)
H66 H 0.4523 0.7655 0.5194
C51 C 0.4592(6) 0.7869(3) 0.6031(4)
H67 H 0.4706 0.8290 0.5977
C52 C 0.4539(6) 0.7641(4) 0.6563(3)
H68 H 0.4615 0.7901 0.6881
C53 C 0.4372(6) 0.7032(4) 0.6639(3)
H69 H 0.4334 0.6870 0.7010
C54 C 0.4262(6) 0.6656(3) 0.6182(3)
H70 H 0.4149 0.6236 0.6241
C55 C 0.4180(11) 0.6461(4) 0.5134(4)
H71 H 0.4231 0.6042 0.5262
H72 H 0.4905 0.6541 0.4867
H73 H 0.3318 0.6531 0.4949
loop_
_geom_bond_atom_site_label_1
_geom_bond_atom_site_label_2
_geom_bond_site_symmetry_1
_geom_bond_site_symmetry_2
Mg1 N1 1_555 1_555
N1 C7 1_555 1_555
N2 Mg1 1_555 1_555
N3 Mg1 1_555 1_555
O1 Mg1 1_555 1_555
Si1 C2 1_555 1_555
Si2 N3 1_555 1_555
Si3 N3 1_555 1_555
C1 O1 1_555 1_555
C2 C1 1_555 1_555
C3 C2 1_555 1_555
H1 C3 1_555 1_555
C4 C3 1_555 1_555
C5 C4 1_555 1_555
H2 C5 1_555 1_555
C6 C1 1_555 1_555
C7 C6 1_555 1_555
H3 C7 1_555 1_555
H4 C7 1_555 1_555
C8 N1 1_555 1_555
H5 C8 1_555 1_555
H6 C8 1_555 1_555
C9 N2 1_555 1_555
H7 C9 1_555 1_555
C10 C9 1_555 1_555
H8 C10 1_555 1_555
H9 C10 1_555 1_555
C11 C10 1_555 1_555
H10 C11 1_555 1_555
H11 C11 1_555 1_555
C12 N2 1_555 1_555
H12 C12 1_555 1_555
H13 C12 1_555 1_555
C13 N1 1_555 1_555
H14 C13 1_555 1_555
H15 C13 1_555 1_555
C14 C13 1_555 1_555
C15 C14 1_555 1_555
H16 C15 1_555 1_555
C16 C15 1_555 1_555
H17 C16 1_555 1_555
C17 C16 1_555 1_555
H18 C17 1_555 1_555
C18 C17 1_555 1_555
H19 C18 1_555 1_555
C19 C14 1_555 1_555
H20 C19 1_555 1_555
C20 C4 1_555 1_555
H21 C20 1_555 1_555
H22 C20 1_555 1_555
H23 C20 1_555 1_555
C21 Si1 1_555 1_555
C22 C21 1_555 1_555
H24 C22 1_555 1_555
C23 C22 1_555 1_555
H25 C23 1_555 1_555
C24 C23 1_555 1_555
H26 C24 1_555 1_555
C25 C24 1_555 1_555
H27 C25 1_555 1_555
C26 C21 1_555 1_555
H28 C26 1_555 1_555
C27 Si1 1_555 1_555
C28 C27 1_555 1_555
H29 C28 1_555 1_555
C29 C28 1_555 1_555
H30 C29 1_555 1_555
C30 C29 1_555 1_555
H31 C30 1_555 1_555
C31 C30 1_555 1_555
H32 C31 1_555 1_555
C32 C27 1_555 1_555
H33 C32 1_555 1_555
C33 Si1 1_555 1_555
C34 C33 1_555 1_555
H34 C34 1_555 1_555
C35 C34 1_555 1_555
H35 C35 1_555 1_555
C36 C35 1_555 1_555
H36 C36 1_555 1_555
C37 C36 1_555 1_555
H37 C37 1_555 1_555
C38 C33 1_555 1_555
H38 C38 1_555 1_555
C39 N2 1_555 1_555
H39 C39 1_555 1_555
H40 C39 1_555 1_555
C40 C39 1_555 1_555
H41 C40 1_555 1_555
H42 C40 1_555 1_555
C41 C40 1_555 1_555
H43 C41 1_555 1_555
H44 C41 1_555 1_555
C42 C41 1_555 1_555
H45 C42 1_555 1_555
H46 C42 1_555 1_555
H47 C42 1_555 1_555
C43 Si2 1_555 1_555
H48 C43 1_555 1_555
H49 C43 1_555 1_555
H50 C43 1_555 1_555
C44 Si2 1_555 1_555
H51 C44 1_555 1_555
H52 C44 1_555 1_555
H53 C44 1_555 1_555
C45 Si2 1_555 1_555
H54 C45 1_555 1_555
H55 C45 1_555 1_555
H56 C45 1_555 1_555
C46 Si3 1_555 1_555
H57 C46 1_555 1_555
H58 C46 1_555 1_555
H59 C46 1_555 1_555
C47 Si3 1_555 1_555
H60 C47 1_555 1_555
H61 C47 1_555 1_555
H62 C47 1_555 1_555
C48 Si3 1_555 1_555
H63 C48 1_555 1_555
H64 C48 1_555 1_555
H65 C48 1_555 1_555
C49 C50 1_555 1_555
C50 H66 1_555 1_555
C51 C50 1_555 1_555
H67 C51 1_555 1_555
C52 C51 1_555 1_555
H68 C52 1_555 1_555
C53 C52 1_555 1_555
H69 C53 1_555 1_555
C54 C49 1_555 1_555
H70 C54 1_555 1_555
C55 C49 1_555 1_555
H71 C55 1_555 1_555
H72 C55 1_555 1_555
H73 C55 1_555 1_555
C5 C6 1_555 1_555
C8 C9 1_555 1_555
C11 C12 1_555 1_555
C18 C19 1_555 1_555
C25 C26 1_555 1_555
C31 C32 1_555 1_555
C37 C38 1_555 1_555
C53 C54 1_555 1_555

#END
