
#######################################################################
#
#                 Cambridge Crystallographic Data Centre
#                                CCDC 
#
#######################################################################
#
# If this CIF has been generated from an entry in the Cambridge 
# Structural Database, then it will include bibliographic, chemical, 
# crystal, experimental, refinement or atomic coordinate data resulting 
# from the CCDC's data processing and validation procedures.
#
#######################################################################

data_OPIMAD
_chemical_formula_moiety         'C31 H53 Mg1 N3 O1 Si2'
_chemical_name_systematic        
(2-((benzyl((1-butylpyrrolidin-2-yl)methyl)amino)methyl)-4,6-dimethylphenolato)-(bis(trimethylsilyl)amido)-magnesium
_symmetry_cell_setting           monoclinic
_symmetry_space_group_name_H-M   'P 21'
_symmetry_Int_Tables_number      4
_space_group_name_Hall           'P 2yb'
loop_
_symmetry_equiv_pos_site_id
_symmetry_equiv_pos_as_xyz
1 x,y,z
2 -x,1/2+y,-z
_cell_length_a                   14.6459(18)
_cell_length_b                   13.6541(18)
_cell_length_c                   18.104(2)
_cell_angle_alpha                90
_cell_angle_beta                 111.227(2)
_cell_angle_gamma                90
_cell_volume                     3374.75
_exptl_crystal_colour            colorless
_exptl_crystal_description       block
_cell_formula_units_Z            4
loop_
_atom_site_label
_atom_site_type_symbol
_atom_site_fract_x
_atom_site_fract_y
_atom_site_fract_z
Si1 Si 0.83767(16) -0.6724(2) 0.89124(13)
Si2 Si 0.76103(16) -0.79739(18) 0.99134(14)
Mg1 Mg 0.72044(17) -0.5593(2) 0.97204(14)
O1 O 0.7465(4) -0.4489(4) 0.9211(3)
N1 N 0.5651(4) -0.5272(5) 0.9353(3)
N2 N 0.7284(4) -0.4990(5) 1.0853(4)
N3 N 0.7738(4) -0.6872(5) 0.9527(4)
C1 C 0.6934(5) -0.3690(7) 0.8961(4)
C2 C 0.7381(5) -0.2779(6) 0.8979(4)
C3 C 0.6822(6) -0.1959(7) 0.8663(4)
H1 H 0.7139 -0.1349 0.8676
C4 C 0.5810(6) -0.2008(6) 0.8326(4)
C5 C 0.5358(5) -0.2893(6) 0.8364(4)
H2 H 0.4664 -0.2923 0.8182
C6 C 0.5903(5) -0.3737(6) 0.8662(4)
C7 C 0.5373(5) -0.4686(6) 0.8607(4)
H3 H 0.4662 -0.4546 0.8426
H4 H 0.5485 -0.5093 0.8196
C8 C 0.5538(5) -0.4688(6) 1.0016(4)
H5 H 0.4856 -0.4749 0.9998
H6 H 0.5665 -0.3989 0.9947
C9 C 0.6248(5) -0.5046(5) 1.0823(4)
H7 H 0.6081 -0.5726 1.0936
C10 C 0.6207(5) -0.4325(6) 1.1465(4)
H8 H 0.5547 -0.4030 1.1316
H9 H 0.6369 -0.4661 1.1981
C11 C 0.6964(5) -0.3552(6) 1.1508(4)
H10 H 0.7429 -0.3473 1.2059
H11 H 0.6644 -0.2913 1.1318
C12 C 0.7502(5) -0.3920(5) 1.0966(4)
H12 H 0.7260 -0.3574 1.0451
H13 H 0.8216 -0.3809 1.1220
C13 C 0.7965(6) -0.5523(7) 1.1547(5)
H14 H 0.7696 -0.6177 1.1587
H15 H 0.8050 -0.5156 1.2040
C14 C 0.8988(7) -0.5633(8) 1.1439(5)
H16 H 0.8883 -0.6018 1.0952
H17 H 0.9210 -0.4972 1.1353
C15 C 0.9772(8) -0.6091(10) 1.2082(7)
H18 H 0.9596 -0.6774 1.2155
H19 H 0.9891 -0.5728 1.2582
C16 C 1.0690(8) -0.6073(11) 1.1867(7)
H20 H 1.0639 -0.6581 1.1472
H21 H 1.1268 -0.6198 1.2343
H22 H 1.0751 -0.5430 1.1649
C17 C 0.5058(5) -0.6189(6) 0.9199(4)
H23 H 0.5297 -0.6594 0.9686
H24 H 0.5188 -0.6558 0.8777
C18 C 0.3956(5) -0.6077(6) 0.8957(4)
C19 C 0.3520(5) -0.6184(7) 0.9515(4)
H25 H 0.3913 -0.6312 1.0053
C20 C 0.2513(6) -0.6103(7) 0.9293(5)
H26 H 0.2222 -0.6159 0.9683
C21 C 0.1926(6) -0.5944(8) 0.8511(5)
H27 H 0.1234 -0.5902 0.8358
C22 C 0.2362(6) -0.5847(7) 0.7962(5)
H28 H 0.1968 -0.5721 0.7424
C23 C 0.3369(6) -0.5931(7) 0.8176(5)
H29 H 0.3656 -0.5887 0.7782
C24 C 0.5208(6) -0.1105(7) 0.7967(5)
H30 H 0.5217 -0.0995 0.7435
H31 H 0.5488 -0.0535 0.8301
H32 H 0.4531 -0.1202 0.7934
C25 C 0.8476(5) -0.2724(7) 0.9373(5)
H33 H 0.8692 -0.2046 0.9363
H34 H 0.8782 -0.3145 0.9089
H35 H 0.8670 -0.2946 0.9923
C26 C 0.9390(6) -0.5818(8) 0.9316(5)
H36 H 0.9127 -0.5204 0.9437
H37 H 0.9692 -0.5695 0.8923
H38 H 0.9883 -0.6079 0.9801
C27 C 0.7554(7) -0.6277(9) 0.7917(5)
H39 H 0.7090 -0.6796 0.7647
H40 H 0.7948 -0.6102 0.7600
H41 H 0.7192 -0.5701 0.7982
C28 C 0.9000(7) -0.7877(8) 0.8740(6)
H42 H 0.9375 -0.8180 0.9250
H43 H 0.9443 -0.7707 0.8463
H44 H 0.8503 -0.8338 0.8416
C29 C 0.6988(7) -0.8930(8) 0.9153(6)
H45 H 0.7421 -0.9122 0.8872
H46 H 0.6378 -0.8663 0.8773
H47 H 0.6842 -0.9504 0.9415
C30 C 0.8792(6) -0.8519(9) 1.0600(6)
H48 H 0.9167 -0.8020 1.0976
H49 H 0.9176 -0.8755 1.0290
H50 H 0.8650 -0.9068 1.0890
C31 C 0.6835(7) -0.7940(8) 1.0524(5)
H51 H 0.6982 -0.8508 1.0878
H52 H 0.6143 -0.7955 1.0177
H53 H 0.6969 -0.7337 1.0839
Si3 Si 0.83174(17) 0.2658(2) 0.39531(14)
Si4 Si 0.76095(17) 0.38206(19) 0.50400(15)
Mg2 Mg 0.70900(18) 0.1512(2) 0.47390(15)
O2 O 0.7418(4) 0.0432(4) 0.4232(3)
N4 N 0.5534(4) 0.1151(5) 0.4311(3)
N5 N 0.7122(4) 0.0781(5) 0.5814(4)
N6 N 0.7684(4) 0.2766(6) 0.4577(4)
C32 C 0.6932(5) -0.0376(6) 0.3958(4)
C33 C 0.7431(6) -0.1264(7) 0.3981(4)
C34 C 0.6917(6) -0.2096(7) 0.3689(5)
H54 H 0.7269 -0.2682 0.3692
C35 C 0.5898(6) -0.2127(6) 0.3387(4)
C36 C 0.5408(5) -0.1261(6) 0.3386(4)
H55 H 0.4713 -0.1261 0.3187
C37 C 0.5903(5) -0.0393(6) 0.3667(4)
C38 C 0.5326(5) 0.0547(6) 0.3577(4)
H56 H 0.5452 0.0956 0.3173
H57 H 0.4620 0.0380 0.3370
C39 C 0.5379(5) 0.0601(6) 0.4958(4)
H58 H 0.4853 0.0113 0.4722
H59 H 0.5148 0.1061 0.5275
C40 C 0.6289(5) 0.0069(5) 0.5512(4)
H60 H 0.6469 -0.0472 0.5218
C41 C 0.6115(6) -0.0350(6) 0.6235(4)
H61 H 0.6401 -0.1014 0.6364
H62 H 0.5405 -0.0387 0.6137
C42 C 0.6629(6) 0.0370(6) 0.6912(4)
H63 H 0.6173 0.0600 0.7167
H64 H 0.7201 0.0058 0.7319
C43 C 0.6948(5) 0.1211(6) 0.6518(4)
H65 H 0.6432 0.1719 0.6346
H66 H 0.7556 0.1511 0.6889
C44 C 0.8066(6) 0.0227(8) 0.6087(5)
H67 H 0.7998 -0.0318 0.5710
H68 H 0.8147 -0.0072 0.6605
C45 C 0.9001(8) 0.0764(10) 0.6181(7)
H69 H 0.9523 0.0271 0.6260
H70 H 0.8907 0.1104 0.5675
C46 C 0.9307(9) 0.1384(11) 0.6731(8)
H71 H 0.9307 0.1097 0.7233
H72 H 0.8873 0.1965 0.6606
C47 C 1.0453(7) 0.1716(10) 0.6829(7)
H73 H 1.0430 0.2120 0.6375
H74 H 1.0845 0.1128 0.6848
H75 H 1.0749 0.2091 0.7319
C48 C 0.4927(5) 0.2069(6) 0.4100(5)
H76 H 0.5157 0.2519 0.4560
H77 H 0.5051 0.2393 0.3656
C49 C 0.3840(5) 0.1939(7) 0.3868(5)
C50 C 0.3244(5) 0.1703(6) 0.3096(4)
H78 H 0.3531 0.1603 0.2708
C51 C 0.2252(6) 0.1610(8) 0.2887(5)
H79 H 0.1854 0.1434 0.2361
C52 C 0.1833(6) 0.1776(8) 0.3447(5)
H80 H 0.1145 0.1702 0.3302
C53 C 0.2385(7) 0.2044(9) 0.4206(6)
H81 H 0.2085 0.2178 0.4580
C54 C 0.3384(6) 0.2115(7) 0.4415(5)
H82 H 0.3774 0.2287 0.4944
C55 C 0.8548(5) -0.1243(8) 0.4321(5)
H83 H 0.8802 -0.1884 0.4244
H84 H 0.8774 -0.1093 0.4888
H85 H 0.8784 -0.0739 0.4048
C56 C 0.5347(6) -0.3043(8) 0.3044(5)
H86 H 0.5371 -0.3491 0.3473
H87 H 0.5645 -0.3358 0.2700
H88 H 0.4663 -0.2879 0.2734
C57 C 0.7513(7) 0.2223(9) 0.2941(5)
H89 H 0.7287 0.1556 0.2979
H90 H 0.7886 0.2227 0.2588
H91 H 0.6947 0.2660 0.2728
C58 C 0.9339(6) 0.1773(9) 0.4313(5)
H92 H 0.9780 0.1965 0.4843
H93 H 0.9699 0.1768 0.3950
H94 H 0.9077 0.1118 0.4335
C59 C 0.8858(8) 0.3843(10) 0.3772(6)
H95 H 0.8329 0.4289 0.3473
H96 H 0.9278 0.3714 0.3467
H97 H 0.9247 0.4142 0.4280
C60 C 0.8806(6) 0.4276(8) 0.5760(6)
H98 H 0.9096 0.3776 0.6166
H99 H 0.8697 0.4877 0.6012
H100 H 0.9251 0.4414 0.5479
C61 C 0.6996(7) 0.4837(8) 0.4329(6)
H101 H 0.7469 0.5135 0.4128
H102 H 0.6755 0.5334 0.4603
H103 H 0.6446 0.4569 0.3885
C62 C 0.6851(7) 0.3661(7) 0.5678(6)
H104 H 0.6202 0.3409 0.5354
H105 H 0.6780 0.4293 0.5907
H106 H 0.7175 0.3195 0.6105
loop_
_geom_bond_atom_site_label_1
_geom_bond_atom_site_label_2
_geom_bond_site_symmetry_1
_geom_bond_site_symmetry_2
Si1 N3 1_555 1_555
Si2 N3 1_555 1_555
Mg1 O1 1_555 1_555
O1 C1 1_555 1_555
N1 Mg1 1_555 1_555
N2 Mg1 1_555 1_555
N3 Mg1 1_555 1_555
C1 C2 1_555 1_555
C2 C3 1_555 1_555
C3 H1 1_555 1_555
C4 C3 1_555 1_555
C5 C4 1_555 1_555
H2 C5 1_555 1_555
C6 C1 1_555 1_555
C7 N1 1_555 1_555
H3 C7 1_555 1_555
H4 C7 1_555 1_555
C8 N1 1_555 1_555
H5 C8 1_555 1_555
H6 C8 1_555 1_555
C9 N2 1_555 1_555
H7 C9 1_555 1_555
C10 C9 1_555 1_555
H8 C10 1_555 1_555
H9 C10 1_555 1_555
C11 C10 1_555 1_555
H10 C11 1_555 1_555
H11 C11 1_555 1_555
C12 N2 1_555 1_555
H12 C12 1_555 1_555
H13 C12 1_555 1_555
C13 N2 1_555 1_555
H14 C13 1_555 1_555
H15 C13 1_555 1_555
C14 C13 1_555 1_555
H16 C14 1_555 1_555
H17 C14 1_555 1_555
C15 C14 1_555 1_555
H18 C15 1_555 1_555
H19 C15 1_555 1_555
C16 C15 1_555 1_555
H20 C16 1_555 1_555
H21 C16 1_555 1_555
H22 C16 1_555 1_555
C17 N1 1_555 1_555
H23 C17 1_555 1_555
H24 C17 1_555 1_555
C18 C17 1_555 1_555
C19 C18 1_555 1_555
H25 C19 1_555 1_555
C20 C19 1_555 1_555
H26 C20 1_555 1_555
C21 C20 1_555 1_555
H27 C21 1_555 1_555
C22 C21 1_555 1_555
H28 C22 1_555 1_555
C23 C18 1_555 1_555
H29 C23 1_555 1_555
C24 C4 1_555 1_555
H30 C24 1_555 1_555
H31 C24 1_555 1_555
H32 C24 1_555 1_555
C25 C2 1_555 1_555
H33 C25 1_555 1_555
H34 C25 1_555 1_555
H35 C25 1_555 1_555
C26 Si1 1_555 1_555
H36 C26 1_555 1_555
H37 C26 1_555 1_555
H38 C26 1_555 1_555
C27 Si1 1_555 1_555
H39 C27 1_555 1_555
H40 C27 1_555 1_555
H41 C27 1_555 1_555
C28 Si1 1_555 1_555
H42 C28 1_555 1_555
H43 C28 1_555 1_555
H44 C28 1_555 1_555
C29 Si2 1_555 1_555
H45 C29 1_555 1_555
H46 C29 1_555 1_555
H47 C29 1_555 1_555
C30 Si2 1_555 1_555
H48 C30 1_555 1_555
H49 C30 1_555 1_555
H50 C30 1_555 1_555
C31 Si2 1_555 1_555
H51 C31 1_555 1_555
H52 C31 1_555 1_555
H53 C31 1_555 1_555
Si3 N6 1_555 1_555
Si4 N6 1_555 1_555
Mg2 O2 1_555 1_555
O2 C32 1_555 1_555
N4 Mg2 1_555 1_555
N5 Mg2 1_555 1_555
N6 Mg2 1_555 1_555
C32 C33 1_555 1_555
C33 C34 1_555 1_555
C34 H54 1_555 1_555
C35 C34 1_555 1_555
C36 C35 1_555 1_555
H55 C36 1_555 1_555
C37 C32 1_555 1_555
C38 N4 1_555 1_555
H56 C38 1_555 1_555
H57 C38 1_555 1_555
C39 N4 1_555 1_555
H58 C39 1_555 1_555
H59 C39 1_555 1_555
C40 N5 1_555 1_555
H60 C40 1_555 1_555
C41 C40 1_555 1_555
H61 C41 1_555 1_555
H62 C41 1_555 1_555
C42 C41 1_555 1_555
H63 C42 1_555 1_555
H64 C42 1_555 1_555
C43 N5 1_555 1_555
H65 C43 1_555 1_555
H66 C43 1_555 1_555
C44 N5 1_555 1_555
H67 C44 1_555 1_555
H68 C44 1_555 1_555
C45 C44 1_555 1_555
H69 C45 1_555 1_555
H70 C45 1_555 1_555
C46 C45 1_555 1_555
H71 C46 1_555 1_555
H72 C46 1_555 1_555
C47 C46 1_555 1_555
H73 C47 1_555 1_555
H74 C47 1_555 1_555
H75 C47 1_555 1_555
C48 N4 1_555 1_555
H76 C48 1_555 1_555
H77 C48 1_555 1_555
C49 C48 1_555 1_555
C50 C49 1_555 1_555
H78 C50 1_555 1_555
C51 C50 1_555 1_555
H79 C51 1_555 1_555
C52 C51 1_555 1_555
H80 C52 1_555 1_555
C53 C52 1_555 1_555
H81 C53 1_555 1_555
C54 C49 1_555 1_555
H82 C54 1_555 1_555
C55 C33 1_555 1_555
H83 C55 1_555 1_555
H84 C55 1_555 1_555
H85 C55 1_555 1_555
C56 C35 1_555 1_555
H86 C56 1_555 1_555
H87 C56 1_555 1_555
H88 C56 1_555 1_555
C57 Si3 1_555 1_555
H89 C57 1_555 1_555
H90 C57 1_555 1_555
H91 C57 1_555 1_555
C58 Si3 1_555 1_555
H92 C58 1_555 1_555
H93 C58 1_555 1_555
H94 C58 1_555 1_555
C59 Si3 1_555 1_555
H95 C59 1_555 1_555
H96 C59 1_555 1_555
H97 C59 1_555 1_555
C60 Si4 1_555 1_555
H98 C60 1_555 1_555
H99 C60 1_555 1_555
H100 C60 1_555 1_555
C61 Si4 1_555 1_555
H101 C61 1_555 1_555
H102 C61 1_555 1_555
H103 C61 1_555 1_555
C62 Si4 1_555 1_555
H104 C62 1_555 1_555
H105 C62 1_555 1_555
H106 C62 1_555 1_555
C5 C6 1_555 1_555
C6 C7 1_555 1_555
C8 C9 1_555 1_555
C11 C12 1_555 1_555
C22 C23 1_555 1_555
C36 C37 1_555 1_555
C37 C38 1_555 1_555
C39 C40 1_555 1_555
C42 C43 1_555 1_555
C53 C54 1_555 1_555

#END
