
#######################################################################
#
#                 Cambridge Crystallographic Data Centre
#                                CCDC 
#
#######################################################################
#
# If this CIF has been generated from an entry in the Cambridge 
# Structural Database, then it will include bibliographic, chemical, 
# crystal, experimental, refinement or atomic coordinate data resulting 
# from the CCDC's data processing and validation procedures.
#
#######################################################################

data_OPIMEH
_chemical_formula_moiety         'C37 H65 Mg1 N3 O1 Si2,0.5(C6 H6)'
_chemical_name_systematic        
'(2-((benzyl((1-butylpyrrolidin-2-yl)methyl)amino)methyl)-4,6-di-t-butylphenolato)-(bis(trimethylsilyl)amido)-magnesium benzene solvate'
_symmetry_cell_setting           monoclinic
_symmetry_space_group_name_H-M   'P 21'
_symmetry_Int_Tables_number      4
_space_group_name_Hall           'P 2yb'
loop_
_symmetry_equiv_pos_site_id
_symmetry_equiv_pos_as_xyz
1 x,y,z
2 -x,1/2+y,-z
_cell_length_a                   10.578(3)
_cell_length_b                   17.438(5)
_cell_length_c                   23.315(7)
_cell_angle_alpha                90
_cell_angle_beta                 100.208(5)
_cell_angle_gamma                90
_cell_volume                     4232.59
_exptl_crystal_colour            colorless
_exptl_crystal_description       plate
_cell_formula_units_Z            4
loop_
_atom_site_label
_atom_site_type_symbol
_atom_site_fract_x
_atom_site_fract_y
_atom_site_fract_z
Mg1 Mg 0.91916(15) 1.00927(10) 0.04085(7)
N1 N 0.7570(4) 0.9421(2) 0.05712(16)
N2 N 0.8103(4) 1.1050(2) 0.06906(17)
N3 N 1.0933(4) 0.9672(2) 0.07401(17)
O1 O 0.8711(3) 1.01005(19) -0.04104(12)
Si1 Si 1.17498(14) 0.93889(9) 0.02047(7)
Si2 Si 1.15698(14) 0.95883(9) 0.14564(6)
C1 C 0.7582(5) 0.9889(3) -0.0740(2)
C2 C 0.7186(5) 1.0187(3) -0.13100(19)
C3 C 0.6031(5) 0.9944(3) -0.1625(2)
H1 H 0.5762 1.0147 -0.2005
C4 C 0.5224(5) 0.9408(3) -0.1412(2)
C5 C 0.5631(5) 0.9132(3) -0.0861(2)
H2 H 0.5103 0.8777 -0.0703
C6 C 0.6797(5) 0.9356(3) -0.05235(19)
C7 C 0.7238(5) 0.8938(3) 0.0042(2)
H3 H 0.6552 0.8577 0.0103
H4 H 0.8002 0.8628 0.0002
C8 C 0.6540(5) 0.9973(3) 0.0647(2)
H5 H 0.5931 0.9719 0.0863
H6 H 0.6059 1.0120 0.0258
C9 C 0.7071(5) 1.0694(3) 0.0975(2)
H7 H 0.7425 1.0566 0.1390
C10 C 0.6038(5) 1.1304(3) 0.0946(2)
H8 H 0.6197 1.1632 0.1298
H9 H 0.5179 1.1066 0.0914
C11 C 0.6132(6) 1.1776(4) 0.0396(2)
H10 H 0.6206 1.2329 0.0489
H11 H 0.5364 1.1693 0.0092
C12 C 0.7351(5) 1.1482(3) 0.0189(2)
H12 H 0.7120 1.1142 -0.0153
H13 H 0.7860 1.1918 0.0080
C13 C 0.8895(5) 1.1606(3) 0.1093(2)
H14 H 0.9041 1.1398 0.1494
H15 H 0.8419 1.2095 0.1093
C14 C 1.0177(5) 1.1757(3) 0.0911(2)
H16 H 1.0030 1.1983 0.0515
H17 H 1.0637 1.1265 0.0895
C15 C 1.1011(6) 1.2300(3) 0.1331(3)
H18 H 1.1148 1.2079 0.1728
H19 H 1.0558 1.2796 0.1342
C16 C 1.2329(7) 1.2444(5) 0.1150(4)
H20 H 1.2803 1.1959 0.1162
H21 H 1.2822 1.2811 0.1419
H22 H 1.2197 1.2652 0.0753
C17 C 0.7965(5) 0.8922(3) 0.1090(2)
H23 H 0.8092 0.9257 0.1439
H24 H 0.8814 0.8701 0.1062
C18 C 0.7106(5) 0.8272(3) 0.1201(2)
C19 C 0.7283(6) 0.7547(3) 0.0993(2)
H25 H 0.7932 0.7465 0.0765
C20 C 0.6532(7) 0.6932(4) 0.1110(3)
H26 H 0.6667 0.6438 0.0961
C21 C 0.5589(7) 0.7039(4) 0.1444(3)
H27 H 0.5077 0.6619 0.1526
C22 C 0.5396(6) 0.7760(4) 0.1657(3)
H28 H 0.4748 0.7836 0.1886
C23 C 0.6149(5) 0.8375(3) 0.1537(2)
H29 H 0.6010 0.8869 0.1686
C24 C 0.3951(5) 0.9166(3) -0.1800(2)
C25 C 0.4271(6) 0.8815(4) -0.2370(2)
H30 H 0.3472 0.8697 -0.2638
H31 H 0.4769 0.8344 -0.2278
H32 H 0.4775 0.9184 -0.2553
C26 C 0.3270(6) 0.8544(4) -0.1503(2)
H33 H 0.3036 0.8751 -0.1146
H34 H 0.3847 0.8105 -0.1407
H35 H 0.2492 0.8379 -0.1768
C27 C 0.3059(6) 0.9827(4) -0.1941(3)
H36 H 0.2289 0.9660 -0.2210
H37 H 0.3487 1.0235 -0.2123
H38 H 0.2813 1.0021 -0.1582
C28 C 0.8069(5) 1.0733(3) -0.1580(2)
C29 C 0.7462(6) 1.1001(3) -0.2191(2)
H39 H 0.6627 1.1237 -0.2179
H40 H 0.7343 1.0560 -0.2456
H41 H 0.8026 1.1377 -0.2331
C30 C 0.9307(5) 1.0307(3) -0.1634(2)
H42 H 0.9847 1.0637 -0.1831
H43 H 0.9095 0.9838 -0.1862
H44 H 0.9770 1.0175 -0.1245
C31 C 0.8399(6) 1.1458(3) -0.1206(2)
H45 H 0.7610 1.1743 -0.1186
H46 H 0.8985 1.1782 -0.1381
H47 H 0.8813 1.1309 -0.0812
C32 C 1.3271(6) 0.8810(5) 0.0455(3)
H48 H 1.3748 0.9031 0.0816
H49 H 1.3806 0.8822 0.0153
H50 H 1.3042 0.8278 0.0526
C33 C 1.0767(5) 0.8725(3) -0.0329(2)
H51 H 1.0522 0.8274 -0.0123
H52 H 1.1273 0.8563 -0.0622
H53 H 0.9991 0.8992 -0.0522
C34 C 1.2232(7) 1.0256(4) -0.0186(3)
H54 H 1.1466 1.0558 -0.0342
H55 H 1.2654 1.0091 -0.0507
H56 H 1.2827 1.0571 0.0087
C35 C 1.3193(6) 1.0057(4) 0.1670(3)
H57 H 1.3801 0.9823 0.1450
H58 H 1.3501 0.9985 0.2088
H59 H 1.3118 1.0607 0.1582
C36 C 1.1739(6) 0.8559(4) 0.1689(3)
H60 H 1.0888 0.8321 0.1642
H61 H 1.2153 0.8532 0.2100
H62 H 1.2265 0.8287 0.1449
C37 C 1.0588(5) 1.0061(4) 0.1940(2)
H63 H 1.0781 1.0611 0.1962
H64 H 1.0791 0.9836 0.2331
H65 H 0.9675 0.9986 0.1783
Mg2 Mg 0.01485(15) 0.40568(9) 0.44950(7)
N4 N -0.0191(3) 0.3801(2) 0.53778(16)
N5 N -0.1970(4) 0.3992(2) 0.42904(15)
N6 N 0.0869(4) 0.3330(2) 0.39607(17)
O2 O 0.1043(3) 0.49619(18) 0.47658(13)
Si3 Si 0.09989(13) 0.37427(8) 0.33163(6)
Si4 Si 0.15349(14) 0.24723(8) 0.41959(6)
C38 C 0.1593(4) 0.5165(3) 0.53013(19)
C39 C 0.2785(4) 0.5568(3) 0.54088(19)
C40 C 0.3254(5) 0.5800(3) 0.5979(2)
H66 H 0.4047 0.6069 0.6048
C41 C 0.2648(5) 0.5670(3) 0.6461(2)
C42 C 0.1507(4) 0.5242(3) 0.63333(19)
H67 H 0.1065 0.5121 0.6643
C43 C 0.1004(4) 0.4991(3) 0.57843(19)
C44 C -0.0252(4) 0.4552(3) 0.56785(19)
H68 H -0.0523 0.4460 0.6058
H69 H -0.0918 0.4874 0.5441
C45 C -0.1488(4) 0.3433(3) 0.5290(2)
H70 H -0.1798 0.3418 0.5666
H71 H -0.1418 0.2898 0.5157
C46 C -0.2456(4) 0.3862(3) 0.48451(19)
H72 H -0.2668 0.4365 0.5011
C47 C -0.3696(4) 0.3369(3) 0.4688(2)
H73 H -0.3729 0.2970 0.4987
H74 H -0.4473 0.3694 0.4656
C48 C -0.3598(5) 0.3006(3) 0.4101(2)
H75 H -0.4300 0.3191 0.3794
H76 H -0.3650 0.2440 0.4123
C49 C -0.2290(5) 0.3253(3) 0.3970(2)
H77 H -0.1630 0.2860 0.4107
H78 H -0.2335 0.3329 0.3546
C50 C -0.2675(5) 0.4625(3) 0.3942(2)
H79 H -0.3608 0.4554 0.3930
H80 H -0.2516 0.4591 0.3537
C51 C -0.2295(5) 0.5426(3) 0.4180(2)
H81 H -0.2616 0.5503 0.4549
H82 H -0.1347 0.5467 0.4265
C52 C -0.2833(6) 0.6043(4) 0.3752(3)
H83 H -0.2798 0.6524 0.3979
H84 H -0.2210 0.6103 0.3484
C53 C -0.4137(7) 0.6025(5) 0.3373(4)
H85 H -0.4362 0.5495 0.3259
H86 H -0.4126 0.6335 0.3023
H87 H -0.4774 0.6234 0.3589
C54 C 0.0817(5) 0.3276(3) 0.5704(2)
H88 H 0.1647 0.3552 0.5763
H89 H 0.0899 0.2830 0.5451
C55 C 0.0616(5) 0.2977(3) 0.6287(2)
C56 C 0.1125(5) 0.3327(3) 0.6806(2)
H90 H 0.1584 0.3794 0.6799
C57 C 0.0985(6) 0.3019(3) 0.7327(2)
H91 H 0.1336 0.3278 0.7678
C58 C 0.0338(5) 0.2331(3) 0.7353(2)
H92 H 0.0236 0.2119 0.7717
C59 C -0.0148(5) 0.1970(3) 0.6845(2)
H93 H -0.0581 0.1495 0.6858
C60 C -0.0028(5) 0.2274(3) 0.6315(2)
H94 H -0.0379 0.2010 0.5966
C61 C 0.3166(5) 0.5942(3) 0.7070(2)
C62 C 0.3380(5) 0.5250(3) 0.7477(2)
H95 H 0.2548 0.5024 0.7512
H96 H 0.3824 0.5414 0.7862
H97 H 0.3903 0.4868 0.7318
C63 C 0.4458(5) 0.6362(3) 0.7123(2)
H98 H 0.5100 0.6015 0.7009
H99 H 0.4741 0.6528 0.7527
H100 H 0.4358 0.6811 0.6866
C64 C 0.2193(6) 0.6486(3) 0.7279(2)
H101 H 0.2027 0.6923 0.7013
H102 H 0.2545 0.6670 0.7672
H103 H 0.1389 0.6210 0.7286
C65 C 0.3515(5) 0.5704(3) 0.4912(2)
C66 C 0.3814(5) 0.4935(3) 0.4644(2)
H104 H 0.3009 0.4664 0.4497
H105 H 0.4347 0.4621 0.4942
H106 H 0.4276 0.5028 0.4322
C67 C 0.2736(5) 0.6215(3) 0.4445(2)
H107 H 0.3215 0.6292 0.4126
H108 H 0.2582 0.6713 0.4616
H109 H 0.1912 0.5969 0.4294
C68 C 0.4815(5) 0.6099(3) 0.5124(2)
H110 H 0.5246 0.6191 0.4791
H111 H 0.5354 0.5768 0.5407
H112 H 0.4674 0.6589 0.5308
C69 C 0.0408(6) 0.4753(3) 0.3306(2)
H113 H -0.0502 0.4755 0.3341
H114 H 0.0510 0.4998 0.2939
H115 H 0.0905 0.5037 0.3633
C70 C 0.2673(5) 0.3815(4) 0.3158(2)
H116 H 0.3208 0.4112 0.3467
H117 H 0.2652 0.4073 0.2783
H118 H 0.3034 0.3300 0.3143
C71 C -0.0008(6) 0.3256(3) 0.2673(2)
H119 H 0.0318 0.2736 0.2634
H120 H 0.0036 0.3549 0.2318
H121 H -0.0901 0.3230 0.2732
C72 C 0.2083(7) 0.1860(4) 0.3617(3)
H122 H 0.1365 0.1784 0.3293
H123 H 0.2377 0.1362 0.3784
H124 H 0.2790 0.2118 0.3474
C73 C 0.0389(5) 0.1821(3) 0.4483(2)
H125 H -0.0027 0.2100 0.4763
H126 H 0.0858 0.1380 0.4676
H127 H -0.0265 0.1641 0.4159
C74 C 0.2973(5) 0.2642(4) 0.4772(2)
H128 H 0.3703 0.2789 0.4590
H129 H 0.3182 0.2172 0.4999
H130 H 0.2788 0.3055 0.5031
C75 C 0.4740(7) 0.3920(4) 0.6258(3)
H131 H 0.3919 0.4121 0.6097
C76 C 0.4870(11) 0.3139(5) 0.6361(4)
H132 H 0.4155 0.2801 0.6288
C77 C 0.6139(16) 0.2871(6) 0.6585(4)
H133 H 0.6289 0.2338 0.6649
C78 C 0.7077(10) 0.3346(9) 0.6699(4)
H134 H 0.7906 0.3154 0.6855
C79 C 0.6932(8) 0.4118(7) 0.6605(3)
H135 H 0.7647 0.4454 0.6694
C80 C 0.5738(6) 0.4399(4) 0.6380(3)
H136 H 0.5620 0.4933 0.6310
loop_
_geom_bond_atom_site_label_1
_geom_bond_atom_site_label_2
_geom_bond_site_symmetry_1
_geom_bond_site_symmetry_2
Mg1 N1 1_555 1_555
N1 C7 1_555 1_555
N2 Mg1 1_555 1_555
N3 Mg1 1_555 1_555
O1 Mg1 1_555 1_555
Si1 N3 1_555 1_555
Si2 N3 1_555 1_555
C1 O1 1_555 1_555
C2 C1 1_555 1_555
C3 C2 1_555 1_555
H1 C3 1_555 1_555
C4 C3 1_555 1_555
C5 C4 1_555 1_555
H2 C5 1_555 1_555
C6 C1 1_555 1_555
C7 C6 1_555 1_555
H3 C7 1_555 1_555
H4 C7 1_555 1_555
C8 N1 1_555 1_555
H5 C8 1_555 1_555
H6 C8 1_555 1_555
C9 N2 1_555 1_555
H7 C9 1_555 1_555
C10 C9 1_555 1_555
H8 C10 1_555 1_555
H9 C10 1_555 1_555
C11 C10 1_555 1_555
H10 C11 1_555 1_555
H11 C11 1_555 1_555
C12 N2 1_555 1_555
H12 C12 1_555 1_555
H13 C12 1_555 1_555
C13 N2 1_555 1_555
H14 C13 1_555 1_555
H15 C13 1_555 1_555
C14 C13 1_555 1_555
H16 C14 1_555 1_555
H17 C14 1_555 1_555
C15 C14 1_555 1_555
H18 C15 1_555 1_555
H19 C15 1_555 1_555
C16 C15 1_555 1_555
H20 C16 1_555 1_555
H21 C16 1_555 1_555
H22 C16 1_555 1_555
C17 N1 1_555 1_555
H23 C17 1_555 1_555
H24 C17 1_555 1_555
C18 C17 1_555 1_555
C19 C18 1_555 1_555
H25 C19 1_555 1_555
C20 C19 1_555 1_555
H26 C20 1_555 1_555
C21 C20 1_555 1_555
H27 C21 1_555 1_555
C22 C21 1_555 1_555
H28 C22 1_555 1_555
C23 C18 1_555 1_555
H29 C23 1_555 1_555
C24 C4 1_555 1_555
C25 C24 1_555 1_555
H30 C25 1_555 1_555
H31 C25 1_555 1_555
H32 C25 1_555 1_555
C26 C24 1_555 1_555
H33 C26 1_555 1_555
H34 C26 1_555 1_555
H35 C26 1_555 1_555
C27 C24 1_555 1_555
H36 C27 1_555 1_555
H37 C27 1_555 1_555
H38 C27 1_555 1_555
C28 C2 1_555 1_555
C29 C28 1_555 1_555
H39 C29 1_555 1_555
H40 C29 1_555 1_555
H41 C29 1_555 1_555
C30 C28 1_555 1_555
H42 C30 1_555 1_555
H43 C30 1_555 1_555
H44 C30 1_555 1_555
C31 C28 1_555 1_555
H45 C31 1_555 1_555
H46 C31 1_555 1_555
H47 C31 1_555 1_555
C32 Si1 1_555 1_555
H48 C32 1_555 1_555
H49 C32 1_555 1_555
H50 C32 1_555 1_555
C33 Si1 1_555 1_555
H51 C33 1_555 1_555
H52 C33 1_555 1_555
H53 C33 1_555 1_555
C34 Si1 1_555 1_555
H54 C34 1_555 1_555
H55 C34 1_555 1_555
H56 C34 1_555 1_555
C35 Si2 1_555 1_555
H57 C35 1_555 1_555
H58 C35 1_555 1_555
H59 C35 1_555 1_555
C36 Si2 1_555 1_555
H60 C36 1_555 1_555
H61 C36 1_555 1_555
H62 C36 1_555 1_555
C37 Si2 1_555 1_555
H63 C37 1_555 1_555
H64 C37 1_555 1_555
H65 C37 1_555 1_555
Mg2 N4 1_555 1_555
N4 C44 1_555 1_555
N5 Mg2 1_555 1_555
N6 Mg2 1_555 1_555
O2 Mg2 1_555 1_555
Si3 N6 1_555 1_555
Si4 N6 1_555 1_555
C38 O2 1_555 1_555
C39 C38 1_555 1_555
C40 C39 1_555 1_555
H66 C40 1_555 1_555
C41 C40 1_555 1_555
C42 C41 1_555 1_555
H67 C42 1_555 1_555
C43 C38 1_555 1_555
C44 C43 1_555 1_555
H68 C44 1_555 1_555
H69 C44 1_555 1_555
C45 N4 1_555 1_555
H70 C45 1_555 1_555
H71 C45 1_555 1_555
C46 N5 1_555 1_555
H72 C46 1_555 1_555
C47 C46 1_555 1_555
H73 C47 1_555 1_555
H74 C47 1_555 1_555
C48 C47 1_555 1_555
H75 C48 1_555 1_555
H76 C48 1_555 1_555
C49 N5 1_555 1_555
H77 C49 1_555 1_555
H78 C49 1_555 1_555
C50 N5 1_555 1_555
H79 C50 1_555 1_555
H80 C50 1_555 1_555
C51 C50 1_555 1_555
H81 C51 1_555 1_555
H82 C51 1_555 1_555
C52 C51 1_555 1_555
H83 C52 1_555 1_555
H84 C52 1_555 1_555
C53 C52 1_555 1_555
H85 C53 1_555 1_555
H86 C53 1_555 1_555
H87 C53 1_555 1_555
C54 N4 1_555 1_555
H88 C54 1_555 1_555
H89 C54 1_555 1_555
C55 C54 1_555 1_555
C56 C55 1_555 1_555
H90 C56 1_555 1_555
C57 C56 1_555 1_555
H91 C57 1_555 1_555
C58 C57 1_555 1_555
H92 C58 1_555 1_555
C59 C58 1_555 1_555
H93 C59 1_555 1_555
C60 C55 1_555 1_555
H94 C60 1_555 1_555
C61 C41 1_555 1_555
C62 C61 1_555 1_555
H95 C62 1_555 1_555
H96 C62 1_555 1_555
H97 C62 1_555 1_555
C63 C61 1_555 1_555
H98 C63 1_555 1_555
H99 C63 1_555 1_555
H100 C63 1_555 1_555
C64 C61 1_555 1_555
H101 C64 1_555 1_555
H102 C64 1_555 1_555
H103 C64 1_555 1_555
C65 C39 1_555 1_555
C66 C65 1_555 1_555
H104 C66 1_555 1_555
H105 C66 1_555 1_555
H106 C66 1_555 1_555
C67 C65 1_555 1_555
H107 C67 1_555 1_555
H108 C67 1_555 1_555
H109 C67 1_555 1_555
C68 C65 1_555 1_555
H110 C68 1_555 1_555
H111 C68 1_555 1_555
H112 C68 1_555 1_555
C69 Si3 1_555 1_555
H113 C69 1_555 1_555
H114 C69 1_555 1_555
H115 C69 1_555 1_555
C70 Si3 1_555 1_555
H116 C70 1_555 1_555
H117 C70 1_555 1_555
H118 C70 1_555 1_555
C71 Si3 1_555 1_555
H119 C71 1_555 1_555
H120 C71 1_555 1_555
H121 C71 1_555 1_555
C72 Si4 1_555 1_555
H122 C72 1_555 1_555
H123 C72 1_555 1_555
H124 C72 1_555 1_555
C73 Si4 1_555 1_555
H125 C73 1_555 1_555
H126 C73 1_555 1_555
H127 C73 1_555 1_555
C74 Si4 1_555 1_555
H128 C74 1_555 1_555
H129 C74 1_555 1_555
H130 C74 1_555 1_555
C75 H131 1_555 1_555
C76 C75 1_555 1_555
H132 C76 1_555 1_555
C77 C76 1_555 1_555
H133 C77 1_555 1_555
C78 C77 1_555 1_555
H134 C78 1_555 1_555
C79 C78 1_555 1_555
H135 C79 1_555 1_555
C80 C75 1_555 1_555
H136 C80 1_555 1_555
C5 C6 1_555 1_555
C8 C9 1_555 1_555
C11 C12 1_555 1_555
C22 C23 1_555 1_555
C42 C43 1_555 1_555
C45 C46 1_555 1_555
C48 C49 1_555 1_555
C59 C60 1_555 1_555
C79 C80 1_555 1_555

#END
