
#######################################################################
#
#                 Cambridge Crystallographic Data Centre
#                                CCDC 
#
#######################################################################
#
# If this CIF has been generated from an entry in the Cambridge 
# Structural Database, then it will include bibliographic, chemical, 
# crystal, experimental, refinement or atomic coordinate data resulting 
# from the CCDC's data processing and validation procedures.
#
#######################################################################

data_OPITEO
_chemical_formula_moiety         'C42 H30 O2,C1 H2 Cl2'
_chemical_name_systematic        
"4,4'-((1E,3E)-1,2,3,4-tetraphenylbuta-1,3-diene-1,4-diyl)dibenzaldehyde dichloromethane solvate"
_symmetry_cell_setting           monoclinic
_symmetry_space_group_name_H-M   'P 21/c'
_symmetry_Int_Tables_number      14
_space_group_name_Hall           '-P 2ybc'
loop_
_symmetry_equiv_pos_site_id
_symmetry_equiv_pos_as_xyz
1 x,y,z
2 -x,1/2+y,1/2-z
3 -x,-y,-z
4 x,1/2-y,1/2+z
_cell_length_a                   10.1250(13)
_cell_length_b                   14.4023(14)
_cell_length_c                   23.366(3)
_cell_angle_alpha                90
_cell_angle_beta                 98.890(15)
_cell_angle_gamma                90
_cell_volume                     3366.37
_exptl_crystal_colour            yellow
_exptl_crystal_description       prism
_chemical_melting_point          '455 K'
_cell_formula_units_Z            4
_chemical_properties_physical    Light-sensitive
_exptl_crystal_recrystallization_method dichloromethane/hexene
_exptl_crystal_preparation       Luminescent
loop_
_atom_site_label
_atom_site_type_symbol
_atom_site_fract_x
_atom_site_fract_y
_atom_site_fract_z
Cl1 Cl 0.39995(9) 0.38154(6) 0.43227(4)
Cl2 Cl 0.15051(11) 0.45122(10) 0.46175(6)
C1 C 0.3113(3) 0.4805(2) 0.45021(16)
H1 H 0.3603 0.5095 0.4857
H2 H 0.3058 0.5264 0.4184
O1 O -0.3189(2) 0.45732(14) 0.31466(10)
O2 O 0.5922(2) -0.41898(15) 0.42344(10)
C2 C 0.0744(3) -0.24322(19) 0.33086(12)
H3 H 0.1327 -0.2345 0.3032
C3 C 0.1243(2) 0.08167(19) 0.43965(12)
C4 C -0.1142(3) 0.20623(19) 0.42840(13)
H4 H -0.0966 0.1780 0.4656
C5 C 0.4168(3) -0.26365(19) 0.41822(13)
H5 H 0.4214 -0.3010 0.4520
C6 C 0.2245(3) -0.05704(18) 0.35033(11)
C7 C 0.0378(3) -0.16717(19) 0.36154(12)
C8 C -0.2087(3) -0.05743(19) 0.20830(13)
H6 H -0.1942 -0.0861 0.1732
C9 C -0.1614(3) 0.29094(19) 0.32093(13)
H7 H -0.1767 0.3206 0.2842
C10 C -0.0583(3) -0.3449(2) 0.37990(14)
H8 H -0.0888 -0.4056 0.3870
C11 C 0.0139(3) 0.07814(19) 0.38950(12)
C12 C -0.1216(3) -0.00456(18) 0.30504(12)
C13 C 0.2801(3) 0.03456(19) 0.33769(12)
C14 C -0.0046(2) 0.00560(19) 0.35207(12)
C15 C 0.4959(3) -0.28461(19) 0.37610(13)
C16 C -0.0668(2) 0.16494(19) 0.38123(12)
C17 C 0.1557(2) 0.0060(2) 0.47621(12)
H9 H 0.1049 -0.0495 0.4695
C18 C 0.2593(3) 0.0102(2) 0.52207(13)
H10 H 0.2801 -0.0425 0.5463
C19 C 0.4512(3) 0.1510(2) 0.36147(14)
H11 H 0.5304 0.1715 0.3853
C20 C 0.3320(3) -0.18861(19) 0.41046(12)
H12 H 0.2786 -0.1739 0.4393
C21 C 0.1987(3) 0.1623(2) 0.45108(13)
H13 H 0.1782 0.2151 0.4270
C22 C -0.2513(3) 0.02261(19) 0.31179(13)
H14 H -0.2667 0.0489 0.3475
C23 C 0.2756(3) 0.1765(2) 0.28257(13)
H15 H 0.2336 0.2144 0.2518
C24 C -0.3571(3) 0.01165(19) 0.26714(13)
H16 H -0.4443 0.0309 0.2722
C25 C -0.2113(3) 0.3302(2) 0.36732(13)
C26 C -0.0896(3) 0.20912(19) 0.32761(12)
H17 H -0.0557 0.1829 0.2955
C27 C 0.3234(3) -0.13362(19) 0.36075(12)
C28 C 0.4078(3) -0.15299(19) 0.32018(13)
H18 H 0.4069 -0.1141 0.2873
C29 C -0.0535(3) -0.1819(2) 0.39982(13)
H19 H -0.0845 -0.1306 0.4196
C30 C 0.3980(3) 0.06578(19) 0.37163(13)
H20 H 0.4417 0.0277 0.4020
C31 C 0.5830(3) -0.3668(2) 0.38269(15)
H21 H 0.6350 -0.3795 0.3531
C32 C -0.1034(3) -0.04532(19) 0.25275(12)
H22 H -0.0166 -0.0652 0.2476
C33 C 0.3910(3) 0.2068(2) 0.31736(14)
H23 H 0.4281 0.2657 0.3107
C34 C 0.3019(3) 0.1668(2) 0.49690(13)
H24 H 0.3523 0.2224 0.5040
C35 C -0.0989(3) -0.2699(2) 0.40912(14)
H25 H -0.1590 -0.2789 0.4361
C36 C 0.0933(3) -0.07199(18) 0.35456(11)
C37 C -0.1865(3) 0.2875(2) 0.42109(14)
H26 H -0.2195 0.3146 0.4532
C38 C 0.2221(3) 0.09112(19) 0.29283(13)
H27 H 0.1435 0.0707 0.2685
C39 C 0.4924(3) -0.22847(19) 0.32795(13)
H28 H 0.5486 -0.2420 0.3000
C40 C -0.2885(3) 0.4167(2) 0.36022(15)
H29 H -0.3166 0.4428 0.3937
C41 C 0.3325(3) 0.0907(2) 0.53273(13)
H30 H 0.4034 0.0940 0.5644
C42 C -0.3360(3) -0.02748(19) 0.21500(13)
H31 H -0.4081 -0.0338 0.1840
C43 C 0.0277(3) -0.3310(2) 0.33986(13)
H32 H 0.0544 -0.3821 0.3186
loop_
_geom_bond_atom_site_label_1
_geom_bond_atom_site_label_2
_geom_bond_site_symmetry_1
_geom_bond_site_symmetry_2
Cl1 C1 1_555 1_555
Cl2 C1 1_555 1_555
C1 H1 1_555 1_555
H2 C1 1_555 1_555
O1 C40 1_555 1_555
O2 C31 1_555 1_555
C2 H3 1_555 1_555
C3 C11 1_555 1_555
C4 H4 1_555 1_555
C5 H5 1_555 1_555
C6 C13 1_555 1_555
C7 C2 1_555 1_555
C8 H6 1_555 1_555
C9 H7 1_555 1_555
C10 H8 1_555 1_555
C11 C14 1_555 1_555
C12 C14 1_555 1_555
C13 C30 1_555 1_555
C14 C36 1_555 1_555
C15 C5 1_555 1_555
C16 C4 1_555 1_555
C17 C3 1_555 1_555
H9 C17 1_555 1_555
C18 C17 1_555 1_555
H10 C18 1_555 1_555
C19 H11 1_555 1_555
C20 C5 1_555 1_555
H12 C20 1_555 1_555
C21 C3 1_555 1_555
H13 C21 1_555 1_555
C22 C12 1_555 1_555
H14 C22 1_555 1_555
C23 H15 1_555 1_555
C24 C22 1_555 1_555
H16 C24 1_555 1_555
C25 C9 1_555 1_555
C26 C9 1_555 1_555
H17 C26 1_555 1_555
C27 C6 1_555 1_555
C28 C27 1_555 1_555
H18 C28 1_555 1_555
C29 C7 1_555 1_555
H19 C29 1_555 1_555
C30 C19 1_555 1_555
H20 C30 1_555 1_555
C31 C15 1_555 1_555
H21 C31 1_555 1_555
C32 C8 1_555 1_555
H22 C32 1_555 1_555
C33 C19 1_555 1_555
H23 C33 1_555 1_555
C34 C21 1_555 1_555
H24 C34 1_555 1_555
C35 C10 1_555 1_555
H25 C35 1_555 1_555
C36 C6 1_555 1_555
C37 C4 1_555 1_555
H26 C37 1_555 1_555
C38 C13 1_555 1_555
H27 C38 1_555 1_555
C39 C15 1_555 1_555
H28 C39 1_555 1_555
C40 C25 1_555 1_555
H29 C40 1_555 1_555
C41 C18 1_555 1_555
H30 C41 1_555 1_555
C42 C8 1_555 1_555
H31 C42 1_555 1_555
C43 C2 1_555 1_555
H32 C43 1_555 1_555
C7 C36 1_555 1_555
C10 C43 1_555 1_555
C11 C16 1_555 1_555
C12 C32 1_555 1_555
C16 C26 1_555 1_555
C20 C27 1_555 1_555
C23 C33 1_555 1_555
C23 C38 1_555 1_555
C24 C42 1_555 1_555
C25 C37 1_555 1_555
C28 C39 1_555 1_555
C29 C35 1_555 1_555
C34 C41 1_555 1_555

#END
