
#######################################################################
#
#                 Cambridge Crystallographic Data Centre
#                                CCDC 
#
#######################################################################
#
# If this CIF has been generated from an entry in the Cambridge 
# Structural Database, then it will include bibliographic, chemical, 
# crystal, experimental, refinement or atomic coordinate data resulting 
# from the CCDC's data processing and validation procedures.
#
#######################################################################

data_OPIVUG
_chemical_formula_moiety         'C16 H12 N2 O1 S1'
_chemical_name_systematic        6-(phenylsulfanyl)-2H-1,2'-bipyridin-2-one
_symmetry_cell_setting           triclinic
_symmetry_space_group_name_H-M   'P -1'
_symmetry_Int_Tables_number      2
_space_group_name_Hall           '-P 1'
loop_
_symmetry_equiv_pos_site_id
_symmetry_equiv_pos_as_xyz
1 x,y,z
2 -x,-y,-z
_cell_length_a                   7.2154(2)
_cell_length_b                   9.4198(2)
_cell_length_c                   10.4296(3)
_cell_angle_alpha                76.342(2)
_cell_angle_beta                 79.372(2)
_cell_angle_gamma                84.6420(10)
_cell_volume                     676.091
_exptl_crystal_colour            colorless
_exptl_crystal_description       block
_cell_formula_units_Z            2
loop_
_atom_site_label
_atom_site_type_symbol
_atom_site_fract_x
_atom_site_fract_y
_atom_site_fract_z
S1 S 0.11562(8) -0.02943(6) 0.71476(6)
O1 O -0.0269(2) 0.44492(16) 0.84358(16)
N1 N 0.0438(2) 0.21721(17) 0.80287(16)
C1 C 0.6270(3) -0.3472(3) 0.7455(3)
H1 H 0.7314 -0.4130 0.7488
C2 C 0.4514(4) -0.3925(3) 0.8106(2)
H2 H 0.4383 -0.4887 0.8586
C3 C 0.2934(3) -0.2959(2) 0.8053(2)
H3 H 0.1749 -0.3267 0.8494
C4 C 0.3158(3) -0.1531(2) 0.7333(2)
C5 C 0.1415(3) 0.0829(2) 0.82360(19)
C6 C -0.0862(3) 0.2539(2) 0.70774(19)
C7 C -0.2679(3) 0.2306(2) 0.7572(2)
H4 H -0.3080 0.1896 0.8473
C8 C -0.3914(3) 0.2699(2) 0.6694(2)
H5 H -0.5194 0.2572 0.7007
C9 C -0.3325(3) 0.3277(2) 0.5362(2)
H6 H -0.4188 0.3528 0.4773
C10 C 0.0573(3) 0.3252(2) 0.8738(2)
C11 C 0.1722(3) 0.2821(2) 0.9762(2)
H7 H 0.1860 0.3476 1.0277
C12 C 0.2607(3) 0.1482(2) 0.9993(2)
H8 H 0.3314 0.1223 1.0682
C13 C 0.2486(3) 0.0466(2) 0.9219(2)
H9 H 0.3133 -0.0443 0.9380
C14 C -0.1437(3) 0.3478(3) 0.4912(2)
H10 H -0.1017 0.3870 0.4010
N2 N -0.0158(3) 0.3108(2) 0.57800(19)
C15 C 0.4931(3) -0.1067(2) 0.6686(2)
H11 H 0.5073 -0.0105 0.6209
C16 C 0.6484(3) -0.2044(3) 0.6755(3)
H12 H 0.7675 -0.1737 0.6329
loop_
_geom_bond_atom_site_label_1
_geom_bond_atom_site_label_2
_geom_bond_site_symmetry_1
_geom_bond_site_symmetry_2
S1 C4 1_555 1_555
O1 C10 1_555 1_555
N1 C5 1_555 1_555
C1 H1 1_555 1_555
C2 C1 1_555 1_555
H2 C2 1_555 1_555
C3 C2 1_555 1_555
H3 C3 1_555 1_555
C4 C3 1_555 1_555
C5 S1 1_555 1_555
C6 N1 1_555 1_555
C7 C6 1_555 1_555
H4 C7 1_555 1_555
C8 C7 1_555 1_555
H5 C8 1_555 1_555
C9 C8 1_555 1_555
H6 C9 1_555 1_555
C10 N1 1_555 1_555
C11 C10 1_555 1_555
H7 C11 1_555 1_555
C12 C11 1_555 1_555
H8 C12 1_555 1_555
C13 C5 1_555 1_555
H9 C13 1_555 1_555
C14 C9 1_555 1_555
H10 C14 1_555 1_555
N2 C6 1_555 1_555
C15 C4 1_555 1_555
H11 C15 1_555 1_555
C16 C1 1_555 1_555
H12 C16 1_555 1_555
C12 C13 1_555 1_555
C14 N2 1_555 1_555
C15 C16 1_555 1_555

#END
