
#######################################################################
#
#                 Cambridge Crystallographic Data Centre
#                                CCDC 
#
#######################################################################
#
# If this CIF has been generated from an entry in the Cambridge 
# Structural Database, then it will include bibliographic, chemical, 
# crystal, experimental, refinement or atomic coordinate data resulting 
# from the CCDC's data processing and validation procedures.
#
#######################################################################

data_OPOBOM
_chemical_formula_moiety         'C18 H14 F3 N1 O1'
_chemical_name_systematic        
1-(5-methyl-2-phenyl-3-(trifluoromethyl)-1H-indol-1-yl)ethanone
_symmetry_cell_setting           triclinic
_symmetry_space_group_name_H-M   'P -1'
_symmetry_Int_Tables_number      2
_space_group_name_Hall           '-P 1'
loop_
_symmetry_equiv_pos_site_id
_symmetry_equiv_pos_as_xyz
1 x,y,z
2 -x,-y,-z
_cell_length_a                   9.3192(9)
_cell_length_b                   9.8075(10)
_cell_length_c                   17.8563(17)
_cell_angle_alpha                78.5360(10)
_cell_angle_beta                 76.9320(10)
_cell_angle_gamma                89.9600(10)
_cell_volume                     1556.38
_cell_formula_units_Z            4
loop_
_atom_site_label
_atom_site_type_symbol
_atom_site_fract_x
_atom_site_fract_y
_atom_site_fract_z
N1 N 0.5200(3) 0.5873(3) 0.35595(18)
O1 O 0.3686(4) 0.7452(4) 0.3091(2)
C1 C 0.9739(6) 0.8983(6) 0.4217(3)
H1 H 0.9599 0.9966 0.4107
H2 H 1.0663 0.8788 0.3899
H3 H 0.9744 0.8681 0.4762
C2 C 0.8494(5) 0.8214(4) 0.4032(2)
C3 C 0.7379(5) 0.8923(4) 0.3750(2)
H4 H 0.7403 0.9888 0.3681
C4 C 0.6234(5) 0.8270(4) 0.3567(2)
H5 H 0.5498 0.8774 0.3380
C5 C 0.6225(4) 0.6827(4) 0.3673(2)
C6 C 0.7320(4) 0.6071(4) 0.3964(2)
C7 C 0.8464(4) 0.6778(4) 0.4142(2)
H6 H 0.9202 0.6283 0.4333
C8 C 0.6968(4) 0.4620(4) 0.4002(2)
C9 C 0.5705(4) 0.4525(4) 0.3751(2)
C10 C 0.5019(4) 0.3292(4) 0.3585(2)
C11 C 0.5035(5) 0.3248(5) 0.2814(3)
H7 H 0.5487 0.3977 0.2411
C12 C 0.4382(6) 0.2125(6) 0.2640(3)
H8 H 0.4401 0.2100 0.2120
C13 C 0.3708(6) 0.1049(5) 0.3225(4)
H9 H 0.3253 0.0303 0.3105
C14 C 0.3707(6) 0.1077(5) 0.3987(3)
H10 H 0.3260 0.0339 0.4385
C15 C 0.4364(5) 0.2194(4) 0.4173(3)
H11 H 0.4362 0.2202 0.4693
C16 C 0.7877(5) 0.3451(5) 0.4221(3)
C17 C 0.3818(5) 0.6265(5) 0.3389(3)
C18 C 0.2565(5) 0.5225(5) 0.3623(4)
H12 H 0.1721 0.5644 0.3465
H13 H 0.2335 0.4907 0.4183
H14 H 0.2826 0.4450 0.3374
F1 F 0.8101(5) 0.2597(4) 0.3737(3)
F2 F 0.7258(5) 0.2611(5) 0.4880(3)
F3 F 0.9165(4) 0.3809(3) 0.4287(3)
C19 C 0.9512(4) 0.4603(5) 0.1420(2)
O2 O 0.6409(4) 0.2280(4) 0.0477(2)
C20 C 0.6028(6) 0.8626(6) 0.1329(4)
H15 H 0.6727 0.9055 0.1542
H16 H 0.5077 0.8536 0.1686
H17 H 0.5967 0.9192 0.0834
C21 C 0.6524(5) 0.7196(5) 0.1211(3)
C22 C 0.5694(5) 0.6352(6) 0.0907(3)
H18 H 0.4822 0.6683 0.0785
C23 C 0.6106(5) 0.5050(5) 0.0779(3)
H19 H 0.5532 0.4509 0.0575
C24 C 0.7424(4) 0.4576(5) 0.0970(2)
C25 C 0.8269(4) 0.5406(4) 0.1277(2)
C26 C 0.7805(5) 0.6712(5) 0.1399(3)
H20 H 0.8366 0.7256 0.1608
N2 N 0.8123(3) 0.3332(4) 0.09086(19)
C27 C 0.9412(4) 0.3355(4) 0.1200(2)
C28 C 1.0285(4) 0.2122(4) 0.1338(2)
C29 C 1.1773(4) 0.2138(5) 0.0960(3)
H21 H 1.2220 0.2929 0.0603
C30 C 1.2576(5) 0.0981(6) 0.1117(3)
H22 H 1.3568 0.0996 0.0868
C31 C 1.1924(6) -0.0196(6) 0.1638(3)
H23 H 1.2475 -0.0974 0.1739
C32 C 1.0464(6) -0.0228(5) 0.2010(3)
H24 H 1.0023 -0.1029 0.2359
C33 C 0.9642(5) 0.0939(5) 0.1865(3)
H25 H 0.8655 0.0922 0.2124
C34 C 1.0643(5) 0.5041(5) 0.1788(3)
C35 C 0.7681(5) 0.2348(5) 0.0512(3)
C36 C 0.8815(6) 0.1486(6) 0.0121(3)
H26 H 0.8355 0.0874 -0.0122
H27 H 0.9275 0.0946 0.0504
H28 H 0.9547 0.2084 -0.0272
F4 F 1.1714(6) 0.5786(7) 0.1282(3)
F5 F 1.0160(5) 0.5823(5) 0.2294(3)
F6 F 1.1292(5) 0.4053(4) 0.2155(3)
loop_
_geom_bond_atom_site_label_1
_geom_bond_atom_site_label_2
_geom_bond_site_symmetry_1
_geom_bond_site_symmetry_2
N1 C5 1_555 1_555
O1 C17 1_555 1_555
C1 H1 1_555 1_555
H2 C1 1_555 1_555
H3 C1 1_555 1_555
C2 C1 1_555 1_555
C3 C2 1_555 1_555
H4 C3 1_555 1_555
C4 C3 1_555 1_555
H5 C4 1_555 1_555
C5 C4 1_555 1_555
C6 C5 1_555 1_555
C7 C2 1_555 1_555
H6 C7 1_555 1_555
C8 C6 1_555 1_555
C9 N1 1_555 1_555
C10 C9 1_555 1_555
C11 C10 1_555 1_555
H7 C11 1_555 1_555
C12 C11 1_555 1_555
H8 C12 1_555 1_555
C13 C12 1_555 1_555
H9 C13 1_555 1_555
C14 C13 1_555 1_555
H10 C14 1_555 1_555
C15 C10 1_555 1_555
H11 C15 1_555 1_555
C16 C8 1_555 1_555
C17 N1 1_555 1_555
C18 C17 1_555 1_555
H12 C18 1_555 1_555
H13 C18 1_555 1_555
H14 C18 1_555 1_555
F1 C16 1_555 1_555
F2 C16 1_555 1_555
F3 C16 1_555 1_555
C19 C25 1_555 1_555
O2 C35 1_555 1_555
C20 H15 1_555 1_555
H16 C20 1_555 1_555
H17 C20 1_555 1_555
C21 C20 1_555 1_555
C22 C21 1_555 1_555
H18 C22 1_555 1_555
C23 C22 1_555 1_555
H19 C23 1_555 1_555
C24 C23 1_555 1_555
C25 C24 1_555 1_555
C26 C21 1_555 1_555
H20 C26 1_555 1_555
N2 C24 1_555 1_555
C27 C19 1_555 1_555
C28 C27 1_555 1_555
C29 C28 1_555 1_555
H21 C29 1_555 1_555
C30 C29 1_555 1_555
H22 C30 1_555 1_555
C31 C30 1_555 1_555
H23 C31 1_555 1_555
C32 C31 1_555 1_555
H24 C32 1_555 1_555
C33 C28 1_555 1_555
H25 C33 1_555 1_555
C34 C19 1_555 1_555
C35 N2 1_555 1_555
C36 C35 1_555 1_555
H26 C36 1_555 1_555
H27 C36 1_555 1_555
H28 C36 1_555 1_555
F4 C34 1_555 1_555
F5 C34 1_555 1_555
F6 C34 1_555 1_555
C6 C7 1_555 1_555
C8 C9 1_555 1_555
C14 C15 1_555 1_555
C25 C26 1_555 1_555
N2 C27 1_555 1_555
C32 C33 1_555 1_555

#END
