
#######################################################################
#
#                 Cambridge Crystallographic Data Centre
#                                CCDC 
#
#######################################################################
#
# If this CIF has been generated from an entry in the Cambridge 
# Structural Database, then it will include bibliographic, chemical, 
# crystal, experimental, refinement or atomic coordinate data resulting 
# from the CCDC's data processing and validation procedures.
#
#######################################################################

data_OPODED
_chemical_formula_moiety         'C13 H8 N2 O6'
_chemical_name_systematic        1,11-Dinitrodibenzo[d,f][1,3]dioxepine
_symmetry_cell_setting           monoclinic
_symmetry_space_group_name_H-M   'C 2/c'
_symmetry_Int_Tables_number      15
_space_group_name_Hall           '-C 2yn'
loop_
_symmetry_equiv_pos_site_id
_symmetry_equiv_pos_as_xyz
1 x,y,z
2 -x,y,1/2-z
3 1/2+x,1/2+y,z
4 1/2-x,1/2+y,1/2-z
5 -x,-y,-z
6 x,-y,1/2+z
7 1/2-x,1/2-y,-z
8 1/2+x,1/2-y,1/2+z
_cell_length_a                   13.257(6)
_cell_length_b                   9.366(3)
_cell_length_c                   10.198(4)
_cell_angle_alpha                90
_cell_angle_beta                 91.54(3)
_cell_angle_gamma                90
_cell_volume                     1265.78
_exptl_crystal_colour            orange
_exptl_crystal_description       plate
_cell_formula_units_Z            4
loop_
_atom_site_label
_atom_site_type_symbol
_atom_site_fract_x
_atom_site_fract_y
_atom_site_fract_z
C1 C 0.0000 0.8437(5) 0.2500
H1 H -0.0287 0.9047 0.3163
C2 C 0.1124(3) 0.6471(4) 0.2279(3)
C3 C 0.2076(3) 0.6600(4) 0.1697(3)
H2 H 0.2464 0.7444 0.1824
C4 C 0.2443(3) 0.5494(4) 0.0940(4)
H3 H 0.3085 0.5576 0.0554
C5 C 0.1869(3) 0.4269(4) 0.0748(3)
H4 H 0.2113 0.3512 0.0224
C6 C 0.0915(3) 0.4153(3) 0.1339(3)
C7 C 0.0501(2) 0.5242(3) 0.2143(3)
N1 N 0.0337(3) 0.2811(3) 0.1087(3)
O1 O 0.07840(18) 0.7578(2) 0.3093(3)
O2 O -0.0596(2) 0.2873(3) 0.0979(3)
O3 O 0.0840(2) 0.1682(3) 0.0981(2)
H1A H 0.0287 0.9047 0.1837
C2A C -0.1124(3) 0.6471(4) 0.2721(3)
C3A C -0.2076(3) 0.6600(4) 0.3303(3)
H2A H -0.2464 0.7444 0.3176
C4A C -0.2443(3) 0.5494(4) 0.4060(4)
H3A H -0.3085 0.5576 0.4446
C5A C -0.1869(3) 0.4269(4) 0.4252(3)
H4A H -0.2113 0.3512 0.4776
C6A C -0.0915(3) 0.4153(3) 0.3661(3)
C7A C -0.0501(2) 0.5242(3) 0.2857(3)
N1A N -0.0337(3) 0.2811(3) 0.3913(3)
O1A O -0.07840(18) 0.7578(2) 0.1907(3)
O2A O 0.0596(2) 0.2873(3) 0.4021(3)
O3A O -0.0840(2) 0.1682(3) 0.4019(2)
loop_
_geom_bond_atom_site_label_1
_geom_bond_atom_site_label_2
_geom_bond_site_symmetry_1
_geom_bond_site_symmetry_2
C1 H1 1_555 1_555
C2 C3 1_555 1_555
C3 H2 1_555 1_555
C4 C3 1_555 1_555
H3 C4 1_555 1_555
C5 C4 1_555 1_555
H4 C5 1_555 1_555
C6 C5 1_555 1_555
C7 C2 1_555 1_555
N1 C6 1_555 1_555
O1 C1 1_555 1_555
O2 N1 1_555 1_555
O3 N1 1_555 1_555
H1A C1 1_555 1_555
C2A C3A 1_555 1_555
C3A H2A 1_555 1_555
C4A C3A 1_555 1_555
H3A C4A 1_555 1_555
C5A C4A 1_555 1_555
H4A C5A 1_555 1_555
C6A C5A 1_555 1_555
C7A C7 1_555 1_555
N1A C6A 1_555 1_555
O1A C1 1_555 1_555
O2A N1A 1_555 1_555
O3A N1A 1_555 1_555
C2 O1 1_555 1_555
C6 C7 1_555 1_555
C2A C7A 1_555 1_555
C2A O1A 1_555 1_555
C6A C7A 1_555 1_555

#END
