
#######################################################################
#
#                 Cambridge Crystallographic Data Centre
#                                CCDC 
#
#######################################################################
#
# If this CIF has been generated from an entry in the Cambridge 
# Structural Database, then it will include bibliographic, chemical, 
# crystal, experimental, refinement or atomic coordinate data resulting 
# from the CCDC's data processing and validation procedures.
#
#######################################################################

data_OPOJAF
_chemical_formula_moiety         'C44 H48 B2 F4 N4,0.35(C1 H2 Cl2)'
_chemical_name_systematic        
"2-Ethyl-3-(2-ethyl-5,5-difluoro-1,7,8,9-tetramethyl-10-(4-methylphenyl)-3H-5\l^5^-dipyrrolo[1,2-c:2',1'-f][1,3,2]diazaborinin-3-ylidene)-5,5-difluoro-1,7,8,9-tetramethyl-10-(4-methylphenyl)-3H-5\l^5^-dipyrrolo[1,2-c:2',1'-f][1,3,2]diazaborinine dichloromethane solvate"
_symmetry_cell_setting           monoclinic
_symmetry_space_group_name_H-M   'P c'
_symmetry_Int_Tables_number      7
_space_group_name_Hall           'P -2yc'
loop_
_symmetry_equiv_pos_site_id
_symmetry_equiv_pos_as_xyz
1 x,y,z
2 x,-y,1/2+z
_cell_length_a                   16.462(8)
_cell_length_b                   19.974(7)
_cell_length_c                   12.188(6)
_cell_angle_alpha                90
_cell_angle_beta                 90.00(2)
_cell_angle_gamma                90
_cell_volume                     4007.56
_exptl_crystal_colour            purple
_exptl_crystal_description       block
_cell_formula_units_Z            4
loop_
_atom_site_label
_atom_site_type_symbol
_atom_site_fract_x
_atom_site_fract_y
_atom_site_fract_z
C1 C -0.0028(5) 0.4016(3) 0.3617(7)
H1 H 0.0256 0.3794 0.3010
H2 H -0.0457 0.4304 0.3323
H3 H -0.0269 0.3677 0.4099
C3 C 0.0560(4) 0.4427(3) 0.4251(6)
C5 C 0.0699(5) 0.5116(3) 0.4126(6)
C7 C 0.0269(6) 0.5557(4) 0.3310(8)
H7 H -0.0006 0.5922 0.3699
H8 H -0.0132 0.5292 0.2906
H9 H 0.0666 0.5744 0.2795
C9 C 0.1291(4) 0.5293(3) 0.4874(7)
C11 C 0.1600(5) 0.5998(3) 0.5041(7)
H13 H 0.1520 0.6257 0.4366
H14 H 0.2179 0.5985 0.5222
H15 H 0.1300 0.6210 0.5642
C13 C 0.1506(4) 0.4694(3) 0.5433(6)
C15 C 0.2087(4) 0.4570(3) 0.6251(6)
C17 C 0.2630(4) 0.5106(3) 0.6627(6)
C19 C 0.2391(6) 0.5515(3) 0.7495(7)
H19 H 0.1868 0.5464 0.7814
C21 C 0.2930(8) 0.6003(4) 0.7893(9)
H21 H 0.2765 0.6281 0.8485
C23 C 0.3695(8) 0.6088(5) 0.7444(10)
C25 C 0.4246(9) 0.6620(5) 0.7899(13)
H23 H 0.4058 0.7061 0.7653
H24 H 0.4801 0.6544 0.7637
H25 H 0.4237 0.6602 0.8702
C27 C 0.3926(5) 0.5674(4) 0.6601(10)
H29 H 0.4458 0.5716 0.6308
C29 C 0.3406(4) 0.5192(3) 0.6159(8)
H31 H 0.3572 0.4927 0.5552
C31 C 0.2175(4) 0.3915(3) 0.6697(6)
C33 C 0.2719(4) 0.3663(3) 0.7478(6)
C35 C 0.3328(5) 0.4039(3) 0.8132(7)
H33 H 0.3784 0.4167 0.7660
H34 H 0.3526 0.3756 0.8732
H35 H 0.3075 0.4443 0.8436
C37 C 0.2547(4) 0.2981(3) 0.7581(6)
C39 C 0.2961(5) 0.2507(3) 0.8362(6)
H39 H 0.2947 0.2700 0.9110
H40 H 0.2658 0.2079 0.8378
C41 C 0.3808(5) 0.2375(4) 0.8055(9)
H43 H 0.3824 0.2171 0.7324
H44 H 0.4052 0.2069 0.8590
H45 H 0.4112 0.2796 0.8046
C43 C 0.1909(4) 0.2838(3) 0.6893(6)
C45 C 0.1439(4) 0.2202(3) 0.6845(6)
C47 C 0.0712(4) 0.2062(3) 0.7389(6)
C49 C 0.0262(4) 0.2537(3) 0.8125(6)
H49 H -0.0323 0.2518 0.7940
H50 H 0.0453 0.2998 0.7973
C51 C 0.0360(5) 0.2399(3) 0.9343(6)
H53 H 0.0143 0.1954 0.9513
H54 H 0.0063 0.2737 0.9765
H55 H 0.0937 0.2415 0.9538
C53 C 0.0526(4) 0.1394(3) 0.7182(6)
C55 C -0.0236(4) 0.1049(3) 0.7613(6)
H59 H -0.0083 0.0707 0.8150
H60 H -0.0526 0.0838 0.7001
H61 H -0.0590 0.1381 0.7963
C57 C 0.1130(4) 0.1142(3) 0.6488(6)
C59 C 0.1225(4) 0.0506(3) 0.5981(6)
C61 C 0.0622(4) -0.0036(3) 0.6249(5)
C63 C 0.0644(5) -0.0369(3) 0.7220(6)
H65 H 0.1054 -0.0263 0.7742
C65 C 0.0075(4) -0.0862(3) 0.7460(6)
H67 H 0.0099 -0.1095 0.8139
C67 C -0.0528(5) -0.1014(3) 0.6707(6)
C69 C -0.1181(5) -0.1539(4) 0.6978(8)
H69 H -0.1587 -0.1549 0.6390
H70 H -0.1445 -0.1422 0.7673
H71 H -0.0926 -0.1981 0.7044
C71 C -0.0556(4) -0.0668(3) 0.5758(6)
H75 H -0.0974 -0.0764 0.5244
C73 C 0.0017(4) -0.0168(3) 0.5509(6)
H77 H -0.0015 0.0074 0.4839
C75 C 0.1830(4) 0.0388(3) 0.5205(6)
C77 C 0.2051(4) -0.0179(3) 0.4577(6)
C79 C 0.1701(4) -0.0877(3) 0.4648(7)
H79 H 0.1261 -0.0925 0.4111
H80 H 0.1486 -0.0953 0.5387
H81 H 0.2127 -0.1205 0.4491
C81 C 0.2663(4) 0.0005(3) 0.3856(6)
C83 C 0.3082(5) -0.0410(3) 0.3000(7)
H85 H 0.3671 -0.0347 0.3058
H86 H 0.2899 -0.0271 0.2270
H87 H 0.2950 -0.0883 0.3113
C85 C 0.2846(4) 0.0691(3) 0.4085(6)
C87 C 0.3478(5) 0.1113(3) 0.3543(7)
H91 H 0.3299 0.1230 0.2800
H92 H 0.3990 0.0863 0.3502
H93 H 0.3561 0.1523 0.3970
B1 B 0.0986(5) 0.3449(3) 0.5495(7)
B3 B 0.2453(5) 0.1592(3) 0.5506(7)
N1 N 0.1032(3) 0.4184(2) 0.5031(5)
N3 N 0.1664(3) 0.3392(2) 0.6340(5)
N5 N 0.1697(3) 0.1653(2) 0.6275(5)
N7 N 0.2357(3) 0.0917(2) 0.4884(5)
F1 F 0.0231(2) 0.33678(17) 0.6008(3)
F3 F 0.1078(3) 0.29936(16) 0.4671(3)
F5 F 0.3163(2) 0.15587(17) 0.6116(3)
F7 F 0.2495(2) 0.21219(15) 0.4798(3)
C2 C 0.8923(4) 0.3699(3) 0.1016(6)
H4 H 0.9073 0.3315 0.1475
H5 H 0.9416 0.3920 0.0749
H6 H 0.8601 0.3543 0.0389
C4 C 0.8436(4) 0.4180(3) 0.1673(6)
C6 C 0.8435(4) 0.4885(3) 0.1607(6)
C8 C 0.8940(5) 0.5274(3) 0.0783(7)
H10 H 0.9474 0.5061 0.0705
H11 H 0.9010 0.5735 0.1042
H12 H 0.8663 0.5277 0.0072
C10 C 0.7874(4) 0.5130(3) 0.2354(6)
C12 C 0.7694(5) 0.5861(3) 0.2513(7)
H16 H 0.8154 0.6127 0.2250
H17 H 0.7605 0.5951 0.3295
H18 H 0.7205 0.5981 0.2099
C14 C 0.7534(4) 0.4559(3) 0.2897(6)
C16 C 0.6904(4) 0.4492(3) 0.3650(6)
C18 C 0.6488(4) 0.5119(3) 0.4052(6)
C20 C 0.6728(5) 0.5445(3) 0.4979(7)
H20 H 0.7152 0.5259 0.5412
C22 C 0.6368(5) 0.6046(3) 0.5313(7)
H22 H 0.6547 0.6268 0.5958
C24 C 0.5737(5) 0.6314(3) 0.4677(6)
C26 C 0.5339(5) 0.6974(3) 0.4990(7)
H26 H 0.4750 0.6912 0.5047
H27 H 0.5458 0.7310 0.4427
H28 H 0.5554 0.7126 0.5698
C28 C 0.5487(4) 0.5977(3) 0.3770(7)
H30 H 0.5060 0.6157 0.3337
C30 C 0.5847(4) 0.5367(3) 0.3459(6)
H32 H 0.5648 0.5128 0.2841
C32 C 0.6658(4) 0.3876(3) 0.4074(6)
C34 C 0.6061(4) 0.3689(3) 0.4861(6)
C36 C 0.5457(5) 0.4133(3) 0.5450(7)
H36 H 0.5746 0.4424 0.5967
H37 H 0.5068 0.3854 0.5852
H38 H 0.5166 0.4408 0.4914
C38 C 0.6102(4) 0.2995(3) 0.4969(6)
C40 C 0.5620(5) 0.2569(3) 0.5755(6)
H41 H 0.5596 0.2104 0.5476
H42 H 0.5057 0.2742 0.5802
C42 C 0.6003(6) 0.2570(3) 0.6905(7)
H46 H 0.6536 0.2352 0.6876
H47 H 0.5650 0.2327 0.7415
H48 H 0.6069 0.3033 0.7158
C44 C 0.6702(4) 0.2768(3) 0.4263(6)
C46 C 0.6976(4) 0.2063(3) 0.4156(6)
C48 C 0.7627(4) 0.1762(3) 0.4713(6)
C50 C 0.8264(4) 0.2111(3) 0.5376(6)
H51 H 0.8222 0.1949 0.6142
H52 H 0.8136 0.2595 0.5382
C52 C 0.9139(5) 0.2029(4) 0.5008(8)
H56 H 0.9191 0.2171 0.4241
H57 H 0.9299 0.1558 0.5075
H58 H 0.9493 0.2305 0.5470
C54 C 0.7543(4) 0.1067(3) 0.4532(5)
C56 C 0.8110(4) 0.0546(3) 0.4979(7)
H62 H 0.7795 0.0193 0.5342
H63 H 0.8479 0.0753 0.5511
H64 H 0.8426 0.0351 0.4377
C58 C 0.6848(4) 0.0975(3) 0.3885(6)
C60 C 0.6500(4) 0.0393(3) 0.3428(6)
C62 C 0.6839(4) -0.0288(3) 0.3722(6)
C64 C 0.7366(4) -0.0610(3) 0.3006(6)
H66 H 0.7548 -0.0389 0.2362
C66 C 0.7626(4) -0.1252(3) 0.3233(6)
H68 H 0.7984 -0.1470 0.2737
C68 C 0.7379(4) -0.1578(3) 0.4148(6)
C70 C 0.7657(5) -0.2305(3) 0.4369(7)
H72 H 0.7388 -0.2607 0.3850
H73 H 0.7512 -0.2431 0.5120
H74 H 0.8247 -0.2336 0.4275
C72 C 0.6863(4) -0.1257(3) 0.4881(6)
H76 H 0.6696 -0.1479 0.5533
C74 C 0.6588(4) -0.0611(3) 0.4663(6)
H78 H 0.6230 -0.0394 0.5160
C76 C 0.5864(4) 0.0423(3) 0.2696(5)
C78 C 0.5428(4) -0.0079(3) 0.2106(6)
C80 C 0.5527(5) -0.0839(3) 0.2147(7)
H82 H 0.5111 -0.1050 0.1687
H83 H 0.5467 -0.0994 0.2906
H84 H 0.6067 -0.0961 0.1874
C82 C 0.4907(4) 0.0245(3) 0.1419(6)
C84 C 0.4363(5) -0.0055(3) 0.0570(7)
H88 H 0.4595 0.0022 -0.0160
H89 H 0.3825 0.0154 0.0613
H90 H 0.4312 -0.0537 0.0700
C86 C 0.4996(4) 0.0949(3) 0.1612(6)
C88 C 0.4551(4) 0.1498(3) 0.1032(7)
H94 H 0.4497 0.1884 0.1522
H95 H 0.4010 0.1339 0.0819
H96 H 0.4854 0.1630 0.0375
B2 B 0.7748(5) 0.3255(3) 0.2845(7)
B4 B 0.5781(5) 0.1733(3) 0.2932(7)
N2 N 0.7898(3) 0.3978(2) 0.2459(5)
N4 N 0.7058(3) 0.3288(2) 0.3727(5)
N6 N 0.6513(3) 0.1600(2) 0.3658(5)
N8 N 0.5562(3) 0.1046(2) 0.2365(5)
F2 F 0.8453(2) 0.30128(16) 0.3312(4)
F4 F 0.7526(2) 0.28582(15) 0.1979(3)
F6 F 0.5107(2) 0.19389(17) 0.3547(4)
F8 F 0.5955(2) 0.21997(16) 0.2144(4)
C89 C 0.1701(5) 0.2322(9) 0.2500(11)
H97 H 0.1696 0.1858 0.2788
H98 H 0.1848 0.2621 0.3117
Cl1 Cl 0.0744(2) 0.25169(15) 0.2091(3)
Cl2 Cl 0.2454(3) 0.23768(17) 0.1522(3)
loop_
_geom_bond_atom_site_label_1
_geom_bond_atom_site_label_2
_geom_bond_site_symmetry_1
_geom_bond_site_symmetry_2
C1 H1 1_555 1_555
H2 C1 1_555 1_555
H3 C1 1_555 1_555
C2 H4 1_555 1_555
H5 C2 1_555 1_555
H6 C2 1_555 1_555
C3 C1 1_555 1_555
C4 C2 1_555 1_555
C5 C3 1_555 1_555
C6 C4 1_555 1_555
C7 C5 1_555 1_555
H7 C7 1_555 1_555
H8 C7 1_555 1_555
H9 C7 1_555 1_555
C8 C6 1_555 1_555
H10 C8 1_555 1_555
H11 C8 1_555 1_555
H12 C8 1_555 1_555
C9 C5 1_555 1_555
C10 C6 1_555 1_555
C11 C9 1_555 1_555
H13 C11 1_555 1_555
H14 C11 1_555 1_555
H15 C11 1_555 1_555
C12 C10 1_555 1_555
H16 C12 1_555 1_555
H17 C12 1_555 1_555
H18 C12 1_555 1_555
C13 C9 1_555 1_555
C14 C10 1_555 1_555
C15 C13 1_555 1_555
C16 C14 1_555 1_555
C17 C15 1_555 1_555
C18 C16 1_555 1_555
C19 C17 1_555 1_555
H19 C19 1_555 1_555
C20 C18 1_555 1_555
H20 C20 1_555 1_555
C21 C19 1_555 1_555
H21 C21 1_555 1_555
C22 C20 1_555 1_555
H22 C22 1_555 1_555
C23 C21 1_555 1_555
C24 C22 1_555 1_555
C25 C23 1_555 1_555
H23 C25 1_555 1_555
H24 C25 1_555 1_555
H25 C25 1_555 1_555
C26 C24 1_555 1_555
H26 C26 1_555 1_555
H27 C26 1_555 1_555
H28 C26 1_555 1_555
C27 C23 1_555 1_555
H29 C27 1_555 1_555
C28 C24 1_555 1_555
H30 C28 1_555 1_555
C29 C17 1_555 1_555
H31 C29 1_555 1_555
C30 C18 1_555 1_555
H32 C30 1_555 1_555
C31 C15 1_555 1_555
C32 C16 1_555 1_555
C33 C31 1_555 1_555
C34 C32 1_555 1_555
C35 C33 1_555 1_555
H33 C35 1_555 1_555
H34 C35 1_555 1_555
H35 C35 1_555 1_555
C36 C34 1_555 1_555
H36 C36 1_555 1_555
H37 C36 1_555 1_555
H38 C36 1_555 1_555
C37 C33 1_555 1_555
C38 C34 1_555 1_555
C39 C37 1_555 1_555
H39 C39 1_555 1_555
H40 C39 1_555 1_555
C40 C38 1_555 1_555
H41 C40 1_555 1_555
H42 C40 1_555 1_555
C41 C39 1_555 1_555
H43 C41 1_555 1_555
H44 C41 1_555 1_555
H45 C41 1_555 1_555
C42 C40 1_555 1_555
H46 C42 1_555 1_555
H47 C42 1_555 1_555
H48 C42 1_555 1_555
C43 C37 1_555 1_555
C44 C38 1_555 1_555
C45 C43 1_555 1_555
C46 C44 1_555 1_555
C47 C45 1_555 1_555
C48 C46 1_555 1_555
C49 C47 1_555 1_555
H49 C49 1_555 1_555
H50 C49 1_555 1_555
C50 C48 1_555 1_555
H51 C50 1_555 1_555
H52 C50 1_555 1_555
C51 C49 1_555 1_555
H53 C51 1_555 1_555
H54 C51 1_555 1_555
H55 C51 1_555 1_555
C52 C50 1_555 1_555
H56 C52 1_555 1_555
H57 C52 1_555 1_555
H58 C52 1_555 1_555
C53 C47 1_555 1_555
C54 C48 1_555 1_555
C55 C53 1_555 1_555
H59 C55 1_555 1_555
H60 C55 1_555 1_555
H61 C55 1_555 1_555
C56 C54 1_555 1_555
H62 C56 1_555 1_555
H63 C56 1_555 1_555
H64 C56 1_555 1_555
C57 C53 1_555 1_555
C58 C54 1_555 1_555
C59 C57 1_555 1_555
C60 C58 1_555 1_555
C61 C59 1_555 1_555
C62 C60 1_555 1_555
C63 C61 1_555 1_555
H65 C63 1_555 1_555
C64 C62 1_555 1_555
H66 C64 1_555 1_555
C65 C63 1_555 1_555
H67 C65 1_555 1_555
C66 C64 1_555 1_555
H68 C66 1_555 1_555
C67 C65 1_555 1_555
C68 C66 1_555 1_555
C69 C67 1_555 1_555
H69 C69 1_555 1_555
H70 C69 1_555 1_555
H71 C69 1_555 1_555
C70 C68 1_555 1_555
H72 C70 1_555 1_555
H73 C70 1_555 1_555
H74 C70 1_555 1_555
C71 C67 1_555 1_555
H75 C71 1_555 1_555
C72 C68 1_555 1_555
H76 C72 1_555 1_555
C73 C61 1_555 1_555
H77 C73 1_555 1_555
C74 C62 1_555 1_555
H78 C74 1_555 1_555
C75 C59 1_555 1_555
C76 C60 1_555 1_555
C77 C75 1_555 1_555
C78 C76 1_555 1_555
C79 C77 1_555 1_555
H79 C79 1_555 1_555
H80 C79 1_555 1_555
H81 C79 1_555 1_555
C80 C78 1_555 1_555
H82 C80 1_555 1_555
H83 C80 1_555 1_555
H84 C80 1_555 1_555
C81 C77 1_555 1_555
C82 C78 1_555 1_555
C83 C81 1_555 1_555
H85 C83 1_555 1_555
H86 C83 1_555 1_555
H87 C83 1_555 1_555
C84 C82 1_555 1_555
H88 C84 1_555 1_555
H89 C84 1_555 1_555
H90 C84 1_555 1_555
C85 C81 1_555 1_555
C86 C82 1_555 1_555
C87 C85 1_555 1_555
H91 C87 1_555 1_555
H92 C87 1_555 1_555
H93 C87 1_555 1_555
C88 C86 1_555 1_555
H94 C88 1_555 1_555
H95 C88 1_555 1_555
H96 C88 1_555 1_555
B1 N1 1_555 1_555
B2 N2 1_555 1_555
B3 N5 1_555 1_555
B4 N6 1_555 1_555
N1 C3 1_555 1_555
N2 C4 1_555 1_555
N3 C31 1_555 1_555
N4 C32 1_555 1_555
N5 C45 1_555 1_555
N6 C46 1_555 1_555
N7 C75 1_555 1_555
N8 C76 1_555 1_555
F1 B1 1_555 1_555
F2 B2 1_555 1_555
F3 B1 1_555 1_555
F4 B2 1_555 1_555
F5 B3 1_555 1_555
F6 B4 1_555 1_555
F7 B3 1_555 1_555
F8 B4 1_555 1_555
C89 H97 1_555 1_555
H98 C89 1_555 1_555
Cl1 C89 1_555 1_555
Cl2 C89 1_555 1_555
C13 N1 1_555 1_555
C14 N2 1_555 1_555
C27 C29 1_555 1_555
C28 C30 1_555 1_555
C43 N3 1_555 1_555
C44 N4 1_555 1_555
C57 N5 1_555 1_555
C58 N6 1_555 1_555
C71 C73 1_555 1_555
C72 C74 1_555 1_555
C85 N7 1_555 1_555
C86 N8 1_555 1_555
B1 N3 1_555 1_555
B2 N4 1_555 1_555
B3 N7 1_555 1_555
B4 N8 1_555 1_555

#END
