
#######################################################################
#
#                 Cambridge Crystallographic Data Centre
#                                CCDC 
#
#######################################################################
#
# If this CIF has been generated from an entry in the Cambridge 
# Structural Database, then it will include bibliographic, chemical, 
# crystal, experimental, refinement or atomic coordinate data resulting 
# from the CCDC's data processing and validation procedures.
#
#######################################################################

data_OPOPIU
_chemical_formula_moiety         'C4 H16 B4 N4'
_chemical_name_systematic        
1,4,7,10-tetra-azonia-2,5,8,11-tetraboratapentacyclo[6.4.0.0^2,7^.0^4,11^.0^5,10^]dodecane
_symmetry_cell_setting           triclinic
_symmetry_space_group_name_H-M   'P -1'
_symmetry_Int_Tables_number      2
_space_group_name_Hall           '-P 1'
loop_
_symmetry_equiv_pos_site_id
_symmetry_equiv_pos_as_xyz
1 x,y,z
2 -x,-y,-z
_cell_length_a                   6.5597(8)
_cell_length_b                   11.5373(15)
_cell_length_c                   12.7944(16)
_cell_angle_alpha                115.698(2)
_cell_angle_beta                 94.737(3)
_cell_angle_gamma                90.161(3)
_cell_volume                     868.739
_exptl_crystal_colour            colorless
_exptl_crystal_description       block
_cell_formula_units_Z            4
loop_
_atom_site_label
_atom_site_type_symbol
_atom_site_fract_x
_atom_site_fract_y
_atom_site_fract_z
N1 N 0.87328(15) 0.08042(9) 0.70081(8)
N2 N 0.94545(15) 0.31469(10) 0.66269(8)
N3 N 1.14926(15) 0.20882(10) 0.81836(9)
N4 N 0.77263(15) 0.35686(9) 0.82477(8)
B1 B 0.7249(2) 0.27667(13) 0.68657(11)
B2 B 1.0955(2) 0.12093(13) 0.68173(11)
B3 B 0.9887(2) 0.40080(12) 0.80045(11)
B4 B 0.9314(2) 0.16191(13) 0.83779(11)
C1 C 0.69660(17) 0.12562(11) 0.64903(10)
C2 C 1.08305(18) 0.20471(12) 0.60963(10)
C3 C 1.17702(19) 0.35035(11) 0.85475(10)
C4 C 0.78402(19) 0.27945(12) 0.89326(10)
H1 H 0.572(2) 0.1064(14) 0.6754(12)
H2 H 0.595(2) 0.3180(13) 0.6493(12)
H3 H 0.686(2) 0.0774(15) 0.5643(13)
H4 H 0.857(2) -0.0033(16) 0.6795(13)
H5 H 1.029(2) 0.1522(15) 0.5287(14)
H6 H 1.196(2) 0.0350(14) 0.6443(13)
H7 H 1.215(2) 0.2389(14) 0.6059(12)
H8 H 0.942(3) 0.3612(16) 0.6231(14)
H9 H 1.307(3) 0.3664(15) 0.8276(13)
H10 H 0.998(2) 0.5053(14) 0.8220(12)
H11 H 1.190(2) 0.3952(15) 0.9381(14)
H12 H 1.251(3) 0.1804(15) 0.8458(13)
H13 H 0.835(2) 0.3367(15) 0.9729(14)
H14 H 0.951(2) 0.1003(14) 0.8869(13)
H15 H 0.645(2) 0.2505(14) 0.8949(13)
H16 H 0.695(3) 0.4217(16) 0.8556(14)
N5 N 0.45144(16) 0.82017(10) 0.66605(8)
N6 N 0.52621(15) 0.58167(9) 0.69882(8)
N7 N 0.67519(16) 0.85718(10) 0.82740(9)
N8 N 0.29151(16) 0.71047(10) 0.81799(8)
B5 B 0.2997(2) 0.62473(13) 0.68083(11)
B6 B 0.6774(2) 0.77919(13) 0.68912(11)
B7 B 0.5139(2) 0.66073(13) 0.83611(11)
B8 B 0.4534(2) 0.90348(13) 0.80384(11)
C5 C 0.29282(19) 0.71168(12) 0.61190(10)
C6 C 0.68877(18) 0.62791(11) 0.64888(10)
C7 C 0.68195(19) 0.77718(12) 0.89342(10)
C8 C 0.28006(19) 0.85268(12) 0.85680(10)
H17 H 0.156(3) 0.7479(15) 0.6100(13)
H18 H 0.183(2) 0.5410(14) 0.6439(13)
H19 H 0.320(2) 0.6602(15) 0.5313(14)
H20 H 0.446(3) 0.8688(16) 0.6283(14)
H21 H 0.672(2) 0.5812(15) 0.5639(13)
H22 H 0.796(2) 0.8186(15) 0.6541(13)
H23 H 0.823(3) 0.6069(15) 0.6751(13)
H24 H 0.535(3) 0.4956(17) 0.6761(14)
H25 H 0.653(2) 0.8310(16) 0.9721(14)
H26 H 0.510(2) 0.5975(15) 0.8831(13)
H27 H 0.822(3) 0.7462(15) 0.8957(13)
H28 H 0.767(3) 0.9235(15) 0.8600(13)
H29 H 0.143(3) 0.8685(15) 0.8300(13)
H30 H 0.457(2) 1.0086(15) 0.8296(13)
H31 H 0.295(2) 0.8958(15) 0.9416(14)
H32 H 0.197(3) 0.6812(16) 0.8459(14)
loop_
_geom_bond_atom_site_label_1
_geom_bond_atom_site_label_2
_geom_bond_site_symmetry_1
_geom_bond_site_symmetry_2
N1 B2 1_555 1_555
N2 B1 1_555 1_555
N3 B2 1_555 1_555
N4 B1 1_555 1_555
B1 C1 1_555 1_555
B2 C2 1_555 1_555
B3 N2 1_555 1_555
B4 N1 1_555 1_555
C1 N1 1_555 1_555
C2 N2 1_555 1_555
C3 N3 1_555 1_555
C4 N4 1_555 1_555
H1 C1 1_555 1_555
H2 B1 1_555 1_555
H3 C1 1_555 1_555
H4 N1 1_555 1_555
H5 C2 1_555 1_555
H6 B2 1_555 1_555
H7 C2 1_555 1_555
H8 N2 1_555 1_555
H9 C3 1_555 1_555
H10 B3 1_555 1_555
H11 C3 1_555 1_555
H12 N3 1_555 1_555
H13 C4 1_555 1_555
H14 B4 1_555 1_555
H15 C4 1_555 1_555
H16 N4 1_555 1_555
N5 B6 1_555 1_555
N6 B5 1_555 1_555
N7 B6 1_555 1_555
N8 B5 1_555 1_555
B5 C5 1_555 1_555
B6 C6 1_555 1_555
B7 N6 1_555 1_555
B8 N5 1_555 1_555
C5 N5 1_555 1_555
C6 N6 1_555 1_555
C7 N7 1_555 1_555
C8 N8 1_555 1_555
H17 C5 1_555 1_555
H18 B5 1_555 1_555
H19 C5 1_555 1_555
H20 N5 1_555 1_555
H21 C6 1_555 1_555
H22 B6 1_555 1_555
H23 C6 1_555 1_555
H24 N6 1_555 1_555
H25 C7 1_555 1_555
H26 B7 1_555 1_555
H27 C7 1_555 1_555
H28 N7 1_555 1_555
H29 C8 1_555 1_555
H30 B8 1_555 1_555
H31 C8 1_555 1_555
H32 N8 1_555 1_555
N3 B4 1_555 1_555
N4 B3 1_555 1_555
B3 C3 1_555 1_555
B4 C4 1_555 1_555
N7 B8 1_555 1_555
N8 B7 1_555 1_555
B7 C7 1_555 1_555
B8 C8 1_555 1_555

#END
