
#######################################################################
#
#                 Cambridge Crystallographic Data Centre
#                                CCDC 
#
#######################################################################
#
# If this CIF has been generated from an entry in the Cambridge 
# Structural Database, then it will include bibliographic, chemical, 
# crystal, experimental, refinement or atomic coordinate data resulting 
# from the CCDC's data processing and validation procedures.
#
#######################################################################

data_OPOPEQ
_chemical_formula_moiety         'C4 H16 B4 N4'
_chemical_name_systematic        
1,4,7,10-tetra-azonia-3,6,9,12-tetraboratapentacyclo[7.3.0.0^3,7^.0^4,12^.0^6,10^]dodecane
_symmetry_cell_setting           monoclinic
_symmetry_space_group_name_H-M   'C 2/c'
_symmetry_Int_Tables_number      15
_space_group_name_Hall           '-C 2yn'
loop_
_symmetry_equiv_pos_site_id
_symmetry_equiv_pos_as_xyz
1 x,y,z
2 -x,y,1/2-z
3 1/2+x,1/2+y,z
4 1/2-x,1/2+y,1/2-z
5 -x,-y,-z
6 x,-y,1/2+z
7 1/2-x,1/2-y,-z
8 1/2+x,1/2-y,1/2+z
_cell_length_a                   7.5022(7)
_cell_length_b                   11.7006(11)
_cell_length_c                   10.0035(9)
_cell_angle_alpha                90
_cell_angle_beta                 90.536(3)
_cell_angle_gamma                90
_cell_volume                     878.071
_exptl_crystal_colour            colorless
_exptl_crystal_description       block
_cell_formula_units_Z            4
loop_
_atom_site_label
_atom_site_type_symbol
_atom_site_fract_x
_atom_site_fract_y
_atom_site_fract_z
N1 N -0.14674(5) 0.26180(4) 0.33773(4)
N2 N 0.11850(6) 0.13533(4) 0.36158(4)
C1 C 0.00624(6) 0.33409(4) 0.38729(5)
C2 C 0.18249(7) 0.06338(4) 0.24727(5)
B1 B 0.16913(7) 0.26457(5) 0.32305(5)
B2 B -0.09498(7) 0.13217(5) 0.37573(5)
H1 H 0.0069(13) 0.3305(8) 0.4866(10)
H2 H 0.3121(13) 0.2860(9) 0.3521(10)
H3 H -0.0116(12) 0.4137(8) 0.3616(9)
H4 H -0.2505(14) 0.2836(9) 0.3793(10)
H5 H 0.3130(13) 0.0672(9) 0.2452(9)
H6 H -0.1325(14) 0.1059(9) 0.4794(10)
H7 H 0.1489(14) -0.0149(10) 0.2586(9)
H8 H 0.1694(13) 0.1156(9) 0.4385(10)
N1A N 0.14674(5) 0.26180(4) 0.16227(4)
N2A N -0.11850(6) 0.13533(4) 0.13842(4)
C1A C -0.00624(6) 0.33409(4) 0.11271(5)
C2A C -0.18249(7) 0.06338(4) 0.25273(5)
B1A B -0.16913(7) 0.26457(5) 0.17695(5)
B2A B 0.09498(7) 0.13217(5) 0.12427(5)
H1A H -0.0069(13) 0.3305(8) 0.0134(10)
H2A H -0.3121(13) 0.2860(9) 0.1479(10)
H3A H 0.0116(12) 0.4137(8) 0.1384(9)
H4A H 0.2505(14) 0.2836(9) 0.1207(10)
H5A H -0.3130(13) 0.0672(9) 0.2548(9)
H6A H 0.1325(14) 0.1059(9) 0.0206(10)
H7A H -0.1489(14) -0.0149(10) 0.2414(9)
H8A H -0.1694(13) 0.1156(9) 0.0615(10)
loop_
_geom_bond_atom_site_label_1
_geom_bond_atom_site_label_2
_geom_bond_site_symmetry_1
_geom_bond_site_symmetry_2
N1 C1 1_555 1_555
N2 C2 1_555 1_555
C1 B1 1_555 1_555
C2 H5 1_555 1_555
B1 N2 1_555 1_555
B2 N1 1_555 1_555
H1 C1 1_555 1_555
H2 B1 1_555 1_555
H3 C1 1_555 1_555
H4 N1 1_555 1_555
H6 B2 1_555 1_555
H7 C2 1_555 1_555
H8 N2 1_555 1_555
N1A B1 1_555 1_555
N2A C2A 1_555 1_555
C1A N1A 1_555 1_555
C2A B2 1_555 1_555
B1A N1 1_555 1_555
B2A C2 1_555 1_555
H1A C1A 1_555 1_555
H2A B1A 1_555 1_555
H3A C1A 1_555 1_555
H4A N1A 1_555 1_555
H5A C2A 1_555 1_555
H6A B2A 1_555 1_555
H7A C2A 1_555 1_555
H8A N2A 1_555 1_555
N2 B2 1_555 1_555
N1A B2A 1_555 1_555
N2A B1A 1_555 1_555
N2A B2A 1_555 1_555
C1A B1A 1_555 1_555

#END
