
#######################################################################
#
#                 Cambridge Crystallographic Data Centre
#                                CCDC 
#
#######################################################################
#
# If this CIF has been generated from an entry in the Cambridge 
# Structural Database, then it will include bibliographic, chemical, 
# crystal, experimental, refinement or atomic coordinate data resulting 
# from the CCDC's data processing and validation procedures.
#
#######################################################################

data_OPOQEQ
_chemical_formula_moiety         
'C52 H34 B3 O7 1-,C26 H30 N1 O2 1+,1.5(C1 H2 Cl2),0.5(C1 H1 Cl3)'
_chemical_name_systematic        
"N-Benzylidene(bis(4-methoxy-3,5-dimethylphenyl))methylammonium (2,2'-dimethyl-3,3'-biphenanthrene-4,4'-diolato)-trioxo-diphenolato-triboron chloroform dichloromethane solvate"
_symmetry_cell_setting           orthorhombic
_symmetry_space_group_name_H-M   'P 21 21 21'
_symmetry_Int_Tables_number      19
_space_group_name_Hall           'P 2ac 2ab'
loop_
_symmetry_equiv_pos_site_id
_symmetry_equiv_pos_as_xyz
1 x,y,z
2 1/2-x,-y,1/2+z
3 1/2+x,1/2-y,-z
4 -x,1/2+y,1/2-z
_cell_length_a                   13.502(3)
_cell_length_b                   13.892(3)
_cell_length_c                   40.821(8)
_cell_angle_alpha                90
_cell_angle_beta                 90
_cell_angle_gamma                90
_cell_volume                     7656.79
_cell_formula_units_Z            4
loop_
_atom_site_label
_atom_site_type_symbol
_atom_site_fract_x
_atom_site_fract_y
_atom_site_fract_z
O1 O 0.81696(18) 0.59957(18) 0.14253(6)
C1 C 0.8589(3) 0.5104(3) 0.14239(9)
C2 C 0.8632(3) 0.4643(3) 0.11195(9)
C3 C 0.8217(3) 0.5156(3) 0.08264(9)
C4 C 0.8567(3) 0.6081(3) 0.07500(8)
O2 O 0.91700(19) 0.65301(18) 0.09677(6)
B1 B 0.8803(3) 0.6775(3) 0.12960(10)
O3 O 0.81253(19) 0.76262(18) 0.12874(6)
B2 B 0.8217(3) 0.8325(3) 0.15172(10)
O4 O 0.8949(2) 0.8323(2) 0.17497(7)
B3 B 0.9694(3) 0.7644(3) 0.17229(10)
O5 O 0.96710(19) 0.69439(19) 0.14935(6)
O6 O 0.7529(2) 0.9069(2) 0.15092(7)
C5 C 0.7624(3) 0.9897(3) 0.16925(11)
C6 C 0.7818(4) 0.9892(4) 0.20257(12)
H1 H 0.7902 0.9313 0.2137
C7 C 0.7886(4) 1.0769(5) 0.21938(13)
H2 H 0.8007 1.0772 0.2418
C8 C 0.7776(5) 1.1623(4) 0.20289(19)
H3 H 0.7828 1.2202 0.2142
C9 C 0.7590(5) 1.1633(4) 0.17004(17)
H4 H 0.7525 1.2215 0.1590
C10 C 0.7499(4) 1.0765(3) 0.15305(13)
H5 H 0.7353 1.0769 0.1308
O7 O 1.0454(2) 0.7772(2) 0.19443(7)
C11 C 1.1324(3) 0.7255(4) 0.19456(10)
C12 C 1.2182(4) 0.7772(5) 0.19987(14)
H6 H 1.2146 0.8430 0.2039
C13 C 1.3070(4) 0.7330(6) 0.19929(18)
H7 H 1.3640 0.7693 0.2026
C14 C 1.3154(4) 0.6368(6) 0.19392(13)
H8 H 1.3773 0.6076 0.1929
C15 C 1.2287(4) 0.5823(5) 0.18998(12)
H9 H 1.2324 0.5160 0.1870
C16 C 1.1370(3) 0.6284(4) 0.19053(11)
H10 H 1.0790 0.5928 0.1882
C17 C 0.8925(3) 0.4659(3) 0.17189(9)
C18 C 0.8880(3) 0.5100(3) 0.20445(9)
C19 C 0.8415(3) 0.6000(3) 0.21150(9)
H11 H 0.8096 0.6336 0.1948
C20 C 0.8433(4) 0.6374(4) 0.24271(10)
H12 H 0.8136 0.6967 0.2467
C21 C 0.8883(4) 0.5891(4) 0.26835(11)
H13 H 0.8894 0.6157 0.2892
C22 C 0.9312(4) 0.5008(4) 0.26245(11)
H14 H 0.9605 0.4675 0.2797
C23 C 0.9318(3) 0.4599(3) 0.23100(10)
C24 C 0.9756(4) 0.3678(4) 0.22666(11)
H15 H 1.0041 0.3362 0.2444
C25 C 0.9761(4) 0.3260(3) 0.19680(10)
H16 H 1.0028 0.2646 0.1945
C26 C 0.9359(3) 0.3743(3) 0.16830(10)
C27 C 0.9436(3) 0.3304(3) 0.13723(11)
H17 H 0.9735 0.2702 0.1358
C28 C 0.9089(3) 0.3726(3) 0.10912(10)
C29 C 0.9265(3) 0.3239(3) 0.07731(10)
C30 C 0.9132(3) 0.2241(3) 0.07494(12)
H18 H 0.8903 0.1896 0.0929
C31 C 0.9342(5) 0.1758(4) 0.04531(15)
H19 H 0.9255 0.1095 0.0439
C32 C 0.9681(5) 0.2269(5) 0.01818(15)
H20 H 0.9808 0.1957 -0.0015
C33 C 0.9824(5) 0.3251(4) 0.02119(13)
H21 H 1.0067 0.3592 0.0033
C34 C 0.9622(4) 0.3738(3) 0.04955(11)
H22 H 0.9719 0.4400 0.0505
C35 C 0.7515(3) 0.4708(3) 0.06147(10)
C36 C 0.7042(3) 0.3755(3) 0.06925(12)
C37 C 0.6888(4) 0.3092(4) 0.04490(15)
H23 H 0.7106 0.3218 0.0237
C38 C 0.6391(6) 0.2204(4) 0.0521(3)
H24 H 0.6299 0.1753 0.0355
C39 C 0.6051(6) 0.2012(5) 0.0830(3)
H25 H 0.5732 0.1435 0.0876
C40 C 0.6191(4) 0.2690(5) 0.1069(2)
H26 H 0.5942 0.2579 0.1278
C41 C 0.6696(3) 0.3535(4) 0.10063(14)
H27 H 0.6808 0.3966 0.1176
C42 C 0.7268(3) 0.5153(3) 0.03264(10)
H28 H 0.6796 0.4871 0.0191
C43 C 0.7713(3) 0.6033(3) 0.02289(9)
C44 C 0.7475(4) 0.6419(4) -0.00859(10)
H29 H 0.7023 0.6099 -0.0219
C45 C 0.7891(4) 0.7232(4) -0.01914(11)
H30 H 0.7737 0.7461 -0.0399
C46 C 0.8577(3) 0.7767(3) 0.00108(10)
C47 C 0.9015(4) 0.8615(4) -0.01132(11)
H31 H 0.8842 0.8827 -0.0322
C48 C 0.9675(4) 0.9127(4) 0.00620(13)
H32 H 0.9962 0.9681 -0.0024
C49 C 0.9922(4) 0.8807(4) 0.03774(12)
H33 H 1.0369 0.9159 0.0502
C50 C 0.9513(3) 0.7979(3) 0.05052(10)
H34 H 0.9692 0.7785 0.0715
C51 C 0.8831(3) 0.7419(3) 0.03267(9)
C52 C 0.8374(3) 0.6518(3) 0.04401(8)
C53 C 0.5872(3) 0.6241(3) 0.11762(9)
H35 H 0.6288 0.5686 0.1121
N1 N 0.6291(2) 0.7098(2) 0.10013(7)
H36 H 0.6766 0.7409 0.1093
C54 C 0.5983(3) 0.7391(3) 0.07256(10)
H37 H 0.5475 0.7038 0.0630
C55 C 0.6343(3) 0.8230(3) 0.05416(10)
C56 C 0.5980(4) 0.8345(4) 0.02222(11)
H38 H 0.5526 0.7907 0.0138
C57 C 0.6298(4) 0.9107(4) 0.00337(13)
H39 H 0.6078 0.9170 -0.0181
C58 C 0.6942(4) 0.9778(4) 0.01622(14)
H40 H 0.7147 1.0298 0.0036
C59 C 0.7281(4) 0.9674(4) 0.04807(14)
H41 H 0.7706 1.0135 0.0568
C60 C 0.7001(3) 0.8899(3) 0.06704(12)
H42 H 0.7249 0.8825 0.0881
C61 C 0.4825(3) 0.6011(3) 0.10637(9)
C62 C 0.4044(3) 0.6653(3) 0.11165(10)
H43 H 0.4177 0.7242 0.1216
C63 C 0.3079(3) 0.6441(4) 0.10257(9)
C64 C 0.2257(3) 0.7161(5) 0.10781(12)
H44 H 0.2524 0.7737 0.1174
H45 H 0.1768 0.6892 0.1222
H46 H 0.1955 0.7313 0.0871
C65 C 0.2899(3) 0.5536(4) 0.08852(10)
O8 O 0.1949(3) 0.5310(4) 0.07870(8)
C66 C 0.1314(4) 0.4986(6) 0.10482(15)
H47 H 0.0668 0.4846 0.0962
H48 H 0.1263 0.5480 0.1212
H49 H 0.1589 0.4415 0.1145
C67 C 0.3651(4) 0.4887(3) 0.08242(10)
C68 C 0.3458(5) 0.3923(4) 0.06740(16)
H50 H 0.4071 0.3579 0.0652
H51 H 0.3165 0.4007 0.0462
H52 H 0.3015 0.3564 0.0812
C69 C 0.4625(3) 0.5142(3) 0.09156(10)
H53 H 0.5141 0.4715 0.0875
C70 C 0.5920(3) 0.6377(3) 0.15470(9)
C71 C 0.5833(3) 0.7261(3) 0.17000(10)
H54 H 0.5800 0.7817 0.1573
C72 C 0.5796(3) 0.7338(4) 0.20431(11)
C73 C 0.5731(4) 0.8292(4) 0.22099(14)
H55 H 0.5725 0.8199 0.2443
H56 H 0.5134 0.8613 0.2144
H57 H 0.6293 0.8677 0.2150
C74 C 0.5854(3) 0.6505(4) 0.22253(10)
O9 O 0.5819(3) 0.6549(3) 0.25666(7)
C75 C 0.4826(4) 0.6472(7) 0.26921(13)
H58 H 0.4840 0.6502 0.2927
H59 H 0.4543 0.5869 0.2625
H60 H 0.4431 0.6991 0.2608
C76 C 0.5986(3) 0.5588(4) 0.20808(10)
C77 C 0.6166(5) 0.4710(4) 0.22813(13)
H61 H 0.6244 0.4164 0.2139
H62 H 0.5613 0.4605 0.2425
H63 H 0.6757 0.4795 0.2409
C78 C 0.6003(3) 0.5560(3) 0.17370(10)
H64 H 0.6074 0.4968 0.1633
C79 C 1.0101(9) 1.0285(9) 0.1463(2)
Cl1 Cl 1.1131(2) 1.1002(3) 0.13894(8)
Cl2 Cl 0.9647(3) 0.9704(2) 0.11135(6)
C80 C 0.3350(8) 0.2765(8) 0.1797(3)
Cl3 Cl 0.2163(2) 0.3092(3) 0.18476(14)
Cl4 Cl 0.4142(2) 0.3732(3) 0.17757(11)
Cl5 Cl 0.3490(7) 0.2238(6) 0.1408(2)
C81 C 0.6264(13) 0.4572(14) 0.3471(8)
Cl6 Cl 0.5030(5) 0.4651(5) 0.3690(2)
Cl7 Cl 0.6485(5) 0.5103(3) 0.31877(12)
C82 C 0.6738(17) 0.6139(15) 0.4553(7)
Cl8 Cl 0.5942(7) 0.5292(6) 0.4441(2)
Cl9 Cl 0.7822(7) 0.6211(7) 0.44553(18)
loop_
_geom_bond_atom_site_label_1
_geom_bond_atom_site_label_2
_geom_bond_site_symmetry_1
_geom_bond_site_symmetry_2
O1 C1 1_555 1_555
C1 C2 1_555 1_555
C2 C3 1_555 1_555
C3 C4 1_555 1_555
C4 O2 1_555 1_555
O2 B1 1_555 1_555
B1 O1 1_555 1_555
O3 B1 1_555 1_555
B2 O3 1_555 1_555
O4 B2 1_555 1_555
B3 O4 1_555 1_555
O5 B1 1_555 1_555
O6 B2 1_555 1_555
C5 O6 1_555 1_555
C6 C5 1_555 1_555
H1 C6 1_555 1_555
C7 C6 1_555 1_555
H2 C7 1_555 1_555
C8 C7 1_555 1_555
H3 C8 1_555 1_555
C9 C8 1_555 1_555
H4 C9 1_555 1_555
C10 C5 1_555 1_555
H5 C10 1_555 1_555
O7 B3 1_555 1_555
C11 O7 1_555 1_555
C12 C11 1_555 1_555
H6 C12 1_555 1_555
C13 C12 1_555 1_555
H7 C13 1_555 1_555
C14 C13 1_555 1_555
H8 C14 1_555 1_555
C15 C14 1_555 1_555
H9 C15 1_555 1_555
C16 C11 1_555 1_555
H10 C16 1_555 1_555
C17 C1 1_555 1_555
C18 C17 1_555 1_555
C19 C18 1_555 1_555
H11 C19 1_555 1_555
C20 C19 1_555 1_555
H12 C20 1_555 1_555
C21 C20 1_555 1_555
H13 C21 1_555 1_555
C22 C21 1_555 1_555
H14 C22 1_555 1_555
C23 C18 1_555 1_555
C24 C23 1_555 1_555
H15 C24 1_555 1_555
C25 C24 1_555 1_555
H16 C25 1_555 1_555
C26 C17 1_555 1_555
C27 C26 1_555 1_555
H17 C27 1_555 1_555
C28 C2 1_555 1_555
C29 C28 1_555 1_555
C30 C29 1_555 1_555
H18 C30 1_555 1_555
C31 C30 1_555 1_555
H19 C31 1_555 1_555
C32 C31 1_555 1_555
H20 C32 1_555 1_555
C33 C32 1_555 1_555
H21 C33 1_555 1_555
C34 C29 1_555 1_555
H22 C34 1_555 1_555
C35 C3 1_555 1_555
C36 C35 1_555 1_555
C37 C36 1_555 1_555
H23 C37 1_555 1_555
C38 C37 1_555 1_555
H24 C38 1_555 1_555
C39 C38 1_555 1_555
H25 C39 1_555 1_555
C40 C39 1_555 1_555
H26 C40 1_555 1_555
C41 C36 1_555 1_555
H27 C41 1_555 1_555
C42 C35 1_555 1_555
H28 C42 1_555 1_555
C43 C42 1_555 1_555
C44 C43 1_555 1_555
H29 C44 1_555 1_555
C45 C44 1_555 1_555
H30 C45 1_555 1_555
C46 C45 1_555 1_555
C47 C46 1_555 1_555
H31 C47 1_555 1_555
C48 C47 1_555 1_555
H32 C48 1_555 1_555
C49 C48 1_555 1_555
H33 C49 1_555 1_555
C50 C49 1_555 1_555
H34 C50 1_555 1_555
C51 C46 1_555 1_555
C52 C4 1_555 1_555
C53 H35 1_555 1_555
N1 C53 1_555 1_555
H36 N1 1_555 1_555
C54 N1 1_555 1_555
H37 C54 1_555 1_555
C55 C54 1_555 1_555
C56 C55 1_555 1_555
H38 C56 1_555 1_555
C57 C56 1_555 1_555
H39 C57 1_555 1_555
C58 C57 1_555 1_555
H40 C58 1_555 1_555
C59 C58 1_555 1_555
H41 C59 1_555 1_555
C60 C55 1_555 1_555
H42 C60 1_555 1_555
C61 C53 1_555 1_555
C62 C61 1_555 1_555
H43 C62 1_555 1_555
C63 C62 1_555 1_555
C64 C63 1_555 1_555
H44 C64 1_555 1_555
H45 C64 1_555 1_555
H46 C64 1_555 1_555
C65 C63 1_555 1_555
O8 C65 1_555 1_555
C66 O8 1_555 1_555
H47 C66 1_555 1_555
H48 C66 1_555 1_555
H49 C66 1_555 1_555
C67 C65 1_555 1_555
C68 C67 1_555 1_555
H50 C68 1_555 1_555
H51 C68 1_555 1_555
H52 C68 1_555 1_555
C69 C61 1_555 1_555
H53 C69 1_555 1_555
C70 C53 1_555 1_555
C71 C70 1_555 1_555
H54 C71 1_555 1_555
C72 C71 1_555 1_555
C73 C72 1_555 1_555
H55 C73 1_555 1_555
H56 C73 1_555 1_555
H57 C73 1_555 1_555
C74 C72 1_555 1_555
O9 C74 1_555 1_555
C75 O9 1_555 1_555
H58 C75 1_555 1_555
H59 C75 1_555 1_555
H60 C75 1_555 1_555
C76 C74 1_555 1_555
C77 C76 1_555 1_555
H61 C77 1_555 1_555
H62 C77 1_555 1_555
H63 C77 1_555 1_555
C78 C70 1_555 1_555
H64 C78 1_555 1_555
C79 Cl1 1_555 1_555
Cl2 C79 1_555 1_555
C80 Cl3 1_555 1_555
Cl4 C80 1_555 1_555
Cl5 C80 1_555 1_555
C81 Cl6 1_555 1_555
Cl7 C81 1_555 1_555
C82 Cl8 1_555 1_555
Cl9 C82 1_555 1_555
B3 O5 1_555 1_555
C9 C10 1_555 1_555
C15 C16 1_555 1_555
C22 C23 1_555 1_555
C25 C26 1_555 1_555
C27 C28 1_555 1_555
C33 C34 1_555 1_555
C40 C41 1_555 1_555
C43 C52 1_555 1_555
C50 C51 1_555 1_555
C51 C52 1_555 1_555
C59 C60 1_555 1_555
C67 C69 1_555 1_555
C76 C78 1_555 1_555

#END
