
#######################################################################
#
#                 Cambridge Crystallographic Data Centre
#                                CCDC 
#
#######################################################################
#
# If this CIF has been generated from an entry in the Cambridge 
# Structural Database, then it will include bibliographic, chemical, 
# crystal, experimental, refinement or atomic coordinate data resulting 
# from the CCDC's data processing and validation procedures.
#
#######################################################################

data_OPSIOX09
_chemical_formula_moiety         'C48 H40 O4 Si4'
_chemical_name_systematic        
2,2,4,4,6,6,8,8-octaphenyl-1,3,5,7,2,4,6,8-tetroxatetrasilocane
_symmetry_cell_setting           triclinic
_symmetry_space_group_name_H-M   'P -1'
_symmetry_Int_Tables_number      2
_space_group_name_Hall           '-P 1'
loop_
_symmetry_equiv_pos_site_id
_symmetry_equiv_pos_as_xyz
1 x,y,z
2 -x,-y,-z
_cell_length_a                   10.7039(13)
_cell_length_b                   10.7449(13)
_cell_length_c                   19.089(2)
_cell_angle_alpha                83.755(3)
_cell_angle_beta                 83.058(3)
_cell_angle_gamma                76.128(3)
_cell_volume                     2108.54
_exptl_crystal_colour            colorless
_exptl_crystal_description       prismatic
_cell_formula_units_Z            2
loop_
_atom_site_label
_atom_site_type_symbol
_atom_site_fract_x
_atom_site_fract_y
_atom_site_fract_z
Si1 Si 0.63678(9) 0.80612(8) 0.50277(5)
Si2 Si 0.35272(9) 0.91713(8) 0.45867(5)
O1 O 0.6676(2) 0.9334(2) 0.52776(13)
O2 O 0.5001(2) 0.8407(2) 0.46950(12)
C1 C 0.6351(3) 0.6865(3) 0.5803(2)
C2 C 0.6786(4) 0.6998(4) 0.6436(2)
H1 H 0.7058 0.7738 0.6490
C3 C 0.6827(5) 0.6047(5) 0.6994(3)
H2 H 0.7124 0.6157 0.7416
C4 C 0.6438(5) 0.4967(5) 0.6923(3)
H3 H 0.6468 0.4332 0.7296
C5 C 0.6007(6) 0.4807(5) 0.6314(3)
H4 H 0.5731 0.4066 0.6265
C6 C 0.5977(5) 0.5753(4) 0.5760(3)
H5 H 0.5688 0.5623 0.5340
C7 C 0.7647(3) 0.7363(3) 0.4342(2)
C8 C 0.8907(4) 0.6932(4) 0.4509(3)
H6 H 0.9099 0.7018 0.4962
C9 C 0.9896(4) 0.6373(4) 0.4019(3)
H7 H 1.0739 0.6097 0.4142
C10 C 0.9628(6) 0.6233(5) 0.3367(3)
H8 H 1.0288 0.5858 0.3039
C11 C 0.8411(6) 0.6631(5) 0.3184(3)
H9 H 0.8233 0.6531 0.2731
C12 C 0.7414(4) 0.7197(4) 0.3675(2)
H10 H 0.6576 0.7466 0.3545
C13 C 0.2390(3) 0.8443(3) 0.52162(18)
C14 C 0.2620(4) 0.7138(4) 0.5340(3)
H11 H 0.3375 0.6635 0.5131
C15 C 0.1753(5) 0.6537(4) 0.5771(3)
H12 H 0.1912 0.5644 0.5831
C16 C 0.0689(4) 0.7254(4) 0.6097(2)
H13 H 0.0124 0.6860 0.6399
C17 C 0.0438(4) 0.8530(4) 0.5989(2)
H14 H -0.0315 0.9021 0.6208
C18 C 0.1291(4) 0.9136(4) 0.5554(2)
H15 H 0.1108 1.0030 0.5493
C19 C 0.3255(3) 0.9051(3) 0.36603(18)
C20 C 0.2225(4) 0.8634(3) 0.3482(2)
H16 H 0.1631 0.8408 0.3840
C21 C 0.2048(4) 0.8539(4) 0.2787(2)
H17 H 0.1342 0.8257 0.2682
C22 C 0.2915(5) 0.8863(5) 0.2256(2)
H18 H 0.2805 0.8791 0.1787
C23 C 0.3933(5) 0.9288(5) 0.2410(2)
H19 H 0.4515 0.9521 0.2046
C24 C 0.4113(4) 0.9379(4) 0.3105(2)
H20 H 0.4822 0.9666 0.3203
Si1A Si 0.36322(9) 1.19388(8) 0.49723(5)
Si2A Si 0.64728(9) 1.08287(8) 0.54133(5)
O1A O 0.3324(2) 1.0666(2) 0.47224(13)
O2A O 0.4999(2) 1.1593(2) 0.53050(12)
C1A C 0.3649(3) 1.3135(3) 0.4197(2)
C2A C 0.3214(4) 1.3002(4) 0.3564(2)
H1A H 0.2942 1.2262 0.3510
C3A C 0.3173(5) 1.3953(5) 0.3006(3)
H2A H 0.2876 1.3843 0.2584
C4A C 0.3562(5) 1.5033(5) 0.3077(3)
H3A H 0.3532 1.5668 0.2704
C5A C 0.3993(6) 1.5193(5) 0.3686(3)
H4A H 0.4269 1.5934 0.3735
C6A C 0.4023(5) 1.4247(4) 0.4240(3)
H5A H 0.4312 1.4377 0.4660
C7A C 0.2353(3) 1.2637(3) 0.5658(2)
C8A C 0.1093(4) 1.3068(4) 0.5491(3)
H6A H 0.0901 1.2982 0.5038
C9A C 0.0104(4) 1.3627(4) 0.5981(3)
H7A H -0.0739 1.3903 0.5858
C10A C 0.0372(6) 1.3767(5) 0.6633(3)
H8A H -0.0288 1.4142 0.6961
C11A C 0.1589(6) 1.3369(5) 0.6816(3)
H9A H 0.1767 1.3469 0.7269
C12A C 0.2586(4) 1.2803(4) 0.6325(2)
H10A H 0.3424 1.2534 0.6455
C13A C 0.7610(3) 1.1557(3) 0.47838(18)
C14A C 0.7380(4) 1.2862(4) 0.4660(3)
H11A H 0.6625 1.3365 0.4869
C15A C 0.8247(5) 1.3463(4) 0.4229(3)
H12A H 0.8088 1.4356 0.4169
C16A C 0.9311(4) 1.2746(4) 0.3903(2)
H13A H 0.9876 1.3140 0.3601
C17A C 0.9562(4) 1.1470(4) 0.4011(2)
H14A H 1.0315 1.0979 0.3792
C18A C 0.8709(4) 1.0864(4) 0.4446(2)
H15A H 0.8892 0.9970 0.4507
C19A C 0.6745(3) 1.0949(3) 0.63397(18)
C20A C 0.7775(4) 1.1366(3) 0.6518(2)
H16A H 0.8369 1.1592 0.6160
C21A C 0.7952(4) 1.1461(4) 0.7213(2)
H17A H 0.8658 1.1743 0.7318
C22A C 0.7085(5) 1.1137(5) 0.7744(2)
H18A H 0.7195 1.1209 0.8213
C23A C 0.6067(5) 1.0712(5) 0.7590(2)
H19A H 0.5485 1.0479 0.7954
C24A C 0.5887(4) 1.0621(4) 0.6895(2)
H20A H 0.5178 1.0334 0.6797
Si3 Si 0.61723(9) 0.11341(9) 0.04365(5)
Si4 Si 0.32739(9) 0.16600(9) 0.01260(6)
O3 O 0.6641(2) -0.0298(2) 0.01866(14)
O4 O 0.4632(2) 0.1653(2) 0.04106(14)
C25 C 0.6533(3) 0.1078(4) 0.1362(2)
C26 C 0.6062(4) 0.2127(5) 0.1756(2)
H21 H 0.5547 0.2869 0.1551
C27 C 0.6343(6) 0.2095(7) 0.2454(3)
H22 H 0.6018 0.2809 0.2712
C28 C 0.7084(7) 0.1029(9) 0.2746(3)
H23 H 0.7279 0.1007 0.3209
C29 C 0.7561(7) -0.0031(7) 0.2374(4)
H24 H 0.8072 -0.0768 0.2584
C30 C 0.7282(5) 0.0000(5) 0.1688(3)
H25 H 0.7607 -0.0724 0.1438
C31 C 0.6986(3) 0.2227(4) -0.0167(2)
C32 C 0.8220(4) 0.1818(5) -0.0492(2)
H26 H 0.8659 0.0966 -0.0408
C33 C 0.8813(5) 0.2647(7) -0.0940(3)
H27 H 0.9639 0.2344 -0.1160
C34 C 0.8213(7) 0.3878(7) -0.1060(3)
H28 H 0.8631 0.4434 -0.1353
C35 C 0.7007(7) 0.4322(6) -0.0760(4)
H29 H 0.6585 0.5179 -0.0849
C36 C 0.6400(5) 0.3491(5) -0.0319(3)
H30 H 0.5562 0.3802 -0.0117
C37 C 0.2923(3) 0.2954(3) -0.0588(2)
C38 C 0.3783(5) 0.3000(5) -0.1181(3)
H31 H 0.4533 0.2354 -0.1232
C39 C 0.3533(6) 0.4026(7) -0.1712(3)
H32 H 0.4130 0.4070 -0.2105
C40 C 0.2433(6) 0.4934(6) -0.1648(3)
H33 H 0.2274 0.5614 -0.1995
C41 C 0.1572(6) 0.4873(5) -0.1095(3)
H34 H 0.0793 0.5485 -0.1065
C42 C 0.1830(5) 0.3907(5) -0.0565(3)
H35 H 0.1227 0.3904 -0.0171
C43 C 0.1998(3) 0.1868(3) 0.0874(2)
C44 C 0.0786(4) 0.1708(4) 0.0808(2)
H36 H 0.0605 0.1529 0.0370
C45 C -0.0178(4) 0.1799(4) 0.1362(3)
H37 H -0.0995 0.1704 0.1295
C46 C 0.0080(4) 0.2027(5) 0.1998(3)
H38 H -0.0554 0.2070 0.2380
C47 C 0.1263(4) 0.2194(5) 0.2088(2)
H39 H 0.1435 0.2363 0.2530
C48 C 0.2217(4) 0.2115(5) 0.1525(2)
H40 H 0.3024 0.2233 0.1594
Si3A Si 0.38277(9) -0.11341(9) -0.04365(5)
Si4A Si 0.67261(9) -0.16600(9) -0.01260(6)
O3A O 0.3359(2) 0.0298(2) -0.01866(14)
O4A O 0.5368(2) -0.1653(2) -0.04106(14)
C25A C 0.3467(3) -0.1078(4) -0.1362(2)
C26A C 0.3938(4) -0.2127(5) -0.1756(2)
H21A H 0.4453 -0.2869 -0.1551
C27A C 0.3657(6) -0.2095(7) -0.2454(3)
H22A H 0.3982 -0.2809 -0.2712
C28A C 0.2916(7) -0.1029(9) -0.2746(3)
H23A H 0.2721 -0.1007 -0.3209
C29A C 0.2439(7) 0.0031(7) -0.2374(4)
H24A H 0.1928 0.0768 -0.2584
C30A C 0.2718(5) 0.0000(5) -0.1688(3)
H25A H 0.2393 0.0724 -0.1438
C31A C 0.3014(3) -0.2227(4) 0.0167(2)
C32A C 0.1780(4) -0.1818(5) 0.0492(2)
H26A H 0.1341 -0.0966 0.0408
C33A C 0.1187(5) -0.2647(7) 0.0940(3)
H27A H 0.0361 -0.2344 0.1160
C34A C 0.1787(7) -0.3878(7) 0.1060(3)
H28A H 0.1369 -0.4434 0.1353
C35A C 0.2993(7) -0.4322(6) 0.0760(4)
H29A H 0.3415 -0.5179 0.0849
C36A C 0.3600(5) -0.3491(5) 0.0319(3)
H30A H 0.4438 -0.3802 0.0117
C37A C 0.7077(3) -0.2954(3) 0.0588(2)
C38A C 0.6217(5) -0.3000(5) 0.1181(3)
H31A H 0.5467 -0.2354 0.1232
C39A C 0.6467(6) -0.4026(7) 0.1712(3)
H32A H 0.5870 -0.4070 0.2105
C40A C 0.7567(6) -0.4934(6) 0.1648(3)
H33A H 0.7726 -0.5614 0.1995
C41A C 0.8428(6) -0.4873(5) 0.1095(3)
H34A H 0.9207 -0.5485 0.1065
C42A C 0.8170(5) -0.3907(5) 0.0565(3)
H35A H 0.8773 -0.3904 0.0171
C43A C 0.8002(3) -0.1868(3) -0.0874(2)
C44A C 0.9214(4) -0.1708(4) -0.0808(2)
H36A H 0.9395 -0.1529 -0.0370
C45A C 1.0178(4) -0.1799(4) -0.1362(3)
H37A H 1.0995 -0.1704 -0.1295
C46A C 0.9920(4) -0.2027(5) -0.1998(3)
H38A H 1.0554 -0.2070 -0.2380
C47A C 0.8737(4) -0.2194(5) -0.2088(2)
H39A H 0.8565 -0.2363 -0.2530
C48A C 0.7783(4) -0.2115(5) -0.1525(2)
H40A H 0.6976 -0.2233 -0.1594
loop_
_geom_bond_atom_site_label_1
_geom_bond_atom_site_label_2
_geom_bond_site_symmetry_1
_geom_bond_site_symmetry_2
Si1 O1 1_555 1_555
Si2 O2 1_555 1_555
O1 Si2A 1_555 1_555
O2 Si1 1_555 1_555
C1 Si1 1_555 1_555
C2 C1 1_555 1_555
H1 C2 1_555 1_555
C3 C2 1_555 1_555
H2 C3 1_555 1_555
C4 C3 1_555 1_555
H3 C4 1_555 1_555
C5 C4 1_555 1_555
H4 C5 1_555 1_555
C6 C1 1_555 1_555
H5 C6 1_555 1_555
C7 Si1 1_555 1_555
C8 C7 1_555 1_555
H6 C8 1_555 1_555
C9 C8 1_555 1_555
H7 C9 1_555 1_555
C10 C9 1_555 1_555
H8 C10 1_555 1_555
C11 C10 1_555 1_555
H9 C11 1_555 1_555
C12 C7 1_555 1_555
H10 C12 1_555 1_555
C13 Si2 1_555 1_555
C14 C13 1_555 1_555
H11 C14 1_555 1_555
C15 C14 1_555 1_555
H12 C15 1_555 1_555
C16 C15 1_555 1_555
H13 C16 1_555 1_555
C17 C16 1_555 1_555
H14 C17 1_555 1_555
C18 C13 1_555 1_555
H15 C18 1_555 1_555
C19 Si2 1_555 1_555
C20 C19 1_555 1_555
H16 C20 1_555 1_555
C21 C20 1_555 1_555
H17 C21 1_555 1_555
C22 C21 1_555 1_555
H18 C22 1_555 1_555
C23 C22 1_555 1_555
H19 C23 1_555 1_555
C24 C19 1_555 1_555
H20 C24 1_555 1_555
Si3 O3 1_555 1_555
Si4 O4 1_555 1_555
O3 Si4A 1_555 1_555
O4 Si3 1_555 1_555
C25 Si3 1_555 1_555
C26 C25 1_555 1_555
H21 C26 1_555 1_555
C27 C26 1_555 1_555
H22 C27 1_555 1_555
C28 C27 1_555 1_555
H23 C28 1_555 1_555
C29 C28 1_555 1_555
H24 C29 1_555 1_555
C30 C25 1_555 1_555
H25 C30 1_555 1_555
C31 Si3 1_555 1_555
C32 C31 1_555 1_555
H26 C32 1_555 1_555
C33 C32 1_555 1_555
H27 C33 1_555 1_555
C34 C33 1_555 1_555
H28 C34 1_555 1_555
C35 C34 1_555 1_555
H29 C35 1_555 1_555
C36 C31 1_555 1_555
H30 C36 1_555 1_555
C37 Si4 1_555 1_555
C38 C37 1_555 1_555
H31 C38 1_555 1_555
C39 C38 1_555 1_555
H32 C39 1_555 1_555
C40 C39 1_555 1_555
H33 C40 1_555 1_555
C41 C40 1_555 1_555
H34 C41 1_555 1_555
C42 C37 1_555 1_555
H35 C42 1_555 1_555
C43 Si4 1_555 1_555
C44 C43 1_555 1_555
H36 C44 1_555 1_555
C45 C44 1_555 1_555
H37 C45 1_555 1_555
C46 C45 1_555 1_555
H38 C46 1_555 1_555
C47 C46 1_555 1_555
H39 C47 1_555 1_555
C48 C43 1_555 1_555
H40 C48 1_555 1_555
Si1A O1A 1_555 1_555
Si2A O2A 1_555 1_555
O1A Si2 1_555 1_555
O2A Si1A 1_555 1_555
C1A Si1A 1_555 1_555
C2A C1A 1_555 1_555
H1A C2A 1_555 1_555
C3A C2A 1_555 1_555
H2A C3A 1_555 1_555
C4A C3A 1_555 1_555
H3A C4A 1_555 1_555
C5A C4A 1_555 1_555
H4A C5A 1_555 1_555
C6A C1A 1_555 1_555
H5A C6A 1_555 1_555
C7A Si1A 1_555 1_555
C8A C7A 1_555 1_555
H6A C8A 1_555 1_555
C9A C8A 1_555 1_555
H7A C9A 1_555 1_555
C10A C9A 1_555 1_555
H8A C10A 1_555 1_555
C11A C10A 1_555 1_555
H9A C11A 1_555 1_555
C12A C7A 1_555 1_555
H10A C12A 1_555 1_555
C13A Si2A 1_555 1_555
C14A C13A 1_555 1_555
H11A C14A 1_555 1_555
C15A C14A 1_555 1_555
H12A C15A 1_555 1_555
C16A C15A 1_555 1_555
H13A C16A 1_555 1_555
C17A C16A 1_555 1_555
H14A C17A 1_555 1_555
C18A C13A 1_555 1_555
H15A C18A 1_555 1_555
C19A Si2A 1_555 1_555
C20A C19A 1_555 1_555
H16A C20A 1_555 1_555
C21A C20A 1_555 1_555
H17A C21A 1_555 1_555
C22A C21A 1_555 1_555
H18A C22A 1_555 1_555
C23A C22A 1_555 1_555
H19A C23A 1_555 1_555
C24A C19A 1_555 1_555
H20A C24A 1_555 1_555
Si3A O3A 1_555 1_555
Si4A O4A 1_555 1_555
O3A Si4 1_555 1_555
O4A Si3A 1_555 1_555
C25A Si3A 1_555 1_555
C26A C25A 1_555 1_555
H21A C26A 1_555 1_555
C27A C26A 1_555 1_555
H22A C27A 1_555 1_555
C28A C27A 1_555 1_555
H23A C28A 1_555 1_555
C29A C28A 1_555 1_555
H24A C29A 1_555 1_555
C30A C25A 1_555 1_555
H25A C30A 1_555 1_555
C31A Si3A 1_555 1_555
C32A C31A 1_555 1_555
H26A C32A 1_555 1_555
C33A C32A 1_555 1_555
H27A C33A 1_555 1_555
C34A C33A 1_555 1_555
H28A C34A 1_555 1_555
C35A C34A 1_555 1_555
H29A C35A 1_555 1_555
C36A C31A 1_555 1_555
H30A C36A 1_555 1_555
C37A Si4A 1_555 1_555
C38A C37A 1_555 1_555
H31A C38A 1_555 1_555
C39A C38A 1_555 1_555
H32A C39A 1_555 1_555
C40A C39A 1_555 1_555
H33A C40A 1_555 1_555
C41A C40A 1_555 1_555
H34A C41A 1_555 1_555
C42A C37A 1_555 1_555
H35A C42A 1_555 1_555
C43A Si4A 1_555 1_555
C44A C43A 1_555 1_555
H36A C44A 1_555 1_555
C45A C44A 1_555 1_555
H37A C45A 1_555 1_555
C46A C45A 1_555 1_555
H38A C46A 1_555 1_555
C47A C46A 1_555 1_555
H39A C47A 1_555 1_555
C48A C43A 1_555 1_555
H40A C48A 1_555 1_555
C5 C6 1_555 1_555
C11 C12 1_555 1_555
C17 C18 1_555 1_555
C23 C24 1_555 1_555
C29 C30 1_555 1_555
C35 C36 1_555 1_555
C41 C42 1_555 1_555
C47 C48 1_555 1_555
C5A C6A 1_555 1_555
C11A C12A 1_555 1_555
C17A C18A 1_555 1_555
C23A C24A 1_555 1_555
C29A C30A 1_555 1_555
C35A C36A 1_555 1_555
C41A C42A 1_555 1_555
C47A C48A 1_555 1_555

#END
