
#######################################################################
#
#                 Cambridge Crystallographic Data Centre
#                                CCDC 
#
#######################################################################
#
# If this CIF has been generated from an entry in the Cambridge 
# Structural Database, then it will include bibliographic, chemical, 
# crystal, experimental, refinement or atomic coordinate data resulting 
# from the CCDC's data processing and validation procedures.
#
#######################################################################

data_OPUGAJ
_chemical_formula_moiety         'C27 H31 Br2 N5,0.5(C6 H12)'
_chemical_name_systematic        
'1-(2-bromophenyl)-2-((2-bromophenyl)imino)-N-cyclohexyl-5-(cyclohexylimino)-2,5-dihydro-1H-imidazol-4-amine cyclohexane solvate'
_symmetry_cell_setting           monoclinic
_symmetry_space_group_name_H-M   'P 21/c'
_symmetry_Int_Tables_number      14
_space_group_name_Hall           '-P 2ybc'
loop_
_symmetry_equiv_pos_site_id
_symmetry_equiv_pos_as_xyz
1 x,y,z
2 -x,1/2+y,1/2-z
3 -x,-y,-z
4 x,1/2-y,1/2+z
_cell_length_a                   13.453(5)
_cell_length_b                   17.372(6)
_cell_length_c                   13.653(5)
_cell_angle_alpha                90
_cell_angle_beta                 114.036(4)
_cell_angle_gamma                90
_cell_volume                     2914.11
_exptl_crystal_colour            'light yellow'
_exptl_crystal_description       block
_cell_formula_units_Z            4
loop_
_atom_site_label
_atom_site_type_symbol
_atom_site_fract_x
_atom_site_fract_y
_atom_site_fract_z
Br1 Br 0.62896(5) 0.46574(5) 0.57466(8)
Br2 Br 0.77343(5) 0.48443(4) 0.15672(5)
N1 N 0.6817(3) 0.5878(2) 0.4391(3)
N2 N 0.5308(3) 0.60160(18) 0.2786(3)
N3 N 0.6553(3) 0.4963(2) 0.3051(3)
N4 N 0.4594(3) 0.71270(19) 0.3246(3)
H1 H 0.4700 0.7469 0.3733
N5 N 0.6417(3) 0.70056(19) 0.5256(2)
C1 C 0.6215(3) 0.5568(2) 0.3349(3)
C2 C 0.5326(3) 0.6573(2) 0.3444(3)
C3 C 0.6272(3) 0.6524(2) 0.4517(3)
C4 C 0.7757(3) 0.5496(2) 0.5158(3)
C5 C 0.8815(4) 0.5715(3) 0.5234(4)
H2 H 0.8902 0.6098 0.4800
C6 C 0.9708(4) 0.5327(3) 0.5989(4)
H3 H 1.0405 0.5466 0.6073
C7 C 0.9581(4) 0.4747(3) 0.6609(4)
H4 H 1.0193 0.4492 0.7091
C8 C 0.8578(4) 0.4538(3) 0.6532(4)
H5 H 0.8505 0.4146 0.6963
C9 C 0.7661(4) 0.4913(2) 0.5802(4)
C10 C 0.5892(4) 0.4635(2) 0.2049(3)
C11 C 0.6314(4) 0.4505(2) 0.1290(3)
C12 C 0.5719(4) 0.4140(2) 0.0321(3)
H6 H 0.6015 0.4074 -0.0182
C13 C 0.4692(4) 0.3878(2) 0.0113(4)
H7 H 0.4291 0.3628 -0.0530
C14 C 0.4249(4) 0.3986(3) 0.0857(4)
H8 H 0.3557 0.3799 0.0721
C15 C 0.4841(4) 0.4374(2) 0.1808(3)
H9 H 0.4529 0.4461 0.2293
C16 C 0.3615(3) 0.7192(2) 0.2248(3)
H10 H 0.3371 0.6672 0.1976
C17 C 0.3837(3) 0.7634(3) 0.1401(3)
H11 H 0.4366 0.7356 0.1223
H12 H 0.4143 0.8133 0.1685
C18 C 0.2796(4) 0.7747(3) 0.0384(4)
H13 H 0.2958 0.8048 -0.0132
H14 H 0.2519 0.7251 0.0065
C19 C 0.1936(4) 0.8160(3) 0.0648(4)
H15 H 0.1274 0.8214 0.0001
H16 H 0.2192 0.8671 0.0918
C20 C 0.1690(4) 0.7711(3) 0.1489(4)
H17 H 0.1174 0.7997 0.1677
H18 H 0.1364 0.7220 0.1193
C21 C 0.2726(4) 0.7578(3) 0.2489(3)
H19 H 0.2993 0.8069 0.2835
H20 H 0.2560 0.7259 0.2986
C22 C 0.7333(3) 0.6977(2) 0.6300(3)
H21 H 0.7604 0.6448 0.6452
C23 C 0.8236(4) 0.7500(3) 0.6305(3)
H22 H 0.7951 0.8015 0.6095
H23 H 0.8500 0.7315 0.5783
C24 C 0.9185(4) 0.7529(4) 0.7416(4)
H24 H 0.9516 0.7024 0.7599
H25 H 0.9734 0.7886 0.7402
C25 C 0.8787(4) 0.7782(3) 0.8256(4)
H26 H 0.9386 0.7763 0.8959
H27 H 0.8536 0.8311 0.8118
C26 C 0.7873(4) 0.7278(3) 0.8254(3)
H28 H 0.7604 0.7480 0.8763
H29 H 0.8149 0.6763 0.8483
C27 C 0.6937(4) 0.7237(3) 0.7146(3)
H30 H 0.6391 0.6879 0.7164
H31 H 0.6600 0.7740 0.6955
C28 C 0.8878(8) 0.5263(5) 0.9368(8)
H32 H 0.8153 0.5366 0.9324
H33 H 0.8902 0.5421 0.8696
C29 C 0.9103(8) 0.4434(5) 0.9525(8)
H34 H 0.8613 0.4155 0.8899
H35 H 0.8977 0.4259 1.0140
C30 C 1.0289(8) 0.4267(5) 0.9708(8)
H36 H 1.0435 0.3723 0.9861
H37 H 1.0380 0.4380 0.9054
C28B C 1.1122(8) 0.4737(5) 1.0632(8)
H32B H 1.1847 0.4634 1.0676
H33B H 1.1098 0.4579 1.1304
C29B C 1.0897(8) 0.5566(5) 1.0475(8)
H34B H 1.1387 0.5845 1.1101
H35B H 1.1023 0.5741 0.9860
C30B C 0.9711(8) 0.5733(5) 1.0292(8)
H36B H 0.9565 0.6277 1.0139
H37B H 0.9620 0.5620 1.0946
loop_
_geom_bond_atom_site_label_1
_geom_bond_atom_site_label_2
_geom_bond_site_symmetry_1
_geom_bond_site_symmetry_2
Br1 C9 1_555 1_555
Br2 C11 1_555 1_555
N1 C1 1_555 1_555
N2 C1 1_555 1_555
N3 C1 1_555 1_555
N4 H1 1_555 1_555
N5 C3 1_555 1_555
C2 N2 1_555 1_555
C3 N1 1_555 1_555
C4 N1 1_555 1_555
C5 C4 1_555 1_555
H2 C5 1_555 1_555
C6 C5 1_555 1_555
H3 C6 1_555 1_555
C7 C6 1_555 1_555
H4 C7 1_555 1_555
C8 C7 1_555 1_555
H5 C8 1_555 1_555
C9 C4 1_555 1_555
C10 N3 1_555 1_555
C11 C10 1_555 1_555
C12 C11 1_555 1_555
H6 C12 1_555 1_555
C13 C12 1_555 1_555
H7 C13 1_555 1_555
C14 C13 1_555 1_555
H8 C14 1_555 1_555
C15 C10 1_555 1_555
H9 C15 1_555 1_555
C16 N4 1_555 1_555
H10 C16 1_555 1_555
C17 C16 1_555 1_555
H11 C17 1_555 1_555
H12 C17 1_555 1_555
C18 C17 1_555 1_555
H13 C18 1_555 1_555
H14 C18 1_555 1_555
C19 C18 1_555 1_555
H15 C19 1_555 1_555
H16 C19 1_555 1_555
C20 C19 1_555 1_555
H17 C20 1_555 1_555
H18 C20 1_555 1_555
C21 C16 1_555 1_555
H19 C21 1_555 1_555
H20 C21 1_555 1_555
C22 N5 1_555 1_555
H21 C22 1_555 1_555
C23 C22 1_555 1_555
H22 C23 1_555 1_555
H23 C23 1_555 1_555
C24 C23 1_555 1_555
H24 C24 1_555 1_555
H25 C24 1_555 1_555
C25 C24 1_555 1_555
H26 C25 1_555 1_555
H27 C25 1_555 1_555
C26 C25 1_555 1_555
H28 C26 1_555 1_555
H29 C26 1_555 1_555
C27 C22 1_555 1_555
H30 C27 1_555 1_555
H31 C27 1_555 1_555
C28 H32 1_555 1_555
H33 C28 1_555 1_555
C29 C28 1_555 1_555
H34 C29 1_555 1_555
H35 C29 1_555 1_555
C30 C29 1_555 1_555
H36 C30 1_555 1_555
H37 C30 1_555 1_555
C28B C30 1_555 1_555
H32B C28B 1_555 1_555
H33B C28B 1_555 1_555
C29B C28B 1_555 1_555
H34B C29B 1_555 1_555
H35B C29B 1_555 1_555
C30B C28 1_555 1_555
H36B C30B 1_555 1_555
H37B C30B 1_555 1_555
N4 C2 1_555 1_555
C2 C3 1_555 1_555
C8 C9 1_555 1_555
C14 C15 1_555 1_555
C20 C21 1_555 1_555
C26 C27 1_555 1_555
C29B C30B 1_555 1_555

#END
