
#######################################################################
#
#                 Cambridge Crystallographic Data Centre
#                                CCDC 
#
#######################################################################
#
# If this CIF has been generated from an entry in the Cambridge 
# Structural Database, then it will include bibliographic, chemical, 
# crystal, experimental, refinement or atomic coordinate data resulting 
# from the CCDC's data processing and validation procedures.
#
#######################################################################

data_OPUWUT
_chemical_formula_moiety         'C22 H21 Cl1 F3 N1 O2 S2'
_chemical_name_systematic        
7-chloro-9,9-dimethyl-2-((4-methylphenyl)sulfonyl)-4-((trifluoromethyl)sulfanyl)-2,3,9,9a-tetrahydro-1H-indeno[2,1-c]pyridine
_symmetry_cell_setting           monoclinic
_symmetry_space_group_name_H-M   'P 21/c'
_symmetry_Int_Tables_number      14
_space_group_name_Hall           '-P 2ybc'
loop_
_symmetry_equiv_pos_site_id
_symmetry_equiv_pos_as_xyz
1 x,y,z
2 -x,1/2+y,1/2-z
3 -x,-y,-z
4 x,1/2-y,1/2+z
_cell_length_a                   5.4961(5)
_cell_length_b                   23.7140(19)
_cell_length_c                   17.6522(13)
_cell_angle_alpha                90
_cell_angle_beta                 96.871(7)
_cell_angle_gamma                90
_cell_volume                     2284.17
_exptl_crystal_colour            colorless
_exptl_crystal_description       block
_cell_formula_units_Z            4
loop_
_atom_site_label
_atom_site_type_symbol
_atom_site_fract_x
_atom_site_fract_y
_atom_site_fract_z
Cl1 Cl -0.8407(7) 0.97546(14) 0.38247(17)
S1 S -0.3230(4) 0.81719(10) 0.71747(11)
S2 S 0.2882(3) 0.66555(9) 0.61927(11)
F1 F 0.1123(11) 0.8375(3) 0.7894(3)
F2 F -0.1751(11) 0.8843(3) 0.8234(4)
F3 F -0.0306(15) 0.9041(3) 0.7218(4)
O1 O 0.4237(8) 0.6752(2) 0.6934(3)
O2 O 0.4156(8) 0.6556(2) 0.5541(3)
N1 N 0.1200(9) 0.7221(2) 0.5992(3)
C1 C -0.0107(12) 0.7412(3) 0.6619(4)
H1 H 0.1078 0.7508 0.7052
H2 H -0.1109 0.7106 0.6772
C2 C -0.1734(12) 0.7922(3) 0.6411(4)
C3 C -0.2121(12) 0.8112(3) 0.5702(4)
C4 C -0.0918(11) 0.7846(3) 0.5068(3)
H3 H 0.0635 0.8044 0.5039
C5 C -0.0322(11) 0.7234(3) 0.5244(3)
H4 H -0.1815 0.7019 0.5263
H5 H 0.0567 0.7072 0.4853
C6 C -0.3805(13) 0.8554(3) 0.5349(5)
C7 C -0.5078(18) 0.8981(4) 0.5672(6)
H6 H -0.4977 0.9026 0.6198
C8 C -0.652(2) 0.9342(4) 0.5172(7)
H7 H -0.7442 0.9624 0.5370
C9 C -0.660(2) 0.9284(4) 0.4392(6)
C10 C -0.5362(15) 0.8861(4) 0.4072(5)
H8 H -0.5458 0.8823 0.3545
C11 C -0.3973(12) 0.8491(4) 0.4549(4)
C12 C -0.2640(12) 0.7979(3) 0.4313(4)
C13 C -0.4532(12) 0.7510(3) 0.4115(4)
H9 H -0.3706 0.7168 0.4007
H10 H -0.5631 0.7619 0.3676
H11 H -0.5443 0.7450 0.4539
C14 C -0.1204(12) 0.8082(4) 0.3645(4)
H12 H -0.0052 0.8382 0.3769
H13 H -0.2311 0.8185 0.3205
H14 H -0.0340 0.7745 0.3538
C15 C 0.0855(12) 0.6099(3) 0.6268(4)
C16 C 0.0060(14) 0.5971(3) 0.6955(4)
H15 H 0.0640 0.6172 0.7392
C17 C -0.1610(17) 0.5540(4) 0.6991(5)
H16 H -0.2127 0.5451 0.7460
C18 C -0.2524(17) 0.5241(4) 0.6362(7)
C19 C -0.1781(17) 0.5377(4) 0.5681(6)
H17 H -0.2416 0.5181 0.5246
C20 C -0.0123(15) 0.5796(4) 0.5623(4)
H18 H 0.0366 0.5881 0.5150
C21 C -0.4371(16) 0.4776(4) 0.6437(6)
H19 H -0.5985 0.4935 0.6408
H20 H -0.3985 0.4589 0.6919
H21 H -0.4313 0.4509 0.6031
C22 C -0.090(2) 0.8627(5) 0.7625(7)
loop_
_geom_bond_atom_site_label_1
_geom_bond_atom_site_label_2
_geom_bond_site_symmetry_1
_geom_bond_site_symmetry_2
Cl1 C9 1_555 1_555
S1 C2 1_555 1_555
S2 O1 1_555 1_555
F1 C22 1_555 1_555
F2 C22 1_555 1_555
F3 C22 1_555 1_555
O2 S2 1_555 1_555
N1 S2 1_555 1_555
C1 N1 1_555 1_555
H1 C1 1_555 1_555
H2 C1 1_555 1_555
C2 C1 1_555 1_555
C3 C2 1_555 1_555
C4 C3 1_555 1_555
H3 C4 1_555 1_555
C5 N1 1_555 1_555
H4 C5 1_555 1_555
H5 C5 1_555 1_555
C6 C3 1_555 1_555
C7 C6 1_555 1_555
H6 C7 1_555 1_555
C8 C7 1_555 1_555
H7 C8 1_555 1_555
C9 C8 1_555 1_555
C10 C9 1_555 1_555
H8 C10 1_555 1_555
C11 C6 1_555 1_555
C12 C4 1_555 1_555
C13 C12 1_555 1_555
H9 C13 1_555 1_555
H10 C13 1_555 1_555
H11 C13 1_555 1_555
C14 C12 1_555 1_555
H12 C14 1_555 1_555
H13 C14 1_555 1_555
H14 C14 1_555 1_555
C15 S2 1_555 1_555
C16 C15 1_555 1_555
H15 C16 1_555 1_555
C17 C16 1_555 1_555
H16 C17 1_555 1_555
C18 C17 1_555 1_555
C19 C18 1_555 1_555
H17 C19 1_555 1_555
C20 C15 1_555 1_555
H18 C20 1_555 1_555
C21 C18 1_555 1_555
H19 C21 1_555 1_555
H20 C21 1_555 1_555
H21 C21 1_555 1_555
C22 S1 1_555 1_555
C4 C5 1_555 1_555
C10 C11 1_555 1_555
C11 C12 1_555 1_555
C19 C20 1_555 1_555

#END
