
#######################################################################
#
#                 Cambridge Crystallographic Data Centre
#                                CCDC 
#
#######################################################################
#
# If this CIF has been generated from an entry in the Cambridge 
# Structural Database, then it will include bibliographic, chemical, 
# crystal, experimental, refinement or atomic coordinate data resulting 
# from the CCDC's data processing and validation procedures.
#
#######################################################################

data_OPUWAZ
_chemical_formula_moiety         'C25 H24 S1'
_chemical_name_systematic        
'5-methyl-1,1-diphenylhexa-1,5-dien-3-yl phenyl sulfide'
_symmetry_cell_setting           triclinic
_symmetry_space_group_name_H-M   'P -1'
_symmetry_Int_Tables_number      2
_space_group_name_Hall           '-P 1'
loop_
_symmetry_equiv_pos_site_id
_symmetry_equiv_pos_as_xyz
1 x,y,z
2 -x,-y,-z
_cell_length_a                   9.4128(7)
_cell_length_b                   9.6074(8)
_cell_length_c                   12.0794(9)
_cell_angle_alpha                97.999(7)
_cell_angle_beta                 97.992(6)
_cell_angle_gamma                108.357(7)
_cell_volume                     1007.08
_cell_formula_units_Z            2
loop_
_atom_site_label
_atom_site_type_symbol
_atom_site_fract_x
_atom_site_fract_y
_atom_site_fract_z
C1 C 0.0665(2) 0.1490(2) 0.87479(13)
C2 C 0.0131(3) 0.2678(2) 0.88749(16)
H1 H 0.0817 0.3670 0.8960
C3 C -0.1408(3) 0.2426(3) 0.88784(18)
H2 H -0.1770 0.3246 0.8957
C4 C -0.2406(3) 0.0996(3) 0.87683(15)
H3 H -0.3454 0.0828 0.8777
C5 C -0.1881(2) -0.0190(2) 0.86451(16)
H4 H -0.2569 -0.1179 0.8571
C6 C -0.0350(2) 0.0054(2) 0.86287(16)
H5 H 0.0003 -0.0771 0.8535
C7 C 0.2808(2) 0.2282(2) 0.73628(14)
H6 H 0.2375 0.3093 0.7264
C8 C 0.1917(2) 0.0895(2) 0.64294(14)
H7 H 0.2254 0.0053 0.6589
H8 H 0.0817 0.0609 0.6457
C9 C 0.2127(2) 0.1141(2) 0.52445(15)
C10 C 0.2680(3) 0.0299(3) 0.46020(17)
H9 H 0.2783 0.0452 0.3853
H10 H 0.2976 -0.0462 0.4887
C11 C 0.1644(3) 0.2352(3) 0.48380(17)
H11 H 0.1772 0.2363 0.4047
H12 H 0.2275 0.3319 0.5320
H13 H 0.0570 0.2168 0.4880
C12 C 0.4462(2) 0.2834(2) 0.73118(14)
H14 H 0.4948 0.2105 0.7237
C13 C 0.5328(2) 0.4250(2) 0.73614(14)
C14 C 0.6924(2) 0.4615(2) 0.71740(14)
C15 C 0.7259(2) 0.3804(2) 0.62612(16)
H15 H 0.6456 0.3029 0.5742
C16 C 0.8750(3) 0.4112(3) 0.60987(18)
H16 H 0.8958 0.3558 0.5465
C17 C 0.9929(2) 0.5220(3) 0.68547(19)
H17 H 1.0952 0.5419 0.6753
C18 C 0.9608(2) 0.6036(2) 0.77603(18)
H18 H 1.0417 0.6799 0.8283
C19 C 0.8121(2) 0.5753(2) 0.79144(16)
H19 H 0.7916 0.6340 0.8531
C20 C 0.4772(2) 0.5537(2) 0.75894(14)
C21 C 0.4783(2) 0.6484(2) 0.68140(16)
H20 H 0.5143 0.6302 0.6130
C22 C 0.4281(2) 0.7682(2) 0.70227(18)
H21 H 0.4272 0.8301 0.6475
C23 C 0.3791(2) 0.7982(2) 0.80237(19)
H22 H 0.3454 0.8811 0.8172
C24 C 0.3795(2) 0.7070(3) 0.88065(17)
H23 H 0.3473 0.7283 0.9502
C25 C 0.4264(2) 0.5844(2) 0.85927(15)
H24 H 0.4238 0.5211 0.9133
S1 S 0.26404(6) 0.18177(6) 0.87844(4)
loop_
_geom_bond_atom_site_label_1
_geom_bond_atom_site_label_2
_geom_bond_site_symmetry_1
_geom_bond_site_symmetry_2
C1 C2 1_555 1_555
C2 H1 1_555 1_555
C3 C2 1_555 1_555
H2 C3 1_555 1_555
C4 C3 1_555 1_555
H3 C4 1_555 1_555
C5 C4 1_555 1_555
H4 C5 1_555 1_555
C6 C1 1_555 1_555
H5 C6 1_555 1_555
C7 H6 1_555 1_555
C8 C7 1_555 1_555
H7 C8 1_555 1_555
H8 C8 1_555 1_555
C9 C8 1_555 1_555
C10 C9 1_555 1_555
H9 C10 1_555 1_555
H10 C10 1_555 1_555
C11 C9 1_555 1_555
H11 C11 1_555 1_555
H12 C11 1_555 1_555
H13 C11 1_555 1_555
C12 C7 1_555 1_555
H14 C12 1_555 1_555
C13 C12 1_555 1_555
C14 C13 1_555 1_555
C15 C14 1_555 1_555
H15 C15 1_555 1_555
C16 C15 1_555 1_555
H16 C16 1_555 1_555
C17 C16 1_555 1_555
H17 C17 1_555 1_555
C18 C17 1_555 1_555
H18 C18 1_555 1_555
C19 C14 1_555 1_555
H19 C19 1_555 1_555
C20 C13 1_555 1_555
C21 C20 1_555 1_555
H20 C21 1_555 1_555
C22 C21 1_555 1_555
H21 C22 1_555 1_555
C23 C22 1_555 1_555
H22 C23 1_555 1_555
C24 C23 1_555 1_555
H23 C24 1_555 1_555
C25 C20 1_555 1_555
H24 C25 1_555 1_555
S1 C1 1_555 1_555
C5 C6 1_555 1_555
C7 S1 1_555 1_555
C18 C19 1_555 1_555
C24 C25 1_555 1_555

#END
