
#######################################################################
#
#                 Cambridge Crystallographic Data Centre
#                                CCDC 
#
#######################################################################
#
# If this CIF has been generated from an entry in the Cambridge 
# Structural Database, then it will include bibliographic, chemical, 
# crystal, experimental, refinement or atomic coordinate data resulting 
# from the CCDC's data processing and validation procedures.
#
#######################################################################

data_OPUXII
_chemical_formula_moiety         'C24 H17 Br1 F3 N1 O4'
_chemical_name_systematic        
2-(6-bromo-3-nitro-2-phenyl-2-(trifluoromethyl)-3,4-dihydro-2H-chromen-4-yl)-1-phenylethanone
_symmetry_cell_setting           trigonal
_symmetry_space_group_name_H-M   'P 32 2 1'
_symmetry_Int_Tables_number      154
_space_group_name_Hall           'P 32 2"'
loop_
_symmetry_equiv_pos_site_id
_symmetry_equiv_pos_as_xyz
1 x,y,z
2 -y,x-y,2/3+z
3 -x+y,-x,1/3+z
4 x-y,-y,1/3-z
5 -x,-x+y,2/3-z
6 y,x,-z
_cell_length_a                   12.0750(14)
_cell_length_b                   12.0750(14)
_cell_length_c                   26.601(3)
_cell_angle_alpha                90
_cell_angle_beta                 90
_cell_angle_gamma                120
_cell_volume                     3358.94
_exptl_crystal_colour            colorless
_exptl_crystal_description       block
_cell_formula_units_Z            6
loop_
_atom_site_label
_atom_site_type_symbol
_atom_site_fract_x
_atom_site_fract_y
_atom_site_fract_z
Br1 Br 1.28967(9) 0.45439(12) 1.03992(3)
O1 O 0.8472(4) 0.2980(4) 0.81833(14)
O2 O 0.7841(5) 0.0040(5) 0.97866(14)
O3 O 0.8332(5) 0.0219(5) 0.82008(15)
O4 O 0.9019(5) -0.0186(4) 0.88806(17)
N1 N 0.8453(5) 0.0245(5) 0.86522(18)
C1 C 0.6255(6) -0.1357(7) 0.9200(3)
C2 C 0.5637(7) -0.1631(8) 0.8748(3)
H1 H 0.5715 -0.0972 0.8543
C3 C 0.4890(8) -0.2896(8) 0.8594(4)
H2 H 0.4474 -0.3082 0.8285
C4 C 0.4770(10) -0.3852(10) 0.8892(5)
H3 H 0.4281 -0.4697 0.8786
C5 C 0.5367(12) -0.3584(10) 0.9350(5)
H4 H 0.5251 -0.4251 0.9560
C6 C 0.6140(10) -0.2333(9) 0.9504(3)
H5 H 0.6575 -0.2152 0.9809
C7 C 0.6191(8) 0.0480(9) 0.9586(3)
C8 C 0.7100(7) 0.0037(7) 0.9376(2)
C9 C 0.7900(6) 0.0927(6) 0.89485(18)
H6 H 0.7329 0.1061 0.8727
C10 C 0.9035(6) 0.2243(5) 0.90911(17)
H7 H 0.9700 0.2438 0.8839
C11 C 0.9602(6) 0.2192(6) 0.95899(18)
C12 C 0.9002(8) 0.1112(8) 0.98938(19)
C13 C 0.9582(9) 0.1051(9) 1.0335(2)
H8 H 0.9183 0.0321 1.0534
C14 C 1.0726(10) 0.2049(11) 1.0479(2)
H9 H 1.1104 0.2007 1.0777
C15 C 1.1323(7) 0.3118(9) 1.0183(2)
C16 C 1.0784(7) 0.3197(7) 0.9738(2)
H10 H 1.1209 0.3921 0.9537
C17 C 0.8725(6) 0.3339(6) 0.9061(2)
H11 H 0.7975 0.3113 0.9265
H12 H 0.9433 0.4107 0.9203
C18 C 0.8482(5) 0.3625(6) 0.8534(2)
C19 C 0.8280(5) 0.4728(5) 0.8455(2)
C20 C 0.8375(8) 0.5543(7) 0.8837(2)
H13 H 0.8573 0.5411 0.9161
C21 C 0.8175(10) 0.6573(8) 0.8738(3)
H14 H 0.8228 0.7119 0.8996
C22 C 0.7899(10) 0.6760(9) 0.8256(4)
H15 H 0.7782 0.7450 0.8187
C23 C 0.7792(9) 0.5963(8) 0.7877(3)
H16 H 0.7579 0.6093 0.7555
C24 C 0.8002(7) 0.4946(6) 0.7971(2)
H17 H 0.7957 0.4414 0.7709
F1 F 0.6822(5) 0.1563(5) 0.98619(14)
F2 F 0.5557(4) 0.0696(5) 0.92358(17)
F3 F 0.5326(5) -0.0395(5) 0.99032(18)
loop_
_geom_bond_atom_site_label_1
_geom_bond_atom_site_label_2
_geom_bond_site_symmetry_1
_geom_bond_site_symmetry_2
Br1 C15 1_555 1_555
O1 C18 1_555 1_555
O2 C8 1_555 1_555
O3 N1 1_555 1_555
O4 N1 1_555 1_555
N1 C9 1_555 1_555
C1 C2 1_555 1_555
C2 H1 1_555 1_555
C3 C2 1_555 1_555
H2 C3 1_555 1_555
C4 C3 1_555 1_555
H3 C4 1_555 1_555
C5 C4 1_555 1_555
H4 C5 1_555 1_555
C6 C1 1_555 1_555
H5 C6 1_555 1_555
C7 C8 1_555 1_555
C8 C1 1_555 1_555
C9 C8 1_555 1_555
H6 C9 1_555 1_555
C10 C9 1_555 1_555
H7 C10 1_555 1_555
C11 C10 1_555 1_555
C12 O2 1_555 1_555
C13 C12 1_555 1_555
H8 C13 1_555 1_555
C14 C13 1_555 1_555
H9 C14 1_555 1_555
C15 C14 1_555 1_555
C16 C11 1_555 1_555
H10 C16 1_555 1_555
C17 C10 1_555 1_555
H11 C17 1_555 1_555
H12 C17 1_555 1_555
C18 C17 1_555 1_555
C19 C18 1_555 1_555
C20 C19 1_555 1_555
H13 C20 1_555 1_555
C21 C20 1_555 1_555
H14 C21 1_555 1_555
C22 C21 1_555 1_555
H15 C22 1_555 1_555
C23 C22 1_555 1_555
H16 C23 1_555 1_555
C24 C19 1_555 1_555
H17 C24 1_555 1_555
F1 C7 1_555 1_555
F2 C7 1_555 1_555
F3 C7 1_555 1_555
C5 C6 1_555 1_555
C11 C12 1_555 1_555
C15 C16 1_555 1_555
C23 C24 1_555 1_555

#END
