
#######################################################################
#
#                 Cambridge Crystallographic Data Centre
#                                CCDC 
#
#######################################################################
#
# If this CIF has been generated from an entry in the Cambridge 
# Structural Database, then it will include bibliographic, chemical, 
# crystal, experimental, refinement or atomic coordinate data resulting 
# from the CCDC's data processing and validation procedures.
#
#######################################################################

data_OPUXEE
_chemical_formula_moiety         'C18 H13 Cl1 F3 N1 O4'
_chemical_name_systematic        
2-(8-chloro-3-nitro-2-(trifluoromethyl)-3,4-dihydro-2H-chromen-4-yl)-1-phenylethanone
_symmetry_cell_setting           orthorhombic
_symmetry_space_group_name_H-M   'P 21 21 21'
_symmetry_Int_Tables_number      19
_space_group_name_Hall           'P 2ac 2ab'
loop_
_symmetry_equiv_pos_site_id
_symmetry_equiv_pos_as_xyz
1 x,y,z
2 1/2+x,1/2-y,-z
3 -x,1/2+y,1/2-z
4 1/2-x,-y,1/2+z
_cell_length_a                   10.916(2)
_cell_length_b                   12.171(2)
_cell_length_c                   27.176(5)
_cell_angle_alpha                90
_cell_angle_beta                 90
_cell_angle_gamma                90
_cell_volume                     3610.57
_exptl_crystal_colour            colorless
_exptl_crystal_description       block
_cell_formula_units_Z            8
loop_
_atom_site_label
_atom_site_type_symbol
_atom_site_fract_x
_atom_site_fract_y
_atom_site_fract_z
Cl1 Cl 0.88546(18) 0.67939(12) 0.06384(5)
O1 O 0.7644(4) 0.4901(3) 0.10361(11)
O2 O 0.4798(4) 0.2740(3) 0.17557(17)
O3 O 0.6600(4) 0.2070(3) 0.18587(14)
O4 O 0.8301(4) 0.3396(4) 0.29104(13)
N1 N 0.5902(4) 0.2815(3) 0.17544(15)
C1 C 0.8757(5) 0.6513(4) 0.12560(17)
C2 C 0.9257(4) 0.7165(4) 0.1603(2)
H1 H 0.9689 0.7786 0.1505
C3 C 0.9149(4) 0.6944(4) 0.20927(19)
H2 H 0.9499 0.7412 0.2324
C4 C 0.8511(4) 0.6013(4) 0.22444(17)
H3 H 0.8428 0.5867 0.2579
C5 C 0.7994(4) 0.5297(3) 0.19017(15)
C6 C 0.8138(4) 0.5531(3) 0.14100(16)
C7 C 0.7308(4) 0.4259(3) 0.20616(14)
H4 H 0.7920 0.3676 0.2099
C8 C 0.6473(4) 0.3924(3) 0.16387(15)
H5 H 0.5827 0.4475 0.1596
C9 C 0.7215(4) 0.3830(3) 0.11676(16)
H6 H 0.7917 0.3343 0.1223
C10 C 0.6539(6) 0.3467(4) 0.07172(19)
C11 C 0.6644(4) 0.4370(4) 0.25580(15)
H7 H 0.6426 0.5134 0.2609
H8 H 0.5891 0.3947 0.2547
C12 C 0.7409(4) 0.3979(4) 0.29890(17)
C13 C 0.7055(4) 0.4249(4) 0.34970(16)
C14 C 0.7634(5) 0.3736(5) 0.38823(19)
H9 H 0.8220 0.3202 0.3816
C15 C 0.7367(6) 0.3993(7) 0.4364(2)
H10 H 0.7768 0.3633 0.4619
C16 C 0.6496(7) 0.4793(6) 0.4468(2)
H11 H 0.6323 0.4993 0.4791
C17 C 0.5917(8) 0.5266(6) 0.4094(2)
H12 H 0.5308 0.5778 0.4163
C18 C 0.6173(5) 0.5037(5) 0.36077(19)
H13 H 0.5762 0.5404 0.3357
F1 F 0.5487(4) 0.4006(3) 0.06473(13)
F2 F 0.7189(4) 0.3526(3) 0.03139(11)
F3 F 0.6210(4) 0.2399(2) 0.07658(12)
Cl2 Cl 0.46678(19) 0.66017(13) 0.03550(6)
O5 O 0.2935(3) 0.5181(3) 0.08385(12)
O6 O 0.0011(3) 0.3326(3) 0.17141(16)
O7 O 0.1768(4) 0.2543(3) 0.17243(13)
O8 O 0.3541(3) 0.4265(3) 0.28094(12)
N2 N 0.1108(4) 0.3336(3) 0.16531(14)
C19 C 0.4527(5) 0.6451(4) 0.09810(19)
C20 C 0.5273(5) 0.7022(4) 0.1293(2)
H14 H 0.5870 0.7488 0.1166
C21 C 0.5148(5) 0.6913(4) 0.1797(2)
H15 H 0.5645 0.7320 0.2007
C22 C 0.4281(4) 0.6194(4) 0.19907(18)
H16 H 0.4211 0.6115 0.2330
C23 C 0.3513(4) 0.5591(3) 0.16794(17)
C24 C 0.3660(4) 0.5719(4) 0.11762(18)
C25 C 0.2610(4) 0.4749(3) 0.18861(15)
H17 H 0.3090 0.4097 0.1973
C26 C 0.1720(4) 0.4397(3) 0.14793(16)
H18 H 0.1098 0.4968 0.1431
C27 C 0.2387(5) 0.4191(4) 0.10019(15)
H19 H 0.3029 0.3642 0.1057
C28 C 0.1599(7) 0.3828(5) 0.0578(2)
C29 C 0.1943(4) 0.5112(4) 0.23559(15)
H20 H 0.1883 0.5907 0.2356
H21 H 0.1116 0.4821 0.2349
C30 C 0.2555(4) 0.4749(3) 0.28277(16)
C31 C 0.1959(4) 0.4945(3) 0.33113(16)
C32 C 0.2547(5) 0.4641(4) 0.37343(18)
H22 H 0.3325 0.4334 0.3716
C33 C 0.2001(7) 0.4785(5) 0.4189(2)
H23 H 0.2400 0.4556 0.4474
C34 C 0.0848(7) 0.5275(5) 0.4219(2)
H24 H 0.0479 0.5389 0.4523
C35 C 0.0277(6) 0.5581(5) 0.3801(2)
H25 H -0.0495 0.5900 0.3820
C36 C 0.0806(4) 0.5433(4) 0.33495(19)
H26 H 0.0396 0.5658 0.3067
F4 F 0.0685(5) 0.4531(5) 0.04991(17)
F5 F 0.2214(5) 0.3737(4) 0.01678(12)
F6 F 0.1105(4) 0.2839(3) 0.06682(12)
loop_
_geom_bond_atom_site_label_1
_geom_bond_atom_site_label_2
_geom_bond_site_symmetry_1
_geom_bond_site_symmetry_2
Cl1 C1 1_555 1_555
O1 C6 1_555 1_555
O2 N1 1_555 1_555
O3 N1 1_555 1_555
O4 C12 1_555 1_555
N1 C8 1_555 1_555
C1 C2 1_555 1_555
C2 H1 1_555 1_555
C3 C2 1_555 1_555
H2 C3 1_555 1_555
C4 C3 1_555 1_555
H3 C4 1_555 1_555
C5 C4 1_555 1_555
C6 C1 1_555 1_555
C7 C5 1_555 1_555
H4 C7 1_555 1_555
C8 C7 1_555 1_555
H5 C8 1_555 1_555
C9 O1 1_555 1_555
H6 C9 1_555 1_555
C10 C9 1_555 1_555
C11 C7 1_555 1_555
H7 C11 1_555 1_555
H8 C11 1_555 1_555
C12 C11 1_555 1_555
C13 C12 1_555 1_555
C14 C13 1_555 1_555
H9 C14 1_555 1_555
C15 C14 1_555 1_555
H10 C15 1_555 1_555
C16 C15 1_555 1_555
H11 C16 1_555 1_555
C17 C16 1_555 1_555
H12 C17 1_555 1_555
C18 C13 1_555 1_555
H13 C18 1_555 1_555
F1 C10 1_555 1_555
F2 C10 1_555 1_555
F3 C10 1_555 1_555
Cl2 C19 1_555 1_555
O5 C24 1_555 1_555
O6 N2 1_555 1_555
O7 N2 1_555 1_555
O8 C30 1_555 1_555
N2 C26 1_555 1_555
C19 C20 1_555 1_555
C20 H14 1_555 1_555
C21 C20 1_555 1_555
H15 C21 1_555 1_555
C22 C21 1_555 1_555
H16 C22 1_555 1_555
C23 C22 1_555 1_555
C24 C19 1_555 1_555
C25 C23 1_555 1_555
H17 C25 1_555 1_555
C26 C25 1_555 1_555
H18 C26 1_555 1_555
C27 O5 1_555 1_555
H19 C27 1_555 1_555
C28 C27 1_555 1_555
C29 C25 1_555 1_555
H20 C29 1_555 1_555
H21 C29 1_555 1_555
C30 C29 1_555 1_555
C31 C30 1_555 1_555
C32 C31 1_555 1_555
H22 C32 1_555 1_555
C33 C32 1_555 1_555
H23 C33 1_555 1_555
C34 C33 1_555 1_555
H24 C34 1_555 1_555
C35 C34 1_555 1_555
H25 C35 1_555 1_555
C36 C31 1_555 1_555
H26 C36 1_555 1_555
F4 C28 1_555 1_555
F5 C28 1_555 1_555
F6 C28 1_555 1_555
C5 C6 1_555 1_555
C8 C9 1_555 1_555
C17 C18 1_555 1_555
C23 C24 1_555 1_555
C26 C27 1_555 1_555
C35 C36 1_555 1_555

#END
