
#######################################################################
#
#                 Cambridge Crystallographic Data Centre
#                                CCDC 
#
#######################################################################
#
# If this CIF has been generated from an entry in the Cambridge 
# Structural Database, then it will include bibliographic, chemical, 
# crystal, experimental, refinement or atomic coordinate data resulting 
# from the CCDC's data processing and validation procedures.
#
#######################################################################

data_OPUZIJ
_chemical_formula_moiety         'C27 H22 N2'
_chemical_name_systematic        
N-(2,6-bis(2-phenylvinyl)phenyl)pyridin-2-amine
_symmetry_cell_setting           triclinic
_symmetry_space_group_name_H-M   'P -1'
_symmetry_Int_Tables_number      2
_space_group_name_Hall           '-P 1'
loop_
_symmetry_equiv_pos_site_id
_symmetry_equiv_pos_as_xyz
1 x,y,z
2 -x,-y,-z
_cell_length_a                   9.6691(11)
_cell_length_b                   12.2798(13)
_cell_length_c                   17.5194(19)
_cell_angle_alpha                86.733(2)
_cell_angle_beta                 79.629(2)
_cell_angle_gamma                81.639(2)
_cell_volume                     2023.41
_exptl_crystal_colour            colorless
_exptl_crystal_description       block
_cell_formula_units_Z            4
loop_
_atom_site_label
_atom_site_type_symbol
_atom_site_fract_x
_atom_site_fract_y
_atom_site_fract_z
N1 N 0.73204(17) 0.09463(12) 0.23379(8)
H1 H 0.749(2) 0.1594(14) 0.2102(11)
N2 N 0.67776(16) 0.19703(12) 0.34238(8)
C1 C 0.7693(2) -0.00011(14) 0.18828(10)
C2 C 0.8997(2) -0.01337(15) 0.13659(10)
C3 C 0.9287(2) -0.10223(15) 0.08719(10)
H3 H 1.0136 -0.1097 0.0498
C4 C 0.8374(2) -0.17899(16) 0.09137(11)
H4 H 0.8607 -0.2401 0.0583
C5 C 0.7121(2) -0.16704(16) 0.14366(10)
H5 H 0.6499 -0.2209 0.1466
C6 C 0.6741(2) -0.07792(15) 0.19232(10)
C7 C 1.0048(2) 0.06240(15) 0.13526(10)
H6 H 0.9727 0.1311 0.1593
C8 C 1.1408(2) 0.04242(15) 0.10322(11)
H7 H 1.1726 -0.0278 0.0813
C9 C 1.2468(2) 0.11730(16) 0.09814(10)
C10 C 1.3904(2) 0.07556(18) 0.08795(12)
H8 H 1.4183 -0.0017 0.0845
C11 C 1.4930(2) 0.14410(19) 0.08281(12)
H9 H 1.5903 0.1139 0.0773
C12 C 1.4543(2) 0.25606(19) 0.08571(12)
H10 H 1.5248 0.3035 0.0815
C13 C 1.3128(2) 0.29935(18) 0.09474(11)
H11 H 1.2859 0.3768 0.0965
C14 C 1.2102(2) 0.23094(16) 0.10128(11)
H12 H 1.1130 0.2618 0.1080
C15 C 0.5352(2) -0.06412(16) 0.24337(10)
H13 H 0.4928 0.0085 0.2570
C16 C 0.4649(2) -0.14718(16) 0.27179(10)
H14 H 0.5116 -0.2189 0.2585
C17 C 0.3247(2) -0.14196(16) 0.32090(10)
C18 C 0.2714(2) -0.24011(16) 0.34480(10)
H15 H 0.3258 -0.3081 0.3283
C19 C 0.1405(2) -0.24001(18) 0.39213(11)
H16 H 0.1059 -0.3077 0.4082
C20 C 0.0606(2) -0.14261(19) 0.41592(12)
H17 H -0.0290 -0.1426 0.4488
C21 C 0.1106(2) -0.04445(19) 0.39195(13)
H18 H 0.0546 0.0233 0.4077
C22 C 0.2417(2) -0.04434(17) 0.34512(12)
H19 H 0.2755 0.0237 0.3293
C23 C 0.70686(18) 0.09610(14) 0.31337(10)
C24 C 0.7124(2) 0.00067(15) 0.36100(10)
H20 H 0.7364 -0.0701 0.3391
C25 C 0.6826(2) 0.01148(17) 0.43976(11)
H21 H 0.6846 -0.0521 0.4733
C26 C 0.6494(2) 0.11548(17) 0.47048(11)
H22 H 0.6271 0.1248 0.5250
C27 C 0.6498(2) 0.20389(16) 0.41977(10)
H23 H 0.6289 0.2752 0.4408
N3 N 0.75884(16) 0.40975(12) 0.26212(8)
H2 H 0.731(2) 0.3469(14) 0.2832(10)
N4 N 0.79487(16) 0.31556(12) 0.15007(8)
C28 C 0.72063(19) 0.50145(14) 0.31087(9)
C29 C 0.58467(19) 0.51543(14) 0.35753(10)
C30 C 0.5525(2) 0.60026(15) 0.41037(10)
H24 H 0.4627 0.6090 0.4436
C31 C 0.6477(2) 0.67136(16) 0.41545(11)
H25 H 0.6234 0.7286 0.4518
C32 C 0.7781(2) 0.65945(15) 0.36788(10)
H26 H 0.8422 0.7103 0.3706
C33 C 0.8184(2) 0.57424(14) 0.31558(10)
C34 C 0.4791(2) 0.44587(14) 0.34733(10)
H27 H 0.5020 0.4005 0.3034
C35 C 0.3548(2) 0.43929(15) 0.39271(10)
H28 H 0.3335 0.4811 0.4384
C36 C 0.2473(2) 0.37342(16) 0.37898(10)
C37 C 0.1135(2) 0.38938(18) 0.42478(12)
H29 H 0.0955 0.4388 0.4663
C38 C 0.0053(2) 0.3341(2) 0.41072(14)
H30 H -0.0860 0.3468 0.4422
C39 C 0.0300(3) 0.2612(2) 0.35160(14)
H31 H -0.0439 0.2235 0.3419
C40 C 0.1630(3) 0.24341(17) 0.30647(13)
H32 H 0.1806 0.1929 0.2656
C41 C 0.2710(2) 0.29805(16) 0.31990(11)
H33 H 0.3623 0.2842 0.2886
C42 C 0.9615(2) 0.56139(15) 0.26827(10)
H34 H 1.0076 0.4891 0.2563
C43 C 1.0293(2) 0.64611(15) 0.24153(10)
H35 H 0.9786 0.7173 0.2527
C44 C 1.1729(2) 0.64251(15) 0.19688(10)
C45 C 1.2152(2) 0.73749(15) 0.15830(10)
H36 H 1.1510 0.8041 0.1625
C46 C 1.3483(2) 0.73705(16) 0.11411(11)
H37 H 1.3738 0.8024 0.0869
C47 C 1.4440(2) 0.64264(16) 0.10920(11)
H38 H 1.5355 0.6420 0.0782
C48 C 1.4068(2) 0.54871(16) 0.14952(11)
H39 H 1.4739 0.4838 0.1476
C49 C 1.2726(2) 0.54820(16) 0.19262(10)
H40 H 1.2480 0.4826 0.2198
C50 C 0.78431(18) 0.41328(14) 0.18252(10)
C51 C 0.79657(19) 0.51087(15) 0.13762(10)
H41 H 0.7874 0.5796 0.1616
C52 C 0.8221(2) 0.50480(16) 0.05853(10)
H42 H 0.8318 0.5698 0.0271
C53 C 0.8337(2) 0.40438(16) 0.02398(11)
H43 H 0.8511 0.3988 -0.0309
C54 C 0.8191(2) 0.31367(16) 0.07226(10)
H44 H 0.8265 0.2445 0.0491
loop_
_geom_bond_atom_site_label_1
_geom_bond_atom_site_label_2
_geom_bond_site_symmetry_1
_geom_bond_site_symmetry_2
N1 H1 1_555 1_555
N2 C23 1_555 1_555
N3 H2 1_555 1_555
N4 C50 1_555 1_555
C1 N1 1_555 1_555
C2 C1 1_555 1_555
C3 C2 1_555 1_555
H3 C3 1_555 1_555
C4 C3 1_555 1_555
H4 C4 1_555 1_555
C5 C4 1_555 1_555
H5 C5 1_555 1_555
C6 C1 1_555 1_555
C7 C2 1_555 1_555
H6 C7 1_555 1_555
C8 C7 1_555 1_555
H7 C8 1_555 1_555
C9 C8 1_555 1_555
C10 C9 1_555 1_555
H8 C10 1_555 1_555
C11 C10 1_555 1_555
H9 C11 1_555 1_555
C12 C11 1_555 1_555
H10 C12 1_555 1_555
C13 C12 1_555 1_555
H11 C13 1_555 1_555
C14 C9 1_555 1_555
H12 C14 1_555 1_555
C15 C6 1_555 1_555
H13 C15 1_555 1_555
C16 C15 1_555 1_555
H14 C16 1_555 1_555
C17 C16 1_555 1_555
C18 C17 1_555 1_555
H15 C18 1_555 1_555
C19 C18 1_555 1_555
H16 C19 1_555 1_555
C20 C19 1_555 1_555
H17 C20 1_555 1_555
C21 C20 1_555 1_555
H18 C21 1_555 1_555
C22 C17 1_555 1_555
H19 C22 1_555 1_555
C23 N1 1_555 1_555
C24 C23 1_555 1_555
H20 C24 1_555 1_555
C25 C24 1_555 1_555
H21 C25 1_555 1_555
C26 C25 1_555 1_555
H22 C26 1_555 1_555
C27 N2 1_555 1_555
H23 C27 1_555 1_555
C28 N3 1_555 1_555
C29 C28 1_555 1_555
C30 C29 1_555 1_555
H24 C30 1_555 1_555
C31 C30 1_555 1_555
H25 C31 1_555 1_555
C32 C31 1_555 1_555
H26 C32 1_555 1_555
C33 C28 1_555 1_555
C34 C29 1_555 1_555
H27 C34 1_555 1_555
C35 C34 1_555 1_555
H28 C35 1_555 1_555
C36 C35 1_555 1_555
C37 C36 1_555 1_555
H29 C37 1_555 1_555
C38 C37 1_555 1_555
H30 C38 1_555 1_555
C39 C38 1_555 1_555
H31 C39 1_555 1_555
C40 C39 1_555 1_555
H32 C40 1_555 1_555
C41 C36 1_555 1_555
H33 C41 1_555 1_555
C42 C33 1_555 1_555
H34 C42 1_555 1_555
C43 C42 1_555 1_555
H35 C43 1_555 1_555
C44 C43 1_555 1_555
C45 C44 1_555 1_555
H36 C45 1_555 1_555
C46 C45 1_555 1_555
H37 C46 1_555 1_555
C47 C46 1_555 1_555
H38 C47 1_555 1_555
C48 C47 1_555 1_555
H39 C48 1_555 1_555
C49 C44 1_555 1_555
H40 C49 1_555 1_555
C50 N3 1_555 1_555
C51 C50 1_555 1_555
H41 C51 1_555 1_555
C52 C51 1_555 1_555
H42 C52 1_555 1_555
C53 C52 1_555 1_555
H43 C53 1_555 1_555
C54 N4 1_555 1_555
H44 C54 1_555 1_555
C5 C6 1_555 1_555
C13 C14 1_555 1_555
C21 C22 1_555 1_555
C26 C27 1_555 1_555
C32 C33 1_555 1_555
C40 C41 1_555 1_555
C48 C49 1_555 1_555
C53 C54 1_555 1_555

#END
