
#######################################################################
#
#                 Cambridge Crystallographic Data Centre
#                                CCDC 
#
#######################################################################
#
# If this CIF has been generated from an entry in the Cambridge 
# Structural Database, then it will include bibliographic, chemical, 
# crystal, experimental, refinement or atomic coordinate data resulting 
# from the CCDC's data processing and validation procedures.
#
#######################################################################

data_OPUZAB
_chemical_formula_moiety         'C25 H18 N2'
_chemical_name_systematic        2,3-Diphenyl-1-(pyridin-2-yl)-1H-indole
_symmetry_cell_setting           monoclinic
_symmetry_space_group_name_H-M   'P 21/c'
_symmetry_Int_Tables_number      14
_space_group_name_Hall           '-P 2ybc'
loop_
_symmetry_equiv_pos_site_id
_symmetry_equiv_pos_as_xyz
1 x,y,z
2 -x,1/2+y,1/2-z
3 -x,-y,-z
4 x,1/2-y,1/2+z
_cell_length_a                   13.3316(15)
_cell_length_b                   13.1483(14)
_cell_length_c                   11.2928(13)
_cell_angle_alpha                90
_cell_angle_beta                 112.910(2)
_cell_angle_gamma                90
_cell_volume                     1823.34
_exptl_crystal_colour            colorless
_exptl_crystal_description       block
_cell_formula_units_Z            4
loop_
_atom_site_label
_atom_site_type_symbol
_atom_site_fract_x
_atom_site_fract_y
_atom_site_fract_z
N1 N 0.17529(15) 0.21533(15) 0.25947(19)
N2 N -0.00225(16) 0.22151(16) 0.1070(2)
C1 C 0.18703(19) 0.11129(19) 0.2838(2)
C2 C 0.1288(2) 0.03047(19) 0.2102(3)
H1 H 0.0731 0.0407 0.1274
C3 C 0.1553(2) -0.0653(2) 0.2626(3)
H2 H 0.1166 -0.1225 0.2152
C4 C 0.2373(2) -0.0800(2) 0.3832(3)
H3 H 0.2524 -0.1469 0.4172
C5 C 0.2970(2) -0.00042(19) 0.4543(3)
H4 H 0.3534 -0.0116 0.5364
C6 C 0.27309(19) 0.09752(19) 0.4035(2)
C7 C 0.25374(17) 0.26670(18) 0.3632(2)
C8 C 0.31466(18) 0.19660(18) 0.4524(2)
C9 C 0.26144(18) 0.37817(18) 0.3687(2)
C10 C 0.1763(2) 0.4372(2) 0.3716(2)
H5 H 0.1115 0.4054 0.3690
C11 C 0.1850(2) 0.5415(2) 0.3783(3)
H6 H 0.1263 0.5815 0.3801
C12 C 0.2787(2) 0.5877(2) 0.3822(3)
H7 H 0.2846 0.6597 0.3868
C13 C 0.3639(2) 0.5304(2) 0.3796(3)
H8 H 0.4285 0.5627 0.3824
C14 C 0.3554(2) 0.4255(2) 0.3729(2)
H9 H 0.4144 0.3858 0.3712
C15 C 0.40129(19) 0.21929(19) 0.5788(2)
C16 C 0.3916(2) 0.29968(19) 0.6543(2)
H10 H 0.3282 0.3411 0.6237
C17 C 0.4726(2) 0.3198(2) 0.7727(3)
H11 H 0.4653 0.3754 0.8225
C18 C 0.5641(2) 0.2595(2) 0.8188(3)
H12 H 0.6198 0.2731 0.9006
C19 C 0.5745(2) 0.1799(2) 0.7462(3)
H13 H 0.6374 0.1380 0.7785
C20 C 0.4946(2) 0.1598(2) 0.6266(3)
H14 H 0.5036 0.1050 0.5768
C21 C 0.09743(19) 0.26074(18) 0.1467(2)
C22 C 0.1268(2) 0.33859(18) 0.0850(2)
H15 H 0.1998 0.3623 0.1150
C23 C 0.0466(2) 0.3809(2) -0.0219(2)
H16 H 0.0630 0.4361 -0.0657
C24 C -0.0575(2) 0.3423(2) -0.0643(3)
H17 H -0.1141 0.3700 -0.1377
C25 C -0.0771(2) 0.2631(2) 0.0018(3)
H18 H -0.1487 0.2358 -0.0289
loop_
_geom_bond_atom_site_label_1
_geom_bond_atom_site_label_2
_geom_bond_site_symmetry_1
_geom_bond_site_symmetry_2
N1 C1 1_555 1_555
N2 C21 1_555 1_555
C1 C2 1_555 1_555
C2 H1 1_555 1_555
C3 C2 1_555 1_555
H2 C3 1_555 1_555
C4 C3 1_555 1_555
H3 C4 1_555 1_555
C5 C4 1_555 1_555
H4 C5 1_555 1_555
C6 C1 1_555 1_555
C7 N1 1_555 1_555
C8 C6 1_555 1_555
C9 C7 1_555 1_555
C10 C9 1_555 1_555
H5 C10 1_555 1_555
C11 C10 1_555 1_555
H6 C11 1_555 1_555
C12 C11 1_555 1_555
H7 C12 1_555 1_555
C13 C12 1_555 1_555
H8 C13 1_555 1_555
C14 C9 1_555 1_555
H9 C14 1_555 1_555
C15 C8 1_555 1_555
C16 C15 1_555 1_555
H10 C16 1_555 1_555
C17 C16 1_555 1_555
H11 C17 1_555 1_555
C18 C17 1_555 1_555
H12 C18 1_555 1_555
C19 C18 1_555 1_555
H13 C19 1_555 1_555
C20 C15 1_555 1_555
H14 C20 1_555 1_555
C21 N1 1_555 1_555
C22 C21 1_555 1_555
H15 C22 1_555 1_555
C23 C22 1_555 1_555
H16 C23 1_555 1_555
C24 C23 1_555 1_555
H17 C24 1_555 1_555
C25 N2 1_555 1_555
H18 C25 1_555 1_555
C5 C6 1_555 1_555
C7 C8 1_555 1_555
C13 C14 1_555 1_555
C19 C20 1_555 1_555
C24 C25 1_555 1_555

#END
