
#######################################################################
#
#                 Cambridge Crystallographic Data Centre
#                                CCDC 
#
#######################################################################
#
# If this CIF has been generated from an entry in the Cambridge 
# Structural Database, then it will include bibliographic, chemical, 
# crystal, experimental, refinement or atomic coordinate data resulting 
# from the CCDC's data processing and validation procedures.
#
#######################################################################

data_OPUZEF
_chemical_formula_moiety         'C29 H20 N2'
_chemical_name_systematic        
2,3-Diphenyl-1-(pyridin-2-yl)-1H-benzo[g]indole
_symmetry_cell_setting           monoclinic
_symmetry_space_group_name_H-M   'P 21/c'
_symmetry_Int_Tables_number      14
_space_group_name_Hall           '-P 2ybc'
loop_
_symmetry_equiv_pos_site_id
_symmetry_equiv_pos_as_xyz
1 x,y,z
2 -x,1/2+y,1/2-z
3 -x,-y,-z
4 x,1/2-y,1/2+z
_cell_length_a                   21.7125(10)
_cell_length_b                   20.0272(10)
_cell_length_c                   9.6399(4)
_cell_angle_alpha                90
_cell_angle_beta                 95.9050(10)
_cell_angle_gamma                90
_cell_volume                     4169.58
_cell_formula_units_Z            8
loop_
_atom_site_label
_atom_site_type_symbol
_atom_site_fract_x
_atom_site_fract_y
_atom_site_fract_z
N1 N 0.22690(6) 0.70277(7) 0.98152(15)
N2 N 0.23442(7) 0.79744(7) 1.12324(16)
C1 C 0.25536(8) 0.64188(8) 1.01558(18)
C2 C 0.21216(8) 0.59196(8) 0.97683(18)
C3 C 0.15631(8) 0.62331(8) 0.91749(18)
C4 C 0.16665(7) 0.69118(8) 0.92444(18)
C5 C 0.25144(7) 0.76851(8) 1.01017(17)
C6 C 0.28887(8) 0.79736(9) 0.9206(2)
H1 H 0.2996 0.7740 0.8408
C7 C 0.31045(8) 0.86116(9) 0.9496(2)
H2 H 0.3367 0.8826 0.8903
C8 C 0.29332(8) 0.89302(9) 1.06567(19)
H3 H 0.3072 0.9371 1.0882
C9 C 0.25562(9) 0.85970(9) 1.1487(2)
H4 H 0.2439 0.8821 1.2288
C10 C 0.31668(8) 0.62801(9) 1.07718(18)
C11 C 0.33167(9) 0.55869(9) 1.09426(19)
C12 C 0.28745(9) 0.50856(9) 1.0501(2)
H5 H 0.2989 0.4629 1.0614
C13 C 0.22978(9) 0.52376(9) 0.99272(19)
H6 H 0.2013 0.4893 0.9633
C14 C 0.36251(8) 0.67515(9) 1.12299(19)
H7 H 0.3537 0.7214 1.1110
C15 C 0.41941(8) 0.65586(10) 1.1844(2)
H8 H 0.4492 0.6887 1.2161
C16 C 0.43376(9) 0.58810(11) 1.2007(2)
H9 H 0.4733 0.5748 1.2429
C17 C 0.39112(9) 0.54144(10) 1.1562(2)
H10 H 0.4017 0.4956 1.1671
C18 C 0.10045(8) 0.58962(8) 0.85246(19)
C19 C 0.07847(8) 0.53138(9) 0.90969(19)
H11 H 0.0994 0.5137 0.9930
C20 C 0.02660(8) 0.49903(9) 0.8466(2)
H12 H 0.0129 0.4589 0.8861
C21 C -0.00520(9) 0.52437(9) 0.7277(2)
H13 H -0.0413 0.5026 0.6860
C22 C 0.01601(9) 0.58203(9) 0.6692(2)
H14 H -0.0057 0.5998 0.5868
C23 C 0.06843(8) 0.61392(9) 0.7299(2)
H15 H 0.0829 0.6529 0.6875
C24 C 0.12267(7) 0.74619(8) 0.88812(18)
C25 C 0.06521(8) 0.74422(9) 0.93980(19)
H16 H 0.0557 0.7085 0.9989
C26 C 0.02188(8) 0.79357(9) 0.9061(2)
H17 H -0.0175 0.7912 0.9408
C27 C 0.03550(9) 0.84617(9) 0.8226(2)
H18 H 0.0059 0.8805 0.8010
C28 C 0.09233(9) 0.84877(9) 0.7703(2)
H19 H 0.1018 0.8851 0.7127
C29 C 0.13546(8) 0.79880(8) 0.80130(19)
H20 H 0.1741 0.8004 0.7631
N3 N 0.73298(6) 0.61646(7) 0.66289(16)
N4 N 0.80596(8) 0.62809(9) 0.5024(2)
C30 C 0.66966(8) 0.61540(9) 0.62047(19)
C31 C 0.63907(8) 0.64563(9) 0.72179(19)
C32 C 0.68524(8) 0.66622(8) 0.82993(19)
C33 C 0.74305(8) 0.64717(8) 0.79196(19)
C34 C 0.77867(8) 0.58684(9) 0.58460(19)
C35 C 0.79066(8) 0.52063(9) 0.5985(2)
H21 H 0.7699 0.4938 0.6602
C36 C 0.83389(9) 0.49367(11) 0.5201(2)
H22 H 0.8438 0.4475 0.5274
C37 C 0.86254(9) 0.53383(12) 0.4314(2)
H23 H 0.8918 0.5159 0.3747
C38 C 0.84816(10) 0.60012(12) 0.4260(2)
H24 H 0.8687 0.6280 0.3658
C39 C 0.68144(9) 0.70098(9) 0.9566(2)
H25 H 0.6425 0.7152 0.9823
C40 C 0.73390(9) 0.71368(9) 1.0405(2)
H26 H 0.7311 0.7369 1.1256
C41 C 0.79305(8) 0.69335(9) 1.0054(2)
C42 C 0.79944(8) 0.65908(8) 0.87848(19)
C43 C 0.85903(8) 0.63978(9) 0.8487(2)
H27 H 0.8638 0.6161 0.7651
C44 C 0.91024(9) 0.65475(10) 0.9388(2)
H28 H 0.9501 0.6414 0.9169
C45 C 0.90423(9) 0.68929(10) 1.0620(2)
H29 H 0.9400 0.7000 1.1231
C46 C 0.84717(9) 0.70778(10) 1.0949(2)
H30 H 0.8436 0.7309 1.1798
C47 C 0.64503(8) 0.58400(9) 0.48787(19)
C48 C 0.66452(9) 0.60357(11) 0.3611(2)
H31 H 0.6944 0.6381 0.3587
C49 C 0.64068(10) 0.57295(12) 0.2384(2)
H32 H 0.6544 0.5864 0.1523
C50 C 0.59707(9) 0.52307(11) 0.2407(2)
H33 H 0.5814 0.5016 0.1565
C51 C 0.57636(9) 0.50439(10) 0.3646(2)
H34 H 0.5456 0.4708 0.3660
C52 C 0.60021(8) 0.53439(9) 0.4875(2)
H35 H 0.5858 0.5209 0.5729
C53 C 0.57166(8) 0.65448(9) 0.7202(2)
C54 C 0.53500(8) 0.67498(9) 0.6003(2)
H36 H 0.5539 0.6847 0.5180
C55 C 0.47176(9) 0.68136(10) 0.5997(2)
H37 H 0.4474 0.6945 0.5167
C56 C 0.44368(9) 0.66870(10) 0.7190(2)
H38 H 0.4001 0.6736 0.7184
C57 C 0.47894(9) 0.64895(10) 0.8389(2)
H39 H 0.4597 0.6402 0.9213
C58 C 0.54241(8) 0.64188(9) 0.8393(2)
H40 H 0.5664 0.6282 0.9224
loop_
_geom_bond_atom_site_label_1
_geom_bond_atom_site_label_2
_geom_bond_site_symmetry_1
_geom_bond_site_symmetry_2
N1 C1 1_555 1_555
N2 C5 1_555 1_555
N3 C30 1_555 1_555
N4 C34 1_555 1_555
C1 C2 1_555 1_555
C2 C3 1_555 1_555
C3 C4 1_555 1_555
C4 N1 1_555 1_555
C5 N1 1_555 1_555
C6 C5 1_555 1_555
H1 C6 1_555 1_555
C7 C6 1_555 1_555
H2 C7 1_555 1_555
C8 C7 1_555 1_555
H3 C8 1_555 1_555
C9 N2 1_555 1_555
H4 C9 1_555 1_555
C10 C1 1_555 1_555
C11 C10 1_555 1_555
C12 C11 1_555 1_555
H5 C12 1_555 1_555
C13 C2 1_555 1_555
H6 C13 1_555 1_555
C14 C10 1_555 1_555
H7 C14 1_555 1_555
C15 C14 1_555 1_555
H8 C15 1_555 1_555
C16 C15 1_555 1_555
H9 C16 1_555 1_555
C17 C11 1_555 1_555
H10 C17 1_555 1_555
C18 C3 1_555 1_555
C19 C18 1_555 1_555
H11 C19 1_555 1_555
C20 C19 1_555 1_555
H12 C20 1_555 1_555
C21 C20 1_555 1_555
H13 C21 1_555 1_555
C22 C21 1_555 1_555
H14 C22 1_555 1_555
C23 C18 1_555 1_555
H15 C23 1_555 1_555
C24 C4 1_555 1_555
C25 C24 1_555 1_555
H16 C25 1_555 1_555
C26 C25 1_555 1_555
H17 C26 1_555 1_555
C27 C26 1_555 1_555
H18 C27 1_555 1_555
C28 C27 1_555 1_555
H19 C28 1_555 1_555
C29 C24 1_555 1_555
H20 C29 1_555 1_555
C30 C31 1_555 1_555
C31 C32 1_555 1_555
C32 C33 1_555 1_555
C33 N3 1_555 1_555
C34 N3 1_555 1_555
C35 C34 1_555 1_555
H21 C35 1_555 1_555
C36 C35 1_555 1_555
H22 C36 1_555 1_555
C37 C36 1_555 1_555
H23 C37 1_555 1_555
C38 N4 1_555 1_555
H24 C38 1_555 1_555
C39 C32 1_555 1_555
H25 C39 1_555 1_555
C40 C39 1_555 1_555
H26 C40 1_555 1_555
C41 C40 1_555 1_555
C42 C33 1_555 1_555
C43 C42 1_555 1_555
H27 C43 1_555 1_555
C44 C43 1_555 1_555
H28 C44 1_555 1_555
C45 C44 1_555 1_555
H29 C45 1_555 1_555
C46 C41 1_555 1_555
H30 C46 1_555 1_555
C47 C30 1_555 1_555
C48 C47 1_555 1_555
H31 C48 1_555 1_555
C49 C48 1_555 1_555
H32 C49 1_555 1_555
C50 C49 1_555 1_555
H33 C50 1_555 1_555
C51 C50 1_555 1_555
H34 C51 1_555 1_555
C52 C47 1_555 1_555
H35 C52 1_555 1_555
C53 C31 1_555 1_555
C54 C53 1_555 1_555
H36 C54 1_555 1_555
C55 C54 1_555 1_555
H37 C55 1_555 1_555
C56 C55 1_555 1_555
H38 C56 1_555 1_555
C57 C56 1_555 1_555
H39 C57 1_555 1_555
C58 C53 1_555 1_555
H40 C58 1_555 1_555
C8 C9 1_555 1_555
C12 C13 1_555 1_555
C16 C17 1_555 1_555
C22 C23 1_555 1_555
C28 C29 1_555 1_555
C37 C38 1_555 1_555
C41 C42 1_555 1_555
C45 C46 1_555 1_555
C51 C52 1_555 1_555
C57 C58 1_555 1_555

#END
