
#######################################################################
#
#                 Cambridge Crystallographic Data Centre
#                                CCDC 
#
#######################################################################
#
# If this CIF has been generated from an entry in the Cambridge 
# Structural Database, then it will include bibliographic, chemical, 
# crystal, experimental, refinement or atomic coordinate data resulting 
# from the CCDC's data processing and validation procedures.
#
#######################################################################

data_OQACAL
_chemical_formula_moiety         'C8 H16 N2 O4 S2'
_chemical_name_systematic        
N,N'-Hexa-1,5-diene-3,4-diyldimethanesulfonamide
_symmetry_cell_setting           triclinic
_symmetry_space_group_name_H-M   'P 1'
_symmetry_Int_Tables_number      1
_space_group_name_Hall           'P 1'
loop_
_symmetry_equiv_pos_site_id
_symmetry_equiv_pos_as_xyz
1 x,y,z
_cell_length_a                   8.089(3)
_cell_length_b                   9.221(4)
_cell_length_c                   9.805(4)
_cell_angle_alpha                70.49(3)
_cell_angle_beta                 68.96(2)
_cell_angle_gamma                73.73(3)
_cell_volume                     632.626
_exptl_crystal_colour            colorless
_exptl_crystal_description       block
_cell_formula_units_Z            2
loop_
_atom_site_label
_atom_site_type_symbol
_atom_site_fract_x
_atom_site_fract_y
_atom_site_fract_z
S1 S 0.4688(2) 0.1957(2) 0.5261(2)
S2 S -0.1068(3) 0.1567(2) 1.1364(2)
O1 O 0.5555(9) 0.3090(8) 0.5320(7)
O2 O 0.5729(9) 0.0419(8) 0.5220(7)
O3 O -0.1975(9) 0.3120(7) 1.1231(8)
O4 O -0.2072(9) 0.0411(7) 1.1596(7)
N1 N 0.2961(9) 0.1725(8) 0.6746(7)
H1 H 0.2725 0.0778 0.7221
N2 N 0.0614(10) 0.1469(8) 0.9893(8)
H2 H 0.0974 0.0595 0.9606
C1 C -0.0644(14) 0.2863(12) 0.6371(11)
H5 H 0.0110 0.2024 0.5956
H6 H -0.1828 0.3238 0.6277
C2 C -0.0051(14) 0.3501(12) 0.7070(11)
H7 H -0.0854 0.4336 0.7465
C3 C 0.1799(11) 0.3035(9) 0.7310(9)
H8 H 0.2414 0.3955 0.6743
C4 C 0.1591(12) 0.2770(11) 0.8994(9)
H9 H 0.0866 0.3739 0.9310
C5 C 0.3419(14) 0.2427(13) 0.9270(11)
H10 H 0.4269 0.1550 0.8992
C6 C 0.3881(18) 0.3253(15) 0.9858(14)
H11 H 0.3061 0.4137 1.0149
H12 H 0.5041 0.2977 1.0001
C7 C 0.3872(12) 0.2747(11) 0.3697(10)
H13 H 0.4876 0.2967 0.2775
H14 H 0.3013 0.3721 0.3804
H15 H 0.3267 0.2000 0.3632
C8 C -0.0129(16) 0.102(2) 1.2858(13)
H16 H 0.0794 0.1638 1.2602
H17 H 0.0420 -0.0097 1.3029
H18 H -0.1075 0.1195 1.3778
S3 S 0.3598(3) 0.7688(3) 0.4560(2)
S4 S 0.9723(3) 0.7989(2) -0.1306(2)
O5 O 0.2562(9) 0.6617(9) 0.4682(7)
O6 O 0.2674(9) 0.9210(8) 0.4732(8)
O7 O 1.0617(11) 0.6438(7) -0.1429(8)
O8 O 1.0806(8) 0.9128(7) -0.1600(6)
N3 N 0.5083(11) 0.7920(9) 0.2872(9)
H3 H 0.5479 0.8811 0.2433
N4 N 0.8355(11) 0.7909(8) 0.0366(8)
H4 H 0.7906 0.8790 0.0641
C9 C 0.388(3) 0.792(2) 0.039(2)
H19 H 0.3434 0.8747 0.0870
H20 H 0.3451 0.7944 -0.0404
C10 C 0.507(2) 0.6744(19) 0.0821(16)
H21 H 0.5510 0.5913 0.0341
C11 C 0.5756(13) 0.6690(12) 0.2087(11)
H22 H 0.5485 0.5702 0.2881
C12 C 0.7799(13) 0.6471(11) 0.1471(10)
H23 H 0.8205 0.5639 0.0917
C13 C 0.8644(12) 0.5889(11) 0.2743(11)
H24 H 0.8232 0.5020 0.3532
C14 C 0.9835(14) 0.6423(13) 0.2882(13)
H25 H 1.0298 0.7292 0.2127
H26 H 1.0268 0.5956 0.3741
C15 C 0.4710(13) 0.6855(11) 0.5929(12)
H27 H 0.3827 0.6659 0.6932
H28 H 0.5447 0.7570 0.5867
H29 H 0.5487 0.5864 0.5762
C16 C 0.8441(16) 0.8746(16) -0.2587(13)
H30 H 0.9248 0.8920 -0.3625
H31 H 0.7670 0.9740 -0.2424
H32 H 0.7689 0.8000 -0.2426
C17? C 0.466(3) 0.751(3) 0.092(3)
C18? C 0.451(5) 0.675(4) 0.006(4)
H33? H 0.4086 0.8580 0.0831
H34? H 0.5077 0.5686 0.0148
H35? H 0.3839 0.7265 -0.0640
loop_
_geom_bond_atom_site_label_1
_geom_bond_atom_site_label_2
_geom_bond_site_symmetry_1
_geom_bond_site_symmetry_2
S1 O1 1_555 1_555
S2 O3 1_555 1_555
S3 O5 1_555 1_555
S4 O7 1_555 1_555
O2 S1 1_555 1_555
O4 S2 1_555 1_555
O6 S3 1_555 1_555
O8 S4 1_555 1_555
N1 S1 1_555 1_555
H1 N1 1_555 1_555
N2 S2 1_555 1_555
H2 N2 1_555 1_555
N3 S3 1_555 1_555
H3 N3 1_555 1_555
N4 S4 1_555 1_555
H4 N4 1_555 1_555
C1 H5 1_555 1_555
H6 C1 1_555 1_555
C2 C1 1_555 1_555
H7 C2 1_555 1_555
C3 N1 1_555 1_555
H8 C3 1_555 1_555
C4 N2 1_555 1_555
H9 C4 1_555 1_555
C5 C4 1_555 1_555
H10 C5 1_555 1_555
C6 C5 1_555 1_555
H11 C6 1_555 1_555
H12 C6 1_555 1_555
C7 S1 1_555 1_555
H13 C7 1_555 1_555
H14 C7 1_555 1_555
H15 C7 1_555 1_555
C8 S2 1_555 1_555
H16 C8 1_555 1_555
H17 C8 1_555 1_555
H18 C8 1_555 1_555
C9 H19 1_555 1_555
H20 C9 1_555 1_555
C10 C9 1_555 1_555
H21 C10 1_555 1_555
C11 N3 1_555 1_555
H22 C11 1_555 1_555
C12 N4 1_555 1_555
H23 C12 1_555 1_555
C13 C12 1_555 1_555
H24 C13 1_555 1_555
C14 C13 1_555 1_555
H25 C14 1_555 1_555
H26 C14 1_555 1_555
C15 S3 1_555 1_555
H27 C15 1_555 1_555
H28 C15 1_555 1_555
H29 C15 1_555 1_555
C16 S4 1_555 1_555
H30 C16 1_555 1_555
H31 C16 1_555 1_555
H32 C16 1_555 1_555
C2 C3 1_555 1_555
C3 C4 1_555 1_555
C10 C11 1_555 1_555
C11 C12 1_555 1_555

#END
