
#######################################################################
#
#                 Cambridge Crystallographic Data Centre
#                                CCDC 
#
#######################################################################
#
# If this CIF has been generated from an entry in the Cambridge 
# Structural Database, then it will include bibliographic, chemical, 
# crystal, experimental, refinement or atomic coordinate data resulting 
# from the CCDC's data processing and validation procedures.
#
#######################################################################

data_OQAQON
_chemical_formula_moiety         'C28 H23 Cl2 N1 O4'
_chemical_name_systematic        
"(2S,6S)-Ethyl 2,6-bis(2-chlorophenyl)-2',4-dioxospiro[cyclohexane-1,3'-indole]-1'(2'H)-carboxylate"
_symmetry_cell_setting           orthorhombic
_symmetry_space_group_name_H-M   'P 21 21 21'
_symmetry_Int_Tables_number      19
_space_group_name_Hall           'P 2ac 2ab'
loop_
_symmetry_equiv_pos_site_id
_symmetry_equiv_pos_as_xyz
1 x,y,z
2 1/2-x,-y,1/2+z
3 -x,1/2+y,1/2-z
4 1/2+x,1/2-y,-z
_cell_length_a                   9.3609(17)
_cell_length_b                   11.697(2)
_cell_length_c                   22.151(4)
_cell_angle_alpha                90
_cell_angle_beta                 90
_cell_angle_gamma                90
_cell_volume                     2425.41
_exptl_crystal_colour            colorless
_exptl_crystal_description       block
_cell_formula_units_Z            4
loop_
_atom_site_label
_atom_site_type_symbol
_atom_site_fract_x
_atom_site_fract_y
_atom_site_fract_z
Cl1 Cl 0.74387(4) 0.77022(3) 0.626427(17)
Cl2 Cl 0.91831(5) 0.27693(4) 0.76631(2)
O1 O 0.34472(13) 0.57742(12) 0.79086(6)
O2 O 0.44040(12) 0.31075(9) 0.63969(5)
O3 O 0.52719(13) 0.13195(9) 0.57655(5)
O4 O 0.76097(15) 0.12261(10) 0.55588(6)
N1 N 0.66938(13) 0.28112(11) 0.60157(6)
C1 C 0.63776(17) 0.69258(12) 0.57589(7)
C2 C 0.63251(17) 0.73309(15) 0.51682(7)
H1 H 0.6856 0.7990 0.5056
C3 C 0.54973(19) 0.67693(16) 0.47468(8)
H2 H 0.5455 0.7038 0.4343
C4 C 0.47275(19) 0.58089(15) 0.49177(8)
H3 H 0.4163 0.5413 0.4629
C5 C 0.47813(18) 0.54265(14) 0.55084(8)
H4 H 0.4231 0.4777 0.5618
C6 C 0.56175(16) 0.59623(13) 0.59501(7)
C7 C 0.56263(16) 0.55528(13) 0.65998(7)
H5 H 0.6207 0.6122 0.6831
C8 C 0.63678(16) 0.43756(12) 0.66933(7)
C9 C 0.63467(16) 0.40205(13) 0.73812(7)
H6 H 0.6609 0.3192 0.7398
C10 C 0.48403(17) 0.41245(14) 0.76570(8)
H7 H 0.4250 0.3483 0.7506
H8 H 0.4919 0.4041 0.8101
C11 C 0.40745(16) 0.52308(15) 0.75216(8)
C12 C 0.41117(16) 0.55938(14) 0.68736(7)
H9 H 0.3738 0.6383 0.6841
H10 H 0.3475 0.5089 0.6636
C13 C 0.74681(17) 0.46578(12) 0.77455(6)
C14 C 0.72478(17) 0.57719(13) 0.79546(7)
H11 H 0.6346 0.6124 0.7890
C15 C 0.83008(19) 0.63773(14) 0.82526(8)
H12 H 0.8124 0.7137 0.8384
C16 C 0.96108(19) 0.58744(15) 0.83591(8)
H13 H 1.0341 0.6292 0.8559
C17 C 0.98567(18) 0.47716(15) 0.81754(8)
H14 H 1.0754 0.4421 0.8251
C18 C 0.87905(18) 0.41730(13) 0.78800(7)
C19 C 0.56423(16) 0.33817(13) 0.63587(7)
C20 C 0.80239(16) 0.34170(13) 0.60523(7)
C21 C 0.93038(18) 0.31965(15) 0.57629(7)
H15 H 0.9405 0.2566 0.5496
C22 C 1.04359(17) 0.39335(16) 0.58787(8)
H16 H 1.1336 0.3787 0.5696
C23 C 1.02898(17) 0.48718(15) 0.62509(8)
H17 H 1.1078 0.5369 0.6315
C24 C 0.89869(16) 0.50907(14) 0.65329(7)
H18 H 0.8876 0.5738 0.6787
C25 C 0.78581(15) 0.43491(12) 0.64359(6)
C26 C 0.65872(19) 0.17143(14) 0.57573(7)
C27 C 0.5149(2) 0.01217(14) 0.55773(8)
H19 H 0.5585 -0.0383 0.5885
H20 H 0.5657 0.0004 0.5190
C28 C 0.3610(2) -0.01611(17) 0.55048(9)
H21 H 0.3128 -0.0096 0.5896
H22 H 0.3515 -0.0945 0.5353
H23 H 0.3173 0.0371 0.5217
loop_
_geom_bond_atom_site_label_1
_geom_bond_atom_site_label_2
_geom_bond_site_symmetry_1
_geom_bond_site_symmetry_2
Cl1 C1 1_555 1_555
Cl2 C18 1_555 1_555
O1 C11 1_555 1_555
O2 C19 1_555 1_555
O3 C26 1_555 1_555
O4 C26 1_555 1_555
N1 C19 1_555 1_555
C1 C2 1_555 1_555
C2 H1 1_555 1_555
C3 C2 1_555 1_555
H2 C3 1_555 1_555
C4 C3 1_555 1_555
H3 C4 1_555 1_555
C5 C4 1_555 1_555
H4 C5 1_555 1_555
C6 C1 1_555 1_555
C7 C6 1_555 1_555
H5 C7 1_555 1_555
C8 C7 1_555 1_555
C9 C8 1_555 1_555
H6 C9 1_555 1_555
C10 C9 1_555 1_555
H7 C10 1_555 1_555
H8 C10 1_555 1_555
C11 C10 1_555 1_555
C12 C7 1_555 1_555
H9 C12 1_555 1_555
H10 C12 1_555 1_555
C13 C9 1_555 1_555
C14 C13 1_555 1_555
H11 C14 1_555 1_555
C15 C14 1_555 1_555
H12 C15 1_555 1_555
C16 C15 1_555 1_555
H13 C16 1_555 1_555
C17 C16 1_555 1_555
H14 C17 1_555 1_555
C18 C13 1_555 1_555
C19 C8 1_555 1_555
C20 N1 1_555 1_555
C21 C20 1_555 1_555
H15 C21 1_555 1_555
C22 C21 1_555 1_555
H16 C22 1_555 1_555
C23 C22 1_555 1_555
H17 C23 1_555 1_555
C24 C23 1_555 1_555
H18 C24 1_555 1_555
C25 C8 1_555 1_555
C26 N1 1_555 1_555
C27 O3 1_555 1_555
H19 C27 1_555 1_555
H20 C27 1_555 1_555
C28 C27 1_555 1_555
H21 C28 1_555 1_555
H22 C28 1_555 1_555
H23 C28 1_555 1_555
C5 C6 1_555 1_555
C11 C12 1_555 1_555
C17 C18 1_555 1_555
C20 C25 1_555 1_555
C24 C25 1_555 1_555

#END
