
#######################################################################
#
#                 Cambridge Crystallographic Data Centre
#                                CCDC 
#
#######################################################################
#
# If this CIF has been generated from an entry in the Cambridge 
# Structural Database, then it will include bibliographic, chemical, 
# crystal, experimental, refinement or atomic coordinate data resulting 
# from the CCDC's data processing and validation procedures.
#
#######################################################################

data_OQEDOF
_chemical_formula_moiety         'C56 H68 P2'
_chemical_name_systematic        
indeno[1,2-b]fluorene-6,12-diylidenebis((2,4,6-tri-t-butylphenyl)phosphine)
_symmetry_cell_setting           monoclinic
_symmetry_space_group_name_H-M   'C 2/c'
_symmetry_Int_Tables_number      15
_space_group_name_Hall           '-C 2yn'
loop_
_symmetry_equiv_pos_site_id
_symmetry_equiv_pos_as_xyz
1 x,y,z
2 -x,y,1/2-z
3 1/2+x,1/2+y,z
4 1/2-x,1/2+y,1/2-z
5 -x,-y,-z
6 x,-y,1/2+z
7 1/2-x,1/2-y,-z
8 1/2+x,1/2-y,1/2+z
_cell_length_a                   30.270(6)
_cell_length_b                   9.0060(18)
_cell_length_c                   17.970(4)
_cell_angle_alpha                90
_cell_angle_beta                 102.24(3)
_cell_angle_gamma                90
_cell_volume                     4787.47
_exptl_crystal_colour            orange
_exptl_crystal_description       block
_cell_formula_units_Z            4
loop_
_atom_site_label
_atom_site_type_symbol
_atom_site_fract_x
_atom_site_fract_y
_atom_site_fract_z
P1 P 0.15059(2) -0.04823(8) 0.37504(4)
C1 C 0.11795(8) 0.0274(3) 0.44266(14)
C2 C 0.11761(9) -0.0461(3) 0.51269(15)
C3 C 0.09522(9) 0.0221(3) 0.56328(15)
H1 H 0.0955 -0.0256 0.6106
C4 C 0.07239(9) 0.1562(3) 0.54855(15)
C5 C 0.07147(9) 0.2212(3) 0.47831(15)
H2 H 0.0554 0.3117 0.4666
C6 C 0.09297(8) 0.1603(3) 0.42389(14)
C7 C 0.14019(10) -0.1995(3) 0.53610(16)
C8 C 0.12347(12) -0.3163(3) 0.47439(19)
H3 H 0.1337 -0.2896 0.4279
H4 H 0.0904 -0.3200 0.4636
H5 H 0.1357 -0.4137 0.4923
C9 C 0.19202(11) -0.1882(4) 0.55276(19)
H6 H 0.2052 -0.2846 0.5706
H7 H 0.2021 -0.1131 0.5922
H8 H 0.2019 -0.1599 0.5062
C10 C 0.12770(13) -0.2592(4) 0.60921(19)
H9 H 0.0947 -0.2632 0.6023
H10 H 0.1402 -0.1932 0.6519
H11 H 0.1403 -0.3591 0.6200
C11 C 0.04590(9) 0.2208(3) 0.60551(16)
C12 C 0.07729(11) 0.2448(4) 0.68350(16)
H12 H 0.0984 0.3259 0.6801
H13 H 0.0943 0.1536 0.6993
H14 H 0.0592 0.2703 0.7210
C13 C 0.00901(10) 0.1083(4) 0.61474(18)
H15 H -0.0082 0.1474 0.6509
H16 H 0.0232 0.0141 0.6339
H17 H -0.0114 0.0920 0.5653
C14 C 0.02356(13) 0.3676(4) 0.57945(19)
H18 H 0.0071 0.4036 0.6174
H19 H 0.0024 0.3540 0.5305
H20 H 0.0467 0.4402 0.5736
C15 C 0.08570(9) 0.2432(3) 0.34581(15)
C16 C 0.06935(10) 0.1352(3) 0.27937(15)
H21 H 0.0611 0.1912 0.2317
H22 H 0.0429 0.0804 0.2881
H23 H 0.0936 0.0651 0.2760
C17 C 0.12829(10) 0.3252(3) 0.33441(17)
H24 H 0.1208 0.3870 0.2886
H25 H 0.1515 0.2526 0.3287
H26 H 0.1398 0.3882 0.3787
C18 C 0.04890(9) 0.3633(3) 0.33901(16)
H27 H 0.0587 0.4399 0.3777
H28 H 0.0208 0.3182 0.3467
H29 H 0.0438 0.4084 0.2883
C19 C 0.20040(9) 0.0432(3) 0.39356(14)
C20 C 0.22183(8) 0.1499(3) 0.45271(14)
C21 C 0.26439(8) 0.1918(3) 0.43878(14)
C22 C 0.27079(9) 0.1165(3) 0.36958(14)
C23 C 0.23284(9) 0.0264(3) 0.34254(14)
C24 C 0.22970(10) -0.0523(3) 0.27547(16)
H30 H 0.2042 -0.1134 0.2567
C25 C 0.26427(10) -0.0409(3) 0.23615(16)
H31 H 0.2624 -0.0951 0.1903
C26 C 0.30158(9) 0.0485(3) 0.26266(16)
H32 H 0.3248 0.0559 0.2345
C27 C 0.30525(9) 0.1277(3) 0.33039(15)
H33 H 0.3309 0.1881 0.3492
C28 C 0.20731(9) 0.2095(3) 0.51493(14)
H34 H 0.1788 0.1832 0.5253
P1F P 0.34941(2) 0.54823(8) 0.62496(4)
C1F C 0.38205(8) 0.4726(3) 0.55734(14)
C2F C 0.38239(9) 0.5461(3) 0.48731(15)
C3F C 0.40478(9) 0.4779(3) 0.43672(15)
H1F H 0.4045 0.5256 0.3894
C4F C 0.42761(9) 0.3438(3) 0.45145(15)
C5F C 0.42853(9) 0.2788(3) 0.52169(15)
H2F H 0.4446 0.1883 0.5334
C6F C 0.40703(8) 0.3397(3) 0.57611(14)
C7F C 0.35981(10) 0.6995(3) 0.46390(16)
C8F C 0.37653(12) 0.8163(3) 0.52561(19)
H3F H 0.3663 0.7896 0.5721
H4F H 0.4096 0.8200 0.5364
H5F H 0.3643 0.9137 0.5077
C9F C 0.30798(11) 0.6882(4) 0.44724(19)
H6F H 0.2948 0.7846 0.4294
H7F H 0.2979 0.6131 0.4078
H8F H 0.2981 0.6599 0.4938
C10F C 0.37230(13) 0.7592(4) 0.39079(19)
H9F H 0.4053 0.7632 0.3977
H10F H 0.3598 0.6932 0.3481
H11F H 0.3597 0.8591 0.3800
C11F C 0.45410(9) 0.2792(3) 0.39449(16)
C12F C 0.42271(11) 0.2552(4) 0.31650(16)
H12F H 0.4016 0.1741 0.3199
H13F H 0.4057 0.3464 0.3007
H14F H 0.4408 0.2297 0.2790
C13F C 0.49099(10) 0.3917(4) 0.38526(18)
H15F H 0.5082 0.3526 0.3491
H16F H 0.4768 0.4859 0.3661
H17F H 0.5114 0.4080 0.4347
C14F C 0.47644(13) 0.1324(4) 0.42055(19)
H18F H 0.4929 0.0964 0.3826
H19F H 0.4976 0.1460 0.4695
H20F H 0.4533 0.0598 0.4264
C15F C 0.41430(9) 0.2568(3) 0.65419(15)
C16F C 0.43065(10) 0.3648(3) 0.72063(15)
H21F H 0.4389 0.3088 0.7683
H22F H 0.4571 0.4196 0.7119
H23F H 0.4064 0.4349 0.7240
C17F C 0.37171(10) 0.1748(3) 0.66559(17)
H24F H 0.3792 0.1130 0.7114
H25F H 0.3485 0.2474 0.6713
H26F H 0.3602 0.1118 0.6213
C18F C 0.45110(9) 0.1367(3) 0.66099(16)
H27F H 0.4413 0.0601 0.6223
H28F H 0.4792 0.1818 0.6533
H29F H 0.4562 0.0916 0.7117
C19F C 0.29960(9) 0.4568(3) 0.60644(14)
C20F C 0.27817(8) 0.3501(3) 0.54729(14)
C21F C 0.23561(8) 0.3082(3) 0.56122(14)
C22F C 0.22921(9) 0.3835(3) 0.63042(14)
C23F C 0.26716(9) 0.4736(3) 0.65746(14)
C24F C 0.27030(10) 0.5523(3) 0.72453(16)
H30F H 0.2958 0.6134 0.7433
C25F C 0.23573(10) 0.5409(3) 0.76385(16)
H31F H 0.2376 0.5951 0.8097
C26F C 0.19842(9) 0.4515(3) 0.73734(16)
H32F H 0.1752 0.4441 0.7655
C27F C 0.19475(9) 0.3723(3) 0.66961(15)
H33F H 0.1691 0.3119 0.6508
C28F C 0.29269(9) 0.2905(3) 0.48507(14)
H34F H 0.3212 0.3168 0.4747
loop_
_geom_bond_atom_site_label_1
_geom_bond_atom_site_label_2
_geom_bond_site_symmetry_1
_geom_bond_site_symmetry_2
P1 C1 1_555 1_555
C1 C2 1_555 1_555
C2 C3 1_555 1_555
C3 H1 1_555 1_555
C4 C3 1_555 1_555
C5 C4 1_555 1_555
H2 C5 1_555 1_555
C6 C1 1_555 1_555
C7 C2 1_555 1_555
C8 C7 1_555 1_555
H3 C8 1_555 1_555
H4 C8 1_555 1_555
H5 C8 1_555 1_555
C9 C7 1_555 1_555
H6 C9 1_555 1_555
H7 C9 1_555 1_555
H8 C9 1_555 1_555
C10 C7 1_555 1_555
H9 C10 1_555 1_555
H10 C10 1_555 1_555
H11 C10 1_555 1_555
C11 C4 1_555 1_555
C12 C11 1_555 1_555
H12 C12 1_555 1_555
H13 C12 1_555 1_555
H14 C12 1_555 1_555
C13 C11 1_555 1_555
H15 C13 1_555 1_555
H16 C13 1_555 1_555
H17 C13 1_555 1_555
C14 C11 1_555 1_555
H18 C14 1_555 1_555
H19 C14 1_555 1_555
H20 C14 1_555 1_555
C15 C6 1_555 1_555
C16 C15 1_555 1_555
H21 C16 1_555 1_555
H22 C16 1_555 1_555
H23 C16 1_555 1_555
C17 C15 1_555 1_555
H24 C17 1_555 1_555
H25 C17 1_555 1_555
H26 C17 1_555 1_555
C18 C15 1_555 1_555
H27 C18 1_555 1_555
H28 C18 1_555 1_555
H29 C18 1_555 1_555
C19 P1 1_555 1_555
C20 C19 1_555 1_555
C21 C20 1_555 1_555
C22 C21 1_555 1_555
C23 C19 1_555 1_555
C24 C23 1_555 1_555
H30 C24 1_555 1_555
C25 C24 1_555 1_555
H31 C25 1_555 1_555
C26 C25 1_555 1_555
H32 C26 1_555 1_555
C27 C22 1_555 1_555
H33 C27 1_555 1_555
C28 C20 1_555 1_555
H34 C28 1_555 1_555
P1F C1F 1_555 1_555
C1F C2F 1_555 1_555
C2F C3F 1_555 1_555
C3F H1F 1_555 1_555
C4F C3F 1_555 1_555
C5F C4F 1_555 1_555
H2F C5F 1_555 1_555
C6F C1F 1_555 1_555
C7F C2F 1_555 1_555
C8F C7F 1_555 1_555
H3F C8F 1_555 1_555
H4F C8F 1_555 1_555
H5F C8F 1_555 1_555
C9F C7F 1_555 1_555
H6F C9F 1_555 1_555
H7F C9F 1_555 1_555
H8F C9F 1_555 1_555
C10F C7F 1_555 1_555
H9F C10F 1_555 1_555
H10F C10F 1_555 1_555
H11F C10F 1_555 1_555
C11F C4F 1_555 1_555
C12F C11F 1_555 1_555
H12F C12F 1_555 1_555
H13F C12F 1_555 1_555
H14F C12F 1_555 1_555
C13F C11F 1_555 1_555
H15F C13F 1_555 1_555
H16F C13F 1_555 1_555
H17F C13F 1_555 1_555
C14F C11F 1_555 1_555
H18F C14F 1_555 1_555
H19F C14F 1_555 1_555
H20F C14F 1_555 1_555
C15F C6F 1_555 1_555
C16F C15F 1_555 1_555
H21F C16F 1_555 1_555
H22F C16F 1_555 1_555
H23F C16F 1_555 1_555
C17F C15F 1_555 1_555
H24F C17F 1_555 1_555
H25F C17F 1_555 1_555
H26F C17F 1_555 1_555
C18F C15F 1_555 1_555
H27F C18F 1_555 1_555
H28F C18F 1_555 1_555
H29F C18F 1_555 1_555
C19F P1F 1_555 1_555
C20F C19F 1_555 1_555
C21F C28 1_555 1_555
C22F C21F 1_555 1_555
C23F C19F 1_555 1_555
C24F C23F 1_555 1_555
H30F C24F 1_555 1_555
C25F C24F 1_555 1_555
H31F C25F 1_555 1_555
C26F C25F 1_555 1_555
H32F C26F 1_555 1_555
C27F C22F 1_555 1_555
H33F C27F 1_555 1_555
C28F C21 1_555 1_555
H34F C28F 1_555 1_555
C5 C6 1_555 1_555
C22 C23 1_555 1_555
C26 C27 1_555 1_555
C5F C6F 1_555 1_555
C20F C21F 1_555 1_555
C20F C28F 1_555 1_555
C22F C23F 1_555 1_555
C26F C27F 1_555 1_555

#END
