
#######################################################################
#
#                 Cambridge Crystallographic Data Centre
#                                CCDC 
#
#######################################################################
#
# If this CIF has been generated from an entry in the Cambridge 
# Structural Database, then it will include bibliographic, chemical, 
# crystal, experimental, refinement or atomic coordinate data resulting 
# from the CCDC's data processing and validation procedures.
#
#######################################################################

data_OQEMAA
_chemical_formula_moiety         
'C84 H24 B12 F60 O12,0.996(H2 O1),1.818(C1 H1 Cl3)'
_chemical_name_systematic        
'dodecakis((pentafluorophenyl)methoxy)-closo-dodecaborane chloroform solvate hydrate'
_symmetry_cell_setting           rhombohedral
_symmetry_space_group_name_H-M   'R -3'
_symmetry_Int_Tables_number      148
_space_group_name_Hall           '-R 3'
loop_
_symmetry_equiv_pos_site_id
_symmetry_equiv_pos_as_xyz
1 x,y,z
2 -y,x-y,z
3 -x+y,-x,z
4 2/3+x,1/3+y,1/3+z
5 2/3-y,1/3+x-y,1/3+z
6 2/3-x+y,1/3-x,1/3+z
7 1/3+x,2/3+y,2/3+z
8 1/3-y,2/3+x-y,2/3+z
9 1/3-x+y,2/3-x,2/3+z
10 -x,-y,-z
11 y,-x+y,-z
12 x-y,x,-z
13 1/3-x,2/3-y,2/3-z
14 1/3+y,2/3-x+y,2/3-z
15 1/3+x-y,2/3+x,2/3-z
16 2/3-x,1/3-y,1/3-z
17 2/3+y,1/3-x+y,1/3-z
18 2/3+x-y,1/3+x,1/3-z
_cell_length_a                   14.7965(4)
_cell_length_b                   14.7965(4)
_cell_length_c                   38.3211(10)
_cell_angle_alpha                90
_cell_angle_beta                 90
_cell_angle_gamma                120
_cell_volume                     7265.85
_exptl_crystal_colour            red
_exptl_crystal_description       prism
_cell_formula_units_Z            3
loop_
_atom_site_label
_atom_site_type_symbol
_atom_site_fract_x
_atom_site_fract_y
_atom_site_fract_z
O1 O 0.37356(8) 0.48195(8) 0.68289(3)
O2 O 0.47085(8) 0.68754(7) 0.73122(2)
B1 B 0.36029(12) 0.56766(12) 0.67681(4)
B2 B 0.41479(12) 0.68351(12) 0.70210(4)
F1 F 0.57169(9) 0.54459(8) 0.75571(3)
F2 F 0.55142(9) 0.39996(8) 0.80281(2)
F3 F 0.43250(9) 0.19445(8) 0.78785(2)
F4 F 0.33571(10) 0.13274(8) 0.72533(3)
F5 F 0.35540(9) 0.27685(7) 0.67778(2)
F6 F 0.74311(8) 0.85700(9) 0.73793(2)
F7 F 0.86980(8) 0.83126(10) 0.78222(3)
F8 F 0.79257(8) 0.72763(8) 0.84359(2)
F9 F 0.58964(8) 0.64990(7) 0.85989(2)
F10 F 0.46235(7) 0.67801(8) 0.81576(3)
C1 C 0.51391(12) 0.44339(12) 0.74719(4)
C2 C 0.46507(11) 0.41481(12) 0.71491(4)
C3 C 0.40447(13) 0.30876(12) 0.70848(4)
C4 C 0.39360(14) 0.23449(12) 0.73246(4)
C5 C 0.44410(13) 0.26595(13) 0.76416(4)
C6 C 0.50438(12) 0.37022(13) 0.77171(4)
C7 C 0.70306(13) 0.80512(13) 0.76795(4)
C8 C 0.76918(13) 0.79226(14) 0.79020(4)
C9 C 0.73017(13) 0.73926(12) 0.82111(4)
C10 C 0.62603(13) 0.69930(11) 0.82940(4)
C11 C 0.56236(12) 0.71422(11) 0.80677(4)
C12 C 0.59903(12) 0.76787(11) 0.77555(4)
C13 C 0.47503(11) 0.49366(12) 0.68808(4)
H1 H 0.5246 0.5651 0.6963
H2 H 0.5016 0.4818 0.6659
C14 C 0.52808(12) 0.78255(12) 0.75114(4)
H3 H 0.4793 0.7968 0.7645
H4 H 0.5694 0.8423 0.7354
O1A O 0.51805(8) 0.89161(11) 0.68289(3)
O2A O 0.31246(7) 0.78331(11) 0.73122(2)
B1A B 0.43234(12) 0.79263(17) 0.67681(4)
B2A B 0.31649(12) 0.73128(17) 0.70210(4)
F1A F 0.45541(8) 1.02710(12) 0.75571(3)
F2A F 0.60004(8) 1.15146(12) 0.80281(2)
F3A F 0.80555(8) 1.23805(12) 0.78785(2)
F4A F 0.86726(8) 1.20297(13) 0.72533(3)
F5A F 0.72315(7) 1.07855(11) 0.67778(2)
F6A F 0.14300(9) 0.88611(12) 0.73793(2)
F7A F 0.16874(10) 1.03854(13) 0.78222(3)
F8A F 0.27237(8) 1.06494(11) 0.84359(2)
F9A F 0.35010(7) 0.93974(11) 0.85989(2)
F10A F 0.32199(8) 0.78434(11) 0.81576(3)
C1A C 0.55661(12) 1.07052(17) 0.74719(4)
C2A C 0.58519(12) 1.05026(16) 0.71491(4)
C3A C 0.69124(12) 1.09571(18) 0.70848(4)
C4A C 0.76551(12) 1.15911(18) 0.73246(4)
C5A C 0.73405(13) 1.17815(18) 0.76416(4)
C6A C 0.62978(13) 1.13416(18) 0.77171(4)
C7A C 0.19488(13) 0.89794(18) 0.76795(4)
C8A C 0.20774(14) 0.97692(19) 0.79020(4)
C9A C 0.26074(12) 0.99091(18) 0.82111(4)
C10A C 0.30070(11) 0.92673(17) 0.82940(4)
C11A C 0.28578(11) 0.84814(16) 0.80677(4)
C12A C 0.23213(11) 0.83116(16) 0.77555(4)
C13A C 0.50634(12) 0.98137(16) 0.68808(4)
H1A H 0.4349 0.9595 0.6963
H2A H 0.5182 1.0198 0.6659
C14A C 0.21745(12) 0.74553(17) 0.75114(4)
H3A H 0.2032 0.6825 0.7645
H4A H 0.1577 0.7271 0.7354
O1B O 0.10839(11) 0.62644(8) 0.68289(3)
O2B O 0.21669(11) 0.52915(8) 0.73122(2)
B1B B 0.20737(17) 0.63971(12) 0.67681(4)
B2B B 0.26872(17) 0.58521(12) 0.70210(4)
F1B F -0.02710(12) 0.42831(9) 0.75571(3)
F2B F -0.15146(12) 0.44858(9) 0.80281(2)
F3B F -0.23805(12) 0.56750(9) 0.78785(2)
F4B F -0.20297(13) 0.66429(10) 0.72533(3)
F5B F -0.07855(11) 0.64460(9) 0.67778(2)
F6B F 0.11389(12) 0.25689(8) 0.73793(2)
F7B F -0.03854(13) 0.13020(8) 0.78222(3)
F8B F -0.06494(11) 0.20743(8) 0.84359(2)
F9B F 0.06026(11) 0.41036(8) 0.85989(2)
F10B F 0.21566(11) 0.53765(7) 0.81576(3)
C1B C -0.07052(17) 0.48609(12) 0.74719(4)
C2B C -0.05026(16) 0.53493(11) 0.71491(4)
C3B C -0.09571(18) 0.59553(13) 0.70848(4)
C4B C -0.15911(18) 0.60640(14) 0.73246(4)
C5B C -0.17815(18) 0.55590(13) 0.76416(4)
C6B C -0.13416(18) 0.49562(12) 0.77171(4)
C7B C 0.10206(18) 0.29694(13) 0.76795(4)
C8B C 0.02308(19) 0.23082(13) 0.79020(4)
C9B C 0.00909(18) 0.26983(13) 0.82111(4)
C10B C 0.07327(17) 0.37397(13) 0.82940(4)
C11B C 0.15186(16) 0.43764(12) 0.80677(4)
C12B C 0.16884(16) 0.40097(12) 0.77555(4)
C13B C 0.01863(16) 0.52497(11) 0.68808(4)
H1B H 0.0405 0.4754 0.6963
H2B H -0.0198 0.4984 0.6659
C14B C 0.25447(17) 0.47192(12) 0.75114(4)
H3B H 0.3175 0.5207 0.7645
H4B H 0.2729 0.4306 0.7354
O1O O 0.29311(8) 0.85138(8) 0.65044(3)
O2O O 0.19582(8) 0.64579(7) 0.60211(2)
B1O B 0.30638(12) 0.76567(12) 0.65652(4)
B2O B 0.25188(12) 0.64982(12) 0.63123(4)
F1O F 0.09498(9) 0.78874(8) 0.57762(3)
F2O F 0.11525(9) 0.93337(8) 0.53052(2)
F3O F 0.23417(9) 1.13888(8) 0.54548(2)
F4O F 0.33096(10) 1.20059(8) 0.60800(3)
F5O F 0.31127(9) 1.05648(7) 0.65555(2)
F6O F -0.07644(8) 0.47633(9) 0.59540(2)
F7O F -0.20313(8) 0.50207(10) 0.55111(3)
F8O F -0.12590(8) 0.60570(8) 0.48974(2)
F9O F 0.07703(8) 0.68343(7) 0.47344(2)
F10O F 0.20432(7) 0.65532(8) 0.51757(3)
C1O C 0.15276(12) 0.88994(12) 0.58614(4)
C2O C 0.20160(11) 0.91852(12) 0.61842(4)
C3O C 0.26220(13) 1.02457(12) 0.62485(4)
C4O C 0.27307(14) 1.09884(12) 0.60087(4)
C5O C 0.22257(13) 1.06738(13) 0.56917(4)
C6O C 0.16229(12) 0.96311(13) 0.56162(4)
C7O C -0.03639(13) 0.52821(13) 0.56538(4)
C8O C -0.10251(13) 0.54107(14) 0.54313(4)
C9O C -0.06350(13) 0.59407(12) 0.51222(4)
C10O C 0.04064(13) 0.63403(11) 0.50393(4)
C11O C 0.10431(12) 0.61911(11) 0.52656(4)
C12O C 0.06764(12) 0.56546(11) 0.55778(4)
C13O C 0.19164(11) 0.83967(12) 0.64525(4)
H1O H 0.1421 0.7682 0.6370
H2O H 0.1651 0.8515 0.6674
C14O C 0.13859(12) 0.55078(12) 0.58219(4)
H3O H 0.1874 0.5365 0.5688
H4O H 0.0973 0.4910 0.5979
O1P O 0.14862(8) 0.44172(11) 0.65044(3)
O2P O 0.35421(7) 0.55002(11) 0.60211(2)
B1P B 0.23433(12) 0.54070(17) 0.65652(4)
B2P B 0.35018(12) 0.60205(17) 0.63123(4)
F1P F 0.21126(8) 0.30623(12) 0.57762(3)
F2P F 0.06663(8) 0.18187(12) 0.53052(2)
F3P F -0.13888(8) 0.09528(12) 0.54548(2)
F4P F -0.20059(8) 0.13036(13) 0.60800(3)
F5P F -0.05648(7) 0.25478(11) 0.65555(2)
F6P F 0.52367(9) 0.44722(12) 0.59540(2)
F7P F 0.49793(10) 0.29479(13) 0.55111(3)
F8P F 0.39430(8) 0.26839(11) 0.48974(2)
F9P F 0.31657(7) 0.39359(11) 0.47344(2)
F10P F 0.34468(8) 0.54899(11) 0.51757(3)
C1P C 0.11006(12) 0.26281(17) 0.58614(4)
C2P C 0.08148(12) 0.28307(16) 0.61842(4)
C3P C -0.02457(12) 0.23762(18) 0.62485(4)
C4P C -0.09884(12) 0.17422(18) 0.60087(4)
C5P C -0.06738(13) 0.15518(18) 0.56917(4)
C6P C 0.03689(13) 0.19917(18) 0.56162(4)
C7P C 0.47179(13) 0.43539(18) 0.56538(4)
C8P C 0.45893(14) 0.35641(19) 0.54313(4)
C9P C 0.40593(12) 0.34242(18) 0.51222(4)
C10P C 0.36597(11) 0.40660(17) 0.50393(4)
C11P C 0.38089(11) 0.48519(16) 0.52656(4)
C12P C 0.43454(11) 0.50217(16) 0.55778(4)
C13P C 0.16033(12) 0.35196(16) 0.64525(4)
H1P H 0.2318 0.3738 0.6370
H2P H 0.1485 0.3135 0.6674
C14P C 0.44922(12) 0.58780(17) 0.58219(4)
H3P H 0.4635 0.6508 0.5688
H4P H 0.5090 0.6062 0.5979
O1Q O 0.55828(11) 0.70689(8) 0.65044(3)
O2Q O 0.44998(11) 0.80418(8) 0.60211(2)
B1Q B 0.45930(17) 0.69362(12) 0.65652(4)
B2Q B 0.39795(17) 0.74812(12) 0.63123(4)
F1Q F 0.69377(12) 0.90502(9) 0.57762(3)
F2Q F 0.81813(12) 0.88475(9) 0.53052(2)
F3Q F 0.90472(12) 0.76583(9) 0.54548(2)
F4Q F 0.86964(13) 0.66904(10) 0.60800(3)
F5Q F 0.74522(11) 0.68873(9) 0.65555(2)
F6Q F 0.55278(12) 1.07644(8) 0.59540(2)
F7Q F 0.70521(13) 1.20313(8) 0.55111(3)
F8Q F 0.73161(11) 1.12590(8) 0.48974(2)
F9Q F 0.60641(11) 0.92297(8) 0.47344(2)
F10Q F 0.45101(11) 0.79568(7) 0.51757(3)
C1Q C 0.73719(17) 0.84724(12) 0.58614(4)
C2Q C 0.71693(16) 0.79840(11) 0.61842(4)
C3Q C 0.76238(18) 0.73780(13) 0.62485(4)
C4Q C 0.82578(18) 0.72693(14) 0.60087(4)
C5Q C 0.84482(18) 0.77743(13) 0.56917(4)
C6Q C 0.80083(18) 0.83771(12) 0.56162(4)
C7Q C 0.56461(18) 1.03639(13) 0.56538(4)
C8Q C 0.64359(19) 1.10251(13) 0.54313(4)
C9Q C 0.65758(18) 1.06350(13) 0.51222(4)
C10Q C 0.59340(17) 0.95936(13) 0.50393(4)
C11Q C 0.51481(16) 0.89569(12) 0.52656(4)
C12Q C 0.49783(16) 0.93236(12) 0.55778(4)
C13Q C 0.64804(16) 0.80836(11) 0.64525(4)
H1Q H 0.6262 0.8579 0.6370
H2Q H 0.6865 0.8349 0.6674
C14Q C 0.41220(17) 0.86141(12) 0.58219(4)
H3Q H 0.3492 0.8126 0.5688
H4Q H 0.3938 0.9027 0.5979
O3 O 0.0000 0.0000 0.62445(9)
Cl2 Cl 0.12401(16) 0.09576(12) 0.68027(7)
C16 C 0.0000 0.0000 0.69490(16)
H6 H 0.0000 0.0000 0.7210
Cl2A Cl -0.09576(12) 0.02825(20) 0.68027(7)
Cl2B Cl -0.02825(20) -0.12401(16) 0.68027(7)
Cl1? Cl 0.1208(7) 0.0774(11) 0.6868(3)
C15? C 0.0000 0.0000 0.6717(7)
H5? H 0.0000 0.0000 0.6456
loop_
_geom_bond_atom_site_label_1
_geom_bond_atom_site_label_2
_geom_bond_site_symmetry_1
_geom_bond_site_symmetry_2
O1 B1 1_555 1_555
O2 B2 1_555 1_555
B1 B2 1_555 1_555
B2 B1A 1_555 1_555
F1 C1 1_555 1_555
F2 C6 1_555 1_555
F3 C5 1_555 1_555
F4 C4 1_555 1_555
F5 C3 1_555 1_555
F6 C7 1_555 1_555
F7 C8 1_555 1_555
F8 C9 1_555 1_555
F9 C10 1_555 1_555
F10 C11 1_555 1_555
C1 C2 1_555 1_555
C2 C3 1_555 1_555
C3 C4 1_555 1_555
C4 C5 1_555 1_555
C5 C6 1_555 1_555
C6 C1 1_555 1_555
C7 C8 1_555 1_555
C8 C9 1_555 1_555
C9 C10 1_555 1_555
C10 C11 1_555 1_555
C11 C12 1_555 1_555
C12 C7 1_555 1_555
C13 O1 1_555 1_555
H1 C13 1_555 1_555
H2 C13 1_555 1_555
C14 O2 1_555 1_555
H3 C14 1_555 1_555
H4 C14 1_555 1_555
Cl2 C16 1_555 1_555
C16 H6 1_555 1_555
O1A B1A 1_555 1_555
O2A B2A 1_555 1_555
B1A B2A 1_555 1_555
B2A B2 1_555 1_555
F1A C1A 1_555 1_555
F2A C6A 1_555 1_555
F3A C5A 1_555 1_555
F4A C4A 1_555 1_555
F5A C3A 1_555 1_555
F6A C7A 1_555 1_555
F7A C8A 1_555 1_555
F8A C9A 1_555 1_555
F9A C10A 1_555 1_555
F10A C11A 1_555 1_555
C1A C2A 1_555 1_555
C2A C3A 1_555 1_555
C3A C4A 1_555 1_555
C4A C5A 1_555 1_555
C5A C6A 1_555 1_555
C6A C1A 1_555 1_555
C7A C8A 1_555 1_555
C8A C9A 1_555 1_555
C9A C10A 1_555 1_555
C10A C11A 1_555 1_555
C11A C12A 1_555 1_555
C12A C7A 1_555 1_555
C13A O1A 1_555 1_555
H1A C13A 1_555 1_555
H2A C13A 1_555 1_555
C14A O2A 1_555 1_555
H3A C14A 1_555 1_555
H4A C14A 1_555 1_555
O1B B1B 1_555 1_555
O2B B2B 1_555 1_555
B1B B2A 1_555 1_555
B2B B1 1_555 1_555
F1B C1B 1_555 1_555
F2B C6B 1_555 1_555
F3B C5B 1_555 1_555
F4B C4B 1_555 1_555
F5B C3B 1_555 1_555
F6B C7B 1_555 1_555
F7B C8B 1_555 1_555
F8B C9B 1_555 1_555
F9B C10B 1_555 1_555
F10B C11B 1_555 1_555
C1B C2B 1_555 1_555
C2B C3B 1_555 1_555
C3B C4B 1_555 1_555
C4B C5B 1_555 1_555
C5B C6B 1_555 1_555
C6B C1B 1_555 1_555
C7B C8B 1_555 1_555
C8B C9B 1_555 1_555
C9B C10B 1_555 1_555
C10B C11B 1_555 1_555
C11B C12B 1_555 1_555
C12B C7B 1_555 1_555
C13B O1B 1_555 1_555
H1B C13B 1_555 1_555
H2B C13B 1_555 1_555
C14B O2B 1_555 1_555
H3B C14B 1_555 1_555
H4B C14B 1_555 1_555
O1O B1O 1_555 1_555
O2O B2O 1_555 1_555
B1O B1A 1_555 1_555
B2O B1B 1_555 1_555
F1O C1O 1_555 1_555
F2O C6O 1_555 1_555
F3O C5O 1_555 1_555
F4O C4O 1_555 1_555
F5O C3O 1_555 1_555
F6O C7O 1_555 1_555
F7O C8O 1_555 1_555
F8O C9O 1_555 1_555
F9O C10O 1_555 1_555
F10O C11O 1_555 1_555
C1O C2O 1_555 1_555
C2O C3O 1_555 1_555
C3O C4O 1_555 1_555
C4O C5O 1_555 1_555
C5O C6O 1_555 1_555
C6O C1O 1_555 1_555
C7O C8O 1_555 1_555
C8O C9O 1_555 1_555
C9O C10O 1_555 1_555
C10O C11O 1_555 1_555
C11O C12O 1_555 1_555
C12O C7O 1_555 1_555
C13O O1O 1_555 1_555
H1O C13O 1_555 1_555
H2O C13O 1_555 1_555
C14O O2O 1_555 1_555
H3O C14O 1_555 1_555
H4O C14O 1_555 1_555
O1P B1P 1_555 1_555
O2P B2P 1_555 1_555
B1P B1 1_555 1_555
B2P B1 1_555 1_555
F1P C1P 1_555 1_555
F2P C6P 1_555 1_555
F3P C5P 1_555 1_555
F4P C4P 1_555 1_555
F5P C3P 1_555 1_555
F6P C7P 1_555 1_555
F7P C8P 1_555 1_555
F8P C9P 1_555 1_555
F9P C10P 1_555 1_555
F10P C11P 1_555 1_555
C1P C2P 1_555 1_555
C2P C3P 1_555 1_555
C3P C4P 1_555 1_555
C4P C5P 1_555 1_555
C5P C6P 1_555 1_555
C6P C1P 1_555 1_555
C7P C8P 1_555 1_555
C8P C9P 1_555 1_555
C9P C10P 1_555 1_555
C10P C11P 1_555 1_555
C11P C12P 1_555 1_555
C12P C7P 1_555 1_555
C13P O1P 1_555 1_555
H1P C13P 1_555 1_555
H2P C13P 1_555 1_555
C14P O2P 1_555 1_555
H3P C14P 1_555 1_555
H4P C14P 1_555 1_555
O1Q B1Q 1_555 1_555
O2Q B2Q 1_555 1_555
B1Q B1 1_555 1_555
B2Q B1A 1_555 1_555
F1Q C1Q 1_555 1_555
F2Q C6Q 1_555 1_555
F3Q C5Q 1_555 1_555
F4Q C4Q 1_555 1_555
F5Q C3Q 1_555 1_555
F6Q C7Q 1_555 1_555
F7Q C8Q 1_555 1_555
F8Q C9Q 1_555 1_555
F9Q C10Q 1_555 1_555
F10Q C11Q 1_555 1_555
C1Q C2Q 1_555 1_555
C2Q C3Q 1_555 1_555
C3Q C4Q 1_555 1_555
C4Q C5Q 1_555 1_555
C5Q C6Q 1_555 1_555
C6Q C1Q 1_555 1_555
C7Q C8Q 1_555 1_555
C8Q C9Q 1_555 1_555
C9Q C10Q 1_555 1_555
C10Q C11Q 1_555 1_555
C11Q C12Q 1_555 1_555
C12Q C7Q 1_555 1_555
C13Q O1Q 1_555 1_555
H1Q C13Q 1_555 1_555
H2Q C13Q 1_555 1_555
C14Q O2Q 1_555 1_555
H3Q C14Q 1_555 1_555
H4Q C14Q 1_555 1_555
Cl2A C16 1_555 1_555
Cl2B C16 1_555 1_555
B2 B2B 1_555 1_555
B2 B1Q 1_555 1_555
C2 C13 1_555 1_555
C12 C14 1_555 1_555
B1A B1Q 1_555 1_555
B2A B2B 1_555 1_555
B2A B1O 1_555 1_555
C2A C13A 1_555 1_555
C12A C14A 1_555 1_555
B1B B2B 1_555 1_555
B1B B1O 1_555 1_555
B1B B1P 1_555 1_555
B2B B1P 1_555 1_555
C2B C13B 1_555 1_555
C12B C14B 1_555 1_555
B1O B2O 1_555 1_555
B1O B2Q 1_555 1_555
B2O B1P 1_555 1_555
B2O B2P 1_555 1_555
B2O B2Q 1_555 1_555
C2O C13O 1_555 1_555
C12O C14O 1_555 1_555
B1P B2P 1_555 1_555
B2P B1Q 1_555 1_555
B2P B2Q 1_555 1_555
C2P C13P 1_555 1_555
C12P C14P 1_555 1_555
B1Q B2Q 1_555 1_555
C2Q C13Q 1_555 1_555
C12Q C14Q 1_555 1_555

#END
