
#######################################################################
#
#                 Cambridge Crystallographic Data Centre
#                                CCDC 
#
#######################################################################
#
# If this CIF has been generated from an entry in the Cambridge 
# Structural Database, then it will include bibliographic, chemical, 
# crystal, experimental, refinement or atomic coordinate data resulting 
# from the CCDC's data processing and validation procedures.
#
#######################################################################

data_OQEQEH
_chemical_formula_moiety         'C32 H32 Cl1 N1 O7'
_chemical_name_systematic        
'(2R,4R,5R)-4-t-Butyl 2-methyl 1-benzoyl-4-((benzoyloxy)methyl)-5-(4-chlorophenyl)pyrrolidine-2,4-dicarboxylate'
_symmetry_cell_setting           orthorhombic
_symmetry_space_group_name_H-M   'P 21 21 2'
_symmetry_Int_Tables_number      18
_space_group_name_Hall           'P 2 2ab'
loop_
_symmetry_equiv_pos_site_id
_symmetry_equiv_pos_as_xyz
1 x,y,z
2 -x,-y,z
3 1/2-x,1/2+y,-z
4 1/2+x,1/2-y,-z
_cell_length_a                   19.401(3)
_cell_length_b                   24.000(3)
_cell_length_c                   6.6143(9)
_cell_angle_alpha                90
_cell_angle_beta                 90
_cell_angle_gamma                90
_cell_volume                     3079.78
_exptl_crystal_description       block
_cell_formula_units_Z            4
loop_
_atom_site_label
_atom_site_type_symbol
_atom_site_fract_x
_atom_site_fract_y
_atom_site_fract_z
C1 C 1.07478(14) 0.64911(11) 0.6625(5)
C2 C 1.01317(13) 0.65238(11) 0.7594(4)
H1 H 1.0096 0.6420 0.8944
C3 C 0.95609(12) 0.67120(10) 0.6566(4)
H2 H 0.9141 0.6738 0.7236
C4 C 0.96016(10) 0.68616(8) 0.4561(3)
C5 C 1.02327(11) 0.68110(9) 0.3598(4)
H3 H 1.0269 0.6901 0.2235
C6 C 1.08095(12) 0.66280(10) 0.4632(6)
H4 H 1.1233 0.6599 0.3980
C7 C 0.89882(9) 0.70739(7) 0.3376(3)
H5 H 0.9039 0.6960 0.1961
C8 C 0.88823(9) 0.77222(7) 0.3459(3)
C9 C 0.83852(10) 0.77995(7) 0.5214(3)
H6 H 0.8142 0.8151 0.5103
H7 H 0.8628 0.7789 0.6496
C10 C 0.78865(9) 0.73092(7) 0.5030(3)
H8 H 0.7506 0.7404 0.4118
C11 C 0.76122(10) 0.71512(8) 0.7086(3)
C12 C 0.66563(12) 0.72418(12) 0.9262(4)
H9 H 0.6783 0.6880 0.9759
H10 H 0.6164 0.7263 0.9130
H11 H 0.6811 0.7522 1.0193
C13 C 0.80511(11) 0.63575(8) 0.3969(3)
C14 C 0.84780(11) 0.58923(8) 0.3134(4)
C15 C 0.85880(15) 0.54440(10) 0.4392(5)
H12 H 0.8439 0.5455 0.5727
C16 C 0.89198(19) 0.49798(12) 0.3661(7)
H13 H 0.9003 0.4680 0.4519
C17 C 0.91269(18) 0.49525(13) 0.1704(8)
H14 H 0.9345 0.4634 0.1222
C18 C 0.90131(16) 0.53950(12) 0.0441(6)
H15 H 0.9151 0.5378 -0.0904
C19 C 0.86921(13) 0.58674(10) 0.1174(4)
H16 H 0.8622 0.6171 0.0324
C20 C 0.85593(11) 0.79078(8) 0.1471(3)
H17 H 0.8865 0.7828 0.0347
H18 H 0.8124 0.7719 0.1247
C21 C 0.81332(11) 0.87606(9) 0.0181(3)
C22 C 0.80956(11) 0.93678(9) 0.0538(4)
C23 C 0.81529(13) 0.95898(10) 0.2448(4)
H19 H 0.8231 0.9356 0.3546
C24 C 0.80947(15) 1.01573(11) 0.2748(6)
H20 H 0.8119 1.0305 0.4047
C25 C 0.80023(17) 1.04979(12) 0.1134(7)
H21 H 0.7965 1.0880 0.1340
C26 C 0.79631(17) 1.02922(13) -0.0777(6)
H22 H 0.7919 1.0533 -0.1870
C27 C 0.79895(14) 0.97164(12) -0.1094(5)
H23 H 0.7936 0.9570 -0.2386
C28 C 0.95587(11) 0.80367(8) 0.3654(3)
C29 C 1.01751(12) 0.86864(11) 0.5877(4)
C30 C 1.08047(14) 0.83336(16) 0.6152(6)
H24 H 1.0705 0.8037 0.7081
H25 H 1.1173 0.8558 0.6678
H26 H 1.0939 0.8179 0.4872
C31 C 0.99493(17) 0.89416(15) 0.7854(5)
H27 H 0.9518 0.9130 0.7668
H28 H 1.0291 0.9203 0.8303
H29 H 0.9896 0.8654 0.8849
C32 C 1.02521(19) 0.91288(13) 0.4274(6)
H30 H 1.0413 0.8961 0.3044
H31 H 1.0578 0.9404 0.4719
H32 H 0.9814 0.9303 0.4038
Cl1 Cl 1.14719(4) 0.62573(4) 0.79315(19)
N1 N 0.83186(8) 0.68736(6) 0.4135(2)
O1 O 0.79392(7) 0.69215(6) 0.8384(2)
O2 O 0.69729(7) 0.73328(6) 0.7311(2)
O3 O 0.99948(8) 0.80264(7) 0.2361(2)
O4 O 0.95849(7) 0.83235(6) 0.5363(2)
O5 O 0.84548(8) 0.84983(5) 0.1676(2)
O6 O 0.79037(11) 0.85174(8) -0.1254(3)
O7 O 0.74660(8) 0.62672(6) 0.4568(3)
loop_
_geom_bond_atom_site_label_1
_geom_bond_atom_site_label_2
_geom_bond_site_symmetry_1
_geom_bond_site_symmetry_2
C1 C2 1_555 1_555
C2 H1 1_555 1_555
C3 C2 1_555 1_555
H2 C3 1_555 1_555
C4 C3 1_555 1_555
C5 C4 1_555 1_555
H3 C5 1_555 1_555
C6 C1 1_555 1_555
H4 C6 1_555 1_555
C7 C4 1_555 1_555
H5 C7 1_555 1_555
C8 C7 1_555 1_555
C9 C8 1_555 1_555
H6 C9 1_555 1_555
H7 C9 1_555 1_555
C10 C9 1_555 1_555
H8 C10 1_555 1_555
C11 C10 1_555 1_555
C12 H9 1_555 1_555
H10 C12 1_555 1_555
H11 C12 1_555 1_555
C13 C14 1_555 1_555
C14 C15 1_555 1_555
C15 H12 1_555 1_555
C16 C15 1_555 1_555
H13 C16 1_555 1_555
C17 C16 1_555 1_555
H14 C17 1_555 1_555
C18 C17 1_555 1_555
H15 C18 1_555 1_555
C19 C14 1_555 1_555
H16 C19 1_555 1_555
C20 C8 1_555 1_555
H17 C20 1_555 1_555
H18 C20 1_555 1_555
C21 C22 1_555 1_555
C22 C23 1_555 1_555
C23 H19 1_555 1_555
C24 C23 1_555 1_555
H20 C24 1_555 1_555
C25 C24 1_555 1_555
H21 C25 1_555 1_555
C26 C25 1_555 1_555
H22 C26 1_555 1_555
C27 C22 1_555 1_555
H23 C27 1_555 1_555
C28 C8 1_555 1_555
C29 C30 1_555 1_555
C30 H24 1_555 1_555
H25 C30 1_555 1_555
H26 C30 1_555 1_555
C31 C29 1_555 1_555
H27 C31 1_555 1_555
H28 C31 1_555 1_555
H29 C31 1_555 1_555
C32 C29 1_555 1_555
H30 C32 1_555 1_555
H31 C32 1_555 1_555
H32 C32 1_555 1_555
Cl1 C1 1_555 1_555
N1 C7 1_555 1_555
O1 C11 1_555 1_555
O2 C11 1_555 1_555
O3 C28 1_555 1_555
O4 C28 1_555 1_555
O5 C20 1_555 1_555
O6 C21 1_555 1_555
O7 C13 1_555 1_555
C5 C6 1_555 1_555
C10 N1 1_555 1_555
C12 O2 1_555 1_555
C13 N1 1_555 1_555
C18 C19 1_555 1_555
C21 O5 1_555 1_555
C26 C27 1_555 1_555
C29 O4 1_555 1_555

#END
