
#######################################################################
#
#                 Cambridge Crystallographic Data Centre
#                                CCDC 
#
#######################################################################
#
# If this CIF has been generated from an entry in the Cambridge 
# Structural Database, then it will include bibliographic, chemical, 
# crystal, experimental, refinement or atomic coordinate data resulting 
# from the CCDC's data processing and validation procedures.
#
#######################################################################

data_OQERIM
_chemical_formula_moiety         'C32 H21 F6 N1'
_chemical_name_systematic        
N,N-Diphenyl-4,4''-bis(trifluoromethyl)-1,1':4',1''-terphenyl-2'-amine
_symmetry_cell_setting           orthorhombic
_symmetry_space_group_name_H-M   'P c a 21'
_symmetry_Int_Tables_number      29
_space_group_name_Hall           'P 2c -2ac'
loop_
_symmetry_equiv_pos_site_id
_symmetry_equiv_pos_as_xyz
1 x,y,z
2 -x,-y,1/2+z
3 1/2-x,y,1/2+z
4 1/2+x,-y,z
_cell_length_a                   25.2744(5)
_cell_length_b                   9.2749(2)
_cell_length_c                   11.1815(2)
_cell_angle_alpha                90
_cell_angle_beta                 90
_cell_angle_gamma                90
_cell_volume                     2621.14
_exptl_crystal_colour            colorless
_exptl_crystal_description       plate
_cell_formula_units_Z            4
_exptl_crystal_recrystallization_method hexane/dichloromethane
loop_
_atom_site_label
_atom_site_type_symbol
_atom_site_fract_x
_atom_site_fract_y
_atom_site_fract_z
C1 C 0.2561(3) 0.5805(8) 0.0950(8)
C2 C 0.3060(2) 0.5137(6) 0.1391(5)
C3 C 0.3532(2) 0.5470(6) 0.0850(5)
H1 H 0.3542 0.6123 0.0220
C4 C 0.3992(2) 0.4832(6) 0.1245(5)
H2 H 0.4309 0.5046 0.0864
C5 C 0.39909(19) 0.3873(5) 0.2203(4)
C6 C 0.3505(2) 0.3565(6) 0.2741(5)
H3 H 0.3492 0.2916 0.3374
C7 C 0.3049(2) 0.4202(7) 0.2351(6)
H4 H 0.2731 0.4005 0.2734
C8 C 0.44866(18) 0.3221(5) 0.2645(4)
C9 C 0.48008(19) 0.2381(5) 0.1892(5)
H5 H 0.4700 0.2248 0.1099
C10 C 0.5263(2) 0.1738(5) 0.2308(5)
H6 H 0.5470 0.1194 0.1788
C11 C 0.5422(2) 0.1901(5) 0.3500(5)
C12 C 0.51052(18) 0.2739(5) 0.4248(5)
H7 H 0.5200 0.2849 0.5047
C13 C 0.46531(18) 0.3409(5) 0.3825(4)
C14 C 0.5920(2) 0.1258(5) 0.3946(5)
C15 C 0.6388(2) 0.1397(5) 0.3313(5)
H8 H 0.6388 0.1891 0.2590
C16 C 0.6854(2) 0.0816(6) 0.3736(6)
H9 H 0.7165 0.0931 0.3301
C17 C 0.6862(2) 0.0069(6) 0.4796(7)
C18 C 0.6398(2) -0.0056(7) 0.5459(7)
H10 H 0.6400 -0.0543 0.6187
C19 C 0.5936(2) 0.0542(6) 0.5035(6)
H11 H 0.5629 0.0464 0.5488
C20 C 0.7355(3) -0.0630(8) 0.5210(9)
C21 C 0.43616(17) 0.5873(5) 0.4257(4)
C22 C 0.4800(2) 0.6491(5) 0.3741(5)
H12 H 0.5106 0.5951 0.3628
C23 C 0.4783(3) 0.7933(6) 0.3389(6)
H13 H 0.5076 0.8338 0.3013
C24 C 0.4352(3) 0.8752(6) 0.3583(7)
H14 H 0.4352 0.9724 0.3380
C25 C 0.3912(3) 0.8130(7) 0.4082(8)
H15 H 0.3609 0.8682 0.4199
C26 C 0.3913(2) 0.6695(6) 0.4415(6)
H16 H 0.3611 0.6284 0.4746
C27 C 0.41548(17) 0.3881(5) 0.5670(4)
C28 C 0.3984(2) 0.2459(6) 0.5759(5)
H17 H 0.4025 0.1835 0.5115
C29 C 0.3753(3) 0.1974(8) 0.6808(7)
H18 H 0.3636 0.1026 0.6863
C30 C 0.3696(3) 0.2901(10) 0.7783(7)
H19 H 0.3538 0.2583 0.8487
C31 C 0.3877(3) 0.4294(9) 0.7683(5)
H20 H 0.3842 0.4916 0.8331
C32 C 0.4107(2) 0.4788(6) 0.6655(5)
H21 H 0.4231 0.5731 0.6613
F1 F 0.2177(2) 0.4959(8) 0.0887(11)
F2 F 0.2388(5) 0.6800(14) 0.1603(10)
F3 F 0.2578(3) 0.6391(8) -0.0078(7)
F4 F 0.7399(3) -0.1939(6) 0.4888(11)
F5 F 0.77750(18) 0.0059(8) 0.4960(12)
F6 F 0.7389(3) -0.0734(10) 0.6373(7)
N1 N 0.43738(16) 0.4380(4) 0.4586(3)
loop_
_geom_bond_atom_site_label_1
_geom_bond_atom_site_label_2
_geom_bond_site_symmetry_1
_geom_bond_site_symmetry_2
C1 C2 1_555 1_555
C2 C3 1_555 1_555
C3 H1 1_555 1_555
C4 C3 1_555 1_555
H2 C4 1_555 1_555
C5 C4 1_555 1_555
C6 C5 1_555 1_555
H3 C6 1_555 1_555
C7 C2 1_555 1_555
H4 C7 1_555 1_555
C8 C5 1_555 1_555
C9 C8 1_555 1_555
H5 C9 1_555 1_555
C10 C9 1_555 1_555
H6 C10 1_555 1_555
C11 C10 1_555 1_555
C12 C11 1_555 1_555
H7 C12 1_555 1_555
C13 C8 1_555 1_555
C14 C11 1_555 1_555
C15 C14 1_555 1_555
H8 C15 1_555 1_555
C16 C15 1_555 1_555
H9 C16 1_555 1_555
C17 C16 1_555 1_555
C18 C17 1_555 1_555
H10 C18 1_555 1_555
C19 C14 1_555 1_555
H11 C19 1_555 1_555
C20 C17 1_555 1_555
C21 C22 1_555 1_555
C22 H12 1_555 1_555
C23 C22 1_555 1_555
H13 C23 1_555 1_555
C24 C23 1_555 1_555
H14 C24 1_555 1_555
C25 C24 1_555 1_555
H15 C25 1_555 1_555
C26 C21 1_555 1_555
H16 C26 1_555 1_555
C27 C28 1_555 1_555
C28 H17 1_555 1_555
C29 C28 1_555 1_555
H18 C29 1_555 1_555
C30 C29 1_555 1_555
H19 C30 1_555 1_555
C31 C30 1_555 1_555
H20 C31 1_555 1_555
C32 C27 1_555 1_555
H21 C32 1_555 1_555
F1 C1 1_555 1_555
F2 C1 1_555 1_555
F3 C1 1_555 1_555
F4 C20 1_555 1_555
F5 C20 1_555 1_555
F6 C20 1_555 1_555
N1 C13 1_555 1_555
C6 C7 1_555 1_555
C12 C13 1_555 1_555
C18 C19 1_555 1_555
C21 N1 1_555 1_555
C25 C26 1_555 1_555
C27 N1 1_555 1_555
C31 C32 1_555 1_555

#END
