
#######################################################################
#
#                 Cambridge Crystallographic Data Centre
#                                CCDC 
#
#######################################################################
#
# If this CIF has been generated from an entry in the Cambridge 
# Structural Database, then it will include bibliographic, chemical, 
# crystal, experimental, refinement or atomic coordinate data resulting 
# from the CCDC's data processing and validation procedures.
#
#######################################################################

data_OQEWIR
_chemical_formula_moiety         'C18 H16 N2 O1,C1 H4 O1'
_chemical_name_systematic        
'3-Ethyl-3-(1H-indol-3-yl)isoindolin-1-one methanol solvate'
_symmetry_cell_setting           orthorhombic
_symmetry_space_group_name_H-M   'P 21 21 21'
_symmetry_Int_Tables_number      19
_space_group_name_Hall           'P 2ac 2ab'
loop_
_symmetry_equiv_pos_site_id
_symmetry_equiv_pos_as_xyz
1 x,y,z
2 1/2-x,-y,1/2+z
3 -x,1/2+y,1/2-z
4 1/2+x,1/2-y,-z
_cell_length_a                   7.874(3)
_cell_length_b                   9.469(3)
_cell_length_c                   22.375(6)
_cell_angle_alpha                90
_cell_angle_beta                 90
_cell_angle_gamma                90
_cell_volume                     1668.26
_exptl_crystal_colour            colorless
_exptl_crystal_description       prism
_cell_formula_units_Z            4
loop_
_atom_site_label
_atom_site_type_symbol
_atom_site_fract_x
_atom_site_fract_y
_atom_site_fract_z
O1 O 0.3108(4) 0.16806(18) 0.59033(9)
N1 N 0.4171(3) 0.39051(18) 0.60727(9)
N2 N 0.3144(3) 0.8679(2) 0.60886(10)
C1 C 0.3274(4) 0.2752(2) 0.62155(11)
C2 C 0.2507(3) 0.3018(2) 0.68034(11)
C3 C 0.1450(4) 0.2166(3) 0.71452(16)
H1 H 0.1093 0.1288 0.7008
C4 C 0.0948(4) 0.2670(4) 0.76954(17)
H2 H 0.0251 0.2120 0.7937
C5 C 0.1465(5) 0.3975(4) 0.78898(14)
H3 H 0.1113 0.4291 0.8263
C6 C 0.2497(4) 0.4834(3) 0.75463(11)
H4 H 0.2830 0.5721 0.7681
C7 C 0.3015(3) 0.4330(2) 0.69971(10)
C8 C 0.4170(3) 0.5014(2) 0.65385(10)
C9 C 0.3447(3) 0.6381(2) 0.62982(10)
C10 C 0.4190(4) 0.7691(2) 0.63326(11)
H5 H 0.5250 0.7875 0.6498
C11 C 0.1700(3) 0.8040(2) 0.58821(9)
C12 C 0.1842(3) 0.6579(2) 0.60081(9)
C13 C 0.0502(3) 0.5706(3) 0.58303(11)
H6 H 0.0542 0.4741 0.5906
C14 C -0.0879(4) 0.6288(3) 0.55417(13)
H7 H -0.1768 0.5706 0.5423
C15 C -0.0967(5) 0.7735(4) 0.54248(13)
H8 H -0.1920 0.8102 0.5235
C16 C 0.0324(5) 0.8620(3) 0.55852(12)
H9 H 0.0280 0.9579 0.5498
C17 C 0.5967(4) 0.5226(3) 0.67905(13)
H10 H 0.6672 0.5637 0.6481
H11 H 0.5906 0.5900 0.7116
C18 C 0.6827(5) 0.3898(4) 0.70172(16)
H12 H 0.6186 0.3515 0.7344
H13 H 0.7954 0.4122 0.7150
H14 H 0.6885 0.3215 0.6701
H15 H 0.472(4) 0.395(3) 0.5724(12)
H16 H 0.362(4) 0.955(3) 0.6075(15)
O2 O 0.6809(5) 0.3073(3) 0.52471(13)
H17 H 0.7254 0.3232 0.4923
C19 C 0.7360(9) 0.1800(6) 0.5459(2)
H18 H 0.6611 0.1481 0.5770
H19 H 0.8487 0.1902 0.5618
H20 H 0.7371 0.1123 0.5140
loop_
_geom_bond_atom_site_label_1
_geom_bond_atom_site_label_2
_geom_bond_site_symmetry_1
_geom_bond_site_symmetry_2
O1 C1 1_555 1_555
N1 C1 1_555 1_555
N2 C10 1_555 1_555
C1 C2 1_555 1_555
C2 C3 1_555 1_555
C3 H1 1_555 1_555
C4 C3 1_555 1_555
H2 C4 1_555 1_555
C5 C4 1_555 1_555
H3 C5 1_555 1_555
C6 C5 1_555 1_555
H4 C6 1_555 1_555
C7 C2 1_555 1_555
C8 N1 1_555 1_555
C9 C8 1_555 1_555
C10 C9 1_555 1_555
H5 C10 1_555 1_555
C11 N2 1_555 1_555
C12 C9 1_555 1_555
C13 C12 1_555 1_555
H6 C13 1_555 1_555
C14 C13 1_555 1_555
H7 C14 1_555 1_555
C15 C14 1_555 1_555
H8 C15 1_555 1_555
C16 C11 1_555 1_555
H9 C16 1_555 1_555
C17 C8 1_555 1_555
H10 C17 1_555 1_555
H11 C17 1_555 1_555
C18 C17 1_555 1_555
H12 C18 1_555 1_555
H13 C18 1_555 1_555
H14 C18 1_555 1_555
H15 N1 1_555 1_555
H16 N2 1_555 1_555
O2 H17 1_555 1_555
C19 O2 1_555 1_555
H18 C19 1_555 1_555
H19 C19 1_555 1_555
H20 C19 1_555 1_555
C6 C7 1_555 1_555
C7 C8 1_555 1_555
C11 C12 1_555 1_555
C15 C16 1_555 1_555

#END
