
#######################################################################
#
#                 Cambridge Crystallographic Data Centre
#                                CCDC 
#
#######################################################################
#
# If this CIF has been generated from an entry in the Cambridge 
# Structural Database, then it will include bibliographic, chemical, 
# crystal, experimental, refinement or atomic coordinate data resulting 
# from the CCDC's data processing and validation procedures.
#
#######################################################################

data_OQICUO
_chemical_formula_moiety         'C51 H70 Mg1 N4 O1 Si2,4(C6 H6)'
_chemical_name_systematic        
'(2-((((1-butylpyrrolidin-2-yl)methyl)(2-(dimethylamino)benzyl)amino)methyl)-4-methyl-6-tritylphenolato)-(1,1,1-trimethyl-N-(trimethylsilyl)silanaminato)-magnesium benzene solvate'
_symmetry_cell_setting           triclinic
_symmetry_space_group_name_H-M   'P 1'
_symmetry_Int_Tables_number      1
_space_group_name_Hall           'P 1'
loop_
_symmetry_equiv_pos_site_id
_symmetry_equiv_pos_as_xyz
1 x,y,z
_cell_length_a                   11.696(2)
_cell_length_b                   12.113(2)
_cell_length_c                   13.578(2)
_cell_angle_alpha                108.648(4)
_cell_angle_beta                 91.828(4)
_cell_angle_gamma                105.864(4)
_cell_volume                     1738.15
_cell_formula_units_Z            1
loop_
_atom_site_label
_atom_site_type_symbol
_atom_site_fract_x
_atom_site_fract_y
_atom_site_fract_z
Mg1 Mg 0.7971(2) 0.3373(2) 0.3963(1)
Si1 Si 0.8946(2) 0.2863(2) 0.1628(2)
Si2 Si 1.0257(1) 0.2695(2) 0.3446(1)
N1 N 0.6378(4) 0.3894(4) 0.3652(4)
N2 N 0.8428(4) 0.5183(4) 0.5246(4)
N3 N 0.9113(4) 0.3023(5) 0.2905(4)
N4 N 0.4635(5) 0.2876(5) 0.1063(4)
O1 O 0.7075(3) 0.2235(3) 0.4564(3)
C1 C 0.5943(5) 0.1854(5) 0.4683(4)
C2 C 0.5568(5) 0.1109(5) 0.5304(4)
C3 C 0.4345(5) 0.0783(5) 0.5433(4)
H1 H 0.4096 0.0302 0.5846
C4 C 0.3499(5) 0.1133(5) 0.4986(5)
C5 C 0.3876(5) 0.1818(5) 0.4364(5)
H2 H 0.3315 0.2060 0.4051
C6 C 0.5049(5) 0.2163(5) 0.4180(4)
C7 C 0.5344(5) 0.2772(6) 0.3367(5)
H3 H 0.5486 0.2178 0.2747
H4 H 0.4639 0.2971 0.3172
C8 C 0.6294(5) 0.4791(5) 0.4640(5)
H5 H 0.6013 0.4373 0.5128
H6 H 0.5706 0.5179 0.4519
C9 C 0.7482(5) 0.5774(5) 0.5137(5)
H7 H 0.7719 0.6283 0.4700
C10 C 0.7418(7) 0.6574(7) 0.6248(6)
H8 H 0.7948 0.7397 0.6405
H9 H 0.6607 0.6612 0.6328
C11 C 0.7802(8) 0.5988(8) 0.6949(6)
H10 H 0.7135 0.5662 0.7284
H11 H 0.8440 0.6575 0.7489
C12 C 0.8242(7) 0.4966(7) 0.6264(5)
H12 H 0.8989 0.4972 0.6601
H13 H 0.7654 0.4180 0.6143
C13 C 0.2206(6) 0.0789(7) 0.5173(6)
H14 H 0.1696 0.0498 0.4518
H15 H 0.2037 0.1492 0.5641
H16 H 0.2062 0.0158 0.5478
C14 C 0.6492(5) 0.4390(6) 0.2774(5)
H17 H 0.6605 0.3765 0.2161
H18 H 0.7218 0.5075 0.2960
C15 C 0.5479(5) 0.4811(6) 0.2458(5)
C16 C 0.5471(7) 0.6009(7) 0.2969(6)
H19 H 0.6077 0.6521 0.3512
C17 C 0.4589(8) 0.6453(8) 0.2689(7)
H20 H 0.4580 0.7245 0.3051
C18 C 0.3730(8) 0.5699(9) 0.1868(7)
H21 H 0.3138 0.5988 0.1660
C19 C 0.3723(6) 0.4535(8) 0.1348(6)
H22 H 0.3125 0.4038 0.0793
C20 C 0.4603(6) 0.4075(6) 0.1636(5)
C21 C 0.5149(9) 0.2826(10) 0.0101(6)
H23 H 0.4645 0.3013 -0.0354
H24 H 0.5212 0.2021 -0.0238
H25 H 0.5932 0.3410 0.0258
C22 C 0.3473(9) 0.1920(9) 0.0877(8)
H26 H 0.3060 0.2107 0.1480
H27 H 0.3610 0.1143 0.0757
H28 H 0.2996 0.1887 0.0275
C23 C 0.9643(6) 0.6043(6) 0.5372(6)
H29 H 1.0219 0.5720 0.5626
H30 H 0.9680 0.6814 0.5905
C24 C 1.0012(6) 0.6284(6) 0.4389(6)
H31 H 0.9463 0.6640 0.4143
H32 H 0.9971 0.5519 0.3846
C25 C 1.1296(8) 0.7157(8) 0.4596(9)
H33 H 1.1325 0.7924 0.5131
H34 H 1.1833 0.6807 0.4868
C26 C 1.1734(11) 0.7409(11) 0.3651(11)
H35 H 1.1922 0.6710 0.3197
H36 H 1.2440 0.8103 0.3859
H37 H 1.1122 0.7578 0.3285
C27 C 0.7508(10) 0.169(1) 0.0940(7)
H38 H 0.7515 0.0911 0.0971
H39 H 0.7414 0.1640 0.0220
H40 H 0.6853 0.1913 0.1273
C28 C 0.9018(9) 0.4328(11) 0.1413(7)
H41 H 0.8559 0.4749 0.1886
H42 H 0.8693 0.4157 0.0703
H43 H 0.9837 0.4830 0.1540
C29 C 1.0117(11) 0.2372(15) 0.0851(8)
H44 H 1.0894 0.2922 0.1179
H45 H 0.9977 0.2380 0.0153
H46 H 1.0084 0.1561 0.0820
C30 C 1.1771(6) 0.3828(8) 0.3561(7)
H47 H 1.1878 0.3953 0.2902
H48 H 1.2388 0.3518 0.3745
H49 H 1.1817 0.4590 0.4094
C31 C 1.0410(8) 0.1150(8) 0.2744(6)
H50 H 0.9699 0.0534 0.2760
H51 H 1.1091 0.1053 0.3081
H52 H 1.0517 0.1070 0.2029
C32 C 1.0000(6) 0.2735(8) 0.4812(5)
H53 H 0.9968 0.3532 0.5223
H54 H 1.0645 0.2557 0.5123
H55 H 0.9256 0.2138 0.4788
C33 C 0.6482(5) 0.0757(5) 0.5874(4)
C34 C 0.7249(5) 0.1952(6) 0.6736(5)
C35 C 0.6685(7) 0.2687(6) 0.7408(5)
H56 H 0.5853 0.2472 0.7295
C36 C 0.7277(8) 0.3708(7) 0.8228(5)
H57 H 0.6849 0.4170 0.8655
C37 C 0.8491(10) 0.4055(8) 0.8424(6)
H58 H 0.8906 0.4740 0.8992
C38 C 0.9102(7) 0.3342(7) 0.7738(6)
H59 H 0.9935 0.3571 0.7844
C39 C 0.8497(6) 0.2338(6) 0.6935(5)
H60 H 0.8924 0.1885 0.6497
C40 C 0.7235(5) 0.0080(5) 0.5126(5)
C41 C 0.7028(6) -0.0280(5) 0.4074(5)
H61 H 0.6430 -0.0070 0.3775
C42 C 0.7660(7) -0.0945(6) 0.3421(6)
H62 H 0.7495 -0.1171 0.2697
C43 C 0.8546(7) -0.1270(7) 0.3858(7)
H63 H 0.9003 -0.1694 0.3430
C44 C 0.8744(7) -0.0970(7) 0.4906(7)
H64 H 0.9327 -0.1206 0.5197
C45 C 0.8093(6) -0.0315(6) 0.5555(6)
H65 H 0.8222 -0.0136 0.6276
C46 C 0.5874(5) -0.0176(6) 0.6414(5)
C47 C 0.6083(7) 0.0032(7) 0.7472(6)
H66 H 0.6579 0.0783 0.7915
C48 C 0.5557(8) -0.0880(9) 0.7886(6)
H67 H 0.5707 -0.0732 0.8600
C49 C 0.4828(8) -0.1977(8) 0.7249(8)
H68 H 0.4468 -0.2575 0.7528
C50 C 0.4629(6) -0.2200(7) 0.6213(7)
H69 H 0.4139 -0.2957 0.5776
C51 C 0.5147(6) -0.1312(6) 0.5794(5)
H70 H 0.5003 -0.1485 0.5075
C52 C 0.4654(8) 0.9236(10) 0.1665(8)
H71 H 0.5417 0.9495 0.2035
C53 C 0.3663(11) 0.9252(9) 0.2201(5)
H72 H 0.3762 0.9522 0.2930
C54 C 0.2523(9) 0.8864(11) 0.1647(8)
H73 H 0.1859 0.8875 0.2006
C55 C 0.2374(8) 0.8461(11) 0.0558(8)
H74 H 0.1611 0.8202 0.0187
C56 C 0.3366(11) 0.8445(11) 0.0022(5)
H75 H 0.3266 0.8175 -0.0707
C57 C 0.4506(9) 0.8832(11) 0.0575(8)
H76 H 0.5169 0.8822 0.0217
C58 C 0.6604(14) 0.6630(13) 0.0340(11)
H77 H 0.5863 0.6154 0.0417
C59 C 0.6663(15) 0.7321(13) -0.0300(11)
H78 H 0.5974 0.7279 -0.0690
C60 C 0.7736(14) 0.8058(14) -0.0350(11)
H79 H 0.7768 0.8535 -0.0772
C61 C 0.8790(14) 0.8143(14) 0.0192(11)
H80 H 0.9517 0.8691 0.0179
C62 C 0.8698(15) 0.7367(13) 0.0752(11)
H81 H 0.9396 0.7334 0.1074
C63 C 0.7618(13) 0.6639(13) 0.0857(11)
H82 H 0.7581 0.6159 0.1277
C64 C 0.4080(15) 0.4544(13) 0.8100(11)
H83 H 0.4646 0.4424 0.8519
C65 C 0.3240(14) 0.5078(13) 0.8547(13)
H84 H 0.3209 0.5248 0.9262
C66 C 0.2432(14) 0.5377(13) 0.7976(12)
H85 H 0.1893 0.5777 0.8290
C67 C 0.2489(14) 0.5038(13) 0.6923(11)
H86 H 0.1976 0.5216 0.6499
C68 C 0.3287(13) 0.4441(13) 0.6475(12)
H87 H 0.3278 0.4199 0.5751
C69 C 0.4083(14) 0.4194(12) 0.7051(11)
H88 H 0.4620 0.3793 0.6733
C70 C 0.2483(9) 1.0966(11) 0.7828(6)
H89 H 0.3183 1.1513 0.7759
C71 C 0.2475(9) 0.9799(12) 0.7777(6)
H90 H 0.3168 0.9565 0.7673
C72 C 0.1430(12) 0.8981(9) 0.7880(7)
H91 H 0.1424 0.8201 0.7845
C73 C 0.0393(9) 0.9331(11) 0.8034(7)
H92 H -0.0306 0.8784 0.8103
C74 C 0.0402(9) 1.0498(13) 0.8085(7)
H93 H -0.0291 1.0732 0.8189
C75 C 0.1447(12) 1.1315(9) 0.7982(7)
H94 H 0.1453 1.2096 0.8017
loop_
_geom_bond_atom_site_label_1
_geom_bond_atom_site_label_2
_geom_bond_site_symmetry_1
_geom_bond_site_symmetry_2
Mg1 N1 1_555 1_555
Si1 N3 1_555 1_555
Si2 N3 1_555 1_555
N1 C7 1_555 1_555
N2 Mg1 1_555 1_555
N3 Mg1 1_555 1_555
N4 C20 1_555 1_555
O1 Mg1 1_555 1_555
C1 O1 1_555 1_555
C2 C1 1_555 1_555
C3 C2 1_555 1_555
H1 C3 1_555 1_555
C4 C3 1_555 1_555
C5 C4 1_555 1_555
H2 C5 1_555 1_555
C6 C1 1_555 1_555
C7 C6 1_555 1_555
H3 C7 1_555 1_555
H4 C7 1_555 1_555
C8 N1 1_555 1_555
H5 C8 1_555 1_555
H6 C8 1_555 1_555
C9 N2 1_555 1_555
H7 C9 1_555 1_555
C10 C9 1_555 1_555
H8 C10 1_555 1_555
H9 C10 1_555 1_555
C11 C10 1_555 1_555
H10 C11 1_555 1_555
H11 C11 1_555 1_555
C12 N2 1_555 1_555
H12 C12 1_555 1_555
H13 C12 1_555 1_555
C13 C4 1_555 1_555
H14 C13 1_555 1_555
H15 C13 1_555 1_555
H16 C13 1_555 1_555
C14 N1 1_555 1_555
H17 C14 1_555 1_555
H18 C14 1_555 1_555
C15 C14 1_555 1_555
C16 C15 1_555 1_555
H19 C16 1_555 1_555
C17 C16 1_555 1_555
H20 C17 1_555 1_555
C18 C17 1_555 1_555
H21 C18 1_555 1_555
C19 C18 1_555 1_555
H22 C19 1_555 1_555
C20 C15 1_555 1_555
C21 N4 1_555 1_555
H23 C21 1_555 1_555
H24 C21 1_555 1_555
H25 C21 1_555 1_555
C22 N4 1_555 1_555
H26 C22 1_555 1_555
H27 C22 1_555 1_555
H28 C22 1_555 1_555
C23 N2 1_555 1_555
H29 C23 1_555 1_555
H30 C23 1_555 1_555
C24 C23 1_555 1_555
H31 C24 1_555 1_555
H32 C24 1_555 1_555
C25 C24 1_555 1_555
H33 C25 1_555 1_555
H34 C25 1_555 1_555
C26 C25 1_555 1_555
H35 C26 1_555 1_555
H36 C26 1_555 1_555
H37 C26 1_555 1_555
C27 Si1 1_555 1_555
H38 C27 1_555 1_555
H39 C27 1_555 1_555
H40 C27 1_555 1_555
C28 Si1 1_555 1_555
H41 C28 1_555 1_555
H42 C28 1_555 1_555
H43 C28 1_555 1_555
C29 Si1 1_555 1_555
H44 C29 1_555 1_555
H45 C29 1_555 1_555
H46 C29 1_555 1_555
C30 Si2 1_555 1_555
H47 C30 1_555 1_555
H48 C30 1_555 1_555
H49 C30 1_555 1_555
C31 Si2 1_555 1_555
H50 C31 1_555 1_555
H51 C31 1_555 1_555
H52 C31 1_555 1_555
C32 Si2 1_555 1_555
H53 C32 1_555 1_555
H54 C32 1_555 1_555
H55 C32 1_555 1_555
C33 C2 1_555 1_555
C34 C33 1_555 1_555
C35 C34 1_555 1_555
H56 C35 1_555 1_555
C36 C35 1_555 1_555
H57 C36 1_555 1_555
C37 C36 1_555 1_555
H58 C37 1_555 1_555
C38 C37 1_555 1_555
H59 C38 1_555 1_555
C39 C34 1_555 1_555
H60 C39 1_555 1_555
C40 C33 1_555 1_555
C41 C40 1_555 1_555
H61 C41 1_555 1_555
C42 C41 1_555 1_555
H62 C42 1_555 1_555
C43 C42 1_555 1_555
H63 C43 1_555 1_555
C44 C43 1_555 1_555
H64 C44 1_555 1_555
C45 C40 1_555 1_555
H65 C45 1_555 1_555
C46 C33 1_555 1_555
C47 C46 1_555 1_555
H66 C47 1_555 1_555
C48 C47 1_555 1_555
H67 C48 1_555 1_555
C49 C48 1_555 1_555
H68 C49 1_555 1_555
C50 C49 1_555 1_555
H69 C50 1_555 1_555
C51 C46 1_555 1_555
H70 C51 1_555 1_555
C52 H71 1_555 1_555
C53 C52 1_555 1_555
H72 C53 1_555 1_555
C54 C53 1_555 1_555
H73 C54 1_555 1_555
C55 C54 1_555 1_555
H74 C55 1_555 1_555
C56 C55 1_555 1_555
H75 C56 1_555 1_555
C57 C52 1_555 1_555
H76 C57 1_555 1_555
C58 H77 1_555 1_555
C59 C58 1_555 1_555
H78 C59 1_555 1_555
C60 C59 1_555 1_555
H79 C60 1_555 1_555
C61 C60 1_555 1_555
H80 C61 1_555 1_555
C62 C61 1_555 1_555
H81 C62 1_555 1_555
C63 C58 1_555 1_555
H82 C63 1_555 1_555
C64 H83 1_555 1_555
C65 C64 1_555 1_555
H84 C65 1_555 1_555
C66 C65 1_555 1_555
H85 C66 1_555 1_555
C67 C66 1_555 1_555
H86 C67 1_555 1_555
C68 C67 1_555 1_555
H87 C68 1_555 1_555
C69 C64 1_555 1_555
H88 C69 1_555 1_555
C70 H89 1_555 1_555
C71 C70 1_555 1_555
H90 C71 1_555 1_555
C72 C71 1_555 1_555
H91 C72 1_555 1_555
C73 C72 1_555 1_555
H92 C73 1_555 1_555
C74 C73 1_555 1_555
H93 C74 1_555 1_555
C75 C70 1_555 1_555
H94 C75 1_555 1_555
C5 C6 1_555 1_555
C8 C9 1_555 1_555
C11 C12 1_555 1_555
C19 C20 1_555 1_555
C38 C39 1_555 1_555
C44 C45 1_555 1_555
C50 C51 1_555 1_555
C56 C57 1_555 1_555
C62 C63 1_555 1_555
C68 C69 1_555 1_555
C74 C75 1_555 1_555

#END
