
#######################################################################
#
#                 Cambridge Crystallographic Data Centre
#                                CCDC 
#
#######################################################################
#
# If this CIF has been generated from an entry in the Cambridge 
# Structural Database, then it will include bibliographic, chemical, 
# crystal, experimental, refinement or atomic coordinate data resulting 
# from the CCDC's data processing and validation procedures.
#
#######################################################################

data_OQIFUR
_chemical_formula_moiety         'C15 H12 O8,C7 H8 N4 O2,C2 H3 N1'
_chemical_name_systematic        
'(+)-dihydromyricetin theophylline acetonitrile solvate'
_symmetry_cell_setting           orthorhombic
_symmetry_space_group_name_H-M   'P 21 21 21'
_symmetry_Int_Tables_number      19
_space_group_name_Hall           'P 2ac 2ab'
loop_
_symmetry_equiv_pos_site_id
_symmetry_equiv_pos_as_xyz
1 x,y,z
2 1/2-x,-y,1/2+z
3 -x,1/2+y,1/2-z
4 1/2+x,1/2-y,-z
_cell_length_a                   6.7490(4)
_cell_length_b                   15.2192(9)
_cell_length_c                   23.4342(14)
_cell_angle_alpha                90
_cell_angle_beta                 90
_cell_angle_gamma                90
_cell_volume                     2407.03
_exptl_crystal_colour            white
_exptl_crystal_description       Needles
_cell_formula_units_Z            4
loop_
_atom_site_label
_atom_site_type_symbol
_atom_site_fract_x
_atom_site_fract_y
_atom_site_fract_z
O1 O -0.2500(2) -0.32052(8) -0.09038(6)
O2 O -0.1596(2) -0.73483(8) -0.06918(5)
O3 O -0.2074(2) -0.61473(9) -0.14898(5)
O4 O -0.18369(19) -0.54060(7) 0.05102(5)
O5 O -0.1432(2) -0.77958(8) 0.04235(6)
O6 O 0.2160(2) -0.62855(9) 0.23095(6)
C1 C -0.1919(3) -0.58346(11) -0.04853(7)
C2 C -0.1984(3) -0.51910(11) -0.00529(7)
C3 C -0.1558(3) -0.67369(11) -0.03442(7)
C4 C -0.2315(3) -0.40603(11) -0.07528(8)
C5 C -0.2275(3) -0.46763(12) -0.11950(8)
C6 C -0.0016(3) -0.63033(12) 0.15043(8)
C7 C -0.2296(3) -0.63147(11) 0.06539(8)
C8 C -0.2188(3) -0.43102(12) -0.01829(8)
C9 C -0.1892(3) -0.64520(11) 0.12771(7)
C10 C -0.3417(3) -0.67504(12) 0.16244(8)
O7 O -0.0796(2) -0.68856(10) 0.29908(6)
O8 O -0.4497(2) -0.72055(11) 0.25663(6)
C11 C -0.2093(3) -0.55528(12) -0.10607(8)
C12 C -0.1075(3) -0.69143(11) 0.02748(8)
C13 C 0.0320(3) -0.64438(12) 0.20804(8)
C14 C -0.1197(3) -0.67585(12) 0.24273(8)
C15 C -0.3073(3) -0.69052(12) 0.21977(8)
H1 H -0.368(3) -0.6421(12) 0.0578(8)
H2 H 0.038(3) -0.6744(13) 0.0341(8)
H3 H -0.220(3) -0.3913(12) 0.0121(8)
H4 H -0.468(3) -0.6844(12) 0.1467(8)
H5 H -0.242(3) -0.4497(12) -0.1575(9)
H6 H 0.105(3) -0.6100(13) 0.1253(8)
H7 H -0.146(4) -0.8120(17) 0.0105(11)
H8 H -0.269(4) -0.2889(17) -0.0585(10)
H9 H 0.203(4) -0.6051(16) 0.2686(11)
H10 H -0.201(4) -0.6664(17) -0.1307(11)
H11 H -0.578(5) -0.705(2) 0.2425(13)
H12 H -0.181(5) -0.710(2) 0.3181(12)
N1 N -0.2538(2) -1.14628(10) 0.08439(6)
N2 N -0.1974(3) -0.92181(10) 0.11279(7)
O9 O -0.2838(2) -1.22660(8) 0.00404(6)
O10 O -0.1843(2) -0.93132(8) -0.01866(5)
N3 N -0.2280(2) -1.07951(10) -0.00649(6)
N4 N -0.2319(2) -1.04358(10) 0.16455(6)
C16 C -0.2107(3) -0.99086(11) 0.07490(8)
C17 C -0.2050(3) -0.99365(11) 0.01438(8)
C18 C -0.2325(3) -1.06414(11) 0.10811(8)
C19 C -0.2562(3) -1.15437(11) 0.02643(8)
C20 C -0.2093(3) -0.95652(13) 0.16499(8)
C21 C -0.2807(3) -1.22470(12) 0.11989(8)
H13 H -0.3766 -1.2641 0.1017
H14 H -0.3299 -1.2073 0.1576
H15 H -0.1535 -1.2551 0.1241
C22 C -0.2314(4) -1.09086(14) -0.06870(8)
H16 H -0.1411 -1.1385 -0.0795
H17 H -0.1890 -1.0362 -0.0871
H18 H -0.3662 -1.1055 -0.0810
H19 H -0.187(4) -0.8652(16) 0.1023(9)
H20 H -0.206(3) -0.9239(14) 0.1980(9)
C23 C -0.3740(11) -0.5834(3) -0.29558(17)
C24 C -0.1626(9) -0.5625(3) -0.29285(19)
H21 H -0.1266 -0.5252 -0.3253
H22 H -0.0854 -0.6170 -0.2942
H23 H -0.1341 -0.5314 -0.2572
N5 N -0.5407(8) -0.6004(3) -0.29634(17)
loop_
_geom_bond_atom_site_label_1
_geom_bond_atom_site_label_2
_geom_bond_site_symmetry_1
_geom_bond_site_symmetry_2
O1 C4 1_555 1_555
O2 C3 1_555 1_555
O3 C11 1_555 1_555
O4 C2 1_555 1_555
O5 C12 1_555 1_555
O6 C13 1_555 1_555
C1 C2 1_555 1_555
C2 C8 1_555 1_555
C3 C1 1_555 1_555
C4 C5 1_555 1_555
C5 C11 1_555 1_555
C6 C9 1_555 1_555
C7 O4 1_555 1_555
C8 C4 1_555 1_555
C9 C7 1_555 1_555
C10 C9 1_555 1_555
O7 C14 1_555 1_555
O8 C15 1_555 1_555
C11 C1 1_555 1_555
C12 C3 1_555 1_555
C13 C6 1_555 1_555
C14 C13 1_555 1_555
C15 C10 1_555 1_555
H1 C7 1_555 1_555
H2 C12 1_555 1_555
H3 C8 1_555 1_555
H4 C10 1_555 1_555
H5 C5 1_555 1_555
H6 C6 1_555 1_555
H7 O5 1_555 1_555
H8 O1 1_555 1_555
H9 O6 1_555 1_555
H10 O3 1_555 1_555
H11 O8 1_555 1_555
H12 O7 1_555 1_555
N1 C18 1_555 1_555
N2 C16 1_555 1_555
O9 C19 1_555 1_555
O10 C17 1_555 1_555
N3 C17 1_555 1_555
N4 C18 1_555 1_555
C16 C17 1_555 1_555
C18 C16 1_555 1_555
C19 N1 1_555 1_555
C20 N2 1_555 1_555
C21 N1 1_555 1_555
H13 C21 1_555 1_555
H14 C21 1_555 1_555
H15 C21 1_555 1_555
C22 N3 1_555 1_555
H16 C22 1_555 1_555
H17 C22 1_555 1_555
H18 C22 1_555 1_555
H19 N2 1_555 1_555
H20 C20 1_555 1_555
C23 C24 1_555 1_555
C24 H21 1_555 1_555
H22 C24 1_555 1_555
H23 C24 1_555 1_555
N5 C23 1_555 1_555
C7 C12 1_555 1_555
C14 C15 1_555 1_555
N3 C19 1_555 1_555
N4 C20 1_555 1_555

#END
