
#######################################################################
#
#                 Cambridge Crystallographic Data Centre
#                                CCDC 
#
#######################################################################
#
# If this CIF has been generated from an entry in the Cambridge 
# Structural Database, then it will include bibliographic, chemical, 
# crystal, experimental, refinement or atomic coordinate data resulting 
# from the CCDC's data processing and validation procedures.
#
#######################################################################

data_OQIQOV
_chemical_formula_moiety         'C20 H21 N1 O3 S1'
_chemical_name_systematic        
4a-Methyl-4-((4-methylphenyl)sulfonyl)-4b-phenylhexahydro-2H-1-oxa-4-azacyclopropa[cd]pentalene
_symmetry_cell_setting           monoclinic
_symmetry_space_group_name_H-M   'P 21/a'
_symmetry_Int_Tables_number      14
_space_group_name_Hall           '-P 2yab'
loop_
_symmetry_equiv_pos_site_id
_symmetry_equiv_pos_as_xyz
1 x,y,z
2 1/2-x,1/2+y,-z
3 -x,-y,-z
4 1/2+x,1/2-y,z
_cell_length_a                   7.8824(4)
_cell_length_b                   13.2869(7)
_cell_length_c                   17.5082(9)
_cell_angle_alpha                90
_cell_angle_beta                 98.799(3)
_cell_angle_gamma                90
_cell_volume                     1812.1
_exptl_crystal_colour            colorless
_exptl_crystal_description       needle
_cell_formula_units_Z            4
loop_
_atom_site_label
_atom_site_type_symbol
_atom_site_fract_x
_atom_site_fract_y
_atom_site_fract_z
H1 H -0.550(3) 0.4347(16) 0.3029(13)
H2 H -0.544(4) 0.503(2) 0.1835(16)
H3 H -0.468(5) 0.316(3) -0.113(2)
H4 H -0.303(4) 0.477(2) -0.0415(19)
H5 H -0.498(4) 0.647(2) 0.3577(17)
H6 H -0.395(4) 0.223(3) -0.092(2)
H7 H -0.316(3) 0.3478(17) 0.3763(12)
H8 H -0.182(3) 0.685(2) 0.3020(15)
H9 H -0.300(5) 0.300(3) -0.139(2)
H10 H -0.048(3) 0.656(2) 0.2535(16)
H11 H -0.208(3) 0.189(2) 0.0279(15)
H12 H -0.139(3) 0.5297(19) 0.0706(14)
H13 H -0.380(4) 0.696(3) 0.584(2)
H14 H -0.014(3) 0.6248(18) 0.3419(16)
H15 H -0.161(4) 0.474(2) 0.4810(17)
H16 H -0.525(5) 0.739(3) 0.463(2)
H17 H -0.039(3) 0.2509(17) 0.1370(12)
H18 H -0.199(4) 0.555(2) 0.594(2)
H19 H -0.054(3) 0.3195(19) 0.3278(14)
H20 H -0.404(3) 0.410(2) 0.1747(16)
H21 H -0.187(3) 0.3081(18) 0.2471(14)
S1 S 0.04849(7) 0.43889(5) 0.20166(3)
N1 N -0.0743(2) 0.44871(12) 0.26871(10)
O1 O -0.30966(19) 0.54761(11) 0.20611(9)
C1 C -0.1917(3) 0.53563(15) 0.27574(12)
C2 C -0.3200(3) 0.55456(17) 0.40758(13)
O2 O 0.1111(2) 0.53694(12) 0.18749(10)
O3 O 0.16799(18) 0.36022(13) 0.22788(10)
C3 C -0.2997(2) 0.49721(16) 0.33665(12)
C4 C -0.2926(3) 0.38464(17) 0.33213(14)
C5 C -0.4409(3) 0.44113(18) 0.28725(14)
C6 C -0.0758(3) 0.39516(17) 0.11579(12)
C7 C -0.1453(3) 0.35265(17) 0.29307(17)
C8 C -0.4369(3) 0.4696(2) 0.20438(16)
C9 C -0.0986(4) 0.63332(19) 0.29432(19)
C10 C -0.0927(3) 0.2934(2) 0.10143(17)
C11 C -0.2691(3) 0.3259(2) -0.02120(14)
C12 C -0.2509(4) 0.4269(2) -0.00579(16)
C13 C -0.2331(4) 0.5266(3) 0.47858(16)
C14 C -0.1561(4) 0.4620(2) 0.06171(15)
C15 C -0.1896(4) 0.2598(2) 0.03388(17)
C16 C -0.4299(4) 0.6355(2) 0.4046(2)
C17 C -0.3680(6) 0.2877(4) -0.0964(2)
C18 C -0.2514(5) 0.5783(4) 0.5444(2)
C19 C -0.4475(6) 0.6879(3) 0.4718(3)
C20 C -0.3579(6) 0.6579(3) 0.5409(3)
loop_
_geom_bond_atom_site_label_1
_geom_bond_atom_site_label_2
_geom_bond_site_symmetry_1
_geom_bond_site_symmetry_2
H1 C5 1_555 1_555
H2 C8 1_555 1_555
H3 C17 1_555 1_555
H4 C12 1_555 1_555
H5 C16 1_555 1_555
H6 C17 1_555 1_555
H7 C4 1_555 1_555
H8 C9 1_555 1_555
H9 C17 1_555 1_555
H10 C9 1_555 1_555
H11 C15 1_555 1_555
H12 C14 1_555 1_555
H13 C20 1_555 1_555
H14 C9 1_555 1_555
H15 C13 1_555 1_555
H16 C19 1_555 1_555
H17 C10 1_555 1_555
H18 C18 1_555 1_555
H19 C7 1_555 1_555
H20 C8 1_555 1_555
H21 C7 1_555 1_555
S1 N1 1_555 1_555
N1 C1 1_555 1_555
O1 C1 1_555 1_555
C1 C3 1_555 1_555
C2 C3 1_555 1_555
O2 S1 1_555 1_555
O3 S1 1_555 1_555
C3 C4 1_555 1_555
C4 C5 1_555 1_555
C5 C3 1_555 1_555
C6 S1 1_555 1_555
C7 N1 1_555 1_555
C8 O1 1_555 1_555
C9 C1 1_555 1_555
C10 C6 1_555 1_555
C11 C12 1_555 1_555
C12 C14 1_555 1_555
C13 C2 1_555 1_555
C14 C6 1_555 1_555
C15 C10 1_555 1_555
C16 C2 1_555 1_555
C17 C11 1_555 1_555
C18 C13 1_555 1_555
C19 C16 1_555 1_555
C20 C18 1_555 1_555
C4 C7 1_555 1_555
C5 C8 1_555 1_555
C11 C15 1_555 1_555
C19 C20 1_555 1_555

#END
