
#######################################################################
#
#                 Cambridge Crystallographic Data Centre
#                                CCDC 
#
#######################################################################
#
# If this CIF has been generated from an entry in the Cambridge 
# Structural Database, then it will include bibliographic, chemical, 
# crystal, experimental, refinement or atomic coordinate data resulting 
# from the CCDC's data processing and validation procedures.
#
#######################################################################

data_OQIWAN
_chemical_formula_moiety         
'6(C48 H48 N32 O16),6(C14 H18 N2 2+),91(H2 O1),2(Br1 1-),12(Cl1 1-),2(K1 1+)'
_chemical_name_systematic        
'hexakis(cucurbit[8]uril 1,4-butylidenedipyridinium clathrate) dipotassium dibromide dodecachloride hennonacontahydrate'
_symmetry_cell_setting           rhombohedral
_symmetry_space_group_name_H-M   'R -3'
_symmetry_Int_Tables_number      148
_space_group_name_Hall           '-R 3'
loop_
_symmetry_equiv_pos_site_id
_symmetry_equiv_pos_as_xyz
1 x,y,z
2 -y,x-y,z
3 -x+y,-x,z
4 2/3+x,1/3+y,1/3+z
5 2/3-y,1/3+x-y,1/3+z
6 2/3-x+y,1/3-x,1/3+z
7 1/3+x,2/3+y,2/3+z
8 1/3-y,2/3+x-y,2/3+z
9 1/3-x+y,2/3-x,2/3+z
10 -x,-y,-z
11 y,-x+y,-z
12 x-y,x,-z
13 1/3-x,2/3-y,2/3-z
14 1/3+y,2/3-x+y,2/3-z
15 1/3+x-y,2/3+x,2/3-z
16 2/3-x,1/3-y,1/3-z
17 2/3+y,1/3-x+y,1/3-z
18 2/3+x-y,1/3+x,1/3-z
_cell_length_a                   29.4138(12)
_cell_length_b                   29.4138(12)
_cell_length_c                   52.9469(16)
_cell_angle_alpha                90
_cell_angle_beta                 90
_cell_angle_gamma                120
_cell_volume                     39671
_exptl_crystal_colour            colorless
_exptl_crystal_description       block
_cell_formula_units_Z            3
loop_
_atom_site_label
_atom_site_type_symbol
_atom_site_fract_x
_atom_site_fract_y
_atom_site_fract_z
C1 C 0.39863(13) 0.43632(14) 0.06408(7)
N1 N 0.40362(11) 0.48115(11) 0.05452(5)
O1 O 0.38597(10) 0.39540(9) 0.05232(5)
C2 C 0.42187(13) 0.52290(13) 0.07313(7)
H1 H 0.4558 0.5531 0.0684
N2 N 0.38363(10) 0.53841(11) 0.07915(5)
O2 O 0.34863(11) 0.29723(10) 0.10846(5)
C3 C 0.36745(13) 0.52787(13) 0.10397(7)
N3 N 0.40970(12) 0.44347(11) 0.08930(6)
O3 O 0.22456(11) 0.17879(10) 0.12889(5)
C4 C 0.42595(13) 0.49663(13) 0.09734(7)
H2 H 0.4616 0.5145 0.1043
N4 N 0.38841(12) 0.49995(11) 0.11439(6)
O4 O 0.08394(11) 0.11745(11) 0.09959(6)
C5 C 0.41946(14) 0.40783(15) 0.10415(7)
H3 H 0.4541 0.4274 0.1116
H4 H 0.4194 0.3816 0.0930
N5 N 0.38122(11) 0.38113(11) 0.12424(6)
O5 O 0.00644(11) 0.13267(11) 0.04281(5)
C6 C 0.38874(15) 0.49247(14) 0.14131(7)
H5 H 0.3732 0.5109 0.1496
H6 H 0.4249 0.5082 0.1470
N6 N 0.36083(11) 0.43822(11) 0.14916(6)
O6 O 0.04981(11) 0.23021(11) -0.00788(6)
C7 C 0.38441(14) 0.40540(13) 0.14859(7)
H7 H 0.4204 0.4239 0.1551
N7 N 0.33038(11) 0.31347(11) 0.14913(6)
O7 O 0.18488(10) 0.35251(10) -0.02636(6)
C8 C 0.35255(14) 0.32715(14) 0.12544(8)
N8 N 0.30652(11) 0.36952(11) 0.17240(6)
O8 O 0.32099(10) 0.42039(10) -0.00486(6)
C9 C 0.31694(14) 0.41755(14) 0.16429(7)
N9 N 0.25137(12) 0.23571(12) 0.16284(6)
O9 O 0.33888(10) 0.54058(10) 0.11467(5)
C10 C 0.34775(13) 0.35856(14) 0.16556(7)
H8 H 0.3661 0.3561 0.1805
N10 N 0.22658(11) 0.29261(11) 0.18535(6)
O10 O 0.29045(10) 0.43839(10) 0.16901(5)
C11 C 0.30716(14) 0.26059(14) 0.15852(8)
H9 H 0.3242 0.2610 0.1743
H10 H 0.3138 0.2397 0.1465
N11 N 0.16666(12) 0.17779(12) 0.15862(6)
O11 O 0.16271(9) 0.31568(10) 0.19096(5)
C12 C 0.27053(13) 0.34172(14) 0.19282(7)
H11 H 0.2894 0.3354 0.2061
H12 H 0.2577 0.3638 0.1997
N12 N 0.14273(11) 0.22942(11) 0.18568(6)
O12 O 0.02297(10) 0.24300(10) 0.17112(5)
C13 C 0.22829(14) 0.24360(13) 0.18509(7)
H13 H 0.2448 0.2399 0.2004
N13 N 0.07984(12) 0.13825(11) 0.14117(6)
O13 O -0.03227(11) 0.27475(10) 0.11318(5)
C14 C 0.21567(14) 0.19602(14) 0.14823(7)
N14 N 0.05259(11) 0.18363(11) 0.17033(6)
O14 O 0.01433(12) 0.37923(11) 0.05680(5)
C15 C 0.17578(14) 0.28264(14) 0.18763(7)
N15 N 0.01306(12) 0.12134(11) 0.11549(6)
O15 O 0.13558(10) 0.50235(10) 0.03247(5)
C16 C 0.17032(14) 0.20100(14) 0.18356(7)
H14 H 0.1606 0.1750 0.1971
N16 N -0.00922(11) 0.17348(11) 0.14341(6)
O16 O 0.27548(10) 0.56744(11) 0.05785(5)
C17 C 0.12110(15) 0.12977(14) 0.15014(8)
H15 H 0.1315 0.1145 0.1367
H16 H 0.1079 0.1049 0.1640
N17 N -0.03003(12) 0.13720(12) 0.08062(6)
C18 C 0.08678(14) 0.20437(15) 0.19221(8)
H17 H 0.0783 0.1760 0.2040
H18 H 0.0802 0.2299 0.2006
N18 N -0.05342(13) 0.18835(12) 0.10868(6)
C19 C 0.03868(14) 0.13500(14) 0.15827(7)
H19 H 0.0277 0.1064 0.1705
N19 N -0.04411(13) 0.17227(12) 0.04654(6)
C20 C 0.06073(15) 0.12414(14) 0.11694(8)
N20 N -0.05309(12) 0.23291(12) 0.07455(6)
C21 C 0.02195(15) 0.20430(14) 0.16244(7)
N21 N -0.01801(12) 0.23448(12) 0.01203(6)
C22 C -0.00564(14) 0.12549(13) 0.14034(7)
H20 H -0.0386 0.0938 0.1448
N22 N -0.02567(12) 0.29529(12) 0.04043(6)
C23 C -0.02158(16) 0.09895(14) 0.09418(8)
H21 H -0.0551 0.0707 0.1000
H22 H -0.0069 0.0840 0.0827
N23 N 0.04151(12) 0.30427(12) -0.00936(6)
C24 C -0.05533(15) 0.17529(15) 0.13484(7)
H23 H -0.0863 0.1413 0.1378
H24 H -0.0588 0.2010 0.1448
N24 N 0.02318(11) 0.36348(12) 0.01532(6)
C25 C -0.07043(15) 0.14989(14) 0.08876(7)
H25 H -0.1038 0.1183 0.0928
N25 N 0.12345(11) 0.37961(12) -0.02135(7)
C26 C -0.02052(16) 0.14547(15) 0.05542(8)
N26 N 0.10380(11) 0.43951(11) 0.00061(6)
C27 C -0.04473(14) 0.23659(15) 0.10048(7)
N27 N 0.20784(11) 0.43949(12) -0.02356(6)
C28 C -0.07485(15) 0.17905(15) 0.06540(7)
H26 H -0.1114 0.1643 0.0600
N28 N 0.18986(11) 0.49743(12) 0.00180(6)
C29 C -0.04768(17) 0.18056(15) 0.01989(8)
H27 H -0.0356 0.1604 0.0105
H28 H -0.0843 0.1671 0.0156
N29 N 0.29818(11) 0.48451(12) -0.00858(6)
C30 C -0.06162(15) 0.27069(15) 0.06104(7)
H29 H -0.0972 0.2532 0.0545
H30 H -0.0582 0.2976 0.0727
N30 N 0.27869(11) 0.54073(12) 0.01732(6)
C31 C -0.03510(15) 0.27185(14) 0.01547(7)
H31 H -0.0718 0.2573 0.0104
N31 N 0.35911(11) 0.49533(11) 0.01915(6)
C32 C 0.02655(16) 0.25346(15) -0.00240(8)
N32 N 0.34465(11) 0.55790(11) 0.04320(6)
C33 C 0.00519(14) 0.34966(15) 0.03920(7)
C34 C 0.00240(14) 0.31884(14) -0.00174(7)
H32 H -0.0159 0.3231 -0.0162
C35 C 0.07803(15) 0.33034(15) -0.02941(8)
H33 H 0.0603 0.3374 -0.0430
H34 H 0.0900 0.3073 -0.0359
C36 C 0.04812(14) 0.41710(14) 0.00632(8)
H35 H 0.0442 0.4386 0.0190
H36 H 0.0301 0.4183 -0.0088
C37 C 0.12376(14) 0.42909(14) -0.02158(8)
H37 H 0.1060 0.4320 -0.0366
C38 C 0.17371(15) 0.38737(15) -0.02407(7)
C39 C 0.14178(14) 0.48221(14) 0.01402(8)
C40 C 0.18237(13) 0.47083(15) -0.02180(8)
H38 H 0.1913 0.4948 -0.0362
C41 C 0.26365(14) 0.46275(16) -0.02997(7)
H39 H 0.2692 0.4360 -0.0377
H40 H 0.2727 0.4903 -0.0424
C42 C 0.23541(13) 0.54650(14) 0.00759(8)
H41 H 0.2262 0.5648 0.0200
H42 H 0.2469 0.5679 -0.0076
C43 C 0.31562(13) 0.53639(13) 0.00118(7)
H43 H 0.3283 0.5627 -0.0123
C44 C 0.32554(13) 0.46216(13) 0.00139(7)
C45 C 0.29747(14) 0.55640(13) 0.04146(7)
C46 C 0.36071(13) 0.54534(13) 0.01965(7)
H44 H 0.3948 0.5740 0.0140
C47 C 0.40379(13) 0.49052(15) 0.02770(7)
H45 H 0.4038 0.4619 0.0186
H46 H 0.4359 0.5225 0.0234
C48 C 0.37851(14) 0.57836(13) 0.06528(7)
H47 H 0.4131 0.6055 0.0599
H48 H 0.3645 0.5944 0.0765
C49 C 0.1909(3) 0.4082(3) 0.04088(14)
H49 H 0.1712 0.4107 0.0278
C50 C 0.1974(3) 0.4343(3) 0.06097(13)
H50 H 0.1816 0.4549 0.0616
C51 C 0.2120(3) 0.3766(3) 0.03815(13)
H51 H 0.2065 0.3564 0.0238
C52 C 0.2404(4) 0.3764(4) 0.05701(15)
H52 H 0.2575 0.3571 0.0557
C53 C 0.2231(3) 0.4351(3) 0.08003(17)
H53 H 0.2266 0.4555 0.0941
C54 C 0.2694(3) 0.3963(4) 0.10230(13)
H54 H 0.2723 0.4209 0.1153
H55 H 0.3044 0.4027 0.0986
C55 C 0.2343(3) 0.3386(4) 0.11206(13)
H56 H 0.2225 0.3141 0.0980
H57 H 0.2539 0.3294 0.1237
C56 C 0.1875(4) 0.3365(3) 0.12543(15)
H58 H 0.1978 0.3490 0.1426
H59 H 0.1790 0.3607 0.1170
C57 C 0.1388(3) 0.2836(3) 0.12645(12)
H60 H 0.1462 0.2586 0.1347
H61 H 0.1116 0.2856 0.1359
C58 C 0.0955(2) 0.2864(3) 0.08857(19)
H62 H 0.0857 0.3074 0.0976
C59 C 0.0822(3) 0.2766(3) 0.06234(15)
H63 H 0.0648 0.2915 0.0542
C60 C 0.0954(3) 0.2457(3) 0.04983(16)
H64 H 0.0884 0.2394 0.0327
C61 C 0.1190(3) 0.2240(3) 0.06251(16)
H65 H 0.1260 0.2005 0.0540
C62 C 0.1337(3) 0.2347(2) 0.08774(14)
H66 H 0.1517 0.2202 0.0957
N33 N 0.2457(2) 0.4045(3) 0.07906(12)
N34 N 0.1211(2) 0.2667(2) 0.10023(13)
O17 O 0.25198(14) 0.56754(16) 0.10847(7)
O18 O 0.28488(16) 0.47781(16) 0.21672(8)
O19 O 0.02985(17) 0.51332(15) -0.02397(8)
O20 O 0.22834(15) 0.47160(17) 0.13994(8)
O21 O 0.35463(17) 0.58806(18) 0.16156(8)
O22 O 0.0000 0.0000 0.07479(17)
O23 O -0.00193(19) 0.46158(18) 0.07066(11)
O24 O 0.3031(3) 0.16104(18) 0.18935(10)
O25 O 0.0435(2) 0.1756(2) -0.05267(12)
O26 O 0.3333 0.6667 0.1244(2)
O27 O 0.1216(2) 0.3903(2) 0.12971(11)
O28 O 0.4126(3) 0.2719(3) 0.08072(14)
O29 O -0.0812(3) -0.0094(3) 0.04215(14)
Br1 Br 0.0000 0.0000 0.141721(19)
K1 K 0.3333 0.6667 -0.02515(4)
Cl1 Cl 0.18368(4) 0.08422(4) 0.19568(2)
Cl2 Cl 0.14531(5) 0.56527(6) -0.03600(3)
O30 O 0.2302(4) 0.1738(3) 0.23994(13)
O31 O 0.1001(3) 0.4369(4) 0.08976(15)
O32 O -0.1101(3) 0.3848(5) 0.08780(15)
O33 O -0.1749(3) 0.1552(5) 0.09589(16)
O34 O 0.2826(3) 0.3064(3) 0.06449(14)
O35 O 0.0367(4) 0.2456(4) -0.08030(15)
O36 O 0.2934(8) 0.5724(4) -0.06403(18)
O37 O 0.0801(5) 0.0829(4) 0.2183(2)
loop_
_geom_bond_atom_site_label_1
_geom_bond_atom_site_label_2
_geom_bond_site_symmetry_1
_geom_bond_site_symmetry_2
C1 N1 1_555 1_555
N1 C2 1_555 1_555
O1 C1 1_555 1_555
C2 H1 1_555 1_555
N2 C2 1_555 1_555
O2 C8 1_555 1_555
C3 N2 1_555 1_555
N3 C1 1_555 1_555
O3 C14 1_555 1_555
C4 C2 1_555 1_555
H2 C4 1_555 1_555
N4 C3 1_555 1_555
O4 C20 1_555 1_555
C5 N3 1_555 1_555
H3 C5 1_555 1_555
H4 C5 1_555 1_555
N5 C5 1_555 1_555
O5 C26 1_555 1_555
C6 N4 1_555 1_555
H5 C6 1_555 1_555
H6 C6 1_555 1_555
N6 C6 1_555 1_555
O6 C32 1_555 1_555
C7 N5 1_555 1_555
H7 C7 1_555 1_555
N7 C8 1_555 1_555
O7 C38 1_555 1_555
C8 N5 1_555 1_555
N8 C9 1_555 1_555
O8 C44 1_555 1_555
C9 N6 1_555 1_555
N9 C11 1_555 1_555
O9 C3 1_555 1_555
C10 C7 1_555 1_555
H8 C10 1_555 1_555
N10 C12 1_555 1_555
O10 C9 1_555 1_555
C11 N7 1_555 1_555
H9 C11 1_555 1_555
H10 C11 1_555 1_555
N11 C14 1_555 1_555
O11 C15 1_555 1_555
C12 N8 1_555 1_555
H11 C12 1_555 1_555
H12 C12 1_555 1_555
N12 C15 1_555 1_555
O12 C21 1_555 1_555
C13 N9 1_555 1_555
H13 C13 1_555 1_555
N13 C17 1_555 1_555
O13 C27 1_555 1_555
C14 N9 1_555 1_555
N14 C18 1_555 1_555
O14 C33 1_555 1_555
C15 N10 1_555 1_555
N15 C20 1_555 1_555
O15 C39 1_555 1_555
C16 N11 1_555 1_555
H14 C16 1_555 1_555
N16 C21 1_555 1_555
O16 C45 1_555 1_555
C17 N11 1_555 1_555
H15 C17 1_555 1_555
H16 C17 1_555 1_555
N17 C23 1_555 1_555
C18 N12 1_555 1_555
H17 C18 1_555 1_555
H18 C18 1_555 1_555
N18 C24 1_555 1_555
C19 N13 1_555 1_555
H19 C19 1_555 1_555
N19 C26 1_555 1_555
C20 N13 1_555 1_555
N20 C27 1_555 1_555
C21 N14 1_555 1_555
N21 C29 1_555 1_555
C22 N15 1_555 1_555
H20 C22 1_555 1_555
N22 C30 1_555 1_555
C23 N15 1_555 1_555
H21 C23 1_555 1_555
H22 C23 1_555 1_555
N23 C32 1_555 1_555
C24 N16 1_555 1_555
H23 C24 1_555 1_555
H24 C24 1_555 1_555
N24 C33 1_555 1_555
C25 N17 1_555 1_555
H25 C25 1_555 1_555
N25 C35 1_555 1_555
C26 N17 1_555 1_555
N26 C36 1_555 1_555
C27 N18 1_555 1_555
N27 C38 1_555 1_555
C28 N19 1_555 1_555
H26 C28 1_555 1_555
N28 C39 1_555 1_555
C29 N19 1_555 1_555
H27 C29 1_555 1_555
H28 C29 1_555 1_555
N29 C41 1_555 1_555
C30 N20 1_555 1_555
H29 C30 1_555 1_555
H30 C30 1_555 1_555
N30 C42 1_555 1_555
C31 N21 1_555 1_555
H31 C31 1_555 1_555
N31 C44 1_555 1_555
C32 N21 1_555 1_555
N32 C45 1_555 1_555
C33 N22 1_555 1_555
C34 N23 1_555 1_555
H32 C34 1_555 1_555
C35 N23 1_555 1_555
H33 C35 1_555 1_555
H34 C35 1_555 1_555
C36 N24 1_555 1_555
H35 C36 1_555 1_555
H36 C36 1_555 1_555
C37 N25 1_555 1_555
H37 C37 1_555 1_555
C38 N25 1_555 1_555
C39 N26 1_555 1_555
C40 N27 1_555 1_555
H38 C40 1_555 1_555
C41 N27 1_555 1_555
H39 C41 1_555 1_555
H40 C41 1_555 1_555
C42 N28 1_555 1_555
H41 C42 1_555 1_555
H42 C42 1_555 1_555
C43 N29 1_555 1_555
H43 C43 1_555 1_555
C44 N29 1_555 1_555
C45 N30 1_555 1_555
C46 N31 1_555 1_555
H44 C46 1_555 1_555
C47 N1 1_555 1_555
H45 C47 1_555 1_555
H46 C47 1_555 1_555
C48 N2 1_555 1_555
H47 C48 1_555 1_555
H48 C48 1_555 1_555
C49 H49 1_555 1_555
C50 C49 1_555 1_555
H50 C50 1_555 1_555
C51 C49 1_555 1_555
H51 C51 1_555 1_555
C52 C51 1_555 1_555
H52 C52 1_555 1_555
C53 C50 1_555 1_555
H53 C53 1_555 1_555
C54 H54 1_555 1_555
H55 C54 1_555 1_555
C55 C54 1_555 1_555
H56 C55 1_555 1_555
H57 C55 1_555 1_555
C56 C55 1_555 1_555
H58 C56 1_555 1_555
H59 C56 1_555 1_555
C57 C56 1_555 1_555
H60 C57 1_555 1_555
H61 C57 1_555 1_555
C58 H62 1_555 1_555
C59 C58 1_555 1_555
H63 C59 1_555 1_555
C60 C59 1_555 1_555
H64 C60 1_555 1_555
C61 C60 1_555 1_555
H65 C61 1_555 1_555
C62 C61 1_555 1_555
H66 C62 1_555 1_555
N33 C52 1_555 1_555
N34 C57 1_555 1_555
N3 C4 1_555 1_555
C4 N4 1_555 1_555
N6 C7 1_555 1_555
N7 C10 1_555 1_555
N8 C10 1_555 1_555
N10 C13 1_555 1_555
N12 C16 1_555 1_555
C13 C16 1_555 1_555
N14 C19 1_555 1_555
N16 C22 1_555 1_555
N18 C25 1_555 1_555
C19 C22 1_555 1_555
N20 C28 1_555 1_555
N22 C31 1_555 1_555
N24 C34 1_555 1_555
C25 C28 1_555 1_555
N26 C37 1_555 1_555
N28 C40 1_555 1_555
N30 C43 1_555 1_555
C31 C34 1_555 1_555
N31 C47 1_555 1_555
N32 C46 1_555 1_555
N32 C48 1_555 1_555
C37 C40 1_555 1_555
C43 C46 1_555 1_555
C53 N33 1_555 1_555
C54 N33 1_555 1_555
C58 N34 1_555 1_555
C62 N34 1_555 1_555

#END
