
#######################################################################
#
#                 Cambridge Crystallographic Data Centre
#                                CCDC 
#
#######################################################################
#
# If this CIF has been generated from an entry in the Cambridge 
# Structural Database, then it will include bibliographic, chemical, 
# crystal, experimental, refinement or atomic coordinate data resulting 
# from the CCDC's data processing and validation procedures.
#
#######################################################################

data_OQIYIY
_chemical_name_common            
6'-bromo-2-(4-methoxybenzoyl)-1'-methyl-2'-oxo-4-propylspiro[cyclopent[2]ene-1,3'-indoline]-5,5-dicarbonitrile
_chemical_formula_moiety         'C26 H22 Br1 N3 O3'
_chemical_name_systematic        
6'-bromo-5-(4-methoxybenzoyl)-1'-methyl-2'-oxo-3-propyl-1',2'-dihydro-2H-spiro[cyclopent-4-ene-1,3'-indole]-2,2-dicarbonitrile
_symmetry_cell_setting           triclinic
_symmetry_space_group_name_H-M   'P -1'
_symmetry_Int_Tables_number      2
_space_group_name_Hall           '-P 1'
loop_
_symmetry_equiv_pos_site_id
_symmetry_equiv_pos_as_xyz
1 x,y,z
2 -x,-y,-z
_cell_length_a                   13.4558(6)
_cell_length_b                   14.0301(5)
_cell_length_c                   15.2058(6)
_cell_angle_alpha                82.823(3)
_cell_angle_beta                 83.037(3)
_cell_angle_gamma                63.421(4)
_cell_volume                     2540.24
_exptl_crystal_colour            colorless
_cell_formula_units_Z            4
_exptl_crystal_recrystallization_method 'ethyl acetate/ethanol'
loop_
_atom_site_label
_atom_site_type_symbol
_atom_site_fract_x
_atom_site_fract_y
_atom_site_fract_z
Br1 Br 0.06107(6) 0.35882(5) 0.14582(5)
O1 O 0.1229(3) 0.7689(3) 0.2211(2)
O2 O -0.1530(3) 0.8953(2) 0.3296(2)
O3 O 0.6031(3) 0.6846(3) 0.2957(2)
N1 N -0.1263(3) 0.7482(3) 0.2618(2)
C1 C -0.0029(3) 0.7171(3) 0.3707(3)
C2 C 0.0869(3) 0.7537(3) 0.3743(3)
C3 C 0.0293(3) 0.6177(3) 0.3244(3)
N2 N 0.0902(4) 0.5338(4) 0.5532(3)
C4 C -0.0477(3) 0.6405(3) 0.2618(3)
C5 C 0.2744(3) 0.7405(3) 0.3014(2)
C6 C 0.1598(3) 0.7552(3) 0.2932(3)
C7 C -0.0424(3) 0.7144(3) 0.4728(3)
C8 C 0.0745(3) 0.8007(3) 0.4474(3)
H1 H 0.1226 0.8271 0.4610
C9 C 0.0316(3) 0.6115(4) 0.5178(3)
C10 C 0.3379(3) 0.6766(3) 0.3696(3)
H2 H 0.3056 0.6477 0.4161
C11 C 0.1176(3) 0.5178(3) 0.3318(3)
H3 H 0.1704 0.5019 0.3724
C12 C -0.1030(3) 0.8010(3) 0.3186(3)
C13 C 0.4485(3) 0.6550(4) 0.3698(3)
H4 H 0.4909 0.6100 0.4152
C14 C -0.0400(4) 0.5657(4) 0.2071(3)
H5 H -0.0914 0.5815 0.1654
C15 C 0.1269(3) 0.4407(4) 0.2776(3)
H6 H 0.1857 0.3725 0.2818
N3 N -0.2489(4) 0.7470(4) 0.5070(4)
C16 C 0.4961(3) 0.7005(4) 0.3024(3)
C17 C 0.0486(4) 0.4664(4) 0.2182(3)
C18 C -0.0259(3) 0.8069(3) 0.5065(3)
H7 H -0.0890 0.8742 0.4887
C19 C 0.3238(4) 0.7856(4) 0.2340(3)
H8 H 0.2823 0.8287 0.1875
C20 C -0.1588(4) 0.7307(4) 0.4912(3)
C21 C 0.4312(4) 0.7679(4) 0.2350(3)
H9 H 0.4618 0.8008 0.1906
C22 C -0.0203(4) 0.8041(5) 0.6055(3)
H10 H 0.0478 0.7441 0.6240
H11 H -0.0829 0.7944 0.6367
C23 C -0.2207(4) 0.7986(4) 0.2058(4)
H12 H -0.1935 0.7978 0.1444
H13 H -0.2654 0.8712 0.2202
H14 H -0.2651 0.7599 0.2162
C24 C 0.6770(4) 0.6088(6) 0.3576(4)
H15 H 0.7516 0.5996 0.3404
H16 H 0.6741 0.5416 0.3582
H17 H 0.6549 0.6343 0.4159
C25 C -0.0234(6) 0.9094(5) 0.6299(4)
H18 H 0.0422 0.9158 0.6016
H19 H -0.0882 0.9692 0.6062
C26 C -0.0272(10) 0.9162(9) 0.7244(6)
H20 H -0.0144 0.9758 0.7346
H21 H 0.0294 0.8515 0.7502
H22 H -0.0990 0.9257 0.7513
Br2 Br 0.66942(9) 0.67446(7) 0.04159(5)
O4 O 0.3901(3) 0.3192(3) 0.2073(2)
N4 N 0.4324(3) 0.4594(3) 0.1553(2)
O5 O 0.6217(3) 0.2610(3) 0.0472(2)
O6 O 0.9984(3) -0.1961(3) -0.0306(2)
C27 C 0.4538(3) 0.3609(3) 0.1953(3)
C28 C 0.5272(3) 0.4784(3) 0.1487(3)
C29 C 0.6132(3) 0.3928(3) 0.1915(3)
C30 C 0.5396(4) 0.5641(4) 0.1042(3)
H23 H 0.4817 0.6210 0.0762
C31 C 0.7613(3) 0.0840(3) 0.0699(2)
N5 N 0.3862(4) 0.4213(4) 0.4104(3)
C32 C 0.5737(3) 0.3098(3) 0.2266(3)
C33 C 0.9351(3) -0.0730(3) 0.0843(3)
H24 H 0.9975 -0.1141 0.1160
C34 C 0.4645(4) 0.3605(4) 0.3762(3)
C35 C 0.6728(4) 0.1863(3) 0.0999(3)
C36 C 0.8527(4) 0.0205(3) 0.1163(3)
H25 H 0.8595 0.0406 0.1704
C37 C 0.5671(3) 0.2823(4) 0.3313(3)
C38 C 0.6399(3) 0.1982(3) 0.1957(3)
C39 C 0.9243(4) -0.1046(4) 0.0056(3)
C40 C 0.6456(5) 0.5596(4) 0.1041(3)
C41 C 0.7156(4) 0.3914(4) 0.1887(3)
H26 H 0.7738 0.3339 0.2159
C42 C 0.3272(4) 0.5325(4) 0.1192(3)
H27 H 0.2801 0.4971 0.1217
H28 H 0.3407 0.5551 0.0586
H29 H 0.2913 0.5937 0.1535
C43 C 0.6410(4) 0.1234(4) 0.2583(3)
H30 H 0.6782 0.0508 0.2501
C44 C 0.7533(4) 0.0518(4) -0.0112(3)
H31 H 0.6932 0.0949 -0.0447
C45 C 0.7322(4) 0.4775(5) 0.1446(3)
H32 H 0.8010 0.4786 0.1430
C46 C 0.8322(5) -0.0415(5) -0.0417(3)
H33 H 0.8243 -0.0631 -0.0947
C47 C 0.6607(4) 0.2862(5) 0.3688(3)
C48 C 0.5771(4) 0.1659(4) 0.3432(3)
H34 H 0.5022 0.1712 0.3420
N6 N 0.7327(5) 0.2870(7) 0.3996(4)
C49 C 1.0901(5) -0.2671(5) 0.0185(4)
H35 H 1.1439 -0.3197 -0.0190
H36 H 1.0647 -0.3021 0.0682
H37 H 1.1238 -0.2277 0.0397
C50 C 0.6272(5) 0.0960(5) 0.4262(4)
H38 H 0.6418 0.0231 0.4184
H39 H 0.6982 0.0962 0.4314
C51 C 0.5587(7) 0.1276(6) 0.5090(4)
H40 H 0.4851 0.1336 0.5032
H41 H 0.5506 0.1970 0.5215
C52 C 0.6125(9) 0.0446(8) 0.5864(5)
H42 H 0.6107 -0.0213 0.5782
H43 H 0.5720 0.0709 0.6415
H44 H 0.6884 0.0325 0.5877
loop_
_geom_bond_atom_site_label_1
_geom_bond_atom_site_label_2
_geom_bond_site_symmetry_1
_geom_bond_site_symmetry_2
Br1 C17 1_555 1_555
O1 C6 1_555 1_555
O2 C12 1_555 1_555
O3 C16 1_555 1_555
N1 C4 1_555 1_555
C1 C2 1_555 1_555
C2 C6 1_555 1_555
C3 C1 1_555 1_555
N2 C9 1_555 1_555
C4 C3 1_555 1_555
C5 C6 1_555 1_555
C7 C1 1_555 1_555
C8 C2 1_555 1_555
H1 C8 1_555 1_555
C9 C7 1_555 1_555
C10 C5 1_555 1_555
H2 C10 1_555 1_555
C11 C3 1_555 1_555
H3 C11 1_555 1_555
C12 N1 1_555 1_555
C13 C10 1_555 1_555
H4 C13 1_555 1_555
C14 C4 1_555 1_555
H5 C14 1_555 1_555
C15 C11 1_555 1_555
H6 C15 1_555 1_555
N3 C20 1_555 1_555
C16 C13 1_555 1_555
C17 C14 1_555 1_555
C18 C7 1_555 1_555
H7 C18 1_555 1_555
C19 C5 1_555 1_555
H8 C19 1_555 1_555
C20 C7 1_555 1_555
C21 C16 1_555 1_555
H9 C21 1_555 1_555
C22 C18 1_555 1_555
H10 C22 1_555 1_555
H11 C22 1_555 1_555
C23 N1 1_555 1_555
H12 C23 1_555 1_555
H13 C23 1_555 1_555
H14 C23 1_555 1_555
C24 O3 1_555 1_555
H15 C24 1_555 1_555
H16 C24 1_555 1_555
H17 C24 1_555 1_555
C25 C22 1_555 1_555
H18 C25 1_555 1_555
H19 C25 1_555 1_555
C26 C25 1_555 1_555
H20 C26 1_555 1_555
H21 C26 1_555 1_555
H22 C26 1_555 1_555
Br2 C40 1_555 1_555
O4 C27 1_555 1_555
N4 C27 1_555 1_555
O5 C35 1_555 1_555
O6 C39 1_555 1_555
C27 C32 1_555 1_555
C28 N4 1_555 1_555
C29 C28 1_555 1_555
C30 C28 1_555 1_555
H23 C30 1_555 1_555
C31 C35 1_555 1_555
N5 C34 1_555 1_555
C32 C29 1_555 1_555
C33 H24 1_555 1_555
C34 C37 1_555 1_555
C35 C38 1_555 1_555
C36 C31 1_555 1_555
H25 C36 1_555 1_555
C37 C32 1_555 1_555
C38 C32 1_555 1_555
C39 C33 1_555 1_555
C40 C30 1_555 1_555
C41 C29 1_555 1_555
H26 C41 1_555 1_555
C42 N4 1_555 1_555
H27 C42 1_555 1_555
H28 C42 1_555 1_555
H29 C42 1_555 1_555
C43 C38 1_555 1_555
H30 C43 1_555 1_555
C44 C31 1_555 1_555
H31 C44 1_555 1_555
C45 C40 1_555 1_555
H32 C45 1_555 1_555
C46 C39 1_555 1_555
H33 C46 1_555 1_555
C47 C37 1_555 1_555
C48 C37 1_555 1_555
H34 C48 1_555 1_555
N6 C47 1_555 1_555
C49 O6 1_555 1_555
H35 C49 1_555 1_555
H36 C49 1_555 1_555
H37 C49 1_555 1_555
C50 C48 1_555 1_555
H38 C50 1_555 1_555
H39 C50 1_555 1_555
C51 C50 1_555 1_555
H40 C51 1_555 1_555
H41 C51 1_555 1_555
C52 C51 1_555 1_555
H42 C52 1_555 1_555
H43 C52 1_555 1_555
H44 C52 1_555 1_555
C1 C12 1_555 1_555
C8 C18 1_555 1_555
C15 C17 1_555 1_555
C19 C21 1_555 1_555
C33 C36 1_555 1_555
C41 C45 1_555 1_555
C43 C48 1_555 1_555
C44 C46 1_555 1_555

#END
