
#######################################################################
#
#                 Cambridge Crystallographic Data Centre
#                                CCDC 
#
#######################################################################
#
# If this CIF has been generated from an entry in the Cambridge 
# Structural Database, then it will include bibliographic, chemical, 
# crystal, experimental, refinement or atomic coordinate data resulting 
# from the CCDC's data processing and validation procedures.
#
#######################################################################

data_OQOCII
_chemical_compound_source        'from the branch and leaf of Abies fargesii'
_chemical_name_common            
'(24E)-3alpha-Hydroxy-23-oxo-8,14,24-mariesatrien-26-oic acid methanol solvate'
_chemical_formula_moiety         'C30 H44 O4,C1 H4 O1'
_chemical_name_systematic        
'3-hydroxy-4,4,17-trimethyl-23-oxocholesta-8,14,24-trien-26-oic acid methanol solvate'
_symmetry_cell_setting           monoclinic
_symmetry_space_group_name_H-M   'P 21'
_symmetry_Int_Tables_number      4
_space_group_name_Hall           'P 2yb'
loop_
_symmetry_equiv_pos_site_id
_symmetry_equiv_pos_as_xyz
1 x,y,z
2 -x,1/2+y,-z
_cell_length_a                   6.3233(13)
_cell_length_b                   14.137(3)
_cell_length_c                   16.322(3)
_cell_angle_alpha                90
_cell_angle_beta                 92.873(3)
_cell_angle_gamma                90
_cell_volume                     1457.23
_exptl_crystal_colour            colorless
_exptl_crystal_description       block
_chemical_melting_point          '472.15-473.15 K'
_cell_formula_units_Z            2
_exptl_crystal_recrystallization_method methanol
loop_
_atom_site_label
_atom_site_type_symbol
_atom_site_fract_x
_atom_site_fract_y
_atom_site_fract_z
C1 C 0.0813(4) 0.69831(14) 0.31843(11)
H1 H 0.0095 0.6570 0.3555
H2 H 0.2325 0.6913 0.3298
C2 C 0.0180(4) 0.80068(15) 0.33464(13)
H3 H -0.1342 0.8071 0.3260
H4 H 0.0553 0.8165 0.3914
C3 C 0.1271(3) 0.86901(14) 0.27874(13)
H5 H 0.0774 0.9332 0.2897
C4 C 0.0811(3) 0.84657(12) 0.18737(12)
C5 C 0.1284(3) 0.74034(12) 0.17234(11)
H6 H 0.2811 0.7338 0.1843
C6 C 0.0940(4) 0.70830(15) 0.08366(12)
H7 H -0.0559 0.6988 0.0709
H8 H 0.1443 0.7567 0.0472
C7 C 0.2126(4) 0.61685(15) 0.07083(12)
H9 H 0.1532 0.5863 0.0217
H10 H 0.3593 0.6317 0.0617
C8 C 0.2057(3) 0.54840(13) 0.14144(11)
C9 C 0.1198(3) 0.57005(12) 0.21314(11)
C10 C 0.0260(3) 0.66767(12) 0.22952(11)
C11 C 0.1069(3) 0.49664(12) 0.27975(11)
H11 H -0.0312 0.5009 0.3028
H12 H 0.2121 0.5114 0.3232
C12 C 0.1414(3) 0.39480(12) 0.25159(12)
H13 H 0.0173 0.3734 0.2195
H14 H 0.1601 0.3540 0.2992
C13 C 0.3361(3) 0.38759(12) 0.19991(10)
C14 C 0.3051(3) 0.45643(13) 0.12907(11)
C15 C 0.3874(4) 0.42262(16) 0.06181(12)
H15 H 0.3898 0.4556 0.0125
C16 C 0.4760(4) 0.32518(15) 0.07461(13)
H16 H 0.6291 0.3269 0.0821
H17 H 0.4371 0.2845 0.0284
C17 C 0.3731(3) 0.29047(13) 0.15384(10)
C18 C 0.1604(4) 0.24413(15) 0.12865(14)
H18 H 0.1849 0.1879 0.0975
H19 H 0.0758 0.2876 0.0958
H20 H 0.0875 0.2279 0.1769
C19 C -0.2180(3) 0.65828(16) 0.21641(18)
H21 H -0.2535 0.6436 0.1600
H22 H -0.2839 0.7169 0.2305
H23 H -0.2676 0.6086 0.2507
C20 C 0.5225(3) 0.21923(13) 0.19980(11)
H24 H 0.6507 0.2541 0.2176
C21 C 0.5921(4) 0.13777(16) 0.14548(15)
H25 H 0.6901 0.0980 0.1763
H26 H 0.6594 0.1629 0.0988
H27 H 0.4706 0.1013 0.1273
C22 C 0.4280(3) 0.17837(14) 0.27804(12)
H28 H 0.3803 0.2300 0.3117
H29 H 0.3060 0.1396 0.2625
C23 C 0.5870(3) 0.11973(14) 0.32736(12)
C24 C 0.7649(4) 0.17205(15) 0.36901(13)
H30 H 0.7718 0.2363 0.3572
C25 C 0.9149(3) 0.13941(15) 0.42078(12)
C26 C 1.0735(4) 0.21213(19) 0.45359(12)
C27 C 0.9418(6) 0.0404(2) 0.4502(2)
H31 H 0.9161 0.0376 0.5076
H32 H 1.0835 0.0197 0.4416
H33 H 0.8430 0.0002 0.4203
C28 C -0.1468(4) 0.87711(17) 0.16258(16)
H34 H -0.2411 0.8546 0.2026
H35 H -0.1875 0.8509 0.1099
H36 H -0.1539 0.9449 0.1599
C29 C 0.2289(4) 0.90798(16) 0.13714(15)
H37 H 0.2235 0.9723 0.1557
H38 H 0.1839 0.9051 0.0801
H39 H 0.3713 0.8848 0.1443
C30 C 0.5352(3) 0.41874(13) 0.25041(12)
H40 H 0.6561 0.4140 0.2173
H41 H 0.5553 0.3786 0.2976
H42 H 0.5189 0.4831 0.2678
O1 O 0.3502(3) 0.86369(11) 0.30103(10)
H43 H 0.4030 0.9164 0.2978
O2 O 0.5716(3) 0.03417(11) 0.33062(12)
O3 O 1.2331(3) 0.17543(15) 0.49665(12)
H44 H 1.3108 0.2179 0.5146
O4 O 1.0536(3) 0.29610(15) 0.44091(11)
C31 C 0.5408(5) 0.3823(3) 0.4942(2)
H45 H 0.5424 0.4402 0.5251
H46 H 0.4330 0.3858 0.4507
H47 H 0.6762 0.3731 0.4714
O5 O 0.4978(4) 0.3061(2) 0.54622(13)
H48 H 0.5397 0.3189 0.5933
loop_
_geom_bond_atom_site_label_1
_geom_bond_atom_site_label_2
_geom_bond_site_symmetry_1
_geom_bond_site_symmetry_2
C1 H1 1_555 1_555
H2 C1 1_555 1_555
C2 C1 1_555 1_555
H3 C2 1_555 1_555
H4 C2 1_555 1_555
C3 C2 1_555 1_555
H5 C3 1_555 1_555
C4 C3 1_555 1_555
C5 C4 1_555 1_555
H6 C5 1_555 1_555
C6 C5 1_555 1_555
H7 C6 1_555 1_555
H8 C6 1_555 1_555
C7 C6 1_555 1_555
H9 C7 1_555 1_555
H10 C7 1_555 1_555
C8 C7 1_555 1_555
C9 C8 1_555 1_555
C10 C1 1_555 1_555
C11 C9 1_555 1_555
H11 C11 1_555 1_555
H12 C11 1_555 1_555
C12 C11 1_555 1_555
H13 C12 1_555 1_555
H14 C12 1_555 1_555
C13 C12 1_555 1_555
C14 C8 1_555 1_555
C15 C14 1_555 1_555
H15 C15 1_555 1_555
C16 C15 1_555 1_555
H16 C16 1_555 1_555
H17 C16 1_555 1_555
C17 C13 1_555 1_555
C18 C17 1_555 1_555
H18 C18 1_555 1_555
H19 C18 1_555 1_555
H20 C18 1_555 1_555
C19 C10 1_555 1_555
H21 C19 1_555 1_555
H22 C19 1_555 1_555
H23 C19 1_555 1_555
C20 C17 1_555 1_555
H24 C20 1_555 1_555
C21 C20 1_555 1_555
H25 C21 1_555 1_555
H26 C21 1_555 1_555
H27 C21 1_555 1_555
C22 C20 1_555 1_555
H28 C22 1_555 1_555
H29 C22 1_555 1_555
C23 C22 1_555 1_555
C24 C23 1_555 1_555
H30 C24 1_555 1_555
C25 C24 1_555 1_555
C26 C25 1_555 1_555
C27 C25 1_555 1_555
H31 C27 1_555 1_555
H32 C27 1_555 1_555
H33 C27 1_555 1_555
C28 C4 1_555 1_555
H34 C28 1_555 1_555
H35 C28 1_555 1_555
H36 C28 1_555 1_555
C29 C4 1_555 1_555
H37 C29 1_555 1_555
H38 C29 1_555 1_555
H39 C29 1_555 1_555
C30 C13 1_555 1_555
H40 C30 1_555 1_555
H41 C30 1_555 1_555
H42 C30 1_555 1_555
O1 C3 1_555 1_555
H43 O1 1_555 1_555
O2 C23 1_555 1_555
O3 C26 1_555 1_555
H44 O3 1_555 1_555
O4 C26 1_555 1_555
C31 H45 1_555 1_555
H46 C31 1_555 1_555
H47 C31 1_555 1_555
O5 C31 1_555 1_555
H48 O5 1_555 1_555
C5 C10 1_555 1_555
C9 C10 1_555 1_555
C13 C14 1_555 1_555
C16 C17 1_555 1_555

#END
