
#######################################################################
#
#                 Cambridge Crystallographic Data Centre
#                                CCDC 
#
#######################################################################
#
# If this CIF has been generated from an entry in the Cambridge 
# Structural Database, then it will include bibliographic, chemical, 
# crystal, experimental, refinement or atomic coordinate data resulting 
# from the CCDC's data processing and validation procedures.
#
#######################################################################

data_OQOCOO
_chemical_compound_source        'from the branch and leaf of Abies fargesii'
_chemical_name_common            
(22Z)-3alpha-Hydroxy-8,14,22,24-mariesatetraen-26,23-olid
_chemical_formula_moiety         'C30 H42 O3'
_chemical_name_systematic        
3-hydroxy-4,4,17-trimethyl-23,26-epoxycholesta-8,14,22,24-tetraen-26-one
_symmetry_cell_setting           orthorhombic
_symmetry_space_group_name_H-M   'P 21 21 21'
_symmetry_Int_Tables_number      19
_space_group_name_Hall           'P 2ac 2ab'
loop_
_symmetry_equiv_pos_site_id
_symmetry_equiv_pos_as_xyz
1 x,y,z
2 1/2-x,-y,1/2+z
3 -x,1/2+y,1/2-z
4 1/2+x,1/2-y,-z
_cell_length_a                   6.308(3)
_cell_length_b                   16.327(8)
_cell_length_c                   25.678(12)
_cell_angle_alpha                90
_cell_angle_beta                 90
_cell_angle_gamma                90
_cell_volume                     2644.6
_exptl_crystal_colour            colorless
_exptl_crystal_description       block
_chemical_melting_point          '508.15-509.15 K'
_cell_formula_units_Z            4
_exptl_crystal_recrystallization_method methanol
loop_
_atom_site_label
_atom_site_type_symbol
_atom_site_fract_x
_atom_site_fract_y
_atom_site_fract_z
O1 O 1.3953(5) 0.49658(19) 0.18266(11)
C1 C 0.7873(7) 0.5624(2) -0.02859(15)
C2 C 0.9841(7) 0.3719(2) 0.08047(17)
C3 C 0.9770(7) 0.4556(2) 0.05006(15)
C4 C 0.8026(8) 0.6038(2) -0.12226(14)
H1 H 0.9560 0.6007 -0.1164
C5 C 0.7934(9) 0.5881(3) 0.02759(15)
H2 H 0.6663 0.6193 0.0351
H3 H 0.9138 0.6242 0.0326
C6 C 1.1786(8) 0.4838(3) 0.19596(17)
C7 C 0.7943(8) 0.7120(2) -0.05424(16)
H4 H 0.7287 0.7298 -0.0220
H5 H 0.9460 0.7089 -0.0485
C8 C 0.8448(7) 0.4862(2) -0.04296(16)
C9 C 0.9287(7) 0.4283(2) -0.00492(15)
O2 O 1.0764(6) 0.7553(2) -0.14227(17)
H6 H 1.1192 0.7996 -0.1531
C10 C 1.4714(11) 0.5564(3) 0.2158(2)
C11 C 0.7109(7) 0.6264(2) -0.06821(15)
C12 C 1.1329(9) 0.5381(3) 0.23842(18)
H7 H 1.0016 0.5425 0.2546
C13 C 1.1324(8) 0.3716(3) 0.12871(17)
H8 H 1.2719 0.3903 0.1168
C14 C 1.0666(9) 0.3128(2) 0.03796(18)
H9 H 1.2202 0.3101 0.0381
H10 H 1.0098 0.2581 0.0428
C15 C 0.8360(11) 0.4566(2) -0.09836(17)
H11 H 0.7547 0.4062 -0.0994
H12 H 0.9790 0.4438 -0.1097
C16 C 0.7499(9) 0.7750(3) -0.09643(17)
H13 H 0.5978 0.7806 -0.1008
H14 H 0.8056 0.8277 -0.0856
C17 C 1.1978(7) 0.4970(3) 0.04874(17)
H15 H 1.3018 0.4582 0.0371
H16 H 1.2341 0.5157 0.0830
H17 H 1.1944 0.5428 0.0253
C18 C 0.8475(8) 0.7515(3) -0.14752(19)
H18 H 0.8046 0.7922 -0.1735
C19 C 1.3039(10) 0.5814(3) 0.25153(18)
O3 O 1.6518(7) 0.5817(3) 0.21115(17)
C20 C 0.7784(8) 0.6671(3) -0.16690(16)
C21 C 0.7571(8) 0.3437(3) 0.0955(2)
H19 H 0.7626 0.2892 0.1094
H20 H 0.6681 0.3444 0.0652
H21 H 0.7001 0.3802 0.1213
C22 C 0.4622(8) 0.6260(3) -0.06528(18)
H22 H 0.4068 0.6698 -0.0862
H23 H 0.4182 0.6333 -0.0298
H24 H 0.4095 0.5747 -0.0781
C23 C 1.0626(9) 0.4295(3) 0.17058(17)
H25 H 0.9202 0.4268 0.1799
C24 C 0.5499(9) 0.6727(3) -0.18847(17)
H26 H 0.4579 0.6946 -0.1622
H27 H 0.5019 0.6190 -0.1982
H28 H 0.5480 0.7078 -0.2184
C25 C 0.7395(9) 0.5166(3) -0.13652(16)
H29 H 0.5863 0.5115 -0.1359
H30 H 0.7882 0.5041 -0.1715
C26 C 1.3376(11) 0.6433(3) 0.2929(2)
H31 H 1.2997 0.6965 0.2800
H32 H 1.4840 0.6433 0.3031
H33 H 1.2508 0.6301 0.3225
C27 C 0.9863(8) 0.3503(2) -0.01148(18)
H34 H 0.9777 0.3226 -0.0430
C28 C 0.8091(8) 0.5178(3) 0.06680(16)
H35 H 0.8454 0.5396 0.1008
H36 H 0.6727 0.4907 0.0696
C29 C 0.9256(9) 0.6412(3) -0.21281(18)
H37 H 0.9393 0.6860 -0.2368
H38 H 0.8653 0.5949 -0.2304
H39 H 1.0629 0.6269 -0.1995
C30 C 1.1638(11) 0.2860(3) 0.1531(2)
H40 H 1.2727 0.2887 0.1792
H41 H 1.2048 0.2479 0.1265
H42 H 1.0336 0.2683 0.1688
loop_
_geom_bond_atom_site_label_1
_geom_bond_atom_site_label_2
_geom_bond_site_symmetry_1
_geom_bond_site_symmetry_2
O1 C6 1_555 1_555
C1 C5 1_555 1_555
C2 C3 1_555 1_555
C3 C9 1_555 1_555
C4 H1 1_555 1_555
C5 H2 1_555 1_555
H3 C5 1_555 1_555
C6 C12 1_555 1_555
C7 H4 1_555 1_555
H5 C7 1_555 1_555
C8 C1 1_555 1_555
C9 C8 1_555 1_555
O2 H6 1_555 1_555
C10 O1 1_555 1_555
C11 C1 1_555 1_555
C12 H7 1_555 1_555
C13 C2 1_555 1_555
H8 C13 1_555 1_555
C14 C2 1_555 1_555
H9 C14 1_555 1_555
H10 C14 1_555 1_555
C15 C8 1_555 1_555
H11 C15 1_555 1_555
H12 C15 1_555 1_555
C16 C7 1_555 1_555
H13 C16 1_555 1_555
H14 C16 1_555 1_555
C17 C3 1_555 1_555
H15 C17 1_555 1_555
H16 C17 1_555 1_555
H17 C17 1_555 1_555
C18 O2 1_555 1_555
H18 C18 1_555 1_555
C19 C10 1_555 1_555
O3 C10 1_555 1_555
C20 C4 1_555 1_555
C21 C2 1_555 1_555
H19 C21 1_555 1_555
H20 C21 1_555 1_555
H21 C21 1_555 1_555
C22 C11 1_555 1_555
H22 C22 1_555 1_555
H23 C22 1_555 1_555
H24 C22 1_555 1_555
C23 C6 1_555 1_555
H25 C23 1_555 1_555
C24 C20 1_555 1_555
H26 C24 1_555 1_555
H27 C24 1_555 1_555
H28 C24 1_555 1_555
C25 C4 1_555 1_555
H29 C25 1_555 1_555
H30 C25 1_555 1_555
C26 C19 1_555 1_555
H31 C26 1_555 1_555
H32 C26 1_555 1_555
H33 C26 1_555 1_555
C27 C9 1_555 1_555
H34 C27 1_555 1_555
C28 C3 1_555 1_555
H35 C28 1_555 1_555
H36 C28 1_555 1_555
C29 C20 1_555 1_555
H37 C29 1_555 1_555
H38 C29 1_555 1_555
H39 C29 1_555 1_555
C30 C13 1_555 1_555
H40 C30 1_555 1_555
H41 C30 1_555 1_555
H42 C30 1_555 1_555
C4 C11 1_555 1_555
C5 C28 1_555 1_555
C7 C11 1_555 1_555
C12 C19 1_555 1_555
C13 C23 1_555 1_555
C14 C27 1_555 1_555
C15 C25 1_555 1_555
C16 C18 1_555 1_555
C18 C20 1_555 1_555

#END
