
#######################################################################
#
#                 Cambridge Crystallographic Data Centre
#                                CCDC 
#
#######################################################################
#
# If this CIF has been generated from an entry in the Cambridge 
# Structural Database, then it will include bibliographic, chemical, 
# crystal, experimental, refinement or atomic coordinate data resulting 
# from the CCDC's data processing and validation procedures.
#
#######################################################################

data_OQODEF
_chemical_name_common            
'4-((2,5-dioxo-pyrrolin-1-yl)ethyl) amino-4-oxobutenoic acid'
_chemical_formula_moiety         'C10 H10 N2 O5'
_chemical_name_systematic        
'4-((2-(2,5-dioxo-2,5-dihydro-1H-pyrrol-1-yl)ethyl)amino)-4-oxobut-2-enoic acid'
_symmetry_cell_setting           monoclinic
_symmetry_space_group_name_H-M   'P 21/c'
_symmetry_Int_Tables_number      14
_space_group_name_Hall           '-P 2ybc'
loop_
_symmetry_equiv_pos_site_id
_symmetry_equiv_pos_as_xyz
1 x,y,z
2 -x,1/2+y,1/2-z
3 -x,-y,-z
4 x,1/2-y,1/2+z
_cell_length_a                   6.046(4)
_cell_length_b                   24.896(15)
_cell_length_c                   7.529(5)
_cell_angle_alpha                90
_cell_angle_beta                 101.202(9)
_cell_angle_gamma                90
_cell_volume                     1111.68
_exptl_crystal_colour            colorless
_exptl_crystal_description       block
_cell_formula_units_Z            4
loop_
_atom_site_label
_atom_site_type_symbol
_atom_site_fract_x
_atom_site_fract_y
_atom_site_fract_z
C1 C 0.2479(4) 0.22595(11) -0.1236(3)
C2 C 0.4697(4) 0.22514(10) 0.0000(3)
C3 C 0.6164(4) 0.26402(9) 0.0556(3)
C4 C 0.6013(4) 0.32162(9) 0.0102(3)
C5 C 0.8111(6) 0.40572(10) 0.0138(4)
C6 C 0.7723(5) 0.44366(10) 0.1620(4)
C7 C 0.9150(4) 0.41015(9) 0.4812(3)
C8 C 1.1327(5) 0.41486(10) 0.6086(3)
H1 H 1.1652 0.3999 0.7238
C9 C 1.2726(5) 0.44311(10) 0.5357(4)
C10 C 1.1559(4) 0.45886(9) 0.3522(3)
N1 N 0.7878(4) 0.34963(8) 0.0591(3)
N2 N 0.9420(3) 0.43752(6) 0.3262(2)
O1 O 0.1604(3) 0.18359(7) -0.1788(2)
O2 O 0.1468(3) 0.27132(8) -0.1737(2)
O3 O 0.4250(3) 0.34318(6) -0.0729(2)
O4 O 0.7437(3) 0.38833(7) 0.5007(3)
O5 O 1.2278(3) 0.48577(7) 0.2417(2)
H2 H 0.267(5) 0.3031(12) -0.127(4)
H3 H 0.518(3) 0.1888(8) 0.040(2)
H4 H 0.752(4) 0.2550(8) 0.134(3)
H5 H 0.901(4) 0.3331(8) 0.125(3)
H6 H 0.696(4) 0.4112(9) -0.092(3)
H7 H 0.984(4) 0.4109(9) 0.001(3)
H8 H 0.784(4) 0.4798(10) 0.122(3)
H9 H 0.619(4) 0.4354(8) 0.194(3)
H10 H 1.430(4) 0.4532(10) 0.583(3)
loop_
_geom_bond_atom_site_label_1
_geom_bond_atom_site_label_2
_geom_bond_site_symmetry_1
_geom_bond_site_symmetry_2
C1 C2 1_555 1_555
C2 C3 1_555 1_555
C3 C4 1_555 1_555
C4 N1 1_555 1_555
C5 C6 1_555 1_555
C6 N2 1_555 1_555
C7 C8 1_555 1_555
C8 H1 1_555 1_555
C9 C8 1_555 1_555
C10 C9 1_555 1_555
N1 C5 1_555 1_555
N2 C7 1_555 1_555
O1 C1 1_555 1_555
O2 C1 1_555 1_555
O3 C4 1_555 1_555
O4 C7 1_555 1_555
O5 C10 1_555 1_555
H2 O2 1_555 1_555
H3 C2 1_555 1_555
H4 C3 1_555 1_555
H5 N1 1_555 1_555
H6 C5 1_555 1_555
H7 C5 1_555 1_555
H8 C6 1_555 1_555
H9 C6 1_555 1_555
H10 C9 1_555 1_555
C10 N2 1_555 1_555

#END
