
#######################################################################
#
#                 Cambridge Crystallographic Data Centre
#                                CCDC 
#
#######################################################################
#
# If this CIF has been generated from an entry in the Cambridge 
# Structural Database, then it will include bibliographic, chemical, 
# crystal, experimental, refinement or atomic coordinate data resulting 
# from the CCDC's data processing and validation procedures.
#
#######################################################################

data_OQODAB
_chemical_name_common            N,N'-ethylenedimaleimide
_chemical_formula_moiety         'C10 H8 N2 O4'
_chemical_name_systematic        
1-(2-(2,5-dioxo-2,5-dihydro-1H-pyrrol-1-yl)ethyl)-1H-pyrrole-2,5-dione
_symmetry_cell_setting           monoclinic
_symmetry_space_group_name_H-M   'P 21/n'
_symmetry_Int_Tables_number      14
_space_group_name_Hall           '-P 2yn'
loop_
_symmetry_equiv_pos_site_id
_symmetry_equiv_pos_as_xyz
1 x,y,z
2 1/2-x,1/2+y,1/2-z
3 -x,-y,-z
4 1/2+x,1/2-y,1/2+z
_cell_length_a                   6.1101(4)
_cell_length_b                   11.6530(7)
_cell_length_c                   7.1284(5)
_cell_angle_alpha                90
_cell_angle_beta                 103.940(7)
_cell_angle_gamma                90
_cell_volume                     492.601
_exptl_crystal_colour            colorless
_exptl_crystal_description       block
_cell_formula_units_Z            2
loop_
_atom_site_label
_atom_site_type_symbol
_atom_site_fract_x
_atom_site_fract_y
_atom_site_fract_z
C1 C 0.5496(3) -0.15733(15) 0.3128(2)
C2 C 0.4067(3) -0.19918(17) 0.4394(3)
C3 C 0.2399(3) -0.12707(17) 0.4316(3)
C4 C 0.2618(3) -0.03198(15) 0.2994(2)
C5 C 0.5433(3) 0.01849(18) 0.1041(3)
N1 N 0.4516(2) -0.05549(12) 0.23228(19)
O1 O 0.7191(2) -0.19852(12) 0.2833(2)
O2 O 0.1439(2) 0.05160(12) 0.2577(2)
H1 H 0.444(3) -0.2653(19) 0.512(3)
H2 H 0.127(3) -0.1279(17) 0.498(3)
H3 H 0.708(3) 0.0111(16) 0.141(3)
H4 H 0.499(3) 0.098(2) 0.123(3)
C1B C 0.4504(3) 0.15733(15) -0.3128(2)
C2B C 0.5933(3) 0.19918(17) -0.4394(3)
C3B C 0.7601(3) 0.12707(17) -0.4316(3)
C4B C 0.7382(3) 0.03198(15) -0.2994(2)
C5B C 0.4567(3) -0.01849(18) -0.1041(3)
N1B N 0.5484(2) 0.05549(12) -0.23228(19)
O1B O 0.2809(2) 0.19852(12) -0.2833(2)
O2B O 0.8561(2) -0.05160(12) -0.2577(2)
H1B H 0.556(3) 0.2653(19) -0.512(3)
H2B H 0.873(3) 0.1279(17) -0.498(3)
H3B H 0.292(3) -0.0111(16) -0.141(3)
H4B H 0.501(3) -0.098(2) -0.123(3)
loop_
_geom_bond_atom_site_label_1
_geom_bond_atom_site_label_2
_geom_bond_site_symmetry_1
_geom_bond_site_symmetry_2
C1 C2 1_555 1_555
C2 C3 1_555 1_555
C3 C4 1_555 1_555
C4 N1 1_555 1_555
C5 N1 1_555 1_555
N1 C1 1_555 1_555
O1 C1 1_555 1_555
O2 C4 1_555 1_555
H1 C2 1_555 1_555
H2 C3 1_555 1_555
H3 C5 1_555 1_555
H4 C5 1_555 1_555
C1B C2B 1_555 1_555
C2B C3B 1_555 1_555
C3B C4B 1_555 1_555
C4B N1B 1_555 1_555
C5B C5 1_555 1_555
N1B C1B 1_555 1_555
O1B C1B 1_555 1_555
O2B C4B 1_555 1_555
H1B C2B 1_555 1_555
H2B C3B 1_555 1_555
H3B C5B 1_555 1_555
H4B C5B 1_555 1_555
C5B N1B 1_555 1_555

#END
