
#######################################################################
#
#                 Cambridge Crystallographic Data Centre
#                                CCDC 
#
#######################################################################
#
# If this CIF has been generated from an entry in the Cambridge 
# Structural Database, then it will include bibliographic, chemical, 
# crystal, experimental, refinement or atomic coordinate data resulting 
# from the CCDC's data processing and validation procedures.
#
#######################################################################

data_OQODIJ
_chemical_formula_moiety         'C10 H12 N2 O6'
_chemical_name_systematic        "N,N'-ethylenediamino-bis(4-oxobutenoic acid)"
_symmetry_cell_setting           monoclinic
_symmetry_space_group_name_H-M   'C 2/c'
_symmetry_Int_Tables_number      15
_space_group_name_Hall           '-C 2yn'
loop_
_symmetry_equiv_pos_site_id
_symmetry_equiv_pos_as_xyz
1 x,y,z
2 -x,y,1/2-z
3 1/2+x,1/2+y,z
4 1/2-x,1/2+y,1/2-z
5 -x,-y,-z
6 x,-y,1/2+z
7 1/2-x,1/2-y,-z
8 1/2+x,1/2-y,1/2+z
_cell_length_a                   7.2617(7)
_cell_length_b                   7.3552(5)
_cell_length_c                   21.1448(17)
_cell_angle_alpha                90
_cell_angle_beta                 92.161(7)
_cell_angle_gamma                90
_cell_volume                     1128.57
_exptl_crystal_colour            colorless
_exptl_crystal_description       block
_cell_formula_units_Z            4
loop_
_atom_site_label
_atom_site_type_symbol
_atom_site_fract_x
_atom_site_fract_y
_atom_site_fract_z
C1 C 0.8865(3) 0.3584(3) 0.34212(14)
C2 C 0.8479(3) 0.5427(4) 0.31694(12)
C3 C 0.8829(3) 0.7065(4) 0.34029(12)
C4 C 0.9724(3) 0.7555(3) 0.40208(11)
C5 C 1.0707(3) 0.9949(4) 0.47487(12)
N1 N 0.9878(3) 0.9314(3) 0.41482(10)
O1 O 0.8366(3) 0.2235(3) 0.31311(11)
O2 O 0.9742(3) 0.3393(3) 0.39679(10)
O3 O 1.0322(2) 0.6404(2) 0.44116(9)
H1 H 0.999(4) 0.473(5) 0.4174(17)
H2 H 0.785(3) 0.541(3) 0.2754(14)
H3 H 0.844(3) 0.809(3) 0.3177(13)
H4 H 0.949(4) 1.016(4) 0.3860(15)
H5 H 1.169(3) 0.912(4) 0.4848(13)
H6 H 1.113(3) 1.112(3) 0.4691(12)
C1D C 1.1135(3) 1.6416(3) 0.65788(14)
C2D C 1.1521(3) 1.4573(4) 0.68306(12)
C3D C 1.1171(3) 1.2935(4) 0.65971(12)
C4D C 1.0276(3) 1.2445(3) 0.59792(11)
C5D C 0.9293(3) 1.0051(4) 0.52513(12)
N1D N 1.0122(3) 1.0686(3) 0.58518(10)
O1D O 1.1634(3) 1.7765(3) 0.68689(11)
O2D O 1.0258(3) 1.6607(3) 0.60321(10)
O3D O 0.9678(2) 1.3596(2) 0.55884(9)
H1D H 1.001(4) 1.527(5) 0.5826(17)
H2D H 1.215(3) 1.459(3) 0.7246(14)
H3D H 1.156(3) 1.191(3) 0.6823(13)
H4D H 1.051(4) 0.984(4) 0.6140(15)
H5D H 0.831(3) 1.088(4) 0.5152(13)
H6D H 0.887(3) 0.888(3) 0.5309(12)
loop_
_geom_bond_atom_site_label_1
_geom_bond_atom_site_label_2
_geom_bond_site_symmetry_1
_geom_bond_site_symmetry_2
C1 C2 1_555 1_555
C2 C3 1_555 1_555
C3 C4 1_555 1_555
C4 N1 1_555 1_555
C5 N1 1_555 1_555
N1 H4 1_555 1_555
O1 C1 1_555 1_555
O2 C1 1_555 1_555
O3 C4 1_555 1_555
H1 O2 1_555 1_555
H2 C2 1_555 1_555
H3 C3 1_555 1_555
H5 C5 1_555 1_555
H6 C5 1_555 1_555
C1D C2D 1_555 1_555
C2D C3D 1_555 1_555
C3D C4D 1_555 1_555
C4D N1D 1_555 1_555
C5D C5 1_555 1_555
N1D C5D 1_555 1_555
O1D C1D 1_555 1_555
O2D C1D 1_555 1_555
O3D C4D 1_555 1_555
H1D O2D 1_555 1_555
H2D C2D 1_555 1_555
H3D C3D 1_555 1_555
H4D N1D 1_555 1_555
H5D C5D 1_555 1_555
H6D C5D 1_555 1_555

#END
