
#######################################################################
#
#                 Cambridge Crystallographic Data Centre
#                                CCDC 
#
#######################################################################
#
# If this CIF has been generated from an entry in the Cambridge 
# Structural Database, then it will include bibliographic, chemical, 
# crystal, experimental, refinement or atomic coordinate data resulting 
# from the CCDC's data processing and validation procedures.
#
#######################################################################

data_OQOFIL
_chemical_formula_moiety         'C38 H28 B2 Br4 Cl2'
_chemical_name_systematic        
2,3,9,11-tetrakis(4-bromophenyl)-10,16-dichloro-10,16-diboratetracyclo[7.6.1.0^1,12^.0^4,8^]hexadeca-2,4(8),11-triene
_symmetry_cell_setting           triclinic
_symmetry_space_group_name_H-M   'P -1'
_symmetry_Int_Tables_number      2
_space_group_name_Hall           '-P 1'
loop_
_symmetry_equiv_pos_site_id
_symmetry_equiv_pos_as_xyz
1 x,y,z
2 -x,-y,-z
_cell_length_a                   10.7763(7)
_cell_length_b                   11.4318(8)
_cell_length_c                   15.5909(11)
_cell_angle_alpha                74.252(2)
_cell_angle_beta                 81.811(2)
_cell_angle_gamma                69.779(2)
_cell_volume                     1732.14
_exptl_crystal_colour            colorless
_exptl_crystal_description       block
_cell_formula_units_Z            2
loop_
_atom_site_label
_atom_site_type_symbol
_atom_site_fract_x
_atom_site_fract_y
_atom_site_fract_z
Br1 Br 0.66689(3) 1.18017(4) -0.05375(3)
C1 C 0.7346(3) 1.5267(2) 0.16653(18)
B1 B 0.8567(3) 1.5744(3) 0.1439(2)
Cl1 Cl 1.01242(6) 1.47563(6) 0.11163(4)
C2 C 0.6626(3) 1.5579(2) 0.23983(18)
B2 B 0.7276(3) 1.7477(3) 0.2247(2)
Br2 Br 0.82210(3) 0.97862(3) 0.49815(2)
Cl2 Cl 0.62058(7) 1.90605(6) 0.22667(5)
C3 C 0.5339(3) 1.5381(3) 0.2796(2)
H1 H 0.5489 1.4535 0.3225
H2 H 0.4771 1.5447 0.2328
Br3 Br 1.50107(3) 1.16710(3) 0.42817(2)
C4 C 0.4721(3) 1.6479(3) 0.3269(2)
H3 H 0.4049 1.6288 0.3738
H4 H 0.4301 1.7296 0.2839
Br4 Br 0.75035(3) 1.93618(3) -0.25884(2)
C5 C 0.5904(3) 1.6550(3) 0.36763(19)
H5 H 0.6100 1.5906 0.4252
H6 H 0.5718 1.7414 0.3778
C6 C 0.7087(3) 1.6257(2) 0.29755(18)
C7 C 0.8395(3) 1.5308(2) 0.33657(17)
C8 C 0.9526(3) 1.5598(2) 0.32436(17)
C9 C 0.7067(3) 1.4472(3) 0.11468(19)
C10 C 0.9613(2) 1.6869(2) 0.27621(18)
C11 C 0.7085(3) 1.4850(3) 0.0219(2)
H7 H 0.7215 1.5647 -0.0076
C12 C 1.0310(3) 1.7565(3) 0.31235(19)
H8 H 1.1285 1.7180 0.3061
H9 H 1.0041 1.7556 0.3759
C13 C 0.6917(3) 1.4089(3) -0.0285(2)
H10 H 0.6919 1.4363 -0.0918
C14 C 0.9198(2) 1.7526(2) 0.19310(18)
C15 C 0.6852(3) 1.3305(3) 0.1564(2)
H11 H 0.6809 1.3039 0.2197
C16 C 0.9515(3) 1.8771(3) 0.16458(19)
H12 H 0.8747 1.9495 0.1379
H13 H 1.0285 1.8707 0.1210
C17 C 0.6702(3) 1.2527(3) 0.1062(2)
H14 H 0.6570 1.1729 0.1350
C18 C 0.9834(3) 1.8938(3) 0.2527(2)
H15 H 0.9036 1.9477 0.2806
H16 H 1.0537 1.9342 0.2425
C19 C 0.6748(3) 1.2921(3) 0.0154(2)
C20 C 0.7875(3) 1.3606(3) 0.46627(18)
H17 H 0.7541 1.4225 0.5011
C21 C 0.7835(3) 1.2365(3) 0.50241(19)
H18 H 0.7472 1.2136 0.5613
C22 C 0.8328(3) 1.1472(2) 0.45155(18)
C23 C 0.8897(3) 1.1773(3) 0.36676(18)
H19 H 0.9256 1.1141 0.3331
C24 C 0.8935(3) 1.3008(3) 0.33185(18)
H20 H 0.9337 1.3216 0.2739
C25 C 1.0837(3) 1.4638(2) 0.35404(18)
C26 C 0.8082(3) 1.7879(2) 0.04819(17)
C27 C 1.1907(3) 1.4503(3) 0.29052(19)
H21 H 1.1785 1.5034 0.2318
C28 C 0.9156(3) 1.7964(2) -0.01223(18)
H22 H 1.0017 1.7695 0.0091
C29 C 1.3135(3) 1.3612(3) 0.3118(2)
H23 H 1.3841 1.3502 0.2676
C30 C 0.8979(3) 1.8436(2) -0.10293(19)
H24 H 0.9711 1.8498 -0.1437
C31 C 1.3319(3) 1.2884(3) 0.3985(2)
C32 C 0.7722(3) 1.8816(3) -0.13350(18)
C33 C 1.2303(3) 1.3023(3) 0.46371(19)
H25 H 1.2454 1.2537 0.5235
C34 C 0.6645(3) 1.8750(3) -0.07536(19)
H26 H 0.5786 1.9021 -0.0971
C35 C 1.1054(3) 1.3885(3) 0.44074(19)
H27 H 1.0342 1.3960 0.4847
C36 C 0.6831(3) 1.8283(3) 0.01544(19)
H28 H 0.6091 1.8238 0.0558
C37 C 0.8315(2) 1.7185(2) 0.14564(17)
C38 C 0.8400(3) 1.3955(2) 0.37955(18)
loop_
_geom_bond_atom_site_label_1
_geom_bond_atom_site_label_2
_geom_bond_site_symmetry_1
_geom_bond_site_symmetry_2
Br1 C19 1_555 1_555
C1 B1 1_555 1_555
B1 Cl1 1_555 1_555
C2 C1 1_555 1_555
B2 Cl2 1_555 1_555
Br2 C22 1_555 1_555
C3 C2 1_555 1_555
H1 C3 1_555 1_555
H2 C3 1_555 1_555
Br3 C31 1_555 1_555
C4 C3 1_555 1_555
H3 C4 1_555 1_555
H4 C4 1_555 1_555
Br4 C32 1_555 1_555
C5 C4 1_555 1_555
H5 C5 1_555 1_555
H6 C5 1_555 1_555
C6 C2 1_555 1_555
C7 C6 1_555 1_555
C8 C7 1_555 1_555
C9 C1 1_555 1_555
C10 C8 1_555 1_555
C11 C9 1_555 1_555
H7 C11 1_555 1_555
C12 C10 1_555 1_555
H8 C12 1_555 1_555
H9 C12 1_555 1_555
C13 C11 1_555 1_555
H10 C13 1_555 1_555
C14 C10 1_555 1_555
C15 C9 1_555 1_555
H11 C15 1_555 1_555
C16 C14 1_555 1_555
H12 C16 1_555 1_555
H13 C16 1_555 1_555
C17 C15 1_555 1_555
H14 C17 1_555 1_555
C18 C12 1_555 1_555
H15 C18 1_555 1_555
H16 C18 1_555 1_555
C19 C13 1_555 1_555
C20 H17 1_555 1_555
C21 C20 1_555 1_555
H18 C21 1_555 1_555
C22 C21 1_555 1_555
C23 C22 1_555 1_555
H19 C23 1_555 1_555
C24 C23 1_555 1_555
H20 C24 1_555 1_555
C25 C8 1_555 1_555
C26 C28 1_555 1_555
C27 C25 1_555 1_555
H21 C27 1_555 1_555
C28 H22 1_555 1_555
C29 C27 1_555 1_555
H23 C29 1_555 1_555
C30 C28 1_555 1_555
H24 C30 1_555 1_555
C31 C29 1_555 1_555
C32 C30 1_555 1_555
C33 C31 1_555 1_555
H25 C33 1_555 1_555
C34 C32 1_555 1_555
H26 C34 1_555 1_555
C35 C25 1_555 1_555
H27 C35 1_555 1_555
C36 C26 1_555 1_555
H28 C36 1_555 1_555
C37 B1 1_555 1_555
C38 C7 1_555 1_555
B2 C6 1_555 1_555
B2 C37 1_555 1_555
C5 C6 1_555 1_555
C14 C37 1_555 1_555
C16 C18 1_555 1_555
C17 C19 1_555 1_555
C20 C38 1_555 1_555
C24 C38 1_555 1_555
C26 C37 1_555 1_555
C33 C35 1_555 1_555
C34 C36 1_555 1_555

#END
