
#######################################################################
#
#                 Cambridge Crystallographic Data Centre
#                                CCDC 
#
#######################################################################
#
# If this CIF has been generated from an entry in the Cambridge 
# Structural Database, then it will include bibliographic, chemical, 
# crystal, experimental, refinement or atomic coordinate data resulting 
# from the CCDC's data processing and validation procedures.
#
#######################################################################

data_OQOFEH
_chemical_formula_moiety         'C38 H32 B2 Cl2,0.5(C1 H2 Cl2)'
_chemical_name_systematic        
'10,16-dichloro-2,3,9,11-tetraphenyl-10,16-diboratetracyclo[7.6.1.0^1,12^.0^4,8^]hexadeca-2,4(8),11-triene dichloromethane solvate'
_symmetry_cell_setting           triclinic
_symmetry_space_group_name_H-M   'P -1'
_symmetry_Int_Tables_number      2
_space_group_name_Hall           '-P 1'
loop_
_symmetry_equiv_pos_site_id
_symmetry_equiv_pos_as_xyz
1 x,y,z
2 -x,-y,-z
_cell_length_a                   12.3724(3)
_cell_length_b                   16.2620(4)
_cell_length_c                   18.3411(5)
_cell_angle_alpha                68.0340(10)
_cell_angle_beta                 76.1090(10)
_cell_angle_gamma                68.5070(10)
_cell_volume                     3161.58
_exptl_crystal_colour            colorless
_exptl_crystal_description       block
_cell_formula_units_Z            4
loop_
_atom_site_label
_atom_site_type_symbol
_atom_site_fract_x
_atom_site_fract_y
_atom_site_fract_z
B1 B 0.18966(15) 0.20529(12) 0.39929(10)
B2 B 0.22463(15) 0.30326(12) 0.46576(11)
Cl1 Cl 0.11198(3) 0.19817(3) 0.33334(2)
Cl2 Cl 0.31172(4) 0.36260(3) 0.47795(2)
C1 C 0.23600(13) 0.12093(11) 0.47139(9)
C2 C 0.22408(13) 0.14359(11) 0.53712(9)
C3 C 0.26841(15) 0.08475(11) 0.61576(10)
H1 H 0.3446 0.0372 0.6094
H2 H 0.2117 0.0533 0.6520
C4 C 0.28119(15) 0.15607(12) 0.64630(10)
H3 H 0.2813 0.1320 0.7045
H4 H 0.3542 0.1722 0.6211
C5 C 0.17339(14) 0.24037(11) 0.62244(9)
H5 H 0.1865 0.2981 0.6195
H6 H 0.1039 0.2322 0.6610
C6 C 0.15666(13) 0.24452(11) 0.53967(9)
C7 C 0.02895(13) 0.26529(11) 0.52922(9)
C8 C 0.28723(14) 0.02460(11) 0.46744(10)
C9 C 0.35819(14) 0.00863(12) 0.39912(10)
H7 H 0.3743 0.0595 0.3562
C10 C 0.40535(15) -0.08059(13) 0.39323(12)
H8 H 0.4531 -0.0903 0.3464
C11 C 0.38297(17) -0.15557(12) 0.45550(12)
H9 H 0.4163 -0.2168 0.4517
C12 C 0.31193(18) -0.14092(12) 0.52315(12)
H10 H 0.2959 -0.1921 0.5657
C13 C 0.26379(16) -0.05138(12) 0.52914(10)
H11 H 0.2145 -0.0419 0.5756
C14 C -0.03103(14) 0.19474(11) 0.58243(10)
C15 C -0.03718(15) 0.12738(12) 0.55475(10)
H12 H -0.0045 0.1276 0.5022
C16 C -0.09022(16) 0.06034(14) 0.60282(11)
H13 H -0.0933 0.0150 0.5831
C17 C -0.13854(18) 0.05929(15) 0.67919(12)
H14 H -0.1739 0.0128 0.7123
C18 C -0.13510(17) 0.12635(15) 0.70707(11)
H15 H -0.1694 0.1264 0.7593
C19 C -0.08184(15) 0.19363(13) 0.65935(11)
H16 H -0.0800 0.2392 0.6792
C20 C 0.22440(13) 0.29529(11) 0.38306(9)
C21 C 0.13426(14) 0.38937(11) 0.36756(9)
C22 C 0.15699(15) 0.47868(11) 0.31189(10)
H17 H 0.1495 0.4878 0.2566
H18 H 0.2361 0.4786 0.3143
C23 C 0.06254(18) 0.55399(13) 0.34232(13)
H19 H 0.0311 0.6093 0.2975
H20 H 0.0949 0.5732 0.3755
C24 C -0.03351(15) 0.51099(11) 0.39120(11)
H21 H -0.0659 0.5306 0.4391
H22 H -0.0978 0.5287 0.3596
C25 C 0.02959(14) 0.40714(11) 0.41302(9)
C26 C -0.02601(14) 0.33917(11) 0.47158(10)
C27 C 0.33494(14) 0.28187(11) 0.32487(9)
C28 C 0.32875(15) 0.31335(11) 0.24330(10)
H23 H 0.2551 0.3473 0.2238
C29 C 0.42886(15) 0.29553(12) 0.19057(10)
H24 H 0.4236 0.3184 0.1353
C30 C 0.53680(15) 0.24439(12) 0.21838(10)
H25 H 0.6054 0.2323 0.1823
C31 C 0.54355(15) 0.21117(12) 0.29898(11)
H26 H 0.6171 0.1755 0.3182
C32 C 0.44358(15) 0.22958(11) 0.35218(10)
H27 H 0.4494 0.2064 0.4074
C33 C -0.15025(14) 0.35885(11) 0.46075(10)
C34 C -0.17417(16) 0.35931(12) 0.38999(11)
H28 H -0.1116 0.3462 0.3502
C35 C -0.28803(17) 0.37868(13) 0.37706(12)
H29 H -0.3029 0.3776 0.3290
C36 C -0.37990(16) 0.39948(13) 0.43386(13)
H30 H -0.4580 0.4130 0.4249
C37 C -0.35784(16) 0.40054(14) 0.50374(13)
H31 H -0.4211 0.4154 0.5427
C38 C -0.24342(16) 0.38001(13) 0.51759(12)
H32 H -0.2290 0.3805 0.5660
B3 B 0.18293(15) 0.20595(12) 0.90325(10)
B4 B 0.22859(16) 0.30061(12) 0.96809(11)
Cl3 Cl 0.10044(3) 0.20146(3) 0.83889(2)
Cl4 Cl 0.32085(4) 0.35793(3) 0.97698(2)
C39 C 0.23246(13) 0.12017(11) 0.97399(9)
C40 C 0.22739(13) 0.14174(11) 1.03926(9)
C41 C 0.27706(15) 0.08188(12) 1.11608(10)
H33 H 0.3522 0.0344 1.1075
H34 H 0.2217 0.0503 1.1541
C42 C 0.29469(15) 0.15224(12) 1.14545(10)
H35 H 0.2988 0.1275 1.2033
H36 H 0.3671 0.1682 1.1180
C43 C 0.18613(15) 0.23700(12) 1.12471(10)
H37 H 0.2009 0.2944 1.1209
H38 H 0.1185 0.2287 1.1653
C44 C 0.16280(14) 0.24236(11) 1.04346(9)
C45 C 0.03368(14) 0.26412(11) 1.03649(9)
C46 C 0.28041(14) 0.02394(11) 0.96965(10)
C47 C 0.34671(15) 0.00768(12) 0.90013(11)
H39 H 0.3615 0.0584 0.8564
C48 C 0.39110(16) -0.08161(13) 0.89419(12)
H40 H 0.4357 -0.0915 0.8466
C49 C 0.37053(18) -0.15623(13) 0.95752(13)
H41 H 0.4019 -0.2174 0.9537
C50 C 0.30424(18) -0.14144(13) 1.02637(12)
H42 H 0.2897 -0.1926 1.0697
C51 C 0.25858(17) -0.05188(12) 1.03247(11)
H43 H 0.2122 -0.0423 1.0798
C52 C -0.02428(14) 0.19211(11) 1.08995(10)
C53 C -0.03782(15) 0.13012(12) 1.05923(10)
H44 H -0.0120 0.1353 1.0050
C54 C -0.08830(17) 0.06126(14) 1.10654(12)
H45 H -0.0962 0.0195 1.0847
C55 C -0.12713(18) 0.05317(15) 1.18533(12)
H46 H -0.1609 0.0056 1.2180
C56 C -0.11630(18) 0.11517(15) 1.21636(11)
H47 H -0.1439 0.1104 1.2703
C57 C -0.06555(16) 0.18409(13) 1.16942(11)
H48 H -0.0588 0.2261 1.1915
C58 C -0.02449(14) 0.33923(11) 0.98112(9)
C59 C 0.02876(14) 0.40729(11) 0.92005(9)
C60 C -0.03489(16) 0.51122(12) 0.89865(11)
H49 H -0.1063 0.5273 0.8744
H50 H -0.0570 0.5319 0.9460
C61 C 0.05196(19) 0.55453(14) 0.84077(16)
H51 H 0.0794 0.5874 0.8650
H52 H 0.0149 0.6006 0.7933
C62 C 0.15415(16) 0.47946(11) 0.81727(10)
H53 H 0.2290 0.4827 0.8246
H54 H 0.1564 0.4851 0.7613
C63 C 0.13155(14) 0.38971(11) 0.87253(9)
C64 C 0.22062(13) 0.29490(11) 0.88631(9)
C65 C -0.15087(14) 0.35983(11) 0.97556(10)
C66 C -0.23826(16) 0.37477(12) 1.03772(11)
H55 H -0.2179 0.3693 1.0865
C67 C -0.35513(16) 0.39765(13) 1.02825(13)
H56 H -0.4143 0.4079 1.0706
C68 C -0.38561(16) 0.40556(13) 0.95788(14)
H57 H -0.4655 0.4209 0.9519
C69 C -0.29966(17) 0.39109(14) 0.89586(13)
H58 H -0.3206 0.3964 0.8474
C70 C -0.18311(16) 0.36883(12) 0.90450(11)
H59 H -0.1246 0.3596 0.8615
C71 C 0.32800(14) 0.28021(11) 0.82604(10)
C72 C 0.31883(15) 0.31315(12) 0.74475(10)
H60 H 0.2447 0.3490 0.7265
C73 C 0.41673(16) 0.29410(12) 0.69051(10)
H61 H 0.4097 0.3184 0.6354
C74 C 0.52496(16) 0.23956(13) 0.71669(11)
H62 H 0.5921 0.2268 0.6797
C75 C 0.53426(16) 0.20389(13) 0.79712(11)
H63 H 0.6078 0.1652 0.8152
C76 C 0.43706(15) 0.22409(12) 0.85160(10)
H64 H 0.4448 0.1996 0.9066
C77 C 0.5099(3) 0.55892(18) 0.23869(16)
H65 H 0.5084 0.6089 0.1870
H66 H 0.5746 0.5536 0.2647
Cl5 Cl 0.37363(6) 0.58771(6) 0.29946(4)
Cl6 Cl 0.53295(7) 0.45307(4) 0.22380(4)
C78? C 0.4964(9) 0.4552(7) 0.2528(6)
H67? H 0.5039 0.4044 0.3041
H68? H 0.4286 0.4584 0.2310
Cl7? Cl 0.6156(6) 0.4292(5) 0.1916(4)
Cl8? Cl 0.4700(5) 0.5558(4) 0.2687(4)
Cl9? Cl 0.4964(9) 0.4552(7) 0.2528(6)
C79? C 0.4700(5) 0.5558(4) 0.2687(4)
H69? H 0.5208 0.5899 0.2281
H70? H 0.4952 0.5409 0.3207
Cl10? Cl 0.3301(10) 0.6302(9) 0.2682(8)
loop_
_geom_bond_atom_site_label_1
_geom_bond_atom_site_label_2
_geom_bond_site_symmetry_1
_geom_bond_site_symmetry_2
B1 Cl1 1_555 1_555
B2 Cl2 1_555 1_555
C1 B1 1_555 1_555
C2 C1 1_555 1_555
C3 C2 1_555 1_555
H1 C3 1_555 1_555
H2 C3 1_555 1_555
C4 C3 1_555 1_555
H3 C4 1_555 1_555
H4 C4 1_555 1_555
C5 C4 1_555 1_555
H5 C5 1_555 1_555
H6 C5 1_555 1_555
C6 B2 1_555 1_555
C7 C6 1_555 1_555
C8 C1 1_555 1_555
C9 C8 1_555 1_555
H7 C9 1_555 1_555
C10 C9 1_555 1_555
H8 C10 1_555 1_555
C11 C10 1_555 1_555
H9 C11 1_555 1_555
C12 C11 1_555 1_555
H10 C12 1_555 1_555
C13 C8 1_555 1_555
H11 C13 1_555 1_555
C14 C7 1_555 1_555
C15 C14 1_555 1_555
H12 C15 1_555 1_555
C16 C15 1_555 1_555
H13 C16 1_555 1_555
C17 C16 1_555 1_555
H14 C17 1_555 1_555
C18 C17 1_555 1_555
H15 C18 1_555 1_555
C19 C14 1_555 1_555
H16 C19 1_555 1_555
C20 B1 1_555 1_555
C21 C20 1_555 1_555
C22 C21 1_555 1_555
H17 C22 1_555 1_555
H18 C22 1_555 1_555
C23 C22 1_555 1_555
H19 C23 1_555 1_555
H20 C23 1_555 1_555
C24 C23 1_555 1_555
H21 C24 1_555 1_555
H22 C24 1_555 1_555
C25 C21 1_555 1_555
C26 C7 1_555 1_555
C27 C20 1_555 1_555
C28 C27 1_555 1_555
H23 C28 1_555 1_555
C29 C28 1_555 1_555
H24 C29 1_555 1_555
C30 C29 1_555 1_555
H25 C30 1_555 1_555
C31 C30 1_555 1_555
H26 C31 1_555 1_555
C32 C27 1_555 1_555
H27 C32 1_555 1_555
C33 C26 1_555 1_555
C34 C33 1_555 1_555
H28 C34 1_555 1_555
C35 C34 1_555 1_555
H29 C35 1_555 1_555
C36 C35 1_555 1_555
H30 C36 1_555 1_555
C37 C36 1_555 1_555
H31 C37 1_555 1_555
C38 C33 1_555 1_555
H32 C38 1_555 1_555
B3 Cl3 1_555 1_555
B4 Cl4 1_555 1_555
C39 B3 1_555 1_555
C40 C39 1_555 1_555
C41 C40 1_555 1_555
H33 C41 1_555 1_555
H34 C41 1_555 1_555
C42 C41 1_555 1_555
H35 C42 1_555 1_555
H36 C42 1_555 1_555
C43 C42 1_555 1_555
H37 C43 1_555 1_555
H38 C43 1_555 1_555
C44 B4 1_555 1_555
C45 C44 1_555 1_555
C46 C39 1_555 1_555
C47 C46 1_555 1_555
H39 C47 1_555 1_555
C48 C47 1_555 1_555
H40 C48 1_555 1_555
C49 C48 1_555 1_555
H41 C49 1_555 1_555
C50 C49 1_555 1_555
H42 C50 1_555 1_555
C51 C46 1_555 1_555
H43 C51 1_555 1_555
C52 C45 1_555 1_555
C53 C52 1_555 1_555
H44 C53 1_555 1_555
C54 C53 1_555 1_555
H45 C54 1_555 1_555
C55 C54 1_555 1_555
H46 C55 1_555 1_555
C56 C55 1_555 1_555
H47 C56 1_555 1_555
C57 C52 1_555 1_555
H48 C57 1_555 1_555
C58 C45 1_555 1_555
C59 C58 1_555 1_555
C60 C59 1_555 1_555
H49 C60 1_555 1_555
H50 C60 1_555 1_555
C61 C60 1_555 1_555
H51 C61 1_555 1_555
H52 C61 1_555 1_555
C62 C61 1_555 1_555
H53 C62 1_555 1_555
H54 C62 1_555 1_555
C63 C59 1_555 1_555
C64 B3 1_555 1_555
C65 C58 1_555 1_555
C66 C65 1_555 1_555
H55 C66 1_555 1_555
C67 C66 1_555 1_555
H56 C67 1_555 1_555
C68 C67 1_555 1_555
H57 C68 1_555 1_555
C69 C68 1_555 1_555
H58 C69 1_555 1_555
C70 C65 1_555 1_555
H59 C70 1_555 1_555
C71 C64 1_555 1_555
C72 C71 1_555 1_555
H60 C72 1_555 1_555
C73 C72 1_555 1_555
H61 C73 1_555 1_555
C74 C73 1_555 1_555
H62 C74 1_555 1_555
C75 C74 1_555 1_555
H63 C75 1_555 1_555
C76 C71 1_555 1_555
H64 C76 1_555 1_555
C77 H65 1_555 1_555
H66 C77 1_555 1_555
Cl5 C77 1_555 1_555
Cl6 C77 1_555 1_555
B2 C20 1_555 1_555
C2 C6 1_555 1_555
C5 C6 1_555 1_555
C12 C13 1_555 1_555
C18 C19 1_555 1_555
C24 C25 1_555 1_555
C25 C26 1_555 1_555
C31 C32 1_555 1_555
C37 C38 1_555 1_555
B4 C64 1_555 1_555
C40 C44 1_555 1_555
C43 C44 1_555 1_555
C50 C51 1_555 1_555
C56 C57 1_555 1_555
C62 C63 1_555 1_555
C63 C64 1_555 1_555
C69 C70 1_555 1_555
C75 C76 1_555 1_555

#END
