
#######################################################################
#
#                 Cambridge Crystallographic Data Centre
#                                CCDC 
#
#######################################################################
#
# If this CIF has been generated from an entry in the Cambridge 
# Structural Database, then it will include bibliographic, chemical, 
# crystal, experimental, refinement or atomic coordinate data resulting 
# from the CCDC's data processing and validation procedures.
#
#######################################################################

data_OQOJIP
_chemical_compound_source        'leaves of Rhodomyrtus tomentosa'
_chemical_name_common            'rhodomentone A'
_chemical_formula_moiety         'C30 H46 O3'
_chemical_name_systematic        
4'-isobutyl-6,6',6',8',8',10,10-heptamethyl-4',8'-dihydrospiro[bicyclo[7.2.0]undec-5-ene-2,2'-chromene]-5',7'(3'H,6'H)-dione
_symmetry_cell_setting           orthorhombic
_symmetry_space_group_name_H-M   'P 21 21 21'
_symmetry_Int_Tables_number      19
_space_group_name_Hall           'P 2ac 2ab'
loop_
_symmetry_equiv_pos_site_id
_symmetry_equiv_pos_as_xyz
1 x,y,z
2 1/2-x,-y,1/2+z
3 1/2+x,1/2-y,-z
4 -x,1/2+y,1/2-z
_cell_length_a                   11.82201(13)
_cell_length_b                   19.9887(2)
_cell_length_c                   23.1114(3)
_cell_angle_alpha                90
_cell_angle_beta                 90
_cell_angle_gamma                90
_cell_volume                     5461.38
_exptl_crystal_colour            colorless
_exptl_crystal_description       block
_cell_formula_units_Z            8
loop_
_atom_site_label
_atom_site_type_symbol
_atom_site_fract_x
_atom_site_fract_y
_atom_site_fract_z
O1 O -0.82815(7) -0.43043(4) -0.21649(4)
O2 O -1.06989(8) -0.36556(5) -0.06457(4)
C1 C -0.93297(11) -0.26188(6) -0.14148(5)
H1 H -0.9432 -0.2661 -0.1000
H2 H -0.8524 -0.2581 -0.1488
C2 C -0.73842(11) -0.25846(7) -0.31835(6)
H3 H -0.6900 -0.2845 -0.3407
C3 C -0.84020(11) -0.39660(6) -0.31274(5)
H4 H -0.7625 -0.4072 -0.3243
C4 C -0.94192(11) -0.38894(6) -0.13929(5)
C5 C -0.84090(11) -0.50222(7) -0.13731(6)
C6 C -0.97708(10) -0.32601(6) -0.17075(5)
H5 H -1.0597 -0.3241 -0.1680
C7 C -0.90431(11) -0.36517(7) -0.36600(5)
H6 H -0.9691 -0.3394 -0.3518
C8 C -0.94957(10) -0.33254(6) -0.23562(5)
H7 H -1.0110 -0.3565 -0.2542
H8 H -0.9474 -0.2880 -0.2523
C9 C -0.99302(11) -0.40081(7) -0.08262(6)
C10 C -0.83908(10) -0.36788(6) -0.25034(5)
C11 C -0.87380(10) -0.43545(6) -0.16338(5)
C12 C -0.99090(12) -0.19759(7) -0.16180(6)
H9 H -0.9883 -0.1968 -0.2042
C13 C -0.91485(12) -0.45985(6) -0.32046(6)
H10 H -0.8726 -0.5014 -0.3191
H11 H -0.9792 -0.4614 -0.2945
C14 C -0.94526(13) -0.45650(7) -0.04411(6)
C15 C -0.71632(11) -0.25794(7) -0.25476(6)
H12 H -0.7691 -0.2283 -0.2355
H13 H -0.6401 -0.2423 -0.2471
C16 C -0.73090(10) -0.32967(6) -0.23239(5)
H14 H -0.7284 -0.3283 -0.1905
H15 H -0.6662 -0.3556 -0.2452
C17 C -0.94516(11) -0.43721(7) -0.38234(6)
C18 C -1.03343(15) -0.48062(9) -0.00060(7)
H16 H -1.0611 -0.4432 0.0213
H17 H -0.9995 -0.5125 0.0252
H18 H -1.0951 -0.5013 -0.0209
C19 C -0.88785(13) -0.16952(7) -0.32297(7)
H19 H -0.9646 -0.1839 -0.3176
H20 H -0.8862 -0.1327 -0.3496
H21 H -0.8569 -0.1556 -0.2865
C20 C -0.81920(12) -0.22608(7) -0.34668(6)
C21 C -0.90300(12) -0.51519(7) -0.08030(6)
C22 C -0.84504(13) -0.32515(7) -0.41391(6)
H22 H -0.7659 -0.3379 -0.4150
H23 H -0.8782 -0.3372 -0.4509
C23 C -1.06908(13) -0.44175(8) -0.39971(7)
H24 H -1.1155 -0.4250 -0.3689
H25 H -1.0883 -0.4876 -0.4073
H26 H -1.0816 -0.4156 -0.4339
C24 C -0.71185(12) -0.50445(9) -0.12562(8)
H27 H -0.6717 -0.5000 -0.1615
H28 H -0.6926 -0.5463 -0.1078
H29 H -0.6914 -0.4684 -0.1003
C25 C -0.84466(15) -0.42454(9) -0.01119(7)
H30 H -0.7926 -0.4054 -0.0385
H31 H -0.8067 -0.4582 0.0111
H32 H -0.8723 -0.3902 0.0141
O3 O -0.91704(12) -0.57214(6) -0.06416(6)
C26 C -0.92925(15) -0.13602(8) -0.13983(9)
H33 H -0.9332 -0.1347 -0.0984
H34 H -0.9640 -0.0966 -0.1555
H35 H -0.8515 -0.1378 -0.1517
C27 C -0.86993(14) -0.55837(7) -0.18002(7)
H36 H -0.9486 -0.5558 -0.1901
H37 H -0.8546 -0.6009 -0.1624
H38 H -0.8248 -0.5536 -0.2143
C28 C -0.85281(15) -0.24925(8) -0.40637(6)
H39 H -0.8042 -0.2278 -0.4347
H40 H -0.9299 -0.2351 -0.4140
C29 C -0.86974(14) -0.47178(8) -0.42706(7)
H41 H -0.8828 -0.4524 -0.4645
H42 H -0.8873 -0.5187 -0.4282
H43 H -0.7918 -0.4660 -0.4165
C30 C -1.11461(15) -0.19472(9) -0.14351(11)
H44 H -1.1551 -0.2311 -0.1610
H45 H -1.1470 -0.1530 -0.1558
H46 H -1.1197 -0.1982 -0.1022
O4 O -0.32960(8) -0.33021(4) -0.24285(4)
O5 O -0.57312(8) -0.39430(5) -0.39391(4)
C31 C -0.47791(10) -0.43443(6) -0.28886(5)
H47 H -0.5605 -0.4373 -0.2918
C32 C -0.33789(11) -0.25990(6) -0.32353(6)
C33 C -0.44392(11) -0.37122(6) -0.31995(5)
C34 C -0.43090(11) -0.49678(6) -0.31963(5)
H48 H -0.4345 -0.4893 -0.3611
H49 H -0.3518 -0.5016 -0.3093
C35 C -0.37464(10) -0.32520(6) -0.29610(5)
C36 C -0.49446(11) -0.35982(6) -0.37670(5)
C37 C -0.21966(11) -0.50334(7) -0.20459(6)
H50 H -0.2727 -0.5325 -0.2243
H51 H -0.1437 -0.5195 -0.2121
C38 C -0.23241(10) -0.43141(6) -0.22659(5)
H52 H -0.2290 -0.4324 -0.2685
H53 H -0.1676 -0.4060 -0.2132
C39 C -0.24276(11) -0.50342(7) -0.14096(6)
H54 H -0.1942 -0.4779 -0.1183
C40 C -0.34090(11) -0.36392(6) -0.14653(5)
H55 H -0.2629 -0.3539 -0.1352
O6 O -0.38863(10) -0.19320(5) -0.40409(5)
C41 C -0.34774(13) -0.43615(7) -0.04545(6)
H56 H -0.2681 -0.4245 -0.0443
H57 H -0.3804 -0.4242 -0.0084
C42 C -0.44337(12) -0.30669(7) -0.41665(5)
C43 C -0.40512(12) -0.39432(7) -0.09264(6)
H58 H -0.4725 -0.4181 -0.1063
C44 C -0.41333(13) -0.30014(7) -0.13853(6)
H59 H -0.3704 -0.2589 -0.1415
H60 H -0.4796 -0.2987 -0.1632
C45 C -0.34027(11) -0.39289(6) -0.20901(5)
C46 C -0.49187(12) -0.56258(6) -0.30583(6)
H61 H -0.4914 -0.5690 -0.2638
C47 C -0.45072(10) -0.42859(6) -0.22390(5)
H62 H -0.5124 -0.4050 -0.2052
H63 H -0.4480 -0.4733 -0.2076
C48 C -0.39357(13) -0.59154(7) -0.13733(7)
H64 H -0.4703 -0.5769 -0.1422
H65 H -0.3917 -0.6289 -0.1112
H66 H -0.3631 -0.6047 -0.1741
C49 C -0.37085(13) -0.20113(7) -0.28431(6)
H67 H -0.4515 -0.2005 -0.2794
H68 H -0.3467 -0.1599 -0.3017
H69 H -0.3350 -0.2062 -0.2473
C50 C -0.34528(13) -0.34221(8) -0.44885(6)
H70 H -0.2976 -0.3645 -0.4213
H71 H -0.3017 -0.3097 -0.4698
H72 H -0.3758 -0.3744 -0.4754
C51 C -0.32439(12) -0.53559(7) -0.11301(6)
C52 C -0.20807(12) -0.26030(8) -0.33194(7)
H73 H -0.1716 -0.2619 -0.2949
H74 H -0.1854 -0.2204 -0.3520
H75 H -0.1866 -0.2988 -0.3542
C53 C -0.39210(11) -0.24864(6) -0.38310(6)
C54 C -0.43920(13) -0.32117(8) -0.07575(6)
C55 C -0.53091(13) -0.28107(8) -0.45975(6)
H76 H -0.5600 -0.3179 -0.4819
H77 H -0.4961 -0.2493 -0.4853
H78 H -0.5918 -0.2599 -0.4392
C56 C -0.42869(15) -0.62054(7) -0.33371(8)
H79 H -0.4269 -0.6144 -0.3749
H80 H -0.4666 -0.6617 -0.3248
H81 H -0.3528 -0.6221 -0.3190
C57 C -0.56044(16) -0.31251(10) -0.05506(8)
H82 H -0.6114 -0.3303 -0.0835
H83 H -0.5760 -0.2658 -0.0494
H84 H -0.5705 -0.3359 -0.0192
C58 C -0.35801(14) -0.51196(8) -0.05335(6)
H85 H -0.3106 -0.5340 -0.0249
H86 H -0.4356 -0.5252 -0.0460
C59 C -0.61435(13) -0.56142(8) -0.32638(8)
H87 H -0.6559 -0.5288 -0.3046
H88 H -0.6476 -0.6048 -0.3208
H89 H -0.6167 -0.5500 -0.3667
C60 C -0.35597(17) -0.28818(9) -0.03378(7)
H90 H -0.3653 -0.3072 0.0041
H91 H -0.3705 -0.2410 -0.0322
H92 H -0.2800 -0.2957 -0.0469
loop_
_geom_bond_atom_site_label_1
_geom_bond_atom_site_label_2
_geom_bond_site_symmetry_1
_geom_bond_site_symmetry_2
O1 C10 1_555 1_555
O2 C9 1_555 1_555
C1 H1 1_555 1_555
H2 C1 1_555 1_555
C2 H3 1_555 1_555
C3 H4 1_555 1_555
C4 C6 1_555 1_555
C5 C11 1_555 1_555
C6 C1 1_555 1_555
H5 C6 1_555 1_555
C7 C3 1_555 1_555
H6 C7 1_555 1_555
C8 C6 1_555 1_555
H7 C8 1_555 1_555
H8 C8 1_555 1_555
C9 C4 1_555 1_555
C10 C3 1_555 1_555
C11 O1 1_555 1_555
C12 C1 1_555 1_555
H9 C12 1_555 1_555
C13 C3 1_555 1_555
H10 C13 1_555 1_555
H11 C13 1_555 1_555
C14 C9 1_555 1_555
C15 C2 1_555 1_555
H12 C15 1_555 1_555
H13 C15 1_555 1_555
C16 C10 1_555 1_555
H14 C16 1_555 1_555
H15 C16 1_555 1_555
C17 C7 1_555 1_555
C18 C14 1_555 1_555
H16 C18 1_555 1_555
H17 C18 1_555 1_555
H18 C18 1_555 1_555
C19 H19 1_555 1_555
H20 C19 1_555 1_555
H21 C19 1_555 1_555
C20 C2 1_555 1_555
C21 C5 1_555 1_555
C22 C7 1_555 1_555
H22 C22 1_555 1_555
H23 C22 1_555 1_555
C23 C17 1_555 1_555
H24 C23 1_555 1_555
H25 C23 1_555 1_555
H26 C23 1_555 1_555
C24 C5 1_555 1_555
H27 C24 1_555 1_555
H28 C24 1_555 1_555
H29 C24 1_555 1_555
C25 C14 1_555 1_555
H30 C25 1_555 1_555
H31 C25 1_555 1_555
H32 C25 1_555 1_555
O3 C21 1_555 1_555
C26 C12 1_555 1_555
H33 C26 1_555 1_555
H34 C26 1_555 1_555
H35 C26 1_555 1_555
C27 C5 1_555 1_555
H36 C27 1_555 1_555
H37 C27 1_555 1_555
H38 C27 1_555 1_555
C28 C20 1_555 1_555
H39 C28 1_555 1_555
H40 C28 1_555 1_555
C29 C17 1_555 1_555
H41 C29 1_555 1_555
H42 C29 1_555 1_555
H43 C29 1_555 1_555
C30 C12 1_555 1_555
H44 C30 1_555 1_555
H45 C30 1_555 1_555
H46 C30 1_555 1_555
O4 C35 1_555 1_555
O5 C36 1_555 1_555
C31 H47 1_555 1_555
C32 C35 1_555 1_555
C33 C31 1_555 1_555
C34 C31 1_555 1_555
H48 C34 1_555 1_555
H49 C34 1_555 1_555
C35 C33 1_555 1_555
C36 C33 1_555 1_555
C37 H50 1_555 1_555
H51 C37 1_555 1_555
C38 C37 1_555 1_555
H52 C38 1_555 1_555
H53 C38 1_555 1_555
C39 C37 1_555 1_555
H54 C39 1_555 1_555
C40 H55 1_555 1_555
O6 C53 1_555 1_555
C41 H56 1_555 1_555
H57 C41 1_555 1_555
C42 C36 1_555 1_555
C43 C40 1_555 1_555
H58 C43 1_555 1_555
C44 C40 1_555 1_555
H59 C44 1_555 1_555
H60 C44 1_555 1_555
C45 O4 1_555 1_555
C46 C34 1_555 1_555
H61 C46 1_555 1_555
C47 C31 1_555 1_555
H62 C47 1_555 1_555
H63 C47 1_555 1_555
C48 H64 1_555 1_555
H65 C48 1_555 1_555
H66 C48 1_555 1_555
C49 C32 1_555 1_555
H67 C49 1_555 1_555
H68 C49 1_555 1_555
H69 C49 1_555 1_555
C50 C42 1_555 1_555
H70 C50 1_555 1_555
H71 C50 1_555 1_555
H72 C50 1_555 1_555
C51 C39 1_555 1_555
C52 C32 1_555 1_555
H73 C52 1_555 1_555
H74 C52 1_555 1_555
H75 C52 1_555 1_555
C53 C32 1_555 1_555
C54 C43 1_555 1_555
C55 C42 1_555 1_555
H76 C55 1_555 1_555
H77 C55 1_555 1_555
H78 C55 1_555 1_555
C56 C46 1_555 1_555
H79 C56 1_555 1_555
H80 C56 1_555 1_555
H81 C56 1_555 1_555
C57 C54 1_555 1_555
H82 C57 1_555 1_555
H83 C57 1_555 1_555
H84 C57 1_555 1_555
C58 C41 1_555 1_555
H85 C58 1_555 1_555
H86 C58 1_555 1_555
C59 C46 1_555 1_555
H87 C59 1_555 1_555
H88 C59 1_555 1_555
H89 C59 1_555 1_555
C60 C54 1_555 1_555
H90 C60 1_555 1_555
H91 C60 1_555 1_555
H92 C60 1_555 1_555
C4 C11 1_555 1_555
C8 C10 1_555 1_555
C13 C17 1_555 1_555
C14 C21 1_555 1_555
C15 C16 1_555 1_555
C19 C20 1_555 1_555
C22 C28 1_555 1_555
C38 C45 1_555 1_555
C40 C45 1_555 1_555
C41 C43 1_555 1_555
C42 C53 1_555 1_555
C44 C54 1_555 1_555
C45 C47 1_555 1_555
C48 C51 1_555 1_555
C51 C58 1_555 1_555

#END
