
#######################################################################
#
#                 Cambridge Crystallographic Data Centre
#                                CCDC 
#
#######################################################################
#
# If this CIF has been generated from an entry in the Cambridge 
# Structural Database, then it will include bibliographic, chemical, 
# crystal, experimental, refinement or atomic coordinate data resulting 
# from the CCDC's data processing and validation procedures.
#
#######################################################################

data_OQOJIP01
_chemical_compound_source        'leaves of Rhodomyrtus tomentosa'
_chemical_name_common            'rhodomentone A'
_chemical_formula_moiety         'C30 H46 O3'
_chemical_name_systematic        
4'-isobutyl-6,6',6',8',8',10,10-heptamethyl-4',8'-dihydrospiro[bicyclo[7.2.0]undec-5-ene-2,2'-chromene]-5',7'(3'H,6'H)-dione
_symmetry_cell_setting           orthorhombic
_symmetry_space_group_name_H-M   'P 21 21 21'
_symmetry_Int_Tables_number      19
_space_group_name_Hall           'P 2ac 2ab'
loop_
_symmetry_equiv_pos_site_id
_symmetry_equiv_pos_as_xyz
1 x,y,z
2 1/2-x,-y,1/2+z
3 1/2+x,1/2-y,-z
4 -x,1/2+y,1/2-z
_cell_length_a                   11.96180(10)
_cell_length_b                   20.1271(2)
_cell_length_c                   23.2612(3)
_cell_angle_alpha                90
_cell_angle_beta                 90
_cell_angle_gamma                90
_cell_volume                     5600.28
_exptl_crystal_colour            colorless
_exptl_crystal_description       block
_chemical_melting_point          '148-152 deg.C'
_cell_formula_units_Z            8
_exptl_crystal_recrystallization_method ethanol/water
loop_
_atom_site_label
_atom_site_type_symbol
_atom_site_fract_x
_atom_site_fract_y
_atom_site_fract_z
O1 O -0.17007(12) 0.06685(6) 0.21691(6)
O2 O 0.06706(16) 0.13331(10) 0.06673(7)
C1 C -0.05100(14) 0.16407(8) 0.23674(7)
H1 H 0.0100 0.1402 0.2548
H2 H -0.0533 0.2081 0.2537
C2 C -0.02443(15) 0.17136(9) 0.17259(8)
H3 H 0.0572 0.1734 0.1697
C3 C -0.15994(14) 0.12853(8) 0.25133(7)
C4 C -0.05928(17) 0.10962(9) 0.14056(8)
C5 C -0.26710(15) 0.16628(10) 0.23397(8)
H4 H -0.2695 0.1684 0.1923
H5 H -0.3308 0.1400 0.2463
C6 C -0.26134(19) 0.23573(12) 0.31984(11)
H6 H -0.3091 0.2093 0.3416
C7 C -0.08436(19) 0.03635(10) 0.31975(9)
H7 H -0.1256 -0.0051 0.3180
H8 H -0.0208 0.0354 0.2939
C8 C -0.06841(18) 0.23541(9) 0.14410(9)
H9 H -0.0598 0.2314 0.1028
H10 H -0.1477 0.2394 0.1521
C9 C -0.15895(16) 0.09900(9) 0.31273(8)
H11 H -0.2357 0.0880 0.3240
C10 C -0.12646(16) 0.06320(9) 0.16401(8)
C11 C -0.00999(19) 0.09906(12) 0.08387(9)
C12 C -0.28254(18) 0.23704(11) 0.25717(10)
H12 H -0.2306 0.2671 0.2384
H13 H -0.3580 0.2524 0.2496
C13 C -0.1592(2) -0.00244(11) 0.13687(10)
C14 C -0.0101(2) 0.29905(11) 0.16385(11)
H14 H -0.0097 0.2994 0.2060
C15 C -0.09619(17) 0.12963(11) 0.36596(8)
H15 H -0.0327 0.1560 0.3522
O3 O -0.0893(3) -0.06903(13) 0.06188(14)
C16 C -0.0593(2) 0.04613(14) 0.04433(10)
C17 C -0.05463(19) 0.05807(12) 0.38114(9)
C18 C 0.0282(3) 0.0215(2) 0.00170(14)
H16 H 0.0608 0.0587 -0.0179
H17 H -0.0066 -0.0075 -0.0258
H18 H 0.0855 -0.0023 0.0220
C19 C -0.1820(2) 0.26783(12) 0.34874(11)
C20 C -0.2867(2) -0.00671(17) 0.12978(16)
H19 H -0.3219 -0.0014 0.1666
H20 H -0.3063 -0.0492 0.1140
H21 H -0.3116 0.0278 0.1043
C21 C -0.1556(2) 0.16797(14) 0.41388(9)
H22 H -0.2336 0.1548 0.4146
H23 H -0.1229 0.1555 0.4505
C22 C -0.1156(3) 0.32468(13) 0.32569(15)
H24 H -0.0407 0.3102 0.3177
H25 H -0.1138 0.3598 0.3536
H26 H -0.1495 0.3406 0.2909
C23 C -0.1005(3) -0.01317(15) 0.07919(13)
C24 C -0.1232(3) -0.05919(12) 0.17715(16)
H27 H -0.0440 -0.0570 0.1833
H28 H -0.1420 -0.1011 0.1600
H29 H -0.1613 -0.0549 0.2133
C25 C -0.1562(4) 0.0797(2) 0.01293(16)
H30 H -0.2012 0.1037 0.0401
H31 H -0.2011 0.0466 -0.0057
H32 H -0.1273 0.1099 -0.0153
C26 C 0.0680(2) 0.05386(16) 0.39809(13)
H33 H 0.0872 0.0085 0.4061
H34 H 0.0808 0.0804 0.4317
H35 H 0.1135 0.0700 0.3671
C27 C -0.1279(3) 0.02248(17) 0.42539(12)
H36 H -0.2050 0.0262 0.4143
H37 H -0.1174 0.0425 0.4625
H38 H -0.1073 -0.0236 0.4271
C28 C -0.0726(3) 0.36009(14) 0.14354(19)
H39 H -0.0768 0.3598 0.1023
H40 H -0.0338 0.3993 0.1561
H41 H -0.1467 0.3599 0.1593
C29 C -0.1493(3) 0.24345(15) 0.40766(12)
H42 H -0.1982 0.2637 0.4360
H43 H -0.0736 0.2578 0.4158
C30 C 0.1095(3) 0.30221(18) 0.1434(2)
H44 H 0.1510 0.2660 0.1598
H45 H 0.1423 0.3435 0.1553
H46 H 0.1114 0.2991 0.1023
O4 O -0.67257(12) 0.16607(7) 0.24399(6)
O5 O -0.43078(15) 0.10354(8) 0.39349(6)
C31 C -0.52446(15) 0.06328(9) 0.28918(8)
H47 H -0.4429 0.0609 0.2923
C32 C -0.66053(16) 0.10434(9) 0.20993(8)
O6 O -0.6155(2) 0.30153(10) 0.40440(10)
C33 C -0.55071(15) 0.06977(9) 0.22484(8)
H48 H -0.4902 0.0940 0.2067
H49 H -0.5519 0.0256 0.2082
C34 C -0.50931(18) 0.13695(10) 0.37674(8)
C35 C -0.57026(17) 0.00091(9) 0.31918(9)
H50 H -0.5668 0.0078 0.3604
H51 H -0.6484 -0.0041 0.3089
C36 C -0.65953(18) 0.13373(10) 0.14808(8)
H52 H -0.7367 0.1436 0.1368
C37 C -0.77764(18) -0.00593(11) 0.20405(10)
H53 H -0.7244 -0.0347 0.2233
H54 H -0.8523 -0.0226 0.2115
C38 C -0.66426(18) 0.23608(10) 0.32412(9)
C39 C -0.55953(16) 0.12563(9) 0.32042(8)
C40 C -0.76635(15) 0.06543(11) 0.22643(9)
H55 H -0.7706 0.0640 0.2681
H56 H -0.8306 0.0904 0.2130
C41 C -0.5093(2) -0.06403(10) 0.30494(10)
H57 H -0.5100 -0.0698 0.2631
C42 C -0.75543(19) -0.00500(12) 0.14115(10)
H58 H -0.8038 0.0205 0.1190
C43 C -0.5598(2) 0.18960(11) 0.41639(9)
C44 C -0.4723(3) 0.21617(16) 0.45825(12)
H59 H -0.4453 0.1805 0.4819
H60 H -0.5053 0.2497 0.4821
H61 H -0.4111 0.2350 0.4371
C45 C -0.62786(16) 0.17095(9) 0.29674(8)
C46 C -0.5962(2) 0.10445(13) 0.09438(9)
H62 H -0.5299 0.0804 0.1077
C47 C -0.6746(2) -0.03630(12) 0.11300(10)
C48 C -0.5889(2) 0.19732(12) 0.14073(10)
H63 H -0.6320 0.2380 0.1435
H64 H -0.5239 0.1990 0.1656
C49 C -0.6531(3) 0.06366(15) 0.04703(10)
H65 H -0.7319 0.0750 0.0462
H66 H -0.6214 0.0763 0.0103
C50 C -0.7919(2) 0.23709(14) 0.33059(15)
H67 H -0.8260 0.2336 0.2933
H68 H -0.8145 0.2779 0.3485
H69 H -0.8152 0.2003 0.3540
C51 C -0.6058(3) -0.09213(13) 0.13657(15)
H70 H -0.5312 -0.0767 0.1439
H71 H -0.6036 -0.1278 0.1092
H72 H -0.6385 -0.1077 0.1718
C52 C -0.6421(3) -0.01165(16) 0.05391(12)
H73 H -0.6889 -0.0333 0.0255
H74 H -0.5653 -0.0244 0.0463
C53 C -0.6112(2) 0.24679(11) 0.38357(10)
C54 C -0.3891(3) -0.06313(15) 0.32466(17)
H75 H -0.3462 -0.0347 0.2999
H76 H -0.3591 -0.1074 0.3232
H77 H -0.3853 -0.0468 0.3634
C55 C -0.5617(3) 0.17681(15) 0.07837(11)
C56 C -0.6270(3) 0.29400(11) 0.28580(13)
H78 H -0.5477 0.2916 0.2798
H79 H -0.6453 0.3353 0.3042
H80 H -0.6646 0.2913 0.2494
C57 C -0.5703(3) -0.12200(12) 0.33161(16)
H81 H -0.5743 -0.1159 0.3725
H82 H -0.5309 -0.1624 0.3232
H83 H -0.6445 -0.1245 0.3161
C58 C -0.6540(3) 0.15365(15) 0.44969(12)
H84 H -0.6982 0.1280 0.4234
H85 H -0.7006 0.1859 0.4684
H86 H -0.6216 0.1247 0.4780
C59 C -0.6433(4) 0.21031(19) 0.03664(14)
H87 H -0.6359 0.1906 -0.0008
H88 H -0.6267 0.2569 0.0343
H89 H -0.7184 0.2044 0.0502
C60 C -0.4405(3) 0.1856(2) 0.05894(17)
H90 H -0.3915 0.1648 0.0862
H91 H -0.4233 0.2321 0.0565
H92 H -0.4306 0.1655 0.0219
loop_
_geom_bond_atom_site_label_1
_geom_bond_atom_site_label_2
_geom_bond_site_symmetry_1
_geom_bond_site_symmetry_2
O1 C3 1_555 1_555
O2 C11 1_555 1_555
C1 H1 1_555 1_555
H2 C1 1_555 1_555
C2 C1 1_555 1_555
H3 C2 1_555 1_555
C3 C1 1_555 1_555
C4 C2 1_555 1_555
C5 C3 1_555 1_555
H4 C5 1_555 1_555
H5 C5 1_555 1_555
C6 H6 1_555 1_555
C7 H7 1_555 1_555
H8 C7 1_555 1_555
C8 C2 1_555 1_555
H9 C8 1_555 1_555
H10 C8 1_555 1_555
C9 C3 1_555 1_555
H11 C9 1_555 1_555
C10 O1 1_555 1_555
C11 C4 1_555 1_555
C12 C5 1_555 1_555
H12 C12 1_555 1_555
H13 C12 1_555 1_555
C13 C10 1_555 1_555
C14 C8 1_555 1_555
H14 C14 1_555 1_555
C15 C9 1_555 1_555
H15 C15 1_555 1_555
O3 C23 1_555 1_555
C16 C11 1_555 1_555
C17 C7 1_555 1_555
C18 C16 1_555 1_555
H16 C18 1_555 1_555
H17 C18 1_555 1_555
H18 C18 1_555 1_555
C19 C6 1_555 1_555
C20 C13 1_555 1_555
H19 C20 1_555 1_555
H20 C20 1_555 1_555
H21 C20 1_555 1_555
C21 C15 1_555 1_555
H22 C21 1_555 1_555
H23 C21 1_555 1_555
C22 C19 1_555 1_555
H24 C22 1_555 1_555
H25 C22 1_555 1_555
H26 C22 1_555 1_555
C23 C13 1_555 1_555
C24 C13 1_555 1_555
H27 C24 1_555 1_555
H28 C24 1_555 1_555
H29 C24 1_555 1_555
C25 C16 1_555 1_555
H30 C25 1_555 1_555
H31 C25 1_555 1_555
H32 C25 1_555 1_555
C26 C17 1_555 1_555
H33 C26 1_555 1_555
H34 C26 1_555 1_555
H35 C26 1_555 1_555
C27 C17 1_555 1_555
H36 C27 1_555 1_555
H37 C27 1_555 1_555
H38 C27 1_555 1_555
C28 C14 1_555 1_555
H39 C28 1_555 1_555
H40 C28 1_555 1_555
H41 C28 1_555 1_555
C29 C19 1_555 1_555
H42 C29 1_555 1_555
H43 C29 1_555 1_555
C30 C14 1_555 1_555
H44 C30 1_555 1_555
H45 C30 1_555 1_555
H46 C30 1_555 1_555
O4 C32 1_555 1_555
O5 C34 1_555 1_555
C31 H47 1_555 1_555
C32 C33 1_555 1_555
O6 C53 1_555 1_555
C33 C31 1_555 1_555
H48 C33 1_555 1_555
H49 C33 1_555 1_555
C34 C39 1_555 1_555
C35 C31 1_555 1_555
H50 C35 1_555 1_555
H51 C35 1_555 1_555
C36 C32 1_555 1_555
H52 C36 1_555 1_555
C37 H53 1_555 1_555
H54 C37 1_555 1_555
C38 C45 1_555 1_555
C39 C31 1_555 1_555
C40 C32 1_555 1_555
H55 C40 1_555 1_555
H56 C40 1_555 1_555
C41 C35 1_555 1_555
H57 C41 1_555 1_555
C42 C37 1_555 1_555
H58 C42 1_555 1_555
C43 C34 1_555 1_555
C44 C43 1_555 1_555
H59 C44 1_555 1_555
H60 C44 1_555 1_555
H61 C44 1_555 1_555
C45 O4 1_555 1_555
C46 C36 1_555 1_555
H62 C46 1_555 1_555
C47 C42 1_555 1_555
C48 C36 1_555 1_555
H63 C48 1_555 1_555
H64 C48 1_555 1_555
C49 C46 1_555 1_555
H65 C49 1_555 1_555
H66 C49 1_555 1_555
C50 C38 1_555 1_555
H67 C50 1_555 1_555
H68 C50 1_555 1_555
H69 C50 1_555 1_555
C51 C47 1_555 1_555
H70 C51 1_555 1_555
H71 C51 1_555 1_555
H72 C51 1_555 1_555
C52 C47 1_555 1_555
H73 C52 1_555 1_555
H74 C52 1_555 1_555
C53 C38 1_555 1_555
C54 C41 1_555 1_555
H75 C54 1_555 1_555
H76 C54 1_555 1_555
H77 C54 1_555 1_555
C55 C46 1_555 1_555
C56 C38 1_555 1_555
H78 C56 1_555 1_555
H79 C56 1_555 1_555
H80 C56 1_555 1_555
C57 C41 1_555 1_555
H81 C57 1_555 1_555
H82 C57 1_555 1_555
H83 C57 1_555 1_555
C58 C43 1_555 1_555
H84 C58 1_555 1_555
H85 C58 1_555 1_555
H86 C58 1_555 1_555
C59 C55 1_555 1_555
H87 C59 1_555 1_555
H88 C59 1_555 1_555
H89 C59 1_555 1_555
C60 C55 1_555 1_555
H90 C60 1_555 1_555
H91 C60 1_555 1_555
H92 C60 1_555 1_555
C4 C10 1_555 1_555
C6 C12 1_555 1_555
C7 C9 1_555 1_555
C15 C17 1_555 1_555
C16 C23 1_555 1_555
C21 C29 1_555 1_555
C37 C40 1_555 1_555
C39 C45 1_555 1_555
C43 C53 1_555 1_555
C48 C55 1_555 1_555
C49 C52 1_555 1_555

#END
