
#######################################################################
#
#                 Cambridge Crystallographic Data Centre
#                                CCDC 
#
#######################################################################
#
# If this CIF has been generated from an entry in the Cambridge 
# Structural Database, then it will include bibliographic, chemical, 
# crystal, experimental, refinement or atomic coordinate data resulting 
# from the CCDC's data processing and validation procedures.
#
#######################################################################

data_OQONEO
_chemical_formula_moiety         'C25 H20 O4'
_chemical_name_systematic        
(3-(4-Methoxyphenyl)-6,7-dihydro-5H-furo[3,2-g]chromen-2-yl)(phenyl)methanone
_symmetry_cell_setting           triclinic
_symmetry_space_group_name_H-M   'P -1'
_symmetry_Int_Tables_number      2
_space_group_name_Hall           '-P 1'
loop_
_symmetry_equiv_pos_site_id
_symmetry_equiv_pos_as_xyz
1 x,y,z
2 -x,-y,-z
_cell_length_a                   9.3968(19)
_cell_length_b                   10.406(2)
_cell_length_c                   11.571(2)
_cell_angle_alpha                115.00(3)
_cell_angle_beta                 99.23(3)
_cell_angle_gamma                105.74(3)
_cell_volume                     936.645
_cell_formula_units_Z            2
loop_
_atom_site_label
_atom_site_type_symbol
_atom_site_fract_x
_atom_site_fract_y
_atom_site_fract_z
O1 O 0.54327(10) 0.79954(10) 0.26096(9)
O2 O 0.14783(10) 0.36137(10) 0.20665(8)
O3 O 0.00341(10) 0.07879(10) 0.28995(9)
O4 O 0.14142(10) 0.39501(11) 0.89449(8)
C1 C 0.27031(14) 0.49984(14) 0.27995(12)
C2 C 0.34524(14) 0.58400(15) 0.22674(12)
H1 H 0.3150 0.5504 0.1350
C3 C 0.46827(14) 0.72164(15) 0.31746(12)
C4 C 0.67789(15) 0.93990(15) 0.34746(13)
H2 H 0.6441 1.0254 0.3785
H3 H 0.7465 0.9550 0.2960
C5 C 0.76727(15) 0.93901(15) 0.46733(13)
H4 H 0.8555 1.0355 0.5230
H5 H 0.8064 0.8572 0.4376
C6 C 0.65997(15) 0.91528(15) 0.54803(13)
H6 H 0.7135 0.9049 0.6206
H7 H 0.6312 1.0034 0.5870
C7 C 0.51568(14) 0.77292(14) 0.45755(12)
C8 C 0.43399(14) 0.68422(14) 0.50523(12)
H8 H 0.4624 0.7177 0.5969
C9 C 0.30906(14) 0.54474(14) 0.41672(12)
C10 C 0.20198(14) 0.42405(14) 0.42756(12)
C11 C 0.11020(14) 0.31579(15) 0.29883(12)
C12 C -0.00780(14) 0.15839(14) 0.23901(12)
C13 C -0.13821(14) 0.10163(15) 0.11530(12)
C14 C -0.20620(16) -0.05442(16) 0.02371(13)
H9 H -0.1685 -0.1219 0.0385
C15 C -0.32979(17) -0.10902(17) -0.08931(13)
H10 H -0.3741 -0.2131 -0.1515
C16 C -0.38787(16) -0.00892(17) -0.11015(13)
H11 H -0.4712 -0.0462 -0.1863
C17 C -0.32260(15) 0.14625(16) -0.01836(13)
H12 H -0.3629 0.2129 -0.0320
C18 C -0.19741(14) 0.20164(15) 0.09365(12)
H13 H -0.1524 0.3060 0.1549
C19 C 0.18471(14) 0.42138(14) 0.55135(12)
C20 C 0.31382(14) 0.47571(14) 0.66223(11)
H14 H 0.4132 0.5188 0.6599
C21 C 0.29648(14) 0.46661(15) 0.77501(12)
H15 H 0.3838 0.5030 0.8477
C22 C 0.14808(15) 0.40285(14) 0.78030(11)
C23 C 0.01749(14) 0.35357(14) 0.67337(12)
H16 H -0.0820 0.3139 0.6772
C24 C 0.03712(14) 0.36418(14) 0.56086(12)
H17 H -0.0504 0.3323 0.4900
C25 C -0.00630(16) 0.30773(17) 0.89322(13)
H18 H -0.0795 0.3538 0.8824
H19 H 0.0050 0.3060 0.9764
H20 H -0.0434 0.2049 0.8200
loop_
_geom_bond_atom_site_label_1
_geom_bond_atom_site_label_2
_geom_bond_site_symmetry_1
_geom_bond_site_symmetry_2
O1 C3 1_555 1_555
O2 C1 1_555 1_555
O3 C12 1_555 1_555
O4 C22 1_555 1_555
C1 C2 1_555 1_555
C2 H1 1_555 1_555
C3 C2 1_555 1_555
C4 O1 1_555 1_555
H2 C4 1_555 1_555
H3 C4 1_555 1_555
C5 C4 1_555 1_555
H4 C5 1_555 1_555
H5 C5 1_555 1_555
C6 C5 1_555 1_555
H6 C6 1_555 1_555
H7 C6 1_555 1_555
C7 C3 1_555 1_555
C8 C7 1_555 1_555
H8 C8 1_555 1_555
C9 C1 1_555 1_555
C10 C9 1_555 1_555
C11 O2 1_555 1_555
C12 C11 1_555 1_555
C13 C12 1_555 1_555
C14 C13 1_555 1_555
H9 C14 1_555 1_555
C15 C14 1_555 1_555
H10 C15 1_555 1_555
C16 C15 1_555 1_555
H11 C16 1_555 1_555
C17 C16 1_555 1_555
H12 C17 1_555 1_555
C18 C13 1_555 1_555
H13 C18 1_555 1_555
C19 C10 1_555 1_555
C20 C19 1_555 1_555
H14 C20 1_555 1_555
C21 C20 1_555 1_555
H15 C21 1_555 1_555
C22 C21 1_555 1_555
C23 C22 1_555 1_555
H16 C23 1_555 1_555
C24 C19 1_555 1_555
H17 C24 1_555 1_555
C25 O4 1_555 1_555
H18 C25 1_555 1_555
H19 C25 1_555 1_555
H20 C25 1_555 1_555
C6 C7 1_555 1_555
C8 C9 1_555 1_555
C10 C11 1_555 1_555
C17 C18 1_555 1_555
C23 C24 1_555 1_555

#END
