
#######################################################################
#
#                 Cambridge Crystallographic Data Centre
#                                CCDC 
#
#######################################################################
#
# If this CIF has been generated from an entry in the Cambridge 
# Structural Database, then it will include bibliographic, chemical, 
# crystal, experimental, refinement or atomic coordinate data resulting 
# from the CCDC's data processing and validation procedures.
#
#######################################################################

data_OQOSAP02
_chemical_formula_moiety         'C17 H20 N6 O5'
_chemical_name_systematic        
5,5'-(2-furylmethylene)bis(6-amino-1,3-dimethylpyrimidine-2,4(1H,3H)-dione)
_symmetry_cell_setting           monoclinic
_symmetry_space_group_name_H-M   'P 21/c'
_symmetry_Int_Tables_number      14
_space_group_name_Hall           '-P 2ybc'
loop_
_symmetry_equiv_pos_site_id
_symmetry_equiv_pos_as_xyz
1 x,y,z
2 -x,1/2+y,1/2-z
3 -x,-y,-z
4 x,1/2-y,1/2+z
_cell_length_a                   11.3123(8)
_cell_length_b                   14.8291(10)
_cell_length_c                   10.8777(8)
_cell_angle_alpha                90
_cell_angle_beta                 102.943(7)
_cell_angle_gamma                90
_cell_volume                     1778.39
_cell_formula_units_Z            4
loop_
_atom_site_label
_atom_site_type_symbol
_atom_site_fract_x
_atom_site_fract_y
_atom_site_fract_z
O1 O 0.27080(16) 0.07505(11) 0.10753(17)
O2 O 0.06495(17) 0.36414(12) -0.00479(18)
O3 O 0.02863(16) 0.37694(12) 0.26519(18)
N1 N -0.13586(19) 0.28876(14) 0.2632(2)
O4 O 0.56153(17) 0.11302(14) 0.46852(19)
N2 N 0.41765(18) 0.09515(14) 0.2863(2)
N3 N 0.42466(19) 0.22600(15) 0.4080(2)
C1 C 0.1464(2) 0.23762(16) 0.1362(2)
H1 H 0.1367 0.1947 0.0661
N4 N -0.14274(18) 0.13792(13) 0.1988(2)
O5 O -0.30081(17) 0.20132(13) 0.2655(2)
C2 C -0.0311(2) 0.14722(16) 0.1685(2)
C3 C 0.2609(2) 0.20673(16) 0.2272(2)
C4 C 0.3134(2) 0.12422(17) 0.2016(2)
C5 C 0.3164(2) 0.25529(17) 0.3342(2)
C6 C 0.0285(2) 0.22920(15) 0.1815(2)
C7 C 0.1620(2) 0.32737(16) 0.0767(2)
C8 C 0.4743(2) 0.14217(19) 0.3922(3)
N5 N 0.01342(19) 0.07200(13) 0.1253(2)
H2 H 0.0822 0.0736 0.1042
H3 H -0.0271 0.0225 0.1189
N6 N 0.27093(19) 0.33180(15) 0.3688(2)
H4 H 0.3091 0.3603 0.4346
H5 H 0.2034 0.3526 0.3253
C9 C -0.0215(2) 0.30184(17) 0.2365(2)
C10 C -0.1999(2) 0.20922(19) 0.2442(3)
C11 C 0.2599(2) 0.37706(16) 0.0803(2)
H6 H 0.3376 0.3648 0.1272
C12 C 0.2254(3) 0.4519(2) 0.0003(3)
H7 H 0.2755 0.4984 -0.0147
C13 C -0.2093(3) 0.05255(18) 0.1793(3)
H8 H -0.2840 0.0586 0.2066
H9 H -0.1610 0.0058 0.2271
H10 H -0.2267 0.0372 0.0913
C14 C 0.4928(3) 0.2802(2) 0.5129(3)
H11 H 0.4915 0.3424 0.4878
H12 H 0.5752 0.2594 0.5353
H13 H 0.4565 0.2744 0.5842
C15 C 0.4721(3) 0.00857(18) 0.2659(3)
H14 H 0.5585 0.0154 0.2796
H15 H 0.4401 -0.0112 0.1809
H16 H 0.4536 -0.0353 0.3238
C16 C -0.1927(3) 0.3648(2) 0.3138(3)
H17 H -0.2731 0.3482 0.3202
H18 H -0.1969 0.4157 0.2584
H19 H -0.1454 0.3803 0.3958
C17 C 0.1077(3) 0.44310(18) -0.0493(3)
H20 H 0.0608 0.4834 -0.1053
loop_
_geom_bond_atom_site_label_1
_geom_bond_atom_site_label_2
_geom_bond_site_symmetry_1
_geom_bond_site_symmetry_2
O1 C4 1_555 1_555
O2 C7 1_555 1_555
O3 C9 1_555 1_555
N1 C9 1_555 1_555
O4 C8 1_555 1_555
N2 C4 1_555 1_555
N3 C5 1_555 1_555
C1 H1 1_555 1_555
N4 C2 1_555 1_555
O5 C10 1_555 1_555
C2 C6 1_555 1_555
C3 C1 1_555 1_555
C4 C3 1_555 1_555
C5 C3 1_555 1_555
C6 C1 1_555 1_555
C7 C1 1_555 1_555
C8 N2 1_555 1_555
N5 C2 1_555 1_555
H2 N5 1_555 1_555
H3 N5 1_555 1_555
N6 C5 1_555 1_555
H4 N6 1_555 1_555
H5 N6 1_555 1_555
C9 C6 1_555 1_555
C10 N1 1_555 1_555
C11 C7 1_555 1_555
H6 C11 1_555 1_555
C12 C11 1_555 1_555
H7 C12 1_555 1_555
C13 N4 1_555 1_555
H8 C13 1_555 1_555
H9 C13 1_555 1_555
H10 C13 1_555 1_555
C14 N3 1_555 1_555
H11 C14 1_555 1_555
H12 C14 1_555 1_555
H13 C14 1_555 1_555
C15 N2 1_555 1_555
H14 C15 1_555 1_555
H15 C15 1_555 1_555
H16 C15 1_555 1_555
C16 N1 1_555 1_555
H17 C16 1_555 1_555
H18 C16 1_555 1_555
H19 C16 1_555 1_555
C17 O2 1_555 1_555
H20 C17 1_555 1_555
N3 C8 1_555 1_555
N4 C10 1_555 1_555
C12 C17 1_555 1_555

#END
