
#######################################################################
#
#                 Cambridge Crystallographic Data Centre
#                                CCDC 
#
#######################################################################
#
# If this CIF has been generated from an entry in the Cambridge 
# Structural Database, then it will include bibliographic, chemical, 
# crystal, experimental, refinement or atomic coordinate data resulting 
# from the CCDC's data processing and validation procedures.
#
#######################################################################

data_OQOTIZ
_chemical_formula_moiety         'C21 H19 B1 O2'
_chemical_name_systematic        
5,5-dimethyl-2-(pyren-1-yl)-1,3,2-dioxaborinane
_symmetry_cell_setting           monoclinic
_symmetry_space_group_name_H-M   'P 21/a'
_symmetry_Int_Tables_number      14
_space_group_name_Hall           '-P 2yab'
loop_
_symmetry_equiv_pos_site_id
_symmetry_equiv_pos_as_xyz
1 x,y,z
2 1/2-x,1/2+y,-z
3 -x,-y,-z
4 1/2+x,1/2-y,z
_cell_length_a                   14.9097(4)
_cell_length_b                   6.6345(2)
_cell_length_c                   16.6553(4)
_cell_angle_alpha                90
_cell_angle_beta                 92.822(2)
_cell_angle_gamma                90
_cell_volume                     1645.52
_cell_formula_units_Z            4
loop_
_atom_site_label
_atom_site_type_symbol
_atom_site_fract_x
_atom_site_fract_y
_atom_site_fract_z
O1 O 0.87080(7) 0.38114(17) 0.71134(6)
C1 C 0.73912(8) 0.9372(2) 0.81381(8)
C2 C 0.78544(8) 0.7653(2) 0.78596(8)
O2 O 0.73291(7) 0.3358(2) 0.63800(8)
C3 C 0.60644(9) 0.8359(3) 0.73449(10)
H1 H 0.5469 0.8561 0.7172
C4 C 0.87397(9) 1.0472(2) 0.89383(8)
C5 C 0.64770(9) 0.9716(2) 0.78794(9)
C6 C 0.78318(9) 1.0789(2) 0.86678(8)
C7 C 0.87669(9) 0.7378(2) 0.81632(8)
H2 H 0.9081 0.6245 0.8006
C8 C 0.91542(11) 1.1885(3) 0.94558(9)
H3 H 0.9749 1.1692 0.9634
C9 C 0.74217(9) 0.6303(2) 0.73063(9)
C10 C 0.91802(9) 0.8712(2) 0.86677(9)
H4 H 0.9772 0.8474 0.8845
C11 C 0.73731(10) 1.2531(2) 0.89291(9)
C12 C 0.60287(11) 1.1462(3) 0.81690(10)
H5 H 0.5428 1.1671 0.8016
C13 C 0.86995(12) 1.3560(3) 0.97077(10)
H6 H 0.8986 1.4474 1.0057
C14 C 0.86596(11) 0.1560(2) 0.59440(9)
C15 C 0.90616(11) 0.2008(3) 0.67733(10)
H7 H 0.8946 0.0880 0.7124
H8 H 0.9707 0.2143 0.6746
C16 C 0.65227(9) 0.6720(3) 0.70672(10)
H9 H 0.6225 0.5850 0.6706
C17 C 0.64534(11) 1.2800(3) 0.86538(10)
H10 H 0.6144 1.3934 0.8817
B1 B 0.78537(11) 0.4392(3) 0.69233(10)
C18 C 0.89614(14) -0.0535(3) 0.56933(12)
H11 H 0.8739 -0.1521 0.6056
H12 H 0.9605 -0.0588 0.5709
H13 H 0.8729 -0.0816 0.5157
C19 C 0.78175(12) 1.3886(3) 0.94423(9)
H14 H 0.7519 1.5030 0.9611
C20 C 0.89405(17) 0.3132(3) 0.53470(12)
H15 H 0.8689 0.2801 0.4822
H16 H 0.9584 0.3159 0.5337
H17 H 0.8727 0.4431 0.5504
C21 C 0.76505(12) 0.1557(3) 0.60192(13)
H18 H 0.7360 0.1404 0.5489
H19 H 0.7486 0.0407 0.6340
loop_
_geom_bond_atom_site_label_1
_geom_bond_atom_site_label_2
_geom_bond_site_symmetry_1
_geom_bond_site_symmetry_2
O1 C15 1_555 1_555
C1 C2 1_555 1_555
C2 C7 1_555 1_555
O2 B1 1_555 1_555
C3 H1 1_555 1_555
C4 C6 1_555 1_555
C5 C1 1_555 1_555
C6 C1 1_555 1_555
C7 H2 1_555 1_555
C8 C4 1_555 1_555
H3 C8 1_555 1_555
C9 C2 1_555 1_555
C10 C4 1_555 1_555
H4 C10 1_555 1_555
C11 C6 1_555 1_555
C12 C5 1_555 1_555
H5 C12 1_555 1_555
C13 C8 1_555 1_555
H6 C13 1_555 1_555
C14 C15 1_555 1_555
C15 H7 1_555 1_555
H8 C15 1_555 1_555
C16 C3 1_555 1_555
H9 C16 1_555 1_555
C17 C11 1_555 1_555
H10 C17 1_555 1_555
B1 O1 1_555 1_555
C18 C14 1_555 1_555
H11 C18 1_555 1_555
H12 C18 1_555 1_555
H13 C18 1_555 1_555
C19 C11 1_555 1_555
H14 C19 1_555 1_555
C20 C14 1_555 1_555
H15 C20 1_555 1_555
H16 C20 1_555 1_555
H17 C20 1_555 1_555
C21 O2 1_555 1_555
H18 C21 1_555 1_555
H19 C21 1_555 1_555
C3 C5 1_555 1_555
C7 C10 1_555 1_555
C9 C16 1_555 1_555
C9 B1 1_555 1_555
C12 C17 1_555 1_555
C13 C19 1_555 1_555
C14 C21 1_555 1_555

#END
