
#######################################################################
#
#                 Cambridge Crystallographic Data Centre
#                                CCDC 
#
#######################################################################
#
# If this CIF has been generated from an entry in the Cambridge 
# Structural Database, then it will include bibliographic, chemical, 
# crystal, experimental, refinement or atomic coordinate data resulting 
# from the CCDC's data processing and validation procedures.
#
#######################################################################

data_OQOTEV
_chemical_formula_moiety         'C22 H21 B1 O2'
_chemical_name_systematic        
4,4,5,5-tetramethyl-2-(pyren-1-yl)-1,3,2-dioxaborolane
_symmetry_cell_setting           monoclinic
_symmetry_space_group_name_H-M   'P 21/c'
_symmetry_Int_Tables_number      14
_space_group_name_Hall           '-P 2ybc'
loop_
_symmetry_equiv_pos_site_id
_symmetry_equiv_pos_as_xyz
1 x,y,z
2 -x,1/2+y,1/2-z
3 -x,-y,-z
4 x,1/2-y,1/2+z
_cell_length_a                   11.7096(13)
_cell_length_b                   10.8168(11)
_cell_length_c                   14.2151(15)
_cell_angle_alpha                90
_cell_angle_beta                 91.551(10)
_cell_angle_gamma                90
_cell_volume                     1799.83
_cell_formula_units_Z            4
loop_
_atom_site_label
_atom_site_type_symbol
_atom_site_fract_x
_atom_site_fract_y
_atom_site_fract_z
O1 O 0.07211(14) 0.11781(17) 0.40496(12)
O2 O 0.05553(15) 0.23300(19) 0.27453(13)
C1 C 0.24029(17) 0.10161(19) 0.29724(15)
C2 C 0.29786(17) 0.13286(19) 0.21446(15)
C3 C 0.47083(18) 0.1221(2) 0.11908(17)
C4 C 0.41073(17) 0.08809(19) 0.20087(15)
C5 C 0.24710(19) 0.2078(2) 0.14085(16)
H1 H 0.1731 0.2372 0.1476
C6 C 0.46360(18) 0.0088(2) 0.26890(17)
C7 C 0.4179(2) 0.1967(2) 0.04836(17)
C8 C 0.3035(2) 0.2368(2) 0.06254(17)
H2 H 0.2668 0.2843 0.0163
C9 C 0.29501(19) 0.0215(2) 0.36129(16)
H3 H 0.2570 -0.0013 0.4152
C10 C 0.4025(2) -0.0247(2) 0.34777(17)
H4 H 0.4350 -0.0789 0.3917
C11 C 0.6400(2) 0.1114(3) 0.0247(2)
H5 H 0.7138 0.0830 0.0155
C12 C 0.5768(2) -0.0337(3) 0.2533(2)
H6 H 0.6120 -0.0857 0.2974
C13 C 0.5879(3) 0.1853(3) -0.0423(2)
H7 H 0.6273 0.2070 -0.0958
C14 C 0.5836(2) 0.0782(2) 0.10625(19)
C15 C -0.0431(2) 0.1696(3) 0.40613(18)
C16 C 0.4782(2) 0.2278(2) -0.03146(18)
H8 H 0.4442 0.2776 -0.0776
C17 C 0.6336(2) -0.0009(3) 0.1771(2)
H9 H 0.7076 -0.0300 0.1698
C18 C -0.0399(2) 0.2713(3) 0.3315(2)
C19 C -0.1253(2) 0.0645(3) 0.3782(2)
H10 H -0.2027 0.0921 0.3840
H11 H -0.1117 -0.0051 0.4188
H12 H -0.1128 0.0407 0.3142
C20 C -0.0649(3) 0.2087(3) 0.50582(18)
H13 H -0.0074 0.2667 0.5263
H14 H -0.0625 0.1375 0.5462
H15 H -0.1388 0.2469 0.5085
B1 B 0.1212(2) 0.1516(2) 0.32396(18)
C21 C -0.1428(3) 0.2833(4) 0.2672(2)
H16 H -0.1293 0.3463 0.2212
H17 H -0.2079 0.3053 0.3032
H18 H -0.1570 0.2059 0.2359
C22 C -0.0053(4) 0.3970(3) 0.3762(3)
H19 H 0.0581 0.3850 0.4195
H20 H -0.0688 0.4305 0.4090
H21 H 0.0164 0.4533 0.3276
loop_
_geom_bond_atom_site_label_1
_geom_bond_atom_site_label_2
_geom_bond_site_symmetry_1
_geom_bond_site_symmetry_2
O1 C15 1_555 1_555
O2 C18 1_555 1_555
C1 C2 1_555 1_555
C2 C4 1_555 1_555
C3 C4 1_555 1_555
C4 C6 1_555 1_555
C5 C2 1_555 1_555
H1 C5 1_555 1_555
C6 C10 1_555 1_555
C7 C3 1_555 1_555
C8 C5 1_555 1_555
H2 C8 1_555 1_555
C9 C1 1_555 1_555
H3 C9 1_555 1_555
C10 C9 1_555 1_555
H4 C10 1_555 1_555
C11 H5 1_555 1_555
C12 C6 1_555 1_555
H6 C12 1_555 1_555
C13 C11 1_555 1_555
H7 C13 1_555 1_555
C14 C3 1_555 1_555
C15 C18 1_555 1_555
C16 C7 1_555 1_555
H8 C16 1_555 1_555
C17 C12 1_555 1_555
H9 C17 1_555 1_555
C18 C21 1_555 1_555
C19 C15 1_555 1_555
H10 C19 1_555 1_555
H11 C19 1_555 1_555
H12 C19 1_555 1_555
C20 C15 1_555 1_555
H13 C20 1_555 1_555
H14 C20 1_555 1_555
H15 C20 1_555 1_555
B1 O1 1_555 1_555
C21 H16 1_555 1_555
H17 C21 1_555 1_555
H18 C21 1_555 1_555
C22 C18 1_555 1_555
H19 C22 1_555 1_555
H20 C22 1_555 1_555
H21 C22 1_555 1_555
O2 B1 1_555 1_555
C1 B1 1_555 1_555
C7 C8 1_555 1_555
C11 C14 1_555 1_555
C13 C16 1_555 1_555
C14 C17 1_555 1_555

#END
