
#######################################################################
#
#                 Cambridge Crystallographic Data Centre
#                                CCDC 
#
#######################################################################
#
# If this CIF has been generated from an entry in the Cambridge 
# Structural Database, then it will include bibliographic, chemical, 
# crystal, experimental, refinement or atomic coordinate data resulting 
# from the CCDC's data processing and validation procedures.
#
#######################################################################

data_OQOVAT
_chemical_formula_moiety         'C24 H26 O3'
_chemical_name_systematic        
7-(biphenyl-4-yl)tetrahydrospiro[1,3-benzodioxole-2,1'-cyclohexan]-5(4H)-one
_symmetry_cell_setting           orthorhombic
_symmetry_space_group_name_H-M   'P 21 21 21'
_symmetry_Int_Tables_number      19
_space_group_name_Hall           'P 2ac 2ab'
loop_
_symmetry_equiv_pos_site_id
_symmetry_equiv_pos_as_xyz
1 x,y,z
2 1/2+x,1/2-y,-z
3 -x,1/2+y,1/2-z
4 1/2-x,-y,1/2+z
_cell_length_a                   5.9418(2)
_cell_length_b                   8.6600(3)
_cell_length_c                   36.2709(11)
_cell_angle_alpha                90
_cell_angle_beta                 90
_cell_angle_gamma                90
_cell_volume                     1866.35
_exptl_crystal_colour            colorless
_exptl_crystal_description       plate
_cell_formula_units_Z            4
loop_
_atom_site_label
_atom_site_type_symbol
_atom_site_fract_x
_atom_site_fract_y
_atom_site_fract_z
C1 C -0.0580(5) 0.0236(3) 0.84541(7)
C2 C 0.1629(5) 0.0411(3) 0.82555(7)
H1 H 0.1374 0.0251 0.7994
H2 H 0.264 -0.0395 0.834
C3 C 0.2777(5) 0.1955(3) 0.83070(6)
H3 H 0.438 0.1856 0.8248
C4 C 0.2505(4) 0.2741(3) 0.86795(6)
H4 H 0.357 0.2307 0.8858
C5 C 0.0110(4) 0.2634(3) 0.88275(6)
H5 H -0.0865 0.3177 0.8652
C6 C -0.0648(5) 0.0927(3) 0.88329(6)
H6 H 0.0332 0.0342 0.8995
H7 H -0.2167 0.0861 0.8929
C7 C 0.2565(4) 0.4570(3) 0.82075(6)
C8 C 0.4671(4) 0.5068(3) 0.80037(6)
H8 H 0.5774 0.4243 0.8012
H9 H 0.5314 0.5965 0.8125
C9 C 0.4147(4) 0.5462(3) 0.76019(6)
H10 H 0.5501 0.5838 0.7482
H11 H 0.3663 0.4537 0.7474
C10 C 0.2317(4) 0.6682(3) 0.75751(7)
H12 H 0.2855 0.764 0.7682
H13 H 0.197 0.6874 0.7318
C11 C 0.0202(4) 0.6168(3) 0.77745(6)
H14 H -0.0429 0.5275 0.765
H15 H -0.0905 0.699 0.7767
C12 C 0.0714(4) 0.5757(3) 0.81743(6)
H16 H 0.1155 0.6684 0.8306
H17 H -0.064 0.5358 0.829
C13 C -0.0263(4) 0.3364(3) 0.92026(6)
C14 C -0.2200(4) 0.4193(3) 0.92688(7)
H18 H -0.3257 0.4302 0.9082
C15 C -0.2602(4) 0.4865(3) 0.96083(7)
H19 H -0.3933 0.541 0.9645
C16 C -0.1068(4) 0.4747(3) 0.98959(6)
C17 C 0.0809(4) 0.3847(3) 0.98333(7)
H20 H 0.1831 0.3693 1.0024
C18 C 0.1214(5) 0.3167(3) 0.94926(7)
H21 H 0.2498 0.2569 0.946
C19 C -0.1365(4) 0.5628(3) 1.02475(6)
C20 C -0.3256(5) 0.6480(3) 1.03186(7)
H22 H -0.4447 0.6446 1.0152
C21 C -0.3448(6) 0.7390(4) 1.06304(7)
H23 H -0.4745 0.7972 1.0667
C22 C -0.1783(5) 0.7447(3) 1.08830(7)
H24 H -0.1922 0.8052 1.1094
C23 C 0.0103(5) 0.6596(4) 1.08219(8)
H25 H 0.1276 0.6621 1.0992
C24 C 0.0287(5) 0.5692(4) 1.05082(8)
H26 H 0.1584 0.5109 1.0474
O1 O 0.3101(3) 0.43018(19) 0.85929(4)
O2 O 0.1770(3) 0.31051(18) 0.80717(4)
O3 O -0.2169(4) -0.0428(2) 0.83179(5)
loop_
_geom_bond_atom_site_label_1
_geom_bond_atom_site_label_2
_geom_bond_site_symmetry_1
_geom_bond_site_symmetry_2
C1 C2 1_555 1_555
C2 H1 1_555 1_555
H2 C2 1_555 1_555
C3 C2 1_555 1_555
H3 C3 1_555 1_555
C4 C3 1_555 1_555
H4 C4 1_555 1_555
C5 C4 1_555 1_555
H5 C5 1_555 1_555
C6 C1 1_555 1_555
H6 C6 1_555 1_555
H7 C6 1_555 1_555
C7 C8 1_555 1_555
C8 H8 1_555 1_555
H9 C8 1_555 1_555
C9 C8 1_555 1_555
H10 C9 1_555 1_555
H11 C9 1_555 1_555
C10 C9 1_555 1_555
H12 C10 1_555 1_555
H13 C10 1_555 1_555
C11 C10 1_555 1_555
H14 C11 1_555 1_555
H15 C11 1_555 1_555
C12 C7 1_555 1_555
H16 C12 1_555 1_555
H17 C12 1_555 1_555
C13 C5 1_555 1_555
C14 C13 1_555 1_555
H18 C14 1_555 1_555
C15 C14 1_555 1_555
H19 C15 1_555 1_555
C16 C15 1_555 1_555
C17 C16 1_555 1_555
H20 C17 1_555 1_555
C18 C13 1_555 1_555
H21 C18 1_555 1_555
C19 C16 1_555 1_555
C20 C19 1_555 1_555
H22 C20 1_555 1_555
C21 C20 1_555 1_555
H23 C21 1_555 1_555
C22 C21 1_555 1_555
H24 C22 1_555 1_555
C23 C22 1_555 1_555
H25 C23 1_555 1_555
C24 C19 1_555 1_555
H26 C24 1_555 1_555
O1 C4 1_555 1_555
O2 C3 1_555 1_555
O3 C1 1_555 1_555
C5 C6 1_555 1_555
C7 O1 1_555 1_555
C7 O2 1_555 1_555
C11 C12 1_555 1_555
C17 C18 1_555 1_555
C23 C24 1_555 1_555

#END
