
#######################################################################
#
#                 Cambridge Crystallographic Data Centre
#                                CCDC 
#
#######################################################################
#
# If this CIF has been generated from an entry in the Cambridge 
# Structural Database, then it will include bibliographic, chemical, 
# crystal, experimental, refinement or atomic coordinate data resulting 
# from the CCDC's data processing and validation procedures.
#
#######################################################################

data_OQOYEA
_chemical_formula_moiety         'C12 H13 N2 1+,C8 H5 N4 O7 1-,H2 O1'
_chemical_name_systematic        
"2-methyl-6-(6-methylpyridin-2-yl)pyridin-1-ium 5'-hydroxy-2,2',4',6,6'-pentaoxo-1,1',2,2',3,3',4',5',6,6'-decahydro-5,5'-bipyrimidin-4-olate monohydrate"
_symmetry_cell_setting           monoclinic
_symmetry_space_group_name_H-M   'P 21/n'
_symmetry_Int_Tables_number      14
_space_group_name_Hall           '-P 2yn'
loop_
_symmetry_equiv_pos_site_id
_symmetry_equiv_pos_as_xyz
1 x,y,z
2 1/2-x,1/2+y,1/2-z
3 -x,-y,-z
4 1/2+x,1/2-y,1/2+z
_cell_length_a                   10.7025(6)
_cell_length_b                   14.7378(7)
_cell_length_c                   13.4154(6)
_cell_angle_alpha                90
_cell_angle_beta                 102.164(5)
_cell_angle_gamma                90
_cell_volume                     2068.52
_exptl_crystal_colour            yellow
_exptl_crystal_description       cubic
_cell_formula_units_Z            4
loop_
_atom_site_label
_atom_site_type_symbol
_atom_site_fract_x
_atom_site_fract_y
_atom_site_fract_z
O1 O 0.33277(16) 0.42460(11) 0.59124(12)
O2 O -0.06053(17) 0.43754(13) 0.38494(13)
O3 O 0.21953(17) 0.23221(12) 0.30712(13)
N1 N 0.13365(19) 0.42343(14) 0.49193(15)
N2 N 0.0828(2) 0.33639(14) 0.34821(16)
O4 O 0.44667(18) 0.21458(12) 0.63657(14)
C1 C 0.2890(2) 0.32037(15) 0.45515(16)
N3 N 0.5845(2) 0.32769(14) 0.62696(17)
N4 N 0.5789(2) 0.41153(14) 0.47885(15)
O5 O 0.7009(2) 0.45550(14) 0.62958(14)
C2 C 0.0461(2) 0.40109(16) 0.40703(17)
C3 C 0.2582(2) 0.38971(15) 0.51687(16)
O6 O 0.4840(2) 0.35467(16) 0.32701(13)
C4 C 0.6254(3) 0.40213(17) 0.58265(18)
C5 C 0.2008(2) 0.29279(16) 0.36866(17)
C6 C 0.4254(2) 0.28473(16) 0.47214(17)
C7 C 0.4993(2) 0.35165(18) 0.41950(19)
C8 C 0.4839(2) 0.27359(17) 0.58645(19)
O7 O 0.43402(18) 0.19823(12) 0.42959(14)
H1 H 0.3930 0.1617 0.4559
H2 H 0.030(3) 0.3223(19) 0.294(2)
H3 H 0.113(3) 0.4676(19) 0.536(2)
H4 H 0.621(3) 0.3182(17) 0.685(2)
H5 H 0.614(3) 0.464(2) 0.451(2)
N5 N 0.2078(2) 0.04758(16) 0.52328(18)
N6 N 0.0228(2) 0.16807(17) 0.51893(18)
C9 C 0.1214(3) 0.05628(18) 0.4340(2)
C10 C 0.3090(3) -0.00868(18) 0.5369(2)
C11 C 0.0163(3) 0.1215(2) 0.4325(2)
C12 C -0.0677(3) 0.2294(2) 0.5236(3)
C13 C 0.3258(3) -0.0597(2) 0.4550(2)
H6 H 0.3949 -0.0991 0.4616
C14 C 0.3949(3) -0.0136(2) 0.6394(2)
H7 H 0.3649 0.0273 0.6849
H8 H 0.4801 0.0031 0.6343
H9 H 0.3953 -0.0744 0.6652
C15 C 0.2406(4) -0.0523(2) 0.3636(3)
H10 H 0.2523 -0.0868 0.3083
C16 C -0.1671(3) 0.2441(3) 0.4404(3)
H11 H -0.2301 0.2864 0.4448
C17 C -0.0801(3) 0.1333(2) 0.3467(3)
H12 H -0.0820 0.0997 0.2877
C18 C -0.1728(3) 0.1968(3) 0.3519(3)
H13 H -0.2388 0.2074 0.2958
C19 C 0.1385(4) 0.0051(2) 0.3529(2)
H14 H 0.0809 0.0094 0.2907
C20 C -0.0549(4) 0.2804(3) 0.6208(3)
H15 H 0.0198 0.2599 0.6683
H16 H -0.1292 0.2702 0.6488
H17 H -0.0470 0.3440 0.6081
H18 H 0.194(3) 0.0789(19) 0.579(2)
O8 O 0.1975(3) 0.09741(19) 0.72989(17)
H19 H 0.129(5) 0.108(3) 0.755(3)
H20 H 0.262(6) 0.089(4) 0.785(4)
loop_
_geom_bond_atom_site_label_1
_geom_bond_atom_site_label_2
_geom_bond_site_symmetry_1
_geom_bond_site_symmetry_2
O1 C3 1_555 1_555
O2 C2 1_555 1_555
O3 C5 1_555 1_555
N1 C2 1_555 1_555
N2 C2 1_555 1_555
O4 C8 1_555 1_555
C1 C3 1_555 1_555
N3 C4 1_555 1_555
N4 C4 1_555 1_555
O5 C4 1_555 1_555
C3 N1 1_555 1_555
O6 C7 1_555 1_555
C5 N2 1_555 1_555
C6 C1 1_555 1_555
C7 N4 1_555 1_555
C8 N3 1_555 1_555
O7 C6 1_555 1_555
H1 O7 1_555 1_555
H2 N2 1_555 1_555
H3 N1 1_555 1_555
H4 N3 1_555 1_555
H5 N4 1_555 1_555
N5 C9 1_555 1_555
N6 C11 1_555 1_555
C9 C11 1_555 1_555
C10 N5 1_555 1_555
C11 C17 1_555 1_555
C12 N6 1_555 1_555
C13 C10 1_555 1_555
H6 C13 1_555 1_555
C14 C10 1_555 1_555
H7 C14 1_555 1_555
H8 C14 1_555 1_555
H9 C14 1_555 1_555
C15 C13 1_555 1_555
H10 C15 1_555 1_555
C16 C12 1_555 1_555
H11 C16 1_555 1_555
C17 H12 1_555 1_555
C18 C16 1_555 1_555
H13 C18 1_555 1_555
C19 C9 1_555 1_555
H14 C19 1_555 1_555
C20 C12 1_555 1_555
H15 C20 1_555 1_555
H16 C20 1_555 1_555
H17 C20 1_555 1_555
H18 N5 1_555 1_555
O8 H19 1_555 1_555
H20 O8 1_555 1_555
C1 C5 1_555 1_555
C6 C7 1_555 1_555
C6 C8 1_555 1_555
C15 C19 1_555 1_555
C17 C18 1_555 1_555

#END
