
#######################################################################
#
#                 Cambridge Crystallographic Data Centre
#                                CCDC 
#
#######################################################################
#
# If this CIF has been generated from an entry in the Cambridge 
# Structural Database, then it will include bibliographic, chemical, 
# crystal, experimental, refinement or atomic coordinate data resulting 
# from the CCDC's data processing and validation procedures.
#
#######################################################################

data_OQUHIT
_chemical_formula_moiety         'C54 H36'
_chemical_name_systematic        
'2-phenyl-3-(2-(3-(2-(3-phenyl-2-naphthyl)phenyl)-2-naphthyl)phenyl)naphthalene unknown solvate'
_symmetry_cell_setting           monoclinic
_symmetry_space_group_name_H-M   'C 2/c'
_symmetry_Int_Tables_number      15
_space_group_name_Hall           '-C 2yn'
loop_
_symmetry_equiv_pos_site_id
_symmetry_equiv_pos_as_xyz
1 x,y,z
2 -x,y,1/2-z
3 1/2+x,1/2+y,z
4 1/2-x,1/2+y,1/2-z
5 -x,-y,-z
6 x,-y,1/2+z
7 1/2-x,1/2-y,-z
8 1/2+x,1/2-y,1/2+z
_cell_length_a                   16.2638(11)
_cell_length_b                   21.1086(15)
_cell_length_c                   14.1182(10)
_cell_angle_alpha                90
_cell_angle_beta                 115.136(2)
_cell_angle_gamma                90
_cell_volume                     4387.88
_exptl_crystal_colour            colorless
_exptl_crystal_description       block
_cell_formula_units_Z            4
loop_
_atom_site_label
_atom_site_type_symbol
_atom_site_fract_x
_atom_site_fract_y
_atom_site_fract_z
C1 C -0.21236(11) 0.10011(9) 0.44358(13)
C2 C -0.21377(13) 0.05443(11) 0.37280(17)
H1 H -0.2092(15) 0.0655(11) 0.3074(18)
C3 C -0.21982(14) -0.00832(12) 0.3930(2)
H2 H -0.2203(16) -0.0426(11) 0.339(2)
C4 C -0.22526(14) -0.02628(10) 0.4842(2)
H3 H -0.2300 -0.0689 0.4975
C5 C -0.22369(12) 0.01944(8) 0.55650(18)
H4 H -0.2222(14) 0.0077(10) 0.6271(17)
C6 C -0.21718(9) 0.08340(7) 0.53722(12)
C7 C -0.21898(10) 0.13248(7) 0.61194(11)
C8 C -0.28292(11) 0.12715(8) 0.65266(13)
H5 H -0.3208(11) 0.0896(8) 0.6315(12)
C9 C -0.29439(11) 0.17402(9) 0.71743(12)
C10 C -0.35665(14) 0.16693(12) 0.76375(17)
H6 H -0.3916(13) 0.1251(10) 0.7455(15)
C11 C -0.36458(17) 0.21352(15) 0.82628(18)
H7 H -0.4048(16) 0.2078(11) 0.8627(18)
C12 C -0.31302(17) 0.26908(15) 0.84510(18)
H8 H -0.3262(18) 0.2999(13) 0.890(2)
C13 C -0.25391(15) 0.27758(12) 0.80131(16)
H9 H -0.2188(16) 0.3165(11) 0.8123(18)
C14 C -0.24264(11) 0.22988(8) 0.73670(12)
C15 C -0.17649(11) 0.23505(8) 0.69629(12)
H10 H -0.1364(11) 0.2734(8) 0.7135(13)
C16 C -0.16189(10) 0.18751(7) 0.63837(11)
C17 C -0.08541(10) 0.19601(7) 0.60686(10)
C18 C -0.08783(12) 0.24916(8) 0.54654(13)
H11 H -0.1370(12) 0.2801(9) 0.5298(14)
C19 C -0.02160(12) 0.25953(8) 0.51142(13)
H12 H -0.0258(12) 0.2961(9) 0.4734(14)
C20 C 0.04881(11) 0.21675(8) 0.53555(11)
H13 H 0.0991(14) 0.2225(10) 0.5103(17)
C21 C 0.05303(10) 0.16450(7) 0.59616(11)
H14 H 0.1060(11) 0.1345(8) 0.6149(12)
C22 C -0.01193(9) 0.15348(6) 0.63443(10)
C23 C -0.00247(8) 0.09486(6) 0.69785(9)
C24 C 0.00063(9) 0.03769(7) 0.65271(10)
H15 H 0.0011(9) 0.0360(7) 0.5828(12)
C25 C 0.00221(9) -0.02114(6) 0.70102(10)
C26 C 0.00517(10) -0.08007(7) 0.65402(11)
H16 H 0.0071(11) -0.0814(8) 0.5868(13)
C27 C 0.00311(11) -0.13507(7) 0.70163(12)
H17 H 0.0058 -0.1733 0.6704
H18 H -0.2067(11) 0.1464(9) 0.4317(14)
C1A C 0.21236(11) 0.10011(9) 1.05642(13)
C2A C 0.21377(13) 0.05443(11) 1.12720(17)
H1A H 0.2092(15) 0.0655(11) 1.1926(18)
C3A C 0.21982(14) -0.00832(12) 1.1070(2)
H2A H 0.2203(16) -0.0426(11) 1.161(2)
C4A C 0.22526(14) -0.02628(10) 1.0158(2)
H3A H 0.2300 -0.0689 1.0025
C5A C 0.22369(12) 0.01944(8) 0.94350(18)
H4A H 0.2222(14) 0.0077(10) 0.8729(17)
C6A C 0.21718(9) 0.08340(7) 0.96278(12)
C7A C 0.21898(10) 0.13248(7) 0.88806(11)
C8A C 0.28292(11) 0.12715(8) 0.84734(13)
H5A H 0.3208(11) 0.0896(8) 0.8685(12)
C9A C 0.29439(11) 0.17402(9) 0.78257(12)
C10A C 0.35665(14) 0.16693(12) 0.73625(17)
H6A H 0.3916(13) 0.1251(10) 0.7545(15)
C11A C 0.36458(17) 0.21352(15) 0.67372(18)
H7A H 0.4048(16) 0.2078(11) 0.6373(18)
C12A C 0.31302(17) 0.26908(15) 0.65490(18)
H8A H 0.3262(18) 0.2999(13) 0.610(2)
C13A C 0.25391(15) 0.27758(12) 0.69869(16)
H9A H 0.2188(16) 0.3165(11) 0.6877(18)
C14A C 0.24264(11) 0.22988(8) 0.76330(12)
C15A C 0.17649(11) 0.23505(8) 0.80371(12)
H10A H 0.1364(11) 0.2734(8) 0.7865(13)
C16A C 0.16189(10) 0.18751(7) 0.86163(11)
C17A C 0.08541(10) 0.19601(7) 0.89314(10)
C18A C 0.08783(12) 0.24916(8) 0.95346(13)
H11A H 0.1370(12) 0.2801(9) 0.9702(14)
C19A C 0.02160(12) 0.25953(8) 0.98858(13)
H12A H 0.0258(12) 0.2961(9) 1.0266(14)
C20A C -0.04881(11) 0.21675(8) 0.96445(11)
H13A H -0.0991(14) 0.2225(10) 0.9897(17)
C21A C -0.05303(10) 0.16450(7) 0.90384(11)
H14A H -0.1060(11) 0.1345(8) 0.8851(12)
C22A C 0.01193(9) 0.15348(6) 0.86557(10)
C23A C 0.00247(8) 0.09486(6) 0.80215(9)
C24A C -0.00063(9) 0.03769(7) 0.84729(10)
H15A H -0.0011(9) 0.0360(7) 0.9172(12)
C25A C -0.00221(9) -0.02114(6) 0.79898(10)
C26A C -0.00517(10) -0.08007(7) 0.84598(11)
H16A H -0.0071(11) -0.0814(8) 0.9132(13)
C27A C -0.00311(11) -0.13507(7) 0.79837(12)
H17A H -0.0058 -0.1733 0.8296
H18A H 0.2067(11) 0.1464(9) 1.0683(14)
loop_
_geom_bond_atom_site_label_1
_geom_bond_atom_site_label_2
_geom_bond_site_symmetry_1
_geom_bond_site_symmetry_2
C1 C2 1_555 1_555
C2 H1 1_555 1_555
C3 C2 1_555 1_555
H2 C3 1_555 1_555
C4 C3 1_555 1_555
H3 C4 1_555 1_555
C5 C4 1_555 1_555
H4 C5 1_555 1_555
C6 C1 1_555 1_555
C7 C6 1_555 1_555
C8 C7 1_555 1_555
H5 C8 1_555 1_555
C9 C8 1_555 1_555
C10 C9 1_555 1_555
H6 C10 1_555 1_555
C11 C10 1_555 1_555
H7 C11 1_555 1_555
C12 C11 1_555 1_555
H8 C12 1_555 1_555
C13 C12 1_555 1_555
H9 C13 1_555 1_555
C14 C9 1_555 1_555
C15 C14 1_555 1_555
H10 C15 1_555 1_555
C16 C7 1_555 1_555
C17 C16 1_555 1_555
C18 C17 1_555 1_555
H11 C18 1_555 1_555
C19 C18 1_555 1_555
H12 C19 1_555 1_555
C20 C19 1_555 1_555
H13 C20 1_555 1_555
C21 C20 1_555 1_555
H14 C21 1_555 1_555
C22 C17 1_555 1_555
C23 C22 1_555 1_555
C24 C23 1_555 1_555
H15 C24 1_555 1_555
C25 C24 1_555 1_555
C26 C25 1_555 1_555
H16 C26 1_555 1_555
C27 C26 1_555 1_555
H17 C27 1_555 1_555
H18 C1 1_555 1_555
C1A C2A 1_555 1_555
C2A H1A 1_555 1_555
C3A C2A 1_555 1_555
H2A C3A 1_555 1_555
C4A C3A 1_555 1_555
H3A C4A 1_555 1_555
C5A C4A 1_555 1_555
H4A C5A 1_555 1_555
C6A C1A 1_555 1_555
C7A C6A 1_555 1_555
C8A C7A 1_555 1_555
H5A C8A 1_555 1_555
C9A C8A 1_555 1_555
C10A C9A 1_555 1_555
H6A C10A 1_555 1_555
C11A C10A 1_555 1_555
H7A C11A 1_555 1_555
C12A C11A 1_555 1_555
H8A C12A 1_555 1_555
C13A C12A 1_555 1_555
H9A C13A 1_555 1_555
C14A C9A 1_555 1_555
C15A C14A 1_555 1_555
H10A C15A 1_555 1_555
C16A C7A 1_555 1_555
C17A C16A 1_555 1_555
C18A C17A 1_555 1_555
H11A C18A 1_555 1_555
C19A C18A 1_555 1_555
H12A C19A 1_555 1_555
C20A C19A 1_555 1_555
H13A C20A 1_555 1_555
C21A C20A 1_555 1_555
H14A C21A 1_555 1_555
C22A C17A 1_555 1_555
C23A C23 1_555 1_555
C24A C23A 1_555 1_555
H15A C24A 1_555 1_555
C25A C25 1_555 1_555
C26A C25A 1_555 1_555
H16A C26A 1_555 1_555
C27A C27 1_555 1_555
H17A C27A 1_555 1_555
H18A C1A 1_555 1_555
C5 C6 1_555 1_555
C13 C14 1_555 1_555
C15 C16 1_555 1_555
C21 C22 1_555 1_555
C5A C6A 1_555 1_555
C13A C14A 1_555 1_555
C15A C16A 1_555 1_555
C21A C22A 1_555 1_555
C22A C23A 1_555 1_555
C24A C25A 1_555 1_555
C26A C27A 1_555 1_555

#END
