
#######################################################################
#
#                 Cambridge Crystallographic Data Centre
#                                CCDC 
#
#######################################################################
#
# If this CIF has been generated from an entry in the Cambridge 
# Structural Database, then it will include bibliographic, chemical, 
# crystal, experimental, refinement or atomic coordinate data resulting 
# from the CCDC's data processing and validation procedures.
#
#######################################################################

data_OQUHUF
_chemical_formula_moiety         'C38 H22 F4'
_chemical_name_systematic        
2-(2-(6,7-difluoro-3-phenyl-2-naphthyl)phenyl)-6,7-difluoro-3-phenylnaphthalene
_symmetry_cell_setting           orthorhombic
_symmetry_space_group_name_H-M   'P b c a'
_symmetry_Int_Tables_number      61
_space_group_name_Hall           '-P 2ac 2ab'
loop_
_symmetry_equiv_pos_site_id
_symmetry_equiv_pos_as_xyz
1 x,y,z
2 1/2-x,-y,1/2+z
3 -x,1/2+y,1/2-z
4 1/2+x,1/2-y,-z
5 -x,-y,-z
6 1/2+x,y,1/2-z
7 x,1/2-y,1/2+z
8 1/2-x,1/2+y,z
_cell_length_a                   15.7303(14)
_cell_length_b                   15.2924(17)
_cell_length_c                   23.248(3)
_cell_angle_alpha                90
_cell_angle_beta                 90
_cell_angle_gamma                90
_cell_volume                     5592.4
_exptl_crystal_colour            colorless
_exptl_crystal_description       plate
_cell_formula_units_Z            8
loop_
_atom_site_label
_atom_site_type_symbol
_atom_site_fract_x
_atom_site_fract_y
_atom_site_fract_z
F1 F 0.19367(10) 0.89203(11) 0.04598(9)
F2 F 0.21226(11) 0.74974(13) -0.01694(9)
F3 F 0.03467(17) 0.59710(17) 0.46942(10)
F4 F -0.12929(16) 0.63611(16) 0.46742(9)
C1 C -0.25513(17) 0.68825(17) 0.17963(13)
H1 H -0.2666 0.6663 0.1431
C2 C -0.3211(2) 0.7011(2) 0.21796(17)
H2 H -0.3764 0.6868 0.2074
C3 C -0.3052(3) 0.7349(2) 0.27175(18)
H3 H -0.3495 0.7425 0.2977
C4 C -0.2243(3) 0.7574(2) 0.28696(15)
H4 H -0.2141 0.7822 0.3228
C5 C -0.1574(2) 0.74367(17) 0.24939(14)
H5 H -0.1025 0.7584 0.2605
C6 C -0.17161(17) 0.70774(16) 0.19492(12)
C7 C -0.09984(15) 0.69538(15) 0.15419(11)
C8 C -0.04084(16) 0.76144(16) 0.14789(12)
H6 H -0.0450 0.8103 0.1715
C9 C 0.02547(15) 0.75806(16) 0.10725(12)
C10 C 0.08192(17) 0.82932(18) 0.09851(13)
H7 H 0.0775 0.8795 0.1209
C11 C 0.14156(18) 0.8235(2) 0.05768(15)
C12 C 0.15084(18) 0.7490(2) 0.02399(15)
C13 C 0.09895(18) 0.67916(19) 0.03069(14)
H8 H 0.1061 0.6295 0.0081
C14 C 0.03370(16) 0.68255(17) 0.07258(12)
C15 C -0.02573(17) 0.61462(16) 0.08023(12)
H9 H -0.0205 0.5646 0.0577
C16 C -0.09093(15) 0.61871(15) 0.11935(11)
C17 C -0.15245(15) 0.54441(16) 0.12118(12)
C18 C -0.19934(17) 0.52735(18) 0.07174(13)
H10 H -0.1904 0.5614 0.0392
C19 C -0.25850(18) 0.4615(2) 0.06981(15)
H11 H -0.2891 0.4510 0.0363
C20 C -0.27208(19) 0.4112(2) 0.11784(17)
H12 H -0.3124 0.3667 0.1170
C21 C -0.22637(17) 0.42635(18) 0.16722(15)
H13 H -0.2367 0.3924 0.1997
C22 C -0.16472(15) 0.49188(16) 0.16945(13)
C23 C -0.11299(16) 0.50270(16) 0.22271(13)
C24 C -0.15027(18) 0.53306(17) 0.27204(14)
H14 H -0.2086 0.5432 0.2719
C25 C -0.1046(2) 0.54968(18) 0.32282(14)
C26 C -0.1431(2) 0.5848(2) 0.37270(16)
H15 H -0.2010 0.5970 0.3733
C27 C -0.0945(3) 0.6004(2) 0.41945(17)
C28 C -0.0079(3) 0.5806(3) 0.42013(19)
C29 C 0.0313(3) 0.5486(2) 0.37372(17)
H16 H 0.0893 0.5370 0.3748
C30 C -0.0159(2) 0.53244(18) 0.32273(14)
C31 C 0.02141(19) 0.49816(18) 0.27255(15)
H17 H 0.0792 0.4854 0.2729
C32 C -0.02355(17) 0.48293(17) 0.22352(14)
C33 C 0.01966(18) 0.44338(18) 0.17324(13)
C34 C 0.09528(19) 0.4787(2) 0.15282(16)
H18 H 0.1177 0.5283 0.1703
C35 C 0.1374(2) 0.4414(2) 0.10703(18)
H19 H 0.1882 0.4656 0.0941
C36 C 0.1049(2) 0.3688(2) 0.08047(17)
H20 H 0.1334 0.3439 0.0495
C37 C 0.0303(2) 0.3328(2) 0.09952(16)
H21 H 0.0079 0.2838 0.0814
C38 C -0.01166(19) 0.36995(19) 0.14609(15)
H22 H -0.0619 0.3448 0.1592
loop_
_geom_bond_atom_site_label_1
_geom_bond_atom_site_label_2
_geom_bond_site_symmetry_1
_geom_bond_site_symmetry_2
F1 C11 1_555 1_555
F2 C12 1_555 1_555
F3 C28 1_555 1_555
F4 C27 1_555 1_555
C1 H1 1_555 1_555
C2 C1 1_555 1_555
H2 C2 1_555 1_555
C3 C2 1_555 1_555
H3 C3 1_555 1_555
C4 C3 1_555 1_555
H4 C4 1_555 1_555
C5 C4 1_555 1_555
H5 C5 1_555 1_555
C6 C1 1_555 1_555
C7 C6 1_555 1_555
C8 C7 1_555 1_555
H6 C8 1_555 1_555
C9 C8 1_555 1_555
C10 C9 1_555 1_555
H7 C10 1_555 1_555
C11 C10 1_555 1_555
C12 C11 1_555 1_555
C13 C12 1_555 1_555
H8 C13 1_555 1_555
C14 C9 1_555 1_555
C15 C14 1_555 1_555
H9 C15 1_555 1_555
C16 C7 1_555 1_555
C17 C16 1_555 1_555
C18 C17 1_555 1_555
H10 C18 1_555 1_555
C19 C18 1_555 1_555
H11 C19 1_555 1_555
C20 C19 1_555 1_555
H12 C20 1_555 1_555
C21 C20 1_555 1_555
H13 C21 1_555 1_555
C22 C17 1_555 1_555
C23 C22 1_555 1_555
C24 C23 1_555 1_555
H14 C24 1_555 1_555
C25 C24 1_555 1_555
C26 C25 1_555 1_555
H15 C26 1_555 1_555
C27 C26 1_555 1_555
C28 C27 1_555 1_555
C29 C28 1_555 1_555
H16 C29 1_555 1_555
C30 C25 1_555 1_555
C31 C30 1_555 1_555
H17 C31 1_555 1_555
C32 C23 1_555 1_555
C33 C32 1_555 1_555
C34 C33 1_555 1_555
H18 C34 1_555 1_555
C35 C34 1_555 1_555
H19 C35 1_555 1_555
C36 C35 1_555 1_555
H20 C36 1_555 1_555
C37 C36 1_555 1_555
H21 C37 1_555 1_555
C38 C33 1_555 1_555
H22 C38 1_555 1_555
C5 C6 1_555 1_555
C13 C14 1_555 1_555
C15 C16 1_555 1_555
C21 C22 1_555 1_555
C29 C30 1_555 1_555
C31 C32 1_555 1_555
C37 C38 1_555 1_555

#END
