
#######################################################################
#
#                 Cambridge Crystallographic Data Centre
#                                CCDC 
#
#######################################################################
#
# If this CIF has been generated from an entry in the Cambridge 
# Structural Database, then it will include bibliographic, chemical, 
# crystal, experimental, refinement or atomic coordinate data resulting 
# from the CCDC's data processing and validation procedures.
#
#######################################################################

data_OQUHOZ
_chemical_formula_moiety         'C22 H14 F2'
_chemical_name_systematic        2,3-difluoro-6,7-diphenylnaphthalene
_symmetry_cell_setting           monoclinic
_symmetry_space_group_name_H-M   'P 21/c'
_symmetry_Int_Tables_number      14
_space_group_name_Hall           '-P 2ybc'
loop_
_symmetry_equiv_pos_site_id
_symmetry_equiv_pos_as_xyz
1 x,y,z
2 -x,1/2+y,1/2-z
3 -x,-y,-z
4 x,1/2-y,1/2+z
_cell_length_a                   16.4358(10)
_cell_length_b                   19.7791(12)
_cell_length_c                   10.5249(6)
_cell_angle_alpha                90
_cell_angle_beta                 107.8353(6)
_cell_angle_gamma                90
_cell_volume                     3257.06
_exptl_crystal_colour            colorless
_exptl_crystal_description       block
_cell_formula_units_Z            8
loop_
_atom_site_label
_atom_site_type_symbol
_atom_site_fract_x
_atom_site_fract_y
_atom_site_fract_z
F1 F 0.10170(8) 1.06124(5) 0.37667(12)
F2 F 0.24465(7) 1.00491(5) 0.36044(12)
C1 C 0.10603(10) 0.63758(9) 0.29571(19)
H1 H 0.1108(11) 0.6664(9) 0.2224(19)
C2 C 0.12579(12) 0.56972(10) 0.2988(3)
H2 H 0.1458(14) 0.5492(11) 0.225(2)
C3 C 0.11824(14) 0.53011(12) 0.4007(3)
H3 H 0.1287(14) 0.4812(12) 0.402(2)
C4 C 0.09109(14) 0.55785(11) 0.5002(3)
H4 H 0.0828(13) 0.5331(11) 0.570(2)
C5 C 0.07156(11) 0.62637(9) 0.49937(18)
H5 H 0.0526(10) 0.6467(8) 0.5683(16)
C6 C 0.07904(8) 0.66707(7) 0.39595(14)
C7 C 0.06413(8) 0.74139(7) 0.39322(12)
C8 C 0.12822(9) 0.78251(7) 0.37866(14)
H6 H 0.1808(9) 0.7624(7) 0.3725(14)
C9 C 0.12298(8) 0.85362(7) 0.37809(13)
C10 C 0.19087(10) 0.89562(8) 0.36868(16)
H7 H 0.2418(11) 0.8755(8) 0.3596(17)
C11 C 0.18150(11) 0.96328(8) 0.36917(16)
C12 C 0.10622(11) 0.99295(8) 0.37724(16)
C13 C 0.04025(11) 0.95496(8) 0.38567(16)
H8 H -0.0097(11) 0.9753(8) 0.3909(16)
C14 C 0.04708(9) 0.88364(7) 0.38845(13)
C15 C -0.01836(9) 0.84106(8) 0.40274(14)
H9 H -0.0703(10) 0.8620(7) 0.4099(14)
C16 C -0.01169(8) 0.77180(7) 0.40726(12)
C17 C -0.08344(8) 0.73162(7) 0.42720(13)
C18 C -0.11936(11) 0.75144(10) 0.52482(18)
H10 H -0.0942(12) 0.7897(9) 0.5798(19)
C19 C -0.18723(13) 0.71655(11) 0.5445(2)
H11 H -0.2096(13) 0.7312(10) 0.613(2)
C20 C -0.22064(12) 0.66146(10) 0.4673(2)
H12 H -0.2672(13) 0.6372(9) 0.4797(19)
C21 C -0.18605(10) 0.64097(9) 0.36970(17)
H13 H -0.2083(11) 0.6025(9) 0.3153(17)
C22 C -0.11803(9) 0.67551(8) 0.34999(14)
H14 H -0.0926(10) 0.6605(7) 0.2835(16)
F3 F 0.76387(7) 0.54110(6) 0.84066(11)
F4 F 0.67089(7) 0.47149(5) 0.62966(11)
C23 C 0.57905(11) 0.89533(8) 0.64071(16)
H15 H 0.6355(11) 0.8836(8) 0.6467(16)
C24 C 0.56003(13) 0.96056(9) 0.66962(18)
H16 H 0.6053(12) 0.9948(9) 0.6927(18)
C25 C 0.47730(13) 0.97784(10) 0.65914(17)
H17 H 0.4623(11) 1.0239(9) 0.6741(18)
C26 C 0.41344(11) 0.93015(9) 0.61888(16)
H18 H 0.3577(11) 0.9407(8) 0.6124(16)
C27 C 0.43217(9) 0.86519(8) 0.58960(14)
H19 H 0.3879(10) 0.8309(7) 0.5634(15)
C28 C 0.51557(8) 0.84651(7) 0.60028(12)
C29 C 0.53688(8) 0.77539(7) 0.57657(13)
C30 C 0.60103(8) 0.74309(8) 0.67288(14)
H20 H 0.6314(9) 0.7682(7) 0.7534(15)
C31 C 0.62064(8) 0.67435(7) 0.66303(13)
C32 C 0.68645(10) 0.64037(9) 0.76255(16)
H21 H 0.7180(11) 0.6657(8) 0.8365(17)
C33 C 0.70108(10) 0.57427(9) 0.74756(16)
C34 C 0.65288(10) 0.53776(8) 0.63674(17)
C35 C 0.58993(10) 0.56773(8) 0.53944(16)
H22 H 0.5568(11) 0.5411(8) 0.4609(18)
C36 C 0.57201(8) 0.63725(7) 0.55002(13)
C37 C 0.50772(9) 0.67138(8) 0.45066(14)
H23 H 0.4762(10) 0.6453(7) 0.3708(15)
C38 C 0.48969(8) 0.73844(7) 0.46053(12)
C39 C 0.42398(8) 0.77094(7) 0.34697(13)
C40 C 0.34430(9) 0.74104(9) 0.29187(15)
H24 H 0.3311(10) 0.6993(8) 0.3301(16)
C41 C 0.28500(10) 0.76967(11) 0.18211(17)
H25 H 0.2296(13) 0.7467(9) 0.1468(19)
C42 C 0.30384(11) 0.82739(11) 0.12512(17)
H26 H 0.2631(12) 0.8477(9) 0.0496(19)
C43 C 0.38255(11) 0.85769(10) 0.17811(16)
H27 H 0.3972(11) 0.8977(9) 0.1379(18)
C44 C 0.44188(10) 0.82970(8) 0.28829(14)
H28 H 0.4969(10) 0.8509(7) 0.3251(15)
loop_
_geom_bond_atom_site_label_1
_geom_bond_atom_site_label_2
_geom_bond_site_symmetry_1
_geom_bond_site_symmetry_2
F1 C12 1_555 1_555
F2 C11 1_555 1_555
C1 H1 1_555 1_555
C2 C1 1_555 1_555
H2 C2 1_555 1_555
C3 C2 1_555 1_555
H3 C3 1_555 1_555
C4 C3 1_555 1_555
H4 C4 1_555 1_555
C5 C4 1_555 1_555
H5 C5 1_555 1_555
C6 C1 1_555 1_555
C7 C6 1_555 1_555
C8 C7 1_555 1_555
H6 C8 1_555 1_555
C9 C8 1_555 1_555
C10 C9 1_555 1_555
H7 C10 1_555 1_555
C11 C10 1_555 1_555
C12 C11 1_555 1_555
C13 C12 1_555 1_555
H8 C13 1_555 1_555
C14 C9 1_555 1_555
C15 C14 1_555 1_555
H9 C15 1_555 1_555
C16 C7 1_555 1_555
C17 C16 1_555 1_555
C18 C17 1_555 1_555
H10 C18 1_555 1_555
C19 C18 1_555 1_555
H11 C19 1_555 1_555
C20 C19 1_555 1_555
H12 C20 1_555 1_555
C21 C20 1_555 1_555
H13 C21 1_555 1_555
C22 C17 1_555 1_555
H14 C22 1_555 1_555
F3 C33 1_555 1_555
F4 C34 1_555 1_555
C23 H15 1_555 1_555
C24 C23 1_555 1_555
H16 C24 1_555 1_555
C25 C24 1_555 1_555
H17 C25 1_555 1_555
C26 C25 1_555 1_555
H18 C26 1_555 1_555
C27 C26 1_555 1_555
H19 C27 1_555 1_555
C28 C23 1_555 1_555
C29 C28 1_555 1_555
C30 C29 1_555 1_555
H20 C30 1_555 1_555
C31 C30 1_555 1_555
C32 C31 1_555 1_555
H21 C32 1_555 1_555
C33 C32 1_555 1_555
C34 C33 1_555 1_555
C35 C34 1_555 1_555
H22 C35 1_555 1_555
C36 C31 1_555 1_555
C37 C36 1_555 1_555
H23 C37 1_555 1_555
C38 C29 1_555 1_555
C39 C38 1_555 1_555
C40 C39 1_555 1_555
H24 C40 1_555 1_555
C41 C40 1_555 1_555
H25 C41 1_555 1_555
C42 C41 1_555 1_555
H26 C42 1_555 1_555
C43 C42 1_555 1_555
H27 C43 1_555 1_555
C44 C39 1_555 1_555
H28 C44 1_555 1_555
C5 C6 1_555 1_555
C13 C14 1_555 1_555
C15 C16 1_555 1_555
C21 C22 1_555 1_555
C27 C28 1_555 1_555
C35 C36 1_555 1_555
C37 C38 1_555 1_555
C43 C44 1_555 1_555

#END
