
#######################################################################
#
#                 Cambridge Crystallographic Data Centre
#                                CCDC 
#
#######################################################################
#
# If this CIF has been generated from an entry in the Cambridge 
# Structural Database, then it will include bibliographic, chemical, 
# crystal, experimental, refinement or atomic coordinate data resulting 
# from the CCDC's data processing and validation procedures.
#
#######################################################################

data_OQUPUM
_chemical_name_common            
N,N'-bis(4-nitrobenzylidene)benzene-1,4-diamine
_chemical_formula_moiety         'C20 H14 N4 O4'
_chemical_name_systematic        
(E,E)-N,N'-bis(4-nitrobenzylidene)benzene-1,4-diamine
_symmetry_cell_setting           triclinic
_symmetry_space_group_name_H-M   'P -1'
_symmetry_Int_Tables_number      2
_space_group_name_Hall           '-P 1'
loop_
_symmetry_equiv_pos_site_id
_symmetry_equiv_pos_as_xyz
1 x,y,z
2 -x,-y,-z
_cell_length_a                   6.9357(7)
_cell_length_b                   7.3036(7)
_cell_length_c                   8.8768(8)
_cell_angle_alpha                73.2950(10)
_cell_angle_beta                 82.7070(10)
_cell_angle_gamma                88.0710(10)
_cell_volume                     427.197
_exptl_crystal_colour            orange
_exptl_crystal_description       plate
_cell_formula_units_Z            1
loop_
_atom_site_label
_atom_site_type_symbol
_atom_site_fract_x
_atom_site_fract_y
_atom_site_fract_z
C1 C 0.1930(2) 0.5579(2) 0.66288(18)
C2 C 0.1905(2) 0.6598(2) 0.50347(18)
H1 H 0.1518 0.7871 0.4763
C3 C 0.2451(2) 0.5719(2) 0.38690(18)
H2 H 0.2448 0.6388 0.2806
C4 C 0.3006(2) 0.3814(2) 0.43101(18)
C5 C 0.3016(2) 0.2756(2) 0.58687(19)
H3 H 0.3369 0.1473 0.6132
C6 C 0.2484(2) 0.3660(2) 0.70286(19)
H4 H 0.2495 0.2981 0.8089
C7 C 0.1418(2) 0.6508(2) 0.78899(18)
H5 H 0.1684 0.5885 0.8913
C8 C 0.0322(2) 0.9033(2) 0.88437(17)
C9 C -0.1413(2) 1.0007(2) 0.90212(18)
H6 H -0.2356 1.0023 0.8360
C10 C 0.1744(2) 0.9046(2) 0.98217(18)
H7 H 0.2916 0.8418 0.9697
N1 N 0.36618(18) 0.29163(19) 0.30492(16)
N2 N 0.06211(18) 0.81443(18) 0.76120(15)
O1 O 0.41396(17) 0.12242(16) 0.34468(15)
O2 O 0.37407(18) 0.38908(17) 0.16651(13)
C1A C -0.1930(2) 1.4421(2) 1.33712(18)
C2A C -0.1905(2) 1.3402(2) 1.49653(18)
H1A H -0.1518 1.2129 1.5237
C3A C -0.2451(2) 1.4281(2) 1.61310(18)
H2A H -0.2448 1.3612 1.7194
C4A C -0.3006(2) 1.6186(2) 1.56899(18)
C5A C -0.3016(2) 1.7244(2) 1.41313(19)
H3A H -0.3369 1.8527 1.3868
C6A C -0.2484(2) 1.6340(2) 1.29714(19)
H4A H -0.2495 1.7019 1.1911
C7A C -0.1418(2) 1.3492(2) 1.21101(18)
H5A H -0.1684 1.4115 1.1087
C8A C -0.0322(2) 1.0967(2) 1.11563(17)
C9A C 0.1413(2) 0.9993(2) 1.09788(18)
H6A H 0.2356 0.9977 1.1640
C10A C -0.1744(2) 1.0954(2) 1.01783(18)
H7A H -0.2916 1.1582 1.0303
N1A N -0.36618(18) 1.70837(19) 1.69508(16)
N2A N -0.06211(18) 1.18557(18) 1.23880(15)
O1A O -0.41396(17) 1.87758(16) 1.65532(15)
O2A O -0.37407(18) 1.61092(17) 1.83349(13)
loop_
_geom_bond_atom_site_label_1
_geom_bond_atom_site_label_2
_geom_bond_site_symmetry_1
_geom_bond_site_symmetry_2
C1 C2 1_555 1_555
C2 H1 1_555 1_555
C3 C2 1_555 1_555
H2 C3 1_555 1_555
C4 C3 1_555 1_555
C5 C4 1_555 1_555
H3 C5 1_555 1_555
C6 C1 1_555 1_555
H4 C6 1_555 1_555
C7 C1 1_555 1_555
H5 C7 1_555 1_555
C8 C9 1_555 1_555
C9 H6 1_555 1_555
C10 C8 1_555 1_555
H7 C10 1_555 1_555
N1 C4 1_555 1_555
N2 C7 1_555 1_555
O1 N1 1_555 1_555
O2 N1 1_555 1_555
C1A C2A 1_555 1_555
C2A H1A 1_555 1_555
C3A C2A 1_555 1_555
H2A C3A 1_555 1_555
C4A C3A 1_555 1_555
C5A C4A 1_555 1_555
H3A C5A 1_555 1_555
C6A C1A 1_555 1_555
H4A C6A 1_555 1_555
C7A C1A 1_555 1_555
H5A C7A 1_555 1_555
C8A C9A 1_555 1_555
C9A C10 1_555 1_555
H6A C9A 1_555 1_555
C10A C9 1_555 1_555
H7A C10A 1_555 1_555
N1A C4A 1_555 1_555
N2A C7A 1_555 1_555
O1A N1A 1_555 1_555
O2A N1A 1_555 1_555
C5 C6 1_555 1_555
C8 N2 1_555 1_555
C5A C6A 1_555 1_555
C8A C10A 1_555 1_555
C8A N2A 1_555 1_555

#END
