
#######################################################################
#
#                 Cambridge Crystallographic Data Centre
#                                CCDC 
#
#######################################################################
#
# If this CIF has been generated from an entry in the Cambridge 
# Structural Database, then it will include bibliographic, chemical, 
# crystal, experimental, refinement or atomic coordinate data resulting 
# from the CCDC's data processing and validation procedures.
#
#######################################################################

data_OQUPUM01
_chemical_name_common            
N,N'-bis(4-nitrobenzylidene)benzene-1,4-diamine
_chemical_formula_moiety         'C20 H14 N4 O4'
_chemical_name_systematic        
(E,E)-N,N'-bis(4-nitrobenzylidene)benzene-1,4-diamine
_symmetry_cell_setting           monoclinic
_symmetry_space_group_name_H-M   'P 21/c'
_symmetry_Int_Tables_number      14
_space_group_name_Hall           '-P 2ybc'
loop_
_symmetry_equiv_pos_site_id
_symmetry_equiv_pos_as_xyz
1 x,y,z
2 -x,1/2+y,1/2-z
3 -x,-y,-z
4 x,1/2-y,1/2+z
_cell_length_a                   6.5670(10)
_cell_length_b                   5.0227(7)
_cell_length_c                   26.723(5)
_cell_angle_alpha                90
_cell_angle_beta                 102.558(4)
_cell_angle_gamma                90
_cell_volume                     860.346
_exptl_crystal_colour            orange
_exptl_crystal_description       plate
_cell_formula_units_Z            2
loop_
_atom_site_label
_atom_site_type_symbol
_atom_site_fract_x
_atom_site_fract_y
_atom_site_fract_z
C1 C 0.0372(2) 1.1170(3) 0.37643(6)
C2 C -0.1386(2) 1.1873(4) 0.39398(7)
H1 H -0.1645 1.1065 0.4233
C3 C -0.2753(3) 1.3746(4) 0.36876(6)
H2 H -0.3942 1.4200 0.3805
C4 C -0.2331(2) 1.4942(3) 0.32576(6)
C5 C -0.0603(3) 1.4307(4) 0.30734(6)
H3 H -0.0343 1.5142 0.2783
C6 C 0.0740(3) 1.2408(4) 0.33280(6)
H4 H 0.1915 1.1944 0.3206
C7 C 0.1888(3) 0.9248(3) 0.40361(6)
H5 H 0.3038 0.8836 0.3900
C8 C 0.3384(2) 0.6540(3) 0.47115(6)
C9 C 0.2953(2) 0.4366(3) 0.49885(6)
H6 H 0.1574 0.3930 0.4985
C10 C 0.5467(2) 0.7157(3) 0.47324(6)
H7 H 0.5794 0.8628 0.4554
N1 N -0.3757(2) 1.7008(3) 0.29970(5)
N2 N 0.17115(19) 0.8119(3) 0.44468(5)
O1 O -0.3319(2) 1.8127(3) 0.26298(5)
O2 O -0.5305(2) 1.7529(3) 0.31623(5)
C1B C 0.9628(2) -0.1170(3) 0.62357(6)
C2B C 1.1386(2) -0.1873(4) 0.60602(7)
H1B H 1.1645 -0.1065 0.5767
C3B C 1.2753(3) -0.3746(4) 0.63124(6)
H2B H 1.3942 -0.4200 0.6195
C4B C 1.2331(2) -0.4942(3) 0.67424(6)
C5B C 1.0603(3) -0.4307(4) 0.69266(6)
H3B H 1.0343 -0.5142 0.7217
C6B C 0.9260(3) -0.2408(4) 0.66720(6)
H4B H 0.8085 -0.1944 0.6794
C7B C 0.8112(3) 0.0752(3) 0.59639(6)
H5B H 0.6962 0.1164 0.6100
C8B C 0.6616(2) 0.3460(3) 0.52885(6)
C9B C 0.7047(2) 0.5634(3) 0.50115(6)
H6B H 0.8426 0.6070 0.5015
C10B C 0.4533(2) 0.2843(3) 0.52676(6)
H7B H 0.4206 0.1372 0.5446
N1B N 1.3757(2) -0.7008(3) 0.70030(5)
N2B N 0.82885(19) 0.1881(3) 0.55532(5)
O1B O 1.3319(2) -0.8127(3) 0.73702(5)
O2B O 1.5305(2) -0.7529(3) 0.68377(5)
loop_
_geom_bond_atom_site_label_1
_geom_bond_atom_site_label_2
_geom_bond_site_symmetry_1
_geom_bond_site_symmetry_2
C1 C2 1_555 1_555
C2 H1 1_555 1_555
C3 C2 1_555 1_555
H2 C3 1_555 1_555
C4 C3 1_555 1_555
C5 C4 1_555 1_555
H3 C5 1_555 1_555
C6 C1 1_555 1_555
H4 C6 1_555 1_555
C7 C1 1_555 1_555
H5 C7 1_555 1_555
C8 C9 1_555 1_555
C9 H6 1_555 1_555
C10 C8 1_555 1_555
H7 C10 1_555 1_555
N1 C4 1_555 1_555
N2 C7 1_555 1_555
O1 N1 1_555 1_555
O2 N1 1_555 1_555
C1B C2B 1_555 1_555
C2B H1B 1_555 1_555
C3B C2B 1_555 1_555
H2B C3B 1_555 1_555
C4B C3B 1_555 1_555
C5B C4B 1_555 1_555
H3B C5B 1_555 1_555
C6B C1B 1_555 1_555
H4B C6B 1_555 1_555
C7B C1B 1_555 1_555
H5B C7B 1_555 1_555
C8B C9B 1_555 1_555
C9B C10 1_555 1_555
H6B C9B 1_555 1_555
C10B C9 1_555 1_555
H7B C10B 1_555 1_555
N1B C4B 1_555 1_555
N2B C7B 1_555 1_555
O1B N1B 1_555 1_555
O2B N1B 1_555 1_555
C5 C6 1_555 1_555
C8 N2 1_555 1_555
C5B C6B 1_555 1_555
C8B C10B 1_555 1_555
C8B N2B 1_555 1_555

#END
