
#######################################################################
#
#                 Cambridge Crystallographic Data Centre
#                                CCDC 
#
#######################################################################
#
# If this CIF has been generated from an entry in the Cambridge 
# Structural Database, then it will include bibliographic, chemical, 
# crystal, experimental, refinement or atomic coordinate data resulting 
# from the CCDC's data processing and validation procedures.
#
#######################################################################

data_OQUYIK
_chemical_formula_moiety         'C16 H19 N3 O2 2+,2(Cl1 O4 1-),0.25(H2 O1)'
_chemical_name_systematic        
'1-(3-ammoniopropyl)-4-[(E)-2-(4-nitrophenyl)vinyl]pyridinium diperchlorate hydrate'
_symmetry_cell_setting           orthorhombic
_symmetry_space_group_name_H-M   'P b c n'
_symmetry_Int_Tables_number      60
_space_group_name_Hall           '-P 2n 2ab'
loop_
_symmetry_equiv_pos_site_id
_symmetry_equiv_pos_as_xyz
1 x,y,z
2 1/2-x,1/2-y,1/2+z
3 -x,y,1/2-z
4 1/2+x,1/2-y,-z
5 -x,-y,-z
6 1/2+x,1/2+y,1/2-z
7 x,-y,1/2+z
8 1/2-x,1/2+y,z
_cell_length_a                   16.3977(5)
_cell_length_b                   8.3891(3)
_cell_length_c                   29.1772(9)
_cell_angle_alpha                90
_cell_angle_beta                 90
_cell_angle_gamma                90
_cell_volume                     4013.67
_exptl_crystal_colour            yellowish
_exptl_crystal_description       plate
_cell_formula_units_Z            8
loop_
_atom_site_label
_atom_site_type_symbol
_atom_site_fract_x
_atom_site_fract_y
_atom_site_fract_z
Cl1 Cl 0.65143(8) 0.24415(15) 0.48763(4)
O1 O 0.6355(3) 0.1708(5) 0.53040(12)
O2 O 0.7046(3) 0.3799(5) 0.49397(13)
O3 O 0.6895(3) 0.1357(5) 0.45656(15)
O4 O 0.5772(3) 0.3007(6) 0.46727(17)
Cl2 Cl 0.51438(9) -0.48991(19) 0.15537(5)
O8 O 0.4511(2) -0.5732(5) 0.13138(13)
O9 O 0.5575(12) -0.5829(17) 0.1837(7)
O10 O 0.5745(6) -0.426(2) 0.1202(4)
O11 O 0.4871(11) -0.347(2) 0.1790(7)
O15 O 0.1076(3) -0.5546(5) 0.12504(13)
O16 O 0.2354(2) -0.6095(4) 0.11590(11)
N1 N 0.3620(3) 0.3765(5) 0.56720(13)
H1 H 0.3797 0.4379 0.5909
H2 H 0.3293 0.2975 0.5781
H3 H 0.3335 0.4377 0.5471
N2 N 0.3685(3) 0.1821(5) 0.42210(13)
N3 N 0.1793(3) -0.5402(5) 0.13600(14)
C1 C 0.4337(3) 0.3047(6) 0.54336(17)
H4 H 0.4656 0.2412 0.5656
H5 H 0.4692 0.3911 0.5318
C2 C 0.4087(3) 0.1986(6) 0.50370(16)
H6 H 0.4544 0.1259 0.4963
H7 H 0.3617 0.1324 0.5132
C3 C 0.3857(3) 0.2913(6) 0.46109(17)
H8 H 0.3368 0.3568 0.4675
H9 H 0.4308 0.3640 0.4527
C4 C 0.4314(3) 0.1110(6) 0.40057(17)
H10 H 0.4857 0.1327 0.4101
C5 C 0.4177(3) 0.0074(6) 0.36508(17)
H11 H 0.4626 -0.0432 0.3505
C6 C 0.3389(3) -0.0245(6) 0.35009(16)
C7 C 0.2752(3) 0.0512(6) 0.37352(16)
H12 H 0.2203 0.0325 0.3646
C8 C 0.2916(3) 0.1519(6) 0.40923(16)
H13 H 0.2477 0.2011 0.4252
C9 C 0.3249(3) -0.1288(6) 0.31042(16)
H14 H 0.3712 -0.1785 0.2970
C10 C 0.2530(3) -0.1593(6) 0.29179(16)
H15 H 0.2070 -0.1122 0.3062
C11 C 0.2366(3) -0.2577(6) 0.25134(15)
C12 C 0.1559(3) -0.2734(6) 0.23660(17)
H16 H 0.1135 -0.2219 0.2531
C13 C 0.1370(3) -0.3622(6) 0.19860(17)
H17 H 0.0823 -0.3708 0.1882
C14 C 0.1998(3) -0.4390(6) 0.17569(16)
C15 C 0.2798(3) -0.4260(6) 0.18882(16)
H18 H 0.3215 -0.4787 0.1721
C16 C 0.2988(3) -0.3350(6) 0.22677(16)
H19 H 0.3539 -0.3247 0.2363
O17 O 0.5000 -0.188(2) 0.2500
O5? O 0.611(3) 0.386(5) 0.4933(15)
O6? O 0.731(4) 0.233(8) 0.4867(17)
O7? O 0.614(3) 0.148(6) 0.4530(14)
O12? O 0.4849(13) -0.338(2) 0.1574(7)
O13? O 0.5104(14) -0.5616(17) 0.2017(4)
O14? O 0.5862(8) -0.520(3) 0.1376(7)
loop_
_geom_bond_atom_site_label_1
_geom_bond_atom_site_label_2
_geom_bond_site_symmetry_1
_geom_bond_site_symmetry_2
Cl1 O1 1_555 1_555
O2 Cl1 1_555 1_555
O3 Cl1 1_555 1_555
O4 Cl1 1_555 1_555
Cl2 O8 1_555 1_555
O9 Cl2 1_555 1_555
O10 Cl2 1_555 1_555
O11 Cl2 1_555 1_555
O15 N3 1_555 1_555
O16 N3 1_555 1_555
N1 H1 1_555 1_555
H2 N1 1_555 1_555
H3 N1 1_555 1_555
N2 C3 1_555 1_555
N3 C14 1_555 1_555
C1 N1 1_555 1_555
H4 C1 1_555 1_555
H5 C1 1_555 1_555
C2 C1 1_555 1_555
H6 C2 1_555 1_555
H7 C2 1_555 1_555
C3 C2 1_555 1_555
H8 C3 1_555 1_555
H9 C3 1_555 1_555
C4 N2 1_555 1_555
H10 C4 1_555 1_555
C5 C4 1_555 1_555
H11 C5 1_555 1_555
C6 C5 1_555 1_555
C7 C6 1_555 1_555
H12 C7 1_555 1_555
C8 N2 1_555 1_555
H13 C8 1_555 1_555
C9 C6 1_555 1_555
H14 C9 1_555 1_555
C10 C9 1_555 1_555
H15 C10 1_555 1_555
C11 C10 1_555 1_555
C12 C11 1_555 1_555
H16 C12 1_555 1_555
C13 C12 1_555 1_555
H17 C13 1_555 1_555
C14 C13 1_555 1_555
C15 C14 1_555 1_555
H18 C15 1_555 1_555
C16 C11 1_555 1_555
H19 C16 1_555 1_555
C7 C8 1_555 1_555
C15 C16 1_555 1_555

#END
