
#######################################################################
#
#                 Cambridge Crystallographic Data Centre
#                                CCDC 
#
#######################################################################
#
# If this CIF has been generated from an entry in the Cambridge 
# Structural Database, then it will include bibliographic, chemical, 
# crystal, experimental, refinement or atomic coordinate data resulting 
# from the CCDC's data processing and validation procedures.
#
#######################################################################

data_OQUYUW
_chemical_formula_moiety         
'C27 H34 N1 O6 S1 1+,C4 H8 O2,Cl1 O4 1-,3(H2 O1)'
_chemical_name_systematic        
'2-[(E)-2-(2,3,5,6,8,9,11,12,14,15-decahydro-1,4,7,10,13,16-benzohexaoxacyclooctadecin-18-yl)vinyl]-3-ethyl-1,3-benzothiazol-3-ium perchlorate 1,4-dioxane solvate trihydrate'
_symmetry_cell_setting           triclinic
_symmetry_space_group_name_H-M   'P -1'
_symmetry_Int_Tables_number      2
_space_group_name_Hall           '-P 1'
loop_
_symmetry_equiv_pos_site_id
_symmetry_equiv_pos_as_xyz
1 x,y,z
2 -x,-y,-z
_cell_length_a                   7.9257(5)
_cell_length_b                   11.4270(7)
_cell_length_c                   19.6257(10)
_cell_angle_alpha                100.100(2)
_cell_angle_beta                 100.108(2)
_cell_angle_gamma                93.581(2)
_cell_volume                     1714.75
_exptl_crystal_colour            red
_exptl_crystal_description       block
_cell_formula_units_Z            2
loop_
_atom_site_label
_atom_site_type_symbol
_atom_site_fract_x
_atom_site_fract_y
_atom_site_fract_z
Cl1 Cl 0.56052(10) 0.80044(7) 0.37718(4)
O1 O 0.4695(3) 0.9006(2) 0.40010(11)
O2 O 0.4949(3) 0.6971(2) 0.40021(11)
O3 O 0.5374(3) 0.7782(2) 0.30155(10)
O4 O 0.7402(3) 0.8276(2) 0.40728(12)
S1 S 0.16266(10) 0.57039(7) 0.62982(4)
O5 O 0.3479(3) 0.13440(18) 0.24641(10)
O6 O 0.2571(3) -0.03283(19) 0.11274(10)
O7 O 0.2617(3) 0.0805(2) -0.00265(10)
O8 O 0.1739(3) 0.3199(2) -0.00463(10)
O9 O 0.3409(3) 0.46950(19) 0.13289(10)
O10 O 0.3988(3) 0.36053(18) 0.25269(10)
N1 N 0.2558(3) 0.7515(2) 0.58147(11)
C1 C 0.1591(4) 0.7101(3) 0.68016(15)
C2 C 0.1070(4) 0.7383(3) 0.74493(15)
C3 C 0.1116(4) 0.8580(3) 0.77417(15)
C4 C 0.1656(4) 0.9466(3) 0.74069(15)
C5 C 0.2175(4) 0.9195(3) 0.67667(16)
C6 C 0.2119(4) 0.7997(3) 0.64675(14)
C7 C 0.2362(4) 0.6331(3) 0.56539(14)
C8 C 0.2676(4) 0.5620(3) 0.50146(15)
C9 C 0.2539(4) 0.4427(3) 0.48961(15)
C10 C 0.2799(4) 0.3624(3) 0.42670(14)
C11 C 0.2517(4) 0.2397(3) 0.42227(15)
C12 C 0.2724(4) 0.1606(3) 0.36294(15)
C13 C 0.3223(4) 0.2033(3) 0.30673(14)
C14 C 0.3510(4) 0.3277(3) 0.31060(14)
C15 C 0.3294(4) 0.4062(3) 0.36964(15)
C16 C 0.3144(5) 0.0066(3) 0.23890(15)
C17 C 0.3699(4) -0.0515(3) 0.17361(16)
C18 C 0.3128(5) -0.0878(3) 0.05019(16)
C19 C 0.2181(4) -0.0447(3) -0.01224(16)
C20 C 0.2090(5) 0.1278(3) -0.06504(16)
C21 C 0.2721(5) 0.2569(3) -0.05008(17)
C22 C 0.2181(5) 0.4459(3) 0.01110(17)
C23 C 0.3778(4) 0.4869(3) 0.06677(16)
C24 C 0.4869(4) 0.5039(3) 0.18831(15)
C25 C 0.4346(4) 0.4866(3) 0.25604(16)
C26 C 0.3092(4) 0.8306(3) 0.53500(15)
C27 C 0.1537(5) 0.8739(4) 0.49339(19)
H1 H 0.072(4) 0.671(3) 0.7654(14)
H2 H 0.077(4) 0.876(3) 0.8190(16)
H3 H 0.167(4) 1.035(3) 0.7618(15)
H4 H 0.251(4) 0.979(3) 0.6551(15)
H5 H 0.299(4) 0.611(3) 0.4684(16)
H6 H 0.231(4) 0.404(3) 0.5218(14)
H7 H 0.220(4) 0.207(3) 0.4620(16)
H8 H 0.252(4) 0.078(3) 0.3602(14)
H9 H 0.351(3) 0.489(3) 0.3718(13)
H10 H 0.192(4) -0.015(3) 0.2368(15)
H11 H 0.381(4) -0.016(3) 0.2785(14)
H12 H 0.485(4) -0.021(3) 0.1719(14)
H13 H 0.368(4) -0.139(3) 0.1751(16)
H14 H 0.288(4) -0.173(3) 0.0419(17)
H15 H 0.440(4) -0.070(3) 0.0546(15)
H16 H 0.255(3) -0.089(3) -0.0558(14)
H17 H 0.094(4) -0.063(3) -0.0159(15)
H18 H 0.078(4) 0.116(2) -0.0814(13)
H19 H 0.248(4) 0.085(3) -0.1057(17)
H20 H 0.400(4) 0.267(3) -0.0268(14)
H21 H 0.264(4) 0.282(3) -0.0953(17)
H22 H 0.118(4) 0.475(3) 0.0270(15)
H23 H 0.237(4) 0.478(3) -0.0323(18)
H24 H 0.480(4) 0.443(3) 0.0585(13)
H25 H 0.409(4) 0.572(3) 0.0678(16)
H26 H 0.530(4) 0.593(3) 0.1928(14)
H27 H 0.586(4) 0.451(3) 0.1790(14)
H28 H 0.528(5) 0.521(3) 0.2968(17)
H29 H 0.333(4) 0.531(3) 0.2612(15)
H30 H 0.382(4) 0.790(3) 0.5052(16)
H31 H 0.380(4) 0.900(3) 0.5651(14)
H32 H 0.191(4) 0.920(3) 0.4592(17)
H33 H 0.085(4) 0.919(3) 0.5200(17)
H34 H 0.087(4) 0.808(3) 0.4636(16)
O11 O -0.0102(3) 0.43467(19) 0.73297(11)
O12 O -0.0129(3) 0.2143(2) 0.78106(11)
C28 C 0.0109(5) 0.4292(3) 0.80641(17)
C29 C -0.0774(5) 0.3166(3) 0.81703(18)
C30 C -0.0388(5) 0.2190(3) 0.70745(17)
C31 C 0.0514(5) 0.3314(3) 0.69634(19)
H35 H -0.035(5) 0.497(4) 0.832(2)
H36 H 0.138(5) 0.435(3) 0.8278(16)
H37 H -0.061(4) 0.308(3) 0.8690(17)
H38 H -0.200(4) 0.313(3) 0.7980(15)
H39 H -0.169(4) 0.213(3) 0.6880(15)
H40 H 0.005(4) 0.139(3) 0.6833(17)
H41 H 0.183(4) 0.339(3) 0.7160(16)
H42 H 0.031(4) 0.345(3) 0.6455(17)
O13 O 0.0798(3) 0.2619(2) 0.11866(14)
H43 H 0.108(6) 0.253(4) 0.075(2)
H44 H 0.171(8) 0.296(6) 0.151(3)
O14 O 0.5016(3) 0.1981(2) 0.12155(15)
H45 H 0.415(5) 0.161(3) 0.0871(19)
H46 H 0.460(7) 0.213(5) 0.153(3)
O15 O 0.7448(4) 0.3390(2) 0.08014(13)
H47 H 0.849(5) 0.320(3) 0.0904(19)
H48 H 0.674(6) 0.282(4) 0.099(2)
loop_
_geom_bond_atom_site_label_1
_geom_bond_atom_site_label_2
_geom_bond_site_symmetry_1
_geom_bond_site_symmetry_2
Cl1 O1 1_555 1_555
O2 Cl1 1_555 1_555
O3 Cl1 1_555 1_555
O4 Cl1 1_555 1_555
S1 C1 1_555 1_555
O5 C13 1_555 1_555
O6 C17 1_555 1_555
O7 C19 1_555 1_555
O8 C21 1_555 1_555
O9 C23 1_555 1_555
O10 C14 1_555 1_555
N1 C6 1_555 1_555
C1 C2 1_555 1_555
C2 C3 1_555 1_555
C3 C4 1_555 1_555
C4 C5 1_555 1_555
C5 C6 1_555 1_555
C6 C1 1_555 1_555
C7 S1 1_555 1_555
C8 C7 1_555 1_555
C9 C8 1_555 1_555
C10 C9 1_555 1_555
C11 C10 1_555 1_555
C12 C11 1_555 1_555
C13 C12 1_555 1_555
C14 C13 1_555 1_555
C15 C10 1_555 1_555
C16 O5 1_555 1_555
C17 C16 1_555 1_555
C18 O6 1_555 1_555
C19 C18 1_555 1_555
C20 O7 1_555 1_555
C21 C20 1_555 1_555
C22 O8 1_555 1_555
C23 C22 1_555 1_555
C24 O9 1_555 1_555
C25 O10 1_555 1_555
C26 N1 1_555 1_555
C27 C26 1_555 1_555
H1 C2 1_555 1_555
H2 C3 1_555 1_555
H3 C4 1_555 1_555
H4 C5 1_555 1_555
H5 C8 1_555 1_555
H6 C9 1_555 1_555
H7 C11 1_555 1_555
H8 C12 1_555 1_555
H9 C15 1_555 1_555
H10 C16 1_555 1_555
H11 C16 1_555 1_555
H12 C17 1_555 1_555
H13 C17 1_555 1_555
H14 C18 1_555 1_555
H15 C18 1_555 1_555
H16 C19 1_555 1_555
H17 C19 1_555 1_555
H18 C20 1_555 1_555
H19 C20 1_555 1_555
H20 C21 1_555 1_555
H21 C21 1_555 1_555
H22 C22 1_555 1_555
H23 C22 1_555 1_555
H24 C23 1_555 1_555
H25 C23 1_555 1_555
H26 C24 1_555 1_555
H27 C24 1_555 1_555
H28 C25 1_555 1_555
H29 C25 1_555 1_555
H30 C26 1_555 1_555
H31 C26 1_555 1_555
H32 C27 1_555 1_555
H33 C27 1_555 1_555
H34 C27 1_555 1_555
O11 C28 1_555 1_555
O12 C29 1_555 1_555
C28 C29 1_555 1_555
C29 H37 1_555 1_555
C30 O12 1_555 1_555
C31 O11 1_555 1_555
H35 C28 1_555 1_555
H36 C28 1_555 1_555
H38 C29 1_555 1_555
H39 C30 1_555 1_555
H40 C30 1_555 1_555
H41 C31 1_555 1_555
H42 C31 1_555 1_555
O13 H43 1_555 1_555
H44 O13 1_555 1_555
O14 H45 1_555 1_555
H46 O14 1_555 1_555
O15 H47 1_555 1_555
H48 O15 1_555 1_555
N1 C7 1_555 1_555
C14 C15 1_555 1_555
C24 C25 1_555 1_555
C30 C31 1_555 1_555

#END
