
#######################################################################
#
#                 Cambridge Crystallographic Data Centre
#                                CCDC 
#
#######################################################################
#
# If this CIF has been generated from an entry in the Cambridge 
# Structural Database, then it will include bibliographic, chemical, 
# crystal, experimental, refinement or atomic coordinate data resulting 
# from the CCDC's data processing and validation procedures.
#
#######################################################################

data_OQUZAC
_chemical_formula_moiety         'C24 H27 Cl2 N1 O2 S1'
_chemical_name_systematic        
3-(Chloro-(4-chlorophenyl)methyl)-4-(2-ethylbuta-1-en-1-ylidene)-1-((4-methylphenyl)sulfonyl)pyrrolidine
_symmetry_cell_setting           monoclinic
_symmetry_space_group_name_H-M   'P 21/c'
_symmetry_Int_Tables_number      14
_space_group_name_Hall           '-P 2ybc'
loop_
_symmetry_equiv_pos_site_id
_symmetry_equiv_pos_as_xyz
1 x,y,z
2 -x,1/2+y,1/2-z
3 -x,-y,-z
4 x,1/2-y,1/2+z
_cell_length_a                   8.056(4)
_cell_length_b                   15.223(8)
_cell_length_c                   19.543(11)
_cell_angle_alpha                90
_cell_angle_beta                 94.305(9)
_cell_angle_gamma                90
_cell_volume                     2389.92
_exptl_crystal_colour            colorless
_exptl_crystal_description       prismatic
_cell_formula_units_Z            4
loop_
_atom_site_label
_atom_site_type_symbol
_atom_site_fract_x
_atom_site_fract_y
_atom_site_fract_z
Cl1 Cl 0.92065(16) 0.85149(8) 0.19904(5)
Cl2 Cl 1.3134(2) 0.53319(8) 0.39577(7)
S1 S 0.37240(12) 1.01007(6) 0.31312(6)
N1 N 0.5175(4) 0.9362(2) 0.32708(15)
O1 O 0.2492(3) 0.98977(18) 0.35858(18)
O2 O 0.3300(4) 1.0110(2) 0.24069(17)
C1 C 0.9125(6) 0.8419(3) 0.2902(2)
H1 H 0.9711 0.8929 0.3109
C2 C 0.7394(6) 0.8473(3) 0.3084(2)
H2 H 0.6754 0.7969 0.2898
C3 C 0.6564(6) 0.9342(3) 0.2831(2)
H3 H 0.7300 0.9842 0.2913
H4 H 0.6185 0.9317 0.2349
C4 C 0.5783(5) 0.9142(2) 0.39627(18)
H5 H 0.4937 0.8840 0.4201
H6 H 0.6129 0.9664 0.4219
C5 C 0.7236(5) 0.8552(3) 0.38688(18)
C6 C 0.8045(5) 0.8109(3) 0.43599(19)
C7 C 0.8849(6) 0.7653(3) 0.4849(2)
C8 C 0.8472(9) 0.6725(4) 0.5007(3)
H7 H 0.8997 0.6433 0.5381
C9 C 0.7232(9) 0.6300(4) 0.4541(3)
H8 H 0.6141 0.6483 0.4648
H9 H 0.7328 0.5675 0.4590
H10 H 0.7408 0.6463 0.4077
C10 C 1.0247(8) 0.8035(6) 0.5280(3)
H11 H 1.0955 0.7676 0.5554
C11 C 1.0486(9) 0.8916(7) 0.5272(6)
H12 H 0.9773 0.9271 0.4997
H13 H 1.1364 0.9165 0.5541
C12 C 1.0087(5) 0.7616(2) 0.31437(18)
C13 C 1.1579(5) 0.7745(2) 0.3518(2)
H14 H 1.1957 0.8313 0.3608
C14 C 1.2521(5) 0.7043(3) 0.3761(2)
H15 H 1.3532 0.7134 0.4013
C15 C 1.1950(5) 0.6207(2) 0.36260(19)
C16 C 1.0521(5) 0.6060(3) 0.3240(2)
H16 H 1.0168 0.5490 0.3141
C17 C 0.9590(5) 0.6770(3) 0.2995(2)
H17 H 0.8609 0.6673 0.2724
C18 C 0.4582(4) 1.1126(2) 0.33692(17)
C19 C 0.5401(5) 1.1621(3) 0.29103(19)
H18 H 0.5515 1.1409 0.2470
C20 C 0.6050(5) 1.2427(3) 0.31026(19)
H19 H 0.6610 1.2752 0.2789
C21 C 0.5893(4) 1.2769(2) 0.37510(19)
C22 C 0.5074(5) 1.2253(3) 0.41982(18)
H20 H 0.4958 1.2462 0.4639
C23 C 0.4427(5) 1.1450(2) 0.40199(19)
H21 H 0.3883 1.1121 0.4336
C24 C 0.6574(6) 1.3653(3) 0.3966(3)
H22 H 0.6001 1.3867 0.4345
H23 H 0.6417 1.4056 0.3588
H24 H 0.7741 1.3601 0.4101
C25? C 0.8205(6) 0.8928(3) 0.3240(2)
H25? H 0.8216 0.7990 0.2815
H26? H 0.9203 0.9333 0.3370
H27? H 0.6275 0.8987 0.2434
H28? H 0.6778 0.9932 0.2688
loop_
_geom_bond_atom_site_label_1
_geom_bond_atom_site_label_2
_geom_bond_site_symmetry_1
_geom_bond_site_symmetry_2
Cl1 C1 1_555 1_555
Cl2 C15 1_555 1_555
S1 N1 1_555 1_555
N1 C3 1_555 1_555
O1 S1 1_555 1_555
O2 S1 1_555 1_555
C1 H1 1_555 1_555
C2 C1 1_555 1_555
H2 C2 1_555 1_555
C3 C2 1_555 1_555
H3 C3 1_555 1_555
H4 C3 1_555 1_555
C4 N1 1_555 1_555
H5 C4 1_555 1_555
H6 C4 1_555 1_555
C5 C2 1_555 1_555
C6 C5 1_555 1_555
C7 C6 1_555 1_555
C8 C7 1_555 1_555
H7 C8 1_555 1_555
C9 C8 1_555 1_555
H8 C9 1_555 1_555
H9 C9 1_555 1_555
H10 C9 1_555 1_555
C10 C7 1_555 1_555
H11 C10 1_555 1_555
C11 C10 1_555 1_555
H12 C11 1_555 1_555
H13 C11 1_555 1_555
C12 C1 1_555 1_555
C13 C12 1_555 1_555
H14 C13 1_555 1_555
C14 C13 1_555 1_555
H15 C14 1_555 1_555
C15 C14 1_555 1_555
C16 C15 1_555 1_555
H16 C16 1_555 1_555
C17 C12 1_555 1_555
H17 C17 1_555 1_555
C18 S1 1_555 1_555
C19 C18 1_555 1_555
H18 C19 1_555 1_555
C20 C19 1_555 1_555
H19 C20 1_555 1_555
C21 C20 1_555 1_555
C22 C21 1_555 1_555
H20 C22 1_555 1_555
C23 C18 1_555 1_555
H21 C23 1_555 1_555
C24 C21 1_555 1_555
H22 C24 1_555 1_555
H23 C24 1_555 1_555
H24 C24 1_555 1_555
C4 C5 1_555 1_555
C16 C17 1_555 1_555
C22 C23 1_555 1_555

#END
