
#######################################################################
#
#                 Cambridge Crystallographic Data Centre
#                                CCDC 
#
#######################################################################
#
# If this CIF has been generated from an entry in the Cambridge 
# Structural Database, then it will include bibliographic, chemical, 
# crystal, experimental, refinement or atomic coordinate data resulting 
# from the CCDC's data processing and validation procedures.
#
#######################################################################

data_ORABUG
_chemical_formula_moiety         'C4 H1 N9 O5 2-,2(C2 H5 N4 1+),H2 O1'
_chemical_name_systematic        
'bis(4-amino-4H-1,2,4-triazol-1-ium) nitro(3-(4-(nitroamido)-1,2,5-oxadiazol-3-yl)-1H-1,2,4-triazol-5-yl)amide monohydrate'
_symmetry_cell_setting           triclinic
_symmetry_space_group_name_H-M   'P -1'
_symmetry_Int_Tables_number      2
_space_group_name_Hall           '-P 1'
loop_
_symmetry_equiv_pos_site_id
_symmetry_equiv_pos_as_xyz
1 x,y,z
2 -x,-y,-z
_cell_length_a                   4.9614(7)
_cell_length_b                   12.8709(17)
_cell_length_c                   13.529(2)
_cell_angle_alpha                78.669(5)
_cell_angle_beta                 86.415(5)
_cell_angle_gamma                80.702(4)
_cell_volume                     835.538
_exptl_crystal_description       column
_cell_formula_units_Z            2
loop_
_atom_site_label
_atom_site_type_symbol
_atom_site_fract_x
_atom_site_fract_y
_atom_site_fract_z
C1 C 1.2312(6) 0.8092(2) 0.8577(2)
C2 C 1.0944(6) 0.9188(2) 0.8323(2)
C3 C 0.5644(6) 1.0724(2) 0.6799(2)
C4 C 0.8777(6) 0.9624(2) 0.7611(2)
N1 N 1.4108(5) 0.80390(18) 0.9268(2)
N2 N 1.1904(5) 0.9776(2) 0.8850(2)
N3 N 1.1633(5) 0.73297(19) 0.8090(2)
N4 N 1.2757(5) 0.63246(19) 0.8423(2)
N5 N 0.7844(5) 0.90429(19) 0.7041(2)
N6 N 0.5852(5) 0.9765(2) 0.6528(2)
H1 H 0.488(6) 0.959(2) 0.612(2)
N7 N 0.7520(5) 1.06525(18) 0.7496(2)
N8 N 0.3923(5) 1.16655(19) 0.6524(2)
N9 N 0.1987(5) 1.1647(2) 0.5912(2)
O1 O 1.3870(4) 0.90964(16) 0.94475(17)
O2 O 1.2099(4) 0.56308(16) 0.79791(17)
O3 O 1.4384(4) 0.60504(15) 0.91275(17)
O4 O 0.1689(4) 1.08468(16) 0.55464(17)
O5 O 0.0349(4) 1.25143(16) 0.56849(17)
C5 C 0.7627(6) 0.3835(2) 0.8680(2)
H2 H 0.6756 0.4535 0.8736
C6 C 1.0546(6) 0.2379(2) 0.8879(2)
H3 H 1.2081 0.1848 0.9073
N10 N 0.8557(5) 0.2305(2) 0.8309(2)
H4 H 0.833(6) 0.175(2) 0.804(2)
N11 N 0.6704(5) 0.3222(2) 0.8163(2)
N12 N 0.9990(5) 0.33451(18) 0.9130(2)
N13 N 1.1338(5) 0.3777(2) 0.9799(2)
H5 H 1.206(5) 0.4351(18) 0.939(2)
H6 H 1.282(5) 0.3259(19) 1.006(2)
C7 C 0.5207(6) 0.3770(2) 0.4528(3)
H7 H 0.6561 0.3758 0.4999
C8 C 0.2879(6) 0.3272(2) 0.3442(2)
H8 H 0.2231 0.2877 0.3007
N14 N 0.1833(5) 0.4236(2) 0.3589(2)
H9 H 0.032(6) 0.474(2) 0.328(2)
N15 N 0.3253(5) 0.4565(2) 0.4272(2)
N16 N 0.5055(5) 0.29584(19) 0.4034(2)
N17 N 0.6749(5) 0.1951(2) 0.4116(2)
H10 H 0.802(5) 0.200(2) 0.3591(18)
H11 H 0.776(5) 0.183(2) 0.4706(17)
O6 O 0.1857(5) 0.40242(18) 0.6839(2)
H12 H 0.163(6) 0.350(2) 0.657(2)
H13 H 0.334(4) 0.384(2) 0.709(2)
loop_
_geom_bond_atom_site_label_1
_geom_bond_atom_site_label_2
_geom_bond_site_symmetry_1
_geom_bond_site_symmetry_2
C1 C2 1_555 1_555
C2 C4 1_555 1_555
C3 N6 1_555 1_555
C4 N5 1_555 1_555
N1 C1 1_555 1_555
N2 C2 1_555 1_555
N3 C1 1_555 1_555
N4 N3 1_555 1_555
N5 N6 1_555 1_555
N6 H1 1_555 1_555
N7 C3 1_555 1_555
N8 C3 1_555 1_555
N9 N8 1_555 1_555
O1 N1 1_555 1_555
O2 N4 1_555 1_555
O3 N4 1_555 1_555
O4 N9 1_555 1_555
O5 N9 1_555 1_555
C5 H2 1_555 1_555
C6 H3 1_555 1_555
N10 C6 1_555 1_555
H4 N10 1_555 1_555
N11 C5 1_555 1_555
N12 C5 1_555 1_555
N13 N12 1_555 1_555
H5 N13 1_555 1_555
H6 N13 1_555 1_555
C7 H7 1_555 1_555
C8 H8 1_555 1_555
N14 C8 1_555 1_555
H9 N14 1_555 1_555
N15 C7 1_555 1_555
N16 C7 1_555 1_555
N17 N16 1_555 1_555
H10 N17 1_555 1_555
H11 N17 1_555 1_555
O6 H12 1_555 1_555
H13 O6 1_555 1_555
C4 N7 1_555 1_555
N2 O1 1_555 1_555
C6 N12 1_555 1_555
N10 N11 1_555 1_555
C8 N16 1_555 1_555
N14 N15 1_555 1_555

#END
