
#######################################################################
#
#                 Cambridge Crystallographic Data Centre
#                                CCDC 
#
#######################################################################
#
# If this CIF has been generated from an entry in the Cambridge 
# Structural Database, then it will include bibliographic, chemical, 
# crystal, experimental, refinement or atomic coordinate data resulting 
# from the CCDC's data processing and validation procedures.
#
#######################################################################

data_ORABEQ
_chemical_formula_moiety         'C18 H25 N1 O3 S1'
_chemical_name_systematic        
'(1S,3S)-methyl 1-mesityl-3-propyl-3,6-dihydro-1,2-thiazine-1-oxide-4-carboxylate'
_symmetry_cell_setting           monoclinic
_symmetry_space_group_name_H-M   'P 21'
_symmetry_Int_Tables_number      4
_space_group_name_Hall           'P 2yb'
loop_
_symmetry_equiv_pos_site_id
_symmetry_equiv_pos_as_xyz
1 x,y,z
2 -x,1/2+y,-z
_cell_length_a                   7.99951(19)
_cell_length_b                   22.6529(5)
_cell_length_c                   10.2352(2)
_cell_angle_alpha                90
_cell_angle_beta                 104.241(2)
_cell_angle_gamma                90
_cell_volume                     1797.75
_exptl_crystal_colour            colorless
_exptl_crystal_description       block
_cell_formula_units_Z            4
loop_
_atom_site_label
_atom_site_type_symbol
_atom_site_fract_x
_atom_site_fract_y
_atom_site_fract_z
S1 S 0.03837(6) 0.38823(2) 0.71384(5)
N1 N 0.1419(2) 0.33305(8) 0.76488(18)
C1 C 0.0767(3) 0.27496(9) 0.7085(2)
H1 H 0.1749 0.2466 0.7354
C2 C 0.0230(3) 0.27485(9) 0.5562(2)
C3 C -0.0347(3) 0.32206(10) 0.4810(2)
H2 H -0.0631 0.3173 0.3859
C4 C -0.0581(3) 0.38189(10) 0.5350(2)
H3 H -0.1830 0.3906 0.5176
H4 H -0.0059 0.4117 0.4864
O1 O -0.1018(2) 0.40780(7) 0.77091(18)
C5 C 0.1988(3) 0.44508(9) 0.7334(2)
C6 C 0.1956(3) 0.49362(10) 0.8192(2)
C7 C 0.3284(3) 0.53484(10) 0.8351(3)
H5 H 0.3278 0.5678 0.8923
C8 C 0.4616(3) 0.52968(11) 0.7709(3)
C9 C 0.4614(3) 0.48125(11) 0.6882(3)
H6 H 0.5525 0.4771 0.6443
C10 C 0.3337(3) 0.43866(9) 0.6673(2)
C11 C 0.0638(4) 0.50483(13) 0.8993(3)
H7 H -0.0512 0.5074 0.8379
H8 H 0.0907 0.5420 0.9489
H9 H 0.0663 0.4724 0.9630
C12 C 0.6029(4) 0.57537(14) 0.7924(4)
H10 H 0.5531 0.6147 0.7948
H11 H 0.6604 0.5734 0.7183
H12 H 0.6870 0.5677 0.8779
C13 C 0.3509(3) 0.38804(12) 0.5751(2)
H13 H 0.3343 0.3506 0.6181
H14 H 0.4660 0.3888 0.5578
H15 H 0.2634 0.3920 0.4897
C14 C -0.0706(3) 0.25051(11) 0.7657(2)
H16 H -0.1608 0.2812 0.7577
H17 H -0.1231 0.2161 0.7110
C15 C -0.0099(3) 0.23164(11) 0.9132(2)
H18 H 0.0697 0.2619 0.9635
H19 H -0.1108 0.2294 0.9529
C16 C 0.0811(4) 0.17219(12) 0.9294(3)
H20 H 0.0010 0.1417 0.8837
H21 H 0.1204 0.1626 1.0255
H22 H 0.1806 0.1740 0.8897
C17 C 0.0417(3) 0.21722(10) 0.4918(2)
O2 O 0.1207(3) 0.17575(7) 0.54987(18)
O3 O -0.0393(2) 0.21560(7) 0.36004(16)
C18 C -0.0202(4) 0.16149(12) 0.2905(3)
H23 H -0.0888 0.1638 0.1970
H24 H -0.0604 0.1282 0.3358
H25 H 0.1015 0.1557 0.2915
S2 S 0.58574(6) 0.39426(2) 0.15123(5)
N2 N 0.6495(2) 0.33724(8) 0.22482(17)
C19 C 0.5732(3) 0.28118(9) 0.1653(2)
H26 H 0.6503 0.2487 0.2114
C20 C 0.5656(3) 0.27676(9) 0.0163(2)
C21 C 0.5666(3) 0.32249(10) -0.0655(2)
H27 H 0.5630 0.3138 -0.1570
C22 C 0.5731(3) 0.38614(11) -0.0262(2)
H28 H 0.4686 0.4064 -0.0790
H29 H 0.6749 0.4050 -0.0475
O4 O 0.4211(2) 0.42000(7) 0.15623(18)
C23 C 0.7568(3) 0.44473(8) 0.2187(2)
C24 C 0.7245(3) 0.49339(9) 0.2949(2)
C25 C 0.8623(3) 0.53087(9) 0.3499(2)
H30 H 0.8422 0.5640 0.4008
C26 C 1.0276(3) 0.52173(9) 0.3332(2)
C27 C 1.0553(3) 0.47268(9) 0.2595(2)
H31 H 1.1679 0.4657 0.2480
C28 C 0.9239(3) 0.43335(9) 0.2020(2)
C29 C 0.5550(3) 0.50818(10) 0.3271(3)
H32 H 0.5710 0.5417 0.3893
H33 H 0.5142 0.4740 0.3690
H34 H 0.4697 0.5185 0.2437
C30 C 1.1707(3) 0.56372(10) 0.3967(3)
H35 H 1.2383 0.5470 0.4816
H36 H 1.1212 0.6016 0.4144
H37 H 1.2456 0.5699 0.3352
C31 C 0.9741(3) 0.38060(10) 0.1287(2)
H38 H 0.9337 0.3866 0.0312
H39 H 0.9213 0.3448 0.1546
H40 H 1.0999 0.3763 0.1530
C32 C 0.3937(3) 0.26976(11) 0.1892(3)
H41 H 0.3100 0.2965 0.1304
H42 H 0.3592 0.2287 0.1618
C33 C 0.3827(4) 0.27850(13) 0.3336(3)
H43 H 0.4118 0.3200 0.3596
H44 H 0.2621 0.2717 0.3384
C34 C 0.4988(5) 0.23888(18) 0.4335(3)
H45 H 0.4745 0.1976 0.4067
H46 H 0.4784 0.2452 0.5230
H47 H 0.6193 0.2479 0.4360
C35 C 0.5591(3) 0.21543(10) -0.0368(2)
O5 O 0.5947(2) 0.17226(7) 0.03388(18)
O6 O 0.5105(2) 0.21245(7) -0.17197(17)
C36 C 0.5076(4) 0.15372(11) -0.2272(3)
H48 H 0.4678 0.1556 -0.3256
H49 H 0.4292 0.1288 -0.1913
H50 H 0.6240 0.1369 -0.2022
loop_
_geom_bond_atom_site_label_1
_geom_bond_atom_site_label_2
_geom_bond_site_symmetry_1
_geom_bond_site_symmetry_2
S1 N1 1_555 1_555
N1 C1 1_555 1_555
C1 H1 1_555 1_555
C2 C1 1_555 1_555
C3 C2 1_555 1_555
H2 C3 1_555 1_555
C4 S1 1_555 1_555
H3 C4 1_555 1_555
H4 C4 1_555 1_555
O1 S1 1_555 1_555
C5 S1 1_555 1_555
C6 C5 1_555 1_555
C7 C6 1_555 1_555
H5 C7 1_555 1_555
C8 C7 1_555 1_555
C9 C8 1_555 1_555
H6 C9 1_555 1_555
C10 C5 1_555 1_555
C11 C6 1_555 1_555
H7 C11 1_555 1_555
H8 C11 1_555 1_555
H9 C11 1_555 1_555
C12 C8 1_555 1_555
H10 C12 1_555 1_555
H11 C12 1_555 1_555
H12 C12 1_555 1_555
C13 C10 1_555 1_555
H13 C13 1_555 1_555
H14 C13 1_555 1_555
H15 C13 1_555 1_555
C14 C1 1_555 1_555
H16 C14 1_555 1_555
H17 C14 1_555 1_555
C15 C14 1_555 1_555
H18 C15 1_555 1_555
H19 C15 1_555 1_555
C16 C15 1_555 1_555
H20 C16 1_555 1_555
H21 C16 1_555 1_555
H22 C16 1_555 1_555
C17 C2 1_555 1_555
O2 C17 1_555 1_555
O3 C17 1_555 1_555
C18 O3 1_555 1_555
H23 C18 1_555 1_555
H24 C18 1_555 1_555
H25 C18 1_555 1_555
S2 N2 1_555 1_555
N2 C19 1_555 1_555
C19 H26 1_555 1_555
C20 C19 1_555 1_555
C21 C20 1_555 1_555
H27 C21 1_555 1_555
C22 S2 1_555 1_555
H28 C22 1_555 1_555
H29 C22 1_555 1_555
O4 S2 1_555 1_555
C23 S2 1_555 1_555
C24 C23 1_555 1_555
C25 C24 1_555 1_555
H30 C25 1_555 1_555
C26 C25 1_555 1_555
C27 C26 1_555 1_555
H31 C27 1_555 1_555
C28 C23 1_555 1_555
C29 C24 1_555 1_555
H32 C29 1_555 1_555
H33 C29 1_555 1_555
H34 C29 1_555 1_555
C30 C26 1_555 1_555
H35 C30 1_555 1_555
H36 C30 1_555 1_555
H37 C30 1_555 1_555
C31 C28 1_555 1_555
H38 C31 1_555 1_555
H39 C31 1_555 1_555
H40 C31 1_555 1_555
C32 C19 1_555 1_555
H41 C32 1_555 1_555
H42 C32 1_555 1_555
C33 C32 1_555 1_555
H43 C33 1_555 1_555
H44 C33 1_555 1_555
C34 C33 1_555 1_555
H45 C34 1_555 1_555
H46 C34 1_555 1_555
H47 C34 1_555 1_555
C35 C20 1_555 1_555
O5 C35 1_555 1_555
O6 C35 1_555 1_555
C36 O6 1_555 1_555
H48 C36 1_555 1_555
H49 C36 1_555 1_555
H50 C36 1_555 1_555
C3 C4 1_555 1_555
C9 C10 1_555 1_555
C21 C22 1_555 1_555
C27 C28 1_555 1_555

#END
