
#######################################################################
#
#                 Cambridge Crystallographic Data Centre
#                                CCDC 
#
#######################################################################
#
# If this CIF has been generated from an entry in the Cambridge 
# Structural Database, then it will include bibliographic, chemical, 
# crystal, experimental, refinement or atomic coordinate data resulting 
# from the CCDC's data processing and validation procedures.
#
#######################################################################

data_ORADUI
_chemical_formula_moiety         'C108 H92 N4 O12,4(C9 H12),C4 H8 S2'
_chemical_name_systematic        
"2,8,14,20-tetra-n-hexyl-4,24:12,16-O,O'-bis(quinoxaline-2,3-diyl)-6,10:18,22-O,O'-bis(3,6-dioxopentacyclo[6.6.6.0^2,7^.0^9,14^.0^15,20^]icosa-2(7),4,9,11,13,15,17,19-octaene-4,5-diyl)calix[4]resorcinarene 1,4-dithiane clathrate 1,3,5-trimethylbenzene solvate"
_symmetry_cell_setting           triclinic
_symmetry_space_group_name_H-M   'P -1'
_symmetry_Int_Tables_number      2
_space_group_name_Hall           '-P 1'
loop_
_symmetry_equiv_pos_site_id
_symmetry_equiv_pos_as_xyz
1 x,y,z
2 -x,-y,-z
_cell_length_a                   12.4496(2)
_cell_length_b                   16.1362(3)
_cell_length_c                   30.0376(6)
_cell_angle_alpha                90.6880(10)
_cell_angle_beta                 93.5460(10)
_cell_angle_gamma                93.3070(10)
_cell_volume                     6011.91
_exptl_crystal_colour            yellow
_exptl_crystal_description       plate
_cell_formula_units_Z            2
loop_
_atom_site_label
_atom_site_type_symbol
_atom_site_fract_x
_atom_site_fract_y
_atom_site_fract_z
O1 O 0.55417(17) -0.05826(14) 0.24703(7)
O2 O 0.2465(2) 0.07017(13) 0.14265(7)
O3 O 0.94154(13) 0.47376(11) 0.21740(5)
O4 O 0.60478(14) 0.58169(11) 0.12079(6)
O5 O 0.61141(13) 0.60603(10) 0.21233(6)
O6 O 0.25771(13) 0.49924(10) 0.16079(6)
O7 O 0.16285(13) 0.34789(10) 0.16597(5)
O8 O 0.23567(14) 0.08845(10) 0.23379(6)
O9 O 0.39859(14) 0.02631(11) 0.28798(6)
O10 O 0.73889(13) 0.14152(11) 0.35100(5)
O11 O 0.84184(13) 0.28902(11) 0.33648(5)
O12 O 0.78350(13) 0.54667(10) 0.26265(5)
N1 N 0.89398(16) 0.24379(13) 0.26809(7)
N2 N 0.80577(17) 0.08375(14) 0.28851(7)
N3 N 0.24905(19) 0.30012(13) 0.10562(7)
N4 N 0.33719(17) 0.46486(14) 0.09625(7)
C1 C 0.0031(5) 0.3888(4) 0.4687(2)
H1 H -0.0113 0.4268 0.4441
H2 H 0.0773 0.3995 0.4811
H3 H -0.0470 0.3974 0.4920
C2 C -0.0119(3) 0.2998(3) 0.45143(13)
H4 H -0.0887 0.2876 0.4419
H5 H 0.0070 0.2619 0.4760
C3 C 0.0568(2) 0.2828(2) 0.41235(11)
H6 H 0.0369 0.3202 0.3877
H7 H 0.1335 0.2963 0.4218
C4 C 0.0446(2) 0.1947(2) 0.39532(10)
H8 H -0.0330 0.1796 0.3887
H9 H 0.0710 0.1579 0.4192
C5 C 0.1048(2) 0.1787(2) 0.35359(9)
H10 H 0.0810 0.2174 0.3301
H11 H 0.0847 0.1215 0.3425
C6 C 0.2276(2) 0.18887(19) 0.36082(8)
H12 H 0.2514 0.1551 0.3865
H13 H 0.2491 0.2477 0.3681
C7 C 0.6922(3) 0.5709(3) 0.58953(11)
H14 H 0.6803 0.6198 0.5712
H15 H 0.7697 0.5646 0.5946
H16 H 0.6603 0.5781 0.6183
C8 C 0.6399(3) 0.4944(2) 0.56572(9)
H17 H 0.5612 0.5003 0.5620
H18 H 0.6521 0.4455 0.5845
C9 C 0.6827(2) 0.4790(2) 0.52013(9)
H19 H 0.6775 0.5300 0.5023
H20 H 0.7599 0.4672 0.5241
C10 C 0.6220(2) 0.4073(2) 0.49460(9)
H21 H 0.5456 0.4205 0.4895
H22 H 0.6242 0.3571 0.5132
C11 C 0.49430(19) 0.54327(14) 0.26498(9)
C12 C 0.6671(2) 0.3881(2) 0.44962(8)
H23 H 0.6741 0.4399 0.4325
H24 H 0.7400 0.3672 0.4548
C13 C 0.5956(2) 0.32389(18) 0.42234(8)
H25 H 0.5279 0.3492 0.4122
H26 H 0.5766 0.2768 0.4417
C14 C 0.7048(6) 0.8244(3) 0.51139(17)
H27 H 0.7329 0.8646 0.4902
H28 H 0.7645 0.7955 0.5257
H29 H 0.6674 0.8534 0.5342
C15 C 0.6306(5) 0.7650(4) 0.4881(2)
H30 H 0.5648 0.7934 0.4785
H31 H 0.6094 0.7213 0.5092
C16 C 0.6726(4) 0.7232(3) 0.44709(15)
H32 H 0.7058 0.7666 0.4284
H33 H 0.7299 0.6864 0.4572
C17 C 0.5882(4) 0.6729(4) 0.41869(17)
H34 H 0.5581 0.6275 0.4369
H35 H 0.5287 0.7090 0.4102
C18 C 0.6271(3) 0.6357(2) 0.37689(12)
H36 H 0.6769 0.5921 0.3854
H37 H 0.6686 0.6794 0.3612
C19 C 0.5381(2) 0.59812(18) 0.34490(10)
H38 H 0.4868 0.6410 0.3370
H39 H 0.4982 0.5528 0.3599
C20 C 0.1310(3) 0.5552(2) 0.29414(11)
H40 H 0.0808 0.5685 0.2687
H41 H 0.1960 0.5936 0.2944
C21 C 0.1604(2) 0.46539(18) 0.29188(9)
H42 H 0.0952 0.4291 0.2964
H43 H 0.2142 0.4556 0.3166
C22 C 0.39394(19) 0.50474(15) 0.27277(9)
H44 H 0.3798 0.4900 0.3025
C23 C 0.5812(2) 0.56375(16) 0.30217(8)
H45 H 0.6302 0.6088 0.2907
C24 C 0.64963(19) 0.48905(15) 0.31033(8)
C25 C 0.61924(19) 0.42594(16) 0.33919(7)
H46 H 0.5533 0.4295 0.3532
C26 C 0.68056(19) 0.35796(16) 0.34850(7)
C27 C 0.6488(2) 0.29061(17) 0.38134(8)
H47 H 0.7173 0.2665 0.3928
C28 C 0.5806(2) 0.21996(16) 0.35729(7)
C29 C 0.4690(2) 0.22166(16) 0.34956(7)
H48 H 0.4344 0.2681 0.3605
C30 C 0.4056(2) 0.15897(16) 0.32670(7)
C31 C 0.2837(2) 0.16178(16) 0.31920(8)
H49 H 0.2553 0.1037 0.3118
C32 C 0.25593(18) 0.21356(16) 0.27847(8)
C33 C 0.24763(18) 0.29925(15) 0.28088(8)
H50 H 0.2625 0.3265 0.3090
C34 C 0.21869(17) 0.34692(15) 0.24421(8)
C35 C 0.20619(19) 0.44051(15) 0.24778(8)
H51 H 0.1528 0.4550 0.2233
C36 C 0.33735(19) 0.51074(14) 0.19614(8)
C37 C 0.43600(19) 0.54815(14) 0.18664(9)
H52 H 0.4501 0.5632 0.1570
C38 C 0.51323(19) 0.56302(14) 0.22105(9)
C39 C 0.74570(19) 0.48157(14) 0.28968(8)
C40 C 0.80975(18) 0.41523(15) 0.29756(7)
H53 H 0.8754 0.4115 0.2833
C41 C 0.77623(19) 0.35465(15) 0.32649(8)
C42 C 0.62788(19) 0.14975(16) 0.34158(7)
C43 C 0.5692(2) 0.08637(15) 0.31801(7)
H54 H 0.6036 0.0396 0.3075
C44 C 0.4594(2) 0.09265(15) 0.31015(7)
C45 C 0.23691(18) 0.17559(15) 0.23671(8)
C46 C 0.20888(18) 0.21972(14) 0.19922(8)
H55 H 0.1959 0.1926 0.1710
C47 C 0.20015(18) 0.30416(15) 0.20366(8)
C48 C 0.2329(2) 0.35973(15) 0.13293(8)
C49 C 0.28026(19) 0.44196(15) 0.12894(8)
C50 C 0.3562(2) 0.40247(17) 0.06635(8)
C51 C 0.4172(2) 0.4219(2) 0.02957(9)
H56 H 0.4444 0.4774 0.0256
C52 C 0.4375(2) 0.3615(2) -0.00047(10)
H57 H 0.4770 0.3753 -0.0257
C53 C 0.4001(3) 0.2793(2) 0.00592(10)
H58 H 0.4170 0.2372 -0.0145
C54 C 0.3394(3) 0.2586(2) 0.04111(10)
H59 H 0.3139 0.2027 0.0448
C55 C 0.3150(2) 0.32065(18) 0.07178(8)
C56 C 0.84545(18) 0.22831(16) 0.30407(8)
C57 C 0.79733(19) 0.14857(15) 0.31363(8)
C58 C 0.8589(2) 0.09728(17) 0.25017(9)
C59 C 0.8683(2) 0.03076(19) 0.22025(10)
H60 H 0.8410 -0.0235 0.2271
C60 C 0.9170(2) 0.0447(2) 0.18114(10)
H61 H 0.9245 -0.0006 0.1612
C61 C 0.9560(2) 0.1242(2) 0.17001(10)
H62 H 0.9889 0.1326 0.1426
C62 C 0.9470(2) 0.19048(19) 0.19842(9)
H63 H 0.9725 0.2446 0.1906
C63 C 0.89934(19) 0.17727(16) 0.23932(8)
C64 C 0.3997(2) 0.02170(15) 0.24248(8)
C65 C 0.3213(2) 0.05279(15) 0.21613(9)
C66 C 0.3181(3) 0.04261(16) 0.16660(9)
C67 C 0.4023(3) -0.00532(16) 0.14850(9)
C68 C 0.4763(2) -0.04069(16) 0.17464(9)
C69 C 0.4844(2) -0.02827(16) 0.22341(9)
C70 C 0.4057(3) -0.02647(16) 0.09896(9)
H64 H 0.3505 0.0013 0.0797
C71 C 0.3919(2) -0.12167(15) 0.09705(8)
C72 C 0.3144(2) -0.16894(17) 0.07172(8)
H65 H 0.2615 -0.1433 0.0534
C73 C 0.3154(2) -0.25556(17) 0.07360(9)
H66 H 0.2618 -0.2890 0.0567
C74 C 0.3928(2) -0.29258(16) 0.09958(9)
H67 H 0.3935 -0.3514 0.0999
C75 C 0.4708(2) -0.24475(15) 0.12551(8)
H68 H 0.5239 -0.2705 0.1437
C76 C 0.4691(2) -0.15935(15) 0.12416(8)
C77 C 0.5480(2) -0.09629(16) 0.14995(9)
H69 H 0.6028 -0.1228 0.1700
C78 C 0.5972(3) -0.04391(18) 0.11372(10)
C79 C 0.7061(3) -0.0372(2) 0.10542(13)
H70 H 0.7575 -0.0625 0.1247
C80 C 0.7389(4) 0.0065(3) 0.06899(15)
H71 H 0.8127 0.0103 0.0624
C81 C 0.6633(4) 0.0445(2) 0.04233(15)
H72 H 0.6865 0.0754 0.0176
C82 C 0.5531(4) 0.0396(2) 0.05019(12)
H73 H 0.5024 0.0667 0.0314
C83 C 0.5205(3) -0.00646(17) 0.08651(10)
C84 C 0.68750(19) 0.56143(14) 0.19283(8)
C85 C 0.77187(19) 0.53395(14) 0.21721(8)
C86 C 0.86341(18) 0.49664(14) 0.19548(8)
C87 C 0.85227(19) 0.48781(14) 0.14653(8)
C88 C 0.76380(19) 0.50978(15) 0.12293(8)
C89 C 0.67813(19) 0.55291(14) 0.14330(8)
C90 C 0.9357(2) 0.45071(15) 0.11857(8)
H74 H 1.0021 0.4357 0.1364
C91 C 0.9583(2) 0.51339(15) 0.08172(8)
C92 C 1.0574(2) 0.54471(17) 0.06986(9)
H75 H 1.1213 0.5299 0.0860
C93 C 1.0631(2) 0.59827(18) 0.03399(10)
H76 H 1.1314 0.6194 0.0254
C94 C 0.9707(2) 0.62091(18) 0.01089(9)
H77 H 0.9756 0.6583 -0.0132
C95 C 0.8702(2) 0.58942(17) 0.02261(9)
H78 H 0.8063 0.6051 0.0068
C96 C 0.8648(2) 0.53496(16) 0.05766(8)
C97 C 0.7629(2) 0.49109(16) 0.07334(8)
H79 H 0.6957 0.5069 0.0564
C98 C 0.7820(2) 0.39875(16) 0.06978(8)
C99 C 0.7195(2) 0.33949(18) 0.04481(9)
H80 H 0.6561 0.3542 0.0282
C100 C 0.7503(3) 0.25814(19) 0.04423(10)
H81 H 0.7073 0.2170 0.0273
C101 C 0.8424(3) 0.23639(18) 0.06784(10)
H82 H 0.8625 0.1805 0.0671
C102 C 0.9067(2) 0.29638(17) 0.09291(9)
H83 H 0.9708 0.2818 0.1090
C103 C 0.8756(2) 0.37672(16) 0.09389(8)
C104 C 0.31332(19) 0.48689(14) 0.23896(8)
C105 C -0.0533(8) 0.7461(5) 0.4026(3)
H84 H -0.1215 0.7483 0.3846
H85 H -0.0005 0.7875 0.3919
H86 H -0.0653 0.7580 0.4339
C106 C -0.0092(8) 0.6568(6) 0.3982(3)
H87 H -0.0665 0.6141 0.4043
H88 H 0.0523 0.6510 0.4202
C107 C 0.0285(6) 0.6439(4) 0.3490(2)
H89 H -0.0331 0.6502 0.3271
H90 H 0.0858 0.6867 0.3430
C108 C 0.0697(7) 0.5603(5) 0.3441(2)
H91 H 0.0096 0.5174 0.3444
H92 H 0.1224 0.5500 0.3692
C109 C 0.6688(9) 0.1603(7) 0.5751(3)
H93 H 0.6815 0.1864 0.6036
C110 C 0.5965(10) 0.0922(8) 0.5702(4)
C111 C 0.5744(10) 0.0574(8) 0.5257(3)
H94 H 0.5214 0.0128 0.5210
C112 C 0.6314(8) 0.0890(5) 0.4879(3)
C113 C 0.7001(7) 0.1558(5) 0.4969(3)
H95 H 0.7353 0.1802 0.4727
C114 C 0.7232(7) 0.1918(5) 0.5397(3)
C115 C 0.8073(9) 0.2619(7) 0.5486(4)
H96 H 0.8792 0.2398 0.5502
H97 H 0.7954 0.2894 0.5770
H98 H 0.8022 0.3020 0.5245
C116 C 0.5398(12) 0.0503(9) 0.6037(4)
H99 H 0.4919 0.0883 0.6172
H100 H 0.5914 0.0312 0.6268
H101 H 0.4970 0.0024 0.5904
C117 C 0.6057(9) 0.0454(6) 0.4436(3)
H102 H 0.6542 0.0003 0.4404
H103 H 0.6154 0.0851 0.4195
H104 H 0.5309 0.0226 0.4420
C109A C 0.3312(9) -0.1603(7) 0.4249(3)
H93A H 0.3185 -0.1864 0.3964
C110A C 0.4035(10) -0.0922(8) 0.4298(4)
C111A C 0.4256(10) -0.0574(8) 0.4743(3)
H94A H 0.4786 -0.0128 0.4790
C112A C 0.3686(8) -0.0890(5) 0.5121(3)
C113A C 0.2999(7) -0.1558(5) 0.5031(3)
H95A H 0.2647 -0.1802 0.5273
C114A C 0.2768(7) -0.1918(5) 0.4603(3)
C115A C 0.1927(9) -0.2619(7) 0.4514(4)
H96A H 0.1208 -0.2398 0.4498
H97A H 0.2046 -0.2894 0.4230
H98A H 0.1978 -0.3020 0.4755
C116A C 0.4602(12) -0.0503(9) 0.3963(4)
H99A H 0.5081 -0.0883 0.3828
H100A H 0.4086 -0.0312 0.3732
H101A H 0.5030 -0.0024 0.4096
C117A C 0.3943(9) -0.0454(6) 0.5564(3)
H102A H 0.3458 -0.0003 0.5596
H103A H 0.3846 -0.0851 0.5805
H104A H 0.4691 -0.0226 0.5580
C118 C 0.1684(7) -0.1101(5) 0.2774(3)
C119 C 0.2524(6) -0.1576(3) 0.2761(3)
H105 H 0.2853 -0.1678 0.3048
C120 C 0.2994(5) -0.1933(3) 0.2431(3)
C121 C 0.2492(5) -0.1797(3) 0.2005(2)
H106 H 0.2776 -0.2032 0.1749
C122 C 0.1573(5) -0.1318(4) 0.1950(3)
C123 C 0.1202(6) -0.0978(4) 0.2336(3)
H107 H 0.0596 -0.0646 0.2307
C124 C 0.1156(17) -0.0713(8) 0.3124(7)
H108 H 0.1043 -0.1111 0.3363
H109 H 0.0458 -0.0530 0.3006
H110 H 0.1605 -0.0232 0.3242
C125 C 0.3922(10) -0.2466(6) 0.2466(3)
H111 H 0.4500 -0.2194 0.2662
H112 H 0.4184 -0.2554 0.2169
H113 H 0.3696 -0.3002 0.2591
C126 C 0.1028(6) -0.1206(5) 0.1500(3)
H114 H 0.1122 -0.0623 0.1415
H115 H 0.0258 -0.1364 0.1509
H116 H 0.1347 -0.1557 0.1281
C127 C 0.8500(2) 0.74580(16) 0.21804(10)
C128 C 0.7906(2) 0.75663(16) 0.17795(10)
H117 H 0.7216 0.7788 0.1785
C129 C 0.8295(2) 0.73584(16) 0.13707(10)
C130 C 0.7648(2) 0.74811(19) 0.09382(10)
H118 H 0.8092 0.7798 0.0734
H119 H 0.7012 0.7786 0.0997
H120 H 0.7418 0.6939 0.0803
C131 C 0.9903(2) 0.68931(18) 0.17663(10)
C132 C 1.0979(3) 0.6507(2) 0.17567(12)
H121 H 1.0863 0.5902 0.1731
H122 H 1.1413 0.6653 0.2033
H123 H 1.1357 0.6715 0.1500
C133 C 0.9496(2) 0.71189(17) 0.21667(10)
H124 H 0.9909 0.7039 0.2438
C134 C 0.9300(2) 0.70209(17) 0.13701(10)
H125 H 0.9579 0.6875 0.1094
C135 C 0.8063(3) 0.7690(2) 0.26171(11)
H126 H 0.7458 0.8046 0.2562
H127 H 0.8631 0.7990 0.2806
H128 H 0.7814 0.7186 0.2768
S1 S 0.61052(14) 0.17062(11) 0.21055(7)
S2 S 0.52965(16) 0.34858(10) 0.15617(5)
C136 C 0.5964(3) 0.2721(2) 0.23474(11)
H129 H 0.5832 0.2657 0.2667
H130 H 0.6652 0.3055 0.2329
C137 C 0.5065(4) 0.3189(3) 0.21262(13)
H131 H 0.4970 0.3695 0.2306
H132 H 0.4386 0.2837 0.2125
C138 C 0.5449(3) 0.2471(2) 0.13143(11)
H133 H 0.4766 0.2130 0.1330
H134 H 0.5589 0.2537 0.0995
C139 C 0.6352(8) 0.2020(3) 0.15416(18)
H135 H 0.7021 0.2384 0.1549
H136 H 0.6473 0.1519 0.1362
H137? H 0.1893 0.5886 0.2806
H138? H 0.0652 0.5596 0.2742
C140? C -0.0520(16) 0.6889(8) 0.3862(5)
H139? H -0.0947 0.6944 0.3580
H140? H 0.0171 0.7210 0.3850
H141? H -0.0914 0.7101 0.4108
C141? C -0.0304(8) 0.5933(7) 0.3942(3)
H142? H 0.0278 0.5881 0.4178
H143? H -0.0965 0.5630 0.4035
C142? C 0.0028(7) 0.5571(6) 0.3496(3)
H144? H -0.0538 0.5666 0.3259
H145? H 0.0084 0.4964 0.3524
C143? C 0.1116(5) 0.5967(5) 0.3360(2)
H146? H 0.1072 0.6572 0.3318
H147? H 0.1698 0.5873 0.3590
C144? C 1.0966(7) -0.0171(12) 0.4699(6)
H148? H 1.1452 0.0160 0.4517
H149? H 1.1111 -0.0759 0.4671
H150? H 1.1084 0.0007 0.5012
C145? C 0.7429(11) 0.1195(8) 0.4746(5)
H151? H 0.7025 0.1419 0.4489
H152? H 0.7828 0.1650 0.4914
H153? H 0.6927 0.0906 0.4938
C146? C 0.9399(8) -0.0547(6) 0.4193(4)
H154? H 0.9814 -0.0944 0.4057
C147? C 0.8336(9) -0.0460(6) 0.4039(3)
C148? C 0.7728(6) 0.0121(6) 0.4238(3)
H155? H 0.7002 0.0181 0.4132
C149? C 0.8183(8) 0.0615(5) 0.4591(3)
C150? C 0.9246(8) 0.0527(6) 0.4745(3)
H156? H 0.9556 0.0865 0.4986
C151? C 0.9854(6) -0.0054(6) 0.4546(3)
C152? C 0.7858(13) -0.0915(9) 0.3647(4)
H157? H 0.8192 -0.0707 0.3380
H158? H 0.7082 -0.0838 0.3619
H159? H 0.7977 -0.1507 0.3679
C153? C 0.6472(7) -0.1291(5) 0.3511(3)
H160? H 0.6453 -0.0849 0.3737
H161? H 0.6714 -0.1052 0.3233
H162? H 0.6972 -0.1703 0.3618
C154? C 0.3599(6) -0.2270(5) 0.3672(3)
C155? C 0.3288(6) -0.2478(4) 0.3226(3)
H163? H 0.2580 -0.2712 0.3155
C156? C 0.3967(6) -0.2354(4) 0.2889(3)
C157? C 0.4997(6) -0.1970(5) 0.2990(3)
H164? H 0.5477 -0.1882 0.2759
C158? C 0.5321(6) -0.1718(4) 0.3424(3)
C159? C 0.4592(6) -0.1856(4) 0.3755(2)
H165? H 0.4790 -0.1657 0.4049
C160? C 0.2837(7) -0.2444(5) 0.4027(3)
H166? H 0.2312 -0.2015 0.4027
H167? H 0.3238 -0.2445 0.4318
H168? H 0.2458 -0.2988 0.3969
C161? C 0.3610(14) -0.2571(14) 0.2393(6)
H169? H 0.3440 -0.3170 0.2360
H170? H 0.4196 -0.2406 0.2203
H171? H 0.2970 -0.2272 0.2304
C162? C 0.8972(7) 0.0203(5) 0.5969(3)
H172? H 0.8978 0.0039 0.5664
C163? C 0.7973(7) 0.0309(5) 0.6152(3)
C164? C 0.7982(7) 0.0575(5) 0.6592(3)
H173? H 0.7318 0.0640 0.6725
C165? C 0.8889(19) 0.0738(16) 0.6826(8)
C166? C 0.9896(7) 0.0584(5) 0.6671(3)
H174? H 1.0534 0.0647 0.6862
C167? C 0.9930(7) 0.0325(5) 0.6211(3)
C168? C 1.1011(7) 0.0200(6) 0.6003(4)
H175? H 1.0888 -0.0161 0.5738
H176? H 1.1334 0.0739 0.5919
H177? H 1.1501 -0.0058 0.6222
C169? C 0.8932(13) 0.0964(9) 0.7329(4)
H178? H 0.8912 0.0454 0.7503
H179? H 0.9599 0.1297 0.7411
H180? H 0.8311 0.1284 0.7391
C170? C 0.6907(8) 0.0161(6) 0.5889(3)
H181? H 0.6396 0.0551 0.5991
H182? H 0.7008 0.0244 0.5571
H183? H 0.6623 -0.0409 0.5934
S3? S 0.6012(10) 0.1715(8) 0.2113(5)
S4? S 0.5755(7) 0.3558(4) 0.1597(2)
C171? C 0.5042(11) 0.2468(8) 0.2236(5)
H184? H 0.4381 0.2365 0.2038
H185? H 0.4841 0.2408 0.2548
C172? C 0.5514(16) 0.3342(10) 0.2168(5)
H186? H 0.6202 0.3424 0.2351
H187? H 0.5013 0.3744 0.2276
C173? C 0.6801(12) 0.2826(9) 0.1555(6)
H188? H 0.7155 0.2930 0.1273
H189? H 0.7351 0.2943 0.1803
C174? C 0.644(3) 0.1918(13) 0.1565(8)
H190? H 0.7041 0.1570 0.1499
H191? H 0.5836 0.1792 0.1339
C175? C 0.0408(4) -0.0600(3) 0.06465(14)
C176? C -0.0121(4) -0.1098(2) 0.03109(19)
H192? H -0.0274 -0.1671 0.0360
C177? C -0.0426(4) -0.0755(3) -0.00969(16)
C178? C -0.0202(5) 0.0084(4) -0.01691(14)
H193? H -0.0410 0.0318 -0.0448
C179? C 0.0327(4) 0.0582(3) 0.01666(17)
C180? C 0.0632(3) 0.0240(3) 0.05744(14)
H194? H 0.0993 0.0580 0.0804
C181? C -0.1008(8) -0.1323(7) -0.0441(3)
H195? H -0.0498 -0.1509 -0.0651
H196? H -0.1336 -0.1805 -0.0294
H197? H -0.1573 -0.1026 -0.0602
C182? C 0.0724(7) -0.0935(6) 0.10952(18)
H198? H 0.0901 -0.0473 0.1307
H199? H 0.0123 -0.1284 0.1200
H200? H 0.1354 -0.1266 0.1073
C183? C 0.0590(8) 0.1497(6) 0.0071(4)
H201? H -0.0046 0.1736 -0.0073
H202? H 0.0799 0.1796 0.0352
H203? H 0.1186 0.1545 -0.0127
loop_
_geom_bond_atom_site_label_1
_geom_bond_atom_site_label_2
_geom_bond_site_symmetry_1
_geom_bond_site_symmetry_2
O1 C69 1_555 1_555
O2 C66 1_555 1_555
O3 C86 1_555 1_555
O4 C89 1_555 1_555
O5 C38 1_555 1_555
O6 C36 1_555 1_555
O7 C47 1_555 1_555
O8 C45 1_555 1_555
O9 C44 1_555 1_555
O10 C42 1_555 1_555
O11 C41 1_555 1_555
O12 C39 1_555 1_555
N1 C56 1_555 1_555
N2 C57 1_555 1_555
N3 C48 1_555 1_555
N4 C49 1_555 1_555
C1 H1 1_555 1_555
H2 C1 1_555 1_555
H3 C1 1_555 1_555
C2 C1 1_555 1_555
H4 C2 1_555 1_555
H5 C2 1_555 1_555
C3 C2 1_555 1_555
H6 C3 1_555 1_555
H7 C3 1_555 1_555
C4 C3 1_555 1_555
H8 C4 1_555 1_555
H9 C4 1_555 1_555
C5 C4 1_555 1_555
H10 C5 1_555 1_555
H11 C5 1_555 1_555
C6 C5 1_555 1_555
H12 C6 1_555 1_555
H13 C6 1_555 1_555
C7 H14 1_555 1_555
H15 C7 1_555 1_555
H16 C7 1_555 1_555
C8 C7 1_555 1_555
H17 C8 1_555 1_555
H18 C8 1_555 1_555
C9 C8 1_555 1_555
H19 C9 1_555 1_555
H20 C9 1_555 1_555
C10 C9 1_555 1_555
H21 C10 1_555 1_555
H22 C10 1_555 1_555
C11 C22 1_555 1_555
C12 C10 1_555 1_555
H23 C12 1_555 1_555
H24 C12 1_555 1_555
C13 C12 1_555 1_555
H25 C13 1_555 1_555
H26 C13 1_555 1_555
C14 H27 1_555 1_555
H28 C14 1_555 1_555
H29 C14 1_555 1_555
C15 C14 1_555 1_555
H30 C15 1_555 1_555
H31 C15 1_555 1_555
C16 C15 1_555 1_555
H32 C16 1_555 1_555
H33 C16 1_555 1_555
C17 C16 1_555 1_555
H34 C17 1_555 1_555
H35 C17 1_555 1_555
C18 C17 1_555 1_555
H36 C18 1_555 1_555
H37 C18 1_555 1_555
C19 C18 1_555 1_555
H38 C19 1_555 1_555
H39 C19 1_555 1_555
C20 H40 1_555 1_555
H41 C20 1_555 1_555
C21 C20 1_555 1_555
H42 C21 1_555 1_555
H43 C21 1_555 1_555
C22 H44 1_555 1_555
C23 C11 1_555 1_555
H45 C23 1_555 1_555
C24 C23 1_555 1_555
C25 C24 1_555 1_555
H46 C25 1_555 1_555
C26 C25 1_555 1_555
C27 C13 1_555 1_555
H47 C27 1_555 1_555
C28 C27 1_555 1_555
C29 C28 1_555 1_555
H48 C29 1_555 1_555
C30 C29 1_555 1_555
C31 C6 1_555 1_555
H49 C31 1_555 1_555
C32 C31 1_555 1_555
C33 C32 1_555 1_555
H50 C33 1_555 1_555
C34 C33 1_555 1_555
C35 C21 1_555 1_555
H51 C35 1_555 1_555
C36 C37 1_555 1_555
C37 H52 1_555 1_555
C38 C11 1_555 1_555
C39 C24 1_555 1_555
C40 C39 1_555 1_555
H53 C40 1_555 1_555
C41 C26 1_555 1_555
C42 C28 1_555 1_555
C43 C42 1_555 1_555
H54 C43 1_555 1_555
C44 C30 1_555 1_555
C45 C32 1_555 1_555
C46 C45 1_555 1_555
H55 C46 1_555 1_555
C47 C34 1_555 1_555
C48 O7 1_555 1_555
C49 O6 1_555 1_555
C50 N4 1_555 1_555
C51 C50 1_555 1_555
H56 C51 1_555 1_555
C52 C51 1_555 1_555
H57 C52 1_555 1_555
C53 C52 1_555 1_555
H58 C53 1_555 1_555
C54 C53 1_555 1_555
H59 C54 1_555 1_555
C55 N3 1_555 1_555
C56 O11 1_555 1_555
C57 O10 1_555 1_555
C58 N2 1_555 1_555
C59 C58 1_555 1_555
H60 C59 1_555 1_555
C60 C59 1_555 1_555
H61 C60 1_555 1_555
C61 C60 1_555 1_555
H62 C61 1_555 1_555
C62 C61 1_555 1_555
H63 C62 1_555 1_555
C63 N1 1_555 1_555
C64 O9 1_555 1_555
C65 O8 1_555 1_555
C66 C65 1_555 1_555
C67 C66 1_555 1_555
C68 C67 1_555 1_555
C69 C64 1_555 1_555
C70 C67 1_555 1_555
H64 C70 1_555 1_555
C71 C70 1_555 1_555
C72 C71 1_555 1_555
H65 C72 1_555 1_555
C73 C72 1_555 1_555
H66 C73 1_555 1_555
C74 C73 1_555 1_555
H67 C74 1_555 1_555
C75 C74 1_555 1_555
H68 C75 1_555 1_555
C76 C71 1_555 1_555
C77 C68 1_555 1_555
H69 C77 1_555 1_555
C78 C77 1_555 1_555
C79 C78 1_555 1_555
H70 C79 1_555 1_555
C80 C79 1_555 1_555
H71 C80 1_555 1_555
C81 C80 1_555 1_555
H72 C81 1_555 1_555
C82 C81 1_555 1_555
H73 C82 1_555 1_555
C83 C70 1_555 1_555
C84 O5 1_555 1_555
C85 O12 1_555 1_555
C86 C85 1_555 1_555
C87 C86 1_555 1_555
C88 C87 1_555 1_555
C89 C84 1_555 1_555
C90 C87 1_555 1_555
H74 C90 1_555 1_555
C91 C90 1_555 1_555
C92 C91 1_555 1_555
H75 C92 1_555 1_555
C93 C92 1_555 1_555
H76 C93 1_555 1_555
C94 C93 1_555 1_555
H77 C94 1_555 1_555
C95 C94 1_555 1_555
H78 C95 1_555 1_555
C96 C91 1_555 1_555
C97 C88 1_555 1_555
H79 C97 1_555 1_555
C98 C97 1_555 1_555
C99 C98 1_555 1_555
H80 C99 1_555 1_555
C100 C99 1_555 1_555
H81 C100 1_555 1_555
C101 C100 1_555 1_555
H82 C101 1_555 1_555
C102 C101 1_555 1_555
H83 C102 1_555 1_555
C103 C90 1_555 1_555
C104 C22 1_555 1_555
C105 H84 1_555 1_555
H85 C105 1_555 1_555
H86 C105 1_555 1_555
C106 C105 1_555 1_555
H87 C106 1_555 1_555
H88 C106 1_555 1_555
C107 C106 1_555 1_555
H89 C107 1_555 1_555
H90 C107 1_555 1_555
C108 C20 1_555 1_555
H91 C108 1_555 1_555
H92 C108 1_555 1_555
C109 H93 1_555 1_555
C110 C109 1_555 1_555
C111 C110 1_555 1_555
H94 C111 1_555 1_555
C112 C111 1_555 1_555
C113 C112 1_555 1_555
H95 C113 1_555 1_555
C114 C109 1_555 1_555
C115 C114 1_555 1_555
H96 C115 1_555 1_555
H97 C115 1_555 1_555
H98 C115 1_555 1_555
C116 C110 1_555 1_555
H99 C116 1_555 1_555
H100 C116 1_555 1_555
H101 C116 1_555 1_555
C117 C112 1_555 1_555
H102 C117 1_555 1_555
H103 C117 1_555 1_555
H104 C117 1_555 1_555
C118 C119 1_555 1_555
C119 H105 1_555 1_555
C120 C119 1_555 1_555
C121 C120 1_555 1_555
H106 C121 1_555 1_555
C122 C121 1_555 1_555
C123 C118 1_555 1_555
H107 C123 1_555 1_555
C124 C118 1_555 1_555
H108 C124 1_555 1_555
H109 C124 1_555 1_555
H110 C124 1_555 1_555
C125 C120 1_555 1_555
H111 C125 1_555 1_555
H112 C125 1_555 1_555
H113 C125 1_555 1_555
C126 C122 1_555 1_555
H114 C126 1_555 1_555
H115 C126 1_555 1_555
H116 C126 1_555 1_555
C127 C128 1_555 1_555
C128 H117 1_555 1_555
C129 C128 1_555 1_555
C130 C129 1_555 1_555
H118 C130 1_555 1_555
H119 C130 1_555 1_555
H120 C130 1_555 1_555
C131 C132 1_555 1_555
C132 H121 1_555 1_555
H122 C132 1_555 1_555
H123 C132 1_555 1_555
C133 C127 1_555 1_555
H124 C133 1_555 1_555
C134 C129 1_555 1_555
H125 C134 1_555 1_555
C135 C127 1_555 1_555
H126 C135 1_555 1_555
H127 C135 1_555 1_555
H128 C135 1_555 1_555
S1 C136 1_555 1_555
S2 C137 1_555 1_555
C136 H129 1_555 1_555
H130 C136 1_555 1_555
C137 C136 1_555 1_555
H131 C137 1_555 1_555
H132 C137 1_555 1_555
C138 S2 1_555 1_555
H133 C138 1_555 1_555
H134 C138 1_555 1_555
C139 S1 1_555 1_555
H135 C139 1_555 1_555
H136 C139 1_555 1_555
C109A H93A 1_555 1_555
C110A C109A 1_555 1_555
C111A C110A 1_555 1_555
H94A C111A 1_555 1_555
C112A C111A 1_555 1_555
C113A C112A 1_555 1_555
H95A C113A 1_555 1_555
C114A C109A 1_555 1_555
C115A C114A 1_555 1_555
H96A C115A 1_555 1_555
H97A C115A 1_555 1_555
H98A C115A 1_555 1_555
C116A C110A 1_555 1_555
H99A C116A 1_555 1_555
H100A C116A 1_555 1_555
H101A C116A 1_555 1_555
C117A C112A 1_555 1_555
H102A C117A 1_555 1_555
H103A C117A 1_555 1_555
H104A C117A 1_555 1_555
C19 C23 1_555 1_555
C26 C27 1_555 1_555
C30 C31 1_555 1_555
C34 C35 1_555 1_555
C35 C104 1_555 1_555
C36 C104 1_555 1_555
C37 C38 1_555 1_555
C40 C41 1_555 1_555
C43 C44 1_555 1_555
C46 C47 1_555 1_555
C48 C49 1_555 1_555
C50 C55 1_555 1_555
C54 C55 1_555 1_555
C56 C57 1_555 1_555
C58 C63 1_555 1_555
C62 C63 1_555 1_555
C64 C65 1_555 1_555
C68 C69 1_555 1_555
C75 C76 1_555 1_555
C76 C77 1_555 1_555
C78 C83 1_555 1_555
C82 C83 1_555 1_555
C84 C85 1_555 1_555
C88 C89 1_555 1_555
C95 C96 1_555 1_555
C96 C97 1_555 1_555
C98 C103 1_555 1_555
C102 C103 1_555 1_555
C107 C108 1_555 1_555
C113 C114 1_555 1_555
C122 C123 1_555 1_555
C131 C133 1_555 1_555
C131 C134 1_555 1_555
C138 C139 1_555 1_555
C113A C114A 1_555 1_555

#END
