
#######################################################################
#
#                 Cambridge Crystallographic Data Centre
#                                CCDC 
#
#######################################################################
#
# If this CIF has been generated from an entry in the Cambridge 
# Structural Database, then it will include bibliographic, chemical, 
# crystal, experimental, refinement or atomic coordinate data resulting 
# from the CCDC's data processing and validation procedures.
#
#######################################################################

data_ORADIW
_chemical_formula_moiety         'C53 H56 Cl4 Mg1 N8 O5,C1 H4 O1'
_chemical_name_systematic        
'(methanol)-(2,3,16,17-tetrachloro-8,11,22,25-tetrakis(pentoxy)-29H,31H-phthalocyaninato)-magnesium(ii) methanol solvate'
_symmetry_cell_setting           triclinic
_symmetry_space_group_name_H-M   'P -1'
_symmetry_Int_Tables_number      2
_space_group_name_Hall           '-P 1'
loop_
_symmetry_equiv_pos_site_id
_symmetry_equiv_pos_as_xyz
1 x,y,z
2 -x,-y,-z
_cell_length_a                   11.3936(12)
_cell_length_b                   15.0984(10)
_cell_length_c                   16.4187(15)
_cell_angle_alpha                83.898(7)
_cell_angle_beta                 89.844(8)
_cell_angle_gamma                69.577(8)
_cell_volume                     2630.1
_exptl_crystal_colour            green
_exptl_crystal_description       block
_cell_formula_units_Z            2
loop_
_atom_site_label
_atom_site_type_symbol
_atom_site_fract_x
_atom_site_fract_y
_atom_site_fract_z
Mg1 Mg 0.26160(6) 0.64974(5) 0.45556(4)
C1 C 0.5640(2) 0.21612(15) 0.35348(14)
H1 H 0.6108 0.1697 0.3197
C2 C 0.47721(19) 0.37691(15) 0.38292(13)
C3 C 0.24145(19) 0.85721(14) 0.44644(13)
C4 C 0.43839(19) 0.47978(15) 0.37792(13)
C5 C 0.36268(19) 0.43396(14) 0.49314(13)
C6 C 0.34981(19) 0.77830(15) 0.33729(13)
C7 C 0.42943(19) 0.34768(15) 0.45534(13)
C8 C 0.46022(19) 0.68420(15) 0.24190(13)
C9 C 0.43144(19) 0.62729(15) 0.31148(13)
C10 C 0.17668(19) 0.66309(15) 0.63031(13)
C11 C 0.19615(19) 0.51149(15) 0.68177(13)
C12 C 0.4084(2) 0.77894(16) 0.25813(14)
C13 C 0.4160(2) 0.13480(15) 0.57974(14)
H2 H 0.5068 0.1001 0.5908
H3 H 0.3845 0.1017 0.5409
C14 C 0.1468(2) 0.91235(16) 0.56373(14)
C15 C 0.5202(2) 0.65882(17) 0.16964(14)
H4 H 0.5567 0.5941 0.1600
C16 C 0.1902(2) 0.94206(15) 0.48970(14)
C17 C 0.15109(19) 0.60540(15) 0.70057(13)
C18 C 0.2021(2) 1.16129(15) 0.37484(15)
H5 H 0.2381 1.1867 0.4177
H6 H 0.1106 1.1966 0.3700
C19 C 0.7213(2) 0.29692(19) 0.05550(15)
H7 H 0.8102 0.2659 0.0743
H8 H 0.6889 0.2463 0.0444
C20 C 0.17234(19) 0.81084(15) 0.56438(13)
C21 C 0.1186(2) 1.10119(15) 0.52526(15)
H9 H 0.1068 1.1667 0.5127
C22 C 0.6472(2) 0.35016(17) 0.12368(15)
H10 H 0.6839 0.3974 0.1376
H11 H 0.5599 0.3854 0.1032
C23 C 0.0898(2) 0.97654(16) 0.62070(14)
C24 C 0.24973(19) 0.51309(15) 0.60106(13)
C25 C 0.6453(2) 0.28623(16) 0.20035(14)
H12 H 0.5978 0.2446 0.1899
H13 H 0.7318 0.2457 0.2192
C26 C 0.1786(2) 1.03764(15) 0.46958(14)
C27 C 0.51576(19) 0.18678(15) 0.42536(14)
H14 H 0.5298 0.1211 0.4391
C28 C 0.44740(19) 0.25179(15) 0.47755(13)
C29 C 0.5244(2) 0.73181(18) 0.11222(14)
C30 C 0.7138(3) 0.3615(2) -0.02355(16)
H15 H 0.6250 0.3910 -0.0429
H16 H 0.7435 0.4133 -0.0118
C31 C -0.0243(3) 0.9361(2) 0.82449(19)
H17 H -0.0627 0.8906 0.8085
H18 H 0.0612 0.8991 0.8473
C32 C 0.2607(2) 1.17410(16) 0.29417(15)
H19 H 0.2199 1.1532 0.2506
H20 H 0.3508 1.1342 0.2979
C33 C 0.54572(19) 0.31110(15) 0.32991(13)
C34 C 0.3453(2) 0.14145(15) 0.65853(14)
H21 H 0.3726 0.1808 0.6935
H22 H 0.2548 0.1743 0.6451
C35 C 0.2464(2) 1.27839(16) 0.27207(15)
H23 H 0.1567 1.3179 0.2739
H24 H 0.2925 1.2970 0.3142
C36 C 0.4719(2) 0.82671(18) 0.12799(15)
C37 C 0.3642(2) 0.04605(16) 0.70677(15)
H25 H 0.4549 0.0113 0.7178
H26 H 0.3317 0.0080 0.6736
C38 C 0.2936(2) 1.30048(18) 0.18825(16)
H27 H 0.2454 1.2848 0.1455
H28 H 0.3827 1.2600 0.1853
C39 C 0.2976(3) 0.05669(18) 0.78796(16)
H29 H 0.3315 0.0936 0.8215
H30 H 0.2072 0.0929 0.7769
C40 C 0.4151(2) 0.85164(17) 0.20131(15)
H31 H 0.3822 0.9162 0.2121
C41 C -0.0999(4) 0.9907(3) 0.8886(2)
H32 H -0.1879 1.0212 0.8678
H33 H -0.0680 1.0418 0.8990
C42 C 0.0754(2) 1.07090(16) 0.59905(15)
H34 H 0.0351 1.1164 0.6353
C43 C 0.2809(3) 1.40497(19) 0.17107(17)
H35 H 0.1930 1.4453 0.1748
H36 H 0.3093 1.4167 0.1159
H37 H 0.3323 1.4199 0.2115
C44 C -0.0161(2) 1.0021(2) 0.74807(16)
H38 H -0.1008 1.0401 0.7243
H39 H 0.0264 1.0458 0.7620
C45 C 0.7902(3) 0.3108(3) -0.09178(18)
H40 H 0.8795 0.2883 -0.0760
H41 H 0.7744 0.3549 -0.1421
H42 H 0.7658 0.2564 -0.1012
C46 C -0.0965(5) 0.9286(3) 0.9700(2)
H43 H -0.0081 0.8967 0.9894
H44 H -0.1401 0.9706 1.0113
C47 C 0.3133(3) -0.0386(2) 0.83613(18)
H45 H 0.2752 -0.0738 0.8046
H46 H 0.2721 -0.0281 0.8885
H47 H 0.4027 -0.0753 0.8464
C48 C 0.0960(2) 0.62868(16) 0.77452(14)
H48 H 0.0670 0.6925 0.7874
C49 C 0.0848(2) 0.55538(17) 0.82920(14)
C50 C 0.1264(2) 0.46131(17) 0.80910(14)
C51 C 0.1844(2) 0.43813(16) 0.73585(14)
H49 H 0.2150 0.3743 0.7232
C52 C -0.1548(5) 0.8545(3) 0.9655(3)
H50 H -0.2404 0.8844 0.9421
H51 H -0.1569 0.8233 1.0207
H52 H -0.1053 0.8070 0.9307
C53 C 0.0942(3) 0.6438(4) 0.31060(19)
H53 H 0.1707 0.6451 0.2839
H54 H 0.0213 0.6932 0.2822
H55 H 0.0868 0.5813 0.3084
Cl1 Cl 0.59206(6) 0.70354(5) 0.01915(4)
Cl2 Cl 0.47354(8) 0.91702(5) 0.05405(4)
Cl3 Cl 0.01974(6) 0.58158(5) 0.92306(3)
Cl4 Cl 0.10505(6) 0.37191(4) 0.87579(4)
N1 N 0.36932(16) 0.51122(12) 0.44439(11)
N2 N 0.36323(16) 0.68668(12) 0.36583(11)
N3 N 0.22693(16) 0.78134(12) 0.49287(11)
N4 N 0.23417(16) 0.60456(12) 0.57223(11)
N5 N 0.30503(16) 0.43413(12) 0.56460(11)
N6 N 0.14623(16) 0.75648(13) 0.62696(11)
N7 N 0.29452(17) 0.85697(12) 0.37343(11)
N8 N 0.46577(16) 0.53367(12) 0.31567(11)
O1 O 0.39270(15) 0.23165(11) 0.54745(10)
O2 O 0.58582(14) 0.34749(11) 0.26091(9)
O3 O 0.22587(15) 1.06158(11) 0.39720(10)
O4 O 0.05525(17) 0.93950(12) 0.69184(11)
O5 O 0.09984(14) 0.66089(12) 0.39386(9)
H56 H 0.0352 0.6602 0.4184
C54 C 0.0911(2) 0.39503(19) 0.45534(16)
H57 H 0.0803 0.4623 0.4554
H58 H 0.0164 0.3898 0.4299
H59 H 0.1647 0.3638 0.4242
O6 O 0.10807(15) 0.35050(13) 0.53713(11)
H60 H 0.1770 0.3485 0.5569
loop_
_geom_bond_atom_site_label_1
_geom_bond_atom_site_label_2
_geom_bond_site_symmetry_1
_geom_bond_site_symmetry_2
Mg1 N1 1_555 1_555
C1 H1 1_555 1_555
C2 C4 1_555 1_555
C3 C16 1_555 1_555
C4 N1 1_555 1_555
C5 C7 1_555 1_555
C6 C12 1_555 1_555
C7 C2 1_555 1_555
C8 C9 1_555 1_555
C9 N2 1_555 1_555
C10 C17 1_555 1_555
C11 C17 1_555 1_555
C12 C8 1_555 1_555
C13 H2 1_555 1_555
H3 C13 1_555 1_555
C14 C16 1_555 1_555
C15 C8 1_555 1_555
H4 C15 1_555 1_555
C16 C26 1_555 1_555
C17 C48 1_555 1_555
C18 H5 1_555 1_555
H6 C18 1_555 1_555
C19 H7 1_555 1_555
H8 C19 1_555 1_555
C20 C14 1_555 1_555
C21 H9 1_555 1_555
C22 C19 1_555 1_555
H10 C22 1_555 1_555
H11 C22 1_555 1_555
C23 C14 1_555 1_555
C24 C11 1_555 1_555
C25 C22 1_555 1_555
H12 C25 1_555 1_555
H13 C25 1_555 1_555
C26 C21 1_555 1_555
C27 C1 1_555 1_555
H14 C27 1_555 1_555
C28 C7 1_555 1_555
C29 C15 1_555 1_555
C30 C19 1_555 1_555
H15 C30 1_555 1_555
H16 C30 1_555 1_555
C31 H17 1_555 1_555
H18 C31 1_555 1_555
C32 C18 1_555 1_555
H19 C32 1_555 1_555
H20 C32 1_555 1_555
C33 C1 1_555 1_555
C34 C13 1_555 1_555
H21 C34 1_555 1_555
H22 C34 1_555 1_555
C35 C32 1_555 1_555
H23 C35 1_555 1_555
H24 C35 1_555 1_555
C36 C29 1_555 1_555
C37 C34 1_555 1_555
H25 C37 1_555 1_555
H26 C37 1_555 1_555
C38 C35 1_555 1_555
H27 C38 1_555 1_555
H28 C38 1_555 1_555
C39 C37 1_555 1_555
H29 C39 1_555 1_555
H30 C39 1_555 1_555
C40 C12 1_555 1_555
H31 C40 1_555 1_555
C41 C31 1_555 1_555
H32 C41 1_555 1_555
H33 C41 1_555 1_555
C42 C21 1_555 1_555
H34 C42 1_555 1_555
C43 C38 1_555 1_555
H35 C43 1_555 1_555
H36 C43 1_555 1_555
H37 C43 1_555 1_555
C44 C31 1_555 1_555
H38 C44 1_555 1_555
H39 C44 1_555 1_555
C45 C30 1_555 1_555
H40 C45 1_555 1_555
H41 C45 1_555 1_555
H42 C45 1_555 1_555
C46 C41 1_555 1_555
H43 C46 1_555 1_555
H44 C46 1_555 1_555
C47 C39 1_555 1_555
H45 C47 1_555 1_555
H46 C47 1_555 1_555
H47 C47 1_555 1_555
C48 H48 1_555 1_555
C49 C48 1_555 1_555
C50 C49 1_555 1_555
C51 C11 1_555 1_555
H49 C51 1_555 1_555
C52 C46 1_555 1_555
H50 C52 1_555 1_555
H51 C52 1_555 1_555
H52 C52 1_555 1_555
C53 H53 1_555 1_555
H54 C53 1_555 1_555
H55 C53 1_555 1_555
Cl1 C29 1_555 1_555
Cl2 C36 1_555 1_555
Cl3 C49 1_555 1_555
Cl4 C50 1_555 1_555
N1 C5 1_555 1_555
N2 Mg1 1_555 1_555
N3 Mg1 1_555 1_555
N4 Mg1 1_555 1_555
N5 C5 1_555 1_555
N6 C10 1_555 1_555
N7 C3 1_555 1_555
N8 C4 1_555 1_555
O1 C13 1_555 1_555
O2 C25 1_555 1_555
O3 C18 1_555 1_555
O4 C23 1_555 1_555
O5 Mg1 1_555 1_555
H56 O5 1_555 1_555
C54 H57 1_555 1_555
H58 C54 1_555 1_555
H59 C54 1_555 1_555
O6 C54 1_555 1_555
H60 O6 1_555 1_555
C2 C33 1_555 1_555
C3 N3 1_555 1_555
C6 N2 1_555 1_555
C6 N7 1_555 1_555
C9 N8 1_555 1_555
C10 N4 1_555 1_555
C20 N3 1_555 1_555
C20 N6 1_555 1_555
C23 C42 1_555 1_555
C24 N4 1_555 1_555
C24 N5 1_555 1_555
C26 O3 1_555 1_555
C27 C28 1_555 1_555
C28 O1 1_555 1_555
C33 O2 1_555 1_555
C36 C40 1_555 1_555
C44 O4 1_555 1_555
C50 C51 1_555 1_555
C53 O5 1_555 1_555

#END
