
#######################################################################
#
#                 Cambridge Crystallographic Data Centre
#                                CCDC 
#
#######################################################################
#
# If this CIF has been generated from an entry in the Cambridge 
# Structural Database, then it will include bibliographic, chemical, 
# crystal, experimental, refinement or atomic coordinate data resulting 
# from the CCDC's data processing and validation procedures.
#
#######################################################################

data_ORAREG
_chemical_compound_source        'Aspergillus terreus'
_chemical_name_common            'asperterpene C'
_chemical_formula_moiety         'C26 H34 O7,0.5(C1 H4 O1)'
_chemical_name_systematic        
'methyl 16-hydroxy-4,4,8,16-tetramethyl-12-methylene-3,6,15,17-tetraoxoandrostane-14-carboxylate methanol solvate'
_symmetry_cell_setting           orthorhombic
_symmetry_space_group_name_H-M   'P 21 21 2'
_symmetry_Int_Tables_number      18
_space_group_name_Hall           'P 2 2ab'
loop_
_symmetry_equiv_pos_site_id
_symmetry_equiv_pos_as_xyz
1 x,y,z
2 1/2+x,1/2-y,-z
3 1/2-x,1/2+y,-z
4 -x,-y,z
_cell_length_a                   15.9092(4)
_cell_length_b                   18.9397(5)
_cell_length_c                   8.0829(2)
_cell_angle_alpha                90
_cell_angle_beta                 90
_cell_angle_gamma                90
_cell_volume                     2435.5
_exptl_crystal_colour            colorless
_exptl_crystal_description       block
_cell_formula_units_Z            4
loop_
_atom_site_label
_atom_site_type_symbol
_atom_site_fract_x
_atom_site_fract_y
_atom_site_fract_z
C1 C 0.46727(13) 0.21237(10) 0.5193(3)
H1 H 0.4898 0.1684 0.4767
H2 H 0.4354 0.2346 0.4312
C2 C 0.54048(15) 0.26083(12) 0.5672(3)
H3 H 0.5778 0.2662 0.4732
H4 H 0.5188 0.3071 0.5957
C3 C 0.58876(13) 0.23183(10) 0.7106(3)
C4 C 0.53932(13) 0.21593(10) 0.8673(3)
C5 C 0.46305(11) 0.16944(8) 0.8106(2)
H5 H 0.4888 0.1259 0.7693
C6 C 0.40542(13) 0.14519(10) 0.9476(2)
C7 C 0.35373(12) 0.08136(10) 0.9020(2)
H6 H 0.3176 0.0690 0.9942
H7 H 0.3909 0.0418 0.8811
C8 C 0.29898(11) 0.09486(9) 0.7466(2)
C9 C 0.35123(11) 0.13192(8) 0.6094(2)
H8 H 0.3906 0.0960 0.5690
C10 C 0.40737(12) 0.19578(8) 0.6644(2)
C11 C 0.29535(13) 0.14982(10) 0.4617(2)
H9 H 0.2647 0.1927 0.4880
H10 H 0.3316 0.1604 0.3684
C12 C 0.23255(11) 0.09507(9) 0.4068(2)
C13 C 0.20807(11) 0.03147(9) 0.5165(2)
C14 C 0.26933(10) 0.02305(8) 0.6691(2)
C15 C 0.34179(11) -0.02407(8) 0.5991(2)
C16 C 0.31935(14) -0.05470(9) 0.4314(2)
C17 C 0.22757(14) -0.03439(10) 0.4111(3)
C18 C 0.51778(17) 0.28678(13) 0.9516(4)
H11 H 0.4849 0.2780 1.0491
H12 H 0.4862 0.3157 0.8764
H13 H 0.5688 0.3106 0.9817
C19 C 0.59311(15) 0.17234(14) 0.9860(3)
H14 H 0.6068 0.1279 0.9354
H15 H 0.5624 0.1641 1.0864
H16 H 0.6439 0.1976 1.0107
C20 C 0.22288(12) 0.13954(11) 0.8016(3)
H17 H 0.1852 0.1108 0.8652
H18 H 0.1942 0.1573 0.7058
H19 H 0.2420 0.1784 0.8681
C21 C 0.35680(14) 0.26268(10) 0.7084(3)
H20 H 0.3925 0.3034 0.6990
H21 H 0.3363 0.2590 0.8197
H22 H 0.3102 0.2673 0.6337
C22 C 0.19653(15) 0.10252(11) 0.2612(3)
H23 H 0.2100 0.1409 0.1947
H24 H 0.1576 0.0693 0.2249
C23 C 0.11432(13) 0.03402(13) 0.5586(3)
H25 H 0.1027 0.0757 0.6223
H26 H 0.0994 -0.0071 0.6216
H27 H 0.0821 0.0351 0.4582
C24 C 0.37361(16) -0.02213(11) 0.2962(3)
H28 H 0.4314 -0.0341 0.3151
H29 H 0.3673 0.0283 0.2979
H30 H 0.3563 -0.0400 0.1904
C25 C 0.22609(11) -0.02575(10) 0.7951(3)
C26 C 0.17177(18) -0.14127(13) 0.8263(4)
H31 H 0.1949 -0.1426 0.9359
H32 H 0.1767 -0.1871 0.7764
H33 H 0.1136 -0.1281 0.8319
O1 O 0.66363(10) 0.22146(9) 0.7011(2)
O2 O 0.39987(12) 0.17283(10) 1.0809(2)
O3 O 0.17776(12) -0.06519(8) 0.3269(2)
O4 O 0.33349(12) -0.12839(7) 0.4220(2)
H34 H 0.3106 -0.1480 0.5005
O5 O 0.40622(9) -0.03732(7) 0.67079(18)
O6 O 0.20255(12) -0.01138(9) 0.9295(2)
O7 O 0.21723(10) -0.09003(7) 0.7276(2)
C27? C 0.498(2) 0.5065(9) 0.9480(12)
H35? H 0.5074 0.4840 1.0529
H36? H 0.4522 0.5390 0.9572
H37? H 0.5481 0.5315 0.9157
O8? O 0.4789(4) 0.4545(4) 0.8270(9)
H38? H 0.4318 0.4386 0.8447
loop_
_geom_bond_atom_site_label_1
_geom_bond_atom_site_label_2
_geom_bond_site_symmetry_1
_geom_bond_site_symmetry_2
C1 H1 1_555 1_555
H2 C1 1_555 1_555
C2 C1 1_555 1_555
H3 C2 1_555 1_555
H4 C2 1_555 1_555
C3 C2 1_555 1_555
C4 C3 1_555 1_555
C5 C4 1_555 1_555
H5 C5 1_555 1_555
C6 C5 1_555 1_555
C7 C6 1_555 1_555
H6 C7 1_555 1_555
H7 C7 1_555 1_555
C8 C7 1_555 1_555
C9 C8 1_555 1_555
H8 C9 1_555 1_555
C10 C1 1_555 1_555
C11 C9 1_555 1_555
H9 C11 1_555 1_555
H10 C11 1_555 1_555
C12 C11 1_555 1_555
C13 C12 1_555 1_555
C14 C8 1_555 1_555
C15 C14 1_555 1_555
C16 C15 1_555 1_555
C17 C13 1_555 1_555
C18 C4 1_555 1_555
H11 C18 1_555 1_555
H12 C18 1_555 1_555
H13 C18 1_555 1_555
C19 C4 1_555 1_555
H14 C19 1_555 1_555
H15 C19 1_555 1_555
H16 C19 1_555 1_555
C20 C8 1_555 1_555
H17 C20 1_555 1_555
H18 C20 1_555 1_555
H19 C20 1_555 1_555
C21 C10 1_555 1_555
H20 C21 1_555 1_555
H21 C21 1_555 1_555
H22 C21 1_555 1_555
C22 C12 1_555 1_555
H23 C22 1_555 1_555
H24 C22 1_555 1_555
C23 C13 1_555 1_555
H25 C23 1_555 1_555
H26 C23 1_555 1_555
H27 C23 1_555 1_555
C24 C16 1_555 1_555
H28 C24 1_555 1_555
H29 C24 1_555 1_555
H30 C24 1_555 1_555
C25 C14 1_555 1_555
C26 H31 1_555 1_555
H32 C26 1_555 1_555
H33 C26 1_555 1_555
O1 C3 1_555 1_555
O2 C6 1_555 1_555
O3 C17 1_555 1_555
O4 C16 1_555 1_555
H34 O4 1_555 1_555
O5 C15 1_555 1_555
O6 C25 1_555 1_555
O7 C25 1_555 1_555
C5 C10 1_555 1_555
C9 C10 1_555 1_555
C13 C14 1_555 1_555
C16 C17 1_555 1_555
C26 O7 1_555 1_555

#END
