
#######################################################################
#
#                 Cambridge Crystallographic Data Centre
#                                CCDC 
#
#######################################################################
#
# If this CIF has been generated from an entry in the Cambridge 
# Structural Database, then it will include bibliographic, chemical, 
# crystal, experimental, refinement or atomic coordinate data resulting 
# from the CCDC's data processing and validation procedures.
#
#######################################################################

data_OREJUS
_chemical_formula_moiety         'C22 H25 N1 O4'
_chemical_name_systematic        
'Ethyl (2R*,3S*,5aS*,9aS*,9bR*)-5-benzyl-4-oxo-2-vinyl-2,3,3a,4,5,5a,6,7-octahydrofuro[3,2-c]indole-3-carboxylate'
_symmetry_cell_setting           monoclinic
_symmetry_space_group_name_H-M   'P 21/c'
_symmetry_Int_Tables_number      14
_space_group_name_Hall           '-P 2ybc'
loop_
_symmetry_equiv_pos_site_id
_symmetry_equiv_pos_as_xyz
1 x,y,z
2 -x,1/2+y,1/2-z
3 -x,-y,-z
4 x,1/2-y,1/2+z
_cell_length_a                   11.06181(17)
_cell_length_b                   9.47232(16)
_cell_length_c                   18.5215(2)
_cell_angle_alpha                90
_cell_angle_beta                 97.9172(13)
_cell_angle_gamma                90
_cell_volume                     1922.2
_exptl_crystal_colour            colorless
_exptl_crystal_description       plate
_cell_formula_units_Z            4
loop_
_atom_site_label
_atom_site_type_symbol
_atom_site_fract_x
_atom_site_fract_y
_atom_site_fract_z
O1 O 0.11100(8) 0.26997(10) 0.31475(5)
N1 N 0.04846(9) 0.12652(12) 0.21640(6)
C1 C 0.13049(11) 0.17888(14) 0.27089(6)
O2 O 0.26400(8) 0.15727(10) 0.14469(5)
C2 C 0.09872(11) 0.01017(14) 0.17845(6)
H1 H 0.0847 -0.0773 0.2043
O3 O 0.35937(9) 0.45095(11) 0.31184(5)
C3 C 0.23505(11) 0.04153(13) 0.19148(6)
O4 O 0.40540(9) 0.26619(11) 0.38698(5)
C4 C 0.25445(11) 0.10681(13) 0.26745(6)
H2 H 0.2750 0.0367 0.3061
C5 C -0.08189(11) 0.15539(14) 0.20934(7)
H3 H -0.1015 0.1903 0.2556
H4 H -0.1262 0.0679 0.1986
C6 C -0.12434(12) 0.26229(14) 0.15023(7)
C7 C -0.24285(12) 0.25467(15) 0.11324(8)
H5 H -0.2952 0.1836 0.1245
C8 C -0.28286(13) 0.35311(16) 0.05964(8)
H6 H -0.3619 0.3472 0.0351
C9 C -0.20657(15) 0.45964(16) 0.04244(8)
H7 H -0.2338 0.5251 0.0064
C10 C -0.08887(14) 0.46812(17) 0.07937(8)
H8 H -0.0371 0.5399 0.0683
C11 C -0.04826(13) 0.36991(16) 0.13268(8)
H9 H 0.0309 0.3762 0.1570
C12 C 0.05802(12) -0.01396(14) 0.09801(7)
H10 H 0.0816 0.0650 0.0696
H11 H -0.0299 -0.0249 0.0884
C13 C 0.12248(13) -0.15045(15) 0.07839(7)
H12 H 0.0740 -0.2308 0.0897
H13 H 0.1252 -0.1513 0.0263
C14 C 0.25079(13) -0.16836(15) 0.11738(7)
H14 H 0.2968 -0.2427 0.1028
C15 C 0.30305(12) -0.08576(15) 0.17098(7)
H15 H 0.3803 -0.1067 0.1952
C16 C 0.35663(11) 0.21426(14) 0.26325(6)
H16 H 0.4340 0.1632 0.2648
C17 C 0.32114(11) 0.27340(14) 0.18630(7)
H17 H 0.2616 0.3496 0.1878
C18 C 0.42582(12) 0.32623(15) 0.15069(7)
H18 H 0.4857 0.2622 0.1416
C19 C 0.43752(14) 0.45843(17) 0.13155(8)
H19 H 0.3789 0.5245 0.1400
H20 H 0.5044 0.4860 0.1095
C20 C 0.37137(11) 0.32599(15) 0.32203(7)
C21 C 0.41797(15) 0.36209(19) 0.44901(8)
H21 H 0.4555 0.4493 0.4360
H22 H 0.4708 0.3198 0.4894
C22 C 0.29589(15) 0.39382(17) 0.47210(8)
H23 H 0.2456 0.4418 0.4333
H24 H 0.3068 0.4528 0.5147
H25 H 0.2572 0.3072 0.4831
loop_
_geom_bond_atom_site_label_1
_geom_bond_atom_site_label_2
_geom_bond_site_symmetry_1
_geom_bond_site_symmetry_2
O1 C1 1_555 1_555
N1 C1 1_555 1_555
C1 C4 1_555 1_555
O2 C3 1_555 1_555
C2 N1 1_555 1_555
H1 C2 1_555 1_555
O3 C20 1_555 1_555
C3 C2 1_555 1_555
O4 C20 1_555 1_555
C4 C3 1_555 1_555
H2 C4 1_555 1_555
C5 N1 1_555 1_555
H3 C5 1_555 1_555
H4 C5 1_555 1_555
C6 C5 1_555 1_555
C7 C6 1_555 1_555
H5 C7 1_555 1_555
C8 C7 1_555 1_555
H6 C8 1_555 1_555
C9 C8 1_555 1_555
H7 C9 1_555 1_555
C10 C9 1_555 1_555
H8 C10 1_555 1_555
C11 C6 1_555 1_555
H9 C11 1_555 1_555
C12 C2 1_555 1_555
H10 C12 1_555 1_555
H11 C12 1_555 1_555
C13 C12 1_555 1_555
H12 C13 1_555 1_555
H13 C13 1_555 1_555
C14 C13 1_555 1_555
H14 C14 1_555 1_555
C15 C3 1_555 1_555
H15 C15 1_555 1_555
C16 C4 1_555 1_555
H16 C16 1_555 1_555
C17 O2 1_555 1_555
H17 C17 1_555 1_555
C18 C17 1_555 1_555
H18 C18 1_555 1_555
C19 C18 1_555 1_555
H19 C19 1_555 1_555
H20 C19 1_555 1_555
C20 C16 1_555 1_555
C21 O4 1_555 1_555
H21 C21 1_555 1_555
H22 C21 1_555 1_555
C22 C21 1_555 1_555
H23 C22 1_555 1_555
H24 C22 1_555 1_555
H25 C22 1_555 1_555
C10 C11 1_555 1_555
C14 C15 1_555 1_555
C16 C17 1_555 1_555

#END
