
#######################################################################
#
#                 Cambridge Crystallographic Data Centre
#                                CCDC 
#
#######################################################################
#
# If this CIF has been generated from an entry in the Cambridge 
# Structural Database, then it will include bibliographic, chemical, 
# crystal, experimental, refinement or atomic coordinate data resulting 
# from the CCDC's data processing and validation procedures.
#
#######################################################################

data_OREKIH
_chemical_formula_moiety         'C22 H28 N2 O4'
_chemical_name_systematic        
'Ethyl (1R*,2R*,10S*,11R*,12S*)-5-benzyl-9-oxo-15-oxa-5,8-diazatetracyclo[10.2.1.0^1,10^.0^2,8^]pentadecane-11-carboxylate'
_symmetry_cell_setting           monoclinic
_symmetry_space_group_name_H-M   'P 21/c'
_symmetry_Int_Tables_number      14
_space_group_name_Hall           '-P 2ybc'
loop_
_symmetry_equiv_pos_site_id
_symmetry_equiv_pos_as_xyz
1 x,y,z
2 -x,1/2+y,1/2-z
3 -x,-y,-z
4 x,1/2-y,1/2+z
_cell_length_a                   20.1612(2)
_cell_length_b                   9.24516(11)
_cell_length_c                   10.76938(15)
_cell_angle_alpha                90
_cell_angle_beta                 96.7643(12)
_cell_angle_gamma                90
_cell_volume                     1993.37
_exptl_crystal_colour            colorless
_exptl_crystal_description       plate
_cell_formula_units_Z            4
loop_
_atom_site_label
_atom_site_type_symbol
_atom_site_fract_x
_atom_site_fract_y
_atom_site_fract_z
O1 O 0.12832(5) 0.55524(10) 0.26785(9)
N1 N 0.25256(5) 0.29831(11) 0.14990(10)
C1 C 0.21191(10) 0.67251(18) 0.40555(18)
H1 H 0.2455 0.6246 0.3645
H2 H 0.2006 0.6137 0.4735
H3 H 0.2287 0.7642 0.4373
O2 O 0.06793(5) 0.66336(11) 0.10538(11)
N2 N 0.36877(5) 0.11446(12) 0.30628(11)
C2 C 0.15162(8) 0.69572(15) 0.31515(16)
H4 H 0.1172 0.7432 0.3560
H5 H 0.1623 0.7565 0.2469
O3 O 0.12326(4) 0.23877(9) 0.25705(8)
C3 C 0.09034(6) 0.55539(14) 0.15732(12)
O4 O 0.22561(4) 0.52753(10) 0.08169(9)
C4 C 0.07863(6) 0.40437(13) 0.10498(11)
H6 H 0.0440 0.4078 0.0331
C5 C 0.05946(6) 0.28884(14) 0.19940(12)
H7 H 0.0304 0.3259 0.2591
C6 C 0.03129(6) 0.15404(14) 0.12671(13)
H8 H 0.0016 0.1809 0.0529
H9 H 0.0077 0.0914 0.1789
C7 C 0.09585(6) 0.08063(14) 0.09120(12)
H10 H 0.1034 -0.0127 0.1315
H11 H 0.0947 0.0693 0.0014
C8 C 0.14797(6) 0.19190(13) 0.14290(11)
C9 C 0.14227(6) 0.33138(13) 0.06489(11)
H12 H 0.1358 0.3084 -0.0246
C10 C 0.21011(6) 0.40200(13) 0.10003(11)
C11 C 0.22212(6) 0.15641(13) 0.16610(11)
H13 H 0.2337 0.0910 0.1003
C12 C 0.24423(6) 0.08869(14) 0.29334(12)
H14 H 0.2110 0.0183 0.3113
H15 H 0.2455 0.1636 0.3566
C13 C 0.31227(6) 0.01437(14) 0.30401(13)
H16 H 0.3177 -0.0431 0.3799
H17 H 0.3132 -0.0511 0.2339
C14 C 0.36848(6) 0.19750(15) 0.19039(12)
H18 H 0.3545 0.1343 0.1203
H19 H 0.4137 0.2287 0.1827
C15 C 0.32338(6) 0.32912(14) 0.18181(13)
H20 H 0.3293 0.3791 0.2615
H21 H 0.3375 0.3943 0.1194
C16 C 0.43185(6) 0.03382(14) 0.33076(13)
H22 H 0.4400 -0.0175 0.2554
H23 H 0.4276 -0.0375 0.3954
C17 C 0.49105(6) 0.13016(14) 0.37152(12)
C18 C 0.48526(7) 0.24694(15) 0.45098(13)
H24 H 0.4436 0.2714 0.4737
C19 C 0.54097(8) 0.32734(16) 0.49667(14)
H25 H 0.5365 0.4042 0.5508
C20 C 0.60331(7) 0.29377(16) 0.46207(15)
H26 H 0.6406 0.3475 0.4932
C21 C 0.60972(7) 0.17987(16) 0.38091(14)
H27 H 0.6512 0.1576 0.3564
C22 C 0.55372(6) 0.09861(14) 0.33605(13)
H28 H 0.5583 0.0221 0.2816
loop_
_geom_bond_atom_site_label_1
_geom_bond_atom_site_label_2
_geom_bond_site_symmetry_1
_geom_bond_site_symmetry_2
O1 C2 1_555 1_555
N1 C10 1_555 1_555
C1 H1 1_555 1_555
H2 C1 1_555 1_555
H3 C1 1_555 1_555
O2 C3 1_555 1_555
N2 C13 1_555 1_555
C2 C1 1_555 1_555
H4 C2 1_555 1_555
H5 C2 1_555 1_555
O3 C5 1_555 1_555
C3 O1 1_555 1_555
O4 C10 1_555 1_555
C4 C3 1_555 1_555
H6 C4 1_555 1_555
C5 C4 1_555 1_555
H7 C5 1_555 1_555
C6 C5 1_555 1_555
H8 C6 1_555 1_555
H9 C6 1_555 1_555
C7 C6 1_555 1_555
H10 C7 1_555 1_555
H11 C7 1_555 1_555
C8 O3 1_555 1_555
C9 C4 1_555 1_555
H12 C9 1_555 1_555
C10 C9 1_555 1_555
C11 N1 1_555 1_555
H13 C11 1_555 1_555
C12 C11 1_555 1_555
H14 C12 1_555 1_555
H15 C12 1_555 1_555
C13 C12 1_555 1_555
H16 C13 1_555 1_555
H17 C13 1_555 1_555
C14 N2 1_555 1_555
H18 C14 1_555 1_555
H19 C14 1_555 1_555
C15 N1 1_555 1_555
H20 C15 1_555 1_555
H21 C15 1_555 1_555
C16 N2 1_555 1_555
H22 C16 1_555 1_555
H23 C16 1_555 1_555
C17 C16 1_555 1_555
C18 C17 1_555 1_555
H24 C18 1_555 1_555
C19 C18 1_555 1_555
H25 C19 1_555 1_555
C20 C19 1_555 1_555
H26 C20 1_555 1_555
C21 C20 1_555 1_555
H27 C21 1_555 1_555
C22 C17 1_555 1_555
H28 C22 1_555 1_555
C7 C8 1_555 1_555
C8 C9 1_555 1_555
C8 C11 1_555 1_555
C14 C15 1_555 1_555
C21 C22 1_555 1_555

#END
