
#######################################################################
#
#                 Cambridge Crystallographic Data Centre
#                                CCDC 
#
#######################################################################
#
# If this CIF has been generated from an entry in the Cambridge 
# Structural Database, then it will include bibliographic, chemical, 
# crystal, experimental, refinement or atomic coordinate data resulting 
# from the CCDC's data processing and validation procedures.
#
#######################################################################

data_OREKAZ
_chemical_formula_moiety         'C21 H22 F3 N1 O4'
_chemical_name_systematic        
'Methyl (1R*,2R*,5S*,8S*,9R*,10S*)-7-oxo-5-([4-(trifluoromethyl)phenyl]methyl)-13-oxa-6-azatetracyclo[8.2.1.0^1,8^.0^2,6^]tridecane-9-carboxylate'
_symmetry_cell_setting           triclinic
_symmetry_space_group_name_H-M   'P -1'
_symmetry_Int_Tables_number      2
_space_group_name_Hall           '-P 1'
loop_
_symmetry_equiv_pos_site_id
_symmetry_equiv_pos_as_xyz
1 x,y,z
2 -x,-y,-z
_cell_length_a                   11.7112(3)
_cell_length_b                   15.2229(4)
_cell_length_c                   22.2156(6)
_cell_angle_alpha                78.173(2)
_cell_angle_beta                 76.486(2)
_cell_angle_gamma                89.949(2)
_cell_volume                     3764.55
_exptl_crystal_colour            colorless
_exptl_crystal_description       plate
_cell_formula_units_Z            8
loop_
_atom_site_label
_atom_site_type_symbol
_atom_site_fract_x
_atom_site_fract_y
_atom_site_fract_z
F1 F 0.5474(2) 0.87467(15) 0.52989(9)
O1 O 1.08130(17) 1.33761(14) 0.06826(10)
N1 N 0.7969(2) 1.34076(16) 0.25961(11)
C1 C 1.1438(3) 1.2556(2) 0.06944(18)
H1 H 1.1170 1.2207 0.0435
H2 H 1.1293 1.2216 0.1122
H3 H 1.2266 1.2701 0.0534
F2 F 0.5606(2) 0.79247(15) 0.46212(11)
O2 O 0.9109(2) 1.25593(15) 0.09195(11)
C2 C 0.9632(2) 1.32638(19) 0.08485(13)
F3 F 0.41223(19) 0.87669(18) 0.47954(12)
O3 O 0.71115(16) 1.37284(13) 0.13945(9)
C3 C 0.9082(2) 1.41434(19) 0.09096(13)
H4 H 0.9586 1.4644 0.0623
O4 O 0.98531(17) 1.30969(15) 0.21343(10)
C4 C 0.8781(2) 1.42971(19) 0.16040(13)
H5 H 0.9158 1.4860 0.1627
C5 C 0.7425(2) 1.43489(19) 0.17469(13)
C6 C 0.7065(3) 1.5245(2) 0.14121(14)
H6 H 0.7499 1.5747 0.1475
H7 H 0.6228 1.5319 0.1551
C7 C 0.7411(3) 1.5137(2) 0.07134(14)
H8 H 0.6741 1.5199 0.0523
H9 H 0.8035 1.5570 0.0461
C8 C 0.7835(2) 1.4170(2) 0.07883(13)
H10 H 0.7762 1.3882 0.0442
C9 C 0.8964(2) 1.35260(19) 0.21268(13)
C10 C 0.7015(3) 1.3985(2) 0.24534(13)
H11 H 0.6967 1.4482 0.2677
C11 C 0.5924(3) 1.3354(2) 0.27348(14)
H12 H 0.5808 1.2981 0.2447
H13 H 0.5224 1.3683 0.2848
C12 C 0.6253(3) 1.2797(2) 0.33238(14)
H14 H 0.6150 1.3132 0.3658
H15 H 0.5772 1.2242 0.3481
C13 C 0.7551(2) 1.2605(2) 0.30947(13)
H16 H 0.7960 1.2571 0.3436
C14 C 0.7726(3) 1.1752(2) 0.28167(13)
H17 H 0.7401 1.1829 0.2447
H18 H 0.8561 1.1664 0.2684
C15 C 0.7136(3) 1.0932(2) 0.32965(13)
C16 C 0.6095(3) 1.0556(2) 0.32417(15)
H19 H 0.5792 1.0785 0.2893
C17 C 0.5504(3) 0.9842(2) 0.37026(16)
H20 H 0.4802 0.9600 0.3663
C18 C 0.5951(3) 0.9486(2) 0.42217(14)
C19 C 0.7000(3) 0.9838(2) 0.42739(15)
H21 H 0.7312 0.9595 0.4617
C20 C 0.7589(3) 1.0557(2) 0.38148(14)
H22 H 0.8296 1.0791 0.3853
C21 C 0.5290(3) 0.8739(2) 0.47259(17)
N2 N 0.2539(2) 0.03420(17) 0.25849(11)
F4 F 0.2947(3) 0.4490(2) 0.46174(11)
F5 F 0.1104(4) 0.4488(3) 0.4755(2)
F6 F 0.1911(3) 0.34500(19) 0.52786(10)
O5 O 0.57037(18) 0.12101(15) 0.07831(10)
O6 O 0.4036(2) 0.19406(15) 0.09166(12)
O7 O 0.19498(16) 0.06052(13) 0.13166(9)
O8 O 0.45182(18) 0.07351(16) 0.22103(10)
C22 C 0.6330(3) 0.2027(2) 0.07927(19)
H23 H 0.6184 0.2507 0.0469
H24 H 0.7158 0.1934 0.0716
H25 H 0.6063 0.2180 0.1199
C23 C 0.4529(3) 0.1250(2) 0.08888(14)
C24 C 0.3937(2) 0.0343(2) 0.09677(13)
H26 H 0.4462 -0.0038 0.0733
C25 C 0.2761(2) 0.0415(2) 0.07674(13)
H27 H 0.2792 0.0870 0.0381
C26 C 0.2291(3) -0.0518(2) 0.07377(15)
H28 H 0.2918 -0.0867 0.0552
H29 H 0.1691 -0.0467 0.0498
C27 C 0.1768(3) -0.0938(2) 0.14480(14)
H30 H 0.0922 -0.1039 0.1540
H31 H 0.2123 -0.1498 0.1582
C28 C 0.2112(2) -0.02004(19) 0.17488(13)
C29 C 0.3463(2) -0.01476(19) 0.16768(13)
H32 H 0.3768 -0.0749 0.1757
C30 C 0.3603(3) 0.0363(2) 0.21780(13)
C31 C 0.1574(2) -0.0117(2) 0.24269(13)
H33 H 0.1405 -0.0717 0.2701
C32 C 0.0550(2) 0.0474(2) 0.25977(14)
H34 H -0.0200 0.0144 0.2690
H35 H 0.0571 0.0999 0.2262
C33 C 0.0785(3) 0.0733(2) 0.31932(14)
H36 H 0.0375 0.1266 0.3276
H37 H 0.0530 0.0247 0.3560
C34 C 0.2122(3) 0.0915(2) 0.30411(14)
H38 H 0.2420 0.0720 0.3422
C35 C 0.2469(3) 0.1910(2) 0.27477(14)
H39 H 0.3286 0.1970 0.2515
H40 H 0.1991 0.2137 0.2452
C36 C 0.2299(3) 0.2453(2) 0.32520(14)
C37 C 0.1371(3) 0.3010(2) 0.33637(15)
H41 H 0.0822 0.3060 0.3118
C38 C 0.1250(3) 0.3498(2) 0.38428(16)
H42 H 0.0620 0.3865 0.3917
C39 C 0.2065(3) 0.3432(2) 0.42044(15)
C40 C 0.2993(3) 0.2880(2) 0.41000(18)
H43 H 0.3543 0.2836 0.4345
C41 C 0.3103(3) 0.2395(2) 0.36340(17)
H44 H 0.3727 0.2019 0.3571
C42 C 0.1986(4) 0.3962(3) 0.47100(17)
N3 N 0.2146(2) 0.53487(17) 0.25656(11)
F7 F 0.1667(2) 0.95793(17) 0.46680(12)
F8 F 0.0843(3) 0.83707(19) 0.52986(11)
O9 O 0.05078(17) 0.61866(14) 0.07855(10)
F9 F -0.01494(19) 0.92335(17) 0.47544(12)
O10 O 0.21054(19) 0.69022(15) 0.08792(12)
O11 O 0.38139(16) 0.55598(13) 0.12729(9)
O12 O 0.04685(17) 0.57236(16) 0.22140(10)
C43 C -0.0086(3) 0.7023(2) 0.07802(17)
H45 H 0.0345 0.7479 0.0437
H46 H -0.0131 0.7204 0.1174
H47 H -0.0865 0.6939 0.0726
C44 C 0.1598(2) 0.6216(2) 0.08798(13)
C45 C 0.2094(2) 0.52905(19) 0.09681(12)
H48 H 0.1744 0.4904 0.0750
C46 C 0.3450(2) 0.53390(19) 0.07471(13)
H49 H 0.3754 0.5771 0.0348
C47 C 0.3905(3) 0.4387(2) 0.07404(14)
H50 H 0.4702 0.4412 0.0484
H51 H 0.3401 0.4029 0.0584
C48 C 0.3853(3) 0.4011(2) 0.14495(14)
H52 H 0.3382 0.3452 0.1610
H53 H 0.4632 0.3922 0.1526
C49 C 0.3263(2) 0.47765(19) 0.17336(13)
C50 C 0.1971(2) 0.48255(19) 0.16790(13)
H54 H 0.1591 0.4223 0.1775
C51 C 0.1417(2) 0.5356(2) 0.21764(13)
C52 C 0.3241(2) 0.48892(19) 0.23961(13)
H55 H 0.3184 0.4297 0.2679
C53 C 0.4136(2) 0.5496(2) 0.25362(13)
H56 H 0.4388 0.6015 0.2193
H57 H 0.4819 0.5173 0.2616
C54 C 0.3416(3) 0.5768(2) 0.31365(14)
H58 H 0.3759 0.6310 0.3202
H59 H 0.3375 0.5291 0.3506
C55 C 0.2186(3) 0.5931(2) 0.30081(13)
H60 H 0.1574 0.5735 0.3399
C56 C 0.2064(3) 0.6921(2) 0.27175(14)
H61 H 0.2786 0.7158 0.2410
H62 H 0.1431 0.6972 0.2500
C57 C 0.1809(2) 0.7457(2) 0.32301(14)
C58 C 0.0679(3) 0.7382(2) 0.36272(16)
H63 H 0.0107 0.7007 0.3567
C59 C 0.0395(3) 0.7850(2) 0.41028(16)
H64 H -0.0366 0.7802 0.4356
C60 C 0.1240(3) 0.8391(2) 0.42049(15)
C61 C 0.2378(3) 0.8464(2) 0.38283(15)
H65 H 0.2953 0.8822 0.3902
C62 C 0.2650(3) 0.7999(2) 0.33427(14)
H66 H 0.3411 0.8051 0.3088
C63 C 0.0900(3) 0.8889(2) 0.47297(17)
N4 N 0.3291(2) 0.16488(16) 0.73645(11)
F10 F 0.2759(3) 0.71563(14) 0.53699(11)
F11 F 0.1626(2) 0.63248(17) 0.50731(14)
F12 F 0.3487(3) 0.64228(17) 0.46700(10)
O13 O 0.45404(18) 0.15968(14) 0.92467(10)
O14 O 0.2987(2) 0.23852(15) 0.90833(11)
O15 O 0.14160(17) 0.12384(13) 0.85864(9)
O16 O 0.47845(17) 0.19537(15) 0.78164(10)
C64 C 0.5148(3) 0.2430(2) 0.92412(17)
H67 H 0.5149 0.2854 0.8856
H68 H 0.5943 0.2316 0.9267
H69 H 0.4753 0.2671 0.9597
C65 C 0.3473(2) 0.16959(19) 0.91207(13)
C66 C 0.2992(2) 0.08178(19) 0.90342(13)
H70 H 0.3270 0.0308 0.9301
C67 C 0.1641(2) 0.07670(19) 0.91756(13)
H71 H 0.1267 0.1025 0.9538
C68 C 0.1178(3) -0.0199(2) 0.92241(14)
H72 H 0.0345 -0.0281 0.9424
H73 H 0.1602 -0.0638 0.9458
C69 C 0.1429(3) -0.0260(2) 0.85137(14)
H74 H 0.1933 -0.0747 0.8427
H75 H 0.0708 -0.0331 0.8381
C70 C 0.2051(3) 0.06536(19) 0.82032(13)
C71 C 0.3296(2) 0.07134(19) 0.83274(13)
H76 H 0.3714 0.0164 0.8280
C72 C 0.3895(2) 0.1520(2) 0.78194(13)
C73 C 0.2224(3) 0.1060(2) 0.75037(13)
H77 H 0.2381 0.0583 0.7263
C74 C 0.1358(3) 0.1688(2) 0.72484(14)
H78 H 0.0995 0.2049 0.7547
H79 H 0.0751 0.1361 0.7140
C75 C 0.2185(3) 0.2266(2) 0.66538(14)
H80 H 0.2378 0.1939 0.6314
H81 H 0.1827 0.2818 0.6506
C76 C 0.3284(3) 0.2464(2) 0.68763(13)
H82 H 0.3987 0.2510 0.6528
C77 C 0.3203(3) 0.3318(2) 0.71539(13)
H83 H 0.2528 0.3249 0.7512
H84 H 0.3902 0.3395 0.7304
C78 C 0.3086(3) 0.4139(2) 0.66645(13)
C79 C 0.4043(3) 0.4519(2) 0.61742(14)
H85 H 0.4778 0.4281 0.6162
C80 C 0.3918(3) 0.5244(2) 0.57041(14)
H86 H 0.4566 0.5493 0.5383
C81 C 0.2828(3) 0.5593(2) 0.57161(15)
C82 C 0.1873(3) 0.5235(2) 0.62069(17)
H87 H 0.1141 0.5477 0.6219
C83 C 0.2003(3) 0.4522(2) 0.66785(15)
H88 H 0.1360 0.4294 0.7009
C84 C 0.2675(3) 0.6367(2) 0.52082(17)
loop_
_geom_bond_atom_site_label_1
_geom_bond_atom_site_label_2
_geom_bond_site_symmetry_1
_geom_bond_site_symmetry_2
F1 C21 1_555 1_555
O1 C1 1_555 1_555
N1 C9 1_555 1_555
C1 H1 1_555 1_555
H2 C1 1_555 1_555
H3 C1 1_555 1_555
F2 C21 1_555 1_555
O2 C2 1_555 1_555
C2 O1 1_555 1_555
F3 C21 1_555 1_555
O3 C5 1_555 1_555
C3 C2 1_555 1_555
H4 C3 1_555 1_555
O4 C9 1_555 1_555
C4 C3 1_555 1_555
H5 C4 1_555 1_555
C5 C4 1_555 1_555
C6 C5 1_555 1_555
H6 C6 1_555 1_555
H7 C6 1_555 1_555
C7 C6 1_555 1_555
H8 C7 1_555 1_555
H9 C7 1_555 1_555
C8 O3 1_555 1_555
H10 C8 1_555 1_555
C9 C4 1_555 1_555
C10 N1 1_555 1_555
H11 C10 1_555 1_555
C11 C10 1_555 1_555
H12 C11 1_555 1_555
H13 C11 1_555 1_555
C12 C11 1_555 1_555
H14 C12 1_555 1_555
H15 C12 1_555 1_555
C13 N1 1_555 1_555
H16 C13 1_555 1_555
C14 C13 1_555 1_555
H17 C14 1_555 1_555
H18 C14 1_555 1_555
C15 C14 1_555 1_555
C16 C15 1_555 1_555
H19 C16 1_555 1_555
C17 C16 1_555 1_555
H20 C17 1_555 1_555
C18 C17 1_555 1_555
C19 C18 1_555 1_555
H21 C19 1_555 1_555
C20 C15 1_555 1_555
H22 C20 1_555 1_555
C21 C18 1_555 1_555
N2 C30 1_555 1_555
F4 C42 1_555 1_555
F5 C42 1_555 1_555
F6 C42 1_555 1_555
O5 C22 1_555 1_555
O6 C23 1_555 1_555
O7 C25 1_555 1_555
O8 C30 1_555 1_555
C22 H23 1_555 1_555
H24 C22 1_555 1_555
H25 C22 1_555 1_555
C23 O5 1_555 1_555
C24 C23 1_555 1_555
H26 C24 1_555 1_555
C25 C24 1_555 1_555
H27 C25 1_555 1_555
C26 C25 1_555 1_555
H28 C26 1_555 1_555
H29 C26 1_555 1_555
C27 C26 1_555 1_555
H30 C27 1_555 1_555
H31 C27 1_555 1_555
C28 O7 1_555 1_555
C29 C24 1_555 1_555
H32 C29 1_555 1_555
C30 C29 1_555 1_555
C31 N2 1_555 1_555
H33 C31 1_555 1_555
C32 C31 1_555 1_555
H34 C32 1_555 1_555
H35 C32 1_555 1_555
C33 C32 1_555 1_555
H36 C33 1_555 1_555
H37 C33 1_555 1_555
C34 N2 1_555 1_555
H38 C34 1_555 1_555
C35 C34 1_555 1_555
H39 C35 1_555 1_555
H40 C35 1_555 1_555
C36 C35 1_555 1_555
C37 C36 1_555 1_555
H41 C37 1_555 1_555
C38 C37 1_555 1_555
H42 C38 1_555 1_555
C39 C38 1_555 1_555
C40 C39 1_555 1_555
H43 C40 1_555 1_555
C41 C36 1_555 1_555
H44 C41 1_555 1_555
C42 C39 1_555 1_555
N3 C51 1_555 1_555
F7 C63 1_555 1_555
F8 C63 1_555 1_555
O9 C43 1_555 1_555
F9 C63 1_555 1_555
O10 C44 1_555 1_555
O11 C46 1_555 1_555
O12 C51 1_555 1_555
C43 H45 1_555 1_555
H46 C43 1_555 1_555
H47 C43 1_555 1_555
C44 O9 1_555 1_555
C45 C44 1_555 1_555
H48 C45 1_555 1_555
C46 C45 1_555 1_555
H49 C46 1_555 1_555
C47 C46 1_555 1_555
H50 C47 1_555 1_555
H51 C47 1_555 1_555
C48 C47 1_555 1_555
H52 C48 1_555 1_555
H53 C48 1_555 1_555
C49 O11 1_555 1_555
C50 C45 1_555 1_555
H54 C50 1_555 1_555
C51 C50 1_555 1_555
C52 N3 1_555 1_555
H55 C52 1_555 1_555
C53 C52 1_555 1_555
H56 C53 1_555 1_555
H57 C53 1_555 1_555
C54 C53 1_555 1_555
H58 C54 1_555 1_555
H59 C54 1_555 1_555
C55 N3 1_555 1_555
H60 C55 1_555 1_555
C56 C55 1_555 1_555
H61 C56 1_555 1_555
H62 C56 1_555 1_555
C57 C56 1_555 1_555
C58 C57 1_555 1_555
H63 C58 1_555 1_555
C59 C58 1_555 1_555
H64 C59 1_555 1_555
C60 C59 1_555 1_555
C61 C60 1_555 1_555
H65 C61 1_555 1_555
C62 C57 1_555 1_555
H66 C62 1_555 1_555
C63 C60 1_555 1_555
N4 C72 1_555 1_555
F10 C84 1_555 1_555
F11 C84 1_555 1_555
F12 C84 1_555 1_555
O13 C64 1_555 1_555
O14 C65 1_555 1_555
O15 C67 1_555 1_555
O16 C72 1_555 1_555
C64 H67 1_555 1_555
H68 C64 1_555 1_555
H69 C64 1_555 1_555
C65 O13 1_555 1_555
C66 C65 1_555 1_555
H70 C66 1_555 1_555
C67 C66 1_555 1_555
H71 C67 1_555 1_555
C68 C67 1_555 1_555
H72 C68 1_555 1_555
H73 C68 1_555 1_555
C69 C68 1_555 1_555
H74 C69 1_555 1_555
H75 C69 1_555 1_555
C70 O15 1_555 1_555
C71 C66 1_555 1_555
H76 C71 1_555 1_555
C72 C71 1_555 1_555
C73 N4 1_555 1_555
H77 C73 1_555 1_555
C74 C73 1_555 1_555
H78 C74 1_555 1_555
H79 C74 1_555 1_555
C75 C74 1_555 1_555
H80 C75 1_555 1_555
H81 C75 1_555 1_555
C76 N4 1_555 1_555
H82 C76 1_555 1_555
C77 C76 1_555 1_555
H83 C77 1_555 1_555
H84 C77 1_555 1_555
C78 C77 1_555 1_555
C79 C78 1_555 1_555
H85 C79 1_555 1_555
C80 C79 1_555 1_555
H86 C80 1_555 1_555
C81 C80 1_555 1_555
C82 C81 1_555 1_555
H87 C82 1_555 1_555
C83 C78 1_555 1_555
H88 C83 1_555 1_555
C84 C81 1_555 1_555
C3 C8 1_555 1_555
C5 C10 1_555 1_555
C7 C8 1_555 1_555
C12 C13 1_555 1_555
C19 C20 1_555 1_555
C27 C28 1_555 1_555
C28 C29 1_555 1_555
C28 C31 1_555 1_555
C33 C34 1_555 1_555
C40 C41 1_555 1_555
C48 C49 1_555 1_555
C49 C50 1_555 1_555
C49 C52 1_555 1_555
C54 C55 1_555 1_555
C61 C62 1_555 1_555
C69 C70 1_555 1_555
C70 C71 1_555 1_555
C70 C73 1_555 1_555
C75 C76 1_555 1_555
C82 C83 1_555 1_555

#END
