
#######################################################################
#
#                 Cambridge Crystallographic Data Centre
#                                CCDC 
#
#######################################################################
#
# If this CIF has been generated from an entry in the Cambridge 
# Structural Database, then it will include bibliographic, chemical, 
# crystal, experimental, refinement or atomic coordinate data resulting 
# from the CCDC's data processing and validation procedures.
#
#######################################################################

data_OREPUX
_chemical_formula_moiety         'C10 H13 N2 1+,B1 F4 1-'
_chemical_name_systematic        
'3-Propyl-1H-benzimidazol-3-ium tetrafluoroborate'
_symmetry_cell_setting           monoclinic
_symmetry_space_group_name_H-M   'P 21/c'
_symmetry_Int_Tables_number      14
_space_group_name_Hall           '-P 2ybc'
loop_
_symmetry_equiv_pos_site_id
_symmetry_equiv_pos_as_xyz
1 x,y,z
2 -x,1/2+y,1/2-z
3 -x,-y,-z
4 x,1/2-y,1/2+z
_cell_length_a                   4.9688(14)
_cell_length_b                   13.684(4)
_cell_length_c                   17.295(5)
_cell_angle_alpha                90
_cell_angle_beta                 92.090(6)
_cell_angle_gamma                90
_cell_volume                     1175.16
_chemical_melting_point          '117 deg.C'
_cell_formula_units_Z            4
_exptl_crystal_recrystallization_method 'diethyl ether/ethanol'
loop_
_atom_site_label
_atom_site_type_symbol
_atom_site_fract_x
_atom_site_fract_y
_atom_site_fract_z
N1 N 0.9927(7) 0.6986(3) 0.3515(2)
N2 N 0.8792(8) 0.6677(3) 0.4687(2)
H1 H 0.8748 0.6403 0.5133
C1 C 0.8022(9) 0.7675(3) 0.3704(2)
C2 C 0.6900(10) 0.8433(3) 0.3283(3)
H2 H 0.7393 0.8572 0.2781
C3 C 0.4987(11) 0.8974(3) 0.3656(3)
H3 H 0.4160 0.9493 0.3394
C4 C 0.4253(10) 0.8774(4) 0.4408(4)
H4 H 0.2963 0.9163 0.4633
C5 C 0.5373(10) 0.8022(4) 0.4821(3)
H5 H 0.4894 0.7887 0.5325
C6 C 0.7272(9) 0.7469(3) 0.4447(3)
C7 C 1.0324(9) 0.6409(3) 0.4118(3)
H6 H 1.1518 0.5885 0.4140
C8 C 1.1187(8) 0.6875(3) 0.2767(2)
H7 H 1.2835 0.6500 0.2837
H8 H 1.1659 0.7515 0.2572
C9 C 0.9356(10) 0.6371(3) 0.2183(3)
H9 H 0.7677 0.6731 0.2130
H10 H 0.8946 0.5721 0.2368
C10 C 1.0588(11) 0.6292(3) 0.1402(3)
H11 H 1.0794 0.6934 0.1188
H12 H 0.9437 0.5909 0.1063
H13 H 1.2320 0.5984 0.1458
B1 B 0.3967(17) 0.5724(5) 0.6254(4)
F1 F 0.2403(12) 0.6038(4) 0.6834(3)
F2 F 0.4842(13) 0.4821(4) 0.6496(4)
F3 F 0.2493(13) 0.5568(3) 0.5587(3)
F4 F 0.5991(13) 0.6349(6) 0.6155(4)
F5? F 0.142(3) 0.5781(9) 0.5996(9)
F6? F 0.439(3) 0.5145(10) 0.6815(7)
F7? F 0.571(3) 0.5579(9) 0.5690(7)
F8? F 0.445(3) 0.6657(7) 0.6509(6)
loop_
_geom_bond_atom_site_label_1
_geom_bond_atom_site_label_2
_geom_bond_site_symmetry_1
_geom_bond_site_symmetry_2
N1 C1 1_555 1_555
N2 H1 1_555 1_555
C1 C2 1_555 1_555
C2 H2 1_555 1_555
C3 C2 1_555 1_555
H3 C3 1_555 1_555
C4 C3 1_555 1_555
H4 C4 1_555 1_555
C5 C4 1_555 1_555
H5 C5 1_555 1_555
C6 N2 1_555 1_555
C7 N1 1_555 1_555
H6 C7 1_555 1_555
C8 N1 1_555 1_555
H7 C8 1_555 1_555
H8 C8 1_555 1_555
C9 C8 1_555 1_555
H9 C9 1_555 1_555
H10 C9 1_555 1_555
C10 C9 1_555 1_555
H11 C10 1_555 1_555
H12 C10 1_555 1_555
H13 C10 1_555 1_555
B1 F1 1_555 1_555
F2 B1 1_555 1_555
F3 B1 1_555 1_555
F4 B1 1_555 1_555
N2 C7 1_555 1_555
C1 C6 1_555 1_555
C5 C6 1_555 1_555

#END
