
#######################################################################
#
#                 Cambridge Crystallographic Data Centre
#                                CCDC 
#
#######################################################################
#
# If this CIF has been generated from an entry in the Cambridge 
# Structural Database, then it will include bibliographic, chemical, 
# crystal, experimental, refinement or atomic coordinate data resulting 
# from the CCDC's data processing and validation procedures.
#
#######################################################################

data_OREQAE
_chemical_formula_moiety         'C9 H11 N2 1+,B1 F4 1-'
_chemical_name_systematic        
'1-Ethyl-1H-benzimidazol-3-ium tetrafluoroborate'
_symmetry_cell_setting           orthorhombic
_symmetry_space_group_name_H-M   'P n m a'
_symmetry_Int_Tables_number      62
_space_group_name_Hall           '-P 2ac 2n'
loop_
_symmetry_equiv_pos_site_id
_symmetry_equiv_pos_as_xyz
1 x,y,z
2 1/2-x,-y,1/2+z
3 1/2+x,1/2-y,1/2-z
4 -x,1/2+y,-z
5 -x,-y,-z
6 1/2+x,y,1/2-z
7 1/2-x,1/2+y,1/2+z
8 x,1/2-y,z
_cell_length_a                   9.9308(16)
_cell_length_b                   6.8813(11)
_cell_length_c                   15.345(3)
_cell_angle_alpha                90
_cell_angle_beta                 90
_cell_angle_gamma                90
_cell_volume                     1048.63
_exptl_crystal_colour            colorless
_exptl_crystal_description       block
_chemical_melting_point          '108 deg.C'
_cell_formula_units_Z            4
_exptl_crystal_recrystallization_method 'diethyl ether/ethanol'
loop_
_atom_site_label
_atom_site_type_symbol
_atom_site_fract_x
_atom_site_fract_y
_atom_site_fract_z
N1 N 0.5637(2) 0.7500 0.08208(16)
H1 H 0.5675 0.7500 0.1381
N2 N 0.6279(2) 0.7500 -0.05287(14)
C1 C 0.4880(3) 0.7500 -0.05330(17)
C2 C 0.3953(3) 0.7500 -0.1207(2)
H2 H 0.4225 0.7500 -0.1787
C3 C 0.2626(3) 0.7500 -0.0983(2)
H3 H 0.1977 0.7500 -0.1421
C4 C 0.2217(3) 0.7500 -0.0113(2)
H4 H 0.1301 0.7500 0.0012
C5 C 0.3112(3) 0.7500 0.0558(2)
H5 H 0.2830 0.7500 0.1136
C6 C 0.4471(3) 0.7500 0.03353(19)
C7 C 0.6683(3) 0.7500 0.02948(18)
H6 H 0.7578 0.7500 0.0475
C8 C 0.7142(3) 0.7500 -0.1309(2)
H7 H 0.6940 0.8639 -0.1657
C9 C 0.8613(3) 0.7500 -0.1093(3)
H8 H 0.8825 0.8639 -0.0759
H9 H 0.9131 0.7500 -0.1621
H7G H 0.6940 0.6361 -0.1657
H8G H 0.8825 0.6361 -0.0759
B1 B 0.4207(4) 0.7500 0.2968(2)
F1 F 0.4699(2) 0.9075(3) 0.25366(12)
F2 F 0.446(2) 0.7500 0.3828(15)
F3 F 0.2818(7) 0.7500 0.2898(5)
F1G F 0.4699(2) 0.5925(3) 0.25366(12)
F4? F 0.467(3) 0.7500 0.383(2)
F5? F 0.2921(15) 0.843(3) 0.2893(7)
loop_
_geom_bond_atom_site_label_1
_geom_bond_atom_site_label_2
_geom_bond_site_symmetry_1
_geom_bond_site_symmetry_2
N1 H1 1_555 1_555
N2 C1 1_555 1_555
C1 C2 1_555 1_555
C2 H2 1_555 1_555
C3 C2 1_555 1_555
H3 C3 1_555 1_555
C4 C3 1_555 1_555
H4 C4 1_555 1_555
C5 C4 1_555 1_555
H5 C5 1_555 1_555
C6 N1 1_555 1_555
C7 N1 1_555 1_555
H6 C7 1_555 1_555
C8 N2 1_555 1_555
H7 C8 1_555 1_555
C9 C8 1_555 1_555
H8 C9 1_555 1_555
H9 C9 1_555 1_555
B1 F1 1_555 1_555
F2 B1 1_555 1_555
F3 B1 1_555 1_555
H7G C8 1_555 1_555
H8G C9 1_555 1_555
F1G B1 1_555 1_555
N2 C7 1_555 1_555
C1 C6 1_555 1_555
C5 C6 1_555 1_555

#END
