
#######################################################################
#
#                 Cambridge Crystallographic Data Centre
#                                CCDC 
#
#######################################################################
#
# If this CIF has been generated from an entry in the Cambridge 
# Structural Database, then it will include bibliographic, chemical, 
# crystal, experimental, refinement or atomic coordinate data resulting 
# from the CCDC's data processing and validation procedures.
#
#######################################################################

data_ORERAF
_chemical_formula_moiety         'C20 H21 N3 O3'
_chemical_name_systematic        
4-((3-Ethoxy-2-hydroxybenzylidene)amino)-1,5-dimethyl-2-phenyl-1,2-dihydro-3H-pyrazol-3-one
_chemical_properties_biological  'antibacterial activity'
_symmetry_cell_setting           monoclinic
_symmetry_space_group_name_H-M   'P 21/c'
_symmetry_Int_Tables_number      14
_space_group_name_Hall           '-P 2ybc'
loop_
_symmetry_equiv_pos_site_id
_symmetry_equiv_pos_as_xyz
1 x,y,z
2 -x,1/2+y,1/2-z
3 -x,-y,-z
4 x,1/2-y,1/2+z
_cell_length_a                   19.523(2)
_cell_length_b                   7.466(1)
_cell_length_c                   12.954(2)
_cell_angle_alpha                90
_cell_angle_beta                 108.797(1)
_cell_angle_gamma                90
_cell_volume                     1787.46
_exptl_crystal_colour            colorless
_exptl_crystal_description       block
_cell_formula_units_Z            4
_exptl_crystal_recrystallization_method methanol
loop_
_atom_site_label
_atom_site_type_symbol
_atom_site_fract_x
_atom_site_fract_y
_atom_site_fract_z
O1 O 0.40581(7) 0.50906(18) 1.00440(9)
O2 O 0.18019(6) 0.83567(15) 0.41711(9)
O3 O 0.33330(7) 0.45502(15) 0.80037(9)
H1 H 0.3099 0.4516 0.7353
N1 N 0.26614(6) 0.58170(17) 0.60839(10)
N2 N 0.15476(7) 0.56490(17) 0.32622(10)
N3 N 0.16671(7) 0.38419(16) 0.35526(10)
C1 C 0.32355(8) 0.7702(2) 0.76039(12)
C2 C 0.34054(9) 0.9451(2) 0.79939(13)
H2 H 0.3251 1.0414 0.7520
C3 C 0.37947(10) 0.9761(3) 0.90609(14)
H3 H 0.3908 1.0928 0.9309
C4 C 0.40204(10) 0.8333(3) 0.97720(14)
H4 H 0.4285 0.8550 1.0498
C5 C 0.38596(9) 0.6598(3) 0.94195(13)
C6 C 0.34657(8) 0.6276(2) 0.83243(12)
C7 C 0.45234(10) 0.5300(3) 1.11330(13)
H5 H 0.4301 0.6082 1.1533
H6 H 0.4978 0.5829 1.1139
C8 C 0.28231(8) 0.7404(2) 0.64618(12)
H7 H 0.2674 0.8382 0.5998
C9 C 0.22514(8) 0.54832(19) 0.50046(12)
C10 C 0.21317(8) 0.3792(2) 0.45867(12)
C11 C 0.18736(8) 0.6719(2) 0.41670(12)
C12 C 0.24535(10) 0.2089(2) 0.51042(14)
H8 H 0.2079 0.1208 0.5002
H9 H 0.2689 0.2279 0.5870
H10 H 0.2801 0.1675 0.4776
C13 C 0.16651(10) 0.2559(2) 0.27082(14)
H11 H 0.2027 0.2889 0.2387
H12 H 0.1198 0.2555 0.2157
H13 H 0.1769 0.1386 0.3023
C14 C 0.09494(8) 0.6156(2) 0.23448(11)
C15 C 0.10479(9) 0.7506(2) 0.16817(14)
H14 H 0.1493 0.8075 0.1838
C16 C 0.04761(11) 0.8000(3) 0.07828(14)
H15 H 0.0536 0.8912 0.0330
C17 C -0.01794(11) 0.7158(3) 0.05524(14)
H16 H -0.0562 0.7500 -0.0056
C18 C -0.02736(9) 0.5818(2) 0.12116(14)
H17 H -0.0718 0.5243 0.1048
C19 C 0.02903(8) 0.5319(2) 0.21180(13)
H18 H 0.0225 0.4419 0.2575
C20 C 0.46515(11) 0.3487(3) 1.16501(15)
H19 H 0.4197 0.2965 1.1625
H20 H 0.4956 0.3596 1.2395
H21 H 0.4884 0.2735 1.1261
loop_
_geom_bond_atom_site_label_1
_geom_bond_atom_site_label_2
_geom_bond_site_symmetry_1
_geom_bond_site_symmetry_2
O1 C5 1_555 1_555
O2 C11 1_555 1_555
O3 H1 1_555 1_555
N1 C8 1_555 1_555
N2 N3 1_555 1_555
N3 C10 1_555 1_555
C1 C2 1_555 1_555
C2 H2 1_555 1_555
C3 C2 1_555 1_555
H3 C3 1_555 1_555
C4 C3 1_555 1_555
H4 C4 1_555 1_555
C5 C4 1_555 1_555
C6 O3 1_555 1_555
C7 O1 1_555 1_555
H5 C7 1_555 1_555
H6 C7 1_555 1_555
C8 C1 1_555 1_555
H7 C8 1_555 1_555
C9 N1 1_555 1_555
C10 C9 1_555 1_555
C11 N2 1_555 1_555
C12 C10 1_555 1_555
H8 C12 1_555 1_555
H9 C12 1_555 1_555
H10 C12 1_555 1_555
C13 N3 1_555 1_555
H11 C13 1_555 1_555
H12 C13 1_555 1_555
H13 C13 1_555 1_555
C14 N2 1_555 1_555
C15 C14 1_555 1_555
H14 C15 1_555 1_555
C16 C15 1_555 1_555
H15 C16 1_555 1_555
C17 C16 1_555 1_555
H16 C17 1_555 1_555
C18 C17 1_555 1_555
H17 C18 1_555 1_555
C19 C14 1_555 1_555
H18 C19 1_555 1_555
C20 C7 1_555 1_555
H19 C20 1_555 1_555
H20 C20 1_555 1_555
H21 C20 1_555 1_555
C1 C6 1_555 1_555
C5 C6 1_555 1_555
C9 C11 1_555 1_555
C18 C19 1_555 1_555

#END
