
#######################################################################
#
#                 Cambridge Crystallographic Data Centre
#                                CCDC 
#
#######################################################################
#
# If this CIF has been generated from an entry in the Cambridge 
# Structural Database, then it will include bibliographic, chemical, 
# crystal, experimental, refinement or atomic coordinate data resulting 
# from the CCDC's data processing and validation procedures.
#
#######################################################################

data_ORETEM
_chemical_formula_moiety         'C26 H21 Cl1 N2 O5'
_chemical_name_systematic        
'3-(4-chlorophenyl)-2-((1,3-dioxo-1,3-dihydro-2H-isoindol-2-yl)amino)-1-(4-methylphenyl)-3-oxopropyl acetate'
_symmetry_cell_setting           monoclinic
_symmetry_space_group_name_H-M   'C 2/c'
_symmetry_Int_Tables_number      15
_space_group_name_Hall           '-C 2yn'
loop_
_symmetry_equiv_pos_site_id
_symmetry_equiv_pos_as_xyz
1 x,y,z
2 -x,y,1/2-z
3 1/2+x,1/2+y,z
4 1/2-x,1/2+y,1/2-z
5 -x,-y,-z
6 x,-y,1/2+z
7 1/2-x,1/2-y,-z
8 1/2+x,1/2-y,1/2+z
_cell_length_a                   30.444(3)
_cell_length_b                   10.6005(17)
_cell_length_c                   14.5957(18)
_cell_angle_alpha                90
_cell_angle_beta                 96.772(11)
_cell_angle_gamma                90
_cell_volume                     4677.49
_exptl_crystal_colour            colorless
_exptl_crystal_description       block
_cell_formula_units_Z            8
loop_
_atom_site_label
_atom_site_type_symbol
_atom_site_fract_x
_atom_site_fract_y
_atom_site_fract_z
Cl1 Cl 0.33946(3) 0.21179(11) 0.20648(7)
O1 O 0.20273(8) -0.0449(2) 0.50250(17)
O2 O 0.05734(9) -0.1613(3) 0.4664(2)
O3 O 0.16986(8) 0.2447(2) 0.45611(16)
O4 O 0.07433(7) 0.0422(2) 0.24619(15)
O5 O 0.12197(8) -0.0257(2) 0.15119(16)
N1 N 0.12797(9) -0.0775(3) 0.46864(18)
N2 N 0.11575(9) 0.0425(3) 0.43788(17)
H1 H 0.0970 0.0886 0.4623
C1 C 0.17090(13) -0.1128(4) 0.5015(2)
C2 C 0.16765(12) -0.2475(3) 0.5305(2)
C3 C 0.20051(14) -0.3324(4) 0.5576(2)
H2 H 0.2301 -0.3085 0.5650
C4 C 0.18792(17) -0.4555(4) 0.5737(3)
H3 H 0.2095 -0.5157 0.5916
C5 C 0.14414(16) -0.4896(4) 0.5635(3)
H4 H 0.1365 -0.5726 0.5747
C6 C 0.11108(14) -0.4027(4) 0.5367(2)
H5 H 0.0814 -0.4255 0.5306
C7 C 0.12400(12) -0.2817(3) 0.5196(2)
C8 C 0.09708(13) -0.1725(4) 0.4824(2)
C9 C 0.13805(10) 0.0825(3) 0.3596(2)
H6 H 0.1520 0.0086 0.3349
C10 C 0.17396(11) 0.1794(3) 0.3896(2)
C11 C 0.21353(11) 0.1899(3) 0.3390(2)
C12 C 0.24682(11) 0.2751(3) 0.3708(2)
H7 H 0.2430 0.3277 0.4202
C13 C 0.28545(11) 0.2822(3) 0.3298(2)
H8 H 0.3079 0.3375 0.3524
C14 C 0.29020(11) 0.2069(4) 0.2560(2)
C15 C 0.25777(12) 0.1245(4) 0.2205(2)
H9 H 0.2616 0.0748 0.1695
C16 C 0.21932(11) 0.1171(3) 0.2621(2)
H10 H 0.1970 0.0624 0.2383
C17 C 0.10539(10) 0.1398(3) 0.2823(2)
H11 H 0.1220 0.1684 0.2325
C18 C 0.07823(11) 0.2482(3) 0.3113(2)
C19 C 0.09219(11) 0.3706(4) 0.2973(2)
H12 H 0.1182 0.3847 0.2714
C20 C 0.06741(13) 0.4713(4) 0.3218(2)
H13 H 0.0773 0.5529 0.3130
C21 C 0.02801(13) 0.4540(4) 0.3594(2)
C22 C 0.01490(11) 0.3315(4) 0.3748(2)
H14 H -0.0110 0.3173 0.4011
C23 C 0.03995(11) 0.2299(3) 0.3516(2)
H15 H 0.0309 0.1483 0.3633
C24 C 0.00022(12) 0.5665(3) 0.3804(2)
H16 H -0.0300 0.5523 0.3557
H17 H 0.0111 0.6408 0.3528
H18 H 0.0020 0.5779 0.4460
C25 C 0.08647(13) -0.0318(4) 0.1790(3)
C26 C 0.05017(13) -0.1222(4) 0.1454(3)
H19 H 0.0333 -0.0886 0.0912
H20 H 0.0311 -0.1342 0.1927
H21 H 0.0628 -0.2017 0.1310
loop_
_geom_bond_atom_site_label_1
_geom_bond_atom_site_label_2
_geom_bond_site_symmetry_1
_geom_bond_site_symmetry_2
Cl1 C14 1_555 1_555
O1 C1 1_555 1_555
O2 C8 1_555 1_555
O3 C10 1_555 1_555
O4 C17 1_555 1_555
O5 C25 1_555 1_555
N1 N2 1_555 1_555
N2 H1 1_555 1_555
C1 N1 1_555 1_555
C2 C1 1_555 1_555
C3 C2 1_555 1_555
H2 C3 1_555 1_555
C4 C3 1_555 1_555
H3 C4 1_555 1_555
C5 C4 1_555 1_555
H4 C5 1_555 1_555
C6 C5 1_555 1_555
H5 C6 1_555 1_555
C7 C2 1_555 1_555
C8 N1 1_555 1_555
C9 N2 1_555 1_555
H6 C9 1_555 1_555
C10 C9 1_555 1_555
C11 C10 1_555 1_555
C12 C11 1_555 1_555
H7 C12 1_555 1_555
C13 C12 1_555 1_555
H8 C13 1_555 1_555
C14 C13 1_555 1_555
C15 C14 1_555 1_555
H9 C15 1_555 1_555
C16 C11 1_555 1_555
H10 C16 1_555 1_555
C17 C9 1_555 1_555
H11 C17 1_555 1_555
C18 C17 1_555 1_555
C19 C18 1_555 1_555
H12 C19 1_555 1_555
C20 C19 1_555 1_555
H13 C20 1_555 1_555
C21 C20 1_555 1_555
C22 C21 1_555 1_555
H14 C22 1_555 1_555
C23 C18 1_555 1_555
H15 C23 1_555 1_555
C24 C21 1_555 1_555
H16 C24 1_555 1_555
H17 C24 1_555 1_555
H18 C24 1_555 1_555
C25 O4 1_555 1_555
C26 C25 1_555 1_555
H19 C26 1_555 1_555
H20 C26 1_555 1_555
H21 C26 1_555 1_555
C6 C7 1_555 1_555
C7 C8 1_555 1_555
C15 C16 1_555 1_555
C22 C23 1_555 1_555

#END
