
#######################################################################
#
#                 Cambridge Crystallographic Data Centre
#                                CCDC 
#
#######################################################################
#
# If this CIF has been generated from an entry in the Cambridge 
# Structural Database, then it will include bibliographic, chemical, 
# crystal, experimental, refinement or atomic coordinate data resulting 
# from the CCDC's data processing and validation procedures.
#
#######################################################################

data_OREWEP
_chemical_formula_moiety         'C10 H14 O5'
_chemical_name_systematic        "dimethyl 3,3'-oxybis(2-methylacrylate)"
_symmetry_cell_setting           monoclinic
_symmetry_space_group_name_H-M   'P 21/c'
_symmetry_Int_Tables_number      14
_space_group_name_Hall           '-P 2ybc'
loop_
_symmetry_equiv_pos_site_id
_symmetry_equiv_pos_as_xyz
1 x,y,z
2 -x,1/2+y,1/2-z
3 -x,-y,-z
4 x,1/2-y,1/2+z
_cell_length_a                   3.9342(5)
_cell_length_b                   27.324(3)
_cell_length_c                   9.9305(14)
_cell_angle_alpha                90
_cell_angle_beta                 96.3140(15)
_cell_angle_gamma                90
_cell_volume                     1061.03
_exptl_crystal_colour            colorless
_exptl_crystal_description       block
_cell_formula_units_Z            4
loop_
_atom_site_label
_atom_site_type_symbol
_atom_site_fract_x
_atom_site_fract_y
_atom_site_fract_z
O1 O 0.1081(2) 0.27204(3) 0.29561(8)
O2 O -0.2053(2) 0.30632(2) 0.11755(7)
O3 O -0.3541(2) 0.56500(3) 0.04531(8)
O4 O -0.11584(18) 0.61121(2) 0.21783(7)
O5 O 0.04555(19) 0.44293(2) 0.25801(7)
C1 C -0.2930(3) 0.25743(4) 0.06968(11)
H1 H -0.4522 0.2594 -0.0133
H2 H -0.4012 0.2396 0.1393
H3 H -0.0852 0.2402 0.0506
C2 C 0.0012(2) 0.30843(3) 0.23470(9)
C3 C 0.0848(2) 0.35847(3) 0.28281(9)
C4 C -0.0346(2) 0.39708(3) 0.20937(9)
H4 H -0.1718 0.3927 0.1254
C5 C -0.0866(2) 0.48238(3) 0.18521(9)
H5 H -0.2247 0.4779 0.1014
C6 C -0.0177(2) 0.52734(3) 0.23412(9)
C7 C -0.1804(2) 0.56819(3) 0.15389(9)
C8 C -0.2763(3) 0.65348(3) 0.14990(12)
H6 H -0.2024 0.6832 0.2002
H7 H -0.5254 0.6504 0.1457
H8 H -0.2098 0.6555 0.0578
C9 C 0.2989(3) 0.36301(4) 0.41743(10)
H9 H 0.4091 0.3952 0.4240
H10 H 0.4744 0.3374 0.4254
H11 H 0.1527 0.3594 0.4906
C10 C 0.1981(3) 0.53732(3) 0.36553(9)
H12 H 0.3271 0.5078 0.3948
H13 H 0.0503 0.5466 0.4346
H14 H 0.3575 0.5641 0.3530
loop_
_geom_bond_atom_site_label_1
_geom_bond_atom_site_label_2
_geom_bond_site_symmetry_1
_geom_bond_site_symmetry_2
O1 C2 1_555 1_555
O2 C1 1_555 1_555
O3 C7 1_555 1_555
O4 C7 1_555 1_555
O5 C4 1_555 1_555
C1 H1 1_555 1_555
H2 C1 1_555 1_555
H3 C1 1_555 1_555
C2 O2 1_555 1_555
C3 C2 1_555 1_555
C4 C3 1_555 1_555
H4 C4 1_555 1_555
C5 O5 1_555 1_555
H5 C5 1_555 1_555
C6 C5 1_555 1_555
C7 C6 1_555 1_555
C8 O4 1_555 1_555
H6 C8 1_555 1_555
H7 C8 1_555 1_555
H8 C8 1_555 1_555
C9 C3 1_555 1_555
H9 C9 1_555 1_555
H10 C9 1_555 1_555
H11 C9 1_555 1_555
C10 C6 1_555 1_555
H12 C10 1_555 1_555
H13 C10 1_555 1_555
H14 C10 1_555 1_555

#END
