
#######################################################################
#
#                 Cambridge Crystallographic Data Centre
#                                CCDC 
#
#######################################################################
#
# If this CIF has been generated from an entry in the Cambridge 
# Structural Database, then it will include bibliographic, chemical, 
# crystal, experimental, refinement or atomic coordinate data resulting 
# from the CCDC's data processing and validation procedures.
#
#######################################################################

data_OREXOA
_chemical_formula_moiety         'C20 H30 N3 O2 S1 1+,3(C1 H1 Cl3),Cl1 1-'
_chemical_name_systematic        
'2a-((t-butylsulfinyl)amino)-1-methyl-6-(2-methylprop-1-en-1-yl)-2-oxo-2,2a,3,4,5,6-hexahydro-1H-azepino[5,4,3-cd]indol-5-ium chloride chloroform solvate'
_symmetry_cell_setting           orthorhombic
_symmetry_space_group_name_H-M   'P 21 21 21'
_symmetry_Int_Tables_number      19
_space_group_name_Hall           'P 2ac 2ab'
loop_
_symmetry_equiv_pos_site_id
_symmetry_equiv_pos_as_xyz
1 x,y,z
2 1/2-x,-y,1/2+z
3 -x,1/2+y,1/2-z
4 1/2+x,1/2-y,-z
_cell_length_a                   12.4064(6)
_cell_length_b                   13.3489(7)
_cell_length_c                   20.4516(10)
_cell_angle_alpha                90
_cell_angle_beta                 90
_cell_angle_gamma                90
_cell_volume                     3387.03
_exptl_crystal_colour            colorless
_exptl_crystal_description       needle
_cell_formula_units_Z            4
loop_
_atom_site_label
_atom_site_type_symbol
_atom_site_fract_x
_atom_site_fract_y
_atom_site_fract_z
S1 S 0.33642(3) 0.17394(3) 0.183555(18)
O1 O 0.26861(9) 0.08375(8) -0.00254(6)
O2 O 0.40283(9) 0.23249(9) 0.23080(6)
N1 N 0.38275(11) -0.01980(9) 0.05422(6)
N2 N 0.63559(10) 0.27082(10) 0.06369(7)
H1 H 0.6799(14) 0.3209(13) 0.0631(9)
H2 H 0.6670(15) 0.2284(13) 0.0382(9)
N3 N 0.35863(11) 0.21623(10) 0.10854(6)
H3 H 0.3219(15) 0.2647(13) 0.0925(9)
C1 C 0.34605(12) 0.07054(11) 0.03324(7)
C2 C 0.41913(12) 0.15303(11) 0.06267(7)
C3 C 0.50383(12) 0.09173(11) 0.09798(7)
C4 C 0.59542(12) 0.12160(11) 0.13106(7)
C5 C 0.65727(13) 0.04682(12) 0.16087(7)
H4 H 0.7196 0.0649 0.1851
C6 C 0.62879(13) -0.05348(12) 0.15553(8)
H5 H 0.6719 -0.1025 0.1767
C7 C 0.53900(13) -0.08424(12) 0.12013(8)
H6 H 0.5208 -0.1530 0.1156
C8 C 0.47744(12) -0.00920(11) 0.09189(7)
C9 C 0.33586(14) -0.11513(11) 0.03581(8)
H7 H 0.2796 -0.1042 0.0029
H8 H 0.3042 -0.1471 0.0745
H9 H 0.3920 -0.1586 0.0176
C10 C 0.46508(12) 0.21732(11) 0.00747(7)
H10 H 0.5094 0.1744 -0.0214
H11 H 0.4047 0.2441 -0.0189
C11 C 0.53352(13) 0.30402(11) 0.03131(8)
H12 H 0.5517 0.3475 -0.0063
H13 H 0.4910 0.3444 0.0627
C12 C 0.62771(12) 0.23128(11) 0.13357(7)
H14 H 0.5709 0.2698 0.1575
C13 C 0.73557(13) 0.25279(12) 0.16404(8)
H15 H 0.7972 0.2277 0.1419
C14 C 0.75294(13) 0.30355(12) 0.21896(8)
C15 C 0.86591(15) 0.33048(14) 0.23973(10)
H16 H 0.9177 0.2999 0.2096
H17 H 0.8789 0.3056 0.2841
H18 H 0.8745 0.4035 0.2390
C16 C 0.66716(15) 0.33807(15) 0.26521(9)
H19 H 0.5965 0.3162 0.2492
H20 H 0.6685 0.4113 0.2681
H21 H 0.6802 0.3093 0.3086
C17 C 0.19657(12) 0.21671(12) 0.19527(8)
C18 C 0.12840(15) 0.16517(16) 0.14365(10)
H22 H 0.1410 0.0927 0.1454
H23 H 0.1481 0.1905 0.1003
H24 H 0.0520 0.1789 0.1519
C19 C 0.16734(15) 0.18075(14) 0.26397(9)
H25 H 0.0924 0.1987 0.2736
H26 H 0.2151 0.2126 0.2959
H27 H 0.1757 0.1078 0.2664
C20 C 0.18954(14) 0.32992(12) 0.19091(8)
H28 H 0.2091 0.3515 0.1467
H29 H 0.2393 0.3600 0.2225
H30 H 0.1157 0.3514 0.2007
C21 C 1.11548(15) 0.57088(13) 0.10409(9)
H31 H 1.1666 0.5240 0.0819
Cl1 Cl 1.11324(5) 0.68464(4) 0.06084(3)
Cl2 Cl 1.15991(4) 0.59122(4) 0.18473(2)
Cl3 Cl 0.98587(4) 0.51621(4) 0.10468(2)
C22 C 0.59001(14) 0.05746(13) 0.58400(8)
H32 H 0.6360 0.0035 0.5648
Cl4 Cl 0.46176(4) 0.05267(3) 0.54706(2)
Cl5 Cl 0.65225(4) 0.17379(4) 0.56979(3)
Cl6 Cl 0.57723(3) 0.03590(4) 0.66868(2)
C23 C 0.48621(16) 0.07810(14) 0.34221(9)
H33 H 0.4723 0.1207 0.3029
Cl7 Cl 0.56916(4) 0.14445(3) 0.39705(3)
Cl8 Cl 0.36144(4) 0.04773(4) 0.37966(3)
Cl9 Cl 0.55085(4) -0.03276(3) 0.31753(2)
Cl10 Cl 0.75543(3) 0.10699(3) -0.014613(18)
loop_
_geom_bond_atom_site_label_1
_geom_bond_atom_site_label_2
_geom_bond_site_symmetry_1
_geom_bond_site_symmetry_2
S1 O2 1_555 1_555
O1 C1 1_555 1_555
N1 C1 1_555 1_555
N2 H1 1_555 1_555
H2 N2 1_555 1_555
N3 S1 1_555 1_555
H3 N3 1_555 1_555
C1 C2 1_555 1_555
C2 N3 1_555 1_555
C3 C2 1_555 1_555
C4 C3 1_555 1_555
C5 C4 1_555 1_555
H4 C5 1_555 1_555
C6 C5 1_555 1_555
H5 C6 1_555 1_555
C7 C6 1_555 1_555
H6 C7 1_555 1_555
C8 N1 1_555 1_555
C9 N1 1_555 1_555
H7 C9 1_555 1_555
H8 C9 1_555 1_555
H9 C9 1_555 1_555
C10 C2 1_555 1_555
H10 C10 1_555 1_555
H11 C10 1_555 1_555
C11 N2 1_555 1_555
H12 C11 1_555 1_555
H13 C11 1_555 1_555
C12 N2 1_555 1_555
H14 C12 1_555 1_555
C13 C12 1_555 1_555
H15 C13 1_555 1_555
C14 C13 1_555 1_555
C15 C14 1_555 1_555
H16 C15 1_555 1_555
H17 C15 1_555 1_555
H18 C15 1_555 1_555
C16 C14 1_555 1_555
H19 C16 1_555 1_555
H20 C16 1_555 1_555
H21 C16 1_555 1_555
C17 S1 1_555 1_555
C18 C17 1_555 1_555
H22 C18 1_555 1_555
H23 C18 1_555 1_555
H24 C18 1_555 1_555
C19 C17 1_555 1_555
H25 C19 1_555 1_555
H26 C19 1_555 1_555
H27 C19 1_555 1_555
C20 C17 1_555 1_555
H28 C20 1_555 1_555
H29 C20 1_555 1_555
H30 C20 1_555 1_555
C21 H31 1_555 1_555
Cl1 C21 1_555 1_555
Cl2 C21 1_555 1_555
Cl3 C21 1_555 1_555
C22 H32 1_555 1_555
Cl4 C22 1_555 1_555
Cl5 C22 1_555 1_555
Cl6 C22 1_555 1_555
C23 H33 1_555 1_555
Cl7 C23 1_555 1_555
Cl8 C23 1_555 1_555
Cl9 C23 1_555 1_555
C3 C8 1_555 1_555
C4 C12 1_555 1_555
C7 C8 1_555 1_555
C10 C11 1_555 1_555

#END
