
#######################################################################
#
#                 Cambridge Crystallographic Data Centre
#                                CCDC 
#
#######################################################################
#
# If this CIF has been generated from an entry in the Cambridge 
# Structural Database, then it will include bibliographic, chemical, 
# crystal, experimental, refinement or atomic coordinate data resulting 
# from the CCDC's data processing and validation procedures.
#
#######################################################################

data_OREYIV
_chemical_formula_moiety         'C25 H26 F7 N3 O1 S1,0.5(C6 H14)'
_chemical_name_systematic        
'1-(3,5-bis(trifluoromethyl)phenyl)-3-((R)-1-((S)-2-(4-fluorophenyl)pyrrolidin-1-yl)-3,3-dimethyl-1-oxobutan-2-yl)thiourea hexane solvate'
_symmetry_cell_setting           triclinic
_symmetry_space_group_name_H-M   'P 1'
_symmetry_Int_Tables_number      1
_space_group_name_Hall           'P 1'
loop_
_symmetry_equiv_pos_site_id
_symmetry_equiv_pos_as_xyz
1 x,y,z
_cell_length_a                   11.5955(2)
_cell_length_b                   11.8094(2)
_cell_length_c                   13.3744(2)
_cell_angle_alpha                112.9220(10)
_cell_angle_beta                 92.3900(10)
_cell_angle_gamma                117.0850(10)
_cell_volume                     1447.26
_exptl_crystal_colour            colorless
_exptl_crystal_description       needle
_cell_formula_units_Z            2
loop_
_atom_site_label
_atom_site_type_symbol
_atom_site_fract_x
_atom_site_fract_y
_atom_site_fract_z
S1 S 0.48409(12) 1.10880(13) 0.88598(11)
F1 F 0.6042(4) 1.2796(4) 1.4690(3)
F2 F 0.2877(4) 0.4225(4) 0.8457(3)
F3 F 0.4404(4) 0.6171(4) 0.9892(3)
F4 F 0.4976(4) 0.5006(4) 0.8556(3)
O1 O 0.8803(3) 1.3937(4) 1.0897(3)
N1 N 0.7776(4) 1.5205(4) 1.1123(3)
N2 N 0.7367(4) 1.2142(4) 0.8730(3)
H1 H 0.8011 1.1998 0.8499
N3 N 0.6320(4) 0.9841(4) 0.8387(3)
H2 H 0.7123 0.9940 0.8444
C1 C 0.8503(5) 1.5290(6) 1.3898(4)
H3 H 0.9432 1.5999 1.4158
C2 C 0.7948(6) 1.4551(6) 1.4498(5)
H4 H 0.8486 1.4741 1.5164
C3 C 0.6596(6) 1.3530(6) 1.4114(4)
C4 C 0.5794(5) 1.3213(6) 1.3140(4)
H5 H 0.4865 1.2506 1.2887
C5 C 0.6382(5) 1.3955(5) 1.2539(4)
H6 H 0.5851 1.3731 1.1854
C6 C 0.7729(5) 1.5018(5) 1.2919(4)
C7 C 0.8374(5) 1.5962(5) 1.2363(4)
H7 H 0.9364 1.6345 1.2533
C8 C 0.8099(5) 1.7213(5) 1.2710(4)
H8 H 0.8057 1.7568 1.3503
H9 H 0.8806 1.8016 1.2616
C9 C 0.6734(5) 1.6544(5) 1.1903(4)
H10 H 0.5989 1.5981 1.2157
H11 H 0.6603 1.7289 1.1843
C10 C 0.6809(5) 1.5580(5) 1.0785(4)
H12 H 0.5917 1.4712 1.0346
H13 H 0.7143 1.6093 1.0330
C11 C 0.8107(5) 1.4266(5) 1.0480(4)
C12 C 0.7593(5) 1.3584(5) 0.9187(4)
H14 H 0.6713 1.3519 0.9002
C13 C 0.6238(5) 1.1036(5) 0.8647(4)
C14 C 0.5203(5) 0.8458(5) 0.8032(4)
C15 C 0.4146(5) 0.7860(5) 0.7091(4)
H15 H 0.4177 0.8398 0.6708
C16 C 0.3068(5) 0.6500(6) 0.6725(4)
C17 C 0.3019(5) 0.5682(6) 0.7263(4)
H16 H 0.2277 0.4739 0.7005
C18 C 0.4078(5) 0.6272(6) 0.8186(4)
C19 C 0.5166(5) 0.7661(5) 0.8573(4)
H17 H 0.5878 0.8057 0.9208
C20 C 0.8574(5) 1.4421(6) 0.8623(4)
C21 C 0.7923(7) 1.3608(7) 0.7353(5)
H18 H 0.7770 1.2636 0.7060
H19 H 0.8519 1.4108 0.6981
H20 H 0.7062 1.3558 0.7206
C22 C 0.9937(5) 1.4541(6) 0.8848(5)
H21 H 1.0340 1.5028 0.9662
H22 H 1.0530 1.5092 0.8504
H23 H 0.9816 1.3581 0.8522
C23 C 0.8788(5) 1.5938(6) 0.9064(5)
H24 H 0.7930 1.5868 0.8853
H25 H 0.9436 1.6462 0.8734
H26 H 0.9134 1.6446 0.9887
C24 C 0.1965(12) 0.5842(15) 0.5712(10)
F5 F 0.0752(10) 0.5343(16) 0.5972(10)
F6 F 0.1839(14) 0.4701(14) 0.4852(11)
F7 F 0.2058(14) 0.6816(14) 0.5409(14)
C25 C 0.4069(6) 0.5416(6) 0.8758(5)
S2 S 0.83845(12) 0.93369(13) 1.08785(11)
F11 F 0.4604(3) 0.4827(3) 0.5154(3)
F12 F 0.2437(3) 0.8178(3) 0.9862(2)
F13 F 0.2589(3) 1.0004(4) 1.1242(3)
F14 F 0.1746(3) 0.7992(4) 1.1288(3)
O2 O 0.9369(3) 1.1369(3) 0.8779(3)
N4 N 1.0343(4) 1.0056(4) 0.8524(3)
N5 N 0.9548(4) 1.1902(4) 1.0953(3)
H27 H 0.9603 1.2734 1.1160
N6 N 0.7574(4) 1.1235(4) 1.1404(3)
H28 H 0.7662 1.2012 1.1397
C27 C 0.7734(5) 0.8062(6) 0.5807(4)
H29 H 0.8139 0.8717 0.5509
C28 C 0.6432(5) 0.6892(6) 0.5254(4)
H30 H 0.5948 0.6744 0.4581
C29 C 0.5864(5) 0.5963(5) 0.5694(4)
C30 C 0.6515(5) 0.6170(5) 0.6684(4)
H31 H 0.6090 0.5524 0.6987
C31 C 0.7796(5) 0.7333(6) 0.7233(4)
H32 H 0.8250 0.7496 0.7927
C32 C 0.8438(5) 0.8274(5) 0.6788(4)
C33 C 0.9900(5) 0.9446(5) 0.7285(4)
H33 H 1.0066 1.0224 0.7078
C34 C 1.0873(5) 0.8909(6) 0.6917(4)
H34 H 1.0494 0.8137 0.6131
H35 H 1.1751 0.9699 0.6980
C35 C 1.1021(5) 0.8346(6) 0.7739(4)
H36 H 1.1859 0.8313 0.7785
H37 H 1.0246 0.7376 0.7511
C36 C 1.1067(5) 0.9440(5) 0.8868(4)
H38 H 1.0605 0.8967 0.9319
H39 H 1.2005 1.0190 0.9312
C37 C 1.0072(4) 1.1039(5) 0.9191(4)
C38 C 1.0587(5) 1.1704(5) 1.0474(4)
H40 H 1.0689 1.1002 1.0653
C39 C 0.8516(5) 1.0895(5) 1.1097(4)
C40 C 0.6462(5) 1.0452(5) 1.1735(4)
C41 C 0.6663(5) 1.0163(6) 1.2639(4)
H41 H 0.7543 1.0478 1.3020
C42 C 0.5562(6) 0.9418(6) 1.2959(4)
C43 C 0.4269(5) 0.8971(6) 1.2432(4)
H42 H 0.3524 0.8471 1.2671
C44 C 0.4082(5) 0.9265(5) 1.1552(4)
C45 C 0.5176(5) 1.0003(5) 1.1202(4)
H43 H 0.5036 1.0197 1.0596
C46 C 1.1962(5) 1.3156(5) 1.1023(4)
C47 C 1.2361(6) 1.3551(7) 1.2273(5)
H44 H 1.1693 1.3706 1.2636
H45 H 1.3245 1.4429 1.2642
H46 H 1.2400 1.2770 1.2339
C48 C 1.3051(5) 1.2976(6) 1.0506(5)
H47 H 1.3230 1.2344 1.0705
H48 H 1.3876 1.3913 1.0796
H49 H 1.2749 1.2555 0.9685
C49 C 1.1866(5) 1.4346(5) 1.0900(5)
H50 H 1.1521 1.4037 1.0102
H51 H 1.2759 1.5211 1.1198
H52 H 1.1255 1.4552 1.1320
C50 C 0.5746(13) 0.9118(14) 1.3920(9)
F15 F 0.4902(9) 0.7684(9) 1.3591(8)
F16 F 0.5411(11) 0.9769(11) 1.4808(7)
F17 F 0.6976(9) 0.9374(10) 1.4238(10)
C51 C 0.2707(5) 0.8850(6) 1.0991(5)
C53 C -0.0526(19) 0.187(2) 0.5473(19)
H53 H -0.0987 0.1177 0.5753
H54 H -0.1190 0.1942 0.5059
H55 H 0.0097 0.2813 0.6110
C54 C 0.026(3) 0.139(4) 0.469(2)
H56 H 0.0697 0.2085 0.4389
H57 H -0.0384 0.0452 0.4036
C55 C 0.1337(18) 0.125(2) 0.5240(16)
H58 H 0.0925 0.0509 0.5501
H59 H 0.2001 0.2169 0.5892
C56 C 0.2016(19) 0.080(2) 0.4306(16)
H60 H 0.1344 -0.0089 0.3633
H61 H 0.2486 0.1566 0.4084
C57 C 0.3017(19) 0.055(2) 0.4846(16)
H62 H 0.2559 -0.0398 0.4826
H63 H 0.3737 0.0632 0.4457
C58 C 0.358(3) 0.175(2) 0.6055(18)
H64 H 0.4032 0.2681 0.6053
H65 H 0.4230 0.1671 0.6476
H66 H 0.2848 0.1668 0.6414
C26? C 0.1961(16) 0.586(2) 0.5710(13)
F8? F 0.0734(16) 0.492(2) 0.5774(16)
F9? F 0.2167(19) 0.507(2) 0.4786(16)
F10? F 0.174(2) 0.675(2) 0.547(2)
C52? C 0.5788(18) 0.9159(18) 1.3940(12)
F18? F 0.4691(12) 0.7988(15) 1.3918(12)
F19? F 0.6045(15) 1.0271(15) 1.4904(11)
F20? F 0.6782(15) 0.8891(17) 1.3996(15)
C59? C 0.049(4) 0.139(5) 0.454(3)
H67? H -0.0054 0.0478 0.4561
H68? H -0.0100 0.1626 0.4232
H69? H 0.1017 0.2148 0.5310
C60? C 0.143(2) 0.126(2) 0.381(2)
H70? H 0.0896 0.0462 0.3051
H71? H 0.1909 0.2153 0.3733
C61? C 0.246(2) 0.102(2) 0.427(2)
H72? H 0.2960 0.1785 0.5047
H73? H 0.3107 0.1074 0.3805
C62? C 0.182(2) -0.0450(17) 0.4270(19)
H74? H 0.1688 -0.1215 0.3534
H75? H 0.0940 -0.0710 0.4453
C63? C 0.288(2) -0.018(2) 0.5213(19)
H76? H 0.2428 -0.0737 0.5613
H77? H 0.3495 -0.0487 0.4880
C64? C 0.368(3) 0.143(2) 0.604(2)
H78? H 0.4078 0.1979 0.5636
H79? H 0.4391 0.1617 0.6614
H80? H 0.3073 0.1711 0.6414
loop_
_geom_bond_atom_site_label_1
_geom_bond_atom_site_label_2
_geom_bond_site_symmetry_1
_geom_bond_site_symmetry_2
S1 C13 1_555 1_555
F1 C3 1_555 1_555
F2 C25 1_555 1_555
F3 C25 1_555 1_555
F4 C25 1_555 1_555
O1 C11 1_555 1_555
N1 C7 1_555 1_555
N2 H1 1_555 1_555
N3 H2 1_555 1_555
C1 H3 1_555 1_555
C2 C1 1_555 1_555
H4 C2 1_555 1_555
C3 C2 1_555 1_555
C4 C3 1_555 1_555
H5 C4 1_555 1_555
C5 C4 1_555 1_555
H6 C5 1_555 1_555
C6 C1 1_555 1_555
C7 C6 1_555 1_555
H7 C7 1_555 1_555
C8 C7 1_555 1_555
H8 C8 1_555 1_555
H9 C8 1_555 1_555
C9 C8 1_555 1_555
H10 C9 1_555 1_555
H11 C9 1_555 1_555
C10 N1 1_555 1_555
H12 C10 1_555 1_555
H13 C10 1_555 1_555
C11 N1 1_555 1_555
C12 N2 1_555 1_555
H14 C12 1_555 1_555
C13 N2 1_555 1_555
C14 N3 1_555 1_555
C15 C14 1_555 1_555
H15 C15 1_555 1_555
C16 C15 1_555 1_555
C17 C16 1_555 1_555
H16 C17 1_555 1_555
C18 C17 1_555 1_555
C19 C14 1_555 1_555
H17 C19 1_555 1_555
C20 C12 1_555 1_555
C21 C20 1_555 1_555
H18 C21 1_555 1_555
H19 C21 1_555 1_555
H20 C21 1_555 1_555
C22 C20 1_555 1_555
H21 C22 1_555 1_555
H22 C22 1_555 1_555
H23 C22 1_555 1_555
C23 C20 1_555 1_555
H24 C23 1_555 1_555
H25 C23 1_555 1_555
H26 C23 1_555 1_555
C24 C16 1_555 1_555
F5 C24 1_555 1_555
F6 C24 1_555 1_555
F7 C24 1_555 1_555
C25 C18 1_555 1_555
S2 C39 1_555 1_555
F11 C29 1_555 1_555
F12 C51 1_555 1_555
F13 C51 1_555 1_555
F14 C51 1_555 1_555
O2 C37 1_555 1_555
N4 C33 1_555 1_555
N5 H27 1_555 1_555
N6 H28 1_555 1_555
C27 H29 1_555 1_555
C28 C27 1_555 1_555
H30 C28 1_555 1_555
C29 C28 1_555 1_555
C30 C29 1_555 1_555
H31 C30 1_555 1_555
C31 C30 1_555 1_555
H32 C31 1_555 1_555
C32 C27 1_555 1_555
C33 C32 1_555 1_555
H33 C33 1_555 1_555
C34 C33 1_555 1_555
H34 C34 1_555 1_555
H35 C34 1_555 1_555
C35 C34 1_555 1_555
H36 C35 1_555 1_555
H37 C35 1_555 1_555
C36 N4 1_555 1_555
H38 C36 1_555 1_555
H39 C36 1_555 1_555
C37 N4 1_555 1_555
C38 N5 1_555 1_555
H40 C38 1_555 1_555
C39 N5 1_555 1_555
C40 N6 1_555 1_555
C41 C40 1_555 1_555
H41 C41 1_555 1_555
C42 C41 1_555 1_555
C43 C42 1_555 1_555
H42 C43 1_555 1_555
C44 C43 1_555 1_555
C45 C40 1_555 1_555
H43 C45 1_555 1_555
C46 C38 1_555 1_555
C47 C46 1_555 1_555
H44 C47 1_555 1_555
H45 C47 1_555 1_555
H46 C47 1_555 1_555
C48 C46 1_555 1_555
H47 C48 1_555 1_555
H48 C48 1_555 1_555
H49 C48 1_555 1_555
C49 C46 1_555 1_555
H50 C49 1_555 1_555
H51 C49 1_555 1_555
H52 C49 1_555 1_555
C50 C42 1_555 1_555
F15 C50 1_555 1_555
F16 C50 1_555 1_555
F17 C50 1_555 1_555
C51 C44 1_555 1_555
C53 H53 1_555 1_555
H54 C53 1_555 1_555
H55 C53 1_555 1_555
C54 C53 1_555 1_555
H56 C54 1_555 1_555
H57 C54 1_555 1_555
C55 C54 1_555 1_555
H58 C55 1_555 1_555
H59 C55 1_555 1_555
C56 C55 1_555 1_555
H60 C56 1_555 1_555
H61 C56 1_555 1_555
C57 C56 1_555 1_555
H62 C57 1_555 1_555
H63 C57 1_555 1_555
C58 C57 1_555 1_555
H64 C58 1_555 1_555
H65 C58 1_555 1_555
H66 C58 1_555 1_555
N3 C13 1_555 1_555
C5 C6 1_555 1_555
C9 C10 1_555 1_555
C11 C12 1_555 1_555
C18 C19 1_555 1_555
N6 C39 1_555 1_555
C31 C32 1_555 1_555
C35 C36 1_555 1_555
C37 C38 1_555 1_555
C44 C45 1_555 1_555

#END
