
#######################################################################
#
#                 Cambridge Crystallographic Data Centre
#                                CCDC 
#
#######################################################################
#
# If this CIF has been generated from an entry in the Cambridge 
# Structural Database, then it will include bibliographic, chemical, 
# crystal, experimental, refinement or atomic coordinate data resulting 
# from the CCDC's data processing and validation procedures.
#
#######################################################################

data_OREYOB
_chemical_name_common            
'1-(3,5-bis(trifluoromethyl)phenyl)-3-((S)-1-((R)-2-(4-fluorophenyl)pyrrolidin-1-yl)-3,3-dimethyl-1-oxobutan-2-yl)thiourea 1-(3,5-bis(trifluoromethyl)phenyl)-3-((R)-1-((S)-2-(4-fluorophenyl)pyrrolidin-1-yl)-3,3-dimethyl-1-oxobutan-2-yl)thiourea'
_chemical_formula_moiety         'C25 H26 F7 N3 O1 S1'
_chemical_name_systematic        
1-(3,5-bis(trifluoromethyl)phenyl)-3-(1-(2-(4-fluorophenyl)pyrrolidin-1-yl)-3,3-dimethyl-1-oxobutan-2-yl)thiourea
_symmetry_cell_setting           triclinic
_symmetry_space_group_name_H-M   'P -1'
_symmetry_Int_Tables_number      2
_space_group_name_Hall           '-P 1'
loop_
_symmetry_equiv_pos_site_id
_symmetry_equiv_pos_as_xyz
1 x,y,z
2 -x,-y,-z
_cell_length_a                   13.1841(3)
_cell_length_b                   20.3186(4)
_cell_length_c                   20.8594(4)
_cell_angle_alpha                104.0920(10)
_cell_angle_beta                 101.3050(10)
_cell_angle_gamma                100.4970(10)
_cell_volume                     5156.93
_exptl_crystal_colour            colorless
_exptl_crystal_description       plate
_cell_formula_units_Z            8
loop_
_atom_site_label
_atom_site_type_symbol
_atom_site_fract_x
_atom_site_fract_y
_atom_site_fract_z
C1 C 0.4871(3) 0.44128(19) 1.14365(19)
H1 H 0.4926 0.4590 1.1060
C2 C 0.5716(3) 0.4200(2) 1.1760(2)
H2 H 0.6354 0.4229 1.1611
C3 C 0.5613(3) 0.3945(2) 1.2300(2)
C4 C 0.4720(4) 0.3899(2) 1.2538(2)
H3 H 0.4677 0.3725 1.2918
C5 C 0.3873(3) 0.41146(19) 1.22103(18)
H4 H 0.3241 0.4086 1.2367
C6 C 0.3938(3) 0.43708(17) 1.16579(17)
C7 C 0.3029(3) 0.46390(18) 1.13353(17)
H5 H 0.2371 0.4446 1.1465
C8 C 0.3253(3) 0.54427(18) 1.15494(18)
H6 H 0.2934 0.5614 1.1930
H7 H 0.4030 0.5656 1.1694
C9 C 0.2734(3) 0.56167(19) 1.09079(19)
H8 H 0.1959 0.5568 1.0859
H9 H 0.3067 0.6098 1.0917
C10 C 0.2946(3) 0.50763(18) 1.03368(18)
H10 H 0.2427 0.4997 0.9897
H11 H 0.3677 0.5218 1.0284
C11 C 0.2421(3) 0.37805(17) 1.02127(17)
C12 C 0.2193(3) 0.35887(18) 0.94322(17)
H12 H 0.2528 0.4002 0.9301
C13 C 0.3612(3) 0.31044(17) 0.90162(16)
C14 C 0.4924(3) 0.23918(18) 0.87594(18)
C15 C 0.5462(4) 0.2006(2) 0.9105(2)
H13 H 0.5208 0.1858 0.9455
C16 C 0.6373(4) 0.1834(3) 0.8942(2)
C17 C 0.6752(3) 0.2047(2) 0.8436(2)
H14 H 0.7375 0.1931 0.8325
C18 C 0.6212(3) 0.24290(19) 0.80969(19)
C19 C 0.5301(3) 0.26090(18) 0.82494(18)
H15 H 0.4942 0.2876 0.8009
C20 C 0.0976(3) 0.3370(2) 0.90788(18)
C21 C 0.0424(3) 0.2671(2) 0.9157(2)
H16 H 0.0737 0.2300 0.8942
H17 H -0.0339 0.2560 0.8935
H18 H 0.0521 0.2706 0.9643
C22 C 0.0863(3) 0.3302(3) 0.8323(2)
H19 H 0.1187 0.3754 0.8270
H20 H 0.0106 0.3161 0.8081
H21 H 0.1224 0.2949 0.8131
C23 C 0.0440(3) 0.3941(2) 0.9384(2)
H22 H 0.0528 0.3994 0.9872
H23 H -0.0321 0.3808 0.9153
H24 H 0.0771 0.4385 0.9319
N1 N 0.2810(2) 0.44498(15) 1.05806(14)
N2 N 0.2696(2) 0.30246(14) 0.92166(14)
H25 H 0.2385 0.2603 0.9217
N3 N 0.3974(2) 0.25057(15) 0.89277(15)
H26 H 0.3557 0.2144 0.8983
O1 O 0.22660(19) 0.33128(12) 1.04944(12)
F1 F 0.6446(2) 0.37188(14) 1.26083(15)
C24 C 0.6651(3) 0.26629(18) 0.75582(18)
F2 F 0.75758(19) 0.31316(12) 0.78092(13)
F3 F 0.6000(2) 0.29512(14) 0.72028(13)
F4 F 0.6820(2) 0.21280(11) 0.71055(12)
C25 C 0.7075(5) 0.1558(4) 0.9400(3)
F5 F 0.6992(4) 0.1686(3) 1.0031(3)
F6 F 0.8128(4) 0.1746(3) 0.9477(3)
F7 F 0.6865(6) 0.0869(3) 0.9113(4)
S1 S 0.42296(8) 0.38462(5) 0.89021(5)
C26 C -0.1274(7) 0.1542(3) 0.4255(4)
H27 H -0.1363 0.1901 0.4046
C27 C -0.1466(6) 0.0855(4) 0.3854(4)
H28 H -0.1686 0.0744 0.3370
C28 C -0.1336(6) 0.0329(2) 0.4160(5)
C29 C -0.1014(8) 0.0491(3) 0.4867(5)
H29 H -0.0925 0.0132 0.5076
C30 C -0.0822(8) 0.1178(3) 0.5268(4)
H30 H -0.0602 0.1288 0.5751
C31 C -0.0952(7) 0.1703(2) 0.4962(4)
F8 F -0.1491(7) -0.0325(3) 0.3776(6)
C32 C -0.0809(3) 0.2455(2) 0.5379(2)
H31 H -0.0864 0.2753 0.5062
C33 C -0.1631(3) 0.2552(2) 0.5806(2)
H32 H -0.1818 0.3006 0.5833
H33 H -0.2288 0.2171 0.5606
C34 C -0.1067(3) 0.2528(3) 0.6511(2)
H34 H -0.1346 0.2798 0.6871
H35 H -0.1171 0.2039 0.6532
C35 C 0.0108(3) 0.2853(2) 0.66042(19)
H36 H 0.0294 0.3358 0.6853
H37 H 0.0568 0.2617 0.6858
C36 C 0.1134(3) 0.28899(18) 0.57146(18)
C37 C 0.2184(3) 0.31026(19) 0.62596(18)
H38 H 0.2018 0.3072 0.6701
C38 C 0.3003(3) 0.21194(18) 0.63973(17)
C39 C 0.4108(3) 0.1231(2) 0.62759(19)
C40 C 0.3993(3) 0.0918(2) 0.67856(19)
H39 H 0.3476 0.1006 0.7034
C41 C 0.4630(4) 0.0477(2) 0.6932(2)
C42 C 0.5421(4) 0.0355(2) 0.6593(2)
H40 H 0.5874 0.0066 0.6711
C43 C 0.5529(3) 0.0667(2) 0.6078(2)
C44 C 0.4891(3) 0.1100(2) 0.5924(2)
H41 H 0.4981 0.1315 0.5575
C45 C 0.2853(3) 0.3854(2) 0.6378(2)
C46 C 0.3805(4) 0.4002(2) 0.6989(2)
H42 H 0.3549 0.3962 0.7391
H43 H 0.4242 0.4476 0.7080
H44 H 0.4236 0.3663 0.6886
C47 C 0.3287(3) 0.3941(2) 0.5764(2)
H45 H 0.3729 0.3609 0.5664
H46 H 0.3717 0.4419 0.5871
H47 H 0.2690 0.3850 0.5365
C48 C 0.2145(4) 0.4362(2) 0.6534(2)
H48 H 0.1530 0.4253 0.6142
H49 H 0.2556 0.4842 0.6621
H50 H 0.1897 0.4317 0.6938
N4 N 0.0223(2) 0.27424(17) 0.58981(15)
N5 N 0.2756(2) 0.25737(16) 0.60537(15)
H51 H 0.2959 0.2548 0.5672
N6 N 0.3539(3) 0.16862(17) 0.60657(15)
H52 H 0.3520 0.1698 0.5645
O2 O 0.1125(2) 0.28159(13) 0.51012(12)
C49 C 0.4482(4) 0.0118(2) 0.7465(2)
F9 F 0.4228(8) 0.0515(3) 0.7994(4)
F10 F 0.5374(4) -0.0036(5) 0.7740(3)
F11 F 0.3758(6) -0.0483(3) 0.7226(5)
C50 C 0.6354(3) 0.0540(2) 0.5692(2)
F12 F 0.6313(2) -0.01408(14) 0.54570(13)
F13 F 0.7354(2) 0.08262(15) 0.61105(14)
F14 F 0.6298(2) 0.08031(16) 0.51683(14)
S2 S 0.26992(8) 0.21100(5) 0.71355(5)
C51 C 0.8823(3) 0.90619(19) 1.21361(19)
H53 H 0.8190 0.9014 1.2290
C52 C 0.9674(4) 0.8838(2) 1.2442(2)
H54 H 0.9636 0.8642 1.2809
C53 C 1.0567(3) 0.8905(2) 1.2204(2)
C54 C 1.0667(3) 0.9193(2) 1.1684(2)
H55 H 1.1305 0.9236 1.1534
C55 C 0.9820(3) 0.94202(19) 1.13833(19)
H56 H 0.9873 0.9622 1.1022
C56 C 0.8888(3) 0.93554(18) 1.16067(18)
C57 C 0.7971(3) 0.96208(18) 1.12919(17)
H57 H 0.7315 0.9418 1.1418
C58 C 0.8179(3) 1.04251(19) 1.15108(19)
H58 H 0.7844 1.0588 1.1886
H59 H 0.8953 1.0644 1.1665
C59 C 0.7674(3) 1.0603(2) 1.0872(2)
H60 H 0.6898 1.0553 1.0818
H61 H 0.8009 1.1085 1.0886
C60 C 0.7895(3) 1.00662(18) 1.02979(19)
H62 H 0.7377 0.9988 0.9857
H63 H 0.8627 1.0212 1.0248
C61 C 0.7407(3) 0.87656(18) 1.01720(17)
C62 C 0.7192(3) 0.85707(18) 0.93937(17)
H64 H 0.7521 0.8985 0.9262
C63 C 0.8621(3) 0.80905(18) 0.89793(17)
C64 C 0.9929(3) 0.73735(18) 0.87097(18)
C65 C 1.0475(3) 0.6996(2) 0.9060(2)
H65 H 1.0227 0.6851 0.9413
C66 C 1.1389(4) 0.6826(3) 0.8896(2)
C67 C 1.1753(3) 0.7024(2) 0.8381(2)
H66 H 1.2371 0.6904 0.8265
C68 C 1.1201(3) 0.7401(2) 0.8036(2)
C69 C 1.0290(3) 0.75805(18) 0.81940(19)
H67 H 0.9922 0.7841 0.7951
C70 C 0.5977(3) 0.8337(2) 0.90328(18)
C71 C 0.5441(3) 0.7639(2) 0.9116(2)
H68 H 0.5763 0.7272 0.8905
H69 H 0.4677 0.7521 0.8893
H70 H 0.5538 0.7678 0.9603
C72 C 0.5869(4) 0.8255(3) 0.8274(2)
H71 H 0.6186 0.8704 0.8213
H72 H 0.5113 0.8105 0.8029
H73 H 0.6240 0.7904 0.8092
C73 C 0.5424(3) 0.8903(2) 0.9325(2)
H74 H 0.5528 0.8973 0.9817
H75 H 0.4660 0.8754 0.9101
H76 H 0.5732 0.9342 0.9243
N7 N 0.7761(2) 0.94363(15) 1.05380(14)
N8 N 0.7714(2) 0.80107(14) 0.91867(14)
H77 H 0.7415 0.7591 0.9198
N9 N 0.8982(2) 0.74896(15) 0.88841(15)
H78 H 0.8566 0.7128 0.8940
O3 O 0.72651(19) 0.82977(12) 1.04529(12)
F15 F 1.1400(2) 0.86632(13) 1.24847(13)
C74 C 1.2060(11) 0.6522(8) 0.9362(6)
F16 F 1.1999(8) 0.6697(6) 0.9990(5)
F17 F 1.3110(15) 0.6681(13) 0.9410(14)
F18 F 1.1767(9) 0.5839(6) 0.9089(6)
C75 C 1.1608(4) 0.7610(2) 0.7476(2)
F19 F 1.2617(7) 0.8011(6) 0.7735(8)
F20 F 1.1081(8) 0.8014(7) 0.7204(6)
F21 F 1.1637(14) 0.7074(6) 0.6971(6)
S3 S 0.92303(8) 0.88285(5) 0.88562(6)
C76 C 0.3956(3) 0.6728(3) 0.4299(2)
H79 H 0.3831 0.7071 0.4074
C77 C 0.3722(4) 0.6036(3) 0.3922(3)
H80 H 0.3445 0.5901 0.3441
C78 C 0.3897(4) 0.5553(3) 0.4252(3)
C79 C 0.4343(4) 0.5739(3) 0.4961(3)
H81 H 0.4474 0.5393 0.5181
C80 C 0.4586(4) 0.6435(2) 0.5326(2)
H82 H 0.4903 0.6575 0.5803
C81 C 0.4372(3) 0.6934(2) 0.50042(19)
C82 C 0.4576(3) 0.7697(2) 0.53999(19)
H83 H 0.4609 0.7990 0.5079
C83 C 0.3759(4) 0.7871(3) 0.5810(2)
H84 H 0.3703 0.8359 0.5863
H85 H 0.3046 0.7553 0.5582
C84 C 0.4202(3) 0.7765(2) 0.6500(2)
H86 H 0.3927 0.8037 0.6860
H87 H 0.4013 0.7265 0.6480
C85 C 0.5399(3) 0.8032(2) 0.66293(18)
H88 H 0.5632 0.8534 0.6891
H89 H 0.5789 0.7764 0.6885
C86 C 0.6504(3) 0.79802(19) 0.57612(18)
C87 C 0.7536(3) 0.81473(18) 0.63166(18)
H90 H 0.7345 0.8099 0.6747
C88 C 0.8136(3) 0.70734(19) 0.63609(18)
C89 C 0.8773(4) 0.5975(2) 0.6113(2)
C90 C 0.8654(3) 0.5429(2) 0.5505(2)
H91 H 0.8469 0.5510 0.5072
C91 C 0.8807(4) 0.4780(2) 0.5541(3)
C92 C 0.9042(4) 0.4639(3) 0.6165(3)
H92 H 0.9132 0.4191 0.6188
C93 C 0.9146(4) 0.5179(3) 0.6765(3)
C94 C 0.8994(3) 0.5830(2) 0.6730(2)
H93 H 0.9042 0.6180 0.7139
C95 C 0.8233(3) 0.88974(19) 0.6468(2)
C96 C 0.8537(3) 0.9046(2) 0.5833(2)
H94 H 0.8891 0.8692 0.5632
H95 H 0.9022 0.9510 0.5964
H96 H 0.7892 0.9030 0.5496
C97 C 0.9249(3) 0.8991(2) 0.7019(2)
H97 H 0.9056 0.8879 0.7418
H98 H 0.9665 0.9476 0.7155
H99 H 0.9674 0.8677 0.6838
C98 C 0.7601(4) 0.9408(2) 0.6744(2)
H100 H 0.6912 0.9314 0.6416
H101 H 0.8000 0.9888 0.6815
H102 H 0.7484 0.9352 0.7180
N10 N 0.5579(3) 0.79217(17) 0.59351(15)
N11 N 0.8096(3) 0.76160(15) 0.60998(15)
H103 H 0.8431 0.7649 0.5779
N12 N 0.8652(3) 0.66240(16) 0.60325(16)
H104 H 0.8949 0.6761 0.5729
O4 O 0.6526(2) 0.78770(14) 0.51539(12)
F22 F 0.3690(3) 0.48648(18) 0.3903(2)
C99 C 0.8694(3) 0.4212(2) 0.4894(2)
F23 F 0.7848(3) 0.37091(17) 0.47551(19)
F24 F 0.9530(3) 0.39086(16) 0.49601(18)
F25 F 0.8691(3) 0.44587(15) 0.43575(15)
C100 C 0.9394(4) 0.5014(3) 0.7413(3)
F26 F 0.9270(5) 0.5486(2) 0.7948(2)
F27 F 1.0361(3) 0.4929(4) 0.7605(2)
F28 F 0.8758(6) 0.4407(3) 0.7394(3)
S4 S 0.76162(9) 0.69722(6) 0.70090(5)
C101? C 0.6754(6) 0.1270(5) 0.9223(4)
F29? F 0.6133(5) 0.0891(4) 0.9486(4)
F30? F 0.7610(6) 0.1622(4) 0.9730(4)
F31? F 0.7123(9) 0.0808(5) 0.8809(5)
C102? C -0.089(2) 0.1709(7) 0.5007(13)
C103? C -0.140(2) 0.1415(12) 0.4319(13)
H105? H -0.1663 0.1698 0.4056
C104? C -0.153(2) 0.0705(13) 0.4014(11)
H106? H -0.1887 0.0504 0.3543
C105? C -0.1152(19) 0.0290(7) 0.4397(14)
C106? C -0.064(2) 0.0584(11) 0.5086(12)
H107? H -0.0375 0.0300 0.5348
C107? C -0.050(2) 0.1294(12) 0.5390(10)
H108? H -0.0151 0.1495 0.5861
F32? F -0.138(3) -0.0385(10) 0.4057(15)
H109? H -0.0868 0.2738 0.5049
F33? F 0.371(2) 0.0290(15) 0.7732(14)
F34? F 0.5354(18) 0.016(2) 0.7906(13)
F35? F 0.409(3) -0.0567(9) 0.715(2)
C108? C 1.1698(13) 0.6246(7) 0.9163(9)
F36? F 1.1099(10) 0.5838(7) 0.9415(7)
F37? F 1.2596(11) 0.6560(8) 0.9654(7)
F38? F 1.198(2) 0.5736(11) 0.8732(9)
F39? F 0.873(3) 0.522(2) 0.7716(18)
F40? F 1.0423(13) 0.529(2) 0.7683(19)
F41? F 0.935(4) 0.4339(9) 0.7332(11)
F42? F 1.1715(13) 0.6354(10) 0.9832(8)
F43? F 1.306(2) 0.674(2) 0.946(2)
F44? F 1.202(2) 0.5791(9) 0.8889(8)
C109? C 1.2010(16) 0.6427(10) 0.9280(8)
F45? F 1.2488(17) 0.8126(14) 0.765(2)
F46? F 1.0849(14) 0.7768(12) 0.7047(10)
F47? F 1.185(3) 0.7059(16) 0.7089(15)
loop_
_geom_bond_atom_site_label_1
_geom_bond_atom_site_label_2
_geom_bond_site_symmetry_1
_geom_bond_site_symmetry_2
C1 H1 1_555 1_555
C2 C1 1_555 1_555
H2 C2 1_555 1_555
C3 C2 1_555 1_555
C4 C3 1_555 1_555
H3 C4 1_555 1_555
C5 C4 1_555 1_555
H4 C5 1_555 1_555
C6 C1 1_555 1_555
C7 C6 1_555 1_555
H5 C7 1_555 1_555
C8 C7 1_555 1_555
H6 C8 1_555 1_555
H7 C8 1_555 1_555
C9 C8 1_555 1_555
H8 C9 1_555 1_555
H9 C9 1_555 1_555
C10 C9 1_555 1_555
H10 C10 1_555 1_555
H11 C10 1_555 1_555
C11 C12 1_555 1_555
C12 H12 1_555 1_555
C13 N2 1_555 1_555
C14 C15 1_555 1_555
C15 H13 1_555 1_555
C16 C15 1_555 1_555
C17 C16 1_555 1_555
H14 C17 1_555 1_555
C18 C17 1_555 1_555
C19 C14 1_555 1_555
H15 C19 1_555 1_555
C20 C12 1_555 1_555
C21 C20 1_555 1_555
H16 C21 1_555 1_555
H17 C21 1_555 1_555
H18 C21 1_555 1_555
C22 C20 1_555 1_555
H19 C22 1_555 1_555
H20 C22 1_555 1_555
H21 C22 1_555 1_555
C23 C20 1_555 1_555
H22 C23 1_555 1_555
H23 C23 1_555 1_555
H24 C23 1_555 1_555
N1 C7 1_555 1_555
N2 C12 1_555 1_555
H25 N2 1_555 1_555
N3 C13 1_555 1_555
H26 N3 1_555 1_555
O1 C11 1_555 1_555
F1 C3 1_555 1_555
C24 C18 1_555 1_555
F2 C24 1_555 1_555
F3 C24 1_555 1_555
F4 C24 1_555 1_555
C25 C16 1_555 1_555
F5 C25 1_555 1_555
F6 C25 1_555 1_555
F7 C25 1_555 1_555
S1 C13 1_555 1_555
C26 H27 1_555 1_555
C27 C26 1_555 1_555
H28 C27 1_555 1_555
C28 C27 1_555 1_555
C29 C28 1_555 1_555
H29 C29 1_555 1_555
C30 C29 1_555 1_555
H30 C30 1_555 1_555
C31 C26 1_555 1_555
F8 C28 1_555 1_555
C32 C31 1_555 1_555
H31 C32 1_555 1_555
C33 C32 1_555 1_555
H32 C33 1_555 1_555
H33 C33 1_555 1_555
C34 C33 1_555 1_555
H34 C34 1_555 1_555
H35 C34 1_555 1_555
C35 C34 1_555 1_555
H36 C35 1_555 1_555
H37 C35 1_555 1_555
C36 C37 1_555 1_555
C37 H38 1_555 1_555
C38 N5 1_555 1_555
C39 C40 1_555 1_555
C40 H39 1_555 1_555
C41 C40 1_555 1_555
C42 C41 1_555 1_555
H40 C42 1_555 1_555
C43 C42 1_555 1_555
C44 C39 1_555 1_555
H41 C44 1_555 1_555
C45 C37 1_555 1_555
C46 C45 1_555 1_555
H42 C46 1_555 1_555
H43 C46 1_555 1_555
H44 C46 1_555 1_555
C47 C45 1_555 1_555
H45 C47 1_555 1_555
H46 C47 1_555 1_555
H47 C47 1_555 1_555
C48 C45 1_555 1_555
H48 C48 1_555 1_555
H49 C48 1_555 1_555
H50 C48 1_555 1_555
N4 C32 1_555 1_555
N5 C37 1_555 1_555
H51 N5 1_555 1_555
N6 C38 1_555 1_555
H52 N6 1_555 1_555
O2 C36 1_555 1_555
C49 C41 1_555 1_555
F9 C49 1_555 1_555
F10 C49 1_555 1_555
F11 C49 1_555 1_555
C50 C43 1_555 1_555
F12 C50 1_555 1_555
F13 C50 1_555 1_555
F14 C50 1_555 1_555
S2 C38 1_555 1_555
C51 H53 1_555 1_555
C52 C51 1_555 1_555
H54 C52 1_555 1_555
C53 C52 1_555 1_555
C54 C53 1_555 1_555
H55 C54 1_555 1_555
C55 C54 1_555 1_555
H56 C55 1_555 1_555
C56 C51 1_555 1_555
C57 C56 1_555 1_555
H57 C57 1_555 1_555
C58 C57 1_555 1_555
H58 C58 1_555 1_555
H59 C58 1_555 1_555
C59 C58 1_555 1_555
H60 C59 1_555 1_555
H61 C59 1_555 1_555
C60 C59 1_555 1_555
H62 C60 1_555 1_555
H63 C60 1_555 1_555
C61 C62 1_555 1_555
C62 H64 1_555 1_555
C63 N8 1_555 1_555
C64 C65 1_555 1_555
C65 H65 1_555 1_555
C66 C65 1_555 1_555
C67 C66 1_555 1_555
H66 C67 1_555 1_555
C68 C67 1_555 1_555
C69 C64 1_555 1_555
H67 C69 1_555 1_555
C70 C62 1_555 1_555
C71 C70 1_555 1_555
H68 C71 1_555 1_555
H69 C71 1_555 1_555
H70 C71 1_555 1_555
C72 C70 1_555 1_555
H71 C72 1_555 1_555
H72 C72 1_555 1_555
H73 C72 1_555 1_555
C73 C70 1_555 1_555
H74 C73 1_555 1_555
H75 C73 1_555 1_555
H76 C73 1_555 1_555
N7 C57 1_555 1_555
N8 C62 1_555 1_555
H77 N8 1_555 1_555
N9 C63 1_555 1_555
H78 N9 1_555 1_555
O3 C61 1_555 1_555
F15 C53 1_555 1_555
C74 C66 1_555 1_555
F16 C74 1_555 1_555
F17 C74 1_555 1_555
F18 C74 1_555 1_555
C75 C68 1_555 1_555
F19 C75 1_555 1_555
F20 C75 1_555 1_555
F21 C75 1_555 1_555
S3 C63 1_555 1_555
C76 H79 1_555 1_555
C77 C76 1_555 1_555
H80 C77 1_555 1_555
C78 C77 1_555 1_555
C79 C78 1_555 1_555
H81 C79 1_555 1_555
C80 C79 1_555 1_555
H82 C80 1_555 1_555
C81 C76 1_555 1_555
C82 C81 1_555 1_555
H83 C82 1_555 1_555
C83 C82 1_555 1_555
H84 C83 1_555 1_555
H85 C83 1_555 1_555
C84 C83 1_555 1_555
H86 C84 1_555 1_555
H87 C84 1_555 1_555
C85 C84 1_555 1_555
H88 C85 1_555 1_555
H89 C85 1_555 1_555
C86 C87 1_555 1_555
C87 H90 1_555 1_555
C88 N11 1_555 1_555
C89 C90 1_555 1_555
C90 H91 1_555 1_555
C91 C90 1_555 1_555
C92 C91 1_555 1_555
H92 C92 1_555 1_555
C93 C92 1_555 1_555
C94 C89 1_555 1_555
H93 C94 1_555 1_555
C95 C87 1_555 1_555
C96 C95 1_555 1_555
H94 C96 1_555 1_555
H95 C96 1_555 1_555
H96 C96 1_555 1_555
C97 C95 1_555 1_555
H97 C97 1_555 1_555
H98 C97 1_555 1_555
H99 C97 1_555 1_555
C98 C95 1_555 1_555
H100 C98 1_555 1_555
H101 C98 1_555 1_555
H102 C98 1_555 1_555
N10 C82 1_555 1_555
N11 C87 1_555 1_555
H103 N11 1_555 1_555
N12 C88 1_555 1_555
H104 N12 1_555 1_555
O4 C86 1_555 1_555
F22 C78 1_555 1_555
C99 C91 1_555 1_555
F23 C99 1_555 1_555
F24 C99 1_555 1_555
F25 C99 1_555 1_555
C100 C93 1_555 1_555
F26 C100 1_555 1_555
F27 C100 1_555 1_555
F28 C100 1_555 1_555
S4 C88 1_555 1_555
C5 C6 1_555 1_555
C10 N1 1_555 1_555
C11 N1 1_555 1_555
C14 N3 1_555 1_555
C18 C19 1_555 1_555
C30 C31 1_555 1_555
C35 N4 1_555 1_555
C36 N4 1_555 1_555
C39 N6 1_555 1_555
C43 C44 1_555 1_555
C55 C56 1_555 1_555
C60 N7 1_555 1_555
C61 N7 1_555 1_555
C64 N9 1_555 1_555
C68 C69 1_555 1_555
C80 C81 1_555 1_555
C85 N10 1_555 1_555
C86 N10 1_555 1_555
C89 N12 1_555 1_555
C93 C94 1_555 1_555

#END
