
#######################################################################
#
#                 Cambridge Crystallographic Data Centre
#                                CCDC 
#
#######################################################################
#
# If this CIF has been generated from an entry in the Cambridge 
# Structural Database, then it will include bibliographic, chemical, 
# crystal, experimental, refinement or atomic coordinate data resulting 
# from the CCDC's data processing and validation procedures.
#
#######################################################################

data_OREZOC
_chemical_formula_moiety         '2(C25 H26 F7 N3 O2),C4 H12 N1 1+,Cl1 1-'
_chemical_name_systematic        
'tetramethylammonium chloride bis(1-(3,5-bis(trifluoromethyl)phenyl)-3-(1-(2-(4-fluorophenyl)pyrrolidin-1-yl)-3,3-dimethyl-1-oxobutan-2-yl)urea)'
_symmetry_cell_setting           monoclinic
_symmetry_space_group_name_H-M   'C 2'
_symmetry_Int_Tables_number      5
_space_group_name_Hall           'C 2y'
loop_
_symmetry_equiv_pos_site_id
_symmetry_equiv_pos_as_xyz
1 x,y,z
2 -x,y,-z
3 1/2+x,1/2+y,z
4 1/2-x,1/2+y,-z
_cell_length_a                   21.9073(11)
_cell_length_b                   10.2539(5)
_cell_length_c                   15.4936(8)
_cell_angle_alpha                90
_cell_angle_beta                 119.671(3)
_cell_angle_gamma                90
_cell_volume                     3024.07
_exptl_crystal_colour            colorless
_exptl_crystal_description       plate
_cell_formula_units_Z            2
loop_
_atom_site_label
_atom_site_type_symbol
_atom_site_fract_x
_atom_site_fract_y
_atom_site_fract_z
C1 C 0.7953(10) 0.3014(11) 0.6731(15)
H1 H 0.7929 0.2105 0.6600
C2 C 0.7529(9) 0.3558(13) 0.7071(14)
H2 H 0.7217 0.3021 0.7172
C3 C 0.7563(6) 0.4888(14) 0.7263(12)
C4 C 0.8020(6) 0.5674(12) 0.7115(13)
H3 H 0.8044 0.6583 0.7246
C5 C 0.8444(6) 0.5129(14) 0.6775(11)
H4 H 0.8756 0.5666 0.6674
C6 C 0.8410(8) 0.3799(15) 0.6583(12)
F1 F 0.7138(8) 0.5405(17) 0.7553(14)
C7 C 0.8894(3) 0.3375(6) 0.6213(5)
H5 H 0.940(5) 0.379(10) 0.668(7)
C8 C 0.8591(4) 0.3685(8) 0.5100(6)
H6 H 0.8331 0.4521 0.4922
H7 H 0.8970 0.3733 0.4927
C9 C 0.8115(4) 0.2581(8) 0.4589(5)
H8 H 0.8023 0.2500 0.3898
H9 H 0.7662 0.2696 0.4576
C10 C 0.8505(3) 0.1380(7) 0.5202(4)
H10 H 0.8174 0.0722 0.5201
H11 H 0.8797 0.0976 0.4951
C11 C 0.9355(2) 0.1293(5) 0.7055(3)
C12 C 0.9391(2) -0.0186(5) 0.7019(4)
H12 H 0.9016 -0.0483 0.6349
C13 C 0.8578(2) -0.0654(5) 0.7622(4)
C14 C 0.79189(12) -0.1310(3) 0.8473(2)
C15 C 0.72632(14) -0.0831(3) 0.77787(18)
H13 H 0.7216 -0.0304 0.7245
C16 C 0.66765(11) -0.1122(3) 0.7866(2)
C17 C 0.67455(13) -0.1893(3) 0.8648(2)
H14 H 0.6345 -0.2092 0.8708
C18 C 0.74012(15) -0.2372(3) 0.93418(19)
C19 C 0.79880(12) -0.2081(3) 0.92544(19)
H15 H 0.8436 -0.2408 0.9729
C20 C 1.0109(3) -0.0701(5) 0.7184(5)
C21 C 1.0064(5) -0.2164(7) 0.7065(8)
H16 H 0.9935 -0.2546 0.7532
H17 H 1.0521 -0.2507 0.7202
H18 H 0.9708 -0.2388 0.6384
C22 C 1.0716(3) -0.0358(8) 0.8221(5)
H19 H 1.0718 0.0584 0.8329
H20 H 1.1163 -0.0616 0.8271
H21 H 1.0654 -0.0822 0.8725
C23 C 1.0251(4) -0.0063(8) 0.6415(5)
H22 H 0.9882 -0.0310 0.5747
H23 H 1.0708 -0.0354 0.6515
H24 H 1.0256 0.0887 0.6487
C24 C 0.5984(3) -0.0631(5) 0.7125(4)
F2 F 0.60097(17) 0.0379(4) 0.6607(3)
F3 F 0.56030(16) -0.0208(4) 0.7547(3)
F4 F 0.55837(18) -0.1526(4) 0.6465(3)
C25 C 0.7476(3) -0.3167(6) 1.0180(5)
F5 F 0.6891(6) -0.3490(16) 1.0200(10)
F6 F 0.7713(9) -0.4435(11) 1.0112(11)
F7 F 0.7979(9) -0.2804(16) 1.1085(7)
N1 N 0.8945(2) 0.1948(4) 0.6203(3)
N2 N 0.9241(2) -0.0735(4) 0.7762(3)
N3 N 0.8531(2) -0.1098(4) 0.8423(3)
O1 O 0.96906(19) 0.1886(4) 0.7847(3)
O2 O 0.80794(17) -0.0228(3) 0.6850(2)
H25 H 0.955(4) -0.107(7) 0.836(6)
H26 H 0.887(3) -0.153(7) 0.891(5)
N4 N 0.9841(5) -0.6423(8) 0.9953(9)
C26 C 0.9567(10) -0.5638(13) 0.9023(8)
H27 H 0.9595 -0.6154 0.8512
H28 H 0.9850 -0.4845 0.9157
H29 H 0.9077 -0.5399 0.8791
C27 C 0.9444(9) -0.7680(15) 0.9707(12)
H30 H 0.8950 -0.7505 0.9497
H31 H 0.9646 -0.8243 1.0296
H32 H 0.9476 -0.8116 0.9169
C28 C 0.9726(9) -0.5697(14) 1.0685(9)
H33 H 0.9976 -0.4863 1.0835
H34 H 0.9902 -0.6211 1.1295
H35 H 0.9222 -0.5535 1.0409
C29 C 1.0592(7) -0.677(2) 1.0375(13)
H36 H 1.0668 -0.7137 0.9851
H37 H 1.0723 -0.7419 1.0903
H38 H 1.0882 -0.5989 1.0649
N4A N 1.0159(5) -0.6423(8) 1.0047(9)
C26A C 1.0433(10) -0.5638(13) 1.0977(8)
H27A H 1.0405 -0.6154 1.1488
H28A H 1.0150 -0.4845 1.0843
H29A H 1.0923 -0.5399 1.1209
C27A C 1.0556(9) -0.7680(15) 1.0293(12)
H30A H 1.1050 -0.7505 1.0503
H31A H 1.0354 -0.8243 0.9704
H32A H 1.0524 -0.8116 1.0831
C28A C 1.0274(9) -0.5697(14) 0.9315(9)
H33A H 1.0024 -0.4863 0.9165
H34A H 1.0098 -0.6211 0.8705
H35A H 1.0778 -0.5535 0.9591
C29A C 0.9408(7) -0.677(2) 0.9625(13)
H36A H 0.9332 -0.7137 1.0149
H37A H 0.9277 -0.7419 0.9097
H38A H 0.9118 -0.5989 0.9351
Cl1 Cl 1.0000 -0.2275(2) 1.0000
C30? C 0.7960(17) 0.305(2) 0.664(2)
H39? H 0.7895 0.2221 0.6325
C31? C 0.7549(15) 0.340(2) 0.705(2)
H40? H 0.7203 0.2815 0.7025
C32? C 0.7643(11) 0.461(2) 0.7508(17)
C33? C 0.8149(11) 0.546(2) 0.7548(19)
H41? H 0.8214 0.6289 0.7859
C34? C 0.8560(10) 0.511(3) 0.7132(18)
H42? H 0.8906 0.5695 0.7159
C35? C 0.8466(13) 0.390(3) 0.668(2)
F8? F 0.7256(14) 0.501(3) 0.792(2)
H43? H 0.9380 0.3742 0.6588
C36? C 0.7476(3) -0.3167(6) 1.0180(5)
F9? F 0.6986(8) -0.3992(14) 0.9966(10)
F10? F 0.8102(7) -0.3780(15) 1.0658(12)
F11? F 0.7483(8) -0.2333(12) 1.0882(7)
C37? C 0.7476(3) -0.3167(6) 1.0180(5)
F12? F 0.7027(8) -0.2842(17) 1.0491(12)
F13? F 0.7338(13) -0.4443(13) 0.9898(13)
F14? F 0.8128(8) -0.320(3) 1.0923(12)
loop_
_geom_bond_atom_site_label_1
_geom_bond_atom_site_label_2
_geom_bond_site_symmetry_1
_geom_bond_site_symmetry_2
C1 H1 1_555 1_555
C2 C1 1_555 1_555
H2 C2 1_555 1_555
C3 C2 1_555 1_555
C4 C3 1_555 1_555
H3 C4 1_555 1_555
C5 C4 1_555 1_555
H4 C5 1_555 1_555
C6 C1 1_555 1_555
F1 C3 1_555 1_555
C7 C6 1_555 1_555
H5 C7 1_555 1_555
C8 C7 1_555 1_555
H6 C8 1_555 1_555
H7 C8 1_555 1_555
C9 C8 1_555 1_555
H8 C9 1_555 1_555
H9 C9 1_555 1_555
C10 C9 1_555 1_555
H10 C10 1_555 1_555
H11 C10 1_555 1_555
C11 C12 1_555 1_555
C12 H12 1_555 1_555
C13 N2 1_555 1_555
C14 C15 1_555 1_555
C15 H13 1_555 1_555
C16 C15 1_555 1_555
C17 C16 1_555 1_555
H14 C17 1_555 1_555
C18 C17 1_555 1_555
C19 C14 1_555 1_555
H15 C19 1_555 1_555
C20 C12 1_555 1_555
C21 C20 1_555 1_555
H16 C21 1_555 1_555
H17 C21 1_555 1_555
H18 C21 1_555 1_555
C22 C20 1_555 1_555
H19 C22 1_555 1_555
H20 C22 1_555 1_555
H21 C22 1_555 1_555
C23 C20 1_555 1_555
H22 C23 1_555 1_555
H23 C23 1_555 1_555
H24 C23 1_555 1_555
C24 C16 1_555 1_555
F2 C24 1_555 1_555
F3 C24 1_555 1_555
F4 C24 1_555 1_555
C25 C18 1_555 1_555
F5 C25 1_555 1_555
F6 C25 1_555 1_555
F7 C25 1_555 1_555
N1 C7 1_555 1_555
N2 C12 1_555 1_555
N3 C13 1_555 1_555
O1 C11 1_555 1_555
O2 C13 1_555 1_555
H25 N2 1_555 1_555
H26 N3 1_555 1_555
N4 C26 1_555 1_555
C26 H27 1_555 1_555
H28 C26 1_555 1_555
H29 C26 1_555 1_555
C27 N4 1_555 1_555
H30 C27 1_555 1_555
H31 C27 1_555 1_555
H32 C27 1_555 1_555
C28 N4 1_555 1_555
H33 C28 1_555 1_555
H34 C28 1_555 1_555
H35 C28 1_555 1_555
C29 N4 1_555 1_555
H36 C29 1_555 1_555
H37 C29 1_555 1_555
H38 C29 1_555 1_555
N4A C26 1_555 1_555
C26A N4 1_555 1_555
H27A C26A 1_555 1_555
H28A C28 1_555 1_555
H29A C26A 1_555 1_555
C27A C29 1_555 1_555
H30A C29 1_555 1_555
H31A C27A 1_555 1_555
H32A C27A 1_555 1_555
C28A C26 1_555 1_555
H33A C26 1_555 1_555
H34A C28A 1_555 1_555
H35A C28A 1_555 1_555
C29A N4 1_555 1_555
H36A C27 1_555 1_555
H37A C27 1_555 1_555
H38A C29A 1_555 1_555
C5 C6 1_555 1_555
C10 N1 1_555 1_555
C11 N1 1_555 1_555
C14 N3 1_555 1_555
C18 C19 1_555 1_555
C26 C29A 1_555 1_555
H28 C28A 1_555 1_555
C27 C29A 1_555 1_555
H30 C29A 1_555 1_555
C28 C26A 1_555 1_555
C28 C29A 1_555 1_555
H33 C26A 1_555 1_555
C29 N4A 1_555 1_555
C29 C26A 1_555 1_555
C29 C28A 1_555 1_555
H36 C27A 1_555 1_555
H37 C27A 1_555 1_555
N4A C26A 1_555 1_555
N4A C27A 1_555 1_555
N4A C28A 1_555 1_555
N4A C29A 1_555 1_555
C26A H28A 1_555 1_555
C27A H30A 1_555 1_555
C28A H33A 1_555 1_555
C29A H36A 1_555 1_555
C29A H37A 1_555 1_555

#END
