
#######################################################################
#
#                 Cambridge Crystallographic Data Centre
#                                CCDC 
#
#######################################################################
#
# If this CIF has been generated from an entry in the Cambridge 
# Structural Database, then it will include bibliographic, chemical, 
# crystal, experimental, refinement or atomic coordinate data resulting 
# from the CCDC's data processing and validation procedures.
#
#######################################################################

data_ORIDOK
_chemical_formula_moiety         'C24 H19 Cl1 O4'
_chemical_name_systematic        
2-(4-chlorophenyl)-2-hydroxy-3-(4-methoxybenzoyl)-3,4-dihydronaphthalen-1(2H)-one
_symmetry_cell_setting           orthorhombic
_symmetry_space_group_name_H-M   'P 21 21 21'
_symmetry_Int_Tables_number      19
_space_group_name_Hall           'P 2ac 2ab'
loop_
_symmetry_equiv_pos_site_id
_symmetry_equiv_pos_as_xyz
1 x,y,z
2 1/2-x,-y,1/2+z
3 1/2+x,1/2-y,-z
4 -x,1/2+y,1/2-z
_cell_length_a                   10.5376(8)
_cell_length_b                   13.4923(10)
_cell_length_c                   13.7084(11)
_cell_angle_alpha                90
_cell_angle_beta                 90
_cell_angle_gamma                90
_cell_volume                     1949.01
_exptl_crystal_colour            colorless
_exptl_crystal_description       prism
_cell_formula_units_Z            4
loop_
_atom_site_label
_atom_site_type_symbol
_atom_site_fract_x
_atom_site_fract_y
_atom_site_fract_z
Cl1 Cl -0.08897(6) 1.02021(5) 0.62027(6)
O1 O 0.48699(17) 0.97191(12) 0.43223(11)
H1 H 0.4901 1.0326 0.4318
O2 O 0.5937(2) 1.07361(14) 0.57748(16)
O3 O 0.33089(17) 0.72712(14) 0.47523(15)
O4 O 0.62215(17) 0.69019(13) 0.07694(12)
C1 C 0.0703(2) 0.99536(15) 0.59653(18)
C2 C 0.1594(2) 1.01086(19) 0.66761(18)
H2 H 0.1354 1.0339 0.7288
C3 C 0.2860(2) 0.99170(18) 0.64700(17)
H3 H 0.3468 1.0025 0.6951
C4 C 0.3240(2) 0.95688(14) 0.55635(16)
C5 C 0.2311(2) 0.94188(16) 0.48604(17)
H4 H 0.2544 0.9192 0.4246
C6 C 0.1041(2) 0.96012(16) 0.50573(18)
H5 H 0.0426 0.9488 0.4584
C7 C 0.4638(2) 0.93829(15) 0.52861(16)
C8 C 0.5525(2) 0.99223(17) 0.59964(18)
C9 C 0.5815(2) 0.94409(18) 0.69398(17)
C10 C 0.6438(2) 0.9985(2) 0.76653(19)
H6 H 0.6715 1.0626 0.7534
C11 C 0.6643(3) 0.9579(3) 0.8569(2)
H7 H 0.7063 0.9940 0.9049
C12 C 0.6220(3) 0.8634(3) 0.8759(2)
H8 H 0.6324 0.8369 0.9380
C13 C 0.5646(3) 0.8075(2) 0.8045(2)
H9 H 0.5396 0.7429 0.8183
C14 C 0.5432(2) 0.84636(18) 0.71143(17)
C15 C 0.4802(2) 0.78550(17) 0.63331(17)
H10 H 0.3897 0.7832 0.6458
H11 H 0.5124 0.7182 0.6364
C16 C 0.5027(2) 0.82670(15) 0.53116(16)
H12 H 0.5938 0.8224 0.5172
C17 C 0.4321(2) 0.76622(16) 0.45413(18)
C18 C 0.4863(2) 0.75426(15) 0.35470(16)
C19 C 0.4076(2) 0.71916(18) 0.27991(19)
H13 H 0.3221 0.7079 0.2927
C20 C 0.4543(2) 0.7010(2) 0.1878(2)
H14 H 0.4003 0.6797 0.1384
C21 C 0.5823(2) 0.71481(15) 0.16918(16)
C22 C 0.6621(2) 0.74949(16) 0.24122(17)
H15 H 0.7480 0.7589 0.2284
C23 C 0.6133(2) 0.77024(17) 0.33323(17)
H16 H 0.6668 0.7953 0.3812
C24 C 0.7544(3) 0.6961(2) 0.0571(2)
H17 H 0.7822 0.7635 0.0642
H18 H 0.7704 0.6741 -0.0083
H19 H 0.7998 0.6548 0.1022
loop_
_geom_bond_atom_site_label_1
_geom_bond_atom_site_label_2
_geom_bond_site_symmetry_1
_geom_bond_site_symmetry_2
Cl1 C1 1_555 1_555
O1 H1 1_555 1_555
O2 C8 1_555 1_555
O3 C17 1_555 1_555
O4 C21 1_555 1_555
C1 C2 1_555 1_555
C2 H2 1_555 1_555
C3 C2 1_555 1_555
H3 C3 1_555 1_555
C4 C3 1_555 1_555
C5 C4 1_555 1_555
H4 C5 1_555 1_555
C6 C1 1_555 1_555
H5 C6 1_555 1_555
C7 O1 1_555 1_555
C8 C7 1_555 1_555
C9 C8 1_555 1_555
C10 C9 1_555 1_555
H6 C10 1_555 1_555
C11 C10 1_555 1_555
H7 C11 1_555 1_555
C12 C11 1_555 1_555
H8 C12 1_555 1_555
C13 C12 1_555 1_555
H9 C13 1_555 1_555
C14 C9 1_555 1_555
C15 C14 1_555 1_555
H10 C15 1_555 1_555
H11 C15 1_555 1_555
C16 C7 1_555 1_555
H12 C16 1_555 1_555
C17 C16 1_555 1_555
C18 C17 1_555 1_555
C19 C18 1_555 1_555
H13 C19 1_555 1_555
C20 C19 1_555 1_555
H14 C20 1_555 1_555
C21 C20 1_555 1_555
C22 C21 1_555 1_555
H15 C22 1_555 1_555
C23 C18 1_555 1_555
H16 C23 1_555 1_555
C24 O4 1_555 1_555
H17 C24 1_555 1_555
H18 C24 1_555 1_555
H19 C24 1_555 1_555
C4 C7 1_555 1_555
C5 C6 1_555 1_555
C13 C14 1_555 1_555
C15 C16 1_555 1_555
C22 C23 1_555 1_555

#END
