
#######################################################################
#
#                 Cambridge Crystallographic Data Centre
#                                CCDC 
#
#######################################################################
#
# If this CIF has been generated from an entry in the Cambridge 
# Structural Database, then it will include bibliographic, chemical, 
# crystal, experimental, refinement or atomic coordinate data resulting 
# from the CCDC's data processing and validation procedures.
#
#######################################################################

data_ORIDUQ
_chemical_formula_moiety         'C24 H19 Cl1 O4'
_chemical_name_systematic        
2-(4-chlorophenyl)-2-hydroxy-3-(4-methoxybenzoyl)-3,4-dihydronaphthalen-1(2H)-one
_symmetry_cell_setting           orthorhombic
_symmetry_space_group_name_H-M   'P 21 21 21'
_symmetry_Int_Tables_number      19
_space_group_name_Hall           'P 2ac 2ab'
loop_
_symmetry_equiv_pos_site_id
_symmetry_equiv_pos_as_xyz
1 x,y,z
2 1/2-x,-y,1/2+z
3 1/2+x,1/2-y,-z
4 -x,1/2+y,1/2-z
_cell_length_a                   6.6769(5)
_cell_length_b                   12.7034(12)
_cell_length_c                   23.779(2)
_cell_angle_alpha                90
_cell_angle_beta                 90
_cell_angle_gamma                90
_cell_volume                     2016.92
_exptl_crystal_colour            colorless
_exptl_crystal_description       prism
_cell_formula_units_Z            4
loop_
_atom_site_label
_atom_site_type_symbol
_atom_site_fract_x
_atom_site_fract_y
_atom_site_fract_z
Cl1 Cl 0.7225(6) 0.2798(2) 0.76546(10)
O1 O 0.2129(6) 0.3044(3) 0.52612(17)
H1 H 0.0937 0.3053 0.5344
O2 O -0.0225(5) 0.4548(3) 0.5666(3)
O3 O 0.1748(6) 0.4917(3) 0.44967(16)
O4 O 0.781(2) 0.4277(8) 0.2471(4)
C1 C 0.6039(15) 0.3115(5) 0.7026(3)
C2 C 0.415(2) 0.3565(9) 0.7038(3)
H2 H 0.3498 0.3668 0.7379
C3 C 0.3234(14) 0.3857(7) 0.6547(3)
H3 H 0.1988 0.4182 0.6561
C4 C 0.5925(7) 0.3157(4) 0.6034(2)
H4 H 0.6521 0.2986 0.5693
C5 C 0.6884(9) 0.2880(4) 0.6531(3)
H5 H 0.8108 0.2531 0.6519
C6 C 0.4119(7) 0.3679(3) 0.60330(18)
C7 C 0.3086(6) 0.3968(3) 0.54798(19)
C8 C 0.1498(6) 0.4806(4) 0.5600(2)
C9 C 0.2195(6) 0.5902(3) 0.56639(18)
C10 C 0.0928(9) 0.6663(4) 0.5892(2)
H6 H -0.0367 0.6480 0.5997
C11 C 0.1572(12) 0.7682(4) 0.5963(2)
H7 H 0.0723 0.8185 0.6118
C12 C 0.3490(13) 0.7950(4) 0.5804(2)
H8 H 0.3947 0.8633 0.5862
C13 C 0.4716(9) 0.7229(4) 0.5564(2)
H9 H 0.5980 0.7435 0.5442
C14 C 0.4125(6) 0.6187(3) 0.54958(17)
C15 C 0.5566(6) 0.5390(3) 0.5263(2)
H10 H 0.6513 0.5197 0.5555
H11 H 0.6315 0.5709 0.4958
C16 C 0.4546(6) 0.4396(3) 0.50458(17)
H12 H 0.5577 0.3862 0.4978
C17 C 0.3494(7) 0.4626(3) 0.44903(18)
C18 C 0.4643(9) 0.4543(3) 0.3958(2)
C19 C 0.6628(12) 0.4220(5) 0.3938(3)
H13 H 0.7295 0.4067 0.4271
C20 C 0.7627(16) 0.4124(6) 0.3436(4)
H14 H 0.8948 0.3891 0.3434
C21 C 0.674(2) 0.4356(7) 0.2958(4)
C22 C 0.479(2) 0.4680(8) 0.2947(3)
H15 H 0.4172 0.4824 0.2605
C23 C 0.3698(12) 0.4797(6) 0.3461(2)
H16 H 0.2383 0.5039 0.3459
C24 C 0.748(3) 0.4092(14) 0.2053(5)
H17 H 0.6259 0.3698 0.2038
H18 H 0.8553 0.3679 0.1898
H19 H 0.7338 0.4730 0.1840
loop_
_geom_bond_atom_site_label_1
_geom_bond_atom_site_label_2
_geom_bond_site_symmetry_1
_geom_bond_site_symmetry_2
Cl1 C1 1_555 1_555
O1 H1 1_555 1_555
O2 C8 1_555 1_555
O3 C17 1_555 1_555
O4 C21 1_555 1_555
C1 C2 1_555 1_555
C2 H2 1_555 1_555
C3 C2 1_555 1_555
H3 C3 1_555 1_555
C4 H4 1_555 1_555
C5 C1 1_555 1_555
H5 C5 1_555 1_555
C6 C3 1_555 1_555
C7 O1 1_555 1_555
C8 C7 1_555 1_555
C9 C8 1_555 1_555
C10 C9 1_555 1_555
H6 C10 1_555 1_555
C11 C10 1_555 1_555
H7 C11 1_555 1_555
C12 C11 1_555 1_555
H8 C12 1_555 1_555
C13 C12 1_555 1_555
H9 C13 1_555 1_555
C14 C9 1_555 1_555
C15 C14 1_555 1_555
H10 C15 1_555 1_555
H11 C15 1_555 1_555
C16 C7 1_555 1_555
H12 C16 1_555 1_555
C17 C16 1_555 1_555
C18 C17 1_555 1_555
C19 C18 1_555 1_555
H13 C19 1_555 1_555
C20 C19 1_555 1_555
H14 C20 1_555 1_555
C21 C20 1_555 1_555
C22 C21 1_555 1_555
H15 C22 1_555 1_555
C23 C18 1_555 1_555
H16 C23 1_555 1_555
C24 O4 1_555 1_555
H17 C24 1_555 1_555
H18 C24 1_555 1_555
H19 C24 1_555 1_555
C4 C5 1_555 1_555
C4 C6 1_555 1_555
C6 C7 1_555 1_555
C13 C14 1_555 1_555
C15 C16 1_555 1_555
C22 C23 1_555 1_555

#END
