
#######################################################################
#
#                 Cambridge Crystallographic Data Centre
#                                CCDC 
#
#######################################################################
#
# If this CIF has been generated from an entry in the Cambridge 
# Structural Database, then it will include bibliographic, chemical, 
# crystal, experimental, refinement or atomic coordinate data resulting 
# from the CCDC's data processing and validation procedures.
#
#######################################################################

data_ORIGUT
_chemical_formula_moiety         'C33 H24 N2 O3'
_chemical_name_systematic        
4-nitro-2-(((4-(triphenylvinyl)phenyl)imino)methyl)phenol
_symmetry_cell_setting           triclinic
_symmetry_space_group_name_H-M   'P -1'
_symmetry_Int_Tables_number      2
_space_group_name_Hall           '-P 1'
loop_
_symmetry_equiv_pos_site_id
_symmetry_equiv_pos_as_xyz
1 x,y,z
2 -x,-y,-z
_cell_length_a                   5.616(3)
_cell_length_b                   9.350(4)
_cell_length_c                   25.070(10)
_cell_angle_alpha                88.325(10)
_cell_angle_beta                 87.442(9)
_cell_angle_gamma                83.160(9)
_cell_volume                     1305.36
_exptl_crystal_colour            yellow
_cell_formula_units_Z            2
loop_
_atom_site_label
_atom_site_type_symbol
_atom_site_fract_x
_atom_site_fract_y
_atom_site_fract_z
N1 N 0.1214(4) -0.0878(3) 0.39806(9)
N2 N 0.1534(7) -0.4956(4) 0.58856(12)
O1 O -0.2523(4) -0.0584(3) 0.45813(9)
H1 H -0.1593 -0.0434 0.4330
O2 O 0.0350(5) -0.5413(3) 0.62507(10)
O3 O 0.3589(6) -0.5471(3) 0.57812(10)
C1 C 0.2119(6) -0.1888(3) 0.42922(12)
H2 H 0.3639 -0.2361 0.4212
C2 C 0.0794(6) -0.2297(3) 0.47674(12)
C3 C -0.1507(7) -0.1614(3) 0.48956(13)
C4 C -0.2737(6) -0.2028(4) 0.53564(13)
H3 H -0.4257 -0.1563 0.5443
C5 C -0.1751(7) -0.3100(4) 0.56809(12)
H4 H -0.2582 -0.3372 0.5989
C6 C 0.0511(7) -0.3786(4) 0.55477(13)
C7 C 0.1772(6) -0.3391(3) 0.50999(12)
H5 H 0.3294 -0.3861 0.5019
C8 C 0.2428(6) -0.0463(3) 0.35022(12)
C9 C 0.4704(6) -0.1024(3) 0.33267(12)
H6 H 0.5625 -0.1684 0.3540
C10 C 0.5606(6) -0.0604(3) 0.28359(12)
H7 H 0.7125 -0.1009 0.2718
C11 C 0.4329(6) 0.0400(3) 0.25121(12)
C12 C 0.2061(6) 0.0963(3) 0.26946(12)
H8 H 0.1151 0.1635 0.2483
C13 C 0.1130(6) 0.0549(3) 0.31822(13)
H9 H -0.0391 0.0952 0.3299
C14 C 0.5247(5) 0.0766(3) 0.19646(12)
C15 C 0.4977(5) 0.2119(3) 0.17496(12)
C16 C 0.4186(6) 0.3409(3) 0.20714(13)
C17 C 0.5391(6) 0.3711(4) 0.25123(14)
H10 H 0.6734 0.3097 0.2611
C18 C 0.4641(8) 0.4909(5) 0.28115(14)
H11 H 0.5470 0.5095 0.3110
C19 C 0.2677(9) 0.5822(4) 0.26686(16)
H12 H 0.2153 0.6624 0.2872
C20 C 0.1501(7) 0.5554(4) 0.22311(17)
H13 H 0.0158 0.6171 0.2134
C21 C 0.2280(7) 0.4372(4) 0.19288(13)
H14 H 0.1492 0.4224 0.1620
C22 C 0.5377(6) 0.2402(3) 0.11715(13)
C23 C 0.4133(7) 0.1764(4) 0.08063(15)
H15 H 0.3064 0.1126 0.0925
C24 C 0.4426(8) 0.2045(4) 0.02684(15)
H16 H 0.3546 0.1615 0.0026
C25 C 0.6028(8) 0.2965(4) 0.00950(15)
H17 H 0.6244 0.3152 -0.0269
C26 C 0.7305(7) 0.3607(4) 0.04430(16)
H18 H 0.8404 0.4221 0.0319
C27 C 0.6959(6) 0.3340(3) 0.09872(14)
H19 H 0.7803 0.3798 0.1229
C28 C 0.6388(6) -0.0469(3) 0.16560(12)
C29 C 0.8555(6) -0.0402(4) 0.13776(13)
H20 H 0.9342 0.0414 0.1397
C30 C 0.9547(6) -0.1526(4) 0.10737(13)
H21 H 1.0989 -0.1459 0.0883
C31 C 0.8447(7) -0.2753(4) 0.10464(14)
H22 H 0.9127 -0.3514 0.0838
C32 C 0.6341(7) -0.2838(4) 0.13299(14)
H23 H 0.5582 -0.3666 0.1315
C33 C 0.5327(6) -0.1723(4) 0.16367(12)
H24 H 0.3909 -0.1811 0.1834
loop_
_geom_bond_atom_site_label_1
_geom_bond_atom_site_label_2
_geom_bond_site_symmetry_1
_geom_bond_site_symmetry_2
N1 C1 1_555 1_555
N2 O2 1_555 1_555
O1 H1 1_555 1_555
O3 N2 1_555 1_555
C1 H2 1_555 1_555
C2 C1 1_555 1_555
C3 O1 1_555 1_555
C4 C3 1_555 1_555
H3 C4 1_555 1_555
C5 C4 1_555 1_555
H4 C5 1_555 1_555
C6 N2 1_555 1_555
C7 C2 1_555 1_555
H5 C7 1_555 1_555
C8 N1 1_555 1_555
C9 C8 1_555 1_555
H6 C9 1_555 1_555
C10 C9 1_555 1_555
H7 C10 1_555 1_555
C11 C10 1_555 1_555
C12 C11 1_555 1_555
H8 C12 1_555 1_555
C13 C8 1_555 1_555
H9 C13 1_555 1_555
C14 C11 1_555 1_555
C15 C14 1_555 1_555
C16 C15 1_555 1_555
C17 C16 1_555 1_555
H10 C17 1_555 1_555
C18 C17 1_555 1_555
H11 C18 1_555 1_555
C19 C18 1_555 1_555
H12 C19 1_555 1_555
C20 C19 1_555 1_555
H13 C20 1_555 1_555
C21 C16 1_555 1_555
H14 C21 1_555 1_555
C22 C15 1_555 1_555
C23 C22 1_555 1_555
H15 C23 1_555 1_555
C24 C23 1_555 1_555
H16 C24 1_555 1_555
C25 C24 1_555 1_555
H17 C25 1_555 1_555
C26 C25 1_555 1_555
H18 C26 1_555 1_555
C27 C22 1_555 1_555
H19 C27 1_555 1_555
C28 C14 1_555 1_555
C29 C28 1_555 1_555
H20 C29 1_555 1_555
C30 C29 1_555 1_555
H21 C30 1_555 1_555
C31 C30 1_555 1_555
H22 C31 1_555 1_555
C32 C31 1_555 1_555
H23 C32 1_555 1_555
C33 C28 1_555 1_555
H24 C33 1_555 1_555
C2 C3 1_555 1_555
C5 C6 1_555 1_555
C6 C7 1_555 1_555
C12 C13 1_555 1_555
C20 C21 1_555 1_555
C26 C27 1_555 1_555
C32 C33 1_555 1_555

#END
