
#######################################################################
#
#                 Cambridge Crystallographic Data Centre
#                                CCDC 
#
#######################################################################
#
# If this CIF has been generated from an entry in the Cambridge 
# Structural Database, then it will include bibliographic, chemical, 
# crystal, experimental, refinement or atomic coordinate data resulting 
# from the CCDC's data processing and validation procedures.
#
#######################################################################

data_ORIHEE
_chemical_formula_moiety         'C22 H18 O2'
_chemical_name_systematic        
1-methyl-1-((1-methyl-2-naphthyl)oxy)naphthalen-2(1H)-one
_symmetry_cell_setting           monoclinic
_symmetry_space_group_name_H-M   'P 21/c'
_symmetry_Int_Tables_number      14
_space_group_name_Hall           '-P 2ybc'
loop_
_symmetry_equiv_pos_site_id
_symmetry_equiv_pos_as_xyz
1 x,y,z
2 -x,1/2+y,1/2-z
3 -x,-y,-z
4 x,1/2-y,1/2+z
_cell_length_a                   8.8686(3)
_cell_length_b                   6.9699(3)
_cell_length_c                   27.0903(10)
_cell_angle_alpha                90
_cell_angle_beta                 98.690(3)
_cell_angle_gamma                90
_cell_volume                     1655.32
_exptl_crystal_colour            'dark yellow'
_exptl_crystal_description       block
_cell_formula_units_Z            4
loop_
_atom_site_label
_atom_site_type_symbol
_atom_site_fract_x
_atom_site_fract_y
_atom_site_fract_z
O1 O 0.10230(17) 0.0204(2) 0.41580(6)
C1 C 0.4236(2) -0.3232(3) 0.42819(8)
C2 C 0.3458(2) -0.1493(3) 0.41977(7)
C3 C 0.0242(2) -0.0276(3) 0.36916(8)
O2 O -0.01637(18) -0.2970(3) 0.45619(6)
C4 C -0.0790(2) 0.1077(4) 0.34770(9)
C5 C 0.2032(2) -0.1165(3) 0.44302(8)
C6 C 0.1195(2) -0.2994(3) 0.45378(8)
C7 C -0.1656(2) 0.0661(4) 0.30019(9)
C8 C -0.0357(3) -0.2411(4) 0.29960(8)
H1 H -0.0202 -0.3566 0.2839
C9 C 0.0478(2) -0.2006(4) 0.34472(8)
H2 H 0.1207 -0.2874 0.3594
C10 C 0.4062(3) -0.0048(4) 0.39372(8)
H3 H 0.3540 0.1105 0.3875
C11 C 0.3532(3) -0.4793(4) 0.45177(9)
H4 H 0.4087 -0.5919 0.4586
C12 C -0.1449(3) -0.1115(4) 0.27631(8)
C13 C 0.5449(3) -0.0323(5) 0.37689(10)
H5 H 0.5845 0.0642 0.3589
C14 C 0.2130(3) -0.4708(4) 0.46425(9)
H6 H 0.1748 -0.5753 0.4798
C15 C 0.5645(3) -0.3463(4) 0.41169(9)
H7 H 0.6179 -0.4607 0.4178
C16 C 0.6241(3) -0.2006(5) 0.38658(10)
H8 H 0.7185 -0.2159 0.3761
C17 C 0.2498(3) -0.0220(4) 0.49455(8)
H9 H 0.3008 0.0972 0.4905
H10 H 0.3174 -0.1060 0.5155
H11 H 0.1605 0.0016 0.5097
C18 C -0.0998(3) 0.2897(4) 0.37529(11)
H12 H -0.0645 0.2715 0.4102
H13 H -0.2059 0.3237 0.3705
H14 H -0.0424 0.3908 0.3628
C19 C -0.2334(3) -0.1549(6) 0.22923(10)
H15 H -0.2196 -0.2711 0.2136
C20 C -0.3375(4) -0.0278(7) 0.20721(12)
H16 H -0.3950 -0.0573 0.1765
C21 C -0.3594(4) 0.1474(7) 0.23007(13)
H17 H -0.4320 0.2328 0.2145
C22 C -0.2759(3) 0.1957(5) 0.27516(11)
H18 H -0.2913 0.3139 0.2895
loop_
_geom_bond_atom_site_label_1
_geom_bond_atom_site_label_2
_geom_bond_site_symmetry_1
_geom_bond_site_symmetry_2
O1 C3 1_555 1_555
C1 C2 1_555 1_555
C2 C5 1_555 1_555
C3 C4 1_555 1_555
O2 C6 1_555 1_555
C4 C7 1_555 1_555
C5 O1 1_555 1_555
C6 C5 1_555 1_555
C7 C12 1_555 1_555
C8 H1 1_555 1_555
C9 C3 1_555 1_555
H2 C9 1_555 1_555
C10 C2 1_555 1_555
H3 C10 1_555 1_555
C11 C1 1_555 1_555
H4 C11 1_555 1_555
C12 C8 1_555 1_555
C13 C10 1_555 1_555
H5 C13 1_555 1_555
C14 C6 1_555 1_555
H6 C14 1_555 1_555
C15 C1 1_555 1_555
H7 C15 1_555 1_555
C16 C13 1_555 1_555
H8 C16 1_555 1_555
C17 C5 1_555 1_555
H9 C17 1_555 1_555
H10 C17 1_555 1_555
H11 C17 1_555 1_555
C18 C4 1_555 1_555
H12 C18 1_555 1_555
H13 C18 1_555 1_555
H14 C18 1_555 1_555
C19 C12 1_555 1_555
H15 C19 1_555 1_555
C20 C19 1_555 1_555
H16 C20 1_555 1_555
C21 C20 1_555 1_555
H17 C21 1_555 1_555
C22 C7 1_555 1_555
H18 C22 1_555 1_555
C8 C9 1_555 1_555
C11 C14 1_555 1_555
C15 C16 1_555 1_555
C21 C22 1_555 1_555

#END
