
#######################################################################
#
#                 Cambridge Crystallographic Data Centre
#                                CCDC 
#
#######################################################################
#
# If this CIF has been generated from an entry in the Cambridge 
# Structural Database, then it will include bibliographic, chemical, 
# crystal, experimental, refinement or atomic coordinate data resulting 
# from the CCDC's data processing and validation procedures.
#
#######################################################################

data_ORIPOW
_chemical_formula_moiety         'C31 H29 Br2 N1 O4'
_chemical_name_systematic        
(P)-9,14-dibromo-10,13-dimethoxy-11,12-dimethyl-4-propyl-6,7-dihydro-1H-dinaphtho[2,1-e:1',2'-g]isoindole-3,5(2H,4H)-dione
_symmetry_cell_setting           tetragonal
_symmetry_space_group_name_H-M   'P 43'
_symmetry_Int_Tables_number      78
_space_group_name_Hall           'P 4cw'
loop_
_symmetry_equiv_pos_site_id
_symmetry_equiv_pos_as_xyz
1 x,y,z
2 -x,-y,1/2+z
3 -y,x,3/4+z
4 y,-x,1/4+z
_cell_length_a                   12.3390(3)
_cell_length_b                   12.3390(7)
_cell_length_c                   18.0683(7)
_cell_angle_alpha                90
_cell_angle_beta                 90
_cell_angle_gamma                90
_cell_volume                     2750.92
_exptl_crystal_colour            yellow
_exptl_crystal_description       block
_cell_formula_units_Z            4
loop_
_atom_site_label
_atom_site_type_symbol
_atom_site_fract_x
_atom_site_fract_y
_atom_site_fract_z
Br1 Br -0.09202(6) 0.65136(6) 0.19108(5)
Br2 Br 0.57110(7) 0.51672(8) 0.35461(6)
O1 O -0.2054(5) 0.1996(6) 0.6040(4)
O2 O 0.1187(6) 0.0273(5) 0.6226(4)
O3 O 0.0857(4) 0.4822(4) 0.1907(3)
O4 O 0.3709(5) 0.6369(4) 0.4127(3)
N1 N -0.0540(6) 0.0970(7) 0.6248(4)
C1 C -0.1930(9) 0.0227(9) 0.8105(7)
H1 H -0.2640 0.0068 0.7915
H2 H -0.1996 0.0597 0.8570
H3 H -0.1538 -0.0437 0.8175
C2 C -0.1324(9) 0.0945(8) 0.7557(6)
H4 H -0.0653 0.1193 0.7778
H5 H -0.1761 0.1576 0.7441
C3 C -0.1070(8) 0.0309(9) 0.6831(6)
H6 H -0.0602 -0.0299 0.6951
H7 H -0.1741 0.0017 0.6635
C4 C -0.1119(7) 0.1780(7) 0.5910(4)
C5 C -0.0343(6) 0.2320(6) 0.5387(4)
C6 C -0.0507(5) 0.3137(6) 0.4899(4)
C7 C -0.1586(5) 0.3703(6) 0.4804(4)
H8 H -0.2015 0.3631 0.5252
H9 H -0.1986 0.3379 0.4398
C8 C -0.1373(6) 0.4895(6) 0.4644(4)
H10 H -0.2054 0.5280 0.4586
H11 H -0.0975 0.5221 0.5049
C9 C -0.0722(5) 0.4961(5) 0.3941(4)
C10 C -0.1025(5) 0.5641(5) 0.3362(4)
H12 H -0.1610 0.6110 0.3419
C11 C -0.0465(5) 0.5620(5) 0.2713(4)
C12 C 0.0369(5) 0.4884(5) 0.2595(4)
C13 C 0.0671(5) 0.4161(5) 0.3156(3)
C14 C 0.0155(5) 0.4236(5) 0.3845(4)
C15 C 0.0394(5) 0.3500(5) 0.4480(3)
C16 C 0.1793(6) 0.5508(7) 0.1853(5)
H13 H 0.2120 0.5421 0.1375
H14 H 0.2305 0.5313 0.2230
H15 H 0.1579 0.6250 0.1919
C17 C 0.1449(6) 0.3265(5) 0.2936(4)
H16 H 0.1282 0.3024 0.2444
H17 H 0.1379 0.2670 0.3275
H18 H 0.2178 0.3535 0.2950
C18 C 0.1450(5) 0.3146(5) 0.4664(3)
C19 C 0.2467(5) 0.3694(5) 0.4419(4)
C20 C 0.2581(5) 0.4836(5) 0.4403(4)
C21 C 0.3558(5) 0.5251(5) 0.4129(4)
C22 C 0.4398(5) 0.4573(6) 0.3912(4)
C23 C 0.4309(5) 0.3461(6) 0.3990(4)
H19 H 0.4890 0.3014 0.3869
C24 C 0.3353(5) 0.3017(5) 0.4248(4)
C25 C 0.3239(6) 0.1828(5) 0.4399(5)
H20 H 0.3947 0.1486 0.4408
H21 H 0.2809 0.1487 0.4015
C26 C 0.2678(6) 0.1693(6) 0.5156(4)
H22 H 0.2604 0.0930 0.5274
H23 H 0.3109 0.2034 0.5540
C27 C 0.1578(6) 0.2218(5) 0.5117(4)
C28 C 0.0678(6) 0.1828(6) 0.5470(4)
C29 C 0.0539(7) 0.0923(7) 0.6006(5)
C30 C 0.1752(5) 0.5614(6) 0.4725(5)
H24 H 0.1337 0.5931 0.4332
H25 H 0.2119 0.6176 0.4995
H26 H 0.1278 0.5228 0.5053
C31 C 0.3287(10) 0.6872(8) 0.3483(6)
H27 H 0.3681 0.6625 0.3057
H28 H 0.3359 0.7644 0.3526
H29 H 0.2536 0.6686 0.3429
loop_
_geom_bond_atom_site_label_1
_geom_bond_atom_site_label_2
_geom_bond_site_symmetry_1
_geom_bond_site_symmetry_2
Br1 C11 1_555 1_555
Br2 C22 1_555 1_555
O1 C4 1_555 1_555
O2 C29 1_555 1_555
O3 C12 1_555 1_555
O4 C21 1_555 1_555
N1 C3 1_555 1_555
C1 H1 1_555 1_555
H2 C1 1_555 1_555
H3 C1 1_555 1_555
C2 C1 1_555 1_555
H4 C2 1_555 1_555
H5 C2 1_555 1_555
C3 C2 1_555 1_555
H6 C3 1_555 1_555
H7 C3 1_555 1_555
C4 N1 1_555 1_555
C5 C4 1_555 1_555
C6 C5 1_555 1_555
C7 C6 1_555 1_555
H8 C7 1_555 1_555
H9 C7 1_555 1_555
C8 C7 1_555 1_555
H10 C8 1_555 1_555
H11 C8 1_555 1_555
C9 C8 1_555 1_555
C10 C9 1_555 1_555
H12 C10 1_555 1_555
C11 C10 1_555 1_555
C12 C11 1_555 1_555
C13 C12 1_555 1_555
C14 C9 1_555 1_555
C15 C6 1_555 1_555
C16 O3 1_555 1_555
H13 C16 1_555 1_555
H14 C16 1_555 1_555
H15 C16 1_555 1_555
C17 C13 1_555 1_555
H16 C17 1_555 1_555
H17 C17 1_555 1_555
H18 C17 1_555 1_555
C18 C15 1_555 1_555
C19 C18 1_555 1_555
C20 C19 1_555 1_555
C21 C20 1_555 1_555
C22 C21 1_555 1_555
C23 C22 1_555 1_555
H19 C23 1_555 1_555
C24 C19 1_555 1_555
C25 C24 1_555 1_555
H20 C25 1_555 1_555
H21 C25 1_555 1_555
C26 C25 1_555 1_555
H22 C26 1_555 1_555
H23 C26 1_555 1_555
C27 C18 1_555 1_555
C28 C5 1_555 1_555
C29 N1 1_555 1_555
C30 C20 1_555 1_555
H24 C30 1_555 1_555
H25 C30 1_555 1_555
H26 C30 1_555 1_555
C31 O4 1_555 1_555
H27 C31 1_555 1_555
H28 C31 1_555 1_555
H29 C31 1_555 1_555
C13 C14 1_555 1_555
C14 C15 1_555 1_555
C23 C24 1_555 1_555
C26 C27 1_555 1_555
C27 C28 1_555 1_555
C28 C29 1_555 1_555

#END
