
#######################################################################
#
#                 Cambridge Crystallographic Data Centre
#                                CCDC 
#
#######################################################################
#
# If this CIF has been generated from an entry in the Cambridge 
# Structural Database, then it will include bibliographic, chemical, 
# crystal, experimental, refinement or atomic coordinate data resulting 
# from the CCDC's data processing and validation procedures.
#
#######################################################################

data_ORIQAJ
_chemical_formula_moiety         'C20 H19 N1 O1'
_chemical_name_systematic        
(1-benzyl-2,4-dimethyl-1H-pyrrol-3-yl)(phenyl)methanone
_symmetry_cell_setting           triclinic
_symmetry_space_group_name_H-M   'P -1'
_symmetry_Int_Tables_number      2
_space_group_name_Hall           '-P 1'
loop_
_symmetry_equiv_pos_site_id
_symmetry_equiv_pos_as_xyz
1 x,y,z
2 -x,-y,-z
_cell_length_a                   8.4198(17)
_cell_length_b                   9.6730(19)
_cell_length_c                   11.146(2)
_cell_angle_alpha                113.95(3)
_cell_angle_beta                 96.34(3)
_cell_angle_gamma                106.00(3)
_cell_volume                     771.525
_exptl_crystal_colour            colorless
_exptl_crystal_description       block
_cell_formula_units_Z            2
loop_
_atom_site_label
_atom_site_type_symbol
_atom_site_fract_x
_atom_site_fract_y
_atom_site_fract_z
O1 O 0.31544(10) 0.51154(9) -0.27170(8)
N1 N 0.45897(13) 0.74811(11) 0.18465(9)
C1 C 0.63522(16) 0.61354(14) -0.32410(12)
H1 H 0.5642 0.5047 -0.3832
C2 C 0.77796(16) 0.68578(14) -0.35787(12)
H2 H 0.8046 0.6263 -0.4396
C3 C 0.88154(16) 0.84446(14) -0.27242(12)
H3 H 0.9804 0.8933 -0.2948
C4 C 0.84118(16) 0.93214(14) -0.15432(12)
H4 H 0.9112 1.0417 -0.0967
C5 C 0.69848(15) 0.86021(13) -0.11987(11)
H5 H 0.6713 0.9208 -0.0388
C6 C 0.59523(15) 0.69964(13) -0.20391(11)
C7 C 0.43417(15) 0.61980(13) -0.17513(11)
C8 C 0.41606(14) 0.67323(13) -0.03636(11)
C9 C 0.53875(15) 0.72103(13) 0.08128(11)
C10 C 0.72074(15) 0.73140(14) 0.10394(12)
H6 H 0.7958 0.8452 0.1517
H7 H 0.7459 0.6788 0.0163
H8 H 0.7399 0.6770 0.1587
C11 C 0.28936(15) 0.72129(14) 0.13566(12)
H9 H 0.2087 0.7353 0.1886
C12 C 0.25632(15) 0.67162(13) -0.00051(12)
C13 C 0.08861(16) 0.63016(16) -0.09273(13)
H10 H 0.0042 0.6467 -0.0396
H11 H 0.0495 0.5168 -0.1614
H12 H 0.1024 0.6998 -0.1376
C14 C 0.54036(16) 0.80684(13) 0.32705(11)
H13 H 0.6066 0.7390 0.3338
H14 H 0.4507 0.7947 0.3763
C15 C 0.65839(15) 0.98197(13) 0.39514(11)
C16 C 0.62704(16) 1.09423(14) 0.35764(11)
H15 H 0.5311 1.0610 0.2857
C17 C 0.73490(16) 1.25459(14) 0.42451(12)
H16 H 0.7125 1.3307 0.3983
C18 C 0.87586(16) 1.30461(14) 0.52989(12)
H17 H 0.9493 1.4147 0.5759
C19 C 0.90848(16) 1.19313(14) 0.56727(11)
H18 H 1.0052 1.2262 0.6385
C20 C 0.79968(16) 1.03286(15) 0.50051(12)
H19 H 0.8220 0.9569 0.5271
loop_
_geom_bond_atom_site_label_1
_geom_bond_atom_site_label_2
_geom_bond_site_symmetry_1
_geom_bond_site_symmetry_2
O1 C7 1_555 1_555
N1 C9 1_555 1_555
C1 H1 1_555 1_555
C2 C1 1_555 1_555
H2 C2 1_555 1_555
C3 C2 1_555 1_555
H3 C3 1_555 1_555
C4 C3 1_555 1_555
H4 C4 1_555 1_555
C5 C4 1_555 1_555
H5 C5 1_555 1_555
C6 C1 1_555 1_555
C7 C6 1_555 1_555
C8 C7 1_555 1_555
C9 C8 1_555 1_555
C10 C9 1_555 1_555
H6 C10 1_555 1_555
H7 C10 1_555 1_555
H8 C10 1_555 1_555
C11 N1 1_555 1_555
H9 C11 1_555 1_555
C12 C8 1_555 1_555
C13 C12 1_555 1_555
H10 C13 1_555 1_555
H11 C13 1_555 1_555
H12 C13 1_555 1_555
C14 N1 1_555 1_555
H13 C14 1_555 1_555
H14 C14 1_555 1_555
C15 C14 1_555 1_555
C16 C15 1_555 1_555
H15 C16 1_555 1_555
C17 C16 1_555 1_555
H16 C17 1_555 1_555
C18 C17 1_555 1_555
H17 C18 1_555 1_555
C19 C18 1_555 1_555
H18 C19 1_555 1_555
C20 C15 1_555 1_555
H19 C20 1_555 1_555
C5 C6 1_555 1_555
C11 C12 1_555 1_555
C19 C20 1_555 1_555

#END
