
#######################################################################
#
#                 Cambridge Crystallographic Data Centre
#                                CCDC 
#
#######################################################################
#
# If this CIF has been generated from an entry in the Cambridge 
# Structural Database, then it will include bibliographic, chemical, 
# crystal, experimental, refinement or atomic coordinate data resulting 
# from the CCDC's data processing and validation procedures.
#
#######################################################################

data_ORIXAQ
_chemical_formula_moiety         'C21 H16 O1'
_chemical_name_systematic        9-(4-methoxyphenyl)phenanthrene
_symmetry_cell_setting           monoclinic
_symmetry_space_group_name_H-M   'P 21/c'
_symmetry_Int_Tables_number      14
_space_group_name_Hall           '-P 2ybc'
loop_
_symmetry_equiv_pos_site_id
_symmetry_equiv_pos_as_xyz
1 x,y,z
2 -x,1/2+y,1/2-z
3 -x,-y,-z
4 x,1/2-y,1/2+z
_cell_length_a                   13.33(5)
_cell_length_b                   15.13(5)
_cell_length_c                   7.59(3)
_cell_angle_alpha                90
_cell_angle_beta                 100.77(5)
_cell_angle_gamma                90
_cell_volume                     1503.81
_exptl_crystal_colour            colorless
_exptl_crystal_description       block
_cell_formula_units_Z            4
loop_
_atom_site_label
_atom_site_type_symbol
_atom_site_fract_x
_atom_site_fract_y
_atom_site_fract_z
O1 O 0.84669(11) 1.16657(9) 1.0247(2)
C1 C 0.70941(16) 0.95724(13) 0.4107(3)
C2 C 0.60856(16) 0.95672(13) 0.3349(3)
H1 H 0.5638 0.9906 0.3873
C3 C 0.56835(16) 0.90640(14) 0.1785(3)
C4 C 0.46242(17) 0.90799(14) 0.1061(3)
H2 H 0.4189 0.9425 0.1600
C5 C 0.42380(18) 0.85913(16) -0.0424(3)
H3 H 0.3543 0.8605 -0.0903
C6 C 0.4886(2) 0.80781(16) -0.1206(3)
H4 H 0.4620 0.7741 -0.2210
C7 C 0.59132(18) 0.80524(15) -0.0542(3)
H5 H 0.6333 0.7703 -0.1106
C8 C 0.63430(16) 0.85463(13) 0.0980(3)
C9 C 0.74320(16) 0.85539(13) 0.1733(3)
C10 C 0.81468(17) 0.80812(14) 0.0947(3)
H6 H 0.7913 0.7728 -0.0048
C11 C 0.91802(18) 0.81257(15) 0.1605(3)
H7 H 0.9635 0.7812 0.1050
C12 C 0.95383(18) 0.86381(15) 0.3095(3)
H8 H 1.0236 0.8670 0.3548
C13 C 0.88663(16) 0.90992(13) 0.3903(3)
H9 H 0.9120 0.9445 0.4901
C14 C 0.77983(15) 0.90687(13) 0.3273(3)
C15 C 0.74615(14) 1.01096(14) 0.5746(3)
C16 C 0.79491(15) 0.97181(14) 0.7332(3)
H10 H 0.8049 0.9110 0.7369
C17 C 0.82899(15) 1.02142(14) 0.8857(3)
H11 H 0.8614 0.9939 0.9906
C18 C 0.81495(15) 1.11075(14) 0.8821(3)
C19 C 0.76532(15) 1.15086(14) 0.7260(3)
H12 H 0.7547 1.2116 0.7234
C20 C 0.73172(15) 1.10142(15) 0.5750(3)
H13 H 0.6986 1.1293 0.4709
C21 C 0.89765(18) 1.12760(15) 1.1873(3)
H14 H 0.8544 1.0836 1.2256
H15 H 0.9132 1.1724 1.2780
H16 H 0.9598 1.1004 1.1683
loop_
_geom_bond_atom_site_label_1
_geom_bond_atom_site_label_2
_geom_bond_site_symmetry_1
_geom_bond_site_symmetry_2
O1 C18 1_555 1_555
C1 C2 1_555 1_555
C2 H1 1_555 1_555
C3 C2 1_555 1_555
C4 C3 1_555 1_555
H2 C4 1_555 1_555
C5 C4 1_555 1_555
H3 C5 1_555 1_555
C6 C5 1_555 1_555
H4 C6 1_555 1_555
C7 C6 1_555 1_555
H5 C7 1_555 1_555
C8 C3 1_555 1_555
C9 C8 1_555 1_555
C10 C9 1_555 1_555
H6 C10 1_555 1_555
C11 C10 1_555 1_555
H7 C11 1_555 1_555
C12 C11 1_555 1_555
H8 C12 1_555 1_555
C13 C12 1_555 1_555
H9 C13 1_555 1_555
C14 C1 1_555 1_555
C15 C1 1_555 1_555
C16 C15 1_555 1_555
H10 C16 1_555 1_555
C17 C16 1_555 1_555
H11 C17 1_555 1_555
C18 C17 1_555 1_555
C19 C18 1_555 1_555
H12 C19 1_555 1_555
C20 C15 1_555 1_555
H13 C20 1_555 1_555
C21 O1 1_555 1_555
H14 C21 1_555 1_555
H15 C21 1_555 1_555
H16 C21 1_555 1_555
C7 C8 1_555 1_555
C9 C14 1_555 1_555
C13 C14 1_555 1_555
C19 C20 1_555 1_555

#END
