
#######################################################################
#
#                 Cambridge Crystallographic Data Centre
#                                CCDC 
#
#######################################################################
#
# If this CIF has been generated from an entry in the Cambridge 
# Structural Database, then it will include bibliographic, chemical, 
# crystal, experimental, refinement or atomic coordinate data resulting 
# from the CCDC's data processing and validation procedures.
#
#######################################################################

data_OROBUU
_chemical_name_common            
1-(4-(4-(1H-1,2,4-triazol-1-yl)phenoxy)phenyl)-1H-1,2,4-triazole
_chemical_formula_moiety         'C16 H12 N6 O1'
_chemical_name_systematic        
1,1'-(oxydi-4,1-phenylene)bis(1H-1,2,4-triazole)
_symmetry_cell_setting           monoclinic
_symmetry_space_group_name_H-M   'P 21/c'
_symmetry_Int_Tables_number      14
_space_group_name_Hall           '-P 2ybc'
loop_
_symmetry_equiv_pos_site_id
_symmetry_equiv_pos_as_xyz
1 x,y,z
2 -x,1/2+y,1/2-z
3 -x,-y,-z
4 x,1/2-y,1/2+z
_cell_length_a                   22.340(9)
_cell_length_b                   5.524(2)
_cell_length_c                   11.302(5)
_cell_angle_alpha                90
_cell_angle_beta                 93.506(8)
_cell_angle_gamma                90
_cell_volume                     1392.13
_exptl_crystal_colour            yellow
_exptl_crystal_description       block
_cell_formula_units_Z            4
loop_
_atom_site_label
_atom_site_type_symbol
_atom_site_fract_x
_atom_site_fract_y
_atom_site_fract_z
O1 O 0.7480(4) 0.7105(15) 0.6428(7)
N1 N 0.5914(4) 0.6550(16) 1.0055(8)
N2 N 0.5821(4) 0.4407(18) 1.0634(9)
N3 N 0.5275(4) 0.7391(19) 1.1365(9)
N4 N 0.9084(4) 1.4729(18) 0.5863(8)
N5 N 0.9006(4) 1.6215(19) 0.4938(8)
N6 N 0.9824(4) 1.7309(18) 0.6079(8)
C1 C 0.5584(5) 0.829(2) 1.0535(11)
H1 H 0.5579 0.9909 1.0304
C2 C 0.5440(6) 0.506(2) 1.1406(10)
H2 H 0.5293 0.3973 1.1948
C3 C 0.6319(5) 0.674(2) 0.9129(9)
C4 C 0.6344(5) 0.488(2) 0.8311(10)
H3 H 0.6096 0.3532 0.8358
C5 C 0.6751(5) 0.504(2) 0.7410(10)
H4 H 0.6783 0.3780 0.6872
C6 C 0.7102(5) 0.709(2) 0.7330(10)
C7 C 0.7054(5) 0.900(2) 0.8133(10)
H5 H 0.7282 1.0398 0.8060
C8 C 0.6658(5) 0.879(2) 0.9056(9)
H6 H 0.6629 1.0027 0.9607
C9 C 0.7876(5) 0.906(2) 0.6333(9)
C10 C 0.7799(5) 1.055(2) 0.5333(10)
H7 H 0.7484 1.0272 0.4772
C11 C 0.8195(5) 1.242(2) 0.5191(10)
H8 H 0.8146 1.3447 0.4540
C12 C 0.8668(5) 1.277(2) 0.6032(10)
C13 C 0.8747(5) 1.126(2) 0.7041(9)
H9 H 0.9065 1.1515 0.7599
C14 C 0.8333(5) 0.938(2) 0.7180(10)
H10 H 0.8370 0.8364 0.7838
C15 C 0.9573(5) 1.541(2) 0.6548(10)
H11 H 0.9712 1.4649 0.7245
C16 C 0.9459(5) 1.774(2) 0.5099(10)
H12 H 0.9524 1.9002 0.4580
loop_
_geom_bond_atom_site_label_1
_geom_bond_atom_site_label_2
_geom_bond_site_symmetry_1
_geom_bond_site_symmetry_2
O1 C6 1_555 1_555
N1 N2 1_555 1_555
N2 C2 1_555 1_555
N3 C1 1_555 1_555
N4 N5 1_555 1_555
N5 C16 1_555 1_555
N6 C15 1_555 1_555
C1 N1 1_555 1_555
H1 C1 1_555 1_555
C2 N3 1_555 1_555
H2 C2 1_555 1_555
C3 N1 1_555 1_555
C4 C3 1_555 1_555
H3 C4 1_555 1_555
C5 C4 1_555 1_555
H4 C5 1_555 1_555
C6 C5 1_555 1_555
C7 C6 1_555 1_555
H5 C7 1_555 1_555
C8 C3 1_555 1_555
H6 C8 1_555 1_555
C9 O1 1_555 1_555
C10 C9 1_555 1_555
H7 C10 1_555 1_555
C11 C10 1_555 1_555
H8 C11 1_555 1_555
C12 N4 1_555 1_555
C13 C12 1_555 1_555
H9 C13 1_555 1_555
C14 C9 1_555 1_555
H10 C14 1_555 1_555
C15 N4 1_555 1_555
H11 C15 1_555 1_555
C16 N6 1_555 1_555
H12 C16 1_555 1_555
C7 C8 1_555 1_555
C11 C12 1_555 1_555
C13 C14 1_555 1_555

#END
