
#######################################################################
#
#                 Cambridge Crystallographic Data Centre
#                                CCDC 
#
#######################################################################
#
# If this CIF has been generated from an entry in the Cambridge 
# Structural Database, then it will include bibliographic, chemical, 
# crystal, experimental, refinement or atomic coordinate data resulting 
# from the CCDC's data processing and validation procedures.
#
#######################################################################

data_OROMIT
_chemical_formula_moiety         'C7 H7 N5 O3'
_chemical_name_systematic        
6,7-dihydroxy-3,5,6,7-tetrahydro-9H-imidazo[1,2-a]purin-9-one
_symmetry_cell_setting           triclinic
_symmetry_space_group_name_H-M   'P -1'
_symmetry_Int_Tables_number      2
_space_group_name_Hall           '-P 1'
loop_
_symmetry_equiv_pos_site_id
_symmetry_equiv_pos_as_xyz
1 x,y,z
2 -x,-y,-z
_cell_length_a                   6.8925(4)
_cell_length_b                   7.6352(4)
_cell_length_c                   8.0605(6)
_cell_angle_alpha                95.063(5)
_cell_angle_beta                 105.135(6)
_cell_angle_gamma                107.647(5)
_cell_volume                     383.69
_exptl_crystal_colour            colorless
_exptl_crystal_description       block
_cell_formula_units_Z            2
loop_
_atom_site_label
_atom_site_type_symbol
_atom_site_fract_x
_atom_site_fract_y
_atom_site_fract_z
O1 O 0.1803(3) -0.0561(2) 0.71668(19)
O2 O 0.3726(2) 0.34594(19) 0.61681(18)
H1 H 0.4725 0.4310 0.6862
O3 O -0.0753(2) 0.4579(2) 0.6656(2)
H2 H -0.1043 0.5434 0.7105
N1 N 0.2147(2) 0.2403(2) 0.8339(2)
N2 N 0.2866(3) 0.3571(2) 1.1379(2)
N3 N 0.2741(3) -0.1191(2) 1.1004(2)
N4 N 0.3297(3) 0.1187(2) 1.3093(2)
H3 H 0.3563 0.1802 1.4119
N5 N 0.2310(3) 0.5316(2) 0.9134(2)
H4 H 0.2665 0.6384 0.9789
C1 C 0.2159(3) 0.0573(2) 0.8471(3)
C2 C 0.2459(3) 0.3764(2) 0.9729(2)
C3 C 0.2944(3) 0.1830(2) 1.1558(2)
C4 C 0.2612(3) 0.0354(2) 1.0264(3)
C5 C 0.3142(3) -0.0636(3) 1.2673(3)
H5 H 0.3306 -0.1402 1.3496
C6 C 0.1474(3) 0.4966(3) 0.7242(3)
H6 H 0.2227 0.5999 0.6752
C7 C 0.1903(3) 0.3160(3) 0.6712(2)
H7 H 0.0653 0.2300 0.5793
loop_
_geom_bond_atom_site_label_1
_geom_bond_atom_site_label_2
_geom_bond_site_symmetry_1
_geom_bond_site_symmetry_2
O1 C1 1_555 1_555
O2 H1 1_555 1_555
O3 H2 1_555 1_555
N1 C1 1_555 1_555
N2 C2 1_555 1_555
N3 C4 1_555 1_555
N4 H3 1_555 1_555
N5 H4 1_555 1_555
C1 C4 1_555 1_555
C2 N1 1_555 1_555
C3 N2 1_555 1_555
C4 C3 1_555 1_555
C5 N3 1_555 1_555
H5 C5 1_555 1_555
C6 O3 1_555 1_555
H6 C6 1_555 1_555
C7 O2 1_555 1_555
H7 C7 1_555 1_555
N1 C7 1_555 1_555
N4 C3 1_555 1_555
N4 C5 1_555 1_555
N5 C2 1_555 1_555
N5 C6 1_555 1_555
C6 C7 1_555 1_555

#END
