
#######################################################################
#
#                 Cambridge Crystallographic Data Centre
#                                CCDC 
#
#######################################################################
#
# If this CIF has been generated from an entry in the Cambridge 
# Structural Database, then it will include bibliographic, chemical, 
# crystal, experimental, refinement or atomic coordinate data resulting 
# from the CCDC's data processing and validation procedures.
#
#######################################################################

data_OROWUP
_chemical_formula_moiety         'C25 H40 O5 Si1'
_chemical_name_systematic        
15'-((t-butyl(dimethyl)silyl)oxy)-6'-hydroxy-2'H-spiro[1,3-dioxolane-2,10'-pentacyclo[7.5.3.0^1,6^.0^7,12^.0^12,16^]heptadecan]-2'-one
_symmetry_cell_setting           orthorhombic
_symmetry_space_group_name_H-M   'P b c a'
_symmetry_Int_Tables_number      61
_space_group_name_Hall           '-P 2ac 2ab'
loop_
_symmetry_equiv_pos_site_id
_symmetry_equiv_pos_as_xyz
1 x,y,z
2 1/2-x,-y,1/2+z
3 1/2+x,1/2-y,-z
4 -x,1/2+y,1/2-z
5 -x,-y,-z
6 1/2+x,y,1/2-z
7 1/2-x,1/2+y,z
8 x,1/2-y,1/2+z
_cell_length_a                   11.5577(5)
_cell_length_b                   16.8408(7)
_cell_length_c                   24.6521(9)
_cell_angle_alpha                90
_cell_angle_beta                 90
_cell_angle_gamma                90
_cell_volume                     4798.31
_exptl_crystal_colour            colorless
_exptl_crystal_description       prism
_cell_formula_units_Z            8
_exptl_crystal_recrystallization_method 'Petroleum ether/diethyl ether'
loop_
_atom_site_label
_atom_site_type_symbol
_atom_site_fract_x
_atom_site_fract_y
_atom_site_fract_z
Si1 Si 0.48070(5) 0.43922(3) 0.61504(2)
O1 O 0.45472(12) 0.34462(8) 0.62710(5)
O2 O 0.52704(14) 0.08805(9) 0.42360(6)
O3 O 0.41580(15) 0.19343(10) 0.40165(6)
O4 O 0.56276(17) 0.07062(9) 0.64669(6)
H1 H 0.5819 0.0323 0.6283
O5 O 0.47393(16) 0.24403(11) 0.73414(6)
C1 C 0.43114(16) 0.16272(11) 0.54642(7)
C2 C 0.55509(17) 0.13122(11) 0.55635(8)
H2 H 0.5540 0.0739 0.5494
C3 C 0.50616(16) 0.27737(10) 0.60163(7)
H3 H 0.5867 0.2900 0.5927
C4 C 0.56528(19) 0.21329(12) 0.47011(8)
H4 H 0.6165 0.2327 0.4414
C5 C 0.44150(16) 0.25402(11) 0.54884(7)
H5 H 0.3634 0.2766 0.5502
C6 C 0.47462(19) 0.15749(12) 0.44613(8)
C7 C 0.50439(16) 0.20655(11) 0.64189(7)
C8 C 0.58755(18) 0.14302(11) 0.61734(8)
C9 C 0.5433(2) 0.23487(13) 0.69808(8)
C10 C 0.38000(19) 0.17462(13) 0.64462(8)
H6 H 0.3734 0.1365 0.6740
H7 H 0.3268 0.2179 0.6517
C11 C 0.34907(18) 0.13467(13) 0.59066(8)
H8 H 0.3546 0.0775 0.5945
H9 H 0.2701 0.1478 0.5808
C12 C 0.71499(19) 0.16303(14) 0.62754(9)
H10 H 0.7626 0.1193 0.6150
H11 H 0.7355 0.2097 0.6066
C13 C 0.38954(19) 0.13525(13) 0.49034(8)
H12 H 0.3793 0.0781 0.4907
H13 H 0.3151 0.1593 0.4826
C14 C 0.5015(2) 0.28330(12) 0.49646(8)
H14 H 0.4443 0.3044 0.4715
H15 H 0.5560 0.3253 0.5051
C15 C 0.63570(18) 0.16982(13) 0.51302(8)
H16 H 0.6878 0.2069 0.5306
H17 H 0.6820 0.1289 0.4958
C16 C 0.6338(2) 0.45343(14) 0.59328(11)
H18 H 0.6847 0.4320 0.6203
H19 H 0.6491 0.5091 0.5888
H20 H 0.6464 0.4265 0.5595
C17 C 0.7409(2) 0.17851(16) 0.68710(10)
H21 H 0.8228 0.1893 0.6918
H22 H 0.7214 0.1320 0.7085
C18 C 0.5613(3) 0.11019(16) 0.37029(9)
H23 H 0.5609 0.0647 0.3461
H24 H 0.6381 0.1335 0.3704
C19 C 0.45061(19) 0.49316(13) 0.68031(8)
C20 C 0.4484(2) 0.58287(15) 0.66972(11)
H25 H 0.5205 0.5989 0.6538
H26 H 0.4373 0.6105 0.7034
H27 H 0.3861 0.5953 0.6454
C21 C 0.6701(2) 0.24945(15) 0.70625(9)
H28 H 0.6853 0.2590 0.7444
H29 H 0.6932 0.2964 0.6862
C22 C 0.5453(3) 0.47525(18) 0.72173(10)
H30 H 0.5476 0.4192 0.7287
H31 H 0.5292 0.5031 0.7549
H32 H 0.6187 0.4923 0.7077
C23 C 0.3828(2) 0.47375(13) 0.55975(9)
H33 H 0.3978 0.4437 0.5274
H34 H 0.3964 0.5291 0.5528
H35 H 0.3037 0.4662 0.5706
C24 C 0.4723(3) 0.1698(2) 0.35373(10)
H36 H 0.5087 0.2150 0.3364
H37 H 0.4176 0.1463 0.3286
C25 C 0.3330(3) 0.46809(19) 0.70309(13)
H38 H 0.2734 0.4814 0.6776
H39 H 0.3191 0.4953 0.7367
H40 H 0.3328 0.4118 0.7093
loop_
_geom_bond_atom_site_label_1
_geom_bond_atom_site_label_2
_geom_bond_site_symmetry_1
_geom_bond_site_symmetry_2
Si1 O1 1_555 1_555
O1 C3 1_555 1_555
O2 C6 1_555 1_555
O3 C6 1_555 1_555
O4 H1 1_555 1_555
O5 C9 1_555 1_555
C1 C2 1_555 1_555
C2 H2 1_555 1_555
C3 H3 1_555 1_555
C4 H4 1_555 1_555
C5 C1 1_555 1_555
H5 C5 1_555 1_555
C6 C4 1_555 1_555
C7 C3 1_555 1_555
C8 O4 1_555 1_555
C9 C7 1_555 1_555
C10 C7 1_555 1_555
H6 C10 1_555 1_555
H7 C10 1_555 1_555
C11 C1 1_555 1_555
H8 C11 1_555 1_555
H9 C11 1_555 1_555
C12 C8 1_555 1_555
H10 C12 1_555 1_555
H11 C12 1_555 1_555
C13 C1 1_555 1_555
H12 C13 1_555 1_555
H13 C13 1_555 1_555
C14 C4 1_555 1_555
H14 C14 1_555 1_555
H15 C14 1_555 1_555
C15 C2 1_555 1_555
H16 C15 1_555 1_555
H17 C15 1_555 1_555
C16 Si1 1_555 1_555
H18 C16 1_555 1_555
H19 C16 1_555 1_555
H20 C16 1_555 1_555
C17 C12 1_555 1_555
H21 C17 1_555 1_555
H22 C17 1_555 1_555
C18 O2 1_555 1_555
H23 C18 1_555 1_555
H24 C18 1_555 1_555
C19 Si1 1_555 1_555
C20 C19 1_555 1_555
H25 C20 1_555 1_555
H26 C20 1_555 1_555
H27 C20 1_555 1_555
C21 C9 1_555 1_555
H28 C21 1_555 1_555
H29 C21 1_555 1_555
C22 C19 1_555 1_555
H30 C22 1_555 1_555
H31 C22 1_555 1_555
H32 C22 1_555 1_555
C23 Si1 1_555 1_555
H33 C23 1_555 1_555
H34 C23 1_555 1_555
H35 C23 1_555 1_555
C24 O3 1_555 1_555
H36 C24 1_555 1_555
H37 C24 1_555 1_555
C25 C19 1_555 1_555
H38 C25 1_555 1_555
H39 C25 1_555 1_555
H40 C25 1_555 1_555
C2 C8 1_555 1_555
C3 C5 1_555 1_555
C4 C15 1_555 1_555
C5 C14 1_555 1_555
C6 C13 1_555 1_555
C7 C8 1_555 1_555
C10 C11 1_555 1_555
C17 C21 1_555 1_555
C18 C24 1_555 1_555

#END
