
#######################################################################
#
#                 Cambridge Crystallographic Data Centre
#                                CCDC 
#
#######################################################################
#
# If this CIF has been generated from an entry in the Cambridge 
# Structural Database, then it will include bibliographic, chemical, 
# crystal, experimental, refinement or atomic coordinate data resulting 
# from the CCDC's data processing and validation procedures.
#
#######################################################################

data_OROXAW
_chemical_formula_moiety         'C72 H60 O16'
_chemical_name_systematic        
"tetrakis(3,4-dimethoxybenzyl) (7Z,17Z)-cyclo-octa[1,2-b:5,6-b']dianthracene-2,3,12,13-tetracarboxylate"
_symmetry_cell_setting           monoclinic
_symmetry_space_group_name_H-M   'C 2/c'
_symmetry_Int_Tables_number      15
_space_group_name_Hall           '-C 2yn'
loop_
_symmetry_equiv_pos_site_id
_symmetry_equiv_pos_as_xyz
1 x,y,z
2 -x,y,1/2-z
3 1/2+x,1/2+y,z
4 1/2-x,1/2+y,1/2-z
5 -x,-y,-z
6 x,-y,1/2+z
7 1/2-x,1/2-y,-z
8 1/2+x,1/2-y,1/2+z
_cell_length_a                   54.39(4)
_cell_length_b                   4.843(3)
_cell_length_c                   23.157(18)
_cell_angle_alpha                90
_cell_angle_beta                 111.690(9)
_cell_angle_gamma                90
_cell_volume                     5667.92
_exptl_crystal_colour            yellow
_exptl_crystal_description       Prism
_cell_formula_units_Z            4
_exptl_crystal_preparation       Luminescent
loop_
_atom_site_label
_atom_site_type_symbol
_atom_site_fract_x
_atom_site_fract_y
_atom_site_fract_z
C1 C 0.53177(3) 1.5247(3) 0.26284(8)
H1 H 0.5452 1.6622 0.2748
C2 C 0.52989(3) 1.3482(3) 0.31314(7)
C3 C 0.50625(3) 1.3288(3) 0.32734(7)
C4 C 0.48318(3) 1.5119(3) 0.29692(8)
H2 H 0.4786 1.6341 0.3235
C5 C 0.55186(3) 1.2022(3) 0.34843(7)
H3 H 0.5678 1.2278 0.3411
C6 C 0.55186(3) 1.0145(3) 0.39535(7)
C7 C 0.52798(3) 0.9839(3) 0.40743(7)
C8 C 0.50597(3) 1.1523(3) 0.37331(7)
H4 H 0.4904 1.1419 0.3828
C9 C 0.57410(3) 0.8579(3) 0.42972(7)
H5 H 0.5901 0.8820 0.4225
C10 C 0.57342(3) 0.6683(3) 0.47408(7)
C11 C 0.54944(3) 0.6337(3) 0.48551(7)
C12 C 0.52734(3) 0.7935(3) 0.45206(7)
H6 H 0.5115 0.7719 0.4599
C13 C 0.59595(3) 0.5091(3) 0.51022(7)
H7 H 0.6119 0.5292 0.5028
C14 C 0.59543(3) 0.3301(3) 0.55485(7)
C15 C 0.57120(3) 0.2888(3) 0.56505(7)
C16 C 0.54937(3) 0.4380(3) 0.53128(7)
H8 H 0.5335 0.4102 0.5386
C17 C 0.62125(3) 0.2128(3) 0.59749(7)
O1 O 0.63183(2) 0.2788(2) 0.65127(5)
O2 O 0.63187(2) 0.0398(2) 0.56768(5)
C18 C 0.65673(3) -0.0921(3) 0.60647(7)
H9 H 0.6583 -0.2725 0.5880
H10 H 0.6564 -0.1270 0.6483
C19 C 0.68037(3) 0.0818(3) 0.61257(7)
C20 C 0.69083(3) 0.2672(3) 0.66084(7)
H11 H 0.6829 0.2860 0.6910
C21 C 0.71281(3) 0.4270(3) 0.66585(7)
H12 H 0.7197 0.5548 0.6991
C22 C 0.72459(3) 0.3999(3) 0.62265(7)
C23 C 0.71441(3) 0.2096(3) 0.57352(7)
C24 C 0.69236(3) 0.0533(3) 0.56870(7)
H13 H 0.6853 -0.0740 0.5354
O3 O 0.74643(2) 0.5421(2) 0.62364(5)
C25 C 0.75882(3) 0.7184(4) 0.67553(8)
H14 H 0.7637 0.6111 0.7140
H15 H 0.7465 0.8660 0.6759
H16 H 0.7748 0.7996 0.6724
O4 O 0.72778(2) 0.1937(3) 0.53442(5)
C26 C 0.71952(4) -0.0126(4) 0.48661(8)
H17 H 0.7208 -0.1955 0.5056
H18 H 0.7310 -0.0055 0.4624
H19 H 0.7012 0.0223 0.4592
C27 C 0.56865(3) 0.0911(3) 0.61186(7)
O5 O 0.55082(2) 0.1014(2) 0.63121(6)
O6 O 0.58805(2) -0.0977(2) 0.62981(5)
C28 C 0.59037(3) -0.2645(3) 0.68449(7)
H20 H 0.5980 -0.4472 0.6818
H21 H 0.5726 -0.2937 0.6863
C29 C 0.60786(3) -0.1157(3) 0.74169(7)
C30 C 0.59778(3) 0.0739(3) 0.77171(7)
H22 H 0.5792 0.1022 0.7577
C31 C 0.61450(3) 0.2239(3) 0.82216(7)
H23 H 0.6073 0.3531 0.8425
C32 C 0.64145(3) 0.1858(3) 0.84277(7)
C33 C 0.65188(3) -0.0081(3) 0.81274(7)
C34 C 0.63516(3) -0.1570(3) 0.76300(7)
H24 H 0.6423 -0.2887 0.7431
O7 O 0.65984(2) 0.3217(2) 0.89188(5)
C35 C 0.65003(4) 0.5014(4) 0.92702(8)
H25 H 0.6392 0.3959 0.9448
H26 H 0.6393 0.6465 0.8999
H27 H 0.6649 0.5855 0.9606
O8 O 0.67889(2) -0.0315(2) 0.83662(5)
C36 C 0.69009(3) -0.2534(4) 0.81402(9)
H28 H 0.6868 -0.2234 0.7700
H29 H 0.6819 -0.4278 0.8189
H30 H 0.7092 -0.2613 0.8376
C1A C 0.46823(3) 1.5247(3) 0.23716(8)
H1A H 0.4548 1.6622 0.2252
C2A C 0.47011(3) 1.3482(3) 0.18686(7)
C3A C 0.49375(3) 1.3288(3) 0.17266(7)
C4A C 0.51682(3) 1.5119(3) 0.20308(8)
H2A H 0.5214 1.6341 0.1765
C5A C 0.44814(3) 1.2022(3) 0.15157(7)
H3A H 0.4322 1.2278 0.1589
C6A C 0.44814(3) 1.0145(3) 0.10465(7)
C7A C 0.47202(3) 0.9839(3) 0.09257(7)
C8A C 0.49403(3) 1.1523(3) 0.12669(7)
H4A H 0.5096 1.1419 0.1172
C9A C 0.42590(3) 0.8579(3) 0.07028(7)
H5A H 0.4099 0.8820 0.0775
C10A C 0.42658(3) 0.6683(3) 0.02592(7)
C11A C 0.45056(3) 0.6337(3) 0.01449(7)
C12A C 0.47266(3) 0.7935(3) 0.04794(7)
H6A H 0.4885 0.7719 0.0401
C13A C 0.40405(3) 0.5091(3) -0.01022(7)
H7A H 0.3881 0.5292 -0.0028
C14A C 0.40457(3) 0.3301(3) -0.05485(7)
C15A C 0.42880(3) 0.2888(3) -0.06505(7)
C16A C 0.45063(3) 0.4380(3) -0.03128(7)
H8A H 0.4665 0.4102 -0.0386
C17A C 0.37875(3) 0.2128(3) -0.09749(7)
O1A O 0.36817(2) 0.2788(2) -0.15127(5)
O2A O 0.36813(2) 0.0398(2) -0.06768(5)
C18A C 0.34327(3) -0.0921(3) -0.10647(7)
H9A H 0.3417 -0.2725 -0.0880
H10A H 0.3436 -0.1270 -0.1483
C19A C 0.31963(3) 0.0818(3) -0.11257(7)
C20A C 0.30917(3) 0.2672(3) -0.16084(7)
H11A H 0.3171 0.2860 -0.1910
C21A C 0.28719(3) 0.4270(3) -0.16585(7)
H12A H 0.2803 0.5548 -0.1991
C22A C 0.27541(3) 0.3999(3) -0.12265(7)
C23A C 0.28559(3) 0.2096(3) -0.07352(7)
C24A C 0.30764(3) 0.0533(3) -0.06870(7)
H13A H 0.3147 -0.0740 -0.0354
O3A O 0.25357(2) 0.5421(2) -0.12364(5)
C25A C 0.24118(3) 0.7184(4) -0.17553(8)
H14A H 0.2363 0.6111 -0.2140
H15A H 0.2535 0.8660 -0.1759
H16A H 0.2252 0.7996 -0.1724
O4A O 0.27222(2) 0.1937(3) -0.03442(5)
C26A C 0.28048(4) -0.0126(4) 0.01339(8)
H17A H 0.2792 -0.1955 -0.0056
H18A H 0.2690 -0.0055 0.0376
H19A H 0.2988 0.0223 0.0408
C27A C 0.43135(3) 0.0911(3) -0.11186(7)
O5A O 0.44918(2) 0.1014(2) -0.13121(6)
O6A O 0.41195(2) -0.0977(2) -0.12981(5)
C28A C 0.40963(3) -0.2645(3) -0.18449(7)
H20A H 0.4020 -0.4472 -0.1818
H21A H 0.4274 -0.2937 -0.1863
C29A C 0.39214(3) -0.1157(3) -0.24169(7)
C30A C 0.40222(3) 0.0739(3) -0.27171(7)
H22A H 0.4208 0.1022 -0.2577
C31A C 0.38550(3) 0.2239(3) -0.32216(7)
H23A H 0.3927 0.3531 -0.3425
C32A C 0.35855(3) 0.1858(3) -0.34277(7)
C33A C 0.34812(3) -0.0081(3) -0.31274(7)
C34A C 0.36484(3) -0.1570(3) -0.26300(7)
H24A H 0.3577 -0.2887 -0.2431
O7A O 0.34016(2) 0.3217(2) -0.39188(5)
C35A C 0.34997(4) 0.5014(4) -0.42702(8)
H25A H 0.3608 0.3959 -0.4448
H26A H 0.3607 0.6465 -0.3999
H27A H 0.3351 0.5855 -0.4606
O8A O 0.32111(2) -0.0315(2) -0.33662(5)
C36A C 0.30991(3) -0.2534(4) -0.31402(9)
H28A H 0.3132 -0.2234 -0.2700
H29A H 0.3181 -0.4278 -0.3189
H30A H 0.2908 -0.2613 -0.3376
loop_
_geom_bond_atom_site_label_1
_geom_bond_atom_site_label_2
_geom_bond_site_symmetry_1
_geom_bond_site_symmetry_2
C1 H1 1_555 1_555
C2 C1 1_555 1_555
C3 C2 1_555 1_555
C4 C3 1_555 1_555
H2 C4 1_555 1_555
C5 C2 1_555 1_555
H3 C5 1_555 1_555
C6 C5 1_555 1_555
C7 C6 1_555 1_555
C8 C3 1_555 1_555
H4 C8 1_555 1_555
C9 C6 1_555 1_555
H5 C9 1_555 1_555
C10 C9 1_555 1_555
C11 C10 1_555 1_555
C12 C7 1_555 1_555
H6 C12 1_555 1_555
C13 C10 1_555 1_555
H7 C13 1_555 1_555
C14 C13 1_555 1_555
C15 C14 1_555 1_555
C16 C11 1_555 1_555
H8 C16 1_555 1_555
C17 C14 1_555 1_555
O1 C17 1_555 1_555
O2 C17 1_555 1_555
C18 O2 1_555 1_555
H9 C18 1_555 1_555
H10 C18 1_555 1_555
C19 C18 1_555 1_555
C20 C19 1_555 1_555
H11 C20 1_555 1_555
C21 C20 1_555 1_555
H12 C21 1_555 1_555
C22 C21 1_555 1_555
C23 C22 1_555 1_555
C24 C19 1_555 1_555
H13 C24 1_555 1_555
O3 C22 1_555 1_555
C25 O3 1_555 1_555
H14 C25 1_555 1_555
H15 C25 1_555 1_555
H16 C25 1_555 1_555
O4 C23 1_555 1_555
C26 O4 1_555 1_555
H17 C26 1_555 1_555
H18 C26 1_555 1_555
H19 C26 1_555 1_555
C27 C15 1_555 1_555
O5 C27 1_555 1_555
O6 C27 1_555 1_555
C28 O6 1_555 1_555
H20 C28 1_555 1_555
H21 C28 1_555 1_555
C29 C28 1_555 1_555
C30 C29 1_555 1_555
H22 C30 1_555 1_555
C31 C30 1_555 1_555
H23 C31 1_555 1_555
C32 C31 1_555 1_555
C33 C32 1_555 1_555
C34 C29 1_555 1_555
H24 C34 1_555 1_555
O7 C32 1_555 1_555
C35 O7 1_555 1_555
H25 C35 1_555 1_555
H26 C35 1_555 1_555
H27 C35 1_555 1_555
O8 C33 1_555 1_555
C36 O8 1_555 1_555
H28 C36 1_555 1_555
H29 C36 1_555 1_555
H30 C36 1_555 1_555
C1A C4 1_555 1_555
H1A C1A 1_555 1_555
C2A C1A 1_555 1_555
C3A C2A 1_555 1_555
C4A C1 1_555 1_555
H2A C4A 1_555 1_555
C5A C2A 1_555 1_555
H3A C5A 1_555 1_555
C6A C5A 1_555 1_555
C7A C6A 1_555 1_555
C8A C3A 1_555 1_555
H4A C8A 1_555 1_555
C9A C6A 1_555 1_555
H5A C9A 1_555 1_555
C10A C9A 1_555 1_555
C11A C10A 1_555 1_555
C12A C7A 1_555 1_555
H6A C12A 1_555 1_555
C13A C10A 1_555 1_555
H7A C13A 1_555 1_555
C14A C13A 1_555 1_555
C15A C14A 1_555 1_555
C16A C11A 1_555 1_555
H8A C16A 1_555 1_555
C17A C14A 1_555 1_555
O1A C17A 1_555 1_555
O2A C17A 1_555 1_555
C18A O2A 1_555 1_555
H9A C18A 1_555 1_555
H10A C18A 1_555 1_555
C19A C18A 1_555 1_555
C20A C19A 1_555 1_555
H11A C20A 1_555 1_555
C21A C20A 1_555 1_555
H12A C21A 1_555 1_555
C22A C21A 1_555 1_555
C23A C22A 1_555 1_555
C24A C19A 1_555 1_555
H13A C24A 1_555 1_555
O3A C22A 1_555 1_555
C25A O3A 1_555 1_555
H14A C25A 1_555 1_555
H15A C25A 1_555 1_555
H16A C25A 1_555 1_555
O4A C23A 1_555 1_555
C26A O4A 1_555 1_555
H17A C26A 1_555 1_555
H18A C26A 1_555 1_555
H19A C26A 1_555 1_555
C27A C15A 1_555 1_555
O5A C27A 1_555 1_555
O6A C27A 1_555 1_555
C28A O6A 1_555 1_555
H20A C28A 1_555 1_555
H21A C28A 1_555 1_555
C29A C28A 1_555 1_555
C30A C29A 1_555 1_555
H22A C30A 1_555 1_555
C31A C30A 1_555 1_555
H23A C31A 1_555 1_555
C32A C31A 1_555 1_555
C33A C32A 1_555 1_555
C34A C29A 1_555 1_555
H24A C34A 1_555 1_555
O7A C32A 1_555 1_555
C35A O7A 1_555 1_555
H25A C35A 1_555 1_555
H26A C35A 1_555 1_555
H27A C35A 1_555 1_555
O8A C33A 1_555 1_555
C36A O8A 1_555 1_555
H28A C36A 1_555 1_555
H29A C36A 1_555 1_555
H30A C36A 1_555 1_555
C7 C8 1_555 1_555
C11 C12 1_555 1_555
C15 C16 1_555 1_555
C23 C24 1_555 1_555
C33 C34 1_555 1_555
C3A C4A 1_555 1_555
C7A C8A 1_555 1_555
C11A C12A 1_555 1_555
C15A C16A 1_555 1_555
C23A C24A 1_555 1_555
C33A C34A 1_555 1_555

#END
