
#######################################################################
#
#                 Cambridge Crystallographic Data Centre
#                                CCDC 
#
#######################################################################
#
# If this CIF has been generated from an entry in the Cambridge 
# Structural Database, then it will include bibliographic, chemical, 
# crystal, experimental, refinement or atomic coordinate data resulting 
# from the CCDC's data processing and validation procedures.
#
#######################################################################

data_ORULOD
_chemical_formula_moiety         'C70 H108 Na4 O10,1.5(C4 H8 O1)'
_chemical_name_systematic        
"bis(\m~4~-2,2'-Methylenebis(6-t-butyl-4-methylphenolato))-hexakis(tetrahydrofuran)-tetra-sodium tetrahydrofuran solvate"
_symmetry_cell_setting           triclinic
_symmetry_space_group_name_H-M   'P -1'
_symmetry_Int_Tables_number      2
_space_group_name_Hall           '-P 1'
loop_
_symmetry_equiv_pos_site_id
_symmetry_equiv_pos_as_xyz
1 x,y,z
2 -x,-y,-z
_cell_length_a                   12.9072(10)
_cell_length_b                   13.8025(8)
_cell_length_c                   25.763(3)
_cell_angle_alpha                82.661(12)
_cell_angle_beta                 87.109(13)
_cell_angle_gamma                62.534(6)
_cell_volume                     4038.84
_exptl_crystal_colour            colorless
_exptl_crystal_description       block
_cell_formula_units_Z            2
loop_
_atom_site_label
_atom_site_type_symbol
_atom_site_fract_x
_atom_site_fract_y
_atom_site_fract_z
Na1 Na 0.45412(19) 0.37292(17) 0.17513(8)
Na2 Na 0.1862(2) 0.53806(19) 0.16029(9)
Na3 Na 0.4286(2) 0.45254(18) 0.28793(9)
Na4 Na 0.3438(2) 0.27898(19) 0.32912(9)
O1 O 0.3117(3) 0.3799(3) 0.12918(15)
O2 O 0.4765(3) 0.2875(3) 0.26418(15)
O3 O 0.3390(3) 0.5376(3) 0.20367(15)
O4 O 0.3156(4) 0.4399(3) 0.35271(16)
O5 O 0.6117(5) 0.3037(4) 0.1193(2)
O6 O 0.0627(5) 0.7239(4) 0.1233(2)
O7 O 0.0238(5) 0.5111(6) 0.1840(3)
O8 O 0.5400(5) 0.5218(4) 0.3212(2)
O9 O 0.4339(6) 0.0968(4) 0.3710(2)
O10 O 0.1573(5) 0.2843(5) 0.3447(2)
C1 C 0.2792(5) 0.3068(5) 0.1201(2)
C2 C 0.2386(5) 0.3048(5) 0.0700(2)
C3 C 0.1924(7) 0.2327(6) 0.0661(3)
H1 H 0.1654 0.2321 0.0334
C4 C 0.1836(7) 0.1628(7) 0.1066(3)
C5 C 0.2326(7) 0.1579(6) 0.1543(3)
H2 H 0.2340 0.1069 0.1819
C6 C 0.2802(5) 0.2286(5) 0.1614(2)
C7 C 0.5271(5) 0.1875(4) 0.2482(2)
C8 C 0.6486(5) 0.1152(5) 0.2567(3)
C9 C 0.6938(6) 0.0130(6) 0.2393(3)
H3 H 0.7726 -0.0345 0.2456
C10 C 0.6306(7) -0.0230(5) 0.2136(3)
C11 C 0.5122(7) 0.0483(6) 0.2045(3)
H4 H 0.4676 0.0255 0.1869
C12 C 0.4586(5) 0.1534(5) 0.2211(2)
C13 C 0.3291(5) 0.2232(5) 0.2140(2)
H5 H 0.2903 0.1953 0.2405
H6 H 0.3098 0.2974 0.2203
C14 C 0.2480(6) 0.3794(6) 0.0218(2)
C15 C 0.2136(9) 0.3537(8) -0.0291(3)
H7 H 0.2668 0.2797 -0.0351
H8 H 0.2166 0.4038 -0.0579
H9 H 0.1357 0.3614 -0.0260
C16 C 0.3723(7) 0.3609(7) 0.0155(3)
H10 H 0.3961 0.3794 0.0459
H11 H 0.3776 0.4064 -0.0149
H12 H 0.4223 0.2850 0.0114
C17 C 0.1680(8) 0.4991(6) 0.0291(3)
H13 H 0.0917 0.5077 0.0388
H14 H 0.1626 0.5448 -0.0031
H15 H 0.1992 0.5203 0.0561
C18 C 0.1298(11) 0.0864(9) 0.0998(5)
H16 H 0.0504 0.1296 0.0879
H17 H 0.1317 0.0442 0.1327
H18 H 0.1738 0.0376 0.0745
C19 C 0.7282(6) 0.1491(6) 0.2842(3)
C20 C 0.8544(8) 0.0550(9) 0.2904(6)
H19 H 0.9033 0.0808 0.3046
H20 H 0.8833 0.0311 0.2569
H21 H 0.8550 -0.0054 0.3137
C21 C 0.6812(8) 0.1793(7) 0.3386(3)
H22 H 0.6014 0.2352 0.3356
H23 H 0.7271 0.2064 0.3542
H24 H 0.6856 0.1153 0.3600
C22 C 0.7322(7) 0.2472(7) 0.2521(4)
H25 H 0.6551 0.3080 0.2491
H26 H 0.7611 0.2286 0.2178
H27 H 0.7830 0.2673 0.2689
C23 C 0.6814(9) -0.1374(7) 0.1959(5)
H28 H 0.6310 -0.1700 0.2067
H29 H 0.7573 -0.1825 0.2114
H30 H 0.6878 -0.1317 0.1585
C24 C 0.3022(5) 0.6361(4) 0.2186(2)
C25 C 0.3453(5) 0.7109(5) 0.1968(2)
C26 C 0.3055(6) 0.8105(5) 0.2165(3)
H31 H 0.3344 0.8583 0.2021
C27 C 0.2250(6) 0.8432(5) 0.2562(3)
C28 C 0.1806(6) 0.7736(5) 0.2756(2)
H32 H 0.1243 0.7949 0.3015
C29 C 0.2166(5) 0.6718(4) 0.2580(2)
C30 C 0.2211(6) 0.5159(5) 0.3713(2)
C31 C 0.1979(8) 0.5212(6) 0.4263(3)
C32 C 0.0917(9) 0.6007(7) 0.4423(3)
H33 H 0.0784 0.6037 0.4780
C33 C 0.0053(8) 0.6750(8) 0.4082(4)
C34 C 0.0290(6) 0.6725(6) 0.3556(3)
H34 H -0.0277 0.7234 0.3319
C35 C 0.1320(6) 0.5986(5) 0.3368(2)
C36 C 0.1559(5) 0.6013(5) 0.2792(2)
H35 H 0.0824 0.6291 0.2606
H36 H 0.2044 0.5265 0.2714
C37 C 0.4355(6) 0.6793(6) 0.1517(3)
C38 C 0.4649(10) 0.7729(8) 0.1328(4)
H37 H 0.5104 0.7567 0.1015
H38 H 0.5089 0.7809 0.1594
H39 H 0.3941 0.8400 0.1256
C39 C 0.3878(7) 0.6520(7) 0.1065(3)
H40 H 0.3160 0.7141 0.0943
H41 H 0.3738 0.5900 0.1178
H42 H 0.4434 0.6343 0.0786
C40 C 0.5490(6) 0.5798(7) 0.1719(3)
H43 H 0.5333 0.5194 0.1845
H44 H 0.5807 0.5982 0.1998
H45 H 0.6042 0.5593 0.1439
C41 C 0.1875(8) 0.9531(6) 0.2766(4)
H46 H 0.1528 1.0114 0.2485
H47 H 0.2544 0.9551 0.2901
H48 H 0.1315 0.9623 0.3039
C42 C 0.2923(12) 0.4405(8) 0.4663(3)
C43 C 0.2469(14) 0.4659(10) 0.5228(3)
H49 H 0.2524 0.5297 0.5305
H50 H 0.2936 0.4042 0.5476
H51 H 0.1670 0.4795 0.5252
C44 C 0.4020(13) 0.4536(11) 0.4584(5)
H52 H 0.4193 0.4579 0.4218
H53 H 0.4658 0.3916 0.4768
H54 H 0.3907 0.5198 0.4716
C45 C 0.3133(14) 0.3229(8) 0.4622(4)
H55 H 0.3391 0.3045 0.4276
H56 H 0.2419 0.3180 0.4692
H57 H 0.3720 0.2725 0.4872
C46 C -0.1126(10) 0.7608(10) 0.4276(5)
H58 H -0.1754 0.7593 0.4098
H59 H -0.1172 0.8327 0.4205
H60 H -0.1186 0.7438 0.4646
C47 C 0.6986(16) 0.3350(14) 0.0950(7)
C48 C 0.7626(17) 0.2470(16) 0.0591(8)
C49 C 0.7290(18) 0.1778(16) 0.0627(7)
C50 C 0.6571(15) 0.1901(11) 0.1117(6)
C51 C 0.0120(16) 0.8092(15) 0.1591(7)
C52 C -0.058(2) 0.9123(18) 0.1234(8)
C53 C 0.0061(19) 0.8857(15) 0.0697(7)
C54 C 0.042(2) 0.7675(15) 0.0660(6)
C55 C 0.003(2) 0.4636(19) 0.2352(9)
C56 C -0.062(3) 0.409(2) 0.2156(10)
C57 C -0.094(3) 0.446(2) 0.1580(10)
C58 C -0.063(2) 0.543(2) 0.1445(9)
C59 C 0.6578(19) 0.4874(16) 0.3405(8)
C60 C 0.6735(19) 0.5909(17) 0.3342(11)
C61 C 0.5532(18) 0.6863(17) 0.3237(9)
C62 C 0.4712(16) 0.6370(15) 0.3306(7)
C63 C 0.4665(19) -0.004(2) 0.3496(10)
C64 C 0.5933(18) -0.0720(19) 0.3690(8)
C65 C 0.5921(19) -0.0470(16) 0.4243(8)
C66 C 0.4992(19) 0.0687(16) 0.4249(8)
C67 C 0.1226(16) 0.2033(16) 0.3307(7)
C68 C 0.0106(18) 0.2309(18) 0.3589(8)
C69 C -0.0279(19) 0.3304(16) 0.3811(9)
C70 C 0.0489(15) 0.3776(15) 0.3614(8)
O12 O 0.203(3) 0.927(3) 0.5047(15)
C75 C 0.183(4) 0.833(3) 0.5105(19)
C76 C 0.086(4) 0.852(4) 0.475(2)
C77 C 0.158(5) 0.875(4) 0.4332(18)
C78 C 0.182(4) 0.963(4) 0.4497(17)
O11? O 0.510(3) 0.008(3) -0.0356(13)
C71? C 0.609(3) 0.019(3) -0.0153(10)
C72? C 0.616(2) -0.010(2) 0.0414(11)
C73? C 0.497(3) 0.009(3) 0.0557(13)
C74? C 0.446(3) -0.016(3) 0.0100(13)
C79? C 0.6460(16) 0.3658(14) 0.0763(6)
C80? C 0.7153(19) 0.2882(15) 0.0379(8)
C81? C 0.6864(17) 0.1907(17) 0.0490(7)
C82? C 0.6191(15) 0.2019(12) 0.1004(6)
C83? C 0.0554(16) 0.8227(15) 0.1448(7)
C84? C -0.027(2) 0.9193(19) 0.1103(9)
C85? C -0.0682(19) 0.8762(15) 0.0674(8)
C86? C -0.015(2) 0.7556(16) 0.0795(8)
C87? C -0.0843(16) 0.5938(16) 0.1995(9)
C88? C -0.157(2) 0.535(2) 0.2021(11)
C89? C -0.097(2) 0.423(2) 0.1833(12)
C90? C -0.006(2) 0.4439(19) 0.1512(8)
C91? C 0.6590(19) 0.5075(16) 0.3172(8)
C92? C 0.636(2) 0.6255(18) 0.3222(11)
C93? C 0.5255(18) 0.6749(18) 0.3548(9)
C94? C 0.4639(15) 0.6073(13) 0.3555(7)
C95? C 0.491(2) 0.000(2) 0.3422(10)
C96? C 0.5653(19) -0.0924(18) 0.3817(8)
C97? C 0.5327(19) -0.0565(16) 0.4322(8)
C98? C 0.4409(18) 0.0599(16) 0.4267(9)
C99? C 0.1551(16) 0.1769(16) 0.3579(8)
C100? C 0.0396(17) 0.2048(16) 0.3808(9)
C101? C 0.012(2) 0.2919(18) 0.4048(8)
C102? C 0.0738(16) 0.3564(16) 0.3825(7)
C103? C 0.304(5) 0.875(4) 0.4814(19)
C104? C 0.259(4) 0.807(4) 0.5183(12)
C105? C 0.234(4) 0.748(3) 0.478(2)
C106? C 0.183(4) 0.829(5) 0.4316(16)
O13? O 0.280(3) 0.852(3) 0.4305(13)
loop_
_geom_bond_atom_site_label_1
_geom_bond_atom_site_label_2
_geom_bond_site_symmetry_1
_geom_bond_site_symmetry_2
Na1 O1 1_555 1_555
Na2 O1 1_555 1_555
Na3 O2 1_555 1_555
Na4 O2 1_555 1_555
O1 C1 1_555 1_555
O2 Na1 1_555 1_555
O3 Na1 1_555 1_555
O4 Na3 1_555 1_555
O5 Na1 1_555 1_555
O6 Na2 1_555 1_555
O7 Na2 1_555 1_555
O8 Na3 1_555 1_555
O9 Na4 1_555 1_555
O10 Na4 1_555 1_555
O12 C75 1_555 1_555
C1 C2 1_555 1_555
C2 C3 1_555 1_555
C3 H1 1_555 1_555
C4 C3 1_555 1_555
C5 C4 1_555 1_555
H2 C5 1_555 1_555
C6 C1 1_555 1_555
C7 O2 1_555 1_555
C8 C7 1_555 1_555
C9 C8 1_555 1_555
H3 C9 1_555 1_555
C10 C9 1_555 1_555
C11 C10 1_555 1_555
H4 C11 1_555 1_555
C12 C7 1_555 1_555
C13 C6 1_555 1_555
H5 C13 1_555 1_555
H6 C13 1_555 1_555
C14 C2 1_555 1_555
C15 C14 1_555 1_555
H7 C15 1_555 1_555
H8 C15 1_555 1_555
H9 C15 1_555 1_555
C16 C14 1_555 1_555
H10 C16 1_555 1_555
H11 C16 1_555 1_555
H12 C16 1_555 1_555
C17 C14 1_555 1_555
H13 C17 1_555 1_555
H14 C17 1_555 1_555
H15 C17 1_555 1_555
C18 C4 1_555 1_555
H16 C18 1_555 1_555
H17 C18 1_555 1_555
H18 C18 1_555 1_555
C19 C8 1_555 1_555
C20 C19 1_555 1_555
H19 C20 1_555 1_555
H20 C20 1_555 1_555
H21 C20 1_555 1_555
C21 C19 1_555 1_555
H22 C21 1_555 1_555
H23 C21 1_555 1_555
H24 C21 1_555 1_555
C22 C19 1_555 1_555
H25 C22 1_555 1_555
H26 C22 1_555 1_555
H27 C22 1_555 1_555
C23 C10 1_555 1_555
H28 C23 1_555 1_555
H29 C23 1_555 1_555
H30 C23 1_555 1_555
C24 O3 1_555 1_555
C25 C24 1_555 1_555
C26 C25 1_555 1_555
H31 C26 1_555 1_555
C27 C26 1_555 1_555
C28 C27 1_555 1_555
H32 C28 1_555 1_555
C29 C24 1_555 1_555
C30 O4 1_555 1_555
C31 C30 1_555 1_555
C32 C31 1_555 1_555
H33 C32 1_555 1_555
C33 C32 1_555 1_555
C34 C33 1_555 1_555
H34 C34 1_555 1_555
C35 C30 1_555 1_555
C36 C29 1_555 1_555
H35 C36 1_555 1_555
H36 C36 1_555 1_555
C37 C25 1_555 1_555
C38 C37 1_555 1_555
H37 C38 1_555 1_555
H38 C38 1_555 1_555
H39 C38 1_555 1_555
C39 C37 1_555 1_555
H40 C39 1_555 1_555
H41 C39 1_555 1_555
H42 C39 1_555 1_555
C40 C37 1_555 1_555
H43 C40 1_555 1_555
H44 C40 1_555 1_555
H45 C40 1_555 1_555
C41 C27 1_555 1_555
H46 C41 1_555 1_555
H47 C41 1_555 1_555
H48 C41 1_555 1_555
C42 C31 1_555 1_555
C43 C42 1_555 1_555
H49 C43 1_555 1_555
H50 C43 1_555 1_555
H51 C43 1_555 1_555
C44 C42 1_555 1_555
H52 C44 1_555 1_555
H53 C44 1_555 1_555
H54 C44 1_555 1_555
C45 C42 1_555 1_555
H55 C45 1_555 1_555
H56 C45 1_555 1_555
H57 C45 1_555 1_555
C46 C33 1_555 1_555
H58 C46 1_555 1_555
H59 C46 1_555 1_555
H60 C46 1_555 1_555
C47 O5 1_555 1_555
C48 C47 1_555 1_555
C49 C48 1_555 1_555
C50 O5 1_555 1_555
C51 O6 1_555 1_555
C52 C51 1_555 1_555
C53 C52 1_555 1_555
C54 O6 1_555 1_555
C55 O7 1_555 1_555
C56 C55 1_555 1_555
C57 C56 1_555 1_555
C58 O7 1_555 1_555
C59 O8 1_555 1_555
C60 C59 1_555 1_555
C61 C60 1_555 1_555
C62 O8 1_555 1_555
C63 O9 1_555 1_555
C64 C63 1_555 1_555
C65 C64 1_555 1_555
C66 O9 1_555 1_555
C67 O10 1_555 1_555
C68 C67 1_555 1_555
C69 C68 1_555 1_555
C70 O10 1_555 1_555
C75 C76 1_555 1_555
C76 C77 1_555 1_555
C77 C78 1_555 1_555
C78 O12 1_555 1_555
Na2 O3 1_555 1_555
Na3 O3 1_555 1_555
Na4 O4 1_555 1_555
C5 C6 1_555 1_555
C11 C12 1_555 1_555
C12 C13 1_555 1_555
C28 C29 1_555 1_555
C34 C35 1_555 1_555
C35 C36 1_555 1_555
C49 C50 1_555 1_555
C53 C54 1_555 1_555
C57 C58 1_555 1_555
C61 C62 1_555 1_555
C65 C66 1_555 1_555
C69 C70 1_555 1_555

#END
