
#######################################################################
#
#                 Cambridge Crystallographic Data Centre
#                                CCDC 
#
#######################################################################
#
# If this CIF has been generated from an entry in the Cambridge 
# Structural Database, then it will include bibliographic, chemical, 
# crystal, experimental, refinement or atomic coordinate data resulting 
# from the CCDC's data processing and validation procedures.
#
#######################################################################

data_ORURIE
_chemical_formula_moiety         'C12 H16 Cl1 N5 O4 S1'
_chemical_name_systematic        
5-amino-1-(2-(((2-chloro-1,3-thiazol-5-yl)methyl)amino)ethyl)-2-methoxy-2-methyl-4-nitro-1,2-dihydro-3H-pyrrol-3-one
_symmetry_cell_setting           triclinic
_symmetry_space_group_name_H-M   'P -1'
_symmetry_Int_Tables_number      2
_space_group_name_Hall           '-P 1'
loop_
_symmetry_equiv_pos_site_id
_symmetry_equiv_pos_as_xyz
1 x,y,z
2 -x,-y,-z
_cell_length_a                   7.2715(9)
_cell_length_b                   8.3474(10)
_cell_length_c                   13.7372(16)
_cell_angle_alpha                93.540(2)
_cell_angle_beta                 93.906(2)
_cell_angle_gamma                108.672(2)
_cell_volume                     785.015
_exptl_crystal_colour            colorless
_exptl_crystal_description       prismatic
_cell_formula_units_Z            2
loop_
_atom_site_label
_atom_site_type_symbol
_atom_site_fract_x
_atom_site_fract_y
_atom_site_fract_z
S1 S 0.30009(8) 0.23853(7) 0.44218(4)
Cl1 Cl 0.49377(10) 0.32299(8) 0.64552(4)
N1 N 0.3490(2) 0.3826(2) 0.14532(14)
N2 N 0.6666(2) 0.70164(19) 0.10984(12)
N3 N 0.6041(2) 0.2730(2) 0.16233(15)
N4 N 0.1931(2) 0.0551(2) 0.22482(13)
N5 N 0.3068(3) 0.0145(2) 0.56130(13)
O1 O 1.0425(2) 0.61030(18) 0.15320(12)
O2 O 0.4971(2) 0.70549(17) 0.09356(11)
O3 O 0.8112(2) 0.82738(17) 0.10204(12)
C1 C 0.5352(3) 0.4014(2) 0.14646(14)
C2 C 0.6927(3) 0.5519(2) 0.13499(14)
C3 C 0.8723(3) 0.5202(2) 0.15070(17)
O4 O 0.9103(3) 0.2821(3) 0.22950(18)
C4 C 0.8134(6) 0.3223(5) 0.1465(3)
C5 C 0.8653(18) 0.2371(18) 0.0583(7)
H1 H 1.0030 0.2926 0.0490
H2 H 0.7840 0.2457 0.0003
H3 H 0.8430 0.1172 0.0679
C6 C 0.891(2) 0.3686(18) 0.3204(8)
H4 H 0.9522 0.4913 0.3185
H5 H 0.9550 0.3298 0.3748
H6 H 0.7524 0.3436 0.3297
C7 C 0.4880(3) 0.0911(2) 0.13845(17)
H7 H 0.5781 0.0282 0.1222
H8 H 0.3986 0.0813 0.0791
C8 C 0.3699(3) 0.0068(2) 0.21734(16)
H9 H 0.3318 -0.1179 0.2035
H10 H 0.4509 0.0385 0.2809
C9 C 0.0784(3) -0.0272(3) 0.30226(15)
H11 H 0.0444 -0.1518 0.2897
H12 H -0.0446 0.0000 0.3004
C10 C 0.1849(3) 0.0276(2) 0.40170(15)
C11 C 0.2065(3) -0.0679(3) 0.47395(16)
H13 H 0.1544 -0.1883 0.4652
C12 C 0.3621(3) 0.1746(3) 0.55288(16)
H14 H 0.119(3) 0.025(2) 0.1667(15)
H15 H 0.311(4) 0.472(4) 0.135(2)
H16 H 0.271(4) 0.289(4) 0.168(2)
O5? O 0.9132(4) 0.2434(4) 0.1480(2)
C13? C 0.8234(8) 0.3426(7) 0.1960(4)
C14? C 0.894(2) 0.246(2) 0.0434(9)
H17? H 0.7562 0.2236 0.0207
H18? H 0.9397 0.1588 0.0128
H19? H 0.9712 0.3579 0.0255
C15? C 0.880(3) 0.346(2) 0.3054(9)
H20? H 0.8348 0.2301 0.3255
H21? H 0.8190 0.4165 0.3423
H22? H 1.0219 0.3932 0.3186
loop_
_geom_bond_atom_site_label_1
_geom_bond_atom_site_label_2
_geom_bond_site_symmetry_1
_geom_bond_site_symmetry_2
S1 C10 1_555 1_555
Cl1 C12 1_555 1_555
N1 C1 1_555 1_555
N2 O2 1_555 1_555
N3 C1 1_555 1_555
N4 C8 1_555 1_555
N5 C11 1_555 1_555
O1 C3 1_555 1_555
O3 N2 1_555 1_555
C1 C2 1_555 1_555
C2 N2 1_555 1_555
C3 C2 1_555 1_555
O4 C4 1_555 1_555
C4 N3 1_555 1_555
C5 C4 1_555 1_555
H1 C5 1_555 1_555
H2 C5 1_555 1_555
H3 C5 1_555 1_555
C6 O4 1_555 1_555
H4 C6 1_555 1_555
H5 C6 1_555 1_555
H6 C6 1_555 1_555
C7 N3 1_555 1_555
H7 C7 1_555 1_555
H8 C7 1_555 1_555
C8 C7 1_555 1_555
H9 C8 1_555 1_555
H10 C8 1_555 1_555
C9 N4 1_555 1_555
H11 C9 1_555 1_555
H12 C9 1_555 1_555
C10 C9 1_555 1_555
C11 C10 1_555 1_555
H13 C11 1_555 1_555
C12 S1 1_555 1_555
H14 N4 1_555 1_555
H15 N1 1_555 1_555
H16 N1 1_555 1_555
N5 C12 1_555 1_555
C3 C4 1_555 1_555

#END
