
#######################################################################
#
#                 Cambridge Crystallographic Data Centre
#                                CCDC 
#
#######################################################################
#
# If this CIF has been generated from an entry in the Cambridge 
# Structural Database, then it will include bibliographic, chemical, 
# crystal, experimental, refinement or atomic coordinate data resulting 
# from the CCDC's data processing and validation procedures.
#
#######################################################################

data_ORUTAY
_chemical_formula_moiety         'C30 H21 N3'
_chemical_name_systematic        
31,32,33-triazaheptacyclo[26.2.1.1^8,11^.1^18,21^.0^2,7^.0^12,17^.0^22,27^]tritriaconta-1(30),2,4,6,8,10,12,14,16,18,20,22,24,26,28-pentadecaene
_symmetry_cell_setting           monoclinic
_symmetry_space_group_name_H-M   'P 21/c'
_symmetry_Int_Tables_number      14
_space_group_name_Hall           '-P 2ybc'
loop_
_symmetry_equiv_pos_site_id
_symmetry_equiv_pos_as_xyz
1 x,y,z
2 -x,1/2+y,1/2-z
3 -x,-y,-z
4 x,1/2-y,1/2+z
_cell_length_a                   9.848(2)
_cell_length_b                   8.9077(19)
_cell_length_c                   24.249(5)
_cell_angle_alpha                90
_cell_angle_beta                 101.247(4)
_cell_angle_gamma                90
_cell_volume                     2086.34
_exptl_crystal_colour            colorless
_exptl_crystal_description       prism
_cell_formula_units_Z            4
_exptl_crystal_recrystallization_method 'Vapour deposition'
loop_
_atom_site_label
_atom_site_type_symbol
_atom_site_fract_x
_atom_site_fract_y
_atom_site_fract_z
N1 N 0.00398(10) 0.41571(11) 0.40474(4)
H1 H 0.0621 0.4586 0.3863
N2 N 0.05514(10) 0.68765(11) 0.31310(4)
H2 H 0.1123 0.7278 0.3418
N3 N 0.26454(10) 0.41683(11) 0.34345(4)
H3 H 0.1986 0.3892 0.3153
C1 C 0.01260(12) 0.26839(13) 0.42345(5)
C2 C -0.09778(13) 0.24646(14) 0.45002(5)
H4 H -0.1193 0.1557 0.4670
C3 C -0.17238(13) 0.38040(14) 0.44767(5)
H5 H -0.2529 0.3966 0.4630
C4 C -0.10901(12) 0.48516(14) 0.41928(5)
C5 C -0.15606(11) 0.64028(13) 0.40667(5)
C6 C -0.22101(12) 0.71042(14) 0.44659(5)
H6 H -0.2221 0.6606 0.4811
C7 C -0.28317(12) 0.84935(14) 0.43710(5)
H7 H -0.3266 0.8937 0.4648
C8 C -0.28210(12) 0.92404(14) 0.38696(5)
H8 H -0.3266 1.0186 0.3796
C9 C -0.21522(12) 0.85876(14) 0.34775(5)
H9 H -0.2126 0.9111 0.3138
C10 C -0.15154(11) 0.71845(13) 0.35651(5)
C11 C -0.08310(12) 0.66098(13) 0.31139(5)
C12 C -0.13462(12) 0.59421(14) 0.26074(5)
H10 H -0.2272 0.5615 0.2480
C13 C -0.02461(12) 0.58262(14) 0.23068(5)
H11 H -0.0307 0.5407 0.1943
C14 C 0.09165(12) 0.64264(13) 0.26357(5)
C15 C 0.23190(12) 0.67050(13) 0.25331(5)
C16 C 0.24696(13) 0.74455(14) 0.20394(5)
H12 H 0.1668 0.7682 0.1766
C17 C 0.37601(13) 0.78403(14) 0.19413(5)
H13 H 0.3844 0.8335 0.1603
C18 C 0.49294(14) 0.75070(15) 0.23421(6)
H14 H 0.5817 0.7807 0.2285
C19 C 0.48042(13) 0.67370(14) 0.28254(5)
H15 H 0.5614 0.6494 0.3093
C20 C 0.35125(12) 0.63114(13) 0.29265(5)
C21 C 0.34859(12) 0.54079(13) 0.34330(5)
C22 C 0.43405(12) 0.54703(13) 0.39516(5)
H16 H 0.5022 0.6215 0.4075
C23 C 0.40298(12) 0.42303(14) 0.42701(5)
H17 H 0.4464 0.3997 0.4645
C24 C 0.29911(12) 0.34269(13) 0.39407(5)
C25 C 0.24832(12) 0.19100(14) 0.40382(5)
C26 C 0.34278(13) 0.07488(14) 0.40168(5)
H18 H 0.4294 0.0980 0.3920
C27 C 0.31414(14) -0.07222(15) 0.41313(5)
H19 H 0.3800 -0.1492 0.4116
C28 C 0.18740(13) -0.10540(14) 0.42690(5)
H20 H 0.1664 -0.2058 0.4354
C29 C 0.09152(13) 0.00701(14) 0.42824(5)
H21 H 0.0044 -0.0184 0.4369
C30 C 0.11883(12) 0.15798(13) 0.41714(4)
loop_
_geom_bond_atom_site_label_1
_geom_bond_atom_site_label_2
_geom_bond_site_symmetry_1
_geom_bond_site_symmetry_2
N1 H1 1_555 1_555
N2 H2 1_555 1_555
N3 H3 1_555 1_555
C1 N1 1_555 1_555
C2 C1 1_555 1_555
H4 C2 1_555 1_555
C3 C2 1_555 1_555
H5 C3 1_555 1_555
C4 N1 1_555 1_555
C5 C4 1_555 1_555
C6 C5 1_555 1_555
H6 C6 1_555 1_555
C7 C6 1_555 1_555
H7 C7 1_555 1_555
C8 C7 1_555 1_555
H8 C8 1_555 1_555
C9 C8 1_555 1_555
H9 C9 1_555 1_555
C10 C5 1_555 1_555
C11 N2 1_555 1_555
C12 C11 1_555 1_555
H10 C12 1_555 1_555
C13 C12 1_555 1_555
H11 C13 1_555 1_555
C14 N2 1_555 1_555
C15 C14 1_555 1_555
C16 C15 1_555 1_555
H12 C16 1_555 1_555
C17 C16 1_555 1_555
H13 C17 1_555 1_555
C18 C17 1_555 1_555
H14 C18 1_555 1_555
C19 C18 1_555 1_555
H15 C19 1_555 1_555
C20 C15 1_555 1_555
C21 N3 1_555 1_555
C22 C21 1_555 1_555
H16 C22 1_555 1_555
C23 C22 1_555 1_555
H17 C23 1_555 1_555
C24 N3 1_555 1_555
C25 C24 1_555 1_555
C26 C25 1_555 1_555
H18 C26 1_555 1_555
C27 C26 1_555 1_555
H19 C27 1_555 1_555
C28 C27 1_555 1_555
H20 C28 1_555 1_555
C29 C28 1_555 1_555
H21 C29 1_555 1_555
C30 C1 1_555 1_555
C3 C4 1_555 1_555
C9 C10 1_555 1_555
C10 C11 1_555 1_555
C13 C14 1_555 1_555
C19 C20 1_555 1_555
C20 C21 1_555 1_555
C23 C24 1_555 1_555
C25 C30 1_555 1_555
C29 C30 1_555 1_555

#END
