
#######################################################################
#
#                 Cambridge Crystallographic Data Centre
#                                CCDC 
#
#######################################################################
#
# If this CIF has been generated from an entry in the Cambridge 
# Structural Database, then it will include bibliographic, chemical, 
# crystal, experimental, refinement or atomic coordinate data resulting 
# from the CCDC's data processing and validation procedures.
#
#######################################################################

data_ORUTEC
_chemical_formula_moiety         'C31 H23 N3'
_chemical_name_systematic        
31-methyl-31,32,33-triazaheptacyclo[26.2.1.1^8,11^.1^18,21^.0^2,7^.0^12,17^.0^22,27^]tritriaconta-1(30),2,4,6,8,10,12,14,16,18,20,22,24,26,28-pentadecaene
_symmetry_cell_setting           triclinic
_symmetry_space_group_name_H-M   'P -1'
_symmetry_Int_Tables_number      2
_space_group_name_Hall           '-P 1'
loop_
_symmetry_equiv_pos_site_id
_symmetry_equiv_pos_as_xyz
1 x,y,z
2 -x,-y,-z
_cell_length_a                   9.397(2)
_cell_length_b                   11.4551(14)
_cell_length_c                   11.534(3)
_cell_angle_alpha                70.742(15)
_cell_angle_beta                 87.37(3)
_cell_angle_gamma                73.39(3)
_cell_volume                     1121.57
_exptl_crystal_colour            colorless
_exptl_crystal_description       prism
_cell_formula_units_Z            2
_exptl_crystal_recrystallization_method 'Vapour deposition'
loop_
_atom_site_label
_atom_site_type_symbol
_atom_site_fract_x
_atom_site_fract_y
_atom_site_fract_z
C1 C 0.76438(18) 0.72882(15) 0.34121(14)
C2 C 0.7789(2) 0.85084(15) 0.31946(15)
H1 H 0.8252 0.8972 0.2522
C3 C 0.7122(2) 0.89357(15) 0.41594(15)
H2 H 0.7061 0.9742 0.4253
C4 C 0.65748(18) 0.79898(15) 0.49395(14)
C5 C 0.59413(19) 0.79143(14) 0.61520(14)
C6 C 0.6836(2) 0.80215(16) 0.70314(15)
H3 H 0.7778 0.8155 0.6815
C7 C 0.6379(2) 0.79381(17) 0.82059(16)
H4 H 0.6993 0.8028 0.8784
C8 C 0.5014(2) 0.77222(16) 0.85305(15)
H5 H 0.4709 0.7624 0.9346
C9 C 0.4094(2) 0.76501(16) 0.76673(15)
H6 H 0.3152 0.7522 0.7896
C10 C 0.4525(2) 0.77622(14) 0.64595(14)
C11 C 0.3403(2) 0.78355(15) 0.55691(14)
C12 C 0.2144(2) 0.74282(16) 0.57587(15)
H7 H 0.1894 0.6893 0.6515
C13 C 0.1287(2) 0.79410(16) 0.46374(16)
H8 H 0.0358 0.7817 0.4507
C14 C 0.20340(19) 0.86485(15) 0.37721(14)
C15 C 0.16082(19) 0.94948(15) 0.24814(15)
C16 C 0.0398(2) 1.06079(16) 0.22449(16)
H9 H -0.0160 1.0783 0.2907
C17 C 0.0005(2) 1.14541(16) 0.10592(16)
H10 H -0.0825 1.2200 0.0912
C18 C 0.0820(2) 1.12191(16) 0.00824(15)
H11 H 0.0572 1.1816 -0.0728
C19 C 0.1994(2) 1.01099(16) 0.02989(15)
H12 H 0.2542 0.9944 -0.0371
C20 C 0.23900(19) 0.92272(15) 0.14873(15)
C21 C 0.35274(19) 0.79746(15) 0.16555(13)
C22 C 0.3336(2) 0.68393(16) 0.16301(16)
H13 H 0.2413 0.6685 0.1541
C23 C 0.4758(2) 0.59411(16) 0.17598(15)
H14 H 0.4959 0.5076 0.1771
C24 C 0.57971(19) 0.65386(15) 0.18669(13)
C25 C 0.74202(19) 0.60341(15) 0.20103(14)
C26 C 0.8153(2) 0.51699(15) 0.14017(14)
H15 H 0.7589 0.4952 0.0884
C27 C 0.9680(2) 0.46293(16) 0.15403(15)
H16 H 1.0148 0.4029 0.1137
C28 C 1.0525(2) 0.49589(16) 0.22614(16)
H17 H 1.1574 0.4596 0.2348
C29 C 0.9827(2) 0.58262(16) 0.28594(16)
H18 H 1.0410 0.6055 0.3353
C30 C 0.82897(19) 0.63672(15) 0.27492(14)
C31 C 0.6452(2) 0.57952(16) 0.49842(16)
H19 H 0.5473 0.5919 0.4625
H20 H 0.6406 0.5583 0.5878
H21 H 0.7184 0.5088 0.4795
N1 N 0.68892(15) 0.69777(12) 0.44702(12)
N2 N 0.33348(16) 0.85604(12) 0.43389(12)
H22 H 0.4023 0.8914 0.3971
N3 N 0.50259(16) 0.77809(13) 0.18003(12)
H23 H 0.5437 0.8366 0.1845
loop_
_geom_bond_atom_site_label_1
_geom_bond_atom_site_label_2
_geom_bond_site_symmetry_1
_geom_bond_site_symmetry_2
C1 C2 1_555 1_555
C2 H1 1_555 1_555
C3 C2 1_555 1_555
H2 C3 1_555 1_555
C4 C3 1_555 1_555
C5 C4 1_555 1_555
C6 C5 1_555 1_555
H3 C6 1_555 1_555
C7 C6 1_555 1_555
H4 C7 1_555 1_555
C8 C7 1_555 1_555
H5 C8 1_555 1_555
C9 C8 1_555 1_555
H6 C9 1_555 1_555
C10 C5 1_555 1_555
C11 C10 1_555 1_555
C12 C11 1_555 1_555
H7 C12 1_555 1_555
C13 C12 1_555 1_555
H8 C13 1_555 1_555
C14 C13 1_555 1_555
C15 C14 1_555 1_555
C16 C15 1_555 1_555
H9 C16 1_555 1_555
C17 C16 1_555 1_555
H10 C17 1_555 1_555
C18 C17 1_555 1_555
H11 C18 1_555 1_555
C19 C18 1_555 1_555
H12 C19 1_555 1_555
C20 C15 1_555 1_555
C21 C20 1_555 1_555
C22 C21 1_555 1_555
H13 C22 1_555 1_555
C23 C22 1_555 1_555
H14 C23 1_555 1_555
C24 C23 1_555 1_555
C25 C24 1_555 1_555
C26 C25 1_555 1_555
H15 C26 1_555 1_555
C27 C26 1_555 1_555
H16 C27 1_555 1_555
C28 C27 1_555 1_555
H17 C28 1_555 1_555
C29 C28 1_555 1_555
H18 C29 1_555 1_555
C30 C1 1_555 1_555
C31 H19 1_555 1_555
H20 C31 1_555 1_555
H21 C31 1_555 1_555
N1 C1 1_555 1_555
N2 C11 1_555 1_555
H22 N2 1_555 1_555
N3 C21 1_555 1_555
H23 N3 1_555 1_555
C4 N1 1_555 1_555
C9 C10 1_555 1_555
C14 N2 1_555 1_555
C19 C20 1_555 1_555
C24 N3 1_555 1_555
C25 C30 1_555 1_555
C29 C30 1_555 1_555
C31 N1 1_555 1_555

#END
