
#######################################################################
#
#                 Cambridge Crystallographic Data Centre
#                                CCDC 
#
#######################################################################
#
# If this CIF has been generated from an entry in the Cambridge 
# Structural Database, then it will include bibliographic, chemical, 
# crystal, experimental, refinement or atomic coordinate data resulting 
# from the CCDC's data processing and validation procedures.
#
#######################################################################

data_OSAHOH
_chemical_formula_moiety         'C12 H24 O6,C5 H12 N1 1+,Cl1 O4 1-'
_chemical_name_systematic        'cyclopentanaminium 18-crown-6 perchlorate'
_symmetry_cell_setting           monoclinic
_symmetry_space_group_name_H-M   'C 2/c'
_symmetry_Int_Tables_number      15
_space_group_name_Hall           '-C 2yn'
loop_
_symmetry_equiv_pos_site_id
_symmetry_equiv_pos_as_xyz
1 x,y,z
2 -x,y,1/2-z
3 1/2+x,1/2+y,z
4 1/2-x,1/2+y,1/2-z
5 -x,-y,-z
6 x,-y,1/2+z
7 1/2-x,1/2-y,-z
8 1/2+x,1/2-y,1/2+z
_cell_length_a                   12.661(2)
_cell_length_b                   12.485(2)
_cell_length_c                   13.677(2)
_cell_angle_alpha                90
_cell_angle_beta                 92.124(4)
_cell_angle_gamma                90
_cell_volume                     2160.47
_exptl_crystal_colour            colorless
_exptl_crystal_description       block
_chemical_melting_point          '456 K'
_cell_formula_units_Z            4
loop_
_atom_site_label
_atom_site_type_symbol
_atom_site_fract_x
_atom_site_fract_y
_atom_site_fract_z
C7 C 0.5781(7) 0.1285(5) 0.2010(5)
H13 H 0.5961 0.2056 0.2017
H14 H 0.6335 0.0913 0.1646
C8 C 0.4154(7) 0.0930(7) 0.2054(6)
H15 H 0.4101 0.0139 0.2069
H16 H 0.3488 0.1204 0.1747
C9 C 0.4895(8) 0.1175(7) 0.1513(6)
H17 H 0.4717 0.1893 0.1229
N1 N 0.5022(5) 0.0408(5) 0.0645(4)
H18 H 0.5274 -0.0232 0.0869
H19 H 0.5483 0.0695 0.0223
H20 H 0.4383 0.0309 0.0331
C7A C 0.4219(7) 0.1285(5) 0.2990(5)
H13A H 0.4039 0.2056 0.2983
H14A H 0.3665 0.0913 0.3354
C8A C 0.5846(7) 0.0930(7) 0.2946(6)
H15A H 0.5899 0.0139 0.2931
H16A H 0.6512 0.1204 0.3253
C9A C 0.5105(8) 0.1175(7) 0.3487(6)
H17A H 0.5283 0.1893 0.3771
N1A N 0.4978(5) 0.0408(5) 0.4355(4)
H18A H 0.4726 -0.0232 0.4131
H19A H 0.4517 0.0695 0.4777
H20A H 0.5617 0.0309 0.4669
Cl1 Cl 0.5000 0.46112(10) 0.2500
O4 O 0.4072(2) 0.5274(2) 0.2527(2)
O5 O 0.5064(3) 0.3954(3) 0.3354(3)
O4A O 0.5928(2) 0.5274(2) 0.2473(2)
O5A O 0.4936(3) 0.3954(3) 0.1646(3)
C1 C 0.1386(3) 0.7081(3) 0.8774(3)
H1 H 0.1343 0.6709 0.8135
H2 H 0.1935 0.7644 0.8745
C2 C 0.2645(3) 0.5826(3) 0.9350(3)
H3 H 0.3205 0.6371 0.9280
H4 H 0.2585 0.5407 0.8736
C3 C 0.2927(3) 0.5098(3) 1.0191(3)
H5 H 0.3629 0.4772 1.0099
H6 H 0.2960 0.5511 1.0810
C4 C 0.2294(3) 0.3625(3) 1.1083(3)
H7 H 0.2216 0.4059 1.1681
H8 H 0.3013 0.3314 1.1100
C5 C 0.1487(3) 0.2752(3) 1.1041(3)
H9 H 0.1514 0.2370 1.0408
H10 H 0.1637 0.2230 1.1573
C6 C 0.0342(3) 0.7582(3) 0.8974(3)
H11 H 0.0352 0.7869 0.9649
H12 H 0.0201 0.8182 0.8514
O1 O 0.1667(2) 0.6336(2) 0.95264(19)
O2 O 0.2141(2) 0.4278(2) 1.02395(19)
O3 O 0.0465(2) 0.3207(2) 1.1144(2)
C1D C -0.1386(3) 0.2919(3) 1.1226(3)
H1D H -0.1343 0.3291 1.1865
H2D H -0.1935 0.2356 1.1255
C2D C -0.2645(3) 0.4174(3) 1.0650(3)
H3D H -0.3205 0.3629 1.0720
H4D H -0.2585 0.4593 1.1264
C3D C -0.2927(3) 0.4902(3) 0.9809(3)
H5D H -0.3629 0.5228 0.9901
H6D H -0.2960 0.4489 0.9190
C4D C -0.2294(3) 0.6375(3) 0.8917(3)
H7D H -0.2216 0.5941 0.8319
H8D H -0.3013 0.6686 0.8900
C5D C -0.1487(3) 0.7248(3) 0.8959(3)
H9D H -0.1514 0.7630 0.9592
H10D H -0.1637 0.7770 0.8427
C6D C -0.0342(3) 0.2418(3) 1.1026(3)
H11D H -0.0352 0.2131 1.0351
H12D H -0.0201 0.1818 1.1486
O1D O -0.1667(2) 0.3664(2) 1.04736(19)
O2D O -0.2141(2) 0.5722(2) 0.97605(19)
O3D O -0.0465(2) 0.6793(2) 0.8856(2)
loop_
_geom_bond_atom_site_label_1
_geom_bond_atom_site_label_2
_geom_bond_site_symmetry_1
_geom_bond_site_symmetry_2
C1 H1 1_555 1_555
H2 C1 1_555 1_555
C2 H3 1_555 1_555
H4 C2 1_555 1_555
C3 C2 1_555 1_555
H5 C3 1_555 1_555
H6 C3 1_555 1_555
C4 H7 1_555 1_555
H8 C4 1_555 1_555
C5 C4 1_555 1_555
H9 C5 1_555 1_555
H10 C5 1_555 1_555
C6 C1 1_555 1_555
H11 C6 1_555 1_555
H12 C6 1_555 1_555
O1 C1 1_555 1_555
O2 C3 1_555 1_555
O3 C5 1_555 1_555
C7 H13 1_555 1_555
H14 C7 1_555 1_555
C8 H15 1_555 1_555
H16 C8 1_555 1_555
C9 C7 1_555 1_555
H17 C9 1_555 1_555
N1 C9 1_555 1_555
H18 N1 1_555 1_555
H19 N1 1_555 1_555
H20 N1 1_555 1_555
Cl1 O4 1_555 1_555
O5 Cl1 1_555 1_555
C1D H1D 1_555 1_555
H2D C1D 1_555 1_555
C2D H3D 1_555 1_555
H4D C2D 1_555 1_555
C3D C2D 1_555 1_555
H5D C3D 1_555 1_555
H6D C3D 1_555 1_555
C4D H7D 1_555 1_555
H8D C4D 1_555 1_555
C5D C4D 1_555 1_555
H9D C5D 1_555 1_555
H10D C5D 1_555 1_555
C6D O3 1_555 1_555
H11D C6D 1_555 1_555
H12D C6D 1_555 1_555
O1D C1D 1_555 1_555
O2D C3D 1_555 1_555
O3D C6 1_555 1_555
C7A C8 1_555 1_555
H13A C7A 1_555 1_555
H14A C7A 1_555 1_555
C8A C7 1_555 1_555
H15A C8A 1_555 1_555
H16A C8A 1_555 1_555
C9A C7A 1_555 1_555
H17A C9A 1_555 1_555
N1A C9A 1_555 1_555
H18A N1A 1_555 1_555
H19A N1A 1_555 1_555
H20A N1A 1_555 1_555
O4A Cl1 1_555 1_555
O5A Cl1 1_555 1_555
C2 O1 1_555 1_555
C4 O2 1_555 1_555
C8 C9 1_555 1_555
C1D C6D 1_555 1_555
C2D O1D 1_555 1_555
C4D O2D 1_555 1_555
C5D O3D 1_555 1_555
C8A C9A 1_555 1_555

#END
