
#######################################################################
#
#                 Cambridge Crystallographic Data Centre
#                                CCDC 
#
#######################################################################
#
# If this CIF has been generated from an entry in the Cambridge 
# Structural Database, then it will include bibliographic, chemical, 
# crystal, experimental, refinement or atomic coordinate data resulting 
# from the CCDC's data processing and validation procedures.
#
#######################################################################

data_OSARIL
_chemical_formula_moiety         'C26 H24 Br1 N3 O3'
_chemical_name_systematic        
'benzyl (3-benzoyl-8-bromo-1,2,3,5,6,10b-hexahydropyrazolo[5,1-a]isoquinolin-2-yl)carbamate'
_symmetry_cell_setting           orthorhombic
_symmetry_space_group_name_H-M   'P 21 21 21'
_symmetry_Int_Tables_number      19
_space_group_name_Hall           'P 2ac 2ab'
loop_
_symmetry_equiv_pos_site_id
_symmetry_equiv_pos_as_xyz
1 x,y,z
2 1/2-x,-y,1/2+z
3 -x,1/2+y,1/2-z
4 1/2+x,1/2-y,-z
_cell_length_a                   9.4527(9)
_cell_length_b                   10.0678(9)
_cell_length_c                   23.241(2)
_cell_angle_alpha                90
_cell_angle_beta                 90
_cell_angle_gamma                90
_cell_volume                     2211.8
_exptl_crystal_colour            colorless
_exptl_crystal_description       prism
_cell_formula_units_Z            4
loop_
_atom_site_label
_atom_site_type_symbol
_atom_site_fract_x
_atom_site_fract_y
_atom_site_fract_z
Br1 Br 0.536161(19) 0.485507(17) 0.130903(7)
N1 N 0.12552(14) 0.49131(14) 0.44320(6)
N2 N 0.19864(15) 0.44312(14) 0.39342(6)
N3 N 0.20362(16) 0.69120(15) 0.49440(6)
H1 H 0.291(3) 0.689(2) 0.4934(10)
O1 O -0.08337(13) 0.47792(14) 0.49139(6)
O2 O 0.01667(13) 0.79237(12) 0.53939(5)
O3 O 0.23777(13) 0.78854(13) 0.57896(5)
C1 C 0.35178(18) 0.42262(17) 0.40552(8)
H2 H 0.3646 0.3618 0.4386
H3 H 0.3983 0.5083 0.4145
C2 C 0.41406(19) 0.36222(17) 0.35113(7)
H4 H 0.5173 0.3502 0.3562
H5 H 0.3715 0.2737 0.3445
C3 C 0.38711(18) 0.44947(17) 0.29939(8)
C4 C 0.4657(2) 0.43351(16) 0.24861(7)
H6 H 0.5374 0.3676 0.2464
C5 C 0.43829(16) 0.51441(18) 0.20166(7)
C6 C 0.33546(19) 0.61323(17) 0.20390(8)
H7 H 0.3201 0.6702 0.1719
C7 C 0.25593(19) 0.62694(18) 0.25357(7)
H8 H 0.1848 0.6935 0.2555
C8 C 0.27898(18) 0.54394(16) 0.30105(7)
C9 C 0.17824(18) 0.55312(16) 0.35163(7)
H9 H 0.0796 0.5466 0.3363
C10 C 0.18810(19) 0.68125(17) 0.38795(8)
H10 H 0.2876 0.7101 0.3924
H11 H 0.1329 0.7541 0.3702
C11 C 0.12456(18) 0.64019(16) 0.44604(7)
H12 H 0.0246 0.6723 0.4484
C12 C 0.00776(18) 0.42261(17) 0.46231(7)
C13 C -0.00246(18) 0.27611(17) 0.44867(7)
C14 C -0.13644(19) 0.22522(19) 0.43560(8)
H13 H -0.2153 0.2833 0.4325
C15 C -0.1541(2) 0.08839(19) 0.42716(8)
H14 H -0.2450 0.0540 0.4181
C16 C -0.04003(19) 0.00321(17) 0.43196(7)
H15 H -0.0525 -0.0893 0.4258
C17 C 0.0932(2) 0.05306(19) 0.44584(8)
H16 H 0.1712 -0.0057 0.4499
C18 C 0.1119(2) 0.18922(18) 0.45369(8)
H17 H 0.2032 0.2231 0.4625
C19 C 0.14059(19) 0.75994(16) 0.53716(7)
C20 C 0.1905(2) 0.88250(19) 0.62173(8)
H18 H 0.0891 0.8674 0.6301
H19 H 0.2012 0.9739 0.6067
C21 C 0.27537(19) 0.86769(18) 0.67623(8)
C22 C 0.29307(19) 0.9796(2) 0.71128(8)
H20 H 0.2643 1.0646 0.6978
C23 C 0.3530(2) 0.9667(2) 0.76601(9)
H21 H 0.3621 1.0424 0.7901
C24 C 0.3991(2) 0.8440(2) 0.78504(8)
H22 H 0.4387 0.8350 0.8224
C25 C 0.3872(2) 0.7337(2) 0.74932(8)
H23 H 0.4218 0.6500 0.7619
C26 C 0.3248(2) 0.74506(18) 0.69519(8)
H24 H 0.3161 0.6691 0.6712
loop_
_geom_bond_atom_site_label_1
_geom_bond_atom_site_label_2
_geom_bond_site_symmetry_1
_geom_bond_site_symmetry_2
Br1 C5 1_555 1_555
N1 N2 1_555 1_555
N2 C1 1_555 1_555
N3 H1 1_555 1_555
O1 C12 1_555 1_555
O2 C19 1_555 1_555
O3 C19 1_555 1_555
C1 H2 1_555 1_555
H3 C1 1_555 1_555
C2 C1 1_555 1_555
H4 C2 1_555 1_555
H5 C2 1_555 1_555
C3 C2 1_555 1_555
C4 C3 1_555 1_555
H6 C4 1_555 1_555
C5 C4 1_555 1_555
C6 C5 1_555 1_555
H7 C6 1_555 1_555
C7 C6 1_555 1_555
H8 C7 1_555 1_555
C8 C3 1_555 1_555
C9 N2 1_555 1_555
H9 C9 1_555 1_555
C10 C9 1_555 1_555
H10 C10 1_555 1_555
H11 C10 1_555 1_555
C11 N1 1_555 1_555
H12 C11 1_555 1_555
C12 N1 1_555 1_555
C13 C12 1_555 1_555
C14 C13 1_555 1_555
H13 C14 1_555 1_555
C15 C14 1_555 1_555
H14 C15 1_555 1_555
C16 C15 1_555 1_555
H15 C16 1_555 1_555
C17 C16 1_555 1_555
H16 C17 1_555 1_555
C18 C13 1_555 1_555
H17 C18 1_555 1_555
C19 N3 1_555 1_555
C20 O3 1_555 1_555
H18 C20 1_555 1_555
H19 C20 1_555 1_555
C21 C20 1_555 1_555
C22 C21 1_555 1_555
H20 C22 1_555 1_555
C23 C22 1_555 1_555
H21 C23 1_555 1_555
C24 C23 1_555 1_555
H22 C24 1_555 1_555
C25 C24 1_555 1_555
H23 C25 1_555 1_555
C26 C21 1_555 1_555
H24 C26 1_555 1_555
N3 C11 1_555 1_555
C7 C8 1_555 1_555
C8 C9 1_555 1_555
C10 C11 1_555 1_555
C17 C18 1_555 1_555
C25 C26 1_555 1_555

#END
