
#######################################################################
#
#                 Cambridge Crystallographic Data Centre
#                                CCDC 
#
#######################################################################
#
# If this CIF has been generated from an entry in the Cambridge 
# Structural Database, then it will include bibliographic, chemical, 
# crystal, experimental, refinement or atomic coordinate data resulting 
# from the CCDC's data processing and validation procedures.
#
#######################################################################

data_OSASAE
_chemical_formula_moiety         'C9 H15 N3 2+,2(Cl1 1-)'
_chemical_name_systematic        
'4-(pyridin-1-ium-4-yl)piperazin-1-ium dichloride'
_symmetry_cell_setting           monoclinic
_symmetry_space_group_name_H-M   'P 21/c'
_symmetry_Int_Tables_number      14
_space_group_name_Hall           '-P 2ybc'
loop_
_symmetry_equiv_pos_site_id
_symmetry_equiv_pos_as_xyz
1 x,y,z
2 -x,1/2+y,1/2-z
3 -x,-y,-z
4 x,1/2-y,1/2+z
_cell_length_a                   11.963(4)
_cell_length_b                   12.298(5)
_cell_length_c                   7.258(3)
_cell_angle_alpha                90
_cell_angle_beta                 95.824(7)
_cell_angle_gamma                90
_cell_volume                     1062.29
_exptl_crystal_colour            colorless
_exptl_crystal_description       lamellar
_cell_formula_units_Z            4
loop_
_atom_site_label
_atom_site_type_symbol
_atom_site_fract_x
_atom_site_fract_y
_atom_site_fract_z
N1 N 0.7498(2) -0.15425(17) 0.4227(3)
H1 H 0.742(3) -0.229(4) 0.387(5)
H2 H 0.765(4) -0.151(4) 0.533(7)
C1 C 0.8383(3) -0.1021(2) 0.3261(4)
H3 H 0.8190 -0.1071 0.1933
H4 H 0.9090 -0.1398 0.3566
C2 C 0.8516(2) 0.01647(19) 0.3818(4)
H5 H 0.8838 0.0206 0.5098
H6 H 0.9035 0.0511 0.3059
N2 N 0.74479(16) 0.07610(15) 0.3619(3)
C3 C 0.6470(2) 0.01940(19) 0.4220(4)
H7 H 0.5792 0.0554 0.3684
H8 H 0.6491 0.0250 0.5556
C4 C 0.6413(2) -0.0993(2) 0.3681(4)
H9 H 0.5822 -0.1347 0.4282
H10 H 0.6229 -0.1056 0.2353
C5 C 0.74795(18) 0.18672(17) 0.3747(3)
C6 C 0.8487(2) 0.24565(19) 0.3657(3)
H11 H 0.9154 0.2089 0.3528
C7 C 0.8482(2) 0.3568(2) 0.3760(4)
H12 H 0.9150 0.3948 0.3703
N3 N 0.75337(19) 0.41181(16) 0.3941(3)
H13 H 0.7548 0.4817 0.3973
C8 C 0.6562(2) 0.35939(19) 0.4074(4)
H14 H 0.5917 0.3990 0.4237
C9 C 0.6506(2) 0.24847(19) 0.3973(3)
H15 H 0.5824 0.2134 0.4054
Cl1 Cl 0.39829(5) 0.12926(5) 0.14543(9)
Cl2 Cl 0.10019(5) 0.12816(5) 0.18200(9)
loop_
_geom_bond_atom_site_label_1
_geom_bond_atom_site_label_2
_geom_bond_site_symmetry_1
_geom_bond_site_symmetry_2
N1 H1 1_555 1_555
H2 N1 1_555 1_555
C1 N1 1_555 1_555
H3 C1 1_555 1_555
H4 C1 1_555 1_555
C2 C1 1_555 1_555
H5 C2 1_555 1_555
H6 C2 1_555 1_555
N2 C2 1_555 1_555
C3 N2 1_555 1_555
H7 C3 1_555 1_555
H8 C3 1_555 1_555
C4 N1 1_555 1_555
H9 C4 1_555 1_555
H10 C4 1_555 1_555
C5 N2 1_555 1_555
C6 C5 1_555 1_555
H11 C6 1_555 1_555
C7 C6 1_555 1_555
H12 C7 1_555 1_555
N3 C7 1_555 1_555
H13 N3 1_555 1_555
C8 N3 1_555 1_555
H14 C8 1_555 1_555
C9 C5 1_555 1_555
H15 C9 1_555 1_555
C3 C4 1_555 1_555
C8 C9 1_555 1_555

#END
