
#######################################################################
#
#                 Cambridge Crystallographic Data Centre
#                                CCDC 
#
#######################################################################
#
# If this CIF has been generated from an entry in the Cambridge 
# Structural Database, then it will include bibliographic, chemical, 
# crystal, experimental, refinement or atomic coordinate data resulting 
# from the CCDC's data processing and validation procedures.
#
#######################################################################

data_OSEGEA
_chemical_formula_moiety         '0.8(C26 H20 O1 S2),0.2(C26 H20 O1 S2)'
_chemical_name_systematic        
'12-methoxy-9-phenyl-2,3-dihydro-9H-benzo[1,2]fluoreno[3,4-b][1,4]dithiine 11-methoxy-9-phenyl-2,3-dihydro-9H-benzo[1,2]fluoreno[3,4-b][1,4]dithiine'
_symmetry_cell_setting           monoclinic
_symmetry_space_group_name_H-M   'C 2/c'
_symmetry_Int_Tables_number      15
_space_group_name_Hall           '-C 2yn'
loop_
_symmetry_equiv_pos_site_id
_symmetry_equiv_pos_as_xyz
1 x,y,z
2 -x,y,1/2-z
3 1/2+x,1/2+y,z
4 1/2-x,1/2+y,1/2-z
5 -x,-y,-z
6 x,-y,1/2+z
7 1/2-x,1/2-y,-z
8 1/2+x,1/2-y,1/2+z
_cell_length_a                   22.945(10)
_cell_length_b                   11.378(4)
_cell_length_c                   16.575(6)
_cell_angle_alpha                90
_cell_angle_beta                 111.887(12)
_cell_angle_gamma                90
_cell_volume                     4015.3
_exptl_crystal_colour            colorless
_exptl_crystal_description       prismatic
_cell_formula_units_Z            8
loop_
_atom_site_label
_atom_site_type_symbol
_atom_site_fract_x
_atom_site_fract_y
_atom_site_fract_z
S1 S 0.72795(8) 1.09768(14) 1.05913(11)
S2 S 0.64211(8) 1.00290(16) 0.86280(12)
C1 C 0.8369(3) 0.8484(5) 1.0143(3)
C2 C 0.8960(3) 0.7985(6) 1.0615(4)
H1 H 0.9095 0.7335 1.0392
C3 C 0.9341(3) 0.8447(7) 1.1404(4)
H2 H 0.9732 0.8117 1.1709
C4 C 0.9136(3) 0.9409(7) 1.1743(4)
H3 H 0.9391 0.9718 1.2278
C5 C 0.8563(3) 0.9905(6) 1.1295(4)
H4 H 0.8434 1.0552 1.1528
C6 C 0.8166(3) 0.9453(5) 1.0491(3)
C7 C 0.7538(3) 0.9924(5) 1.0016(4)
C8 C 0.7170(2) 0.9459(5) 0.9222(4)
C9 C 0.7401(2) 0.8510(5) 0.8873(3)
C10 C 0.7972(3) 0.8025(5) 0.9321(3)
C11 C 0.8098(3) 0.6962(5) 0.8872(4)
H5 H 0.8089 0.6276 0.9224
C12 C 0.7522(3) 0.6915(5) 0.8065(4)
C13 C 0.7104(3) 0.7809(5) 0.8055(3)
C14 C 0.6528(3) 0.7900(6) 0.7372(4)
H6 H 0.6245 0.8493 0.7355
C15 C 0.6390(4) 0.7047(7) 0.6700(4)
C16 C 0.6800(4) 0.6180(7) 0.6704(4)
C17 C 0.7366(3) 0.6107(6) 0.7387(4)
H7 H 0.7648 0.5514 0.7397
C18 C 0.8711(3) 0.6918(6) 0.8725(4)
C19 C 0.9068(4) 0.5912(7) 0.8902(5)
H8 H 0.8929 0.5258 0.9116
C20 C 0.9627(4) 0.5850(9) 0.8772(5)
H9 H 0.9857 0.5155 0.8893
C21 C 0.9842(4) 0.6784(10) 0.8470(5)
H10 H 1.0224 0.6748 0.8396
C22 C 0.9487(4) 0.7793(8) 0.8273(5)
H11 H 0.9631 0.8440 0.8058
C23 C 0.8912(3) 0.7867(6) 0.8389(4)
H12 H 0.8672 0.8549 0.8241
C24 C 0.6674(3) 1.1844(6) 0.9796(5)
H13 H 0.6279 1.1714 0.9871
H14 H 0.6779 1.2670 0.9903
C25 C 0.6587(3) 1.1563(6) 0.8874(4)
H15 H 0.6965 1.1775 0.8777
H16 H 0.6243 1.2030 0.8484
O1 O 0.5821(3) 0.7171(5) 0.6056(4)
C26 C 0.5584(5) 0.6242(9) 0.5473(7)
H17 H 0.5808 0.6197 0.5087
H18 H 0.5146 0.6372 0.5142
H19 H 0.5635 0.5518 0.5790
O2? O 0.6483(8) 0.5682(14) 0.6012(10)
C27? C 0.5785(12) 0.578(2) 0.5364(17)
H20? H 0.5515 0.5855 0.5686
H21? H 0.5673 0.5085 0.5010
H22? H 0.5738 0.6456 0.5000
loop_
_geom_bond_atom_site_label_1
_geom_bond_atom_site_label_2
_geom_bond_site_symmetry_1
_geom_bond_site_symmetry_2
S1 C7 1_555 1_555
S2 C8 1_555 1_555
C1 C2 1_555 1_555
C2 H1 1_555 1_555
C3 C2 1_555 1_555
H2 C3 1_555 1_555
C4 C3 1_555 1_555
H3 C4 1_555 1_555
C5 C4 1_555 1_555
H4 C5 1_555 1_555
C6 C1 1_555 1_555
C7 C6 1_555 1_555
C8 C7 1_555 1_555
C9 C8 1_555 1_555
C10 C1 1_555 1_555
C11 C10 1_555 1_555
H5 C11 1_555 1_555
C12 C11 1_555 1_555
C13 C9 1_555 1_555
C14 C13 1_555 1_555
H6 C14 1_555 1_555
C15 C14 1_555 1_555
C16 C15 1_555 1_555
C17 C12 1_555 1_555
H7 C17 1_555 1_555
C18 C11 1_555 1_555
C19 C18 1_555 1_555
H8 C19 1_555 1_555
C20 C19 1_555 1_555
H9 C20 1_555 1_555
C21 C20 1_555 1_555
H10 C21 1_555 1_555
C22 C21 1_555 1_555
H11 C22 1_555 1_555
C23 C18 1_555 1_555
H12 C23 1_555 1_555
C24 S1 1_555 1_555
H13 C24 1_555 1_555
H14 C24 1_555 1_555
C25 S2 1_555 1_555
H15 C25 1_555 1_555
H16 C25 1_555 1_555
O1 C15 1_555 1_555
C26 O1 1_555 1_555
H17 C26 1_555 1_555
H18 C26 1_555 1_555
H19 C26 1_555 1_555
C5 C6 1_555 1_555
C9 C10 1_555 1_555
C12 C13 1_555 1_555
C16 C17 1_555 1_555
C22 C23 1_555 1_555
C24 C25 1_555 1_555

#END
