
#######################################################################
#
#                 Cambridge Crystallographic Data Centre
#                                CCDC 
#
#######################################################################
#
# If this CIF has been generated from an entry in the Cambridge 
# Structural Database, then it will include bibliographic, chemical, 
# crystal, experimental, refinement or atomic coordinate data resulting 
# from the CCDC's data processing and validation procedures.
#
#######################################################################

data_OSEVAL
_chemical_formula_moiety         'C22 H27 N3 O4 S1'
_chemical_name_systematic        
N,N-diethyl-1-methyl-3-(((4-methylphenyl)sulfonyl)amino)-2-oxo-1,2,3,4-tetrahydroquinoline-4-carboxamide
_symmetry_cell_setting           triclinic
_symmetry_space_group_name_H-M   'P -1'
_symmetry_Int_Tables_number      2
_space_group_name_Hall           '-P 1'
loop_
_symmetry_equiv_pos_site_id
_symmetry_equiv_pos_as_xyz
1 x,y,z
2 -x,-y,-z
_cell_length_a                   9.956(3)
_cell_length_b                   11.095(3)
_cell_length_c                   11.180(3)
_cell_angle_alpha                106.896(4)
_cell_angle_beta                 107.810(2)
_cell_angle_gamma                96.9220(10)
_cell_volume                     1094.9
_exptl_crystal_colour            colorless
_exptl_crystal_description       Prism
_cell_formula_units_Z            2
_exptl_crystal_recrystallization_method dichloromethane/hexane
loop_
_atom_site_label
_atom_site_type_symbol
_atom_site_fract_x
_atom_site_fract_y
_atom_site_fract_z
S1 S 0.56849(4) 0.29731(4) 0.72961(4)
O1 O 0.35051(13) 0.42003(12) 0.97677(12)
O2 O 0.15899(14) 0.49924(11) 0.71491(12)
O3 O 0.49172(13) 0.20905(12) 0.59477(11)
O4 O 0.69503(12) 0.39342(12) 0.75910(12)
N1 N 0.12366(14) 0.29632(13) 0.84752(13)
N2 N 0.45281(14) 0.37375(13) 0.77527(14)
N3 N 0.21764(16) 0.47093(14) 0.53008(14)
C1 C 0.02399(16) 0.21584(14) 0.71870(16)
C2 C -0.10485(17) 0.13869(17) 0.70688(18)
H1 H -0.1241 0.1380 0.7849
C3 C -0.20467(18) 0.06310(17) 0.58058(19)
H2 H -0.2924 0.0112 0.5724
C4 C -0.17658(17) 0.06323(16) 0.46710(18)
H3 H -0.2458 0.0129 0.3810
C5 C -0.04743(17) 0.13675(15) 0.47904(16)
H4 H -0.0276 0.1345 0.4006
C6 C 0.05370(16) 0.21383(14) 0.60394(15)
C7 C 0.19756(16) 0.29064(14) 0.61804(14)
H5 H 0.2258 0.2467 0.5408
C8 C 0.31112(15) 0.29552(14) 0.74891(15)
H6 H 0.3218 0.2051 0.7396
C9 C 0.26395(16) 0.34569(14) 0.86844(15)
C10 C 0.61535(15) 0.20205(15) 0.83213(15)
C11 C 0.69348(18) 0.26399(17) 0.96896(17)
H7 H 0.7178 0.3558 1.0071
C12 C 0.7351(2) 0.18965(19) 1.04826(18)
H8 H 0.7887 0.2312 1.1413
C13 C 0.6994(2) 0.05453(19) 0.99353(19)
C14 C 0.62058(19) -0.00471(17) 0.85732(19)
H9 H 0.5956 -0.0965 0.8192
C15 C 0.57749(17) 0.06807(16) 0.77554(17)
H10 H 0.5231 0.0266 0.6826
C16 C 0.7444(3) -0.0265(3) 1.0803(2)
H11 H 0.7174 -0.1181 1.0238
H12 H 0.6955 -0.0138 1.1454
H13 H 0.8496 -0.0002 1.1279
C17 C 0.0697(2) 0.33983(19) 0.95705(18)
H14 H 0.0492 0.2680 0.9880
H15 H -0.0193 0.3690 0.9253
H16 H 0.1432 0.4115 1.0312
C18 C 0.19058(16) 0.42979(15) 0.62414(15)
C19 C 0.2113(2) 0.60483(17) 0.53962(19)
H17 H 0.1344 0.6290 0.5744
H18 H 0.1863 0.6114 0.4493
C20 C 0.3554(2) 0.69758(19) 0.6315(2)
H19 H 0.3820 0.6886 0.7200
H20 H 0.3470 0.7866 0.6403
H21 H 0.4302 0.6775 0.5938
C21 C 0.2764(2) 0.4023(2) 0.43097(19)
H22 H 0.3312 0.3433 0.4655
H23 H 0.3448 0.4660 0.4187
C22 C 0.1588(3) 0.3248(3) 0.2968(2)
H24 H 0.0998 0.2529 0.3057
H25 H 0.2033 0.2906 0.2309
H26 H 0.0972 0.3808 0.2670
H27 H 0.495(2) 0.430(2) 0.852(2)
loop_
_geom_bond_atom_site_label_1
_geom_bond_atom_site_label_2
_geom_bond_site_symmetry_1
_geom_bond_site_symmetry_2
S1 O3 1_555 1_555
O1 C9 1_555 1_555
O2 C18 1_555 1_555
O4 S1 1_555 1_555
N1 C1 1_555 1_555
N2 S1 1_555 1_555
N3 C18 1_555 1_555
C1 C2 1_555 1_555
C2 H1 1_555 1_555
C3 C2 1_555 1_555
H2 C3 1_555 1_555
C4 C3 1_555 1_555
H3 C4 1_555 1_555
C5 C4 1_555 1_555
H4 C5 1_555 1_555
C6 C1 1_555 1_555
C7 C6 1_555 1_555
H5 C7 1_555 1_555
C8 N2 1_555 1_555
H6 C8 1_555 1_555
C9 N1 1_555 1_555
C10 S1 1_555 1_555
C11 C10 1_555 1_555
H7 C11 1_555 1_555
C12 C11 1_555 1_555
H8 C12 1_555 1_555
C13 C12 1_555 1_555
C14 C13 1_555 1_555
H9 C14 1_555 1_555
C15 C10 1_555 1_555
H10 C15 1_555 1_555
C16 C13 1_555 1_555
H11 C16 1_555 1_555
H12 C16 1_555 1_555
H13 C16 1_555 1_555
C17 N1 1_555 1_555
H14 C17 1_555 1_555
H15 C17 1_555 1_555
H16 C17 1_555 1_555
C18 C7 1_555 1_555
C19 N3 1_555 1_555
H17 C19 1_555 1_555
H18 C19 1_555 1_555
C20 C19 1_555 1_555
H19 C20 1_555 1_555
H20 C20 1_555 1_555
H21 C20 1_555 1_555
C21 N3 1_555 1_555
H22 C21 1_555 1_555
H23 C21 1_555 1_555
C22 C21 1_555 1_555
H24 C22 1_555 1_555
H25 C22 1_555 1_555
H26 C22 1_555 1_555
H27 N2 1_555 1_555
C5 C6 1_555 1_555
C7 C8 1_555 1_555
C8 C9 1_555 1_555
C14 C15 1_555 1_555

#END
