
#######################################################################
#
#                 Cambridge Crystallographic Data Centre
#                                CCDC 
#
#######################################################################
#
# If this CIF has been generated from an entry in the Cambridge 
# Structural Database, then it will include bibliographic, chemical, 
# crystal, experimental, refinement or atomic coordinate data resulting 
# from the CCDC's data processing and validation procedures.
#
#######################################################################

data_OSIFEC
_chemical_formula_moiety         'C30 H46 N4 O1 Si2'
_chemical_name_systematic        
"2,2'-Oxybis(1,3-di-t-butyl-4-phenyl-1,2-dihydro-1,3,2-diazasilete) radical"
_symmetry_cell_setting           orthorhombic
_symmetry_space_group_name_H-M   'F d d 2'
_symmetry_Int_Tables_number      43
_space_group_name_Hall           'F 2 -2d'
loop_
_symmetry_equiv_pos_site_id
_symmetry_equiv_pos_as_xyz
1 x,y,z
2 -x,-y,z
3 1/4-x,1/4+y,1/4+z
4 1/4+x,1/4-y,1/4+z
5 x,1/2+y,1/2+z
6 -x,1/2-y,1/2+z
7 1/4-x,3/4+y,3/4+z
8 1/4+x,3/4-y,3/4+z
9 1/2+x,y,1/2+z
10 1/2-x,-y,1/2+z
11 3/4-x,1/4+y,3/4+z
12 3/4+x,1/4-y,3/4+z
13 1/2+x,1/2+y,z
14 1/2-x,1/2-y,z
15 3/4-x,3/4+y,1/4+z
16 3/4+x,3/4-y,1/4+z
_cell_length_a                   31.188(2)
_cell_length_b                   39.120(3)
_cell_length_c                   10.2620(6)
_cell_angle_alpha                90
_cell_angle_beta                 90
_cell_angle_gamma                90
_cell_volume                     12520.4
_exptl_crystal_colour            yellow
_exptl_crystal_description       stick
_cell_formula_units_Z            16
loop_
_atom_site_label
_atom_site_type_symbol
_atom_site_fract_x
_atom_site_fract_y
_atom_site_fract_z
Si1 Si -0.13577(3) 0.23653(2) 0.36692(9)
O1 O -0.09427(7) 0.21611(5) 0.3068(2)
N1 N -0.14495(8) 0.21573(6) 0.5314(2)
C1 C -0.13297(10) 0.24406(8) 0.5942(3)
Si2 Si -0.04391(3) 0.20478(2) 0.28169(10)
N2 N -0.11360(8) 0.26356(6) 0.5055(2)
C2 C -0.14202(11) 0.25225(7) 0.7338(3)
N3 N -0.04984(8) 0.15879(6) 0.2291(2)
C3 C -0.11034(12) 0.24673(8) 0.8266(3)
H1 H -0.0829 0.2387 0.8007
N4 N -0.03082(9) 0.17407(6) 0.4206(3)
C4 C -0.11883(13) 0.25297(8) 0.9568(3)
H2 H -0.0973 0.2488 1.0203
C5 C -0.15818(13) 0.26522(8) 0.9950(4)
H3 H -0.1638 0.2695 1.0844
C6 C -0.18925(13) 0.27121(8) 0.9030(3)
H4 H -0.2163 0.2800 0.9290
C7 C -0.18136(11) 0.26458(8) 0.7726(3)
H5 H -0.2032 0.2685 0.7097
C8 C -0.10187(11) 0.30020(7) 0.5118(3)
C9 C -0.07834(13) 0.30752(9) 0.3843(4)
H6 H -0.0976 0.3033 0.3107
H7 H -0.0532 0.2926 0.3774
H8 H -0.0690 0.3314 0.3829
C10 C -0.14226(10) 0.32246(7) 0.5193(4)
H9 H -0.1563 0.3190 0.6036
H10 H -0.1620 0.3161 0.4490
H11 H -0.1343 0.3466 0.5100
C11 C -0.07283(12) 0.30788(8) 0.6271(4)
H12 H -0.0488 0.2917 0.6278
H13 H -0.0892 0.3057 0.7082
H14 H -0.0618 0.3312 0.6196
C12 C -0.17000(11) 0.18540(8) 0.5731(3)
C13 C -0.16041(11) 0.15818(8) 0.4714(4)
H15 H -0.1296 0.1531 0.4715
H16 H -0.1689 0.1665 0.3851
H17 H -0.1765 0.1374 0.4920
C14 C -0.21798(10) 0.19375(9) 0.5715(4)
H18 H -0.2261 0.2022 0.4851
H19 H -0.2241 0.2113 0.6370
H20 H -0.2344 0.1731 0.5915
C15 C -0.15688(12) 0.17283(8) 0.7081(3)
H21 H -0.1658 0.1896 0.7738
H22 H -0.1257 0.1700 0.7113
H23 H -0.1708 0.1508 0.7259
C16 C -0.03226(10) 0.14732(8) 0.3392(3)
C17 C -0.01500(10) 0.11231(7) 0.3645(3)
C18 C -0.03893(11) 0.08949(8) 0.4385(3)
H24 H -0.0663 0.0961 0.4701
C19 C -0.02315(12) 0.05695(8) 0.4670(3)
H25 H -0.0396 0.0414 0.5178
C20 C 0.01635(11) 0.04774(8) 0.4206(3)
H26 H 0.0274 0.0257 0.4399
C21 C 0.04026(11) 0.07004(8) 0.3462(3)
H27 H 0.0675 0.0633 0.3139
C22 C 0.02436(10) 0.10228(8) 0.3188(3)
H28 H 0.0409 0.1177 0.2678
C23 C -0.06561(11) 0.14010(8) 0.1129(3)
C24 C -0.03063(11) 0.11969(8) 0.0446(3)
H29 H -0.0219 0.1005 0.1000
H30 H -0.0059 0.1345 0.0280
H31 H -0.0416 0.1109 -0.0384
C25 C -0.08136(13) 0.16751(9) 0.0196(3)
H32 H -0.0573 0.1822 -0.0057
H33 H -0.1034 0.1814 0.0626
H34 H -0.0935 0.1567 -0.0581
C26 C -0.10267(11) 0.11720(9) 0.1524(4)
H35 H -0.1244 0.1308 0.1979
H36 H -0.0922 0.0991 0.2104
H37 H -0.1154 0.1069 0.0744
C27 C -0.00553(11) 0.17861(8) 0.5411(4)
C28 C 0.04227(10) 0.17380(9) 0.5176(4)
H38 H 0.0517 0.1891 0.4474
H39 H 0.0479 0.1500 0.4927
H40 H 0.0581 0.1792 0.5975
C29 C -0.01405(14) 0.21507(9) 0.5847(4)
H41 H -0.0450 0.2185 0.5949
H42 H -0.0030 0.2310 0.5191
H43 H 0.0003 0.2192 0.6681
C30 C -0.02009(13) 0.15404(11) 0.6480(3)
H44 H -0.0135 0.1305 0.6220
H45 H -0.0511 0.1564 0.6613
H46 H -0.0050 0.1594 0.7292
loop_
_geom_bond_atom_site_label_1
_geom_bond_atom_site_label_2
_geom_bond_site_symmetry_1
_geom_bond_site_symmetry_2
Si1 O1 1_555 1_555
O1 Si2 1_555 1_555
N1 Si1 1_555 1_555
C1 N1 1_555 1_555
Si2 N3 1_555 1_555
N2 Si1 1_555 1_555
C2 C1 1_555 1_555
N3 C16 1_555 1_555
C3 C2 1_555 1_555
H1 C3 1_555 1_555
N4 Si2 1_555 1_555
C4 C3 1_555 1_555
H2 C4 1_555 1_555
C5 C4 1_555 1_555
H3 C5 1_555 1_555
C6 C5 1_555 1_555
H4 C6 1_555 1_555
C7 C2 1_555 1_555
H5 C7 1_555 1_555
C8 N2 1_555 1_555
C9 C8 1_555 1_555
H6 C9 1_555 1_555
H7 C9 1_555 1_555
H8 C9 1_555 1_555
C10 C8 1_555 1_555
H9 C10 1_555 1_555
H10 C10 1_555 1_555
H11 C10 1_555 1_555
C11 C8 1_555 1_555
H12 C11 1_555 1_555
H13 C11 1_555 1_555
H14 C11 1_555 1_555
C12 N1 1_555 1_555
C13 C12 1_555 1_555
H15 C13 1_555 1_555
H16 C13 1_555 1_555
H17 C13 1_555 1_555
C14 C12 1_555 1_555
H18 C14 1_555 1_555
H19 C14 1_555 1_555
H20 C14 1_555 1_555
C15 C12 1_555 1_555
H21 C15 1_555 1_555
H22 C15 1_555 1_555
H23 C15 1_555 1_555
C16 N4 1_555 1_555
C17 C16 1_555 1_555
C18 C17 1_555 1_555
H24 C18 1_555 1_555
C19 C18 1_555 1_555
H25 C19 1_555 1_555
C20 C19 1_555 1_555
H26 C20 1_555 1_555
C21 C20 1_555 1_555
H27 C21 1_555 1_555
C22 C17 1_555 1_555
H28 C22 1_555 1_555
C23 N3 1_555 1_555
C24 C23 1_555 1_555
H29 C24 1_555 1_555
H30 C24 1_555 1_555
H31 C24 1_555 1_555
C25 C23 1_555 1_555
H32 C25 1_555 1_555
H33 C25 1_555 1_555
H34 C25 1_555 1_555
C26 C23 1_555 1_555
H35 C26 1_555 1_555
H36 C26 1_555 1_555
H37 C26 1_555 1_555
C27 N4 1_555 1_555
C28 C27 1_555 1_555
H38 C28 1_555 1_555
H39 C28 1_555 1_555
H40 C28 1_555 1_555
C29 C27 1_555 1_555
H41 C29 1_555 1_555
H42 C29 1_555 1_555
H43 C29 1_555 1_555
C30 C27 1_555 1_555
H44 C30 1_555 1_555
H45 C30 1_555 1_555
H46 C30 1_555 1_555
C1 N2 1_555 1_555
C6 C7 1_555 1_555
C21 C22 1_555 1_555

#END
