
#######################################################################
#
#                 Cambridge Crystallographic Data Centre
#                                CCDC 
#
#######################################################################
#
# If this CIF has been generated from an entry in the Cambridge 
# Structural Database, then it will include bibliographic, chemical, 
# crystal, experimental, refinement or atomic coordinate data resulting 
# from the CCDC's data processing and validation procedures.
#
#######################################################################

data_OSIGIH
_chemical_formula_moiety         'C6 H8 N2 O1'
_chemical_name_systematic        
(R)-6,7-Dihydro-5H-pyrrolo[1,2-a]imidazol-7-ol
_symmetry_cell_setting           monoclinic
_symmetry_space_group_name_H-M   'P 21'
_symmetry_Int_Tables_number      4
_space_group_name_Hall           'P 2yb'
loop_
_symmetry_equiv_pos_site_id
_symmetry_equiv_pos_as_xyz
1 x,y,z
2 -x,1/2+y,-z
_cell_length_a                   7.6610(15)
_cell_length_b                   10.065(2)
_cell_length_c                   16.229(3)
_cell_angle_alpha                90
_cell_angle_beta                 91.179(11)
_cell_angle_gamma                90
_cell_volume                     1251.12
_cell_formula_units_Z            8
loop_
_atom_site_label
_atom_site_type_symbol
_atom_site_fract_x
_atom_site_fract_y
_atom_site_fract_z
O1 O 0.6766(2) -0.03691(19) 0.05425(10)
H1 H 0.6493 -0.0742 0.0970
N1 N 1.0422(3) 0.0516(2) 0.13634(11)
N8 N 0.9946(3) 0.19919(18) 0.03898(10)
C19 C 0.7328(3) 0.0935(2) 0.07216(13)
H26 H 0.6689 0.1296 0.1188
C20 C 0.9256(3) 0.1061(2) 0.08716(12)
C21 C 1.1972(3) 0.1146(3) 0.11712(16)
H27 H 1.3051 0.0964 0.1420
C22 C 1.1699(3) 0.2060(3) 0.05726(15)
H28 H 1.2520 0.2615 0.0336
C23 C 0.8701(4) 0.2648(3) -0.01562(15)
H29 H 0.9084 0.2626 -0.0722
H30 H 0.8521 0.3563 0.0007
C24 C 0.7065(4) 0.1835(3) -0.00526(17)
H31 H 0.6850 0.1292 -0.0538
H32 H 0.6070 0.2416 0.0019
N2 N 0.5760(2) 0.8511(2) 0.20255(12)
N3 N 0.6168(3) 0.7267(2) 0.31210(11)
O2 O 0.99257(18) 0.82441(18) 0.22632(11)
H2 H 1.0137 0.8926 0.2007
C1 C 0.8681(3) 0.8518(2) 0.28690(14)
H3 H 0.8739 0.9456 0.3028
C2 C 0.6853(2) 0.8155(2) 0.26095(13)
C3 C 0.4270(3) 0.7792(3) 0.21873(18)
H4 H 0.3245 0.7827 0.1871
C4 C 0.4499(3) 0.7042(3) 0.28551(18)
H5 H 0.3686 0.6480 0.3091
C5 C 0.7336(4) 0.6846(3) 0.37831(16)
H6 H 0.7552 0.5897 0.3758
H7 H 0.6864 0.7064 0.4316
C6 C 0.8991(4) 0.7630(3) 0.36258(18)
H8 H 0.9952 0.7026 0.3529
H9 H 0.9288 0.8171 0.4103
N4 N 0.6184(2) 0.3476(2) 0.22327(12)
N5 N 0.8397(2) 0.46497(19) 0.17913(11)
O3 O 0.9002(2) 0.34411(18) 0.37169(9)
H10 H 0.8488 0.2790 0.3894
C7 C 0.9322(3) 0.3262(2) 0.28720(13)
H11 H 0.9596 0.2330 0.2757
C8 C 0.7857(3) 0.3732(2) 0.23236(12)
C9 C 0.5642(3) 0.4287(3) 0.15950(16)
H12 H 0.4506 0.4326 0.1383
C10 C 0.6988(4) 0.5018(3) 0.13196(16)
H13 H 0.6959 0.5641 0.0897
C11 C 1.0253(3) 0.4935(3) 0.18503(15)
H14 H 1.0462 0.5880 0.1917
H15 H 1.0850 0.4624 0.1366
C12 C 1.0836(4) 0.4174(3) 0.26086(19)
H16 H 1.1138 0.4787 0.3050
H17 H 1.1858 0.3645 0.2489
N6 N 0.7347(3) 0.1153(2) 0.43113(11)
N7 N 0.5194(3) -0.01577(19) 0.46813(11)
O4 O 0.4023(2) 0.23595(18) 0.33585(11)
H18 H 0.4758 0.2683 0.3058
C13 C 0.4399(3) 0.1020(2) 0.34897(13)
H19 H 0.4741 0.0604 0.2971
C14 C 0.5738(3) 0.0750(2) 0.41398(12)
C15 C 0.7833(4) 0.0432(3) 0.50048(15)
H20 H 0.8913 0.0496 0.5274
C16 C 0.6526(4) -0.0376(3) 0.52364(14)
H21 H 0.6532 -0.0959 0.5681
C17 C 0.3442(4) -0.0660(3) 0.44982(17)
H22 H 0.2716 -0.0626 0.4981
H23 H 0.3476 -0.1565 0.4294
C18 C 0.2792(4) 0.0291(3) 0.38383(18)
H24 H 0.1989 0.0928 0.4071
H25 H 0.2184 -0.0192 0.3402
loop_
_geom_bond_atom_site_label_1
_geom_bond_atom_site_label_2
_geom_bond_site_symmetry_1
_geom_bond_site_symmetry_2
O1 H1 1_555 1_555
N1 C20 1_555 1_555
N2 C2 1_555 1_555
N3 C2 1_555 1_555
O2 H2 1_555 1_555
C1 O2 1_555 1_555
H3 C1 1_555 1_555
C2 C1 1_555 1_555
C3 N2 1_555 1_555
H4 C3 1_555 1_555
C4 N3 1_555 1_555
H5 C4 1_555 1_555
C5 N3 1_555 1_555
H6 C5 1_555 1_555
H7 C5 1_555 1_555
C6 C1 1_555 1_555
H8 C6 1_555 1_555
H9 C6 1_555 1_555
N4 C8 1_555 1_555
N5 C8 1_555 1_555
O3 H10 1_555 1_555
C7 O3 1_555 1_555
H11 C7 1_555 1_555
C8 C7 1_555 1_555
C9 N4 1_555 1_555
H12 C9 1_555 1_555
C10 N5 1_555 1_555
H13 C10 1_555 1_555
C11 N5 1_555 1_555
H14 C11 1_555 1_555
H15 C11 1_555 1_555
C12 C7 1_555 1_555
H16 C12 1_555 1_555
H17 C12 1_555 1_555
N6 C14 1_555 1_555
N7 C14 1_555 1_555
O4 H18 1_555 1_555
C13 O4 1_555 1_555
H19 C13 1_555 1_555
C14 C13 1_555 1_555
C15 N6 1_555 1_555
H20 C15 1_555 1_555
C16 N7 1_555 1_555
H21 C16 1_555 1_555
C17 N7 1_555 1_555
H22 C17 1_555 1_555
H23 C17 1_555 1_555
C18 C13 1_555 1_555
H24 C18 1_555 1_555
H25 C18 1_555 1_555
N8 C20 1_555 1_555
C19 O1 1_555 1_555
H26 C19 1_555 1_555
C20 C19 1_555 1_555
C21 N1 1_555 1_555
H27 C21 1_555 1_555
C22 N8 1_555 1_555
H28 C22 1_555 1_555
C23 N8 1_555 1_555
H29 C23 1_555 1_555
H30 C23 1_555 1_555
C24 C19 1_555 1_555
H31 C24 1_555 1_555
H32 C24 1_555 1_555
C3 C4 1_555 1_555
C5 C6 1_555 1_555
C9 C10 1_555 1_555
C11 C12 1_555 1_555
C15 C16 1_555 1_555
C17 C18 1_555 1_555
C21 C22 1_555 1_555
C23 C24 1_555 1_555

#END
