
#######################################################################
#
#                 Cambridge Crystallographic Data Centre
#                                CCDC 
#
#######################################################################
#
# If this CIF has been generated from an entry in the Cambridge 
# Structural Database, then it will include bibliographic, chemical, 
# crystal, experimental, refinement or atomic coordinate data resulting 
# from the CCDC's data processing and validation procedures.
#
#######################################################################

data_OSIHAB
_chemical_formula_moiety         'C9 H10 N6 O2'
_chemical_name_systematic        
4-cyclopropyl-1-(1-methyl-4-nitro-1H-imidazol-5-yl)-1H-1,2,3-triazole
_symmetry_cell_setting           orthorhombic
_symmetry_space_group_name_H-M   'P 21 21 21'
_symmetry_Int_Tables_number      19
_space_group_name_Hall           'P 2ac 2ab'
loop_
_symmetry_equiv_pos_site_id
_symmetry_equiv_pos_as_xyz
1 x,y,z
2 1/2-x,-y,1/2+z
3 -x,1/2+y,1/2-z
4 1/2+x,1/2-y,-z
_cell_length_a                   7.8053(3)
_cell_length_b                   8.5264(3)
_cell_length_c                   15.7343(11)
_cell_angle_alpha                90
_cell_angle_beta                 90
_cell_angle_gamma                90
_cell_volume                     1047.14
_exptl_crystal_colour            colorless
_exptl_crystal_description       'cut block'
_cell_formula_units_Z            4
loop_
_atom_site_label
_atom_site_type_symbol
_atom_site_fract_x
_atom_site_fract_y
_atom_site_fract_z
O1 O 0.8351(3) 0.0850(3) 0.50104(14)
N1 N 1.0049(3) 0.5069(3) 0.59689(16)
O2 O 0.8723(3) 0.0044(3) 0.63090(14)
N2 N 0.8768(4) 0.1068(3) 0.57557(15)
N3 N 0.9128(3) 0.4108(3) 0.45956(15)
C1 C 0.9335(4) 0.2605(4) 0.59863(17)
N4 N 0.7782(3) 0.4953(4) 0.43296(17)
C2 C 0.9984(5) 0.3473(4) 0.2421(2)
H1 H 1.1165 0.3019 0.2406
N5 N 0.9808(4) 0.2972(3) 0.68008(15)
C3 C 1.0103(4) 0.3469(3) 0.39752(16)
H2 H 1.1104 0.2844 0.4032
C4 C 0.9470(4) 0.3875(3) 0.54600(18)
C5 C 1.0223(4) 0.4457(4) 0.67603(19)
H3 H 1.0607 0.5046 0.7236
C6 C 0.8721(5) 0.2823(4) 0.1788(2)
H4 H 0.9118 0.1976 0.1405
H5 H 0.7507 0.2743 0.1965
N6 N 0.7883(5) 0.4836(4) 0.3493(2)
C7 C 0.9450(6) 0.4426(4) 0.1660(2)
H6 H 0.8686 0.5335 0.1757
H7 H 1.0297 0.4568 0.1197
C8 C 0.9325(5) 0.3928(4) 0.32678(19)
C9 C 1.0457(5) 0.6670(4) 0.5699(2)
H8 H 1.0985 0.7240 0.6172
H9 H 0.9403 0.7206 0.5525
H10 H 1.1255 0.6634 0.5218
loop_
_geom_bond_atom_site_label_1
_geom_bond_atom_site_label_2
_geom_bond_site_symmetry_1
_geom_bond_site_symmetry_2
O1 N2 1_555 1_555
N1 C4 1_555 1_555
O2 N2 1_555 1_555
N2 C1 1_555 1_555
N3 N4 1_555 1_555
C1 N5 1_555 1_555
N4 N6 1_555 1_555
C2 H1 1_555 1_555
N5 C5 1_555 1_555
C3 N3 1_555 1_555
H2 C3 1_555 1_555
C4 N3 1_555 1_555
C5 N1 1_555 1_555
H3 C5 1_555 1_555
C6 C2 1_555 1_555
H4 C6 1_555 1_555
H5 C6 1_555 1_555
N6 C8 1_555 1_555
C7 C2 1_555 1_555
H6 C7 1_555 1_555
H7 C7 1_555 1_555
C8 C2 1_555 1_555
C9 N1 1_555 1_555
H8 C9 1_555 1_555
H9 C9 1_555 1_555
H10 C9 1_555 1_555
C1 C4 1_555 1_555
C3 C8 1_555 1_555
C6 C7 1_555 1_555

#END
