
#######################################################################
#
#                 Cambridge Crystallographic Data Centre
#                                CCDC 
#
#######################################################################
#
# If this CIF has been generated from an entry in the Cambridge 
# Structural Database, then it will include bibliographic, chemical, 
# crystal, experimental, refinement or atomic coordinate data resulting 
# from the CCDC's data processing and validation procedures.
#
#######################################################################

data_OSIJOR
_chemical_formula_moiety         'C6 H9 N2 1+,Cl1 O4 1-'
_chemical_name_systematic        '2,3-dimethylpyrazinium perchlorate'
_symmetry_cell_setting           monoclinic
_symmetry_space_group_name_H-M   'P 2/c'
_symmetry_Int_Tables_number      13
_space_group_name_Hall           '-P 2yc'
loop_
_symmetry_equiv_pos_site_id
_symmetry_equiv_pos_as_xyz
1 x,y,z
2 -x,y,1/2-z
3 -x,-y,-z
4 x,-y,1/2+z
_cell_length_a                   12.620(3)
_cell_length_b                   7.0217(14)
_cell_length_c                   11.012(2)
_cell_angle_alpha                90
_cell_angle_beta                 106.36(3)
_cell_angle_gamma                90
_cell_volume                     936.306
_cell_formula_units_Z            4
loop_
_atom_site_label
_atom_site_type_symbol
_atom_site_fract_x
_atom_site_fract_y
_atom_site_fract_z
O1 O 0.9968(10) 0.9566(14) 0.1815(11)
O2 O 1.1055(6) 0.7291(10) 0.2830(12)
Cl1 Cl 1.0000 0.79851(18) 0.2500
O1A O 1.0032(10) 0.9566(14) 0.3185(11)
O2A O 0.8945(6) 0.7291(10) 0.2170(12)
Cl2 Cl 0.5000 0.40336(19) 0.2500
O3 O 0.3967(8) 0.4613(17) 0.1785(13)
O4 O 0.5674(9) 0.4121(14) 0.1533(8)
O3A O 0.6033(8) 0.4613(17) 0.3215(13)
O4A O 0.4326(9) 0.4121(14) 0.3467(8)
N1 N 0.2853(2) 0.0078(4) 0.2228(2)
N2 N 0.2956(3) 0.0176(4) 0.4691(2)
C1 C 0.2313(2) 0.1456(4) 0.2615(3)
C2 C 0.2381(3) 0.1497(4) 0.3914(3)
C3 C 0.3438(4) -0.1254(6) 0.2994(3)
H1 H 0.3808 -0.2200 0.2684
C4 C 0.1665(4) 0.2841(6) 0.1664(4)
H2 H 0.1956 0.4099 0.1875
H3 H 0.0905 0.2812 0.1668
H4 H 0.1716 0.2502 0.0838
C5 C 0.3478(3) -0.1187(5) 0.4243(3)
H5 H 0.3876 -0.2108 0.4792
C6 C 0.1824(4) 0.3009(6) 0.4459(4)
H6 H 0.1498 0.2452 0.5065
H7 H 0.1259 0.3597 0.3794
H8 H 0.2356 0.3950 0.4869
H9 H 0.285(3) 0.001(5) 0.145(4)
O5? O 0.409(10) 0.349(13) 0.176(5)
O6? O 0.5000 0.2118(10) 0.2500
O7? O 0.4475(10) 0.5296(14) 0.1591(9)
O8? O 1.015(2) 0.731(4) 0.1472(17)
loop_
_geom_bond_atom_site_label_1
_geom_bond_atom_site_label_2
_geom_bond_site_symmetry_1
_geom_bond_site_symmetry_2
O1 Cl1 1_555 1_555
O2 Cl1 1_555 1_555
Cl1 O1A 1_555 1_555
Cl2 O3 1_555 1_555
O4 Cl2 1_555 1_555
N1 C1 1_555 1_555
N2 C2 1_555 1_555
C1 C2 1_555 1_555
C2 C6 1_555 1_555
C3 N1 1_555 1_555
H1 C3 1_555 1_555
C4 C1 1_555 1_555
H2 C4 1_555 1_555
H3 C4 1_555 1_555
H4 C4 1_555 1_555
C5 N2 1_555 1_555
H5 C5 1_555 1_555
C6 H6 1_555 1_555
H7 C6 1_555 1_555
H8 C6 1_555 1_555
H9 N1 1_555 1_555
O2A Cl1 1_555 1_555
O3A Cl2 1_555 1_555
O4A Cl2 1_555 1_555
C3 C5 1_555 1_555

#END
