
#######################################################################
#
#                 Cambridge Crystallographic Data Centre
#                                CCDC 
#
#######################################################################
#
# If this CIF has been generated from an entry in the Cambridge 
# Structural Database, then it will include bibliographic, chemical, 
# crystal, experimental, refinement or atomic coordinate data resulting 
# from the CCDC's data processing and validation procedures.
#
#######################################################################

data_OSIKEI
_chemical_formula_moiety         'C12 H13 N2 1+,C12 H12 N2,H1 Cl1 O4,Cl1 O4 1-'
_chemical_name_systematic        
"4-(2-(4-pyridyl)ethyl)pyridinium 4,4'-ethane-1,2-diylbipyridine perchlorate perchloric acid"
_symmetry_cell_setting           monoclinic
_symmetry_space_group_name_H-M   'P 21'
_symmetry_Int_Tables_number      4
_space_group_name_Hall           'P 2yb'
loop_
_symmetry_equiv_pos_site_id
_symmetry_equiv_pos_as_xyz
1 x,y,z
2 -x,1/2+y,-z
_cell_length_a                   8.2485(16)
_cell_length_b                   11.969(2)
_cell_length_c                   13.572(3)
_cell_angle_alpha                90
_cell_angle_beta                 94.76(3)
_cell_angle_gamma                90
_cell_volume                     1335.29
_cell_formula_units_Z            2
loop_
_atom_site_label
_atom_site_type_symbol
_atom_site_fract_x
_atom_site_fract_y
_atom_site_fract_z
Cl1 Cl 0.1472(3) 0.4989(2) 0.21742(17)
O1 O 0.0083(10) 0.4645(7) 0.2607(6)
O2 O 0.1440(17) 0.6223(14) 0.2241(10)
O3 O 0.2926(10) 0.4664(7) 0.2737(6)
O4 O 0.1423(12) 0.4721(8) 0.1188(7)
Cl2 Cl 0.1705(3) 1.0117(2) 0.21175(17)
O5 O 0.3338(8) 1.0188(7) 0.2592(5)
O6 O 0.1551(15) 1.0125(13) 0.1149(10)
O7 O 0.0561(19) 1.0202(16) 0.2743(12)
O8 O 0.134(5) 0.885(3) 0.2155(19)
H1 H 0.1754 0.8539 0.1700
N1 N 0.2561(10) 0.8785(7) 0.5357(6)
C1 C 0.3013(10) 0.6443(7) 0.5332(6)
N2 N 0.2203(10) 0.1051(7) 0.5385(6)
C2 C 0.2947(12) 0.8238(8) 0.4560(7)
H2 H 0.3085 0.8654 0.3994
C3 C 0.3165(12) 0.7062(8) 0.4507(7)
H3 H 0.3405 0.6724 0.3920
C4 C 0.1781(10) 0.3343(7) 0.5298(6)
C5 C 0.2384(12) 0.2752(8) 0.4503(7)
H4 H 0.2655 0.3120 0.3936
C6 C 0.2503(14) 0.7004(11) 0.6175(9)
H5 H 0.2279 0.6604 0.6735
C7 C 0.1393(11) 0.2727(8) 0.6083(7)
H6 H 0.0964 0.3087 0.6611
C8 C 0.2554(13) 0.1613(9) 0.4601(8)
H7 H 0.2941 0.1218 0.4079
C9 C 0.3205(11) 0.5182(8) 0.5359(7)
H8 H 0.3772 0.4965 0.5985
H9 H 0.3861 0.4950 0.4835
C10 C 0.2343(15) 0.8162(11) 0.6151(9)
H10 H 0.2069 0.8523 0.6721
C11 C 0.1605(13) 0.1640(9) 0.6123(8)
H11 H 0.1331 0.1259 0.6683
C12 C 0.1564(11) 0.4584(7) 0.5236(6)
H12 H 0.0893 0.4829 0.5749
H13 H 0.1010 0.4779 0.4601
N3 N 0.3277(10) 0.8790(6) 0.8951(6)
N4 N 0.3306(9) 0.1049(7) 0.8788(6)
C13 C 0.2005(15) 0.2827(9) 0.8960(8)
H14 H 0.1101 0.3215 0.9143
C14 C 0.3225(11) 0.3398(8) 0.8585(7)
C15 C 0.4502(13) 0.2760(9) 0.8283(7)
H15 H 0.5354 0.3108 0.7995
C16 C 0.2060(15) 0.8220(10) 0.9283(8)
H16 H 0.1131 0.8593 0.9447
C17 C 0.3597(12) 0.6504(8) 0.9191(7)
C18 C 0.4597(13) 0.8275(9) 0.8748(8)
H17 H 0.5444 0.8699 0.8534
C19 C 0.4813(12) 0.7142(8) 0.8832(7)
H18 H 0.5763 0.6809 0.8650
C20 C 0.3167(13) 0.4620(9) 0.8413(7)
H19 H 0.2052 0.4841 0.8226
H20 H 0.3811 0.4800 0.7867
C21 C 0.2166(15) 0.7050(10) 0.9390(8)
H21 H 0.1289 0.6646 0.9592
C22 C 0.4518(13) 0.1627(9) 0.8406(8)
H22 H 0.5411 0.1231 0.8216
C23 C 0.2069(13) 0.1671(9) 0.9079(7)
H23 H 0.1228 0.1315 0.9371
C24 C 0.3804(13) 0.5275(9) 0.9318(8)
H24 H 0.3238 0.5034 0.9879
H25 H 0.4951 0.5110 0.9463
loop_
_geom_bond_atom_site_label_1
_geom_bond_atom_site_label_2
_geom_bond_site_symmetry_1
_geom_bond_site_symmetry_2
Cl1 O1 1_555 1_555
O2 Cl1 1_555 1_555
O3 Cl1 1_555 1_555
O4 Cl1 1_555 1_555
Cl2 O5 1_555 1_555
O6 Cl2 1_555 1_555
O7 Cl2 1_555 1_555
O8 Cl2 1_555 1_555
H1 O8 1_555 1_555
N1 C2 1_555 1_555
C1 C3 1_555 1_555
N2 C8 1_555 1_555
C2 H2 1_555 1_555
C3 C2 1_555 1_555
H3 C3 1_555 1_555
C4 C5 1_555 1_555
C5 H4 1_555 1_555
C6 C1 1_555 1_555
H5 C6 1_555 1_555
C7 C4 1_555 1_555
H6 C7 1_555 1_555
C8 C5 1_555 1_555
H7 C8 1_555 1_555
C9 C1 1_555 1_555
H8 C9 1_555 1_555
H9 C9 1_555 1_555
C10 N1 1_555 1_555
H10 C10 1_555 1_555
C11 N2 1_555 1_555
H11 C11 1_555 1_555
C12 C4 1_555 1_555
H12 C12 1_555 1_555
H13 C12 1_555 1_555
N3 C16 1_555 1_555
N4 C22 1_555 1_555
C13 H14 1_555 1_555
C14 C13 1_555 1_555
C15 C14 1_555 1_555
H15 C15 1_555 1_555
C16 H16 1_555 1_555
C17 C19 1_555 1_555
C18 N3 1_555 1_555
H17 C18 1_555 1_555
C19 C18 1_555 1_555
H18 C19 1_555 1_555
C20 C14 1_555 1_555
H19 C20 1_555 1_555
H20 C20 1_555 1_555
C21 C16 1_555 1_555
H21 C21 1_555 1_555
C22 C15 1_555 1_555
H22 C22 1_555 1_555
C23 N4 1_555 1_555
H23 C23 1_555 1_555
C24 C17 1_555 1_555
H24 C24 1_555 1_555
H25 C24 1_555 1_555
C6 C10 1_555 1_555
C7 C11 1_555 1_555
C9 C12 1_555 1_555
C13 C23 1_555 1_555
C17 C21 1_555 1_555
C20 C24 1_555 1_555

#END
