
#######################################################################
#
#                 Cambridge Crystallographic Data Centre
#                                CCDC 
#
#######################################################################
#
# If this CIF has been generated from an entry in the Cambridge 
# Structural Database, then it will include bibliographic, chemical, 
# crystal, experimental, refinement or atomic coordinate data resulting 
# from the CCDC's data processing and validation procedures.
#
#######################################################################

data_OSILOT
_chemical_formula_moiety         'C24 H28 O8'
_chemical_name_systematic        
'ethyl 1-(2-ethoxy-2-oxoethyl)-5-hydroxy-3-(4-hydroxy-3-methoxyphenyl)-6-methoxyindane-2-carboxylate'
_symmetry_cell_setting           monoclinic
_symmetry_space_group_name_H-M   'P 21/c'
_symmetry_Int_Tables_number      14
_space_group_name_Hall           '-P 2ybc'
loop_
_symmetry_equiv_pos_site_id
_symmetry_equiv_pos_as_xyz
1 x,y,z
2 -x,1/2+y,1/2-z
3 -x,-y,-z
4 x,1/2-y,1/2+z
_cell_length_a                   10.67069(19)
_cell_length_b                   16.1524(3)
_cell_length_c                   12.7293(3)
_cell_angle_alpha                90
_cell_angle_beta                 95.0238(7)
_cell_angle_gamma                90
_cell_volume                     2185.56
_exptl_crystal_colour            colorless
_exptl_crystal_description       prism
_cell_formula_units_Z            4
loop_
_atom_site_label
_atom_site_type_symbol
_atom_site_fract_x
_atom_site_fract_y
_atom_site_fract_z
O1 O -0.01973(13) 0.70710(9) 0.64117(11)
O2 O -0.00821(13) 0.55108(8) 0.70824(11)
O3 O 0.20933(13) 1.11184(8) 0.97460(11)
O4 O 0.40615(13) 1.08187(8) 0.86027(12)
O5 O 0.35388(14) 0.45322(9) 0.98190(12)
O6 O 0.23149(15) 0.46341(9) 1.11699(12)
O7 O 0.60035(13) 0.77019(9) 0.98783(12)
O8 O 0.54299(14) 0.71368(9) 1.13665(12)
C1 C 0.25360(18) 0.64311(12) 0.87864(15)
C2 C 0.24389(18) 0.72344(12) 0.84161(15)
C3 C 0.15338(18) 0.74504(12) 0.76067(15)
C4 C 0.07119(18) 0.68530(12) 0.71858(15)
C5 C 0.08128(18) 0.60355(12) 0.75529(15)
C6 C 0.17286(18) 0.58156(12) 0.83465(15)
C7 C 0.35713(18) 0.63447(12) 0.96768(15)
C8 C 0.38559(18) 0.72716(12) 0.99648(15)
C9 C 0.34613(18) 0.77806(12) 0.89599(15)
C10 C 0.31017(18) 0.86676(12) 0.91828(15)
C11 C 0.21054(19) 0.88538(12) 0.97752(16)
C12 C 0.17961(18) 0.96722(12) 0.99756(16)
C13 C 0.24644(18) 1.03134(12) 0.95749(15)
C14 C 0.34655(18) 1.01382(12) 0.89783(15)
C15 C 0.37816(18) 0.93206(12) 0.87900(15)
C16 C -0.0107(2) 0.46820(13) 0.74731(18)
C17 C 0.5188(2) 1.06804(14) 0.80976(18)
C18 C 0.3215(2) 0.58599(12) 1.06367(16)
C19 C 0.30571(19) 0.49450(13) 1.04699(16)
C20 C 0.5204(2) 0.74059(12) 1.03829(16)
C21 C 0.2072(3) 0.37484(13) 1.1133(2)
C22 C 0.1029(3) 0.35388(18) 1.0306(3)
C23 C 0.6745(3) 0.71768(16) 1.1807(2)
C24 C 0.6945(3) 0.65609(16) 1.26376(19)
H1 H 0.1483 0.8002 0.7348
H2 H 0.1805 0.5259 0.8586
H3 H 0.1630 0.8418 1.0046
H4 H 0.1121 0.9790 1.0391
H5 H 0.4470 0.9204 0.8388
H6 H 0.4329 0.6087 0.9401
H7 H 0.3306 0.7439 1.0525
H8 H 0.4187 0.7791 0.8513
H9 H 0.3872 0.5951 1.1224
H10 H 0.2417 0.6087 1.0857
H11 H 0.1841 0.3560 1.1831
H12 H 0.2847 0.3453 1.0978
H13 H 0.7311 0.7067 1.1247
H14 H 0.6935 0.7736 1.2097
H15 H 0.0647 0.4387 0.7291
H16 H -0.0858 0.4398 0.7155
H17 H -0.0126 0.4693 0.8241
H18 H 0.4982 1.0391 0.7428
H19 H 0.5769 1.0342 0.8555
H20 H 0.5583 1.1213 0.7963
H21 H 0.0871 0.2941 1.0313
H22 H 0.1272 0.3703 0.9611
H23 H 0.0263 0.3836 1.0455
H24 H 0.7800 0.6615 1.2979
H25 H 0.6833 0.6006 1.2333
H26 H 0.6336 0.6647 1.3161
H27 H -0.0603 0.6648 0.6202
H28 H 0.2722 1.1433 0.9764
loop_
_geom_bond_atom_site_label_1
_geom_bond_atom_site_label_2
_geom_bond_site_symmetry_1
_geom_bond_site_symmetry_2
O1 C4 1_555 1_555
O2 C5 1_555 1_555
O3 C13 1_555 1_555
O4 C14 1_555 1_555
O5 C19 1_555 1_555
O6 C19 1_555 1_555
O7 C20 1_555 1_555
O8 C20 1_555 1_555
C1 C2 1_555 1_555
C2 C3 1_555 1_555
C3 C4 1_555 1_555
C4 C5 1_555 1_555
C5 C6 1_555 1_555
C6 C1 1_555 1_555
C7 C1 1_555 1_555
C8 C7 1_555 1_555
C9 C2 1_555 1_555
C10 C9 1_555 1_555
C11 C10 1_555 1_555
C12 C11 1_555 1_555
C13 C12 1_555 1_555
C14 C13 1_555 1_555
C15 C10 1_555 1_555
C16 O2 1_555 1_555
C17 O4 1_555 1_555
C18 C7 1_555 1_555
C19 C18 1_555 1_555
C20 C8 1_555 1_555
C21 O6 1_555 1_555
C22 C21 1_555 1_555
C23 O8 1_555 1_555
C24 C23 1_555 1_555
H1 C3 1_555 1_555
H2 C6 1_555 1_555
H3 C11 1_555 1_555
H4 C12 1_555 1_555
H5 C15 1_555 1_555
H6 C7 1_555 1_555
H7 C8 1_555 1_555
H8 C9 1_555 1_555
H9 C18 1_555 1_555
H10 C18 1_555 1_555
H11 C21 1_555 1_555
H12 C21 1_555 1_555
H13 C23 1_555 1_555
H14 C23 1_555 1_555
H15 C16 1_555 1_555
H16 C16 1_555 1_555
H17 C16 1_555 1_555
H18 C17 1_555 1_555
H19 C17 1_555 1_555
H20 C17 1_555 1_555
H21 C22 1_555 1_555
H22 C22 1_555 1_555
H23 C22 1_555 1_555
H24 C24 1_555 1_555
H25 C24 1_555 1_555
H26 C24 1_555 1_555
H27 O1 1_555 1_555
H28 O3 1_555 1_555
C8 C9 1_555 1_555
C14 C15 1_555 1_555

#END
