
#######################################################################
#
#                 Cambridge Crystallographic Data Centre
#                                CCDC 
#
#######################################################################
#
# If this CIF has been generated from an entry in the Cambridge 
# Structural Database, then it will include bibliographic, chemical, 
# crystal, experimental, refinement or atomic coordinate data resulting 
# from the CCDC's data processing and validation procedures.
#
#######################################################################

data_OSIPAJ
_chemical_formula_moiety         'C74 H18 F30 N8'
_chemical_name_systematic        
'6-(1,4-bis(pentafluorophenyl)-8-((pentafluorophenyl)(1H-pyrrol-2-yl)methyl)-6H-7,7b,9c-triazatricyclopenta[cd,f,ij]azulen-6-ylidene)-1,4-bis(pentafluorophenyl)-8-((pentafluorophenyl)(1H-pyrrol-2-yl)methyl)-6H-7,7b,9c-triazatricyclopenta[cd,f,ij]azulene unknown solvate'
_symmetry_cell_setting           monoclinic
_symmetry_space_group_name_H-M   'P 21/n'
_symmetry_Int_Tables_number      14
_space_group_name_Hall           '-P 2yn'
loop_
_symmetry_equiv_pos_site_id
_symmetry_equiv_pos_as_xyz
1 x,y,z
2 1/2-x,1/2+y,1/2-z
3 -x,-y,-z
4 1/2+x,1/2-y,1/2+z
_cell_length_a                   17.864(3)
_cell_length_b                   23.111(4)
_cell_length_c                   18.348(3)
_cell_angle_alpha                90
_cell_angle_beta                 110.537(3)
_cell_angle_gamma                90
_cell_volume                     7093.64
_exptl_crystal_colour            black
_exptl_crystal_description       strip
_cell_formula_units_Z            4
loop_
_atom_site_label
_atom_site_type_symbol
_atom_site_fract_x
_atom_site_fract_y
_atom_site_fract_z
N1 N 1.3052(2) 0.04329(15) 0.1642(2)
N2 N 1.08479(16) 0.15525(11) 0.05993(15)
N3 N 1.02590(18) 0.20065(12) -0.07069(16)
N4 N 1.02483(17) 0.14500(12) 0.15428(15)
N5 N 0.85387(18) 0.14997(12) 0.22457(16)
N6 N 0.79474(17) 0.14465(12) 0.31943(16)
N7 N 0.86412(18) 0.14626(14) 0.46312(16)
N8 N 0.5550(3) 0.20833(17) 0.1172(2)
F1 F 1.12749(14) 0.02101(9) 0.04338(12)
F2 F 1.02932(15) -0.06542(10) 0.04275(15)
F3 F 0.9883(2) -0.08685(12) 0.1698(2)
F4 F 1.0501(2) -0.02021(12) 0.29933(17)
F5 F 1.14874(15) 0.06751(9) 0.30055(12)
F6 F 1.30318(13) 0.21550(10) -0.02853(12)
F7 F 1.40423(15) 0.22583(12) -0.10695(16)
F8 F 1.35219(17) 0.20717(13) -0.26328(16)
F9 F 1.19564(17) 0.18119(12) -0.33952(13)
F10 F 1.09413(14) 0.17407(11) -0.26342(12)
F11 F 0.82222(15) 0.30227(10) -0.09068(15)
F12 F 0.66385(17) 0.31278(13) -0.15413(17)
F13 F 0.56856(15) 0.21865(15) -0.17463(16)
F14 F 0.63500(16) 0.11156(14) -0.13739(19)
F15 F 0.79459(15) 0.10100(11) -0.07765(16)
F16 F 0.69126(18) 0.12695(11) 0.04624(14)
F17 F 0.7158(2) 0.02508(14) -0.0104(2)
F18 F 0.7395(3) -0.07000(14) 0.0767(3)
F19 F 0.7418(4) -0.06296(15) 0.2250(3)
F20 F 0.7088(3) 0.03566(12) 0.2793(2)
F21 F 0.79939(16) 0.22337(11) 0.63478(13)
F22 F 0.70066(19) 0.25012(12) 0.70915(14)
F23 F 0.54409(19) 0.21780(13) 0.65013(18)
F24 F 0.48938(18) 0.16069(14) 0.51127(19)
F25 F 0.58809(15) 0.13198(11) 0.43713(15)
F26 F 1.10716(15) 0.20431(11) 0.48497(15)
F27 F 1.26232(17) 0.17406(16) 0.53912(16)
F28 F 1.3050(2) 0.0614(2) 0.5493(2)
F29 F 1.1910(3) -0.02169(16) 0.5033(3)
F30 F 1.03541(19) 0.00873(12) 0.44494(18)
C1 C 1.3838(3) 0.0341(2) 0.2040(3)
H1 H 1.4175 0.0077 0.1903
C2 C 1.4058(3) 0.0691(3) 0.2667(3)
H2 H 1.4576 0.0712 0.3054
C3 C 1.3389(3) 0.1022(2) 0.2652(2)
H3 H 1.3375 0.1307 0.3021
C4 C 1.2764(2) 0.08556(15) 0.2007(2)
C5 C 1.1906(2) 0.10268(14) 0.17307(19)
H4 H 1.1836 0.1299 0.2126
C6 C 1.1653(2) 0.13471(14) 0.09628(19)
C7 C 1.2072(2) 0.14581(14) 0.04880(18)
H5 H 1.2623 0.1375 0.0601
C8 C 1.1541(2) 0.17233(14) -0.02182(19)
C9 C 1.0834(2) 0.17624(14) -0.00944(18)
C10 C 1.1388(2) 0.19493(14) -0.09993(19)
C11 C 1.0590(2) 0.21147(15) -0.12756(19)
C12 C 0.9907(2) 0.23075(16) -0.1943(2)
H6 H 0.9927 0.2429 -0.2431
C13 C 0.9233(2) 0.22833(16) -0.1748(2)
H7 H 0.8710 0.2386 -0.2083
C14 C 0.9437(2) 0.20764(15) -0.09529(19)
C15 C 0.9022(2) 0.19501(15) -0.04803(19)
C16 C 1.0196(2) 0.15800(14) 0.08398(18)
C17 C 0.9357(2) 0.17567(14) 0.03268(19)
C18 C 0.8939(2) 0.17017(15) 0.0815(2)
H8 H 0.8383 0.1770 0.0684
C19 C 0.9483(2) 0.15227(15) 0.15634(19)
C20 C 0.9305(2) 0.14388(15) 0.22336(19)
C21 C 0.9856(2) 0.13141(15) 0.29959(19)
H9 H 1.0412 0.1245 0.3128
C22 C 0.9454(2) 0.13106(14) 0.3500(2)
C23 C 0.8604(2) 0.14287(15) 0.29697(19)
C24 C 0.9810(2) 0.12334(15) 0.43397(19)
C25 C 0.9439(2) 0.13215(15) 0.4868(2)
C26 C 0.9681(2) 0.13024(17) 0.5704(2)
H10 H 1.0204 0.1212 0.6049
C27 C 0.9052(2) 0.14324(17) 0.5925(2)
H11 H 0.9066 0.1453 0.6446
C28 C 0.8349(2) 0.15351(17) 0.5233(2)
C29 C 0.7527(2) 0.16193(16) 0.4916(2)
C30 C 0.8011(2) 0.14647(15) 0.39603(19)
C31 C 0.7314(2) 0.15592(15) 0.40784(19)
C32 C 0.6736(2) 0.15986(14) 0.3305(2)
H12 H 0.6179 0.1663 0.3176
C33 C 0.7120(2) 0.15275(15) 0.2783(2)
C34 C 0.6776(2) 0.14594(15) 0.19063(19)
H13 H 0.7054 0.1747 0.1683
C35 C 0.5911(2) 0.16012(16) 0.1591(2)
C36 C 0.5324(2) 0.12862(18) 0.1711(2)
H14 H 0.5402 0.0931 0.1988
C37 C 0.4611(3) 0.1554(3) 0.1374(3)
H15 H 0.4111 0.1418 0.1378
C38 C 0.4727(3) 0.2038(2) 0.1038(3)
H16 H 0.4326 0.2306 0.0758
C39 C 1.1385(2) 0.04974(14) 0.1707(2)
C40 C 1.1072(2) 0.01363(15) 0.1070(2)
C41 C 1.0572(2) -0.03171(16) 0.1062(2)
C42 C 1.0373(3) -0.04307(18) 0.1697(3)
C43 C 1.0688(3) -0.00944(18) 0.2358(3)
C44 C 1.1177(2) 0.03576(16) 0.2351(2)
C45 C 1.1941(2) 0.19704(14) -0.14232(19)
C46 C 1.2745(2) 0.20745(16) -0.1063(2)
C47 C 1.3281(2) 0.21226(17) -0.1453(2)
C48 C 1.3005(3) 0.20412(18) -0.2252(2)
C49 C 1.2224(3) 0.19180(17) -0.2624(2)
C50 C 1.1698(2) 0.18805(15) -0.2224(2)
C51 C 0.8131(2) 0.20109(16) -0.08162(19)
C52 C 0.7774(2) 0.25414(18) -0.1018(2)
C53 C 0.6957(3) 0.2602(2) -0.1336(2)
C54 C 0.6471(3) 0.2125(2) -0.1452(2)
C55 C 0.6814(3) 0.1587(2) -0.1255(2)
C56 C 0.7630(2) 0.15385(18) -0.0950(2)
C57 C 0.6943(2) 0.08600(16) 0.1642(2)
C58 C 0.6996(2) 0.08006(17) 0.0911(2)
C59 C 0.7145(3) 0.0285(2) 0.0622(3)
C60 C 0.7264(4) -0.0194(2) 0.1062(4)
C61 C 0.7271(5) -0.0150(2) 0.1800(4)
C62 C 0.7084(4) 0.0359(2) 0.2063(3)
C63 C 0.6986(2) 0.17572(16) 0.5328(2)
C64 C 0.7237(3) 0.20617(18) 0.6030(2)
C65 C 0.6722(3) 0.22056(19) 0.6415(2)
C66 C 0.5944(3) 0.2057(2) 0.6120(3)
C67 C 0.5660(3) 0.1759(2) 0.5417(3)
C68 C 0.6179(3) 0.16178(18) 0.5043(2)
C69 C 1.0665(2) 0.10711(17) 0.46393(19)
C70 C 1.1271(3) 0.14875(19) 0.4891(2)
C71 C 1.2073(3) 0.1328(3) 0.5171(2)
C72 C 1.2267(3) 0.0754(3) 0.5216(3)
C73 C 1.1685(4) 0.0345(2) 0.4980(3)
C74 C 1.0912(3) 0.0501(2) 0.4688(3)
H17 H 0.584(3) 0.2362(18) 0.101(3)
H18 H 1.275(3) 0.030(2) 0.1169(18)
loop_
_geom_bond_atom_site_label_1
_geom_bond_atom_site_label_2
_geom_bond_site_symmetry_1
_geom_bond_site_symmetry_2
N1 C1 1_555 1_555
N2 C6 1_555 1_555
N3 C9 1_555 1_555
N4 C16 1_555 1_555
N5 C20 1_555 1_555
N6 C23 1_555 1_555
N7 C25 1_555 1_555
N8 C35 1_555 1_555
F1 C40 1_555 1_555
F2 C41 1_555 1_555
F3 C42 1_555 1_555
F4 C43 1_555 1_555
F5 C44 1_555 1_555
F6 C46 1_555 1_555
F7 C47 1_555 1_555
F8 C48 1_555 1_555
F9 C49 1_555 1_555
F10 C50 1_555 1_555
F11 C52 1_555 1_555
F12 C53 1_555 1_555
F13 C54 1_555 1_555
F14 C55 1_555 1_555
F15 C56 1_555 1_555
F16 C58 1_555 1_555
F17 C59 1_555 1_555
F18 C60 1_555 1_555
F19 C61 1_555 1_555
F20 C62 1_555 1_555
F21 C64 1_555 1_555
F22 C65 1_555 1_555
F23 C66 1_555 1_555
F24 C67 1_555 1_555
F25 C68 1_555 1_555
F26 C70 1_555 1_555
F27 C71 1_555 1_555
F28 C72 1_555 1_555
F29 C73 1_555 1_555
F30 C74 1_555 1_555
C1 H1 1_555 1_555
C2 C1 1_555 1_555
H2 C2 1_555 1_555
C3 C2 1_555 1_555
H3 C3 1_555 1_555
C4 N1 1_555 1_555
C5 C4 1_555 1_555
H4 C5 1_555 1_555
C6 C5 1_555 1_555
C7 C6 1_555 1_555
H5 C7 1_555 1_555
C8 C7 1_555 1_555
C9 N2 1_555 1_555
C10 C8 1_555 1_555
C11 N3 1_555 1_555
C12 C11 1_555 1_555
H6 C12 1_555 1_555
C13 C12 1_555 1_555
H7 C13 1_555 1_555
C14 N3 1_555 1_555
C15 C14 1_555 1_555
C16 N2 1_555 1_555
C17 C15 1_555 1_555
C18 C17 1_555 1_555
H8 C18 1_555 1_555
C19 N4 1_555 1_555
C20 C19 1_555 1_555
C21 C20 1_555 1_555
H9 C21 1_555 1_555
C22 C21 1_555 1_555
C23 N5 1_555 1_555
C24 C22 1_555 1_555
C25 C24 1_555 1_555
C26 C25 1_555 1_555
H10 C26 1_555 1_555
C27 C26 1_555 1_555
H11 C27 1_555 1_555
C28 N7 1_555 1_555
C29 C28 1_555 1_555
C30 N6 1_555 1_555
C31 C29 1_555 1_555
C32 C31 1_555 1_555
H12 C32 1_555 1_555
C33 N6 1_555 1_555
C34 C33 1_555 1_555
H13 C34 1_555 1_555
C35 C34 1_555 1_555
C36 C35 1_555 1_555
H14 C36 1_555 1_555
C37 C36 1_555 1_555
H15 C37 1_555 1_555
C38 N8 1_555 1_555
H16 C38 1_555 1_555
C39 C5 1_555 1_555
C40 C39 1_555 1_555
C41 C40 1_555 1_555
C42 C41 1_555 1_555
C43 C42 1_555 1_555
C44 C39 1_555 1_555
C45 C10 1_555 1_555
C46 C45 1_555 1_555
C47 C46 1_555 1_555
C48 C47 1_555 1_555
C49 C48 1_555 1_555
C50 C45 1_555 1_555
C51 C15 1_555 1_555
C52 C51 1_555 1_555
C53 C52 1_555 1_555
C54 C53 1_555 1_555
C55 C54 1_555 1_555
C56 C51 1_555 1_555
C57 C34 1_555 1_555
C58 C57 1_555 1_555
C59 C58 1_555 1_555
C60 C59 1_555 1_555
C61 C60 1_555 1_555
C62 C57 1_555 1_555
C63 C29 1_555 1_555
C64 C63 1_555 1_555
C65 C64 1_555 1_555
C66 C65 1_555 1_555
C67 C66 1_555 1_555
C68 C63 1_555 1_555
C69 C24 1_555 1_555
C70 C69 1_555 1_555
C71 C70 1_555 1_555
C72 C71 1_555 1_555
C73 C72 1_555 1_555
C74 C69 1_555 1_555
H17 N8 1_555 1_555
H18 N1 1_555 1_555
N7 C30 1_555 1_555
C3 C4 1_555 1_555
C8 C9 1_555 1_555
C10 C11 1_555 1_555
C13 C14 1_555 1_555
C16 C17 1_555 1_555
C18 C19 1_555 1_555
C22 C23 1_555 1_555
C27 C28 1_555 1_555
C30 C31 1_555 1_555
C32 C33 1_555 1_555
C37 C38 1_555 1_555
C43 C44 1_555 1_555
C49 C50 1_555 1_555
C55 C56 1_555 1_555
C61 C62 1_555 1_555
C67 C68 1_555 1_555
C73 C74 1_555 1_555

#END
