
#######################################################################
#
#                 Cambridge Crystallographic Data Centre
#                                CCDC 
#
#######################################################################
#
# If this CIF has been generated from an entry in the Cambridge 
# Structural Database, then it will include bibliographic, chemical, 
# crystal, experimental, refinement or atomic coordinate data resulting 
# from the CCDC's data processing and validation procedures.
#
#######################################################################

data_OSOCUV
_chemical_formula_moiety         'C8 H8 Br1 N1 O3'
_chemical_name_systematic        
'2-(3-Bromo-2-oxopyridin-1(2H)-yl)propanoic acid'
_symmetry_cell_setting           orthorhombic
_symmetry_space_group_name_H-M   'P 21 21 21'
_symmetry_Int_Tables_number      19
_space_group_name_Hall           'P 2ac 2ab'
loop_
_symmetry_equiv_pos_site_id
_symmetry_equiv_pos_as_xyz
1 x,y,z
2 1/2+x,1/2-y,-z
3 -x,1/2+y,1/2-z
4 1/2-x,-y,1/2+z
_cell_length_a                   5.4414(2)
_cell_length_b                   9.7195(5)
_cell_length_c                   16.8074(6)
_cell_angle_alpha                90
_cell_angle_beta                 90
_cell_angle_gamma                90
_cell_volume                     888.905
_exptl_crystal_colour            colorless
_exptl_crystal_description       needle
_cell_formula_units_Z            4
loop_
_atom_site_label
_atom_site_type_symbol
_atom_site_fract_x
_atom_site_fract_y
_atom_site_fract_z
Br1 Br 0.89641(5) 0.64477(3) 0.029546(18)
O1 O 0.8305(4) 0.4799(2) 0.18576(12)
O2 O 0.8769(4) 0.1632(2) 0.17518(13)
O3 O 0.7928(5) 0.1538(3) 0.30522(13)
H1 H 0.9303 0.1149 0.3081
N1 N 0.5048(4) 0.3472(3) 0.14815(14)
C1 C 0.6797(5) 0.4487(3) 0.13371(16)
C2 C 0.6627(5) 0.5085(3) 0.05503(16)
C3 C 0.4915(6) 0.4696(3) 0.00060(18)
H2 H 0.4874 0.5115 -0.0504
C4 C 0.3212(5) 0.3672(3) 0.02038(18)
H3 H 0.2007 0.3387 -0.0170
C5 C 0.3307(5) 0.3096(3) 0.09350(19)
H4 H 0.2135 0.2412 0.1073
C6 C 0.5103(6) 0.2721(3) 0.22456(17)
H5 H 0.3784 0.2007 0.2210
C7 C 0.7530(6) 0.1933(3) 0.23174(18)
C8 C 0.4445(7) 0.3623(3) 0.29557(19)
H6 H 0.5735 0.4312 0.3037
H7 H 0.4298 0.3049 0.3433
H8 H 0.2877 0.4087 0.2854
loop_
_geom_bond_atom_site_label_1
_geom_bond_atom_site_label_2
_geom_bond_site_symmetry_1
_geom_bond_site_symmetry_2
Br1 C2 1_555 1_555
O1 C1 1_555 1_555
O2 C7 1_555 1_555
O3 H1 1_555 1_555
N1 C1 1_555 1_555
C1 C2 1_555 1_555
C2 C3 1_555 1_555
C3 H2 1_555 1_555
C4 C3 1_555 1_555
H3 C4 1_555 1_555
C5 N1 1_555 1_555
H4 C5 1_555 1_555
C6 N1 1_555 1_555
H5 C6 1_555 1_555
C7 O3 1_555 1_555
C8 C6 1_555 1_555
H6 C8 1_555 1_555
H7 C8 1_555 1_555
H8 C8 1_555 1_555
C4 C5 1_555 1_555
C6 C7 1_555 1_555

#END
