
#######################################################################
#
#                 Cambridge Crystallographic Data Centre
#                                CCDC 
#
#######################################################################
#
# If this CIF has been generated from an entry in the Cambridge 
# Structural Database, then it will include bibliographic, chemical, 
# crystal, experimental, refinement or atomic coordinate data resulting 
# from the CCDC's data processing and validation procedures.
#
#######################################################################

data_OSOQIX
_chemical_formula_moiety         'C42 H57 Cl1 N6 Si2'
_chemical_name_systematic        
1,3,6,8-tetra-t-butyl-4-chloro-2,7,9,10-tetraphenyl-3,6,8,9,10-penta-aza-1-azonia-4,5-disiladispiro[3.0.3.2]dec-1-ene
_symmetry_cell_setting           monoclinic
_symmetry_space_group_name_H-M   'P 21/c'
_symmetry_Int_Tables_number      14
_space_group_name_Hall           '-P 2ybc'
loop_
_symmetry_equiv_pos_site_id
_symmetry_equiv_pos_as_xyz
1 x,y,z
2 -x,1/2+y,1/2-z
3 -x,-y,-z
4 x,1/2-y,1/2+z
_cell_length_a                   18.227(3)
_cell_length_b                   11.1383(16)
_cell_length_c                   20.935(3)
_cell_angle_alpha                90
_cell_angle_beta                 100.504(9)
_cell_angle_gamma                90
_cell_volume                     4178.95
_exptl_crystal_colour            colorless
_exptl_crystal_description       plate
_chemical_melting_point          179.1deg.C
_cell_formula_units_Z            4
_chemical_properties_physical    'air- and moisture-sensitive'
loop_
_atom_site_label
_atom_site_type_symbol
_atom_site_fract_x
_atom_site_fract_y
_atom_site_fract_z
C1 C 0.4400(4) -0.0577(6) 0.2819(3)
C2 C 0.4091(4) 0.0336(6) 0.2293(3)
H1 H 0.3580 0.0114 0.2096
H2 H 0.4405 0.0343 0.1959
H3 H 0.4092 0.1136 0.2488
C3 C 0.5204(4) -0.0235(6) 0.3110(3)
H4 H 0.5212 0.0559 0.3312
H5 H 0.5503 -0.0217 0.2765
H6 H 0.5414 -0.0829 0.3439
C4 C 0.4375(4) -0.1824(6) 0.2512(3)
H7 H 0.4614 -0.2405 0.2836
H8 H 0.4640 -0.1809 0.2145
H9 H 0.3854 -0.2058 0.2358
C5 C 0.3820(3) -0.1207(5) 0.3785(3)
C6 C 0.4129(3) -0.2440(5) 0.3896(3)
C7 C 0.4845(3) -0.2621(6) 0.4231(3)
H10 H 0.5150 -0.1948 0.4378
C8 C 0.5123(4) -0.3764(6) 0.4356(3)
H11 H 0.5613 -0.3875 0.4598
C9 C 0.4692(4) -0.4748(6) 0.4131(3)
H12 H 0.4888 -0.5536 0.4209
C10 C 0.3974(4) -0.4585(6) 0.3791(3)
H13 H 0.3677 -0.5262 0.3635
C11 C 0.3685(4) -0.3440(5) 0.3677(3)
H14 H 0.3188 -0.3331 0.3452
C12 C 0.3069(3) -0.1075(5) 0.4716(3)
C13 C 0.3542(4) -0.2049(5) 0.5107(3)
H15 H 0.3520 -0.2783 0.4846
H16 H 0.3349 -0.2214 0.5505
H17 H 0.4060 -0.1775 0.5219
C14 C 0.2271(3) -0.1530(5) 0.4475(3)
H18 H 0.1973 -0.0891 0.4232
H19 H 0.2046 -0.1763 0.4848
H20 H 0.2285 -0.2227 0.4192
C15 C 0.3053(4) -0.0010(5) 0.5174(3)
H21 H 0.3558 0.0314 0.5302
H22 H 0.2867 -0.0276 0.5561
H23 H 0.2723 0.0614 0.4951
C16 C 0.2437(3) 0.2744(5) 0.4120(3)
C17 C 0.2910(3) 0.3153(5) 0.4678(3)
H24 H 0.3283 0.2632 0.4903
C18 C 0.2845(4) 0.4316(6) 0.4912(3)
H25 H 0.3173 0.4579 0.5292
C19 C 0.2305(4) 0.5086(6) 0.4592(3)
H26 H 0.2260 0.5877 0.4749
C20 C 0.1835(4) 0.4696(6) 0.4045(3)
H27 H 0.1469 0.5229 0.3822
C21 C 0.1882(3) 0.3548(5) 0.3811(3)
H28 H 0.1539 0.3293 0.3439
C22 C 0.1172(3) 0.0965(5) 0.3600(3)
C23 C 0.1068(3) 0.1109(5) 0.4236(3)
H29 H 0.1468 0.1382 0.4559
C24 C 0.0374(4) 0.0854(5) 0.4402(3)
H30 H 0.0305 0.0962 0.4838
C25 C -0.0207(4) 0.0451(6) 0.3942(4)
H31 H -0.0675 0.0276 0.4059
C26 C -0.0106(4) 0.0298(6) 0.3300(3)
H32 H -0.0505 0.0008 0.2980
C27 C 0.0582(3) 0.0572(6) 0.3132(3)
H33 H 0.0646 0.0490 0.2693
C28 C 0.1623(4) -0.1243(6) 0.1967(3)
C29 C 0.2045(5) -0.1745(6) 0.1458(3)
H34 H 0.1901 -0.1301 0.1050
H35 H 0.1922 -0.2596 0.1384
H36 H 0.2583 -0.1660 0.1613
C30 C 0.0774(4) -0.1400(6) 0.1711(3)
H37 H 0.0495 -0.1110 0.2038
H38 H 0.0663 -0.2252 0.1623
H39 H 0.0629 -0.0938 0.1309
C31 C 0.1842(4) -0.1933(6) 0.2597(3)
H40 H 0.2380 -0.1846 0.2755
H41 H 0.1721 -0.2784 0.2521
H42 H 0.1569 -0.1615 0.2922
C32 C 0.1841(3) 0.0969(5) 0.1614(3)
H43 H 0.2190 0.0720 0.1322
C33 C 0.1092(3) 0.1330(5) 0.1210(3)
C34 C 0.0957(4) 0.1151(5) 0.0547(3)
H44 H 0.1336 0.0820 0.0343
C35 C 0.0270(4) 0.1453(6) 0.0176(3)
H45 H 0.0179 0.1323 -0.0280
C36 C -0.0280(4) 0.1940(6) 0.0468(4)
H46 H -0.0751 0.2140 0.0214
C37 C -0.0145(4) 0.2135(6) 0.1125(4)
H47 H -0.0525 0.2477 0.1324
C38 C 0.0535(4) 0.1840(5) 0.1501(3)
H48 H 0.0624 0.1984 0.1956
C39 C 0.2519(3) 0.3008(5) 0.1896(3)
C40 C 0.3021(3) 0.3518(5) 0.2492(3)
H49 H 0.2736 0.3610 0.2843
H50 H 0.3211 0.4302 0.2387
H51 H 0.3441 0.2970 0.2632
C41 C 0.1913(4) 0.3929(6) 0.1651(4)
H52 H 0.1575 0.3605 0.1272
H53 H 0.2144 0.4668 0.1527
H54 H 0.1631 0.4107 0.1996
C42 C 0.2989(4) 0.2788(6) 0.1362(3)
H55 H 0.3361 0.2164 0.1506
H56 H 0.3242 0.3533 0.1279
H57 H 0.2661 0.2527 0.0962
Cl1 Cl 0.41249(8) 0.19387(13) 0.39185(8)
N1 N 0.3928(3) -0.0471(4) 0.3325(2)
N2 N 0.3369(3) -0.0615(4) 0.4136(2)
N3 N 0.1814(3) 0.0022(4) 0.2116(2)
N4 N 0.2204(3) 0.1877(4) 0.2086(2)
N5 N 0.2484(3) 0.1538(4) 0.3915(2)
N6 N 0.1867(3) 0.1197(4) 0.3411(2)
Si1 Si 0.22733(9) 0.09025(15) 0.27294(8)
Si2 Si 0.32530(9) 0.07051(15) 0.36163(8)
loop_
_geom_bond_atom_site_label_1
_geom_bond_atom_site_label_2
_geom_bond_site_symmetry_1
_geom_bond_site_symmetry_2
C1 C2 1_555 1_555
C2 H1 1_555 1_555
H2 C2 1_555 1_555
H3 C2 1_555 1_555
C3 C1 1_555 1_555
H4 C3 1_555 1_555
H5 C3 1_555 1_555
H6 C3 1_555 1_555
C4 C1 1_555 1_555
H7 C4 1_555 1_555
H8 C4 1_555 1_555
H9 C4 1_555 1_555
C5 C6 1_555 1_555
C6 C7 1_555 1_555
C7 H10 1_555 1_555
C8 C7 1_555 1_555
H11 C8 1_555 1_555
C9 C8 1_555 1_555
H12 C9 1_555 1_555
C10 C9 1_555 1_555
H13 C10 1_555 1_555
C11 C6 1_555 1_555
H14 C11 1_555 1_555
C12 C13 1_555 1_555
C13 H15 1_555 1_555
H16 C13 1_555 1_555
H17 C13 1_555 1_555
C14 C12 1_555 1_555
H18 C14 1_555 1_555
H19 C14 1_555 1_555
H20 C14 1_555 1_555
C15 C12 1_555 1_555
H21 C15 1_555 1_555
H22 C15 1_555 1_555
H23 C15 1_555 1_555
C16 C17 1_555 1_555
C17 H24 1_555 1_555
C18 C17 1_555 1_555
H25 C18 1_555 1_555
C19 C18 1_555 1_555
H26 C19 1_555 1_555
C20 C19 1_555 1_555
H27 C20 1_555 1_555
C21 C16 1_555 1_555
H28 C21 1_555 1_555
C22 C23 1_555 1_555
C23 H29 1_555 1_555
C24 C23 1_555 1_555
H30 C24 1_555 1_555
C25 C24 1_555 1_555
H31 C25 1_555 1_555
C26 C25 1_555 1_555
H32 C26 1_555 1_555
C27 C22 1_555 1_555
H33 C27 1_555 1_555
C28 C29 1_555 1_555
C29 H34 1_555 1_555
H35 C29 1_555 1_555
H36 C29 1_555 1_555
C30 C28 1_555 1_555
H37 C30 1_555 1_555
H38 C30 1_555 1_555
H39 C30 1_555 1_555
C31 C28 1_555 1_555
H40 C31 1_555 1_555
H41 C31 1_555 1_555
H42 C31 1_555 1_555
C32 H43 1_555 1_555
C33 C32 1_555 1_555
C34 C33 1_555 1_555
H44 C34 1_555 1_555
C35 C34 1_555 1_555
H45 C35 1_555 1_555
C36 C35 1_555 1_555
H46 C36 1_555 1_555
C37 C36 1_555 1_555
H47 C37 1_555 1_555
C38 C33 1_555 1_555
H48 C38 1_555 1_555
C39 C40 1_555 1_555
C40 H49 1_555 1_555
H50 C40 1_555 1_555
H51 C40 1_555 1_555
C41 C39 1_555 1_555
H52 C41 1_555 1_555
H53 C41 1_555 1_555
H54 C41 1_555 1_555
C42 C39 1_555 1_555
H55 C42 1_555 1_555
H56 C42 1_555 1_555
H57 C42 1_555 1_555
Cl1 Si2 1_555 1_555
N1 C1 1_555 1_555
N2 C5 1_555 1_555
N3 C28 1_555 1_555
N4 C32 1_555 1_555
N5 C16 1_555 1_555
N6 C22 1_555 1_555
Si1 N3 1_555 1_555
Si2 N1 1_555 1_555
C5 N1 1_555 1_555
C10 C11 1_555 1_555
C12 N2 1_555 1_555
C20 C21 1_555 1_555
C26 C27 1_555 1_555
C32 N3 1_555 1_555
C37 C38 1_555 1_555
C39 N4 1_555 1_555
N2 Si2 1_555 1_555
N4 Si1 1_555 1_555
N5 N6 1_555 1_555
N5 Si2 1_555 1_555
N6 Si1 1_555 1_555
Si1 Si2 1_555 1_555

#END
