
#######################################################################
#
#                 Cambridge Crystallographic Data Centre
#                                CCDC 
#
#######################################################################
#
# If this CIF has been generated from an entry in the Cambridge 
# Structural Database, then it will include bibliographic, chemical, 
# crystal, experimental, refinement or atomic coordinate data resulting 
# from the CCDC's data processing and validation procedures.
#
#######################################################################

data_OSOQOD
_chemical_formula_moiety         'C44 H57 Cl1 N4 Si2,0.5(C7 H8)'
_chemical_name_systematic        
'1,3,6,8-tetra-t-butyl--4-chloro-2,7,9,10-tetraphenyl-3,6,8-triaza-1-azonia-4,5-disiladispiro[3.0.3.2]deca-1,9-diene toluene solvate'
_symmetry_cell_setting           monoclinic
_symmetry_space_group_name_H-M   'C 2/c'
_symmetry_Int_Tables_number      15
_space_group_name_Hall           '-C 2yn'
loop_
_symmetry_equiv_pos_site_id
_symmetry_equiv_pos_as_xyz
1 x,y,z
2 -x,y,1/2-z
3 1/2+x,1/2+y,z
4 1/2-x,1/2+y,1/2-z
5 -x,-y,-z
6 x,-y,1/2+z
7 1/2-x,1/2-y,-z
8 1/2+x,1/2-y,1/2+z
_cell_length_a                   38.9898(12)
_cell_length_b                   9.7439(3)
_cell_length_c                   25.3286(8)
_cell_angle_alpha                90
_cell_angle_beta                 114.058(2)
_cell_angle_gamma                90
_cell_volume                     8786.77
_exptl_crystal_colour            colorless
_exptl_crystal_description       block
_chemical_melting_point          231.6deg.C
_cell_formula_units_Z            8
_chemical_properties_physical    'air- and moisture-sensitive'
loop_
_atom_site_label
_atom_site_type_symbol
_atom_site_fract_x
_atom_site_fract_y
_atom_site_fract_z
C46 C 0.0486(2) 0.3322(8) 0.2597(3)
H59 H 0.0696 0.3252 0.2500
C47 C 0.0545(5) 0.3356(14) 0.3174(6)
H60 H 0.0789 0.3359 0.3477
C48 C 0.0225(3) 0.3384(9) 0.3281(4)
H61 H 0.0244 0.3384 0.3666
C50 C 0.0136(3) 0.3378(7) 0.2159(4)
H65 H 0.0672 0.4363 0.3165
C46A C -0.0486(2) 0.3322(8) 0.2403(3)
H59A H -0.0696 0.3252 0.2500
C47A C -0.0545(5) 0.3356(14) 0.1826(6)
H60A H -0.0789 0.3359 0.1523
C48A C -0.0225(3) 0.3384(9) 0.1719(4)
H61A H -0.0244 0.3384 0.1334
C50A C -0.0136(3) 0.3378(7) 0.2841(4)
H65A H -0.0672 0.4363 0.1835
C1 C 0.14203(6) 0.8177(2) 0.21228(9)
C2 C 0.07139(6) 0.8834(2) 0.17022(9)
C3 C 0.06243(6) 1.0263(2) 0.18619(10)
H1 H 0.0784 1.0453 0.2269
H2 H 0.0360 1.0302 0.1802
H3 H 0.0671 1.0951 0.1617
C4 C 0.04595(6) 0.8460(2) 0.10807(9)
H4 H 0.0502 0.9102 0.0816
H5 H 0.0196 0.8513 0.1028
H6 H 0.0516 0.7524 0.0999
C5 C 0.06402(7) 0.7799(3) 0.20969(10)
H7 H 0.0695 0.6871 0.2004
H8 H 0.0376 0.7854 0.2039
H9 H 0.0802 0.8009 0.2501
C6 C 0.14313(6) 0.7039(2) 0.25202(9)
C7 C 0.15063(6) 0.7290(2) 0.30945(9)
H10 H 0.1546 0.8203 0.3238
C8 C 0.15239(7) 0.6203(2) 0.34609(10)
H11 H 0.1570 0.6378 0.3853
C9 C 0.14747(7) 0.4871(2) 0.32561(10)
H12 H 0.1491 0.4131 0.3510
C10 C 0.14016(7) 0.4610(2) 0.26833(10)
H13 H 0.1368 0.3694 0.2543
C11 C 0.13779(7) 0.5692(2) 0.23148(10)
H14 H 0.1325 0.5516 0.1920
C12 C 0.21134(6) 0.8342(2) 0.23448(9)
C13 C 0.22766(6) 0.9198(2) 0.28989(9)
H15 H 0.2223 1.0171 0.2803
H16 H 0.2549 0.9060 0.3087
H17 H 0.2163 0.8910 0.3162
C14 C 0.22043(6) 0.6833(2) 0.25018(10)
H18 H 0.2124 0.6580 0.2808
H19 H 0.2476 0.6688 0.2638
H20 H 0.2072 0.6263 0.2160
C15 C 0.22912(6) 0.8765(2) 0.19313(10)
H21 H 0.2193 0.8183 0.1586
H22 H 0.2564 0.8656 0.2124
H23 H 0.2230 0.9727 0.1819
C16 C 0.09712(6) 1.0895(2) 0.07735(9)
C17 C 0.06958(6) 1.1986(2) 0.07415(9)
C18 C 0.08050(7) 1.3184(2) 0.10690(10)
H24 H 0.1061 1.3309 0.1322
C19 C 0.05459(7) 1.4195(2) 0.10309(11)
H25 H 0.0627 1.5006 0.1255
C20 C 0.01725(8) 1.4037(3) 0.06722(11)
H26 H -0.0004 1.4735 0.0647
C21 C 0.00560(7) 1.2843(3) 0.03471(10)
H27 H -0.0202 1.2717 0.0104
C22 C 0.03139(6) 1.1833(2) 0.03743(10)
H28 H 0.0231 1.1032 0.0143
C23 C 0.10073(6) 1.0438(2) 0.02891(9)
C24 C 0.07994(6) 1.0935(2) -0.03156(9)
C25 C 0.06051(6) 1.0029(3) -0.07612(10)
H29 H 0.0583 0.9093 -0.0675
C26 C 0.04421(7) 1.0478(4) -0.13336(11)
H30 H 0.0312 0.9847 -0.1635
C27 C 0.04702(8) 1.1847(4) -0.14628(12)
H31 H 0.0362 1.2152 -0.1853
C28 C 0.06543(9) 1.2754(4) -0.10271(13)
H32 H 0.0672 1.3693 -0.1115
C29 C 0.08166(8) 1.2308(3) -0.04544(11)
H33 H 0.0941 1.2951 -0.0155
C30 C 0.18119(6) 0.8380(2) 0.01304(9)
H34 H 0.2047 0.7867 0.0368
C31 C 0.14211(7) 0.6385(2) 0.02853(9)
C32 C 0.10159(7) 0.6257(3) 0.02214(12)
H35 H 0.0981 0.6822 0.0516
H36 H 0.0962 0.5296 0.0272
H37 H 0.0845 0.6572 -0.0164
C33 C 0.16863(8) 0.5835(2) 0.08759(11)
H38 H 0.1947 0.5938 0.0921
H39 H 0.1633 0.4862 0.0905
H40 H 0.1650 0.6351 0.1181
C34 C 0.14726(8) 0.5565(2) -0.01937(11)
H41 H 0.1293 0.5889 -0.0572
H42 H 0.1429 0.4589 -0.0151
H43 H 0.1729 0.5692 -0.0165
C35 C 0.17505(6) 0.8437(2) -0.05016(9)
C36 C 0.20327(7) 0.8120(2) -0.06769(10)
H44 H 0.2265 0.7772 -0.0405
C37 C 0.19781(8) 0.8310(3) -0.12555(11)
H45 H 0.2175 0.8103 -0.1372
C38 C 0.16411(8) 0.8793(2) -0.16521(10)
H46 H 0.1605 0.8929 -0.2043
C39 C 0.13546(7) 0.9081(2) -0.14827(10)
H47 H 0.1120 0.9400 -0.1759
C40 C 0.14087(7) 0.8907(2) -0.09118(10)
H48 H 0.1210 0.9110 -0.0799
C41 C 0.20480(6) 1.0919(2) 0.03968(9)
C42 C 0.24593(7) 1.0472(3) 0.06384(11)
H49 H 0.2526 1.0027 0.1014
H50 H 0.2620 1.1277 0.0685
H51 H 0.2496 0.9823 0.0371
C43 C 0.19388(8) 1.1586(2) -0.01982(10)
H52 H 0.1999 1.0959 -0.0451
H53 H 0.2079 1.2444 -0.0155
H54 H 0.1669 1.1782 -0.0368
C44 C 0.19964(7) 1.1989(2) 0.07983(10)
H55 H 0.1730 1.2228 0.0660
H56 H 0.2142 1.2813 0.0802
H57 H 0.2085 1.1614 0.1191
Cl1 Cl 0.163901(15) 1.16346(5) 0.19080(2)
N1 N 0.11082(5) 0.88612(18) 0.17532(8)
N2 N 0.17058(5) 0.86517(18) 0.20365(7)
N3 N 0.14855(5) 0.78495(18) 0.02260(8)
N4 N 0.18054(5) 0.97543(18) 0.03826(8)
Si1 Si 0.135707(16) 0.98812(6) 0.14154(2)
Si2 Si 0.143802(17) 0.93411(6) 0.05632(2)
C45? C 0.0130(3) 0.3386(7) 0.2158(4)
H58? H -0.0344 0.3351 0.2932
C49? C -0.01842(17) 0.3417(6) 0.2270(3)
H62? H 0.0086 0.3362 0.1760
C51? C -0.0562(5) 0.3462(17) 0.1831(8)
H63? H -0.0713 0.2748 0.1908
H64? H -0.0558 0.3304 0.1451
loop_
_geom_bond_atom_site_label_1
_geom_bond_atom_site_label_2
_geom_bond_site_symmetry_1
_geom_bond_site_symmetry_2
C1 C6 1_555 1_555
C2 C3 1_555 1_555
C3 H1 1_555 1_555
H2 C3 1_555 1_555
H3 C3 1_555 1_555
C4 C2 1_555 1_555
H4 C4 1_555 1_555
H5 C4 1_555 1_555
H6 C4 1_555 1_555
C5 C2 1_555 1_555
H7 C5 1_555 1_555
H8 C5 1_555 1_555
H9 C5 1_555 1_555
C6 C7 1_555 1_555
C7 H10 1_555 1_555
C8 C7 1_555 1_555
H11 C8 1_555 1_555
C9 C8 1_555 1_555
H12 C9 1_555 1_555
C10 C9 1_555 1_555
H13 C10 1_555 1_555
C11 C6 1_555 1_555
H14 C11 1_555 1_555
C12 C13 1_555 1_555
C13 H15 1_555 1_555
H16 C13 1_555 1_555
H17 C13 1_555 1_555
C14 C12 1_555 1_555
H18 C14 1_555 1_555
H19 C14 1_555 1_555
H20 C14 1_555 1_555
C15 C12 1_555 1_555
H21 C15 1_555 1_555
H22 C15 1_555 1_555
H23 C15 1_555 1_555
C16 C17 1_555 1_555
C17 C18 1_555 1_555
C18 H24 1_555 1_555
C19 C18 1_555 1_555
H25 C19 1_555 1_555
C20 C19 1_555 1_555
H26 C20 1_555 1_555
C21 C20 1_555 1_555
H27 C21 1_555 1_555
C22 C17 1_555 1_555
H28 C22 1_555 1_555
C23 C16 1_555 1_555
C24 C23 1_555 1_555
C25 C24 1_555 1_555
H29 C25 1_555 1_555
C26 C25 1_555 1_555
H30 C26 1_555 1_555
C27 C26 1_555 1_555
H31 C27 1_555 1_555
C28 C27 1_555 1_555
H32 C28 1_555 1_555
C29 C24 1_555 1_555
H33 C29 1_555 1_555
C30 H34 1_555 1_555
C31 C32 1_555 1_555
C32 H35 1_555 1_555
H36 C32 1_555 1_555
H37 C32 1_555 1_555
C33 C31 1_555 1_555
H38 C33 1_555 1_555
H39 C33 1_555 1_555
H40 C33 1_555 1_555
C34 C31 1_555 1_555
H41 C34 1_555 1_555
H42 C34 1_555 1_555
H43 C34 1_555 1_555
C35 C30 1_555 1_555
C36 C35 1_555 1_555
H44 C36 1_555 1_555
C37 C36 1_555 1_555
H45 C37 1_555 1_555
C38 C37 1_555 1_555
H46 C38 1_555 1_555
C39 C38 1_555 1_555
H47 C39 1_555 1_555
C40 C35 1_555 1_555
H48 C40 1_555 1_555
C41 C42 1_555 1_555
C42 H49 1_555 1_555
H50 C42 1_555 1_555
H51 C42 1_555 1_555
C43 C41 1_555 1_555
H52 C43 1_555 1_555
H53 C43 1_555 1_555
H54 C43 1_555 1_555
C44 C41 1_555 1_555
H55 C44 1_555 1_555
H56 C44 1_555 1_555
H57 C44 1_555 1_555
C46 H59 1_555 1_555
C47 C46 1_555 1_555
H60 C47 1_555 1_555
C48 C47 1_555 1_555
H61 C48 1_555 1_555
C50 C46 1_555 1_555
H65 C47 1_555 1_555
Cl1 Si1 1_555 1_555
N1 C1 1_555 1_555
N2 C1 1_555 1_555
N3 C30 1_555 1_555
N4 C30 1_555 1_555
Si1 C16 1_555 1_555
Si2 C23 1_555 1_555
C46A H59A 1_555 1_555
C47A C46A 1_555 1_555
H60A C47A 1_555 1_555
C48A C50 1_555 1_555
H61A C48A 1_555 1_555
C50A C48 1_555 1_555
H65A C47A 1_555 1_555
C2 N1 1_555 1_555
C10 C11 1_555 1_555
C12 N2 1_555 1_555
C21 C22 1_555 1_555
C28 C29 1_555 1_555
C31 N3 1_555 1_555
C39 C40 1_555 1_555
C41 N4 1_555 1_555
N1 Si1 1_555 1_555
N2 Si1 1_555 1_555
N3 Si2 1_555 1_555
N4 Si2 1_555 1_555
Si1 Si2 1_555 1_555
C46A C50A 1_555 1_555
C47A C48A 1_555 1_555

#END
