
#######################################################################
#
#                 Cambridge Crystallographic Data Centre
#                                CCDC 
#
#######################################################################
#
# If this CIF has been generated from an entry in the Cambridge 
# Structural Database, then it will include bibliographic, chemical, 
# crystal, experimental, refinement or atomic coordinate data resulting 
# from the CCDC's data processing and validation procedures.
#
#######################################################################

data_OSUGOZ
_chemical_formula_moiety         'C30 H28 Cl2 N2'
_chemical_name_systematic        
4-(2-Benzyl-7-chloro-1-methyl-3-phenyl-1,2,3,4-tetrahydroquinolin-4-yl)-3-chloro-N-methylaniline
_symmetry_cell_setting           monoclinic
_symmetry_space_group_name_H-M   'P 21/n'
_symmetry_Int_Tables_number      14
_space_group_name_Hall           '-P 2yn'
loop_
_symmetry_equiv_pos_site_id
_symmetry_equiv_pos_as_xyz
1 x,y,z
2 1/2-x,1/2+y,1/2-z
3 -x,-y,-z
4 1/2+x,1/2-y,1/2+z
_cell_length_a                   9.4142(9)
_cell_length_b                   16.6090(17)
_cell_length_c                   16.8295(17)
_cell_angle_alpha                90
_cell_angle_beta                 105.1730(10)
_cell_angle_gamma                90
_cell_volume                     2539.74
_exptl_crystal_colour            colorless
_exptl_crystal_description       block
_cell_formula_units_Z            4
loop_
_atom_site_label
_atom_site_type_symbol
_atom_site_fract_x
_atom_site_fract_y
_atom_site_fract_z
C1 C -0.0502(2) 0.15425(11) 0.12786(11)
C2 C -0.1716(2) 0.15331(11) 0.16020(12)
H1 H -0.2046 0.1050 0.1769
C3 C -0.2434(2) 0.22499(12) 0.16742(12)
C4 C -0.1888(2) 0.29555(12) 0.14085(13)
H2 H -0.2354 0.3443 0.1444
C5 C -0.0681(2) 0.29428(11) 0.10975(12)
H3 H -0.0353 0.3426 0.0929
C6 C 0.0079(2) 0.22352(11) 0.10225(11)
C7 C 0.1363(2) 0.22130(11) 0.06391(11)
H4 H 0.1889 0.1711 0.0830
C8 C 0.0834(2) 0.21439(11) -0.03133(12)
H5 H 0.0272 0.1641 -0.0430
C9 C 0.2184(2) 0.20333(11) -0.06539(12)
H6 H 0.1839 0.2053 -0.1256
C10 C 0.3374(2) 0.30823(11) 0.03424(12)
C11 C 0.4386(2) 0.37186(11) 0.05651(13)
H7 H 0.4947 0.3876 0.0212
C12 C 0.4548(2) 0.41088(11) 0.13065(13)
C13 C 0.3778(2) 0.38911(12) 0.18576(13)
H8 H 0.3941 0.4142 0.2367
C14 C 0.2746(2) 0.32810(12) 0.16278(12)
H9 H 0.2196 0.3135 0.1991
C15 C 0.2497(2) 0.28800(11) 0.08843(11)
C16 C 0.2897(2) 0.12006(12) -0.04195(14)
H10 H 0.3320 0.1188 0.0171
H11 H 0.2129 0.0795 -0.0551
C17 C 0.4073(2) 0.09725(11) -0.08340(13)
C18 C 0.5530(3) 0.09223(14) -0.04045(15)
H12 H 0.5807 0.1048 0.0153
C19 C 0.6590(3) 0.06861(16) -0.07930(19)
H13 H 0.7568 0.0646 -0.0493
C20 C 0.6206(3) 0.05116(15) -0.1612(2)
H14 H 0.6921 0.0359 -0.1873
C21 C 0.4773(3) 0.05619(15) -0.20454(16)
H15 H 0.4507 0.0446 -0.2606
C22 C 0.3712(3) 0.07841(14) -0.16593(14)
H16 H 0.2733 0.0807 -0.1962
C23 C -0.0200(2) 0.28100(12) -0.07411(12)
C24 C -0.1583(2) 0.25922(15) -0.12226(13)
H17 H -0.1845 0.2051 -0.1269
C25 C -0.2580(3) 0.3162(2) -0.16346(15)
H18 H -0.3493 0.3000 -0.1961
C26 C -0.2227(3) 0.3961(2) -0.15632(17)
H19 H -0.2904 0.4345 -0.1831
C27 C -0.0870(3) 0.41950(16) -0.10952(17)
H20 H -0.0624 0.4738 -0.1049
C28 C 0.0141(3) 0.36250(13) -0.06886(14)
H21 H 0.1061 0.3792 -0.0376
C29 C -0.4370(3) 0.15729(15) 0.21763(15)
H22 H -0.4661 0.1252 0.1686
H23 H -0.5225 0.1726 0.2349
H24 H -0.3719 0.1267 0.2604
C30 C 0.4138(3) 0.29163(14) -0.09368(14)
H25 H 0.3965 0.3470 -0.1095
H26 H 0.3901 0.2583 -0.1420
H27 H 0.5155 0.2844 -0.0650
Cl1 Cl 0.02797(6) 0.05979(3) 0.11802(4)
Cl2 Cl 0.58041(7) 0.49069(3) 0.15414(4)
N1 N 0.32141(18) 0.26906(10) -0.03974(10)
N2 N -0.3624(2) 0.22842(13) 0.20098(12)
H28 H -0.410(3) 0.2731(15) 0.1933(15)
loop_
_geom_bond_atom_site_label_1
_geom_bond_atom_site_label_2
_geom_bond_site_symmetry_1
_geom_bond_site_symmetry_2
C1 C2 1_555 1_555
C2 H1 1_555 1_555
C3 C2 1_555 1_555
C4 C3 1_555 1_555
H2 C4 1_555 1_555
C5 C4 1_555 1_555
H3 C5 1_555 1_555
C6 C1 1_555 1_555
C7 C6 1_555 1_555
H4 C7 1_555 1_555
C8 C7 1_555 1_555
H5 C8 1_555 1_555
C9 C8 1_555 1_555
H6 C9 1_555 1_555
C10 C11 1_555 1_555
C11 H7 1_555 1_555
C12 C11 1_555 1_555
C13 C12 1_555 1_555
H8 C13 1_555 1_555
C14 C13 1_555 1_555
H9 C14 1_555 1_555
C15 C7 1_555 1_555
C16 C9 1_555 1_555
H10 C16 1_555 1_555
H11 C16 1_555 1_555
C17 C16 1_555 1_555
C18 C17 1_555 1_555
H12 C18 1_555 1_555
C19 C18 1_555 1_555
H13 C19 1_555 1_555
C20 C19 1_555 1_555
H14 C20 1_555 1_555
C21 C20 1_555 1_555
H15 C21 1_555 1_555
C22 C17 1_555 1_555
H16 C22 1_555 1_555
C23 C8 1_555 1_555
C24 C23 1_555 1_555
H17 C24 1_555 1_555
C25 C24 1_555 1_555
H18 C25 1_555 1_555
C26 C25 1_555 1_555
H19 C26 1_555 1_555
C27 C26 1_555 1_555
H20 C27 1_555 1_555
C28 C23 1_555 1_555
H21 C28 1_555 1_555
C29 H22 1_555 1_555
H23 C29 1_555 1_555
H24 C29 1_555 1_555
C30 H25 1_555 1_555
H26 C30 1_555 1_555
H27 C30 1_555 1_555
Cl1 C1 1_555 1_555
Cl2 C12 1_555 1_555
N1 C9 1_555 1_555
N2 C3 1_555 1_555
H28 N2 1_555 1_555
C5 C6 1_555 1_555
C10 C15 1_555 1_555
C10 N1 1_555 1_555
C14 C15 1_555 1_555
C21 C22 1_555 1_555
C27 C28 1_555 1_555
C29 N2 1_555 1_555
C30 N1 1_555 1_555

#END
