
#######################################################################
#
#                 Cambridge Crystallographic Data Centre
#                                CCDC 
#
#######################################################################
#
# If this CIF has been generated from an entry in the Cambridge 
# Structural Database, then it will include bibliographic, chemical, 
# crystal, experimental, refinement or atomic coordinate data resulting 
# from the CCDC's data processing and validation procedures.
#
#######################################################################

data_OSUGAL
_chemical_formula_moiety         'C18 H19 F3 O3'
_chemical_name_systematic        
'Cyclohexyl 5-phenyl-5-(trifluoromethyl)-4,5-dihydrofuran-2-carboxylate'
_symmetry_cell_setting           monoclinic
_symmetry_space_group_name_H-M   'P 21/n'
_symmetry_Int_Tables_number      14
_space_group_name_Hall           '-P 2yn'
loop_
_symmetry_equiv_pos_site_id
_symmetry_equiv_pos_as_xyz
1 x,y,z
2 1/2-x,1/2+y,1/2-z
3 -x,-y,-z
4 1/2+x,1/2-y,1/2+z
_cell_length_a                   5.935(3)
_cell_length_b                   23.843(10)
_cell_length_c                   11.898(5)
_cell_angle_alpha                90
_cell_angle_beta                 93.864(5)
_cell_angle_gamma                90
_cell_volume                     1679.84
_exptl_crystal_colour            colorless
_exptl_crystal_description       block
_cell_formula_units_Z            4
loop_
_atom_site_label
_atom_site_type_symbol
_atom_site_fract_x
_atom_site_fract_y
_atom_site_fract_z
F1 F 0.6612(4) -0.06015(10) 0.05209(16)
F2 F 0.8482(4) -0.12465(9) 0.14312(19)
F3 F 0.5207(3) -0.10089(9) 0.19224(17)
O1 O 0.6595(3) 0.00858(8) 0.23328(16)
O2 O 0.4237(4) 0.10769(10) 0.2040(2)
O3 O 0.7142(4) 0.14408(10) 0.1152(2)
C1 C 0.8232(5) -0.03657(12) 0.2344(2)
C2 C 1.0372(5) -0.01167(14) 0.1827(3)
H1 H 1.1646 -0.0099 0.2381
H2 H 1.0791 -0.0334 0.1184
C3 C 0.9578(5) 0.04518(14) 0.1484(3)
H3 H 1.0417 0.0711 0.1103
C4 C 0.7520(5) 0.05381(12) 0.1793(2)
C5 C 0.6083(5) 0.10398(13) 0.1704(3)
C6 C 0.5965(15) 0.1976(3) 0.0817(8)
H4 H 0.4391 0.1908 0.0550
C7 C 0.6113(14) 0.2301(4) 0.1922(7)
H5 H 0.5119 0.2624 0.1846
H6 H 0.5584 0.2064 0.2512
C8 C 0.8443(18) 0.2497(3) 0.2265(7)
H7 H 0.9345 0.2176 0.2518
H8 H 0.8373 0.2751 0.2898
C9 C 0.9603(14) 0.2789(3) 0.1345(8)
H9 H 1.1156 0.2867 0.1603
H10 H 0.8858 0.3145 0.1177
C10 C 0.9568(15) 0.2439(4) 0.0282(8)
H11 H 1.0147 0.2662 -0.0317
H12 H 1.0561 0.2119 0.0412
C11 C 0.726(2) 0.2236(4) -0.0084(6)
H13 H 0.7396 0.1962 -0.0680
H14 H 0.6399 0.2550 -0.0404
C12 C 0.8618(5) -0.06025(11) 0.3523(2)
C13 C 0.7026(5) -0.05202(13) 0.4306(3)
H15 H 0.5731 -0.0313 0.4109
C14 C 0.7342(7) -0.07430(15) 0.5378(3)
H16 H 0.6263 -0.0683 0.5897
C15 C 0.9229(7) -0.10511(15) 0.5681(3)
H17 H 0.9433 -0.1202 0.6402
C16 C 1.0824(7) -0.11357(16) 0.4910(4)
H18 H 1.2113 -0.1344 0.5113
C17 C 1.0528(6) -0.09140(14) 0.3838(3)
H19 H 1.1617 -0.0974 0.3325
C18 C 0.7123(5) -0.08085(15) 0.1555(3)
C19? C 0.845(3) 0.2356(8) -0.0131(15)
C20? C 0.604(3) 0.2252(7) 0.0122(13)
C21? C 0.604(2) 0.2026(5) 0.1314(13)
C22? C 0.730(4) 0.2407(8) 0.2161(15)
C23? C 0.969(3) 0.2502(8) 0.1882(15)
C24? C 0.973(3) 0.2729(8) 0.0708(17)
H20? H 0.8468 0.2525 -0.0872
H21? H 0.9222 0.1998 -0.0156
H22? H 0.5350 0.1983 -0.0407
H23? H 0.5183 0.2599 0.0056
H24? H 0.4478 0.1978 0.1521
H25? H 0.6530 0.2765 0.2180
H26? H 0.7293 0.2240 0.2904
H27? H 1.0517 0.2151 0.1940
H28? H 1.0409 0.2766 0.2412
H29? H 1.1281 0.2762 0.0509
H30? H 0.9063 0.3101 0.0679
loop_
_geom_bond_atom_site_label_1
_geom_bond_atom_site_label_2
_geom_bond_site_symmetry_1
_geom_bond_site_symmetry_2
F1 C18 1_555 1_555
F2 C18 1_555 1_555
F3 C18 1_555 1_555
O1 C1 1_555 1_555
O2 C5 1_555 1_555
O3 C5 1_555 1_555
C1 C2 1_555 1_555
C2 H1 1_555 1_555
H2 C2 1_555 1_555
C3 C2 1_555 1_555
H3 C3 1_555 1_555
C4 O1 1_555 1_555
C5 C4 1_555 1_555
C6 O3 1_555 1_555
H4 C6 1_555 1_555
C7 C6 1_555 1_555
H5 C7 1_555 1_555
H6 C7 1_555 1_555
C8 C7 1_555 1_555
H7 C8 1_555 1_555
H8 C8 1_555 1_555
C9 C8 1_555 1_555
H9 C9 1_555 1_555
H10 C9 1_555 1_555
C10 C9 1_555 1_555
H11 C10 1_555 1_555
H12 C10 1_555 1_555
C11 C6 1_555 1_555
H13 C11 1_555 1_555
H14 C11 1_555 1_555
C12 C1 1_555 1_555
C13 C12 1_555 1_555
H15 C13 1_555 1_555
C14 C13 1_555 1_555
H16 C14 1_555 1_555
C15 C14 1_555 1_555
H17 C15 1_555 1_555
C16 C15 1_555 1_555
H18 C16 1_555 1_555
C17 C12 1_555 1_555
H19 C17 1_555 1_555
C18 C1 1_555 1_555
C3 C4 1_555 1_555
C10 C11 1_555 1_555
C16 C17 1_555 1_555

#END
