
#######################################################################
#
#                 Cambridge Crystallographic Data Centre
#                                CCDC 
#
#######################################################################
#
# If this CIF has been generated from an entry in the Cambridge 
# Structural Database, then it will include bibliographic, chemical, 
# crystal, experimental, refinement or atomic coordinate data resulting 
# from the CCDC's data processing and validation procedures.
#
#######################################################################

data_OSUWAB
_chemical_compound_source        'Buddleja daviddi'
_chemical_name_common            'Buddledin B'
_chemical_formula_moiety         'C15 H22 O2'
_chemical_name_systematic        
2-Hydroxy-4,11,11-trimethyl-8-methylenebicyclo[7.2.0]undec-4-en-3-one
_symmetry_cell_setting           orthorhombic
_symmetry_space_group_name_H-M   'P 21 21 21'
_symmetry_Int_Tables_number      19
_space_group_name_Hall           'P 2ac 2ab'
loop_
_symmetry_equiv_pos_site_id
_symmetry_equiv_pos_as_xyz
1 x,y,z
2 1/2-x,-y,1/2+z
3 -x,1/2+y,1/2-z
4 1/2+x,1/2-y,-z
_cell_length_a                   7.3908(15)
_cell_length_b                   10.802(2)
_cell_length_c                   17.116(3)
_cell_angle_alpha                90
_cell_angle_beta                 90
_cell_angle_gamma                90
_cell_volume                     1366.46
_cell_formula_units_Z            4
loop_
_atom_site_label
_atom_site_type_symbol
_atom_site_fract_x
_atom_site_fract_y
_atom_site_fract_z
O1 O 0.3100(2) 1.08933(16) 0.15847(8)
H1 H 0.3316 1.1638 0.1594
O2 O 0.4565(2) 1.23877(15) 0.25708(9)
C1 C 0.1621(2) 1.00202(18) 0.27244(10)
H2 H 0.1084 1.0763 0.2957
C2 C 0.3423(3) 1.03799(19) 0.23346(10)
H3 H 0.4189 0.9644 0.2283
C3 C 0.4385(2) 1.13381(19) 0.28331(12)
C4 C 0.4813(3) 1.1025(2) 0.36453(12)
C5 C 0.5125(2) 0.9838(2) 0.38175(12)
H4 H 0.5452 0.9323 0.3406
C6 C 0.5002(3) 0.9262(2) 0.46030(13)
H5 H 0.4962 0.9895 0.5005
H6 H 0.6043 0.8736 0.4698
C7 C 0.3251(3) 0.8490(2) 0.46138(13)
H7 H 0.3478 0.7701 0.4361
H8 H 0.2916 0.8325 0.5152
C8 C 0.1685(3) 0.9129(2) 0.42057(12)
C9 C 0.1514(3) 0.89445(19) 0.33308(11)
H9 H 0.2367 0.8297 0.3172
C10 C -0.0357(3) 0.8637(2) 0.29795(13)
H10 H -0.0552 0.7758 0.2897
H11 H -0.1359 0.9001 0.3264
C11 C 0.0142(2) 0.93432(18) 0.22324(12)
C12 C 0.0928(3) 0.8472(2) 0.16186(13)
H12 H -0.0023 0.7972 0.1403
H13 H 0.1819 0.7947 0.1857
H14 H 0.1482 0.8948 0.1210
C13 C -0.1317(3) 1.0163(2) 0.18842(14)
H15 H -0.0819 1.0632 0.1459
H16 H -0.1762 1.0719 0.2277
H17 H -0.2293 0.9658 0.1696
C14 C 0.4690(4) 1.2069(2) 0.42297(14)
H18 H 0.3468 1.2137 0.4415
H19 H 0.5041 1.2830 0.3984
H20 H 0.5482 1.1902 0.4662
C15 C 0.0512(3) 0.9804(3) 0.45997(14)
H21 H -0.0448 1.0180 0.4341
H22 H 0.0645 0.9904 0.5136
loop_
_geom_bond_atom_site_label_1
_geom_bond_atom_site_label_2
_geom_bond_site_symmetry_1
_geom_bond_site_symmetry_2
O1 H1 1_555 1_555
O2 C3 1_555 1_555
C1 H2 1_555 1_555
C2 O1 1_555 1_555
H3 C2 1_555 1_555
C3 C2 1_555 1_555
C4 C3 1_555 1_555
C5 C4 1_555 1_555
H4 C5 1_555 1_555
C6 C5 1_555 1_555
H5 C6 1_555 1_555
H6 C6 1_555 1_555
C7 C6 1_555 1_555
H7 C7 1_555 1_555
H8 C7 1_555 1_555
C8 C7 1_555 1_555
C9 C1 1_555 1_555
H9 C9 1_555 1_555
C10 C9 1_555 1_555
H10 C10 1_555 1_555
H11 C10 1_555 1_555
C11 C1 1_555 1_555
C12 C11 1_555 1_555
H12 C12 1_555 1_555
H13 C12 1_555 1_555
H14 C12 1_555 1_555
C13 C11 1_555 1_555
H15 C13 1_555 1_555
H16 C13 1_555 1_555
H17 C13 1_555 1_555
C14 C4 1_555 1_555
H18 C14 1_555 1_555
H19 C14 1_555 1_555
H20 C14 1_555 1_555
C15 C8 1_555 1_555
H21 C15 1_555 1_555
H22 C15 1_555 1_555
C1 C2 1_555 1_555
C8 C9 1_555 1_555
C10 C11 1_555 1_555

#END
