
#######################################################################
#
#                 Cambridge Crystallographic Data Centre
#                                CCDC 
#
#######################################################################
#
# If this CIF has been generated from an entry in the Cambridge 
# Structural Database, then it will include bibliographic, chemical, 
# crystal, experimental, refinement or atomic coordinate data resulting 
# from the CCDC's data processing and validation procedures.
#
#######################################################################

data_OSUWOP
_chemical_formula_moiety         'C13 H14 N2 O2 S1'
_chemical_name_systematic        
'Methyl 6-methyl-4-phenyl-2-thioxo-1,2,3,4-tetrahydropyrimidine-5-carboxylate'
_symmetry_cell_setting           monoclinic
_symmetry_space_group_name_H-M   'P 21/n'
_symmetry_Int_Tables_number      14
_space_group_name_Hall           '-P 2yn'
loop_
_symmetry_equiv_pos_site_id
_symmetry_equiv_pos_as_xyz
1 x,y,z
2 1/2-x,1/2+y,1/2-z
3 -x,-y,-z
4 1/2+x,1/2-y,1/2+z
_cell_length_a                   13.253(3)
_cell_length_b                   7.0759(14)
_cell_length_c                   14.538(3)
_cell_angle_alpha                90
_cell_angle_beta                 109.26(3)
_cell_angle_gamma                90
_cell_volume                     1287.03
_cell_formula_units_Z            4
loop_
_atom_site_label
_atom_site_type_symbol
_atom_site_fract_x
_atom_site_fract_y
_atom_site_fract_z
S1 S 0.45382(3) 0.22158(5) 0.55602(3)
O1 O 0.17181(9) 0.97329(14) 0.59191(8)
O2 O 0.07894(9) 0.75605(14) 0.64197(9)
N1 N 0.27959(10) 0.34002(17) 0.58951(9)
N2 N 0.37091(9) 0.56717(16) 0.53778(8)
C1 C 0.36369(11) 0.38685(19) 0.55922(9)
C2 C 0.28549(11) 0.70887(18) 0.52487(9)
H1 H 0.3191 0.8308 0.5486
C3 C 0.21748(11) 0.65302(19) 0.58588(9)
C4 C 0.21332(11) 0.47121(19) 0.61280(10)
C5 C 0.14594(13) 0.3879(2) 0.66747(11)
H2 H 0.1459 0.4711 0.7196
H3 H 0.1746 0.2674 0.6938
H4 H 0.0741 0.3718 0.6241
C6 C 0.15550(11) 0.8088(2) 0.60680(10)
C7 C 0.01612(15) 0.9062(2) 0.66442(14)
H5 H 0.0626 0.9914 0.7106
H6 H -0.0343 0.8527 0.6916
H7 H -0.0215 0.9738 0.6059
C8 C 0.22091(11) 0.72969(19) 0.41720(10)
C9 C 0.23908(12) 0.8826(2) 0.36465(11)
H8 H 0.2888 0.9743 0.3958
C10 C 0.18296(13) 0.8984(3) 0.26560(12)
H9 H 0.1948 1.0012 0.2306
C11 C 0.10956(13) 0.7612(3) 0.21920(11)
H10 H 0.0724 0.7716 0.1529
C12 C 0.09111(13) 0.6086(3) 0.27089(11)
H11 H 0.0419 0.5162 0.2393
C13 C 0.14598(12) 0.5934(2) 0.36980(10)
H12 H 0.1327 0.4918 0.4047
H13 H 0.2726(15) 0.2201(15) 0.6036(13)
H14 H 0.4241(10) 0.597(2) 0.5154(11)
loop_
_geom_bond_atom_site_label_1
_geom_bond_atom_site_label_2
_geom_bond_site_symmetry_1
_geom_bond_site_symmetry_2
S1 C1 1_555 1_555
O1 C6 1_555 1_555
O2 C6 1_555 1_555
N1 C1 1_555 1_555
N2 C1 1_555 1_555
C2 N2 1_555 1_555
H1 C2 1_555 1_555
C3 C2 1_555 1_555
C4 N1 1_555 1_555
C5 C4 1_555 1_555
H2 C5 1_555 1_555
H3 C5 1_555 1_555
H4 C5 1_555 1_555
C6 C3 1_555 1_555
C7 O2 1_555 1_555
H5 C7 1_555 1_555
H6 C7 1_555 1_555
H7 C7 1_555 1_555
C8 C2 1_555 1_555
C9 C8 1_555 1_555
H8 C9 1_555 1_555
C10 C9 1_555 1_555
H9 C10 1_555 1_555
C11 C10 1_555 1_555
H10 C11 1_555 1_555
C12 C11 1_555 1_555
H11 C12 1_555 1_555
C13 C8 1_555 1_555
H12 C13 1_555 1_555
H13 N1 1_555 1_555
H14 N2 1_555 1_555
C3 C4 1_555 1_555
C12 C13 1_555 1_555

#END
