
#######################################################################
#
#                 Cambridge Crystallographic Data Centre
#                                CCDC 
#
#######################################################################
#
# If this CIF has been generated from an entry in the Cambridge 
# Structural Database, then it will include bibliographic, chemical, 
# crystal, experimental, refinement or atomic coordinate data resulting 
# from the CCDC's data processing and validation procedures.
#
#######################################################################

data_OTAJOK
_chemical_name_common            (-)-epi-Muricatacin
_chemical_formula_moiety         'C17 H32 O3'
_chemical_name_systematic        5-(1-hydroxytridecyl)dihydrofuran-2(3H)-one
_symmetry_cell_setting           orthorhombic
_symmetry_space_group_name_H-M   'P 21 21 21'
_symmetry_Int_Tables_number      19
_space_group_name_Hall           'P 2ac 2ab'
loop_
_symmetry_equiv_pos_site_id
_symmetry_equiv_pos_as_xyz
1 x,y,z
2 1/2-x,-y,1/2+z
3 1/2+x,1/2-y,-z
4 -x,1/2+y,1/2-z
_cell_length_a                   5.1779(7)
_cell_length_b                   7.4861(10)
_cell_length_c                   43.432(8)
_cell_angle_alpha                90
_cell_angle_beta                 90
_cell_angle_gamma                90
_cell_volume                     1683.52
_cell_formula_units_Z            4
loop_
_atom_site_label
_atom_site_type_symbol
_atom_site_fract_x
_atom_site_fract_y
_atom_site_fract_z
C1 C -0.2429(3) -0.35451(18) -0.08198(3)
H1 H -0.0542 -0.3343 -0.0810
H2 H -0.2718 -0.4758 -0.0904
C2 C -0.3547(3) -0.34490(18) -0.04952(3)
H3 H -0.3264 -0.2232 -0.0413
H4 H -0.5435 -0.3648 -0.0507
C3 C -0.2479(3) -0.73323(18) 0.08205(3)
H5 H -0.2705 -0.8546 0.0734
H6 H -0.0602 -0.7108 0.0840
C4 C -0.3568(3) -0.47058(18) 0.00504(3)
H7 H -0.3313 -0.3488 0.0134
H8 H -0.5451 -0.4917 0.0035
C5 C -0.3021(3) -0.08625(19) -0.19045(3)
H9 H -0.3566 -0.2031 -0.1995
C6 C -0.2388(3) -0.47982(18) -0.02715(3)
H10 H -0.0506 -0.4585 -0.0256
H11 H -0.2643 -0.6016 -0.0355
C7 C -0.2422(3) -0.60511(18) 0.02751(3)
H12 H -0.0543 -0.5830 0.0293
H13 H -0.2656 -0.7268 0.0190
C8 C -0.3624(3) -0.59768(18) 0.05960(3)
H14 H -0.3383 -0.4762 0.0681
H15 H -0.5505 -0.6194 0.0578
O1 O -0.02824(18) -0.06737(12) -0.19378(2)
H16 H 0.0358 -0.1654 -0.1993
C9 C -0.3695(3) -0.72724(19) 0.11405(3)
H17 H -0.5570 -0.7512 0.1122
H18 H -0.3481 -0.6058 0.1227
C10 C -0.3622(3) -0.21804(18) -0.10373(3)
H19 H -0.3298 -0.0970 -0.0954
H20 H -0.5515 -0.2365 -0.1041
C11 C -0.3818(3) -0.08096(18) -0.15673(3)
H21 H -0.5720 -0.0923 -0.1555
H22 H -0.3346 0.0371 -0.1481
C12 C -0.2499(3) -0.8630(2) 0.13608(3)
H23 H -0.3289 -0.8504 0.1565
H24 H -0.0637 -0.8416 0.1376
H25 H -0.2805 -0.9840 0.1283
C13 C -0.2518(3) 0.14089(18) -0.25528(3)
O2 O -0.2104(2) 0.12871(13) -0.28265(2)
C14 C -0.2605(3) -0.22583(18) -0.13678(3)
H26 H -0.0706 -0.2106 -0.1366
H27 H -0.2995 -0.3445 -0.1457
O3 O -0.41412(19) 0.02762(13) -0.24127(2)
C15 C -0.4317(3) 0.06398(19) -0.20799(3)
H28 H -0.6178 0.0698 -0.2019
C16 C -0.3101(3) 0.24885(19) -0.20386(3)
H29 H -0.2037 0.2536 -0.1849
H30 H -0.4444 0.3428 -0.2028
C17 C -0.1424(3) 0.27159(18) -0.23267(3)
H31 H -0.1541 0.3951 -0.2407
H32 H 0.0406 0.2440 -0.2281
loop_
_geom_bond_atom_site_label_1
_geom_bond_atom_site_label_2
_geom_bond_site_symmetry_1
_geom_bond_site_symmetry_2
C1 H1 1_555 1_555
H2 C1 1_555 1_555
C2 C1 1_555 1_555
H3 C2 1_555 1_555
H4 C2 1_555 1_555
C3 H5 1_555 1_555
H6 C3 1_555 1_555
C4 H7 1_555 1_555
H8 C4 1_555 1_555
C5 H9 1_555 1_555
C6 C2 1_555 1_555
H10 C6 1_555 1_555
H11 C6 1_555 1_555
C7 C4 1_555 1_555
H12 C7 1_555 1_555
H13 C7 1_555 1_555
C8 C3 1_555 1_555
H14 C8 1_555 1_555
H15 C8 1_555 1_555
O1 C5 1_555 1_555
H16 O1 1_555 1_555
C9 C3 1_555 1_555
H17 C9 1_555 1_555
H18 C9 1_555 1_555
C10 C1 1_555 1_555
H19 C10 1_555 1_555
H20 C10 1_555 1_555
C11 C5 1_555 1_555
H21 C11 1_555 1_555
H22 C11 1_555 1_555
C12 C9 1_555 1_555
H23 C12 1_555 1_555
H24 C12 1_555 1_555
H25 C12 1_555 1_555
C13 O2 1_555 1_555
C14 C10 1_555 1_555
H26 C14 1_555 1_555
H27 C14 1_555 1_555
O3 C13 1_555 1_555
C15 C5 1_555 1_555
H28 C15 1_555 1_555
C16 C15 1_555 1_555
H29 C16 1_555 1_555
H30 C16 1_555 1_555
C17 C13 1_555 1_555
H31 C17 1_555 1_555
H32 C17 1_555 1_555
C4 C6 1_555 1_555
C7 C8 1_555 1_555
C11 C14 1_555 1_555
O3 C15 1_555 1_555
C16 C17 1_555 1_555

#END
