
#######################################################################
#
#                 Cambridge Crystallographic Data Centre
#                                CCDC 
#
#######################################################################
#
# If this CIF has been generated from an entry in the Cambridge 
# Structural Database, then it will include bibliographic, chemical, 
# crystal, experimental, refinement or atomic coordinate data resulting 
# from the CCDC's data processing and validation procedures.
#
#######################################################################

data_OTAJEA
_chemical_formula_moiety         'C17 H13 N3 O4 S2'
_chemical_name_systematic        
2-((methyldisulfanyl)(2-methylphenyl)carbonoimidoyl)-4-nitro-1H-isoindole-1,3(2H)-dione
_symmetry_cell_setting           tetragonal
_symmetry_space_group_name_H-M   'I 41/a'
_symmetry_Int_Tables_number      88
_space_group_name_Hall           '-I 4ad'
loop_
_symmetry_equiv_pos_site_id
_symmetry_equiv_pos_as_xyz
1 x,y,z
2 1/2-x,-y,1/2+z
3 3/4-y,1/4+x,1/4+z
4 3/4+y,3/4-x,3/4+z
5 1/2+x,1/2+y,1/2+z
6 -x,1/2-y,z
7 1/4-y,3/4+x,3/4+z
8 1/4+y,1/4-x,1/4+z
9 -x,-y,-z
10 1/2+x,y,1/2-z
11 1/4+y,3/4-x,3/4-z
12 1/4-y,1/4+x,1/4-z
13 1/2-x,1/2-y,1/2-z
14 x,1/2+y,-z
15 3/4+y,1/4-x,1/4-z
16 3/4-y,3/4+x,3/4-z
_cell_length_a                   31.162(6)
_cell_length_b                   31.162(6)
_cell_length_c                   7.615(2)
_cell_angle_alpha                90
_cell_angle_beta                 90
_cell_angle_gamma                90
_cell_volume                     7394.7
_exptl_crystal_colour            colorless
_exptl_crystal_description       Prism
_cell_formula_units_Z            16
loop_
_atom_site_label
_atom_site_type_symbol
_atom_site_fract_x
_atom_site_fract_y
_atom_site_fract_z
S1 S 0.98779(4) 0.86832(4) 1.0562(2)
S2 S 0.93995(4) 0.85320(4) 0.8861(2)
O1 O 0.91630(8) 0.95464(9) 1.1525(3)
O2 O 1.00093(9) 0.95277(10) 0.6630(4)
O3 O 0.82876(8) 0.95825(9) 1.0723(4)
O4 O 0.80386(9) 1.02053(9) 0.9922(4)
N1 N 0.96587(9) 0.94799(10) 0.9306(4)
N2 N 1.03035(9) 0.94341(10) 1.0789(4)
N3 N 0.82831(9) 0.98992(9) 0.9769(4)
C1 C 0.92546(11) 0.95844(11) 1.0004(5)
C2 C 0.90041(11) 0.97595(10) 0.8488(4)
C3 C 0.85915(11) 0.99155(11) 0.8312(5)
C4 C 0.84539(12) 1.00874(11) 0.6722(5)
H1 H 0.8172 1.0201 0.6619
C5 C 0.87278(13) 1.00923(12) 0.5294(5)
H2 H 0.8629 1.0204 0.4206
C6 C 0.91455(12) 0.99361(13) 0.5422(5)
H3 H 0.9335 0.9941 0.4444
C7 C 0.92733(11) 0.97741(11) 0.7030(5)
C8 C 0.96972(11) 0.95882(12) 0.7514(5)
C9 C 0.99750(11) 0.92470(12) 1.0248(5)
C10 C 1.06235(11) 0.91830(11) 1.1666(5)
C11 C 1.05579(13) 0.90444(13) 1.3377(5)
H4 H 1.0295 0.9102 1.3961
C12 C 1.08845(15) 0.88185(14) 1.4228(5)
H5 H 1.0841 0.8717 1.5390
C13 C 1.12685(15) 0.87429(13) 1.3392(6)
H6 H 1.1491 0.8593 1.3984
C14 C 1.13308(12) 0.88851(12) 1.1686(5)
H7 H 1.1597 0.8831 1.1121
C15 C 1.10100(11) 0.91065(11) 1.0779(5)
C16 C 1.10650(12) 0.92494(12) 0.8918(5)
H8 H 1.0861 0.9096 0.8167
H9 H 1.1358 0.9187 0.8531
H10 H 1.1012 0.9559 0.8836
C17 C 0.9707(2) 0.8406(2) 0.6717(10)
H11 H 0.9898 0.8646 0.6431
H12 H 0.9502 0.8364 0.5758
H13 H 0.9878 0.8145 0.6876
loop_
_geom_bond_atom_site_label_1
_geom_bond_atom_site_label_2
_geom_bond_site_symmetry_1
_geom_bond_site_symmetry_2
S1 S2 1_555 1_555
S2 C17 1_555 1_555
O1 C1 1_555 1_555
O2 C8 1_555 1_555
O3 N3 1_555 1_555
O4 N3 1_555 1_555
N1 C1 1_555 1_555
N2 C9 1_555 1_555
N3 C3 1_555 1_555
C1 C2 1_555 1_555
C2 C3 1_555 1_555
C3 C4 1_555 1_555
C4 H1 1_555 1_555
C5 C4 1_555 1_555
H2 C5 1_555 1_555
C6 C5 1_555 1_555
H3 C6 1_555 1_555
C7 C2 1_555 1_555
C8 N1 1_555 1_555
C9 S1 1_555 1_555
C10 N2 1_555 1_555
C11 C10 1_555 1_555
H4 C11 1_555 1_555
C12 C11 1_555 1_555
H5 C12 1_555 1_555
C13 C12 1_555 1_555
H6 C13 1_555 1_555
C14 C13 1_555 1_555
H7 C14 1_555 1_555
C15 C10 1_555 1_555
C16 C15 1_555 1_555
H8 C16 1_555 1_555
H9 C16 1_555 1_555
H10 C16 1_555 1_555
C17 H11 1_555 1_555
H12 C17 1_555 1_555
H13 C17 1_555 1_555
N1 C9 1_555 1_555
C6 C7 1_555 1_555
C7 C8 1_555 1_555
C14 C15 1_555 1_555

#END
