
#######################################################################
#
#                 Cambridge Crystallographic Data Centre
#                                CCDC 
#
#######################################################################
#
# If this CIF has been generated from an entry in the Cambridge 
# Structural Database, then it will include bibliographic, chemical, 
# crystal, experimental, refinement or atomic coordinate data resulting 
# from the CCDC's data processing and validation procedures.
#
#######################################################################

data_OTANAZ
_chemical_formula_moiety         'C36 H36 N2 O6 S3'
_chemical_name_systematic        
6-Methyl-2-((4-methylphenyl)sulfonyl)-11-(phenylsulfanyl)-4a-(phenylsulfonyl)-3,4,4a,5,7,12,12a,13,13a,13b-decahydro-1H-pyrido[1,2-j][2,8]phenanthroline-1,9(2H)-dione
_symmetry_cell_setting           triclinic
_symmetry_space_group_name_H-M   'P -1'
_symmetry_Int_Tables_number      2
_space_group_name_Hall           '-P 1'
loop_
_symmetry_equiv_pos_site_id
_symmetry_equiv_pos_as_xyz
1 x,y,z
2 -x,-y,-z
_cell_length_a                   10.6500(5)
_cell_length_b                   11.7490(6)
_cell_length_c                   15.4010(9)
_cell_angle_alpha                99.846(3)
_cell_angle_beta                 105.499(2)
_cell_angle_gamma                105.060(2)
_cell_volume                     1732.33
_exptl_crystal_colour            colorless
_exptl_crystal_description       prism
_cell_formula_units_Z            2
loop_
_atom_site_label
_atom_site_type_symbol
_atom_site_fract_x
_atom_site_fract_y
_atom_site_fract_z
C1 C 0.9165(7) 0.8731(6) 0.3393(4)
C2 C 0.9195(9) 0.9877(7) 0.3798(4)
H1 H 1.0019 1.0520 0.4035
C3 C 0.7988(14) 1.0065(11) 0.3851(5)
H2 H 0.8007 1.0837 0.4137
C4 C 0.6758(14) 0.9128(13) 0.3485(7)
H3 H 0.5943 0.9266 0.3504
C5 C 0.6749(8) 0.8002(11) 0.3097(6)
H4 H 0.5920 0.7365 0.2864
C6 C 0.7947(8) 0.7762(7) 0.3034(5)
H5 H 0.7926 0.6983 0.2762
C7 C 1.1610(8) 0.4434(5) 0.2505(4)
C8 C 1.0517(8) 0.3940(5) 0.2806(5)
H6 H 0.9623 0.3888 0.2483
C9 C 1.0813(9) 0.3523(6) 0.3616(5)
H7 H 1.0095 0.3161 0.3818
C10 C 1.2148(10) 0.3637(6) 0.4123(5)
C11 C 1.2424(11) 0.3175(8) 0.4994(6)
H8 H 1.3394 0.3319 0.5258
H9 H 1.1942 0.2316 0.4835
H10 H 1.2112 0.3597 0.5441
C12 C 1.3211(8) 0.4139(6) 0.3805(5)
H11 H 1.4111 0.4220 0.4139
C13 C 1.2936(8) 0.4525(5) 0.2983(4)
H12 H 1.3648 0.4841 0.2761
C14 C 0.9636(6) 0.6262(5) 0.1371(4)
H13 H 0.9207 0.5947 0.1800
H14 H 0.9102 0.5748 0.0748
C15 C 0.9599(6) 0.7557(5) 0.1410(4)
H15 H 0.9593 0.7717 0.0812
H16 H 0.8739 0.7598 0.1494
C16 C 1.0776(6) 0.8568(5) 0.2172(3)
C17 C 1.2140(6) 0.8415(5) 0.2121(4)
H17 H 1.2902 0.9034 0.2630
C18 C 1.2225(7) 0.7157(5) 0.2174(4)
C19 C 1.0738(7) 0.9840(5) 0.2101(4)
H18 H 0.9788 0.9826 0.1929
H19 H 1.1226 1.0407 0.2711
C20 C 1.1354(6) 1.0306(5) 0.1410(4)
C21 C 1.1092(7) 1.1473(5) 0.1238(4)
H20 H 1.0556 1.1705 0.1606
H21 H 1.0600 1.1338 0.0589
H22 H 1.1955 1.2112 0.1410
C22 C 1.2074(6) 0.9766(5) 0.1004(4)
C23 C 1.2300(7) 0.8580(5) 0.1158(4)
H23 H 1.1585 0.7904 0.0662
C24 C 1.3667(7) 0.8566(6) 0.1082(4)
H24 H 1.3836 0.7837 0.1228
H25 H 1.4383 0.9267 0.1537
C25 C 1.3747(7) 0.8595(6) 0.0109(4)
H26 H 1.4711 0.9029 0.0200
C26 C 1.2744(7) 1.0300(5) 0.0359(4)
H27 H 1.2168 1.0693 0.0005
H28 H 1.3624 1.0914 0.0721
C27 C 1.2804(6) 0.9455(5) -0.1173(4)
C28 C 1.3137(6) 0.8533(5) -0.1767(4)
H29 H 1.3169 0.8624 -0.2349
C29 C 1.3392(7) 0.7572(6) -0.1500(4)
C30 C 1.3402(8) 0.7405(5) -0.0552(4)
H30 H 1.2504 0.6885 -0.0595
H31 H 1.4073 0.7010 -0.0327
C31 C 1.3817(9) 0.6912(7) -0.3187(5)
C32 C 1.2720(9) 0.6424(7) -0.4007(5)
H32 H 1.1926 0.5838 -0.4029
C33 C 1.2801(12) 0.6809(9) -0.4806(6)
H33 H 1.2078 0.6456 -0.5366
C34 C 1.3946(13) 0.7709(10) -0.4762(6)
H34 H 1.3982 0.7976 -0.5292
C35 C 1.5022(10) 0.8215(8) -0.3966(6)
H35 H 1.5802 0.8812 -0.3953
C36 C 1.4961(10) 0.7844(8) -0.3176(5)
H36 H 1.5692 0.8217 -0.2622
S1 S 1.07137(17) 0.84623(14) 0.33372(9)
S2 S 1.12428(19) 0.48008(13) 0.14247(10)
S3 S 1.3784(3) 0.64338(18) -0.21694(14)
O1 O 1.1868(5) 0.9446(4) 0.4003(3)
O2 O 1.0617(4) 0.7239(4) 0.3393(3)
O3 O 0.9922(5) 0.4009(4) 0.0845(3)
O4 O 1.2386(5) 0.4868(4) 0.1101(3)
O5 O 1.3278(4) 0.7008(3) 0.2601(3)
O6 O 1.2439(5) 1.0257(4) -0.1462(3)
N1 N 1.1060(5) 0.6184(4) 0.1610(3)
N2 N 1.2954(5) 0.9346(4) -0.0284(3)
loop_
_geom_bond_atom_site_label_1
_geom_bond_atom_site_label_2
_geom_bond_site_symmetry_1
_geom_bond_site_symmetry_2
C1 C2 1_555 1_555
C2 H1 1_555 1_555
C3 C2 1_555 1_555
H2 C3 1_555 1_555
C4 C3 1_555 1_555
H3 C4 1_555 1_555
C5 C4 1_555 1_555
H4 C5 1_555 1_555
C6 C1 1_555 1_555
H5 C6 1_555 1_555
C7 C8 1_555 1_555
C8 H6 1_555 1_555
C9 C8 1_555 1_555
H7 C9 1_555 1_555
C10 C9 1_555 1_555
C11 C10 1_555 1_555
H8 C11 1_555 1_555
H9 C11 1_555 1_555
H10 C11 1_555 1_555
C12 C10 1_555 1_555
H11 C12 1_555 1_555
C13 C7 1_555 1_555
H12 C13 1_555 1_555
C14 H13 1_555 1_555
H14 C14 1_555 1_555
C15 C14 1_555 1_555
H15 C15 1_555 1_555
H16 C15 1_555 1_555
C16 C15 1_555 1_555
C17 C16 1_555 1_555
H17 C17 1_555 1_555
C18 C17 1_555 1_555
C19 C16 1_555 1_555
H18 C19 1_555 1_555
H19 C19 1_555 1_555
C20 C19 1_555 1_555
C21 C20 1_555 1_555
H20 C21 1_555 1_555
H21 C21 1_555 1_555
H22 C21 1_555 1_555
C22 C20 1_555 1_555
C23 C17 1_555 1_555
H23 C23 1_555 1_555
C24 C23 1_555 1_555
H24 C24 1_555 1_555
H25 C24 1_555 1_555
C25 C24 1_555 1_555
H26 C25 1_555 1_555
C26 C22 1_555 1_555
H27 C26 1_555 1_555
H28 C26 1_555 1_555
C27 C28 1_555 1_555
C28 H29 1_555 1_555
C29 C28 1_555 1_555
C30 C25 1_555 1_555
H30 C30 1_555 1_555
H31 C30 1_555 1_555
C31 C32 1_555 1_555
C32 H32 1_555 1_555
C33 C32 1_555 1_555
H33 C33 1_555 1_555
C34 C33 1_555 1_555
H34 C34 1_555 1_555
C35 C34 1_555 1_555
H35 C35 1_555 1_555
C36 C31 1_555 1_555
H36 C36 1_555 1_555
S1 C1 1_555 1_555
S2 C7 1_555 1_555
S3 C29 1_555 1_555
O1 S1 1_555 1_555
O2 S1 1_555 1_555
O3 S2 1_555 1_555
O4 S2 1_555 1_555
O5 C18 1_555 1_555
O6 C27 1_555 1_555
N1 C14 1_555 1_555
N2 C25 1_555 1_555
C5 C6 1_555 1_555
C12 C13 1_555 1_555
C16 S1 1_555 1_555
C18 N1 1_555 1_555
C22 C23 1_555 1_555
C26 N2 1_555 1_555
C27 N2 1_555 1_555
C29 C30 1_555 1_555
C31 S3 1_555 1_555
C35 C36 1_555 1_555
S2 N1 1_555 1_555

#END
