
#######################################################################
#
#                 Cambridge Crystallographic Data Centre
#                                CCDC 
#
#######################################################################
#
# If this CIF has been generated from an entry in the Cambridge 
# Structural Database, then it will include bibliographic, chemical, 
# crystal, experimental, refinement or atomic coordinate data resulting 
# from the CCDC's data processing and validation procedures.
#
#######################################################################

data_OTARAE
_chemical_formula_moiety         
'C38 H34 N10 4+,2(N1 O3 1-),2(F6 P1 1-),10(H2 O1)'
_chemical_name_systematic        
'6,12,25,31,42,47-hexaaza-3,15,22,34-tetraazonianonacyclo[34.2.2.2^17,20^.1^3,6^.1^7,11^.1^12,15^.1^22,25^.1^26,30^.1^31,34^]octatetraconta-1(38),3(48),4,7(47),8,10,13,15(46),17,19,22(43),23,26(42),27,29,32,34(41),36,39,44-icosaene bis(hexafluorophosphate) dinitrate decahydrate'
_symmetry_cell_setting           triclinic
_symmetry_space_group_name_H-M   'P -1'
_symmetry_Int_Tables_number      2
_space_group_name_Hall           '-P 1'
loop_
_symmetry_equiv_pos_site_id
_symmetry_equiv_pos_as_xyz
1 x,y,z
2 -x,-y,-z
_cell_length_a                   8.9512(18)
_cell_length_b                   10.749(2)
_cell_length_c                   12.896(3)
_cell_angle_alpha                91.96(3)
_cell_angle_beta                 92.38(3)
_cell_angle_gamma                93.96(3)
_cell_volume                     1235.92
_exptl_crystal_colour            colorless
_exptl_crystal_description       prism
_cell_formula_units_Z            1
loop_
_atom_site_label
_atom_site_type_symbol
_atom_site_fract_x
_atom_site_fract_y
_atom_site_fract_z
N1 N 0.1480(6) 0.9103(5) 0.7612(4)
N2 N 0.2241(6) 0.7882(5) 0.8770(4)
N3 N 0.1470(7) 0.5789(5) 0.8929(4)
N4 N 0.0597(7) 0.3709(5) 0.8920(4)
N5 N -0.1196(7) 0.2775(6) 0.7958(4)
C1 C 0.0676(10) 0.9585(8) 0.6705(6)
H1 H 0.0858 1.0485 0.6706
H2 H -0.0393 0.9396 0.6759
C2 C 0.1236(8) 0.8017(7) 0.7981(5)
H3 H 0.0487 0.7421 0.7742
C3 C 0.2680(9) 0.9746(7) 0.8157(6)
H4 H 0.3089 1.0546 0.8043
C4 C 0.3131(9) 0.8960(7) 0.8894(6)
H5 H 0.3907 0.9128 0.9392
C5 C 0.2382(8) 0.6734(6) 0.9310(5)
C6 C 0.3457(8) 0.6667(7) 1.0105(5)
H6 H 0.4093 0.7354 1.0324
C7 C 0.3536(9) 0.5515(7) 1.0558(6)
H7 H 0.4201 0.5428 1.1120
C8 C 0.2627(8) 0.4504(7) 1.0174(5)
H8 H 0.2694 0.3716 1.0441
C9 C 0.1620(8) 0.4711(7) 0.9379(5)
C10 C -0.0472(8) 0.3853(7) 0.8188(6)
H9 H -0.0669 0.4603 0.7890
C11 C 0.0566(9) 0.2473(6) 0.9140(6)
H10 H 0.1196 0.2114 0.9618
C12 C -0.0543(9) 0.1869(7) 0.8540(6)
H11 H -0.0818 0.1018 0.8519
C13 C -0.2492(9) 0.2555(8) 0.7219(6)
H12 H -0.2942 0.3338 0.7105
H13 H -0.3237 0.1988 0.7513
C14 C -0.2037(9) 0.2004(7) 0.6184(6)
C15 C -0.2709(9) 0.0872(7) 0.5790(6)
H14 H -0.3455 0.0456 0.6155
C16 C -0.2279(9) 0.0359(8) 0.4862(6)
H15 H -0.2733 -0.0401 0.4608
C17 C -0.1166(9) 0.0974(7) 0.4300(6)
C18 C -0.0515(11) 0.2094(8) 0.4682(7)
H16 H 0.0248 0.2499 0.4326
C19 C -0.0991(11) 0.2643(8) 0.5616(6)
H17 H -0.0596 0.3433 0.5844
N1A N -0.1480(6) 0.0897(5) 0.2388(4)
N2A N -0.2241(6) 0.2118(5) 0.1230(4)
N3A N -0.1470(7) 0.4211(5) 0.1071(4)
N4A N -0.0597(7) 0.6291(5) 0.1080(4)
N5A N 0.1196(7) 0.7225(6) 0.2042(4)
C1A C -0.0676(10) 0.0415(8) 0.3295(6)
H1A H -0.0858 -0.0485 0.3294
H2A H 0.0393 0.0604 0.3241
C2A C -0.1236(8) 0.1983(7) 0.2019(5)
H3A H -0.0487 0.2579 0.2258
C3A C -0.2680(9) 0.0254(7) 0.1843(6)
H4A H -0.3089 -0.0546 0.1957
C4A C -0.3131(9) 0.1040(7) 0.1106(6)
H5A H -0.3907 0.0872 0.0608
C5A C -0.2382(8) 0.3266(6) 0.0690(5)
C6A C -0.3457(8) 0.3333(7) -0.0105(5)
H6A H -0.4093 0.2646 -0.0324
C7A C -0.3536(9) 0.4485(7) -0.0558(6)
H7A H -0.4201 0.4572 -0.1120
C8A C -0.2627(8) 0.5496(7) -0.0174(5)
H8A H -0.2694 0.6284 -0.0441
C9A C -0.1620(8) 0.5289(7) 0.0621(5)
C10A C 0.0472(8) 0.6147(7) 0.1812(6)
H9A H 0.0669 0.5397 0.2110
C11A C -0.0566(9) 0.7527(6) 0.0860(6)
H10A H -0.1196 0.7886 0.0382
C12A C 0.0543(9) 0.8131(7) 0.1460(6)
H11A H 0.0818 0.8982 0.1481
C13A C 0.2492(9) 0.7445(8) 0.2781(6)
H12A H 0.2942 0.6662 0.2895
H13A H 0.3237 0.8012 0.2487
C14A C 0.2037(9) 0.7996(7) 0.3816(6)
C15A C 0.2709(9) 0.9128(7) 0.4210(6)
H14A H 0.3455 0.9544 0.3845
C16A C 0.2279(9) 0.9641(8) 0.5138(6)
H15A H 0.2733 1.0401 0.5392
C17A C 0.1166(9) 0.9026(7) 0.5700(6)
C18A C 0.0515(11) 0.7906(8) 0.5318(7)
H16A H -0.0248 0.7501 0.5674
C19A C 0.0991(11) 0.7357(8) 0.4384(6)
H17A H 0.0596 0.6567 0.4156
N6 N -0.2883(8) -0.0825(6) 0.8955(5)
O1 O -0.1582(6) -0.1003(5) 0.8684(5)
O2 O -0.3549(6) 0.0124(5) 0.8669(5)
O3 O -0.3519(6) -0.1557(5) 0.9553(5)
P1 P 0.3404(6) 0.3331(6) 0.6749(5)
F1 F 0.2572(14) 0.4513(8) 0.6997(11)
F2 F 0.3862(15) 0.3216(15) 0.7915(7)
F3 F 0.4864(11) 0.4157(13) 0.6586(12)
F4 F 0.2971(16) 0.3437(16) 0.5552(6)
F5 F 0.4206(13) 0.2140(11) 0.6478(14)
F6 F 0.1935(10) 0.2515(9) 0.6875(8)
P2? P 0.3228(16) 0.3106(14) 0.7158(11)
F7? F 0.229(3) 0.415(2) 0.756(2)
F8? F 0.379(2) 0.280(2) 0.8238(12)
F9? F 0.459(3) 0.409(2) 0.7074(19)
F10? F 0.272(3) 0.336(3) 0.6011(14)
F11? F 0.413(3) 0.209(2) 0.6659(19)
F12? F 0.185(2) 0.214(3) 0.721(2)
loop_
_geom_bond_atom_site_label_1
_geom_bond_atom_site_label_2
_geom_bond_site_symmetry_1
_geom_bond_site_symmetry_2
P1 F1 1_555 1_555
F2 P1 1_555 1_555
F3 P1 1_555 1_555
F4 P1 1_555 1_555
F5 P1 1_555 1_555
F6 P1 1_555 1_555
N1 C1 1_555 1_555
N2 C2 1_555 1_555
N3 C5 1_555 1_555
N4 C9 1_555 1_555
N5 C10 1_555 1_555
C1 H1 1_555 1_555
H2 C1 1_555 1_555
C2 N1 1_555 1_555
H3 C2 1_555 1_555
C3 N1 1_555 1_555
H4 C3 1_555 1_555
C4 N2 1_555 1_555
H5 C4 1_555 1_555
C5 N2 1_555 1_555
C6 C5 1_555 1_555
H6 C6 1_555 1_555
C7 C6 1_555 1_555
H7 C7 1_555 1_555
C8 C7 1_555 1_555
H8 C8 1_555 1_555
C9 N3 1_555 1_555
C10 N4 1_555 1_555
H9 C10 1_555 1_555
C11 N4 1_555 1_555
H10 C11 1_555 1_555
C12 N5 1_555 1_555
H11 C12 1_555 1_555
C13 N5 1_555 1_555
H12 C13 1_555 1_555
H13 C13 1_555 1_555
C14 C13 1_555 1_555
C15 C14 1_555 1_555
H14 C15 1_555 1_555
C16 C15 1_555 1_555
H15 C16 1_555 1_555
C17 C16 1_555 1_555
C18 C17 1_555 1_555
H16 C18 1_555 1_555
C19 C14 1_555 1_555
H17 C19 1_555 1_555
N6 O1 1_555 1_555
O2 N6 1_555 1_555
O3 N6 1_555 1_555
N1A C1A 1_555 1_555
N2A C2A 1_555 1_555
N3A C5A 1_555 1_555
N4A C9A 1_555 1_555
N5A C10A 1_555 1_555
C1A C17 1_555 1_555
H1A C1A 1_555 1_555
H2A C1A 1_555 1_555
C2A N1A 1_555 1_555
H3A C2A 1_555 1_555
C3A N1A 1_555 1_555
H4A C3A 1_555 1_555
C4A N2A 1_555 1_555
H5A C4A 1_555 1_555
C5A N2A 1_555 1_555
C6A C5A 1_555 1_555
H6A C6A 1_555 1_555
C7A C6A 1_555 1_555
H7A C7A 1_555 1_555
C8A C7A 1_555 1_555
H8A C8A 1_555 1_555
C9A N3A 1_555 1_555
C10A N4A 1_555 1_555
H9A C10A 1_555 1_555
C11A N4A 1_555 1_555
H10A C11A 1_555 1_555
C12A N5A 1_555 1_555
H11A C12A 1_555 1_555
C13A N5A 1_555 1_555
H12A C13A 1_555 1_555
H13A C13A 1_555 1_555
C14A C13A 1_555 1_555
C15A C14A 1_555 1_555
H14A C15A 1_555 1_555
C16A C15A 1_555 1_555
H15A C16A 1_555 1_555
C17A C1 1_555 1_555
C18A C17A 1_555 1_555
H16A C18A 1_555 1_555
C19A C14A 1_555 1_555
H17A C19A 1_555 1_555
C3 C4 1_555 1_555
C8 C9 1_555 1_555
C11 C12 1_555 1_555
C18 C19 1_555 1_555
C3A C4A 1_555 1_555
C8A C9A 1_555 1_555
C11A C12A 1_555 1_555
C16A C17A 1_555 1_555
C18A C19A 1_555 1_555

#END
