
#######################################################################
#
#                 Cambridge Crystallographic Data Centre
#                                CCDC 
#
#######################################################################
#
# If this CIF has been generated from an entry in the Cambridge 
# Structural Database, then it will include bibliographic, chemical, 
# crystal, experimental, refinement or atomic coordinate data resulting 
# from the CCDC's data processing and validation procedures.
#
#######################################################################

data_OTASUZ
_chemical_formula_moiety         'C18 H16 B1 Cl1 F2 N2 O1'
_chemical_name_systematic        
(2-((4-(3-chloropropoxy)phenyl)(2H-pyrrol-2-ylidene)methyl)-1H-pyrrolato)(difluoro)boron
_symmetry_cell_setting           monoclinic
_symmetry_space_group_name_H-M   'P 21/c'
_symmetry_Int_Tables_number      14
_space_group_name_Hall           '-P 2ybc'
loop_
_symmetry_equiv_pos_site_id
_symmetry_equiv_pos_as_xyz
1 x,y,z
2 -x,1/2+y,1/2-z
3 -x,-y,-z
4 x,1/2-y,1/2+z
_cell_length_a                   12.9169(14)
_cell_length_b                   9.0669(10)
_cell_length_c                   16.6006(13)
_cell_angle_alpha                90
_cell_angle_beta                 119.507(6)
_cell_angle_gamma                90
_cell_volume                     1692.03
_exptl_crystal_colour            yellow/orange
_exptl_crystal_description       block
_cell_formula_units_Z            4
loop_
_atom_site_label
_atom_site_type_symbol
_atom_site_fract_x
_atom_site_fract_y
_atom_site_fract_z
Cl1 Cl 0.32291(9) 0.64735(13) 0.07180(7)
F1 F 1.06037(15) 0.8694(2) 0.93465(13)
F2 F 0.91755(17) 0.7763(2) 0.95989(12)
O1 O 0.45759(17) 0.5646(2) 0.32761(12)
N1 N 0.85716(19) 0.9107(2) 0.81845(15)
N2 N 0.94636(18) 0.6625(3) 0.84226(15)
C1 C 0.8381(3) 1.0528(3) 0.8291(2)
H1 H 0.8773 1.1042 0.8846
C2 C 0.7527(3) 1.1125(3) 0.7466(2)
H2 H 0.7242 1.2088 0.7371
C3 C 0.7172(3) 1.0026(3) 0.6806(2)
H3 H 0.6612 1.0113 0.6182
C4 C 0.7823(2) 0.8745(3) 0.72592(17)
C5 C 0.7854(2) 0.7343(3) 0.69130(16)
C6 C 0.8674(2) 0.6295(3) 0.74994(17)
C7 C 0.8853(2) 0.4810(3) 0.7352(2)
H4 H 0.8445 0.4294 0.6798
C8 C 0.9736(3) 0.4264(4) 0.8175(2)
H5 H 1.0042 0.3311 0.8283
C9 C 1.0089(3) 0.5402(4) 0.8817(2)
H6 H 1.0678 0.5324 0.9434
C10 C 0.7027(2) 0.6965(3) 0.59416(16)
C11 C 0.7424(2) 0.6305(3) 0.53925(18)
H7 H 0.8235 0.6146 0.5633
C12 C 0.6641(2) 0.5874(3) 0.44932(18)
H8 H 0.6925 0.5449 0.4130
C13 C 0.5426(2) 0.6083(3) 0.41374(16)
C14 C 0.5015(2) 0.6770(3) 0.46638(17)
H9 H 0.4204 0.6938 0.4417
C15 C 0.5802(2) 0.7214(3) 0.55605(16)
H10 H 0.5517 0.7680 0.5911
C16 C 0.4963(3) 0.4900(4) 0.2705(2)
H11 H 0.5568 0.4176 0.3068
H12 H 0.5301 0.5604 0.2459
C17 C 0.3906(3) 0.4155(4) 0.1929(2)
H13 H 0.4168 0.3654 0.1545
H14 H 0.3627 0.3406 0.2194
C18 C 0.2908(3) 0.5089(4) 0.1338(2)
H15 H 0.2627 0.5574 0.1716
H16 H 0.2268 0.4471 0.0894
B1 B 0.9494(3) 0.8072(4) 0.8931(2)
loop_
_geom_bond_atom_site_label_1
_geom_bond_atom_site_label_2
_geom_bond_site_symmetry_1
_geom_bond_site_symmetry_2
Cl1 C18 1_555 1_555
F1 B1 1_555 1_555
F2 B1 1_555 1_555
O1 C13 1_555 1_555
N1 C1 1_555 1_555
N2 C6 1_555 1_555
C1 H1 1_555 1_555
C2 C1 1_555 1_555
H2 C2 1_555 1_555
C3 C2 1_555 1_555
H3 C3 1_555 1_555
C4 N1 1_555 1_555
C5 C4 1_555 1_555
C6 C5 1_555 1_555
C7 C6 1_555 1_555
H4 C7 1_555 1_555
C8 C7 1_555 1_555
H5 C8 1_555 1_555
C9 N2 1_555 1_555
H6 C9 1_555 1_555
C10 C5 1_555 1_555
C11 C10 1_555 1_555
H7 C11 1_555 1_555
C12 C11 1_555 1_555
H8 C12 1_555 1_555
C13 C12 1_555 1_555
C14 C13 1_555 1_555
H9 C14 1_555 1_555
C15 C10 1_555 1_555
H10 C15 1_555 1_555
C16 O1 1_555 1_555
H11 C16 1_555 1_555
H12 C16 1_555 1_555
C17 C16 1_555 1_555
H13 C17 1_555 1_555
H14 C17 1_555 1_555
C18 C17 1_555 1_555
H15 C18 1_555 1_555
H16 C18 1_555 1_555
B1 N1 1_555 1_555
N2 B1 1_555 1_555
C3 C4 1_555 1_555
C8 C9 1_555 1_555
C14 C15 1_555 1_555

#END
