
#######################################################################
#
#                 Cambridge Crystallographic Data Centre
#                                CCDC 
#
#######################################################################
#
# If this CIF has been generated from an entry in the Cambridge 
# Structural Database, then it will include bibliographic, chemical, 
# crystal, experimental, refinement or atomic coordinate data resulting 
# from the CCDC's data processing and validation procedures.
#
#######################################################################

data_OTEPUA
_chemical_formula_moiety         'C19 H16 O3'
_chemical_name_systematic        
11-methoxy-6,8-dimethylindeno[1,2-b]chromen-10(11H)-one
_symmetry_cell_setting           triclinic
_symmetry_space_group_name_H-M   'P -1'
_symmetry_Int_Tables_number      2
_space_group_name_Hall           '-P 1'
loop_
_symmetry_equiv_pos_site_id
_symmetry_equiv_pos_as_xyz
1 x,y,z
2 -x,-y,-z
_cell_length_a                   7.0903(5)
_cell_length_b                   10.2299(10)
_cell_length_c                   11.0836(10)
_cell_angle_alpha                67.824(9)
_cell_angle_beta                 77.107(7)
_cell_angle_gamma                79.532(7)
_cell_volume                     721.448
_cell_formula_units_Z            2
loop_
_atom_site_label
_atom_site_type_symbol
_atom_site_fract_x
_atom_site_fract_y
_atom_site_fract_z
C1 C 0.2079(3) 0.7020(2) 0.3724(2)
C2 C 0.1834(3) 0.8562(2) 0.3129(2)
C3 C 0.1604(3) 0.9627(2) 0.3652(2)
H1 H 0.1538 0.9409 0.4572
C4 C 0.1474(4) 1.1024(2) 0.2788(2)
H2 H 0.1303 1.1775 0.3122
C5 C 0.1592(4) 1.1337(2) 0.1447(2)
H3 H 0.1522 1.2300 0.0871
C6 C 0.1809(4) 1.0261(2) 0.0930(2)
H4 H 0.1894 1.0481 0.0008
C7 C 0.1900(3) 0.8874(2) 0.1781(2)
C8 C 0.2114(3) 0.7523(2) 0.1478(2)
H5 H 0.0918 0.7466 0.1171
C9 C 0.2243(3) 0.6387(2) 0.2831(2)
C10 C 0.2420(3) 0.4865(2) 0.3235(2)
C11 C 0.2601(3) 0.4142(2) 0.4648(2)
C12 C 0.2930(3) 0.2662(2) 0.5187(2)
H6 H 0.3016 0.2120 0.4641
C13 C 0.3134(3) 0.1967(2) 0.6500(2)
C14 C 0.3031(3) 0.2797(2) 0.7274(2)
H7 H 0.3212 0.2331 0.8168
C15 C 0.2680(3) 0.4259(2) 0.6803(2)
C16 C 0.2469(3) 0.4909(2) 0.5476(2)
C17 C 0.3541(4) 0.6787(3) -0.0343(2)
H8 H 0.3349 0.5795 0.0192
H9 H 0.4718 0.6823 -0.1012
H10 H 0.2414 0.7247 -0.0782
C18 C 0.3411(4) 0.0368(2) 0.7090(3)
H11 H 0.2146 0.0010 0.7511
H12 H 0.4265 0.0074 0.7752
H13 H 0.4003 -0.0020 0.6391
C19 C 0.2522(4) 0.5121(3) 0.7666(2)
H14 H 0.1153 0.5461 0.7893
H15 H 0.3275 0.5934 0.7191
H16 H 0.3034 0.4529 0.8476
O1 O 0.2136(2) 0.63774(15) 0.50207(14)
O2 O 0.2441(3) 0.41943(16) 0.25074(15)
O3 O 0.3751(3) 0.75136(18) 0.04899(16)
loop_
_geom_bond_atom_site_label_1
_geom_bond_atom_site_label_2
_geom_bond_site_symmetry_1
_geom_bond_site_symmetry_2
C1 C2 1_555 1_555
C2 C3 1_555 1_555
C3 H1 1_555 1_555
C4 C3 1_555 1_555
H2 C4 1_555 1_555
C5 C4 1_555 1_555
H3 C5 1_555 1_555
C6 C5 1_555 1_555
H4 C6 1_555 1_555
C7 C2 1_555 1_555
C8 C7 1_555 1_555
H5 C8 1_555 1_555
C9 C1 1_555 1_555
C10 C9 1_555 1_555
C11 C10 1_555 1_555
C12 C11 1_555 1_555
H6 C12 1_555 1_555
C13 C12 1_555 1_555
C14 C13 1_555 1_555
H7 C14 1_555 1_555
C15 C14 1_555 1_555
C16 C11 1_555 1_555
C17 H8 1_555 1_555
H9 C17 1_555 1_555
H10 C17 1_555 1_555
C18 C13 1_555 1_555
H11 C18 1_555 1_555
H12 C18 1_555 1_555
H13 C18 1_555 1_555
C19 C15 1_555 1_555
H14 C19 1_555 1_555
H15 C19 1_555 1_555
H16 C19 1_555 1_555
O1 C1 1_555 1_555
O2 C10 1_555 1_555
O3 C8 1_555 1_555
C6 C7 1_555 1_555
C8 C9 1_555 1_555
C15 C16 1_555 1_555
C16 O1 1_555 1_555
C17 O3 1_555 1_555

#END
