
#######################################################################
#
#                 Cambridge Crystallographic Data Centre
#                                CCDC 
#
#######################################################################
#
# If this CIF has been generated from an entry in the Cambridge 
# Structural Database, then it will include bibliographic, chemical, 
# crystal, experimental, refinement or atomic coordinate data resulting 
# from the CCDC's data processing and validation procedures.
#
#######################################################################

data_OTEQEL
_chemical_formula_moiety         'C29 H21 Br1 N2 O4'
_chemical_name_systematic        
"methyl 4-(2-bromophenyl)-3-cyano-6-methyl-2-phenyl-3a,4-dihydrofuro[2',3':4,5]pyrano[2,3-b]indole-10c(6H)-carboxylate"
_symmetry_cell_setting           orthorhombic
_symmetry_space_group_name_H-M   'P 21 21 21'
_symmetry_Int_Tables_number      19
_space_group_name_Hall           'P 2ac 2ab'
loop_
_symmetry_equiv_pos_site_id
_symmetry_equiv_pos_as_xyz
1 x,y,z
2 1/2-x,-y,1/2+z
3 -x,1/2+y,1/2-z
4 1/2+x,1/2-y,-z
_cell_length_a                   7.08473(14)
_cell_length_b                   16.7619(4)
_cell_length_c                   22.0850(6)
_cell_angle_alpha                90
_cell_angle_beta                 90
_cell_angle_gamma                90
_cell_volume                     2622.67
_exptl_crystal_colour            colorless
_exptl_crystal_description       plate
_cell_formula_units_Z            4
loop_
_atom_site_label
_atom_site_type_symbol
_atom_site_fract_x
_atom_site_fract_y
_atom_site_fract_z
Br1 Br 0.95197(14) 0.59054(6) 0.46685(7)
O1 O 0.6223(7) 0.4196(3) 0.33395(18)
O2 O 0.5008(6) 0.4228(2) 0.50947(16)
N1 N 0.5015(7) 0.2826(3) 0.5097(2)
O3 O 0.3131(12) 0.3605(4) 0.2899(3)
O4 O 0.1333(9) 0.4179(4) 0.3606(3)
C1 C 0.5006(7) 0.2230(3) 0.4676(3)
C2 C 0.4979(8) 0.2574(4) 0.4089(3)
C3 C 0.2828(12) 0.3991(4) 0.3417(3)
C4 C 0.5034(9) 0.1403(4) 0.4755(3)
H1 H 0.5069 0.1179 0.5141
C5 C 0.4992(8) 0.3529(3) 0.4793(2)
C6 C 0.4992(9) 0.2083(4) 0.3582(3)
H2 H 0.5002 0.2298 0.3194
C7 C 0.5762(8) 0.4853(3) 0.4710(2)
H3 H 0.7078 0.4728 0.4612
C8 C 0.4664(8) 0.4108(3) 0.3769(2)
C9 C 0.4951(8) 0.3418(3) 0.4177(2)
C10 C 0.7722(13) 0.5187(5) 0.2737(3)
C11 C 0.6514(10) 0.4978(4) 0.3252(3)
C12 C 0.5704(10) 0.5617(3) 0.5070(3)
C13 C 0.7246(14) 0.6129(4) 0.5100(4)
C14 C 0.5561(10) 0.5441(4) 0.3656(3)
C15 C 0.4991(11) 0.1268(4) 0.3669(4)
H4 H 0.4977 0.0933 0.3333
C16 C 0.5009(11) 0.0931(4) 0.4248(4)
H5 H 0.5004 0.0379 0.4290
N2 N 0.5410(19) 0.6961(4) 0.3659(4)
C17 C 0.4618(9) 0.4900(3) 0.4120(2)
H6 H 0.3317 0.5070 0.4198
C18 C 0.5516(14) 0.6287(4) 0.3661(3)
C19 C 0.7545(15) 0.4726(6) 0.2209(3)
H7 H 0.6665 0.4315 0.2194
C20 C 0.5017(10) 0.2738(4) 0.5757(3)
H8 H 0.3742 0.2688 0.5899
H9 H 0.5594 0.3198 0.5938
H10 H 0.5717 0.2269 0.5867
C21 C 0.4067(13) 0.5826(5) 0.5373(3)
H11 H 0.3017 0.5495 0.5349
C22 C 0.718(3) 0.6815(5) 0.5441(5)
H12 H 0.8231 0.7145 0.5471
C23 C 0.397(2) 0.6519(6) 0.5711(4)
H13 H 0.2862 0.6650 0.5914
C24 C 0.8966(19) 0.5794(6) 0.2770(5)
H14 H 0.9052 0.6115 0.3113
C25 C 0.866(2) 0.4877(8) 0.1719(4)
H15 H 0.8534 0.4573 0.1369
C26 C 0.997(2) 0.5484(7) 0.1747(5)
H16 H 1.0723 0.5590 0.1413
C27 C 0.549(3) 0.7008(6) 0.5745(5)
H17 H 0.5415 0.7475 0.5972
C28 C 0.142(2) 0.3359(9) 0.2567(6)
H18 H 0.1701 0.2906 0.2318
H19 H 0.0992 0.3792 0.2317
H20 H 0.0445 0.3221 0.2851
C29 C 1.016(2) 0.5924(7) 0.2248(7)
H21 H 1.1080 0.6319 0.2262
loop_
_geom_bond_atom_site_label_1
_geom_bond_atom_site_label_2
_geom_bond_site_symmetry_1
_geom_bond_site_symmetry_2
Br1 C13 1_555 1_555
O1 C8 1_555 1_555
O2 C5 1_555 1_555
N1 C1 1_555 1_555
O3 C3 1_555 1_555
O4 C3 1_555 1_555
C1 C2 1_555 1_555
C2 C6 1_555 1_555
C3 C8 1_555 1_555
C4 C1 1_555 1_555
H1 C4 1_555 1_555
C5 N1 1_555 1_555
C6 H2 1_555 1_555
C7 O2 1_555 1_555
H3 C7 1_555 1_555
C8 C9 1_555 1_555
C9 C2 1_555 1_555
C10 C11 1_555 1_555
C11 O1 1_555 1_555
C12 C7 1_555 1_555
C13 C12 1_555 1_555
C14 C11 1_555 1_555
C15 C6 1_555 1_555
H4 C15 1_555 1_555
C16 C4 1_555 1_555
H5 C16 1_555 1_555
N2 C18 1_555 1_555
C17 C7 1_555 1_555
H6 C17 1_555 1_555
C18 C14 1_555 1_555
C19 C10 1_555 1_555
H7 C19 1_555 1_555
C20 N1 1_555 1_555
H8 C20 1_555 1_555
H9 C20 1_555 1_555
H10 C20 1_555 1_555
C21 C12 1_555 1_555
H11 C21 1_555 1_555
C22 C13 1_555 1_555
H12 C22 1_555 1_555
C23 C21 1_555 1_555
H13 C23 1_555 1_555
C24 C10 1_555 1_555
H14 C24 1_555 1_555
C25 C19 1_555 1_555
H15 C25 1_555 1_555
C26 C25 1_555 1_555
H16 C26 1_555 1_555
C27 C22 1_555 1_555
H17 C27 1_555 1_555
C28 O3 1_555 1_555
H18 C28 1_555 1_555
H19 C28 1_555 1_555
H20 C28 1_555 1_555
C29 C24 1_555 1_555
H21 C29 1_555 1_555
C5 C9 1_555 1_555
C8 C17 1_555 1_555
C14 C17 1_555 1_555
C15 C16 1_555 1_555
C23 C27 1_555 1_555
C26 C29 1_555 1_555

#END
