
#######################################################################
#
#                 Cambridge Crystallographic Data Centre
#                                CCDC 
#
#######################################################################
#
# If this CIF has been generated from an entry in the Cambridge 
# Structural Database, then it will include bibliographic, chemical, 
# crystal, experimental, refinement or atomic coordinate data resulting 
# from the CCDC's data processing and validation procedures.
#
#######################################################################

data_OTIBIE
_chemical_formula_moiety         'C22 H24 N2 O2'
_chemical_name_systematic        
meso-3,3'-diethyl-1,1'-dimethyl-1,1',3,3'-tetrahydro-2H,2'H-3,3'-biindole-2,2'-dione
_symmetry_cell_setting           triclinic
_symmetry_space_group_name_H-M   'P -1'
_symmetry_Int_Tables_number      2
_space_group_name_Hall           '-P 1'
loop_
_symmetry_equiv_pos_site_id
_symmetry_equiv_pos_as_xyz
1 x,y,z
2 -x,-y,-z
_cell_length_a                   9.4924(12)
_cell_length_b                   13.7707(16)
_cell_length_c                   15.835(2)
_cell_angle_alpha                107.369(11)
_cell_angle_beta                 102.785(11)
_cell_angle_gamma                92.675(10)
_cell_volume                     1912.36
_exptl_crystal_colour            colorless
_exptl_crystal_description       block
_cell_formula_units_Z            4
loop_
_atom_site_label
_atom_site_type_symbol
_atom_site_fract_x
_atom_site_fract_y
_atom_site_fract_z
O1 O 0.6913(3) 1.0890(2) 0.1578(2)
O2 O 0.5965(3) 0.9353(2) 0.26973(19)
N1 N 0.6805(3) 1.1591(2) 0.3078(2)
N2 N 0.3638(3) 0.9211(2) 0.2880(2)
C1 C 0.5722(4) 1.1849(3) 0.3547(3)
C2 C 0.5898(6) 1.2328(3) 0.4469(3)
H1 H 0.6815 1.2495 0.4872
C3 C 0.4654(7) 1.2550(4) 0.4767(4)
H2 H 0.4733 1.2861 0.5386
C4 C 0.3295(6) 1.2322(3) 0.4169(4)
H3 H 0.2477 1.2499 0.4385
C5 C 0.3146(5) 1.1832(3) 0.3247(3)
H4 H 0.2230 1.1673 0.2843
C6 C 0.4364(4) 1.1581(3) 0.2934(3)
C7 C 0.4546(3) 1.1031(3) 0.1987(2)
C8 C 0.6222(4) 1.1134(3) 0.2163(3)
C9 C 0.3911(4) 1.1535(3) 0.1274(3)
H5 H 0.2860 1.1466 0.1172
H6 H 0.4140 1.1175 0.0703
C10 C 0.4480(4) 1.2675(3) 0.1547(3)
H7 H 0.4059 1.2941 0.1065
H8 H 0.5520 1.2752 0.1649
H9 H 0.4216 1.3044 0.2096
C11 C 0.8343(4) 1.1658(4) 0.3492(3)
H10 H 0.8493 1.1182 0.3831
H11 H 0.8688 1.2341 0.3897
H12 H 0.8867 1.1494 0.3024
C12 C 0.2245(4) 0.9348(3) 0.2427(3)
C13 C 0.0947(4) 0.9158(3) 0.2625(3)
H13 H 0.0901 0.8917 0.3109
C14 C -0.0292(4) 0.9341(3) 0.2075(3)
H14 H -0.1187 0.9232 0.2200
C15 C -0.0236(4) 0.9682(3) 0.1342(3)
H15 H -0.1086 0.9796 0.0979
C16 C 0.1101(3) 0.9854(3) 0.1154(3)
H16 H 0.1149 1.0064 0.0654
C17 C 0.2354(3) 0.9710(3) 0.1714(3)
C18 C 0.3932(3) 0.9853(3) 0.1696(2)
C19 C 0.4674(4) 0.9443(3) 0.2468(3)
C20 C 0.4223(4) 0.9208(3) 0.0789(3)
H17 H 0.3726 0.9456 0.0304
H18 H 0.5258 0.9300 0.0830
C21 C 0.3720(4) 0.8068(3) 0.0543(3)
H19 H 0.3878 0.7709 -0.0043
H20 H 0.2703 0.7972 0.0521
H21 H 0.4264 0.7804 0.0996
C22 C 0.3973(5) 0.8917(4) 0.3698(3)
H22 H 0.4964 0.8772 0.3817
H23 H 0.3335 0.8317 0.3616
H24 H 0.3842 0.9467 0.4204
O3 O 0.9639(3) 0.6582(2) 0.47408(18)
O4 O 1.1579(3) 0.6865(2) 0.33370(19)
N3 N 0.8448(3) 0.7034(2) 0.3512(2)
N4 N 1.1436(3) 0.5631(2) 0.1965(2)
C23 C 0.7856(3) 0.6547(3) 0.2575(3)
C24 C 0.7084(4) 0.6952(3) 0.1940(3)
H25 H 0.6916 0.7635 0.2103
C25 C 0.6569(4) 0.6305(4) 0.1050(3)
H26 H 0.6072 0.6562 0.0603
C26 C 0.6784(4) 0.5281(4) 0.0818(3)
H27 H 0.6409 0.4856 0.0220
C27 C 0.7552(3) 0.4877(3) 0.1462(3)
H28 H 0.7684 0.4187 0.1305
C28 C 0.8116(3) 0.5527(3) 0.2346(2)
C29 C 0.9006(3) 0.5329(3) 0.3182(2)
C30 C 0.9116(4) 0.6371(3) 0.3923(3)
C31 C 0.8223(4) 0.4509(3) 0.3455(3)
H29 H 0.8092 0.3858 0.2972
H30 H 0.8838 0.4431 0.4002
C32 C 0.6748(4) 0.4756(3) 0.3630(3)
H31 H 0.6156 0.4887 0.3109
H32 H 0.6879 0.5351 0.4157
H33 H 0.6277 0.4185 0.3734
C33 C 0.8437(5) 0.8111(3) 0.3987(3)
H34 H 0.8506 0.8503 0.3585
H35 H 0.9250 0.8338 0.4511
H36 H 0.7549 0.8204 0.4180
C34 C 1.0994(4) 0.4572(3) 0.1577(3)
C35 C 1.1026(4) 0.3950(3) 0.0722(3)
H37 H 1.1357 0.4213 0.0314
C36 C 1.0548(4) 0.2923(4) 0.0493(3)
H38 H 1.0546 0.2488 -0.0083
C37 C 1.0077(4) 0.2524(3) 0.1090(3)
H39 H 0.9769 0.1827 0.0920
C38 C 1.0060(4) 0.3161(3) 0.1950(3)
H40 H 0.9754 0.2890 0.2361
C39 C 1.0499(3) 0.4200(3) 0.2197(3)
C40 C 1.0566(3) 0.5080(3) 0.3057(2)
C41 C 1.1249(3) 0.5981(3) 0.2826(3)
C42 C 1.1589(3) 0.4948(3) 0.3904(3)
H41 H 1.1628 0.5547 0.4426
H42 H 1.1190 0.4358 0.4028
C43 C 1.3130(4) 0.4803(3) 0.3802(3)
H43 H 1.3114 0.4174 0.3327
H44 H 1.3732 0.4779 0.4367
H45 H 1.3515 0.5366 0.3647
C44 C 1.2067(5) 0.6277(4) 0.1534(3)
H46 H 1.3022 0.6104 0.1490
H47 H 1.2134 0.6983 0.1894
H48 H 1.1463 0.6171 0.0934
loop_
_geom_bond_atom_site_label_1
_geom_bond_atom_site_label_2
_geom_bond_site_symmetry_1
_geom_bond_site_symmetry_2
O1 C8 1_555 1_555
O2 C19 1_555 1_555
N1 C1 1_555 1_555
N2 C12 1_555 1_555
C1 C2 1_555 1_555
C2 H1 1_555 1_555
C3 C2 1_555 1_555
H2 C3 1_555 1_555
C4 C3 1_555 1_555
H3 C4 1_555 1_555
C5 C4 1_555 1_555
H4 C5 1_555 1_555
C6 C1 1_555 1_555
C7 C6 1_555 1_555
C8 N1 1_555 1_555
C9 C7 1_555 1_555
H5 C9 1_555 1_555
H6 C9 1_555 1_555
C10 C9 1_555 1_555
H7 C10 1_555 1_555
H8 C10 1_555 1_555
H9 C10 1_555 1_555
C11 N1 1_555 1_555
H10 C11 1_555 1_555
H11 C11 1_555 1_555
H12 C11 1_555 1_555
C12 C13 1_555 1_555
C13 H13 1_555 1_555
C14 C13 1_555 1_555
H14 C14 1_555 1_555
C15 C14 1_555 1_555
H15 C15 1_555 1_555
C16 C15 1_555 1_555
H16 C16 1_555 1_555
C17 C12 1_555 1_555
C18 C7 1_555 1_555
C19 N2 1_555 1_555
C20 C18 1_555 1_555
H17 C20 1_555 1_555
H18 C20 1_555 1_555
C21 C20 1_555 1_555
H19 C21 1_555 1_555
H20 C21 1_555 1_555
H21 C21 1_555 1_555
C22 N2 1_555 1_555
H22 C22 1_555 1_555
H23 C22 1_555 1_555
H24 C22 1_555 1_555
O3 C30 1_555 1_555
O4 C41 1_555 1_555
N3 C23 1_555 1_555
N4 C34 1_555 1_555
C23 C24 1_555 1_555
C24 H25 1_555 1_555
C25 C24 1_555 1_555
H26 C25 1_555 1_555
C26 C25 1_555 1_555
H27 C26 1_555 1_555
C27 C26 1_555 1_555
H28 C27 1_555 1_555
C28 C23 1_555 1_555
C29 C28 1_555 1_555
C30 N3 1_555 1_555
C31 C29 1_555 1_555
H29 C31 1_555 1_555
H30 C31 1_555 1_555
C32 C31 1_555 1_555
H31 C32 1_555 1_555
H32 C32 1_555 1_555
H33 C32 1_555 1_555
C33 N3 1_555 1_555
H34 C33 1_555 1_555
H35 C33 1_555 1_555
H36 C33 1_555 1_555
C34 C35 1_555 1_555
C35 H37 1_555 1_555
C36 C35 1_555 1_555
H38 C36 1_555 1_555
C37 C36 1_555 1_555
H39 C37 1_555 1_555
C38 C37 1_555 1_555
H40 C38 1_555 1_555
C39 C34 1_555 1_555
C40 C29 1_555 1_555
C41 N4 1_555 1_555
C42 C40 1_555 1_555
H41 C42 1_555 1_555
H42 C42 1_555 1_555
C43 C42 1_555 1_555
H43 C43 1_555 1_555
H44 C43 1_555 1_555
H45 C43 1_555 1_555
C44 N4 1_555 1_555
H46 C44 1_555 1_555
H47 C44 1_555 1_555
H48 C44 1_555 1_555
C5 C6 1_555 1_555
C7 C8 1_555 1_555
C16 C17 1_555 1_555
C17 C18 1_555 1_555
C18 C19 1_555 1_555
C27 C28 1_555 1_555
C29 C30 1_555 1_555
C38 C39 1_555 1_555
C39 C40 1_555 1_555
C40 C41 1_555 1_555

#END
