
#######################################################################
#
#                 Cambridge Crystallographic Data Centre
#                                CCDC 
#
#######################################################################
#
# If this CIF has been generated from an entry in the Cambridge 
# Structural Database, then it will include bibliographic, chemical, 
# crystal, experimental, refinement or atomic coordinate data resulting 
# from the CCDC's data processing and validation procedures.
#
#######################################################################

data_OTIGOP
_chemical_compound_source        'leaves of Rhodomyrtus tomentosa'
_chemical_name_common            'Rhodomyrtial A'
_chemical_formula_moiety         'C45 H68 O6'
_chemical_name_systematic        
4,10'-diisobutyl-2',2',4a',6,6,6',6',8,8,8',8'-undecamethyl-2a',3',4,4',4a',6',8,10',10a',11',12',13a'-dodecahydro-2'H-spiro[chromene-2,13'-cyclobuta[6,7]cyclonona[1,2-b]chromene]-5,7,7',9'(1'H,3H,6H,8'H)-tetrone
_symmetry_cell_setting           orthorhombic
_symmetry_space_group_name_H-M   'P 21 21 21'
_symmetry_Int_Tables_number      19
_space_group_name_Hall           'P 2ac 2ab'
loop_
_symmetry_equiv_pos_site_id
_symmetry_equiv_pos_as_xyz
1 x,y,z
2 1/2-x,-y,1/2+z
3 1/2+x,1/2-y,-z
4 -x,1/2+y,1/2-z
_cell_length_a                   9.6502(3)
_cell_length_b                   13.9527(6)
_cell_length_c                   31.7405(10)
_cell_angle_alpha                90
_cell_angle_beta                 90
_cell_angle_gamma                90
_cell_volume                     4273.74
_exptl_crystal_colour            colorless
_exptl_crystal_description       block
_chemical_melting_point          '209-212 deg.C'
_cell_formula_units_Z            4
_exptl_crystal_recrystallization_method ethanol/water
loop_
_atom_site_label
_atom_site_type_symbol
_atom_site_fract_x
_atom_site_fract_y
_atom_site_fract_z
O1 O 0.7199(3) 0.17920(19) 0.85857(8)
O2 O 0.2410(4) -0.1081(3) 0.93563(9)
O3 O 0.9956(3) 0.4449(2) 0.89266(10)
O4 O 0.0940(4) -0.1412(3) 0.79615(10)
C1 C 0.8336(4) 0.2361(3) 0.85489(11)
C2 C 0.3707(4) -0.0154(3) 0.88390(11)
H1 H 0.3005 0.0343 0.8885
C3 C 0.1891(4) -0.1314(3) 0.86336(12)
C4 C 0.6255(4) 0.1982(3) 0.89361(11)
C5 C 0.4919(4) 0.1459(3) 0.88187(12)
H2 H 0.4255 0.1552 0.9044
H3 H 0.4539 0.1758 0.8568
C6 C 0.0894(4) -0.1666(3) 0.83258(13)
C7 C 0.8415(4) 0.3246(3) 0.87085(12)
C8 C 0.5961(4) 0.1274(3) 0.97189(11)
H4 H 0.5186 0.1726 0.9737
C9 C 0.3142(4) -0.0772(3) 0.84754(11)
H5 H 0.2794 -0.0321 0.8263
C10 C 0.5053(4) 0.0396(3) 0.87374(12)
H6 H 0.5801 0.0141 0.8908
H7 H 0.5291 0.0294 0.8444
C11 C 0.5961(4) 0.3046(3) 0.89558(14)
H8 H 0.5483 0.3177 0.9219
H9 H 0.5327 0.3203 0.8729
C12 C 0.1620(5) -0.1430(3) 0.90435(12)
C13 C 0.4184(4) -0.1431(3) 0.82430(12)
H10 H 0.5109 -0.1288 0.8345
H11 H 0.3981 -0.2091 0.8317
C14 C 0.9727(4) 0.3769(3) 0.86908(12)
C15 C 0.9469(5) 0.1830(3) 0.83178(14)
C16 C 1.0780(4) 0.3485(4) 0.83517(13)
C17 C 0.7213(4) 0.3729(3) 0.89260(12)
H12 H 0.7500 0.3899 0.9212
C18 C 0.3804(5) -0.0694(3) 0.92588(12)
C19 C 0.6793(4) 0.4649(3) 0.86958(14)
H13 H 0.6513 0.4485 0.8411
H14 H 0.7596 0.5064 0.8676
C20 C 0.5613(5) 0.5204(3) 0.89075(16)
H15 H 0.4842 0.4758 0.8952
O5 O 1.1852(4) 0.2030(3) 0.8176(2)
C21 C 0.6885(4) 0.1536(3) 0.93331(11)
H16 H 0.7395 0.0960 0.9249
C22 C 0.5434(5) 0.0257(3) 0.97952(13)
H17 H 0.6087 -0.0179 0.9663
H18 H 0.5478 0.0140 1.0096
C23 C 0.7162(4) 0.1617(3) 1.00139(12)
C24 C 0.4768(6) -0.1539(3) 0.92599(14)
H19 H 0.4806 -0.1808 0.9538
H20 H 0.5678 -0.1335 0.9177
H21 H 0.4435 -0.2014 0.9066
C25 C 0.3986(5) -0.0028(4) 0.96477(12)
H22 H 0.3482 0.0559 0.9590
H23 H 0.3527 -0.0336 0.9884
C26 C 1.0791(5) 0.2422(4) 0.82793(17)
C27 C -0.0189(5) -0.2391(4) 0.84565(15)
C28 C 0.0357(5) -0.1907(4) 0.92335(14)
O6 O -0.1832(5) -0.2403(5) 0.90017(16)
C29 C 1.0296(6) 0.3989(4) 0.79453(14)
H24 H 0.9399 0.3751 0.7866
H25 H 1.0945 0.3863 0.7723
H26 H 1.0241 0.4667 0.7993
C30 C 0.6734(6) 0.2280(4) 1.03683(16)
H27 H 0.6275 0.2831 1.0253
H28 H 0.7541 0.2480 1.0522
H29 H 0.6114 0.1948 1.0555
C31 C 0.5106(6) 0.5999(4) 0.8618(2)
H30 H 0.5814 0.6479 0.8591
H31 H 0.4286 0.6284 0.8734
H32 H 0.4899 0.5738 0.8345
C32 C 0.8977(6) 0.1543(5) 0.78772(16)
H33 H 0.8210 0.1108 0.7901
H34 H 0.9722 0.1237 0.7729
H35 H 0.8691 0.2105 0.7726
C33 C -0.0660(5) -0.2240(4) 0.89015(17)
C34 C 1.2233(5) 0.3840(5) 0.84708(19)
H36 H 1.2209 0.4520 0.8516
H37 H 1.2868 0.3696 0.8247
H38 H 1.2531 0.3526 0.8724
C35 C 0.8059(7) 0.0817(5) 1.0186(2)
H39 H 0.7560 0.0477 1.0401
H40 H 0.8891 0.1083 1.0303
H41 H 0.8294 0.0383 0.9962
C36 C 0.9837(6) 0.0920(4) 0.8568(2)
H42 H 1.0082 0.1092 0.8851
H43 H 1.0605 0.0603 0.8436
H44 H 0.9052 0.0497 0.8573
C37 C 0.7807(5) 0.2115(5) 0.96326(14)
H45 H 0.8787 0.1984 0.9599
H46 H 0.7629 0.2799 0.9624
C38 C 0.4183(6) -0.1346(5) 0.77609(15)
H47 H 0.3219 -0.1351 0.7664
C39 C 0.6023(7) 0.5608(5) 0.93324(18)
H48 H 0.6334 0.5097 0.9512
H49 H 0.5238 0.5917 0.9459
H50 H 0.6756 0.6065 0.9296
C40 C -0.0399(8) -0.1174(6) 0.9518(2)
H51 H 0.0240 -0.0917 0.9720
H52 H -0.1147 -0.1487 0.9663
H53 H -0.0762 -0.0664 0.9347
C41 C 0.0797(9) -0.2774(5) 0.9498(2)
H54 H 0.1242 -0.3237 0.9319
H55 H -0.0006 -0.3057 0.9626
H56 H 0.1430 -0.2571 0.9713
C42 C 0.0556(10) -0.3377(4) 0.8434(2)
H57 H 0.0933 -0.3467 0.8157
H58 H -0.0096 -0.3879 0.8494
H59 H 0.1291 -0.3394 0.8638
C43 C 0.4919(8) -0.2203(7) 0.7571(2)
H60 H 0.5853 -0.2229 0.7675
H61 H 0.4932 -0.2144 0.7270
H62 H 0.4439 -0.2780 0.7649
C44 C -0.1394(7) -0.2389(9) 0.8154(2)
H63 H -0.1896 -0.1798 0.8181
H64 H -0.1998 -0.2916 0.8217
H65 H -0.1055 -0.2451 0.7871
C45 C 0.4850(11) -0.0411(7) 0.7618(2)
H66 H 0.4369 0.0120 0.7743
H67 H 0.4796 -0.0363 0.7317
H68 H 0.5803 -0.0400 0.7704
loop_
_geom_bond_atom_site_label_1
_geom_bond_atom_site_label_2
_geom_bond_site_symmetry_1
_geom_bond_site_symmetry_2
O1 C1 1_555 1_555
O2 C12 1_555 1_555
O3 C14 1_555 1_555
O4 C6 1_555 1_555
C1 C7 1_555 1_555
C2 H1 1_555 1_555
C3 C6 1_555 1_555
C4 O1 1_555 1_555
C5 C4 1_555 1_555
H2 C5 1_555 1_555
H3 C5 1_555 1_555
C6 C27 1_555 1_555
C7 C14 1_555 1_555
C8 H4 1_555 1_555
C9 C2 1_555 1_555
H5 C9 1_555 1_555
C10 C2 1_555 1_555
H6 C10 1_555 1_555
H7 C10 1_555 1_555
C11 C4 1_555 1_555
H8 C11 1_555 1_555
H9 C11 1_555 1_555
C12 C3 1_555 1_555
C13 C9 1_555 1_555
H10 C13 1_555 1_555
H11 C13 1_555 1_555
C14 C16 1_555 1_555
C15 C1 1_555 1_555
C16 C26 1_555 1_555
C17 C7 1_555 1_555
H12 C17 1_555 1_555
C18 O2 1_555 1_555
C19 C17 1_555 1_555
H13 C19 1_555 1_555
H14 C19 1_555 1_555
C20 C19 1_555 1_555
H15 C20 1_555 1_555
O5 C26 1_555 1_555
C21 C4 1_555 1_555
H16 C21 1_555 1_555
C22 C8 1_555 1_555
H17 C22 1_555 1_555
H18 C22 1_555 1_555
C23 C8 1_555 1_555
C24 C18 1_555 1_555
H19 C24 1_555 1_555
H20 C24 1_555 1_555
H21 C24 1_555 1_555
C25 C18 1_555 1_555
H22 C25 1_555 1_555
H23 C25 1_555 1_555
C26 C15 1_555 1_555
C27 C33 1_555 1_555
C28 C12 1_555 1_555
O6 C33 1_555 1_555
C29 C16 1_555 1_555
H24 C29 1_555 1_555
H25 C29 1_555 1_555
H26 C29 1_555 1_555
C30 C23 1_555 1_555
H27 C30 1_555 1_555
H28 C30 1_555 1_555
H29 C30 1_555 1_555
C31 C20 1_555 1_555
H30 C31 1_555 1_555
H31 C31 1_555 1_555
H32 C31 1_555 1_555
C32 C15 1_555 1_555
H33 C32 1_555 1_555
H34 C32 1_555 1_555
H35 C32 1_555 1_555
C33 C28 1_555 1_555
C34 C16 1_555 1_555
H36 C34 1_555 1_555
H37 C34 1_555 1_555
H38 C34 1_555 1_555
C35 C23 1_555 1_555
H39 C35 1_555 1_555
H40 C35 1_555 1_555
H41 C35 1_555 1_555
C36 C15 1_555 1_555
H42 C36 1_555 1_555
H43 C36 1_555 1_555
H44 C36 1_555 1_555
C37 C21 1_555 1_555
H45 C37 1_555 1_555
H46 C37 1_555 1_555
C38 C13 1_555 1_555
H47 C38 1_555 1_555
C39 C20 1_555 1_555
H48 C39 1_555 1_555
H49 C39 1_555 1_555
H50 C39 1_555 1_555
C40 C28 1_555 1_555
H51 C40 1_555 1_555
H52 C40 1_555 1_555
H53 C40 1_555 1_555
C41 C28 1_555 1_555
H54 C41 1_555 1_555
H55 C41 1_555 1_555
H56 C41 1_555 1_555
C42 C27 1_555 1_555
H57 C42 1_555 1_555
H58 C42 1_555 1_555
H59 C42 1_555 1_555
C43 C38 1_555 1_555
H60 C43 1_555 1_555
H61 C43 1_555 1_555
H62 C43 1_555 1_555
C44 C27 1_555 1_555
H63 C44 1_555 1_555
H64 C44 1_555 1_555
H65 C44 1_555 1_555
C45 C38 1_555 1_555
H66 C45 1_555 1_555
H67 C45 1_555 1_555
H68 C45 1_555 1_555
C2 C18 1_555 1_555
C3 C9 1_555 1_555
C5 C10 1_555 1_555
C8 C21 1_555 1_555
C11 C17 1_555 1_555
C22 C25 1_555 1_555
C23 C37 1_555 1_555

#END
