
#######################################################################
#
#                 Cambridge Crystallographic Data Centre
#                                CCDC 
#
#######################################################################
#
# If this CIF has been generated from an entry in the Cambridge 
# Structural Database, then it will include bibliographic, chemical, 
# crystal, experimental, refinement or atomic coordinate data resulting 
# from the CCDC's data processing and validation procedures.
#
#######################################################################

data_OTIHIK
_chemical_compound_source        'leaves of Rhodomyrtus tomentosa'
_chemical_name_common            'tomentodione C'
_chemical_formula_moiety         'C30 H46 O3'
_chemical_name_systematic        
10-isobutyl-2,2,4a,6,6,8,8-heptamethyl-13-methylene-2,2a,3,4,4a,6,10,10a,11,12,13,13a-dodecahydrocyclobuta[6,7]cyclonona[1,2-b]chromene-7,9(1H,8H)-dione
_chemical_properties_biological  'cytotoxic activity'
_symmetry_cell_setting           monoclinic
_symmetry_space_group_name_H-M   'P 21'
_symmetry_Int_Tables_number      4
_space_group_name_Hall           'P 2yb'
loop_
_symmetry_equiv_pos_site_id
_symmetry_equiv_pos_as_xyz
1 x,y,z
2 -x,1/2+y,-z
_cell_length_a                   11.1615(2)
_cell_length_b                   15.7291(2)
_cell_length_c                   16.8829(3)
_cell_angle_alpha                90
_cell_angle_beta                 105.689(2)
_cell_angle_gamma                90
_cell_volume                     2853.54
_exptl_crystal_colour            colorless
_exptl_crystal_description       block
_chemical_melting_point          '116-118 deg.C'
_cell_formula_units_Z            4
_exptl_crystal_recrystallization_method acetonitrile/water
loop_
_atom_site_label
_atom_site_type_symbol
_atom_site_fract_x
_atom_site_fract_y
_atom_site_fract_z
O1 O 0.81841(16) 0.27516(10) 1.08593(9)
C1 C 0.88748(18) 0.30593(13) 0.96394(12)
H1 H 0.8051 0.3314 0.9416
C2 C 0.97193(18) 0.37897(13) 1.00861(12)
H2 H 0.9550 0.4280 0.9715
C3 C 1.11547(19) 0.36399(15) 1.03184(14)
H3 H 1.1458 0.3592 1.0912
H4 H 1.1315 0.3102 1.0085
C4 C 0.93029(18) 0.40352(13) 1.08387(12)
C5 C 0.85878(18) 0.35228(15) 1.11600(12)
C6 C 0.9641(2) 0.48679(16) 1.11981(15)
C7 C 0.8693(2) 0.23617(14) 1.02316(13)
O2 O 1.0032(3) 0.54265(14) 1.08299(16)
C8 C 0.7696(2) 0.17063(14) 0.98330(15)
H5 H 0.8019 0.1360 0.9462
H6 H 0.7575 0.1334 1.0263
C9 C 0.9247(2) 0.27018(15) 0.88945(14)
H7 H 0.8971 0.2116 0.8811
H8 H 1.0148 0.2704 0.9015
C10 C 0.6141(2) 0.20628(16) 0.84205(15)
H9 H 0.6516 0.1560 0.8241
C11 C 0.6423(2) 0.20457(16) 0.93537(15)
H10 H 0.5790 0.1704 0.9498
H11 H 0.6341 0.2621 0.9541
C12 C 0.8032(2) 0.37502(18) 1.18546(14)
C13 C 0.8704(3) 0.32008(18) 0.80921(15)
H12 H 0.8585 0.3787 0.8231
H13 H 0.9307 0.3197 0.7772
C14 C 0.7491(3) 0.28615(18) 0.75676(14)
C15 C 0.6385(2) 0.28530(17) 0.79160(14)
H14 H 0.6389 0.3371 0.8240
C16 C 0.9878(3) 0.18955(18) 1.06821(19)
H15 H 1.0429 0.2283 1.1045
H16 H 1.0278 0.1673 1.0289
H17 H 0.9672 0.1436 1.0996
C17 C 1.1897(2) 0.43381(17) 1.00270(17)
H18 H 1.1619 0.4887 1.0188
C18 C 0.9603(3) 0.5044(2) 1.20846(18)
C19 C 1.1668(3) 0.4346(3) 0.9101(2)
H19 H 1.1907 0.3808 0.8923
H20 H 1.2151 0.4790 0.8948
H21 H 1.0800 0.4444 0.8845
C20 C 0.8680(3) 0.4500(2) 1.23608(17)
O3 O 0.8445(5) 0.4660(3) 1.2991(2)
C21 C 0.4738(3) 0.2098(3) 0.7937(2)
C22 C 1.3274(3) 0.4253(3) 1.0453(3)
H22 H 1.3399 0.4269 1.1039
H23 H 1.3718 0.4713 1.0290
H24 H 1.3575 0.3722 1.0302
C23 C 0.5079(3) 0.2722(3) 0.7331(2)
H25 H 0.5088 0.2462 0.6812
H26 H 0.4576 0.3234 0.7240
C24 C 0.8095(5) 0.2990(3) 1.2434(2)
H27 H 0.7505 0.2566 1.2166
H28 H 0.7900 0.3176 1.2927
H29 H 0.8918 0.2753 1.2572
C25 C 0.7420(4) 0.2599(3) 0.6813(2)
H30 H 0.8117 0.2626 0.6612
H31 H 0.6673 0.2388 0.6483
C26 C 0.6672(3) 0.4017(4) 1.1480(3)
H32 H 0.6643 0.4490 1.1116
H33 H 0.6308 0.4179 1.1912
H34 H 0.6214 0.3549 1.1179
C27 C 0.3911(3) 0.2548(5) 0.8412(3)
H35 H 0.3842 0.2197 0.8862
H36 H 0.3098 0.2644 0.8048
H37 H 0.4280 0.3083 0.8620
C28 C 0.9335(8) 0.5968(3) 1.2197(4)
H38 H 1.0001 0.6310 1.2112
H39 H 0.9262 0.6057 1.2745
H40 H 0.8569 0.6126 1.1807
C29 C 1.0879(5) 0.4795(7) 1.2625(3)
H41 H 1.1029 0.4205 1.2543
H42 H 1.0909 0.4890 1.3192
H43 H 1.1504 0.5134 1.2482
C30 C 0.4220(7) 0.1243(5) 0.7597(5)
H44 H 0.4731 0.1007 0.7277
H45 H 0.3386 0.1314 0.7255
H46 H 0.4216 0.0866 0.8043
O4 O 0.23767(16) 0.50781(11) 0.58214(12)
C31 C 0.3048(2) 0.37639(14) 0.53912(12)
O5 O 0.3650(2) 0.23789(14) 0.51639(16)
C32 C 0.4546(2) 0.49525(14) 0.57757(13)
H47 H 0.4757 0.4753 0.6347
C33 C 0.2238(2) 0.42445(16) 0.56635(14)
C34 C 0.4214(2) 0.41426(15) 0.52442(13)
H48 H 0.4884 0.3734 0.5463
C35 C 0.4136(2) 0.58985(17) 0.72653(16)
H49 H 0.3673 0.6195 0.7591
H50 H 0.3924 0.5301 0.7267
C36 C 0.2837(3) 0.28523(16) 0.52613(14)
C37 C 0.3436(2) 0.55540(15) 0.56901(15)
C38 C 0.6536(2) 0.53198(17) 0.76553(15)
H51 H 0.6155 0.4754 0.7580
C39 C 0.1088(2) 0.3929(2) 0.58850(19)
C40 C 0.5725(3) 0.54002(18) 0.56831(16)
H52 H 0.5747 0.5365 0.5114
H53 H 0.5689 0.5997 0.5820
C41 C 0.5517(2) 0.59915(16) 0.76961(15)
H54 H 0.5793 0.6549 0.7554
C42 C 0.4097(3) 0.4225(2) 0.43074(15)
H55 H 0.3226 0.4172 0.4009
H56 H 0.4366 0.4790 0.4203
C43 C 0.3678(3) 0.62252(17) 0.63701(18)
H57 H 0.2913 0.6540 0.6317
H58 H 0.4291 0.6622 0.6277
C44 C 0.6911(3) 0.5016(2) 0.62282(19)
H59 H 0.6776 0.4414 0.6294
H60 H 0.7566 0.5071 0.5953
C45 C 0.7126(3) 0.5474(2) 0.85845(18)
H61 H 0.7326 0.4954 0.8903
H62 H 0.7836 0.5854 0.8699
C46 C 0.5913(3) 0.5903(2) 0.86537(18)
C47 C 0.1546(3) 0.2491(2) 0.52146(19)
C48 C 0.2980(3) 0.5990(2) 0.48568(19)
H63 H 0.2640 0.5572 0.4442
H64 H 0.3664 0.6274 0.4726
H65 H 0.2349 0.6397 0.4877
C49 C 0.7347(2) 0.5420(2) 0.70735(18)
C50 C 0.0914(3) 0.2972(3) 0.5769(3)
C51 C 0.4851(3) 0.3566(2) 0.39581(19)
H66 H 0.4661 0.2999 0.4132
C52 C 0.4430(5) 0.3599(4) 0.3021(2)
H67 H 0.3551 0.3493 0.2835
H68 H 0.4866 0.3175 0.2799
H69 H 0.4607 0.4151 0.2837
C53 C 0.1213(5) 0.4140(4) 0.6789(3)
H70 H 0.1942 0.3868 0.7129
H71 H 0.0491 0.3939 0.6938
H72 H 0.1284 0.4744 0.6867
C54 C -0.0075(3) 0.4387(3) 0.5345(3)
H73 H 0.0015 0.4989 0.5430
H74 H -0.0802 0.4194 0.5493
H75 H -0.0160 0.4260 0.4776
C55 C 0.6074(5) 0.6741(4) 0.9120(3)
H76 H 0.6608 0.7108 0.8915
H77 H 0.6438 0.6636 0.9695
H78 H 0.5276 0.7007 0.9044
C56 C 0.5123(4) 0.5281(4) 0.8978(2)
H79 H 0.4322 0.5528 0.8935
H80 H 0.5524 0.5154 0.9544
H81 H 0.5023 0.4767 0.8660
O6 O 0.0240(4) 0.2598(3) 0.6095(4)
C57 C 0.8437(4) 0.5777(4) 0.7288(3)
H82 H 0.8749 0.5984 0.7820
H83 H 0.8904 0.5824 0.6910
C58 C 0.6232(4) 0.3702(4) 0.4268(3)
H84 H 0.6433 0.4270 0.4139
H85 H 0.6657 0.3302 0.4011
H86 H 0.6490 0.3622 0.4854
C59 C 0.1622(5) 0.1543(3) 0.5429(4)
H87 H 0.1962 0.1239 0.5047
H88 H 0.0804 0.1332 0.5398
H89 H 0.2148 0.1465 0.5977
C60 C 0.0766(5) 0.2619(4) 0.4322(3)
H90 H 0.0683 0.3216 0.4201
H91 H -0.0044 0.2374 0.4251
H92 H 0.1171 0.2348 0.3955
loop_
_geom_bond_atom_site_label_1
_geom_bond_atom_site_label_2
_geom_bond_site_symmetry_1
_geom_bond_site_symmetry_2
O1 C5 1_555 1_555
C1 H1 1_555 1_555
C2 C1 1_555 1_555
H2 C2 1_555 1_555
C3 C2 1_555 1_555
H3 C3 1_555 1_555
H4 C3 1_555 1_555
C4 C2 1_555 1_555
C5 C4 1_555 1_555
C6 C4 1_555 1_555
C7 O1 1_555 1_555
O2 C6 1_555 1_555
C8 C7 1_555 1_555
H5 C8 1_555 1_555
H6 C8 1_555 1_555
C9 C1 1_555 1_555
H7 C9 1_555 1_555
H8 C9 1_555 1_555
C10 H9 1_555 1_555
C11 C8 1_555 1_555
H10 C11 1_555 1_555
H11 C11 1_555 1_555
C12 C5 1_555 1_555
C13 C9 1_555 1_555
H12 C13 1_555 1_555
H13 C13 1_555 1_555
C14 C13 1_555 1_555
C15 C10 1_555 1_555
H14 C15 1_555 1_555
C16 C7 1_555 1_555
H15 C16 1_555 1_555
H16 C16 1_555 1_555
H17 C16 1_555 1_555
C17 C3 1_555 1_555
H18 C17 1_555 1_555
C18 C6 1_555 1_555
C19 C17 1_555 1_555
H19 C19 1_555 1_555
H20 C19 1_555 1_555
H21 C19 1_555 1_555
C20 C12 1_555 1_555
O3 C20 1_555 1_555
C21 C10 1_555 1_555
C22 C17 1_555 1_555
H22 C22 1_555 1_555
H23 C22 1_555 1_555
H24 C22 1_555 1_555
C23 C15 1_555 1_555
H25 C23 1_555 1_555
H26 C23 1_555 1_555
C24 C12 1_555 1_555
H27 C24 1_555 1_555
H28 C24 1_555 1_555
H29 C24 1_555 1_555
C25 C14 1_555 1_555
H30 C25 1_555 1_555
H31 C25 1_555 1_555
C26 C12 1_555 1_555
H32 C26 1_555 1_555
H33 C26 1_555 1_555
H34 C26 1_555 1_555
C27 C21 1_555 1_555
H35 C27 1_555 1_555
H36 C27 1_555 1_555
H37 C27 1_555 1_555
C28 C18 1_555 1_555
H38 C28 1_555 1_555
H39 C28 1_555 1_555
H40 C28 1_555 1_555
C29 C18 1_555 1_555
H41 C29 1_555 1_555
H42 C29 1_555 1_555
H43 C29 1_555 1_555
C30 C21 1_555 1_555
H44 C30 1_555 1_555
H45 C30 1_555 1_555
H46 C30 1_555 1_555
O4 C33 1_555 1_555
C31 C33 1_555 1_555
O5 C36 1_555 1_555
C32 H47 1_555 1_555
C33 C39 1_555 1_555
C34 C31 1_555 1_555
H48 C34 1_555 1_555
C35 H49 1_555 1_555
H50 C35 1_555 1_555
C36 C31 1_555 1_555
C37 O4 1_555 1_555
C38 H51 1_555 1_555
C39 C50 1_555 1_555
C40 C32 1_555 1_555
H52 C40 1_555 1_555
H53 C40 1_555 1_555
C41 C35 1_555 1_555
H54 C41 1_555 1_555
C42 C34 1_555 1_555
H55 C42 1_555 1_555
H56 C42 1_555 1_555
C43 C35 1_555 1_555
H57 C43 1_555 1_555
H58 C43 1_555 1_555
C44 C40 1_555 1_555
H59 C44 1_555 1_555
H60 C44 1_555 1_555
C45 C38 1_555 1_555
H61 C45 1_555 1_555
H62 C45 1_555 1_555
C46 C41 1_555 1_555
C47 C36 1_555 1_555
C48 C37 1_555 1_555
H63 C48 1_555 1_555
H64 C48 1_555 1_555
H65 C48 1_555 1_555
C49 C38 1_555 1_555
C50 C47 1_555 1_555
C51 C42 1_555 1_555
H66 C51 1_555 1_555
C52 C51 1_555 1_555
H67 C52 1_555 1_555
H68 C52 1_555 1_555
H69 C52 1_555 1_555
C53 C39 1_555 1_555
H70 C53 1_555 1_555
H71 C53 1_555 1_555
H72 C53 1_555 1_555
C54 C39 1_555 1_555
H73 C54 1_555 1_555
H74 C54 1_555 1_555
H75 C54 1_555 1_555
C55 C46 1_555 1_555
H76 C55 1_555 1_555
H77 C55 1_555 1_555
H78 C55 1_555 1_555
C56 C46 1_555 1_555
H79 C56 1_555 1_555
H80 C56 1_555 1_555
H81 C56 1_555 1_555
O6 C50 1_555 1_555
C57 C49 1_555 1_555
H82 C57 1_555 1_555
H83 C57 1_555 1_555
C58 C51 1_555 1_555
H84 C58 1_555 1_555
H85 C58 1_555 1_555
H86 C58 1_555 1_555
C59 C47 1_555 1_555
H87 C59 1_555 1_555
H88 C59 1_555 1_555
H89 C59 1_555 1_555
C60 C47 1_555 1_555
H90 C60 1_555 1_555
H91 C60 1_555 1_555
H92 C60 1_555 1_555
C1 C7 1_555 1_555
C10 C11 1_555 1_555
C14 C15 1_555 1_555
C18 C20 1_555 1_555
C21 C23 1_555 1_555
C32 C34 1_555 1_555
C32 C37 1_555 1_555
C37 C43 1_555 1_555
C38 C41 1_555 1_555
C44 C49 1_555 1_555
C45 C46 1_555 1_555

#END
