
#######################################################################
#
#                 Cambridge Crystallographic Data Centre
#                                CCDC 
#
#######################################################################
#
# If this CIF has been generated from an entry in the Cambridge 
# Structural Database, then it will include bibliographic, chemical, 
# crystal, experimental, refinement or atomic coordinate data resulting 
# from the CCDC's data processing and validation procedures.
#
#######################################################################

data_OTIVIX
_chemical_formula_moiety         'C35 H26 N6 O1,C3 H7 N1 O1,H2 O1'
_chemical_name_systematic        
'2,6-bis(5,6-dihydrobenzimidazo[1,2-c]quinazolin-6-yl)-4-methylphenol N,N-dimethylformamide solvate monohydrate'
_symmetry_cell_setting           triclinic
_symmetry_space_group_name_H-M   'P -1'
_symmetry_Int_Tables_number      2
_space_group_name_Hall           '-P 1'
loop_
_symmetry_equiv_pos_site_id
_symmetry_equiv_pos_as_xyz
1 x,y,z
2 -x,-y,-z
_cell_length_a                   8.8743(7)
_cell_length_b                   9.7691(8)
_cell_length_c                   19.5884(16)
_cell_angle_alpha                78.2490(10)
_cell_angle_beta                 83.5250(10)
_cell_angle_gamma                75.9160(10)
_cell_volume                     1609.05
_exptl_crystal_colour            colorless
_exptl_crystal_description       plate
_cell_formula_units_Z            2
loop_
_atom_site_label
_atom_site_type_symbol
_atom_site_fract_x
_atom_site_fract_y
_atom_site_fract_z
O1 O 0.55824(17) 0.46460(16) 0.32811(9)
H1 H 0.4717 0.4418 0.3349
N1 N 0.8165(2) 0.6115(2) 0.30045(13)
N2 N 1.2515(2) 0.4662(2) 0.36901(10)
N3 N 0.9989(2) 0.4615(2) 0.37628(10)
N4 N 0.4791(3) 0.3418(3) 0.18325(15)
N5 N 0.4870(7) -0.0857(8) 0.2156(3)
N6 N 0.4597(5) 0.1222(5) 0.2534(2)
C1 C 0.9339(3) 0.6459(2) 0.25219(13)
C2 C 0.9026(3) 0.7385(3) 0.18807(14)
H2 H 0.7982 0.7728 0.1751
C3 C 1.0194(4) 0.7796(3) 0.14460(15)
H3 H 0.9952 0.8435 0.1018
C4 C 1.1731(4) 0.7308(3) 0.16087(14)
H4 H 1.2536 0.7603 0.1293
C5 C 1.2082(3) 0.6401(3) 0.22259(13)
H5 H 1.3138 0.6065 0.2339
C6 C 1.0921(3) 0.5961(2) 0.26896(12)
C7 C 1.1203(2) 0.5071(2) 0.33748(12)
C8 C 1.2129(3) 0.3879(2) 0.43404(12)
C9 C 1.3064(3) 0.3197(3) 0.48903(13)
H6 H 1.4125 0.3248 0.4865
C10 C 1.2407(4) 0.2444(3) 0.54744(14)
H7 H 1.3021 0.1969 0.5857
C11 C 1.0830(4) 0.2375(3) 0.55074(15)
H8 H 1.0402 0.1843 0.5912
C12 C 0.9899(3) 0.3064(3) 0.49649(14)
H9 H 0.8836 0.3020 0.4987
C13 C 1.0571(3) 0.3814(3) 0.43936(12)
C14 C 0.8438(2) 0.4801(2) 0.35402(13)
H10 H 0.7675 0.4962 0.3948
C15 C 0.8224(2) 0.3495(2) 0.32821(11)
C16 C 0.9447(2) 0.2356(2) 0.31648(11)
H11 H 1.0468 0.2357 0.3268
C17 C 0.9210(2) 0.1213(2) 0.28989(11)
C18 C 0.7714(3) 0.1259(2) 0.27394(12)
H12 H 0.7535 0.0495 0.2550
C19 C 0.6455(2) 0.2396(2) 0.28476(12)
C20 C 0.6721(2) 0.3488(2) 0.31434(11)
C21 C 1.0547(3) -0.0023(2) 0.27817(13)
H13 H 1.1269 0.0312 0.2404
H14 H 1.0148 -0.0780 0.2653
H15 H 1.1094 -0.0403 0.3212
C22 C 0.4926(10) 0.2613(7) 0.2545(4)
H16 H 0.4096 0.3124 0.2854
C23 C 0.5409(9) 0.2729(10) 0.1272(3)
C24 C 0.5900(6) 0.3513(5) 0.0644(2)
H17 H 0.5876 0.4503 0.0605
C25 C 0.6421(9) 0.2833(6) 0.0079(3)
H18 H 0.6699 0.3378 -0.0356
C26 C 0.6545(14) 0.1395(14) 0.0132(7)
H19 H 0.6968 0.0943 -0.0255
C27 C 0.6056(7) 0.0591(6) 0.0749(3)
H20 H 0.6099 -0.0401 0.0779
C28 C 0.5497(7) 0.1259(6) 0.1329(3)
C29 C 0.4992(4) 0.0491(5) 0.1989(2)
C30 C 0.4401(4) -0.1043(5) 0.2870(3)
C31 C 0.4088(14) -0.2235(11) 0.3326(8)
H21 H 0.4196 -0.3114 0.3169
C32 C 0.3611(14) -0.2130(12) 0.4023(8)
H22 H 0.3385 -0.2939 0.4341
C33 C 0.3465(6) -0.0825(7) 0.4254(3)
H23 H 0.3147 -0.0768 0.4729
C34 C 0.3775(10) 0.0365(10) 0.3805(4)
H24 H 0.3673 0.1245 0.3961
C35 C 0.4244(4) 0.0240(6) 0.3113(3)
H33 H 0.720(3) 0.625(3) 0.2809(14)
H35 H 0.492(5) 0.428(5) 0.181(2)
O2 O 0.2260(3) 0.3197(3) -0.03714(11)
N7 N 0.1076(3) 0.3106(2) 0.07168(11)
C36 C 0.1833(4) 0.3679(4) 0.01634(17)
H25 H 0.2076 0.4566 0.0180
C37 C 0.0710(6) 0.1736(4) 0.0751(2)
H26 H 0.0874 0.1486 0.0284
H27 H -0.0380 0.1788 0.0922
H28 H 0.1387 0.1001 0.1071
C38 C 0.0668(5) 0.3731(4) 0.13389(16)
H29 H 0.0934 0.4671 0.1253
H30 H 0.1245 0.3100 0.1726
H31 H -0.0452 0.3848 0.1460
O3 O 0.5698(2) 0.6354(2) 0.15811(12)
H32 H 0.637(4) 0.641(3) 0.1210(18)
H34 H 0.549(5) 0.716(5) 0.172(2)
C39? C 0.472(2) 0.2295(16) 0.2702(9)
C40? C 0.389(2) 0.0435(19) 0.3552(9)
C41? C 0.3342(10) -0.0035(12) 0.4254(6)
C42? C 0.3339(10) -0.1477(11) 0.4502(6)
C43? C 0.383(3) -0.241(3) 0.4034(13)
C44? C 0.431(3) -0.199(2) 0.3374(17)
C45? C 0.4367(9) -0.0588(12) 0.3121(5)
C46? C 0.4764(8) -0.0057(9) 0.2413(5)
C47? C 0.5431(9) 0.0286(10) 0.1303(4)
C48? C 0.5875(16) 0.0111(13) 0.0626(7)
C49? C 0.614(3) 0.128(3) 0.0168(17)
C50? C 0.6001(14) 0.2665(14) 0.0387(7)
C51? C 0.563(2) 0.284(2) 0.1049(9)
C52? C 0.5288(16) 0.1629(15) 0.1517(7)
H36? H 0.4178 0.3277 0.2476
H37? H 0.2974 0.0642 0.4554
H38? H 0.3012 -0.1807 0.4973
H39? H 0.3832 -0.3392 0.4193
H40? H 0.4609 -0.2672 0.3073
H41? H 0.5994 -0.0786 0.0485
H42? H 0.6415 0.1212 -0.0308
H43? H 0.6185 0.3459 0.0045
H44? H 0.5594 0.3721 0.1195
H45? H 0.3062 0.2492 0.3507
N8? N 0.3742(6) 0.1852(6) 0.3305(3)
N9? N 0.5095(15) -0.0754(15) 0.1878(5)
N10? N 0.4813(11) 0.1361(11) 0.2207(5)
loop_
_geom_bond_atom_site_label_1
_geom_bond_atom_site_label_2
_geom_bond_site_symmetry_1
_geom_bond_site_symmetry_2
O1 H1 1_555 1_555
N1 C1 1_555 1_555
N2 C7 1_555 1_555
N3 C7 1_555 1_555
N4 C22 1_555 1_555
N5 C29 1_555 1_555
N6 C22 1_555 1_555
C1 C2 1_555 1_555
C2 H2 1_555 1_555
C3 C2 1_555 1_555
H3 C3 1_555 1_555
C4 C3 1_555 1_555
H4 C4 1_555 1_555
C5 C4 1_555 1_555
H5 C5 1_555 1_555
C6 C1 1_555 1_555
C7 C6 1_555 1_555
C8 N2 1_555 1_555
C9 C8 1_555 1_555
H6 C9 1_555 1_555
C10 C9 1_555 1_555
H7 C10 1_555 1_555
C11 C10 1_555 1_555
H8 C11 1_555 1_555
C12 C11 1_555 1_555
H9 C12 1_555 1_555
C13 N3 1_555 1_555
C14 N1 1_555 1_555
H10 C14 1_555 1_555
C15 C14 1_555 1_555
C16 C15 1_555 1_555
H11 C16 1_555 1_555
C17 C16 1_555 1_555
C18 C17 1_555 1_555
H12 C18 1_555 1_555
C19 C18 1_555 1_555
C20 O1 1_555 1_555
C21 C17 1_555 1_555
H13 C21 1_555 1_555
H14 C21 1_555 1_555
H15 C21 1_555 1_555
C22 C19 1_555 1_555
H16 C22 1_555 1_555
C23 N4 1_555 1_555
C24 C23 1_555 1_555
H17 C24 1_555 1_555
C25 C24 1_555 1_555
H18 C25 1_555 1_555
C26 C25 1_555 1_555
H19 C26 1_555 1_555
C27 C26 1_555 1_555
H20 C27 1_555 1_555
C28 C23 1_555 1_555
C29 N6 1_555 1_555
C30 N5 1_555 1_555
C31 C30 1_555 1_555
H21 C31 1_555 1_555
C32 C31 1_555 1_555
H22 C32 1_555 1_555
C33 C32 1_555 1_555
H23 C33 1_555 1_555
C34 C33 1_555 1_555
H24 C34 1_555 1_555
C35 N6 1_555 1_555
O2 C36 1_555 1_555
N7 C36 1_555 1_555
C36 H25 1_555 1_555
C37 N7 1_555 1_555
H26 C37 1_555 1_555
H27 C37 1_555 1_555
H28 C37 1_555 1_555
C38 N7 1_555 1_555
H29 C38 1_555 1_555
H30 C38 1_555 1_555
H31 C38 1_555 1_555
O3 H32 1_555 1_555
H33 N1 1_555 1_555
H34 O3 1_555 1_555
H35 N4 1_555 1_555
N3 C14 1_555 1_555
C5 C6 1_555 1_555
C8 C13 1_555 1_555
C12 C13 1_555 1_555
C15 C20 1_555 1_555
C19 C20 1_555 1_555
C27 C28 1_555 1_555
C28 C29 1_555 1_555
C30 C35 1_555 1_555
C34 C35 1_555 1_555

#END
