
#######################################################################
#
#                 Cambridge Crystallographic Data Centre
#                                CCDC 
#
#######################################################################
#
# If this CIF has been generated from an entry in the Cambridge 
# Structural Database, then it will include bibliographic, chemical, 
# crystal, experimental, refinement or atomic coordinate data resulting 
# from the CCDC's data processing and validation procedures.
#
#######################################################################

data_OTIXUL
_chemical_formula_moiety         'C40 H44 N4 O2,1.5(C6 H12)'
_chemical_name_systematic        
'1H,22H,24H-7,8,17,18-tetradehydro-1-(1,1-dimethoxymethyl)-3,3,13,13-tetramethyl-7,17-bis(4-methylphenyl)corrin cyclohexane solvate'
_symmetry_cell_setting           monoclinic
_symmetry_space_group_name_H-M   'P 21/n'
_symmetry_Int_Tables_number      14
_space_group_name_Hall           '-P 2yn'
loop_
_symmetry_equiv_pos_site_id
_symmetry_equiv_pos_as_xyz
1 x,y,z
2 1/2-x,1/2+y,1/2-z
3 -x,-y,-z
4 1/2+x,1/2-y,1/2+z
_cell_length_a                   17.0127(9)
_cell_length_b                   9.5391(5)
_cell_length_c                   26.1916(13)
_cell_angle_alpha                90
_cell_angle_beta                 102.583(2)
_cell_angle_gamma                90
_cell_volume                     4148.43
_exptl_crystal_colour            red
_exptl_crystal_description       plate
_cell_formula_units_Z            4
loop_
_atom_site_label
_atom_site_type_symbol
_atom_site_fract_x
_atom_site_fract_y
_atom_site_fract_z
O1 O 0.24860(16) 0.0433(3) -0.00200(10)
O2 O 0.38213(16) -0.0148(3) 0.00772(11)
N1 N 0.37724(19) -0.1896(3) 0.09185(12)
N2 N 0.4623(2) -0.3092(4) 0.18801(13)
H1 H 0.4156 -0.2665 0.1778
N3 N 0.3379(2) -0.2075(4) 0.23792(13)
N4 N 0.2573(2) -0.1382(3) 0.13782(12)
H2 H 0.3067 -0.1486 0.1564
C1 C 0.3028(2) -0.1481(4) 0.05484(15)
C2 C 0.2877(2) -0.2599(4) 0.01091(15)
H3 H 0.2396 -0.3169 0.0124
H4 H 0.2794 -0.2149 -0.0239
C3 C 0.3642(3) -0.3521(4) 0.02112(16)
C4 C 0.4106(2) -0.2938(4) 0.07288(15)
C5 C 0.4865(3) -0.3537(4) 0.10170(17)
H5 H 0.5218 -0.3941 0.0823
C6 C 0.5088(3) -0.3546(4) 0.15432(16)
C7 C 0.5836(3) -0.4104(5) 0.18813(17)
C8 C 0.5735(3) -0.4019(5) 0.23831(17)
H6 H 0.6114 -0.4335 0.2683
C9 C 0.4972(3) -0.3383(5) 0.23941(16)
C10 C 0.4645(3) -0.3110(5) 0.28158(17)
H7 H 0.4959 -0.3364 0.3149
C11 C 0.3884(3) -0.2483(4) 0.28063(15)
C12 C 0.3571(3) -0.2282(5) 0.32963(17)
H8 H 0.3948 -0.1710 0.3556
H9 H 0.3487 -0.3195 0.3456
C13 C 0.2765(3) -0.1511(5) 0.31028(16)
C14 C 0.2671(3) -0.1575(4) 0.25115(16)
C15 C 0.2003(3) -0.1222(4) 0.21519(15)
H10 H 0.1548 -0.0933 0.2281
C16 C 0.1913(3) -0.1242(4) 0.15896(15)
C17 C 0.1254(2) -0.1068(4) 0.11734(15)
C18 C 0.1557(2) -0.1122(4) 0.07059(16)
H11 H 0.1247 -0.1024 0.0359
C19 C 0.2378(2) -0.1343(4) 0.08451(15)
C20 C 0.3187(2) -0.0021(4) 0.03364(15)
H12 H 0.3333 0.0663 0.0632
C21 C 0.2127(3) 0.1673(4) 0.01253(19)
H13 H 0.1930 0.1497 0.0444
H14 H 0.1676 0.1949 -0.0158
H15 H 0.2528 0.2426 0.0190
C22 C 0.4061(3) 0.1163(4) -0.01059(19)
H16 H 0.3609 0.1566 -0.0361
H17 H 0.4517 0.1014 -0.0272
H18 H 0.4219 0.1808 0.0190
C23 C 0.4109(3) -0.3399(5) -0.02274(17)
H19 H 0.4214 -0.2408 -0.0287
H20 H 0.3789 -0.3808 -0.0550
H21 H 0.4622 -0.3902 -0.0125
C24 C 0.3440(3) -0.5063(4) 0.02853(19)
H22 H 0.3940 -0.5608 0.0376
H23 H 0.3105 -0.5427 -0.0040
H24 H 0.3147 -0.5141 0.0567
C25 C 0.6553(3) -0.4564(5) 0.17082(17)
C26 C 0.6849(3) -0.3815(5) 0.13348(18)
H25 H 0.6558 -0.3025 0.1172
C27 C 0.7556(3) -0.4193(6) 0.11956(18)
H26 H 0.7746 -0.3646 0.0945
C28 C 0.7995(3) -0.5349(6) 0.1412(2)
C29 C 0.7697(4) -0.6103(7) 0.1784(3)
H27 H 0.7987 -0.6899 0.1942
C30 C 0.6992(3) -0.5728(6) 0.1930(2)
H28 H 0.6805 -0.6270 0.2184
C31 C 0.8766(4) -0.5756(8) 0.1264(3)
H29 H 0.8647 -0.6152 0.0910
H30 H 0.9047 -0.6457 0.1511
H31 H 0.9108 -0.4926 0.1273
C32 C 0.0408(2) -0.0889(4) 0.12001(16)
C33 C 0.0059(3) -0.1651(5) 0.15456(16)
H32 H 0.0371 -0.2327 0.1768
C34 C -0.0744(3) -0.1437(5) 0.15718(17)
H33 H -0.0965 -0.1975 0.1811
C35 C -0.1222(3) -0.0467(5) 0.12595(16)
C36 C -0.0882(3) 0.0276(5) 0.09041(17)
H34 H -0.1200 0.0939 0.0679
C37 C -0.0087(2) 0.0067(5) 0.08730(16)
H35 H 0.0126 0.0584 0.0624
C38 C -0.2078(3) -0.0206(6) 0.12993(19)
H36 H -0.2195 -0.0745 0.1592
H37 H -0.2443 -0.0497 0.0974
H38 H -0.2153 0.0796 0.1358
C39 C 0.2832(4) 0.0030(6) 0.3281(2)
H39 H 0.2340 0.0533 0.3114
H40 H 0.3297 0.0465 0.3179
H41 H 0.2900 0.0074 0.3662
C40 C 0.2073(4) -0.2232(8) 0.3282(2)
H42 H 0.1572 -0.1717 0.3147
H43 H 0.2184 -0.2247 0.3665
H44 H 0.2018 -0.3194 0.3148
C41 C 0.4941(3) 0.2112(4) 0.14476(17)
H45 H 0.4418 0.1652 0.1304
H46 H 0.4917 0.3081 0.1310
C42 C 0.5586(5) 0.1342(8) 0.1285(3)
H47 H 0.6079 0.1928 0.1362
H48 H 0.5435 0.1210 0.0902
C43 C 0.5781(5) -0.0028(6) 0.1530(3)
H49 H 0.5330 -0.0682 0.1399
H50 H 0.6266 -0.0404 0.1426
C44 C 0.5928(4) 0.0034(5) 0.2098(2)
H51 H 0.6427 0.0573 0.2234
H52 H 0.6006 -0.0927 0.2243
C45 C 0.5233(5) 0.0720(7) 0.2273(2)
H53 H 0.4741 0.0144 0.2162
H54 H 0.5354 0.0791 0.2659
C46 C 0.5093(6) 0.2146(7) 0.2039(2)
H55 H 0.5570 0.2739 0.2176
H56 H 0.4624 0.2576 0.2145
C47 C 0.4541(3) 0.0546(5) 0.45042(19)
H57 H 0.4106 0.1170 0.4321
H58 H 0.4794 0.0103 0.4238
C48 C 0.4196(3) -0.0554(5) 0.4789(2)
H59 H 0.3849 -0.1182 0.4534
H60 H 0.3857 -0.0111 0.5006
C49 C 0.4844(4) -0.1392(6) 0.5129(3)
H61 H 0.5121 -0.1952 0.4903
H62 H 0.4592 -0.2056 0.5336
C47B C 0.5459(3) -0.0546(5) 0.54958(19)
H57B H 0.5894 -0.1170 0.5679
H58B H 0.5206 -0.0103 0.5762
C48B C 0.5804(3) 0.0554(5) 0.5211(2)
H59B H 0.6151 0.1182 0.5466
H60B H 0.6143 0.0111 0.4994
C49B C 0.5156(4) 0.1392(6) 0.4871(3)
H61B H 0.4879 0.1952 0.5097
H62B H 0.5408 0.2056 0.4664
loop_
_geom_bond_atom_site_label_1
_geom_bond_atom_site_label_2
_geom_bond_site_symmetry_1
_geom_bond_site_symmetry_2
O1 C20 1_555 1_555
O2 C20 1_555 1_555
N1 C1 1_555 1_555
N2 H1 1_555 1_555
N3 C11 1_555 1_555
N4 H2 1_555 1_555
C1 C2 1_555 1_555
C2 H3 1_555 1_555
H4 C2 1_555 1_555
C3 C2 1_555 1_555
C4 N1 1_555 1_555
C5 C4 1_555 1_555
H5 C5 1_555 1_555
C6 N2 1_555 1_555
C7 C6 1_555 1_555
C8 C7 1_555 1_555
H6 C8 1_555 1_555
C9 N2 1_555 1_555
C10 C9 1_555 1_555
H7 C10 1_555 1_555
C11 C10 1_555 1_555
C12 C11 1_555 1_555
H8 C12 1_555 1_555
H9 C12 1_555 1_555
C13 C12 1_555 1_555
C14 N3 1_555 1_555
C15 C14 1_555 1_555
H10 C15 1_555 1_555
C16 N4 1_555 1_555
C17 C16 1_555 1_555
C18 C17 1_555 1_555
H11 C18 1_555 1_555
C19 N4 1_555 1_555
C20 C1 1_555 1_555
H12 C20 1_555 1_555
C21 O1 1_555 1_555
H13 C21 1_555 1_555
H14 C21 1_555 1_555
H15 C21 1_555 1_555
C22 O2 1_555 1_555
H16 C22 1_555 1_555
H17 C22 1_555 1_555
H18 C22 1_555 1_555
C23 C3 1_555 1_555
H19 C23 1_555 1_555
H20 C23 1_555 1_555
H21 C23 1_555 1_555
C24 C3 1_555 1_555
H22 C24 1_555 1_555
H23 C24 1_555 1_555
H24 C24 1_555 1_555
C25 C7 1_555 1_555
C26 C25 1_555 1_555
H25 C26 1_555 1_555
C27 C26 1_555 1_555
H26 C27 1_555 1_555
C28 C27 1_555 1_555
C29 C28 1_555 1_555
H27 C29 1_555 1_555
C30 C25 1_555 1_555
H28 C30 1_555 1_555
C31 C28 1_555 1_555
H29 C31 1_555 1_555
H30 C31 1_555 1_555
H31 C31 1_555 1_555
C32 C17 1_555 1_555
C33 C32 1_555 1_555
H32 C33 1_555 1_555
C34 C33 1_555 1_555
H33 C34 1_555 1_555
C35 C34 1_555 1_555
C36 C35 1_555 1_555
H34 C36 1_555 1_555
C37 C32 1_555 1_555
H35 C37 1_555 1_555
C38 C35 1_555 1_555
H36 C38 1_555 1_555
H37 C38 1_555 1_555
H38 C38 1_555 1_555
C39 C13 1_555 1_555
H39 C39 1_555 1_555
H40 C39 1_555 1_555
H41 C39 1_555 1_555
C40 C13 1_555 1_555
H42 C40 1_555 1_555
H43 C40 1_555 1_555
H44 C40 1_555 1_555
C41 H45 1_555 1_555
H46 C41 1_555 1_555
C42 C41 1_555 1_555
H47 C42 1_555 1_555
H48 C42 1_555 1_555
C43 C42 1_555 1_555
H49 C43 1_555 1_555
H50 C43 1_555 1_555
C44 C43 1_555 1_555
H51 C44 1_555 1_555
H52 C44 1_555 1_555
C45 C44 1_555 1_555
H53 C45 1_555 1_555
H54 C45 1_555 1_555
C46 C41 1_555 1_555
H55 C46 1_555 1_555
H56 C46 1_555 1_555
C47 H57 1_555 1_555
H58 C47 1_555 1_555
C48 C47 1_555 1_555
H59 C48 1_555 1_555
H60 C48 1_555 1_555
C49 C48 1_555 1_555
H61 C49 1_555 1_555
H62 C49 1_555 1_555
C47B C49 1_555 1_555
H57B C47B 1_555 1_555
H58B C47B 1_555 1_555
C48B C47B 1_555 1_555
H59B C48B 1_555 1_555
H60B C48B 1_555 1_555
C49B C47 1_555 1_555
H61B C49B 1_555 1_555
H62B C49B 1_555 1_555
C1 C19 1_555 1_555
C3 C4 1_555 1_555
C5 C6 1_555 1_555
C8 C9 1_555 1_555
C13 C14 1_555 1_555
C15 C16 1_555 1_555
C18 C19 1_555 1_555
C29 C30 1_555 1_555
C36 C37 1_555 1_555
C45 C46 1_555 1_555
C48B C49B 1_555 1_555

#END
