
#######################################################################
#
#                 Cambridge Crystallographic Data Centre
#                                CCDC 
#
#######################################################################
#
# If this CIF has been generated from an entry in the Cambridge 
# Structural Database, then it will include bibliographic, chemical, 
# crystal, experimental, refinement or atomic coordinate data resulting 
# from the CCDC's data processing and validation procedures.
#
#######################################################################

data_OTLPTH
_chemical_formula_moiety         'C22 H18 O2'
_chemical_name_systematic        3,3-bis(o-Tolyl)-phthalide
_symmetry_cell_setting           monoclinic
_symmetry_space_group_name_H-M   'P 21/c'
_symmetry_Int_Tables_number      14
_space_group_name_Hall           '-P 2ybc'
loop_
_symmetry_equiv_pos_site_id
_symmetry_equiv_pos_as_xyz
1 x,y,z
2 -x,1/2+y,1/2-z
3 -x,-y,-z
4 x,1/2-y,1/2+z
_cell_length_a                   8.614(2)
_cell_length_b                   7.210(2)
_cell_length_c                   27.620(6)
_cell_angle_alpha                90
_cell_angle_beta                 93.98(11)
_cell_angle_gamma                90
_cell_volume                     1711.26
_cell_formula_units_Z            4
loop_
_atom_site_label
_atom_site_type_symbol
_atom_site_fract_x
_atom_site_fract_y
_atom_site_fract_z
O1 O 0.23420 0.36760 0.37630
O2 O 0.40080 0.54520 0.42120
C1 C 0.20310 0.12550 0.43100
C2 C 0.15820 -0.02570 0.45710
C3 C 0.22180 -0.04350 0.50460
C4 C 0.32490 0.08560 0.52550
C5 C 0.36770 0.23900 0.49970
C6 C 0.30500 0.25460 0.45220
C7 C 0.15540 0.18650 0.37930
C8 C 0.32470 0.40650 0.41770
C9 C -0.26730 0.35590 0.38080
C10 C -0.34550 0.20670 0.36000
C11 C -0.26290 0.05380 0.34600
C12 C -0.09970 0.05550 0.35210
C13 C -0.02090 0.20660 0.37250
C14 C -0.10380 0.35890 0.38780
C15 C -0.03190 0.52770 0.41380
C16 C 0.22370 0.06770 0.33980
C17 C 0.30020 -0.09800 0.35170
C18 C 0.36640 -0.20640 0.31690
C19 C 0.35750 -0.14790 0.26940
C20 C 0.28180 0.01540 0.25700
C21 C 0.21240 0.12720 0.29090
C22 C 0.13070 0.30330 0.27410
H1 H 0.07700 -0.10700 0.44300
H2 H 0.18600 -0.12700 0.52300
H3 H 0.38000 0.07400 0.56000
H4 H 0.44100 0.34500 0.51300
H5 H -0.33800 0.45100 0.39200
H6 H -0.46900 0.19900 0.35900
H7 H -0.32000 -0.06700 0.33400
H8 H -0.03700 -0.05100 0.34300
H9 H 0.30800 -0.14500 0.38200
H10 H 0.42900 -0.31400 0.32700
H11 H 0.42400 -0.20900 0.24400
H12 H 0.28000 0.05700 0.22300
H13 H -0.10900 0.61600 0.42600
H14 H 0.00600 0.58400 0.38900
H15 H 0.01800 0.47800 0.45000
H16 H 0.15600 0.41600 0.28200
H17 H 0.01000 0.32400 0.28500
H18 H 0.10400 0.30600 0.23900
loop_
_geom_bond_atom_site_label_1
_geom_bond_atom_site_label_2
_geom_bond_site_symmetry_1
_geom_bond_site_symmetry_2
O1 C7 1_555 1_555
O2 C8 1_555 1_555
C1 C2 1_555 1_555
C2 C3 1_555 1_555
C3 C4 1_555 1_555
C4 C5 1_555 1_555
C5 C6 1_555 1_555
C6 C1 1_555 1_555
C7 C1 1_555 1_555
C8 O1 1_555 1_555
C9 C10 1_555 1_555
C10 C11 1_555 1_555
C11 C12 1_555 1_555
C12 C13 1_555 1_555
C13 C7 1_555 1_555
C14 C9 1_555 1_555
C15 C14 1_555 1_555
C16 C7 1_555 1_555
C17 C16 1_555 1_555
C18 C17 1_555 1_555
C19 C18 1_555 1_555
C20 C19 1_555 1_555
C21 C16 1_555 1_555
C22 C21 1_555 1_555
H1 C2 1_555 1_555
H2 C3 1_555 1_555
H3 C4 1_555 1_555
H4 C5 1_555 1_555
H5 C9 1_555 1_555
H6 C10 1_555 1_555
H7 C11 1_555 1_555
H8 C12 1_555 1_555
H9 C17 1_555 1_555
H10 C18 1_555 1_555
H11 C19 1_555 1_555
H12 C20 1_555 1_555
H13 C15 1_555 1_555
H14 C15 1_555 1_555
H15 C15 1_555 1_555
H16 C22 1_555 1_555
H17 C22 1_555 1_555
H18 C22 1_555 1_555
C6 C8 1_555 1_555
C13 C14 1_555 1_555
C20 C21 1_555 1_555

#END
