
#######################################################################
#
#                 Cambridge Crystallographic Data Centre
#                                CCDC 
#
#######################################################################
#
# If this CIF has been generated from an entry in the Cambridge 
# Structural Database, then it will include bibliographic, chemical, 
# crystal, experimental, refinement or atomic coordinate data resulting 
# from the CCDC's data processing and validation procedures.
#
#######################################################################

data_OTOBIJ
_chemical_formula_moiety         'C29 H22 N2'
_chemical_name_systematic        
1,2-bis(4-methylphenyl)-1H-phenanthro[9,10-d]imidazole
_symmetry_cell_setting           monoclinic
_symmetry_space_group_name_H-M   'P 21/c'
_symmetry_Int_Tables_number      14
_space_group_name_Hall           '-P 2ybc'
loop_
_symmetry_equiv_pos_site_id
_symmetry_equiv_pos_as_xyz
1 x,y,z
2 -x,1/2+y,1/2-z
3 -x,-y,-z
4 x,1/2-y,1/2+z
_cell_length_a                   13.726(3)
_cell_length_b                   8.4643(17)
_cell_length_c                   19.367(4)
_cell_angle_alpha                90
_cell_angle_beta                 109.14(3)
_cell_angle_gamma                90
_cell_volume                     2125.69
_exptl_crystal_description       block
_cell_formula_units_Z            4
loop_
_atom_site_label
_atom_site_type_symbol
_atom_site_fract_x
_atom_site_fract_y
_atom_site_fract_z
N1 N 0.25046(16) 0.8737(2) 0.27706(10)
C1 C 0.17696(19) 1.1402(2) 0.30240(12)
C2 C 0.15848(18) 1.0156(3) 0.18403(12)
C3 C 0.19659(18) 1.0155(2) 0.25836(12)
C4 C 0.11133(19) 1.2640(3) 0.26373(13)
N2 N 0.18547(16) 0.8805(2) 0.15529(10)
C5 C 0.09682(19) 1.1431(3) 0.14348(13)
C6 C 0.0608(2) 1.1447(3) 0.06725(13)
H1 H 0.0794 1.0634 0.0417
C7 C 0.07212(19) 1.2668(3) 0.18350(13)
C8 C 0.2599(2) 0.7422(3) 0.39088(14)
H2 H 0.1905 0.7156 0.3710
C9 C 0.2148(2) 1.1471(3) 0.37921(13)
H3 H 0.2597 1.0690 0.4051
C10 C 0.3079(2) 0.8236(3) 0.34998(12)
C11 C 0.0094(2) 1.3886(3) 0.14288(15)
H4 H -0.0078 1.4729 0.1674
C12 C 0.2401(2) 0.7969(3) 0.21203(12)
C13 C 0.0849(2) 1.3829(3) 0.30463(15)
H5 H 0.0413 1.4637 0.2802
C14 C 0.28140(19) 0.6401(3) 0.20316(13)
C15 C 0.1870(2) 1.2665(3) 0.41668(15)
H6 H 0.2126 1.2684 0.4675
C16 C 0.1211(2) 1.3842(3) 0.37913(15)
H7 H 0.1014 1.4643 0.4047
C17 C -0.0012(2) 1.2632(3) 0.02958(15)
H8 H -0.0262 1.2622 -0.0212
C18 C 0.4104(2) 0.8636(3) 0.37934(14)
H9 H 0.4430 0.9196 0.3518
C19 C 0.4183(3) 0.7365(3) 0.49239(16)
C20 C 0.4643(2) 0.8193(3) 0.45012(15)
H10 H 0.5336 0.8460 0.4699
C21 C -0.0265(2) 1.3860(3) 0.06862(16)
H11 H -0.0687 1.4675 0.0434
C22 C 0.3455(2) 0.3374(3) 0.17398(17)
C23 C 0.3551(3) 0.3844(3) 0.24176(19)
H12 H 0.3845 0.3150 0.2802
C24 C 0.3152(3) 0.7001(3) 0.46157(16)
H13 H 0.2822 0.6457 0.4892
C25 C 0.3232(3) 0.5322(3) 0.25750(17)
H14 H 0.3303 0.5580 0.3056
C26 C 0.2696(3) 0.5912(4) 0.13452(17)
H15 H 0.2390 0.6590 0.0957
C27 C 0.4790(3) 0.6873(5) 0.56978(18)
H16 H 0.4898 0.5751 0.5714
H17 H 0.4412 0.7153 0.6018
H18 H 0.5444 0.7403 0.5851
C28 C 0.3783(3) 0.1745(3) 0.1587(2)
H19 H 0.4353 0.1833 0.1404
H20 H 0.3217 0.1231 0.1228
H21 H 0.3989 0.1137 0.2029
C29 C 0.3014(3) 0.4438(4) 0.12017(19)
H22 H 0.2925 0.4163 0.0720
loop_
_geom_bond_atom_site_label_1
_geom_bond_atom_site_label_2
_geom_bond_site_symmetry_1
_geom_bond_site_symmetry_2
N1 C3 1_555 1_555
C1 C3 1_555 1_555
C2 C3 1_555 1_555
C4 C1 1_555 1_555
N2 C2 1_555 1_555
C5 C2 1_555 1_555
C6 C5 1_555 1_555
H1 C6 1_555 1_555
C7 C4 1_555 1_555
C8 H2 1_555 1_555
C9 C1 1_555 1_555
H3 C9 1_555 1_555
C10 N1 1_555 1_555
C11 C7 1_555 1_555
H4 C11 1_555 1_555
C12 N1 1_555 1_555
C13 C4 1_555 1_555
H5 C13 1_555 1_555
C14 C12 1_555 1_555
C15 C9 1_555 1_555
H6 C15 1_555 1_555
C16 C13 1_555 1_555
H7 C16 1_555 1_555
C17 C6 1_555 1_555
H8 C17 1_555 1_555
C18 C10 1_555 1_555
H9 C18 1_555 1_555
C19 C20 1_555 1_555
C20 C18 1_555 1_555
H10 C20 1_555 1_555
C21 C11 1_555 1_555
H11 C21 1_555 1_555
C22 C23 1_555 1_555
C23 H12 1_555 1_555
C24 C8 1_555 1_555
H13 C24 1_555 1_555
C25 C14 1_555 1_555
H14 C25 1_555 1_555
C26 C14 1_555 1_555
H15 C26 1_555 1_555
C27 C19 1_555 1_555
H16 C27 1_555 1_555
H17 C27 1_555 1_555
H18 C27 1_555 1_555
C28 C22 1_555 1_555
H19 C28 1_555 1_555
H20 C28 1_555 1_555
H21 C28 1_555 1_555
C29 C22 1_555 1_555
H22 C29 1_555 1_555
N2 C12 1_555 1_555
C5 C7 1_555 1_555
C8 C10 1_555 1_555
C15 C16 1_555 1_555
C17 C21 1_555 1_555
C19 C24 1_555 1_555
C23 C25 1_555 1_555
C26 C29 1_555 1_555

#END
