
#######################################################################
#
#                 Cambridge Crystallographic Data Centre
#                                CCDC 
#
#######################################################################
#
# If this CIF has been generated from an entry in the Cambridge 
# Structural Database, then it will include bibliographic, chemical, 
# crystal, experimental, refinement or atomic coordinate data resulting 
# from the CCDC's data processing and validation procedures.
#
#######################################################################

data_OTOFUZ
_chemical_formula_moiety         'C30 H30 O2,C6 N4'
_chemical_name_systematic        
'Ethene-1,1,2,2-tetracarbonitrile pentacyclo[22.2.2.2^11,14^.0^5,18^.0^7,20^]triaconta-1(26),5(18),6,11,13,19,24,27,29-nonaene-3,22-dione'
_symmetry_cell_setting           monoclinic
_symmetry_space_group_name_H-M   'C 2/c'
_symmetry_Int_Tables_number      15
_space_group_name_Hall           '-C 2yn'
loop_
_symmetry_equiv_pos_site_id
_symmetry_equiv_pos_as_xyz
1 x,y,z
2 -x,y,1/2-z
3 1/2+x,1/2+y,z
4 1/2-x,1/2+y,1/2-z
5 -x,-y,-z
6 x,-y,1/2+z
7 1/2-x,1/2-y,-z
8 1/2+x,1/2-y,1/2+z
_cell_length_a                   16.670(5)
_cell_length_b                   12.893(3)
_cell_length_c                   13.816(3)
_cell_angle_alpha                90
_cell_angle_beta                 110.292(12)
_cell_angle_gamma                90
_cell_volume                     2785.13
_exptl_crystal_colour            black
_exptl_crystal_description       needle
_cell_formula_units_Z            4
loop_
_atom_site_label
_atom_site_type_symbol
_atom_site_fract_x
_atom_site_fract_y
_atom_site_fract_z
C1 C -0.16726(10) -0.15273(12) 0.58880(15)
H1 H -0.2108(16) -0.1452(18) 0.6185(17)
H2 H -0.1808(14) -0.2098(18) 0.5374(17)
C2 C -0.16605(8) -0.05327(11) 0.53040(11)
C3 C -0.16411(9) 0.05077(11) 0.58281(12)
H3 H -0.2092(14) 0.0486(15) 0.6113(15)
H4 H -0.1760(12) 0.1041(16) 0.5301(15)
C4 C -0.07981(8) 0.07047(10) 0.66932(10)
C5 C -0.07519(9) 0.07554(10) 0.77185(11)
H5 H -0.1268(13) 0.0750(14) 0.7867(14)
C6 C 0.00358(9) 0.07606(10) 0.85167(10)
H6 H 0.0036(10) 0.0741(13) 0.9215(13)
C7 C -0.00847(9) -0.17888(10) 0.64837(13)
H7 H -0.0158(12) -0.1797(13) 0.5758(15)
C8 C -0.08187(9) -0.17255(10) 0.67477(13)
C9 C -0.07391(9) -0.18401(10) 0.77857(13)
C10 C -0.14943(10) -0.20347(12) 0.81309(15)
H8 H -0.1282(13) -0.2080(16) 0.8917(17)
H9 H -0.1915(13) -0.1475(16) 0.7927(15)
C11 C -0.19788(10) -0.30590(11) 0.77463(14)
H10 H -0.2546(10) -0.3033(12) 0.7916(12)
H11 H -0.2206(12) -0.3093(14) 0.6937(15)
C12 C -0.14955(10) -0.40773(12) 0.81331(14)
H12 H -0.1297(12) -0.4102(15) 0.8867(15)
H13 H -0.1917(13) -0.4677(16) 0.7887(15)
C13 C -0.07245(9) -0.42588(10) 0.78119(11)
C14 C 0.01022(9) -0.43127(10) 0.85354(11)
H14 H 0.0176(12) -0.4291(14) 0.9290(14)
C15 C -0.08159(9) -0.43150(10) 0.67699(11)
H15 H -0.1389(12) -0.4305(13) 0.6237(14)
O1 O -0.16780(9) -0.05572(12) 0.44253(9)
C1A C 0.16726(10) -0.15273(12) 0.91120(15)
H1A H 0.2108(16) -0.1452(18) 0.8815(17)
H2A H 0.1808(14) -0.2098(18) 0.9626(17)
C2A C 0.16605(8) -0.05327(11) 0.96960(11)
C3A C 0.16411(9) 0.05077(11) 0.91719(12)
H3A H 0.2092(14) 0.0486(15) 0.8887(15)
H4A H 0.1760(12) 0.1041(16) 0.9699(15)
C4A C 0.07981(8) 0.07047(10) 0.83068(10)
C5A C 0.07519(9) 0.07554(10) 0.72815(11)
H5A H 0.1268(13) 0.0750(14) 0.7133(14)
C6A C -0.00358(9) 0.07606(10) 0.64833(10)
H6A H -0.0036(10) 0.0741(13) 0.5785(13)
C7A C 0.00847(9) -0.17888(10) 0.85163(13)
H7A H 0.0158(12) -0.1797(13) 0.9242(15)
C8A C 0.08187(9) -0.17255(10) 0.82523(13)
C9A C 0.07391(9) -0.18401(10) 0.72143(13)
C10A C 0.14943(10) -0.20347(12) 0.68691(15)
H8A H 0.1282(13) -0.2080(16) 0.6083(17)
H9A H 0.1915(13) -0.1475(16) 0.7073(15)
C11A C 0.19788(10) -0.30590(11) 0.72537(14)
H10A H 0.2546(10) -0.3033(12) 0.7084(12)
H11A H 0.2206(12) -0.3093(14) 0.8063(15)
C12A C 0.14955(10) -0.40773(12) 0.68669(14)
H12A H 0.1297(12) -0.4102(15) 0.6133(15)
H13A H 0.1917(13) -0.4677(16) 0.7113(15)
C13A C 0.07245(9) -0.42588(10) 0.71881(11)
C14A C -0.01022(9) -0.43127(10) 0.64646(11)
H14A H -0.0176(12) -0.4291(14) 0.5710(14)
C15A C 0.08159(9) -0.43150(10) 0.82301(11)
H15A H 0.1389(12) -0.4305(13) 0.8763(14)
O1A O 0.16780(9) -0.05572(12) 1.05747(9)
C16 C 0.04272(13) -0.32307(14) 0.25910(16)
C17 C 0.10199(10) -0.32189(11) 0.36477(12)
C18 C 0.07262(10) -0.32476(11) 0.17116(13)
N1 N 0.15541(9) -0.32011(10) 0.44162(11)
N2 N 0.10722(10) -0.32718(10) 0.11414(11)
C16A C -0.04272(13) -0.32307(14) 0.24090(16)
C17A C -0.10199(10) -0.32189(11) 0.13523(12)
C18A C -0.07262(10) -0.32476(11) 0.32884(13)
N1A N -0.15541(9) -0.32011(10) 0.05838(11)
N2A N -0.10722(10) -0.32718(10) 0.38586(11)
C19? C 0.0087(4) -0.3234(4) 0.3008(4)
loop_
_geom_bond_atom_site_label_1
_geom_bond_atom_site_label_2
_geom_bond_site_symmetry_1
_geom_bond_site_symmetry_2
C1 H1 1_555 1_555
H2 C1 1_555 1_555
C2 C1 1_555 1_555
C3 C2 1_555 1_555
H3 C3 1_555 1_555
H4 C3 1_555 1_555
C4 C3 1_555 1_555
C5 C4 1_555 1_555
H5 C5 1_555 1_555
C6 C5 1_555 1_555
H6 C6 1_555 1_555
C7 H7 1_555 1_555
C8 C1 1_555 1_555
C9 C8 1_555 1_555
C10 C9 1_555 1_555
H8 C10 1_555 1_555
H9 C10 1_555 1_555
C11 C10 1_555 1_555
H10 C11 1_555 1_555
H11 C11 1_555 1_555
C12 C11 1_555 1_555
H12 C12 1_555 1_555
H13 C12 1_555 1_555
C13 C12 1_555 1_555
C14 C13 1_555 1_555
H14 C14 1_555 1_555
C15 C13 1_555 1_555
H15 C15 1_555 1_555
C16 C17 1_555 1_555
C17 N1 1_555 1_555
C18 C16 1_555 1_555
N2 C18 1_555 1_555
O1 C2 1_555 1_555
C1A H1A 1_555 1_555
H2A C1A 1_555 1_555
C2A C1A 1_555 1_555
C3A C2A 1_555 1_555
H3A C3A 1_555 1_555
H4A C3A 1_555 1_555
C4A C6 1_555 1_555
C5A C4A 1_555 1_555
H5A C5A 1_555 1_555
C6A C4 1_555 1_555
H6A C6A 1_555 1_555
C7A C9 1_555 1_555
H7A C7A 1_555 1_555
C8A C1A 1_555 1_555
C9A C7 1_555 1_555
C10A C9A 1_555 1_555
H8A C10A 1_555 1_555
H9A C10A 1_555 1_555
C11A C10A 1_555 1_555
H10A C11A 1_555 1_555
H11A C11A 1_555 1_555
C12A C11A 1_555 1_555
H12A C12A 1_555 1_555
H13A C12A 1_555 1_555
C13A C12A 1_555 1_555
C14A C15 1_555 1_555
H14A C14A 1_555 1_555
C15A C14 1_555 1_555
H15A C15A 1_555 1_555
C16A C16 1_555 1_555
C17A C16A 1_555 1_555
C18A C16A 1_555 1_555
N1A C17A 1_555 1_555
N2A C18A 1_555 1_555
O1A C2A 1_555 1_555
C7 C8 1_555 1_555
C3A C4A 1_555 1_555
C5A C6A 1_555 1_555
C7A C8A 1_555 1_555
C8A C9A 1_555 1_555
C13A C14A 1_555 1_555
C13A C15A 1_555 1_555

#END
