
#######################################################################
#
#                 Cambridge Crystallographic Data Centre
#                                CCDC 
#
#######################################################################
#
# If this CIF has been generated from an entry in the Cambridge 
# Structural Database, then it will include bibliographic, chemical, 
# crystal, experimental, refinement or atomic coordinate data resulting 
# from the CCDC's data processing and validation procedures.
#
#######################################################################

data_OTOFAF
_chemical_formula_moiety         'C16 H13 N2 S1 1+,F6 P1 1-'
_chemical_name_systematic        
'1,3-Dimethylbenz[gh]perimidin-3a-ium-2-thione hexafluorophosphate'
_symmetry_cell_setting           orthorhombic
_symmetry_space_group_name_H-M   'F d d d'
_symmetry_Int_Tables_number      70
_space_group_name_Hall           '-F 2uv 2vw'
loop_
_symmetry_equiv_pos_site_id
_symmetry_equiv_pos_as_xyz
1 x,y,z
2 3/4-x,3/4-y,z
3 3/4-x,y,3/4-z
4 x,3/4-y,3/4-z
5 x,1/2+y,1/2+z
6 3/4-x,1/4-y,1/2+z
7 3/4-x,1/2+y,1/4-z
8 x,1/4-y,1/4-z
9 1/2+x,y,1/2+z
10 1/4-x,3/4-y,1/2+z
11 1/4-x,y,1/4-z
12 1/2+x,3/4-y,1/4-z
13 1/2+x,1/2+y,z
14 1/4-x,1/4-y,z
15 1/4-x,1/2+y,3/4-z
16 1/2+x,1/4-y,3/4-z
17 -x,-y,-z
18 1/4+x,1/4+y,-z
19 1/4+x,-y,1/4+z
20 -x,1/4+y,1/4+z
21 -x,1/2-y,1/2-z
22 1/4+x,3/4+y,1/2-z
23 1/4+x,1/2-y,3/4+z
24 -x,3/4+y,3/4+z
25 1/2-x,-y,1/2-z
26 3/4+x,1/4+y,1/2-z
27 3/4+x,-y,3/4+z
28 1/2-x,1/4+y,3/4+z
29 1/2-x,1/2-y,-z
30 3/4+x,3/4+y,-z
31 3/4+x,1/2-y,1/4+z
32 1/2-x,3/4+y,1/4+z
_cell_length_a                   14.132(5)
_cell_length_b                   23.773(11)
_cell_length_c                   38.771(13)
_cell_angle_alpha                90
_cell_angle_beta                 90
_cell_angle_gamma                90
_cell_volume                     13025.5
_cell_formula_units_Z            32
loop_
_atom_site_label
_atom_site_type_symbol
_atom_site_fract_x
_atom_site_fract_y
_atom_site_fract_z
S1 S 0.26182(9) 0.33010(6) 0.00612(5)
N1 N 0.4062(2) 0.28002(13) -0.02449(10)
N2 N 0.4081(2) 0.27964(13) 0.03563(10)
C1 C 0.4900(3) 0.25187(15) -0.02592(11)
C2 C 0.5340(4) 0.23656(19) -0.05728(12)
H1 H 0.5056 0.2455 -0.0782
C3 C 0.6180(4) 0.2088(2) -0.05672(16)
H2 H 0.6459 0.1992 -0.0776
C4 C 0.6642(3) 0.19412(18) -0.02646(17)
C5 C 0.7517(4) 0.1660(2) -0.0255(2)
H3 H 0.7810 0.1561 -0.0461
C6 C 0.7942(4) 0.1529(2) 0.0050(2)
H4 H 0.8526 0.1348 0.0051
C7 C 0.7517(4) 0.1661(2) 0.0351(2)
H5 H 0.7810 0.1562 0.0557
C8 C 0.6646(3) 0.19427(16) 0.03623(17)
C9 C 0.6196(4) 0.2091(2) 0.06675(15)
H6 H 0.6480 0.1998 0.0876
C10 C 0.5363(4) 0.23654(19) 0.06720(13)
H7 H 0.5081 0.2456 0.0882
C11 C 0.4920(3) 0.25152(15) 0.03628(11)
C12 C 0.5344(3) 0.23740(14) 0.00481(10)
C13 C 0.6217(3) 0.20863(15) 0.00484(11)
C14 C 0.3601(4) 0.2945(2) -0.05772(13)
H8 H 0.4001 0.3196 -0.0705
H9 H 0.3004 0.3124 -0.0533
H10 H 0.3499 0.2608 -0.0709
C15 C 0.3629(3) 0.29507(17) 0.00578(14)
C16 C 0.3643(4) 0.2948(2) 0.06902(14)
H11 H 0.4053 0.3200 0.0813
H12 H 0.3546 0.2614 0.0825
H13 H 0.3046 0.3129 0.0650
P1 P 0.34108(17) 0.1250 0.1250
F1 F 0.3402(3) 0.13347(16) 0.08510(8)
F2 F 0.4159(8) 0.0792(7) 0.1219(3)
F3 F 0.2577(6) 0.0782(4) 0.1228(2)
F1G F 0.3402(3) 0.11653(16) 0.16490(8)
F2G F 0.4159(8) 0.1708(7) 0.1281(3)
F3G F 0.2577(6) 0.1718(4) 0.1272(2)
P2 P 0.1250 0.37157(10) 0.1250
F7 F 0.1482(3) 0.37163(16) 0.08564(8)
F8 F 0.1250 0.3058(6) 0.1250
F9 F 0.1250 0.4322(6) 0.1250
F10 F 0.0151(9) 0.3672(5) 0.1177(4)
F7J F 0.1018(3) 0.37163(16) 0.16436(8)
F10J F 0.2349(9) 0.3672(5) 0.1323(4)
F4? F 0.4578(15) 0.1250 0.1250
F5? F 0.3487(12) 0.0625(5) 0.1187(4)
F6? F 0.2373(13) 0.1250 0.1250
F11? F 0.0497(10) 0.3273(6) 0.1194(4)
F12? F 0.0495(9) 0.4207(6) 0.1180(4)
loop_
_geom_bond_atom_site_label_1
_geom_bond_atom_site_label_2
_geom_bond_site_symmetry_1
_geom_bond_site_symmetry_2
S1 C15 1_555 1_555
N1 C1 1_555 1_555
N2 C11 1_555 1_555
C1 C2 1_555 1_555
C2 H1 1_555 1_555
C3 C2 1_555 1_555
H2 C3 1_555 1_555
C4 C3 1_555 1_555
C5 C4 1_555 1_555
H3 C5 1_555 1_555
C6 C5 1_555 1_555
H4 C6 1_555 1_555
C7 C6 1_555 1_555
H5 C7 1_555 1_555
C8 C7 1_555 1_555
C9 C8 1_555 1_555
H6 C9 1_555 1_555
C10 C9 1_555 1_555
H7 C10 1_555 1_555
C11 C10 1_555 1_555
C12 C1 1_555 1_555
C13 C4 1_555 1_555
C14 N1 1_555 1_555
H8 C14 1_555 1_555
H9 C14 1_555 1_555
H10 C14 1_555 1_555
C15 N1 1_555 1_555
C16 N2 1_555 1_555
H11 C16 1_555 1_555
H12 C16 1_555 1_555
H13 C16 1_555 1_555
P1 F1 1_555 1_555
F2 P1 1_555 1_555
F3 P1 1_555 1_555
P2 F7 1_555 1_555
F8 P2 1_555 1_555
F9 P2 1_555 1_555
F10 P2 1_555 1_555
F1G P1 1_555 1_555
F2G P1 1_555 1_555
F3G P1 1_555 1_555
F7J P2 1_555 1_555
F10J P2 1_555 1_555
N2 C15 1_555 1_555
C8 C13 1_555 1_555
C11 C12 1_555 1_555
C12 C13 1_555 1_555

#END
