
#######################################################################
#
#                 Cambridge Crystallographic Data Centre
#                                CCDC 
#
#######################################################################
#
# If this CIF has been generated from an entry in the Cambridge 
# Structural Database, then it will include bibliographic, chemical, 
# crystal, experimental, refinement or atomic coordinate data resulting 
# from the CCDC's data processing and validation procedures.
#
#######################################################################

data_OTOKOY
_chemical_formula_moiety         'C21 H17 Br1 N2 O4'
_chemical_name_systematic        
'Ethyl (1-(4-bromophenyl)-2,5-dioxopyrrolidin-3-yl)(cyano)phenylacetate'
_symmetry_cell_setting           orthorhombic
_symmetry_space_group_name_H-M   'P 21 21 21'
_symmetry_Int_Tables_number      19
_space_group_name_Hall           'P 2ac 2ab'
loop_
_symmetry_equiv_pos_site_id
_symmetry_equiv_pos_as_xyz
1 x,y,z
2 1/2-x,-y,1/2+z
3 1/2+x,1/2-y,-z
4 -x,1/2+y,1/2-z
_cell_length_a                   6.69858(12)
_cell_length_b                   14.6440(3)
_cell_length_c                   20.0306(3)
_cell_angle_alpha                90
_cell_angle_beta                 90
_cell_angle_gamma                90
_cell_volume                     1964.88
_exptl_crystal_colour            colorless
_exptl_crystal_description       needle
_cell_formula_units_Z            4
loop_
_atom_site_label
_atom_site_type_symbol
_atom_site_fract_x
_atom_site_fract_y
_atom_site_fract_z
Br1 Br -0.66731(4) -0.318355(18) -0.203306(12)
O1 O -1.3308(2) -0.47087(9) -0.43732(6)
O2 O -0.8821(2) -0.27410(10) -0.53044(7)
O3 O -1.7059(2) -0.49942(11) -0.53398(7)
N1 N -1.0806(2) -0.37242(11) -0.47027(8)
C1 C -1.5152(4) -0.43282(15) -0.79141(12)
H1 H -1.5430 -0.4168 -0.8354
C2 C -1.2527(3) -0.42377(13) -0.47925(9)
C3 C -0.6930(3) -0.37610(14) -0.33800(10)
H2 H -0.5619 -0.3952 -0.3318
C4 C -0.9840(3) -0.35973(12) -0.40685(9)
O4 O -1.5297(2) -0.63063(10) -0.53473(8)
C5 C -1.3819(3) -0.50085(13) -0.58625(9)
C6 C -1.0200(3) -0.32681(13) -0.52794(9)
C7 C -1.3238(3) -0.40979(12) -0.55120(9)
H3 H -1.4418 -0.3703 -0.5503
C8 C -1.0863(3) -0.31759(15) -0.35558(9)
H4 H -1.2169 -0.2978 -0.3619
C9 C -1.5608(3) -0.54352(14) -0.54809(10)
C10 C -0.7961(3) -0.33421(13) -0.28675(10)
N2 N -1.0762(3) -0.61221(13) -0.57952(9)
C11 C -1.1530(3) -0.35712(13) -0.58450(9)
H5 H -1.0805 -0.3961 -0.6152
H6 H -1.2040 -0.3048 -0.6089
C12 C -0.9920(3) -0.30499(13) -0.29432(11)
H7 H -1.0591 -0.2774 -0.2590
C13 C -1.3347(5) -0.47095(16) -0.77549(10)
H8 H -1.2394 -0.4802 -0.8086
C14 C -0.7879(3) -0.38928(13) -0.39903(10)
H9 H -0.7212 -0.4175 -0.4341
C15 C -1.4329(3) -0.48067(13) -0.65989(9)
C16 C -1.6554(4) -0.41814(17) -0.74246(12)
H10 H -1.7781 -0.3927 -0.7537
C17 C -1.2935(4) -0.49605(14) -0.70953(11)
H11 H -1.1720 -0.5232 -0.6990
C18 C -1.2118(3) -0.56462(13) -0.58250(9)
C19 C -1.6160(4) -0.44102(15) -0.67606(12)
H12 H -1.7106 -0.4300 -0.6431
C20 C -1.6761(4) -0.67674(17) -0.49213(13)
H13 H -1.6776 -0.7415 -0.5022
H14 H -1.8083 -0.6524 -0.5009
C21 C -1.6234(4) -0.66257(17) -0.42008(13)
H15 H -1.4894 -0.6831 -0.4123
H16 H -1.7139 -0.6967 -0.3925
H17 H -1.6333 -0.5988 -0.4094
loop_
_geom_bond_atom_site_label_1
_geom_bond_atom_site_label_2
_geom_bond_site_symmetry_1
_geom_bond_site_symmetry_2
Br1 C10 1_555 1_555
O1 C2 1_555 1_555
O2 C6 1_555 1_555
O3 C9 1_555 1_555
N1 C2 1_555 1_555
C1 H1 1_555 1_555
C2 C7 1_555 1_555
C3 H2 1_555 1_555
C4 N1 1_555 1_555
O4 C9 1_555 1_555
C5 C7 1_555 1_555
C6 N1 1_555 1_555
C7 H3 1_555 1_555
C8 C4 1_555 1_555
H4 C8 1_555 1_555
C9 C5 1_555 1_555
C10 C3 1_555 1_555
N2 C18 1_555 1_555
C11 C6 1_555 1_555
H5 C11 1_555 1_555
H6 C11 1_555 1_555
C12 C8 1_555 1_555
H7 C12 1_555 1_555
C13 C1 1_555 1_555
H8 C13 1_555 1_555
C14 C3 1_555 1_555
H9 C14 1_555 1_555
C15 C5 1_555 1_555
C16 C1 1_555 1_555
H10 C16 1_555 1_555
C17 C13 1_555 1_555
H11 C17 1_555 1_555
C18 C5 1_555 1_555
C19 C15 1_555 1_555
H12 C19 1_555 1_555
C20 O4 1_555 1_555
H13 C20 1_555 1_555
H14 C20 1_555 1_555
C21 C20 1_555 1_555
H15 C21 1_555 1_555
H16 C21 1_555 1_555
H17 C21 1_555 1_555
C4 C14 1_555 1_555
C7 C11 1_555 1_555
C10 C12 1_555 1_555
C15 C17 1_555 1_555
C16 C19 1_555 1_555

#END
