
#######################################################################
#
#                 Cambridge Crystallographic Data Centre
#                                CCDC 
#
#######################################################################
#
# If this CIF has been generated from an entry in the Cambridge 
# Structural Database, then it will include bibliographic, chemical, 
# crystal, experimental, refinement or atomic coordinate data resulting 
# from the CCDC's data processing and validation procedures.
#
#######################################################################

data_OTOPAP
_chemical_formula_moiety         'C24 H34 N2 O4 S2'
_chemical_name_systematic        
N,N'-Cyclohexane-1,2-diylbis(2,4,6-trimethylbenzenesulfonamide)
_symmetry_cell_setting           triclinic
_symmetry_space_group_name_H-M   'P -1'
_symmetry_Int_Tables_number      2
_space_group_name_Hall           '-P 1'
loop_
_symmetry_equiv_pos_site_id
_symmetry_equiv_pos_as_xyz
1 x,y,z
2 -x,-y,-z
_cell_length_a                   7.8913(3)
_cell_length_b                   8.2462(4)
_cell_length_c                   19.0435(9)
_cell_angle_alpha                88.423(2)
_cell_angle_beta                 89.411(2)
_cell_angle_gamma                75.9003(18)
_cell_volume                     1201.43
_exptl_crystal_colour            colorless
_exptl_crystal_description       plate
_cell_formula_units_Z            2
loop_
_atom_site_label
_atom_site_type_symbol
_atom_site_fract_x
_atom_site_fract_y
_atom_site_fract_z
C1 C 0.4458(3) 0.3325(2) 0.22436(10)
C2 C 0.5630(3) 0.3687(3) 0.28296(11)
C3 C 0.5507(3) 0.5570(3) 0.28487(13)
C4 C 0.3614(3) 0.6589(3) 0.29106(13)
C5 C 0.2534(3) 0.6240(3) 0.23004(14)
C6 C 0.2584(3) 0.4386(3) 0.22965(12)
C7 C 0.8278(3) 0.1236(3) 0.39957(10)
C8 C 0.8147(3) -0.0409(3) 0.38701(11)
C9 C 0.7667(3) -0.1338(3) 0.44272(12)
C10 C 0.7316(3) -0.0708(3) 0.50958(12)
C11 C 0.7460(3) 0.0907(3) 0.52031(11)
C12 C 0.7919(3) 0.1921(3) 0.46708(11)
C13 C 0.8439(4) -0.1244(3) 0.31677(13)
C14 C 0.6779(3) -0.1748(3) 0.56813(13)
C15 C 0.7962(5) 0.3675(3) 0.48720(14)
C16 C 0.4064(3) 0.1439(2) 0.08113(11)
C17 C 0.4867(3) 0.2299(2) 0.03063(11)
C18 C 0.3864(3) 0.3064(3) -0.02699(11)
C19 C 0.2143(3) 0.2993(3) -0.03626(11)
C20 C 0.1401(3) 0.2138(3) 0.01457(12)
C21 C 0.2309(3) 0.1350(3) 0.07344(11)
C22 C 0.6737(3) 0.2441(3) 0.03137(13)
C23 C 0.1120(3) 0.3771(3) -0.09994(13)
C24 C 0.1344(3) 0.0446(4) 0.12390(13)
N1 N 0.7447(2) 0.2740(2) 0.26853(9)
N2 N 0.4443(2) 0.1537(2) 0.22471(9)
S1 S 0.89537(7) 0.23995(7) 0.32859(3)
S2 S 0.52283(6) 0.04290(6) 0.15646(3)
O1 O 0.9076(2) 0.3991(2) 0.35332(8)
O2 O 1.0485(2) 0.1360(2) 0.29636(8)
O3 O 0.70166(19) 0.05226(19) 0.15030(8)
O4 O 0.4871(2) -0.11801(19) 0.16841(8)
H1 H 0.750(4) 0.191(4) 0.2434(14)
H2 H 0.354(4) 0.137(4) 0.2387(16)
H3 H 0.4950 0.3606 0.1783
H4 H 0.5235 0.3298 0.3291
H5 H 0.6195 0.5799 0.3256
H6 H 0.3579 0.7809 0.2916
H7 H 0.3107 0.6252 0.3359
H8 H 0.1301 0.6913 0.2342
H9 H 0.3054 0.6555 0.1851
H10 H 0.2064 0.4075 0.2746
H11 H 0.1889 0.4153 0.1892
H12 H 0.7570 -0.2503 0.4341
H13 H 0.7219 0.1375 0.5683
H14 H 0.8269 -0.2404 0.3215
H15 H 0.9659 -0.1291 0.3006
H16 H 0.7593 -0.0586 0.2816
H17 H 0.6586 -0.1095 0.6122
H18 H 0.7719 -0.2793 0.5760
H19 H 0.5672 -0.2046 0.5549
H20 H 0.7657 0.3835 0.5381
H21 H 0.9163 0.3838 0.4786
H22 H 0.7102 0.4509 0.4581
H23 H 0.4414 0.3682 -0.0630
H24 H 0.0158 0.2084 0.0087
H25 H 0.6959 0.3117 -0.0106
H26 H 0.6955 0.3000 0.0752
H27 H 0.7538 0.1297 0.0300
H28 H 0.1717 0.4564 -0.1247
H29 H 0.0989 0.2888 -0.1329
H30 H -0.0067 0.4405 -0.0846
H31 H 0.0123 0.0567 0.1069
H32 H 0.1312 0.0932 0.1716
H33 H 0.1963 -0.0766 0.1265
H34 H 0.6012 0.5919 0.2402
loop_
_geom_bond_atom_site_label_1
_geom_bond_atom_site_label_2
_geom_bond_site_symmetry_1
_geom_bond_site_symmetry_2
C1 C2 1_555 1_555
C2 C3 1_555 1_555
C3 C4 1_555 1_555
C4 C5 1_555 1_555
C5 C6 1_555 1_555
C6 C1 1_555 1_555
C7 C8 1_555 1_555
C8 C9 1_555 1_555
C9 C10 1_555 1_555
C10 C11 1_555 1_555
C11 C12 1_555 1_555
C12 C7 1_555 1_555
C13 C8 1_555 1_555
C14 C10 1_555 1_555
C15 C12 1_555 1_555
C16 C17 1_555 1_555
C17 C18 1_555 1_555
C18 C19 1_555 1_555
C19 C20 1_555 1_555
C20 C21 1_555 1_555
C21 C16 1_555 1_555
C22 C17 1_555 1_555
C23 C19 1_555 1_555
C24 C21 1_555 1_555
N1 C2 1_555 1_555
N2 C1 1_555 1_555
S1 C7 1_555 1_555
S2 C16 1_555 1_555
O1 S1 1_555 1_555
O2 S1 1_555 1_555
O3 S2 1_555 1_555
O4 S2 1_555 1_555
H1 N1 1_555 1_555
H2 N2 1_555 1_555
H3 C1 1_555 1_555
H4 C2 1_555 1_555
H5 C3 1_555 1_555
H6 C4 1_555 1_555
H7 C4 1_555 1_555
H8 C5 1_555 1_555
H9 C5 1_555 1_555
H10 C6 1_555 1_555
H11 C6 1_555 1_555
H12 C9 1_555 1_555
H13 C11 1_555 1_555
H14 C13 1_555 1_555
H15 C13 1_555 1_555
H16 C13 1_555 1_555
H17 C14 1_555 1_555
H18 C14 1_555 1_555
H19 C14 1_555 1_555
H20 C15 1_555 1_555
H21 C15 1_555 1_555
H22 C15 1_555 1_555
H23 C18 1_555 1_555
H24 C20 1_555 1_555
H25 C22 1_555 1_555
H26 C22 1_555 1_555
H27 C22 1_555 1_555
H28 C23 1_555 1_555
H29 C23 1_555 1_555
H30 C23 1_555 1_555
H31 C24 1_555 1_555
H32 C24 1_555 1_555
H33 C24 1_555 1_555
H34 C3 1_555 1_555
N1 S1 1_555 1_555
N2 S2 1_555 1_555

#END
