
#######################################################################
#
#                 Cambridge Crystallographic Data Centre
#                                CCDC 
#
#######################################################################
#
# If this CIF has been generated from an entry in the Cambridge 
# Structural Database, then it will include bibliographic, chemical, 
# crystal, experimental, refinement or atomic coordinate data resulting 
# from the CCDC's data processing and validation procedures.
#
#######################################################################

data_OTOQIZ
_chemical_formula_moiety         'C9 H9 N5'
_chemical_name_systematic        3-ethyl-3H-imidazo[2,1-i]purine
_symmetry_cell_setting           orthorhombic
_symmetry_space_group_name_H-M   'P b c a'
_symmetry_Int_Tables_number      61
_space_group_name_Hall           '-P 2ac 2ab'
loop_
_symmetry_equiv_pos_site_id
_symmetry_equiv_pos_as_xyz
1 x,y,z
2 1/2+x,1/2-y,-z
3 -x,1/2+y,1/2-z
4 1/2-x,-y,1/2+z
5 -x,-y,-z
6 1/2-x,1/2+y,z
7 x,1/2-y,1/2+z
8 1/2+x,y,1/2-z
_cell_length_a                   11.1992(4)
_cell_length_b                   7.8525(3)
_cell_length_c                   18.8658(6)
_cell_angle_alpha                90
_cell_angle_beta                 90
_cell_angle_gamma                90
_cell_volume                     1659.09
_exptl_crystal_colour            colorless
_exptl_crystal_description       block
_cell_formula_units_Z            8
loop_
_atom_site_label
_atom_site_type_symbol
_atom_site_fract_x
_atom_site_fract_y
_atom_site_fract_z
C1 C 0.11996(10) 0.36278(15) 0.59349(6)
H1 H 0.0762 0.4541 0.5694
H2 H 0.1689 0.4114 0.6315
H3 H 0.0631 0.2813 0.6137
C2 C 0.19935(9) 0.27296(14) 0.54103(6)
H4 H 0.2594 0.3546 0.5228
H5 H 0.2427 0.1803 0.5656
N1 N 0.13340(7) 0.20114(11) 0.48125(4)
C3 C 0.01316(9) 0.19270(13) 0.47116(5)
H6 H -0.0429 0.2417 0.5030
N2 N -0.01845(7) 0.10984(11) 0.41288(5)
C4 C 0.08882(8) 0.06099(12) 0.38357(5)
C5 C 0.18329(8) 0.11710(12) 0.42489(5)
N3 N 0.30290(7) 0.09745(12) 0.41309(5)
C6 C 0.32739(9) 0.01192(13) 0.35585(6)
H7 H 0.4088 -0.0055 0.3438
N4 N 0.24144(7) -0.05426(11) 0.31205(4)
C7 C 0.11799(8) -0.03437(13) 0.32221(5)
N5 N 0.05667(8) -0.11281(12) 0.27238(5)
C8 C 0.14274(10) -0.18531(14) 0.22873(6)
H8 H 0.1248 -0.2512 0.1879
C9 C 0.25544(9) -0.15109(13) 0.25123(5)
H9 H 0.3282 -0.1860 0.2298
loop_
_geom_bond_atom_site_label_1
_geom_bond_atom_site_label_2
_geom_bond_site_symmetry_1
_geom_bond_site_symmetry_2
C1 H1 1_555 1_555
H2 C1 1_555 1_555
H3 C1 1_555 1_555
C2 C1 1_555 1_555
H4 C2 1_555 1_555
H5 C2 1_555 1_555
N1 C2 1_555 1_555
C3 N1 1_555 1_555
H6 C3 1_555 1_555
N2 C3 1_555 1_555
C4 N2 1_555 1_555
C5 N1 1_555 1_555
N3 C5 1_555 1_555
C6 N3 1_555 1_555
H7 C6 1_555 1_555
N4 C6 1_555 1_555
C7 C4 1_555 1_555
N5 C7 1_555 1_555
C8 N5 1_555 1_555
H8 C8 1_555 1_555
C9 N4 1_555 1_555
H9 C9 1_555 1_555
C4 C5 1_555 1_555
N4 C7 1_555 1_555
C8 C9 1_555 1_555

#END
