
#######################################################################
#
#                 Cambridge Crystallographic Data Centre
#                                CCDC 
#
#######################################################################
#
# If this CIF has been generated from an entry in the Cambridge 
# Structural Database, then it will include bibliographic, chemical, 
# crystal, experimental, refinement or atomic coordinate data resulting 
# from the CCDC's data processing and validation procedures.
#
#######################################################################

data_OTOXAY
_chemical_formula_moiety         'C19 H13 Cl1 N2'
_chemical_name_systematic        
2-(4-chlorophenyl)-5,6-dihydropyrrolo[2,1-a]isoquinoline-3-carbonitrile
_symmetry_cell_setting           triclinic
_symmetry_space_group_name_H-M   'P -1'
_symmetry_Int_Tables_number      2
_space_group_name_Hall           '-P 1'
loop_
_symmetry_equiv_pos_site_id
_symmetry_equiv_pos_as_xyz
1 x,y,z
2 -x,-y,-z
_cell_length_a                   4.0802(8)
_cell_length_b                   11.717(3)
_cell_length_c                   15.719(3)
_cell_angle_alpha                92.244(18)
_cell_angle_beta                 94.916(16)
_cell_angle_gamma                98.110(18)
_cell_volume                     740.236
_exptl_crystal_colour            'light colorless'
_exptl_crystal_description       block
_cell_formula_units_Z            2
loop_
_atom_site_label
_atom_site_type_symbol
_atom_site_fract_x
_atom_site_fract_y
_atom_site_fract_z
Cl1 Cl 0.3275(2) 0.35701(8) 0.49450(6)
C1 C -0.4325(6) -0.0327(2) 0.27003(16)
C2 C -0.2372(6) 0.0627(2) 0.32319(17)
N1 N -0.7414(5) -0.13537(19) 0.15986(13)
C3 C -0.5621(7) 0.0652(3) 0.13117(18)
C4 C -0.0479(6) 0.1551(2) 0.28954(18)
H1 H -0.0377 0.1566 0.2307
C5 C -0.9415(7) -0.2950(3) 0.05797(18)
H2 H -1.1019 -0.3204 0.0094
H3 H -0.7232 -0.3059 0.0420
C6 C 0.1117(7) 0.2431(2) 0.42918(19)
C7 C -0.7262(6) -0.2065(2) 0.22599(17)
C8 C -0.2429(7) 0.0634(2) 0.41185(17)
H4 H -0.3663 0.0021 0.4360
C9 C -0.0700(7) 0.1527(3) 0.46471(19)
H5 H -0.0768 0.1516 0.5237
C10 C -0.9079(6) -0.3235(2) 0.21511(19)
C11 C -0.5662(6) -0.0285(2) 0.18546(16)
C12 C 0.1255(7) 0.2452(2) 0.34189(19)
H6 H 0.2506 0.3066 0.3184
C13 C -0.5354(6) -0.1454(2) 0.29406(17)
H7 H -0.4836 -0.1741 0.3471
C14 C -0.9753(7) -0.3895(3) 0.2847(2)
H8 H -0.8997 -0.3594 0.3396
C15 C -1.2016(7) -0.4779(3) 0.1217(2)
H9 H -1.2794 -0.5087 0.0671
N2 N -0.5603(7) 0.1422(2) 0.08782(16)
C16 C -0.9452(7) -0.1682(3) 0.07926(17)
H10 H -0.8573 -0.1226 0.0340
H11 H -1.1714 -0.1541 0.0845
C17 C -1.0233(7) -0.3673(3) 0.13206(19)
C18 C -1.1526(8) -0.4988(3) 0.2734(2)
H12 H -1.1966 -0.5425 0.3203
C19 C -1.2645(8) -0.5427(3) 0.1917(3)
H13 H -1.3834 -0.6167 0.1837
loop_
_geom_bond_atom_site_label_1
_geom_bond_atom_site_label_2
_geom_bond_site_symmetry_1
_geom_bond_site_symmetry_2
Cl1 C6 1_555 1_555
C1 C2 1_555 1_555
C2 C4 1_555 1_555
N1 C7 1_555 1_555
C3 C11 1_555 1_555
C4 H1 1_555 1_555
C5 H2 1_555 1_555
H3 C5 1_555 1_555
C6 C9 1_555 1_555
C7 C10 1_555 1_555
C8 C2 1_555 1_555
H4 C8 1_555 1_555
C9 C8 1_555 1_555
H5 C9 1_555 1_555
C10 C14 1_555 1_555
C11 C1 1_555 1_555
C12 C4 1_555 1_555
H6 C12 1_555 1_555
C13 C1 1_555 1_555
H7 C13 1_555 1_555
C14 H8 1_555 1_555
C15 H9 1_555 1_555
N2 C3 1_555 1_555
C16 N1 1_555 1_555
H10 C16 1_555 1_555
H11 C16 1_555 1_555
C17 C5 1_555 1_555
C18 C14 1_555 1_555
H12 C18 1_555 1_555
C19 C15 1_555 1_555
H13 C19 1_555 1_555
N1 C11 1_555 1_555
C5 C16 1_555 1_555
C6 C12 1_555 1_555
C7 C13 1_555 1_555
C10 C17 1_555 1_555
C15 C17 1_555 1_555
C18 C19 1_555 1_555

#END
