
#######################################################################
#
#                 Cambridge Crystallographic Data Centre
#                                CCDC 
#
#######################################################################
#
# If this CIF has been generated from an entry in the Cambridge 
# Structural Database, then it will include bibliographic, chemical, 
# crystal, experimental, refinement or atomic coordinate data resulting 
# from the CCDC's data processing and validation procedures.
#
#######################################################################

data_OTUSAZ
_chemical_formula_moiety         'C67 H10 O1,C6 H12'
_chemical_name_systematic        
'(2,3-dimethylcyclopentene-1,4-diyl)-epoxy-C60fullerene cyclohexane solvate'
_symmetry_cell_setting           monoclinic
_symmetry_space_group_name_H-M   'P 21/n'
_symmetry_Int_Tables_number      14
_space_group_name_Hall           '-P 2yn'
loop_
_symmetry_equiv_pos_site_id
_symmetry_equiv_pos_as_xyz
1 x,y,z
2 1/2-x,1/2+y,1/2-z
3 -x,-y,-z
4 1/2+x,1/2-y,1/2+z
_cell_length_a                   9.9746(11)
_cell_length_b                   23.085(3)
_cell_length_c                   16.7399(19)
_cell_angle_alpha                90
_cell_angle_beta                 90.299(11)
_cell_angle_gamma                90
_cell_volume                     3854.54
_exptl_crystal_colour            black
_exptl_crystal_description       block
_cell_formula_units_Z            4
loop_
_atom_site_label
_atom_site_type_symbol
_atom_site_fract_x
_atom_site_fract_y
_atom_site_fract_z
O1 O 0.5621(8) 0.4156(4) 0.0084(5)
C1 C 0.3932(6) 0.3813(3) 0.1851(4)
C2 C 0.3747(6) 0.4271(3) 0.1142(4)
C3 C 0.4229(7) 0.4080(4) 0.0311(5)
C4 C 0.5001(7) 0.3532(4) 0.0194(6)
C5 C 0.5103(7) 0.3127(4) 0.0844(7)
C6 C 0.4524(8) 0.3237(3) 0.1586(6)
C7 C 0.3833(10) 0.2773(4) 0.1979(6)
C8 C 0.2656(11) 0.2992(3) 0.2372(4)
C9 C 0.2611(9) 0.3621(3) 0.2221(4)
C10 C 0.1381(7) 0.3870(3) 0.2071(4)
C11 C 0.1255(6) 0.4290(3) 0.1415(4)
C12 C 0.2306(7) 0.4425(2) 0.0951(4)
C13 C 0.2117(9) 0.4461(3) 0.0089(4)
C14 C 0.3277(9) 0.4235(3) -0.0282(5)
C15 C 0.3163(11) 0.3923(4) -0.1011(5)
C16 C 0.3953(12) 0.3391(5) -0.1103(6)
C17 C 0.4781(8) 0.3199(5) -0.0514(7)
C18 C 0.4815(7) 0.2604(4) -0.0339(7)
C19 C 0.5007(8) 0.2551(4) 0.0492(7)
C20 C 0.4389(10) 0.2097(4) 0.0907(7)
C21 C 0.3830(13) 0.2206(4) 0.1645(7)
C22 C 0.2607(14) 0.1875(4) 0.1718(6)
C23 C 0.1451(16) 0.2086(4) 0.2093(5)
C24 C 0.1460(15) 0.2679(4) 0.2430(4)
C25 C 0.0197(14) 0.2957(5) 0.2277(6)
C26 C 0.0128(10) 0.3541(4) 0.2094(6)
C27 C -0.0738(8) 0.3745(4) 0.1465(7)
C28 C -0.0087(8) 0.4203(3) 0.1045(7)
C29 C -0.0252(10) 0.4256(4) 0.0233(7)
C30 C 0.0877(10) 0.4380(3) -0.0271(6)
C31 C 0.0738(12) 0.4064(4) -0.1003(6)
C32 C 0.1882(13) 0.3836(4) -0.1363(5)
C33 C 0.1856(13) 0.3249(4) -0.1693(4)
C34 C 0.3116(11) 0.2988(5) -0.1532(5)
C35 C 0.3150(9) 0.2400(4) -0.1347(5)
C36 C 0.4041(8) 0.2206(4) -0.0740(6)
C37 C 0.3393(8) 0.1741(4) -0.0336(6)
C38 C 0.3553(9) 0.1687(3) 0.0461(7)
C39 C 0.2476(13) 0.1546(3) 0.0969(6)
C40 C 0.1197(10) 0.1460(3) 0.0649(5)
C41 C 0.0026(12) 0.1697(4) 0.1025(5)
C42 C 0.0146(14) 0.2012(5) 0.1746(6)
C43 C -0.0684(13) 0.2547(5) 0.1830(6)
C44 C -0.1502(10) 0.2735(5) 0.1256(8)
C45 C -0.1587(8) 0.3356(5) 0.1034(8)
C46 C -0.1725(8) 0.3401(5) 0.0225(9)
C47 C -0.1090(9) 0.3843(4) -0.0206(8)
C48 C -0.0463(11) 0.3728(4) -0.0975(7)
C49 C -0.0488(10) 0.3180(4) -0.1290(6)
C50 C 0.0669(10) 0.2946(4) -0.1658(5)
C51 C 0.0711(9) 0.2334(3) -0.1467(4)
C52 C 0.1933(8) 0.2064(3) -0.1331(4)
C53 C 0.2052(7) 0.1656(3) -0.0693(4)
C54 C 0.0995(8) 0.1522(3) -0.0219(4)
C55 C -0.0296(7) 0.1799(3) -0.0347(4)
C56 C -0.0873(9) 0.1890(4) 0.0433(6)
C57 C -0.1646(8) 0.2424(5) 0.0515(7)
C58 C -0.1758(7) 0.2823(4) -0.0127(8)
C59 C -0.1192(8) 0.2720(4) -0.0859(6)
C60 C -0.0428(7) 0.2197(3) -0.0970(5)
C61 C 0.4866(8) 0.4155(3) 0.2476(5)
C62 C 0.4072(8) 0.4655(3) 0.2785(4)
C63 C 0.3922(7) 0.5040(3) 0.2189(4)
C64 C 0.4625(7) 0.4809(3) 0.1461(5)
C65 C 0.5802(7) 0.4476(4) 0.1872(6)
C66 C 0.3492(12) 0.4672(4) 0.3622(5)
C67 C 0.3108(10) 0.5588(3) 0.2162(6)
C68 C 0.1746(8) 0.4104(3) -0.3632(5)
C69 C 0.0454(7) 0.4339(3) -0.3275(5)
C70 C 0.2340(11) 0.4488(4) -0.4263(7)
C71 C 0.1041(11) 0.5343(3) -0.3734(6)
C72 C 0.0555(11) 0.4948(4) -0.3012(7)
C73 C 0.2339(13) 0.5100(4) -0.4112(8)
O2? O 0.5817(17) 0.3101(9) 0.1786(12)
C74? C -0.004(3) 0.4932(16) -0.360(2)
loop_
_geom_bond_atom_site_label_1
_geom_bond_atom_site_label_2
_geom_bond_site_symmetry_1
_geom_bond_site_symmetry_2
O1 C3 1_555 1_555
C1 C2 1_555 1_555
C2 C3 1_555 1_555
C3 C4 1_555 1_555
C4 O1 1_555 1_555
C5 C4 1_555 1_555
C6 C1 1_555 1_555
C7 C6 1_555 1_555
C8 C7 1_555 1_555
C9 C1 1_555 1_555
C10 C9 1_555 1_555
C11 C10 1_555 1_555
C12 C2 1_555 1_555
C13 C12 1_555 1_555
C14 C3 1_555 1_555
C15 C14 1_555 1_555
C16 C15 1_555 1_555
C17 C4 1_555 1_555
C18 C17 1_555 1_555
C19 C5 1_555 1_555
C20 C19 1_555 1_555
C21 C7 1_555 1_555
C22 C21 1_555 1_555
C23 C22 1_555 1_555
C24 C8 1_555 1_555
C25 C24 1_555 1_555
C26 C10 1_555 1_555
C27 C26 1_555 1_555
C28 C11 1_555 1_555
C29 C28 1_555 1_555
C30 C13 1_555 1_555
C31 C30 1_555 1_555
C32 C15 1_555 1_555
C33 C32 1_555 1_555
C34 C16 1_555 1_555
C35 C34 1_555 1_555
C36 C18 1_555 1_555
C37 C36 1_555 1_555
C38 C20 1_555 1_555
C39 C22 1_555 1_555
C40 C39 1_555 1_555
C41 C40 1_555 1_555
C42 C23 1_555 1_555
C43 C25 1_555 1_555
C44 C43 1_555 1_555
C45 C27 1_555 1_555
C46 C45 1_555 1_555
C47 C29 1_555 1_555
C48 C31 1_555 1_555
C49 C48 1_555 1_555
C50 C33 1_555 1_555
C51 C50 1_555 1_555
C52 C35 1_555 1_555
C53 C37 1_555 1_555
C54 C40 1_555 1_555
C55 C54 1_555 1_555
C56 C41 1_555 1_555
C57 C44 1_555 1_555
C58 C46 1_555 1_555
C59 C49 1_555 1_555
C60 C51 1_555 1_555
C61 C1 1_555 1_555
C62 C61 1_555 1_555
C63 C62 1_555 1_555
C64 C2 1_555 1_555
C65 C61 1_555 1_555
C66 C62 1_555 1_555
C67 C63 1_555 1_555
C68 C69 1_555 1_555
C69 C72 1_555 1_555
C70 C68 1_555 1_555
C71 C72 1_555 1_555
C73 C70 1_555 1_555
C5 C6 1_555 1_555
C8 C9 1_555 1_555
C11 C12 1_555 1_555
C13 C14 1_555 1_555
C16 C17 1_555 1_555
C18 C19 1_555 1_555
C20 C21 1_555 1_555
C23 C24 1_555 1_555
C25 C26 1_555 1_555
C27 C28 1_555 1_555
C29 C30 1_555 1_555
C31 C32 1_555 1_555
C33 C34 1_555 1_555
C35 C36 1_555 1_555
C37 C38 1_555 1_555
C38 C39 1_555 1_555
C41 C42 1_555 1_555
C42 C43 1_555 1_555
C44 C45 1_555 1_555
C46 C47 1_555 1_555
C47 C48 1_555 1_555
C49 C50 1_555 1_555
C51 C52 1_555 1_555
C52 C53 1_555 1_555
C53 C54 1_555 1_555
C55 C56 1_555 1_555
C55 C60 1_555 1_555
C56 C57 1_555 1_555
C57 C58 1_555 1_555
C58 C59 1_555 1_555
C59 C60 1_555 1_555
C63 C64 1_555 1_555
C64 C65 1_555 1_555
C71 C73 1_555 1_555

#END
