
#######################################################################
#
#                 Cambridge Crystallographic Data Centre
#                                CCDC 
#
#######################################################################
#
# If this CIF has been generated from an entry in the Cambridge 
# Structural Database, then it will include bibliographic, chemical, 
# crystal, experimental, refinement or atomic coordinate data resulting 
# from the CCDC's data processing and validation procedures.
#
#######################################################################

data_OTUZUA
_chemical_formula_moiety         'C18 H20 O6'
_chemical_name_systematic        
5-hydroxy-17-methyl-3-(prop-1-yn-1-yl)-2,7,15-trioxapentacyclo[7.6.1.1^6,9^.0^1,12^.0^4,16^]heptadecane-8,14-dione
_symmetry_cell_setting           monoclinic
_symmetry_space_group_name_H-M   'P 21/c'
_symmetry_Int_Tables_number      14
_space_group_name_Hall           '-P 2ybc'
loop_
_symmetry_equiv_pos_site_id
_symmetry_equiv_pos_as_xyz
1 x,y,z
2 -x,1/2+y,1/2-z
3 -x,-y,-z
4 x,1/2-y,1/2+z
_cell_length_a                   11.2750(8)
_cell_length_b                   17.5561(9)
_cell_length_c                   10.0199(7)
_cell_angle_alpha                90
_cell_angle_beta                 110.584(9)
_cell_angle_gamma                90
_cell_volume                     1856.77
_exptl_crystal_colour            colorless
_exptl_crystal_description       block
_cell_formula_units_Z            4
loop_
_atom_site_label
_atom_site_type_symbol
_atom_site_fract_x
_atom_site_fract_y
_atom_site_fract_z
O1 O -1.03259(17) -0.10686(9) -0.45685(19)
H1 H -1.0295 -0.1196 -0.3770
O2 O -0.74460(16) -0.21073(9) -0.41938(18)
O3 O -0.64021(17) -0.25603(9) -0.5548(2)
O4 O -0.98815(13) -0.03233(7) -0.80272(16)
O5 O -0.99742(15) -0.12547(8) -0.97183(16)
O6 O -0.98807(18) -0.16410(9) -1.17919(18)
C1 C -0.9551(2) -0.15628(12) -0.5034(3)
H2 H -0.9747 -0.2090 -0.4865
C2 C -0.9884(2) -0.14487(11) -0.6660(2)
H3 H -1.0471 -0.1855 -0.7150
C3 C -0.8755(2) -0.14612(11) -0.7212(2)
H4 H -0.8732 -0.1961 -0.7638
C4 C -0.7432(2) -0.13004(12) -0.6068(2)
C5 C -0.7007(2) -0.20552(13) -0.5286(3)
C6 C -0.8156(2) -0.14133(13) -0.4181(3)
H5 H -0.8047 -0.1270 -0.3200
C7 C -0.7575(2) -0.08101(13) -0.4859(3)
H6 H -0.8179 -0.0396 -0.5253
C8 C -0.6333(2) -0.04963(15) -0.3826(3)
H7 H -0.5744 -0.0907 -0.3466
H8 H -0.6485 -0.0247 -0.3048
H9 H -0.5987 -0.0137 -0.4313
C9 C -0.6487(2) -0.10501(13) -0.6751(3)
H10 H -0.6381 -0.1455 -0.7359
H11 H -0.5671 -0.0958 -0.6013
C10 C -0.6926(2) -0.03277(13) -0.7635(3)
H12 H -0.7044 0.0076 -0.7032
H13 H -0.6279 -0.0165 -0.8005
C11 C -0.8156(2) -0.04608(12) -0.8863(3)
H14 H -0.8496 0.0038 -0.9252
C12 C -0.9156(2) -0.08620(11) -0.8412(2)
C13 C -0.9375(2) -0.13131(12) -1.0664(3)
C14 C -0.8106(2) -0.09518(12) -1.0100(3)
H15 H -0.7952 -0.0642 -1.0824
H16 H -0.7445 -0.1334 -0.9770
C15 C -1.1897(2) -0.07688(12) -0.8044(3)
C16 C -1.2994(2) -0.08762(12) -0.8690(3)
C17 C -1.4356(3) -0.10178(15) -0.9460(4)
H17 H -1.4845 -0.0748 -0.8998
H18 H -1.4524 -0.1554 -0.9456
H19 H -1.4584 -0.0843 -1.0426
C18 C -1.0552(2) -0.06751(11) -0.7196(2)
H20 H -1.0471 -0.0351 -0.6372
loop_
_geom_bond_atom_site_label_1
_geom_bond_atom_site_label_2
_geom_bond_site_symmetry_1
_geom_bond_site_symmetry_2
O1 H1 1_555 1_555
O2 C5 1_555 1_555
O3 C5 1_555 1_555
O4 C12 1_555 1_555
O5 C12 1_555 1_555
O6 C13 1_555 1_555
C1 O1 1_555 1_555
H2 C1 1_555 1_555
C2 C1 1_555 1_555
H3 C2 1_555 1_555
C3 C2 1_555 1_555
H4 C3 1_555 1_555
C4 C3 1_555 1_555
C5 C4 1_555 1_555
C6 O2 1_555 1_555
H5 C6 1_555 1_555
C7 C4 1_555 1_555
H6 C7 1_555 1_555
C8 C7 1_555 1_555
H7 C8 1_555 1_555
H8 C8 1_555 1_555
H9 C8 1_555 1_555
C9 C4 1_555 1_555
H10 C9 1_555 1_555
H11 C9 1_555 1_555
C10 C9 1_555 1_555
H12 C10 1_555 1_555
H13 C10 1_555 1_555
C11 C10 1_555 1_555
H14 C11 1_555 1_555
C12 C3 1_555 1_555
C13 O5 1_555 1_555
C14 C11 1_555 1_555
H15 C14 1_555 1_555
H16 C14 1_555 1_555
C15 C16 1_555 1_555
C16 C17 1_555 1_555
C17 H17 1_555 1_555
H18 C17 1_555 1_555
H19 C17 1_555 1_555
C18 O4 1_555 1_555
H20 C18 1_555 1_555
C1 C6 1_555 1_555
C2 C18 1_555 1_555
C6 C7 1_555 1_555
C11 C12 1_555 1_555
C13 C14 1_555 1_555
C15 C18 1_555 1_555

#END
