
#######################################################################
#
#                 Cambridge Crystallographic Data Centre
#                                CCDC 
#
#######################################################################
#
# If this CIF has been generated from an entry in the Cambridge 
# Structural Database, then it will include bibliographic, chemical, 
# crystal, experimental, refinement or atomic coordinate data resulting 
# from the CCDC's data processing and validation procedures.
#
#######################################################################

data_OVAROT
_chemical_formula_moiety         
'0.63(C24 H19 Cl1 F1 N5 O1 S1),0.37(C24 H19 Cl1 F1 N5 O1 S1)'
_chemical_name_systematic        
'2-((2-Chlorophenyl)(5-(4-fluorophenyl)-3-oxo-2-phenyl-2,3-dihydro-1H-pyrazol-4-yl)methylene)-N-methylhydrazinecarbothioamide 2-((2-chlorophenyl)[5-(4-fluorophenyl)-3-hydroxy-2-phenyl-2H-pyrrol-4-yl]methylidene)-1-methylhydrazinecarbothioamide'
_symmetry_cell_setting           monoclinic
_symmetry_space_group_name_H-M   'P 21/c'
_symmetry_Int_Tables_number      14
_space_group_name_Hall           '-P 2ybc'
loop_
_symmetry_equiv_pos_site_id
_symmetry_equiv_pos_as_xyz
1 x,y,z
2 -x,1/2+y,1/2-z
3 -x,-y,-z
4 x,1/2-y,1/2+z
_cell_length_a                   12.4255(8)
_cell_length_b                   14.4075(8)
_cell_length_c                   13.4165(7)
_cell_angle_alpha                90
_cell_angle_beta                 107.9890(10)
_cell_angle_gamma                90
_cell_volume                     2284.42
_exptl_crystal_colour            colorless
_exptl_crystal_description       chunk
_cell_formula_units_Z            4
loop_
_atom_site_label
_atom_site_type_symbol
_atom_site_fract_x
_atom_site_fract_y
_atom_site_fract_z
Cl1 Cl 0.67099(13) 0.65398(13) 0.93441(11)
S1 S 0.20957(9) 0.64780(9) 0.58802(9)
F1 F 1.1196(3) 0.4723(3) 0.8932(3)
O1 O 0.4639(3) 0.6776(2) 0.4600(2)
N1 N 0.5953(3) 0.5776(2) 0.4283(2)
N2 N 0.6998(3) 0.5427(3) 0.4871(3)
N3 N 0.5327(3) 0.6897(2) 0.7159(3)
N4 N 0.4296(3) 0.6607(2) 0.6483(3)
N5 N 0.3487(3) 0.6967(3) 0.7756(3)
C1 C 0.4507(4) 0.5900(3) 0.2607(3)
H1 H 0.3959 0.5956 0.2944
C2 C 0.4215(4) 0.5938(3) 0.1523(3)
H2 H 0.3465 0.6045 0.1133
C3 C 0.5005(5) 0.5821(4) 0.1013(4)
H3 H 0.4791 0.5841 0.0285
C4 C 0.6117(5) 0.5673(4) 0.1587(4)
H4 H 0.6655 0.5583 0.1244
C5 C 0.6443(4) 0.5657(3) 0.2681(3)
H5 H 0.7197 0.5567 0.3070
C6 C 0.5634(4) 0.5777(3) 0.3173(3)
C7 C 0.5523(3) 0.6306(3) 0.4933(3)
C8 C 0.6295(3) 0.6211(3) 0.5974(3)
C9 C 0.7173(3) 0.5656(3) 0.5892(3)
C10 C 0.8214(3) 0.5339(3) 0.6673(3)
C11 C 0.9239(4) 0.5371(4) 0.6448(4)
H6 H 0.9240 0.5535 0.5778
C12 C 1.0243(4) 0.5164(4) 0.7198(4)
H7 H 1.0926 0.5189 0.7051
C13 C 1.0200(4) 0.4918(4) 0.8172(4)
C14 C 0.9226(4) 0.4852(4) 0.8422(4)
H8 H 0.9232 0.4662 0.9087
C15 C 0.8232(4) 0.5073(3) 0.7665(3)
H9 H 0.7556 0.5043 0.7825
C16 C 0.6233(3) 0.6707(3) 0.6910(3)
C17 C 0.7327(3) 0.7074(3) 0.7635(3)
C18 C 0.8091(3) 0.7465(4) 0.7194(3)
H10 H 0.7904 0.7521 0.6470
C19 C 0.9135(3) 0.7774(4) 0.7827(3)
H11 H 0.9648 0.8032 0.7527
C20 C 0.9414(4) 0.7700(5) 0.8906(3)
H12 H 1.0127 0.7881 0.9330
C21 C 0.8628(4) 0.7355(5) 0.9352(3)
H13 H 0.8797 0.7338 1.0077
C22 C 0.7591(3) 0.7034(4) 0.8719(3)
C23 C 0.3364(3) 0.6715(3) 0.6779(3)
C24 C 0.2579(4) 0.7099(5) 0.8198(4)
H14 H 0.2885 0.7282 0.8919
H15 H 0.2167 0.6529 0.8156
H16 H 0.2079 0.7575 0.7815
H17 H 0.720(4) 0.491(2) 0.466(4)
H18 H 0.430(5) 0.666(4) 0.5845(18)
H19 H 0.416(2) 0.710(4) 0.815(3)
C25? C 0.7150(12) 0.689(2) 0.7923(6)
C26? C 0.719(2) 0.6452(18) 0.8859(13)
C27? C 0.806(2) 0.667(3) 0.9766(8)
C28? C 0.904(2) 0.709(2) 0.9689(12)
C29? C 0.9032(17) 0.746(3) 0.8732(19)
C30? C 0.8155(15) 0.725(2) 0.7834(12)
Cl2? Cl 0.8282(11) 0.7756(8) 0.6709(9)
H20? H 0.6645 0.6019 0.8879
H21? H 0.7991 0.6528 1.0419
H22? H 0.427(16) 0.658(16) 0.496(15)
H23? H 0.9684 0.7124 1.0268
H24? H 0.9612 0.7855 0.8693
loop_
_geom_bond_atom_site_label_1
_geom_bond_atom_site_label_2
_geom_bond_site_symmetry_1
_geom_bond_site_symmetry_2
Cl1 C22 1_555 1_555
S1 C23 1_555 1_555
F1 C13 1_555 1_555
O1 C7 1_555 1_555
N1 N2 1_555 1_555
N2 C9 1_555 1_555
N3 N4 1_555 1_555
N4 C23 1_555 1_555
N5 C23 1_555 1_555
C1 H1 1_555 1_555
C2 C1 1_555 1_555
H2 C2 1_555 1_555
C3 C2 1_555 1_555
H3 C3 1_555 1_555
C4 C3 1_555 1_555
H4 C4 1_555 1_555
C5 C4 1_555 1_555
H5 C5 1_555 1_555
C6 N1 1_555 1_555
C7 N1 1_555 1_555
C8 C7 1_555 1_555
C9 C8 1_555 1_555
C10 C9 1_555 1_555
C11 C10 1_555 1_555
H6 C11 1_555 1_555
C12 C11 1_555 1_555
H7 C12 1_555 1_555
C13 C12 1_555 1_555
C14 C13 1_555 1_555
H8 C14 1_555 1_555
C15 C10 1_555 1_555
H9 C15 1_555 1_555
C16 N3 1_555 1_555
C17 C16 1_555 1_555
C18 C17 1_555 1_555
H10 C18 1_555 1_555
C19 C18 1_555 1_555
H11 C19 1_555 1_555
C20 C19 1_555 1_555
H12 C20 1_555 1_555
C21 C20 1_555 1_555
H13 C21 1_555 1_555
C22 C17 1_555 1_555
C24 N5 1_555 1_555
H14 C24 1_555 1_555
H15 C24 1_555 1_555
H16 C24 1_555 1_555
H17 N2 1_555 1_555
H18 N4 1_555 1_555
H19 N5 1_555 1_555
C1 C6 1_555 1_555
C5 C6 1_555 1_555
C8 C16 1_555 1_555
C14 C15 1_555 1_555
C21 C22 1_555 1_555

#END
