
#######################################################################
#
#                 Cambridge Crystallographic Data Centre
#                                CCDC 
#
#######################################################################
#
# If this CIF has been generated from an entry in the Cambridge 
# Structural Database, then it will include bibliographic, chemical, 
# crystal, experimental, refinement or atomic coordinate data resulting 
# from the CCDC's data processing and validation procedures.
#
#######################################################################

data_OVARUZ
_chemical_formula_moiety         'C24 H19 Cl1 F1 N5 O1 S1'
_chemical_name_systematic        
2-((2-Chlorophenyl)(5-(4-fluorophenyl)-3-oxo-2-phenyl-2,3-dihydro-1H-pyrazol-4-yl)methylene)-N-methylhydrazinecarbothioamide
_symmetry_cell_setting           monoclinic
_symmetry_space_group_name_H-M   'P 21/c'
_symmetry_Int_Tables_number      14
_space_group_name_Hall           '-P 2ybc'
loop_
_symmetry_equiv_pos_site_id
_symmetry_equiv_pos_as_xyz
1 x,y,z
2 -x,1/2+y,1/2-z
3 -x,-y,-z
4 x,1/2-y,1/2+z
_cell_length_a                   12.4127(16)
_cell_length_b                   14.3970(18)
_cell_length_c                   13.3934(14)
_cell_angle_alpha                90
_cell_angle_beta                 108.020(2)
_cell_angle_gamma                90
_cell_volume                     2276.07
_exptl_crystal_colour            yellow
_exptl_crystal_description       chunk
_cell_formula_units_Z            4
loop_
_atom_site_label
_atom_site_type_symbol
_atom_site_fract_x
_atom_site_fract_y
_atom_site_fract_z
Cl1 Cl 0.67155(11) 0.65408(10) 0.93508(9)
S1 S 0.20952(8) 0.64702(8) 0.58883(8)
F1 F 1.1194(3) 0.4715(3) 0.8937(2)
O1 O 0.4633(2) 0.6775(2) 0.46029(18)
N1 N 0.5955(2) 0.5774(2) 0.4287(2)
N2 N 0.6991(3) 0.5425(2) 0.4875(2)
N3 N 0.5321(2) 0.6902(2) 0.7159(2)
N4 N 0.4307(2) 0.6608(2) 0.6493(2)
N5 N 0.3490(3) 0.6967(3) 0.7763(2)
C1 C 0.4506(3) 0.5904(3) 0.2603(3)
H1 H 0.3961 0.5963 0.2943
C2 C 0.4202(4) 0.5942(3) 0.1518(3)
H2 H 0.3451 0.6047 0.1128
C3 C 0.5007(4) 0.5826(3) 0.1012(3)
H3 H 0.4796 0.5849 0.0283
C4 C 0.6116(4) 0.5676(3) 0.1580(3)
H4 H 0.6653 0.5586 0.1236
C5 C 0.6443(4) 0.5658(3) 0.2674(3)
H5 H 0.7198 0.5567 0.3064
C6 C 0.5629(3) 0.5777(2) 0.3171(3)
C7 C 0.5507(3) 0.6310(3) 0.4930(3)
C8 C 0.6293(3) 0.6214(2) 0.5972(2)
C9 C 0.7173(3) 0.5660(2) 0.5895(2)
C10 C 0.8214(3) 0.5346(2) 0.6672(3)
C11 C 0.9229(3) 0.5367(3) 0.6450(3)
H6 H 0.9233 0.5529 0.5779
C12 C 1.0235(4) 0.5151(4) 0.7206(4)
H7 H 1.0919 0.5175 0.7058
C13 C 1.0200(4) 0.4904(4) 0.8173(4)
C14 C 0.9223(4) 0.4854(3) 0.8428(3)
H8 H 0.9228 0.4676 0.9097
C15 C 0.8225(3) 0.5075(3) 0.7666(3)
H9 H 0.7546 0.5042 0.7822
C16 C 0.6226(3) 0.6715(2) 0.6914(2)
C17 C 0.7303(3) 0.7069(3) 0.7645(3)
C18 C 0.8122(3) 0.7487(3) 0.7181(4)
H10 H 0.7947 0.7551 0.6457
C19 C 0.9128(4) 0.7774(4) 0.7827(4)
H11 H 0.9654 0.8033 0.7542
C20 C 0.9397(4) 0.7692(4) 0.8904(4)
H12 H 1.0111 0.7872 0.9328
C21 C 0.8641(4) 0.7354(4) 0.9356(4)
H13 H 0.8818 0.7339 1.0083
C22 C 0.7604(3) 0.7033(3) 0.8729(3)
C23 C 0.3360(3) 0.6708(3) 0.6789(3)
C24 C 0.2577(4) 0.7093(4) 0.8211(4)
H14 H 0.2046 0.7538 0.7801
H15 H 0.2879 0.7314 0.8919
H16 H 0.2199 0.6511 0.8209
H17 H 0.719(4) 0.4934(18) 0.461(3)
H18 H 0.421(3) 0.661(2) 0.5828(10)
H19 H 0.4189(14) 0.711(3) 0.802(3)
loop_
_geom_bond_atom_site_label_1
_geom_bond_atom_site_label_2
_geom_bond_site_symmetry_1
_geom_bond_site_symmetry_2
Cl1 C22 1_555 1_555
S1 C23 1_555 1_555
F1 C13 1_555 1_555
O1 C7 1_555 1_555
N1 N2 1_555 1_555
N2 C9 1_555 1_555
N3 N4 1_555 1_555
N4 C23 1_555 1_555
N5 C23 1_555 1_555
C1 H1 1_555 1_555
C2 C1 1_555 1_555
H2 C2 1_555 1_555
C3 C2 1_555 1_555
H3 C3 1_555 1_555
C4 C3 1_555 1_555
H4 C4 1_555 1_555
C5 C4 1_555 1_555
H5 C5 1_555 1_555
C6 N1 1_555 1_555
C7 N1 1_555 1_555
C8 C7 1_555 1_555
C9 C8 1_555 1_555
C10 C9 1_555 1_555
C11 C10 1_555 1_555
H6 C11 1_555 1_555
C12 C11 1_555 1_555
H7 C12 1_555 1_555
C13 C12 1_555 1_555
C14 C13 1_555 1_555
H8 C14 1_555 1_555
C15 C10 1_555 1_555
H9 C15 1_555 1_555
C16 N3 1_555 1_555
C17 C16 1_555 1_555
C18 C17 1_555 1_555
H10 C18 1_555 1_555
C19 C18 1_555 1_555
H11 C19 1_555 1_555
C20 C19 1_555 1_555
H12 C20 1_555 1_555
C21 C20 1_555 1_555
H13 C21 1_555 1_555
C22 C17 1_555 1_555
C24 N5 1_555 1_555
H14 C24 1_555 1_555
H15 C24 1_555 1_555
H16 C24 1_555 1_555
H17 N2 1_555 1_555
H18 N4 1_555 1_555
H19 N5 1_555 1_555
C1 C6 1_555 1_555
C5 C6 1_555 1_555
C8 C16 1_555 1_555
C14 C15 1_555 1_555
C21 C22 1_555 1_555

#END
