
#######################################################################
#
#                 Cambridge Crystallographic Data Centre
#                                CCDC 
#
#######################################################################
#
# If this CIF has been generated from an entry in the Cambridge 
# Structural Database, then it will include bibliographic, chemical, 
# crystal, experimental, refinement or atomic coordinate data resulting 
# from the CCDC's data processing and validation procedures.
#
#######################################################################

data_OVATIQ
_chemical_formula_moiety         'C60 H44 B2 N6 O2,0.5(C1 H2 Cl2)'
_chemical_name_systematic        
"9c,14c-dimethoxy-3,6,9,14-tetrakis(4-methylphenyl)-9c,14c-dihydro-8b,9b,9d,13b,14b,14d-hexaaza-9c,14c-diboratadicyclopenta[pq,uv]bis-s-indaceno[7,8,1,2-cdefg:2',1',8',7'-ijklm]pentaphene dichloromethane solvate"
_symmetry_cell_setting           triclinic
_symmetry_space_group_name_H-M   'P -1'
_symmetry_Int_Tables_number      2
_space_group_name_Hall           '-P 1'
loop_
_symmetry_equiv_pos_site_id
_symmetry_equiv_pos_as_xyz
1 x,y,z
2 -x,-y,-z
_cell_length_a                   14.591(3)
_cell_length_b                   17.722(4)
_cell_length_c                   21.218(6)
_cell_angle_alpha                72.76(4)
_cell_angle_beta                 77.06(4)
_cell_angle_gamma                71.69(5)
_cell_volume                     4922.73
_exptl_crystal_colour            green
_exptl_crystal_description       Prism
_cell_formula_units_Z            4
loop_
_atom_site_label
_atom_site_type_symbol
_atom_site_fract_x
_atom_site_fract_y
_atom_site_fract_z
O1 O 0.1394(4) 0.4794(3) 0.1213(2)
N1 N -0.3539(4) 0.5258(3) 0.1332(2)
N2 N 0.0346(4) 0.4128(3) 0.0973(2)
N3 N 0.1841(4) 0.3307(3) 0.1318(2)
C1 C -0.2578(5) 0.4917(4) 0.1346(3)
N4 N 0.0548(4) 0.3871(3) 0.2104(2)
N5 N -0.3664(4) 0.5572(3) 0.2371(2)
O2 O -0.4718(4) 0.4795(3) 0.2242(2)
C2 C -0.0629(5) 0.4438(4) 0.1135(3)
N6 N -0.4907(4) 0.6260(4) 0.1676(3)
C3 C -0.1091(5) 0.4497(4) 0.0594(3)
C4 C -0.2129(5) 0.4826(4) 0.0683(3)
C5 C -0.1053(5) 0.4533(4) 0.1791(3)
C6 C 0.0551(5) 0.3880(4) 0.0389(3)
C7 C 0.2101(5) 0.3025(4) 0.0747(3)
C8 C -0.0368(5) 0.4150(4) 0.0131(3)
H1 H -0.0461 0.4099 -0.0281
C9 C -0.2094(5) 0.4850(4) 0.1873(3)
C10 C -0.2864(5) 0.5196(4) 0.0283(3)
H2 H -0.2794 0.5234 -0.0181
C11 C -0.0440(5) 0.4178(4) 0.2282(3)
C12 C 0.1801(5) 0.3062(4) -0.0375(3)
C13 C 0.3104(6) 0.2642(4) -0.1232(3)
H3 H 0.3778 0.2539 -0.1409
C14 C 0.2790(5) 0.2945(4) -0.0673(3)
H4 H 0.3237 0.3076 -0.0485
C15 C 0.1933(5) 0.2822(4) 0.2492(3)
C16 C 0.1185(6) 0.2904(4) -0.0681(4)
H5 H 0.0516 0.2985 -0.0495
C17 C -0.0592(6) 0.3866(4) 0.3000(3)
H6 H -0.1193 0.3989 0.3285
C18 C 0.1479(5) 0.3360(4) 0.0244(3)
C19 C 0.0266(5) 0.3371(4) 0.3200(3)
H7 H 0.0362 0.3093 0.3647
C20 C -0.4630(5) 0.6126(4) 0.0544(3)
C21 C -0.3754(5) 0.5513(4) 0.0698(3)
C22 C 0.2494(5) 0.2486(4) -0.1541(3)
C23 C -0.3290(6) 0.6104(4) 0.3079(3)
H8 H -0.3350 0.6389 0.3407
C24 C -0.4059(6) 0.6150(4) 0.2748(3)
C25 C 0.2842(6) 0.2133(5) -0.2149(3)
H9 H 0.3487 0.2214 -0.2355
H10 H 0.2380 0.2412 -0.2471
H11 H 0.2884 0.1546 -0.2015
C26 C 0.1011(5) 0.3335(4) 0.2621(3)
C27 C -0.4956(5) 0.6729(4) 0.2626(3)
C28 C -0.4682(5) 0.5829(5) -0.0527(3)
H12 H -0.4429 0.5265 -0.0329
C29 C -0.4838(5) 0.6399(4) -0.0148(3)
C30 C -0.5254(6) 0.6866(5) -0.1471(4)
C31 C 0.3018(5) 0.2128(4) 0.1532(3)
H13 H 0.3483 0.1671 0.1750
C32 C -0.2441(6) 0.5582(4) 0.2848(3)
H14 H -0.1814 0.5460 0.2972
C33 C 0.2493(5) 0.2276(4) 0.3030(3)
C34 C -0.2688(6) 0.5261(4) 0.2386(3)
C35 C 0.2638(7) 0.1392(5) 0.4130(3)
H15 H 0.2325 0.1128 0.4541
C36 C -0.5185(5) 0.6525(5) 0.1053(4)
C37 C 0.2882(5) 0.2302(4) 0.0890(3)
H16 H 0.3251 0.1989 0.0579
C38 C -0.5347(5) 0.6815(5) 0.2056(4)
C39 C 0.2329(5) 0.2763(4) 0.1827(3)
C40 C 0.1510(6) 0.2627(4) -0.1261(4)
H17 H 0.1059 0.2532 -0.1469
C41 C -0.5358(6) 0.7431(5) -0.1133(4)
H18 H -0.5570 0.7995 -0.1349
C42 C -0.5487(6) 0.7023(5) 0.3753(4)
H19 H -0.5325 0.6449 0.3946
C43 C -0.6047(6) 0.7445(5) 0.1667(4)
H20 H -0.6504 0.7902 0.1807
C44 C -0.5618(6) 0.8162(5) 0.2803(4)
H21 H -0.5567 0.8380 0.2334
C45 C 0.2083(7) 0.4804(5) 0.1575(4)
H22 H 0.1786 0.4792 0.2039
H23 H 0.2301 0.5305 0.1378
H24 H 0.2643 0.4324 0.1561
C46 C -0.5358(5) 0.7307(5) 0.3067(4)
C47 C 0.3499(6) 0.2158(5) 0.2940(4)
H25 H 0.3815 0.2408 0.2524
C48 C 0.2072(6) 0.1864(4) 0.3634(3)
H26 H 0.1393 0.1906 0.3708
C49 C -0.6043(6) 0.8396(6) 0.3908(4)
C50 C 0.4055(6) 0.1680(5) 0.3446(4)
H27 H 0.4737 0.1621 0.3374
C51 C -0.5946(6) 0.8682(5) 0.3223(4)
H28 H -0.6112 0.9257 0.3036
C52 C -0.5167(6) 0.7222(5) -0.0487(4)
H29 H -0.5260 0.7642 -0.0267
C53 C -0.5940(6) 0.7270(5) 0.1056(4)
H30 H -0.6303 0.7588 0.0702
C54 C 0.3612(7) 0.1287(5) 0.4059(4)
C55 C -0.4875(6) 0.6047(5) -0.1167(3)
H31 H -0.4751 0.5639 -0.1405
B1 B 0.1060(6) 0.4075(5) 0.1380(3)
C56 C -0.5842(7) 0.7553(6) 0.4159(4)
H32 H -0.5955 0.7338 0.4627
C57 C 0.4174(7) 0.0803(5) 0.4611(4)
H33 H 0.4152 0.1155 0.4896
H34 H 0.4853 0.0578 0.4430
H35 H 0.3889 0.0353 0.4875
C58 C -0.6347(8) 0.8964(6) 0.4366(5)
H36 H -0.5767 0.9061 0.4453
H37 H -0.6698 0.8714 0.4788
H38 H -0.6775 0.9486 0.4157
C59 C -0.5515(6) 0.7078(5) -0.2158(4)
H39 H -0.6078 0.6880 -0.2139
H40 H -0.4959 0.6819 -0.2449
H41 H -0.5677 0.7675 -0.2334
C60 C -0.5448(9) 0.4861(8) 0.2786(5)
H42 H -0.5206 0.4975 0.3133
H43 H -0.5638 0.4345 0.2961
H44 H -0.6015 0.5308 0.2645
B2 B -0.4239(6) 0.5446(6) 0.1930(4)
O3 O 0.0068(4) 0.7748(3) 0.51961(19)
O4 O 0.3647(4) 0.9160(3) 0.7234(2)
N7 N 0.2171(4) 0.9747(3) 0.6669(2)
N8 N 0.1475(5) 0.7667(3) 0.4298(2)
N9 N 0.2031(4) 0.9800(3) 0.7775(2)
N10 N 0.1145(4) 0.8626(3) 0.4941(2)
N11 N 0.1808(4) 0.7214(3) 0.5416(2)
C61 C 0.2948(6) 0.6112(4) 0.5840(3)
H45 H 0.3377 0.5575 0.5923
N12 N 0.2315(4) 0.8512(3) 0.7530(2)
C62 C 0.1564(5) 0.9979(4) 0.5722(3)
C63 C 0.1458(5) 1.0732(4) 0.5849(3)
H46 H 0.1197 1.1255 0.5574
C64 C 0.1837(6) 0.7891(4) 0.3191(3)
H47 H 0.1872 0.8154 0.2729
C65 C 0.1369(5) 0.8815(4) 0.5441(3)
C66 C 0.1634(5) 1.1055(4) 0.6928(3)
C67 C 0.1333(5) 1.1966(4) 0.6698(3)
C68 C 0.1041(5) 0.9287(4) 0.4380(3)
C69 C 0.1083(5) 0.9954(4) 0.4600(3)
H48 H 0.0978 1.0505 0.4344
C70 C 0.1806(5) 0.7454(4) 0.8222(3)
H49 H 0.1651 0.7062 0.8616
C71 C 0.1908(5) 0.8622(4) 0.8675(3)
C72 C 0.2036(5) 0.8522(4) 0.6464(3)
C73 C 0.2078(6) 0.7390(4) 0.5919(3)
C74 C 0.1822(5) 0.9479(4) 0.8451(3)
C75 C 0.1105(5) 0.9109(4) 0.3765(3)
C76 C 0.1413(6) 1.0169(4) 0.8734(3)
H50 H 0.1233 1.0150 0.9197
C77 C 0.1786(5) 0.8206(4) 0.5984(3)
C78 C 0.0228(6) 1.3283(4) 0.6751(3)
H51 H -0.0366 1.3596 0.6946
C79 C 0.1304(5) 0.9673(4) 0.5256(3)
C80 C 0.1325(6) 1.0871(4) 0.8222(3)
H52 H 0.1069 1.1417 0.8271
C81 C 0.1806(5) 1.0583(4) 0.6462(3)
C82 C 0.1385(5) 0.8283(4) 0.3724(3)
C83 C 0.2054(5) 0.8175(4) 0.8199(3)
C84 C 0.0726(5) 1.1019(5) 0.1962(3)
C85 C 0.2785(6) 0.6663(4) 0.6198(3)
H53 H 0.3087 0.6585 0.6573
C86 C 0.2363(6) 0.6474(4) 0.5310(3)
C87 C 0.1688(7) 1.3200(5) 0.5969(3)
H54 H 0.2117 1.3457 0.5628
C88 C 0.1930(6) 1.2363(4) 0.6181(3)
H55 H 0.2511 1.2048 0.5975
C89 C 0.1682(5) 1.0638(4) 0.7607(3)
C90 C 0.1426(6) 0.7436(5) 1.0752(3)
C91 C 0.2137(6) 0.7056(5) 1.0321(3)
H56 H 0.2533 0.6523 1.0487
C92 C 0.2111(5) 0.8119(4) 0.7151(3)
C93 C 0.2296(6) 0.7431(5) 0.9642(3)
H57 H 0.2790 0.7152 0.9351
C94 C 0.1726(5) 0.8218(4) 0.9393(3)
C95 C 0.1981(5) 0.9367(4) 0.6273(3)
C96 C 0.0452(6) 0.9762(5) 0.2690(3)
H58 H 0.0161 0.9323 0.2783
C97 C 0.2874(8) 0.5473(5) 0.4583(3)
C98 C 0.0978(5) 0.9776(4) 0.3138(3)
C99 C 0.2401(6) 0.6288(4) 0.4700(3)
C100 C 0.0327(6) 1.0367(5) 0.2102(3)
H59 H -0.0034 1.0332 0.1795
C101 C 0.2003(6) 0.6935(4) 0.4168(3)
C102 C 0.0833(7) 1.3679(4) 0.6238(3)
C103 C 0.1390(6) 1.0422(4) 0.3006(3)
H60 H 0.1763 1.0444 0.3311
C104 C 0.0975(6) 0.8579(5) 0.9827(4)
H61 H 0.0543 0.9096 0.9665
B3 B 0.2599(7) 0.9304(5) 0.7303(4)
C105 C 0.1252(6) 1.1047(5) 0.2415(3)
H62 H 0.1527 1.1494 0.2328
C106 C 0.3723(8) 0.5025(6) 0.4777(4)
H63 H 0.4062 0.5246 0.4980
B4 B 0.1056(7) 0.7799(5) 0.4982(3)
C107 C -0.0186(6) 0.7103(5) 0.5080(3)
H64 H -0.0129 0.7170 0.4599
H65 H -0.0859 0.7110 0.5287
H66 H 0.0254 0.6579 0.5274
C108 C 0.2203(6) 0.7088(5) 0.3451(3)
H67 H 0.2538 0.6688 0.3204
C109 C 0.0625(6) 1.1686(5) 0.1319(3)
H68 H 0.1233 1.1591 0.1008
H69 H 0.0491 1.2222 0.1415
H70 H 0.0087 1.1677 0.1118
C110 C 0.0494(6) 1.2432(5) 0.6977(3)
H71 H 0.0084 1.2172 0.7331
C111 C 0.1824(6) 0.7411(4) 0.7588(3)
H72 H 0.1677 0.6997 0.7460
C112 C 0.0553(8) 1.4613(4) 0.6001(4)
H73 H 0.1143 1.4801 0.5811
H74 H 0.0213 1.4851 0.6380
H75 H 0.0122 1.4787 0.5661
C113 C 0.2389(8) 0.5123(6) 0.4293(4)
H76 H 0.1770 0.5429 0.4162
C114 C 0.3742(13) 0.3866(6) 0.4403(5)
C115 C 0.0851(6) 0.8183(5) 1.0505(3)
H77 H 0.0348 0.8448 1.0799
C116 C 0.1298(8) 0.7031(6) 1.1505(4)
H78 H 0.0895 0.7443 1.1748
H79 H 0.1939 0.6801 1.1656
H80 H 0.0978 0.6593 1.1590
C117 C 0.4139(9) 0.4208(6) 0.4686(5)
H81 H 0.4741 0.3903 0.4844
C118 C 0.2792(10) 0.4334(7) 0.4193(5)
H82 H 0.2456 0.4106 0.3993
C119 C 0.4015(7) 0.9849(5) 0.7065(4)
H83 H 0.3856 1.0188 0.6626
H84 H 0.4725 0.9670 0.7052
H85 H 0.3722 1.0170 0.7399
C120 C 0.4262(14) 0.2999(6) 0.4311(5)
H86 H 0.4966 0.2940 0.4192
H87 H 0.4015 0.2906 0.3955
H88 H 0.4138 0.2596 0.4728
Cl1 Cl 0.7925(17) 0.0330(13) -0.0747(11)
C121 C 0.692(2) 0.060(2) -0.0043(16)
Cl2 Cl 0.654(2) -0.0105(18) 0.0179(17)
Cl3? Cl 0.569(2) -0.0062(14) 0.0857(15)
C122? C 0.525(2) 0.0263(18) 0.1404(15)
Cl4? Cl 0.434(3) -0.004(2) 0.141(2)
loop_
_geom_bond_atom_site_label_1
_geom_bond_atom_site_label_2
_geom_bond_site_symmetry_1
_geom_bond_site_symmetry_2
O1 C45 1_555 1_555
N1 C1 1_555 1_555
N2 C2 1_555 1_555
N3 C7 1_555 1_555
C1 C4 1_555 1_555
N4 C11 1_555 1_555
N5 C24 1_555 1_555
O2 C60 1_555 1_555
C2 C3 1_555 1_555
N6 C36 1_555 1_555
C3 C4 1_555 1_555
C4 C10 1_555 1_555
C5 C2 1_555 1_555
C6 N2 1_555 1_555
C7 C18 1_555 1_555
C8 C3 1_555 1_555
H1 C8 1_555 1_555
C9 C1 1_555 1_555
C10 H2 1_555 1_555
C11 C5 1_555 1_555
C12 C14 1_555 1_555
C13 H3 1_555 1_555
C14 C13 1_555 1_555
H4 C14 1_555 1_555
C15 C26 1_555 1_555
C16 C12 1_555 1_555
H5 C16 1_555 1_555
C17 C11 1_555 1_555
H6 C17 1_555 1_555
C18 C6 1_555 1_555
C19 C17 1_555 1_555
H7 C19 1_555 1_555
C20 C21 1_555 1_555
C21 N1 1_555 1_555
C22 C13 1_555 1_555
C23 H8 1_555 1_555
C24 C23 1_555 1_555
C25 C22 1_555 1_555
H9 C25 1_555 1_555
H10 C25 1_555 1_555
H11 C25 1_555 1_555
C26 N4 1_555 1_555
C27 C24 1_555 1_555
C28 H12 1_555 1_555
C29 C20 1_555 1_555
C30 C41 1_555 1_555
C31 H13 1_555 1_555
C32 C23 1_555 1_555
H14 C32 1_555 1_555
C33 C15 1_555 1_555
C34 N5 1_555 1_555
C35 H15 1_555 1_555
C36 C20 1_555 1_555
C37 C7 1_555 1_555
H16 C37 1_555 1_555
C38 N6 1_555 1_555
C39 N3 1_555 1_555
C40 C16 1_555 1_555
H17 C40 1_555 1_555
C41 H18 1_555 1_555
C42 H19 1_555 1_555
C43 C38 1_555 1_555
H20 C43 1_555 1_555
C44 H21 1_555 1_555
C45 H22 1_555 1_555
H23 C45 1_555 1_555
H24 C45 1_555 1_555
C46 C27 1_555 1_555
C47 C33 1_555 1_555
H25 C47 1_555 1_555
C48 C33 1_555 1_555
H26 C48 1_555 1_555
C49 C51 1_555 1_555
C50 C47 1_555 1_555
H27 C50 1_555 1_555
C51 C44 1_555 1_555
H28 C51 1_555 1_555
C52 C29 1_555 1_555
H29 C52 1_555 1_555
C53 C36 1_555 1_555
H30 C53 1_555 1_555
C54 C35 1_555 1_555
C55 C28 1_555 1_555
H31 C55 1_555 1_555
B1 O1 1_555 1_555
C56 C42 1_555 1_555
H32 C56 1_555 1_555
C57 C54 1_555 1_555
H33 C57 1_555 1_555
H34 C57 1_555 1_555
H35 C57 1_555 1_555
C58 C49 1_555 1_555
H36 C58 1_555 1_555
H37 C58 1_555 1_555
H38 C58 1_555 1_555
C59 C30 1_555 1_555
H39 C59 1_555 1_555
H40 C59 1_555 1_555
H41 C59 1_555 1_555
C60 H42 1_555 1_555
H43 C60 1_555 1_555
H44 C60 1_555 1_555
B2 N1 1_555 1_555
O3 B4 1_555 1_555
O4 B3 1_555 1_555
N7 C81 1_555 1_555
N8 C82 1_555 1_555
N9 C74 1_555 1_555
N10 C65 1_555 1_555
N11 C73 1_555 1_555
C61 H45 1_555 1_555
N12 C83 1_555 1_555
C62 C63 1_555 1_555
C63 H46 1_555 1_555
C64 H47 1_555 1_555
C65 C77 1_555 1_555
C66 C67 1_555 1_555
C67 C88 1_555 1_555
C68 N10 1_555 1_555
C69 C68 1_555 1_555
H48 C69 1_555 1_555
C70 H49 1_555 1_555
C71 C74 1_555 1_555
C72 C77 1_555 1_555
C73 C77 1_555 1_555
C74 C76 1_555 1_555
C75 C68 1_555 1_555
C76 H50 1_555 1_555
C78 H51 1_555 1_555
C79 C62 1_555 1_555
C80 C76 1_555 1_555
H52 C80 1_555 1_555
C81 C63 1_555 1_555
C82 C64 1_555 1_555
C83 C70 1_555 1_555
C84 C100 1_555 1_555
C85 C61 1_555 1_555
H53 C85 1_555 1_555
C86 N11 1_555 1_555
C87 H54 1_555 1_555
C88 C87 1_555 1_555
H55 C88 1_555 1_555
C89 N9 1_555 1_555
C90 C91 1_555 1_555
C91 H56 1_555 1_555
C92 N12 1_555 1_555
C93 C91 1_555 1_555
H57 C93 1_555 1_555
C94 C71 1_555 1_555
C95 N7 1_555 1_555
C96 H58 1_555 1_555
C97 C99 1_555 1_555
C98 C75 1_555 1_555
C99 C86 1_555 1_555
C100 C96 1_555 1_555
H59 C100 1_555 1_555
C101 N8 1_555 1_555
C102 C78 1_555 1_555
C103 C98 1_555 1_555
H60 C103 1_555 1_555
C104 C94 1_555 1_555
H61 C104 1_555 1_555
B3 N7 1_555 1_555
C105 C84 1_555 1_555
H62 C105 1_555 1_555
C106 C97 1_555 1_555
H63 C106 1_555 1_555
B4 N8 1_555 1_555
C107 O3 1_555 1_555
H64 C107 1_555 1_555
H65 C107 1_555 1_555
H66 C107 1_555 1_555
C108 C64 1_555 1_555
H67 C108 1_555 1_555
C109 C84 1_555 1_555
H68 C109 1_555 1_555
H69 C109 1_555 1_555
H70 C109 1_555 1_555
C110 C67 1_555 1_555
H71 C110 1_555 1_555
C111 C70 1_555 1_555
H72 C111 1_555 1_555
C112 C102 1_555 1_555
H73 C112 1_555 1_555
H74 C112 1_555 1_555
H75 C112 1_555 1_555
C113 C97 1_555 1_555
H76 C113 1_555 1_555
C114 C117 1_555 1_555
C115 C90 1_555 1_555
H77 C115 1_555 1_555
C116 C90 1_555 1_555
H78 C116 1_555 1_555
H79 C116 1_555 1_555
H80 C116 1_555 1_555
C117 C106 1_555 1_555
H81 C117 1_555 1_555
C118 C113 1_555 1_555
H82 C118 1_555 1_555
C119 O4 1_555 1_555
H83 C119 1_555 1_555
H84 C119 1_555 1_555
H85 C119 1_555 1_555
C120 C114 1_555 1_555
H86 C120 1_555 1_555
H87 C120 1_555 1_555
H88 C120 1_555 1_555
Cl1 C121 1_555 1_555
C121 Cl2 1_555 1_555
N2 B1 1_555 1_555
N3 B1 1_555 1_555
N4 B1 1_555 1_555
N5 B2 1_555 1_555
O2 B2 1_555 1_555
N6 B2 1_555 1_555
C5 C9 1_555 1_555
C6 C8 1_555 1_555
C9 C34 1_555 1_555
C10 C21 1_555 1_555
C12 C18 1_555 1_555
C15 C39 1_555 1_555
C19 C26 1_555 1_555
C22 C40 1_555 1_555
C27 C38 1_555 1_555
C28 C29 1_555 1_555
C30 C55 1_555 1_555
C31 C37 1_555 1_555
C31 C39 1_555 1_555
C32 C34 1_555 1_555
C35 C48 1_555 1_555
C41 C52 1_555 1_555
C42 C46 1_555 1_555
C43 C53 1_555 1_555
C44 C46 1_555 1_555
C49 C56 1_555 1_555
C50 C54 1_555 1_555
N9 B3 1_555 1_555
N10 B4 1_555 1_555
N11 B4 1_555 1_555
C61 C86 1_555 1_555
N12 B3 1_555 1_555
C62 C95 1_555 1_555
C65 C79 1_555 1_555
C66 C81 1_555 1_555
C66 C89 1_555 1_555
C69 C79 1_555 1_555
C71 C83 1_555 1_555
C72 C92 1_555 1_555
C72 C95 1_555 1_555
C73 C85 1_555 1_555
C75 C82 1_555 1_555
C78 C110 1_555 1_555
C80 C89 1_555 1_555
C87 C102 1_555 1_555
C92 C111 1_555 1_555
C93 C94 1_555 1_555
C96 C98 1_555 1_555
C99 C101 1_555 1_555
C101 C108 1_555 1_555
C103 C105 1_555 1_555
C104 C115 1_555 1_555
C114 C118 1_555 1_555

#END
