
#######################################################################
#
#                 Cambridge Crystallographic Data Centre
#                                CCDC 
#
#######################################################################
#
# If this CIF has been generated from an entry in the Cambridge 
# Structural Database, then it will include bibliographic, chemical, 
# crystal, experimental, refinement or atomic coordinate data resulting 
# from the CCDC's data processing and validation procedures.
#
#######################################################################

data_OVATEM
_chemical_formula_moiety         
'C60 H46 B2 N6 O2,0.667(C7 H8),0.333(C1 H4 O1),0.5(H2 O1)'
_chemical_name_systematic        
"9c,9c'-dimethoxy-3,3',6,6'-tetrakis(4-methylphenyl)-9cH,9c'H-1,1'-bi-8b,9b,9d-triaza-9c-boratatricyclopenta[cd,gh,kl]phenalene methanol toluene solvate hemihydrate"
_symmetry_cell_setting           triclinic
_symmetry_space_group_name_H-M   'P -1'
_symmetry_Int_Tables_number      2
_space_group_name_Hall           '-P 1'
loop_
_symmetry_equiv_pos_site_id
_symmetry_equiv_pos_as_xyz
1 x,y,z
2 -x,-y,-z
_cell_length_a                   21.167(6)
_cell_length_b                   21.221(5)
_cell_length_c                   22.181(7)
_cell_angle_alpha                108.804(3)
_cell_angle_beta                 116.931(9)
_cell_angle_gamma                93.63
_cell_volume                     8146.08
_exptl_crystal_colour            orange
_exptl_crystal_description       Prism
_cell_formula_units_Z            6
loop_
_atom_site_label
_atom_site_type_symbol
_atom_site_fract_x
_atom_site_fract_y
_atom_site_fract_z
C1 C 0.8032(2) 0.7986(2) 0.1671(2)
C2 C 0.7792(2) 0.7307(2) 0.1615(2)
C3 C 0.8095(2) 0.7331(2) 0.2319(2)
H1 H 0.8032 0.6956 0.2448
C4 C 0.8520(2) 0.8013(2) 0.2823(2)
C5 C 0.9051(3) 0.8318(2) 0.3580(2)
C6 C 0.9521(3) 0.8966(2) 0.3846(2)
C7 C 1.0242(3) 0.9316(2) 0.4479(2)
H2 H 1.0468 0.9212 0.4904
C8 C 1.0538(3) 0.9820(2) 0.4358(2)
H3 H 1.1008 1.0130 0.4687
C9 C 1.0016(3) 0.9805(2) 0.3644(2)
C10 C 1.0050(3) 1.0074(2) 0.3151(2)
C11 C 0.9503(3) 0.9754(2) 0.2402(2)
C12 C 0.9507(3) 0.9680(3) 0.1727(2)
H4 H 0.9850 0.9956 0.1692
C13 C 0.8940(3) 0.9154(2) 0.1160(2)
H5 H 0.8814 0.9000 0.0659
C14 C 0.8559(2) 0.8865(2) 0.1441(2)
C15 C 0.8074(2) 0.8245(2) 0.1177(2)
H6 H 0.7769 0.7993 0.0662
C16 C 0.9179(3) 0.7939(2) 0.4068(2)
C17 C 0.9241(3) 0.7265(2) 0.3864(2)
H7 H 0.9202 0.7034 0.3399
C18 C 0.9360(3) 0.6923(3) 0.4332(2)
H8 H 0.9408 0.6464 0.4183
C19 C 0.9410(3) 0.7239(3) 0.5012(3)
C20 C 0.9325(4) 0.7898(3) 0.5194(3)
H9 H 0.9336 0.8119 0.5646
C21 C 0.9225(3) 0.8256(3) 0.4750(3)
H10 H 0.9187 0.8717 0.4908
C22 C 0.9564(4) 0.6874(4) 0.5522(3)
H11 H 1.0077 0.7050 0.5914
H12 H 0.9467 0.6380 0.5246
H13 H 0.9247 0.6953 0.5739
C23 C 1.0659(3) 1.0621(2) 0.3350(2)
C24 C 1.1394(3) 1.0682(3) 0.3835(3)
H14 H 1.1520 1.0353 0.4049
C25 C 1.1935(3) 1.1212(3) 0.4005(3)
H15 H 1.2429 1.1249 0.4343
C26 C 1.1780(3) 1.1694(3) 0.3695(3)
C27 C 1.1046(3) 1.1627(3) 0.3199(3)
H16 H 1.0922 1.1945 0.2972
C28 C 1.0509(3) 1.1111(3) 0.3043(3)
H17 H 1.0015 1.1083 0.2712
C29 C 1.2375(4) 1.2270(3) 0.3869(4)
H18 H 1.2854 1.2215 0.4188
H19 H 1.2310 1.2712 0.4121
H20 H 1.2346 1.2255 0.3411
N1 N 0.84138(19) 0.83922(19) 0.24071(18)
N2 N 0.9408(2) 0.93144(19) 0.34065(18)
N3 N 0.8897(2) 0.92814(19) 0.21806(19)
B1 B 0.8696(3) 0.9151(3) 0.2710(3)
O1 O 0.82070(18) 0.95544(17) 0.28253(18)
C30 C 0.7369(2) 0.6021(2) 0.0772(2)
C31 C 0.7331(2) 0.6723(2) 0.0920(2)
C32 C 0.6810(2) 0.6740(3) 0.0262(3)
H21 H 0.6663 0.7137 0.0195
C33 C 0.6536(2) 0.6068(2) -0.0291(2)
C34 C 0.6162(2) 0.5819(2) -0.1072(2)
C35 C 0.6232(2) 0.5184(2) -0.1464(2)
C36 C 0.6160(2) 0.4878(2) -0.2175(2)
H22 H 0.5926 0.5023 -0.2568
C37 C 0.6483(2) 0.4343(2) -0.2190(2)
H23 H 0.6522 0.4056 -0.2594
C38 C 0.6753(2) 0.4287(2) -0.1496(2)
C39 C 0.7285(2) 0.3960(2) -0.1138(2)
C40 C 0.7682(2) 0.4257(2) -0.0352(2)
C41 C 0.8400(2) 0.4276(2) 0.0197(2)
H24 H 0.8699 0.3981 0.0118
C42 C 0.8574(2) 0.4785(2) 0.0844(2)
H25 H 0.9020 0.4913 0.1295
C43 C 0.7973(2) 0.5099(2) 0.0734(2)
C44 C 0.7906(2) 0.5719(2) 0.1135(2)
H26 H 0.8223 0.5937 0.1653
N4 N 0.68406(18) 0.56430(19) 0.00574(19)
N5 N 0.74436(18) 0.47352(18) 0.00181(18)
C45 C 0.5815(3) 0.6288(3) -0.1417(3)
C46 C 0.5358(3) 0.6634(3) -0.1207(3)
H27 H 0.5256 0.6544 -0.0863
C47 C 0.5055(3) 0.7101(4) -0.1489(4)
H28 H 0.4754 0.7332 -0.1329
C48 C 0.5178(3) 0.7239(3) -0.1996(3)
C49 C 0.5619(3) 0.6900(3) -0.2219(3)
H29 H 0.5707 0.6986 -0.2572
C50 C 0.5940(3) 0.6426(3) -0.1929(3)
H30 H 0.6244 0.6200 -0.2086
C51 C 0.4886(4) 0.7782(4) -0.2281(4)
H31 H 0.4374 0.7736 -0.2403
H32 H 0.4918 0.7720 -0.2723
H33 H 0.5177 0.8240 -0.1901
C52 C 0.7452(2) 0.3388(2) -0.1586(2)
C53 C 0.8168(2) 0.3336(2) -0.1412(2)
H34 H 0.8574 0.3671 -0.0978
C54 C 0.8281(2) 0.2799(2) -0.1873(2)
H35 H 0.8768 0.2773 -0.1750
C55 C 0.7705(2) 0.2297(2) -0.2509(2)
C56 C 0.7002(2) 0.2347(2) -0.2669(2)
H36 H 0.6598 0.2006 -0.3100
C57 C 0.6878(2) 0.2877(2) -0.2220(2)
H37 H 0.6388 0.2894 -0.2344
C58 C 0.7836(3) 0.1739(3) -0.3034(3)
H38 H 0.7377 0.1387 -0.3396
H39 H 0.8203 0.1531 -0.2758
H40 H 0.8013 0.1938 -0.3288
C59 C 0.5537(3) 0.4606(3) -0.0415(3)
H41 H 0.5623 0.5070 -0.0065
H42 H 0.5255 0.4273 -0.0352
H43 H 0.5263 0.4583 -0.0918
N6 N 0.65424(17) 0.47759(18) -0.11056(18)
B2 B 0.6710(3) 0.4885(3) -0.0329(3)
O2 O 0.61879(18) 0.44566(17) -0.02883(19)
C60 C 0.7495(5) 0.9427(6) 0.2256(6)
H44 H 0.7506 0.9584 0.1891
H45 H 0.7212 0.9674 0.2455
H46 H 0.7267 0.8932 0.2023
C62 C 0.6202(2) 0.2229(2) -0.1182(2)
C63 C 0.6892(2) 0.2193(2) -0.0617(2)
C64 C 0.7051(3) 0.1595(2) -0.0927(2)
H50 H 0.7470 0.1440 -0.0683
C65 C 0.6480(2) 0.1244(2) -0.1679(2)
C66 C 0.6447(3) 0.0726(2) -0.2290(2)
C67 C 0.5957(3) 0.0695(2) -0.3000(2)
C68 C 0.5928(3) 0.0431(3) -0.3696(2)
H51 H 0.6184 0.0112 -0.3828
C69 C 0.5467(3) 0.0719(2) -0.4140(2)
H52 H 0.5356 0.0639 -0.4628
C70 C 0.5187(2) 0.1159(2) -0.3737(2)
C71 C 0.4851(2) 0.1701(2) -0.3829(2)
C72 C 0.4883(2) 0.2208(2) -0.3209(2)
C73 C 0.4819(2) 0.2903(2) -0.3029(2)
H53 H 0.4606 0.3113 -0.3369
C74 C 0.5118(2) 0.3212(2) -0.2283(2)
H54 H 0.5155 0.3676 -0.2012
C75 C 0.5364(2) 0.2712(2) -0.1981(2)
C76 C 0.5869(2) 0.2764(2) -0.1264(2)
H55 H 0.5979 0.3161 -0.0844
C77 C 0.6985(3) 0.0303(2) -0.2151(2)
C78 C 0.7036(3) -0.0057(3) -0.1714(3)
H56 H 0.6720 -0.0033 -0.1515
C79 C 0.7540(3) -0.0451(3) -0.1564(3)
H57 H 0.7562 -0.0694 -0.1265
C80 C 0.8006(3) -0.0496(3) -0.1837(3)
C81 C 0.7972(3) -0.0132(3) -0.2261(3)
H58 H 0.8299 -0.0150 -0.2446
C82 C 0.7463(3) 0.0265(3) -0.2422(2)
H59 H 0.7444 0.0509 -0.2719
C83 C 0.8559(4) -0.0927(4) -0.1647(3)
H60 H 0.8621 -0.1004 -0.1214
H61 H 0.9029 -0.0684 -0.1543
H62 H 0.8382 -0.1370 -0.2064
C84 C 0.4610(2) 0.1795(2) -0.4535(2)
C85 C 0.4051(3) 0.1302(3) -0.5193(2)
H63 H 0.3802 0.0912 -0.5196
C86 C 0.3854(3) 0.1378(3) -0.5849(3)
H64 H 0.3457 0.1045 -0.6294
C87 C 0.4220(3) 0.1925(3) -0.5873(3)
C88 C 0.4784(3) 0.2408(3) -0.5205(3)
H65 H 0.5046 0.2790 -0.5202
C89 C 0.4971(2) 0.2348(3) -0.4559(3)
H66 H 0.5356 0.2692 -0.4113
N7 N 0.59724(19) 0.16293(18) -0.17751(18)
N8 N 0.5460(2) 0.10873(18) -0.30789(19)
N9 N 0.51523(17) 0.21086(18) -0.25649(18)
O3 O 0.46771(19) 0.1040(2) -0.2529(2)
C90 C 0.4010(4) 0.2002(3) -0.6590(3)
H67 H 0.3546 0.1670 -0.6982
H68 H 0.4393 0.1918 -0.6717
H69 H 0.3954 0.2469 -0.6536
C91 C 0.4040(6) 0.0721(7) -0.3164(7)
H70 H 0.3793 0.1065 -0.3312
H71 H 0.3727 0.0424 -0.3095
H72 H 0.4135 0.0442 -0.3547
B3 B 0.5270(3) 0.1438(3) -0.2500(3)
C92 C 0.8142(2) 0.2875(2) 0.0530(2)
C93 C 0.7350(2) 0.2714(2) 0.0131(2)
C94 C 0.7134(2) 0.3139(2) 0.0579(2)
H73 H 0.6643 0.3147 0.0454
C95 C 0.7771(2) 0.3568(2) 0.1262(2)
C96 C 0.7908(2) 0.4168(2) 0.1860(2)
C97 C 0.8630(2) 0.4592(2) 0.2322(2)
C98 C 0.8915(2) 0.5307(2) 0.2771(2)
H74 H 0.8661 0.5604 0.2940
C99 C 0.9624(2) 0.5496(2) 0.2919(2)
H75 H 0.9941 0.5945 0.3203
C100 C 0.9794(2) 0.4893(2) 0.2564(2)
C101 C 1.0343(2) 0.4792(2) 0.2355(2)
C102 C 1.0176(2) 0.4184(2) 0.1740(2)
C103 C 1.0429(2) 0.3990(2) 0.1220(2)
H76 H 1.0859 0.4228 0.1273
C104 C 0.9947(2) 0.3407(2) 0.0637(2)
H77 H 0.9978 0.3173 0.0211
C105 C 0.9377(2) 0.3208(2) 0.0781(2)
C106 C 0.8670(2) 0.2766(2) 0.0322(2)
H78 H 0.8554 0.2400 -0.0123
C107 C 0.7321(2) 0.4398(2) 0.1982(2)
C108 C 0.6257(3) 0.4853(3) 0.2312(3)
C109 C 0.5707(3) 0.5135(4) 0.2511(4)
H79 H 0.5936 0.5605 0.2885
H80 H 0.5544 0.4846 0.2705
H81 H 0.5286 0.5136 0.2071
C110 C 1.1016(2) 0.5342(2) 0.2748(2)
C111 C 1.1361(2) 0.5671(2) 0.3520(2)
H82 H 1.1144 0.5545 0.3770
C112 C 1.2012(2) 0.6175(2) 0.3923(2)
H83 H 1.2234 0.6388 0.4443
C113 C 1.2341(2) 0.6372(3) 0.3573(2)
C114 C 1.2000(2) 0.6059(2) 0.2812(2)
H84 H 1.2218 0.6191 0.2566
C115 C 1.1349(2) 0.5560(2) 0.2406(2)
H85 H 1.1125 0.5360 0.1884
C116 C 1.3057(2) 0.6919(3) 0.4009(3)
H86 H 1.3466 0.6701 0.4127
H87 H 1.3096 0.7235 0.4466
H88 H 1.3069 0.7176 0.3716
C117 C 0.8981(3) 0.3066(3) 0.2570(3)
H89 H 0.8985 0.3488 0.2925
H90 H 0.9189 0.2761 0.2818
H91 H 0.8477 0.2834 0.2172
N10 N 0.83516(17) 0.33526(18) 0.12142(17)
N11 N 0.91895(18) 0.43630(19) 0.22528(16)
N12 N 0.95728(17) 0.36674(18) 0.14559(17)
B4 B 0.9136(2) 0.3633(3) 0.1830(2)
O4 O 0.94058(15) 0.32340(17) 0.22743(15)
C118 C 0.7397(3) 0.4523(3) 0.2664(3)
H92 H 0.7813 0.4456 0.3032
C119 C 0.6862(3) 0.4746(3) 0.2806(3)
H93 H 0.6924 0.4829 0.3279
C120 C 0.6195(3) 0.4716(3) 0.1599(3)
H94 H 0.5782 0.4786 0.1231
C121 C 0.6724(3) 0.4484(3) 0.1440(3)
H95 H 0.6672 0.4388 0.0968
C126 C 0.1759(2) 0.4106(2) 0.3692(2)
C127 C 0.2016(2) 0.3870(2) 0.3181(2)
C128 C 0.2725(2) 0.4259(2) 0.3510(2)
H100 H 0.3027 0.4213 0.3295
C129 C 0.2924(2) 0.4742(3) 0.4229(2)
C130 C 0.3501(2) 0.5337(3) 0.4768(2)
C131 C 0.3402(2) 0.5799(3) 0.5311(2)
C132 C 0.3694(3) 0.6534(3) 0.5739(3)
H101 H 0.4123 0.6805 0.5824
C133 C 0.3245(3) 0.6768(3) 0.5998(2)
H102 H 0.3306 0.7230 0.6294
C134 C 0.2662(3) 0.6193(3) 0.5746(2)
C135 C 0.1957(3) 0.6164(3) 0.5672(2)
C136 C 0.1409(3) 0.5548(3) 0.5161(2)
C137 C 0.0620(3) 0.5391(3) 0.4776(2)
H103 H 0.0331 0.5667 0.4908
C138 C 0.0357(3) 0.4771(3) 0.4181(2)
H104 H -0.0143 0.4545 0.3834
C139 C 0.0981(2) 0.4526(2) 0.4183(2)
C140 C 0.1072(2) 0.4047(2) 0.3637(2)
H105 H 0.0668 0.3684 0.3234
C141 C 0.4160(2) 0.5548(3) 0.4735(2)
C142 C 0.4846(3) 0.5786(3) 0.5390(2)
H106 H 0.4875 0.5801 0.5834
C143 C 0.5474(2) 0.5998(3) 0.5386(3)
H107 H 0.5931 0.6148 0.5830
C144 C 0.5456(3) 0.5997(3) 0.4750(3)
C145 C 0.4770(2) 0.5763(3) 0.4104(2)
H108 H 0.4739 0.5757 0.3661
C146 C 0.4142(3) 0.5542(3) 0.4101(2)
H109 H 0.3687 0.5381 0.3654
C147 C 0.6126(3) 0.6235(3) 0.4750(3)
H110 H 0.6547 0.6391 0.5248
H111 H 0.6077 0.6617 0.4587
H112 H 0.6199 0.5857 0.4413
C148 C 0.1787(3) 0.6807(3) 0.5991(3)
C149 C 0.1320(3) 0.7101(3) 0.5552(3)
H113 H 0.1077 0.6859 0.5033
C150 C 0.1191(4) 0.7725(3) 0.5830(4)
H114 H 0.0850 0.7893 0.5501
C151 C 0.1550(4) 0.8115(3) 0.6581(4)
C152 C 0.2036(5) 0.7837(4) 0.7032(4)
H115 H 0.2293 0.8091 0.7550
C153 C 0.2160(4) 0.7191(3) 0.6745(3)
H116 H 0.2499 0.7018 0.7069
C154 C 0.1422(6) 0.8781(4) 0.6903(6)
H117 H 0.0912 0.8717 0.6790
H118 H 0.1520 0.9094 0.6695
H119 H 0.1748 0.8978 0.7437
C155 C 0.2283(4) 0.3959(4) 0.5390(4)
H120 H 0.1874 0.4014 0.5481
H121 H 0.2613 0.3760 0.5712
H122 H 0.2095 0.3655 0.4875
N13 N 0.2347(2) 0.4592(2) 0.43271(18)
N14 N 0.2820(2) 0.5625(2) 0.53933(19)
N15 N 0.1579(2) 0.4987(2) 0.48139(18)
B5 B 0.2354(3) 0.4915(3) 0.5041(3)
O5 O 0.2649(2) 0.4575(2) 0.55277(17)
C156 C 0.1768(2) 0.3272(2) 0.1856(2)
C157 C 0.1612(2) 0.3321(2) 0.2444(2)
C158 C 0.1037(2) 0.2777(2) 0.2162(2)
H123 H 0.0811 0.2687 0.2421
C159 C 0.0826(2) 0.2365(2) 0.1414(2)
C160 C 0.0217(2) 0.1823(2) 0.0810(2)
C161 C 0.0072(2) 0.1710(2) 0.0090(2)
C162 C -0.0603(2) 0.1430(2) -0.0611(2)
H124 H -0.1041 0.1147 -0.0726
C163 C -0.0486(2) 0.1653(2) -0.1080(2)
H125 H -0.0836 0.1550 -0.1579
C164 C 0.0244(2) 0.2062(2) -0.0695(2)
C165 C 0.0594(2) 0.2553(2) -0.0827(2)
C166 C 0.1206(2) 0.3073(2) -0.0223(2)
C167 C 0.1533(2) 0.3747(2) -0.0088(2)
H126 H 0.1462 0.3921 -0.0453
C168 C 0.1971(2) 0.4104(2) 0.0661(2)
H127 H 0.2245 0.4569 0.0905
C169 C 0.1939(2) 0.3645(2) 0.1002(2)
C170 C 0.2117(2) 0.3754(2) 0.1731(2)
H128 H 0.2473 0.4153 0.2132
C171 C -0.0339(2) 0.1428(2) 0.0876(2)
C172 C -0.0630(2) 0.1737(3) 0.1314(3)
H129 H -0.0436 0.2211 0.1629
C173 C -0.1201(3) 0.1357(3) 0.1291(3)
H130 H -0.1389 0.1577 0.1597
C174 C -0.1505(3) 0.0678(3) 0.0844(4)
C175 C -0.1206(3) 0.0358(3) 0.0421(3)
H131 H -0.1396 -0.0119 0.0119
C176 C -0.0633(2) 0.0730(3) 0.0436(2)
H132 H -0.0438 0.0504 0.0140
C177 C -0.2144(3) 0.0278(4) 0.0828(5)
H133 H -0.1955 0.0100 0.1216
H134 H -0.2436 -0.0106 0.0348
H135 H -0.2452 0.0583 0.0909
C178 C 0.0243(2) 0.2544(2) -0.1587(2)
C179 C 0.0021(2) 0.1928(3) -0.2187(2)
H136 H 0.0119 0.1523 -0.2105
C180 C -0.0339(2) 0.1894(3) -0.2894(2)
H137 H -0.0480 0.1465 -0.3292
C181 C -0.0500(2) 0.2470(3) -0.3045(2)
C182 C -0.0284(2) 0.3080(3) -0.2450(2)
H138 H -0.0388 0.3482 -0.2535
C183 C 0.0083(2) 0.3125(2) -0.1731(2)
H139 H 0.0225 0.3554 -0.1334
C184 C -0.0926(3) 0.2425(3) -0.3825(3)
H140 H -0.0827 0.2880 -0.3831
H141 H -0.1450 0.2264 -0.4016
H142 H -0.0777 0.2102 -0.4134
N16 N 0.13194(17) 0.26665(18) 0.12820(18)
N17 N 0.05584(18) 0.20380(18) -0.00150(17)
N18 N 0.15104(17) 0.30275(19) 0.04529(18)
B6 B 0.1338(3) 0.2394(3) 0.0576(3)
O6 O 0.17857(16) 0.19190(17) 0.05441(16)
C185 C 0.2546(3) 0.2161(3) 0.1024(3)
H143 H 0.2735 0.2534 0.0935
H144 H 0.2782 0.1785 0.0938
H145 H 0.2650 0.2333 0.1535
C186 C 0.6609(6) 0.7776(7) 0.2650(8)
C187 C 0.6338(5) 0.7140(9) 0.2002(9)
C188 C 0.7055(6) 0.7813(7) 0.3331(8)
C189 C 0.6528(5) 0.6564(6) 0.2101(6)
C190 C 0.7275(6) 0.7230(7) 0.3468(7)
C191 C 0.6995(6) 0.6616(7) 0.2844(8)
C192 C 0.7223(12) 0.8422(16) 0.3941(13)
O7 O 0.0000 0.5000 0.0000
C194 C 0.6727(11) 0.1507(11) 0.4302(10)
C195 C 0.6049(14) 0.1307(12) 0.4226(10)
C196 C 0.5439(9) 0.0967(10) 0.3529(14)
C197 C 0.5507(10) 0.0827(9) 0.2908(9)
C198 C 0.6186(14) 0.1028(10) 0.2983(11)
C199 C 0.6796(9) 0.1368(11) 0.3680(15)
C200 C 0.553(5) 0.117(5) 0.447(5)
O8 O 0.6407(19) 0.1589(18) 0.0864(19)
O9 O 0.537(3) 0.823(3) 0.056(3)
C208 C 0.604(3) 0.842(4) 0.055(4)
O10 O 0.427(4) 0.998(3) 0.079(4)
C61? C 0.7999(6) 0.9550(6) 0.3310(6)
H47? H 0.7859 0.9076 0.3250
H48? H 0.7580 0.9755 0.3224
H49? H 0.8405 0.9817 0.3810
C122? C 0.6554(13) 0.5278(14) 0.2251(11)
H96? H 0.6466 0.5723 0.2330
C123? C 0.7081(11) 0.5052(12) 0.2039(10)
H97? H 0.7304 0.5360 0.1921
C124? C 0.6864(12) 0.4017(17) 0.2169(17)
H98? H 0.6912 0.3568 0.2138
C125? C 0.6374(12) 0.4269(18) 0.2385(14)
H99? H 0.6145 0.4043 0.2568
C193? C 0.5874(9) 0.7188(12) 0.1247(12)
C201? C 0.6173(13) 0.1521(13) 0.4058(14)
C202? C 0.6829(14) 0.1466(13) 0.4069(14)
C203? C 0.7230(11) 0.1053(13) 0.4383(13)
C204? C 0.6976(12) 0.0694(11) 0.4688(12)
C205? C 0.6321(13) 0.0749(12) 0.4677(12)
C206? C 0.5919(11) 0.1162(13) 0.4362(14)
C207? C 0.7407(19) 0.0300(18) 0.5162(19)
loop_
_geom_bond_atom_site_label_1
_geom_bond_atom_site_label_2
_geom_bond_site_symmetry_1
_geom_bond_site_symmetry_2
C1 C2 1_555 1_555
C2 C3 1_555 1_555
C3 H1 1_555 1_555
C4 C3 1_555 1_555
C5 C4 1_555 1_555
C6 C5 1_555 1_555
C7 C6 1_555 1_555
H2 C7 1_555 1_555
C8 C7 1_555 1_555
H3 C8 1_555 1_555
C9 C8 1_555 1_555
C10 C9 1_555 1_555
C11 C10 1_555 1_555
C12 C11 1_555 1_555
H4 C12 1_555 1_555
C13 C12 1_555 1_555
H5 C13 1_555 1_555
C14 C13 1_555 1_555
C15 C1 1_555 1_555
H6 C15 1_555 1_555
C16 C5 1_555 1_555
C17 C16 1_555 1_555
H7 C17 1_555 1_555
C18 C17 1_555 1_555
H8 C18 1_555 1_555
C19 C18 1_555 1_555
C20 C19 1_555 1_555
H9 C20 1_555 1_555
C21 C16 1_555 1_555
H10 C21 1_555 1_555
C22 C19 1_555 1_555
H11 C22 1_555 1_555
H12 C22 1_555 1_555
H13 C22 1_555 1_555
C23 C10 1_555 1_555
C24 C23 1_555 1_555
H14 C24 1_555 1_555
C25 C24 1_555 1_555
H15 C25 1_555 1_555
C26 C25 1_555 1_555
C27 C26 1_555 1_555
H16 C27 1_555 1_555
C28 C23 1_555 1_555
H17 C28 1_555 1_555
C29 C26 1_555 1_555
H18 C29 1_555 1_555
H19 C29 1_555 1_555
H20 C29 1_555 1_555
N1 C1 1_555 1_555
N2 C6 1_555 1_555
N3 C11 1_555 1_555
B1 N1 1_555 1_555
O1 B1 1_555 1_555
C30 C31 1_555 1_555
C31 C2 1_555 1_555
C32 C31 1_555 1_555
H21 C32 1_555 1_555
C33 C32 1_555 1_555
C34 C33 1_555 1_555
C35 C34 1_555 1_555
C36 C35 1_555 1_555
H22 C36 1_555 1_555
C37 C36 1_555 1_555
H23 C37 1_555 1_555
C38 C37 1_555 1_555
C39 C38 1_555 1_555
C40 C39 1_555 1_555
C41 C40 1_555 1_555
H24 C41 1_555 1_555
C42 C41 1_555 1_555
H25 C42 1_555 1_555
C43 C42 1_555 1_555
C44 C30 1_555 1_555
H26 C44 1_555 1_555
N4 C30 1_555 1_555
N5 C40 1_555 1_555
C45 C34 1_555 1_555
C46 C45 1_555 1_555
H27 C46 1_555 1_555
C47 C46 1_555 1_555
H28 C47 1_555 1_555
C48 C47 1_555 1_555
C49 C48 1_555 1_555
H29 C49 1_555 1_555
C50 C45 1_555 1_555
H30 C50 1_555 1_555
C51 C48 1_555 1_555
H31 C51 1_555 1_555
H32 C51 1_555 1_555
H33 C51 1_555 1_555
C52 C39 1_555 1_555
C53 C52 1_555 1_555
H34 C53 1_555 1_555
C54 C53 1_555 1_555
H35 C54 1_555 1_555
C55 C54 1_555 1_555
C56 C55 1_555 1_555
H36 C56 1_555 1_555
C57 C52 1_555 1_555
H37 C57 1_555 1_555
C58 C55 1_555 1_555
H38 C58 1_555 1_555
H39 C58 1_555 1_555
H40 C58 1_555 1_555
C59 H41 1_555 1_555
H42 C59 1_555 1_555
H43 C59 1_555 1_555
N6 C35 1_555 1_555
B2 N4 1_555 1_555
O2 C59 1_555 1_555
C60 O1 1_555 1_555
H44 C60 1_555 1_555
H45 C60 1_555 1_555
H46 C60 1_555 1_555
C62 C63 1_555 1_555
C63 C64 1_555 1_555
C64 H50 1_555 1_555
C65 C64 1_555 1_555
C66 C65 1_555 1_555
C67 C66 1_555 1_555
C68 C67 1_555 1_555
H51 C68 1_555 1_555
C69 C68 1_555 1_555
H52 C69 1_555 1_555
C70 C69 1_555 1_555
C71 C70 1_555 1_555
C72 C71 1_555 1_555
C73 C72 1_555 1_555
H53 C73 1_555 1_555
C74 C73 1_555 1_555
H54 C74 1_555 1_555
C75 C74 1_555 1_555
C76 C62 1_555 1_555
H55 C76 1_555 1_555
C77 C66 1_555 1_555
C78 C77 1_555 1_555
H56 C78 1_555 1_555
C79 C78 1_555 1_555
H57 C79 1_555 1_555
C80 C79 1_555 1_555
C81 C80 1_555 1_555
H58 C81 1_555 1_555
C82 C77 1_555 1_555
H59 C82 1_555 1_555
C83 C80 1_555 1_555
H60 C83 1_555 1_555
H61 C83 1_555 1_555
H62 C83 1_555 1_555
C84 C71 1_555 1_555
C85 C84 1_555 1_555
H63 C85 1_555 1_555
C86 C85 1_555 1_555
H64 C86 1_555 1_555
C87 C86 1_555 1_555
C88 C87 1_555 1_555
H65 C88 1_555 1_555
C89 C84 1_555 1_555
H66 C89 1_555 1_555
N7 C62 1_555 1_555
N8 C67 1_555 1_555
N9 C72 1_555 1_555
O3 C91 1_555 1_555
C90 C87 1_555 1_555
H67 C90 1_555 1_555
H68 C90 1_555 1_555
H69 C90 1_555 1_555
C91 H70 1_555 1_555
H71 C91 1_555 1_555
H72 C91 1_555 1_555
B3 N7 1_555 1_555
C92 C93 1_555 1_555
C93 C63 1_555 1_555
C94 C93 1_555 1_555
H73 C94 1_555 1_555
C95 C94 1_555 1_555
C96 C95 1_555 1_555
C97 C96 1_555 1_555
C98 C97 1_555 1_555
H74 C98 1_555 1_555
C99 C98 1_555 1_555
H75 C99 1_555 1_555
C100 C99 1_555 1_555
C101 C100 1_555 1_555
C102 C101 1_555 1_555
C103 C102 1_555 1_555
H76 C103 1_555 1_555
C104 C103 1_555 1_555
H77 C104 1_555 1_555
C105 C104 1_555 1_555
C106 C92 1_555 1_555
H78 C106 1_555 1_555
C107 C96 1_555 1_555
C108 C109 1_555 1_555
C109 H79 1_555 1_555
H80 C109 1_555 1_555
H81 C109 1_555 1_555
C110 C101 1_555 1_555
C111 C110 1_555 1_555
H82 C111 1_555 1_555
C112 C111 1_555 1_555
H83 C112 1_555 1_555
C113 C112 1_555 1_555
C114 C113 1_555 1_555
H84 C114 1_555 1_555
C115 C110 1_555 1_555
H85 C115 1_555 1_555
C116 C113 1_555 1_555
H86 C116 1_555 1_555
H87 C116 1_555 1_555
H88 C116 1_555 1_555
C117 H89 1_555 1_555
H90 C117 1_555 1_555
H91 C117 1_555 1_555
N10 C92 1_555 1_555
N11 C97 1_555 1_555
N12 C102 1_555 1_555
B4 N10 1_555 1_555
O4 C117 1_555 1_555
C118 C107 1_555 1_555
H92 C118 1_555 1_555
C119 C108 1_555 1_555
H93 C119 1_555 1_555
C120 C108 1_555 1_555
H94 C120 1_555 1_555
C121 C107 1_555 1_555
H95 C121 1_555 1_555
C126 C127 1_555 1_555
C127 C128 1_555 1_555
C128 H100 1_555 1_555
C129 C128 1_555 1_555
C130 C129 1_555 1_555
C131 C130 1_555 1_555
C132 C131 1_555 1_555
H101 C132 1_555 1_555
C133 C132 1_555 1_555
H102 C133 1_555 1_555
C134 C133 1_555 1_555
C135 C134 1_555 1_555
C136 C135 1_555 1_555
C137 C136 1_555 1_555
H103 C137 1_555 1_555
C138 C137 1_555 1_555
H104 C138 1_555 1_555
C139 C138 1_555 1_555
C140 C126 1_555 1_555
H105 C140 1_555 1_555
C141 C130 1_555 1_555
C142 C141 1_555 1_555
H106 C142 1_555 1_555
C143 C142 1_555 1_555
H107 C143 1_555 1_555
C144 C143 1_555 1_555
C145 C144 1_555 1_555
H108 C145 1_555 1_555
C146 C141 1_555 1_555
H109 C146 1_555 1_555
C147 C144 1_555 1_555
H110 C147 1_555 1_555
H111 C147 1_555 1_555
H112 C147 1_555 1_555
C148 C135 1_555 1_555
C149 C148 1_555 1_555
H113 C149 1_555 1_555
C150 C149 1_555 1_555
H114 C150 1_555 1_555
C151 C150 1_555 1_555
C152 C151 1_555 1_555
H115 C152 1_555 1_555
C153 C148 1_555 1_555
H116 C153 1_555 1_555
C154 C151 1_555 1_555
H117 C154 1_555 1_555
H118 C154 1_555 1_555
H119 C154 1_555 1_555
C155 H120 1_555 1_555
H121 C155 1_555 1_555
H122 C155 1_555 1_555
N13 C126 1_555 1_555
N14 C131 1_555 1_555
N15 C136 1_555 1_555
B5 N13 1_555 1_555
O5 C155 1_555 1_555
C156 C157 1_555 1_555
C157 C127 1_555 1_555
C158 C157 1_555 1_555
H123 C158 1_555 1_555
C159 C158 1_555 1_555
C160 C159 1_555 1_555
C161 C160 1_555 1_555
C162 C161 1_555 1_555
H124 C162 1_555 1_555
C163 C162 1_555 1_555
H125 C163 1_555 1_555
C164 C163 1_555 1_555
C165 C164 1_555 1_555
C166 C165 1_555 1_555
C167 C166 1_555 1_555
H126 C167 1_555 1_555
C168 C167 1_555 1_555
H127 C168 1_555 1_555
C169 C168 1_555 1_555
C170 C156 1_555 1_555
H128 C170 1_555 1_555
C171 C160 1_555 1_555
C172 C171 1_555 1_555
H129 C172 1_555 1_555
C173 C172 1_555 1_555
H130 C173 1_555 1_555
C174 C173 1_555 1_555
C175 C174 1_555 1_555
H131 C175 1_555 1_555
C176 C171 1_555 1_555
H132 C176 1_555 1_555
C177 C174 1_555 1_555
H133 C177 1_555 1_555
H134 C177 1_555 1_555
H135 C177 1_555 1_555
C178 C165 1_555 1_555
C179 C178 1_555 1_555
H136 C179 1_555 1_555
C180 C179 1_555 1_555
H137 C180 1_555 1_555
C181 C180 1_555 1_555
C182 C181 1_555 1_555
H138 C182 1_555 1_555
C183 C178 1_555 1_555
H139 C183 1_555 1_555
C184 C181 1_555 1_555
H140 C184 1_555 1_555
H141 C184 1_555 1_555
H142 C184 1_555 1_555
N16 C156 1_555 1_555
N17 C161 1_555 1_555
N18 C166 1_555 1_555
B6 N16 1_555 1_555
O6 B6 1_555 1_555
C185 O6 1_555 1_555
H143 C185 1_555 1_555
H144 C185 1_555 1_555
H145 C185 1_555 1_555
C186 C187 1_555 1_555
C187 C189 1_555 1_555
C188 C186 1_555 1_555
C189 C191 1_555 1_555
C190 C188 1_555 1_555
C191 C190 1_555 1_555
C192 C188 1_555 1_555
C194 C195 1_555 1_555
C195 C196 1_555 1_555
C196 C197 1_555 1_555
C197 C198 1_555 1_555
C198 C199 1_555 1_555
C199 C194 1_555 1_555
C200 C195 1_555 1_555
O9 C208 1_555 1_555
C4 N1 1_555 1_555
C9 N2 1_555 1_555
C14 C15 1_555 1_555
C14 N3 1_555 1_555
C20 C21 1_555 1_555
C27 C28 1_555 1_555
N2 B1 1_555 1_555
N3 B1 1_555 1_555
C33 N4 1_555 1_555
C38 N6 1_555 1_555
C43 C44 1_555 1_555
C43 N5 1_555 1_555
N5 B2 1_555 1_555
C49 C50 1_555 1_555
C56 C57 1_555 1_555
N6 B2 1_555 1_555
B2 O2 1_555 1_555
C65 N7 1_555 1_555
C70 N8 1_555 1_555
C75 C76 1_555 1_555
C75 N9 1_555 1_555
C81 C82 1_555 1_555
C88 C89 1_555 1_555
N8 B3 1_555 1_555
N9 B3 1_555 1_555
O3 B3 1_555 1_555
C95 N10 1_555 1_555
C100 N11 1_555 1_555
C105 C106 1_555 1_555
C105 N12 1_555 1_555
C114 C115 1_555 1_555
N11 B4 1_555 1_555
N12 B4 1_555 1_555
B4 O4 1_555 1_555
C118 C119 1_555 1_555
C120 C121 1_555 1_555
C129 N13 1_555 1_555
C134 N14 1_555 1_555
C139 C140 1_555 1_555
C139 N15 1_555 1_555
C145 C146 1_555 1_555
C152 C153 1_555 1_555
N14 B5 1_555 1_555
N15 B5 1_555 1_555
B5 O5 1_555 1_555
C159 N16 1_555 1_555
C164 N17 1_555 1_555
C169 C170 1_555 1_555
C169 N18 1_555 1_555
C175 C176 1_555 1_555
C182 C183 1_555 1_555
N17 B6 1_555 1_555
N18 B6 1_555 1_555

#END
