
#######################################################################
#
#                 Cambridge Crystallographic Data Centre
#                                CCDC 
#
#######################################################################
#
# If this CIF has been generated from an entry in the Cambridge 
# Structural Database, then it will include bibliographic, chemical, 
# crystal, experimental, refinement or atomic coordinate data resulting 
# from the CCDC's data processing and validation procedures.
#
#######################################################################

data_OVEBOI
_chemical_formula_moiety         'C39 H26 N2'
_chemical_name_systematic        
3,3-diphenyl-2-(4-(9-phenyl-9H-carbazol-3-yl)phenyl)acrylonitrile
_symmetry_cell_setting           triclinic
_symmetry_space_group_name_H-M   'P -1'
_symmetry_Int_Tables_number      2
_space_group_name_Hall           '-P 1'
loop_
_symmetry_equiv_pos_site_id
_symmetry_equiv_pos_as_xyz
1 x,y,z
2 -x,-y,-z
_cell_length_a                   9.818(3)
_cell_length_b                   12.379(12)
_cell_length_c                   13.079(13)
_cell_angle_alpha                75.379(17)
_cell_angle_beta                 69.174(16)
_cell_angle_gamma                86.614(17)
_cell_volume                     1436.79
_exptl_crystal_colour            yellow
_exptl_crystal_description       block
_cell_formula_units_Z            2
loop_
_atom_site_label
_atom_site_type_symbol
_atom_site_fract_x
_atom_site_fract_y
_atom_site_fract_z
N1 N -0.2376(2) 0.45878(15) 0.20168(14)
N2 N 0.6783(2) 0.13941(18) 0.50213(16)
C1 C 0.8626(2) -0.02583(17) 0.29569(14)
C2 C 0.8871(3) -0.13787(18) 0.29412(16)
H1 H 0.8266 -0.1763 0.2735
C3 C 1.0006(3) -0.1923(2) 0.32301(18)
H2 H 1.0133 -0.2676 0.3243
C4 C 1.0945(3) -0.1359(2) 0.34988(18)
H3 H 1.1713 -0.1726 0.3683
C5 C 1.0742(3) -0.0252(2) 0.34933(19)
H4 H 1.1379 0.0133 0.3669
C6 C 0.9592(3) 0.02972(19) 0.32273(17)
H5 H 0.9466 0.1047 0.3230
C7 C 0.7337(2) 0.02773(16) 0.26982(14)
C8 C 0.6998(2) -0.00808(17) 0.17962(16)
C9 C 0.8026(3) 0.0126(2) 0.07020(17)
H6 H 0.8896 0.0511 0.0529
C10 C 0.7755(4) -0.0239(3) -0.0122(2)
H7 H 0.8432 -0.0087 -0.0854
C11 C 0.6483(4) -0.0825(3) 0.0143(3)
H8 H 0.6309 -0.1079 -0.0413
C12 C 0.5457(4) -0.1045(2) 0.1218(2)
H9 H 0.4601 -0.1447 0.1387
C13 C 0.5712(3) -0.06615(19) 0.20486(19)
H10 H 0.5018 -0.0796 0.2773
C14 C 0.6470(2) 0.09830(16) 0.32743(14)
C15 C 0.6701(3) 0.11982(17) 0.42380(17)
C16 C 0.5172(2) 0.15450(16) 0.30658(15)
C17 C 0.5156(2) 0.20320(16) 0.19806(15)
H11 H 0.5981 0.2012 0.1353
C18 C 0.3924(2) 0.25417(16) 0.18332(15)
H12 H 0.3943 0.2866 0.1104
C19 C 0.2649(2) 0.25847(16) 0.27479(15)
C20 C 0.2687(3) 0.21034(18) 0.38312(16)
H13 H 0.1862 0.2116 0.4461
C21 C 0.3921(3) 0.16144(17) 0.39794(15)
H14 H 0.3919 0.1323 0.4708
C22 C 0.1314(2) 0.31162(17) 0.25909(16)
C23 C 0.0943(2) 0.30828(17) 0.16608(16)
H15 H 0.1540 0.2724 0.1126
C24 C -0.0313(2) 0.35824(17) 0.15295(15)
C25 C -0.1199(2) 0.41395(17) 0.23329(16)
C26 C -0.0863(3) 0.41661(19) 0.32783(17)
H16 H -0.1461 0.4519 0.3818
C27 C 0.0383(3) 0.36534(19) 0.33877(17)
H17 H 0.0614 0.3665 0.4016
C28 C -0.0993(2) 0.36810(17) 0.06923(15)
C29 C -0.0655(3) 0.3305(2) -0.02860(17)
H18 H 0.0162 0.2881 -0.0510
C30 C -0.1553(3) 0.3573(2) -0.09177(19)
H19 H -0.1345 0.3312 -0.1563
C31 C -0.2756(3) 0.4223(2) -0.06062(18)
H20 H -0.3327 0.4405 -0.1057
C32 C -0.3123(3) 0.46028(19) 0.03515(17)
H21 H -0.3929 0.5042 0.0557
C33 C -0.2243(2) 0.43069(17) 0.10086(16)
C34 C -0.3563(3) 0.51342(18) 0.26626(16)
C35 C -0.3292(3) 0.6032(2) 0.30253(19)
H22 H -0.2341 0.6292 0.2829
C36 C -0.4441(3) 0.6538(2) 0.3678(2)
H23 H -0.4256 0.7125 0.3941
C37 C -0.5861(3) 0.6188(2) 0.3949(2)
H24 H -0.6630 0.6547 0.4376
C38 C -0.6124(3) 0.5308(2) 0.3584(2)
H25 H -0.7078 0.5065 0.3761
C39 C -0.4972(3) 0.4773(2) 0.29476(19)
H26 H -0.5160 0.4166 0.2714
loop_
_geom_bond_atom_site_label_1
_geom_bond_atom_site_label_2
_geom_bond_site_symmetry_1
_geom_bond_site_symmetry_2
N1 C25 1_555 1_555
N2 C15 1_555 1_555
C1 C2 1_555 1_555
C2 H1 1_555 1_555
C3 C2 1_555 1_555
H2 C3 1_555 1_555
C4 C3 1_555 1_555
H3 C4 1_555 1_555
C5 C4 1_555 1_555
H4 C5 1_555 1_555
C6 C1 1_555 1_555
H5 C6 1_555 1_555
C7 C1 1_555 1_555
C8 C7 1_555 1_555
C9 C8 1_555 1_555
H6 C9 1_555 1_555
C10 C9 1_555 1_555
H7 C10 1_555 1_555
C11 C10 1_555 1_555
H8 C11 1_555 1_555
C12 C11 1_555 1_555
H9 C12 1_555 1_555
C13 C8 1_555 1_555
H10 C13 1_555 1_555
C14 C7 1_555 1_555
C15 C14 1_555 1_555
C16 C14 1_555 1_555
C17 C16 1_555 1_555
H11 C17 1_555 1_555
C18 C17 1_555 1_555
H12 C18 1_555 1_555
C19 C18 1_555 1_555
C20 C19 1_555 1_555
H13 C20 1_555 1_555
C21 C16 1_555 1_555
H14 C21 1_555 1_555
C22 C19 1_555 1_555
C23 C22 1_555 1_555
H15 C23 1_555 1_555
C24 C23 1_555 1_555
C25 C24 1_555 1_555
C26 C25 1_555 1_555
H16 C26 1_555 1_555
C27 C22 1_555 1_555
H17 C27 1_555 1_555
C28 C24 1_555 1_555
C29 C28 1_555 1_555
H18 C29 1_555 1_555
C30 C29 1_555 1_555
H19 C30 1_555 1_555
C31 C30 1_555 1_555
H20 C31 1_555 1_555
C32 C31 1_555 1_555
H21 C32 1_555 1_555
C33 N1 1_555 1_555
C34 N1 1_555 1_555
C35 C34 1_555 1_555
H22 C35 1_555 1_555
C36 C35 1_555 1_555
H23 C36 1_555 1_555
C37 C36 1_555 1_555
H24 C37 1_555 1_555
C38 C37 1_555 1_555
H25 C38 1_555 1_555
C39 C34 1_555 1_555
H26 C39 1_555 1_555
C5 C6 1_555 1_555
C12 C13 1_555 1_555
C20 C21 1_555 1_555
C26 C27 1_555 1_555
C28 C33 1_555 1_555
C32 C33 1_555 1_555
C38 C39 1_555 1_555

#END
