
#######################################################################
#
#                 Cambridge Crystallographic Data Centre
#                                CCDC 
#
#######################################################################
#
# If this CIF has been generated from an entry in the Cambridge 
# Structural Database, then it will include bibliographic, chemical, 
# crystal, experimental, refinement or atomic coordinate data resulting 
# from the CCDC's data processing and validation procedures.
#
#######################################################################

data_OVEBIC
_chemical_formula_moiety         'C39 H26 N2,H2 O1'
_chemical_name_systematic        
'3,3-diphenyl-2-(4-(9-phenyl-9H-carbazol-2-yl)phenyl)acrylonitrile monohydrate'
_symmetry_cell_setting           monoclinic
_symmetry_space_group_name_H-M   'P 21/c'
_symmetry_Int_Tables_number      14
_space_group_name_Hall           '-P 2ybc'
loop_
_symmetry_equiv_pos_site_id
_symmetry_equiv_pos_as_xyz
1 x,y,z
2 -x,1/2+y,1/2-z
3 -x,-y,-z
4 x,1/2-y,1/2+z
_cell_length_a                   13.372(6)
_cell_length_b                   26.372(10)
_cell_length_c                   8.762(4)
_cell_angle_alpha                90
_cell_angle_beta                 98.873(9)
_cell_angle_gamma                90
_cell_volume                     3052.91
_exptl_crystal_colour            green
_exptl_crystal_description       rod
_cell_formula_units_Z            4
loop_
_atom_site_label
_atom_site_type_symbol
_atom_site_fract_x
_atom_site_fract_y
_atom_site_fract_z
C1 C 1.3222(3) 0.15172(15) 0.0339(5)
C2 C 1.3105(3) 0.10762(17) 0.1122(5)
H1 H 1.2534 0.0875 0.0850
C3 C 1.3849(4) 0.0936(2) 0.2321(6)
H2 H 1.3774 0.0640 0.2870
C4 C 1.4697(4) 0.1229(3) 0.2709(6)
H3 H 1.5198 0.1129 0.3510
C5 C 1.4803(4) 0.1659(2) 0.1935(6)
H4 H 1.5377 0.1857 0.2210
C6 C 1.4085(3) 0.18087(17) 0.0756(6)
H5 H 1.4171 0.2107 0.0226
C7 C 1.2663(3) 0.17794(14) -0.2396(5)
C8 C 1.3553(3) 0.17549(16) -0.3001(5)
H6 H 1.4160 0.1666 -0.2390
C9 C 1.3512(4) 0.18666(17) -0.4527(6)
H7 H 1.4105 0.1856 -0.4957
C10 C 1.2617(4) 0.19956(17) -0.5458(6)
H8 H 1.2615 0.2069 -0.6496
C11 C 1.1740(4) 0.20154(15) -0.4853(5)
H9 H 1.1137 0.2102 -0.5475
C12 C 1.1750(3) 0.19060(14) -0.3309(5)
C13 C 1.0980(3) 0.18761(14) -0.2326(5)
C14 C 1.1459(3) 0.17323(14) -0.0856(5)
C15 C 1.0940(3) 0.16733(14) 0.0374(5)
H10 H 1.1275 0.1576 0.1338
C16 C 0.9904(3) 0.17630(14) 0.0139(5)
C17 C 0.9426(3) 0.19184(15) -0.1326(5)
H11 H 0.8734 0.1982 -0.1480
C18 C 0.9956(3) 0.19780(15) -0.2534(5)
H12 H 0.9626 0.2087 -0.3491
C19 C 0.9300(3) 0.16747(15) 0.1391(5)
C20 C 0.9582(3) 0.13150(16) 0.2528(5)
H13 H 1.0181 0.1137 0.2527
C21 C 0.9001(3) 0.12134(16) 0.3660(5)
H14 H 0.9211 0.0967 0.4399
C22 C 0.8104(3) 0.14749(14) 0.3710(5)
C23 C 0.7843(3) 0.18417(15) 0.2609(5)
H15 H 0.7255 0.2028 0.2633
C24 C 0.8419(3) 0.19456(15) 0.1467(5)
H16 H 0.8215 0.2198 0.0745
C25 C 0.7443(3) 0.13501(15) 0.4864(5)
C26 C 0.6990(3) 0.17911(18) 0.5451(6)
C27 C 0.7170(3) 0.08873(15) 0.5286(5)
C28 C 0.6575(3) 0.08216(15) 0.6559(5)
C29 C 0.5749(3) 0.05067(16) 0.6379(6)
H17 H 0.5579 0.0325 0.5466
C30 C 0.5170(4) 0.04575(19) 0.7537(7)
H18 H 0.4605 0.0247 0.7393
C31 C 0.5417(4) 0.0714(2) 0.8895(7)
H19 H 0.5030 0.0675 0.9683
C32 C 0.6233(4) 0.1026(2) 0.9083(6)
H20 H 0.6397 0.1210 0.9993
C33 C 0.6817(3) 0.10705(18) 0.7936(5)
H21 H 0.7390 0.1275 0.8097
C34 C 0.7386(3) 0.04202(16) 0.4451(5)
C35 C 0.7652(3) -0.00202(18) 0.5225(6)
H22 H 0.7724 -0.0023 0.6298
C36 C 0.7816(4) -0.04602(19) 0.4453(8)
H23 H 0.8007 -0.0757 0.4996
C37 C 0.7696(4) -0.0454(2) 0.2883(9)
H24 H 0.7815 -0.0748 0.2351
C38 C 0.7405(4) -0.0023(2) 0.2083(7)
H25 H 0.7315 -0.0024 0.1009
C39 C 0.7242(3) 0.04130(16) 0.2861(6)
H26 H 0.7033 0.0706 0.2311
N1 N 1.2486(2) 0.16707(12) -0.0906(4)
N2 N 0.6621(3) 0.21479(16) 0.5830(5)
O1 O 0.9666(6) 0.0530(3) 0.8166(12)
O2 O 0.0558(8) 0.0112(5) 0.0519(14)
loop_
_geom_bond_atom_site_label_1
_geom_bond_atom_site_label_2
_geom_bond_site_symmetry_1
_geom_bond_site_symmetry_2
C1 C2 1_555 1_555
C2 H1 1_555 1_555
C3 C2 1_555 1_555
H2 C3 1_555 1_555
C4 C3 1_555 1_555
H3 C4 1_555 1_555
C5 C4 1_555 1_555
H4 C5 1_555 1_555
C6 C1 1_555 1_555
H5 C6 1_555 1_555
C7 C8 1_555 1_555
C8 H6 1_555 1_555
C9 C8 1_555 1_555
H7 C9 1_555 1_555
C10 C9 1_555 1_555
H8 C10 1_555 1_555
C11 C10 1_555 1_555
H9 C11 1_555 1_555
C12 C7 1_555 1_555
C13 C12 1_555 1_555
C14 C13 1_555 1_555
C15 C14 1_555 1_555
H10 C15 1_555 1_555
C16 C15 1_555 1_555
C17 C16 1_555 1_555
H11 C17 1_555 1_555
C18 C13 1_555 1_555
H12 C18 1_555 1_555
C19 C16 1_555 1_555
C20 C19 1_555 1_555
H13 C20 1_555 1_555
C21 C20 1_555 1_555
H14 C21 1_555 1_555
C22 C21 1_555 1_555
C23 C22 1_555 1_555
H15 C23 1_555 1_555
C24 C19 1_555 1_555
H16 C24 1_555 1_555
C25 C22 1_555 1_555
C26 C25 1_555 1_555
C27 C25 1_555 1_555
C28 C27 1_555 1_555
C29 C28 1_555 1_555
H17 C29 1_555 1_555
C30 C29 1_555 1_555
H18 C30 1_555 1_555
C31 C30 1_555 1_555
H19 C31 1_555 1_555
C32 C31 1_555 1_555
H20 C32 1_555 1_555
C33 C28 1_555 1_555
H21 C33 1_555 1_555
C34 C27 1_555 1_555
C35 C34 1_555 1_555
H22 C35 1_555 1_555
C36 C35 1_555 1_555
H23 C36 1_555 1_555
C37 C36 1_555 1_555
H24 C37 1_555 1_555
C38 C37 1_555 1_555
H25 C38 1_555 1_555
C39 C34 1_555 1_555
H26 C39 1_555 1_555
N1 C1 1_555 1_555
N2 C26 1_555 1_555
C5 C6 1_555 1_555
C7 N1 1_555 1_555
C11 C12 1_555 1_555
C14 N1 1_555 1_555
C17 C18 1_555 1_555
C23 C24 1_555 1_555
C32 C33 1_555 1_555
C38 C39 1_555 1_555

#END
