
#######################################################################
#
#                 Cambridge Crystallographic Data Centre
#                                CCDC 
#
#######################################################################
#
# If this CIF has been generated from an entry in the Cambridge 
# Structural Database, then it will include bibliographic, chemical, 
# crystal, experimental, refinement or atomic coordinate data resulting 
# from the CCDC's data processing and validation procedures.
#
#######################################################################

data_OVEMIN
_chemical_formula_moiety         'C28 H21 Br1 O3'
_chemical_name_systematic        
'ethyl 5-(4-bromobenzoyl)-7-methyl-11H-benzo[b]fluorene-10-carboxylate'
_symmetry_cell_setting           triclinic
_symmetry_space_group_name_H-M   'P -1'
_symmetry_Int_Tables_number      2
_space_group_name_Hall           '-P 1'
loop_
_symmetry_equiv_pos_site_id
_symmetry_equiv_pos_as_xyz
1 x,y,z
2 -x,-y,-z
_cell_length_a                   7.3360(7)
_cell_length_b                   11.8041(9)
_cell_length_c                   13.6969(11)
_cell_angle_alpha                104.265(2)
_cell_angle_beta                 98.8810(10)
_cell_angle_gamma                96.2250(10)
_cell_volume                     1122.36
_exptl_crystal_colour            yellow
_exptl_crystal_description       block
_cell_formula_units_Z            2
loop_
_atom_site_label
_atom_site_type_symbol
_atom_site_fract_x
_atom_site_fract_y
_atom_site_fract_z
Br1 Br 0.87218(7) 0.61180(4) 0.92000(4)
O1 O 0.2014(4) -0.3317(2) 0.5270(2)
O2 O 0.3751(5) -0.3413(3) 0.6700(3)
O3 O 0.0442(4) 0.2307(2) 0.7804(2)
C1 C 0.2807(6) -0.2873(4) 0.6223(4)
C2 C 0.2546(5) -0.1606(3) 0.6637(3)
C3 C 0.2482(4) -0.0884(3) 0.5998(3)
C4 C 0.2393(4) 0.0360(3) 0.6379(3)
C5 C 0.2321(4) 0.0815(3) 0.7397(3)
C6 C 0.2380(4) 0.0079(3) 0.8079(3)
C7 C 0.2474(5) -0.1155(3) 0.7700(3)
C8 C 0.2484(5) -0.1844(4) 0.8414(4)
H1 H 0.2484 -0.2654 0.8183
C9 C 0.2495(5) -0.1351(4) 0.9441(4)
H2 H 0.2513 -0.1835 0.9884
C10 C 0.2478(5) -0.0140(5) 0.9829(3)
C11 C 0.2399(5) 0.0554(4) 0.9162(3)
H3 H 0.2355 0.1356 0.9412
C12 C 0.2546(6) 0.0367(4) 1.0945(3)
H4 H 0.2404 0.1186 1.1074
H5 H 0.3725 0.0295 1.1323
H6 H 0.1554 -0.0055 1.1159
C13 C 0.2562(5) -0.1130(3) 0.4874(2)
H7 H 0.3698 -0.1437 0.4737
H8 H 0.1497 -0.1697 0.4462
C14 C 0.2528(5) 0.0031(3) 0.4651(3)
C15 C 0.2421(4) 0.0923(3) 0.5549(2)
C16 C 0.2391(5) 0.2064(3) 0.5494(3)
H9 H 0.2326 0.2658 0.6071
C17 C 0.2460(5) 0.2325(3) 0.4548(3)
H10 H 0.2449 0.3100 0.4511
C18 C 0.2542(5) 0.1478(4) 0.3694(3)
H11 H 0.2575 0.1672 0.3078
C19 C 0.2576(5) 0.0300(3) 0.3742(3)
H12 H 0.2630 -0.0288 0.3158
C20 C 0.2027(5) 0.2089(3) 0.7789(2)
C21 C 0.3674(5) 0.3043(3) 0.8148(2)
C22 C 0.5480(5) 0.2807(3) 0.8218(2)
H13 H 0.5686 0.2025 0.8042
C23 C 0.7000(5) 0.3706(3) 0.8543(3)
H14 H 0.8212 0.3532 0.8597
C24 C 0.6676(6) 0.4861(3) 0.8785(3)
C25 C 0.4880(6) 0.5129(3) 0.8721(3)
H15 H 0.4681 0.5913 0.8887
C26 C 0.3397(5) 0.4229(3) 0.8411(3)
H16 H 0.2188 0.4408 0.8374
C27 C 0.2425(7) -0.4464(4) 0.4749(4)
H17 H 0.3764 -0.4461 0.4857
H18 H 0.1864 -0.5073 0.5022
C28 C 0.1689(11) -0.4702(4) 0.3683(4)
H19 H 0.0350 -0.4822 0.3573
H20 H 0.2104 -0.5400 0.3317
H21 H 0.2116 -0.4044 0.3439
loop_
_geom_bond_atom_site_label_1
_geom_bond_atom_site_label_2
_geom_bond_site_symmetry_1
_geom_bond_site_symmetry_2
Br1 C24 1_555 1_555
O1 C1 1_555 1_555
O2 C1 1_555 1_555
O3 C20 1_555 1_555
C1 C2 1_555 1_555
C2 C3 1_555 1_555
C3 C4 1_555 1_555
C4 C5 1_555 1_555
C5 C6 1_555 1_555
C6 C7 1_555 1_555
C7 C2 1_555 1_555
C8 C7 1_555 1_555
H1 C8 1_555 1_555
C9 C8 1_555 1_555
H2 C9 1_555 1_555
C10 C9 1_555 1_555
C11 C6 1_555 1_555
H3 C11 1_555 1_555
C12 C10 1_555 1_555
H4 C12 1_555 1_555
H5 C12 1_555 1_555
H6 C12 1_555 1_555
C13 C3 1_555 1_555
H7 C13 1_555 1_555
H8 C13 1_555 1_555
C14 C13 1_555 1_555
C15 C4 1_555 1_555
C16 C15 1_555 1_555
H9 C16 1_555 1_555
C17 C16 1_555 1_555
H10 C17 1_555 1_555
C18 C17 1_555 1_555
H11 C18 1_555 1_555
C19 C14 1_555 1_555
H12 C19 1_555 1_555
C20 C5 1_555 1_555
C21 C20 1_555 1_555
C22 C21 1_555 1_555
H13 C22 1_555 1_555
C23 C22 1_555 1_555
H14 C23 1_555 1_555
C24 C23 1_555 1_555
C25 C24 1_555 1_555
H15 C25 1_555 1_555
C26 C21 1_555 1_555
H16 C26 1_555 1_555
C27 O1 1_555 1_555
H17 C27 1_555 1_555
H18 C27 1_555 1_555
C28 C27 1_555 1_555
H19 C28 1_555 1_555
H20 C28 1_555 1_555
H21 C28 1_555 1_555
C10 C11 1_555 1_555
C14 C15 1_555 1_555
C18 C19 1_555 1_555
C25 C26 1_555 1_555

#END
