
#######################################################################
#
#                 Cambridge Crystallographic Data Centre
#                                CCDC 
#
#######################################################################
#
# If this CIF has been generated from an entry in the Cambridge 
# Structural Database, then it will include bibliographic, chemical, 
# crystal, experimental, refinement or atomic coordinate data resulting 
# from the CCDC's data processing and validation procedures.
#
#######################################################################

data_OVENAG
_chemical_formula_moiety         'C18 H16 Br1 N3 O2'
_chemical_name_systematic        
(4-bromophenyl)(5-(4-methoxyphenyl)-3-oxopyrazolidin-1-yl)acetonitrile
_symmetry_cell_setting           monoclinic
_symmetry_space_group_name_H-M   'P 21/c'
_symmetry_Int_Tables_number      14
_space_group_name_Hall           '-P 2ybc'
loop_
_symmetry_equiv_pos_site_id
_symmetry_equiv_pos_as_xyz
1 x,y,z
2 -x,1/2+y,1/2-z
3 -x,-y,-z
4 x,1/2-y,1/2+z
_cell_length_a                   10.000(7)
_cell_length_b                   14.735(10)
_cell_length_c                   11.517(8)
_cell_angle_alpha                90
_cell_angle_beta                 95.070(18)
_cell_angle_gamma                90
_cell_volume                     1690.39
_exptl_crystal_colour            colorless
_exptl_crystal_description       prismatic
_cell_formula_units_Z            4
loop_
_atom_site_label
_atom_site_type_symbol
_atom_site_fract_x
_atom_site_fract_y
_atom_site_fract_z
Br1 Br 0.17834(6) 0.09043(3) 0.87755(5)
N1 N 0.3871(4) 0.5330(3) 0.8672(3)
N2 N 0.3231(3) 0.5277(2) 0.7503(2)
N3 N 0.0484(5) 0.6002(3) 0.8846(4)
O1 O 0.5616(3) 0.6076(2) 0.9607(3)
O2 O 0.2252(4) 0.6513(2) 0.2232(2)
C1 C 0.4800(5) 0.5975(3) 0.8781(4)
C2 C 0.4660(5) 0.6533(3) 0.7685(3)
H1 H 0.4675 0.7176 0.7862
H2 H 0.5372 0.6397 0.7192
C3 C 0.3319(4) 0.6249(3) 0.7116(3)
H3 H 0.2620 0.6599 0.7458
C4 C 0.3098(4) 0.6320(3) 0.5803(3)
C5 C 0.4032(5) 0.6031(3) 0.5077(3)
H4 H 0.4845 0.5796 0.5400
C6 C 0.3790(5) 0.6083(3) 0.3869(4)
H5 H 0.4433 0.5887 0.3390
C7 C 0.2604(5) 0.6424(3) 0.3402(3)
C8 C 0.1676(5) 0.6729(3) 0.4113(4)
H6 H 0.0873 0.6977 0.3789
C9 C 0.1921(5) 0.6672(3) 0.5309(3)
H7 H 0.1277 0.6876 0.5783
C10 C 0.3071(7) 0.6110(4) 0.1441(4)
H8 H 0.3974 0.6327 0.1593
H9 H 0.2739 0.6266 0.0659
H10 H 0.3057 0.5462 0.1532
C11 C 0.1857(4) 0.4965(3) 0.7529(3)
H11 H 0.1433 0.5019 0.6731
C12 C 0.1053(5) 0.5534(3) 0.8276(4)
C13 C 0.1793(4) 0.3968(3) 0.7856(3)
C14 C 0.1334(5) 0.3675(3) 0.8878(3)
H12 H 0.1026 0.4099 0.9390
C15 C 0.1318(5) 0.2775(3) 0.9162(4)
H13 H 0.1016 0.2586 0.9864
C16 C 0.1754(4) 0.2160(3) 0.8394(4)
C17 C 0.2194(5) 0.2423(3) 0.7336(4)
H14 H 0.2462 0.1994 0.6812
C18 C 0.2222(5) 0.3334(3) 0.7083(3)
H15 H 0.2532 0.3526 0.6386
H16 H 0.395(4) 0.4842(16) 0.901(3)
loop_
_geom_bond_atom_site_label_1
_geom_bond_atom_site_label_2
_geom_bond_site_symmetry_1
_geom_bond_site_symmetry_2
Br1 C16 1_555 1_555
N1 N2 1_555 1_555
N2 C3 1_555 1_555
N3 C12 1_555 1_555
O1 C1 1_555 1_555
O2 C7 1_555 1_555
C1 N1 1_555 1_555
C2 C1 1_555 1_555
H1 C2 1_555 1_555
H2 C2 1_555 1_555
C3 C2 1_555 1_555
H3 C3 1_555 1_555
C4 C3 1_555 1_555
C5 C4 1_555 1_555
H4 C5 1_555 1_555
C6 C5 1_555 1_555
H5 C6 1_555 1_555
C7 C6 1_555 1_555
C8 C7 1_555 1_555
H6 C8 1_555 1_555
C9 C4 1_555 1_555
H7 C9 1_555 1_555
C10 O2 1_555 1_555
H8 C10 1_555 1_555
H9 C10 1_555 1_555
H10 C10 1_555 1_555
C11 N2 1_555 1_555
H11 C11 1_555 1_555
C12 C11 1_555 1_555
C13 C11 1_555 1_555
C14 C13 1_555 1_555
H12 C14 1_555 1_555
C15 C14 1_555 1_555
H13 C15 1_555 1_555
C16 C15 1_555 1_555
C17 C16 1_555 1_555
H14 C17 1_555 1_555
C18 C13 1_555 1_555
H15 C18 1_555 1_555
H16 N1 1_555 1_555
C8 C9 1_555 1_555
C17 C18 1_555 1_555

#END
