
#######################################################################
#
#                 Cambridge Crystallographic Data Centre
#                                CCDC 
#
#######################################################################
#
# If this CIF has been generated from an entry in the Cambridge 
# Structural Database, then it will include bibliographic, chemical, 
# crystal, experimental, refinement or atomic coordinate data resulting 
# from the CCDC's data processing and validation procedures.
#
#######################################################################

data_OVEPOW
_chemical_formula_moiety         'C36 H40'
_chemical_name_systematic        2,7,10,15-tetraisopropyltetraphenylene
_symmetry_cell_setting           triclinic
_symmetry_space_group_name_H-M   'P -1'
_symmetry_Int_Tables_number      2
_space_group_name_Hall           '-P 1'
loop_
_symmetry_equiv_pos_site_id
_symmetry_equiv_pos_as_xyz
1 x,y,z
2 -x,-y,-z
_cell_length_a                   10.393(6)
_cell_length_b                   11.819(7)
_cell_length_c                   12.559(7)
_cell_angle_alpha                103.387(9)
_cell_angle_beta                 102.202(9)
_cell_angle_gamma                90.623(8)
_cell_volume                     1463.96
_exptl_crystal_colour            colorless
_exptl_crystal_description       block
_cell_formula_units_Z            2
loop_
_atom_site_label
_atom_site_type_symbol
_atom_site_fract_x
_atom_site_fract_y
_atom_site_fract_z
C1 C 0.3728(5) 0.1899(4) 0.7159(4)
H1 H 0.3225 0.2037 0.7701
C2 C 0.4759(6) 0.1216(5) 0.7292(5)
C3 C 0.5496(5) 0.1044(4) 0.6485(5)
H2 H 0.6213 0.0581 0.6555
C4 C 0.5201(5) 0.1542(4) 0.5565(4)
H3 H 0.5726 0.1417 0.5039
C5 C 0.4119(4) 0.2229(3) 0.5430(3)
C6 C 0.3387(4) 0.2405(3) 0.6248(3)
C7 C 0.2289(4) 0.3194(3) 0.6245(3)
C8 C 0.2425(5) 0.4160(4) 0.7156(3)
H4 H 0.3210 0.4288 0.7697
C9 C 0.1478(6) 0.4912(4) 0.7288(4)
C10 C 0.0292(6) 0.4702(4) 0.6496(4)
H5 H -0.0382 0.5204 0.6579
C11 C 0.0101(5) 0.3728(4) 0.5563(4)
H6 H -0.0694 0.3590 0.5035
C12 C 0.1122(4) 0.2971(3) 0.5441(3)
C13 C 0.0872(4) 0.1942(3) 0.4466(3)
C14 C -0.0197(4) 0.1165(4) 0.4341(4)
H7 H -0.0710 0.1282 0.4877
C15 C -0.0505(5) 0.0204(4) 0.3408(4)
H8 H -0.1221 -0.0309 0.3334
C16 C 0.0233(5) 0.0013(4) 0.2606(4)
C17 C 0.1261(5) 0.0786(4) 0.2732(3)
H9 H 0.1753 0.0671 0.2182
C18 C 0.1619(4) 0.1749(3) 0.3650(3)
C19 C 0.2700(4) 0.2562(3) 0.3648(3)
C20 C 0.2564(5) 0.3075(4) 0.2726(3)
H10 H 0.1781 0.2917 0.2183
C21 C 0.3507(6) 0.3779(4) 0.2594(4)
C22 C 0.4675(6) 0.3993(4) 0.3405(5)
H11 H 0.5351 0.4472 0.3333
C23 C 0.4844(5) 0.3503(4) 0.4320(4)
H12 H 0.5635 0.3658 0.4853
C24 C 0.3861(4) 0.2785(3) 0.4461(3)
C25 C 0.5095(7) 0.0645(6) 0.8268(5)
H13 H 0.4362 0.0898 0.8626
C26 C 0.4772(7) -0.0590(5) 0.7963(5)
H14 H 0.5331 -0.0970 0.7488
H15 H 0.3867 -0.0743 0.7569
H16 H 0.4904 -0.0881 0.8629
C27 C 0.6121(7) 0.1190(6) 0.9121(5)
H17 H 0.6228 0.0799 0.9721
H18 H 0.5936 0.1986 0.9392
H19 H 0.6918 0.1168 0.8847
C28 C 0.1669(7) 0.5974(5) 0.8274(5)
H20 H 0.2577 0.5914 0.8668
C29 C 0.0962(7) 0.5879(6) 0.9075(4)
H21 H 0.1155 0.6563 0.9683
H22 H 0.1208 0.5204 0.9354
H23 H 0.0035 0.5805 0.8742
C30 C 0.1785(6) 0.7064(5) 0.7902(4)
H24 H 0.1004 0.7125 0.7357
H25 H 0.2539 0.7054 0.7571
H26 H 0.1889 0.7719 0.8535
C31 C 0.3327(7) 0.4339(5) 0.1599(5)
H27 H 0.2401 0.4104 0.1238
C32 C 0.3269(6) 0.5618(5) 0.1957(5)
H28 H 0.4091 0.5949 0.2447
H29 H 0.2567 0.5793 0.2346
H30 H 0.3110 0.5940 0.1309
C33 C 0.3946(7) 0.3814(6) 0.0755(5)
H31 H 0.3737 0.4193 0.0147
H32 H 0.3648 0.3006 0.0491
H33 H 0.4883 0.3879 0.1042
C34 C -0.0103(7) -0.1039(5) 0.1615(5)
H34 H 0.0643 -0.0969 0.1264
C35 C 0.0184(6) -0.2143(5) 0.1968(5)
H35 H -0.0334 -0.2226 0.2497
H36 H 0.1104 -0.2126 0.2311
H37 H -0.0033 -0.2789 0.1324
C36 C -0.1119(8) -0.0926(6) 0.0766(5)
H38 H -0.1263 -0.1631 0.0183
H39 H -0.0905 -0.0287 0.0469
H40 H -0.1905 -0.0780 0.1050
loop_
_geom_bond_atom_site_label_1
_geom_bond_atom_site_label_2
_geom_bond_site_symmetry_1
_geom_bond_site_symmetry_2
C1 H1 1_555 1_555
C2 C1 1_555 1_555
C3 C2 1_555 1_555
H2 C3 1_555 1_555
C4 C3 1_555 1_555
H3 C4 1_555 1_555
C5 C4 1_555 1_555
C6 C1 1_555 1_555
C7 C6 1_555 1_555
C8 C7 1_555 1_555
H4 C8 1_555 1_555
C9 C8 1_555 1_555
C10 C9 1_555 1_555
H5 C10 1_555 1_555
C11 C10 1_555 1_555
H6 C11 1_555 1_555
C12 C7 1_555 1_555
C13 C12 1_555 1_555
C14 C13 1_555 1_555
H7 C14 1_555 1_555
C15 C14 1_555 1_555
H8 C15 1_555 1_555
C16 C15 1_555 1_555
C17 C16 1_555 1_555
H9 C17 1_555 1_555
C18 C13 1_555 1_555
C19 C18 1_555 1_555
C20 C19 1_555 1_555
H10 C20 1_555 1_555
C21 C20 1_555 1_555
C22 C21 1_555 1_555
H11 C22 1_555 1_555
C23 C22 1_555 1_555
H12 C23 1_555 1_555
C24 C5 1_555 1_555
C25 C2 1_555 1_555
H13 C25 1_555 1_555
C26 C25 1_555 1_555
H14 C26 1_555 1_555
H15 C26 1_555 1_555
H16 C26 1_555 1_555
C27 C25 1_555 1_555
H17 C27 1_555 1_555
H18 C27 1_555 1_555
H19 C27 1_555 1_555
C28 C9 1_555 1_555
H20 C28 1_555 1_555
C29 C28 1_555 1_555
H21 C29 1_555 1_555
H22 C29 1_555 1_555
H23 C29 1_555 1_555
C30 C28 1_555 1_555
H24 C30 1_555 1_555
H25 C30 1_555 1_555
H26 C30 1_555 1_555
C31 C21 1_555 1_555
H27 C31 1_555 1_555
C32 C31 1_555 1_555
H28 C32 1_555 1_555
H29 C32 1_555 1_555
H30 C32 1_555 1_555
C33 C31 1_555 1_555
H31 C33 1_555 1_555
H32 C33 1_555 1_555
H33 C33 1_555 1_555
C34 C16 1_555 1_555
H34 C34 1_555 1_555
C35 C34 1_555 1_555
H35 C35 1_555 1_555
H36 C35 1_555 1_555
H37 C35 1_555 1_555
C36 C34 1_555 1_555
H38 C36 1_555 1_555
H39 C36 1_555 1_555
H40 C36 1_555 1_555
C5 C6 1_555 1_555
C11 C12 1_555 1_555
C17 C18 1_555 1_555
C19 C24 1_555 1_555
C23 C24 1_555 1_555

#END
