
#######################################################################
#
#                 Cambridge Crystallographic Data Centre
#                                CCDC 
#
#######################################################################
#
# If this CIF has been generated from an entry in the Cambridge 
# Structural Database, then it will include bibliographic, chemical, 
# crystal, experimental, refinement or atomic coordinate data resulting 
# from the CCDC's data processing and validation procedures.
#
#######################################################################

data_OVEPEM
_chemical_formula_moiety         'C24 H16'
_chemical_name_systematic        'tetraphenylene unknown solvate'
_symmetry_cell_setting           tetragonal
_symmetry_space_group_name_H-M   'P 42/n'
_symmetry_Int_Tables_number      86
_space_group_name_Hall           '-P 4bc'
loop_
_symmetry_equiv_pos_site_id
_symmetry_equiv_pos_as_xyz
1 x,y,z
2 1/2-x,1/2-y,z
3 -y,1/2+x,1/2+z
4 1/2+y,-x,1/2+z
5 -x,-y,-z
6 1/2+x,1/2+y,-z
7 y,1/2-x,1/2-z
8 1/2-y,x,1/2-z
_cell_length_a                   9.7604(14)
_cell_length_b                   9.7604(14)
_cell_length_c                   18.291(6)
_cell_angle_alpha                90
_cell_angle_beta                 90
_cell_angle_gamma                90
_cell_volume                     1742.5
_exptl_crystal_colour            colorless
_exptl_crystal_description       block
_cell_formula_units_Z            4
loop_
_atom_site_label
_atom_site_type_symbol
_atom_site_fract_x
_atom_site_fract_y
_atom_site_fract_z
C1 C 0.7527(3) 0.4207(4) 0.01922(17)
C2 C 0.7198(3) 0.3208(4) -0.03285(16)
C3 C 0.6364(3) 0.3568(4) -0.09200(18)
H1 H 0.6139 0.2908 -0.1267
C4 C 0.5863(3) 0.4899(4) -0.09999(19)
H2 H 0.5291 0.5117 -0.1389
C5 C 0.6222(3) 0.5883(4) -0.05000(19)
H3 H 0.5914 0.6778 -0.0560
C6 C 0.7040(3) 0.5554(4) 0.00920(18)
H4 H 0.7272 0.6230 0.0428
C7 C 0.8449(3) 0.3919(3) 0.08259(16)
C8 C 0.8144(3) 0.2900(3) 0.13481(16)
C9 C 0.9042(3) 0.2732(3) 0.19400(17)
H5 H 0.8836 0.2081 0.2295
C10 C 1.0219(3) 0.3498(4) 0.20131(17)
H6 H 1.0818 0.3333 0.2398
C11 C 1.0503(3) 0.4516(4) 0.15080(17)
H7 H 1.1285 0.5052 0.1557
C12 C 0.9615(3) 0.4731(4) 0.09291(17)
H8 H 0.9799 0.5433 0.0600
C1A C 0.7473(3) 0.0793(4) 0.01922(17)
C2A C 0.7802(3) 0.1792(4) -0.03285(16)
C3A C 0.8636(3) 0.1432(4) -0.09200(18)
H1A H 0.8861 0.2092 -0.1267
C4A C 0.9137(3) 0.0101(4) -0.09999(19)
H2A H 0.9709 -0.0117 -0.1389
C5A C 0.8778(3) -0.0883(4) -0.05000(19)
H3A H 0.9086 -0.1778 -0.0560
C6A C 0.7960(3) -0.0554(4) 0.00920(18)
H4A H 0.7728 -0.1230 0.0428
C7A C 0.6551(3) 0.1081(3) 0.08259(16)
C8A C 0.6856(3) 0.2100(3) 0.13481(16)
C9A C 0.5958(3) 0.2268(3) 0.19400(17)
H5A H 0.6164 0.2919 0.2295
C10A C 0.4781(3) 0.1502(4) 0.20131(17)
H6A H 0.4182 0.1667 0.2398
C11A C 0.4497(3) 0.0484(4) 0.15080(17)
H7A H 0.3715 -0.0052 0.1557
C12A C 0.5385(3) 0.0269(4) 0.09291(17)
H8A H 0.5201 -0.0433 0.0600
loop_
_geom_bond_atom_site_label_1
_geom_bond_atom_site_label_2
_geom_bond_site_symmetry_1
_geom_bond_site_symmetry_2
C1 C2 1_555 1_555
C2 C3 1_555 1_555
C3 H1 1_555 1_555
C4 C3 1_555 1_555
H2 C4 1_555 1_555
C5 C4 1_555 1_555
H3 C5 1_555 1_555
C6 C1 1_555 1_555
H4 C6 1_555 1_555
C7 C1 1_555 1_555
C8 C7 1_555 1_555
C9 C8 1_555 1_555
H5 C9 1_555 1_555
C10 C9 1_555 1_555
H6 C10 1_555 1_555
C11 C10 1_555 1_555
H7 C11 1_555 1_555
C12 C7 1_555 1_555
H8 C12 1_555 1_555
C1A C2A 1_555 1_555
C2A C2 1_555 1_555
C3A C2A 1_555 1_555
H1A C3A 1_555 1_555
C4A C3A 1_555 1_555
H2A C4A 1_555 1_555
C5A C4A 1_555 1_555
H3A C5A 1_555 1_555
C6A C1A 1_555 1_555
H4A C6A 1_555 1_555
C7A C1A 1_555 1_555
C8A C8 1_555 1_555
C9A C8A 1_555 1_555
H5A C9A 1_555 1_555
C10A C9A 1_555 1_555
H6A C10A 1_555 1_555
C11A C10A 1_555 1_555
H7A C11A 1_555 1_555
C12A C7A 1_555 1_555
H8A C12A 1_555 1_555
C5 C6 1_555 1_555
C11 C12 1_555 1_555
C5A C6A 1_555 1_555
C7A C8A 1_555 1_555
C11A C12A 1_555 1_555

#END
