
#######################################################################
#
#                 Cambridge Crystallographic Data Centre
#                                CCDC 
#
#######################################################################
#
# If this CIF has been generated from an entry in the Cambridge 
# Structural Database, then it will include bibliographic, chemical, 
# crystal, experimental, refinement or atomic coordinate data resulting 
# from the CCDC's data processing and validation procedures.
#
#######################################################################

data_OVEQOX
_chemical_formula_moiety         'C32 H20'
_chemical_name_systematic        dibenzo[a,i]tetraphenylene
_symmetry_cell_setting           orthorhombic
_symmetry_space_group_name_H-M   'P b c a'
_symmetry_Int_Tables_number      61
_space_group_name_Hall           '-P 2ac 2ab'
loop_
_symmetry_equiv_pos_site_id
_symmetry_equiv_pos_as_xyz
1 x,y,z
2 1/2-x,-y,1/2+z
3 -x,1/2+y,1/2-z
4 1/2+x,1/2-y,-z
5 -x,-y,-z
6 1/2+x,y,1/2-z
7 x,1/2-y,1/2+z
8 1/2-x,1/2+y,z
_cell_length_a                   17.468(3)
_cell_length_b                   13.475(3)
_cell_length_c                   18.330(4)
_cell_angle_alpha                90
_cell_angle_beta                 90
_cell_angle_gamma                90
_cell_volume                     4314.54
_cell_formula_units_Z            8
loop_
_atom_site_label
_atom_site_type_symbol
_atom_site_fract_x
_atom_site_fract_y
_atom_site_fract_z
C1 C 0.29886(11) 0.07930(14) 0.09804(11)
C2 C 0.35712(11) 0.10477(16) 0.14828(12)
H1 H 0.3470 0.1512 0.1846
C3 C 0.42810(13) 0.06213(19) 0.14432(13)
H2 H 0.4655 0.0799 0.1779
C4 C 0.44499(15) -0.0075(2) 0.09062(15)
H3 H 0.4934 -0.0361 0.0885
C5 C 0.39077(16) -0.0336(2) 0.04143(15)
H4 H 0.4025 -0.0804 0.0058
C6 C 0.31698(13) 0.00867(16) 0.04296(12)
C7 C 0.26036(15) -0.01754(18) -0.00784(13)
H5 H 0.2719 -0.0630 -0.0444
C8 C 0.18936(14) 0.02208(18) -0.00462(12)
H6 H 0.1529 0.0035 -0.0390
C9 C 0.16962(12) 0.09158(15) 0.05033(11)
C10 C 0.22336(11) 0.12102(14) 0.10050(10)
C11 C 0.20405(10) 0.19755(13) 0.15662(10)
C12 C 0.23823(12) 0.29062(15) 0.15320(12)
H7 H 0.2719 0.3050 0.1153
C13 C 0.22293(14) 0.36184(16) 0.20508(14)
H8 H 0.2462 0.4238 0.2020
C14 C 0.17356(14) 0.34158(17) 0.26120(15)
H9 H 0.1635 0.3897 0.2963
C15 C 0.13899(11) 0.25049(16) 0.26569(12)
H10 H 0.1059 0.2372 0.3042
C16 C 0.15271(10) 0.17769(13) 0.21354(10)
C17 C 0.11449(10) 0.07952(14) 0.21994(10)
C18 C 0.13064(11) 0.01873(16) 0.27926(11)
H11 H 0.1642 0.0410 0.3151
C19 C 0.09795(13) -0.07362(18) 0.28584(14)
H12 H 0.1095 -0.1135 0.3257
C20 C 0.04836(13) -0.10652(17) 0.23339(15)
H13 H 0.0269 -0.1695 0.2372
C21 C 0.03014(12) -0.04685(15) 0.17510(13)
H14 H -0.0042 -0.0696 0.1402
C22 C 0.06221(10) 0.04693(14) 0.16752(10)
C23 C 0.03920(11) 0.11180(14) 0.10525(10)
C24 C -0.03712(12) 0.15153(14) 0.10224(11)
C25 C -0.09227(12) 0.13454(16) 0.15705(12)
H15 H -0.0797 0.0949 0.1968
C26 C -0.16378(13) 0.17520(17) 0.15285(14)
H16 H -0.1991 0.1632 0.1898
C27 C -0.18425(15) 0.23435(19) 0.09386(16)
H17 H -0.2330 0.2618 0.0914
C28 C -0.13312(16) 0.25192(17) 0.04015(15)
H18 H -0.1475 0.2913 0.0008
C29 C -0.05803(14) 0.21176(15) 0.04230(12)
C30 C -0.00427(17) 0.22958(18) -0.01323(13)
H19 H -0.0182 0.2682 -0.0531
C31 C 0.06757(15) 0.19155(17) -0.00978(12)
H20 H 0.1021 0.2044 -0.0472
C32 C 0.09048(12) 0.13251(14) 0.05029(11)
loop_
_geom_bond_atom_site_label_1
_geom_bond_atom_site_label_2
_geom_bond_site_symmetry_1
_geom_bond_site_symmetry_2
C1 C2 1_555 1_555
C2 H1 1_555 1_555
C3 C2 1_555 1_555
H2 C3 1_555 1_555
C4 C3 1_555 1_555
H3 C4 1_555 1_555
C5 C4 1_555 1_555
H4 C5 1_555 1_555
C6 C1 1_555 1_555
C7 C6 1_555 1_555
H5 C7 1_555 1_555
C8 C7 1_555 1_555
H6 C8 1_555 1_555
C9 C8 1_555 1_555
C10 C1 1_555 1_555
C11 C10 1_555 1_555
C12 C11 1_555 1_555
H7 C12 1_555 1_555
C13 C12 1_555 1_555
H8 C13 1_555 1_555
C14 C13 1_555 1_555
H9 C14 1_555 1_555
C15 C14 1_555 1_555
H10 C15 1_555 1_555
C16 C11 1_555 1_555
C17 C16 1_555 1_555
C18 C17 1_555 1_555
H11 C18 1_555 1_555
C19 C18 1_555 1_555
H12 C19 1_555 1_555
C20 C19 1_555 1_555
H13 C20 1_555 1_555
C21 C20 1_555 1_555
H14 C21 1_555 1_555
C22 C17 1_555 1_555
C23 C22 1_555 1_555
C24 C23 1_555 1_555
C25 C24 1_555 1_555
H15 C25 1_555 1_555
C26 C25 1_555 1_555
H16 C26 1_555 1_555
C27 C26 1_555 1_555
H17 C27 1_555 1_555
C28 C27 1_555 1_555
H18 C28 1_555 1_555
C29 C24 1_555 1_555
C30 C29 1_555 1_555
H19 C30 1_555 1_555
C31 C30 1_555 1_555
H20 C31 1_555 1_555
C32 C9 1_555 1_555
C5 C6 1_555 1_555
C9 C10 1_555 1_555
C15 C16 1_555 1_555
C21 C22 1_555 1_555
C23 C32 1_555 1_555
C28 C29 1_555 1_555
C31 C32 1_555 1_555

#END
