
#######################################################################
#
#                 Cambridge Crystallographic Data Centre
#                                CCDC 
#
#######################################################################
#
# If this CIF has been generated from an entry in the Cambridge 
# Structural Database, then it will include bibliographic, chemical, 
# crystal, experimental, refinement or atomic coordinate data resulting 
# from the CCDC's data processing and validation procedures.
#
#######################################################################

data_OVERIS
_chemical_formula_moiety         'C28 H12 F12 O12 S4'
_chemical_name_systematic        
'tetraphenylene-2,7,10,15-tetrayl tetrakis(trifluoromethanesulfonate)'
_symmetry_cell_setting           orthorhombic
_symmetry_space_group_name_H-M   'I 2 2 2'
_symmetry_Int_Tables_number      23
_space_group_name_Hall           'I 2 2'
loop_
_symmetry_equiv_pos_site_id
_symmetry_equiv_pos_as_xyz
1 x,y,z
2 -x,-y,z
3 x,-y,-z
4 -x,y,-z
5 1/2+x,1/2+y,1/2+z
6 1/2-x,1/2-y,1/2+z
7 1/2+x,1/2-y,1/2-z
8 1/2-x,1/2+y,1/2-z
_cell_length_a                   6.411(7)
_cell_length_b                   15.59(3)
_cell_length_c                   16.778(15)
_cell_angle_alpha                90
_cell_angle_beta                 90
_cell_angle_gamma                90
_cell_volume                     1676.92
_exptl_crystal_colour            colorless
_exptl_crystal_description       block
_cell_formula_units_Z            2
loop_
_atom_site_label
_atom_site_type_symbol
_atom_site_fract_x
_atom_site_fract_y
_atom_site_fract_z
C1 C 0.7342(13) 0.1186(5) 0.1093(6)
C2 C 0.7111(9) 0.3329(3) 0.0395(3)
H1 H 0.7158 0.2916 -0.0005
C3 C 0.8367(9) 0.3256(4) 0.1048(3)
C4 C 0.8416(10) 0.3846(4) 0.1640(4)
H2 H 0.9326 0.3787 0.2068
C5 C 0.7082(11) 0.4535(4) 0.1589(3)
H3 H 0.7067 0.4940 0.1996
C6 C 0.5750(10) 0.4637(3) 0.0937(3)
C7 C 0.5756(9) 0.4025(3) 0.0330(3)
F1 F 0.5573(7) 0.1601(4) 0.1070(4)
F2 F 0.6946(12) 0.0471(3) 0.1472(4)
F3 F 0.7823(12) 0.1044(6) 0.0366(4)
O1 O 0.9735(7) 0.2533(3) 0.1066(2)
O2 O 0.8415(10) 0.2021(3) 0.2351(3)
O3 O 1.1104(8) 0.1258(4) 0.1604(3)
S1 S 0.9300(2) 0.17634(10) 0.16347(9)
C1A C 0.2658(13) 0.8814(5) 0.1093(6)
C2A C 0.2889(9) 0.6671(3) 0.0395(3)
H1A H 0.2842 0.7084 -0.0005
C3A C 0.1633(9) 0.6744(4) 0.1048(3)
C4A C 0.1584(10) 0.6154(4) 0.1640(4)
H2A H 0.0674 0.6213 0.2068
C5A C 0.2918(11) 0.5465(4) 0.1589(3)
H3A H 0.2933 0.5060 0.1996
C6A C 0.4250(10) 0.5363(3) 0.0937(3)
C7A C 0.4244(9) 0.5975(3) 0.0330(3)
F1A F 0.4427(7) 0.8399(4) 0.1070(4)
F2A F 0.3054(12) 0.9529(3) 0.1472(4)
F3A F 0.2177(12) 0.8956(6) 0.0366(4)
O1A O 0.0265(7) 0.7467(3) 0.1066(2)
O2A O 0.1585(10) 0.7979(3) 0.2351(3)
O3A O -0.1104(8) 0.8742(4) 0.1604(3)
S1A S 0.0700(2) 0.82366(10) 0.16347(9)
C1B C 0.7342(13) 0.8814(5) -0.1093(6)
C2B C 0.7111(9) 0.6671(3) -0.0395(3)
H1B H 0.7158 0.7084 0.0005
C3B C 0.8367(9) 0.6744(4) -0.1048(3)
C4B C 0.8416(10) 0.6154(4) -0.1640(4)
H2B H 0.9326 0.6213 -0.2068
C5B C 0.7082(11) 0.5465(4) -0.1589(3)
H3B H 0.7067 0.5060 -0.1996
C6B C 0.5750(10) 0.5363(3) -0.0937(3)
C7B C 0.5756(9) 0.5975(3) -0.0330(3)
F1B F 0.5573(7) 0.8399(4) -0.1070(4)
F2B F 0.6946(12) 0.9529(3) -0.1472(4)
F3B F 0.7823(12) 0.8956(6) -0.0366(4)
O1B O 0.9735(7) 0.7467(3) -0.1066(2)
O2B O 0.8415(10) 0.7979(3) -0.2351(3)
O3B O 1.1104(8) 0.8742(4) -0.1604(3)
S1B S 0.9300(2) 0.82366(10) -0.16347(9)
C1C C 0.2658(13) 0.1186(5) -0.1093(6)
C2C C 0.2889(9) 0.3329(3) -0.0395(3)
H1C H 0.2842 0.2916 0.0005
C3C C 0.1633(9) 0.3256(4) -0.1048(3)
C4C C 0.1584(10) 0.3846(4) -0.1640(4)
H2C H 0.0674 0.3787 -0.2068
C5C C 0.2918(11) 0.4535(4) -0.1589(3)
H3C H 0.2933 0.4940 -0.1996
C6C C 0.4250(10) 0.4637(3) -0.0937(3)
C7C C 0.4244(9) 0.4025(3) -0.0330(3)
F1C F 0.4427(7) 0.1601(4) -0.1070(4)
F2C F 0.3054(12) 0.0471(3) -0.1472(4)
F3C F 0.2177(12) 0.1044(6) -0.0366(4)
O1C O 0.0265(7) 0.2533(3) -0.1066(2)
O2C O 0.1585(10) 0.2021(3) -0.2351(3)
O3C O -0.1104(8) 0.1258(4) -0.1604(3)
S1C S 0.0700(2) 0.17634(10) -0.16347(9)
loop_
_geom_bond_atom_site_label_1
_geom_bond_atom_site_label_2
_geom_bond_site_symmetry_1
_geom_bond_site_symmetry_2
C1 F1 1_555 1_555
C2 H1 1_555 1_555
C3 C2 1_555 1_555
C4 C3 1_555 1_555
H2 C4 1_555 1_555
C5 C4 1_555 1_555
H3 C5 1_555 1_555
C6 C5 1_555 1_555
C7 C2 1_555 1_555
F2 C1 1_555 1_555
F3 C1 1_555 1_555
O1 C3 1_555 1_555
O2 S1 1_555 1_555
O3 S1 1_555 1_555
S1 C1 1_555 1_555
C1A F1A 1_555 1_555
C2A H1A 1_555 1_555
C3A C2A 1_555 1_555
C4A C3A 1_555 1_555
H2A C4A 1_555 1_555
C5A C4A 1_555 1_555
H3A C5A 1_555 1_555
C6A C6 1_555 1_555
C7A C2A 1_555 1_555
F2A C1A 1_555 1_555
F3A C1A 1_555 1_555
O1A C3A 1_555 1_555
O2A S1A 1_555 1_555
O3A S1A 1_555 1_555
S1A C1A 1_555 1_555
C1B F1B 1_555 1_555
C2B H1B 1_555 1_555
C3B C2B 1_555 1_555
C4B C3B 1_555 1_555
H2B C4B 1_555 1_555
C5B C4B 1_555 1_555
H3B C5B 1_555 1_555
C6B C5B 1_555 1_555
C7B C7A 1_555 1_555
F2B C1B 1_555 1_555
F3B C1B 1_555 1_555
O1B C3B 1_555 1_555
O2B S1B 1_555 1_555
O3B S1B 1_555 1_555
S1B C1B 1_555 1_555
C1C F1C 1_555 1_555
C2C H1C 1_555 1_555
C3C C2C 1_555 1_555
C4C C3C 1_555 1_555
H2C C4C 1_555 1_555
C5C C4C 1_555 1_555
H3C C5C 1_555 1_555
C6C C6B 1_555 1_555
C7C C7 1_555 1_555
F2C C1C 1_555 1_555
F3C C1C 1_555 1_555
O1C C3C 1_555 1_555
O2C S1C 1_555 1_555
O3C S1C 1_555 1_555
S1C C1C 1_555 1_555
C6 C7 1_555 1_555
O1 S1 1_555 1_555
C5A C6A 1_555 1_555
C6A C7A 1_555 1_555
O1A S1A 1_555 1_555
C2B C7B 1_555 1_555
C6B C7B 1_555 1_555
O1B S1B 1_555 1_555
C2C C7C 1_555 1_555
C5C C6C 1_555 1_555
C6C C7C 1_555 1_555
O1C S1C 1_555 1_555

#END
