
#######################################################################
#
#                 Cambridge Crystallographic Data Centre
#                                CCDC 
#
#######################################################################
#
# If this CIF has been generated from an entry in the Cambridge 
# Structural Database, then it will include bibliographic, chemical, 
# crystal, experimental, refinement or atomic coordinate data resulting 
# from the CCDC's data processing and validation procedures.
#
#######################################################################

data_OVEVES
_chemical_formula_moiety         'C85 H56 N6 O6'
_chemical_name_systematic        
'bis(t-butylperoxy)-tris(4-methylpiperidin-1-yl)-triaza-dioxa-open-cage-C64fullerene unknown solvate'
_symmetry_cell_setting           orthorhombic
_symmetry_space_group_name_H-M   'P n m a'
_symmetry_Int_Tables_number      62
_space_group_name_Hall           '-P 2ac 2n'
loop_
_symmetry_equiv_pos_site_id
_symmetry_equiv_pos_as_xyz
1 x,y,z
2 1/2-x,-y,1/2+z
3 1/2+x,1/2-y,1/2-z
4 -x,1/2+y,-z
5 -x,-y,-z
6 1/2+x,y,1/2-z
7 1/2-x,1/2+y,1/2+z
8 x,1/2-y,z
_cell_length_a                   17.4285(12)
_cell_length_b                   18.9136(15)
_cell_length_c                   18.1724(16)
_cell_angle_alpha                90
_cell_angle_beta                 90
_cell_angle_gamma                90
_cell_volume                     5990.27
_cell_formula_units_Z            4
loop_
_atom_site_label
_atom_site_type_symbol
_atom_site_fract_x
_atom_site_fract_y
_atom_site_fract_z
C1 C 0.7881(4) 0.2500 0.6086(4)
C2 C 0.9051(3) 0.3140(3) 0.6437(5)
H1 H 0.9046 0.3160 0.6981
H2 H 0.8778 0.3562 0.6247
C3 C 0.9868(3) 0.3137(3) 0.6161(4)
H3 H 0.9867 0.3140 0.5616
H4 H 1.0131 0.3571 0.6331
C4 C 1.0306(4) 0.2500 0.6428(5)
H5 H 1.0310 0.2500 0.6978
C5 C 1.1129(5) 0.2500 0.6148(6)
C6 C 0.8164(3) 0.4094(2) 0.3695(3)
H6 H 0.8211 0.3580 0.3602
H7 H 0.8383 0.4196 0.4186
C7 C 0.8592(3) 0.4502(2) 0.3113(3)
H8 H 0.8384 0.4377 0.2623
H9 H 0.9140 0.4362 0.3123
C8 C 0.8532(3) 0.5302(3) 0.3222(3)
H10 H 0.8786 0.5433 0.3697
C9 C 0.7682(3) 0.5501(3) 0.3263(3)
H11 H 0.7633 0.6007 0.3392
H12 H 0.7441 0.5428 0.2775
C10 C 0.7266(3) 0.5055(2) 0.3836(3)
H13 H 0.7477 0.5157 0.4330
H14 H 0.6714 0.5178 0.3839
C11 C 0.8930(3) 0.5694(3) 0.2592(3)
H15 H 0.9479 0.5584 0.2596
H16 H 0.8859 0.6205 0.2654
H17 H 0.8707 0.5546 0.2122
C12 C 0.6190(3) 0.4327(3) 0.1150(3)
C13 C 0.5539(3) 0.4752(3) 0.0810(3)
H18 H 0.5137 0.4430 0.0638
H19 H 0.5736 0.5026 0.0393
H20 H 0.5326 0.5075 0.1179
C14 C 0.6877(4) 0.4782(4) 0.1314(4)
H21 H 0.6737 0.5144 0.1675
H22 H 0.7052 0.5011 0.0860
H23 H 0.7290 0.4487 0.1513
C15 C 0.6418(4) 0.3717(4) 0.0639(4)
H24 H 0.6829 0.3441 0.0869
H25 H 0.6599 0.3908 0.0169
H26 H 0.5973 0.3412 0.0554
C16 C 0.6763(3) 0.3258(2) 0.5922(3)
C17 C 0.6161(3) 0.2888(2) 0.6302(3)
C18 C 0.5453(3) 0.3229(2) 0.6342(3)
C19 C 0.5277(3) 0.3826(2) 0.5866(3)
C20 C 0.5800(3) 0.4015(2) 0.5320(3)
C21 C 0.6559(3) 0.3748(2) 0.5396(3)
C22 C 0.5522(2) 0.4222(2) 0.4598(3)
C23 C 0.6012(2) 0.4059(2) 0.3980(3)
C24 C 0.6866(2) 0.3863(2) 0.4107(3)
C25 C 0.6924(2) 0.3095(2) 0.3848(3)
C26 C 0.6591(2) 0.2871(2) 0.3216(3)
C27 C 0.6043(3) 0.3317(2) 0.2792(3)
C28 C 0.5682(3) 0.3863(2) 0.3318(3)
C29 C 0.4873(2) 0.3838(2) 0.3249(3)
C30 C 0.4649(2) 0.3236(2) 0.2801(3)
C31 C 0.5336(2) 0.2861(2) 0.2593(3)
C32 C 0.4399(2) 0.4071(2) 0.3799(3)
C33 C 0.4732(3) 0.4263(2) 0.4488(3)
C34 C 0.4202(3) 0.4067(2) 0.5064(3)
C35 C 0.4475(3) 0.3841(2) 0.5732(3)
C36 C 0.4128(3) 0.3243(3) 0.6107(3)
C37 C 0.4744(3) 0.2862(2) 0.6471(3)
C38 C 0.3524(3) 0.2881(2) 0.5784(3)
C39 C 0.3227(3) 0.3119(2) 0.5080(3)
C40 C 0.3556(3) 0.3708(3) 0.4724(3)
C41 C 0.3682(2) 0.3704(2) 0.3949(3)
C42 C 0.3471(2) 0.3120(2) 0.3527(3)
C43 C 0.3159(3) 0.2500 0.3894(4)
C44 C 0.3036(4) 0.2500 0.4645(4)
C45 C 0.3974(2) 0.2878(2) 0.2945(3)
N1 N 0.7541(2) 0.3122(2) 0.5999(3)
H27 H 0.7845 0.3493 0.5989
N2 N 0.7354(2) 0.43044(19) 0.3673(2)
N3 N 0.7144(3) 0.2500 0.4236(4)
N4 N 0.8666(3) 0.2500 0.6186(3)
O1 O 0.70963(17) 0.39474(16) 0.48779(18)
O2 O 0.64376(16) 0.36025(16) 0.21755(18)
O3 O 0.58493(19) 0.40307(19) 0.17932(19)
H28 H 0.740(3) 0.2500 0.461(3)
C2G C 0.9051(3) 0.1860(3) 0.6437(5)
H1G H 0.9046 0.1840 0.6981
H2G H 0.8778 0.1438 0.6247
C3G C 0.9868(3) 0.1863(3) 0.6161(4)
H3G H 0.9867 0.1860 0.5616
H4G H 1.0131 0.1429 0.6331
C6G C 0.8164(3) 0.0906(2) 0.3695(3)
H6G H 0.8211 0.1420 0.3602
H7G H 0.8383 0.0804 0.4186
C7G C 0.8592(3) 0.0498(2) 0.3113(3)
H8G H 0.8384 0.0623 0.2623
H9G H 0.9140 0.0638 0.3123
C8G C 0.8532(3) -0.0302(3) 0.3222(3)
H10G H 0.8786 -0.0433 0.3697
C9G C 0.7682(3) -0.0501(3) 0.3263(3)
H11G H 0.7633 -0.1007 0.3392
H12G H 0.7441 -0.0428 0.2775
C10G C 0.7266(3) -0.0055(2) 0.3836(3)
H13G H 0.7477 -0.0157 0.4330
H14G H 0.6714 -0.0178 0.3839
C11G C 0.8930(3) -0.0694(3) 0.2592(3)
H15G H 0.9479 -0.0584 0.2596
H16G H 0.8859 -0.1205 0.2654
H17G H 0.8707 -0.0546 0.2122
C12G C 0.6190(3) 0.0673(3) 0.1150(3)
C13G C 0.5539(3) 0.0248(3) 0.0810(3)
H18G H 0.5137 0.0570 0.0638
H19G H 0.5736 -0.0026 0.0393
H20G H 0.5326 -0.0075 0.1179
C14G C 0.6877(4) 0.0218(4) 0.1314(4)
H21G H 0.6737 -0.0144 0.1675
H22G H 0.7052 -0.0011 0.0860
H23G H 0.7290 0.0513 0.1513
C15G C 0.6418(4) 0.1283(4) 0.0639(4)
H24G H 0.6829 0.1559 0.0869
H25G H 0.6599 0.1092 0.0169
H26G H 0.5973 0.1588 0.0554
C16G C 0.6763(3) 0.1742(2) 0.5922(3)
C17G C 0.6161(3) 0.2112(2) 0.6302(3)
C18G C 0.5453(3) 0.1771(2) 0.6342(3)
C19G C 0.5277(3) 0.1174(2) 0.5866(3)
C20G C 0.5800(3) 0.0985(2) 0.5320(3)
C21G C 0.6559(3) 0.1252(2) 0.5396(3)
C22G C 0.5522(2) 0.0778(2) 0.4598(3)
C23G C 0.6012(2) 0.0941(2) 0.3980(3)
C24G C 0.6866(2) 0.1137(2) 0.4107(3)
C25G C 0.6924(2) 0.1905(2) 0.3848(3)
C26G C 0.6591(2) 0.2129(2) 0.3216(3)
C27G C 0.6043(3) 0.1683(2) 0.2792(3)
C28G C 0.5682(3) 0.1137(2) 0.3318(3)
C29G C 0.4873(2) 0.1162(2) 0.3249(3)
C30G C 0.4649(2) 0.1764(2) 0.2801(3)
C31G C 0.5336(2) 0.2139(2) 0.2593(3)
C32G C 0.4399(2) 0.0929(2) 0.3799(3)
C33G C 0.4732(3) 0.0737(2) 0.4488(3)
C34G C 0.4202(3) 0.0933(2) 0.5064(3)
C35G C 0.4475(3) 0.1159(2) 0.5732(3)
C36G C 0.4128(3) 0.1757(3) 0.6107(3)
C37G C 0.4744(3) 0.2138(2) 0.6471(3)
C38G C 0.3524(3) 0.2119(2) 0.5784(3)
C39G C 0.3227(3) 0.1881(2) 0.5080(3)
C40G C 0.3556(3) 0.1292(3) 0.4724(3)
C41G C 0.3682(2) 0.1296(2) 0.3949(3)
C42G C 0.3471(2) 0.1880(2) 0.3527(3)
C45G C 0.3974(2) 0.2122(2) 0.2945(3)
N1G N 0.7541(2) 0.1878(2) 0.5999(3)
H27G H 0.7845 0.1507 0.5989
N2G N 0.7354(2) 0.06956(19) 0.3673(2)
O1G O 0.70963(17) 0.10526(16) 0.48779(18)
O2G O 0.64376(16) 0.13975(16) 0.21755(18)
O3G O 0.58493(19) 0.09693(19) 0.17932(19)
H29? H 1.1425 0.2139 0.6410
H30? H 1.1360 0.2965 0.6234
H31? H 1.1133 0.2396 0.5620
loop_
_geom_bond_atom_site_label_1
_geom_bond_atom_site_label_2
_geom_bond_site_symmetry_1
_geom_bond_site_symmetry_2
C1 N1 1_555 1_555
C2 H1 1_555 1_555
H2 C2 1_555 1_555
C3 C2 1_555 1_555
H3 C3 1_555 1_555
H4 C3 1_555 1_555
C4 C3 1_555 1_555
H5 C4 1_555 1_555
C5 C4 1_555 1_555
C6 H6 1_555 1_555
H7 C6 1_555 1_555
C7 C6 1_555 1_555
H8 C7 1_555 1_555
H9 C7 1_555 1_555
C8 C7 1_555 1_555
H10 C8 1_555 1_555
C9 C8 1_555 1_555
H11 C9 1_555 1_555
H12 C9 1_555 1_555
C10 C9 1_555 1_555
H13 C10 1_555 1_555
H14 C10 1_555 1_555
C11 C8 1_555 1_555
H15 C11 1_555 1_555
H16 C11 1_555 1_555
H17 C11 1_555 1_555
C12 C13 1_555 1_555
C13 H18 1_555 1_555
H19 C13 1_555 1_555
H20 C13 1_555 1_555
C14 C12 1_555 1_555
H21 C14 1_555 1_555
H22 C14 1_555 1_555
H23 C14 1_555 1_555
C15 C12 1_555 1_555
H24 C15 1_555 1_555
H25 C15 1_555 1_555
H26 C15 1_555 1_555
C16 C17 1_555 1_555
C17 C18 1_555 1_555
C18 C19 1_555 1_555
C19 C20 1_555 1_555
C20 C21 1_555 1_555
C21 C16 1_555 1_555
C22 C20 1_555 1_555
C23 C22 1_555 1_555
C24 C23 1_555 1_555
C25 C24 1_555 1_555
C26 C25 1_555 1_555
C27 C26 1_555 1_555
C28 C23 1_555 1_555
C29 C28 1_555 1_555
C30 C29 1_555 1_555
C31 C27 1_555 1_555
C32 C29 1_555 1_555
C33 C22 1_555 1_555
C34 C33 1_555 1_555
C35 C19 1_555 1_555
C36 C35 1_555 1_555
C37 C18 1_555 1_555
C38 C36 1_555 1_555
C39 C38 1_555 1_555
C40 C34 1_555 1_555
C41 C32 1_555 1_555
C42 C41 1_555 1_555
C43 C42 1_555 1_555
C44 C39 1_555 1_555
C45 C30 1_555 1_555
N1 C16 1_555 1_555
H27 N1 1_555 1_555
N2 C6 1_555 1_555
N3 C25 1_555 1_555
N4 C1 1_555 1_555
O1 C21 1_555 1_555
O2 C27 1_555 1_555
O3 C12 1_555 1_555
H28 N3 1_555 1_555
C2G N4 1_555 1_555
H1G C2G 1_555 1_555
H2G C2G 1_555 1_555
C3G C4 1_555 1_555
H3G C3G 1_555 1_555
H4G C3G 1_555 1_555
C6G H6G 1_555 1_555
H7G C6G 1_555 1_555
C7G C6G 1_555 1_555
H8G C7G 1_555 1_555
H9G C7G 1_555 1_555
C8G C7G 1_555 1_555
H10G C8G 1_555 1_555
C9G C8G 1_555 1_555
H11G C9G 1_555 1_555
H12G C9G 1_555 1_555
C10G C9G 1_555 1_555
H13G C10G 1_555 1_555
H14G C10G 1_555 1_555
C11G C8G 1_555 1_555
H15G C11G 1_555 1_555
H16G C11G 1_555 1_555
H17G C11G 1_555 1_555
C12G C13G 1_555 1_555
C13G H18G 1_555 1_555
H19G C13G 1_555 1_555
H20G C13G 1_555 1_555
C14G C12G 1_555 1_555
H21G C14G 1_555 1_555
H22G C14G 1_555 1_555
H23G C14G 1_555 1_555
C15G C12G 1_555 1_555
H24G C15G 1_555 1_555
H25G C15G 1_555 1_555
H26G C15G 1_555 1_555
C16G C17G 1_555 1_555
C17G C17 1_555 1_555
C18G C17G 1_555 1_555
C19G C18G 1_555 1_555
C20G C19G 1_555 1_555
C21G C16G 1_555 1_555
C22G C20G 1_555 1_555
C23G C22G 1_555 1_555
C24G C23G 1_555 1_555
C25G N3 1_555 1_555
C26G C26 1_555 1_555
C27G C26G 1_555 1_555
C28G C23G 1_555 1_555
C29G C28G 1_555 1_555
C30G C29G 1_555 1_555
C31G C31 1_555 1_555
C32G C29G 1_555 1_555
C33G C22G 1_555 1_555
C34G C33G 1_555 1_555
C35G C19G 1_555 1_555
C36G C35G 1_555 1_555
C37G C37 1_555 1_555
C38G C38 1_555 1_555
C39G C44 1_555 1_555
C40G C34G 1_555 1_555
C41G C32G 1_555 1_555
C42G C43 1_555 1_555
C45G C45 1_555 1_555
N1G C1 1_555 1_555
H27G N1G 1_555 1_555
N2G C6G 1_555 1_555
O1G C21G 1_555 1_555
O2G C27G 1_555 1_555
O3G C12G 1_555 1_555
C2 N4 1_555 1_555
C10 N2 1_555 1_555
C24 N2 1_555 1_555
C24 O1 1_555 1_555
C27 C28 1_555 1_555
C30 C31 1_555 1_555
C32 C33 1_555 1_555
C34 C35 1_555 1_555
C36 C37 1_555 1_555
C39 C40 1_555 1_555
C40 C41 1_555 1_555
C42 C45 1_555 1_555
C43 C44 1_555 1_555
O2 O3 1_555 1_555
C2G C3G 1_555 1_555
C10G N2G 1_555 1_555
C16G N1G 1_555 1_555
C18G C37G 1_555 1_555
C20G C21G 1_555 1_555
C24G C25G 1_555 1_555
C24G N2G 1_555 1_555
C24G O1G 1_555 1_555
C25G C26G 1_555 1_555
C27G C28G 1_555 1_555
C27G C31G 1_555 1_555
C30G C31G 1_555 1_555
C30G C45G 1_555 1_555
C32G C33G 1_555 1_555
C34G C35G 1_555 1_555
C36G C37G 1_555 1_555
C36G C38G 1_555 1_555
C38G C39G 1_555 1_555
C39G C40G 1_555 1_555
C40G C41G 1_555 1_555
C41G C42G 1_555 1_555
C42G C45G 1_555 1_555
O2G O3G 1_555 1_555

#END
