
#######################################################################
#
#                 Cambridge Crystallographic Data Centre
#                                CCDC 
#
#######################################################################
#
# If this CIF has been generated from an entry in the Cambridge 
# Structural Database, then it will include bibliographic, chemical, 
# crystal, experimental, refinement or atomic coordinate data resulting 
# from the CCDC's data processing and validation procedures.
#
#######################################################################

data_OVEVAO
_chemical_formula_moiety         'C89 H65 N5 O7,2(C1 H4 O1)'
_chemical_name_systematic        
'tris(t-butylperoxy)-(hydroxy)-tris(4-methylpiperidin-1-yl)-diaza-open-cage-C61fullerene methanol solvate'
_symmetry_cell_setting           monoclinic
_symmetry_space_group_name_H-M   'P 21/c'
_symmetry_Int_Tables_number      14
_space_group_name_Hall           '-P 2ybc'
loop_
_symmetry_equiv_pos_site_id
_symmetry_equiv_pos_as_xyz
1 x,y,z
2 -x,1/2+y,1/2-z
3 -x,-y,-z
4 x,1/2-y,1/2+z
_cell_length_a                   19.1868(11)
_cell_length_b                   17.8093(11)
_cell_length_c                   19.5392(10)
_cell_angle_alpha                90
_cell_angle_beta                 99.566(5)
_cell_angle_gamma                90
_cell_volume                     6583.77
_cell_formula_units_Z            4
_exptl_crystal_recrystallization_method benzene/methanol
loop_
_atom_site_label
_atom_site_type_symbol
_atom_site_fract_x
_atom_site_fract_y
_atom_site_fract_z
C1 C 0.9153(2) 0.7602(3) 0.3993(2)
H1 H 0.9126 0.7865 0.3543
H2 H 0.8690 0.7364 0.4010
C2 C 0.9728(3) 0.7012(3) 0.4068(3)
H3 H 0.9726 0.6732 0.4506
H4 H 0.9624 0.6651 0.3680
C3 C 1.0453(3) 0.7344(3) 0.4074(3)
H5 H 1.0457 0.7577 0.3609
C4 C 1.0585(3) 0.7972(3) 0.4616(3)
H6 H 1.0635 0.7751 0.5087
H7 H 1.1032 0.8232 0.4575
C5 C 0.9986(2) 0.8536(3) 0.4523(3)
H8 H 1.0075 0.8925 0.4889
H9 H 0.9951 0.8784 0.4066
C6 C 1.1037(3) 0.6758(3) 0.4189(3)
H10 H 1.1496 0.7004 0.4202
H11 H 1.0963 0.6392 0.3810
H12 H 1.1028 0.6500 0.4631
C7 C 0.8812(3) 1.0727(3) 0.3748(3)
H13 H 0.9103 1.0387 0.3510
H14 H 0.9056 1.0799 0.4230
C8 C 0.8728(3) 1.1475(3) 0.3377(3)
H15 H 0.9201 1.1691 0.3365
H16 H 0.8470 1.1825 0.3639
C9 C 0.8328(3) 1.1399(3) 0.2637(3)
H17 H 0.8634 1.1115 0.2359
C10 C 0.7655(3) 1.0949(3) 0.2642(3)
H18 H 0.7318 1.1257 0.2854
H19 H 0.7435 1.0839 0.2157
C11 C 0.7784(3) 1.0217(3) 0.3037(2)
H20 H 0.7331 0.9952 0.3040
H21 H 0.8096 0.9888 0.2813
C12 C 0.8165(4) 1.2170(4) 0.2302(3)
H22 H 0.7873 1.2459 0.2575
H23 H 0.7908 1.2105 0.1829
H24 H 0.8608 1.2439 0.2289
C13 C 0.7220(3) 1.2117(3) 0.4643(3)
H25 H 0.7727 1.2060 0.4840
H26 H 0.6964 1.2252 0.5026
C14 C 0.7131(3) 1.2734(3) 0.4106(3)
H27 H 0.7412 1.2613 0.3739
H28 H 0.7310 1.3212 0.4326
C15 C 0.6343(3) 1.2827(3) 0.3777(3)
H29 H 0.6068 1.2991 0.4143
C16 C 0.6065(3) 1.2072(3) 0.3493(3)
H30 H 0.5551 1.2114 0.3318
H31 H 0.6301 1.1932 0.3097
C17 C 0.6190(3) 1.1467(3) 0.4036(3)
H32 H 0.5918 1.1583 0.4411
H33 H 0.6019 1.0981 0.3827
C18 C 0.6268(4) 1.3413(3) 0.3213(3)
H34 H 0.6561 1.3274 0.2867
H35 H 0.6423 1.3901 0.3416
H36 H 0.5773 1.3446 0.2990
C19 C 0.9887(3) 0.6089(3) 0.6423(3)
C20 C 1.0570(3) 0.6132(4) 0.6140(3)
H37 H 1.0490 0.5964 0.5656
H38 H 1.0923 0.5808 0.6416
H39 H 1.0740 0.6652 0.6166
C21 C 0.9964(3) 0.6415(4) 0.7142(3)
H40 H 1.0095 0.6946 0.7129
H41 H 1.0332 0.6141 0.7452
H42 H 0.9514 0.6369 0.7315
C22 C 0.9601(4) 0.5293(3) 0.6402(4)
H43 H 0.9135 0.5294 0.6547
H44 H 0.9925 0.4975 0.6717
H45 H 0.9557 0.5096 0.5928
C23 C 0.7351(3) 0.5252(3) 0.5127(3)
C24 C 0.7945(3) 0.5558(4) 0.4796(3)
H46 H 0.7768 0.5971 0.4483
H47 H 0.8131 0.5159 0.4532
H48 H 0.8321 0.5743 0.5158
C25 C 0.7561(3) 0.4581(3) 0.5603(3)
H49 H 0.7946 0.4726 0.5974
H50 H 0.7719 0.4169 0.5333
H51 H 0.7154 0.4416 0.5807
C26 C 0.6704(3) 0.5065(4) 0.4591(3)
H52 H 0.6330 0.4868 0.4826
H53 H 0.6830 0.4687 0.4268
H54 H 0.6537 0.5521 0.4333
C27 C 0.4890(3) 0.6934(3) 0.3835(2)
C28 C 0.5026(4) 0.7617(4) 0.3421(3)
H55 H 0.4879 0.8069 0.3646
H56 H 0.4756 0.7577 0.2950
H57 H 0.5532 0.7650 0.3397
C29 C 0.5037(3) 0.6232(3) 0.3470(3)
H58 H 0.5540 0.6211 0.3434
H59 H 0.4755 0.6228 0.3004
H60 H 0.4913 0.5797 0.3731
C30 C 0.4151(3) 0.6947(5) 0.4008(3)
H61 H 0.4090 0.6522 0.4311
H62 H 0.3806 0.6910 0.3579
H63 H 0.4077 0.7418 0.4246
C31 C 0.8764(2) 0.8632(3) 0.4705(2)
C32 C 0.8098(2) 0.9792(3) 0.4269(2)
C33 C 0.8315(2) 1.0149(2) 0.4991(2)
C34 C 0.7857(2) 1.0668(3) 0.5186(2)
C35 C 0.7901(2) 1.0887(2) 0.5904(2)
C36 C 0.7080(2) 1.0758(3) 0.4824(2)
C37 C 0.6879(2) 1.0011(3) 0.4466(2)
C38 C 0.7342(2) 0.9556(3) 0.4245(2)
C39 C 0.9167(2) 0.8779(3) 0.6656(2)
C40 C 0.7040(2) 0.8747(2) 0.4116(2)
C41 C 0.7453(2) 0.8159(3) 0.4575(2)
N1 N 0.81709(18) 0.8131(2) 0.48233(17)
C42 C 0.8297(2) 0.7612(2) 0.5352(2)
C43 C 0.8928(2) 0.7695(3) 0.5929(2)
C44 C 0.9147(2) 0.8523(3) 0.5968(2)
C45 C 0.8994(2) 0.9001(3) 0.5404(2)
C46 C 0.8822(2) 0.9781(3) 0.5515(2)
C47 C 0.8901(2) 1.0041(3) 0.6205(2)
C48 C 0.8443(2) 1.0607(3) 0.6402(2)
C49 C 0.8299(3) 1.0440(3) 0.7091(2)
C50 C 0.8698(2) 0.9771(3) 0.7328(2)
C51 C 0.8410(3) 0.9234(3) 0.7721(2)
C52 C 0.8492(2) 0.8442(3) 0.7573(2)
C53 C 0.8863(2) 0.8221(3) 0.7062(2)
C54 C 0.8648(3) 0.7599(3) 0.6612(2)
C55 C 0.8030(3) 0.7229(3) 0.6693(2)
C56 C 0.7529(3) 0.6905(3) 0.6058(2)
C57 C 0.7672(2) 0.7278(3) 0.5416(2)
C58 C 0.7141(2) 0.7602(2) 0.4910(2)
C59 C 0.6367(2) 0.7537(3) 0.4934(2)
C60 C 0.6036(2) 0.8313(2) 0.4775(2)
C61 C 0.6337(2) 0.8842(3) 0.4401(2)
C62 C 0.6246(2) 0.9610(3) 0.4572(2)
C63 C 0.5844(2) 0.9832(3) 0.5055(2)
C64 C 0.6100(2) 1.0456(3) 0.5531(2)
C65 C 0.6703(3) 1.0835(2) 0.5463(2)
C66 C 0.7207(2) 1.1004(2) 0.6066(2)
C67 C 0.7065(3) 1.0835(3) 0.6726(2)
C68 C 0.7626(3) 1.0546(3) 0.7251(2)
C69 C 0.7328(3) 0.9986(3) 0.7647(2)
C70 C 0.7707(3) 0.9340(3) 0.7879(2)
C71 C 0.7367(3) 0.8615(3) 0.7839(2)
C72 C 0.7857(3) 0.8066(3) 0.7652(2)
C73 C 0.7617(2) 0.7482(3) 0.7194(2)
C74 C 0.6874(3) 0.7427(3) 0.6904(2)
C75 C 0.6802(2) 0.7148(3) 0.6200(2)
C76 C 0.6288(2) 0.7433(3) 0.5698(2)
C77 C 0.5813(2) 0.7991(3) 0.5878(2)
C78 C 0.5854(2) 0.8237(3) 0.6554(2)
C79 C 0.6396(3) 0.7949(3) 0.7080(2)
C80 C 0.6648(3) 0.8556(3) 0.7555(2)
C81 C 0.6253(3) 0.9226(3) 0.7321(2)
C82 C 0.6584(3) 0.9929(3) 0.7366(2)
C83 C 0.6427(2) 1.0456(3) 0.6802(2)
C84 C 0.5954(2) 1.0265(3) 0.6207(2)
C85 C 0.5609(2) 0.9530(3) 0.6159(2)
C86 C 0.5550(2) 0.9276(3) 0.5448(2)
C87 C 0.5659(2) 0.8519(3) 0.5308(2)
C88 C 0.5756(2) 0.9030(3) 0.6700(2)
C89 C 0.9073(2) 0.9537(3) 0.6783(2)
N2 N 0.85661(19) 0.9178(2) 0.41641(18)
H64 H 0.8729 0.9139 0.3770
N3 N 0.93259(19) 0.8139(2) 0.45690(18)
N4 N 0.8121(2) 1.0391(2) 0.37516(19)
N5 N 0.6945(2) 1.1403(2) 0.4332(2)
O1 O 0.69806(17) 0.85077(18) 0.34165(14)
H65 H 0.6696 0.8788 0.3161
O2 O 0.95431(16) 0.72561(18) 0.58942(15)
O3 O 0.93277(18) 0.64684(19) 0.59589(17)
O4 O 0.76162(18) 0.60921(18) 0.60808(16)
O5 O 0.70566(17) 0.58449(18) 0.55128(16)
O6 O 0.60712(15) 0.69593(17) 0.44675(16)
O7 O 0.53098(16) 0.69504(19) 0.45283(16)
C90 C 0.5291(4) 0.5769(4) 0.5844(4)
H66 H 0.5276 0.6301 0.5969
H67 H 0.4884 0.5509 0.5976
H68 H 0.5277 0.5723 0.5342
O8 O 0.5927(2) 0.5442(2) 0.6200(2)
H69 H 0.6266 0.5565 0.6002
C91 C 0.5448(3) 0.5396(4) 0.7742(3)
H70 H 0.5526 0.4863 0.7856
H71 H 0.5054 0.5446 0.7355
H72 H 0.5334 0.5663 0.8148
O9 O 0.6025(3) 0.5685(4) 0.7564(2)
H73 H 0.6060 0.5547 0.7160
loop_
_geom_bond_atom_site_label_1
_geom_bond_atom_site_label_2
_geom_bond_site_symmetry_1
_geom_bond_site_symmetry_2
C1 H1 1_555 1_555
H2 C1 1_555 1_555
C2 C1 1_555 1_555
H3 C2 1_555 1_555
H4 C2 1_555 1_555
C3 C2 1_555 1_555
H5 C3 1_555 1_555
C4 C3 1_555 1_555
H6 C4 1_555 1_555
H7 C4 1_555 1_555
C5 C4 1_555 1_555
H8 C5 1_555 1_555
H9 C5 1_555 1_555
C6 C3 1_555 1_555
H10 C6 1_555 1_555
H11 C6 1_555 1_555
H12 C6 1_555 1_555
C7 H13 1_555 1_555
H14 C7 1_555 1_555
C8 C7 1_555 1_555
H15 C8 1_555 1_555
H16 C8 1_555 1_555
C9 C8 1_555 1_555
H17 C9 1_555 1_555
C10 C9 1_555 1_555
H18 C10 1_555 1_555
H19 C10 1_555 1_555
C11 C10 1_555 1_555
H20 C11 1_555 1_555
H21 C11 1_555 1_555
C12 C9 1_555 1_555
H22 C12 1_555 1_555
H23 C12 1_555 1_555
H24 C12 1_555 1_555
C13 H25 1_555 1_555
H26 C13 1_555 1_555
C14 C13 1_555 1_555
H27 C14 1_555 1_555
H28 C14 1_555 1_555
C15 C14 1_555 1_555
H29 C15 1_555 1_555
C16 C15 1_555 1_555
H30 C16 1_555 1_555
H31 C16 1_555 1_555
C17 C16 1_555 1_555
H32 C17 1_555 1_555
H33 C17 1_555 1_555
C18 C15 1_555 1_555
H34 C18 1_555 1_555
H35 C18 1_555 1_555
H36 C18 1_555 1_555
C19 C20 1_555 1_555
C20 H37 1_555 1_555
H38 C20 1_555 1_555
H39 C20 1_555 1_555
C21 C19 1_555 1_555
H40 C21 1_555 1_555
H41 C21 1_555 1_555
H42 C21 1_555 1_555
C22 C19 1_555 1_555
H43 C22 1_555 1_555
H44 C22 1_555 1_555
H45 C22 1_555 1_555
C23 C24 1_555 1_555
C24 H46 1_555 1_555
H47 C24 1_555 1_555
H48 C24 1_555 1_555
C25 C23 1_555 1_555
H49 C25 1_555 1_555
H50 C25 1_555 1_555
H51 C25 1_555 1_555
C26 C23 1_555 1_555
H52 C26 1_555 1_555
H53 C26 1_555 1_555
H54 C26 1_555 1_555
C27 C28 1_555 1_555
C28 H55 1_555 1_555
H56 C28 1_555 1_555
H57 C28 1_555 1_555
C29 C27 1_555 1_555
H58 C29 1_555 1_555
H59 C29 1_555 1_555
H60 C29 1_555 1_555
C30 C27 1_555 1_555
H61 C30 1_555 1_555
H62 C30 1_555 1_555
H63 C30 1_555 1_555
C31 N1 1_555 1_555
C32 C33 1_555 1_555
C33 C34 1_555 1_555
C34 C35 1_555 1_555
C35 C48 1_555 1_555
C36 C34 1_555 1_555
C37 C36 1_555 1_555
C38 C32 1_555 1_555
C39 C44 1_555 1_555
C40 C38 1_555 1_555
C41 C40 1_555 1_555
N1 C41 1_555 1_555
C42 N1 1_555 1_555
C43 C42 1_555 1_555
C44 C43 1_555 1_555
C45 C31 1_555 1_555
C46 C33 1_555 1_555
C47 C46 1_555 1_555
C48 C47 1_555 1_555
C49 C48 1_555 1_555
C50 C49 1_555 1_555
C51 C50 1_555 1_555
C52 C51 1_555 1_555
C53 C39 1_555 1_555
C54 C43 1_555 1_555
C55 C54 1_555 1_555
C56 C55 1_555 1_555
C57 C42 1_555 1_555
C58 C41 1_555 1_555
C59 C58 1_555 1_555
C60 C59 1_555 1_555
C61 C40 1_555 1_555
C62 C37 1_555 1_555
C63 C62 1_555 1_555
C64 C63 1_555 1_555
C65 C36 1_555 1_555
C66 C35 1_555 1_555
C67 C66 1_555 1_555
C68 C49 1_555 1_555
C69 C68 1_555 1_555
C70 C51 1_555 1_555
C71 C70 1_555 1_555
C72 C52 1_555 1_555
C73 C55 1_555 1_555
C74 C73 1_555 1_555
C75 C56 1_555 1_555
C76 C59 1_555 1_555
C77 C76 1_555 1_555
C78 C77 1_555 1_555
C79 C74 1_555 1_555
C80 C71 1_555 1_555
C81 C80 1_555 1_555
C82 C69 1_555 1_555
C83 C67 1_555 1_555
C84 C64 1_555 1_555
C85 C84 1_555 1_555
C86 C63 1_555 1_555
C87 C60 1_555 1_555
C88 C78 1_555 1_555
C89 C39 1_555 1_555
N2 C31 1_555 1_555
H64 N2 1_555 1_555
N3 C1 1_555 1_555
N4 C7 1_555 1_555
N5 C13 1_555 1_555
O1 C40 1_555 1_555
H65 O1 1_555 1_555
O2 C43 1_555 1_555
O3 C19 1_555 1_555
O4 C56 1_555 1_555
O5 C23 1_555 1_555
O6 C59 1_555 1_555
O7 C27 1_555 1_555
C90 H66 1_555 1_555
H67 C90 1_555 1_555
H68 C90 1_555 1_555
O8 C90 1_555 1_555
H69 O8 1_555 1_555
C91 H70 1_555 1_555
H71 C91 1_555 1_555
H72 C91 1_555 1_555
O9 C91 1_555 1_555
H73 O9 1_555 1_555
C5 N3 1_555 1_555
C11 N4 1_555 1_555
C17 N5 1_555 1_555
C31 N3 1_555 1_555
C32 N2 1_555 1_555
C32 N4 1_555 1_555
C36 N5 1_555 1_555
C37 C38 1_555 1_555
C44 C45 1_555 1_555
C45 C46 1_555 1_555
C47 C89 1_555 1_555
C50 C89 1_555 1_555
C52 C53 1_555 1_555
C53 C54 1_555 1_555
C56 C57 1_555 1_555
C57 C58 1_555 1_555
C60 C61 1_555 1_555
C61 C62 1_555 1_555
C64 C65 1_555 1_555
C65 C66 1_555 1_555
C67 C68 1_555 1_555
C69 C70 1_555 1_555
C71 C72 1_555 1_555
C72 C73 1_555 1_555
C74 C75 1_555 1_555
C75 C76 1_555 1_555
C77 C87 1_555 1_555
C78 C79 1_555 1_555
C79 C80 1_555 1_555
C81 C82 1_555 1_555
C81 C88 1_555 1_555
C82 C83 1_555 1_555
C83 C84 1_555 1_555
C85 C86 1_555 1_555
C85 C88 1_555 1_555
C86 C87 1_555 1_555
O2 O3 1_555 1_555
O4 O5 1_555 1_555
O6 O7 1_555 1_555

#END
