
#######################################################################
#
#                 Cambridge Crystallographic Data Centre
#                                CCDC 
#
#######################################################################
#
# If this CIF has been generated from an entry in the Cambridge 
# Structural Database, then it will include bibliographic, chemical, 
# crystal, experimental, refinement or atomic coordinate data resulting 
# from the CCDC's data processing and validation procedures.
#
#######################################################################

data_OVIBEC01
_chemical_formula_moiety         'C15 H16 O6'
_chemical_name_systematic        
1,4,8,9a-tetrahydroxy-3,4a-dimethyl-1,4,4a,9a-tetrahydro-9H-xanthen-9-one
_symmetry_cell_setting           monoclinic
_symmetry_space_group_name_H-M   'P 21'
_symmetry_Int_Tables_number      4
_space_group_name_Hall           'P 2yb'
loop_
_symmetry_equiv_pos_site_id
_symmetry_equiv_pos_as_xyz
1 x,y,z
2 -x,1/2+y,-z
_cell_length_a                   11.1354(7)
_cell_length_b                   7.0346(4)
_cell_length_c                   17.2367(11)
_cell_angle_alpha                90
_cell_angle_beta                 90.098(4)
_cell_angle_gamma                90
_cell_volume                     1350.2
_cell_formula_units_Z            4
loop_
_atom_site_label
_atom_site_type_symbol
_atom_site_fract_x
_atom_site_fract_y
_atom_site_fract_z
O1 O 0.5580(3) 0.4405(4) 0.81684(18)
O2 O 0.7063(3) 0.3986(4) 0.9382(2)
O3 O 0.7889(3) 0.6070(5) 0.8150(2)
O4 O 0.6443(4) 1.0601(4) 0.8579(2)
O5 O 0.6828(3) 0.9204(5) 0.7092(2)
O6 O 0.6065(4) 0.7861(6) 0.5772(2)
C1 C 0.6716(3) 0.7061(6) 0.9892(2)
C2 C 0.7211(4) 0.8982(5) 0.8704(3)
C3 C 0.6839(3) 0.7225(5) 0.8227(2)
C4 C 0.5481(4) 0.4587(6) 0.7381(3)
C5 C 0.5802(3) 0.6140(5) 0.8609(2)
C6 C 0.6171(4) 0.5449(5) 0.9422(2)
C7 C 0.6517(4) 0.7698(6) 0.7394(2)
C8 C 0.5880(4) 0.6200(6) 0.6988(3)
C9 C 0.5721(4) 0.6284(8) 0.6167(3)
C10 C 0.4965(5) 0.3066(7) 0.6987(3)
C11 C 0.5218(5) 0.4782(8) 0.5777(3)
C12 C 0.4651(4) 0.7259(6) 0.8651(3)
C13 C 0.7174(4) 0.8598(6) 0.9561(3)
C14 C 0.6705(4) 0.6780(7) 1.0758(3)
C15 C 0.4866(5) 0.3208(8) 0.6178(3)
H1 H 0.4695(5) 0.1995(7) 0.7251(3)
H2 H 0.4548(5) 0.2187(8) 0.5904(3)
H3 H 0.5117(5) 0.4837(8) 0.5242(3)
H4 H 0.760(3) 0.422(5) 0.969(3)
H5 H 0.791(4) 0.529(7) 0.851(2)
H6 H 0.672(4) 1.153(3) 0.881(4)
H7 H 0.633(7) 0.865(5) 0.6077(6)
H8 H 0.8033(4) 0.9333(5) 0.8561(3)
H9 H 0.5462(4) 0.4960(5) 0.9692(2)
H10 H 0.4456(19) 0.774(5) 0.8146(5)
H11 H 0.4015(8) 0.6448(15) 0.883(2)
H12 H 0.4749(12) 0.830(3) 0.9006(17)
H13 H 0.7501(4) 0.9516(6) 0.9887(3)
H14 H 0.5894(6) 0.684(6) 1.0943(4)
H15 H 0.704(3) 0.556(3) 1.0881(3)
H16 H 0.717(3) 0.776(4) 1.1001(3)
O7 O 0.9417(3) 0.5597(4) 0.31713(18)
O8 O 0.7121(3) 0.3943(5) 0.31487(19)
O9 O 0.7928(3) 0.6021(4) 0.4385(2)
O10 O 0.8563(4) -0.0597(4) 0.3585(2)
O11 O 0.8167(3) 0.0799(5) 0.2088(2)
O12 O 0.8937(4) 0.2146(6) 0.0773(2)
C16 C 0.8157(3) 0.2776(5) 0.3237(2)
C17 C 0.9186(3) 0.3860(5) 0.3604(2)
C18 C 1.0342(4) 0.2746(6) 0.3656(3)
C19 C 0.9111(4) 0.3790(6) 0.1986(3)
C20 C 0.9526(4) 0.5419(6) 0.2380(2)
C21 C 0.8492(4) 0.2318(6) 0.2394(3)
C22 C 0.7800(4) 0.1029(5) 0.3707(3)
C23 C 0.7817(4) 0.1413(6) 0.4560(3)
C24 C 0.8293(4) 0.2945(6) 0.4896(3)
C25 C 0.8816(4) 0.4546(5) 0.4420(3)
C26 C 1.0037(4) 0.6933(6) 0.1993(3)
C27 C 0.9765(5) 0.5227(8) 0.0783(3)
C28 C 0.9276(4) 0.3720(7) 0.1165(3)
C29 C 0.8284(4) 0.3209(7) 0.5757(3)
C30 C 1.0138(5) 0.6803(8) 0.1180(3)
H17 H 1.0305(4) 0.8001(6) 0.2260(3)
H18 H 1.0468(5) 0.7816(8) 0.0906(3)
H19 H 0.9846(5) 0.5183(8) 0.0246(3)
H20 H 0.705(4) 0.463(7) 0.3529(19)
H21 H 0.822(2) 0.697(4) 0.418(4)
H22 H 0.844(5) -0.104(7) 0.3153(17)
H23 H 0.877(8) 0.130(4) 0.1082(3)
H24 H 1.0539(19) 0.224(5) 0.3154(5)
H25 H 1.0976(8) 0.3566(15) 0.383(2)
H26 H 1.0245(11) 0.172(3) 0.4017(17)
H27 H 0.6980(4) 0.0675(5) 0.3559(3)
H28 H 0.7468(4) 0.0509(6) 0.4882(3)
H29 H 0.9528(4) 0.5039(5) 0.4687(3)
H30 H 0.783(3) 0.220(3) 0.5993(3)
H31 H 0.9093(5) 0.318(6) 0.5949(4)
H32 H 0.792(3) 0.441(3) 0.5880(3)
loop_
_geom_bond_atom_site_label_1
_geom_bond_atom_site_label_2
_geom_bond_site_symmetry_1
_geom_bond_site_symmetry_2
O1 C4 1_555 1_555
O2 C6 1_555 1_555
O3 C3 1_555 1_555
O4 C2 1_555 1_555
O5 C7 1_555 1_555
O6 C9 1_555 1_555
C1 C6 1_555 1_555
C2 C3 1_555 1_555
C3 C5 1_555 1_555
C4 C8 1_555 1_555
C5 O1 1_555 1_555
C6 C5 1_555 1_555
C7 C3 1_555 1_555
C8 C7 1_555 1_555
C9 C8 1_555 1_555
C10 C4 1_555 1_555
C11 C9 1_555 1_555
C12 C5 1_555 1_555
C13 C1 1_555 1_555
C14 C1 1_555 1_555
C15 C10 1_555 1_555
H1 C10 1_555 1_555
H2 C15 1_555 1_555
H3 C11 1_555 1_555
H4 O2 1_555 1_555
H5 O3 1_555 1_555
H6 O4 1_555 1_555
H7 O6 1_555 1_555
H8 C2 1_555 1_555
H9 C6 1_555 1_555
H10 C12 1_555 1_555
H11 C12 1_555 1_555
H12 C12 1_555 1_555
H13 C13 1_555 1_555
H14 C14 1_555 1_555
H15 C14 1_555 1_555
H16 C14 1_555 1_555
O7 C17 1_555 1_555
O8 C16 1_555 1_555
O9 C25 1_555 1_555
O10 C22 1_555 1_555
O11 C21 1_555 1_555
O12 C28 1_555 1_555
C16 C17 1_555 1_555
C17 C18 1_555 1_555
C18 H24 1_555 1_555
C19 C20 1_555 1_555
C20 O7 1_555 1_555
C21 C16 1_555 1_555
C22 C16 1_555 1_555
C23 C22 1_555 1_555
C24 C23 1_555 1_555
C25 C17 1_555 1_555
C26 C20 1_555 1_555
C27 C28 1_555 1_555
C28 C19 1_555 1_555
C29 C24 1_555 1_555
C30 C26 1_555 1_555
H17 C26 1_555 1_555
H18 C30 1_555 1_555
H19 C27 1_555 1_555
H20 O8 1_555 1_555
H21 O9 1_555 1_555
H22 O10 1_555 1_555
H23 O12 1_555 1_555
H25 C18 1_555 1_555
H26 C18 1_555 1_555
H27 C22 1_555 1_555
H28 C23 1_555 1_555
H29 C25 1_555 1_555
H30 C29 1_555 1_555
H31 C29 1_555 1_555
H32 C29 1_555 1_555
C2 C13 1_555 1_555
C11 C15 1_555 1_555
C19 C21 1_555 1_555
C24 C25 1_555 1_555
C27 C30 1_555 1_555

#END
