
#######################################################################
#
#                 Cambridge Crystallographic Data Centre
#                                CCDC 
#
#######################################################################
#
# If this CIF has been generated from an entry in the Cambridge 
# Structural Database, then it will include bibliographic, chemical, 
# crystal, experimental, refinement or atomic coordinate data resulting 
# from the CCDC's data processing and validation procedures.
#
#######################################################################

data_OVIFUV
_chemical_formula_moiety         'C6 H7 N5 O2,H2 O1'
_chemical_name_systematic        
'5-(5-Amino-3-methyl-1,2-oxazol-4-yl)-1,3,4-oxadiazol-2-amine monohydrate'
_symmetry_cell_setting           monoclinic
_symmetry_space_group_name_H-M   'P 21/c'
_symmetry_Int_Tables_number      14
_space_group_name_Hall           '-P 2ybc'
loop_
_symmetry_equiv_pos_site_id
_symmetry_equiv_pos_as_xyz
1 x,y,z
2 -x,1/2+y,1/2-z
3 -x,-y,-z
4 x,1/2-y,1/2+z
_cell_length_a                   9.098(2)
_cell_length_b                   10.630(2)
_cell_length_c                   9.054(2)
_cell_angle_alpha                90
_cell_angle_beta                 95.12(3)
_cell_angle_gamma                90
_cell_volume                     872.134
_exptl_crystal_colour            colorless
_exptl_crystal_description       block
_cell_formula_units_Z            4
loop_
_atom_site_label
_atom_site_type_symbol
_atom_site_fract_x
_atom_site_fract_y
_atom_site_fract_z
O1 O 0.09965(13) 0.48028(12) 0.35744(14)
O2 O 0.43401(11) 0.42425(10) 0.69529(12)
N1 N 0.05368(16) 0.35268(16) 0.33542(17)
N2 N 0.27213(17) 0.59439(16) 0.49540(18)
N3 N 0.40825(14) 0.21870(14) 0.66821(15)
N4 N 0.52452(15) 0.24295(14) 0.78089(15)
N5 N 0.62696(18) 0.43640(18) 0.87509(18)
C1 C 0.14058(17) 0.28493(17) 0.42673(18)
C2 C 0.24449(16) 0.36208(16) 0.51107(17)
C3 C 0.21391(16) 0.48240(16) 0.46241(17)
C4 C 0.1225(2) 0.14663(19) 0.4318(2)
H1 H 0.0365 0.1225 0.3690
H2 H 0.1113 0.1209 0.5318
H3 H 0.2080 0.1067 0.3978
C5 C 0.35977(15) 0.32620(15) 0.62233(16)
C6 C 0.53434(16) 0.36366(16) 0.79070(16)
H6 H 0.234(2) 0.664(2) 0.452(2)
H7 H 0.350(3) 0.601(3) 0.564(3)
H8 H 0.621(2) 0.520(3) 0.866(2)
H9 H 0.686(3) 0.399(2) 0.934(3)
O3 O -0.20674(15) 0.33367(13) 0.14149(14)
H4 H -0.124(3) 0.341(2) 0.201(3)
H5 H -0.281(3) 0.328(2) 0.200(3)
loop_
_geom_bond_atom_site_label_1
_geom_bond_atom_site_label_2
_geom_bond_site_symmetry_1
_geom_bond_site_symmetry_2
O1 N1 1_555 1_555
O2 C5 1_555 1_555
O3 H4 1_555 1_555
N1 C1 1_555 1_555
N2 C3 1_555 1_555
N3 N4 1_555 1_555
N4 C6 1_555 1_555
N5 C6 1_555 1_555
C1 C2 1_555 1_555
C2 C3 1_555 1_555
C3 O1 1_555 1_555
C4 C1 1_555 1_555
H1 C4 1_555 1_555
H2 C4 1_555 1_555
H3 C4 1_555 1_555
C5 N3 1_555 1_555
C6 O2 1_555 1_555
H5 O3 1_555 1_555
H6 N2 1_555 1_555
H7 N2 1_555 1_555
H8 N5 1_555 1_555
H9 N5 1_555 1_555
C2 C5 1_555 1_555

#END
