
#######################################################################
#
#                 Cambridge Crystallographic Data Centre
#                                CCDC 
#
#######################################################################
#
# If this CIF has been generated from an entry in the Cambridge 
# Structural Database, then it will include bibliographic, chemical, 
# crystal, experimental, refinement or atomic coordinate data resulting 
# from the CCDC's data processing and validation procedures.
#
#######################################################################

data_OVILIQ
_chemical_formula_moiety         'C31 H28 Br1 N3 O2 S1'
_chemical_name_systematic        
9-benzyl-6-bromo-4a-methyl-1-((4-methylphenyl)sulfonyl)-3-phenyl-4,4a,9,9a-tetrahydro-1H-pyridazino[3,4-b]indole
_symmetry_cell_setting           monoclinic
_symmetry_space_group_name_H-M   'C 2/c'
_symmetry_Int_Tables_number      15
_space_group_name_Hall           '-C 2yn'
loop_
_symmetry_equiv_pos_site_id
_symmetry_equiv_pos_as_xyz
1 x,y,z
2 -x,y,1/2-z
3 1/2+x,1/2+y,z
4 1/2-x,1/2+y,1/2-z
5 -x,-y,-z
6 x,-y,1/2+z
7 1/2-x,1/2-y,-z
8 1/2+x,1/2-y,1/2+z
_cell_length_a                   14.099(3)
_cell_length_b                   16.399(3)
_cell_length_c                   23.964(5)
_cell_angle_alpha                90
_cell_angle_beta                 94.36(3)
_cell_angle_gamma                90
_cell_volume                     5524.67
_exptl_crystal_colour            colorless
_exptl_crystal_description       block
_cell_formula_units_Z            8
loop_
_atom_site_label
_atom_site_type_symbol
_atom_site_fract_x
_atom_site_fract_y
_atom_site_fract_z
Br1 Br 0.75388(3) 0.05670(2) 0.49402(2)
S1 S 0.68659(6) -0.30351(4) 0.20108(3)
O1 O 0.61726(18) -0.33090(14) 0.23720(9)
O2 O 0.75635(17) -0.35923(12) 0.18380(10)
N1 N 0.76432(16) -0.23007(13) 0.33704(9)
N2 N 0.74407(17) -0.22774(14) 0.23495(9)
N3 N 0.80125(16) -0.18767(13) 0.19876(9)
C1 C 0.7586(2) -0.03659(18) 0.44694(10)
C2 C 0.74102(19) -0.02592(16) 0.38923(10)
H1 H 0.7277 0.0253 0.3740
C3 C 0.74402(17) -0.09385(15) 0.35583(10)
C4 C 0.76486(17) -0.17073(15) 0.37889(10)
C5 C 0.7836(2) -0.18035(18) 0.43644(11)
H2 H 0.7979 -0.2313 0.4518
C6 C 0.7802(2) -0.11185(18) 0.47016(11)
H3 H 0.7927 -0.1167 0.5087
C7 C 0.73455(17) -0.10190(15) 0.29259(9)
C8 C 0.71375(18) -0.19390(15) 0.28707(10)
H4 H 0.6453 -0.2030 0.2886
C9 C 0.7458(2) -0.31485(16) 0.35128(12)
H5 H 0.7020 -0.3380 0.3223
H6 H 0.7149 -0.3161 0.3861
C10 C 0.83378(19) -0.36761(16) 0.35764(10)
C11 C 0.9186(2) -0.34524(19) 0.33647(13)
H7 H 0.9238 -0.2954 0.3185
C12 C 0.9960(2) -0.3978(2) 0.34227(16)
H8 H 1.0533 -0.3828 0.3284
C13 C 0.9884(3) -0.4720(2) 0.36846(15)
H9 H 1.0406 -0.5069 0.3721
C14 C 0.9042(2) -0.49482(19) 0.38923(12)
H10 H 0.8991 -0.5449 0.4069
C15 C 0.8271(2) -0.44262(16) 0.38358(10)
H11 H 0.7699 -0.4581 0.3974
C16 C 0.6573(2) -0.05103(16) 0.26143(10)
H12 H 0.5969 -0.0635 0.2754
H13 H 0.6551 -0.0633 0.2222
H14 H 0.6710 0.0058 0.2671
C17 C 0.83291(18) -0.08485(16) 0.27140(10)
H15 H 0.8428 -0.0264 0.2697
H16 H 0.8817 -0.1074 0.2976
C18 C 0.84226(17) -0.12121(15) 0.21450(10)
C19 C 0.90083(17) -0.08177(16) 0.17300(10)
C20 C 0.92659(19) -0.00037(17) 0.17733(11)
H17 H 0.9098 0.0301 0.2078
C21 C 0.9774(2) 0.03617(19) 0.13654(13)
H18 H 0.9935 0.0911 0.1396
C22 C 1.0040(2) -0.0087(2) 0.09159(13)
H19 H 1.0373 0.0160 0.0641
C23 C 0.9809(2) -0.0899(2) 0.08767(13)
H20 H 1.0000 -0.1205 0.0578
C24 C 0.9295(2) -0.12696(19) 0.12786(12)
H21 H 0.9142 -0.1820 0.1247
C25 C 0.6277(2) -0.26068(16) 0.14061(11)
C26 C 0.5387(2) -0.22715(19) 0.14381(13)
H22 H 0.5109 -0.2261 0.1778
C27 C 0.4911(2) -0.1953(2) 0.09651(15)
H23 H 0.4311 -0.1727 0.0988
C28 C 0.5314(2) -0.1965(2) 0.04540(14)
C29 C 0.6205(2) -0.2319(2) 0.04317(13)
H24 H 0.6480 -0.2343 0.0091
C30 C 0.6690(2) -0.26359(19) 0.09040(12)
H25 H 0.7289 -0.2866 0.0884
C31 C 0.4809(3) -0.1589(3) -0.00580(18)
H26 H 0.4145 -0.1532 -0.0003
H27 H 0.4883 -0.1934 -0.0376
H28 H 0.5076 -0.1063 -0.0123
loop_
_geom_bond_atom_site_label_1
_geom_bond_atom_site_label_2
_geom_bond_site_symmetry_1
_geom_bond_site_symmetry_2
Br1 C1 1_555 1_555
S1 O1 1_555 1_555
O2 S1 1_555 1_555
N1 C4 1_555 1_555
N2 S1 1_555 1_555
N3 N2 1_555 1_555
C1 C2 1_555 1_555
C2 H1 1_555 1_555
C3 C2 1_555 1_555
C4 C3 1_555 1_555
C5 C4 1_555 1_555
H2 C5 1_555 1_555
C6 C1 1_555 1_555
H3 C6 1_555 1_555
C7 C3 1_555 1_555
C8 N1 1_555 1_555
H4 C8 1_555 1_555
C9 N1 1_555 1_555
H5 C9 1_555 1_555
H6 C9 1_555 1_555
C10 C9 1_555 1_555
C11 C10 1_555 1_555
H7 C11 1_555 1_555
C12 C11 1_555 1_555
H8 C12 1_555 1_555
C13 C12 1_555 1_555
H9 C13 1_555 1_555
C14 C13 1_555 1_555
H10 C14 1_555 1_555
C15 C10 1_555 1_555
H11 C15 1_555 1_555
C16 C7 1_555 1_555
H12 C16 1_555 1_555
H13 C16 1_555 1_555
H14 C16 1_555 1_555
C17 C7 1_555 1_555
H15 C17 1_555 1_555
H16 C17 1_555 1_555
C18 N3 1_555 1_555
C19 C18 1_555 1_555
C20 C19 1_555 1_555
H17 C20 1_555 1_555
C21 C20 1_555 1_555
H18 C21 1_555 1_555
C22 C21 1_555 1_555
H19 C22 1_555 1_555
C23 C22 1_555 1_555
H20 C23 1_555 1_555
C24 C19 1_555 1_555
H21 C24 1_555 1_555
C25 S1 1_555 1_555
C26 C25 1_555 1_555
H22 C26 1_555 1_555
C27 C26 1_555 1_555
H23 C27 1_555 1_555
C28 C27 1_555 1_555
C29 C28 1_555 1_555
H24 C29 1_555 1_555
C30 C25 1_555 1_555
H25 C30 1_555 1_555
C31 C28 1_555 1_555
H26 C31 1_555 1_555
H27 C31 1_555 1_555
H28 C31 1_555 1_555
N2 C8 1_555 1_555
C5 C6 1_555 1_555
C7 C8 1_555 1_555
C14 C15 1_555 1_555
C17 C18 1_555 1_555
C23 C24 1_555 1_555
C29 C30 1_555 1_555

#END
