
#######################################################################
#
#                 Cambridge Crystallographic Data Centre
#                                CCDC 
#
#######################################################################
#
# If this CIF has been generated from an entry in the Cambridge 
# Structural Database, then it will include bibliographic, chemical, 
# crystal, experimental, refinement or atomic coordinate data resulting 
# from the CCDC's data processing and validation procedures.
#
#######################################################################

data_OVINEN
_chemical_formula_moiety         'C28 H26 N2 S1'
_chemical_name_systematic        
2,4,6-Trimethyl-N-(2-((2-(phenylsulfanyl)phenyl)amino)benzylidene)aniline
_symmetry_cell_setting           monoclinic
_symmetry_space_group_name_H-M   'C 2/c'
_symmetry_Int_Tables_number      15
_space_group_name_Hall           '-C 2yn'
loop_
_symmetry_equiv_pos_site_id
_symmetry_equiv_pos_as_xyz
1 x,y,z
2 -x,y,1/2-z
3 1/2+x,1/2+y,z
4 1/2-x,1/2+y,1/2-z
5 -x,-y,-z
6 x,-y,1/2+z
7 1/2-x,1/2-y,-z
8 1/2+x,1/2-y,1/2+z
_cell_length_a                   35.541(8)
_cell_length_b                   8.540(2)
_cell_length_c                   16.126(4)
_cell_angle_alpha                90
_cell_angle_beta                 108.397(4)
_cell_angle_gamma                90
_cell_volume                     4644.42
_exptl_crystal_colour            yellow
_exptl_crystal_description       block
_cell_formula_units_Z            8
loop_
_atom_site_label
_atom_site_type_symbol
_atom_site_fract_x
_atom_site_fract_y
_atom_site_fract_z
S1 S 0.08837(2) 1.25443(11) 0.49122(6)
N1 N 0.16820(8) 1.2285(3) 0.6313(2)
N2 N 0.13183(7) 0.9972(3) 0.69454(17)
C1 C 0.19468(8) 1.2397(4) 0.7145(2)
C2 C 0.22404(8) 1.3542(3) 0.7398(2)
H1 H 0.2256 1.4302 0.6997
C3 C 0.25042(9) 1.3568(4) 0.8217(2)
H2 H 0.2698 1.4344 0.8362
C4 C 0.24938(8) 1.2483(4) 0.8840(2)
H3 H 0.2682 1.2486 0.9393
C5 C 0.21928(9) 1.1392(4) 0.8613(2)
H4 H 0.2174 1.0677 0.9034
C6 C 0.19178(8) 1.1312(3) 0.7789(2)
C7 C 0.16120(9) 1.0107(3) 0.7627(2)
H5 H 0.1636 0.9371 0.8066
C8 C 0.16961(10) 1.2936(3) 0.5526(2)
C9 C 0.20574(9) 1.3349(3) 0.5407(2)
H6 H 0.2295 1.3182 0.5852
C10 C 0.20582(11) 1.4008(4) 0.4623(3)
H7 H 0.2298 1.4301 0.4552
C11 C 0.17153(12) 1.4236(4) 0.3953(2)
H8 H 0.1720 1.4711 0.3438
C12 C 0.13604(11) 1.3751(4) 0.4052(2)
H9 H 0.1126 1.3860 0.3591
C13 C 0.13516(9) 1.3106(3) 0.4833(2)
C14 C 0.08705(10) 1.0511(4) 0.4689(2)
C15 C 0.11712(10) 0.9695(4) 0.4523(2)
H10 H 0.1402 1.0210 0.4522
C16 C 0.11306(12) 0.8093(5) 0.4358(2)
H11 H 0.1334 0.7532 0.4249
C17 C 0.07867(14) 0.7343(5) 0.4355(2)
H12 H 0.0757 0.6275 0.4241
C18 C 0.04927(12) 0.8162(5) 0.4519(3)
H13 H 0.0262 0.7648 0.4522
C19 C 0.05297(10) 0.9746(5) 0.4682(2)
H14 H 0.0324 1.0298 0.4788
C20 C 0.10470(9) 0.8717(4) 0.6873(2)
C21 C 0.11461(9) 0.7196(4) 0.6705(2)
C22 C 0.08653(11) 0.6039(4) 0.6593(2)
H15 H 0.0930 0.5020 0.6486
C23 C 0.04943(11) 0.6337(5) 0.6633(2)
C24 C 0.04033(9) 0.7845(5) 0.6800(2)
H16 H 0.0152 0.8056 0.6837
C25 C 0.06721(10) 0.9058(4) 0.6915(2)
C26 C 0.15419(8) 0.6842(3) 0.6592(2)
H17 H 0.1546 0.5773 0.6410
H18 H 0.1748 0.7003 0.7136
H19 H 0.1584 0.7525 0.6156
C27 C 0.05576(9) 1.0700(4) 0.7059(2)
H20 H 0.0720 1.1058 0.7623
H21 H 0.0284 1.0724 0.7032
H22 H 0.0596 1.1371 0.6615
C28 C 0.01862(10) 0.5029(4) 0.6473(3)
H23 H 0.0270 0.4267 0.6933
H24 H 0.0159 0.4536 0.5922
H25 H -0.0064 0.5461 0.6464
H26 H 0.1463(8) 1.175(3) 0.626(2)
loop_
_geom_bond_atom_site_label_1
_geom_bond_atom_site_label_2
_geom_bond_site_symmetry_1
_geom_bond_site_symmetry_2
S1 C13 1_555 1_555
N1 C1 1_555 1_555
N2 C7 1_555 1_555
C1 C2 1_555 1_555
C2 H1 1_555 1_555
C3 C2 1_555 1_555
H2 C3 1_555 1_555
C4 C3 1_555 1_555
H3 C4 1_555 1_555
C5 C4 1_555 1_555
H4 C5 1_555 1_555
C6 C1 1_555 1_555
C7 C6 1_555 1_555
H5 C7 1_555 1_555
C8 N1 1_555 1_555
C9 C8 1_555 1_555
H6 C9 1_555 1_555
C10 C9 1_555 1_555
H7 C10 1_555 1_555
C11 C10 1_555 1_555
H8 C11 1_555 1_555
C12 C11 1_555 1_555
H9 C12 1_555 1_555
C13 C8 1_555 1_555
C14 S1 1_555 1_555
C15 C14 1_555 1_555
H10 C15 1_555 1_555
C16 C15 1_555 1_555
H11 C16 1_555 1_555
C17 C16 1_555 1_555
H12 C17 1_555 1_555
C18 C17 1_555 1_555
H13 C18 1_555 1_555
C19 C14 1_555 1_555
H14 C19 1_555 1_555
C20 N2 1_555 1_555
C21 C20 1_555 1_555
C22 C21 1_555 1_555
H15 C22 1_555 1_555
C23 C22 1_555 1_555
C24 C23 1_555 1_555
H16 C24 1_555 1_555
C25 C20 1_555 1_555
C26 C21 1_555 1_555
H17 C26 1_555 1_555
H18 C26 1_555 1_555
H19 C26 1_555 1_555
C27 C25 1_555 1_555
H20 C27 1_555 1_555
H21 C27 1_555 1_555
H22 C27 1_555 1_555
C28 C23 1_555 1_555
H23 C28 1_555 1_555
H24 C28 1_555 1_555
H25 C28 1_555 1_555
H26 N1 1_555 1_555
C5 C6 1_555 1_555
C12 C13 1_555 1_555
C18 C19 1_555 1_555
C24 C25 1_555 1_555

#END
