
#######################################################################
#
#                 Cambridge Crystallographic Data Centre
#                                CCDC 
#
#######################################################################
#
# If this CIF has been generated from an entry in the Cambridge 
# Structural Database, then it will include bibliographic, chemical, 
# crystal, experimental, refinement or atomic coordinate data resulting 
# from the CCDC's data processing and validation procedures.
#
#######################################################################

data_OVINAJ
_chemical_formula_moiety         'C31 H32 N2 S1'
_chemical_name_systematic        
2,6-Di-isopropyl-N-(2-((2-(phenylsulfanyl)phenyl)amino)benzylidene)aniline
_symmetry_cell_setting           monoclinic
_symmetry_space_group_name_H-M   'P 21/c'
_symmetry_Int_Tables_number      14
_space_group_name_Hall           '-P 2ybc'
loop_
_symmetry_equiv_pos_site_id
_symmetry_equiv_pos_as_xyz
1 x,y,z
2 -x,1/2+y,1/2-z
3 -x,-y,-z
4 x,1/2-y,1/2+z
_cell_length_a                   14.352(6)
_cell_length_b                   38.303(15)
_cell_length_c                   10.056(4)
_cell_angle_alpha                90
_cell_angle_beta                 107.106(6)
_cell_angle_gamma                90
_cell_volume                     5283.48
_exptl_crystal_colour            yellow
_exptl_crystal_description       prism
_cell_formula_units_Z            8
loop_
_atom_site_label
_atom_site_type_symbol
_atom_site_fract_x
_atom_site_fract_y
_atom_site_fract_z
S1 S 0.68325(6) 0.11948(2) 0.86693(10)
N1 N 0.78829(19) 0.17076(7) 0.7373(3)
N2 N 0.69447(16) 0.14542(5) 0.4762(2)
C1 C 0.8598(2) 0.18223(7) 0.6799(3)
C2 C 0.9440(2) 0.19880(7) 0.7590(3)
H1 H 0.9533 0.2024 0.8534
C3 C 1.0135(2) 0.20984(8) 0.7003(4)
H2 H 1.0691 0.2209 0.7553
C4 C 1.0023(2) 0.20481(9) 0.5624(4)
H3 H 1.0492 0.2128 0.5227
C5 C 0.9210(2) 0.18784(8) 0.4832(4)
H4 H 0.9138 0.1841 0.3894
C6 C 0.84872(19) 0.17609(7) 0.5390(3)
C7 C 0.7643(2) 0.15968(7) 0.4436(3)
H5 H 0.7611 0.1596 0.3499
C8 C 0.7657(2) 0.18391(9) 0.8530(3)
C9 C 0.7166(2) 0.16239(8) 0.9229(3)
C10 C 0.6882(2) 0.17529(11) 1.0328(4)
H6 H 0.6542 0.1611 1.0776
C11 C 0.7102(3) 0.20910(13) 1.0763(4)
H7 H 0.6920 0.2176 1.1516
C12 C 0.7586(3) 0.23024(10) 1.0095(4)
H8 H 0.7736 0.2530 1.0402
C13 C 0.7851(2) 0.21822(9) 0.8980(4)
H9 H 0.8163 0.2331 0.8517
C14 C 0.7938(3) 0.09609(10) 0.9257(5)
C15 C 0.8691(3) 0.10559(11) 1.0326(5)
H10 H 0.8668 0.1268 1.0765
C16 C 0.9514(3) 0.08449(16) 1.0802(6)
H11 H 1.0031 0.0915 1.1555
C17 C 0.9550(5) 0.05485(17) 1.0181(10)
H12 H 1.0100 0.0408 1.0504
C18 C 0.8823(6) 0.04397(16) 0.9097(8)
H13 H 0.8863 0.0227 0.8670
C19 C 0.8005(4) 0.06511(14) 0.8619(5)
H14 H 0.7497 0.0581 0.7855
C20 C 0.61406(19) 0.13381(7) 0.3638(3)
C21 C 0.6141(2) 0.10026(8) 0.3116(3)
C22 C 0.5337(2) 0.09033(8) 0.2028(3)
H15 H 0.5321 0.0681 0.1649
C23 C 0.4576(2) 0.11218(10) 0.1509(3)
H16 H 0.4045 0.1049 0.0781
C24 C 0.4587(2) 0.14505(9) 0.2054(4)
H17 H 0.4062 0.1599 0.1685
C25 C 0.5358(2) 0.15661(8) 0.3134(3)
C26 C 0.6980(2) 0.07546(8) 0.3714(4)
H18 H 0.7459 0.0880 0.4460
C27 C 0.7468(4) 0.06528(16) 0.2701(6)
H19 H 0.7012 0.0539 0.1931
H20 H 0.7993 0.0496 0.3126
H21 H 0.7724 0.0857 0.2375
C28 C 0.6707(4) 0.04469(16) 0.4322(8)
H22 H 0.6153 0.0340 0.3670
H23 H 0.6544 0.0509 0.5151
H24 H 0.7242 0.0285 0.4551
C29 C 0.5367(2) 0.19277(8) 0.3770(4)
H25 H 0.6055 0.1988 0.4187
C30 C 0.4931(4) 0.19244(10) 0.4910(6)
H26 H 0.5012 0.2149 0.5351
H27 H 0.5246 0.1750 0.5577
H28 H 0.4249 0.1872 0.4553
C31 C 0.4952(3) 0.22060(10) 0.2745(5)
H29 H 0.4263 0.2170 0.2361
H30 H 0.5256 0.2199 0.2012
H31 H 0.5069 0.2429 0.3197
H64 H 0.7421(19) 0.1552(7) 0.677(3)
S2 S 0.23173(6) 0.06185(3) 0.29065(10)
N3 N 0.22144(19) 0.05982(7) -0.0045(3)
N4 N 0.19171(15) 0.13015(5) -0.0499(2)
C32 C 0.1500(2) 0.05538(7) -0.1264(3)
C33 C 0.1221(2) 0.02213(8) -0.1796(4)
H32 H 0.1539 0.0025 -0.1331
C34 C 0.0476(3) 0.01843(10) -0.3007(5)
H33 H 0.0295 -0.0039 -0.3350
C35 C -0.0008(3) 0.04655(11) -0.3728(4)
H34 H -0.0508 0.0436 -0.4552
C36 C 0.0264(2) 0.07920(9) -0.3203(4)
H35 H -0.0065 0.0985 -0.3676
C37 C 0.1012(2) 0.08427(7) -0.1992(3)
C38 C 0.12502(19) 0.12030(7) -0.1558(3)
H36 H 0.0876 0.1376 -0.2112
C39 C 0.2868(2) 0.03522(7) 0.0765(4)
C40 C 0.3045(2) 0.03495(7) 0.2191(4)
C41 C 0.3738(2) 0.01280(8) 0.2999(4)
H37 H 0.3858 0.0126 0.3959
C42 C 0.4255(3) -0.00905(8) 0.2386(5)
H38 H 0.4731 -0.0237 0.2934
C43 C 0.4067(3) -0.00918(8) 0.0978(5)
H39 H 0.4403 -0.0245 0.0565
C44 C 0.3387(2) 0.01300(8) 0.0166(4)
H40 H 0.3274 0.0131 -0.0793
C45 C 0.3084(2) 0.07044(7) 0.4588(3)
C46 C 0.3980(2) 0.08621(8) 0.4783(4)
H41 H 0.4185 0.0918 0.4014
C47 C 0.4567(2) 0.09368(8) 0.6084(4)
H42 H 0.5175 0.1037 0.6197
C48 C 0.4266(3) 0.08656(8) 0.7221(4)
H43 H 0.4666 0.0917 0.8108
C49 C 0.3372(3) 0.07174(8) 0.7045(4)
H44 H 0.3162 0.0673 0.7820
C50 C 0.2777(2) 0.06335(8) 0.5740(4)
H45 H 0.2173 0.0530 0.5635
C51 C 0.20807(18) 0.16697(6) -0.0302(3)
C52 C 0.26781(19) 0.18340(7) -0.0987(3)
C53 C 0.2819(2) 0.21925(7) -0.0804(4)
H46 H 0.3199 0.2309 -0.1270
C54 C 0.2413(2) 0.23754(8) 0.0040(4)
H47 H 0.2499 0.2616 0.0126
C55 C 0.1876(2) 0.22055(8) 0.0767(4)
H48 H 0.1627 0.2332 0.1376
C56 C 0.16950(19) 0.18489(8) 0.0614(3)
C57 C 0.3175(2) 0.16336(7) -0.1890(3)
H49 H 0.3229 0.1390 -0.1574
C58 C 0.4207(2) 0.17643(8) -0.1714(4)
H50 H 0.4183 0.2002 -0.2030
H51 H 0.4510 0.1621 -0.2252
H52 H 0.4578 0.1753 -0.0750
C59 C 0.2584(2) 0.16329(8) -0.3413(3)
H53 H 0.1955 0.1532 -0.3510
H54 H 0.2918 0.1498 -0.3937
H55 H 0.2505 0.1868 -0.3757
C60 C 0.1162(2) 0.16585(8) 0.1477(4)
H56 H 0.0898 0.1442 0.0988
C61 C 0.0321(3) 0.18601(12) 0.1730(4)
H57 H 0.0559 0.2075 0.2196
H58 H 0.0027 0.1723 0.2299
H59 H -0.0155 0.1909 0.0856
C62 C 0.1846(3) 0.15605(10) 0.2863(4)
H60 H 0.2369 0.1422 0.2728
H61 H 0.1501 0.1428 0.3378
H62 H 0.2108 0.1768 0.3370
H63 H 0.2272(18) 0.0796(7) 0.023(3)
loop_
_geom_bond_atom_site_label_1
_geom_bond_atom_site_label_2
_geom_bond_site_symmetry_1
_geom_bond_site_symmetry_2
S1 C9 1_555 1_555
N1 C1 1_555 1_555
N2 C7 1_555 1_555
C1 C2 1_555 1_555
C2 H1 1_555 1_555
C3 C2 1_555 1_555
H2 C3 1_555 1_555
C4 C3 1_555 1_555
H3 C4 1_555 1_555
C5 C4 1_555 1_555
H4 C5 1_555 1_555
C6 C1 1_555 1_555
C7 C6 1_555 1_555
H5 C7 1_555 1_555
C8 N1 1_555 1_555
C9 C8 1_555 1_555
C10 C9 1_555 1_555
H6 C10 1_555 1_555
C11 C10 1_555 1_555
H7 C11 1_555 1_555
C12 C11 1_555 1_555
H8 C12 1_555 1_555
C13 C8 1_555 1_555
H9 C13 1_555 1_555
C14 S1 1_555 1_555
C15 C14 1_555 1_555
H10 C15 1_555 1_555
C16 C15 1_555 1_555
H11 C16 1_555 1_555
C17 C16 1_555 1_555
H12 C17 1_555 1_555
C18 C17 1_555 1_555
H13 C18 1_555 1_555
C19 C14 1_555 1_555
H14 C19 1_555 1_555
C20 N2 1_555 1_555
C21 C20 1_555 1_555
C22 C21 1_555 1_555
H15 C22 1_555 1_555
C23 C22 1_555 1_555
H16 C23 1_555 1_555
C24 C23 1_555 1_555
H17 C24 1_555 1_555
C25 C20 1_555 1_555
C26 C21 1_555 1_555
H18 C26 1_555 1_555
C27 C26 1_555 1_555
H19 C27 1_555 1_555
H20 C27 1_555 1_555
H21 C27 1_555 1_555
C28 C26 1_555 1_555
H22 C28 1_555 1_555
H23 C28 1_555 1_555
H24 C28 1_555 1_555
C29 C25 1_555 1_555
H25 C29 1_555 1_555
C30 C29 1_555 1_555
H26 C30 1_555 1_555
H27 C30 1_555 1_555
H28 C30 1_555 1_555
C31 C29 1_555 1_555
H29 C31 1_555 1_555
H30 C31 1_555 1_555
H31 C31 1_555 1_555
S2 C40 1_555 1_555
N3 C32 1_555 1_555
N4 C38 1_555 1_555
C32 C33 1_555 1_555
C33 H32 1_555 1_555
C34 C33 1_555 1_555
H33 C34 1_555 1_555
C35 C34 1_555 1_555
H34 C35 1_555 1_555
C36 C35 1_555 1_555
H35 C36 1_555 1_555
C37 C32 1_555 1_555
C38 C37 1_555 1_555
H36 C38 1_555 1_555
C39 N3 1_555 1_555
C40 C39 1_555 1_555
C41 C40 1_555 1_555
H37 C41 1_555 1_555
C42 C41 1_555 1_555
H38 C42 1_555 1_555
C43 C42 1_555 1_555
H39 C43 1_555 1_555
C44 C39 1_555 1_555
H40 C44 1_555 1_555
C45 S2 1_555 1_555
C46 C45 1_555 1_555
H41 C46 1_555 1_555
C47 C46 1_555 1_555
H42 C47 1_555 1_555
C48 C47 1_555 1_555
H43 C48 1_555 1_555
C49 C48 1_555 1_555
H44 C49 1_555 1_555
C50 C45 1_555 1_555
H45 C50 1_555 1_555
C51 N4 1_555 1_555
C52 C51 1_555 1_555
C53 C52 1_555 1_555
H46 C53 1_555 1_555
C54 C53 1_555 1_555
H47 C54 1_555 1_555
C55 C54 1_555 1_555
H48 C55 1_555 1_555
C56 C51 1_555 1_555
C57 C52 1_555 1_555
H49 C57 1_555 1_555
C58 C57 1_555 1_555
H50 C58 1_555 1_555
H51 C58 1_555 1_555
H52 C58 1_555 1_555
C59 C57 1_555 1_555
H53 C59 1_555 1_555
H54 C59 1_555 1_555
H55 C59 1_555 1_555
C60 C56 1_555 1_555
H56 C60 1_555 1_555
C61 C60 1_555 1_555
H57 C61 1_555 1_555
H58 C61 1_555 1_555
H59 C61 1_555 1_555
C62 C60 1_555 1_555
H60 C62 1_555 1_555
H61 C62 1_555 1_555
H62 C62 1_555 1_555
H63 N3 1_555 1_555
H64 N1 1_555 1_555
C5 C6 1_555 1_555
C12 C13 1_555 1_555
C18 C19 1_555 1_555
C24 C25 1_555 1_555
C36 C37 1_555 1_555
C43 C44 1_555 1_555
C49 C50 1_555 1_555
C55 C56 1_555 1_555

#END
