
#######################################################################
#
#                 Cambridge Crystallographic Data Centre
#                                CCDC 
#
#######################################################################
#
# If this CIF has been generated from an entry in the Cambridge 
# Structural Database, then it will include bibliographic, chemical, 
# crystal, experimental, refinement or atomic coordinate data resulting 
# from the CCDC's data processing and validation procedures.
#
#######################################################################

data_OVINIR
_chemical_formula_moiety         'C28 H28 N2 S1'
_chemical_name_systematic        
2,4,6-Trimethyl-N-(2-((2-(phenylsulfanyl)phenyl)amino)benzyl)aniline
_symmetry_cell_setting           monoclinic
_symmetry_space_group_name_H-M   'P 21/n'
_symmetry_Int_Tables_number      14
_space_group_name_Hall           '-P 2yn'
loop_
_symmetry_equiv_pos_site_id
_symmetry_equiv_pos_as_xyz
1 x,y,z
2 1/2-x,1/2+y,1/2-z
3 -x,-y,-z
4 1/2+x,1/2-y,1/2+z
_cell_length_a                   15.068(6)
_cell_length_b                   7.717(3)
_cell_length_c                   20.796(9)
_cell_angle_alpha                90
_cell_angle_beta                 99.169(6)
_cell_angle_gamma                90
_cell_volume                     2387.26
_exptl_crystal_colour            yellow
_exptl_crystal_description       prism
_cell_formula_units_Z            4
loop_
_atom_site_label
_atom_site_type_symbol
_atom_site_fract_x
_atom_site_fract_y
_atom_site_fract_z
S1 S 0.42757(4) 0.17621(10) 0.15876(3)
N1 N 0.62624(12) 0.5439(2) 0.24126(9)
N2 N 0.44061(12) 0.4539(3) 0.25079(9)
C1 C 0.53578(14) 0.6475(3) 0.32127(10)
C2 C 0.56125(16) 0.7172(3) 0.38310(11)
H1 H 0.6102 0.7920 0.3906
C3 C 0.51549(18) 0.6779(4) 0.43318(11)
H2 H 0.5334 0.7259 0.4742
C4 C 0.44354(17) 0.5681(3) 0.42269(10)
H3 H 0.4119 0.5427 0.4565
C5 C 0.41783(15) 0.4952(3) 0.36238(10)
H4 H 0.3693 0.4192 0.3556
C6 C 0.46372(13) 0.5340(3) 0.31147(9)
C7 C 0.58450(15) 0.6963(3) 0.26670(10)
H5 H 0.5427 0.7491 0.2319
H6 H 0.6306 0.7810 0.2821
C8 C 0.69099(14) 0.5857(3) 0.20040(9)
C9 C 0.66336(15) 0.6013(3) 0.13382(10)
C10 C 0.72684(18) 0.6390(3) 0.09483(11)
H7 H 0.7082 0.6497 0.0502
C11 C 0.81639(18) 0.6614(3) 0.11905(11)
C12 C 0.84222(15) 0.6455(3) 0.18544(11)
H8 H 0.9026 0.6595 0.2029
C13 C 0.78161(14) 0.6095(3) 0.22694(10)
C14 C 0.56649(17) 0.5755(4) 0.10381(12)
H9 H 0.5311 0.6701 0.1158
H10 H 0.5448 0.4688 0.1192
H11 H 0.5618 0.5713 0.0573
C15 C 0.8842(2) 0.7022(5) 0.07494(14)
H12 H 0.8921 0.8254 0.0730
H13 H 0.8629 0.6585 0.0320
H14 H 0.9406 0.6486 0.0918
C16 C 0.81370(15) 0.5943(3) 0.29917(10)
H15 H 0.8774 0.6140 0.3081
H16 H 0.8006 0.4804 0.3136
H17 H 0.7836 0.6790 0.3218
C17 C 0.35366(14) 0.4404(3) 0.21617(9)
C18 C 0.28382(15) 0.5457(3) 0.22857(10)
H18 H 0.2943 0.6276 0.2617
C19 C 0.19959(16) 0.5310(3) 0.19267(11)
H19 H 0.1529 0.5997 0.2026
C20 C 0.18413(15) 0.4144(3) 0.14190(12)
H20 H 0.1276 0.4072 0.1164
C21 C 0.25260(14) 0.3090(3) 0.12921(11)
H21 H 0.2420 0.2305 0.0949
C22 C 0.33682(14) 0.3175(3) 0.16632(10)
C23 C 0.38148(14) 0.0317(3) 0.09653(10)
C24 C 0.3380(2) -0.1133(4) 0.11189(14)
H22 H 0.3301 -0.1338 0.1547
C25 C 0.3056(2) -0.2297(5) 0.0635(2)
H23 H 0.2754 -0.3282 0.0739
C26 C 0.3170(3) -0.2031(6) 0.00136(19)
H24 H 0.2944 -0.2821 -0.0309
C27 C 0.3616(3) -0.0605(6) -0.01360(15)
H25 H 0.3705 -0.0421 -0.0563
C28 C 0.3941(2) 0.0576(4) 0.03403(13)
H26 H 0.4247 0.1555 0.0234
H27 H 0.6557(13) 0.485(3) 0.2722(10)
H28 H 0.4875(15) 0.452(3) 0.2296(10)
loop_
_geom_bond_atom_site_label_1
_geom_bond_atom_site_label_2
_geom_bond_site_symmetry_1
_geom_bond_site_symmetry_2
S1 C22 1_555 1_555
N1 C7 1_555 1_555
N2 C6 1_555 1_555
C1 C2 1_555 1_555
C2 H1 1_555 1_555
C3 C2 1_555 1_555
H2 C3 1_555 1_555
C4 C3 1_555 1_555
H3 C4 1_555 1_555
C5 C4 1_555 1_555
H4 C5 1_555 1_555
C6 C1 1_555 1_555
C7 C1 1_555 1_555
H5 C7 1_555 1_555
H6 C7 1_555 1_555
C8 N1 1_555 1_555
C9 C8 1_555 1_555
C10 C9 1_555 1_555
H7 C10 1_555 1_555
C11 C10 1_555 1_555
C12 C11 1_555 1_555
H8 C12 1_555 1_555
C13 C8 1_555 1_555
C14 C9 1_555 1_555
H9 C14 1_555 1_555
H10 C14 1_555 1_555
H11 C14 1_555 1_555
C15 C11 1_555 1_555
H12 C15 1_555 1_555
H13 C15 1_555 1_555
H14 C15 1_555 1_555
C16 C13 1_555 1_555
H15 C16 1_555 1_555
H16 C16 1_555 1_555
H17 C16 1_555 1_555
C17 N2 1_555 1_555
C18 C17 1_555 1_555
H18 C18 1_555 1_555
C19 C18 1_555 1_555
H19 C19 1_555 1_555
C20 C19 1_555 1_555
H20 C20 1_555 1_555
C21 C20 1_555 1_555
H21 C21 1_555 1_555
C22 C17 1_555 1_555
C23 S1 1_555 1_555
C24 C23 1_555 1_555
H22 C24 1_555 1_555
C25 C24 1_555 1_555
H23 C25 1_555 1_555
C26 C25 1_555 1_555
H24 C26 1_555 1_555
C27 C26 1_555 1_555
H25 C27 1_555 1_555
C28 C23 1_555 1_555
H26 C28 1_555 1_555
H27 N1 1_555 1_555
H28 N2 1_555 1_555
C5 C6 1_555 1_555
C12 C13 1_555 1_555
C21 C22 1_555 1_555
C27 C28 1_555 1_555

#END
