
#######################################################################
#
#                 Cambridge Crystallographic Data Centre
#                                CCDC 
#
#######################################################################
#
# If this CIF has been generated from an entry in the Cambridge 
# Structural Database, then it will include bibliographic, chemical, 
# crystal, experimental, refinement or atomic coordinate data resulting 
# from the CCDC's data processing and validation procedures.
#
#######################################################################

data_OVINIS
_chemical_formula_moiety         'C16 H15 N1 O2 S1'
_chemical_name_systematic        
3-(((4-methylphenyl)sulfonyl)methyl)-1H-indole
_symmetry_cell_setting           triclinic
_symmetry_space_group_name_H-M   'P -1'
_symmetry_Int_Tables_number      2
_space_group_name_Hall           '-P 1'
loop_
_symmetry_equiv_pos_site_id
_symmetry_equiv_pos_as_xyz
1 x,y,z
2 -x,-y,-z
_cell_length_a                   11.0146(6)
_cell_length_b                   14.8262(6)
_cell_length_c                   18.3192(10)
_cell_angle_alpha                78.356(4)
_cell_angle_beta                 88.040(5)
_cell_angle_gamma                83.470(4)
_cell_volume                     2910.84
_exptl_crystal_colour            colorless
_exptl_crystal_description       needle
_cell_formula_units_Z            8
loop_
_atom_site_label
_atom_site_type_symbol
_atom_site_fract_x
_atom_site_fract_y
_atom_site_fract_z
C1 C -0.1302(3) 0.53141(18) 0.21976(15)
H1 H -0.0900 0.5765 0.1886
C2 C -0.2024(3) 0.5531(2) 0.27773(18)
H2 H -0.2116 0.6137 0.2854
C3 C -0.2623(3) 0.4858(2) 0.32548(18)
H3 H -0.3096 0.5022 0.3647
C4 C -0.2527(3) 0.3956(2) 0.31567(16)
H4 H -0.2926 0.3510 0.3475
C5 C -0.1814(2) 0.37399(17) 0.25662(13)
C6 C -0.1183(2) 0.44047(16) 0.20852(12)
C7 C -0.0546(2) 0.39300(16) 0.15559(12)
C8 C -0.0815(2) 0.30407(17) 0.17257(14)
H5 H -0.0521 0.2580 0.1468
C9 C 0.0249(2) 0.43222(17) 0.09295(12)
H6 H -0.0051 0.4965 0.0741
H7 H 0.0212 0.3988 0.0529
C10 C 0.2586(2) 0.47115(16) 0.03918(12)
C11 C 0.3048(3) 0.41373(19) -0.00731(16)
H8 H 0.2946 0.3510 0.0039
C12 C 0.3669(3) 0.4508(2) -0.07111(16)
H9 H 0.3983 0.4122 -0.1030
C13 C 0.3834(2) 0.5434(2) -0.08870(13)
C14 C 0.3311(3) 0.59913(19) -0.04278(15)
H10 H 0.3379 0.6624 -0.0553
C15 C 0.2685(3) 0.56484(18) 0.02166(14)
H11 H 0.2340 0.6040 0.0524
C16 C 0.4558(3) 0.5828(3) -0.15708(16)
H12 H 0.4297 0.6477 -0.1725
H13 H 0.4424 0.5514 -0.1966
H14 H 0.5412 0.5743 -0.1455
N1 N -0.1581(2) 0.29225(15) 0.23291(13)
H15 H -0.177(3) 0.244(2) 0.2571(18)
O1 O 0.18606(18) 0.48441(13) 0.17425(9)
O2 O 0.22641(16) 0.32929(12) 0.14518(10)
S1 S 0.18050(5) 0.42519(4) 0.12124(3)
C17 C 1.1072(3) 0.94187(18) 0.26807(14)
H16 H 1.0647 0.8977 0.2986
C18 C 1.1748(3) 0.9201(2) 0.20819(17)
H17 H 1.1792 0.8602 0.1993
C19 C 1.2369(3) 0.9857(2) 0.16055(18)
H18 H 1.2805 0.9692 0.1200
C20 C 1.2347(3) 1.0746(2) 0.17266(17)
H19 H 1.2760 1.1185 0.1410
C21 C 1.1686(2) 1.09616(18) 0.23381(15)
C22 C 1.1033(2) 1.03148(16) 0.28226(13)
C23 C 1.0468(2) 1.07801(17) 0.33799(13)
C24 C 1.0790(3) 1.16580(19) 0.32209(17)
H20 H 1.0549 1.2112 0.3496
C25 C 0.9684(2) 1.03930(18) 0.40175(13)
H21 H 0.9765 1.0710 0.4425
H22 H 0.9958 0.9742 0.4191
C26 C 0.7357(2) 0.99925(17) 0.45655(13)
C27 C 0.7224(3) 0.90651(18) 0.46780(15)
H23 H 0.7516 0.8717 0.4327
C28 C 0.6646(3) 0.8657(2) 0.53263(16)
H24 H 0.6547 0.8029 0.5405
C29 C 0.6216(3) 0.9157(2) 0.58544(15)
C30 C 0.6387(3) 1.0072(3) 0.57275(17)
H25 H 0.6114 1.0417 0.6084
C31 C 0.6949(3) 1.0505(2) 0.50892(17)
H26 H 0.7050 1.1131 0.5015
C32 C 0.5579(3) 0.8697(3) 0.65518(17)
H27 H 0.4719 0.8900 0.6522
H28 H 0.5907 0.8863 0.6979
H29 H 0.5705 0.8037 0.6597
N2 N 1.1516(2) 1.17745(16) 0.26026(15)
H30 H 1.176(3) 1.228(2) 0.2348(18)
O3 O 0.80051(19) 0.99992(14) 0.31819(9)
O4 O 0.76882(19) 1.14866(13) 0.35806(12)
S2 S 0.81160(6) 1.05192(4) 0.37566(3)
C33 C 1.2779(3) 0.3816(3) 0.52044(16)
H31 H 1.2423 0.3721 0.5677
C34 C 1.4010(4) 0.3881(4) 0.5116(2)
H32 H 1.4484 0.3840 0.5534
C35 C 1.4558(4) 0.4005(4) 0.4422(3)
H33 H 1.5396 0.4042 0.4384
C36 C 1.3911(4) 0.4075(3) 0.3791(2)
H34 H 1.4291 0.4153 0.3324
C37 C 1.2656(3) 0.40250(19) 0.38695(15)
C38 C 1.2073(2) 0.38952(17) 0.45738(13)
C39 C 1.0794(2) 0.39035(15) 0.44532(13)
C40 C 1.0665(3) 0.40404(19) 0.37020(15)
H35 H 0.9924 0.4087 0.3461
C41 C 0.9790(2) 0.38619(16) 0.50127(14)
H36 H 0.9025 0.4088 0.4757
H37 H 0.9914 0.4275 0.5345
C42 C 0.8467(2) 0.29488(16) 0.61868(14)
C43 C 0.8718(3) 0.33110(19) 0.67949(15)
H38 H 0.9505 0.3445 0.6865
C44 C 0.7809(4) 0.3474(2) 0.72966(17)
H39 H 0.7985 0.3720 0.7705
C45 C 0.6645(3) 0.3279(2) 0.72052(19)
C46 C 0.6406(3) 0.2922(3) 0.6594(2)
H40 H 0.5618 0.2787 0.6527
C47 C 0.7306(3) 0.2757(2) 0.60790(17)
H41 H 0.7127 0.2521 0.5666
C48 C 0.5642(4) 0.3447(4) 0.7765(3)
H42 H 0.5946 0.3750 0.8126
H43 H 0.5382 0.2865 0.8012
H44 H 0.4962 0.3831 0.7511
N3 N 1.1774(3) 0.40999(18) 0.33527(13)
H45 H 1.190(3) 0.425(2) 0.290(2)
O5 O 0.9290(3) 0.21507(16) 0.50956(14)
O6 O 1.0764(2) 0.24364(17) 0.59776(13)
S3 S 0.96623(7) 0.27348(4) 0.55565(4)
C49 C -0.3171(3) 0.18494(19) 0.97810(15)
H46 H -0.2863 0.1981 0.9297
C50 C -0.4395(3) 0.2048(2) 0.99239(19)
H47 H -0.4917 0.2312 0.9531
C51 C -0.4865(3) 0.1862(3) 1.0644(2)
H48 H -0.5696 0.2008 1.0723
C52 C -0.4140(3) 0.1469(2) 1.12392(18)
H49 H -0.4463 0.1347 1.1720
C53 C -0.2895(3) 0.12558(17) 1.10999(14)
C54 C -0.2397(2) 0.14464(15) 1.03748(12)
C55 C -0.1115(2) 0.11437(15) 1.04380(13)
C56 C -0.0901(3) 0.07846(17) 1.11749(14)
H50 H -0.0144 0.0528 1.1374
C57 C -0.0185(2) 0.11461(16) 0.98308(14)
H51 H -0.0547 0.0969 0.9413
H52 H 0.0487 0.0678 1.0006
C58 C 0.1588(2) 0.19148(17) 0.88894(14)
C59 C 0.2703(3) 0.1517(3) 0.91669(18)
H53 H 0.2867 0.1451 0.9671
C60 C 0.3582(3) 0.1216(3) 0.8689(2)
H54 H 0.4335 0.0932 0.8878
C61 C 0.3369(3) 0.1325(2) 0.79404(18)
C62 C 0.2239(3) 0.1720(2) 0.76772(16)
H55 H 0.2077 0.1791 0.7173
C63 C 0.1338(3) 0.20137(19) 0.81453(15)
H56 H 0.0574 0.2274 0.7961
C64 C 0.4339(3) 0.0983(3) 0.7427(2)
H57 H 0.5108 0.0845 0.7678
H58 H 0.4408 0.1453 0.6987
H59 H 0.4116 0.0433 0.7289
N4 N -0.1961(2) 0.08574(15) 1.15760(12)
H60 H -0.205(3) 0.064(2) 1.2038(17)
O7 O -0.0503(2) 0.28646(15) 0.90913(14)
O8 O 0.0959(3) 0.24788(18) 1.01298(14)
S4 S 0.04155(7) 0.22259(4) 0.95087(4)
loop_
_geom_bond_atom_site_label_1
_geom_bond_atom_site_label_2
_geom_bond_site_symmetry_1
_geom_bond_site_symmetry_2
C1 H1 1_555 1_555
C2 C1 1_555 1_555
H2 C2 1_555 1_555
C3 C2 1_555 1_555
H3 C3 1_555 1_555
C4 C3 1_555 1_555
H4 C4 1_555 1_555
C5 C4 1_555 1_555
C6 C1 1_555 1_555
C7 C6 1_555 1_555
C8 C7 1_555 1_555
H5 C8 1_555 1_555
C9 C7 1_555 1_555
H6 C9 1_555 1_555
H7 C9 1_555 1_555
C10 C11 1_555 1_555
C11 H8 1_555 1_555
C12 C11 1_555 1_555
H9 C12 1_555 1_555
C13 C12 1_555 1_555
C14 C13 1_555 1_555
H10 C14 1_555 1_555
C15 C10 1_555 1_555
H11 C15 1_555 1_555
C16 C13 1_555 1_555
H12 C16 1_555 1_555
H13 C16 1_555 1_555
H14 C16 1_555 1_555
N1 C5 1_555 1_555
H15 N1 1_555 1_555
O1 S1 1_555 1_555
O2 S1 1_555 1_555
S1 C9 1_555 1_555
C17 H16 1_555 1_555
C18 C17 1_555 1_555
H17 C18 1_555 1_555
C19 C18 1_555 1_555
H18 C19 1_555 1_555
C20 C19 1_555 1_555
H19 C20 1_555 1_555
C21 C20 1_555 1_555
C22 C17 1_555 1_555
C23 C22 1_555 1_555
C24 C23 1_555 1_555
H20 C24 1_555 1_555
C25 C23 1_555 1_555
H21 C25 1_555 1_555
H22 C25 1_555 1_555
C26 C27 1_555 1_555
C27 H23 1_555 1_555
C28 C27 1_555 1_555
H24 C28 1_555 1_555
C29 C28 1_555 1_555
C30 C29 1_555 1_555
H25 C30 1_555 1_555
C31 C26 1_555 1_555
H26 C31 1_555 1_555
C32 C29 1_555 1_555
H27 C32 1_555 1_555
H28 C32 1_555 1_555
H29 C32 1_555 1_555
N2 C21 1_555 1_555
H30 N2 1_555 1_555
O3 S2 1_555 1_555
O4 S2 1_555 1_555
S2 C25 1_555 1_555
C33 H31 1_555 1_555
C34 C33 1_555 1_555
H32 C34 1_555 1_555
C35 C34 1_555 1_555
H33 C35 1_555 1_555
C36 C35 1_555 1_555
H34 C36 1_555 1_555
C37 C36 1_555 1_555
C38 C33 1_555 1_555
C39 C38 1_555 1_555
C40 C39 1_555 1_555
H35 C40 1_555 1_555
C41 C39 1_555 1_555
H36 C41 1_555 1_555
H37 C41 1_555 1_555
C42 C43 1_555 1_555
C43 H38 1_555 1_555
C44 C43 1_555 1_555
H39 C44 1_555 1_555
C45 C44 1_555 1_555
C46 C45 1_555 1_555
H40 C46 1_555 1_555
C47 C42 1_555 1_555
H41 C47 1_555 1_555
C48 C45 1_555 1_555
H42 C48 1_555 1_555
H43 C48 1_555 1_555
H44 C48 1_555 1_555
N3 C37 1_555 1_555
H45 N3 1_555 1_555
O5 S3 1_555 1_555
O6 S3 1_555 1_555
S3 C41 1_555 1_555
C49 H46 1_555 1_555
C50 C49 1_555 1_555
H47 C50 1_555 1_555
C51 C50 1_555 1_555
H48 C51 1_555 1_555
C52 C51 1_555 1_555
H49 C52 1_555 1_555
C53 C52 1_555 1_555
C54 C49 1_555 1_555
C55 C54 1_555 1_555
C56 C55 1_555 1_555
H50 C56 1_555 1_555
C57 C55 1_555 1_555
H51 C57 1_555 1_555
H52 C57 1_555 1_555
C58 C59 1_555 1_555
C59 H53 1_555 1_555
C60 C59 1_555 1_555
H54 C60 1_555 1_555
C61 C60 1_555 1_555
C62 C61 1_555 1_555
H55 C62 1_555 1_555
C63 C58 1_555 1_555
H56 C63 1_555 1_555
C64 C61 1_555 1_555
H57 C64 1_555 1_555
H58 C64 1_555 1_555
H59 C64 1_555 1_555
N4 C53 1_555 1_555
H60 N4 1_555 1_555
O7 S4 1_555 1_555
O8 S4 1_555 1_555
S4 C57 1_555 1_555
C5 C6 1_555 1_555
C8 N1 1_555 1_555
C10 S1 1_555 1_555
C14 C15 1_555 1_555
C21 C22 1_555 1_555
C24 N2 1_555 1_555
C26 S2 1_555 1_555
C30 C31 1_555 1_555
C37 C38 1_555 1_555
C40 N3 1_555 1_555
C42 S3 1_555 1_555
C46 C47 1_555 1_555
C53 C54 1_555 1_555
C56 N4 1_555 1_555
C58 S4 1_555 1_555
C62 C63 1_555 1_555

#END
