
#######################################################################
#
#                 Cambridge Crystallographic Data Centre
#                                CCDC 
#
#######################################################################
#
# If this CIF has been generated from an entry in the Cambridge 
# Structural Database, then it will include bibliographic, chemical, 
# crystal, experimental, refinement or atomic coordinate data resulting 
# from the CCDC's data processing and validation procedures.
#
#######################################################################

data_OVIROB
_chemical_formula_moiety         'C16 H24 O1'
_chemical_name_systematic        
9-Methyl-16-oxatetracyclo[9.3.2.0^1,10^.0^4,9^]hexadec-2-ene
_symmetry_cell_setting           monoclinic
_symmetry_space_group_name_H-M   'P 21/c'
_symmetry_Int_Tables_number      14
_space_group_name_Hall           '-P 2ybc'
loop_
_symmetry_equiv_pos_site_id
_symmetry_equiv_pos_as_xyz
1 x,y,z
2 -x,1/2+y,1/2-z
3 -x,-y,-z
4 x,1/2-y,1/2+z
_cell_length_a                   15.481(2)
_cell_length_b                   6.5941(8)
_cell_length_c                   12.4508(16)
_cell_angle_alpha                90
_cell_angle_beta                 90.049(2)
_cell_angle_gamma                90
_cell_volume                     1271.02
_exptl_crystal_colour            colorless
_exptl_crystal_description       platelet
_cell_formula_units_Z            4
loop_
_atom_site_label
_atom_site_type_symbol
_atom_site_fract_x
_atom_site_fract_y
_atom_site_fract_z
O1 O 0.11829(5) 0.21239(13) 0.79650(7)
C1 C 0.31469(7) 0.03900(17) 0.81909(9)
C2 C 0.34344(7) 0.26232(18) 0.82383(9)
H1 H 0.3621 0.3053 0.7513
H2 H 0.2934 0.3471 0.8445
C3 C 0.41737(8) 0.30052(19) 0.90331(10)
H3 H 0.4700 0.2299 0.8780
H4 H 0.4300 0.4476 0.9061
C4 C 0.39435(8) 0.22525(19) 1.01598(10)
H5 H 0.4452 0.2404 1.0636
H6 H 0.3472 0.3098 1.0455
C5 C 0.36592(8) 0.00305(19) 1.01497(9)
H7 H 0.3473 -0.0373 1.0879
H8 H 0.4153 -0.0838 0.9942
C6 C 0.29135(7) -0.02866(18) 0.93572(9)
H9 H 0.2432 0.0612 0.9601
C7 C 0.25630(8) -0.24144(18) 0.93480(9)
H10 H 0.2771 -0.3384 0.9850
C8 C 0.19609(7) -0.29385(18) 0.86349(9)
H11 H 0.1742 -0.4284 0.8616
C9 C 0.16321(7) -0.13644(17) 0.78602(9)
C10 C 0.23574(7) 0.00576(17) 0.74262(9)
H12 H 0.2584 -0.0573 0.6753
C11 C 0.17841(7) 0.18453(18) 0.70891(9)
H13 H 0.2140 0.3095 0.6981
C12 C 0.12984(8) 0.12974(19) 0.60567(10)
H14 H 0.1721 0.1074 0.5472
H15 H 0.0924 0.2448 0.5846
C13 C 0.07397(8) -0.06166(19) 0.61884(10)
H16 H 0.0183 -0.0230 0.6520
H17 H 0.0614 -0.1184 0.5469
C14 C 0.11670(8) -0.22695(19) 0.68803(10)
H18 H 0.0720 -0.3236 0.7128
H19 H 0.1588 -0.3029 0.6438
C15 C 0.38873(7) -0.09339(19) 0.77462(10)
H20 H 0.4036 -0.0480 0.7020
H21 H 0.3702 -0.2354 0.7723
H22 H 0.4394 -0.0807 0.8213
C16 C 0.10248(7) 0.01618(18) 0.84328(10)
H23 H 0.0414 -0.0235 0.8328
H24 H 0.1148 0.0191 0.9213
loop_
_geom_bond_atom_site_label_1
_geom_bond_atom_site_label_2
_geom_bond_site_symmetry_1
_geom_bond_site_symmetry_2
O1 C11 1_555 1_555
C1 C2 1_555 1_555
C2 H1 1_555 1_555
H2 C2 1_555 1_555
C3 C2 1_555 1_555
H3 C3 1_555 1_555
H4 C3 1_555 1_555
C4 C3 1_555 1_555
H5 C4 1_555 1_555
H6 C4 1_555 1_555
C5 C4 1_555 1_555
H7 C5 1_555 1_555
H8 C5 1_555 1_555
C6 C1 1_555 1_555
H9 C6 1_555 1_555
C7 C6 1_555 1_555
H10 C7 1_555 1_555
C8 C7 1_555 1_555
H11 C8 1_555 1_555
C9 C8 1_555 1_555
C10 C1 1_555 1_555
H12 C10 1_555 1_555
C11 C10 1_555 1_555
H13 C11 1_555 1_555
C12 C11 1_555 1_555
H14 C12 1_555 1_555
H15 C12 1_555 1_555
C13 C12 1_555 1_555
H16 C13 1_555 1_555
H17 C13 1_555 1_555
C14 C9 1_555 1_555
H18 C14 1_555 1_555
H19 C14 1_555 1_555
C15 C1 1_555 1_555
H20 C15 1_555 1_555
H21 C15 1_555 1_555
H22 C15 1_555 1_555
C16 O1 1_555 1_555
H23 C16 1_555 1_555
H24 C16 1_555 1_555
C5 C6 1_555 1_555
C9 C10 1_555 1_555
C9 C16 1_555 1_555
C13 C14 1_555 1_555

#END
