
#######################################################################
#
#                 Cambridge Crystallographic Data Centre
#                                CCDC 
#
#######################################################################
#
# If this CIF has been generated from an entry in the Cambridge 
# Structural Database, then it will include bibliographic, chemical, 
# crystal, experimental, refinement or atomic coordinate data resulting 
# from the CCDC's data processing and validation procedures.
#
#######################################################################

data_OVOBUY
_chemical_formula_moiety         'C14 H17 N2 O3 1+,Cl1 1-'
_chemical_name_systematic        
'2-(6-methyl-1-oxo-2-oxa-7-azaspiro[4.4]nonane-7-carbonyl)pyridin-1-ium chloride'
_symmetry_cell_setting           orthorhombic
_symmetry_space_group_name_H-M   'P b c a'
_symmetry_Int_Tables_number      61
_space_group_name_Hall           '-P 2ac 2ab'
loop_
_symmetry_equiv_pos_site_id
_symmetry_equiv_pos_as_xyz
1 x,y,z
2 1/2-x,-y,1/2+z
3 1/2+x,1/2-y,-z
4 -x,1/2+y,1/2-z
5 -x,-y,-z
6 1/2+x,y,1/2-z
7 1/2-x,1/2+y,z
8 x,1/2-y,1/2+z
_cell_length_a                   7.5991(3)
_cell_length_b                   18.8542(9)
_cell_length_c                   20.2166(11)
_cell_angle_alpha                90
_cell_angle_beta                 90
_cell_angle_gamma                90
_cell_volume                     2896.53
_exptl_crystal_description       block
_cell_formula_units_Z            8
loop_
_atom_site_label
_atom_site_type_symbol
_atom_site_fract_x
_atom_site_fract_y
_atom_site_fract_z
Cl1 Cl 0.25010(10) 0.42101(5) 0.01122(4)
O1 O 0.2638(3) 0.33568(12) 0.17020(14)
N1 N 0.3627(3) 0.23125(13) 0.12946(13)
O2 O 0.2298(4) 0.04972(15) 0.24677(14)
N2 N 0.5594(3) 0.38574(12) 0.09272(12)
H1 H 0.4638 0.3958 0.0720
O3 O 0.3467(4) 0.15644(14) 0.26061(12)
C1 C 0.2448(4) 0.11949(16) 0.15119(16)
C2 C 0.5582(4) 0.33283(14) 0.13656(14)
C3 C 0.7079(4) 0.31734(19) 0.1720(2)
H2 H 0.7078 0.2814 0.2035
C4 C 0.1910(4) 0.19596(16) 0.13504(16)
H3 H 0.1236 0.2163 0.1718
C5 C 0.3815(4) 0.29870(14) 0.14705(13)
C6 C 0.4188(5) 0.10964(18) 0.1123(2)
H4 H 0.4946 0.0758 0.1345
H5 H 0.3951 0.0926 0.0679
C7 C 0.2817(4) 0.11329(18) 0.22438(18)
C8 C 0.5049(5) 0.1820(2) 0.1101(2)
H6 H 0.6026 0.1847 0.1408
H7 H 0.5473 0.1927 0.0659
C9 C 0.7039(5) 0.42349(18) 0.07991(19)
H8 H 0.7000 0.4596 0.0486
C10 C 0.1074(5) 0.06142(18) 0.13983(19)
H9 H -0.0111 0.0795 0.1456
H10 H 0.1182 0.0410 0.0960
C11 C 0.1534(6) 0.0081(2) 0.1928(2)
H11 H 0.0490 -0.0169 0.2077
H12 H 0.2375 -0.0263 0.1763
C12 C 0.8584(5) 0.3563(2) 0.1598(2)
H13 H 0.9608 0.3469 0.1834
C13 C 0.0905(6) 0.2043(2) 0.0709(2)
H14 H 0.0612 0.2534 0.0645
H15 H -0.0155 0.1767 0.0728
H16 H 0.1621 0.1882 0.0348
C14 C 0.8572(5) 0.4094(2) 0.1124(2)
H17 H 0.9590 0.4349 0.1030
loop_
_geom_bond_atom_site_label_1
_geom_bond_atom_site_label_2
_geom_bond_site_symmetry_1
_geom_bond_site_symmetry_2
O1 C5 1_555 1_555
N1 C4 1_555 1_555
O2 C7 1_555 1_555
N2 H1 1_555 1_555
O3 C7 1_555 1_555
C1 C4 1_555 1_555
C2 N2 1_555 1_555
C3 C2 1_555 1_555
H2 C3 1_555 1_555
C4 H3 1_555 1_555
C5 N1 1_555 1_555
C6 C1 1_555 1_555
H4 C6 1_555 1_555
H5 C6 1_555 1_555
C7 C1 1_555 1_555
C8 N1 1_555 1_555
H6 C8 1_555 1_555
H7 C8 1_555 1_555
C9 N2 1_555 1_555
H8 C9 1_555 1_555
C10 C1 1_555 1_555
H9 C10 1_555 1_555
H10 C10 1_555 1_555
C11 O2 1_555 1_555
H11 C11 1_555 1_555
H12 C11 1_555 1_555
C12 C3 1_555 1_555
H13 C12 1_555 1_555
C13 C4 1_555 1_555
H14 C13 1_555 1_555
H15 C13 1_555 1_555
H16 C13 1_555 1_555
C14 C9 1_555 1_555
H17 C14 1_555 1_555
C2 C5 1_555 1_555
C6 C8 1_555 1_555
C10 C11 1_555 1_555
C12 C14 1_555 1_555

#END
