
#######################################################################
#
#                 Cambridge Crystallographic Data Centre
#                                CCDC 
#
#######################################################################
#
# If this CIF has been generated from an entry in the Cambridge 
# Structural Database, then it will include bibliographic, chemical, 
# crystal, experimental, refinement or atomic coordinate data resulting 
# from the CCDC's data processing and validation procedures.
#
#######################################################################

data_OVOCAF
_chemical_formula_moiety         'C15 H20 N2 O1'
_chemical_name_systematic        
(3a-methyloctahydro-1H-indol-1-yl)(pyridin-2-yl)methanone
_symmetry_cell_setting           monoclinic
_symmetry_space_group_name_H-M   'P 21/c'
_symmetry_Int_Tables_number      14
_space_group_name_Hall           '-P 2ybc'
loop_
_symmetry_equiv_pos_site_id
_symmetry_equiv_pos_as_xyz
1 x,y,z
2 -x,1/2+y,1/2-z
3 -x,-y,-z
4 x,1/2-y,1/2+z
_cell_length_a                   8.7063(3)
_cell_length_b                   17.9769(7)
_cell_length_c                   8.8307(3)
_cell_angle_alpha                90
_cell_angle_beta                 103.621(4)
_cell_angle_gamma                90
_cell_volume                     1343.24
_exptl_crystal_colour            colorless
_exptl_crystal_description       block
_cell_formula_units_Z            4
loop_
_atom_site_label
_atom_site_type_symbol
_atom_site_fract_x
_atom_site_fract_y
_atom_site_fract_z
O1 O 0.79182(12) -0.10869(5) 0.59478(11)
N1 N 0.77917(13) 0.00724(6) 0.69029(11)
N2 N 0.64989(14) -0.06284(6) 0.92181(13)
C1 C 0.78505(15) 0.12708(7) 0.58811(15)
C2 C 0.7725(2) 0.07136(9) 0.27321(17)
H1 H 0.8799 0.0566 0.2741
H2 H 0.7079 0.0618 0.1696
C3 C 0.77361(14) -0.06728(6) 0.70019(13)
C4 C 0.80693(14) 0.04528(6) 0.55094(14)
H3 H 0.9188 0.0384 0.5517
C5 C 0.71242(17) 0.02327(7) 0.39033(15)
H4 H 0.6007 0.0320 0.3812
H5 H 0.7277 -0.0290 0.3714
C6 C 0.87728(18) 0.12859(7) 0.75753(17)
H6 H 0.8530 0.1729 0.8100
H7 H 0.9902 0.1266 0.7654
C7 C 0.8201(2) 0.05851(7) 0.82588(16)
H8 H 0.9028 0.0377 0.9082
H9 H 0.7284 0.0690 0.8669
C8 C 0.73610(14) -0.10183(7) 0.84273(14)
C9 C 0.8508(2) 0.17403(8) 0.47426(19)
H10 H 0.9636 0.1656 0.4917
H11 H 0.8342 0.2263 0.4925
C10 C 0.73605(19) -0.20927(8) 1.00099(18)
H12 H 0.7647 -0.2583 1.0272
C11 C 0.78221(17) -0.17471(7) 0.87948(16)
H13 H 0.8435 -0.2000 0.8230
C12 C 0.60753(18) -0.09711(9) 1.03980(17)
H14 H 0.5482 -0.0706 1.0964
C13 C 0.61172(18) 0.14679(9) 0.5799(2)
H15 H 0.5530 0.1459 0.4733
H16 H 0.6060 0.1956 0.6223
H17 H 0.5678 0.1112 0.6390
C14 C 0.64704(19) -0.16984(9) 1.08236(17)
H18 H 0.6139 -0.1917 1.1647
C15 C 0.7703(2) 0.15441(9) 0.3056(2)
H19 H 0.6616 0.1714 0.2833
H20 H 0.8233 0.1805 0.2363
loop_
_geom_bond_atom_site_label_1
_geom_bond_atom_site_label_2
_geom_bond_site_symmetry_1
_geom_bond_site_symmetry_2
O1 C3 1_555 1_555
N1 C3 1_555 1_555
N2 C8 1_555 1_555
C1 C4 1_555 1_555
C2 H1 1_555 1_555
H2 C2 1_555 1_555
C3 C8 1_555 1_555
C4 N1 1_555 1_555
H3 C4 1_555 1_555
C5 C2 1_555 1_555
H4 C5 1_555 1_555
H5 C5 1_555 1_555
C6 C1 1_555 1_555
H6 C6 1_555 1_555
H7 C6 1_555 1_555
C7 N1 1_555 1_555
H8 C7 1_555 1_555
H9 C7 1_555 1_555
C8 C11 1_555 1_555
C9 C1 1_555 1_555
H10 C9 1_555 1_555
H11 C9 1_555 1_555
C10 H12 1_555 1_555
C11 C10 1_555 1_555
H13 C11 1_555 1_555
C12 N2 1_555 1_555
H14 C12 1_555 1_555
C13 C1 1_555 1_555
H15 C13 1_555 1_555
H16 C13 1_555 1_555
H17 C13 1_555 1_555
C14 C10 1_555 1_555
H18 C14 1_555 1_555
C15 C2 1_555 1_555
H19 C15 1_555 1_555
H20 C15 1_555 1_555
C4 C5 1_555 1_555
C6 C7 1_555 1_555
C9 C15 1_555 1_555
C12 C14 1_555 1_555

#END
