
#######################################################################
#
#                 Cambridge Crystallographic Data Centre
#                                CCDC 
#
#######################################################################
#
# If this CIF has been generated from an entry in the Cambridge 
# Structural Database, then it will include bibliographic, chemical, 
# crystal, experimental, refinement or atomic coordinate data resulting 
# from the CCDC's data processing and validation procedures.
#
#######################################################################

data_OVOCEJ
_chemical_formula_moiety         'C30 H36 N2 O3'
_chemical_name_systematic        
'3a,5a-dimethyl-1-(pyridin-2-ylcarbonyl)hexadecahydroindeno[5,4-e]indol-6-yl benzoate'
_symmetry_cell_setting           orthorhombic
_symmetry_space_group_name_H-M   'P 21 21 21'
_symmetry_Int_Tables_number      19
_space_group_name_Hall           'P 2ac 2ab'
loop_
_symmetry_equiv_pos_site_id
_symmetry_equiv_pos_as_xyz
1 x,y,z
2 1/2-x,-y,1/2+z
3 1/2+x,1/2-y,-z
4 -x,1/2+y,1/2-z
_cell_length_a                   8.27130(10)
_cell_length_b                   17.2458(2)
_cell_length_c                   18.0598(2)
_cell_angle_alpha                90
_cell_angle_beta                 90
_cell_angle_gamma                90
_cell_volume                     2576.14
_exptl_crystal_colour            colorless
_exptl_crystal_description       block
_cell_formula_units_Z            4
loop_
_atom_site_label
_atom_site_type_symbol
_atom_site_fract_x
_atom_site_fract_y
_atom_site_fract_z
O1 O 0.38271(19) 0.65612(12) 0.40665(9)
O2 O -0.4967(2) 0.63732(10) 0.80192(9)
N1 N 0.1207(2) 0.62424(11) 0.38848(9)
N2 N 0.2140(3) 0.58557(14) 0.24012(11)
C1 C -0.0734(2) 0.60568(13) 0.60983(11)
H1 H -0.0852 0.5492 0.6123
C2 C -0.0995(2) 0.60698(13) 0.47008(11)
C3 C 0.0773(2) 0.63544(13) 0.46722(10)
H2 H 0.0759 0.6914 0.4765
C4 C -0.1730(2) 0.63604(13) 0.54296(11)
H3 H -0.1621 0.6926 0.5429
C5 C -0.1450(2) 0.64065(14) 0.67952(11)
H4 H -0.1430 0.6970 0.6723
O3 O -0.5349(4) 0.75696(15) 0.84527(16)
C6 C -0.3237(2) 0.61877(13) 0.69163(11)
C7 C -0.7613(3) 0.58119(15) 0.87903(13)
H5 H -0.7154 0.5494 0.8431
C8 C -0.3508(3) 0.66238(15) 0.76386(12)
H6 H -0.3582 0.7180 0.7535
C9 C -0.8853(3) 0.55330(19) 0.92362(16)
H7 H -0.9232 0.5030 0.9173
C10 C 0.2726(3) 0.63698(13) 0.36434(12)
C11 C -0.3533(2) 0.61827(16) 0.55201(12)
H8 H -0.3696 0.5626 0.5496
H9 H -0.4126 0.6417 0.5114
C12 C -0.4207(2) 0.64881(16) 0.62566(12)
H10 H -0.4179 0.7050 0.6254
H11 H -0.5325 0.6328 0.6307
C13 C -0.1127(3) 0.51861(15) 0.46157(14)
H12 H -0.0652 0.5032 0.4154
H13 H -0.2244 0.5036 0.4624
H14 H -0.0565 0.4938 0.5016
C14 C -0.7064(3) 0.65634(15) 0.88818(12)
C15 C -0.7753(4) 0.7031(2) 0.94217(15)
H15 H -0.7395 0.7538 0.9484
C16 C -0.3490(3) 0.53183(15) 0.70282(16)
H16 H -0.2866 0.5146 0.7445
H17 H -0.3149 0.5045 0.6592
H18 H -0.4615 0.5217 0.7118
C17 C 0.1069(2) 0.62516(18) 0.60157(12)
H19 H 0.1209 0.6808 0.6062
H20 H 0.1662 0.6008 0.6416
C18 C -0.0658(3) 0.6257(2) 0.75462(12)
H21 H 0.0287 0.6582 0.7613
H22 H -0.0341 0.5717 0.7595
C19 C 0.3134(3) 0.62561(14) 0.28344(12)
C20 C -0.1996(3) 0.6467(2) 0.81115(13)
H23 H -0.2184 0.6042 0.8452
H24 H -0.1698 0.6925 0.8393
C21 C -0.0294(3) 0.62744(17) 0.34257(12)
H25 H -0.0487 0.5783 0.3180
H26 H -0.0222 0.6680 0.3055
C22 C -0.1623(3) 0.64506(16) 0.39871(12)
H27 H -0.2645 0.6225 0.3835
H28 H -0.1761 0.7005 0.4051
C23 C -0.9518(4) 0.6001(2) 0.97695(17)
H29 H -1.0348 0.5813 1.0067
C24 C -0.5730(3) 0.68979(17) 0.84308(13)
C25 C 0.2561(4) 0.5786(2) 0.16886(15)
H30 H 0.1870 0.5513 0.1377
C26 C 0.4581(3) 0.65651(17) 0.25890(15)
H31 H 0.5266 0.6825 0.2913
C27 C 0.4986(4) 0.6479(2) 0.18482(18)
H32 H 0.5948 0.6680 0.1664
C28 C 0.1792(3) 0.59863(18) 0.52760(13)
H33 H 0.2908 0.6154 0.5235
H34 H 0.1757 0.5426 0.5237
C29 C 0.3935(5) 0.6089(2) 0.13920(16)
H35 H 0.4159 0.6033 0.0890
C30 C -0.8970(4) 0.6742(2) 0.98669(17)
H36 H -0.9419 0.7053 1.0234
loop_
_geom_bond_atom_site_label_1
_geom_bond_atom_site_label_2
_geom_bond_site_symmetry_1
_geom_bond_site_symmetry_2
O1 C10 1_555 1_555
O2 C8 1_555 1_555
N1 C3 1_555 1_555
N2 C19 1_555 1_555
C1 H1 1_555 1_555
C2 C3 1_555 1_555
C3 H2 1_555 1_555
C4 C1 1_555 1_555
H3 C4 1_555 1_555
C5 C1 1_555 1_555
H4 C5 1_555 1_555
O3 C24 1_555 1_555
C6 C5 1_555 1_555
C7 H5 1_555 1_555
C8 C6 1_555 1_555
H6 C8 1_555 1_555
C9 C7 1_555 1_555
H7 C9 1_555 1_555
C10 N1 1_555 1_555
C11 C4 1_555 1_555
H8 C11 1_555 1_555
H9 C11 1_555 1_555
C12 C6 1_555 1_555
H10 C12 1_555 1_555
H11 C12 1_555 1_555
C13 C2 1_555 1_555
H12 C13 1_555 1_555
H13 C13 1_555 1_555
H14 C13 1_555 1_555
C14 C7 1_555 1_555
C15 C14 1_555 1_555
H15 C15 1_555 1_555
C16 C6 1_555 1_555
H16 C16 1_555 1_555
H17 C16 1_555 1_555
H18 C16 1_555 1_555
C17 C1 1_555 1_555
H19 C17 1_555 1_555
H20 C17 1_555 1_555
C18 C5 1_555 1_555
H21 C18 1_555 1_555
H22 C18 1_555 1_555
C19 C10 1_555 1_555
C20 C8 1_555 1_555
H23 C20 1_555 1_555
H24 C20 1_555 1_555
C21 N1 1_555 1_555
H25 C21 1_555 1_555
H26 C21 1_555 1_555
C22 C2 1_555 1_555
H27 C22 1_555 1_555
H28 C22 1_555 1_555
C23 C9 1_555 1_555
H29 C23 1_555 1_555
C24 O2 1_555 1_555
C25 N2 1_555 1_555
H30 C25 1_555 1_555
C26 C19 1_555 1_555
H31 C26 1_555 1_555
C27 C26 1_555 1_555
H32 C27 1_555 1_555
C28 C3 1_555 1_555
H33 C28 1_555 1_555
H34 C28 1_555 1_555
C29 C25 1_555 1_555
H35 C29 1_555 1_555
C30 C15 1_555 1_555
H36 C30 1_555 1_555
C2 C4 1_555 1_555
C11 C12 1_555 1_555
C14 C24 1_555 1_555
C17 C28 1_555 1_555
C18 C20 1_555 1_555
C21 C22 1_555 1_555
C23 C30 1_555 1_555
C27 C29 1_555 1_555

#END
