
#######################################################################
#
#                 Cambridge Crystallographic Data Centre
#                                CCDC 
#
#######################################################################
#
# If this CIF has been generated from an entry in the Cambridge 
# Structural Database, then it will include bibliographic, chemical, 
# crystal, experimental, refinement or atomic coordinate data resulting 
# from the CCDC's data processing and validation procedures.
#
#######################################################################

data_OVOFOV
_chemical_compound_source        'seeds of Thai Xylocarpus moluccensis'
_chemical_name_common            'Thaimoluccensin A monohydrate'
_chemical_formula_moiety         'C27 H36 O8,H2 O1'
_chemical_name_systematic        
'Methyl (2-(1-(3-furyl)-4a,5-dihydroxy-5,8a-dimethyl-3-oxooctahydro-1H-isochromen-6-yl)-2,6,6-trimethyl-5-oxocyclohex-3-en-1-yl)acetate monohydrate'
_symmetry_cell_setting           orthorhombic
_symmetry_space_group_name_H-M   'P 21 21 21'
_symmetry_Int_Tables_number      19
_space_group_name_Hall           'P 2ac 2ab'
loop_
_symmetry_equiv_pos_site_id
_symmetry_equiv_pos_as_xyz
1 x,y,z
2 1/2-x,-y,1/2+z
3 1/2+x,1/2-y,-z
4 -x,1/2+y,1/2-z
_cell_length_a                   6.5514(3)
_cell_length_b                   17.1962(10)
_cell_length_c                   23.7727(13)
_cell_angle_alpha                90
_cell_angle_beta                 90
_cell_angle_gamma                90
_cell_volume                     2678.21
_exptl_crystal_colour            colorless
_exptl_crystal_description       prism
_cell_formula_units_Z            4
loop_
_atom_site_label
_atom_site_type_symbol
_atom_site_fract_x
_atom_site_fract_y
_atom_site_fract_z
C1 C -0.1742(4) 1.01694(18) 0.79370(9)
H1 H -0.2257 0.9667 0.7967
C2 C -0.2847(4) 1.0678(2) 0.76523(10)
H2 H -0.4038 1.0508 0.7479
C3 C -0.2277(4) 1.1491(2) 0.75996(11)
C4 C -0.0096(4) 1.17130(16) 0.77288(10)
C5 C 0.0646(3) 1.12254(14) 0.82406(9)
H3 H -0.0171 1.1409 0.8559
C6 C 0.2863(3) 1.14174(15) 0.83971(9)
H4 H 0.3599 1.0932 0.8443
H5 H 0.3479 1.1692 0.8084
C7 C 0.3169(4) 1.18928(15) 0.89167(11)
C8 C 0.0278(3) 1.03291(13) 0.82179(8)
C9 C 0.0897(3) 0.92186(14) 0.90110(9)
C10 C 0.0249(3) 1.00577(13) 0.88535(8)
H6 H 0.1267 1.0389 0.9038
C11 C -0.1755(3) 1.02563(14) 0.91520(8)
H7 H -0.2741 0.9844 0.9091
H8 H -0.2312 1.0735 0.9000
C12 C -0.1360(4) 1.03523(14) 0.97846(9)
H9 H -0.2639 1.0285 0.9984
H10 H -0.0889 1.0878 0.9854
C13 C 0.0229(4) 0.97729(13) 1.00268(8)
C14 C 0.0292(4) 0.90403(13) 0.96493(9)
C15 C 0.1779(5) 0.84510(15) 0.99048(11)
H11 H 0.1593 0.7955 0.9717
H12 H 0.3163 0.8623 0.9831
C16 C 0.1535(5) 0.83345(16) 1.05202(12)
C17 C -0.0563(4) 0.95088(15) 1.06050(9)
H13 H -0.1952 0.9311 1.0552
C18 C 0.2340(4) 1.01405(15) 1.00908(10)
H14 H 0.2828 1.0304 0.9729
H15 H 0.3266 0.9766 1.0248
H16 H 0.2251 1.0583 1.0336
C19 C 0.1923(4) 0.99219(16) 0.78537(10)
H17 H 0.3245 1.0008 0.8016
H18 H 0.1893 1.0132 0.7480
H19 H 0.1649 0.9374 0.7840
C20 C -0.0645(5) 1.01150(15) 1.10532(10)
C21 C -0.2315(7) 1.0507(3) 1.12034(15)
H20 H -0.3600 1.0433 1.1046
C22 C 0.0915(6) 1.0412(2) 1.14009(13)
H21 H 0.2274 1.0256 1.1403
C23 C 0.0086(8) 1.0956(2) 1.17253(14)
H22 H 0.0791 1.1246 1.1992
C24 C 0.1054(4) 1.1580(2) 0.71679(11)
H23 H 0.2470 1.1707 0.7216
H24 H 0.0476 1.1906 0.6881
H25 H 0.0928 1.1045 0.7058
C25 C 0.0003(6) 1.25729(19) 0.78817(15)
H26 H 0.1389 1.2713 0.7965
H27 H -0.0837 1.2669 0.8205
H28 H -0.0480 1.2878 0.7571
C26 C -0.0012(4) 0.85799(15) 0.86457(10)
H29 H 0.0473 0.8083 0.8773
H30 H 0.0391 0.8659 0.8262
H31 H -0.1474 0.8595 0.8672
C27 C 0.5727(7) 1.2498(3) 0.94630(18)
H32 H 0.7168 1.2596 0.9452
H33 H 0.5405 1.2197 0.9791
H34 H 0.5003 1.2983 0.9476
O1 O -0.3513(4) 1.19716(19) 0.74267(12)
O2 O 0.1892(4) 1.20741(17) 0.92499(9)
O3 O 0.5132(3) 1.20742(14) 0.89671(9)
O4 O 0.3080(2) 0.92077(10) 0.89682(8)
H35 H 0.3512 0.8785 0.9075
O5 O -0.1727(3) 0.87356(11) 0.96882(7)
H36 H -0.1793 0.8324 0.9515
O6 O 0.2227(5) 0.77634(12) 1.07556(9)
O7 O 0.0671(4) 0.88724(11) 1.08439(7)
O8 O -0.1893(6) 1.10262(19) 1.16141(11)
O9 O 0.4901(5) 0.80138(19) 0.83772(15)
H37 H 0.420(3) 0.7709(13) 0.8597(9)
H38 H 0.433(6) 0.767(3) 0.8130(17)
loop_
_geom_bond_atom_site_label_1
_geom_bond_atom_site_label_2
_geom_bond_site_symmetry_1
_geom_bond_site_symmetry_2
C1 H1 1_555 1_555
C2 C1 1_555 1_555
H2 C2 1_555 1_555
C3 C2 1_555 1_555
C4 C3 1_555 1_555
C5 C4 1_555 1_555
H3 C5 1_555 1_555
C6 C5 1_555 1_555
H4 C6 1_555 1_555
H5 C6 1_555 1_555
C7 C6 1_555 1_555
C8 C1 1_555 1_555
C9 C10 1_555 1_555
C10 C8 1_555 1_555
H6 C10 1_555 1_555
C11 C10 1_555 1_555
H7 C11 1_555 1_555
H8 C11 1_555 1_555
C12 C11 1_555 1_555
H9 C12 1_555 1_555
H10 C12 1_555 1_555
C13 C12 1_555 1_555
C14 C9 1_555 1_555
C15 C14 1_555 1_555
H11 C15 1_555 1_555
H12 C15 1_555 1_555
C16 C15 1_555 1_555
C17 C13 1_555 1_555
H13 C17 1_555 1_555
C18 C13 1_555 1_555
H14 C18 1_555 1_555
H15 C18 1_555 1_555
H16 C18 1_555 1_555
C19 C8 1_555 1_555
H17 C19 1_555 1_555
H18 C19 1_555 1_555
H19 C19 1_555 1_555
C20 C17 1_555 1_555
C21 C20 1_555 1_555
H20 C21 1_555 1_555
C22 C20 1_555 1_555
H21 C22 1_555 1_555
C23 C22 1_555 1_555
H22 C23 1_555 1_555
C24 C4 1_555 1_555
H23 C24 1_555 1_555
H24 C24 1_555 1_555
H25 C24 1_555 1_555
C25 C4 1_555 1_555
H26 C25 1_555 1_555
H27 C25 1_555 1_555
H28 C25 1_555 1_555
C26 C9 1_555 1_555
H29 C26 1_555 1_555
H30 C26 1_555 1_555
H31 C26 1_555 1_555
C27 H32 1_555 1_555
H33 C27 1_555 1_555
H34 C27 1_555 1_555
O1 C3 1_555 1_555
O2 C7 1_555 1_555
O3 C7 1_555 1_555
O4 C9 1_555 1_555
H35 O4 1_555 1_555
O5 C14 1_555 1_555
H36 O5 1_555 1_555
O6 C16 1_555 1_555
O7 C16 1_555 1_555
O8 C21 1_555 1_555
O9 H37 1_555 1_555
H38 O9 1_555 1_555
C5 C8 1_555 1_555
C13 C14 1_555 1_555
C17 O7 1_555 1_555
C23 O8 1_555 1_555
C27 O3 1_555 1_555

#END
