
#######################################################################
#
#                 Cambridge Crystallographic Data Centre
#                                CCDC 
#
#######################################################################
#
# If this CIF has been generated from an entry in the Cambridge 
# Structural Database, then it will include bibliographic, chemical, 
# crystal, experimental, refinement or atomic coordinate data resulting 
# from the CCDC's data processing and validation procedures.
#
#######################################################################

data_OVOMOC
_chemical_formula_moiety         'C33 H30 N9 P1 S1,3(H2 O1)'
_chemical_name_systematic        
"N,N',N''-Trimethyl-N''',N'''',N'''''-tris(quinolin-2-ylmethylene)phosphorothioic trihydrazide trihydrate"
_symmetry_cell_setting           rhombohedral
_symmetry_space_group_name_H-M   'R 3'
_symmetry_Int_Tables_number      146
_space_group_name_Hall           'R 3'
loop_
_symmetry_equiv_pos_site_id
_symmetry_equiv_pos_as_xyz
1 x,y,z
2 -y,x-y,z
3 -x+y,-x,z
4 2/3+x,1/3+y,1/3+z
5 2/3-y,1/3+x-y,1/3+z
6 2/3-x+y,1/3-x,1/3+z
7 1/3+x,2/3+y,2/3+z
8 1/3-y,2/3+x-y,2/3+z
9 1/3-x+y,2/3-x,2/3+z
_cell_length_a                   19.171(12)
_cell_length_b                   19.171(12)
_cell_length_c                   7.848(3)
_cell_angle_alpha                90
_cell_angle_beta                 90
_cell_angle_gamma                120
_cell_volume                     2497.92
_exptl_crystal_colour            yellow
_cell_formula_units_Z            3
loop_
_atom_site_label
_atom_site_type_symbol
_atom_site_fract_x
_atom_site_fract_y
_atom_site_fract_z
C1 C 0.84555(15) -0.03192(17) 0.9181(3)
H1 H 0.8196 -0.0002 0.9122
H2 H 0.8417 -0.0517 1.0321
H3 H 0.8197 -0.0765 0.8408
C2 C 0.89936(15) 0.06055(14) 0.6241(3)
H4 H 0.8449 0.0312 0.6512
C3 C 0.92714(15) 0.10906(14) 0.4688(3)
C4 C 0.89341(15) 0.14274(14) 0.2103(3)
C5 C 0.83384(16) 0.13149(16) 0.0900(3)
H5 H 0.7798 0.0959 0.1135
C6 C 0.85515(17) 0.17246(16) -0.0596(3)
H6 H 0.8153 0.1641 -0.1381
C7 C 0.93612(17) 0.22726(16) -0.0986(4)
H7 H 0.9495 0.2549 -0.2016
C8 C 0.99518(16) 0.23979(16) 0.0155(3)
H8 H 1.0486 0.2766 -0.0099
C9 C 0.97601(15) 0.19753(14) 0.1713(3)
C10 C 1.03411(16) 0.20699(15) 0.2942(3)
H9 H 1.0884 0.2432 0.2753
C11 C 1.01022(15) 0.16305(15) 0.4393(3)
H10 H 1.0482 0.1682 0.5196
N1 N 0.93006(12) 0.01772(13) 0.8716(3)
N2 N 0.95272(13) 0.05983(13) 0.7218(2)
N3 N 0.87047(13) 0.09970(12) 0.3597(2)
P1 P 1.0000 0.0000 0.95877(13)
S1 S 1.0000 0.0000 1.20194(14)
C1A C 1.03192(17) -0.12253(23) 0.9181(3)
C1B C 1.12253(23) 0.15445(15) 0.9181(3)
H1A H 1.0002 -0.1802 0.9122
H1B H 1.1802 0.1804 0.9122
H2A H 1.0517 -0.1066 1.0321
H2B H 1.1066 0.1583 1.0321
H3A H 1.0765 -0.1038 0.8408
H3B H 1.1038 0.1803 0.8408
C2A C 0.93945(14) -0.16119(21) 0.6241(3)
C2B C 1.16119(21) 0.10064(15) 0.6241(3)
H4A H 0.9688 -0.1863 0.6512
H4B H 1.1863 0.1551 0.6512
C3A C 0.89094(14) -0.18192(21) 0.4688(3)
C3B C 1.18192(21) 0.07286(15) 0.4688(3)
C4A C 0.85726(14) -0.24933(21) 0.2103(3)
C4B C 1.24933(21) 0.10659(15) 0.2103(3)
C5A C 0.86851(16) -0.29765(23) 0.0900(3)
C5B C 1.29765(23) 0.16616(16) 0.0900(3)
H5A H 0.9041 -0.3161 0.1135
H5B H 1.3161 0.2202 0.1135
C6A C 0.82754(16) -0.31731(23) -0.0596(3)
C6B C 1.31731(23) 0.14485(17) -0.0596(3)
H6A H 0.8359 -0.3488 -0.1381
H6B H 1.3488 0.1847 -0.1381
C7A C 0.77274(16) -0.29114(23) -0.0986(4)
C7B C 1.29114(23) 0.06388(17) -0.0986(4)
H7A H 0.7451 -0.3054 -0.2016
H7B H 1.3054 0.0505 -0.2016
C8A C 0.76021(16) -0.24461(23) 0.0155(3)
C8B C 1.24461(23) 0.00482(16) 0.0155(3)
H8A H 0.7234 -0.2280 -0.0099
H8B H 1.2280 -0.0486 -0.0099
C9A C 0.80247(14) -0.22152(21) 0.1713(3)
C9B C 1.22152(21) 0.02399(15) 0.1713(3)
C10A C 0.79301(15) -0.17288(22) 0.2942(3)
C10B C 1.17288(22) -0.03411(16) 0.2942(3)
H9A H 0.7568 -0.1548 0.2753
H9B H 1.1548 -0.0884 0.2753
C11A C 0.83695(15) -0.15283(21) 0.4393(3)
C11B C 1.15283(21) -0.01022(15) 0.4393(3)
H10A H 0.8318 -0.1200 0.5196
H10B H 1.1200 -0.0482 0.5196
N1A N 0.98228(13) -0.08766(18) 0.8716(3)
N1B N 1.08766(18) 0.06994(12) 0.8716(3)
N2A N 0.94017(13) -0.10711(18) 0.7218(2)
N2B N 1.10711(18) 0.04728(13) 0.7218(2)
N3A N 0.90030(12) -0.22923(18) 0.3597(2)
N3B N 1.22923(18) 0.12953(13) 0.3597(2)
O1 O 0.70132(13) -0.00433(13) 0.4238(3)
H11 H 0.756(2) 0.025(2) 0.402(5)
H12 H 0.689(3) 0.006(3) 0.522(7)
loop_
_geom_bond_atom_site_label_1
_geom_bond_atom_site_label_2
_geom_bond_site_symmetry_1
_geom_bond_site_symmetry_2
C1 H1 1_555 1_555
H2 C1 1_555 1_555
H3 C1 1_555 1_555
C2 H4 1_555 1_555
C3 C2 1_555 1_555
C4 C5 1_555 1_555
C5 H5 1_555 1_555
C6 C5 1_555 1_555
H6 C6 1_555 1_555
C7 C6 1_555 1_555
H7 C7 1_555 1_555
C8 C7 1_555 1_555
H8 C8 1_555 1_555
C9 C4 1_555 1_555
C10 C9 1_555 1_555
H9 C10 1_555 1_555
C11 C3 1_555 1_555
H10 C11 1_555 1_555
N1 C1 1_555 1_555
N2 C2 1_555 1_555
N3 C3 1_555 1_555
O1 H11 1_555 1_555
P1 N1 1_555 1_555
S1 P1 1_555 1_555
H12 O1 1_555 1_555
C1A H1A 1_555 1_555
C1B H1B 1_555 1_555
H2A C1A 1_555 1_555
H2B C1B 1_555 1_555
H3A C1A 1_555 1_555
H3B C1B 1_555 1_555
C2A H4A 1_555 1_555
C2B H4B 1_555 1_555
C3A C2A 1_555 1_555
C3B C2B 1_555 1_555
C4A C5A 1_555 1_555
C4B C5B 1_555 1_555
C5A H5A 1_555 1_555
C5B H5B 1_555 1_555
C6A C5A 1_555 1_555
C6B C5B 1_555 1_555
H6A C6A 1_555 1_555
H6B C6B 1_555 1_555
C7A C6A 1_555 1_555
C7B C6B 1_555 1_555
H7A C7A 1_555 1_555
H7B C7B 1_555 1_555
C8A C7A 1_555 1_555
C8B C7B 1_555 1_555
H8A C8A 1_555 1_555
H8B C8B 1_555 1_555
C9A C4A 1_555 1_555
C9B C4B 1_555 1_555
C10A C9A 1_555 1_555
C10B C9B 1_555 1_555
H9A C10A 1_555 1_555
H9B C10B 1_555 1_555
C11A C3A 1_555 1_555
C11B C3B 1_555 1_555
H10A C11A 1_555 1_555
H10B C11B 1_555 1_555
N1A P1 1_555 1_555
N1B P1 1_555 1_555
N2A C2A 1_555 1_555
N2B C2B 1_555 1_555
N3A C3A 1_555 1_555
N3B C3B 1_555 1_555
C4 N3 1_555 1_555
C8 C9 1_555 1_555
C10 C11 1_555 1_555
N1 N2 1_555 1_555
C1A N1A 1_555 1_555
C1B N1B 1_555 1_555
C4A N3A 1_555 1_555
C4B N3B 1_555 1_555
C8A C9A 1_555 1_555
C8B C9B 1_555 1_555
C10A C11A 1_555 1_555
C10B C11B 1_555 1_555
N1A N2A 1_555 1_555
N1B N2B 1_555 1_555

#END
