
#######################################################################
#
#                 Cambridge Crystallographic Data Centre
#                                CCDC 
#
#######################################################################
#
# If this CIF has been generated from an entry in the Cambridge 
# Structural Database, then it will include bibliographic, chemical, 
# crystal, experimental, refinement or atomic coordinate data resulting 
# from the CCDC's data processing and validation procedures.
#
#######################################################################

data_OVOMUI
_chemical_formula_moiety         'C33 H30 N9 P1 S1,2(C1 H4 O1)'
_chemical_name_systematic        
"N,N',N''-Trimethyl-N''',N'''',N'''''-tris(quinolin-2-ylmethylene)phosphorothioic trihydrazide methanol solvate"
_symmetry_cell_setting           triclinic
_symmetry_space_group_name_H-M   'P -1'
_symmetry_Int_Tables_number      2
_space_group_name_Hall           '-P 1'
loop_
_symmetry_equiv_pos_site_id
_symmetry_equiv_pos_as_xyz
1 x,y,z
2 -x,-y,-z
_cell_length_a                   8.904(3)
_cell_length_b                   11.819(4)
_cell_length_c                   17.472(6)
_cell_angle_alpha                72.568(6)
_cell_angle_beta                 81.294(6)
_cell_angle_gamma                76.966(6)
_cell_volume                     1702.09
_exptl_crystal_colour            yellow
_cell_formula_units_Z            2
loop_
_atom_site_label
_atom_site_type_symbol
_atom_site_fract_x
_atom_site_fract_y
_atom_site_fract_z
C1 C 0.4859(3) 0.3496(3) 0.64583(17)
H1 H 0.5182 0.2640 0.6540
H2 H 0.5037 0.3903 0.5897
H3 H 0.3776 0.3678 0.6628
C2 C 0.6210(3) 0.6744(2) 0.70310(16)
H4 H 0.5252 0.6691 0.7364
H5 H 0.6002 0.7061 0.6476
H6 H 0.6734 0.7271 0.7172
C3 C 1.0308(3) 0.3953(2) 0.67808(16)
H7 H 1.0821 0.3403 0.7232
H8 H 1.0149 0.4763 0.6825
H9 H 1.0936 0.3897 0.6291
C4 C 0.4926(3) 0.2636(2) 0.81296(16)
H10 H 0.4261 0.2390 0.7876
C5 C 0.5039(3) 0.2188(2) 0.90042(16)
C6 C 0.6271(3) 0.2407(2) 0.93384(16)
H11 H 0.7031 0.2790 0.9003
C7 C 0.6334(3) 0.2056(2) 1.01477(16)
H12 H 0.7119 0.2215 1.0372
C8 C 0.5182(3) 0.1040(3) 1.14951(17)
H13 H 0.5949 0.1179 1.1744
C9 C 0.4061(3) 0.0448(3) 1.19506(17)
H14 H 0.4066 0.0183 1.2508
C10 C 0.2897(3) 0.0239(3) 1.15770(17)
H15 H 0.2132 -0.0161 1.1891
C11 C 0.2879(3) 0.0615(2) 1.07580(17)
H16 H 0.2110 0.0460 1.0519
C12 C 0.4018(3) 0.1237(2) 1.02731(15)
C13 C 0.5187(3) 0.1443(2) 1.06493(16)
C14 C 0.7326(3) 0.5420(2) 0.84855(15)
H17 H 0.6616 0.6143 0.8429
C15 C 0.8011(3) 0.4772(2) 0.92532(16)
C16 C 0.9390(3) 0.3895(2) 0.92773(16)
H18 H 0.9875 0.3704 0.8810
C17 C 0.9994(3) 0.3338(2) 0.99945(16)
H19 H 1.0912 0.2771 1.0021
C18 C 0.9780(3) 0.3117(3) 1.14726(17)
H20 H 1.0693 0.2545 1.1534
C19 C 0.8989(3) 0.3463(3) 1.21250(16)
H21 H 0.9381 0.3139 1.2626
C20 C 0.7589(3) 0.4307(3) 1.20448(17)
H22 H 0.7053 0.4526 1.2494
C21 C 0.7011(3) 0.4804(3) 1.13144(17)
H23 H 0.6074 0.5349 1.1270
C22 C 0.7825(3) 0.4499(2) 1.06221(16)
C23 C 0.9214(3) 0.3625(2) 1.07038(16)
C24 C 0.9970(3) 0.1801(2) 0.65689(15)
H24 H 1.0915 0.1907 0.6673
C25 C 0.9847(3) 0.0716(2) 0.63602(15)
C26 C 0.8389(3) 0.0542(2) 0.62221(15)
H25 H 0.7495 0.1104 0.6283
C27 C 0.8319(3) -0.0446(2) 0.60026(15)
H26 H 0.7371 -0.0577 0.5921
C28 C 0.9729(3) -0.2321(2) 0.56458(15)
H27 H 0.8814 -0.2488 0.5549
C29 C 1.1109(3) -0.3086(3) 0.55445(16)
H28 H 1.1124 -0.3759 0.5371
C30 C 1.2495(3) -0.2861(3) 0.57001(16)
H29 H 1.3420 -0.3388 0.5631
C31 C 1.2504(3) -0.1871(2) 0.59537(16)
H30 H 1.3429 -0.1734 0.6060
C32 C 1.1105(3) -0.1060(2) 0.60533(15)
C33 C 0.9690(3) -0.1277(2) 0.58977(15)
N1 N 0.5746(2) 0.3904(2) 0.69300(12)
N2 N 0.5794(2) 0.33799(19) 0.77411(13)
N3 N 0.7183(2) 0.5548(2) 0.71554(13)
N4 N 0.7755(2) 0.4942(2) 0.79002(13)
N5 N 0.8809(2) 0.3641(2) 0.67722(13)
N6 N 0.8739(2) 0.2603(2) 0.66040(12)
N7 N 0.3945(2) 0.1619(2) 0.94503(13)
N8 N 0.7240(3) 0.5088(2) 0.98925(13)
N9 N 1.1158(2) -0.0063(2) 0.62872(13)
P1 P 0.71798(7) 0.46776(6) 0.65598(4)
S1 S 0.69801(8) 0.55834(6) 0.54505(4)
C34 C 0.0580(4) 0.0932(3) 0.8761(2)
H31 H 0.0231 0.0963 0.9303
H32 H 0.1039 0.0114 0.8761
H33 H -0.0284 0.1211 0.8439
O2 O 0.1680(2) 0.1671(2) 0.84392(13)
H38 H 0.2289 0.1562 0.8774
C35 C 0.4229(4) 0.1211(3) 0.55683(19)
H34 H 0.3386 0.1866 0.5609
H35 H 0.4103 0.0904 0.5137
H36 H 0.5188 0.1495 0.5462
O1 O 0.4242(2) 0.0285(2) 0.62963(13)
H37 H 0.3359 0.0166 0.6448
loop_
_geom_bond_atom_site_label_1
_geom_bond_atom_site_label_2
_geom_bond_site_symmetry_1
_geom_bond_site_symmetry_2
C1 H1 1_555 1_555
H2 C1 1_555 1_555
H3 C1 1_555 1_555
C2 H4 1_555 1_555
H5 C2 1_555 1_555
H6 C2 1_555 1_555
C3 H7 1_555 1_555
H8 C3 1_555 1_555
H9 C3 1_555 1_555
C4 H10 1_555 1_555
C5 C4 1_555 1_555
C6 C5 1_555 1_555
H11 C6 1_555 1_555
C7 C6 1_555 1_555
H12 C7 1_555 1_555
C8 H13 1_555 1_555
C9 C8 1_555 1_555
H14 C9 1_555 1_555
C10 C9 1_555 1_555
H15 C10 1_555 1_555
C11 C10 1_555 1_555
H16 C11 1_555 1_555
C12 C11 1_555 1_555
C13 C7 1_555 1_555
C14 H17 1_555 1_555
C15 C14 1_555 1_555
C16 C15 1_555 1_555
H18 C16 1_555 1_555
C17 C16 1_555 1_555
H19 C17 1_555 1_555
C18 H20 1_555 1_555
C19 C18 1_555 1_555
H21 C19 1_555 1_555
C20 C19 1_555 1_555
H22 C20 1_555 1_555
C21 C20 1_555 1_555
H23 C21 1_555 1_555
C22 C21 1_555 1_555
C23 C17 1_555 1_555
C24 H24 1_555 1_555
C25 C24 1_555 1_555
C26 C25 1_555 1_555
H25 C26 1_555 1_555
C27 C26 1_555 1_555
H26 C27 1_555 1_555
C28 H27 1_555 1_555
C29 C28 1_555 1_555
H28 C29 1_555 1_555
C30 C29 1_555 1_555
H29 C30 1_555 1_555
C31 C30 1_555 1_555
H30 C31 1_555 1_555
C32 C31 1_555 1_555
C33 C27 1_555 1_555
C34 H31 1_555 1_555
H32 C34 1_555 1_555
H33 C34 1_555 1_555
C35 H34 1_555 1_555
H35 C35 1_555 1_555
H36 C35 1_555 1_555
N1 C1 1_555 1_555
N2 C4 1_555 1_555
N3 C2 1_555 1_555
N4 C14 1_555 1_555
N5 C3 1_555 1_555
N6 C24 1_555 1_555
N7 C5 1_555 1_555
N8 C15 1_555 1_555
N9 C25 1_555 1_555
P1 N1 1_555 1_555
S1 P1 1_555 1_555
O1 C35 1_555 1_555
H37 O1 1_555 1_555
O2 C34 1_555 1_555
H38 O2 1_555 1_555
C8 C13 1_555 1_555
C12 C13 1_555 1_555
C12 N7 1_555 1_555
C18 C23 1_555 1_555
C22 C23 1_555 1_555
C22 N8 1_555 1_555
C28 C33 1_555 1_555
C32 C33 1_555 1_555
C32 N9 1_555 1_555
N1 N2 1_555 1_555
N3 N4 1_555 1_555
N3 P1 1_555 1_555
N5 N6 1_555 1_555
N5 P1 1_555 1_555

#END
