
#######################################################################
#
#                 Cambridge Crystallographic Data Centre
#                                CCDC 
#
#######################################################################
#
# If this CIF has been generated from an entry in the Cambridge 
# Structural Database, then it will include bibliographic, chemical, 
# crystal, experimental, refinement or atomic coordinate data resulting 
# from the CCDC's data processing and validation procedures.
#
#######################################################################

data_OVOWED
_chemical_formula_moiety         'C22 H19 Br1 N2 O2 S1'
_chemical_name_systematic        
N-(1-(benzylideneamino)-2-phenylvinyl)-N-(4-bromophenyl)methanesulfonamide
_symmetry_cell_setting           monoclinic
_symmetry_space_group_name_H-M   'P 21'
_symmetry_Int_Tables_number      4
_space_group_name_Hall           'P 2yb'
loop_
_symmetry_equiv_pos_site_id
_symmetry_equiv_pos_as_xyz
1 x,y,z
2 -x,1/2+y,-z
_cell_length_a                   11.662(3)
_cell_length_b                   7.774(2)
_cell_length_c                   12.367(3)
_cell_angle_alpha                90
_cell_angle_beta                 115.135(4)
_cell_angle_gamma                90
_cell_volume                     1015.03
_exptl_crystal_colour            colorless
_exptl_crystal_description       block
_cell_formula_units_Z            2
loop_
_atom_site_label
_atom_site_type_symbol
_atom_site_fract_x
_atom_site_fract_y
_atom_site_fract_z
Br1 Br 0.11456(5) 1.48188(7) 0.13354(5)
S1 S 0.53173(9) 0.78388(13) 0.37274(9)
N1 N 0.7022(3) 0.9462(4) 0.2780(3)
O1 O 0.4216(3) 0.7564(5) 0.3898(3)
C1 C 0.7844(4) 0.8673(5) 0.2561(4)
H1 H 0.7571 0.7897 0.1929
N2 N 0.4939(3) 0.9096(4) 0.2579(3)
C2 C 0.5768(3) 0.9172(5) 0.2000(4)
O2 O 0.5932(3) 0.6433(4) 0.3502(3)
C3 C 0.5342(4) 0.9148(5) 0.0843(4)
H2 H 0.5945 0.9377 0.0555
C4 C 0.4051(3) 1.0450(5) 0.2356(3)
C5 C 0.4425(4) 1.2103(5) 0.2353(4)
H3 H 0.5273 1.2345 0.2558
C6 C 0.3568(4) 1.3409(6) 0.2051(4)
H4 H 0.3816 1.4541 0.2031
C7 C 0.2343(4) 1.3020(6) 0.1780(4)
C8 C 0.1961(4) 1.1401(6) 0.1810(4)
H5 H 0.1118 1.1176 0.1638
C9 C 0.2805(3) 1.0096(6) 0.2090(4)
H6 H 0.2545 0.8968 0.2101
C10 C 0.4082(4) 0.8821(6) -0.0066(4)
C11 C 0.3755(4) 0.9498(6) -0.1191(4)
H7 H 0.4338 1.0166 -0.1333
C12 C 0.2601(5) 0.9204(7) -0.2088(4)
H8 H 0.2401 0.9659 -0.2843
C13 C 0.1732(5) 0.8252(7) -0.1896(5)
H9 H 0.0927 0.8092 -0.2507
C14 C 0.2042(4) 0.7533(7) -0.0807(4)
H10 H 0.1457 0.6849 -0.0679
C15 C 0.3204(4) 0.7810(6) 0.0095(4)
H11 H 0.3408 0.7304 0.0836
C16 C 0.9182(4) 0.8919(6) 0.3242(4)
C17 C 0.9998(4) 0.7833(6) 0.3033(4)
H12 H 0.9676 0.6991 0.2446
C18 C 1.1273(4) 0.7983(7) 0.3679(4)
H13 H 1.1816 0.7218 0.3551
C19 C 1.1748(4) 0.9234(6) 0.4501(4)
H14 H 1.2620 0.9349 0.4926
C20 C 1.0959(4) 1.0330(6) 0.4714(4)
H15 H 1.1294 1.1193 0.5283
C21 C 0.9670(4) 1.0170(6) 0.4092(4)
H16 H 0.9132 1.0909 0.4249
C22 C 0.6380(4) 0.8952(7) 0.4948(4)
H17 H 0.5963 0.9919 0.5107
H18 H 0.7070 0.9351 0.4786
H19 H 0.6699 0.8207 0.5632
loop_
_geom_bond_atom_site_label_1
_geom_bond_atom_site_label_2
_geom_bond_site_symmetry_1
_geom_bond_site_symmetry_2
Br1 C7 1_555 1_555
S1 O1 1_555 1_555
N1 C1 1_555 1_555
C1 H1 1_555 1_555
N2 S1 1_555 1_555
C2 N1 1_555 1_555
O2 S1 1_555 1_555
C3 C2 1_555 1_555
H2 C3 1_555 1_555
C4 N2 1_555 1_555
C5 C4 1_555 1_555
H3 C5 1_555 1_555
C6 C5 1_555 1_555
H4 C6 1_555 1_555
C7 C6 1_555 1_555
C8 C7 1_555 1_555
H5 C8 1_555 1_555
C9 C4 1_555 1_555
H6 C9 1_555 1_555
C10 C3 1_555 1_555
C11 C10 1_555 1_555
H7 C11 1_555 1_555
C12 C11 1_555 1_555
H8 C12 1_555 1_555
C13 C12 1_555 1_555
H9 C13 1_555 1_555
C14 C13 1_555 1_555
H10 C14 1_555 1_555
C15 C10 1_555 1_555
H11 C15 1_555 1_555
C16 C1 1_555 1_555
C17 C16 1_555 1_555
H12 C17 1_555 1_555
C18 C17 1_555 1_555
H13 C18 1_555 1_555
C19 C18 1_555 1_555
H14 C19 1_555 1_555
C20 C19 1_555 1_555
H15 C20 1_555 1_555
C21 C16 1_555 1_555
H16 C21 1_555 1_555
C22 S1 1_555 1_555
H17 C22 1_555 1_555
H18 C22 1_555 1_555
H19 C22 1_555 1_555
N2 C2 1_555 1_555
C8 C9 1_555 1_555
C14 C15 1_555 1_555
C20 C21 1_555 1_555

#END
