
#######################################################################
#
#                 Cambridge Crystallographic Data Centre
#                                CCDC 
#
#######################################################################
#
# If this CIF has been generated from an entry in the Cambridge 
# Structural Database, then it will include bibliographic, chemical, 
# crystal, experimental, refinement or atomic coordinate data resulting 
# from the CCDC's data processing and validation procedures.
#
#######################################################################

data_OVUBUE
_chemical_formula_moiety         'C21 H47 Cl1 N2 Si4'
_chemical_name_systematic        
(1-chloro-1-(1,3-diisopropyl-4,5-dimethyl-1H-imidazol-3-ium-2-yl)-2,2,2-trimethyldisilanyl)(bis(trimethylsilyl))methanide
_symmetry_cell_setting           monoclinic
_symmetry_space_group_name_H-M   'P 21/n'
_symmetry_Int_Tables_number      14
_space_group_name_Hall           '-P 2yn'
loop_
_symmetry_equiv_pos_site_id
_symmetry_equiv_pos_as_xyz
1 x,y,z
2 1/2-x,1/2+y,1/2-z
3 -x,-y,-z
4 1/2+x,1/2-y,1/2+z
_cell_length_a                   9.1735(18)
_cell_length_b                   17.478(4)
_cell_length_c                   18.200(4)
_cell_angle_alpha                90
_cell_angle_beta                 101.25(3)
_cell_angle_gamma                90
_cell_volume                     2862.02
_exptl_crystal_colour            orange
_exptl_crystal_description       prism
_cell_formula_units_Z            4
loop_
_atom_site_label
_atom_site_type_symbol
_atom_site_fract_x
_atom_site_fract_y
_atom_site_fract_z
Cl1 Cl 0.69351(8) 0.66842(5) 0.00252(5)
N1 N 1.0725(3) 0.70380(15) -0.01374(14)
Si1 Si 0.80320(11) 0.63908(6) 0.19129(5)
N2 N 1.1312(3) 0.61503(14) 0.07060(14)
Si2 Si 0.86468(9) 0.70992(5) 0.09102(5)
C1 C 1.1269(4) 0.56406(18) 0.13512(18)
H1 H 1.0440 0.5829 0.1588
Si3 Si 1.02744(10) 0.85170(5) 0.16176(5)
C2 C 0.8652(3) 0.80992(18) 0.10189(18)
C3 C 1.1975(3) 0.66691(19) -0.02888(18)
Si4 Si 0.70654(11) 0.87125(6) 0.06443(6)
C4 C 0.9898(3) 0.76839(18) -0.05764(17)
H2 H 0.9140 0.7863 -0.0288
C5 C 1.0321(3) 0.67187(17) 0.04805(17)
C6 C 1.1933(4) 0.7859(2) 0.1766(2)
H3 H 1.1677 0.7376 0.1983
H4 H 1.2763 0.8101 0.2107
H5 H 1.2221 0.7758 0.1284
C7 C 1.2340(3) 0.61153(18) 0.02363(18)
C8 C 1.3619(4) 0.5572(2) 0.0318(2)
H6 H 1.4129 0.5638 -0.0104
H7 H 1.3253 0.5046 0.0322
H8 H 1.4314 0.5676 0.0788
C9 C 0.9057(4) 0.7416(2) -0.13232(18)
H9 H 0.9759 0.7232 -0.1626
H10 H 0.8477 0.7842 -0.1582
H11 H 0.8385 0.6999 -0.1249
C10 C 1.0944(4) 0.8362(2) -0.0615(2)
H12 H 1.1530 0.8465 -0.0114
H13 H 1.0357 0.8816 -0.0797
H14 H 1.1613 0.8239 -0.0957
C11 C 1.0038(5) 0.8740(2) 0.2607(2)
H15 H 0.9251 0.9122 0.2591
H16 H 1.0973 0.8942 0.2896
H17 H 0.9769 0.8272 0.2845
C12 C 1.0871(4) 0.4826(2) 0.1093(2)
H18 H 0.9946 0.4829 0.0718
H19 H 1.0738 0.4515 0.1523
H20 H 1.1673 0.4610 0.0872
C13 C 0.7542(4) 0.5359(2) 0.1701(2)
H21 H 0.8433 0.5042 0.1846
H22 H 0.7149 0.5299 0.1163
H23 H 0.6788 0.5197 0.1983
C14 C 1.2726(4) 0.6856(2) -0.0924(2)
H24 H 1.3331 0.7318 -0.0803
H25 H 1.1975 0.6945 -0.1378
H26 H 1.3365 0.6429 -0.1007
C15 C 0.9418(5) 0.6452(2) 0.2814(2)
H27 H 0.8972 0.6256 0.3223
H28 H 0.9712 0.6987 0.2914
H29 H 1.0295 0.6147 0.2775
C16 C 1.2676(4) 0.5692(2) 0.1947(2)
H30 H 1.3468 0.5397 0.1786
H31 H 1.2488 0.5482 0.2419
H32 H 1.2982 0.6228 0.2019
C17 C 0.6297(5) 0.6886(2) 0.2073(2)
H33 H 0.5905 0.6617 0.2465
H34 H 0.5550 0.6883 0.1607
H35 H 0.6532 0.7415 0.2229
C18 C 1.0954(5) 0.9442(2) 0.1254(2)
H36 H 1.0792 0.9424 0.0706
H37 H 1.2017 0.9504 0.1459
H38 H 1.0405 0.9874 0.1410
C19 C 0.5192(5) 0.8344(3) 0.0650(4)
H39 H 0.5087 0.7832 0.0425
H40 H 0.4451 0.8688 0.0360
H41 H 0.5038 0.8316 0.1167
C20 C 0.7166(6) 0.9668(3) 0.1098(4)
H42 H 0.6935 0.9619 0.1599
H43 H 0.6446 1.0013 0.0795
H44 H 0.8170 0.9878 0.1138
C21 C 0.6959(6) 0.8949(4) -0.0376(3)
H45 H 0.7946 0.9095 -0.0458
H46 H 0.6265 0.9374 -0.0519
H47 H 0.6608 0.8500 -0.0683
loop_
_geom_bond_atom_site_label_1
_geom_bond_atom_site_label_2
_geom_bond_site_symmetry_1
_geom_bond_site_symmetry_2
Cl1 Si2 1_555 1_555
N1 C3 1_555 1_555
Si1 Si2 1_555 1_555
N2 C1 1_555 1_555
Si2 C2 1_555 1_555
C1 H1 1_555 1_555
Si3 C2 1_555 1_555
C2 Si4 1_555 1_555
C3 C7 1_555 1_555
Si4 C19 1_555 1_555
C4 N1 1_555 1_555
H2 C4 1_555 1_555
C5 N1 1_555 1_555
C6 Si3 1_555 1_555
H3 C6 1_555 1_555
H4 C6 1_555 1_555
H5 C6 1_555 1_555
C7 N2 1_555 1_555
C8 C7 1_555 1_555
H6 C8 1_555 1_555
H7 C8 1_555 1_555
H8 C8 1_555 1_555
C9 C4 1_555 1_555
H9 C9 1_555 1_555
H10 C9 1_555 1_555
H11 C9 1_555 1_555
C10 C4 1_555 1_555
H12 C10 1_555 1_555
H13 C10 1_555 1_555
H14 C10 1_555 1_555
C11 Si3 1_555 1_555
H15 C11 1_555 1_555
H16 C11 1_555 1_555
H17 C11 1_555 1_555
C12 C1 1_555 1_555
H18 C12 1_555 1_555
H19 C12 1_555 1_555
H20 C12 1_555 1_555
C13 Si1 1_555 1_555
H21 C13 1_555 1_555
H22 C13 1_555 1_555
H23 C13 1_555 1_555
C14 C3 1_555 1_555
H24 C14 1_555 1_555
H25 C14 1_555 1_555
H26 C14 1_555 1_555
C15 Si1 1_555 1_555
H27 C15 1_555 1_555
H28 C15 1_555 1_555
H29 C15 1_555 1_555
C16 C1 1_555 1_555
H30 C16 1_555 1_555
H31 C16 1_555 1_555
H32 C16 1_555 1_555
C17 Si1 1_555 1_555
H33 C17 1_555 1_555
H34 C17 1_555 1_555
H35 C17 1_555 1_555
C18 Si3 1_555 1_555
H36 C18 1_555 1_555
H37 C18 1_555 1_555
H38 C18 1_555 1_555
C19 H39 1_555 1_555
H40 C19 1_555 1_555
H41 C19 1_555 1_555
C20 Si4 1_555 1_555
H42 C20 1_555 1_555
H43 C20 1_555 1_555
H44 C20 1_555 1_555
C21 Si4 1_555 1_555
H45 C21 1_555 1_555
H46 C21 1_555 1_555
H47 C21 1_555 1_555
N2 C5 1_555 1_555
Si2 C5 1_555 1_555

#END
