
#######################################################################
#
#                 Cambridge Crystallographic Data Centre
#                                CCDC 
#
#######################################################################
#
# If this CIF has been generated from an entry in the Cambridge 
# Structural Database, then it will include bibliographic, chemical, 
# crystal, experimental, refinement or atomic coordinate data resulting 
# from the CCDC's data processing and validation procedures.
#
#######################################################################

data_OVUCEP
_chemical_formula_moiety         'C36 H76 N4 Si6'
_chemical_name_systematic        
'(2-(bis(trimethylsilyl)methanidyl)-1,2-bis(1,3-diisopropyl-4,5-dimethyl-1H-imidazol-3-ium-2-yl)disilenyl)(bis(trimethylsilyl))methanide unknown solvate'
_symmetry_cell_setting           monoclinic
_symmetry_space_group_name_H-M   'P 21/c'
_symmetry_Int_Tables_number      14
_space_group_name_Hall           '-P 2ybc'
loop_
_symmetry_equiv_pos_site_id
_symmetry_equiv_pos_as_xyz
1 x,y,z
2 -x,1/2+y,1/2-z
3 -x,-y,-z
4 x,1/2-y,1/2+z
_cell_length_a                   18.536(3)
_cell_length_b                   12.1263(18)
_cell_length_c                   23.127(4)
_cell_angle_alpha                90
_cell_angle_beta                 108.571(4)
_cell_angle_gamma                90
_cell_volume                     4927.65
_exptl_crystal_colour            green
_exptl_crystal_description       prism
_cell_formula_units_Z            4
loop_
_atom_site_label
_atom_site_type_symbol
_atom_site_fract_x
_atom_site_fract_y
_atom_site_fract_z
Si1 Si 0.24086(4) 0.32024(5) 0.18137(3)
Si2 Si 0.25103(4) 0.59685(5) 0.31417(3)
Si3 Si 0.41040(4) 0.68457(6) 0.39097(3)
Si4 Si 0.24707(4) 0.56843(5) 0.21971(3)
Si5 Si 0.26312(4) 0.76710(6) 0.41782(3)
Si6 Si 0.13859(4) 0.49669(5) 0.09324(3)
N1 N 0.36715(11) 0.66531(15) 0.17977(9)
N2 N 0.28810(11) 0.79270(15) 0.18578(9)
N3 N 0.11541(11) 0.46523(17) 0.31560(10)
N4 N 0.22116(12) 0.39332(17) 0.37242(10)
C1 C 0.30313(13) 0.68291(18) 0.19488(11)
C2 C 0.34387(13) 0.84344(19) 0.16644(11)
C3 C 0.21167(13) 0.46286(18) 0.16488(11)
C4 C 0.30824(13) 0.67686(19) 0.37616(11)
C5 C 0.19193(13) 0.47931(19) 0.33415(11)
C6 C 0.30391(15) 0.3803(2) 0.40347(13)
H1 H 0.3300 0.4338 0.3839
C7 C 0.39314(13) 0.76347(19) 0.16236(11)
C8 C 0.29722(18) 0.9150(2) 0.42459(14)
H2 H 0.3522 0.9171 0.4455
H3 H 0.2711 0.9575 0.4480
H4 H 0.2860 0.9470 0.3838
C9 C 0.06061(14) 0.5389(2) 0.27161(13)
H5 H 0.0902 0.6047 0.2660
C10 C 0.34564(15) 0.9622(2) 0.15130(13)
H6 H 0.3962 0.9813 0.1495
H7 H 0.3344 1.0067 0.1828
H8 H 0.3074 0.9769 0.1117
C11 C 0.05599(16) 0.3965(2) 0.07128(13)
H9 H 0.0754 0.3210 0.0724
H10 H 0.0226 0.4133 0.0300
H11 H 0.0272 0.4032 0.1001
C12 C 0.27878(19) 0.7215(2) 0.49907(13)
H12 H 0.2544 0.6498 0.4990
H13 H 0.2565 0.7760 0.5198
H14 H 0.3335 0.7153 0.5206
C13 C 0.22242(14) 0.8473(2) 0.19743(12)
H15 H 0.1879 0.7872 0.2023
C14 C 0.46221(14) 0.7749(2) 0.14257(13)
H16 H 0.4633 0.8488 0.1257
H17 H 0.4606 0.7195 0.1113
H18 H 0.5080 0.7639 0.1777
C15 C 0.09818(18) 0.6388(2) 0.09481(14)
H19 H 0.0887 0.6500 0.1337
H20 H 0.0503 0.6461 0.0612
H21 H 0.1345 0.6941 0.0903
C16 C 0.40159(14) 0.55425(19) 0.18208(12)
H22 H 0.3730 0.5042 0.2014
C17 C 0.48437(15) 0.5513(2) 0.22272(14)
H23 H 0.5165 0.5854 0.2013
H24 H 0.5002 0.4746 0.2326
H25 H 0.4897 0.5921 0.2605
C18 C 0.17186(18) 0.4987(2) 0.02436(13)
H26 H 0.2101 0.5568 0.0292
H27 H 0.1285 0.5134 -0.0122
H28 H 0.1943 0.4272 0.0203
C19 C 0.32511(18) 0.4132(2) 0.47059(14)
H29 H 0.3061 0.4876 0.4737
H30 H 0.3806 0.4121 0.4890
H31 H 0.3023 0.3610 0.4921
C20 C 0.17773(16) 0.2381(2) 0.21527(14)
H32 H 0.1770 0.2729 0.2533
H33 H 0.1975 0.1628 0.2237
H34 H 0.1259 0.2359 0.1864
C21 C 0.34074(15) 0.3005(2) 0.23483(13)
H35 H 0.3773 0.3208 0.2140
H36 H 0.3482 0.2231 0.2475
H37 H 0.3486 0.3474 0.2708
C22 C 0.16296(16) 0.3261(2) 0.37741(13)
C23 C 0.24104(18) 0.2439(2) 0.11011(14)
H38 H 0.1898 0.2454 0.0803
H39 H 0.2566 0.1672 0.1205
H40 H 0.2768 0.2794 0.0926
C24 C 0.15697(16) 0.7739(3) 0.38096(15)
H41 H 0.1452 0.7984 0.3386
H42 H 0.1354 0.8261 0.4033
H43 H 0.1350 0.7006 0.3818
C25 C 0.24762(17) 0.9103(2) 0.25718(13)
H44 H 0.2744 0.8602 0.2903
H45 H 0.2029 0.9410 0.2654
H46 H 0.2818 0.9703 0.2545
C26 C 0.44194(16) 0.7842(2) 0.34114(14)
H47 H 0.4176 0.7648 0.2982
H48 H 0.4974 0.7803 0.3510
H49 H 0.4272 0.8593 0.3484
C27 C 0.45654(15) 0.5494(2) 0.38312(15)
H50 H 0.4527 0.4984 0.4148
H51 H 0.5103 0.5619 0.3876
H52 H 0.4307 0.5177 0.3429
C28 C 0.09682(15) 0.3690(2) 0.34156(13)
C29 C 0.17642(15) 0.9172(2) 0.14335(14)
H53 H 0.2026 0.9875 0.1435
H54 H 0.1258 0.9313 0.1466
H55 H 0.1714 0.8778 0.1053
C30 C 0.03005(16) 0.4844(3) 0.21012(14)
H56 H 0.0725 0.4620 0.1961
H57 H -0.0025 0.5364 0.1808
H58 H 0.0003 0.4193 0.2134
C31 C 0.46393(17) 0.7290(3) 0.47173(13)
H59 H 0.4411 0.7966 0.4813
H60 H 0.5173 0.7429 0.4755
H61 H 0.4611 0.6706 0.5002
C32 C 0.38974(17) 0.5100(2) 0.11857(14)
H62 H 0.3353 0.5102 0.0955
H63 H 0.4093 0.4344 0.1213
H64 H 0.4170 0.5566 0.0978
C33 C 0.33260(18) 0.2661(2) 0.39424(14)
H65 H 0.3195 0.2135 0.4215
H66 H 0.3880 0.2683 0.4035
H67 H 0.3088 0.2431 0.3518
C34 C -0.00169(16) 0.5821(3) 0.29570(15)
H68 H -0.0403 0.5247 0.2915
H69 H -0.0254 0.6473 0.2723
H70 H 0.0206 0.6020 0.3388
C35 C 0.17413(19) 0.2232(3) 0.41586(17)
H71 H 0.1250 0.1989 0.4188
H72 H 0.2090 0.2389 0.4568
H73 H 0.1957 0.1649 0.3970
C36 C 0.01797(17) 0.3276(3) 0.33234(18)
H74 H 0.0203 0.2511 0.3465
H75 H -0.0115 0.3310 0.2889
H76 H -0.0065 0.3735 0.3556
loop_
_geom_bond_atom_site_label_1
_geom_bond_atom_site_label_2
_geom_bond_site_symmetry_1
_geom_bond_site_symmetry_2
Si1 C3 1_555 1_555
Si2 Si4 1_555 1_555
Si3 C4 1_555 1_555
Si4 C1 1_555 1_555
Si5 C4 1_555 1_555
Si6 C3 1_555 1_555
N1 C1 1_555 1_555
N2 C1 1_555 1_555
N3 C5 1_555 1_555
N4 C5 1_555 1_555
C2 N2 1_555 1_555
C3 Si4 1_555 1_555
C4 Si2 1_555 1_555
C5 Si2 1_555 1_555
C6 N4 1_555 1_555
H1 C6 1_555 1_555
C7 N1 1_555 1_555
C8 Si5 1_555 1_555
H2 C8 1_555 1_555
H3 C8 1_555 1_555
H4 C8 1_555 1_555
C9 N3 1_555 1_555
H5 C9 1_555 1_555
C10 C2 1_555 1_555
H6 C10 1_555 1_555
H7 C10 1_555 1_555
H8 C10 1_555 1_555
C11 Si6 1_555 1_555
H9 C11 1_555 1_555
H10 C11 1_555 1_555
H11 C11 1_555 1_555
C12 Si5 1_555 1_555
H12 C12 1_555 1_555
H13 C12 1_555 1_555
H14 C12 1_555 1_555
C13 N2 1_555 1_555
H15 C13 1_555 1_555
C14 C7 1_555 1_555
H16 C14 1_555 1_555
H17 C14 1_555 1_555
H18 C14 1_555 1_555
C15 Si6 1_555 1_555
H19 C15 1_555 1_555
H20 C15 1_555 1_555
H21 C15 1_555 1_555
C16 N1 1_555 1_555
H22 C16 1_555 1_555
C17 C16 1_555 1_555
H23 C17 1_555 1_555
H24 C17 1_555 1_555
H25 C17 1_555 1_555
C18 Si6 1_555 1_555
H26 C18 1_555 1_555
H27 C18 1_555 1_555
H28 C18 1_555 1_555
C19 C6 1_555 1_555
H29 C19 1_555 1_555
H30 C19 1_555 1_555
H31 C19 1_555 1_555
C20 Si1 1_555 1_555
H32 C20 1_555 1_555
H33 C20 1_555 1_555
H34 C20 1_555 1_555
C21 Si1 1_555 1_555
H35 C21 1_555 1_555
H36 C21 1_555 1_555
H37 C21 1_555 1_555
C22 N4 1_555 1_555
C23 Si1 1_555 1_555
H38 C23 1_555 1_555
H39 C23 1_555 1_555
H40 C23 1_555 1_555
C24 Si5 1_555 1_555
H41 C24 1_555 1_555
H42 C24 1_555 1_555
H43 C24 1_555 1_555
C25 C13 1_555 1_555
H44 C25 1_555 1_555
H45 C25 1_555 1_555
H46 C25 1_555 1_555
C26 Si3 1_555 1_555
H47 C26 1_555 1_555
H48 C26 1_555 1_555
H49 C26 1_555 1_555
C27 Si3 1_555 1_555
H50 C27 1_555 1_555
H51 C27 1_555 1_555
H52 C27 1_555 1_555
C28 N3 1_555 1_555
C29 C13 1_555 1_555
H53 C29 1_555 1_555
H54 C29 1_555 1_555
H55 C29 1_555 1_555
C30 C9 1_555 1_555
H56 C30 1_555 1_555
H57 C30 1_555 1_555
H58 C30 1_555 1_555
C31 Si3 1_555 1_555
H59 C31 1_555 1_555
H60 C31 1_555 1_555
H61 C31 1_555 1_555
C32 C16 1_555 1_555
H62 C32 1_555 1_555
H63 C32 1_555 1_555
H64 C32 1_555 1_555
C33 C6 1_555 1_555
H65 C33 1_555 1_555
H66 C33 1_555 1_555
H67 C33 1_555 1_555
C34 C9 1_555 1_555
H68 C34 1_555 1_555
H69 C34 1_555 1_555
H70 C34 1_555 1_555
C35 C22 1_555 1_555
H71 C35 1_555 1_555
H72 C35 1_555 1_555
H73 C35 1_555 1_555
C36 C28 1_555 1_555
H74 C36 1_555 1_555
H75 C36 1_555 1_555
H76 C36 1_555 1_555
C2 C7 1_555 1_555
C22 C28 1_555 1_555

#END
