
#######################################################################
#
#                 Cambridge Crystallographic Data Centre
#                                CCDC 
#
#######################################################################
#
# If this CIF has been generated from an entry in the Cambridge 
# Structural Database, then it will include bibliographic, chemical, 
# crystal, experimental, refinement or atomic coordinate data resulting 
# from the CCDC's data processing and validation procedures.
#
#######################################################################

data_OVUFER
_chemical_formula_moiety         'C27 H53 N2 1+,C4 B1 N4 1-'
_chemical_name_systematic        
'1,3-Didodecyl-1H-imidazol-3-ium tetrakis(cyano)borate'
_symmetry_cell_setting           triclinic
_symmetry_space_group_name_H-M   'P -1'
_symmetry_Int_Tables_number      2
_space_group_name_Hall           '-P 1'
loop_
_symmetry_equiv_pos_site_id
_symmetry_equiv_pos_as_xyz
1 x,y,z
2 -x,-y,-z
_cell_length_a                   8.8995(5)
_cell_length_b                   11.0981(7)
_cell_length_c                   18.0698(11)
_cell_angle_alpha                95.5770(10)
_cell_angle_beta                 92.7520(10)
_cell_angle_gamma                108.0000(10)
_cell_volume                     1683.57
_exptl_crystal_colour            colorless
_exptl_crystal_description       block
_cell_formula_units_Z            2
loop_
_atom_site_label
_atom_site_type_symbol
_atom_site_fract_x
_atom_site_fract_y
_atom_site_fract_z
B1 B 0.53828(15) 0.20816(12) -0.05429(8)
N1 N 0.73989(13) 0.31543(11) 0.07021(6)
N2 N 0.25040(13) 0.06081(10) -0.01783(7)
N3 N 0.49518(13) 0.39979(10) -0.12875(6)
N4 N 0.67946(15) 0.06876(12) -0.14269(7)
C1 C 0.65340(14) 0.26930(11) 0.01900(7)
C2 C 0.37050(14) 0.12206(11) -0.03278(7)
C3 C 0.51318(13) 0.31961(11) -0.09793(7)
C4 C 0.61727(14) 0.12501(12) -0.10616(7)
N5 N 0.06911(11) 0.25224(9) 0.06694(5)
N6 N 0.08982(11) 0.28880(9) -0.04774(5)
C5 C 0.00932(13) 0.20930(11) -0.00264(6)
H1 H -0.0770 0.1340 -0.0178
C6 C 0.20576(14) 0.38591(11) -0.00516(7)
H2 H 0.2808 0.4560 -0.0230
C7 C 0.19297(14) 0.36307(11) 0.06653(7)
H3 H 0.2573 0.4138 0.1088
C8 C 0.00740(13) 0.19314(12) 0.13344(6)
H4 H -0.0734 0.1093 0.1174
H5 H -0.0453 0.2477 0.1614
C9 C 0.13544(14) 0.17442(12) 0.18462(6)
H6 H 0.2087 0.2586 0.2063
H7 H 0.1971 0.1288 0.1556
C10 C 0.06365(14) 0.09810(12) 0.24706(6)
H8 H -0.0003 0.1432 0.2748
H9 H -0.0087 0.0139 0.2248
C11 C 0.18649(14) 0.07785(12) 0.30143(6)
H10 H 0.2542 0.1619 0.3263
H11 H 0.2552 0.0382 0.2732
C12 C 0.11451(14) -0.00594(12) 0.36073(6)
H12 H 0.0494 0.0355 0.3903
H13 H 0.0433 -0.0887 0.3358
C13 C 0.23696(14) -0.03070(12) 0.41318(7)
H14 H 0.3082 0.0521 0.4380
H15 H 0.3021 -0.0720 0.3835
C14 C 0.16665(14) -0.11437(12) 0.47279(7)
H16 H 0.1012 -0.0733 0.5024
H17 H 0.0958 -0.1974 0.4481
C15 C 0.29013(14) -0.13814(12) 0.52520(7)
H18 H 0.3618 -0.0549 0.5493
H19 H 0.3546 -0.1801 0.4955
C16 C 0.22133(14) -0.22030(12) 0.58571(7)
H20 H 0.1558 -0.1789 0.6151
H21 H 0.1508 -0.3040 0.5617
C17 C 0.34590(14) -0.24216(12) 0.63846(7)
H22 H 0.4119 -0.2828 0.6090
H23 H 0.4160 -0.1584 0.6626
C18 C 0.27864(16) -0.32480(13) 0.69877(7)
H24 H 0.2142 -0.2835 0.7290
H25 H 0.2073 -0.4082 0.6748
C19 C 0.40452(18) -0.34733(16) 0.75011(8)
H26 H 0.3535 -0.4035 0.7865
H27 H 0.4718 -0.2656 0.7764
H28 H 0.4696 -0.3874 0.7206
C20 C 0.05710(14) 0.27620(12) -0.12917(6)
H29 H -0.0124 0.1885 -0.1468
H30 H 0.1579 0.2899 -0.1531
C21 C -0.02216(14) 0.37096(11) -0.15259(6)
H31 H 0.0497 0.4588 -0.1375
H32 H -0.1202 0.3604 -0.1267
C22 C -0.06307(15) 0.35191(12) -0.23664(7)
H33 H 0.0345 0.3579 -0.2622
H34 H -0.1383 0.2651 -0.2510
C23 C -0.13608(14) 0.44889(11) -0.26327(6)
H35 H -0.2376 0.4387 -0.2405
H36 H -0.0642 0.5358 -0.2457
C24 C -0.16665(15) 0.43610(12) -0.34761(6)
H37 H -0.0690 0.4330 -0.3707
H38 H -0.2507 0.3543 -0.3643
C25 C -0.21645(14) 0.54402(12) -0.37524(6)
H39 H -0.1350 0.6261 -0.3563
H40 H -0.3170 0.5442 -0.3542
C26 C -0.23924(14) 0.53533(12) -0.45975(6)
H41 H -0.1411 0.5290 -0.4811
H42 H -0.3260 0.4562 -0.4784
C27 C -0.27813(15) 0.64819(12) -0.48730(6)
H43 H -0.1924 0.7275 -0.4678
H44 H -0.3773 0.6534 -0.4668
C28 C -0.29790(15) 0.64104(12) -0.57181(6)
H45 H -0.1994 0.6342 -0.5924
H46 H -0.3850 0.5626 -0.5913
C29 C -0.33382(15) 0.75519(12) -0.59925(7)
H47 H -0.4341 0.7603 -0.5799
H48 H -0.2485 0.8338 -0.5783
C30 C -0.34859(17) 0.75098(13) -0.68349(7)
H49 H -0.2491 0.7444 -0.7031
H50 H -0.4354 0.6734 -0.7045
C31 C -0.3814(2) 0.86661(15) -0.70982(8)
H51 H -0.3821 0.8611 -0.7643
H52 H -0.2985 0.9442 -0.6874
H53 H -0.4847 0.8693 -0.6948
loop_
_geom_bond_atom_site_label_1
_geom_bond_atom_site_label_2
_geom_bond_site_symmetry_1
_geom_bond_site_symmetry_2
B1 C1 1_555 1_555
N1 C1 1_555 1_555
N2 C2 1_555 1_555
N3 C3 1_555 1_555
N4 C4 1_555 1_555
C2 B1 1_555 1_555
C3 B1 1_555 1_555
C4 B1 1_555 1_555
N5 C5 1_555 1_555
N6 C5 1_555 1_555
C5 H1 1_555 1_555
C6 N6 1_555 1_555
H2 C6 1_555 1_555
C7 N5 1_555 1_555
H3 C7 1_555 1_555
C8 N5 1_555 1_555
H4 C8 1_555 1_555
H5 C8 1_555 1_555
C9 C8 1_555 1_555
H6 C9 1_555 1_555
H7 C9 1_555 1_555
C10 C9 1_555 1_555
H8 C10 1_555 1_555
H9 C10 1_555 1_555
C11 C10 1_555 1_555
H10 C11 1_555 1_555
H11 C11 1_555 1_555
C12 C11 1_555 1_555
H12 C12 1_555 1_555
H13 C12 1_555 1_555
C13 C12 1_555 1_555
H14 C13 1_555 1_555
H15 C13 1_555 1_555
C14 C13 1_555 1_555
H16 C14 1_555 1_555
H17 C14 1_555 1_555
C15 C14 1_555 1_555
H18 C15 1_555 1_555
H19 C15 1_555 1_555
C16 C15 1_555 1_555
H20 C16 1_555 1_555
H21 C16 1_555 1_555
C17 C16 1_555 1_555
H22 C17 1_555 1_555
H23 C17 1_555 1_555
C18 C17 1_555 1_555
H24 C18 1_555 1_555
H25 C18 1_555 1_555
C19 C18 1_555 1_555
H26 C19 1_555 1_555
H27 C19 1_555 1_555
H28 C19 1_555 1_555
C20 N6 1_555 1_555
H29 C20 1_555 1_555
H30 C20 1_555 1_555
C21 C20 1_555 1_555
H31 C21 1_555 1_555
H32 C21 1_555 1_555
C22 C21 1_555 1_555
H33 C22 1_555 1_555
H34 C22 1_555 1_555
C23 C22 1_555 1_555
H35 C23 1_555 1_555
H36 C23 1_555 1_555
C24 C23 1_555 1_555
H37 C24 1_555 1_555
H38 C24 1_555 1_555
C25 C24 1_555 1_555
H39 C25 1_555 1_555
H40 C25 1_555 1_555
C26 C25 1_555 1_555
H41 C26 1_555 1_555
H42 C26 1_555 1_555
C27 C26 1_555 1_555
H43 C27 1_555 1_555
H44 C27 1_555 1_555
C28 C27 1_555 1_555
H45 C28 1_555 1_555
H46 C28 1_555 1_555
C29 C28 1_555 1_555
H47 C29 1_555 1_555
H48 C29 1_555 1_555
C30 C29 1_555 1_555
H49 C30 1_555 1_555
H50 C30 1_555 1_555
C31 C30 1_555 1_555
H51 C31 1_555 1_555
H52 C31 1_555 1_555
H53 C31 1_555 1_555
C6 C7 1_555 1_555

#END
