
#######################################################################
#
#                 Cambridge Crystallographic Data Centre
#                                CCDC 
#
#######################################################################
#
# If this CIF has been generated from an entry in the Cambridge 
# Structural Database, then it will include bibliographic, chemical, 
# crystal, experimental, refinement or atomic coordinate data resulting 
# from the CCDC's data processing and validation procedures.
#
#######################################################################

data_OVUFAN
_chemical_formula_moiety         'C27 H53 N2 1+,C4 N3 1-'
_chemical_name_systematic        
'1,3-Didodecyl-1H-imidazol-3-ium tricyanomethanide'
_symmetry_cell_setting           triclinic
_symmetry_space_group_name_H-M   'P -1'
_symmetry_Int_Tables_number      2
_space_group_name_Hall           '-P 1'
loop_
_symmetry_equiv_pos_site_id
_symmetry_equiv_pos_as_xyz
1 x,y,z
2 -x,-y,-z
_cell_length_a                   7.4686(5)
_cell_length_b                   10.0510(7)
_cell_length_c                   21.4603(14)
_cell_angle_alpha                77.423(1)
_cell_angle_beta                 87.537(2)
_cell_angle_gamma                88.558(1)
_cell_volume                     1570.64
_exptl_crystal_colour            colorless
_exptl_crystal_description       block
_cell_formula_units_Z            2
loop_
_atom_site_label
_atom_site_type_symbol
_atom_site_fract_x
_atom_site_fract_y
_atom_site_fract_z
N1 N 0.83811(12) 0.06162(9) 0.09367(4)
N2 N 0.76338(12) 0.27237(9) 0.08866(4)
C1 C 0.70225(14) 0.14575(11) 0.10074(5)
H1 H 0.5819 0.1199 0.1124
C2 C 0.94406(15) 0.26845(13) 0.07327(5)
H2 H 1.0212 0.3444 0.0623
C3 C 0.99106(15) 0.13708(12) 0.07664(5)
H3 H 1.1076 0.1028 0.0688
C4 C 0.83085(16) -0.08819(12) 0.10810(6)
H4 H 0.9078 -0.1237 0.0765
H5 H 0.7064 -0.1164 0.1044
C5 C 0.89339(16) -0.14927(12) 0.17501(6)
H6 H 1.0192 -0.1230 0.1778
H7 H 0.8909 -0.2499 0.1821
C6 C 0.78068(15) -0.10470(12) 0.22795(5)
H8 H 0.7784 -0.0039 0.2200
H9 H 0.6560 -0.1351 0.2268
C7 C 0.85187(15) -0.16213(12) 0.29382(5)
H10 H 0.9810 -0.1415 0.2931
H11 H 0.8405 -0.2625 0.3036
C8 C 0.75589(15) -0.10632(12) 0.34691(5)
H12 H 0.6276 -0.1300 0.3489
H13 H 0.7634 -0.0057 0.3365
C9 C 0.83343(15) -0.16108(12) 0.41214(5)
H14 H 0.8226 -0.2615 0.4228
H15 H 0.9627 -0.1401 0.4096
C10 C 0.74401(15) -0.10387(12) 0.46579(6)
H16 H 0.6149 -0.1253 0.4687
H17 H 0.7546 -0.0034 0.4553
C11 C 0.82433(16) -0.15983(12) 0.53038(6)
H18 H 0.8142 -0.2603 0.5406
H19 H 0.9535 -0.1383 0.5273
C12 C 0.73658(16) -0.10421(12) 0.58491(6)
H20 H 0.7468 -0.0037 0.5748
H21 H 0.6075 -0.1258 0.5882
C13 C 0.81854(16) -0.16123(12) 0.64904(6)
H22 H 0.9475 -0.1390 0.6457
H23 H 0.8094 -0.2618 0.6587
C14 C 0.73140(18) -0.10775(14) 0.70425(6)
H24 H 0.7401 -0.0072 0.6947
H25 H 0.6026 -0.1305 0.7080
C15 C 0.8158(2) -0.16546(17) 0.76780(7)
H26 H 0.7563 -0.1252 0.8011
H27 H 0.9435 -0.1438 0.7645
H28 H 0.8019 -0.2646 0.7788
C16 C 0.65830(17) 0.39617(12) 0.09279(5)
H29 H 0.5295 0.3738 0.0989
H30 H 0.6745 0.4648 0.0523
C17 C 0.71608(17) 0.45598(12) 0.14800(5)
H31 H 0.8464 0.4731 0.1428
H32 H 0.6538 0.5449 0.1459
C18 C 0.67726(15) 0.36527(12) 0.21362(5)
H33 H 0.7347 0.2747 0.2154
H34 H 0.5463 0.3521 0.2201
C19 C 0.74562(15) 0.42561(12) 0.26726(5)
H35 H 0.8783 0.4250 0.2645
H36 H 0.7043 0.5218 0.2609
C20 C 0.68403(15) 0.34994(11) 0.33385(5)
H37 H 0.7245 0.2536 0.3401
H38 H 0.5514 0.3513 0.3369
C21 C 0.75441(15) 0.41035(12) 0.38712(5)
H39 H 0.8867 0.4010 0.3866
H40 H 0.7238 0.5089 0.3785
C22 C 0.67974(15) 0.34358(11) 0.45337(5)
H41 H 0.5474 0.3521 0.4538
H42 H 0.7114 0.2452 0.4622
C23 C 0.74879(15) 0.40506(11) 0.50640(5)
H43 H 0.7203 0.5040 0.4969
H44 H 0.8809 0.3941 0.5068
C24 C 0.67018(15) 0.34105(11) 0.57249(5)
H45 H 0.5380 0.3512 0.5720
H46 H 0.6996 0.2423 0.5821
C25 C 0.73747(15) 0.40282(11) 0.62561(5)
H47 H 0.7091 0.5018 0.6159
H48 H 0.8695 0.3918 0.6265
C26 C 0.65725(16) 0.33945(12) 0.69147(5)
H49 H 0.5250 0.3482 0.6904
H50 H 0.6886 0.2410 0.7019
C27 C 0.72186(19) 0.40473(14) 0.74376(6)
H51 H 0.6635 0.3617 0.7847
H52 H 0.6917 0.5023 0.7338
H53 H 0.8521 0.3923 0.7466
N3 N 0.8433(2) 0.45161(16) 0.91230(7)
N4 N 0.35091(15) 0.26647(13) 1.01019(5)
N5 N 0.64868(16) 0.05949(13) 0.87670(8)
C28 C 0.62159(15) 0.25715(12) 0.93390(5)
C29 C 0.74451(17) 0.36400(14) 0.92160(6)
C30 C 0.47267(15) 0.26207(12) 0.97583(5)
C31 C 0.63979(15) 0.14924(12) 0.90254(7)
loop_
_geom_bond_atom_site_label_1
_geom_bond_atom_site_label_2
_geom_bond_site_symmetry_1
_geom_bond_site_symmetry_2
N1 C1 1_555 1_555
N2 C1 1_555 1_555
C1 H1 1_555 1_555
C2 N2 1_555 1_555
H2 C2 1_555 1_555
C3 N1 1_555 1_555
H3 C3 1_555 1_555
C4 N1 1_555 1_555
H4 C4 1_555 1_555
H5 C4 1_555 1_555
C5 C4 1_555 1_555
H6 C5 1_555 1_555
H7 C5 1_555 1_555
C6 C5 1_555 1_555
H8 C6 1_555 1_555
H9 C6 1_555 1_555
C7 C6 1_555 1_555
H10 C7 1_555 1_555
H11 C7 1_555 1_555
C8 C7 1_555 1_555
H12 C8 1_555 1_555
H13 C8 1_555 1_555
C9 C8 1_555 1_555
H14 C9 1_555 1_555
H15 C9 1_555 1_555
C10 C9 1_555 1_555
H16 C10 1_555 1_555
H17 C10 1_555 1_555
C11 C10 1_555 1_555
H18 C11 1_555 1_555
H19 C11 1_555 1_555
C12 C11 1_555 1_555
H20 C12 1_555 1_555
H21 C12 1_555 1_555
C13 C12 1_555 1_555
H22 C13 1_555 1_555
H23 C13 1_555 1_555
C14 C13 1_555 1_555
H24 C14 1_555 1_555
H25 C14 1_555 1_555
C15 C14 1_555 1_555
H26 C15 1_555 1_555
H27 C15 1_555 1_555
H28 C15 1_555 1_555
C16 N2 1_555 1_555
H29 C16 1_555 1_555
H30 C16 1_555 1_555
C17 C16 1_555 1_555
H31 C17 1_555 1_555
H32 C17 1_555 1_555
C18 C17 1_555 1_555
H33 C18 1_555 1_555
H34 C18 1_555 1_555
C19 C18 1_555 1_555
H35 C19 1_555 1_555
H36 C19 1_555 1_555
C20 C19 1_555 1_555
H37 C20 1_555 1_555
H38 C20 1_555 1_555
C21 C20 1_555 1_555
H39 C21 1_555 1_555
H40 C21 1_555 1_555
C22 C21 1_555 1_555
H41 C22 1_555 1_555
H42 C22 1_555 1_555
C23 C22 1_555 1_555
H43 C23 1_555 1_555
H44 C23 1_555 1_555
C24 C23 1_555 1_555
H45 C24 1_555 1_555
H46 C24 1_555 1_555
C25 C24 1_555 1_555
H47 C25 1_555 1_555
H48 C25 1_555 1_555
C26 C25 1_555 1_555
H49 C26 1_555 1_555
H50 C26 1_555 1_555
C27 C26 1_555 1_555
H51 C27 1_555 1_555
H52 C27 1_555 1_555
H53 C27 1_555 1_555
N3 C29 1_555 1_555
N4 C30 1_555 1_555
N5 C31 1_555 1_555
C28 C29 1_555 1_555
C30 C28 1_555 1_555
C31 C28 1_555 1_555
C2 C3 1_555 1_555

#END
