
#######################################################################
#
#                 Cambridge Crystallographic Data Centre
#                                CCDC 
#
#######################################################################
#
# If this CIF has been generated from an entry in the Cambridge 
# Structural Database, then it will include bibliographic, chemical, 
# crystal, experimental, refinement or atomic coordinate data resulting 
# from the CCDC's data processing and validation procedures.
#
#######################################################################

data_OVUJUL
_chemical_formula_moiety         'C21 H18 N2 O2 S1,4(H2 O1)'
_chemical_name_systematic        
'3-(4-((3-Methyl-1,3-benzothiazol-2(3H)-ylidene)methyl)quinolinium-1-yl)propanoate tetrahydrate'
_symmetry_cell_setting           triclinic
_symmetry_space_group_name_H-M   'P -1'
_symmetry_Int_Tables_number      2
_space_group_name_Hall           '-P 1'
loop_
_symmetry_equiv_pos_site_id
_symmetry_equiv_pos_as_xyz
1 x,y,z
2 -x,-y,-z
_cell_length_a                   10.162(2)
_cell_length_b                   10.501(2)
_cell_length_c                   11.040(2)
_cell_angle_alpha                92.17(3)
_cell_angle_beta                 117.10(3)
_cell_angle_gamma                92.28(3)
_cell_volume                     1045.84
_exptl_crystal_colour            red
_cell_formula_units_Z            2
_exptl_crystal_recrystallization_method methanol
loop_
_atom_site_label
_atom_site_type_symbol
_atom_site_fract_x
_atom_site_fract_y
_atom_site_fract_z
S1 S 0.78524(8) 0.01804(7) 0.14739(7)
O1 O 0.4063(3) 0.7347(2) 0.4509(2)
N1 N 0.7159(3) -0.0003(2) -0.1067(2)
O2 O 0.2519(3) 0.5663(2) 0.4147(3)
C1 C 0.5206(3) 0.2243(3) 0.0185(3)
C2 C 0.5709(3) 0.1521(3) -0.0598(3)
H1 H 0.5258 0.1651 -0.1525
N2 N 0.4090(3) 0.3682(3) 0.1717(3)
C3 C 0.3536(3) 0.6261(3) 0.4004(3)
C4 C 0.8266(3) -0.0852(3) -0.0478(3)
C5 C 0.8872(3) -0.1614(3) -0.1137(3)
H2 H 0.8561 -0.1591 -0.2069
C6 C 0.4058(3) 0.3143(3) -0.0450(3)
C7 C 0.3377(3) 0.3313(3) -0.1873(3)
H3 H 0.3623 0.2797 -0.2433
C8 C 0.4173(3) 0.5616(3) 0.3131(3)
H4 H 0.4027 0.6141 0.2381
H5 H 0.5231 0.5558 0.3681
C9 C 0.6412(4) 0.0168(3) -0.2530(3)
H6 H 0.5369 -0.0037 -0.2881
H7 H 0.6802 -0.0387 -0.2982
H8 H 0.6575 0.1039 -0.2689
C10 C 0.6789(3) 0.0639(3) -0.0175(3)
C11 C 0.9959(3) -0.2407(3) -0.0340(3)
H9 H 1.0380 -0.2926 -0.0752
C12 C 0.3554(4) 0.3886(3) 0.0338(3)
C13 C 0.5726(4) 0.2180(3) 0.1592(3)
H10 H 0.6481 0.1646 0.2060
C14 C 0.8759(3) -0.0878(3) 0.0922(3)
C15 C 0.3467(4) 0.4304(3) 0.2570(3)
H11 H 0.2409 0.4360 0.2021
H12 H 0.3616 0.3777 0.3319
C16 C 0.5162(4) 0.2881(3) 0.2307(3)
H13 H 0.5543 0.2793 0.3239
C17 C 0.9850(3) -0.1682(3) 0.1703(3)
H14 H 1.0173 -0.1701 0.2637
C18 C 0.2382(4) 0.4203(3) -0.2437(3)
H15 H 0.1975 0.4301 -0.3369
C19 C 1.0437(4) -0.2448(3) 0.1053(4)
H16 H 1.1159 -0.2997 0.1552
C20 C 0.2527(4) 0.4802(3) -0.0259(3)
H17 H 0.2226 0.5295 0.0276
C21 C 0.1956(4) 0.4982(3) -0.1627(3)
H18 H 0.1296 0.5612 -0.2014
O3 O 0.1123(3) 0.3245(2) 0.3809(3)
H19 H 0.048(3) 0.314(3) 0.410(4)
H20 H 0.136(4) 0.4019(15) 0.374(4)
O4 O 0.6688(3) 0.8360(2) 0.4735(3)
H21 H 0.589(2) 0.802(3) 0.468(4)
H22 H 0.744(2) 0.792(3) 0.504(4)
O5 O 0.9015(3) 0.3045(3) 0.4681(3)
H23 H 0.876(4) 0.2257(12) 0.471(4)
H24 H 0.865(4) 0.357(3) 0.504(4)
O6 O 0.7384(4) 0.0898(4) 0.4632(4)
O7? O 0.8000(11) 0.0425(10) 0.4553(10)
O8? O 0.9419(13) -0.0196(13) 0.4839(14)
loop_
_geom_bond_atom_site_label_1
_geom_bond_atom_site_label_2
_geom_bond_site_symmetry_1
_geom_bond_site_symmetry_2
S1 C10 1_555 1_555
O1 C3 1_555 1_555
N1 C4 1_555 1_555
O2 C3 1_555 1_555
C1 C2 1_555 1_555
C2 H1 1_555 1_555
N2 C12 1_555 1_555
C3 C8 1_555 1_555
C4 C5 1_555 1_555
C5 H2 1_555 1_555
C6 C1 1_555 1_555
C7 C6 1_555 1_555
H3 C7 1_555 1_555
C8 H4 1_555 1_555
H5 C8 1_555 1_555
C9 N1 1_555 1_555
H6 C9 1_555 1_555
H7 C9 1_555 1_555
H8 C9 1_555 1_555
C10 N1 1_555 1_555
C11 C5 1_555 1_555
H9 C11 1_555 1_555
C12 C6 1_555 1_555
C13 C1 1_555 1_555
H10 C13 1_555 1_555
C14 S1 1_555 1_555
C15 N2 1_555 1_555
H11 C15 1_555 1_555
H12 C15 1_555 1_555
C16 N2 1_555 1_555
H13 C16 1_555 1_555
C17 C14 1_555 1_555
H14 C17 1_555 1_555
C18 C7 1_555 1_555
H15 C18 1_555 1_555
C19 C11 1_555 1_555
H16 C19 1_555 1_555
C20 C12 1_555 1_555
H17 C20 1_555 1_555
C21 C18 1_555 1_555
H18 C21 1_555 1_555
O3 H19 1_555 1_555
H20 O3 1_555 1_555
O4 H21 1_555 1_555
H22 O4 1_555 1_555
O5 H23 1_555 1_555
H24 O5 1_555 1_555
C2 C10 1_555 1_555
C4 C14 1_555 1_555
C8 C15 1_555 1_555
C13 C16 1_555 1_555
C17 C19 1_555 1_555
C20 C21 1_555 1_555

#END
