
#######################################################################
#
#                 Cambridge Crystallographic Data Centre
#                                CCDC 
#
#######################################################################
#
# If this CIF has been generated from an entry in the Cambridge 
# Structural Database, then it will include bibliographic, chemical, 
# crystal, experimental, refinement or atomic coordinate data resulting 
# from the CCDC's data processing and validation procedures.
#
#######################################################################

data_OVUKIB
_chemical_formula_moiety         
'C38 H36 Cl1 N2 S2 1+,C32 H12 B1 F24 1-,C1 H2 Cl2'
_chemical_name_systematic        
'2-(2-(5-t-butyl-2-chloro-3-(2-(1-methylnaphtho[1,2-d][1,3]thiazol-2(1H)-ylidene)ethylidene)cyclohex-1-en-1-yl)vinyl)-1-methylnaphtho[1,2-d][1,3]thiazol-1-ium tetrakis(3,5-bis(trifluoromethyl)phenyl)borate dichloromethane solvate'
_symmetry_cell_setting           triclinic
_symmetry_space_group_name_H-M   'P -1'
_symmetry_Int_Tables_number      2
_space_group_name_Hall           '-P 1'
loop_
_symmetry_equiv_pos_site_id
_symmetry_equiv_pos_as_xyz
1 x,y,z
2 -x,-y,-z
_cell_length_a                   12.150(3)
_cell_length_b                   17.777(4)
_cell_length_c                   17.946(4)
_cell_angle_alpha                116.317(3)
_cell_angle_beta                 90.327(3)
_cell_angle_gamma                102.374(3)
_cell_volume                     3371.18
_exptl_crystal_colour            'brown red'
_exptl_crystal_description       prism
_cell_formula_units_Z            2
loop_
_atom_site_label
_atom_site_type_symbol
_atom_site_fract_x
_atom_site_fract_y
_atom_site_fract_z
Cl1 Cl 0.23962(8) 0.38357(4) 0.32541(4)
S1 S 0.32231(6) 0.16337(4) 0.06858(4)
S2 S 0.17264(5) 0.62778(4) 0.57294(4)
N1 N 0.29209(16) 0.01006(13) 0.05319(12)
N2 N 0.07401(17) 0.59577(12) 0.68432(13)
C1 C 0.1825(2) 0.30982(15) 0.36294(14)
C2 C 0.1828(2) 0.22252(15) 0.31279(14)
C3 C 0.1365(2) 0.15842(15) 0.34507(15)
H1 H 0.1819 0.1146 0.3281
H2 H 0.0575 0.1282 0.3190
C4 C 0.1382(2) 0.20019(15) 0.43935(15)
H3 H 0.2200 0.2239 0.4626
C5 C 0.0863(3) 0.27704(17) 0.46947(17)
H4 H 0.0042 0.2566 0.4496
H5 H 0.0947 0.3060 0.5314
C6 C 0.1394(2) 0.34134(15) 0.43959(15)
C7 C 0.2250(2) 0.19485(16) 0.23534(14)
H6 H 0.2526 0.2374 0.2171
C8 C 0.2302(2) 0.11049(16) 0.18247(14)
H7 H 0.2020 0.0663 0.1984
C9 C 0.2760(2) 0.08908(16) 0.10636(14)
C10 C 0.34365(18) 0.00650(16) -0.01787(14)
C11 C 0.37363(19) -0.06559(18) -0.08431(14)
C12 C 0.3523(3) -0.1512(2) -0.09410(17)
H8 H 0.3146 -0.1642 -0.0535
C13 C 0.3846(3) -0.2155(2) -0.16057(18)
H9 H 0.3688 -0.2723 -0.1653
C14 C 0.4405(3) -0.1990(2) -0.22164(17)
H10 H 0.4635 -0.2439 -0.2671
C15 C 0.4616(2) -0.1182(2) -0.21553(17)
H11 H 0.4993 -0.1074 -0.2573
C16 C 0.4286(2) -0.0495(2) -0.14819(15)
C17 C 0.4481(2) 0.0334(2) -0.14538(17)
H12 H 0.4832 0.0422 -0.1890
C18 C 0.4178(2) 0.1007(2) -0.08171(16)
H13 H 0.4314 0.1559 -0.0805
C19 C 0.3659(2) 0.08628(17) -0.01789(15)
C20 C 0.2617(4) -0.0623(2) 0.0734(2)
H14 H 0.2369 -0.0420 0.1295
H15 H 0.3278 -0.0860 0.0721
H16 H 0.1999 -0.1073 0.0324
C21 C 0.08935(18) 0.13452(13) 0.47270(13)
C22 C -0.03473(19) 0.09249(18) 0.44317(17)
H17 H -0.0606 0.0503 0.4644
H18 H -0.0460 0.0630 0.3819
H19 H -0.0783 0.1368 0.4640
C23 C 0.1054(3) 0.18034(19) 0.56842(13)
H20 H 0.0877 0.1373 0.5894
H21 H 0.0545 0.2194 0.5889
H22 H 0.1842 0.2137 0.5883
C24 C 0.1552(3) 0.0643(2) 0.4447(2)
H23 H 0.1315 0.0275 0.4722
H24 H 0.2366 0.0912 0.4601
H25 H 0.1398 0.0290 0.3839
C25 C 0.1422(2) 0.42899(15) 0.48725(15)
H26 H 0.1781 0.4672 0.4660
C26 C 0.0977(2) 0.46540(15) 0.56256(16)
H27 H 0.0583 0.4285 0.5842
C27 C 0.10894(19) 0.55488(14) 0.60796(15)
C28 C 0.09177(18) 0.68545(14) 0.71522(14)
C29 C 0.05777(19) 0.74584(14) 0.79003(15)
C30 C -0.0106(2) 0.72515(16) 0.84534(17)
H28 H -0.0380 0.6663 0.8333
C31 C -0.0381(3) 0.78854(18) 0.91588(18)
H29 H -0.0847 0.7730 0.9516
C32 C 0.0021(3) 0.87642(17) 0.93585(18)
H30 H -0.0145 0.9200 0.9860
C33 C 0.0654(2) 0.89857(15) 0.88254(17)
H31 H 0.0908 0.9579 0.8955
C34 C 0.09377(19) 0.83498(14) 0.80848(15)
C35 C 0.1569(2) 0.85996(14) 0.75320(16)
H32 H 0.1812 0.9197 0.7676
C36 C 0.1835(2) 0.80089(15) 0.68047(16)
H33 H 0.2241 0.8182 0.6434
C37 C 0.14863(19) 0.71299(14) 0.66190(15)
C38 C 0.0456(3) 0.55047(18) 0.7356(2)
H34 H 0.0743 0.4981 0.7130
H35 H -0.0370 0.5346 0.7347
H36 H 0.0803 0.5885 0.7933
F1 F 0.09830(16) 0.45997(10) 0.85439(13)
F2 F 0.0112(2) 0.36824(13) 0.73755(15)
F3 F -0.0504(2) 0.36571(17) 0.8466(2)
F4 F 0.15872(19) 0.12689(15) 0.90295(14)
F5 F 0.1133(3) 0.04620(12) 0.77491(14)
F6 F -0.00553(17) 0.10835(17) 0.8497(2)
F7 F 0.76639(16) 0.18840(13) 0.82898(11)
F8 F 0.75216(16) 0.05778(12) 0.73769(13)
F9 F 0.81978(15) 0.16079(18) 0.70725(15)
F10 F 0.30541(14) -0.02591(9) 0.51251(10)
F11 F 0.43277(15) -0.09058(10) 0.51715(10)
F12 F 0.30834(17) -0.07220(11) 0.60407(11)
F13 F 0.42026(14) 0.17195(9) 0.41988(9)
F14 F 0.44448(17) 0.28113(11) 0.39508(9)
F15 F 0.58518(13) 0.25556(12) 0.44543(10)
F16 F 0.31829(15) 0.54767(10) 0.70449(10)
F17 F 0.41281(19) 0.55670(11) 0.60729(11)
F18 F 0.49831(16) 0.59305(10) 0.72857(12)
F19 F 0.64791(19) 0.43935(12) 1.11865(10)
F20 F 0.6147(3) 0.30736(14) 1.02787(13)
F21 F 0.4796(2) 0.3662(2) 1.07200(16)
F22 F 0.7305(4) 0.5992(3) 0.8727(3)
F23 F 0.8171(4) 0.6195(2) 0.98643(17)
F24 F 0.8482(3) 0.5262(2) 0.8686(3)
C39 C 0.29826(18) 0.27580(13) 0.77512(12)
C40 C 0.2252(2) 0.32993(14) 0.78224(14)
H37 H 0.2506 0.3768 0.7695
C41 C 0.1178(2) 0.31744(14) 0.80714(16)
C42 C 0.07461(19) 0.24940(14) 0.82489(14)
H38 H 0.0006 0.2405 0.8412
C43 C 0.14425(18) 0.19481(13) 0.81778(13)
C44 C 0.25340(18) 0.20796(13) 0.79432(13)
H39 H 0.2988 0.1695 0.7913
C45 C 0.0448(2) 0.37797(17) 0.8129(2)
C46 C 0.1018(2) 0.11977(16) 0.83576(15)
C47 C 0.47605(18) 0.20560(13) 0.71698(12)
C48 C 0.58341(18) 0.20509(14) 0.74512(13)
H40 H 0.6310 0.2577 0.7861
C49 C 0.62296(19) 0.12974(15) 0.71500(14)
C50 C 0.55692(19) 0.05131(14) 0.65524(14)
H41 H 0.5838 0.0001 0.6348
C51 C 0.45000(18) 0.05029(13) 0.62632(13)
C52 C 0.41030(18) 0.12523(13) 0.65617(12)
H42 H 0.3368 0.1221 0.6349
C53 C 0.7398(2) 0.13454(18) 0.74674(17)
C54 C 0.37444(19) -0.03408(13) 0.56519(14)
C55 C 0.43345(18) 0.32857(13) 0.67954(13)
C56 C 0.44807(18) 0.27879(13) 0.59593(13)
H43 H 0.4558 0.2215 0.5787
C57 C 0.45170(19) 0.31020(14) 0.53690(13)
C58 C 0.4400(2) 0.39322(14) 0.55839(14)
H44 H 0.4421 0.4145 0.5182
C59 C 0.4251(2) 0.44369(14) 0.64070(14)
C60 C 0.4235(2) 0.41290(13) 0.69985(13)
H45 H 0.4153 0.4501 0.7561
C61 C 0.4752(2) 0.25543(15) 0.45002(14)
C62 C 0.4142(2) 0.53472(15) 0.66953(15)
C63 C 0.51161(19) 0.36654(13) 0.83718(13)
C64 C 0.5066(2) 0.35440(14) 0.90917(13)
H46 H 0.4474 0.3101 0.9098
C65 C 0.5854(2) 0.40495(15) 0.97985(14)
C66 C 0.6702(2) 0.47282(17) 0.98343(16)
H47 H 0.7234 0.5079 1.0319
C67 C 0.6746(2) 0.48782(16) 0.91360(16)
C68 C 0.5985(2) 0.43515(15) 0.84185(14)
H48 H 0.6057 0.4460 0.7946
C69 C 0.5824(3) 0.38045(18) 1.04952(16)
C70 C 0.7650(2) 0.55935(15) 0.91333(14)
B1 B 0.4289(2) 0.29440(14) 0.75108(14)
Cl2 Cl 0.17758(9) 0.73431(6) 0.42867(6)
Cl3 Cl 0.26229(7) 0.57944(5) 0.35423(5)
C71 C 0.2554(2) 0.6754(2) 0.3501(2)
H49 H 0.2188 0.6611 0.2945
H50 H 0.3331 0.7112 0.3577
F25? F 0.7482(5) 0.5824(4) 0.8533(3)
F26? F 0.7681(5) 0.6332(3) 0.9849(2)
F27? F 0.8693(3) 0.5491(3) 0.9120(4)
loop_
_geom_bond_atom_site_label_1
_geom_bond_atom_site_label_2
_geom_bond_site_symmetry_1
_geom_bond_site_symmetry_2
Cl1 C1 1_555 1_555
S1 C9 1_555 1_555
S2 C27 1_555 1_555
N1 C9 1_555 1_555
N2 C27 1_555 1_555
C1 C2 1_555 1_555
C2 C3 1_555 1_555
C3 H1 1_555 1_555
H2 C3 1_555 1_555
C4 C3 1_555 1_555
H3 C4 1_555 1_555
C5 C4 1_555 1_555
H4 C5 1_555 1_555
H5 C5 1_555 1_555
C6 C1 1_555 1_555
C7 C2 1_555 1_555
H6 C7 1_555 1_555
C8 C7 1_555 1_555
H7 C8 1_555 1_555
C9 C8 1_555 1_555
C10 N1 1_555 1_555
C11 C10 1_555 1_555
C12 C11 1_555 1_555
H8 C12 1_555 1_555
C13 C12 1_555 1_555
H9 C13 1_555 1_555
C14 C13 1_555 1_555
H10 C14 1_555 1_555
C15 C14 1_555 1_555
H11 C15 1_555 1_555
C16 C11 1_555 1_555
C17 C16 1_555 1_555
H12 C17 1_555 1_555
C18 C17 1_555 1_555
H13 C18 1_555 1_555
C19 S1 1_555 1_555
C20 N1 1_555 1_555
H14 C20 1_555 1_555
H15 C20 1_555 1_555
H16 C20 1_555 1_555
C21 C4 1_555 1_555
C22 C21 1_555 1_555
H17 C22 1_555 1_555
H18 C22 1_555 1_555
H19 C22 1_555 1_555
C23 C21 1_555 1_555
H20 C23 1_555 1_555
H21 C23 1_555 1_555
H22 C23 1_555 1_555
C24 C21 1_555 1_555
H23 C24 1_555 1_555
H24 C24 1_555 1_555
H25 C24 1_555 1_555
C25 C6 1_555 1_555
H26 C25 1_555 1_555
C26 C25 1_555 1_555
H27 C26 1_555 1_555
C27 C26 1_555 1_555
C28 N2 1_555 1_555
C29 C28 1_555 1_555
C30 C29 1_555 1_555
H28 C30 1_555 1_555
C31 C30 1_555 1_555
H29 C31 1_555 1_555
C32 C31 1_555 1_555
H30 C32 1_555 1_555
C33 C32 1_555 1_555
H31 C33 1_555 1_555
C34 C29 1_555 1_555
C35 C34 1_555 1_555
H32 C35 1_555 1_555
C36 C35 1_555 1_555
H33 C36 1_555 1_555
C37 S2 1_555 1_555
C38 N2 1_555 1_555
H34 C38 1_555 1_555
H35 C38 1_555 1_555
H36 C38 1_555 1_555
F1 C45 1_555 1_555
F2 C45 1_555 1_555
F3 C45 1_555 1_555
F4 C46 1_555 1_555
F5 C46 1_555 1_555
F6 C46 1_555 1_555
F7 C53 1_555 1_555
F8 C53 1_555 1_555
F9 C53 1_555 1_555
F10 C54 1_555 1_555
F11 C54 1_555 1_555
F12 C54 1_555 1_555
F13 C61 1_555 1_555
F14 C61 1_555 1_555
F15 C61 1_555 1_555
F16 C62 1_555 1_555
F17 C62 1_555 1_555
F18 C62 1_555 1_555
F19 C69 1_555 1_555
F20 C69 1_555 1_555
F21 C69 1_555 1_555
F22 C70 1_555 1_555
F23 C70 1_555 1_555
F24 C70 1_555 1_555
C39 C40 1_555 1_555
C40 H37 1_555 1_555
C41 C40 1_555 1_555
C42 C41 1_555 1_555
H38 C42 1_555 1_555
C43 C42 1_555 1_555
C44 C39 1_555 1_555
H39 C44 1_555 1_555
C45 C41 1_555 1_555
C46 C43 1_555 1_555
C47 C48 1_555 1_555
C48 H40 1_555 1_555
C49 C48 1_555 1_555
C50 C49 1_555 1_555
H41 C50 1_555 1_555
C51 C50 1_555 1_555
C52 C47 1_555 1_555
H42 C52 1_555 1_555
C53 C49 1_555 1_555
C54 C51 1_555 1_555
C55 C56 1_555 1_555
C56 H43 1_555 1_555
C57 C56 1_555 1_555
C58 C57 1_555 1_555
H44 C58 1_555 1_555
C59 C58 1_555 1_555
C60 C55 1_555 1_555
H45 C60 1_555 1_555
C61 C57 1_555 1_555
C62 C59 1_555 1_555
C63 C64 1_555 1_555
C64 H46 1_555 1_555
C65 C64 1_555 1_555
C66 C65 1_555 1_555
H47 C66 1_555 1_555
C67 C66 1_555 1_555
C68 C63 1_555 1_555
H48 C68 1_555 1_555
C69 C65 1_555 1_555
C70 C67 1_555 1_555
B1 C39 1_555 1_555
Cl2 C71 1_555 1_555
Cl3 C71 1_555 1_555
C71 H49 1_555 1_555
H50 C71 1_555 1_555
C5 C6 1_555 1_555
C10 C19 1_555 1_555
C15 C16 1_555 1_555
C18 C19 1_555 1_555
C28 C37 1_555 1_555
C33 C34 1_555 1_555
C36 C37 1_555 1_555
C43 C44 1_555 1_555
C47 B1 1_555 1_555
C51 C52 1_555 1_555
C55 B1 1_555 1_555
C59 C60 1_555 1_555
C63 B1 1_555 1_555
C67 C68 1_555 1_555

#END
