
#######################################################################
#
#                 Cambridge Crystallographic Data Centre
#                                CCDC 
#
#######################################################################
#
# If this CIF has been generated from an entry in the Cambridge 
# Structural Database, then it will include bibliographic, chemical, 
# crystal, experimental, refinement or atomic coordinate data resulting 
# from the CCDC's data processing and validation procedures.
#
#######################################################################

data_OVUVUY
_chemical_formula_moiety         'C25 H23 N1 O4'
_chemical_name_systematic        
"5a-methyl-4a-phenyl-1,2,4a,4b,5a,6-hexahydrocyclopropa[3',4']cyclopenta[1',2':2,3]cyclopropa[1,2]benzen-4c(5H)-yl 4-nitrobenzoate"
_symmetry_cell_setting           monoclinic
_symmetry_space_group_name_H-M   'P 21/c'
_symmetry_Int_Tables_number      14
_space_group_name_Hall           '-P 2ybc'
loop_
_symmetry_equiv_pos_site_id
_symmetry_equiv_pos_as_xyz
1 x,y,z
2 -x,1/2+y,1/2-z
3 -x,-y,-z
4 x,1/2-y,1/2+z
_cell_length_a                   8.1296(3)
_cell_length_b                   15.4679(6)
_cell_length_c                   33.0511(14)
_cell_angle_alpha                90
_cell_angle_beta                 94.9069(19)
_cell_angle_gamma                90
_cell_volume                     4140.87
_exptl_crystal_colour            colorless
_exptl_crystal_description       block
_cell_formula_units_Z            8
loop_
_atom_site_label
_atom_site_type_symbol
_atom_site_fract_x
_atom_site_fract_y
_atom_site_fract_z
C1 C 0.57381(19) 0.39372(11) 0.17579(5)
H1 H 0.5579 0.4158 0.1479
C2 C 0.74659(19) 0.36320(11) 0.19210(5)
C3 C 0.8758(2) 0.37536(12) 0.16318(5)
H2 H 0.9344 0.3269 0.156
C4 C 0.9126(2) 0.45065(12) 0.14709(5)
H3 H 0.995 0.4524 0.1292
C5 C 0.8267(2) 0.53310(12) 0.15649(5)
H4 H 0.7356 0.5429 0.1361
H5 H 0.9032 0.581 0.1553
C6 C 0.7611(2) 0.53050(11) 0.19848(5)
H6 H 0.8524 0.5396 0.2189
H7 H 0.6838 0.5778 0.2005
C7 C 0.6762(2) 0.44697(11) 0.20762(5)
C8 C 0.5963(2) 0.44164(12) 0.24793(5)
H8 H 0.6711 0.4146 0.2686
H9 H 0.5689 0.499 0.2571
C9 C 0.4406(2) 0.38746(11) 0.23974(5)
C10 C 0.4272(2) 0.36256(11) 0.19564(5)
C11 C 0.3108(2) 0.42851(12) 0.20979(5)
H10 H 0.1967 0.4116 0.2113
H11 H 0.3269 0.4883 0.2021
C12 C 0.3892(2) 0.32732(13) 0.27192(6)
H12 H 0.4783 0.2886 0.2799
H13 H 0.2946 0.2946 0.2614
H14 H 0.3616 0.3602 0.295
C13 C 0.7760(2) 0.28641(11) 0.21961(5)
C14 C 0.8833(2) 0.29457(12) 0.25475(6)
H15 H 0.9319 0.3478 0.2612
C15 C 0.9181(2) 0.22474(13) 0.28014(6)
H16 H 0.9895 0.2312 0.3035
C16 C 0.8468(2) 0.14509(13) 0.27082(6)
H17 H 0.8673 0.0985 0.2883
C17 C 0.7445(2) 0.13518(12) 0.23527(6)
H18 H 0.6991 0.0813 0.2285
C18 C 0.7096(2) 0.20517(11) 0.20974(6)
H19 H 0.6415 0.1979 0.1859
C19 C 0.25837(19) 0.27335(11) 0.15139(5)
C20 C 0.16860(19) 0.18886(11) 0.14884(5)
C21 C 0.0762(2) 0.16840(11) 0.11256(5)
H20 H 0.0751 0.206 0.0906
C22 C -0.0136(2) 0.09256(11) 0.10918(5)
H21 H -0.0742 0.078 0.085
C23 C -0.0110(2) 0.03889(11) 0.14253(5)
C24 C 0.0793(2) 0.05726(12) 0.17896(5)
H22 H 0.0789 0.0196 0.2009
C25 C 0.1700(2) 0.13289(12) 0.18200(5)
H23 H 0.2319 0.1465 0.2061
N1 N -0.10441(18) -0.04262(10) 0.13886(5)
O1 O 0.35920(13) 0.27887(7) 0.18588(4)
O2 O 0.24062(14) 0.32940(8) 0.12617(4)
O3 O -0.08805(17) -0.09433(9) 0.16709(4)
O4 O -0.19302(15) -0.05551(8) 0.10758(4)
C26 C 0.71417(19) 0.73727(11) -0.01394(5)
H24 H 0.7105 0.7798 -0.036
C27 C 0.5576(2) 0.72377(11) 0.00842(5)
C28 C 0.4175(2) 0.77861(12) -0.00881(6)
H25 H 0.3711 0.8173 0.0085
C29 C 0.3548(2) 0.77591(12) -0.04716(6)
H26 H 0.269 0.8134 -0.0553
C30 C 0.4155(2) 0.71526(13) -0.07800(6)
H27 H 0.4927 0.7456 -0.0938
H28 H 0.323 0.6969 -0.0965
C31 C 0.5000(2) 0.63596(12) -0.05844(5)
H29 H 0.4159 0.5953 -0.0516
H30 H 0.5645 0.6083 -0.0781
C32 C 0.6121(2) 0.65502(11) -0.02050(5)
C33 C 0.7123(2) 0.58002(11) -0.00108(5)
H31 H 0.6564 0.5555 0.021
H32 H 0.7257 0.5351 -0.021
C34 C 0.8799(2) 0.61603(11) 0.01479(5)
C35 C 0.8783(2) 0.71124(11) 0.00561(5)
C36 C 0.9808(2) 0.65276(11) -0.01807(5)
H33 H 1.0998 0.6553 -0.0124
H34 H 0.9428 0.6412 -0.0462
C37 C 0.9651(2) 0.57994(12) 0.05302(6)
H35 H 1.0641 0.6122 0.0602
H36 H 0.9927 0.5204 0.0488
H37 H 0.8931 0.584 0.0745
C38 C 0.5523(2) 0.70657(11) 0.05278(5)
C39 C 0.6393(2) 0.75501(12) 0.08296(5)
H38 H 0.7157 0.7958 0.0758
C40 C 0.6136(2) 0.74323(12) 0.12351(6)
H39 H 0.6731 0.7761 0.1433
C41 C 0.5004(2) 0.68307(13) 0.13486(6)
H40 H 0.4821 0.6762 0.1621
C42 C 0.4143(2) 0.63307(13) 0.10525(6)
H41 H 0.3395 0.5916 0.1126
C43 C 0.4401(2) 0.64518(12) 0.06480(6)
H42 H 0.3815 0.6117 0.0451
C44 C 1.02749(19) 0.83980(11) 0.01998(5)
C45 C 1.13952(19) 0.88674(11) 0.05085(5)
C46 C 1.2094(2) 0.96369(11) 0.03849(5)
H43 H 1.1802 0.9851 0.0126
C47 C 1.3220(2) 1.00845(11) 0.06450(5)
H44 H 1.3692 1.0597 0.0565
C48 C 1.3619(2) 0.97444(11) 0.10275(5)
C49 C 1.2947(2) 0.89862(11) 0.11592(5)
H45 H 1.3241 0.8776 0.1419
C50 C 1.1825(2) 0.85453(11) 0.08957(5)
H46 H 1.1358 0.8033 0.0978
N2 N 1.48016(18) 1.02243(10) 0.13067(5)
O5 O 0.96648(13) 0.76656(7) 0.03501(3)
O6 O 0.99828(15) 0.86370(8) -0.01457(4)
O7 O 1.52031(16) 0.99074(9) 0.16403(4)
O8 O 1.53200(17) 1.09198(9) 0.11935(4)
loop_
_geom_bond_atom_site_label_1
_geom_bond_atom_site_label_2
_geom_bond_site_symmetry_1
_geom_bond_site_symmetry_2
C1 H1 1_555 1_555
C2 C1 1_555 1_555
C3 C2 1_555 1_555
H2 C3 1_555 1_555
C4 C3 1_555 1_555
H3 C4 1_555 1_555
C5 C4 1_555 1_555
H4 C5 1_555 1_555
H5 C5 1_555 1_555
C6 C5 1_555 1_555
H6 C6 1_555 1_555
H7 C6 1_555 1_555
C7 C1 1_555 1_555
C8 C7 1_555 1_555
H8 C8 1_555 1_555
H9 C8 1_555 1_555
C9 C8 1_555 1_555
C10 C1 1_555 1_555
C11 C9 1_555 1_555
H10 C11 1_555 1_555
H11 C11 1_555 1_555
C12 C9 1_555 1_555
H12 C12 1_555 1_555
H13 C12 1_555 1_555
H14 C12 1_555 1_555
C13 C2 1_555 1_555
C14 C13 1_555 1_555
H15 C14 1_555 1_555
C15 C14 1_555 1_555
H16 C15 1_555 1_555
C16 C15 1_555 1_555
H17 C16 1_555 1_555
C17 C16 1_555 1_555
H18 C17 1_555 1_555
C18 C13 1_555 1_555
H19 C18 1_555 1_555
C19 C20 1_555 1_555
C20 C21 1_555 1_555
C21 H20 1_555 1_555
C22 C21 1_555 1_555
H21 C22 1_555 1_555
C23 C22 1_555 1_555
C24 C23 1_555 1_555
H22 C24 1_555 1_555
C25 C20 1_555 1_555
H23 C25 1_555 1_555
N1 C23 1_555 1_555
O1 C10 1_555 1_555
O2 C19 1_555 1_555
O3 N1 1_555 1_555
O4 N1 1_555 1_555
C26 H24 1_555 1_555
C27 C26 1_555 1_555
C28 C27 1_555 1_555
H25 C28 1_555 1_555
C29 C28 1_555 1_555
H26 C29 1_555 1_555
C30 C29 1_555 1_555
H27 C30 1_555 1_555
H28 C30 1_555 1_555
C31 C30 1_555 1_555
H29 C31 1_555 1_555
H30 C31 1_555 1_555
C32 C26 1_555 1_555
C33 C32 1_555 1_555
H31 C33 1_555 1_555
H32 C33 1_555 1_555
C34 C33 1_555 1_555
C35 C26 1_555 1_555
C36 C34 1_555 1_555
H33 C36 1_555 1_555
H34 C36 1_555 1_555
C37 C34 1_555 1_555
H35 C37 1_555 1_555
H36 C37 1_555 1_555
H37 C37 1_555 1_555
C38 C27 1_555 1_555
C39 C38 1_555 1_555
H38 C39 1_555 1_555
C40 C39 1_555 1_555
H39 C40 1_555 1_555
C41 C40 1_555 1_555
H40 C41 1_555 1_555
C42 C41 1_555 1_555
H41 C42 1_555 1_555
C43 C38 1_555 1_555
H42 C43 1_555 1_555
C44 C45 1_555 1_555
C45 C46 1_555 1_555
C46 H43 1_555 1_555
C47 C46 1_555 1_555
H44 C47 1_555 1_555
C48 C47 1_555 1_555
C49 C48 1_555 1_555
H45 C49 1_555 1_555
C50 C45 1_555 1_555
H46 C50 1_555 1_555
N2 C48 1_555 1_555
O5 C35 1_555 1_555
O6 C44 1_555 1_555
O7 N2 1_555 1_555
O8 N2 1_555 1_555
C2 C7 1_555 1_555
C6 C7 1_555 1_555
C9 C10 1_555 1_555
C10 C11 1_555 1_555
C17 C18 1_555 1_555
C19 O1 1_555 1_555
C24 C25 1_555 1_555
C27 C32 1_555 1_555
C31 C32 1_555 1_555
C34 C35 1_555 1_555
C35 C36 1_555 1_555
C42 C43 1_555 1_555
C44 O5 1_555 1_555
C49 C50 1_555 1_555

#END
