
#######################################################################
#
#                 Cambridge Crystallographic Data Centre
#                                CCDC 
#
#######################################################################
#
# If this CIF has been generated from an entry in the Cambridge 
# Structural Database, then it will include bibliographic, chemical, 
# crystal, experimental, refinement or atomic coordinate data resulting 
# from the CCDC's data processing and validation procedures.
#
#######################################################################

data_OVUWOT
_chemical_formula_moiety         'C15 H23 N1 O3'
_chemical_name_systematic        
10,11-dihydroxy-14-methyl-6-azatetracyclo[7.6.0.0^1,6^.0^2,12^]pentadecan-5-one
_symmetry_cell_setting           orthorhombic
_symmetry_space_group_name_H-M   'P 21 21 21'
_symmetry_Int_Tables_number      19
_space_group_name_Hall           'P 2ac 2ab'
loop_
_symmetry_equiv_pos_site_id
_symmetry_equiv_pos_as_xyz
1 x,y,z
2 1/2-x,-y,1/2+z
3 1/2+x,1/2-y,-z
4 -x,1/2+y,1/2-z
_cell_length_a                   8.5731(5)
_cell_length_b                   9.2969(4)
_cell_length_c                   17.1079(7)
_cell_angle_alpha                90
_cell_angle_beta                 90
_cell_angle_gamma                90
_cell_volume                     1363.56
_exptl_crystal_colour            colorless
_exptl_crystal_description       block
_cell_formula_units_Z            4
loop_
_atom_site_label
_atom_site_type_symbol
_atom_site_fract_x
_atom_site_fract_y
_atom_site_fract_z
O1 O 0.0167(4) 0.5458(3) 0.36288(15)
O2 O 0.2181(4) 0.8529(3) 0.14778(15)
H1 H 0.1442 0.9082 0.1426
O3 O 0.4739(4) 0.8319(3) 0.06738(19)
H2 H 0.4330 0.8935 0.0949
N1 N 0.0880(4) 0.5085(3) 0.23732(16)
C1 C 0.1995(4) 0.5113(4) 0.17116(18)
C2 C 0.3654(5) 0.5539(4) 0.19624(19)
H3 H 0.4123 0.4648 0.2159
C3 C 0.3705(5) 0.6571(4) 0.26500(19)
H4 H 0.3208 0.7474 0.2513
H5 H 0.4778 0.6766 0.2797
C4 C 0.2837(5) 0.5854(4) 0.3328(2)
H6 H 0.3402 0.4999 0.3487
H7 H 0.2816 0.6509 0.3770
C5 C 0.1197(5) 0.5444(4) 0.3122(2)
C6 C -0.0700(5) 0.5265(4) 0.2054(2)
H8 H -0.1427 0.5581 0.2453
H9 H -0.1080 0.4380 0.1821
C7 C -0.0444(5) 0.6424(5) 0.1438(2)
H10 H -0.0490 0.7373 0.1672
H11 H -0.1229 0.6361 0.1032
C8 C 0.1182(5) 0.6129(4) 0.1104(2)
H12 H 0.1034 0.5566 0.0626
C9 C 0.2120(5) 0.7449(4) 0.0878(2)
H13 H 0.1643 0.7876 0.0412
C10 C 0.3812(5) 0.7051(4) 0.0682(2)
H14 H 0.3813 0.6667 0.0149
C11 C 0.4561(5) 0.5888(4) 0.1215(2)
H15 H 0.5597 0.6233 0.1369
C12 C 0.4775(5) 0.4443(4) 0.0785(2)
H16 H 0.5281 0.4624 0.0288
H17 H 0.5464 0.3838 0.1092
C13 C 0.3254(5) 0.3625(4) 0.0636(2)
H18 H 0.2701 0.4123 0.0214
C14 C 0.2171(5) 0.3601(4) 0.1348(2)
H19 H 0.2587 0.2945 0.1737
H20 H 0.1153 0.3248 0.1191
C15 C 0.3602(6) 0.2091(4) 0.0352(3)
H21 H 0.2640 0.1611 0.0231
H22 H 0.4139 0.1572 0.0756
H23 H 0.4243 0.2132 -0.0107
loop_
_geom_bond_atom_site_label_1
_geom_bond_atom_site_label_2
_geom_bond_site_symmetry_1
_geom_bond_site_symmetry_2
O1 C5 1_555 1_555
O2 H1 1_555 1_555
O3 H2 1_555 1_555
N1 C1 1_555 1_555
C1 C2 1_555 1_555
C2 H3 1_555 1_555
C3 C2 1_555 1_555
H4 C3 1_555 1_555
H5 C3 1_555 1_555
C4 C3 1_555 1_555
H6 C4 1_555 1_555
H7 C4 1_555 1_555
C5 N1 1_555 1_555
C6 N1 1_555 1_555
H8 C6 1_555 1_555
H9 C6 1_555 1_555
C7 C6 1_555 1_555
H10 C7 1_555 1_555
H11 C7 1_555 1_555
C8 C1 1_555 1_555
H12 C8 1_555 1_555
C9 O2 1_555 1_555
H13 C9 1_555 1_555
C10 O3 1_555 1_555
H14 C10 1_555 1_555
C11 C2 1_555 1_555
H15 C11 1_555 1_555
C12 C11 1_555 1_555
H16 C12 1_555 1_555
H17 C12 1_555 1_555
C13 C12 1_555 1_555
H18 C13 1_555 1_555
C14 C1 1_555 1_555
H19 C14 1_555 1_555
H20 C14 1_555 1_555
C15 C13 1_555 1_555
H21 C15 1_555 1_555
H22 C15 1_555 1_555
H23 C15 1_555 1_555
C4 C5 1_555 1_555
C7 C8 1_555 1_555
C8 C9 1_555 1_555
C9 C10 1_555 1_555
C10 C11 1_555 1_555
C13 C14 1_555 1_555

#END
