
#######################################################################
#
#                 Cambridge Crystallographic Data Centre
#                                CCDC 
#
#######################################################################
#
# If this CIF has been generated from an entry in the Cambridge 
# Structural Database, then it will include bibliographic, chemical, 
# crystal, experimental, refinement or atomic coordinate data resulting 
# from the CCDC's data processing and validation procedures.
#
#######################################################################

data_OVUWUZ
_chemical_formula_moiety         'C30 H31 N1 O7 S1'
_chemical_name_systematic        
"diethyl 1'-((4-methylphenyl)sulfonyl)-5'-phenyl-2'H,3H-spiro[2-benzofuran-1,3'-pyrrolidine]-2',2'-dicarboxylate"
_symmetry_cell_setting           triclinic
_symmetry_space_group_name_H-M   'P -1'
_symmetry_Int_Tables_number      2
_space_group_name_Hall           '-P 1'
loop_
_symmetry_equiv_pos_site_id
_symmetry_equiv_pos_as_xyz
1 x,y,z
2 -x,-y,-z
_cell_length_a                   8.22(3)
_cell_length_b                   13.26(6)
_cell_length_c                   13.66(6)
_cell_angle_alpha                62.43(3)
_cell_angle_beta                 75.81(4)
_cell_angle_gamma                86.19(4)
_cell_volume                     1277.64
_exptl_crystal_description       block
_cell_formula_units_Z            2
loop_
_atom_site_label
_atom_site_type_symbol
_atom_site_fract_x
_atom_site_fract_y
_atom_site_fract_z
S1 S 0.10399(6) 0.79963(5) 0.31538(4)
O1 O 0.61709(17) 0.68007(12) 0.26796(12)
O2 O 0.38562(18) 0.49217(11) 0.34209(12)
O3 O 0.2819(2) 0.57889(13) 0.44719(12)
O4 O 0.1864(2) 0.58066(13) 0.18936(13)
O5 O 0.22315(19) 0.76619(12) 0.09351(12)
O6 O 0.0671(2) 0.91191(14) 0.24773(13)
O7 O 0.01125(18) 0.70834(14) 0.32777(13)
N1 N 0.2966(2) 0.78302(13) 0.26453(13)
C1 C 0.0088(4) 0.7801(2) 0.7704(2)
H1 H 0.1052 0.7509 0.8006
H2 H -0.0890 0.7320 0.8216
H3 H -0.0069 0.8560 0.7616
C2 C 0.0351(3) 0.7823(2) 0.65799(18)
C3 C -0.0080(3) 0.6917(2) 0.64597(19)
H4 H -0.0573 0.6259 0.7108
C4 C 0.0187(3) 0.69401(19) 0.54247(18)
H5 H -0.0100 0.6305 0.5369
C5 C 0.0870(2) 0.78940(17) 0.44891(17)
C6 C 0.1301(3) 0.88071(19) 0.45918(19)
H6 H 0.1770 0.9471 0.3943
C7 C 0.1051(3) 0.8756(2) 0.56345(19)
H7 H 0.1374 0.9383 0.5691
C8 C 0.5594(4) 1.0746(2) 0.3196(2)
H8 H 0.5933 1.1159 0.3514
C9 C 0.4527(4) 1.1177(2) 0.2522(2)
H9 H 0.4128 1.1896 0.2366
C10 C 0.4015(3) 1.05640(18) 0.20592(19)
H10 H 0.3278 1.0875 0.1587
C11 C 0.4576(3) 0.95036(17) 0.22836(17)
C12 C 0.5669(3) 0.9080(2) 0.2962(2)
H11 H 0.6075 0.8363 0.3121
C13 C 0.6177(4) 0.9698(2) 0.3412(3)
H12 H 0.6932 0.9399 0.3872
C14 C 0.3983(3) 0.88473(16) 0.17820(16)
H13 H 0.3307 0.9337 0.1258
C15 C 0.5324(3) 0.83701(17) 0.11661(17)
H14 H 0.5146 0.8576 0.0421
H15 H 0.6420 0.8686 0.1062
C16 C 0.5255(2) 0.71080(17) 0.18441(16)
C17 C 0.5996(2) 0.64707(17) 0.11978(16)
C18 C 0.5671(3) 0.64949(19) 0.02506(18)
H16 H 0.4864 0.6960 -0.0086
C19 C 0.6544(3) 0.5830(2) -0.0193(2)
H17 H 0.6321 0.5835 -0.0831
C20 C 0.7728(3) 0.5167(2) 0.0283(2)
H18 H 0.8309 0.4711 -0.0022
C21 C 0.8080(3) 0.5160(2) 0.1211(2)
H19 H 0.8909 0.4709 0.1533
C22 C 0.7206(3) 0.58204(18) 0.16640(18)
C23 C 0.7344(3) 0.5980(2) 0.2638(2)
H20 H 0.836(3) 0.628(2) 0.256(2)
H21 H 0.706(3) 0.527(2) 0.336(2)
C24 C 0.3402(2) 0.68334(16) 0.24741(15)
C25 C 0.2389(2) 0.66696(17) 0.17584(16)
C26 C 0.1245(4) 0.7701(2) 0.0192(2)
H22 H 0.1950 0.7612 -0.0443
H23 H 0.0380 0.7088 0.0598
C27 C 0.0522(7) 0.8739(4) -0.0200(4)
H24 H -0.0203 0.8763 -0.0664
H25 H 0.1386 0.9338 -0.0644
H26 H -0.0122 0.8839 0.0435
C28 C 0.3290(2) 0.57924(17) 0.35866(17)
C29 C 0.4006(3) 0.39031(18) 0.44038(19)
H27 H 0.2908 0.3603 0.4913
H28 H 0.4702 0.4050 0.4809
C30 C 0.4782(5) 0.3088(2) 0.4003(3)
H29 H 0.5835 0.3416 0.3463
H30 H 0.4048 0.2915 0.3646
H31 H 0.4971 0.2402 0.4638
loop_
_geom_bond_atom_site_label_1
_geom_bond_atom_site_label_2
_geom_bond_site_symmetry_1
_geom_bond_site_symmetry_2
S1 O6 1_555 1_555
O1 C16 1_555 1_555
O2 C28 1_555 1_555
O3 C28 1_555 1_555
O4 C25 1_555 1_555
O5 C25 1_555 1_555
O7 S1 1_555 1_555
N1 S1 1_555 1_555
C1 H1 1_555 1_555
H2 C1 1_555 1_555
H3 C1 1_555 1_555
C2 C1 1_555 1_555
C3 C2 1_555 1_555
H4 C3 1_555 1_555
C4 C3 1_555 1_555
H5 C4 1_555 1_555
C5 S1 1_555 1_555
C6 C5 1_555 1_555
H6 C6 1_555 1_555
C7 C2 1_555 1_555
H7 C7 1_555 1_555
C8 H8 1_555 1_555
C9 C8 1_555 1_555
H9 C9 1_555 1_555
C10 C9 1_555 1_555
H10 C10 1_555 1_555
C11 C10 1_555 1_555
C12 C11 1_555 1_555
H11 C12 1_555 1_555
C13 C8 1_555 1_555
H12 C13 1_555 1_555
C14 N1 1_555 1_555
H13 C14 1_555 1_555
C15 C14 1_555 1_555
H14 C15 1_555 1_555
H15 C15 1_555 1_555
C16 C15 1_555 1_555
C17 C16 1_555 1_555
C18 C17 1_555 1_555
H16 C18 1_555 1_555
C19 C18 1_555 1_555
H17 C19 1_555 1_555
C20 C19 1_555 1_555
H18 C20 1_555 1_555
C21 C20 1_555 1_555
H19 C21 1_555 1_555
C22 C17 1_555 1_555
C23 O1 1_555 1_555
H20 C23 1_555 1_555
H21 C23 1_555 1_555
C24 N1 1_555 1_555
C25 C24 1_555 1_555
C26 O5 1_555 1_555
H22 C26 1_555 1_555
H23 C26 1_555 1_555
C27 C26 1_555 1_555
H24 C27 1_555 1_555
H25 C27 1_555 1_555
H26 C27 1_555 1_555
C28 C24 1_555 1_555
C29 O2 1_555 1_555
H27 C29 1_555 1_555
H28 C29 1_555 1_555
C30 C29 1_555 1_555
H29 C30 1_555 1_555
H30 C30 1_555 1_555
H31 C30 1_555 1_555
C4 C5 1_555 1_555
C6 C7 1_555 1_555
C11 C14 1_555 1_555
C12 C13 1_555 1_555
C16 C24 1_555 1_555
C21 C22 1_555 1_555
C22 C23 1_555 1_555

#END
