
#######################################################################
#
#                 Cambridge Crystallographic Data Centre
#                                CCDC 
#
#######################################################################
#
# If this CIF has been generated from an entry in the Cambridge 
# Structural Database, then it will include bibliographic, chemical, 
# crystal, experimental, refinement or atomic coordinate data resulting 
# from the CCDC's data processing and validation procedures.
#
#######################################################################

data_OVUXEK
_chemical_formula_moiety         'C33 H37 Br1 N2 O8 S2'
_chemical_name_systematic        
'diethyl 8-(3-bromophenyl)-1,7-bis((4-methylphenyl)sulfonyl)-1,7-diazaspiro[4.4]nonane-6,6-dicarboxylate'
_symmetry_cell_setting           triclinic
_symmetry_space_group_name_H-M   'P -1'
_symmetry_Int_Tables_number      2
_space_group_name_Hall           '-P 1'
loop_
_symmetry_equiv_pos_site_id
_symmetry_equiv_pos_as_xyz
1 x,y,z
2 -x,-y,-z
_cell_length_a                   8.76(5)
_cell_length_b                   10.03(6)
_cell_length_c                   20.67(12)
_cell_angle_alpha                97.61(4)
_cell_angle_beta                 97.04(5)
_cell_angle_gamma                107.15(4)
_cell_volume                     1694.86
_exptl_crystal_description       block
_cell_formula_units_Z            2
loop_
_atom_site_label
_atom_site_type_symbol
_atom_site_fract_x
_atom_site_fract_y
_atom_site_fract_z
Br1 Br 0.98828(8) 0.18492(5) 0.05475(3)
C1 C 1.5180(5) 0.5132(4) 0.6132(2)
H1 H 1.4759 0.5122 0.6540
H2 H 1.6321 0.5637 0.6224
H3 H 1.5003 0.4176 0.5919
C2 C 1.4320(5) 0.5861(4) 0.5679(2)
C3 C 1.2825(5) 0.5122(4) 0.5285(2)
H4 H 1.2351 0.4168 0.5300
C4 C 1.2022(5) 0.5775(4) 0.4867(2)
H5 H 1.1031 0.5253 0.4604
C5 C 1.2693(5) 0.7197(4) 0.48432(18)
C6 C 1.4207(5) 0.7958(4) 0.5227(2)
H6 H 1.4688 0.8908 0.5208
C7 C 1.4986(5) 0.7279(4) 0.5638(2)
H7 H 1.5989 0.7794 0.5893
C8 C 1.3568(5) 0.8239(4) 0.34414(19)
H8 H 1.4343 0.8018 0.3752
H9 H 1.3873 0.9259 0.3472
C9 C 1.3498(5) 0.7514(4) 0.2739(2)
H10 H 1.4458 0.7233 0.2704
H11 H 1.3419 0.8142 0.2427
C10 C 1.1979(5) 0.6213(4) 0.26036(19)
H12 H 1.2245 0.5400 0.2730
H13 H 1.1514 0.5987 0.2136
C11 C 1.0773(4) 0.6591(3) 0.30206(17)
C12 C 0.9620(4) 0.5274(3) 0.32042(18)
H14 H 0.9225 0.5528 0.3606
H15 H 1.0172 0.4584 0.3275
C13 C 0.8204(5) 0.4660(3) 0.26164(18)
H16 H 0.7189 0.4494 0.2793
C14 C 0.8168(4) 0.3271(4) 0.22025(19)
C15 C 0.7362(5) 0.1995(4) 0.2391(2)
H17 H 0.6851 0.2013 0.2759
C16 C 0.7313(6) 0.0701(4) 0.2037(2)
H18 H 0.6773 -0.0137 0.2170
C17 C 0.8053(6) 0.0655(4) 0.1497(2)
H19 H 0.8021 -0.0210 0.1259
C18 C 0.8848(5) 0.1903(4) 0.13048(19)
C19 C 0.8918(5) 0.3216(4) 0.16516(19)
H20 H 0.9463 0.4047 0.1514
C20 C 0.9521(4) 0.7194(3) 0.26015(17)
C21 C 0.8652(5) 0.7947(4) 0.30774(18)
C22 C 0.8764(5) 1.0063(4) 0.3777(2)
H21 H 0.8678 0.9660 0.4178
H22 H 0.7689 1.0015 0.3571
C23 C 0.9866(5) 1.1573(4) 0.3934(2)
H23 H 0.9963 1.1948 0.3532
H24 H 1.0917 1.1605 0.4146
H25 H 0.9423 1.2131 0.4225
C24 C 1.0350(4) 0.8084(4) 0.2114(2)
C25 C 1.2061(5) 1.0339(4) 0.1983(2)
H26 H 1.1353 1.0284 0.1574
H27 H 1.2979 1.0055 0.1874
C26 C 1.2629(6) 1.1824(4) 0.2374(2)
H28 H 1.3254 1.2459 0.2124
H29 H 1.3289 1.1854 0.2785
H30 H 1.1708 1.2106 0.2461
C27 C 0.6486(5) 0.4797(4) 0.10005(19)
C28 C 0.7446(6) 0.5313(4) 0.0545(2)
H31 H 0.8135 0.6243 0.0630
C29 C 0.7357(6) 0.4412(5) -0.0038(2)
H32 H 0.8019 0.4744 -0.0339
C30 C 0.6318(6) 0.3038(5) -0.0184(2)
C31 C 0.6313(6) 0.2079(5) -0.0814(2)
H33 H 0.6006 0.2470 -0.1190
H34 H 0.5553 0.1157 -0.0833
H35 H 0.7378 0.2001 -0.0819
C32 C 0.5334(6) 0.2576(5) 0.0261(2)
H36 H 0.4600 0.1663 0.0165
C33 C 0.5411(5) 0.3439(4) 0.0852(2)
H37 H 0.4738 0.3104 0.1149
N1 N 1.1901(3) 0.7660(3) 0.35783(14)
N2 N 0.8351(3) 0.5845(3) 0.22301(14)
O1 O 1.2482(3) 0.9572(2) 0.45457(12)
O2 O 0.9961(3) 0.7523(2) 0.43621(12)
O3 O 0.9502(3) 0.9297(2) 0.33210(12)
O4 O 0.7356(3) 0.7332(3) 0.31990(13)
O5 O 1.1182(3) 0.9414(2) 0.23998(12)
O6 O 1.0324(3) 0.7609(3) 0.15465(13)
O7 O 0.6912(3) 0.7317(2) 0.16874(13)
O8 O 0.5255(3) 0.5136(2) 0.20512(12)
S1 S 1.16552(13) 0.80770(10) 0.43404(5)
S2 S 0.66318(12) 0.58601(10) 0.17729(5)
loop_
_geom_bond_atom_site_label_1
_geom_bond_atom_site_label_2
_geom_bond_site_symmetry_1
_geom_bond_site_symmetry_2
Br1 C18 1_555 1_555
C1 H1 1_555 1_555
H2 C1 1_555 1_555
H3 C1 1_555 1_555
C2 C1 1_555 1_555
C3 C2 1_555 1_555
H4 C3 1_555 1_555
C4 C3 1_555 1_555
H5 C4 1_555 1_555
C5 C4 1_555 1_555
C6 C5 1_555 1_555
H6 C6 1_555 1_555
C7 C2 1_555 1_555
H7 C7 1_555 1_555
C8 H8 1_555 1_555
H9 C8 1_555 1_555
C9 C8 1_555 1_555
H10 C9 1_555 1_555
H11 C9 1_555 1_555
C10 C9 1_555 1_555
H12 C10 1_555 1_555
H13 C10 1_555 1_555
C11 C10 1_555 1_555
C12 C11 1_555 1_555
H14 C12 1_555 1_555
H15 C12 1_555 1_555
C13 C12 1_555 1_555
H16 C13 1_555 1_555
C14 C13 1_555 1_555
C15 C14 1_555 1_555
H17 C15 1_555 1_555
C16 C15 1_555 1_555
H18 C16 1_555 1_555
C17 C16 1_555 1_555
H19 C17 1_555 1_555
C18 C17 1_555 1_555
C19 C14 1_555 1_555
H20 C19 1_555 1_555
C20 C11 1_555 1_555
C21 C20 1_555 1_555
C22 H21 1_555 1_555
H22 C22 1_555 1_555
C23 C22 1_555 1_555
H23 C23 1_555 1_555
H24 C23 1_555 1_555
H25 C23 1_555 1_555
C24 C20 1_555 1_555
C25 H26 1_555 1_555
H27 C25 1_555 1_555
C26 C25 1_555 1_555
H28 C26 1_555 1_555
H29 C26 1_555 1_555
H30 C26 1_555 1_555
C27 C28 1_555 1_555
C28 H31 1_555 1_555
C29 C28 1_555 1_555
H32 C29 1_555 1_555
C30 C29 1_555 1_555
C31 C30 1_555 1_555
H33 C31 1_555 1_555
H34 C31 1_555 1_555
H35 C31 1_555 1_555
C32 C30 1_555 1_555
H36 C32 1_555 1_555
C33 C27 1_555 1_555
H37 C33 1_555 1_555
N1 C8 1_555 1_555
N2 C13 1_555 1_555
O1 S1 1_555 1_555
O2 S1 1_555 1_555
O3 C21 1_555 1_555
O4 C21 1_555 1_555
O5 C24 1_555 1_555
O6 C24 1_555 1_555
O7 S2 1_555 1_555
O8 S2 1_555 1_555
S1 C5 1_555 1_555
S2 C27 1_555 1_555
C6 C7 1_555 1_555
C11 N1 1_555 1_555
C18 C19 1_555 1_555
C20 N2 1_555 1_555
C22 O3 1_555 1_555
C25 O5 1_555 1_555
C32 C33 1_555 1_555
N1 S1 1_555 1_555
N2 S2 1_555 1_555

#END
