
#######################################################################
#
#                 Cambridge Crystallographic Data Centre
#                                CCDC 
#
#######################################################################
#
# If this CIF has been generated from an entry in the Cambridge 
# Structural Database, then it will include bibliographic, chemical, 
# crystal, experimental, refinement or atomic coordinate data resulting 
# from the CCDC's data processing and validation procedures.
#
#######################################################################

data_OVUXAG
_chemical_formula_moiety         'C33 H38 N2 O8 S2'
_chemical_name_systematic        
'diethyl 1,7-bis((4-methylphenyl)sulfonyl)-8-phenyl-1,7-diazaspiro[4.4]nonane-6,6-dicarboxylate'
_symmetry_cell_setting           triclinic
_symmetry_space_group_name_H-M   'P -1'
_symmetry_Int_Tables_number      2
_space_group_name_Hall           '-P 1'
loop_
_symmetry_equiv_pos_site_id
_symmetry_equiv_pos_as_xyz
1 x,y,z
2 -x,-y,-z
_cell_length_a                   8.8389(2)
_cell_length_b                   10.1118(3)
_cell_length_c                   20.3650(6)
_cell_angle_alpha                91.087(2)
_cell_angle_beta                 95.709(2)
_cell_angle_gamma                107.236(2)
_cell_volume                     1727.56
_exptl_crystal_description       block
_cell_formula_units_Z            2
loop_
_atom_site_label
_atom_site_type_symbol
_atom_site_fract_x
_atom_site_fract_y
_atom_site_fract_z
S1 S -0.29553(15) 0.13351(13) 0.68754(6)
S2 S 0.17744(14) 0.30663(13) 0.93765(6)
O1 O -0.2770(4) 0.2772(4) 0.6811(2)
O2 O -0.4335(4) 0.0468(4) 0.71308(18)
O3 O 0.0669(5) 0.3147(4) 0.66288(19)
O4 O 0.1348(4) 0.4753(4) 0.74498(18)
O5 O -0.2451(4) 0.2455(4) 0.83000(18)
O6 O -0.0367(4) 0.4383(3) 0.83938(18)
O7 O 0.2501(4) 0.4505(3) 0.95383(18)
O8 O 0.0118(4) 0.2451(4) 0.94394(17)
N1 N -0.1322(5) 0.1246(4) 0.73361(19)
N2 N 0.2072(5) 0.2764(4) 0.8621(2)
C1 C -0.2903(7) 0.0591(6) 0.6095(3)
C2 C -0.1974(10) 0.1344(10) 0.5648(3)
H1 H -0.1322 0.2236 0.5773
C3 C -0.1982(11) 0.0821(13) 0.5031(4)
H2 H -0.1384 0.1374 0.4732
C4 C -0.2869(10) -0.0524(12) 0.4840(4)
C5 C -0.3814(12) -0.1265(9) 0.5284(4)
H3 H -0.4458 -0.2161 0.5161
C6 C -0.3835(9) -0.0719(7) 0.5907(3)
H4 H -0.4486 -0.1246 0.6198
C7 C -0.2868(12) -0.1152(14) 0.4151(5)
H5 H -0.3214 -0.2145 0.4159
H6 H -0.1810 -0.0849 0.4021
H7 H -0.3579 -0.0858 0.3841
C8 C -0.1661(6) -0.1305(5) 0.7371(3)
C9 C -0.0862(8) -0.1364(6) 0.6839(3)
H8 H -0.0214 -0.0545 0.6692
C10 C -0.0987(9) -0.2600(7) 0.6513(4)
H9 H -0.0419 -0.2604 0.6153
C11 C -0.1897(11) -0.3779(8) 0.6704(5)
H10 H -0.1980 -0.4604 0.6473
C12 C -0.2726(11) -0.3801(7) 0.7241(5)
H11 H -0.3357 -0.4640 0.7376
C13 C -0.2621(8) -0.2558(6) 0.7586(4)
H12 H -0.3176 -0.2562 0.7951
C14 C -0.1547(6) 0.0020(5) 0.7766(3)
H13 H -0.2535 -0.0112 0.7971
C15 C -0.0132(6) 0.0486(5) 0.8307(3)
H14 H -0.0498 0.0642 0.8727
H15 H 0.0411 -0.0217 0.8355
C16 C 0.0990(5) 0.1832(5) 0.8092(2)
C17 C -0.0226(5) 0.2505(5) 0.7683(2)
C18 C 0.0600(6) 0.3494(5) 0.7187(3)
C19 C 0.2231(8) 0.5756(6) 0.7016(4)
H16 H 0.1545 0.5825 0.6624
H17 H 0.3120 0.5480 0.6881
C20 C 0.2821(10) 0.7121(7) 0.7407(4)
H18 H 0.3412 0.7819 0.7140
H19 H 0.3499 0.7036 0.7793
H20 H 0.1930 0.7377 0.7539
C21 C -0.1166(6) 0.3110(5) 0.8161(2)
C22 C -0.1153(7) 0.5026(6) 0.8848(3)
H21 H -0.1219 0.4568 0.9263
H22 H -0.2221 0.4974 0.8658
C23 C -0.0129(9) 0.6514(7) 0.8953(4)
H23 H 0.0116 0.6890 0.8534
H24 H 0.0842 0.6558 0.9222
H25 H -0.0692 0.7042 0.9171
C24 C 0.2206(6) 0.1552(6) 0.7649(3)
H26 H 0.2475 0.0723 0.7777
H27 H 0.1764 0.1427 0.7189
C25 C 0.3664(6) 0.2804(6) 0.7751(3)
H28 H 0.4620 0.2537 0.7711
H29 H 0.3599 0.3479 0.7426
C26 C 0.3696(6) 0.3401(6) 0.8439(3)
H30 H 0.4481 0.3164 0.8742
H31 H 0.3947 0.4402 0.8441
C27 C 0.2856(6) 0.2189(5) 0.9887(2)
C28 C 0.4321(6) 0.2898(5) 1.0205(3)
H32 H 0.4766 0.3834 1.0137
C29 C 0.5137(7) 0.2229(6) 1.0623(3)
H33 H 0.6126 0.2730 1.0837
C30 C 0.4539(6) 0.0853(6) 1.0733(3)
C31 C 0.3076(6) 0.0141(6) 1.0404(3)
H34 H 0.2644 -0.0798 1.0471
C32 C 0.2231(6) 0.0784(5) 0.9976(3)
H35 H 0.1256 0.0279 0.9751
C33 C 0.5423(7) 0.0115(6) 1.1185(3)
H36 H 0.4934 -0.0054 1.1588
H37 H 0.6511 0.0679 1.1283
H38 H 0.5391 -0.0752 1.0975
loop_
_geom_bond_atom_site_label_1
_geom_bond_atom_site_label_2
_geom_bond_site_symmetry_1
_geom_bond_site_symmetry_2
S1 O1 1_555 1_555
S2 O7 1_555 1_555
O2 S1 1_555 1_555
O3 C18 1_555 1_555
O4 C18 1_555 1_555
O5 C21 1_555 1_555
O6 C21 1_555 1_555
O8 S2 1_555 1_555
N1 S1 1_555 1_555
N2 S2 1_555 1_555
C1 S1 1_555 1_555
C2 C1 1_555 1_555
H1 C2 1_555 1_555
C3 C2 1_555 1_555
H2 C3 1_555 1_555
C4 C3 1_555 1_555
C5 C4 1_555 1_555
H3 C5 1_555 1_555
C6 C1 1_555 1_555
H4 C6 1_555 1_555
C7 C4 1_555 1_555
H5 C7 1_555 1_555
H6 C7 1_555 1_555
H7 C7 1_555 1_555
C8 C9 1_555 1_555
C9 H8 1_555 1_555
C10 C9 1_555 1_555
H9 C10 1_555 1_555
C11 C10 1_555 1_555
H10 C11 1_555 1_555
C12 C11 1_555 1_555
H11 C12 1_555 1_555
C13 C8 1_555 1_555
H12 C13 1_555 1_555
C14 N1 1_555 1_555
H13 C14 1_555 1_555
C15 C14 1_555 1_555
H14 C15 1_555 1_555
H15 C15 1_555 1_555
C16 N2 1_555 1_555
C17 N1 1_555 1_555
C18 C17 1_555 1_555
C19 O4 1_555 1_555
H16 C19 1_555 1_555
H17 C19 1_555 1_555
C20 C19 1_555 1_555
H18 C20 1_555 1_555
H19 C20 1_555 1_555
H20 C20 1_555 1_555
C21 C17 1_555 1_555
C22 O6 1_555 1_555
H21 C22 1_555 1_555
H22 C22 1_555 1_555
C23 C22 1_555 1_555
H23 C23 1_555 1_555
H24 C23 1_555 1_555
H25 C23 1_555 1_555
C24 C16 1_555 1_555
H26 C24 1_555 1_555
H27 C24 1_555 1_555
C25 C24 1_555 1_555
H28 C25 1_555 1_555
H29 C25 1_555 1_555
C26 N2 1_555 1_555
H30 C26 1_555 1_555
H31 C26 1_555 1_555
C27 S2 1_555 1_555
C28 C27 1_555 1_555
H32 C28 1_555 1_555
C29 C28 1_555 1_555
H33 C29 1_555 1_555
C30 C29 1_555 1_555
C31 C30 1_555 1_555
H34 C31 1_555 1_555
C32 C27 1_555 1_555
H35 C32 1_555 1_555
C33 C30 1_555 1_555
H36 C33 1_555 1_555
H37 C33 1_555 1_555
H38 C33 1_555 1_555
C5 C6 1_555 1_555
C8 C14 1_555 1_555
C12 C13 1_555 1_555
C15 C16 1_555 1_555
C16 C17 1_555 1_555
C25 C26 1_555 1_555
C31 C32 1_555 1_555

#END
