
#######################################################################
#
#                 Cambridge Crystallographic Data Centre
#                                CCDC 
#
#######################################################################
#
# If this CIF has been generated from an entry in the Cambridge 
# Structural Database, then it will include bibliographic, chemical, 
# crystal, experimental, refinement or atomic coordinate data resulting 
# from the CCDC's data processing and validation procedures.
#
#######################################################################

data_OWAGEA
_chemical_formula_moiety         'C27 H22 Cl1 N3 O2'
_chemical_name_systematic        
'ethyl 3-((4-chlorophenyl)amino)-2-phenyl-3-(2-(pyrimidin-2-yl)phenyl)acrylate'
_symmetry_cell_setting           monoclinic
_symmetry_space_group_name_H-M   'C 2/c'
_symmetry_Int_Tables_number      15
_space_group_name_Hall           '-C 2yn'
loop_
_symmetry_equiv_pos_site_id
_symmetry_equiv_pos_as_xyz
1 x,y,z
2 -x,y,1/2-z
3 1/2+x,1/2+y,z
4 1/2-x,1/2+y,1/2-z
5 -x,-y,-z
6 x,-y,1/2+z
7 1/2-x,1/2-y,-z
8 1/2+x,1/2-y,1/2+z
_cell_length_a                   22.5227(19)
_cell_length_b                   13.0043(8)
_cell_length_c                   16.6637(11)
_cell_angle_alpha                90
_cell_angle_beta                 105.449(8)
_cell_angle_gamma                90
_cell_volume                     4704.32
_exptl_crystal_colour            yellow
_exptl_crystal_description       block
_cell_formula_units_Z            8
loop_
_atom_site_label
_atom_site_type_symbol
_atom_site_fract_x
_atom_site_fract_y
_atom_site_fract_z
Cl1 Cl 0.16893(5) 0.41254(6) 0.00684(5)
O1 O 0.04894(9) -0.17219(14) -0.08673(10)
O2 O 0.04925(11) -0.32694(15) -0.03022(11)
N1 N 0.26788(11) -0.19223(18) 0.25127(14)
N2 N 0.23483(9) -0.11860(16) 0.11682(13)
N3 N 0.09119(9) -0.01915(15) 0.01419(11)
H1 H 0.0676 -0.0389 -0.0328
C1 C 0.31264(15) -0.2396(3) 0.2285(2)
H2 H 0.3394 -0.2815 0.2670
C2 C 0.32125(15) -0.2296(2) 0.1514(2)
H3 H 0.3529 -0.2639 0.1363
C3 C 0.28120(14) -0.1668(2) 0.09694(19)
H4 H 0.2865 -0.1573 0.0440
C4 C 0.23026(11) -0.13449(18) 0.19393(15)
C5 C 0.18050(10) -0.08035(16) 0.21919(13)
C6 C 0.18960(12) -0.05411(19) 0.30235(14)
H5 H 0.2255 -0.0748 0.3411
C7 C 0.14647(13) 0.0019(2) 0.32816(16)
H6 H 0.1532 0.0186 0.3841
C8 C 0.09359(13) 0.0334(2) 0.27158(16)
H7 H 0.0649 0.0731 0.2888
C9 C 0.08308(11) 0.00603(18) 0.18926(14)
H8 H 0.0470 0.0270 0.1511
C10 C 0.12549(10) -0.05230(16) 0.16248(13)
C11 C 0.10437(10) -0.09122(17) 0.07455(13)
C12 C 0.09087(10) -0.19350(17) 0.05951(13)
C13 C 0.10376(11) -0.26993(17) 0.12843(13)
C14 C 0.07474(12) -0.2663(2) 0.19141(15)
H9 H 0.0446 -0.2168 0.1898
C15 C 0.08950(16) -0.3347(2) 0.25681(17)
H10 H 0.0695 -0.3306 0.2989
C16 C 0.13300(18) -0.4081(3) 0.2603(2)
H11 H 0.1434 -0.4534 0.3051
C17 C 0.16137(16) -0.4146(2) 0.1976(2)
H12 H 0.1905 -0.4657 0.1988
C18 C 0.14686(13) -0.3459(2) 0.13256(17)
H13 H 0.1667 -0.3510 0.0904
C19 C 0.11081(11) 0.08437(18) 0.01761(13)
C20 C 0.16995(12) 0.11406(19) 0.05808(15)
H14 H 0.1980 0.0658 0.0873
C21 C 0.18752(13) 0.2150(2) 0.05528(15)
H15 H 0.2273 0.2354 0.0828
C22 C 0.14610(14) 0.28527(19) 0.01172(15)
C23 C 0.08725(13) 0.2570(2) -0.02847(16)
H16 H 0.0593 0.3054 -0.0575
C24 C 0.06983(12) 0.1558(2) -0.02554(15)
H17 H 0.0300 0.1358 -0.0531
C25 C 0.06215(12) -0.2266(2) -0.02496(15)
C26 C 0.0175(3) -0.3662(3) -0.1129(2)
H18 H -0.0194 -0.3260 -0.1355
H19 H 0.0441 -0.3582 -0.1498
C27 C 0.0023(5) -0.4650(6) -0.1104(5)
H20 H 0.0389 -0.5064 -0.0984
H21 H -0.0244 -0.4848 -0.1632
H22 H -0.0185 -0.4749 -0.0676
H23? H 0.0257 -0.3190 -0.1538
H24? H 0.0363 -0.4314 -0.1203
C28? C -0.0396(7) -0.380(2) -0.1301(10)
H25? H -0.0496 -0.4176 -0.0860
H26? H -0.0529 -0.4176 -0.1812
H27? H -0.0600 -0.3142 -0.1362
loop_
_geom_bond_atom_site_label_1
_geom_bond_atom_site_label_2
_geom_bond_site_symmetry_1
_geom_bond_site_symmetry_2
Cl1 C22 1_555 1_555
O1 C25 1_555 1_555
O2 C25 1_555 1_555
N1 C1 1_555 1_555
N2 C3 1_555 1_555
N3 H1 1_555 1_555
C1 H2 1_555 1_555
C2 C1 1_555 1_555
H3 C2 1_555 1_555
C3 C2 1_555 1_555
H4 C3 1_555 1_555
C4 N1 1_555 1_555
C5 C4 1_555 1_555
C6 C5 1_555 1_555
H5 C6 1_555 1_555
C7 C6 1_555 1_555
H6 C7 1_555 1_555
C8 C7 1_555 1_555
H7 C8 1_555 1_555
C9 C8 1_555 1_555
H8 C9 1_555 1_555
C10 C5 1_555 1_555
C11 N3 1_555 1_555
C12 C11 1_555 1_555
C13 C12 1_555 1_555
C14 C13 1_555 1_555
H9 C14 1_555 1_555
C15 C14 1_555 1_555
H10 C15 1_555 1_555
C16 C15 1_555 1_555
H11 C16 1_555 1_555
C17 C16 1_555 1_555
H12 C17 1_555 1_555
C18 C13 1_555 1_555
H13 C18 1_555 1_555
C19 N3 1_555 1_555
C20 C19 1_555 1_555
H14 C20 1_555 1_555
C21 C20 1_555 1_555
H15 C21 1_555 1_555
C22 C21 1_555 1_555
C23 C22 1_555 1_555
H16 C23 1_555 1_555
C24 C19 1_555 1_555
H17 C24 1_555 1_555
C25 C12 1_555 1_555
C26 O2 1_555 1_555
H18 C26 1_555 1_555
H19 C26 1_555 1_555
C27 C26 1_555 1_555
H20 C27 1_555 1_555
H21 C27 1_555 1_555
H22 C27 1_555 1_555
N2 C4 1_555 1_555
C9 C10 1_555 1_555
C10 C11 1_555 1_555
C17 C18 1_555 1_555
C23 C24 1_555 1_555

#END
