
#######################################################################
#
#                 Cambridge Crystallographic Data Centre
#                                CCDC 
#
#######################################################################
#
# If this CIF has been generated from an entry in the Cambridge 
# Structural Database, then it will include bibliographic, chemical, 
# crystal, experimental, refinement or atomic coordinate data resulting 
# from the CCDC's data processing and validation procedures.
#
#######################################################################

data_OWAMEF
_chemical_formula_moiety         'C26 H18 N4'
_chemical_name_systematic        4,5-Diphenyl-3,6-bis(pyridin-2-yl)pyridazine
_symmetry_cell_setting           triclinic
_symmetry_space_group_name_H-M   'P -1'
_symmetry_Int_Tables_number      2
_space_group_name_Hall           '-P 1'
loop_
_symmetry_equiv_pos_site_id
_symmetry_equiv_pos_as_xyz
1 x,y,z
2 -x,-y,-z
_cell_length_a                   10.4660(10)
_cell_length_b                   12.1740(10)
_cell_length_c                   15.882(2)
_cell_angle_alpha                93.6740(10)
_cell_angle_beta                 91.256(4)
_cell_angle_gamma                101.7500(10)
_cell_volume                     1975.83
_exptl_crystal_colour            colorless
_exptl_crystal_description       block
_cell_formula_units_Z            4
loop_
_atom_site_label
_atom_site_type_symbol
_atom_site_fract_x
_atom_site_fract_y
_atom_site_fract_z
N1 N -0.22079(16) 0.85647(15) 0.45245(11)
N2 N -0.14875(17) 0.91471(15) 0.39588(11)
N3 N -0.3587(2) 0.7565(2) 0.59444(14)
N4 N 0.15713(18) 1.00897(15) 0.31107(12)
C1 C -0.26693(19) 0.71362(19) 0.54787(13)
C2 C 0.0303(2) 0.95865(17) 0.30879(13)
C3 C 0.02024(19) 0.72111(17) 0.56349(13)
C4 C 0.17952(19) 0.83593(16) 0.43050(13)
C5 C 0.0042(2) 0.74850(18) 0.64851(13)
H1 H -0.0432 0.8050 0.6641
C6 C 0.2671(2) 0.88128(17) 0.49724(14)
H2 H 0.2380 0.9185 0.5453
C7 C -0.02545(19) 0.90335(17) 0.38427(13)
C8 C -0.4533(2) 0.6798(2) 0.63219(16)
H3 H -0.5184 0.7050 0.6646
C9 C 0.2023(2) 1.0551(2) 0.24060(16)
H4 H 0.2920 1.0908 0.2408
C10 C 0.0567(2) 0.69410(19) 0.71051(14)
H5 H 0.0458 0.7134 0.7684
C11 C 0.3960(2) 0.87201(19) 0.49344(15)
H6 H 0.4556 0.9037 0.5387
C12 C 0.0393(2) 0.84166(17) 0.43778(13)
C13 C -0.4518(3) 0.5676(3) 0.62212(17)
H7 H -0.5151 0.5142 0.6481
C14 C 0.1282(3) 1.0547(2) 0.16782(17)
H8 H 0.1661 1.0884 0.1195
C15 C 0.1254(2) 0.6113(2) 0.68768(15)
H9 H 0.1618 0.5739 0.7300
C16 C 0.4390(2) 0.81690(19) 0.42410(15)
H10 H 0.5278 0.8103 0.4220
C17 C -0.0355(2) 0.78386(17) 0.49906(13)
C18 C -0.3580(3) 0.5329(2) 0.57428(17)
H11 H -0.3587 0.4547 0.5672
C19 C -0.0019(3) 1.0044(2) 0.16695(16)
H12 H -0.0564 1.0035 0.1182
C20 C 0.1408(2) 0.58325(19) 0.60361(16)
H13 H 0.1877 0.5264 0.5882
C21 C 0.3529(2) 0.77158(19) 0.35811(14)
H14 H 0.3822 0.7336 0.3105
C22 C -0.1685(2) 0.78916(17) 0.49971(13)
C23 C -0.26571(19) 0.60423(17) 0.53716(13)
H15 H -0.2017 0.5781 0.5044
C24 C -0.0516(2) 0.95532(19) 0.23840(14)
H16 H -0.1411 0.9195 0.2394
C25 C 0.0883(2) 0.63754(18) 0.54130(14)
H17 H 0.0989 0.6175 0.4835
C26 C 0.2236(2) 0.78160(18) 0.36130(14)
H18 H 0.1646 0.7508 0.3155
N5 N 0.63418(18) 0.85550(17) -0.03426(12)
N6 N 0.68600(18) 0.81147(17) 0.02973(12)
N7 N 0.3817(2) 0.8261(2) -0.18644(14)
N8 N 0.62189(18) 0.70318(15) 0.22233(11)
C27 C 0.4638(2) 0.88737(19) -0.12326(13)
C28 C 0.6813(2) 0.70424(18) 0.14861(14)
C29 C 0.2756(2) 0.73069(19) -0.02170(13)
C30 C 0.3980(2) 0.60923(18) 0.10639(13)
C31 C 0.2083(2) 0.8161(2) -0.00312(15)
H19 H 0.2541 0.8882 0.0187
C32 C 0.2885(2) 0.62243(19) 0.15090(13)
H20 H 0.2583 0.6908 0.1501
C33 C 0.6096(2) 0.73768(19) 0.07524(14)
C34 C 0.3530(3) 0.8829(3) -0.25463(16)
H21 H 0.2971 0.8435 -0.2994
C35 C 0.6875(2) 0.67974(18) 0.28966(15)
H22 H 0.6468 0.6788 0.3426
C36 C 0.0737(2) 0.7954(2) -0.01663(16)
H23 H 0.0273 0.8533 -0.0032
C37 C 0.2232(2) 0.5357(2) 0.19651(15)
H24 H 0.1497 0.5460 0.2278
C38 C 0.4749(2) 0.70099(18) 0.05881(13)
C39 C 0.4046(3) 0.9961(2) -0.25845(17)
H25 H 0.3842 1.0357 -0.3049
C40 C 0.8115(3) 0.65682(19) 0.28664(16)
H26 H 0.8548 0.6410 0.3363
C41 C 0.0069(2) 0.6911(3) -0.04956(15)
H27 H -0.0850 0.6779 -0.0595
C42 C 0.2640(2) 0.4351(2) 0.19676(15)
H28 H 0.2185 0.3761 0.2278
C43 C 0.4197(2) 0.75301(18) -0.00449(13)
C44 C 0.4855(3) 1.0493(2) -0.19365(16)
H29 H 0.5221 1.1270 -0.1963
C45 C 0.8708(2) 0.6574(2) 0.21025(17)
H30 H 0.9554 0.6410 0.2060
C46 C 0.0735(2) 0.6065(2) -0.06790(15)
H31 H 0.0276 0.5349 -0.0905
C47 C 0.3717(2) 0.4201(2) 0.15163(15)
H32 H 0.3996 0.3506 0.1511
C48 C 0.5052(2) 0.82996(18) -0.04995(14)
C49 C 0.5166(2) 0.99782(17) -0.12625(13)
H33 H 0.5737 1.0377 -0.0822
C50 C 0.8054(2) 0.6823(2) 0.13963(16)
H34 H 0.8445 0.6842 0.0862
C51 C 0.2075(2) 0.6258(2) -0.05338(14)
H35 H 0.2530 0.5669 -0.0652
C52 C 0.4385(2) 0.50697(19) 0.10718(14)
H36 H 0.5130 0.4967 0.0768
loop_
_geom_bond_atom_site_label_1
_geom_bond_atom_site_label_2
_geom_bond_site_symmetry_1
_geom_bond_site_symmetry_2
N1 N2 1_555 1_555
N2 C7 1_555 1_555
N3 C1 1_555 1_555
N4 C2 1_555 1_555
C1 C22 1_555 1_555
C2 C7 1_555 1_555
C3 C5 1_555 1_555
C4 C6 1_555 1_555
C5 H1 1_555 1_555
C6 H2 1_555 1_555
C7 C12 1_555 1_555
C8 N3 1_555 1_555
H3 C8 1_555 1_555
C9 N4 1_555 1_555
H4 C9 1_555 1_555
C10 C5 1_555 1_555
H5 C10 1_555 1_555
C11 C6 1_555 1_555
H6 C11 1_555 1_555
C12 C4 1_555 1_555
C13 C8 1_555 1_555
H7 C13 1_555 1_555
C14 C9 1_555 1_555
H8 C14 1_555 1_555
C15 C10 1_555 1_555
H9 C15 1_555 1_555
C16 C11 1_555 1_555
H10 C16 1_555 1_555
C17 C3 1_555 1_555
C18 C13 1_555 1_555
H11 C18 1_555 1_555
C19 C14 1_555 1_555
H12 C19 1_555 1_555
C20 C15 1_555 1_555
H13 C20 1_555 1_555
C21 C16 1_555 1_555
H14 C21 1_555 1_555
C22 N1 1_555 1_555
C23 C1 1_555 1_555
H15 C23 1_555 1_555
C24 C2 1_555 1_555
H16 C24 1_555 1_555
C25 C3 1_555 1_555
H17 C25 1_555 1_555
C26 C4 1_555 1_555
H18 C26 1_555 1_555
N5 N6 1_555 1_555
N6 C33 1_555 1_555
N7 C27 1_555 1_555
N8 C28 1_555 1_555
C27 C48 1_555 1_555
C28 C33 1_555 1_555
C29 C31 1_555 1_555
C30 C32 1_555 1_555
C31 H19 1_555 1_555
C32 H20 1_555 1_555
C33 C38 1_555 1_555
C34 N7 1_555 1_555
H21 C34 1_555 1_555
C35 N8 1_555 1_555
H22 C35 1_555 1_555
C36 C31 1_555 1_555
H23 C36 1_555 1_555
C37 C32 1_555 1_555
H24 C37 1_555 1_555
C38 C30 1_555 1_555
C39 C34 1_555 1_555
H25 C39 1_555 1_555
C40 C35 1_555 1_555
H26 C40 1_555 1_555
C41 C36 1_555 1_555
H27 C41 1_555 1_555
C42 C37 1_555 1_555
H28 C42 1_555 1_555
C43 C29 1_555 1_555
C44 C39 1_555 1_555
H29 C44 1_555 1_555
C45 C40 1_555 1_555
H30 C45 1_555 1_555
C46 C41 1_555 1_555
H31 C46 1_555 1_555
C47 C42 1_555 1_555
H32 C47 1_555 1_555
C48 N5 1_555 1_555
C49 C27 1_555 1_555
H33 C49 1_555 1_555
C50 C28 1_555 1_555
H34 C50 1_555 1_555
C51 C29 1_555 1_555
H35 C51 1_555 1_555
C52 C30 1_555 1_555
H36 C52 1_555 1_555
C12 C17 1_555 1_555
C17 C22 1_555 1_555
C18 C23 1_555 1_555
C19 C24 1_555 1_555
C20 C25 1_555 1_555
C21 C26 1_555 1_555
C38 C43 1_555 1_555
C43 C48 1_555 1_555
C44 C49 1_555 1_555
C45 C50 1_555 1_555
C46 C51 1_555 1_555
C47 C52 1_555 1_555

#END
