
#######################################################################
#
#                 Cambridge Crystallographic Data Centre
#                                CCDC 
#
#######################################################################
#
# If this CIF has been generated from an entry in the Cambridge 
# Structural Database, then it will include bibliographic, chemical, 
# crystal, experimental, refinement or atomic coordinate data resulting 
# from the CCDC's data processing and validation procedures.
#
#######################################################################

data_OWAZAP
_chemical_formula_moiety         'C20 H36 Br2 S4 Si4'
_chemical_name_systematic        
(disulfanediylbis(4-bromothiene-3,2,5-triyl))tetrakis(trimethylsilane)
_symmetry_cell_setting           orthorhombic
_symmetry_space_group_name_H-M   'F d d 2'
_symmetry_Int_Tables_number      43
_space_group_name_Hall           'F 2 -2d'
loop_
_symmetry_equiv_pos_site_id
_symmetry_equiv_pos_as_xyz
1 x,y,z
2 -x,-y,z
3 1/4+x,1/4-y,1/4+z
4 1/4-x,1/4+y,1/4+z
5 x,1/2+y,1/2+z
6 -x,1/2-y,1/2+z
7 1/4+x,3/4-y,3/4+z
8 1/4-x,3/4+y,3/4+z
9 1/2+x,y,1/2+z
10 1/2-x,-y,1/2+z
11 3/4+x,1/4-y,3/4+z
12 3/4-x,1/4+y,3/4+z
13 1/2+x,1/2+y,z
14 1/2-x,1/2-y,z
15 3/4+x,3/4-y,1/4+z
16 3/4-x,3/4+y,1/4+z
_cell_length_a                   19.680(5)
_cell_length_b                   46.734(11)
_cell_length_c                   6.8945(17)
_cell_angle_alpha                90
_cell_angle_beta                 90
_cell_angle_gamma                90
_cell_volume                     6341.04
_exptl_crystal_colour            colorless
_exptl_crystal_description       block
_cell_formula_units_Z            8
loop_
_atom_site_label
_atom_site_type_symbol
_atom_site_fract_x
_atom_site_fract_y
_atom_site_fract_z
Br1 Br -0.14765(2) 0.191658(11) 0.76603(7)
S1 S -0.27532(4) 0.17651(2) 1.26724(15)
S2 S -0.28899(5) 0.23531(2) 0.80415(15)
Si1 Si -0.14279(5) 0.14284(3) 1.18071(19)
Si2 Si -0.38676(4) 0.22327(2) 1.22669(17)
C1 C -0.1235(3) 0.11845(12) 0.9772(10)
H1 H -0.0904 0.1046 1.0178
H2 H -0.1058 0.1293 0.8701
H3 H -0.1643 0.1088 0.9378
C2 C -0.06561(19) 0.16180(10) 1.2607(10)
H4 H -0.0315 0.1481 1.2966
H5 H -0.0762 0.1736 1.3704
H6 H -0.0489 0.1735 1.1568
C3 C -0.1774(2) 0.12232(11) 1.3872(8)
H7 H -0.1453 0.1079 1.4254
H8 H -0.2192 0.1134 1.3494
H9 H -0.1856 0.1350 1.4941
C4 C -0.20792(16) 0.17040(8) 1.1130(6)
C5 C -0.21181(15) 0.18976(7) 0.9665(6)
C6 C -0.26754(16) 0.20951(7) 0.9793(5)
C7 C -0.30769(15) 0.20456(7) 1.1377(6)
C8 C -0.45158(18) 0.22344(13) 1.0312(10)
H10 H -0.4346 0.2340 0.9219
H11 H -0.4924 0.2323 1.0779
H12 H -0.4612 0.2041 0.9925
C9 C -0.4198(2) 0.20281(10) 1.4375(8)
H13 H -0.4601 0.2119 1.4858
H14 H -0.3860 0.2023 1.5379
H15 H -0.4303 0.1836 1.3979
C10 C -0.3643(2) 0.26002(10) 1.3038(8)
H16 H -0.3475 0.2706 1.1945
H17 H -0.3300 0.2592 1.4025
H18 H -0.4040 0.2694 1.3545
Br1M Br -0.35235(2) 0.308342(11) 0.76603(7)
S1M S -0.22468(4) 0.32349(2) 1.26724(15)
S2M S -0.21101(5) 0.26469(2) 0.80415(15)
Si1M Si -0.35721(5) 0.35716(3) 1.18071(19)
Si2M Si -0.11324(4) 0.27673(2) 1.22669(17)
C1M C -0.3765(3) 0.38155(12) 0.9772(10)
H1M H -0.4096 0.3954 1.0178
H2M H -0.3942 0.3707 0.8701
H3M H -0.3357 0.3912 0.9378
C2M C -0.43439(19) 0.33820(10) 1.2607(10)
H4M H -0.4685 0.3519 1.2966
H5M H -0.4238 0.3264 1.3704
H6M H -0.4511 0.3265 1.1568
C3M C -0.3226(2) 0.37768(11) 1.3872(8)
H7M H -0.3547 0.3921 1.4254
H8M H -0.2808 0.3866 1.3494
H9M H -0.3144 0.3650 1.4941
C4M C -0.29208(16) 0.32960(8) 1.1130(6)
C5M C -0.28819(15) 0.31024(7) 0.9665(6)
C6M C -0.23246(16) 0.29049(7) 0.9793(5)
C7M C -0.19231(15) 0.29544(7) 1.1377(6)
C8M C -0.04842(18) 0.27656(13) 1.0312(10)
H10M H -0.0654 0.2660 0.9219
H11M H -0.0076 0.2677 1.0779
H12M H -0.0388 0.2959 0.9925
C9M C -0.0802(2) 0.29719(10) 1.4375(8)
H13M H -0.0399 0.2881 1.4858
H14M H -0.1140 0.2977 1.5379
H15M H -0.0697 0.3164 1.3979
C10M C -0.1357(2) 0.23998(10) 1.3038(8)
H16M H -0.1525 0.2294 1.1945
H17M H -0.1700 0.2408 1.4025
H18M H -0.0960 0.2306 1.3545
loop_
_geom_bond_atom_site_label_1
_geom_bond_atom_site_label_2
_geom_bond_site_symmetry_1
_geom_bond_site_symmetry_2
Br1 C5 1_555 1_555
S1 C4 1_555 1_555
S2 C6 1_555 1_555
Si1 C1 1_555 1_555
Si2 C7 1_555 1_555
C1 H1 1_555 1_555
H2 C1 1_555 1_555
H3 C1 1_555 1_555
C2 Si1 1_555 1_555
H4 C2 1_555 1_555
H5 C2 1_555 1_555
H6 C2 1_555 1_555
C3 Si1 1_555 1_555
H7 C3 1_555 1_555
H8 C3 1_555 1_555
H9 C3 1_555 1_555
C4 Si1 1_555 1_555
C5 C4 1_555 1_555
C6 C5 1_555 1_555
C7 S1 1_555 1_555
C8 Si2 1_555 1_555
H10 C8 1_555 1_555
H11 C8 1_555 1_555
H12 C8 1_555 1_555
C9 Si2 1_555 1_555
H13 C9 1_555 1_555
H14 C9 1_555 1_555
H15 C9 1_555 1_555
C10 Si2 1_555 1_555
H16 C10 1_555 1_555
H17 C10 1_555 1_555
H18 C10 1_555 1_555
Br1M C5M 1_555 1_555
S1M C4M 1_555 1_555
S2M S2 1_555 1_555
Si1M C1M 1_555 1_555
Si2M C7M 1_555 1_555
C1M H1M 1_555 1_555
H2M C1M 1_555 1_555
H3M C1M 1_555 1_555
C2M Si1M 1_555 1_555
H4M C2M 1_555 1_555
H5M C2M 1_555 1_555
H6M C2M 1_555 1_555
C3M Si1M 1_555 1_555
H7M C3M 1_555 1_555
H8M C3M 1_555 1_555
H9M C3M 1_555 1_555
C4M Si1M 1_555 1_555
C5M C4M 1_555 1_555
C6M S2M 1_555 1_555
C7M S1M 1_555 1_555
C8M Si2M 1_555 1_555
H10M C8M 1_555 1_555
H11M C8M 1_555 1_555
H12M C8M 1_555 1_555
C9M Si2M 1_555 1_555
H13M C9M 1_555 1_555
H14M C9M 1_555 1_555
H15M C9M 1_555 1_555
C10M Si2M 1_555 1_555
H16M C10M 1_555 1_555
H17M C10M 1_555 1_555
H18M C10M 1_555 1_555
C6 C7 1_555 1_555
C5M C6M 1_555 1_555
C6M C7M 1_555 1_555

#END
