
#######################################################################
#
#                 Cambridge Crystallographic Data Centre
#                                CCDC 
#
#######################################################################
#
# If this CIF has been generated from an entry in the Cambridge 
# Structural Database, then it will include bibliographic, chemical, 
# crystal, experimental, refinement or atomic coordinate data resulting 
# from the CCDC's data processing and validation procedures.
#
#######################################################################

data_OWEDEA
_chemical_formula_moiety         'C13 H10 N6 O1 S2'
_chemical_name_systematic        
6-(4-Methoxyphenyl)-3-(4-methyl-1,2,3-thiadiazol-5-yl)[1,2,4]triazolo[3,4-b][1,3,4]thiadiazole
_symmetry_cell_setting           monoclinic
_symmetry_space_group_name_H-M   'P 21/n'
_symmetry_Int_Tables_number      14
_space_group_name_Hall           '-P 2yn'
loop_
_symmetry_equiv_pos_site_id
_symmetry_equiv_pos_as_xyz
1 x,y,z
2 1/2-x,1/2+y,1/2-z
3 -x,-y,-z
4 1/2+x,1/2-y,1/2+z
_cell_length_a                   11.325(2)
_cell_length_b                   5.1849(10)
_cell_length_c                   23.851(5)
_cell_angle_alpha                90
_cell_angle_beta                 99.56(3)
_cell_angle_gamma                90
_cell_volume                     1381.06
_cell_formula_units_Z            4
loop_
_atom_site_label
_atom_site_type_symbol
_atom_site_fract_x
_atom_site_fract_y
_atom_site_fract_z
S1 S 0.60930(3) 0.85161(8) -0.033140(16)
S2 S 0.87073(3) 0.06186(7) 0.073129(14)
O1 O 0.50308(9) 0.2487(2) 0.26797(5)
N1 N 0.62989(12) 1.0726(3) -0.12255(6)
N2 N 0.56760(12) 1.0797(3) -0.08180(6)
N3 N 0.88667(11) 0.4231(2) -0.06900(5)
N4 N 0.93813(11) 0.2268(2) -0.03255(5)
N5 N 0.79116(10) 0.4085(2) 0.00319(5)
N6 N 0.71744(10) 0.4366(2) 0.04257(5)
C1 C 0.79315(16) 0.8558(4) -0.16055(8)
H1 H 0.7751 0.6960 -0.1805
H2 H 0.8756 0.8561 -0.1426
H3 H 0.7792 0.9966 -0.1870
C2 C 0.71570(13) 0.8844(3) -0.11696(7)
C3 C 0.71885(12) 0.7392(3) -0.06841(6)
C4 C 0.79854(12) 0.5293(3) -0.04689(6)
C5 C 0.87772(12) 0.2249(3) 0.01019(6)
C6 C 0.74930(12) 0.2653(3) 0.08239(6)
C7 C 0.68772(12) 0.2505(3) 0.13146(6)
C8 C 0.71217(13) 0.0591(3) 0.17254(6)
H4 H 0.7696 -0.0653 0.1690
C9 C 0.65226(13) 0.0504(3) 0.21884(6)
H5 H 0.6695 -0.0788 0.2460
C10 C 0.56642(12) 0.2358(3) 0.22429(6)
C11 C 0.54034(13) 0.4289(3) 0.18295(6)
H6 H 0.4823 0.5522 0.1863
C12 C 0.60043(12) 0.4361(3) 0.13746(6)
H7 H 0.5831 0.5654 0.1103
C13 C 0.52419(15) 0.0516(3) 0.31016(7)
H8 H 0.5054 -0.1134 0.2927
H9 H 0.4745 0.0810 0.3385
H10 H 0.6069 0.0546 0.3277
loop_
_geom_bond_atom_site_label_1
_geom_bond_atom_site_label_2
_geom_bond_site_symmetry_1
_geom_bond_site_symmetry_2
S1 N2 1_555 1_555
S2 C5 1_555 1_555
O1 C10 1_555 1_555
N1 N2 1_555 1_555
N3 N4 1_555 1_555
N4 C5 1_555 1_555
N5 N6 1_555 1_555
N6 C6 1_555 1_555
C1 H1 1_555 1_555
H2 C1 1_555 1_555
H3 C1 1_555 1_555
C2 N1 1_555 1_555
C3 S1 1_555 1_555
C4 N3 1_555 1_555
C5 N5 1_555 1_555
C6 S2 1_555 1_555
C7 C6 1_555 1_555
C8 C7 1_555 1_555
H4 C8 1_555 1_555
C9 C8 1_555 1_555
H5 C9 1_555 1_555
C10 C9 1_555 1_555
C11 C10 1_555 1_555
H6 C11 1_555 1_555
C12 C7 1_555 1_555
H7 C12 1_555 1_555
C13 O1 1_555 1_555
H8 C13 1_555 1_555
H9 C13 1_555 1_555
H10 C13 1_555 1_555
N5 C4 1_555 1_555
C1 C2 1_555 1_555
C2 C3 1_555 1_555
C3 C4 1_555 1_555
C11 C12 1_555 1_555

#END
