
#######################################################################
#
#                 Cambridge Crystallographic Data Centre
#                                CCDC 
#
#######################################################################
#
# If this CIF has been generated from an entry in the Cambridge 
# Structural Database, then it will include bibliographic, chemical, 
# crystal, experimental, refinement or atomic coordinate data resulting 
# from the CCDC's data processing and validation procedures.
#
#######################################################################

data_OWEHEF
_chemical_formula_moiety         'C30 H55 B10 N3'
_chemical_name_systematic        
(8-(1-((2,6-diisopropylphenyl)iminium-1-yl)-2,2-dimethylpropyl)-7,8-dicarba-nido-undecaborate(9)-7-yl)(4,5-dimethyl-1,3-diisopropylimidazol-2-ylidene)boron
_symmetry_cell_setting           orthorhombic
_symmetry_space_group_name_H-M   'P 21 21 21'
_symmetry_Int_Tables_number      19
_space_group_name_Hall           'P 2ac 2ab'
loop_
_symmetry_equiv_pos_site_id
_symmetry_equiv_pos_as_xyz
1 x,y,z
2 1/2-x,-y,1/2+z
3 -x,1/2+y,1/2-z
4 1/2+x,1/2-y,-z
_cell_length_a                   10.8512(3)
_cell_length_b                   17.8546(5)
_cell_length_c                   17.9252(5)
_cell_angle_alpha                90
_cell_angle_beta                 90
_cell_angle_gamma                90
_cell_volume                     3472.9
_exptl_crystal_colour            colorless
_exptl_crystal_description       block
_cell_formula_units_Z            4
loop_
_atom_site_label
_atom_site_type_symbol
_atom_site_fract_x
_atom_site_fract_y
_atom_site_fract_z
N1 N 0.9196(3) 0.08785(15) 0.37781(17)
N2 N 0.9338(3) 0.13419(16) 0.18678(18)
N3 N 0.7455(3) 0.16609(17) 0.21425(18)
B1 B 0.7899(5) -0.0629(3) 0.2728(3)
H1 H 0.8601 -0.0524 0.2297
B2 B 0.8264(5) -0.1414(3) 0.3237(3)
H2 H 0.9056 -0.1739 0.3033
B3 B 0.8428(6) -0.1028(2) 0.4105(3)
H3 H 0.9369 -0.1119 0.4314
B4 B 0.6373(5) -0.0314(3) 0.2956(3)
H4 H 0.5754 -0.0077 0.2532
B5 B 0.6750(6) -0.1289(3) 0.2969(3)
H5 H 0.6322 -0.1678 0.2570
B6 B 0.7083(6) -0.1536(3) 0.3895(3)
H6 H 0.6873 -0.2091 0.4130
B7 B 0.6961(6) -0.0713(3) 0.4457(3)
H7 H 0.6747 -0.0738 0.5056
B8 B 0.6363(5) 0.0023(3) 0.3890(3)
H8 H 0.5723 0.0456 0.4090
B9 B 0.5882(6) -0.0876(3) 0.3730(3)
H9 H 0.4910 -0.1015 0.3838
B10 B 0.8432(5) 0.0767(2) 0.3115(3)
C1 C 0.7921(4) -0.0092(2) 0.4096(2)
C2 C 0.7607(4) 0.0122(2) 0.3300(2)
C3 C 0.8798(4) 0.0427(2) 0.4368(2)
C4 C 0.9057(5) 0.0584(2) 0.5189(2)
C5 C 1.0136(5) 0.1088(3) 0.5392(3)
H10 H 1.0893 0.0852 0.5244
H11 H 1.0144 0.1170 0.5921
H12 H 1.0054 0.1559 0.5139
C6 C 0.9216(6) -0.0134(2) 0.5659(2)
H13 H 0.9958 -0.0386 0.5512
H14 H 0.8523 -0.0459 0.5580
H15 H 0.9265 -0.0004 0.6178
C7 C 0.7876(5) 0.0979(3) 0.5459(3)
H16 H 0.7173 0.0674 0.5343
H17 H 0.7799 0.1455 0.5215
H18 H 0.7920 0.1054 0.5989
C8 C 1.0375(4) 0.1273(2) 0.3777(2)
C9 C 1.1454(5) 0.0849(2) 0.3777(2)
C10 C 1.2574(5) 0.1234(3) 0.3741(3)
H19 H 1.3311 0.0968 0.3755
C11 C 1.2595(5) 0.2003(3) 0.3686(3)
H20 H 1.3347 0.2251 0.3652
C12 C 1.1537(6) 0.2402(3) 0.3680(3)
H21 H 1.1573 0.2921 0.3637
C13 C 1.0390(4) 0.2053(2) 0.3737(2)
C14 C 0.9265(4) 0.2552(2) 0.3784(2)
H22 H 0.8534 0.2230 0.3791
C15 C 0.9257(5) 0.3025(3) 0.4499(3)
H23 H 0.9313 0.2701 0.4925
H24 H 0.8505 0.3307 0.4525
H25 H 0.9947 0.3361 0.4495
C16 C 0.9156(5) 0.3077(2) 0.3112(3)
H26 H 0.9145 0.2787 0.2661
H27 H 0.9848 0.3412 0.3104
H28 H 0.8408 0.3361 0.3150
C17 C 1.1486(5) -0.0008(3) 0.3851(3)
H29 H 1.0643 -0.0179 0.3949
C18 C 1.1930(7) -0.0392(3) 0.3153(3)
H30 H 1.1417 -0.0248 0.2740
H31 H 1.1889 -0.0925 0.3219
H32 H 1.2766 -0.0247 0.3054
C19 C 1.2290(7) -0.0280(3) 0.4485(3)
H33 H 1.2274 -0.0817 0.4502
H34 H 1.1987 -0.0082 0.4948
H35 H 1.3121 -0.0112 0.4407
C20 C 0.8429(4) 0.1250(2) 0.2387(2)
C21 C 0.8930(5) 0.1818(2) 0.1307(2)
C22 C 0.7774(5) 0.2013(2) 0.1476(2)
C23 C 1.0476(4) 0.0894(2) 0.1864(2)
H36 H 1.0501 0.0631 0.2343
C24 C 1.0418(4) 0.0290(2) 0.1264(2)
H37 H 0.9674 0.0005 0.1323
H38 H 1.1117 -0.0036 0.1312
H39 H 1.0426 0.0521 0.0780
C25 C 1.1635(4) 0.1356(3) 0.1825(2)
H40 H 1.1636 0.1715 0.2224
H41 H 1.1668 0.1613 0.1355
H42 H 1.2339 0.1034 0.1872
C26 C 0.9702(4) 0.2083(2) 0.0664(2)
H43 H 0.9220 0.2406 0.0351
H44 H 0.9978 0.1659 0.0380
H45 H 1.0403 0.2353 0.0850
C27 C 0.6931(5) 0.2509(3) 0.1033(3)
H46 H 0.7356 0.2687 0.0598
H47 H 0.6682 0.2927 0.1334
H48 H 0.6217 0.2229 0.0883
C28 C 0.6269(4) 0.1721(2) 0.2558(3)
H49 H 0.6296 0.1343 0.2954
C29 C 0.6135(5) 0.2484(3) 0.2942(3)
H50 H 0.5373 0.2498 0.3214
H51 H 0.6137 0.2873 0.2573
H52 H 0.6810 0.2558 0.3280
C30 C 0.5159(4) 0.1543(3) 0.2083(3)
H53 H 0.5258 0.1056 0.1863
H54 H 0.5082 0.1911 0.1696
H55 H 0.4432 0.1548 0.2388
loop_
_geom_bond_atom_site_label_1
_geom_bond_atom_site_label_2
_geom_bond_site_symmetry_1
_geom_bond_site_symmetry_2
N1 B10 1_555 1_555
N2 C20 1_555 1_555
N3 C20 1_555 1_555
B1 H1 1_555 1_555
B2 B1 1_555 1_555
H2 B2 1_555 1_555
B3 B2 1_555 1_555
H3 B3 1_555 1_555
B4 B1 1_555 1_555
H4 B4 1_555 1_555
B5 B1 1_555 1_555
H5 B5 1_555 1_555
B6 B2 1_555 1_555
H6 B6 1_555 1_555
B7 B3 1_555 1_555
H7 B7 1_555 1_555
B8 B4 1_555 1_555
H8 B8 1_555 1_555
B9 B4 1_555 1_555
H9 B9 1_555 1_555
B10 C2 1_555 1_555
C1 B3 1_555 1_555
C2 B1 1_555 1_555
C3 N1 1_555 1_555
C4 C3 1_555 1_555
C5 C4 1_555 1_555
H10 C5 1_555 1_555
H11 C5 1_555 1_555
H12 C5 1_555 1_555
C6 C4 1_555 1_555
H13 C6 1_555 1_555
H14 C6 1_555 1_555
H15 C6 1_555 1_555
C7 C4 1_555 1_555
H16 C7 1_555 1_555
H17 C7 1_555 1_555
H18 C7 1_555 1_555
C8 N1 1_555 1_555
C9 C8 1_555 1_555
C10 C9 1_555 1_555
H19 C10 1_555 1_555
C11 C10 1_555 1_555
H20 C11 1_555 1_555
C12 C11 1_555 1_555
H21 C12 1_555 1_555
C13 C8 1_555 1_555
C14 C13 1_555 1_555
H22 C14 1_555 1_555
C15 C14 1_555 1_555
H23 C15 1_555 1_555
H24 C15 1_555 1_555
H25 C15 1_555 1_555
C16 C14 1_555 1_555
H26 C16 1_555 1_555
H27 C16 1_555 1_555
H28 C16 1_555 1_555
C17 C9 1_555 1_555
H29 C17 1_555 1_555
C18 C17 1_555 1_555
H30 C18 1_555 1_555
H31 C18 1_555 1_555
H32 C18 1_555 1_555
C19 C17 1_555 1_555
H33 C19 1_555 1_555
H34 C19 1_555 1_555
H35 C19 1_555 1_555
C20 B10 1_555 1_555
C21 N2 1_555 1_555
C22 N3 1_555 1_555
C23 N2 1_555 1_555
H36 C23 1_555 1_555
C24 C23 1_555 1_555
H37 C24 1_555 1_555
H38 C24 1_555 1_555
H39 C24 1_555 1_555
C25 C23 1_555 1_555
H40 C25 1_555 1_555
H41 C25 1_555 1_555
H42 C25 1_555 1_555
C26 C21 1_555 1_555
H43 C26 1_555 1_555
H44 C26 1_555 1_555
H45 C26 1_555 1_555
C27 C22 1_555 1_555
H46 C27 1_555 1_555
H47 C27 1_555 1_555
H48 C27 1_555 1_555
C28 N3 1_555 1_555
H49 C28 1_555 1_555
C29 C28 1_555 1_555
H50 C29 1_555 1_555
H51 C29 1_555 1_555
H52 C29 1_555 1_555
C30 C28 1_555 1_555
H53 C30 1_555 1_555
H54 C30 1_555 1_555
H55 C30 1_555 1_555
B2 B5 1_555 1_555
B3 B6 1_555 1_555
B4 B5 1_555 1_555
B4 C2 1_555 1_555
B5 B6 1_555 1_555
B5 B9 1_555 1_555
B6 B7 1_555 1_555
B6 B9 1_555 1_555
B7 B8 1_555 1_555
B7 B9 1_555 1_555
B7 C1 1_555 1_555
B8 B9 1_555 1_555
B8 C1 1_555 1_555
B8 C2 1_555 1_555
C1 C2 1_555 1_555
C1 C3 1_555 1_555
C12 C13 1_555 1_555
C21 C22 1_555 1_555

#END
