
#######################################################################
#
#                 Cambridge Crystallographic Data Centre
#                                CCDC 
#
#######################################################################
#
# If this CIF has been generated from an entry in the Cambridge 
# Structural Database, then it will include bibliographic, chemical, 
# crystal, experimental, refinement or atomic coordinate data resulting 
# from the CCDC's data processing and validation procedures.
#
#######################################################################

data_OWIFEG
_chemical_formula_moiety         'C14 H7 N2 O8 1-,C6 H13 N4 1+'
_chemical_name_systematic        
'3,5,7-Triaza-1-azoniatricyclo[3.3.1.1^3,7^]decane (6-(carboxymethyl)-1,3,5,7-tetraoxo-3,5,6,7-tetrahydropyrrolo[3,4-f]isoindol-2(1H)-yl)acetate'
_symmetry_cell_setting           orthorhombic
_symmetry_space_group_name_H-M   'P b c a'
_symmetry_Int_Tables_number      61
_space_group_name_Hall           '-P 2ac 2ab'
loop_
_symmetry_equiv_pos_site_id
_symmetry_equiv_pos_as_xyz
1 x,y,z
2 1/2-x,-y,1/2+z
3 -x,1/2+y,1/2-z
4 1/2+x,1/2-y,-z
5 -x,-y,-z
6 1/2+x,y,1/2-z
7 x,1/2-y,1/2+z
8 1/2-x,1/2+y,z
_cell_length_a                   18.492(4)
_cell_length_b                   10.702(4)
_cell_length_c                   20.247(3)
_cell_angle_alpha                90
_cell_angle_beta                 90
_cell_angle_gamma                90
_cell_volume                     4006.91
_exptl_crystal_colour            colorless
_exptl_crystal_description       block
_cell_formula_units_Z            8
loop_
_atom_site_label
_atom_site_type_symbol
_atom_site_fract_x
_atom_site_fract_y
_atom_site_fract_z
H1 H 0.128(2) 0.458(4) 0.314(2)
N3 N 0.13139(19) 0.5326(3) 0.29705(16)
N4 N 0.12797(17) 0.7545(3) 0.31812(15)
N5 N 0.19213(17) 0.6722(3) 0.22189(17)
N6 N 0.06081(17) 0.6654(3) 0.22608(19)
C15 C 0.1900(2) 0.7684(4) 0.2736(2)
H9 H 0.2342 0.7641 0.2993
H10 H 0.1879 0.8501 0.2530
C16 C 0.0638(2) 0.5439(4) 0.2565(2)
H11 H 0.0632 0.4797 0.2227
H12 H 0.0218 0.5321 0.2846
C17 C 0.1311(2) 0.6334(3) 0.34906(18)
H13 H 0.0897 0.6226 0.3779
H14 H 0.1746 0.6272 0.3757
C18 C 0.0622(2) 0.7612(4) 0.2782(2)
H15 H 0.0589 0.8433 0.2581
H16 H 0.0204 0.7505 0.3066
C19 C 0.1961(2) 0.5508(3) 0.2526(2)
H17 H 0.2402 0.5443 0.2783
H18 H 0.1969 0.4863 0.2189
C20 C 0.1244(3) 0.6804(4) 0.1851(2)
H19 H 0.1221 0.7610 0.1633
H20 H 0.1241 0.6165 0.1511
O1 O 0.12710(14) 1.2585(2) 0.44003(12)
O2 O 0.13004(17) 0.2420(2) 0.71078(12)
H2 H 0.1209 0.2519 0.7501
O3 O 0.26609(15) 0.5161(2) 0.57010(14)
O4 O 0.13155(17) 0.4513(2) 0.71025(13)
O5 O 0.12768(16) 1.2946(2) 0.33128(12)
O6 O -0.01932(14) 0.9444(2) 0.42738(14)
C1 C 0.1674(2) 0.9503(3) 0.42964(18)
O7 O 0.22459(14) 0.9890(2) 0.40866(14)
N1 N 0.10017(16) 1.0020(3) 0.41518(15)
N2 N 0.14552(16) 0.4593(3) 0.57652(15)
C2 C 0.0938(2) 0.6376(3) 0.53395(17)
C3 C 0.16880(19) 0.6495(3) 0.52773(17)
O8 O 0.02177(15) 0.4719(2) 0.58310(14)
C4 C 0.0787(2) 0.5162(3) 0.56683(18)
C5 C 0.15273(18) 0.8384(3) 0.47156(17)
C6 C 0.0465(2) 0.7261(3) 0.51023(18)
H3 H -0.0033 0.7191 0.5154
C7 C 0.07825(18) 0.8264(3) 0.47807(17)
C8 C 0.1183(2) 1.2256(3) 0.38308(18)
C9 C 0.2030(2) 0.5377(3) 0.55895(18)
C10 C 0.1366(2) 0.3518(3) 0.68204(17)
C11 C 0.0436(2) 0.9289(3) 0.43904(18)
C12 C 0.1530(2) 0.3398(3) 0.61014(18)
H4 H 0.2019 0.3091 0.6046
H5 H 0.1202 0.2796 0.5904
C13 C 0.2010(2) 0.7503(3) 0.49651(16)
H6 H 0.2508 0.7586 0.4925
C14 C 0.0899(2) 1.0969(3) 0.36541(18)
H7 H 0.0386 1.1037 0.3562
H8 H 0.1135 1.0696 0.3251
loop_
_geom_bond_atom_site_label_1
_geom_bond_atom_site_label_2
_geom_bond_site_symmetry_1
_geom_bond_site_symmetry_2
H1 N3 1_555 1_555
O1 C8 1_555 1_555
O2 H2 1_555 1_555
O3 C9 1_555 1_555
O4 C10 1_555 1_555
O5 C8 1_555 1_555
O6 C11 1_555 1_555
C1 O7 1_555 1_555
N1 C1 1_555 1_555
N2 C4 1_555 1_555
C2 C3 1_555 1_555
C3 C9 1_555 1_555
O8 C4 1_555 1_555
C4 C2 1_555 1_555
C5 C1 1_555 1_555
C6 C2 1_555 1_555
H3 C6 1_555 1_555
C7 C5 1_555 1_555
C8 C14 1_555 1_555
C9 N2 1_555 1_555
C10 O2 1_555 1_555
C11 N1 1_555 1_555
C12 N2 1_555 1_555
H4 C12 1_555 1_555
H5 C12 1_555 1_555
C13 C3 1_555 1_555
H6 C13 1_555 1_555
C14 N1 1_555 1_555
H7 C14 1_555 1_555
H8 C14 1_555 1_555
N3 C16 1_555 1_555
N4 C15 1_555 1_555
N5 C15 1_555 1_555
N6 C16 1_555 1_555
C15 H9 1_555 1_555
H10 C15 1_555 1_555
C16 H11 1_555 1_555
H12 C16 1_555 1_555
C17 N3 1_555 1_555
H13 C17 1_555 1_555
H14 C17 1_555 1_555
C18 N4 1_555 1_555
H15 C18 1_555 1_555
H16 C18 1_555 1_555
C19 N3 1_555 1_555
H17 C19 1_555 1_555
H18 C19 1_555 1_555
C20 N5 1_555 1_555
H19 C20 1_555 1_555
H20 C20 1_555 1_555
C5 C13 1_555 1_555
C6 C7 1_555 1_555
C7 C11 1_555 1_555
C10 C12 1_555 1_555
N4 C17 1_555 1_555
N5 C19 1_555 1_555
N6 C18 1_555 1_555
N6 C20 1_555 1_555

#END
