
#######################################################################
#
#                 Cambridge Crystallographic Data Centre
#                                CCDC 
#
#######################################################################
#
# If this CIF has been generated from an entry in the Cambridge 
# Structural Database, then it will include bibliographic, chemical, 
# crystal, experimental, refinement or atomic coordinate data resulting 
# from the CCDC's data processing and validation procedures.
#
#######################################################################

data_OWIFUW
_chemical_formula_moiety         'C15 H20 N3 O1 1+,C14 H7 N2 O8 1-,3.5(H2 O1)'
_chemical_name_systematic        
'1-Methyl-4-((2-oxo-1,2-dihydroquinolin-4-yl)methyl)piperazin-1-ium (6-(carboxymethyl)-1,3,5,7-tetraoxo-3,5,6,7-tetrahydropyrrolo[3,4-f]isoindol-2(1H)-yl)acetate hydrate'
_symmetry_cell_setting           monoclinic
_symmetry_space_group_name_H-M   'P 21/c'
_symmetry_Int_Tables_number      14
_space_group_name_Hall           '-P 2ybc'
loop_
_symmetry_equiv_pos_site_id
_symmetry_equiv_pos_as_xyz
1 x,y,z
2 -x,1/2+y,1/2-z
3 -x,-y,-z
4 x,1/2-y,1/2+z
_cell_length_a                   7.3874(15)
_cell_length_b                   14.408(3)
_cell_length_c                   28.289(6)
_cell_angle_alpha                90
_cell_angle_beta                 91.78(3)
_cell_angle_gamma                90
_cell_volume                     3009.56
_exptl_crystal_colour            yellow
_exptl_crystal_description       block
_cell_formula_units_Z            4
loop_
_atom_site_label
_atom_site_type_symbol
_atom_site_fract_x
_atom_site_fract_y
_atom_site_fract_z
C1 C 0.4521(5) 0.4152(3) 0.67657(14)
C2 C 0.5853(6) 0.4270(3) 0.63787(14)
H1 H 0.5982 0.4926 0.6309
H2 H 0.7026 0.4039 0.6487
C3 C 0.4409(5) 0.4199(3) 0.55653(14)
C4 C 0.4004(5) 0.3446(2) 0.52236(13)
C5 C 0.4588(5) 0.2609(2) 0.54247(12)
C6 C 0.5396(5) 0.2821(3) 0.58971(13)
C7 C 0.4432(5) 0.1761(2) 0.51907(13)
H3 H 0.4842 0.1205 0.5323
C8 C 0.3615(5) 0.1815(2) 0.47439(13)
C9 C 0.3031(5) 0.2647(2) 0.45416(12)
C10 C 0.3186(5) 0.3492(2) 0.47757(13)
H4 H 0.2774 0.4046 0.4642
C11 C 0.3222(5) 0.1068(2) 0.43895(13)
C12 C 0.2289(5) 0.2447(2) 0.40616(13)
C13 C 0.1858(5) 0.1025(3) 0.35683(13)
H5 H 0.0846 0.1356 0.3421
H6 H 0.1445 0.0406 0.3646
C14 C 0.3360(5) 0.0949(3) 0.32167(13)
N1 N 0.5290(4) 0.3783(2) 0.59492(11)
N2 N 0.2405(4) 0.14968(19) 0.40009(10)
O1 O 0.5116(4) 0.45242(19) 0.71618(9)
H7 H 0.4362 0.4452 0.7365
O2 O 0.3089(4) 0.3763(2) 0.67039(10)
O3 O 0.6046(3) 0.22908(19) 0.61904(9)
O4 O 0.4061(4) 0.50216(18) 0.55332(10)
O5 O 0.1691(4) 0.29910(19) 0.37661(9)
O6 O 0.3503(4) 0.02394(16) 0.44250(10)
O7 O 0.4882(4) 0.1240(2) 0.33210(10)
O8 O 0.2886(4) 0.05586(19) 0.28274(9)
C15 C -0.2168(5) 0.2827(3) 0.43859(13)
H8 H -0.2482 0.3359 0.4216
C16 C -0.2425(5) 0.1965(3) 0.41841(14)
H9 H -0.2890 0.1907 0.3876
C17 C -0.1969(5) 0.1173(3) 0.44537(14)
H10 H -0.2156 0.0588 0.4322
C18 C -0.1257(5) 0.1243(2) 0.49043(13)
H11 H -0.0968 0.0707 0.5073
C19 C -0.0956(4) 0.2120(2) 0.51170(12)
C20 C -0.1434(5) 0.2905(2) 0.48479(13)
C21 C -0.0418(5) 0.3928(2) 0.54816(13)
C22 C 0.0083(5) 0.3121(2) 0.57552(13)
H12 H 0.0591 0.3199 0.6058
C23 C -0.0168(5) 0.2249(2) 0.55833(13)
C24 C 0.0379(5) 0.1398(2) 0.58633(13)
H13 H -0.0689 0.1021 0.5911
H14 H 0.1210 0.1034 0.5680
C25 C -0.0086(5) 0.1722(3) 0.66946(14)
H15 H -0.0691 0.1136 0.6751
H16 H -0.0995 0.2171 0.6592
C26 C 0.0836(6) 0.2049(3) 0.71435(15)
H17 H 0.1368 0.2655 0.7092
H18 H -0.0050 0.2110 0.7388
C27 C 0.3558(5) 0.1197(3) 0.69156(13)
H19 H 0.4416 0.0721 0.7016
H20 H 0.4233 0.1757 0.6849
C28 C 0.2549(5) 0.0882(2) 0.64736(13)
H21 H 0.3396 0.0772 0.6225
H22 H 0.1918 0.0306 0.6535
C29 C 0.3284(7) 0.1734(3) 0.77302(15)
H23 H 0.2450 0.1847 0.7977
H24 H 0.3890 0.2302 0.7655
H25 H 0.4161 0.1281 0.7834
N3 N -0.1169(4) 0.3770(2) 0.50443(11)
H26 H -0.1647 0.4240 0.4903
N4 N 0.1236(4) 0.1602(2) 0.63225(11)
N5 N 0.2284(5) 0.1385(2) 0.73051(11)
H27 H 0.177(5) 0.085(3) 0.7380(15)
O9 O -0.0199(4) 0.47467(17) 0.56205(10)
O10 O 0.9602(4) 0.4830(2) 0.74080(10)
H28 H 1.0705 0.4741 0.7490
H29 H 0.9550 0.4979 0.7117
O11 O 0.7984(5) 0.3253(3) 0.78412(13)
H30 H 0.7669 0.3784 0.7737
H31 H 0.7347 0.3133 0.8079
O12 O 0.0360(6) 0.5398(3) 0.65205(13)
H32 H 0.0302 0.5132 0.6252
H33 H 0.0047 0.5961 0.6480
O13 O 0.262(2) 0.6347(12) 0.6848(6)
H34 H 0.3535 0.6498 0.6691
H35 H 0.2595 0.5764 0.6877
loop_
_geom_bond_atom_site_label_1
_geom_bond_atom_site_label_2
_geom_bond_site_symmetry_1
_geom_bond_site_symmetry_2
C1 C2 1_555 1_555
C2 H1 1_555 1_555
H2 C2 1_555 1_555
C3 C4 1_555 1_555
C4 C5 1_555 1_555
C5 C6 1_555 1_555
C6 N1 1_555 1_555
C7 C5 1_555 1_555
H3 C7 1_555 1_555
C8 C7 1_555 1_555
C9 C8 1_555 1_555
C10 C4 1_555 1_555
H4 C10 1_555 1_555
C11 C8 1_555 1_555
C12 C9 1_555 1_555
C13 H5 1_555 1_555
H6 C13 1_555 1_555
C14 C13 1_555 1_555
N1 C2 1_555 1_555
N2 C11 1_555 1_555
O1 C1 1_555 1_555
H7 O1 1_555 1_555
O2 C1 1_555 1_555
O3 C6 1_555 1_555
O4 C3 1_555 1_555
O5 C12 1_555 1_555
O6 C11 1_555 1_555
O7 C14 1_555 1_555
O8 C14 1_555 1_555
C15 H8 1_555 1_555
C16 C15 1_555 1_555
H9 C16 1_555 1_555
C17 C16 1_555 1_555
H10 C17 1_555 1_555
C18 C17 1_555 1_555
H11 C18 1_555 1_555
C19 C18 1_555 1_555
C20 C15 1_555 1_555
C21 C22 1_555 1_555
C22 H12 1_555 1_555
C23 C19 1_555 1_555
C24 C23 1_555 1_555
H13 C24 1_555 1_555
H14 C24 1_555 1_555
C25 H15 1_555 1_555
H16 C25 1_555 1_555
C26 C25 1_555 1_555
H17 C26 1_555 1_555
H18 C26 1_555 1_555
C27 H19 1_555 1_555
H20 C27 1_555 1_555
C28 C27 1_555 1_555
H21 C28 1_555 1_555
H22 C28 1_555 1_555
C29 H23 1_555 1_555
H24 C29 1_555 1_555
H25 C29 1_555 1_555
N3 C20 1_555 1_555
H26 N3 1_555 1_555
N4 C24 1_555 1_555
N5 C26 1_555 1_555
H27 N5 1_555 1_555
O9 C21 1_555 1_555
O10 H28 1_555 1_555
H29 O10 1_555 1_555
O11 H30 1_555 1_555
H31 O11 1_555 1_555
O12 H32 1_555 1_555
H33 O12 1_555 1_555
O13 H34 1_555 1_555
H35 O13 1_555 1_555
C3 N1 1_555 1_555
C9 C10 1_555 1_555
C12 N2 1_555 1_555
C13 N2 1_555 1_555
C19 C20 1_555 1_555
C21 N3 1_555 1_555
C22 C23 1_555 1_555
C25 N4 1_555 1_555
C27 N5 1_555 1_555
C28 N4 1_555 1_555
C29 N5 1_555 1_555

#END
