
#######################################################################
#
#                 Cambridge Crystallographic Data Centre
#                                CCDC 
#
#######################################################################
#
# If this CIF has been generated from an entry in the Cambridge 
# Structural Database, then it will include bibliographic, chemical, 
# crystal, experimental, refinement or atomic coordinate data resulting 
# from the CCDC's data processing and validation procedures.
#
#######################################################################

data_OWIGEI
_chemical_formula_moiety         'C26 H24 N2 O3'
_chemical_name_systematic        
N-(2-(2-oxo-3-phenyl-2,3-dihydro-1-benzofuran-3-yl)cyclohexyl)pyridine-2-carboxamide
_symmetry_cell_setting           monoclinic
_symmetry_space_group_name_H-M   'P 21'
_symmetry_Int_Tables_number      4
_space_group_name_Hall           'P 2yb'
loop_
_symmetry_equiv_pos_site_id
_symmetry_equiv_pos_as_xyz
1 x,y,z
2 -x,1/2+y,-z
_cell_length_a                   9.4911(4)
_cell_length_b                   9.8015(3)
_cell_length_c                   12.0673(5)
_cell_angle_alpha                90
_cell_angle_beta                 103.604(4)
_cell_angle_gamma                90
_cell_volume                     1091.09
_exptl_crystal_colour            'light colorless'
_exptl_crystal_description       block
_cell_formula_units_Z            2
loop_
_atom_site_label
_atom_site_type_symbol
_atom_site_fract_x
_atom_site_fract_y
_atom_site_fract_z
O1 O -0.4588(3) 0.0251(3) -0.9432(3)
O2 O -0.0614(4) 0.1035(4) -0.6250(3)
N1 N -0.2435(3) -0.0485(3) -0.8341(2)
H1 H -0.1516 -0.0340 -0.8159
C1 C -0.3232(4) 0.2603(4) -1.0061(3)
H2 H -0.4230 0.2662 -1.0148
C2 C -0.2477(5) 0.3629(4) -1.0449(3)
H3 H -0.2954 0.4405 -1.0790
C3 C -0.1022(5) 0.3488(4) -1.0322(3)
H4 H -0.0497 0.4151 -1.0601
C4 C -0.0335(4) 0.2350(4) -0.9775(3)
H5 H 0.0663 0.2277 -0.9679
N2 N -0.1034(3) 0.1344(3) -0.9375(2)
C5 C -0.2463(3) 0.1479(3) -0.9538(2)
C6 C -0.3267(4) 0.0350(3) -0.9111(3)
C7 C -0.3002(3) -0.1615(3) -0.7801(2)
H6 H -0.4062 -0.1543 -0.7994
C8 C -0.2598(4) -0.2982(4) -0.8266(3)
H7 H -0.2966 -0.3001 -0.9087
H8 H -0.1550 -0.3060 -0.8106
C9 C -0.3208(5) -0.4188(4) -0.7744(3)
H9 H -0.2865 -0.5029 -0.8013
H10 H -0.4257 -0.4178 -0.7985
C10 C -0.2751(5) -0.4142(4) -0.6450(3)
H11 H -0.1711 -0.4275 -0.6204
H12 H -0.3221 -0.4877 -0.6136
C11 C -0.3158(4) -0.2780(3) -0.6002(3)
H13 H -0.2836 -0.2769 -0.5177
H14 H -0.4204 -0.2683 -0.6199
C12 C -0.2479(3) -0.1576(3) -0.6493(2)
H15 H -0.1427 -0.1714 -0.6303
C13 C -0.2782(4) -0.0194(3) -0.5960(3)
C14 C -0.1895(5) 0.0963(4) -0.6350(3)
O3 O -0.2764(5) 0.2004(3) -0.6834(3)
C15 C -0.4158(7) 0.1629(5) -0.6876(3)
C16 C -0.5372(11) 0.2389(7) -0.7337(5)
H16 H -0.5289 0.3235 -0.7663
C17 C -0.6705(10) 0.1878(10) -0.7308(6)
H17 H -0.7528 0.2383 -0.7631
C18 C -0.6869(6) 0.0621(9) -0.6807(6)
H18 H -0.7788 0.0306 -0.6793
C19 C -0.5625(4) -0.0175(6) -0.6319(4)
H19 H -0.5707 -0.1009 -0.5972
C20 C -0.4292(4) 0.0339(4) -0.6379(3)
C21 C -0.2265(4) -0.0168(3) -0.4646(3)
C22 C -0.2971(5) 0.0636(4) -0.4004(4)
H20 H -0.3813 0.1096 -0.4361
C23 C -0.2440(6) 0.0765(5) -0.2841(4)
H21 H -0.2918 0.1324 -0.2424
C24 C -0.1214(5) 0.0078(5) -0.2293(3)
H22 H -0.0866 0.0159 -0.1508
C25 C -0.0509(4) -0.0730(4) -0.2915(3)
H23 H 0.0319 -0.1205 -0.2550
C26 C -0.1021(4) -0.0845(4) -0.4085(3)
H24 H -0.0522 -0.1385 -0.4499
loop_
_geom_bond_atom_site_label_1
_geom_bond_atom_site_label_2
_geom_bond_site_symmetry_1
_geom_bond_site_symmetry_2
O1 C6 1_555 1_555
O2 C14 1_555 1_555
N1 H1 1_555 1_555
C1 H2 1_555 1_555
C2 C1 1_555 1_555
H3 C2 1_555 1_555
C3 C2 1_555 1_555
H4 C3 1_555 1_555
C4 C3 1_555 1_555
H5 C4 1_555 1_555
N2 C4 1_555 1_555
C5 C1 1_555 1_555
C6 N1 1_555 1_555
C7 N1 1_555 1_555
H6 C7 1_555 1_555
C8 C7 1_555 1_555
H7 C8 1_555 1_555
H8 C8 1_555 1_555
C9 C8 1_555 1_555
H9 C9 1_555 1_555
H10 C9 1_555 1_555
C10 C9 1_555 1_555
H11 C10 1_555 1_555
H12 C10 1_555 1_555
C11 C10 1_555 1_555
H13 C11 1_555 1_555
H14 C11 1_555 1_555
C12 C7 1_555 1_555
H15 C12 1_555 1_555
C13 C12 1_555 1_555
C14 C13 1_555 1_555
O3 C14 1_555 1_555
C15 O3 1_555 1_555
C16 C15 1_555 1_555
H16 C16 1_555 1_555
C17 C16 1_555 1_555
H17 C17 1_555 1_555
C18 C17 1_555 1_555
H18 C18 1_555 1_555
C19 C18 1_555 1_555
H19 C19 1_555 1_555
C20 C13 1_555 1_555
C21 C13 1_555 1_555
C22 C21 1_555 1_555
H20 C22 1_555 1_555
C23 C22 1_555 1_555
H21 C23 1_555 1_555
C24 C23 1_555 1_555
H22 C24 1_555 1_555
C25 C24 1_555 1_555
H23 C25 1_555 1_555
C26 C21 1_555 1_555
H24 C26 1_555 1_555
N2 C5 1_555 1_555
C5 C6 1_555 1_555
C11 C12 1_555 1_555
C15 C20 1_555 1_555
C19 C20 1_555 1_555
C25 C26 1_555 1_555

#END
