
#######################################################################
#
#                 Cambridge Crystallographic Data Centre
#                                CCDC 
#
#######################################################################
#
# If this CIF has been generated from an entry in the Cambridge 
# Structural Database, then it will include bibliographic, chemical, 
# crystal, experimental, refinement or atomic coordinate data resulting 
# from the CCDC's data processing and validation procedures.
#
#######################################################################

data_OWIKOW
_chemical_formula_moiety         'C24 H18 N1 P1 S1'
_chemical_name_systematic        9-(diphenylphosphorothioyl)-9H-carbazole
_symmetry_cell_setting           triclinic
_symmetry_space_group_name_H-M   'P -1'
_symmetry_Int_Tables_number      2
_space_group_name_Hall           '-P 1'
loop_
_symmetry_equiv_pos_site_id
_symmetry_equiv_pos_as_xyz
1 x,y,z
2 -x,-y,-z
_cell_length_a                   9.7310(6)
_cell_length_b                   9.7850(7)
_cell_length_c                   11.1276(9)
_cell_angle_alpha                95.858(6)
_cell_angle_beta                 101.602(6)
_cell_angle_gamma                109.696(6)
_cell_volume                     960.461
_exptl_crystal_colour            colorless
_exptl_crystal_description       block
_cell_formula_units_Z            2
loop_
_atom_site_label
_atom_site_type_symbol
_atom_site_fract_x
_atom_site_fract_y
_atom_site_fract_z
C1 C 0.7658(2) 0.3839(2) 0.66877(16)
C2 C 0.9075(2) 0.4488(2) 0.64749(19)
H1 H 0.9539 0.5509 0.6586
C3 C 0.9771(2) 0.3556(3) 0.6091(2)
H2 H 1.0722 0.3964 0.5947
C4 C 0.9088(3) 0.2037(3) 0.5917(2)
H3 H 0.9582 0.1444 0.5653
C5 C 0.7685(3) 0.1391(2) 0.6131(2)
H4 H 0.7228 0.0370 0.6014
C6 C 0.6965(2) 0.2309(2) 0.65262(17)
C7 C 0.5537(2) 0.1999(2) 0.68407(17)
C8 C 0.4407(3) 0.0684(2) 0.6843(2)
H5 H 0.4506 -0.0213 0.6616
C9 C 0.3139(3) 0.0716(3) 0.7182(2)
H6 H 0.2368 -0.0164 0.7175
C10 C 0.2998(2) 0.2053(3) 0.7535(2)
H7 H 0.2133 0.2054 0.7769
C11 C 0.4110(2) 0.3382(2) 0.75474(19)
H8 H 0.4002 0.4271 0.7789
C12 C 0.5394(2) 0.3363(2) 0.71899(16)
C13 C 0.5615(2) 0.6737(2) 0.76632(17)
C14 C 0.4394(2) 0.6687(2) 0.67302(19)
H9 H 0.4413 0.6534 0.5896
C15 C 0.3159(2) 0.6867(2) 0.7051(2)
H10 H 0.2338 0.6820 0.6429
C16 C 0.3136(3) 0.7116(3) 0.8283(2)
H11 H 0.2292 0.7218 0.8491
C17 C 0.4357(3) 0.7216(3) 0.9212(2)
H12 H 0.4346 0.7407 1.0045
C18 C 0.5600(2) 0.7032(3) 0.89070(19)
H13 H 0.6427 0.7106 0.9535
C19 C 0.8778(2) 0.7159(2) 0.84935(17)
C20 C 0.9852(2) 0.8512(2) 0.85132(19)
H14 H 0.9741 0.8993 0.7842
C21 C 1.1092(2) 0.9162(3) 0.9518(2)
H15 H 1.1812 1.0074 0.9518
C22 C 1.1264(3) 0.8469(3) 1.0511(2)
H16 H 1.2099 0.8911 1.1188
C23 C 1.0210(3) 0.7121(3) 1.0511(2)
H17 H 1.0329 0.6655 1.1192
C24 C 0.8962(3) 0.6447(3) 0.95008(19)
H18 H 0.8256 0.5527 0.9498
N1 N 0.67039(17) 0.45182(17) 0.70931(15)
P1 P 0.71371(5) 0.63754(5) 0.71816(4)
S1 S 0.74556(6) 0.70723(6) 0.56590(5)
loop_
_geom_bond_atom_site_label_1
_geom_bond_atom_site_label_2
_geom_bond_site_symmetry_1
_geom_bond_site_symmetry_2
C1 C2 1_555 1_555
C2 H1 1_555 1_555
C3 C2 1_555 1_555
H2 C3 1_555 1_555
C4 C3 1_555 1_555
H3 C4 1_555 1_555
C5 C4 1_555 1_555
H4 C5 1_555 1_555
C6 C1 1_555 1_555
C7 C6 1_555 1_555
C8 C7 1_555 1_555
H5 C8 1_555 1_555
C9 C8 1_555 1_555
H6 C9 1_555 1_555
C10 C9 1_555 1_555
H7 C10 1_555 1_555
C11 C10 1_555 1_555
H8 C11 1_555 1_555
C12 C7 1_555 1_555
C13 C14 1_555 1_555
C14 H9 1_555 1_555
C15 C14 1_555 1_555
H10 C15 1_555 1_555
C16 C15 1_555 1_555
H11 C16 1_555 1_555
C17 C16 1_555 1_555
H12 C17 1_555 1_555
C18 C13 1_555 1_555
H13 C18 1_555 1_555
C19 C20 1_555 1_555
C20 H14 1_555 1_555
C21 C20 1_555 1_555
H15 C21 1_555 1_555
C22 C21 1_555 1_555
H16 C22 1_555 1_555
C23 C22 1_555 1_555
H17 C23 1_555 1_555
C24 C19 1_555 1_555
H18 C24 1_555 1_555
N1 C1 1_555 1_555
P1 C13 1_555 1_555
S1 P1 1_555 1_555
C5 C6 1_555 1_555
C11 C12 1_555 1_555
C12 N1 1_555 1_555
C17 C18 1_555 1_555
C19 P1 1_555 1_555
C23 C24 1_555 1_555
N1 P1 1_555 1_555

#END
