
#######################################################################
#
#                 Cambridge Crystallographic Data Centre
#                                CCDC 
#
#######################################################################
#
# If this CIF has been generated from an entry in the Cambridge 
# Structural Database, then it will include bibliographic, chemical, 
# crystal, experimental, refinement or atomic coordinate data resulting 
# from the CCDC's data processing and validation procedures.
#
#######################################################################

data_OWILOX
_chemical_formula_moiety         'C49 H52 N8 O3,3.5(C1 H4 O1),H2 O1'
_chemical_name_systematic        
'49-methoxy-1,25,30,30,39,39-hexamethyl-5,21,44,45,46,47,48,50-octaazanonacyclo[23.9.9.1^6,10^.1^11,15^.1^16,20^.1^26,29^.1^31,34^.1^35,38^.1^40,43^]pentaconta-6(50),7,9,11(49),12,14,16(48),17,19,26,28,31,33,35,37,40,42-heptadecaene-4,22-dione methanol solvate monohydrate'
_symmetry_cell_setting           triclinic
_symmetry_space_group_name_H-M   'P -1'
_symmetry_Int_Tables_number      2
_space_group_name_Hall           '-P 1'
loop_
_symmetry_equiv_pos_site_id
_symmetry_equiv_pos_as_xyz
1 x,y,z
2 -x,-y,-z
_cell_length_a                   11.3956(6)
_cell_length_b                   20.1626(11)
_cell_length_c                   23.5767(13)
_cell_angle_alpha                110.412(2)
_cell_angle_beta                 99.661(2)
_cell_angle_gamma                90.596(2)
_cell_volume                     4991
_cell_formula_units_Z            4
loop_
_atom_site_label
_atom_site_type_symbol
_atom_site_fract_x
_atom_site_fract_y
_atom_site_fract_z
C1 C 0.3019(4) 0.2155(2) 0.3474(2)
C2 C 0.2321(4) 0.1680(2) 0.2864(2)
C3 C 0.1188(4) 0.1377(2) 0.2730(3)
H1 H 0.0695 0.1389 0.3021
C4 C 0.0876(4) 0.1044(2) 0.2092(3)
H2 H 0.0132 0.0790 0.1876
C5 C 0.1825(4) 0.1143(2) 0.1825(2)
C6 C 0.1985(4) 0.0871(2) 0.1158(2)
C7 C 0.2790(4) 0.0257(2) 0.10242(19)
C8 C 0.2508(4) -0.0464(2) 0.0745(2)
H3 H 0.1728 -0.0690 0.0577
C9 C 0.3590(4) -0.0808(2) 0.0751(2)
H4 H 0.3657 -0.1306 0.0592
C10 C 0.4514(4) -0.0302(2) 0.10252(18)
C11 C 0.5853(4) -0.0357(2) 0.10759(18)
C12 C 0.6554(3) 0.0247(2) 0.16011(17)
C13 C 0.7516(4) 0.0671(2) 0.1628(2)
H5 H 0.7873 0.0660 0.1289
C14 C 0.7897(4) 0.1132(2) 0.22460(19)
H6 H 0.8547 0.1483 0.2394
C15 C 0.7148(3) 0.0975(2) 0.25907(18)
C16 C 0.7139(3) 0.1290(2) 0.32742(17)
C17 C 0.6186(4) 0.1812(2) 0.33944(17)
C18 C 0.6266(4) 0.2536(2) 0.35783(19)
H7 H 0.6980 0.2828 0.3660
C19 C 0.5124(4) 0.2780(2) 0.36263(19)
H8 H 0.4932 0.3261 0.3746
C20 C 0.4339(4) 0.2201(2) 0.34704(18)
C21 C 0.2787(4) 0.1978(2) 0.4031(2)
H9 H 0.3216 0.2349 0.4411
H10 H 0.1923 0.1995 0.4042
C22 C 0.3172(5) 0.1254(3) 0.4030(3)
H11 H 0.4041 0.1294 0.4188
H12 H 0.3018 0.0911 0.3602
C23 C 0.2515(4) 0.0971(3) 0.4424(2)
C24 C 0.2551(3) -0.0126(2) 0.46841(19)
C25 C 0.1648(3) -0.0019(2) 0.50305(19)
H13 H 0.1354 0.0435 0.5195
C26 C 0.1204(4) -0.0603(2) 0.51225(19)
H14 H 0.0568 -0.0560 0.5344
C27 C 0.1678(4) -0.1252(2) 0.48945(19)
H15 H 0.1356 -0.1661 0.4945
C28 C 0.2631(3) -0.1294(2) 0.45908(18)
C29 C 0.3251(3) -0.1958(2) 0.43715(18)
C30 C 0.3613(4) -0.2326(2) 0.4767(2)
H16 H 0.3414 -0.2165 0.5166
C31 C 0.4256(4) -0.2922(2) 0.4590(2)
H17 H 0.4470 -0.3177 0.4859
C32 C 0.4582(3) -0.3140(2) 0.4018(2)
H18 H 0.5042 -0.3540 0.3901
C33 C 0.4254(3) -0.2789(2) 0.36084(19)
C34 C 0.3539(3) -0.2213(2) 0.37830(18)
C35 C 0.4673(3) -0.3015(2) 0.30075(19)
C36 C 0.4720(3) -0.3721(2) 0.2647(2)
H19 H 0.4458 -0.4091 0.2769
C37 C 0.5160(4) -0.3876(2) 0.2101(2)
H20 H 0.5207 -0.4356 0.1850
C38 C 0.5528(4) -0.3337(2) 0.1922(2)
H21 H 0.5829 -0.3432 0.1552
C39 C 0.5436(3) -0.2644(2) 0.2313(2)
C40 C 0.5922(4) -0.1959(2) 0.1670(2)
C41 C 0.5942(4) -0.1190(2) 0.1704(2)
H22 H 0.5164 -0.1004 0.1788
H23 H 0.6565 -0.0906 0.2055
C42 C 0.6180(4) -0.1087(2) 0.1126(2)
H24 H 0.5721 -0.1470 0.0764
H25 H 0.7038 -0.1139 0.1109
C43 C 0.6210(4) -0.0356(2) 0.0472(2)
H26 H 0.6002 0.0088 0.0411
H27 H 0.5783 -0.0758 0.0125
H28 H 0.7072 -0.0396 0.0498
C44 C 0.8365(4) 0.1687(2) 0.36076(19)
H29 H 0.8980 0.1346 0.3565
H30 H 0.8344 0.1931 0.4045
H31 H 0.8548 0.2035 0.3425
C45 C 0.6936(3) 0.0700(2) 0.35282(18)
H32 H 0.6187 0.0419 0.3302
H33 H 0.6893 0.0913 0.3966
H34 H 0.7600 0.0392 0.3478
C46 C 0.2589(5) 0.2917(3) 0.3614(2)
H35 H 0.3046 0.3235 0.4008
H36 H 0.1739 0.2907 0.3637
H37 H 0.2711 0.3088 0.3286
C47 C 0.2513(4) 0.1469(2) 0.0988(2)
H38 H 0.3308 0.1637 0.1239
H39 H 0.1992 0.1862 0.1065
H40 H 0.2574 0.1286 0.0551
C48 C 0.0762(4) 0.0609(3) 0.0742(3)
H41 H 0.0852 0.0456 0.0310
H42 H 0.0226 0.0996 0.0827
H43 H 0.0425 0.0210 0.0823
C49 C 0.1840(3) -0.1901(3) 0.3191(2)
H44 H 0.1512 -0.2352 0.2868
H45 H 0.1649 -0.1510 0.3044
H46 H 0.1490 -0.1837 0.3558
N1 N 0.2708(3) 0.15312(16) 0.23044(15)
H47 H 0.3417 0.1667 0.2264
N2 N 0.4012(3) 0.03436(17) 0.11916(15)
H48 H 0.4422 0.0757 0.1380
N3 N 0.6333(3) 0.04382(16) 0.21961(14)
H49 H 0.5755 0.0244 0.2305
N4 N 0.4998(3) 0.16071(16) 0.33295(14)
H50 H 0.4701 0.1166 0.3216
N5 N 0.3047(3) 0.04064(19) 0.45199(17)
H51 H 0.3796 0.0372 0.4473
N6 N 0.3066(3) -0.07358(17) 0.44820(15)
N7 N 0.5035(3) -0.24866(17) 0.28410(16)
N8 N 0.5719(3) -0.20276(18) 0.21973(16)
H52 H 0.5772 -0.1628 0.2514
O1 O 0.1581(3) 0.11722(18) 0.45951(19)
O2 O 0.3117(2) -0.19098(14) 0.33446(12)
O3 O 0.6048(3) -0.24543(17) 0.12162(16)
C52 C -0.1344(3) 0.65017(19) 0.39926(16)
C53 C -0.0183(3) 0.63449(19) 0.43375(17)
C54 C 0.0603(3) 0.6809(2) 0.48186(18)
H57 H 0.0532 0.7303 0.5011
C55 C 0.1545(3) 0.6417(2) 0.49783(17)
H58 H 0.2223 0.6607 0.5295
C56 C 0.1319(3) 0.5724(2) 0.46027(16)
C57 C 0.2045(3) 0.5093(2) 0.45689(17)
C58 C 0.2594(3) 0.4863(2) 0.39900(17)
C59 C 0.3732(4) 0.4986(2) 0.39205(19)
H59 H 0.4383 0.5227 0.4240
C60 C 0.3765(4) 0.4687(2) 0.32779(19)
H60 H 0.4446 0.4691 0.3095
C61 C 0.2645(3) 0.43916(19) 0.29700(18)
C62 C 0.2219(3) 0.39939(19) 0.22873(17)
C63 C 0.0883(4) 0.3836(2) 0.21237(17)
C64 C 0.0184(4) 0.3207(2) 0.19140(18)
H61 H 0.0465 0.2750 0.1858
C65 C -0.1027(4) 0.3359(2) 0.17969(18)
H62 H -0.1699 0.3023 0.1646
C66 C -0.1054(3) 0.40809(19) 0.19409(17)
C67 C -0.2099(3) 0.45410(19) 0.19055(18)
C68 C -0.2304(3) 0.49689(19) 0.25469(18)
C69 C -0.3156(3) 0.4875(2) 0.28626(18)
H63 H -0.3778 0.4506 0.2715
C70 C -0.2951(3) 0.54232(19) 0.34475(18)
H64 H -0.3416 0.5488 0.3759
C71 C -0.1970(3) 0.58436(19) 0.34885(16)
C72 C -0.1009(3) 0.70750(19) 0.37324(17)
H65 H -0.0634 0.7501 0.4082
H66 H -0.0403 0.6892 0.3472
C73 C -0.2050(3) 0.7302(2) 0.33509(19)
H67 H -0.2325 0.6909 0.2954
H68 H -0.2726 0.7406 0.3575
C74 C -0.1659(3) 0.7950(2) 0.32333(19)
C75 C -0.1005(3) 0.8309(2) 0.24103(18)
C76 C -0.0935(4) 0.9045(2) 0.2706(2)
H69 H -0.1164 0.9255 0.3096
C77 C -0.0519(4) 0.9457(2) 0.2407(2)
H70 H -0.0480 0.9960 0.2587
C78 C -0.0161(4) 0.9141(2) 0.1849(2)
H71 H 0.0137 0.9423 0.1647
C79 C -0.0241(3) 0.8408(2) 0.15891(18)
C80 C 0.0156(3) 0.8022(2) 0.09963(18)
C81 C -0.0325(4) 0.8135(2) 0.04543(19)
H72 H -0.0925 0.8459 0.0459
C82 C 0.0063(4) 0.7779(2) -0.0087(2)
H73 H -0.0266 0.7864 -0.0451
C83 C 0.0928(4) 0.7298(2) -0.01058(19)
H74 H 0.1185 0.7054 -0.0483
C84 C 0.1426(3) 0.7168(2) 0.04245(18)
C85 C 0.1049(3) 0.7549(2) 0.09718(17)
C86 C 0.2304(3) 0.6620(2) 0.03926(18)
C87 C 0.3327(4) 0.6609(2) 0.01481(18)
H75 H 0.3506 0.6961 -0.0014
C88 C 0.4088(4) 0.6075(2) 0.01425(19)
H76 H 0.4799 0.6060 -0.0021
C89 C 0.3803(4) 0.5561(2) 0.03784(18)
H77 H 0.4304 0.5187 0.0374
C90 C 0.2764(4) 0.5616(2) 0.06199(18)
C91 C 0.2811(4) 0.4552(2) 0.09239(18)
C92 C 0.2131(4) 0.4176(2) 0.12386(18)
H78 H 0.2212 0.3659 0.1065
H79 H 0.1273 0.4258 0.1164
C93 C 0.2623(3) 0.4457(2) 0.19343(18)
H80 H 0.2369 0.4942 0.2116
H81 H 0.3506 0.4491 0.1998
C94 C 0.2844(4) 0.3293(2) 0.2098(2)
H82 H 0.3710 0.3397 0.2223
H83 H 0.2642 0.3053 0.1650
H84 H 0.2575 0.2985 0.2301
C95 C -0.3232(4) 0.4048(2) 0.15541(19)
H85 H -0.3391 0.3736 0.1776
H86 H -0.3111 0.3760 0.1140
H87 H -0.3912 0.4334 0.1523
C96 C -0.1873(4) 0.5025(2) 0.15523(18)
H88 H -0.2553 0.5314 0.1530
H89 H -0.1775 0.4734 0.1135
H90 H -0.1147 0.5336 0.1766
C97 C -0.2166(3) 0.6812(2) 0.44637(18)
H91 H -0.2920 0.6916 0.4254
H92 H -0.1774 0.7250 0.4783
H93 H -0.2327 0.6467 0.4654
C98 C 0.1272(4) 0.4479(2) 0.45965(19)
H94 H 0.0591 0.4343 0.4254
H95 H 0.0980 0.4631 0.4987
H96 H 0.1751 0.4071 0.4566
C99 C 0.3076(4) 0.5310(3) 0.51329(19)
H97 H 0.3572 0.4910 0.5107
H98 H 0.2744 0.5442 0.5511
H99 H 0.3565 0.5715 0.5137
C100 C 0.2794(4) 0.7723(2) 0.1732(2)
H100 H 0.3276 0.7411 0.1456
H101 H 0.3055 0.7725 0.2150
H102 H 0.2896 0.8206 0.1731
N9 N 0.0249(3) 0.56818(16) 0.42078(14)
H103 H -0.0102 0.5291 0.3918
N10 N 0.1933(3) 0.45056(16) 0.34112(14)
H104 H 0.1169 0.4370 0.3334
N11 N 0.0112(3) 0.43636(16) 0.21369(14)
H105 H 0.0334 0.4818 0.2254
N12 N -0.1578(3) 0.55591(15) 0.29308(13)
H106 H -0.0956 0.5731 0.2837
N13 N -0.1416(3) 0.78175(16) 0.26511(15)
H107 H -0.1530 0.7373 0.2399
N14 N -0.0683(3) 0.79954(16) 0.18635(15)
N15 N 0.2015(3) 0.61298(17) 0.06298(15)
N16 N 0.2343(3) 0.51450(17) 0.08741(15)
H108 H 0.1681 0.5252 0.1021
O4 O -0.1541(3) 0.85402(15) 0.36187(13)
O5 O 0.1556(2) 0.74691(14) 0.15226(12)
O6 O 0.3740(3) 0.43364(15) 0.07452(13)
C101 C -0.1974(4) 0.6294(3) 0.0715(2)
H109 H -0.1441 0.6360 0.0450
H110 H -0.2689 0.6551 0.0670
H111 H -0.2206 0.5788 0.0595
O7 O -0.1373(3) 0.65622(14) 0.13403(13)
H112 H -0.1127 0.6988 0.1435
C102 C 0.1722(3) 0.6144(2) 0.31887(19)
H113 H 0.1644 0.5939 0.3502
H114 H 0.1748 0.6663 0.3372
H115 H 0.2459 0.6004 0.3031
O8 O 0.0713(2) 0.58889(14) 0.26901(12)
H116 H 0.0806 0.6039 0.2409
C103 C -0.1291(5) 0.3597(3) 0.3352(2)
H117 H -0.1066 0.3160 0.3058
H118 H -0.2152 0.3633 0.3252
H119 H -0.1084 0.3588 0.3770
O9 O -0.0671(2) 0.41885(14) 0.33185(12)
H120 H -0.1110 0.4338 0.3072
C104 C 0.3730(8) 0.2623(3) 0.0215(3)
H121 H 0.4006 0.2677 -0.0139
H122 H 0.2903 0.2753 0.0214
H123 H 0.3771 0.2129 0.0191
O10 O 0.4394(4) 0.3028(2) 0.0712(3)
H124 H 0.4281 0.3454 0.0760
C105 C 0.3042(4) -0.0191(2) 0.2386(2)
H125 H 0.3083 -0.0502 0.1966
H126 H 0.2603 0.0220 0.2374
H127 H 0.2630 -0.0454 0.2585
O11 O 0.4228(2) 0.00446(14) 0.27295(13)
H128 H 0.4426 -0.0198 0.2951
C106 C 0.5699(4) -0.0763(3) 0.3867(2)
H129 H 0.6167 -0.1179 0.3811
H130 H 0.5292 -0.0690 0.4216
H131 H 0.6231 -0.0343 0.3946
O12 O 0.4831(3) -0.08767(17) 0.33209(16)
H132 H 0.4188 -0.1098 0.3302
O13 O 0.0777(3) 0.61008(17) 0.16369(14)
H133 H 0.0071 0.6208 0.1536
H134 H 0.125(5) 0.644(3) 0.151(3)
O14 O 0.5090(2) 0.18071(14) 0.20232(13)
O15 O 0.5782(6) 0.2381(3) 0.1261(3)
H138 H 0.5152 0.2475 0.1071
C108 C 0.6421(7) 0.1915(4) 0.0830(4)
H139 H 0.6651 0.2153 0.0562
H140 H 0.5911 0.1484 0.0579
H141 H 0.7138 0.1790 0.1052
C50? C 0.2559(16) 0.1407(9) 0.3690(8)
H53? H 0.1682 0.1368 0.3661
H54? H 0.2804 0.0954 0.3419
C51? C 0.3195(17) 0.1583(11) 0.4352(9)
H55? H 0.3031 0.2055 0.4631
H56? H 0.4065 0.1535 0.4389
C107? C 0.5663(9) 0.2356(6) 0.1902(6)
H135? H 0.5889 0.2765 0.2285
H136? H 0.5117 0.2497 0.1603
H137? H 0.6379 0.2186 0.1734
loop_
_geom_bond_atom_site_label_1
_geom_bond_atom_site_label_2
_geom_bond_site_symmetry_1
_geom_bond_site_symmetry_2
C1 C2 1_555 1_555
C2 C3 1_555 1_555
C3 H1 1_555 1_555
C4 C3 1_555 1_555
H2 C4 1_555 1_555
C5 C4 1_555 1_555
C6 C5 1_555 1_555
C7 C6 1_555 1_555
C8 C7 1_555 1_555
H3 C8 1_555 1_555
C9 C8 1_555 1_555
H4 C9 1_555 1_555
C10 C9 1_555 1_555
C11 C10 1_555 1_555
C12 C11 1_555 1_555
C13 C12 1_555 1_555
H5 C13 1_555 1_555
C14 C13 1_555 1_555
H6 C14 1_555 1_555
C15 C14 1_555 1_555
C16 C15 1_555 1_555
C17 C16 1_555 1_555
C18 C17 1_555 1_555
H7 C18 1_555 1_555
C19 C18 1_555 1_555
H8 C19 1_555 1_555
C20 C1 1_555 1_555
C21 C1 1_555 1_555
H9 C21 1_555 1_555
H10 C21 1_555 1_555
C22 C21 1_555 1_555
H11 C22 1_555 1_555
H12 C22 1_555 1_555
C23 C22 1_555 1_555
C24 C25 1_555 1_555
C25 H13 1_555 1_555
C26 C25 1_555 1_555
H14 C26 1_555 1_555
C27 C26 1_555 1_555
H15 C27 1_555 1_555
C28 C27 1_555 1_555
C29 C28 1_555 1_555
C30 C29 1_555 1_555
H16 C30 1_555 1_555
C31 C30 1_555 1_555
H17 C31 1_555 1_555
C32 C31 1_555 1_555
H18 C32 1_555 1_555
C33 C32 1_555 1_555
C34 C29 1_555 1_555
C35 C33 1_555 1_555
C36 C35 1_555 1_555
H19 C36 1_555 1_555
C37 C36 1_555 1_555
H20 C37 1_555 1_555
C38 C37 1_555 1_555
H21 C38 1_555 1_555
C39 C38 1_555 1_555
C40 C41 1_555 1_555
C41 H22 1_555 1_555
H23 C41 1_555 1_555
C42 C11 1_555 1_555
H24 C42 1_555 1_555
H25 C42 1_555 1_555
C43 C11 1_555 1_555
H26 C43 1_555 1_555
H27 C43 1_555 1_555
H28 C43 1_555 1_555
C44 C16 1_555 1_555
H29 C44 1_555 1_555
H30 C44 1_555 1_555
H31 C44 1_555 1_555
C45 C16 1_555 1_555
H32 C45 1_555 1_555
H33 C45 1_555 1_555
H34 C45 1_555 1_555
C46 C1 1_555 1_555
H35 C46 1_555 1_555
H36 C46 1_555 1_555
H37 C46 1_555 1_555
C47 C6 1_555 1_555
H38 C47 1_555 1_555
H39 C47 1_555 1_555
H40 C47 1_555 1_555
C48 C6 1_555 1_555
H41 C48 1_555 1_555
H42 C48 1_555 1_555
H43 C48 1_555 1_555
C49 H44 1_555 1_555
H45 C49 1_555 1_555
H46 C49 1_555 1_555
N1 C2 1_555 1_555
H47 N1 1_555 1_555
N2 C7 1_555 1_555
H48 N2 1_555 1_555
N3 C12 1_555 1_555
H49 N3 1_555 1_555
N4 C17 1_555 1_555
H50 N4 1_555 1_555
N5 C23 1_555 1_555
H51 N5 1_555 1_555
N6 C24 1_555 1_555
N7 C35 1_555 1_555
N8 C39 1_555 1_555
H52 N8 1_555 1_555
O1 C23 1_555 1_555
O2 C34 1_555 1_555
O3 C40 1_555 1_555
C52 C53 1_555 1_555
C53 C54 1_555 1_555
C54 H57 1_555 1_555
C55 C54 1_555 1_555
H58 C55 1_555 1_555
C56 C55 1_555 1_555
C57 C56 1_555 1_555
C58 C57 1_555 1_555
C59 C58 1_555 1_555
H59 C59 1_555 1_555
C60 C59 1_555 1_555
H60 C60 1_555 1_555
C61 C60 1_555 1_555
C62 C61 1_555 1_555
C63 C62 1_555 1_555
C64 C63 1_555 1_555
H61 C64 1_555 1_555
C65 C64 1_555 1_555
H62 C65 1_555 1_555
C66 C65 1_555 1_555
C67 C66 1_555 1_555
C68 C67 1_555 1_555
C69 C68 1_555 1_555
H63 C69 1_555 1_555
C70 C69 1_555 1_555
H64 C70 1_555 1_555
C71 C52 1_555 1_555
C72 C52 1_555 1_555
H65 C72 1_555 1_555
H66 C72 1_555 1_555
C73 C72 1_555 1_555
H67 C73 1_555 1_555
H68 C73 1_555 1_555
C74 C73 1_555 1_555
C75 C76 1_555 1_555
C76 H69 1_555 1_555
C77 C76 1_555 1_555
H70 C77 1_555 1_555
C78 C77 1_555 1_555
H71 C78 1_555 1_555
C79 C78 1_555 1_555
C80 C79 1_555 1_555
C81 C80 1_555 1_555
H72 C81 1_555 1_555
C82 C81 1_555 1_555
H73 C82 1_555 1_555
C83 C82 1_555 1_555
H74 C83 1_555 1_555
C84 C83 1_555 1_555
C85 C80 1_555 1_555
C86 C84 1_555 1_555
C87 C86 1_555 1_555
H75 C87 1_555 1_555
C88 C87 1_555 1_555
H76 C88 1_555 1_555
C89 C88 1_555 1_555
H77 C89 1_555 1_555
C90 C89 1_555 1_555
C91 C92 1_555 1_555
C92 H78 1_555 1_555
H79 C92 1_555 1_555
C93 C62 1_555 1_555
H80 C93 1_555 1_555
H81 C93 1_555 1_555
C94 C62 1_555 1_555
H82 C94 1_555 1_555
H83 C94 1_555 1_555
H84 C94 1_555 1_555
C95 C67 1_555 1_555
H85 C95 1_555 1_555
H86 C95 1_555 1_555
H87 C95 1_555 1_555
C96 C67 1_555 1_555
H88 C96 1_555 1_555
H89 C96 1_555 1_555
H90 C96 1_555 1_555
C97 C52 1_555 1_555
H91 C97 1_555 1_555
H92 C97 1_555 1_555
H93 C97 1_555 1_555
C98 C57 1_555 1_555
H94 C98 1_555 1_555
H95 C98 1_555 1_555
H96 C98 1_555 1_555
C99 C57 1_555 1_555
H97 C99 1_555 1_555
H98 C99 1_555 1_555
H99 C99 1_555 1_555
C100 H100 1_555 1_555
H101 C100 1_555 1_555
H102 C100 1_555 1_555
N9 C53 1_555 1_555
H103 N9 1_555 1_555
N10 C58 1_555 1_555
H104 N10 1_555 1_555
N11 C63 1_555 1_555
H105 N11 1_555 1_555
N12 C68 1_555 1_555
H106 N12 1_555 1_555
N13 C74 1_555 1_555
H107 N13 1_555 1_555
N14 C75 1_555 1_555
N15 C86 1_555 1_555
N16 C90 1_555 1_555
H108 N16 1_555 1_555
O4 C74 1_555 1_555
O5 C85 1_555 1_555
O6 C91 1_555 1_555
C101 H109 1_555 1_555
H110 C101 1_555 1_555
H111 C101 1_555 1_555
O7 C101 1_555 1_555
H112 O7 1_555 1_555
C102 H113 1_555 1_555
H114 C102 1_555 1_555
H115 C102 1_555 1_555
O8 C102 1_555 1_555
H116 O8 1_555 1_555
C103 H117 1_555 1_555
H118 C103 1_555 1_555
H119 C103 1_555 1_555
O9 C103 1_555 1_555
H120 O9 1_555 1_555
C104 H121 1_555 1_555
H122 C104 1_555 1_555
H123 C104 1_555 1_555
O10 C104 1_555 1_555
H124 O10 1_555 1_555
C105 H125 1_555 1_555
H126 C105 1_555 1_555
H127 C105 1_555 1_555
O11 C105 1_555 1_555
H128 O11 1_555 1_555
C106 H129 1_555 1_555
H130 C106 1_555 1_555
H131 C106 1_555 1_555
O12 C106 1_555 1_555
H132 O12 1_555 1_555
O13 H133 1_555 1_555
H134 O13 1_555 1_555
O15 H138 1_555 1_555
C108 O15 1_555 1_555
H139 C108 1_555 1_555
H140 C108 1_555 1_555
H141 C108 1_555 1_555
C5 N1 1_555 1_555
C10 N2 1_555 1_555
C15 N3 1_555 1_555
C19 C20 1_555 1_555
C20 N4 1_555 1_555
C24 N5 1_555 1_555
C28 N6 1_555 1_555
C33 C34 1_555 1_555
C39 N7 1_555 1_555
C40 N8 1_555 1_555
C41 C42 1_555 1_555
C49 O2 1_555 1_555
C56 N9 1_555 1_555
C61 N10 1_555 1_555
C66 N11 1_555 1_555
C70 C71 1_555 1_555
C71 N12 1_555 1_555
C75 N13 1_555 1_555
C79 N14 1_555 1_555
C84 C85 1_555 1_555
C90 N15 1_555 1_555
C91 N16 1_555 1_555
C92 C93 1_555 1_555
C100 O5 1_555 1_555

#END
