
#######################################################################
#
#                 Cambridge Crystallographic Data Centre
#                                CCDC 
#
#######################################################################
#
# If this CIF has been generated from an entry in the Cambridge 
# Structural Database, then it will include bibliographic, chemical, 
# crystal, experimental, refinement or atomic coordinate data resulting 
# from the CCDC's data processing and validation procedures.
#
#######################################################################

data_OWIMEO
_chemical_formula_moiety         
'C50 H58 Li1 N8 O5 1+,2(C1 H4 O1),C2 H3 N1,Cl1 1-'
_chemical_name_systematic        
'aqua-(methanol)-(49-methoxy-1,25,30,30,39,39-hexamethyl-5,21,44,45,46,47,48,50-octaazanonacyclo[23.9.9.1^6,10^.1^11,15^.1^16,20^.1^26,29^.1^31,34^.1^35,38^.1^40,43^]pentaconta-6(50),7,9,11(49),12,14,16(48),17,19,26,28,31,33,35,37,40,42-heptadecaene-4,22-dione)-lithium chloride acetonitrile methanol solvate'
_symmetry_cell_setting           triclinic
_symmetry_space_group_name_H-M   'P -1'
_symmetry_Int_Tables_number      2
_space_group_name_Hall           '-P 1'
loop_
_symmetry_equiv_pos_site_id
_symmetry_equiv_pos_as_xyz
1 x,y,z
2 -x,-y,-z
_cell_length_a                   10.850(5)
_cell_length_b                   13.688(6)
_cell_length_c                   18.213(8)
_cell_angle_alpha                85.376(11)
_cell_angle_beta                 88.134(14)
_cell_angle_gamma                89.723(11)
_cell_volume                     2694.66
_exptl_crystal_colour            colorless
_exptl_crystal_description       block
_cell_formula_units_Z            2
loop_
_atom_site_label
_atom_site_type_symbol
_atom_site_fract_x
_atom_site_fract_y
_atom_site_fract_z
C1 C 0.3985(4) 0.9026(3) 0.1970(2)
C2 C 0.4585(4) 0.9863(3) 0.2125(3)
H1 H 0.4828 1.0389 0.1779
C3 C 0.4777(4) 0.9801(3) 0.2892(3)
H2 H 0.5181 1.0276 0.3150
C4 C 0.4278(3) 0.8936(3) 0.3198(2)
C5 C 0.4238(4) 0.8473(3) 0.3984(2)
C6 C 0.2953(4) 0.8583(3) 0.4329(2)
C7 C 0.2531(4) 0.9208(3) 0.4831(2)
H3 H 0.3010 0.9669 0.5060
C8 C 0.1246(4) 0.9040(3) 0.4948(2)
H4 H 0.0710 0.9378 0.5264
C9 C 0.0914(4) 0.8305(3) 0.4526(2)
C10 C -0.0319(4) 0.7816(3) 0.4435(2)
C11 C -0.0823(4) 0.8144(3) 0.3689(2)
C12 C -0.1580(4) 0.8905(3) 0.3473(3)
H5 H -0.1923 0.9371 0.3781
C13 C -0.1766(4) 0.8879(3) 0.2703(3)
H6 H -0.2257 0.9323 0.2410
C14 C -0.1110(4) 0.8097(3) 0.2457(2)
C15 C -0.0896(4) 0.7759(3) 0.1687(2)
C16 C 0.0208(4) 0.8317(3) 0.1318(2)
C17 C 0.0283(4) 0.9032(3) 0.0756(3)
H7 H -0.0389 0.9305 0.0488
C18 C 0.1555(4) 0.9302(3) 0.0639(3)
H8 H 0.1875 0.9788 0.0283
C19 C 0.2224(4) 0.8728(3) 0.1135(2)
C20 C 0.3607(4) 0.8671(3) 0.1245(2)
C21 C 0.5155(4) 0.9007(3) 0.4432(3)
H9 H 0.5993 0.8915 0.4231
H10 H 0.5103 0.8740 0.4948
H11 H 0.4956 0.9708 0.4403
C22 C -0.1220(4) 0.8118(3) 0.5046(2)
H12 H -0.0862 0.7955 0.5528
H13 H -0.2000 0.7766 0.5020
H14 H -0.1371 0.8825 0.4979
C23 C -0.0170(4) 0.6686(3) 0.4522(2)
H15 H 0.0486 0.6487 0.4182
H16 H -0.0947 0.6377 0.4409
H17 H 0.0046 0.6480 0.5029
C24 C -0.2052(4) 0.8042(3) 0.1235(3)
H18 H -0.2174 0.8754 0.1216
H19 H -0.2778 0.7712 0.1472
H20 H -0.1933 0.7840 0.0734
C25 C 0.4247(4) 0.9317(3) 0.0620(2)
H21 H 0.4030 1.0005 0.0669
H22 H 0.3978 0.9124 0.0144
H23 H 0.5143 0.9235 0.0647
C26 C 0.4038(4) 0.7604(3) 0.1192(2)
H24 H 0.4937 0.7571 0.1220
H25 H 0.3790 0.7377 0.0722
H26 H 0.3660 0.7186 0.1599
C27 C 0.4613(3) 0.7379(3) 0.3995(2)
H27 H 0.4545 0.7079 0.4507
H28 H 0.4033 0.7034 0.3697
C28 C 0.5942(4) 0.7237(3) 0.3689(3)
H29 H 0.6157 0.7787 0.3322
H30 H 0.6524 0.7243 0.4095
C29 C 0.6070(4) 0.6290(3) 0.3335(2)
C30 C 0.6804(4) 0.4558(3) 0.3605(2)
C31 C 0.7438(4) 0.3977(3) 0.4137(2)
H31 H 0.7746 0.4251 0.4558
C32 C 0.7601(4) 0.3000(4) 0.4036(3)
H32 H 0.8018 0.2582 0.4389
C33 C 0.7149(4) 0.2633(3) 0.3408(3)
H33 H 0.7266 0.1962 0.3323
C34 C 0.6530(4) 0.3252(3) 0.2911(2)
C35 C 0.6033(4) 0.2891(3) 0.2229(2)
C36 C 0.6829(4) 0.2553(3) 0.1683(3)
H34 H 0.7691 0.2528 0.1756
C37 C 0.6373(4) 0.2258(4) 0.1044(3)
H35 H 0.6919 0.2012 0.0683
C38 C 0.5118(4) 0.2315(3) 0.0919(3)
H36 H 0.4816 0.2133 0.0466
C39 C 0.4298(4) 0.2636(3) 0.1454(2)
C40 C 0.4764(4) 0.2906(3) 0.2115(2)
C41 C 0.2947(4) 0.2722(3) 0.1307(2)
C42 C 0.2247(4) 0.1907(3) 0.1185(3)
H37 H 0.2599 0.1269 0.1206
C43 C 0.1014(4) 0.2060(3) 0.1030(3)
H38 H 0.0510 0.1516 0.0948
C44 C 0.0510(4) 0.2983(3) 0.0995(2)
H39 H -0.0331 0.3092 0.0883
C45 C 0.1294(4) 0.3768(3) 0.1131(2)
C46 C -0.0193(4) 0.5153(4) 0.1030(3)
C47 C -0.0287(4) 0.6258(3) 0.0974(3)
H40 H -0.0888 0.6472 0.0596
H41 H 0.0525 0.6542 0.0815
C48 C -0.0697(4) 0.6646(3) 0.1715(2)
H42 H -0.1476 0.6318 0.1889
H43 H -0.0066 0.6462 0.2082
C49 C 0.3540(5) 0.2397(4) 0.3165(3)
H44 H 0.3142 0.1903 0.2892
H45 H 0.2948 0.2641 0.3525
H46 H 0.4246 0.2100 0.3422
C50 C 0.6164(5) 0.5540(6) 0.0551(3)
H47 H 0.6351 0.5043 0.0205
H48 H 0.6611 0.6145 0.0391
H49 H 0.5276 0.5673 0.0562
Li1 Li 0.5549(7) 0.5119(6) 0.2141(4)
N1 N 0.3792(3) 0.8476(3) 0.26286(19)
N2 N 0.1968(3) 0.8029(3) 0.4151(2)
N3 N -0.0537(3) 0.7662(3) 0.3069(2)
N4 N 0.1391(3) 0.8130(3) 0.15471(19)
H50 H 0.1588 0.7692 0.1905
N5 N 0.6625(3) 0.5552(3) 0.3747(2)
N6 N 0.6356(3) 0.4222(3) 0.30018(19)
N7 N 0.2485(3) 0.3632(3) 0.1287(2)
N8 N 0.0940(3) 0.4755(3) 0.1092(2)
H51 H 0.1545 0.5177 0.1110
O1 O 0.5670(3) 0.6199(2) 0.27234(18)
O2 O 0.3956(3) 0.3192(2) 0.26625(16)
O3 O -0.1113(3) 0.4638(3) 0.1014(3)
O4 O 0.6522(3) 0.5202(3) 0.1247(2)
O5 O 0.3868(3) 0.5185(3) 0.18187(19)
H52 H 0.688(5) 0.569(4) 0.425(3)
H53 H 0.197(4) 0.760(3) 0.379(3)
H54 H -0.007(7) 0.719(5) 0.306(4)
H55 H 0.352(6) 0.786(5) 0.261(3)
H56 H 0.350(4) 0.544(4) 0.214(3)
H57 H 0.350(6) 0.454(5) 0.176(4)
H58 H 0.710(5) 0.492(4) 0.129(3)
C51 C 0.0585(5) 0.3904(4) 0.3150(3)
H59 H 0.0258 0.3276 0.3367
H60 H 0.1237 0.3786 0.2783
H61 H -0.0080 0.4285 0.2912
O6 O 0.1069(4) 0.4428(3) 0.37054(19)
H62 H 0.1272 0.4992 0.3529
C52 C 0.6108(5) 0.5517(4) 0.5709(3)
H63 H 0.6232 0.5644 0.6223
H64 H 0.6029 0.4810 0.5671
H65 H 0.5355 0.5849 0.5537
O7 O 0.7131(3) 0.5878(3) 0.52659(18)
H66 H 0.776(5) 0.581(3) 0.559(3)
C53 C 0.0435(5) 0.0868(4) 0.2845(3)
C54 C 0.1226(5) 0.0017(4) 0.2845(3)
H67 H 0.0889 -0.0452 0.2526
H68 H 0.1273 -0.0291 0.3348
H69 H 0.2054 0.0216 0.2661
N9 N -0.0186(6) 0.1526(4) 0.2837(4)
Cl1 Cl 0.20860(9) 0.63865(7) 0.28602(6)
loop_
_geom_bond_atom_site_label_1
_geom_bond_atom_site_label_2
_geom_bond_site_symmetry_1
_geom_bond_site_symmetry_2
C1 C2 1_555 1_555
C2 H1 1_555 1_555
C3 C2 1_555 1_555
H2 C3 1_555 1_555
C4 C3 1_555 1_555
C5 C4 1_555 1_555
C6 C5 1_555 1_555
C7 C6 1_555 1_555
H3 C7 1_555 1_555
C8 C7 1_555 1_555
H4 C8 1_555 1_555
C9 C8 1_555 1_555
C10 C9 1_555 1_555
C11 C10 1_555 1_555
C12 C11 1_555 1_555
H5 C12 1_555 1_555
C13 C12 1_555 1_555
H6 C13 1_555 1_555
C14 C13 1_555 1_555
C15 C14 1_555 1_555
C16 C15 1_555 1_555
C17 C16 1_555 1_555
H7 C17 1_555 1_555
C18 C17 1_555 1_555
H8 C18 1_555 1_555
C19 C18 1_555 1_555
C20 C1 1_555 1_555
C21 C5 1_555 1_555
H9 C21 1_555 1_555
H10 C21 1_555 1_555
H11 C21 1_555 1_555
C22 C10 1_555 1_555
H12 C22 1_555 1_555
H13 C22 1_555 1_555
H14 C22 1_555 1_555
C23 C10 1_555 1_555
H15 C23 1_555 1_555
H16 C23 1_555 1_555
H17 C23 1_555 1_555
C24 C15 1_555 1_555
H18 C24 1_555 1_555
H19 C24 1_555 1_555
H20 C24 1_555 1_555
C25 C20 1_555 1_555
H21 C25 1_555 1_555
H22 C25 1_555 1_555
H23 C25 1_555 1_555
C26 C20 1_555 1_555
H24 C26 1_555 1_555
H25 C26 1_555 1_555
H26 C26 1_555 1_555
C27 C5 1_555 1_555
H27 C27 1_555 1_555
H28 C27 1_555 1_555
C28 C27 1_555 1_555
H29 C28 1_555 1_555
H30 C28 1_555 1_555
C29 C28 1_555 1_555
C30 C31 1_555 1_555
C31 H31 1_555 1_555
C32 C31 1_555 1_555
H32 C32 1_555 1_555
C33 C32 1_555 1_555
H33 C33 1_555 1_555
C34 C33 1_555 1_555
C35 C34 1_555 1_555
C36 C35 1_555 1_555
H34 C36 1_555 1_555
C37 C36 1_555 1_555
H35 C37 1_555 1_555
C38 C37 1_555 1_555
H36 C38 1_555 1_555
C39 C38 1_555 1_555
C40 C35 1_555 1_555
C41 C39 1_555 1_555
C42 C41 1_555 1_555
H37 C42 1_555 1_555
C43 C42 1_555 1_555
H38 C43 1_555 1_555
C44 C43 1_555 1_555
H39 C44 1_555 1_555
C45 C44 1_555 1_555
C46 C47 1_555 1_555
C47 H40 1_555 1_555
H41 C47 1_555 1_555
C48 C15 1_555 1_555
H42 C48 1_555 1_555
H43 C48 1_555 1_555
C49 H44 1_555 1_555
H45 C49 1_555 1_555
H46 C49 1_555 1_555
C50 H47 1_555 1_555
H48 C50 1_555 1_555
H49 C50 1_555 1_555
Li1 N6 1_555 1_555
N1 C1 1_555 1_555
N2 C6 1_555 1_555
N3 C11 1_555 1_555
N4 C16 1_555 1_555
H50 N4 1_555 1_555
N5 C29 1_555 1_555
N6 C30 1_555 1_555
N7 C41 1_555 1_555
N8 C45 1_555 1_555
H51 N8 1_555 1_555
O1 C29 1_555 1_555
O2 C40 1_555 1_555
O3 C46 1_555 1_555
O4 C50 1_555 1_555
O5 Li1 1_555 1_555
H52 N5 1_555 1_555
H53 N2 1_555 1_555
H54 N3 1_555 1_555
H55 N1 1_555 1_555
H56 O5 1_555 1_555
H57 O5 1_555 1_555
H58 O4 1_555 1_555
C51 H59 1_555 1_555
H60 C51 1_555 1_555
H61 C51 1_555 1_555
O6 C51 1_555 1_555
H62 O6 1_555 1_555
C52 H63 1_555 1_555
H64 C52 1_555 1_555
H65 C52 1_555 1_555
O7 C52 1_555 1_555
H66 O7 1_555 1_555
C53 C54 1_555 1_555
C54 H67 1_555 1_555
H68 C54 1_555 1_555
H69 C54 1_555 1_555
N9 C53 1_555 1_555
C4 N1 1_555 1_555
C9 N2 1_555 1_555
C14 N3 1_555 1_555
C19 C20 1_555 1_555
C19 N4 1_555 1_555
C30 N5 1_555 1_555
C34 N6 1_555 1_555
C39 C40 1_555 1_555
C45 N7 1_555 1_555
C46 N8 1_555 1_555
C47 C48 1_555 1_555
C49 O2 1_555 1_555
Li1 O1 1_555 1_555
Li1 O4 1_555 1_555

#END
