
#######################################################################
#
#                 Cambridge Crystallographic Data Centre
#                                CCDC 
#
#######################################################################
#
# If this CIF has been generated from an entry in the Cambridge 
# Structural Database, then it will include bibliographic, chemical, 
# crystal, experimental, refinement or atomic coordinate data resulting 
# from the CCDC's data processing and validation procedures.
#
#######################################################################

data_OWIMAK
_chemical_formula_moiety         'C49 H52 N8 O3,C1 H4 O1,2(H2 O1)'
_chemical_name_systematic        
'49-methoxy-1,25,30,30,39,39-hexamethyl-5,21,44,45,46,47,48,50-octaazanonacyclo[23.9.9.1^6,10^.1^11,15^.1^16,20^.1^26,29^.1^31,34^.1^35,38^.1^40,43^]pentaconta-6(50),7,9,11(49),12,14,16(48),17,19,26,28,31,33,35,37,40,42-heptadecaene-4,22-dione methanol solvate dihydrate'
_symmetry_cell_setting           triclinic
_symmetry_space_group_name_H-M   'P -1'
_symmetry_Int_Tables_number      2
_space_group_name_Hall           '-P 1'
loop_
_symmetry_equiv_pos_site_id
_symmetry_equiv_pos_as_xyz
1 x,y,z
2 -x,-y,-z
_cell_length_a                   9.700(2)
_cell_length_b                   12.142(3)
_cell_length_c                   20.293(5)
_cell_angle_alpha                93.671(15)
_cell_angle_beta                 101.175(7)
_cell_angle_gamma                102.189(7)
_cell_volume                     2278.12
_cell_formula_units_Z            2
loop_
_atom_site_label
_atom_site_type_symbol
_atom_site_fract_x
_atom_site_fract_y
_atom_site_fract_z
C1 C 0.9328(2) 0.86961(17) 0.39911(10)
C2 C 0.7946(2) 0.83013(19) 0.40798(11)
H1 H 0.7640 0.7688 0.4325
C3 C 0.7049(2) 0.89770(19) 0.37380(11)
H2 H 0.6043 0.8888 0.3713
C4 C 0.7906(2) 0.97778(18) 0.34518(10)
C5 C 0.7506(2) 1.06965(19) 0.30241(11)
C6 C 0.6778(2) 1.01471(18) 0.23148(10)
C7 C 0.5338(2) 0.9837(2) 0.19985(11)
H3 H 0.4556 0.9989 0.2179
C8 C 0.5233(2) 0.9250(2) 0.13576(11)
H4 H 0.4368 0.8944 0.1031
C9 C 0.6611(2) 0.92026(17) 0.12902(10)
C10 C 0.7127(2) 0.87610(17) 0.06904(10)
C11 C 0.8603(2) 0.84873(16) 0.08981(10)
C12 C 0.9802(2) 0.87690(17) 0.06249(10)
H5 H 0.9901 0.9240 0.0273
C13 C 1.0875(2) 0.82333(18) 0.09611(10)
H6 H 1.1813 0.8287 0.0874
C14 C 1.0307(2) 0.76259(16) 0.14334(10)
C15 C 1.0951(2) 0.68334(17) 0.18935(10)
C16 C 1.1522(2) 0.73806(16) 0.26160(10)
C17 C 1.2920(2) 0.77668(17) 0.29845(10)
H7 H 1.3774 0.7741 0.2827
C18 C 1.2856(2) 0.82098(17) 0.36407(10)
H8 H 1.3658 0.8532 0.3999
C19 C 1.1425(2) 0.80877(16) 0.36636(10)
C20 C 1.0727(2) 0.83346(17) 0.42455(10)
C21 C 0.8848(2) 1.16484(19) 0.30247(11)
H9 H 0.9304 1.1971 0.3491
H10 H 0.8553 1.2243 0.2764
H11 H 0.9537 1.1334 0.2820
C22 C 0.6423(3) 1.1224(2) 0.33309(12)
H12 H 0.5565 1.0633 0.3336
H13 H 0.6142 1.1809 0.3057
H14 H 0.6876 1.1565 0.3794
C23 C 0.7239(2) 0.96857(18) 0.01992(11)
H15 H 0.7980 1.0356 0.0419
H16 H 0.6307 0.9894 0.0077
H17 H 0.7501 0.9393 -0.0209
C24 C 1.2225(2) 0.65356(19) 0.16284(11)
H18 H 1.1891 0.6202 0.1157
H19 H 1.2613 0.5990 0.1903
H20 H 1.2981 0.7225 0.1657
C25 C 0.9797(2) 0.57236(18) 0.18637(11)
H21 H 0.8994 0.5892 0.2049
H22 H 1.0228 0.5189 0.2130
H23 H 0.9439 0.5388 0.1393
C26 C 1.1768(2) 0.92948(18) 0.47520(11)
H24 H 1.1989 0.9977 0.4523
H25 H 1.2662 0.9058 0.4928
H26 H 1.1313 0.9459 0.5127
C27 C 1.0423(2) 0.72887(18) 0.46387(10)
H27 H 1.1357 0.7134 0.4857
H28 H 0.9936 0.7479 0.5002
C28 C 0.9494(2) 0.62056(17) 0.42119(11)
H29 H 0.8917 0.6412 0.3800
H30 H 1.0133 0.5743 0.4069
C29 C 0.8483(2) 0.55011(17) 0.45896(11)
C30 C 0.6179(2) 0.40090(18) 0.43292(11)
C31 C 0.6059(2) 0.37969(19) 0.49877(11)
H31 H 0.6785 0.4159 0.5369
C32 C 0.4826(2) 0.30301(19) 0.50557(11)
H32 H 0.4695 0.2862 0.5493
C33 C 0.3780(2) 0.25058(18) 0.44908(11)
H33 H 0.2931 0.1986 0.4537
C34 C 0.4009(2) 0.27614(17) 0.38569(10)
C35 C 0.3019(2) 0.22016(17) 0.32125(11)
C36 C 0.2640(2) 0.28191(17) 0.26680(10)
C37 C 0.1937(2) 0.22561(17) 0.20285(10)
C38 C 0.1533(2) 0.10705(18) 0.19461(11)
H34 H 0.1048 0.0685 0.1514
C39 C 0.1831(2) 0.04490(18) 0.24878(12)
H35 H 0.1525 -0.0354 0.2431
C40 C 0.2583(2) 0.10149(17) 0.31136(11)
H36 H 0.2805 0.0590 0.3481
C41 C 0.1673(2) 0.29107(17) 0.14351(10)
C42 C 0.0297(2) 0.28133(18) 0.10363(11)
H37 H -0.0525 0.2339 0.1143
C43 C 0.0156(2) 0.34236(18) 0.04811(11)
H38 H -0.0766 0.3361 0.0198
C44 C 0.1368(2) 0.41259(17) 0.03408(10)
H39 H 0.1301 0.4541 -0.0041
C45 C 0.2692(2) 0.41986(17) 0.07827(10)
C46 C 0.4215(2) 0.58914(18) 0.04222(10)
C47 C 0.5697(2) 0.66862(18) 0.06900(11)
H40 H 0.5777 0.6955 0.1170
H41 H 0.6452 0.6256 0.0670
C48 C 0.5977(2) 0.77115(18) 0.02967(10)
H42 H 0.5056 0.7943 0.0151
H43 H 0.6293 0.7478 -0.0116
C49 C 0.2378(3) 0.4504(2) 0.32425(13)
H44 H 0.1341 0.4173 0.3175
H45 H 0.2534 0.5321 0.3211
H46 H 0.2868 0.4371 0.3690
N1 N 0.92849(18) 0.95906(14) 0.36044(9)
H47 H 1.0034 0.9987 0.3473
N2 N 0.75393(18) 0.97583(15) 0.18764(8)
H48 H 0.8484 0.9852 0.1959
N3 N 0.89270(18) 0.77950(14) 0.13954(8)
H49 H 0.8338 0.7504 0.1651
N4 N 1.06169(17) 0.75808(14) 0.30367(8)
H50 H 0.9668 0.7412 0.2923
N5 N 0.7345(2) 0.47641(16) 0.41671(9)
H51 H 0.7344 0.4763 0.3733
N6 N 0.51923(18) 0.35076(15) 0.37778(9)
N7 N 0.28592(18) 0.35965(14) 0.13110(8)
N8 N 0.40105(18) 0.49399(15) 0.07479(9)
H52 H 0.4799 0.4764 0.0964
O1 O 0.86546(17) 0.55978(14) 0.52034(8)
O2 O 0.29489(17) 0.39876(12) 0.27338(7)
O3 O 0.32781(16) 0.60931(14) -0.00229(8)
O4 O 0.73642(18) 0.71828(17) 0.24801(9)
H53 H 0.6562 0.7253 0.2567
H54 H 0.7385 0.6485 0.2446
O5 O 0.6135(3) 0.4999(2) 0.26350(15)
H55 H 0.5271 0.4723 0.2666
H56 H 0.6584 0.4471 0.2622
O6 O 0.6443(3) 0.3738(3) 0.14077(14)
H57 H 0.6512 0.3800 0.1005
C50 C 0.5998(5) 0.2560(4) 0.1496(2)
H58 H 0.5995 0.2484 0.1974
H59 H 0.6671 0.2145 0.1352
H60 H 0.5025 0.2249 0.1223
O7? O 0.5915(9) 0.3788(7) 0.1736(4)
C51? C 0.6685(15) 0.3007(13) 0.1486(7)
H61? H 0.6582 0.3002 0.0996
H62? H 0.6291 0.2243 0.1593
H63? H 0.7709 0.3246 0.1706
loop_
_geom_bond_atom_site_label_1
_geom_bond_atom_site_label_2
_geom_bond_site_symmetry_1
_geom_bond_site_symmetry_2
C1 C2 1_555 1_555
C2 H1 1_555 1_555
C3 C2 1_555 1_555
H2 C3 1_555 1_555
C4 C3 1_555 1_555
C5 C4 1_555 1_555
C6 C5 1_555 1_555
C7 C6 1_555 1_555
H3 C7 1_555 1_555
C8 C7 1_555 1_555
H4 C8 1_555 1_555
C9 C8 1_555 1_555
C10 C9 1_555 1_555
C11 C10 1_555 1_555
C12 C11 1_555 1_555
H5 C12 1_555 1_555
C13 C12 1_555 1_555
H6 C13 1_555 1_555
C14 C13 1_555 1_555
C15 C14 1_555 1_555
C16 C15 1_555 1_555
C17 C16 1_555 1_555
H7 C17 1_555 1_555
C18 C17 1_555 1_555
H8 C18 1_555 1_555
C19 C18 1_555 1_555
C20 C1 1_555 1_555
C21 C5 1_555 1_555
H9 C21 1_555 1_555
H10 C21 1_555 1_555
H11 C21 1_555 1_555
C22 C5 1_555 1_555
H12 C22 1_555 1_555
H13 C22 1_555 1_555
H14 C22 1_555 1_555
C23 C10 1_555 1_555
H15 C23 1_555 1_555
H16 C23 1_555 1_555
H17 C23 1_555 1_555
C24 C15 1_555 1_555
H18 C24 1_555 1_555
H19 C24 1_555 1_555
H20 C24 1_555 1_555
C25 C15 1_555 1_555
H21 C25 1_555 1_555
H22 C25 1_555 1_555
H23 C25 1_555 1_555
C26 C20 1_555 1_555
H24 C26 1_555 1_555
H25 C26 1_555 1_555
H26 C26 1_555 1_555
C27 C20 1_555 1_555
H27 C27 1_555 1_555
H28 C27 1_555 1_555
C28 C27 1_555 1_555
H29 C28 1_555 1_555
H30 C28 1_555 1_555
C29 C28 1_555 1_555
C30 C31 1_555 1_555
C31 H31 1_555 1_555
C32 C31 1_555 1_555
H32 C32 1_555 1_555
C33 C32 1_555 1_555
H33 C33 1_555 1_555
C34 C33 1_555 1_555
C35 C34 1_555 1_555
C36 C35 1_555 1_555
C37 C36 1_555 1_555
C38 C37 1_555 1_555
H34 C38 1_555 1_555
C39 C38 1_555 1_555
H35 C39 1_555 1_555
C40 C35 1_555 1_555
H36 C40 1_555 1_555
C41 C37 1_555 1_555
C42 C41 1_555 1_555
H37 C42 1_555 1_555
C43 C42 1_555 1_555
H38 C43 1_555 1_555
C44 C43 1_555 1_555
H39 C44 1_555 1_555
C45 C44 1_555 1_555
C46 C47 1_555 1_555
C47 H40 1_555 1_555
H41 C47 1_555 1_555
C48 C10 1_555 1_555
H42 C48 1_555 1_555
H43 C48 1_555 1_555
C49 H44 1_555 1_555
H45 C49 1_555 1_555
H46 C49 1_555 1_555
N1 C1 1_555 1_555
H47 N1 1_555 1_555
N2 C6 1_555 1_555
H48 N2 1_555 1_555
N3 C11 1_555 1_555
H49 N3 1_555 1_555
N4 C16 1_555 1_555
H50 N4 1_555 1_555
N5 C29 1_555 1_555
H51 N5 1_555 1_555
N6 C30 1_555 1_555
N7 C41 1_555 1_555
N8 C45 1_555 1_555
H52 N8 1_555 1_555
O1 C29 1_555 1_555
O2 C36 1_555 1_555
O3 C46 1_555 1_555
O4 H53 1_555 1_555
H54 O4 1_555 1_555
O5 H55 1_555 1_555
H56 O5 1_555 1_555
O6 H57 1_555 1_555
C50 O6 1_555 1_555
H58 C50 1_555 1_555
H59 C50 1_555 1_555
H60 C50 1_555 1_555
C4 N1 1_555 1_555
C9 N2 1_555 1_555
C14 N3 1_555 1_555
C19 C20 1_555 1_555
C19 N4 1_555 1_555
C30 N5 1_555 1_555
C34 N6 1_555 1_555
C39 C40 1_555 1_555
C45 N7 1_555 1_555
C46 N8 1_555 1_555
C47 C48 1_555 1_555
C49 O2 1_555 1_555

#END
