
#######################################################################
#
#                 Cambridge Crystallographic Data Centre
#                                CCDC 
#
#######################################################################
#
# If this CIF has been generated from an entry in the Cambridge 
# Structural Database, then it will include bibliographic, chemical, 
# crystal, experimental, refinement or atomic coordinate data resulting 
# from the CCDC's data processing and validation procedures.
#
#######################################################################

data_OWIMIS
_chemical_formula_moiety         'C50 H56 Li1 N8 O4 1+,3(C2 H3 N1),Br1 1-'
_chemical_name_systematic        
'(methanol)-(49-(methoxy)-1,25,30,30,39,39-hexamethyl-5,21,44,45,46,47,48,50-octaazanonacyclo[23.9.9.1^6,10^.1^11,15^.1^16,20^.1^26,29^.1^31,34^.1^35,38^.1^40,43^]pentaconta-6(50),7,9,11(49),12,14,16(48),17,19,26,28,31,33,35,37,40,42-heptadecaene-4,22-dione)-lithium bromide acetonitrile solvate'
_symmetry_cell_setting           triclinic
_symmetry_space_group_name_H-M   'P -1'
_symmetry_Int_Tables_number      2
_space_group_name_Hall           '-P 1'
loop_
_symmetry_equiv_pos_site_id
_symmetry_equiv_pos_as_xyz
1 x,y,z
2 -x,-y,-z
_cell_length_a                   13.8555(8)
_cell_length_b                   13.8676(8)
_cell_length_c                   14.7764(8)
_cell_angle_alpha                83.160(2)
_cell_angle_beta                 86.479(2)
_cell_angle_gamma                69.655(2)
_cell_volume                     2642.5
_exptl_crystal_colour            colorless
_exptl_crystal_description       Prism
_cell_formula_units_Z            2
loop_
_atom_site_label
_atom_site_type_symbol
_atom_site_fract_x
_atom_site_fract_y
_atom_site_fract_z
C1 C 0.20669(19) 0.49485(18) 0.38585(16)
C2 C 0.20692(19) 0.41165(18) 0.46208(16)
C3 C 0.1450(2) 0.4133(2) 0.53776(17)
H1 H 0.0888 0.4712 0.5548
C4 C 0.1792(2) 0.3132(2) 0.58670(17)
H2 H 0.1498 0.2924 0.6421
C5 C 0.26121(19) 0.25252(19) 0.54036(16)
C6 C 0.33127(19) 0.14109(19) 0.56201(16)
C7 C 0.30293(19) 0.06903(18) 0.50750(16)
C8 C 0.2667(2) -0.0095(2) 0.53578(18)
H3 H 0.2524 -0.0306 0.5972
C9 C 0.2540(2) -0.0545(2) 0.45764(18)
H4 H 0.2297 -0.1106 0.4575
C10 C 0.28294(19) -0.00221(18) 0.38283(17)
C11 C 0.28579(19) -0.01806(18) 0.28282(16)
C12 C 0.21350(19) 0.07572(18) 0.22849(16)
C13 C 0.1189(2) 0.09337(19) 0.19348(17)
H5 H 0.0810 0.0474 0.2016
C14 C 0.08751(19) 0.19240(19) 0.14286(17)
H6 H 0.0246 0.2247 0.1115
C15 C 0.16400(18) 0.23326(18) 0.14714(16)
C16 C 0.17351(19) 0.33512(18) 0.10515(16)
C17 C 0.14161(18) 0.41303(18) 0.17485(16)
C18 C 0.05623(19) 0.49882(18) 0.18215(17)
H7 H 0.0007 0.5246 0.1410
C19 C 0.06482(19) 0.54296(18) 0.26216(17)
H8 H 0.0163 0.6034 0.2838
C20 C 0.15552(19) 0.48279(18) 0.30223(16)
C21 C 0.31929(19) 0.48712(19) 0.36027(17)
H9 H 0.3514 0.4984 0.4142
H10 H 0.3583 0.4162 0.3447
C22 C 0.3291(2) 0.56486(19) 0.27985(18)
H11 H 0.2719 0.5802 0.2372
H12 H 0.3261 0.6303 0.3023
C23 C 0.4310(2) 0.51672(18) 0.23201(17)
C24 C 0.6127(2) 0.51279(19) 0.22717(17)
C25 C 0.6768(2) 0.5578(2) 0.2619(2)
H13 H 0.6508 0.6089 0.3032
C26 C 0.7781(2) 0.5260(2) 0.2345(2)
H14 H 0.8242 0.5536 0.2579
C27 C 0.8132(2) 0.4532(2) 0.17243(19)
H15 H 0.8830 0.4314 0.1518
C28 C 0.7446(2) 0.41282(19) 0.14102(17)
C29 C 0.77891(19) 0.33602(19) 0.07299(17)
C30 C 0.83042(19) 0.35587(19) -0.00733(18)
H16 H 0.8409 0.4204 -0.0198
C31 C 0.8664(2) 0.2830(2) -0.06891(18)
H17 H 0.9012 0.2976 -0.1234
C32 C 0.8517(2) 0.1887(2) -0.05103(17)
H18 H 0.8779 0.1381 -0.0927
C33 C 0.79859(19) 0.16744(19) 0.02762(17)
C34 C 0.76292(19) 0.24182(19) 0.08912(17)
C35 C 0.7819(2) 0.06658(19) 0.04684(16)
C36 C 0.8642(2) -0.0253(2) 0.04923(19)
H19 H 0.9320 -0.0255 0.0348
C37 C 0.8459(2) -0.1166(2) 0.07301(19)
H20 H 0.9016 -0.1805 0.0758
C38 C 0.7473(2) -0.1154(2) 0.09267(18)
H21 H 0.7335 -0.1777 0.1097
C39 C 0.6684(2) -0.01966(19) 0.08677(16)
C40 C 0.4087(2) -0.0466(2) 0.14149(17)
C41 C 0.39754(19) -0.04161(18) 0.24513(16)
H22 H 0.4232 0.0125 0.2607
H23 H 0.4416 -0.1086 0.2758
C42 C 0.1477(2) 0.60131(19) 0.41839(18)
H24 H 0.0767 0.6061 0.4350
H25 H 0.1473 0.6556 0.3693
H26 H 0.1814 0.6101 0.4717
C43 C 0.3192(2) 0.1088(2) 0.66409(17)
H27 H 0.3383 0.1541 0.7001
H28 H 0.3641 0.0371 0.6791
H29 H 0.2474 0.1147 0.6781
C44 C 0.4441(2) 0.1319(2) 0.54254(18)
H30 H 0.4544 0.1484 0.4771
H31 H 0.4891 0.0611 0.5615
H32 H 0.4609 0.1803 0.5765
C45 C 0.2535(2) -0.11201(19) 0.27444(18)
H33 H 0.3011 -0.1734 0.3084
H34 H 0.2552 -0.1234 0.2101
H35 H 0.1835 -0.0990 0.2995
C46 C 0.10168(19) 0.37537(18) 0.02404(16)
H36 H 0.1238 0.3264 -0.0222
H37 H 0.1041 0.4428 -0.0023
H38 H 0.0311 0.3827 0.0446
C47 C 0.28398(19) 0.32040(19) 0.06961(17)
H39 H 0.3313 0.2965 0.1208
H40 H 0.2870 0.3864 0.0399
H41 H 0.3040 0.2689 0.0256
C48 C 0.7638(3) 0.1521(2) 0.23730(19)
H42 H 0.8078 0.0894 0.2111
H43 H 0.7161 0.1346 0.2825
H44 H 0.8066 0.1820 0.2668
C49 C 0.5339(3) 0.3336(2) -0.04326(19)
H45 H 0.4984 0.3046 -0.0821
H46 H 0.6031 0.3251 -0.0685
H47 H 0.4949 0.4073 -0.0408
Li1 Li 0.5574(4) 0.3362(4) 0.1541(3)
N1 N 0.20163(15) 0.40367(15) 0.24843(13)
H48 H 0.2611 0.3541 0.2596
N2 N 0.27740(16) 0.31261(15) 0.46389(13)
H49 H 0.3258 0.2909 0.4221
N3 N 0.31214(16) 0.07298(15) 0.41409(13)
H50 H 0.3338 0.1176 0.3790
N4 N 0.23992(16) 0.16210(15) 0.20041(13)
H51 H 0.2971 0.1704 0.2146
N5 N 0.50932(17) 0.54593(16) 0.25640(15)
H52 H 0.4926 0.5920 0.2960
N6 N 0.64475(16) 0.44045(16) 0.16923(14)
N7 N 0.68453(16) 0.07004(16) 0.06385(14)
N8 N 0.56470(17) -0.00705(17) 0.10529(15)
O1 O 0.5755(4) -0.1792(4) 0.1219(3)
C50 C 0.5277(14) -0.0872(7) 0.1214(4)
O2 O 0.70673(14) 0.22519(13) 0.16677(11)
O3 O 0.44063(14) 0.45280(14) 0.17891(13)
O4 O 0.54152(14) 0.28105(13) 0.04614(12)
H53 H 0.576(2) 0.2172(8) 0.0406(12)
C52 C 0.9885(3) -0.1156(3) 0.3200(2)
C53 C 0.9884(3) -0.0673(5) 0.4012(3)
H54 H 0.9908 0.0024 0.3841
H55 H 1.0488 -0.1086 0.4373
H56 H 0.9257 -0.0628 0.4375
N9 N 0.9899(3) -0.1530(3) 0.2562(2)
C54 C -0.0371(3) 0.2487(3) 0.3886(2)
C55 C 0.0544(2) 0.2769(2) 0.3731(2)
H57 H 0.0390 0.3401 0.3307
H58 H 0.1095 0.2207 0.3470
H59 H 0.0766 0.2891 0.4311
N10 N -0.1087(3) 0.2257(3) 0.4021(2)
C56 C 0.4241(2) 0.6714(2) 0.4926(2)
C57 C 0.3807(3) 0.6938(3) 0.5825(2)
H60 H 0.3059 0.7273 0.5787
H61 H 0.4102 0.7400 0.6067
H62 H 0.3967 0.6292 0.6231
N11 N 0.4577(2) 0.6556(2) 0.4214(2)
Br1 Br 0.45513(2) 0.20759(2) 0.27868(2)
O5? O 0.5586(6) -0.1559(6) 0.0756(4)
C51? C 0.513(2) -0.0752(9) 0.1056(5)
loop_
_geom_bond_atom_site_label_1
_geom_bond_atom_site_label_2
_geom_bond_site_symmetry_1
_geom_bond_site_symmetry_2
C1 C2 1_555 1_555
C2 C3 1_555 1_555
C3 H1 1_555 1_555
C4 C3 1_555 1_555
H2 C4 1_555 1_555
C5 C4 1_555 1_555
C6 C5 1_555 1_555
C7 C6 1_555 1_555
C8 C7 1_555 1_555
H3 C8 1_555 1_555
C9 C8 1_555 1_555
H4 C9 1_555 1_555
C10 C9 1_555 1_555
C11 C10 1_555 1_555
C12 C11 1_555 1_555
C13 C12 1_555 1_555
H5 C13 1_555 1_555
C14 C13 1_555 1_555
H6 C14 1_555 1_555
C15 C14 1_555 1_555
C16 C15 1_555 1_555
C17 C16 1_555 1_555
C18 C17 1_555 1_555
H7 C18 1_555 1_555
C19 C18 1_555 1_555
H8 C19 1_555 1_555
C20 C1 1_555 1_555
C21 C1 1_555 1_555
H9 C21 1_555 1_555
H10 C21 1_555 1_555
C22 C21 1_555 1_555
H11 C22 1_555 1_555
H12 C22 1_555 1_555
C23 C22 1_555 1_555
C24 C25 1_555 1_555
C25 H13 1_555 1_555
C26 C25 1_555 1_555
H14 C26 1_555 1_555
C27 C26 1_555 1_555
H15 C27 1_555 1_555
C28 C27 1_555 1_555
C29 C28 1_555 1_555
C30 C29 1_555 1_555
H16 C30 1_555 1_555
C31 C30 1_555 1_555
H17 C31 1_555 1_555
C32 C31 1_555 1_555
H18 C32 1_555 1_555
C33 C32 1_555 1_555
C34 C29 1_555 1_555
C35 C33 1_555 1_555
C36 C35 1_555 1_555
H19 C36 1_555 1_555
C37 C36 1_555 1_555
H20 C37 1_555 1_555
C38 C37 1_555 1_555
H21 C38 1_555 1_555
C39 C38 1_555 1_555
C40 C41 1_555 1_555
C41 C11 1_555 1_555
H22 C41 1_555 1_555
H23 C41 1_555 1_555
C42 C1 1_555 1_555
H24 C42 1_555 1_555
H25 C42 1_555 1_555
H26 C42 1_555 1_555
C43 C6 1_555 1_555
H27 C43 1_555 1_555
H28 C43 1_555 1_555
H29 C43 1_555 1_555
C44 C6 1_555 1_555
H30 C44 1_555 1_555
H31 C44 1_555 1_555
H32 C44 1_555 1_555
C45 C11 1_555 1_555
H33 C45 1_555 1_555
H34 C45 1_555 1_555
H35 C45 1_555 1_555
C46 C16 1_555 1_555
H36 C46 1_555 1_555
H37 C46 1_555 1_555
H38 C46 1_555 1_555
C47 C16 1_555 1_555
H39 C47 1_555 1_555
H40 C47 1_555 1_555
H41 C47 1_555 1_555
C48 H42 1_555 1_555
H43 C48 1_555 1_555
H44 C48 1_555 1_555
C49 H45 1_555 1_555
H46 C49 1_555 1_555
H47 C49 1_555 1_555
Li1 N6 1_555 1_555
N1 C17 1_555 1_555
H48 N1 1_555 1_555
N2 C2 1_555 1_555
H49 N2 1_555 1_555
N3 C7 1_555 1_555
H50 N3 1_555 1_555
N4 C12 1_555 1_555
H51 N4 1_555 1_555
N5 C23 1_555 1_555
H52 N5 1_555 1_555
N6 C24 1_555 1_555
N7 C35 1_555 1_555
N8 C39 1_555 1_555
O1 C50 1_555 1_555
C50 C40 1_555 1_555
O2 C34 1_555 1_555
O3 C23 1_555 1_555
O4 C49 1_555 1_555
H53 O4 1_555 1_555
C52 C53 1_555 1_555
C53 H54 1_555 1_555
H55 C53 1_555 1_555
H56 C53 1_555 1_555
N9 C52 1_555 1_555
C54 C55 1_555 1_555
C55 H57 1_555 1_555
H58 C55 1_555 1_555
H59 C55 1_555 1_555
N10 C54 1_555 1_555
C56 C57 1_555 1_555
C57 H60 1_555 1_555
H61 C57 1_555 1_555
H62 C57 1_555 1_555
N11 C56 1_555 1_555
C5 N2 1_555 1_555
C10 N3 1_555 1_555
C15 N4 1_555 1_555
C19 C20 1_555 1_555
C20 N1 1_555 1_555
C24 N5 1_555 1_555
C28 N6 1_555 1_555
C33 C34 1_555 1_555
C39 N7 1_555 1_555
C48 O2 1_555 1_555
Li1 O2 1_555 1_555
Li1 O3 1_555 1_555
Li1 O4 1_555 1_555
N8 C50 1_555 1_555

#END
