
#######################################################################
#
#                 Cambridge Crystallographic Data Centre
#                                CCDC 
#
#######################################################################
#
# If this CIF has been generated from an entry in the Cambridge 
# Structural Database, then it will include bibliographic, chemical, 
# crystal, experimental, refinement or atomic coordinate data resulting 
# from the CCDC's data processing and validation procedures.
#
#######################################################################

data_OWIPAN
_chemical_formula_moiety         'C56 H76 S8 Si8,3(H2 O1)'
_chemical_name_systematic        
"8,7:19,20-bis(epithiometheno)bisthieno[3'',4'':4',5';3''',4''':6',7']cycloocta[1',2':3,4]tristhieno[2',3',4':6,7;3'',4'':10,11;3''',4''':8,9]octaleno[1,12-bc]thiene-1,6,10,11,16,17,21,24-octayloctakis(trimethylsilane) trihydrate"
_symmetry_cell_setting           monoclinic
_symmetry_space_group_name_H-M   'C 2/c'
_symmetry_Int_Tables_number      15
_space_group_name_Hall           '-C 2yn'
loop_
_symmetry_equiv_pos_site_id
_symmetry_equiv_pos_as_xyz
1 x,y,z
2 -x,y,1/2-z
3 1/2+x,1/2+y,z
4 1/2-x,1/2+y,1/2-z
5 -x,-y,-z
6 x,-y,1/2+z
7 1/2-x,1/2-y,-z
8 1/2+x,1/2-y,1/2+z
_cell_length_a                   55.402(9)
_cell_length_b                   18.757(3)
_cell_length_c                   14.450(3)
_cell_angle_alpha                90
_cell_angle_beta                 102.502(3)
_cell_angle_gamma                90
_cell_volume                     14660
_exptl_crystal_colour            colorless
_exptl_crystal_description       block
_cell_formula_units_Z            8
loop_
_atom_site_label
_atom_site_type_symbol
_atom_site_fract_x
_atom_site_fract_y
_atom_site_fract_z
Si1 Si 0.19511(4) 0.32105(11) 0.48689(14)
Si2 Si 0.21359(4) 0.12170(12) 0.66851(15)
Si3 Si 0.05614(4) 0.23285(12) 0.46866(15)
Si4 Si 0.08550(3) 0.00144(10) 0.54337(13)
Si5 Si 0.20760(4) 0.36665(12) 0.95474(17)
Si6 Si 0.18261(4) 0.18104(12) 1.12385(14)
Si7 Si 0.08582(3) 0.49862(10) 0.84506(14)
Si8 Si 0.05106(4) 0.26758(11) 0.85747(15)
C1 C 0.21914(15) 0.3821(5) 0.5561(7)
H1 H 0.2112 0.4210 0.5809
H2 H 0.2293 0.4003 0.5154
H3 H 0.2293 0.3562 0.6076
C2 C 0.17521(16) 0.3710(5) 0.3877(6)
H4 H 0.1630 0.3394 0.3522
H5 H 0.1852 0.3898 0.3470
H6 H 0.1672 0.4094 0.4129
C3 C 0.21062(15) 0.2453(4) 0.4391(5)
H7 H 0.1983 0.2142 0.4032
H8 H 0.2206 0.2194 0.4907
H9 H 0.2209 0.2635 0.3988
C4 C 0.17401(11) 0.2929(3) 0.5672(4)
C5 C 0.16170(11) 0.2314(3) 0.5792(4)
C6 C 0.14322(10) 0.2413(3) 0.6360(4)
C7 C 0.14273(10) 0.3094(3) 0.6691(4)
C8 C 0.12785(10) 0.3388(3) 0.7316(4)
C9 C 0.12441(10) 0.3104(3) 0.8150(4)
C10 C 0.10777(10) 0.3520(3) 0.8575(4)
C11 C 0.10018(11) 0.4148(3) 0.8107(4)
C12 C 0.07054(18) 0.4842(4) 0.9455(6)
H10 H 0.0572 0.4508 0.9271
H11 H 0.0641 0.5287 0.9627
H12 H 0.0823 0.4656 0.9986
C13 C 0.06414(19) 0.5336(5) 0.7392(7)
H13 H 0.0507 0.5006 0.7201
H14 H 0.0727 0.5396 0.6886
H15 H 0.0577 0.5787 0.7541
C14 C 0.11145(18) 0.5642(5) 0.8805(8)
H16 H 0.1049 0.6082 0.8990
H17 H 0.1191 0.5728 0.8280
H18 H 0.1235 0.5455 0.9328
C15 C 0.10018(11) 0.3297(3) 0.9476(4)
C16 C 0.11602(12) 0.3400(3) 1.0384(4)
C17 C 0.10476(15) 0.3213(4) 1.1103(5)
H19 H 0.1122 0.3251 1.1743
C18 C 0.07725(12) 0.3017(3) 0.9506(4)
C19 C 0.03752(15) 0.3369(5) 0.7702(6)
H20 H 0.0500 0.3544 0.7390
H21 H 0.0314 0.3756 0.8024
H22 H 0.0241 0.3168 0.7242
C20 C 0.02668(17) 0.2346(6) 0.9180(8)
H23 H 0.0335 0.1985 0.9632
H24 H 0.0132 0.2148 0.8718
H25 H 0.0207 0.2735 0.9501
C21 C 0.06349(19) 0.1925(5) 0.7989(7)
H26 H 0.0761 0.2098 0.7685
H27 H 0.0504 0.1715 0.7524
H28 H 0.0704 0.1574 0.8455
C22 C 0.06725(19) 0.3061(5) 0.5540(7)
H29 H 0.0787 0.2873 0.6080
H30 H 0.0535 0.3271 0.5743
H31 H 0.0753 0.3418 0.5239
C23 C 0.0343(2) 0.2695(7) 0.3610(8)
H32 H 0.0286 0.2315 0.3172
H33 H 0.0427 0.3046 0.3312
H34 H 0.0204 0.2912 0.3798
C24 C 0.03978(16) 0.1648(5) 0.5242(7)
H35 H 0.0340 0.1275 0.4794
H36 H 0.0259 0.1864 0.5435
H37 H 0.0509 0.1452 0.5786
C25 C 0.08406(12) 0.1971(4) 0.4297(4)
C26 C 0.10611(11) 0.1684(3) 0.4771(4)
C27 C 0.12388(12) 0.1609(3) 0.4190(4)
C28 C 0.11458(15) 0.1824(4) 0.3286(5)
H38 H 0.1234 0.1807 0.2807
C29 C 0.11123(10) 0.1437(3) 0.5780(4)
C30 C 0.10138(11) 0.0826(3) 0.6074(4)
C31 C 0.12707(10) 0.1822(3) 0.6532(4)
C32 C 0.12732(10) 0.1538(3) 0.7416(4)
C33 C 0.13965(10) 0.1823(3) 0.8342(4)
C34 C 0.13921(10) 0.2508(3) 0.8661(4)
C35 C 0.15459(10) 0.2610(3) 0.9585(4)
C36 C 0.16510(11) 0.1992(3) 0.9990(4)
C37 C 0.15923(11) 0.3318(3) 1.0053(4)
C38 C 0.14159(12) 0.3671(3) 1.0499(4)
C39 C 0.15049(14) 0.4271(4) 1.0970(5)
H39 H 0.1417 0.4552 1.1310
C40 C 0.18112(13) 0.3695(4) 1.0163(5)
C41 C 0.2018(2) 0.4366(5) 0.8622(7)
H40 H 0.2150 0.4367 0.8287
H41 H 0.2009 0.4822 0.8913
H42 H 0.1864 0.4270 0.8185
C42 C 0.23641(16) 0.3905(6) 1.0390(8)
H43 H 0.2499 0.3897 1.0072
H44 H 0.2395 0.3569 1.0903
H45 H 0.2349 0.4375 1.0635
C43 C 0.20993(19) 0.2795(5) 0.8980(8)
H46 H 0.2235 0.2803 0.8665
H47 H 0.1949 0.2700 0.8527
H48 H 0.2127 0.2428 0.9455
C44 C 0.1667(3) 0.2340(8) 1.2034(9)
H49 H 0.1751 0.2269 1.2682
H50 H 0.1499 0.2187 1.1948
H51 H 0.1672 0.2837 1.1879
C45 C 0.2141(3) 0.1942(9) 1.1435(10)
H52 H 0.2208 0.1652 1.1004
H53 H 0.2216 0.1812 1.2075
H54 H 0.2174 0.2435 1.1335
C46 C 0.1774(3) 0.0900(7) 1.1603(8)
H55 H 0.1850 0.0569 1.1246
H56 H 0.1600 0.0808 1.1489
H57 H 0.1845 0.0844 1.2267
C47 C 0.23013(17) 0.2098(5) 0.6913(7)
H58 H 0.2374 0.2216 0.6385
H59 H 0.2429 0.2065 0.7478
H60 H 0.2186 0.2463 0.6991
C48 C 0.19950(16) 0.0992(5) 0.7692(6)
H61 H 0.1912 0.0541 0.7576
H62 H 0.1878 0.1355 0.7763
H63 H 0.2122 0.0964 0.8261
C49 C 0.23724(19) 0.0543(6) 0.6520(8)
H64 H 0.2295 0.0084 0.6399
H65 H 0.2501 0.0520 0.7083
H66 H 0.2442 0.0679 0.5993
C50 C 0.18777(12) 0.1226(4) 0.5597(5)
C51 C 0.16629(11) 0.1614(3) 0.5346(4)
C52 C 0.14900(12) 0.1325(3) 0.4550(4)
C53 C 0.15832(14) 0.0743(4) 0.4179(5)
H67 H 0.1500 0.0494 0.3649
C54 C 0.1087(2) -0.0712(5) 0.5604(8)
H68 H 0.1013 -0.1135 0.5291
H69 H 0.1143 -0.0806 0.6268
H70 H 0.1224 -0.0572 0.5340
C55 C 0.07472(17) 0.0173(5) 0.4136(5)
H71 H 0.0668 -0.0248 0.3840
H72 H 0.0886 0.0287 0.3866
H73 H 0.0632 0.0563 0.4034
C56 C 0.06020(19) -0.0276(5) 0.6016(7)
H74 H 0.0521 -0.0687 0.5694
H75 H 0.0484 0.0104 0.5987
H76 H 0.0670 -0.0394 0.6666
S1 S 0.18704(4) 0.05291(11) 0.48052(14)
S2 S 0.08531(4) 0.21260(13) 0.31238(12)
S3 S 0.16376(3) 0.36240(8) 0.62784(11)
S4 S 0.11007(3) 0.07619(8) 0.73030(10)
S5 S 0.15724(3) 0.12899(8) 0.92079(10)
S6 S 0.11209(3) 0.41870(8) 0.70855(11)
S7 S 0.17988(4) 0.44444(12) 1.08616(18)
S8 S 0.07569(4) 0.29058(12) 1.06851(13)
O1 O -0.00364(16) 0.0384(5) 0.6451(6)
O2 O 0.00498(17) 0.4320(5) 0.5443(7)
O3 O -0.0037(3) 0.5338(9) 0.6376(13)
loop_
_geom_bond_atom_site_label_1
_geom_bond_atom_site_label_2
_geom_bond_site_symmetry_1
_geom_bond_site_symmetry_2
Si1 C1 1_555 1_555
Si2 C47 1_555 1_555
Si3 C22 1_555 1_555
Si4 C30 1_555 1_555
Si5 C40 1_555 1_555
Si6 C36 1_555 1_555
Si7 C11 1_555 1_555
Si8 C18 1_555 1_555
C1 H1 1_555 1_555
H2 C1 1_555 1_555
H3 C1 1_555 1_555
C2 Si1 1_555 1_555
H4 C2 1_555 1_555
H5 C2 1_555 1_555
H6 C2 1_555 1_555
C3 Si1 1_555 1_555
H7 C3 1_555 1_555
H8 C3 1_555 1_555
H9 C3 1_555 1_555
C4 Si1 1_555 1_555
C5 C4 1_555 1_555
C6 C5 1_555 1_555
C7 C6 1_555 1_555
C8 C7 1_555 1_555
C9 C8 1_555 1_555
C10 C9 1_555 1_555
C11 C10 1_555 1_555
C12 Si7 1_555 1_555
H10 C12 1_555 1_555
H11 C12 1_555 1_555
H12 C12 1_555 1_555
C13 Si7 1_555 1_555
H13 C13 1_555 1_555
H14 C13 1_555 1_555
H15 C13 1_555 1_555
C14 Si7 1_555 1_555
H16 C14 1_555 1_555
H17 C14 1_555 1_555
H18 C14 1_555 1_555
C15 C10 1_555 1_555
C16 C15 1_555 1_555
C17 C16 1_555 1_555
H19 C17 1_555 1_555
C18 C15 1_555 1_555
C19 Si8 1_555 1_555
H20 C19 1_555 1_555
H21 C19 1_555 1_555
H22 C19 1_555 1_555
C20 Si8 1_555 1_555
H23 C20 1_555 1_555
H24 C20 1_555 1_555
H25 C20 1_555 1_555
C21 Si8 1_555 1_555
H26 C21 1_555 1_555
H27 C21 1_555 1_555
H28 C21 1_555 1_555
C22 H29 1_555 1_555
H30 C22 1_555 1_555
H31 C22 1_555 1_555
C23 Si3 1_555 1_555
H32 C23 1_555 1_555
H33 C23 1_555 1_555
H34 C23 1_555 1_555
C24 Si3 1_555 1_555
H35 C24 1_555 1_555
H36 C24 1_555 1_555
H37 C24 1_555 1_555
C25 Si3 1_555 1_555
C26 C25 1_555 1_555
C27 C26 1_555 1_555
C28 C27 1_555 1_555
H38 C28 1_555 1_555
C29 C26 1_555 1_555
C30 C29 1_555 1_555
C31 C6 1_555 1_555
C32 C31 1_555 1_555
C33 C32 1_555 1_555
C34 C9 1_555 1_555
C35 C34 1_555 1_555
C36 C35 1_555 1_555
C37 C35 1_555 1_555
C38 C16 1_555 1_555
C39 C38 1_555 1_555
H39 C39 1_555 1_555
C40 C37 1_555 1_555
C41 Si5 1_555 1_555
H40 C41 1_555 1_555
H41 C41 1_555 1_555
H42 C41 1_555 1_555
C42 Si5 1_555 1_555
H43 C42 1_555 1_555
H44 C42 1_555 1_555
H45 C42 1_555 1_555
C43 Si5 1_555 1_555
H46 C43 1_555 1_555
H47 C43 1_555 1_555
H48 C43 1_555 1_555
C44 Si6 1_555 1_555
H49 C44 1_555 1_555
H50 C44 1_555 1_555
H51 C44 1_555 1_555
C45 Si6 1_555 1_555
H52 C45 1_555 1_555
H53 C45 1_555 1_555
H54 C45 1_555 1_555
C46 Si6 1_555 1_555
H55 C46 1_555 1_555
H56 C46 1_555 1_555
H57 C46 1_555 1_555
C47 H58 1_555 1_555
H59 C47 1_555 1_555
H60 C47 1_555 1_555
C48 Si2 1_555 1_555
H61 C48 1_555 1_555
H62 C48 1_555 1_555
H63 C48 1_555 1_555
C49 Si2 1_555 1_555
H64 C49 1_555 1_555
H65 C49 1_555 1_555
H66 C49 1_555 1_555
C50 Si2 1_555 1_555
C51 C5 1_555 1_555
C52 C27 1_555 1_555
C53 C52 1_555 1_555
H67 C53 1_555 1_555
C54 Si4 1_555 1_555
H68 C54 1_555 1_555
H69 C54 1_555 1_555
H70 C54 1_555 1_555
C55 Si4 1_555 1_555
H71 C55 1_555 1_555
H72 C55 1_555 1_555
H73 C55 1_555 1_555
C56 Si4 1_555 1_555
H74 C56 1_555 1_555
H75 C56 1_555 1_555
H76 C56 1_555 1_555
S1 C50 1_555 1_555
S2 C25 1_555 1_555
S3 C4 1_555 1_555
S4 C30 1_555 1_555
S5 C33 1_555 1_555
S6 C8 1_555 1_555
S7 C39 1_555 1_555
S8 C17 1_555 1_555
C7 S3 1_555 1_555
C11 S6 1_555 1_555
C18 S8 1_555 1_555
C28 S2 1_555 1_555
C29 C31 1_555 1_555
C32 S4 1_555 1_555
C33 C34 1_555 1_555
C36 S5 1_555 1_555
C37 C38 1_555 1_555
C40 S7 1_555 1_555
C50 C51 1_555 1_555
C51 C52 1_555 1_555
C53 S1 1_555 1_555

#END
