
#######################################################################
#
#                 Cambridge Crystallographic Data Centre
#                                CCDC 
#
#######################################################################
#
# If this CIF has been generated from an entry in the Cambridge 
# Structural Database, then it will include bibliographic, chemical, 
# crystal, experimental, refinement or atomic coordinate data resulting 
# from the CCDC's data processing and validation procedures.
#
#######################################################################

data_OWIXEZ
_chemical_formula_moiety         'C30 H38 N6'
_chemical_name_systematic        
2,3-bis((4-(dipropylamino)benzylidene)amino)but-2-enedinitrile
_symmetry_cell_setting           triclinic
_symmetry_space_group_name_H-M   'P -1'
_symmetry_Int_Tables_number      2
_space_group_name_Hall           '-P 1'
loop_
_symmetry_equiv_pos_site_id
_symmetry_equiv_pos_as_xyz
1 x,y,z
2 -x,-y,-z
_cell_length_a                   7.4020(4)
_cell_length_b                   9.3914(4)
_cell_length_c                   11.7117(6)
_cell_angle_alpha                68.767(2)
_cell_angle_beta                 88.304(3)
_cell_angle_gamma                71.346(2)
_cell_volume                     715.571
_exptl_crystal_colour            violet
_exptl_crystal_description       chunk
_cell_formula_units_Z            1
loop_
_atom_site_label
_atom_site_type_symbol
_atom_site_fract_x
_atom_site_fract_y
_atom_site_fract_z
N1 N 0.0517(5) 0.8253(4) 0.3272(3)
N2 N 0.2523(4) 0.8984(3) 0.5558(2)
N3 N 1.1370(4) 0.5767(4) 0.7823(3)
C1 C 0.0551(5) 0.8794(4) 0.3993(3)
C2 C 0.0769(4) 0.9441(3) 0.4909(3)
C3 C 0.3985(5) 0.7864(4) 0.5420(3)
H1 H 0.3823 0.7383 0.4880
C4 C 0.5842(4) 0.7338(3) 0.6068(3)
C5 C 0.6271(5) 0.8062(4) 0.6825(3)
H2 H 0.5316 0.8917 0.6931
C6 C 0.8061(5) 0.7546(4) 0.7416(3)
H3 H 0.8289 0.8052 0.7921
C7 C 0.9572(5) 0.6263(4) 0.7280(3)
C8 C 0.9104(5) 0.5512(4) 0.6540(3)
H4 H 1.0038 0.4629 0.6455
C9 C 0.7316(5) 0.6045(4) 0.5946(3)
H5 H 0.7073 0.5534 0.5449
C10 C 1.1990(6) 0.6757(6) 0.8393(4)
H6 H 1.3339 0.6610 0.8313
H7 H 1.1266 0.7896 0.7976
C11 C 1.1666(7) 0.6250(6) 0.9645(4)
H8 H 1.2482 0.5144 1.0089
H9 H 1.0340 0.6311 0.9738
C12 C 1.2184(8) 0.7498(7) 1.0166(5)
H10 H 1.1989 0.7209 1.1024
H11 H 1.3498 0.7425 1.0064
H12 H 1.1368 0.8586 0.9715
C13 C 1.2921(5) 0.4458(5) 0.7655(4)
H13 H 1.4134 0.4564 0.7831
H14 H 1.2826 0.4573 0.6800
C14 C 1.2921(5) 0.2812(5) 0.8446(4)
H15 H 1.1650 0.2750 0.8372
H16 H 1.3240 0.2616 0.9300
C15 C 1.4375(6) 0.1505(5) 0.8076(4)
H17 H 1.4347 0.0456 0.8599
H18 H 1.4048 0.1688 0.7235
H19 H 1.5636 0.1555 0.8161
N1A N -0.0517(5) 1.1747(4) 0.6728(3)
N2A N -0.2523(4) 1.1016(3) 0.4442(2)
N3A N -1.1370(4) 1.4233(4) 0.2177(3)
C1A C -0.0551(5) 1.1206(4) 0.6007(3)
C2A C -0.0769(4) 1.0559(3) 0.5091(3)
C3A C -0.3985(5) 1.2136(4) 0.4580(3)
H1A H -0.3823 1.2617 0.5120
C4A C -0.5842(4) 1.2662(3) 0.3932(3)
C5A C -0.6271(5) 1.1938(4) 0.3175(3)
H2A H -0.5316 1.1083 0.3069
C6A C -0.8061(5) 1.2454(4) 0.2584(3)
H3A H -0.8289 1.1948 0.2079
C7A C -0.9572(5) 1.3737(4) 0.2720(3)
C8A C -0.9104(5) 1.4488(4) 0.3460(3)
H4A H -1.0038 1.5371 0.3545
C9A C -0.7316(5) 1.3955(4) 0.4054(3)
H5A H -0.7073 1.4466 0.4551
C10A C -1.1990(6) 1.3243(6) 0.1607(4)
H6A H -1.3339 1.3390 0.1687
H7A H -1.1266 1.2104 0.2024
C11A C -1.1666(7) 1.3750(6) 0.0355(4)
H8A H -1.2482 1.4856 -0.0089
H9A H -1.0340 1.3689 0.0262
C12A C -1.2184(8) 1.2502(7) -0.0166(5)
H10A H -1.1989 1.2791 -0.1024
H11A H -1.3498 1.2575 -0.0064
H12A H -1.1368 1.1414 0.0285
C13A C -1.2921(5) 1.5542(5) 0.2345(4)
H13A H -1.4134 1.5436 0.2169
H14A H -1.2826 1.5427 0.3200
C14A C -1.2921(5) 1.7188(5) 0.1554(4)
H15A H -1.1650 1.7250 0.1628
H16A H -1.3240 1.7384 0.0700
C15A C -1.4375(6) 1.8495(5) 0.1924(4)
H17A H -1.4347 1.9544 0.1401
H18A H -1.4048 1.8312 0.2765
H19A H -1.5636 1.8445 0.1839
loop_
_geom_bond_atom_site_label_1
_geom_bond_atom_site_label_2
_geom_bond_site_symmetry_1
_geom_bond_site_symmetry_2
N1 C1 1_555 1_555
N2 C2 1_555 1_555
N3 C7 1_555 1_555
C1 C2 1_555 1_555
C2 C2A 1_555 1_555
C3 N2 1_555 1_555
H1 C3 1_555 1_555
C4 C3 1_555 1_555
C5 C4 1_555 1_555
H2 C5 1_555 1_555
C6 C5 1_555 1_555
H3 C6 1_555 1_555
C7 C6 1_555 1_555
C8 C7 1_555 1_555
H4 C8 1_555 1_555
C9 C4 1_555 1_555
H5 C9 1_555 1_555
C10 N3 1_555 1_555
H6 C10 1_555 1_555
H7 C10 1_555 1_555
C11 C10 1_555 1_555
H8 C11 1_555 1_555
H9 C11 1_555 1_555
C12 C11 1_555 1_555
H10 C12 1_555 1_555
H11 C12 1_555 1_555
H12 C12 1_555 1_555
C13 N3 1_555 1_555
H13 C13 1_555 1_555
H14 C13 1_555 1_555
C14 C13 1_555 1_555
H15 C14 1_555 1_555
H16 C14 1_555 1_555
C15 C14 1_555 1_555
H17 C15 1_555 1_555
H18 C15 1_555 1_555
H19 C15 1_555 1_555
N1A C1A 1_555 1_555
N2A C2A 1_555 1_555
N3A C7A 1_555 1_555
C1A C2A 1_555 1_555
C3A N2A 1_555 1_555
H1A C3A 1_555 1_555
C4A C3A 1_555 1_555
C5A C4A 1_555 1_555
H2A C5A 1_555 1_555
C6A C5A 1_555 1_555
H3A C6A 1_555 1_555
C7A C6A 1_555 1_555
C8A C7A 1_555 1_555
H4A C8A 1_555 1_555
C9A C4A 1_555 1_555
H5A C9A 1_555 1_555
C10A N3A 1_555 1_555
H6A C10A 1_555 1_555
H7A C10A 1_555 1_555
C11A C10A 1_555 1_555
H8A C11A 1_555 1_555
H9A C11A 1_555 1_555
C12A C11A 1_555 1_555
H10A C12A 1_555 1_555
H11A C12A 1_555 1_555
H12A C12A 1_555 1_555
C13A N3A 1_555 1_555
H13A C13A 1_555 1_555
H14A C13A 1_555 1_555
C14A C13A 1_555 1_555
H15A C14A 1_555 1_555
H16A C14A 1_555 1_555
C15A C14A 1_555 1_555
H17A C15A 1_555 1_555
H18A C15A 1_555 1_555
H19A C15A 1_555 1_555
C8 C9 1_555 1_555
C8A C9A 1_555 1_555

#END
