
#######################################################################
#
#                 Cambridge Crystallographic Data Centre
#                                CCDC 
#
#######################################################################
#
# If this CIF has been generated from an entry in the Cambridge 
# Structural Database, then it will include bibliographic, chemical, 
# crystal, experimental, refinement or atomic coordinate data resulting 
# from the CCDC's data processing and validation procedures.
#
#######################################################################

data_OWIXOJ
_chemical_formula_moiety         'C42 H62 N6'
_chemical_name_systematic        
2,3-bis((4-(dihexylamino)benzylidene)amino)but-2-enedinitrile
_symmetry_cell_setting           triclinic
_symmetry_space_group_name_H-M   'P -1'
_symmetry_Int_Tables_number      2
_space_group_name_Hall           '-P 1'
loop_
_symmetry_equiv_pos_site_id
_symmetry_equiv_pos_as_xyz
1 x,y,z
2 -x,-y,-z
_cell_length_a                   5.0641(3)
_cell_length_b                   11.1249(6)
_cell_length_c                   18.6573(10)
_cell_angle_alpha                92.002(2)
_cell_angle_beta                 92.818(2)
_cell_angle_gamma                96.127(2)
_cell_volume                     1042.98
_exptl_crystal_colour            violet
_exptl_crystal_description       chunk
_cell_formula_units_Z            1
loop_
_atom_site_label
_atom_site_type_symbol
_atom_site_fract_x
_atom_site_fract_y
_atom_site_fract_z
N1 N -0.2953(12) 0.8125(4) 0.5859(3)
N2 N 0.1693(9) 0.8794(4) 0.4575(2)
N3 N 0.8321(10) 0.4984(5) 0.2963(3)
C1 C -0.1713(15) 0.8734(6) 0.5494(4)
C2 C 0.0014(13) 0.9394(4) 0.5011(3)
C3 C 0.1732(11) 0.7636(6) 0.4619(3)
H1 H 0.0634 0.7224 0.4936
C4 C 0.3418(12) 0.6966(6) 0.4194(3)
C5 C 0.5121(13) 0.7519(5) 0.3720(3)
H2 H 0.5209 0.8353 0.3682
C6 C 0.6674(13) 0.6885(6) 0.3307(3)
H3 H 0.7738 0.7288 0.2979
C7 C 0.6693(12) 0.5627(6) 0.3369(3)
C8 C 0.4997(13) 0.5076(5) 0.3852(3)
H4 H 0.4946 0.4246 0.3905
C9 C 0.3399(12) 0.5721(5) 0.4254(3)
H5 H 0.2283 0.5321 0.4571
C10 C 0.9846(13) 0.5530(6) 0.2402(4)
H6 H 1.1234 0.5030 0.2287
H7 H 1.0695 0.6316 0.2577
C11 C 0.8151(13) 0.5684(5) 0.1726(4)
H8 H 0.7390 0.4895 0.1534
H9 H 0.6698 0.6144 0.1846
C12 C 0.9709(14) 0.6315(6) 0.1171(5)
H10 H 1.1201 0.5869 0.1067
H11 H 1.0420 0.7113 0.1360
C13 C 0.8063(15) 0.6446(6) 0.0466(5)
H12 H 0.7417 0.5647 0.0264
H13 H 0.6530 0.6862 0.0571
C14 C 0.9632(18) 0.7127(9) -0.0075(6)
H14 H 1.0226 0.7938 0.0117
H15 H 1.1192 0.6726 -0.0173
C15 C 0.804(2) 0.7197(8) -0.0738(6)
H16 H 0.9077 0.7638 -0.1079
H17 H 0.7469 0.6395 -0.0932
H18 H 0.6505 0.7605 -0.0642
C16 C 0.8547(13) 0.3701(7) 0.3085(3)
H19 H 0.8179 0.3548 0.3581
H20 H 1.0371 0.3547 0.3019
C17 C 0.6724(12) 0.2804(7) 0.2604(3)
H21 H 0.6974 0.2985 0.2106
H22 H 0.4887 0.2891 0.2701
C18 C 0.7289(17) 0.1474(7) 0.2728(4)
H23 H 0.7085 0.1296 0.3229
H24 H 0.9106 0.1377 0.2616
C19 C 0.527(3) 0.0544(12) 0.2228(7)
H25 H 0.4302 -0.0050 0.2513
H26 H 0.4006 0.0969 0.1954
C20 C 0.689(4) 0.002(2) 0.1796(13)
H27 H 0.8155 -0.0424 0.2050
H28 H 0.7781 0.0581 0.1474
C21 C 0.457(4) -0.0768(12) 0.1438(12)
H29 H 0.5197 -0.1281 0.1073
H30 H 0.3703 -0.1258 0.1789
H31 H 0.3336 -0.0271 0.1224
N1A N 0.2953(12) 1.1875(4) 0.4141(3)
N2A N -0.1693(9) 1.1206(4) 0.5425(2)
N3A N -0.8321(10) 1.5016(5) 0.7037(3)
C1A C 0.1713(15) 1.1266(6) 0.4506(4)
C2A C -0.0014(13) 1.0606(4) 0.4989(3)
C3A C -0.1732(11) 1.2364(6) 0.5381(3)
H1A H -0.0634 1.2776 0.5064
C4A C -0.3418(12) 1.3034(6) 0.5806(3)
C5A C -0.5121(13) 1.2481(5) 0.6280(3)
H2A H -0.5209 1.1647 0.6318
C6A C -0.6674(13) 1.3115(6) 0.6693(3)
H3A H -0.7738 1.2712 0.7021
C7A C -0.6693(12) 1.4373(6) 0.6631(3)
C8A C -0.4997(13) 1.4924(5) 0.6148(3)
H4A H -0.4946 1.5754 0.6095
C9A C -0.3399(12) 1.4279(5) 0.5746(3)
H5A H -0.2283 1.4679 0.5429
C10A C -0.9846(13) 1.4470(6) 0.7598(4)
H6A H -1.1234 1.4970 0.7713
H7A H -1.0695 1.3684 0.7423
C11A C -0.8151(13) 1.4316(5) 0.8274(4)
H8A H -0.7390 1.5105 0.8466
H9A H -0.6698 1.3856 0.8154
C12A C -0.9709(14) 1.3685(6) 0.8829(5)
H10A H -1.1201 1.4131 0.8933
H11A H -1.0420 1.2887 0.8640
C13A C -0.8063(15) 1.3554(6) 0.9534(5)
H12A H -0.7417 1.4353 0.9736
H13A H -0.6530 1.3138 0.9429
C14A C -0.9632(18) 1.2873(9) 1.0075(6)
H14A H -1.0226 1.2062 0.9883
H15A H -1.1192 1.3274 1.0173
C15A C -0.804(2) 1.2803(8) 1.0738(6)
H16A H -0.9077 1.2362 1.1079
H17A H -0.7469 1.3605 1.0932
H18A H -0.6505 1.2395 1.0642
C16A C -0.8547(13) 1.6299(7) 0.6915(3)
H19A H -0.8179 1.6452 0.6419
H20A H -1.0371 1.6453 0.6981
C17A C -0.6724(12) 1.7196(7) 0.7396(3)
H21A H -0.6974 1.7015 0.7894
H22A H -0.4887 1.7109 0.7299
C18A C -0.7289(17) 1.8526(7) 0.7272(4)
H23A H -0.7085 1.8704 0.6771
H24A H -0.9106 1.8623 0.7384
C19A C -0.527(3) 1.9456(12) 0.7772(7)
H25A H -0.4302 2.0050 0.7487
H26A H -0.4006 1.9031 0.8046
C20A C -0.689(4) 1.998(2) 0.8204(13)
H27A H -0.8155 2.0424 0.7950
H28A H -0.7781 1.9419 0.8526
C21A C -0.457(4) 2.0768(12) 0.8562(12)
H29A H -0.5197 2.1281 0.8927
H30A H -0.3703 2.1258 0.8211
H31A H -0.3336 2.0271 0.8776
loop_
_geom_bond_atom_site_label_1
_geom_bond_atom_site_label_2
_geom_bond_site_symmetry_1
_geom_bond_site_symmetry_2
N1 C1 1_555 1_555
N2 C2 1_555 1_555
N3 C7 1_555 1_555
C1 C2 1_555 1_555
C2 C2A 1_555 1_555
C3 N2 1_555 1_555
H1 C3 1_555 1_555
C4 C3 1_555 1_555
C5 C4 1_555 1_555
H2 C5 1_555 1_555
C6 C5 1_555 1_555
H3 C6 1_555 1_555
C7 C6 1_555 1_555
C8 C7 1_555 1_555
H4 C8 1_555 1_555
C9 C4 1_555 1_555
H5 C9 1_555 1_555
C10 N3 1_555 1_555
H6 C10 1_555 1_555
H7 C10 1_555 1_555
C11 C10 1_555 1_555
H8 C11 1_555 1_555
H9 C11 1_555 1_555
C12 C11 1_555 1_555
H10 C12 1_555 1_555
H11 C12 1_555 1_555
C13 C12 1_555 1_555
H12 C13 1_555 1_555
H13 C13 1_555 1_555
C14 C13 1_555 1_555
H14 C14 1_555 1_555
H15 C14 1_555 1_555
C15 C14 1_555 1_555
H16 C15 1_555 1_555
H17 C15 1_555 1_555
H18 C15 1_555 1_555
C16 N3 1_555 1_555
H19 C16 1_555 1_555
H20 C16 1_555 1_555
C17 C16 1_555 1_555
H21 C17 1_555 1_555
H22 C17 1_555 1_555
C18 C17 1_555 1_555
H23 C18 1_555 1_555
H24 C18 1_555 1_555
C19 C18 1_555 1_555
H25 C19 1_555 1_555
H26 C19 1_555 1_555
C20 C19 1_555 1_555
H27 C20 1_555 1_555
H28 C20 1_555 1_555
C21 C20 1_555 1_555
H29 C21 1_555 1_555
H30 C21 1_555 1_555
H31 C21 1_555 1_555
N1A C1A 1_555 1_555
N2A C2A 1_555 1_555
N3A C7A 1_555 1_555
C1A C2A 1_555 1_555
C3A N2A 1_555 1_555
H1A C3A 1_555 1_555
C4A C3A 1_555 1_555
C5A C4A 1_555 1_555
H2A C5A 1_555 1_555
C6A C5A 1_555 1_555
H3A C6A 1_555 1_555
C7A C6A 1_555 1_555
C8A C7A 1_555 1_555
H4A C8A 1_555 1_555
C9A C4A 1_555 1_555
H5A C9A 1_555 1_555
C10A N3A 1_555 1_555
H6A C10A 1_555 1_555
H7A C10A 1_555 1_555
C11A C10A 1_555 1_555
H8A C11A 1_555 1_555
H9A C11A 1_555 1_555
C12A C11A 1_555 1_555
H10A C12A 1_555 1_555
H11A C12A 1_555 1_555
C13A C12A 1_555 1_555
H12A C13A 1_555 1_555
H13A C13A 1_555 1_555
C14A C13A 1_555 1_555
H14A C14A 1_555 1_555
H15A C14A 1_555 1_555
C15A C14A 1_555 1_555
H16A C15A 1_555 1_555
H17A C15A 1_555 1_555
H18A C15A 1_555 1_555
C16A N3A 1_555 1_555
H19A C16A 1_555 1_555
H20A C16A 1_555 1_555
C17A C16A 1_555 1_555
H21A C17A 1_555 1_555
H22A C17A 1_555 1_555
C18A C17A 1_555 1_555
H23A C18A 1_555 1_555
H24A C18A 1_555 1_555
C19A C18A 1_555 1_555
H25A C19A 1_555 1_555
H26A C19A 1_555 1_555
C20A C19A 1_555 1_555
H27A C20A 1_555 1_555
H28A C20A 1_555 1_555
C21A C20A 1_555 1_555
H29A C21A 1_555 1_555
H30A C21A 1_555 1_555
H31A C21A 1_555 1_555
C8 C9 1_555 1_555
C8A C9A 1_555 1_555

#END
