
#######################################################################
#
#                 Cambridge Crystallographic Data Centre
#                                CCDC 
#
#######################################################################
#
# If this CIF has been generated from an entry in the Cambridge 
# Structural Database, then it will include bibliographic, chemical, 
# crystal, experimental, refinement or atomic coordinate data resulting 
# from the CCDC's data processing and validation procedures.
#
#######################################################################

data_OWIXID
_chemical_formula_moiety         'C34 H46 N6'
_chemical_name_systematic        
2,3-bis((4-(dibutylamino)benzylidene)amino)but-2-enedinitrile
_symmetry_cell_setting           triclinic
_symmetry_space_group_name_H-M   'P -1'
_symmetry_Int_Tables_number      2
_space_group_name_Hall           '-P 1'
loop_
_symmetry_equiv_pos_site_id
_symmetry_equiv_pos_as_xyz
1 x,y,z
2 -x,-y,-z
_cell_length_a                   4.9850(7)
_cell_length_b                   10.1736(13)
_cell_length_c                   16.703(2)
_cell_angle_alpha                85.982(6)
_cell_angle_beta                 89.427(5)
_cell_angle_gamma                77.777(7)
_cell_volume                     825.851
_exptl_crystal_colour            'blue violet'
_exptl_crystal_description       needle
_cell_formula_units_Z            1
loop_
_atom_site_label
_atom_site_type_symbol
_atom_site_fract_x
_atom_site_fract_y
_atom_site_fract_z
N1 N 1.5175(8) 0.2081(4) 0.6159(2)
N2 N 1.1953(7) 0.1085(3) 0.45283(18)
N3 N 0.1690(7) 0.4512(4) 0.2470(2)
C1 C 1.4811(8) 0.1405(4) 0.5674(3)
C2 C 1.4178(8) 0.0614(3) 0.5038(3)
C3 C 1.0446(9) 0.2277(4) 0.4580(2)
H1 H 1.0855 0.2807 0.4974
C4 C 0.8177(9) 0.2812(5) 0.4053(2)
C5 C 0.7380(8) 0.2065(4) 0.3469(3)
H2 H 0.8313 0.1178 0.3427
C6 C 0.5246(9) 0.2605(4) 0.2951(2)
H3 H 0.4750 0.2074 0.2570
C7 C 0.3801(9) 0.3941(5) 0.2986(3)
C8 C 0.4566(9) 0.4700(4) 0.3584(3)
H4 H 0.3625 0.5582 0.3636
C9 C 0.6703(9) 0.4130(4) 0.4090(2)
H5 H 0.7195 0.4650 0.4477
C10 C 0.0965(8) 0.3775(5) 0.1821(3)
H6 H -0.0888 0.4190 0.1645
H7 H 0.0957 0.2861 0.2029
C11 C 0.2831(10) 0.3713(5) 0.1105(3)
H8 H 0.4710 0.3357 0.1280
H9 H 0.2725 0.4618 0.0862
C12 C 0.2066(12) 0.2831(7) 0.0482(4)
H10 H 0.2028 0.1950 0.0739
H11 H 0.0234 0.3227 0.0281
C13 C 0.3880(13) 0.2675(7) -0.0163(4)
H12 H 0.3300 0.2112 -0.0535
H13 H 0.3898 0.3541 -0.0428
H14 H 0.5692 0.2263 0.0030
C14 C 0.0113(8) 0.5876(5) 0.2533(2)
H15 H -0.0080 0.6048 0.3097
H16 H -0.1713 0.5931 0.2320
C15 C 0.1312(8) 0.6975(4) 0.2107(2)
H17 H 0.1462 0.6825 0.1539
H18 H 0.3148 0.6920 0.2312
C16 C -0.0390(9) 0.8379(5) 0.2207(3)
H19 H -0.2249 0.8412 0.2027
H20 H -0.0470 0.8536 0.2774
C17 C 0.0659(11) 0.9492(5) 0.1763(3)
H21 H -0.0526 1.0341 0.1858
H22 H 0.2480 0.9487 0.1947
H23 H 0.0698 0.9363 0.1199
N1A N 1.4825(8) -0.2081(4) 0.3841(2)
N2A N 1.8047(7) -0.1085(3) 0.54717(18)
N3A N 2.8310(7) -0.4512(4) 0.7530(2)
C1A C 1.5189(8) -0.1405(4) 0.4326(3)
C2A C 1.5822(8) -0.0614(3) 0.4962(3)
C3A C 1.9554(9) -0.2277(4) 0.5420(2)
H1A H 1.9145 -0.2807 0.5026
C4A C 2.1823(9) -0.2812(5) 0.5947(2)
C5A C 2.2620(8) -0.2065(4) 0.6531(3)
H2A H 2.1687 -0.1178 0.6573
C6A C 2.4754(9) -0.2605(4) 0.7049(2)
H3A H 2.5250 -0.2074 0.7430
C7A C 2.6199(9) -0.3941(5) 0.7014(3)
C8A C 2.5434(9) -0.4700(4) 0.6416(3)
H4A H 2.6375 -0.5582 0.6364
C9A C 2.3297(9) -0.4130(4) 0.5910(2)
H5A H 2.2805 -0.4650 0.5523
C10A C 2.9035(8) -0.3775(5) 0.8179(3)
H6A H 3.0888 -0.4190 0.8355
H7A H 2.9043 -0.2861 0.7971
C11A C 2.7169(10) -0.3713(5) 0.8895(3)
H8A H 2.5290 -0.3357 0.8720
H9A H 2.7275 -0.4618 0.9138
C12A C 2.7934(12) -0.2831(7) 0.9518(4)
H10A H 2.7972 -0.1950 0.9261
H11A H 2.9766 -0.3227 0.9719
C13A C 2.6120(13) -0.2675(7) 1.0163(4)
H12A H 2.6700 -0.2112 1.0535
H13A H 2.6102 -0.3541 1.0428
H14A H 2.4308 -0.2263 0.9970
C14A C 2.9887(8) -0.5876(5) 0.7467(2)
H15A H 3.0080 -0.6048 0.6903
H16A H 3.1713 -0.5931 0.7680
C15A C 2.8688(8) -0.6975(4) 0.7893(2)
H17A H 2.8538 -0.6825 0.8461
H18A H 2.6852 -0.6920 0.7688
C16A C 3.0390(9) -0.8379(5) 0.7793(3)
H19A H 3.2249 -0.8412 0.7973
H20A H 3.0470 -0.8536 0.7226
C17A C 2.9341(11) -0.9492(5) 0.8237(3)
H21A H 3.0526 -1.0341 0.8142
H22A H 2.7520 -0.9487 0.8053
H23A H 2.9302 -0.9363 0.8801
loop_
_geom_bond_atom_site_label_1
_geom_bond_atom_site_label_2
_geom_bond_site_symmetry_1
_geom_bond_site_symmetry_2
N1 C1 1_555 1_555
N2 C2 1_555 1_555
N3 C7 1_555 1_555
C1 C2 1_555 1_555
C2 C2A 1_555 1_555
C3 N2 1_555 1_555
H1 C3 1_555 1_555
C4 C3 1_555 1_555
C5 C4 1_555 1_555
H2 C5 1_555 1_555
C6 C5 1_555 1_555
H3 C6 1_555 1_555
C7 C6 1_555 1_555
C8 C7 1_555 1_555
H4 C8 1_555 1_555
C9 C4 1_555 1_555
H5 C9 1_555 1_555
C10 N3 1_555 1_555
H6 C10 1_555 1_555
H7 C10 1_555 1_555
C11 C10 1_555 1_555
H8 C11 1_555 1_555
H9 C11 1_555 1_555
C12 C11 1_555 1_555
H10 C12 1_555 1_555
H11 C12 1_555 1_555
C13 C12 1_555 1_555
H12 C13 1_555 1_555
H13 C13 1_555 1_555
H14 C13 1_555 1_555
C14 N3 1_555 1_555
H15 C14 1_555 1_555
H16 C14 1_555 1_555
C15 C14 1_555 1_555
H17 C15 1_555 1_555
H18 C15 1_555 1_555
C16 C15 1_555 1_555
H19 C16 1_555 1_555
H20 C16 1_555 1_555
C17 C16 1_555 1_555
H21 C17 1_555 1_555
H22 C17 1_555 1_555
H23 C17 1_555 1_555
N1A C1A 1_555 1_555
N2A C2A 1_555 1_555
N3A C7A 1_555 1_555
C1A C2A 1_555 1_555
C3A N2A 1_555 1_555
H1A C3A 1_555 1_555
C4A C3A 1_555 1_555
C5A C4A 1_555 1_555
H2A C5A 1_555 1_555
C6A C5A 1_555 1_555
H3A C6A 1_555 1_555
C7A C6A 1_555 1_555
C8A C7A 1_555 1_555
H4A C8A 1_555 1_555
C9A C4A 1_555 1_555
H5A C9A 1_555 1_555
C10A N3A 1_555 1_555
H6A C10A 1_555 1_555
H7A C10A 1_555 1_555
C11A C10A 1_555 1_555
H8A C11A 1_555 1_555
H9A C11A 1_555 1_555
C12A C11A 1_555 1_555
H10A C12A 1_555 1_555
H11A C12A 1_555 1_555
C13A C12A 1_555 1_555
H12A C13A 1_555 1_555
H13A C13A 1_555 1_555
H14A C13A 1_555 1_555
C14A N3A 1_555 1_555
H15A C14A 1_555 1_555
H16A C14A 1_555 1_555
C15A C14A 1_555 1_555
H17A C15A 1_555 1_555
H18A C15A 1_555 1_555
C16A C15A 1_555 1_555
H19A C16A 1_555 1_555
H20A C16A 1_555 1_555
C17A C16A 1_555 1_555
H21A C17A 1_555 1_555
H22A C17A 1_555 1_555
H23A C17A 1_555 1_555
C8 C9 1_555 1_555
C8A C9A 1_555 1_555

#END
