
#######################################################################
#
#                 Cambridge Crystallographic Data Centre
#                                CCDC 
#
#######################################################################
#
# If this CIF has been generated from an entry in the Cambridge 
# Structural Database, then it will include bibliographic, chemical, 
# crystal, experimental, refinement or atomic coordinate data resulting 
# from the CCDC's data processing and validation procedures.
#
#######################################################################

data_OWOGEO
_chemical_formula_moiety         'C24 H21 N1 O2'
_chemical_name_systematic        
'ethyl 1-methyl-2,3-diphenyl-1H-indole-6-carboxylate'
_symmetry_cell_setting           monoclinic
_symmetry_space_group_name_H-M   'P 21/c'
_symmetry_Int_Tables_number      14
_space_group_name_Hall           '-P 2ybc'
loop_
_symmetry_equiv_pos_site_id
_symmetry_equiv_pos_as_xyz
1 x,y,z
2 -x,1/2+y,1/2-z
3 -x,-y,-z
4 x,1/2-y,1/2+z
_cell_length_a                   12.787(2)
_cell_length_b                   12.7131(18)
_cell_length_c                   12.427(2)
_cell_angle_alpha                90
_cell_angle_beta                 114.445(3)
_cell_angle_gamma                90
_cell_volume                     1839.07
_exptl_crystal_colour            colorless
_exptl_crystal_description       Prism
_cell_formula_units_Z            4
loop_
_atom_site_label
_atom_site_type_symbol
_atom_site_fract_x
_atom_site_fract_y
_atom_site_fract_z
O1 O 0.95826(7) 1.12897(6) 0.43196(6)
O2 O 0.89462(6) 1.23506(6) 0.27222(6)
N1 N 0.81857(7) 0.76499(6) 0.21736(7)
C1 C 0.81209(8) 0.87264(8) 0.20183(9)
C2 C 0.86710(8) 0.95240(8) 0.28248(8)
H1 H 0.9165 0.9371 0.3623
C3 C 0.84655(8) 1.05559(8) 0.24109(8)
C4 C 0.77287(9) 1.07787(8) 0.12222(9)
H2 H 0.7610 1.1489 0.0961
C5 C 0.71779(9) 0.99834(8) 0.04342(9)
H3 H 0.6682 1.0143 -0.0362
C6 C 0.73609(8) 0.89326(8) 0.08257(8)
C7 C 0.69579(8) 0.79345(8) 0.02679(9)
C8 C 0.74798(8) 0.71762(8) 0.11210(8)
C9 C 0.72779(8) 0.60236(7) 0.10638(8)
C10 C 0.79263(9) 0.53189(8) 0.07307(9)
H4 H 0.8531 0.5571 0.0544
C11 C 0.76886(10) 0.42469(9) 0.06716(10)
H5 H 0.8130 0.3769 0.0442
C12 C 0.68097(10) 0.38746(8) 0.09464(10)
H6 H 0.6652 0.3142 0.0909
C13 C 0.61615(10) 0.45699(9) 0.12744(10)
H7 H 0.5554 0.4314 0.1454
C14 C 0.63971(9) 0.56424(8) 0.13414(10)
H8 H 0.5957 0.6116 0.1577
C15 C 0.60974(8) 0.77442(8) -0.09495(9)
C16 C 0.50911(9) 0.83514(8) -0.14250(9)
H9 H 0.4974 0.8899 -0.0966
C17 C 0.42626(9) 0.81598(9) -0.25615(10)
H10 H 0.3586 0.8577 -0.2873
C18 C 0.44223(10) 0.73627(9) -0.32394(9)
H11 H 0.3852 0.7228 -0.4011
C19 C 0.54168(10) 0.67614(9) -0.27883(9)
H12 H 0.5529 0.6218 -0.3255
C20 C 0.62497(9) 0.69518(8) -0.16544(9)
H13 H 0.6930 0.6539 -0.1355
C21 C 0.88520(9) 0.71034(8) 0.32765(9)
H14 H 0.8331 0.6796 0.3588
H15 H 0.9369 0.7603 0.3852
H16 H 0.9305 0.6544 0.3131
C22 C 0.90535(8) 1.14142(8) 0.32622(9)
C23 C 0.95006(9) 1.32438(8) 0.34811(9)
H17 H 0.9630 1.3808 0.3001
H18 H 1.0258 1.3023 0.4087
C24 C 0.87774(10) 1.36651(9) 0.40823(10)
H19 H 0.8018 1.3862 0.3484
H20 H 0.9152 1.4285 0.4553
H21 H 0.8692 1.3122 0.4600
loop_
_geom_bond_atom_site_label_1
_geom_bond_atom_site_label_2
_geom_bond_site_symmetry_1
_geom_bond_site_symmetry_2
O1 C22 1_555 1_555
O2 C22 1_555 1_555
N1 C1 1_555 1_555
C1 C2 1_555 1_555
C2 H1 1_555 1_555
C3 C2 1_555 1_555
C4 C3 1_555 1_555
H2 C4 1_555 1_555
C5 C4 1_555 1_555
H3 C5 1_555 1_555
C6 C1 1_555 1_555
C7 C6 1_555 1_555
C8 N1 1_555 1_555
C9 C8 1_555 1_555
C10 C9 1_555 1_555
H4 C10 1_555 1_555
C11 C10 1_555 1_555
H5 C11 1_555 1_555
C12 C11 1_555 1_555
H6 C12 1_555 1_555
C13 C12 1_555 1_555
H7 C13 1_555 1_555
C14 C9 1_555 1_555
H8 C14 1_555 1_555
C15 C7 1_555 1_555
C16 C15 1_555 1_555
H9 C16 1_555 1_555
C17 C16 1_555 1_555
H10 C17 1_555 1_555
C18 C17 1_555 1_555
H11 C18 1_555 1_555
C19 C18 1_555 1_555
H12 C19 1_555 1_555
C20 C15 1_555 1_555
H13 C20 1_555 1_555
C21 N1 1_555 1_555
H14 C21 1_555 1_555
H15 C21 1_555 1_555
H16 C21 1_555 1_555
C22 C3 1_555 1_555
C23 O2 1_555 1_555
H17 C23 1_555 1_555
H18 C23 1_555 1_555
C24 C23 1_555 1_555
H19 C24 1_555 1_555
H20 C24 1_555 1_555
H21 C24 1_555 1_555
C5 C6 1_555 1_555
C7 C8 1_555 1_555
C13 C14 1_555 1_555
C19 C20 1_555 1_555

#END
