
#######################################################################
#
#                 Cambridge Crystallographic Data Centre
#                                CCDC 
#
#######################################################################
#
# If this CIF has been generated from an entry in the Cambridge 
# Structural Database, then it will include bibliographic, chemical, 
# crystal, experimental, refinement or atomic coordinate data resulting 
# from the CCDC's data processing and validation procedures.
#
#######################################################################

data_OWOGOY
_chemical_formula_moiety         'C19 H15 N1 O1 S2,H2 O1'
_chemical_name_systematic        
"3'-methyl-4'-phenyl-2'-sulfanylidene-2H-spiro[naphthalene-1,5'-[1,3]thiazolidin]-2-one monohydrate"
_chemical_properties_biological  'fungicidal activity'
_symmetry_cell_setting           orthorhombic
_symmetry_space_group_name_H-M   'P 21 21 21'
_symmetry_Int_Tables_number      19
_space_group_name_Hall           'P 2ac 2ab'
loop_
_symmetry_equiv_pos_site_id
_symmetry_equiv_pos_as_xyz
1 x,y,z
2 1/2-x,-y,1/2+z
3 -x,1/2+y,1/2-z
4 1/2+x,1/2-y,-z
_cell_length_a                   5.6457(11)
_cell_length_b                   17.515(4)
_cell_length_c                   18.278(4)
_cell_angle_alpha                90
_cell_angle_beta                 90
_cell_angle_gamma                90
_cell_volume                     1807.41
_chemical_melting_point          '209-210 deg.C'
_cell_formula_units_Z            4
_exptl_crystal_recrystallization_method 'ethyl acetate/petroleum ether'
loop_
_atom_site_label
_atom_site_type_symbol
_atom_site_fract_x
_atom_site_fract_y
_atom_site_fract_z
S1 S 1.17143(11) 0.05572(4) 0.30176(3)
S2 S 1.08290(13) -0.10976(4) 0.27380(4)
O1 O 1.2662(3) 0.16163(11) 0.42275(11)
N1 N 0.8119(4) -0.01527(11) 0.35355(12)
C1 C 1.0669(5) 0.17187(14) 0.39956(13)
C2 C 0.9179(5) 0.23536(14) 0.42416(14)
H1 H 0.9540 0.2607 0.4687
C3 C 0.7303(5) 0.25811(14) 0.38423(15)
H2 H 0.6362 0.2992 0.4018
C4 C 0.6658(5) 0.22200(13) 0.31490(14)
C5 C 0.4876(5) 0.25404(15) 0.27118(17)
H3 H 0.4046 0.2980 0.2876
C6 C 0.4320(6) 0.22156(16) 0.20388(18)
H4 H 0.3098 0.2429 0.1746
C7 C 0.5549(7) 0.15810(17) 0.17966(17)
H5 H 0.5203 0.1370 0.1330
C8 C 0.7295(6) 0.12476(15) 0.22334(15)
H6 H 0.8114 0.0807 0.2065
C9 C 0.7840(5) 0.15578(14) 0.29149(13)
C10 C 0.9488(4) 0.11583(13) 0.34559(13)
C11 C 0.7934(4) 0.05802(13) 0.39234(12)
H7 H 0.6247 0.0752 0.3898
C12 C 0.8593(4) 0.04928(13) 0.47246(13)
C13 C 1.0667(5) 0.01217(17) 0.49461(16)
H8 H 1.1690 -0.0100 0.4592
C14 C 1.1232(6) 0.00776(19) 0.56898(18)
H9 H 1.2657 -0.0165 0.5839
C15 C 0.9720(6) 0.03875(17) 0.62109(16)
H10 H 1.0116 0.0360 0.6715
C16 C 0.7630(6) 0.07376(16) 0.59942(15)
H11 H 0.6575 0.0939 0.6350
C17 C 0.7082(5) 0.07933(14) 0.52503(14)
H12 H 0.5661 0.1039 0.5103
C18 C 0.6515(5) -0.07717(15) 0.37447(17)
H13 H 0.5839 -0.1004 0.3304
H14 H 0.5238 -0.0567 0.4050
H15 H 0.7395 -0.1159 0.4020
C19 C 1.0011(5) -0.02733(14) 0.31181(14)
O2 O 0.796(3) 0.7775(7) 0.4981(6)
O2C O 1.296(3) 0.7225(7) 0.5019(6)
O3? O 0.911(4) 0.6906(13) 0.4801(10)
O4? O 1.074(4) 0.7605(11) 0.4764(8)
loop_
_geom_bond_atom_site_label_1
_geom_bond_atom_site_label_2
_geom_bond_site_symmetry_1
_geom_bond_site_symmetry_2
S1 C10 1_555 1_555
S2 C19 1_555 1_555
O1 C1 1_555 1_555
N1 C11 1_555 1_555
C1 C2 1_555 1_555
C2 H1 1_555 1_555
C3 C2 1_555 1_555
H2 C3 1_555 1_555
C4 C3 1_555 1_555
C5 C4 1_555 1_555
H3 C5 1_555 1_555
C6 C5 1_555 1_555
H4 C6 1_555 1_555
C7 C6 1_555 1_555
H5 C7 1_555 1_555
C8 C7 1_555 1_555
H6 C8 1_555 1_555
C9 C4 1_555 1_555
C10 C1 1_555 1_555
C11 C10 1_555 1_555
H7 C11 1_555 1_555
C12 C11 1_555 1_555
C13 C12 1_555 1_555
H8 C13 1_555 1_555
C14 C13 1_555 1_555
H9 C14 1_555 1_555
C15 C14 1_555 1_555
H10 C15 1_555 1_555
C16 C15 1_555 1_555
H11 C16 1_555 1_555
C17 C12 1_555 1_555
H12 C17 1_555 1_555
C18 N1 1_555 1_555
H13 C18 1_555 1_555
H14 C18 1_555 1_555
H15 C18 1_555 1_555
C19 S1 1_555 1_555
N1 C19 1_555 1_555
C8 C9 1_555 1_555
C9 C10 1_555 1_555
C16 C17 1_555 1_555

#END
