
#######################################################################
#
#                 Cambridge Crystallographic Data Centre
#                                CCDC 
#
#######################################################################
#
# If this CIF has been generated from an entry in the Cambridge 
# Structural Database, then it will include bibliographic, chemical, 
# crystal, experimental, refinement or atomic coordinate data resulting 
# from the CCDC's data processing and validation procedures.
#
#######################################################################

data_OWOQAU
_chemical_formula_moiety         'C16 H10 Br1 N3 O3'
_chemical_name_systematic        N-(5-bromo-7-nitroquinolin-8-yl)benzamide
_symmetry_cell_setting           monoclinic
_symmetry_space_group_name_H-M   'P 21/n'
_symmetry_Int_Tables_number      14
_space_group_name_Hall           '-P 2yn'
loop_
_symmetry_equiv_pos_site_id
_symmetry_equiv_pos_as_xyz
1 x,y,z
2 1/2-x,1/2+y,1/2-z
3 -x,-y,-z
4 1/2+x,1/2-y,1/2+z
_cell_length_a                   9.029(3)
_cell_length_b                   9.545(3)
_cell_length_c                   17.249(5)
_cell_angle_alpha                90
_cell_angle_beta                 98.859(4)
_cell_angle_gamma                90
_cell_volume                     1468.82
_exptl_crystal_colour            colorless
_exptl_crystal_description       block
_cell_formula_units_Z            4
loop_
_atom_site_label
_atom_site_type_symbol
_atom_site_fract_x
_atom_site_fract_y
_atom_site_fract_z
Br1 Br 0.19484(3) 1.10091(3) 1.088992(16)
C1 C 0.5445(2) 0.6041(2) 0.87775(12)
O1 O 0.45932(18) 0.66084(18) 0.82558(8)
C2 C 0.4572(2) 0.7367(2) 0.98495(11)
N1 N 0.2184(2) 0.6872(2) 0.89555(11)
C3 C 0.5255(2) 0.8091(2) 1.05463(11)
O2 O 0.2312(2) 0.55982(18) 0.90036(11)
C4 C 0.4496(2) 0.9191(2) 1.08699(11)
N2 N 0.6628(2) 0.7613(2) 1.08807(10)
C5 C 0.2377(2) 0.8860(2) 0.98378(13)
H1 H 0.1426 0.9118 0.9593
O3 O 0.1254(2) 0.7483(2) 0.84803(11)
N3 N 0.54361(19) 0.63382(18) 0.95601(10)
H2 H 0.6014 0.5846 0.9898
C6 C 0.6079(3) 0.4004(2) 0.80167(13)
H3 H 0.5129 0.4089 0.7723
C7 C 0.3044(2) 0.9570(2) 1.04791(12)
C8 C 0.3125(2) 0.7734(2) 0.95446(12)
C9 C 0.5227(3) 0.9818(2) 1.15675(12)
H4 H 0.4781 1.0556 1.1797
C10 C 0.6544(2) 0.4948(2) 0.86202(11)
C11 C 0.7022(3) 0.2941(3) 0.78511(14)
H5 H 0.6690 0.2291 0.7461
C12 C 0.7239(3) 0.8216(3) 1.15436(14)
H6 H 0.8160 0.7879 1.1789
C13 C 0.8937(3) 0.3785(3) 0.88538(18)
H7 H 0.9905 0.3717 0.9128
C14 C 0.8446(3) 0.2842(3) 0.82610(16)
H8 H 0.9083 0.2137 0.8140
C15 C 0.6594(3) 0.9324(3) 1.18991(13)
H9 H 0.7093 0.9722 1.2358
C16 C 0.7981(2) 0.4835(3) 0.90390(14)
H10 H 0.8305 0.5461 0.9443
loop_
_geom_bond_atom_site_label_1
_geom_bond_atom_site_label_2
_geom_bond_site_symmetry_1
_geom_bond_site_symmetry_2
Br1 C7 1_555 1_555
C1 O1 1_555 1_555
C2 C3 1_555 1_555
N1 O2 1_555 1_555
C3 C4 1_555 1_555
C4 C7 1_555 1_555
N2 C3 1_555 1_555
C5 H1 1_555 1_555
O3 N1 1_555 1_555
N3 C1 1_555 1_555
H2 N3 1_555 1_555
C6 H3 1_555 1_555
C7 C5 1_555 1_555
C8 C2 1_555 1_555
C9 C4 1_555 1_555
H4 C9 1_555 1_555
C10 C1 1_555 1_555
C11 C6 1_555 1_555
H5 C11 1_555 1_555
C12 N2 1_555 1_555
H6 C12 1_555 1_555
C13 H7 1_555 1_555
C14 C11 1_555 1_555
H8 C14 1_555 1_555
C15 C9 1_555 1_555
H9 C15 1_555 1_555
C16 C10 1_555 1_555
H10 C16 1_555 1_555
C2 N3 1_555 1_555
N1 C8 1_555 1_555
C5 C8 1_555 1_555
C6 C10 1_555 1_555
C12 C15 1_555 1_555
C13 C14 1_555 1_555
C13 C16 1_555 1_555

#END
