
#######################################################################
#
#                 Cambridge Crystallographic Data Centre
#                                CCDC 
#
#######################################################################
#
# If this CIF has been generated from an entry in the Cambridge 
# Structural Database, then it will include bibliographic, chemical, 
# crystal, experimental, refinement or atomic coordinate data resulting 
# from the CCDC's data processing and validation procedures.
#
#######################################################################

data_OWOYOP
_chemical_formula_moiety         'C15 H21 I1 O2 S1'
_chemical_name_systematic        (3R,E)-2-Iodo-1-(phenylsulfinyl)non-1-en-3-ol
_symmetry_cell_setting           orthorhombic
_symmetry_space_group_name_H-M   'P 21 21 21'
_symmetry_Int_Tables_number      19
_space_group_name_Hall           'P 2ac 2ab'
loop_
_symmetry_equiv_pos_site_id
_symmetry_equiv_pos_as_xyz
1 x,y,z
2 1/2-x,-y,1/2+z
3 1/2+x,1/2-y,-z
4 -x,1/2+y,1/2-z
_cell_length_a                   6.4601(4)
_cell_length_b                   14.3005(6)
_cell_length_c                   18.8441(8)
_cell_angle_alpha                90
_cell_angle_beta                 90
_cell_angle_gamma                90
_cell_volume                     1740.87
_exptl_crystal_colour            colorless
_exptl_crystal_description       block
_chemical_melting_point          '123.8-124.6 deg.C'
_cell_formula_units_Z            4
loop_
_atom_site_label
_atom_site_type_symbol
_atom_site_fract_x
_atom_site_fract_y
_atom_site_fract_z
I1 I 0.62995(6) 0.05534(2) 0.82382(2)
S1 S 0.56903(17) 0.33959(9) 0.94158(5)
O1 O 0.6092(6) 0.3235(2) 1.01872(14)
O2 O 0.1718(5) 0.1410(2) 0.84097(15)
C1 C 0.9438(8) 0.4277(3) 0.9513(3)
H1 H 0.9571 0.3990 0.9954
C2 C 1.0936(10) 0.4874(4) 0.9263(3)
H2 H 1.2104 0.4987 0.9538
C3 C 1.0752(11) 0.5301(4) 0.8622(4)
H3 H 1.1776 0.5708 0.8465
C4 C 0.9061(12) 0.5130(4) 0.8212(3)
H4 H 0.8955 0.5412 0.7768
C5 C 0.7507(9) 0.4548(4) 0.8442(2)
H5 H 0.6331 0.4445 0.8168
C6 C 0.7752(7) 0.4120(3) 0.9097(2)
C7 C 0.6494(7) 0.2335(3) 0.90081(19)
H6 H 0.7810 0.2104 0.9104
C8 C 0.5283(7) 0.1870(3) 0.8576(2)
C9 C 0.3156(6) 0.2143(3) 0.8325(2)
H7 H 0.2687 0.2676 0.8610
C10 C 0.3145(7) 0.2433(4) 0.7550(2)
H8 H 0.3515 0.1901 0.7258
H9 H 0.4178 0.2916 0.7476
C11 C 0.1028(10) 0.2801(4) 0.7320(3)
H10 H -0.0013 0.2338 0.7437
H11 H 0.0719 0.3362 0.7589
C12 C 0.0873(12) 0.3023(4) 0.6547(3)
H12 H 0.1175 0.2464 0.6275
H13 H 0.1905 0.3490 0.6427
C13 C -0.1273(14) 0.3390(7) 0.6336(4)
H14 H -0.2278 0.3096 0.6647
H15 H -0.1301 0.4055 0.6437
C14 C -0.200(4) 0.3260(19) 0.5599(8)
H16 H -0.2057 0.2597 0.5493
H17 H -0.3390 0.3509 0.5556
C15 C -0.069(3) 0.3710(14) 0.5092(7)
H18 H -0.1526 0.4062 0.4766
H19 H 0.0083 0.3247 0.4837
H20 H 0.0243 0.4124 0.5333
H21 H 0.152(10) 0.150(4) 0.8868(12)
C16? C -0.124(5) 0.393(2) 0.5636(11)
C17? C -0.318(6) 0.361(4) 0.529(2)
H22? H -0.2218 0.2866 0.6292
H23? H -0.1790 0.3795 0.6709
H24? H -0.1258 0.4602 0.5717
H25? H -0.0029 0.3773 0.5354
H26? H -0.4354 0.3807 0.5565
H27? H -0.3179 0.2935 0.5261
H28? H -0.3276 0.3864 0.4821
loop_
_geom_bond_atom_site_label_1
_geom_bond_atom_site_label_2
_geom_bond_site_symmetry_1
_geom_bond_site_symmetry_2
I1 C8 1_555 1_555
S1 O1 1_555 1_555
O2 C9 1_555 1_555
C1 H1 1_555 1_555
C2 C1 1_555 1_555
H2 C2 1_555 1_555
C3 C2 1_555 1_555
H3 C3 1_555 1_555
C4 C3 1_555 1_555
H4 C4 1_555 1_555
C5 C4 1_555 1_555
H5 C5 1_555 1_555
C6 S1 1_555 1_555
C7 S1 1_555 1_555
H6 C7 1_555 1_555
C8 C7 1_555 1_555
C9 C8 1_555 1_555
H7 C9 1_555 1_555
C10 C9 1_555 1_555
H8 C10 1_555 1_555
H9 C10 1_555 1_555
C11 C10 1_555 1_555
H10 C11 1_555 1_555
H11 C11 1_555 1_555
C12 C11 1_555 1_555
H12 C12 1_555 1_555
H13 C12 1_555 1_555
C13 C12 1_555 1_555
H14 C13 1_555 1_555
H15 C13 1_555 1_555
C14 C13 1_555 1_555
H16 C14 1_555 1_555
H17 C14 1_555 1_555
C15 C14 1_555 1_555
H18 C15 1_555 1_555
H19 C15 1_555 1_555
H20 C15 1_555 1_555
H21 O2 1_555 1_555
C1 C6 1_555 1_555
C5 C6 1_555 1_555

#END
