
#######################################################################
#
#                 Cambridge Crystallographic Data Centre
#                                CCDC 
#
#######################################################################
#
# If this CIF has been generated from an entry in the Cambridge 
# Structural Database, then it will include bibliographic, chemical, 
# crystal, experimental, refinement or atomic coordinate data resulting 
# from the CCDC's data processing and validation procedures.
#
#######################################################################

data_OWOZEG
_chemical_formula_moiety         'C9 H8 Cl1 N3 O1'
_chemical_name_systematic        7-Chloro-3-methoxyquinoxalin-2-amine
_symmetry_cell_setting           monoclinic
_symmetry_space_group_name_H-M   'P 21/n'
_symmetry_Int_Tables_number      14
_space_group_name_Hall           '-P 2yn'
loop_
_symmetry_equiv_pos_site_id
_symmetry_equiv_pos_as_xyz
1 x,y,z
2 1/2-x,1/2+y,1/2-z
3 -x,-y,-z
4 1/2+x,1/2-y,1/2+z
_cell_length_a                   14.718(2)
_cell_length_b                   13.9948(18)
_cell_length_c                   14.963(2)
_cell_angle_alpha                90
_cell_angle_beta                 112.861(12)
_cell_angle_gamma                90
_cell_volume                     2839.92
_exptl_crystal_colour            'pale yellow'
_exptl_crystal_description       block
_cell_formula_units_Z            12
loop_
_atom_site_label
_atom_site_type_symbol
_atom_site_fract_x
_atom_site_fract_y
_atom_site_fract_z
N1 N 0.70876(13) 0.12177(14) 0.38058(13)
C1 C 0.70982(16) 0.06016(16) 0.44444(16)
C2 C 0.62545(16) 0.04003(16) 0.46968(16)
N2 N 0.54223(13) 0.08527(13) 0.42575(13)
C3 C 0.44914(18) 0.19827(16) 0.30465(17)
H1 H 0.3935 0.1851 0.3176
C4 C 0.44492(19) 0.26461(17) 0.23618(18)
C5 C 0.5263(2) 0.28503(19) 0.21371(19)
H2 H 0.5218 0.3305 0.1668
C6 C 0.61308(19) 0.23719(18) 0.26172(18)
H3 H 0.6675 0.2500 0.2466
C7 C 0.53789(16) 0.15025(15) 0.35526(16)
C8 C 0.62074(17) 0.16969(16) 0.33281(16)
O1 O 0.78948(11) 0.00774(12) 0.49579(12)
C9 C 0.87477(18) 0.0197(2) 0.4733(2)
H4 H 0.9267 -0.0209 0.5144
H5 H 0.8960 0.0851 0.4837
H6 H 0.8588 0.0031 0.4067
N3 N 0.63577(15) -0.02503(16) 0.53841(15)
H7 H 0.5870 -0.0379 0.5545
H8 H 0.6912 -0.0540 0.5665
Cl1 Cl 0.33471(6) 0.32506(5) 0.17470(5)
N4 N -0.21330(14) 0.45338(14) -0.38229(14)
C10 C -0.21539(16) 0.39233(17) -0.44713(17)
C11 C -0.13177(16) 0.37289(16) -0.47355(16)
N5 N -0.04839(13) 0.41800(13) -0.43026(13)
C12 C 0.04473(18) 0.53281(17) -0.31115(18)
H9 H 0.0995 0.5211 -0.3260
C13 C 0.05023(19) 0.59776(17) -0.24149(17)
C14 C -0.0307(2) 0.61753(19) -0.21738(19)
H10 H -0.0257 0.6626 -0.1700
C15 C -0.1172(2) 0.56948(18) -0.26456(17)
H11 H -0.1711 0.5818 -0.2485
C16 C -0.04351(17) 0.48376(16) -0.36022(16)
C17 C -0.12604(18) 0.50223(15) -0.33646(17)
O2 O -0.29521(11) 0.33966(13) -0.49705(12)
C18 C -0.37950(19) 0.3525(3) -0.4736(2)
H12 H -0.4317 0.3114 -0.5135
H13 H -0.4008 0.4179 -0.4849
H14 H -0.3627 0.3370 -0.4065
N6 N -0.14226(15) 0.30821(15) -0.54255(15)
H15 H -0.0937 0.2957 -0.5591
H16 H -0.1976 0.2791 -0.5704
Cl2 Cl 0.16048(6) 0.65852(5) -0.18088(5)
N7 N 0.29149(14) 0.70564(14) 0.11522(14)
C19 C 0.29232(16) 0.76798(17) 0.05252(17)
C20 C 0.37830(17) 0.78795(17) 0.02953(16)
N8 N 0.46197(13) 0.74436(13) 0.07595(13)
C21 C 0.55240(19) 0.63061(16) 0.19774(17)
H17 H 0.6093 0.6448 0.1874
C22 C 0.5544(2) 0.56232(17) 0.26395(18)
C23 C 0.4715(2) 0.5403(2) 0.2823(2)
H18 H 0.4744 0.4933 0.3272
C24 C 0.3851(2) 0.58861(19) 0.23355(18)
H19 H 0.3296 0.5748 0.2465
C25 C 0.46449(17) 0.67886(16) 0.14584(16)
C26 C 0.37966(18) 0.65850(17) 0.16459(16)
O3 O 0.21421(11) 0.82092(12) 0.00048(12)
C27 C 0.12783(19) 0.8115(2) 0.0219(2)
H20 H 0.0770 0.8528 -0.0198
H21 H 0.1433 0.8288 0.0883
H22 H 0.1053 0.7464 0.0117
N9 N 0.36848(15) 0.85116(15) -0.04056(15)
H23 H 0.4178 0.8638 -0.0559
H24 H 0.3128 0.8792 -0.0704
Cl3 Cl 0.66327(6) 0.49939(5) 0.32423(6)
loop_
_geom_bond_atom_site_label_1
_geom_bond_atom_site_label_2
_geom_bond_site_symmetry_1
_geom_bond_site_symmetry_2
N1 C1 1_555 1_555
C1 C2 1_555 1_555
C2 N2 1_555 1_555
N2 C7 1_555 1_555
C3 H1 1_555 1_555
C4 C3 1_555 1_555
C5 C4 1_555 1_555
H2 C5 1_555 1_555
C6 C5 1_555 1_555
H3 C6 1_555 1_555
C7 C3 1_555 1_555
C8 N1 1_555 1_555
O1 C1 1_555 1_555
C9 O1 1_555 1_555
H4 C9 1_555 1_555
H5 C9 1_555 1_555
H6 C9 1_555 1_555
N3 C2 1_555 1_555
H7 N3 1_555 1_555
H8 N3 1_555 1_555
Cl1 C4 1_555 1_555
N4 C10 1_555 1_555
C10 C11 1_555 1_555
C11 N5 1_555 1_555
N5 C16 1_555 1_555
C12 H9 1_555 1_555
C13 C12 1_555 1_555
C14 C13 1_555 1_555
H10 C14 1_555 1_555
C15 C14 1_555 1_555
H11 C15 1_555 1_555
C16 C12 1_555 1_555
C17 N4 1_555 1_555
O2 C10 1_555 1_555
C18 O2 1_555 1_555
H12 C18 1_555 1_555
H13 C18 1_555 1_555
H14 C18 1_555 1_555
N6 C11 1_555 1_555
H15 N6 1_555 1_555
H16 N6 1_555 1_555
Cl2 C13 1_555 1_555
N7 C19 1_555 1_555
C19 C20 1_555 1_555
C20 N8 1_555 1_555
N8 C25 1_555 1_555
C21 H17 1_555 1_555
C22 C21 1_555 1_555
C23 C22 1_555 1_555
H18 C23 1_555 1_555
C24 C23 1_555 1_555
H19 C24 1_555 1_555
C25 C21 1_555 1_555
C26 N7 1_555 1_555
O3 C19 1_555 1_555
C27 O3 1_555 1_555
H20 C27 1_555 1_555
H21 C27 1_555 1_555
H22 C27 1_555 1_555
N9 C20 1_555 1_555
H23 N9 1_555 1_555
H24 N9 1_555 1_555
Cl3 C22 1_555 1_555
C6 C8 1_555 1_555
C7 C8 1_555 1_555
C15 C17 1_555 1_555
C16 C17 1_555 1_555
C24 C26 1_555 1_555
C25 C26 1_555 1_555

#END
