
#######################################################################
#
#                 Cambridge Crystallographic Data Centre
#                                CCDC 
#
#######################################################################
#
# If this CIF has been generated from an entry in the Cambridge 
# Structural Database, then it will include bibliographic, chemical, 
# crystal, experimental, refinement or atomic coordinate data resulting 
# from the CCDC's data processing and validation procedures.
#
#######################################################################

data_OWOZAC
_chemical_formula_moiety         'C21 H17 Cl1 N2 O4'
_chemical_name_systematic        
'(-)-Ethyl (1-(4-chlorophenyl)-2,5-dioxopyrrolidin-3-yl)(cyano)phenylacetate'
_symmetry_cell_setting           orthorhombic
_symmetry_space_group_name_H-M   'P 21 21 21'
_symmetry_Int_Tables_number      19
_space_group_name_Hall           'P 2ac 2ab'
loop_
_symmetry_equiv_pos_site_id
_symmetry_equiv_pos_as_xyz
1 x,y,z
2 1/2-x,-y,1/2+z
3 1/2+x,1/2-y,-z
4 -x,1/2+y,1/2-z
_cell_length_a                   7.584(5)
_cell_length_b                   9.121(5)
_cell_length_c                   28.843(5)
_cell_angle_alpha                90
_cell_angle_beta                 90
_cell_angle_gamma                90
_cell_volume                     1995.18
_exptl_crystal_colour            colorless
_exptl_crystal_description       block
_chemical_melting_point          '152-153 deg.C'
_cell_formula_units_Z            4
loop_
_atom_site_label
_atom_site_type_symbol
_atom_site_fract_x
_atom_site_fract_y
_atom_site_fract_z
Cl1 Cl 0.23238(11) 1.40592(9) 0.59722(3)
O1 O 0.3881(2) 0.84279(17) 0.30659(5)
O2 O -0.1564(3) 0.82246(19) 0.49701(6)
N1 N 0.0903(2) 0.92602(18) 0.46423(6)
O3 O 0.4994(2) 0.7036(2) 0.36305(6)
O4 O 0.3171(2) 0.9801(2) 0.41375(6)
N2 N -0.0267(3) 0.9245(2) 0.32141(7)
C1 C 0.1680(3) 0.7435(2) 0.41038(7)
H1 H 0.2539 0.6767 0.4244
C2 C 0.1301(3) 0.5736(2) 0.34160(7)
C3 C -0.0403(3) 0.8202(2) 0.46861(7)
C4 C 0.0684(3) 0.8398(2) 0.33566(7)
C5 C 0.1835(3) 0.7293(2) 0.35709(6)
C6 C 0.1222(3) 1.0153(3) 0.54309(7)
H2 H 0.1050 0.9202 0.5537
C7 C -0.0135(3) 0.7084(2) 0.43088(8)
H3 H -0.1046 0.7168 0.4074
H4 H -0.0157 0.6098 0.4435
C8 C 0.3782(3) 0.7573(2) 0.34340(7)
C9 C 0.1143(3) 1.0458(2) 0.49601(7)
C10 C 0.1557(3) 1.1265(3) 0.57381(8)
H5 H 0.1627 1.1067 0.6054
C11 C 0.1346(3) 1.1875(3) 0.48010(8)
H6 H 0.1262 1.2077 0.4486
C12 C 0.1788(3) 1.2677(3) 0.55793(9)
C13 C 0.1674(4) 1.2994(3) 0.51145(9)
H7 H 0.1817 1.3952 0.5011
C14 C -0.0040(4) 0.5526(3) 0.30964(9)
H8 H -0.0630 0.6327 0.2972
C15 C 0.2069(3) 0.8976(3) 0.42792(7)
C16 C 0.2184(5) 0.4535(3) 0.35960(9)
H9 H 0.3092 0.4660 0.3809
C17 C 0.5664(4) 0.8872(3) 0.29238(11)
H10 H 0.6381 0.9063 0.3196
H11 H 0.6215 0.8090 0.2748
C18 C -0.0500(5) 0.4111(3) 0.29630(11)
H12 H -0.1407 0.3971 0.2751
C19 C 0.0353(7) 0.2943(4) 0.31383(12)
H13 H 0.0032 0.2004 0.3045
C20 C 0.1682(6) 0.3118(3) 0.34511(11)
H14 H 0.2261 0.2301 0.3570
C21 C 0.5546(6) 1.0173(5) 0.26439(16)
H15 H 0.4847 0.9973 0.2374
H16 H 0.6708 1.0470 0.2551
H17 H 0.5006 1.0944 0.2820
loop_
_geom_bond_atom_site_label_1
_geom_bond_atom_site_label_2
_geom_bond_site_symmetry_1
_geom_bond_site_symmetry_2
Cl1 C12 1_555 1_555
O1 C8 1_555 1_555
O2 C3 1_555 1_555
N1 C3 1_555 1_555
O3 C8 1_555 1_555
O4 C15 1_555 1_555
N2 C4 1_555 1_555
C1 H1 1_555 1_555
C2 C5 1_555 1_555
C3 C7 1_555 1_555
C4 C5 1_555 1_555
C5 C1 1_555 1_555
C6 H2 1_555 1_555
C7 C1 1_555 1_555
H3 C7 1_555 1_555
H4 C7 1_555 1_555
C8 C5 1_555 1_555
C9 N1 1_555 1_555
C10 C6 1_555 1_555
H5 C10 1_555 1_555
C11 C9 1_555 1_555
H6 C11 1_555 1_555
C12 C10 1_555 1_555
C13 C11 1_555 1_555
H7 C13 1_555 1_555
C14 C2 1_555 1_555
H8 C14 1_555 1_555
C15 N1 1_555 1_555
C16 C2 1_555 1_555
H9 C16 1_555 1_555
C17 O1 1_555 1_555
H10 C17 1_555 1_555
H11 C17 1_555 1_555
C18 C14 1_555 1_555
H12 C18 1_555 1_555
C19 C18 1_555 1_555
H13 C19 1_555 1_555
C20 C16 1_555 1_555
H14 C20 1_555 1_555
C21 C17 1_555 1_555
H15 C21 1_555 1_555
H16 C21 1_555 1_555
H17 C21 1_555 1_555
C1 C15 1_555 1_555
C6 C9 1_555 1_555
C12 C13 1_555 1_555
C19 C20 1_555 1_555

#END
