
#######################################################################
#
#                 Cambridge Crystallographic Data Centre
#                                CCDC 
#
#######################################################################
#
# If this CIF has been generated from an entry in the Cambridge 
# Structural Database, then it will include bibliographic, chemical, 
# crystal, experimental, refinement or atomic coordinate data resulting 
# from the CCDC's data processing and validation procedures.
#
#######################################################################

data_OWUBEO
_chemical_formula_moiety         'C56 H52 N2 O8'
_chemical_name_systematic        
6,9,12,15,29,32,35,38-Octaoxa-49,54-diazanonacyclo[22.22.10.2^2,5^.2^16,19^.2^25,28^.2^39,42^.2^50,53^.0^20,56^.0^43,47^]hexahexaconta-1(47),2,4,16,18,20(56),21,23,25,27,39,41,43,45,48,50,52,54,57,59,61,63,65-tricosaene
_symmetry_cell_setting           orthorhombic
_symmetry_space_group_name_H-M   'P c c n'
_symmetry_Int_Tables_number      56
_space_group_name_Hall           '-P 2ab 2ac'
loop_
_symmetry_equiv_pos_site_id
_symmetry_equiv_pos_as_xyz
1 x,y,z
2 1/2-x,1/2-y,z
3 -x,1/2+y,1/2-z
4 1/2+x,-y,1/2-z
5 -x,-y,-z
6 1/2+x,1/2+y,-z
7 x,1/2-y,1/2+z
8 1/2-x,y,1/2+z
_cell_length_a                   19.236(4)
_cell_length_b                   28.992(6)
_cell_length_c                   8.0513(16)
_cell_angle_alpha                90
_cell_angle_beta                 90
_cell_angle_gamma                90
_cell_volume                     4490.13
_exptl_crystal_colour            colorless
_exptl_crystal_description       prism
_cell_formula_units_Z            4
loop_
_atom_site_label
_atom_site_type_symbol
_atom_site_fract_x
_atom_site_fract_y
_atom_site_fract_z
O1 O 0.93405(12) 0.68212(8) 0.6276(3)
O2 O 0.86507(13) 0.69754(8) 0.3238(3)
O3 O 0.73315(13) 0.64300(8) 0.3465(3)
O4 O 0.77612(13) 0.54787(8) 0.3405(3)
N1 N 1.03450(16) 0.58612(10) 1.1398(4)
C1 C 1.12255(17) 0.63417(11) 1.2646(4)
C2 C 1.16703(18) 0.63039(12) 1.4021(4)
C3 C 1.19334(18) 0.67050(12) 1.4754(4)
H1 H 1.2248 0.6684 1.5660
C4 C 1.17332(19) 0.71310(12) 1.4156(4)
H2 H 1.1897 0.7403 1.4688
C5 C 1.12989(17) 0.71681(11) 1.2798(4)
H3 H 1.1167 0.7465 1.2414
C6 C 1.10506(17) 0.67776(11) 1.1979(4)
C7 C 1.06281(17) 0.68243(10) 1.0446(4)
C8 C 0.99954(19) 0.70473(11) 1.0413(4)
H4 H 0.9837 0.7201 1.1384
C9 C 0.95840(19) 0.70526(11) 0.8999(4)
H5 H 0.9150 0.7209 0.9009
C10 C 0.98069(18) 0.68290(11) 0.7569(4)
C11 C 1.04674(18) 0.66358(11) 0.7525(4)
H6 H 1.0644 0.6509 0.6522
C12 C 1.08662(18) 0.66302(11) 0.8953(4)
H7 H 1.1313 0.6491 0.8923
C13 C 0.95762(18) 0.66206(13) 0.4749(4)
H8 H 0.9810 0.6323 0.4976
H9 H 0.9916 0.6829 0.4208
C14 C 0.89615(19) 0.65445(12) 0.3616(4)
H10 H 0.9116 0.6392 0.2580
H11 H 0.8618 0.6341 0.4167
C15 C 0.81279(19) 0.69433(11) 0.1984(4)
H12 H 0.8245 0.6685 0.1230
H13 H 0.8131 0.7231 0.1320
C16 C 0.74079(19) 0.68684(11) 0.2663(4)
H14 H 0.7300 0.7116 0.3469
H15 H 0.7068 0.6890 0.1743
C17 C 0.70497(19) 0.60891(11) 0.2397(4)
H16 H 0.7330 0.6068 0.1369
H17 H 0.6567 0.6172 0.2088
C18 C 0.70564(18) 0.56341(12) 0.3288(4)
H18 H 0.6855 0.5670 0.4413
H19 H 0.6774 0.5406 0.2669
C19 C 0.78636(18) 0.50477(11) 0.4059(4)
C20 C 0.73480(18) 0.47903(12) 0.4839(4)
H20 H 0.6892 0.4912 0.4964
C21 C 0.75089(19) 0.43511(12) 0.5434(4)
H21 H 0.7155 0.4176 0.5966
C22 C 0.81614(17) 0.41623(11) 0.5278(4)
C23 C 0.86727(19) 0.44299(12) 0.4501(5)
H22 H 0.9129 0.4309 0.4390
C24 C 0.85301(19) 0.48657(12) 0.3892(5)
H23 H 0.8885 0.5040 0.3362
C25 C 1.09549(18) 0.59113(11) 1.1925(4)
H24 H 1.1261 0.5655 1.1853
C26 C 1.01756(19) 0.54214(12) 1.0720(5)
C27 C 0.9820(2) 0.54105(12) 0.9211(5)
H25 H 0.9691 0.5690 0.8681
C28 C 1.03423(19) 0.50059(12) 1.1510(5)
H26 H 1.0570 0.5012 1.2557
O1D O 1.06595(12) 0.31788(8) 1.3724(3)
O2D O 1.13493(13) 0.30246(8) 1.6762(3)
O3D O 1.26685(13) 0.35700(8) 1.6535(3)
O4D O 1.22388(13) 0.45213(8) 1.6595(3)
N1D N 0.96550(16) 0.41388(10) 0.8602(4)
C1D C 0.87745(17) 0.36583(11) 0.7354(4)
C2D C 0.83297(18) 0.36961(12) 0.5979(4)
C3D C 0.80666(18) 0.32950(12) 0.5246(4)
H1D H 0.7752 0.3316 0.4340
C4D C 0.82668(19) 0.28690(12) 0.5844(4)
H2D H 0.8103 0.2597 0.5312
C5D C 0.87011(17) 0.28319(11) 0.7202(4)
H3D H 0.8833 0.2535 0.7586
C6D C 0.89494(17) 0.32224(11) 0.8021(4)
C7D C 0.93719(17) 0.31757(10) 0.9554(4)
C8D C 1.00046(19) 0.29527(11) 0.9587(4)
H4D H 1.0163 0.2799 0.8616
C9D C 1.04160(19) 0.29474(11) 1.1001(4)
H5D H 1.0850 0.2791 1.0991
C10D C 1.01931(18) 0.31710(11) 1.2431(4)
C11D C 0.95326(18) 0.33642(11) 1.2475(4)
H6D H 0.9356 0.3491 1.3478
C12D C 0.91338(18) 0.33698(11) 1.1047(4)
H7D H 0.8687 0.3509 1.1077
C13D C 1.04238(18) 0.33794(13) 1.5251(4)
H8D H 1.0190 0.3677 1.5024
H9D H 1.0084 0.3171 1.5792
C14D C 1.10385(19) 0.34555(12) 1.6384(4)
H10D H 1.0884 0.3608 1.7420
H11D H 1.1382 0.3659 1.5833
C15D C 1.18721(19) 0.30567(11) 1.8016(4)
H12D H 1.1755 0.3315 1.8770
H13D H 1.1869 0.2769 1.8680
C16D C 1.25921(19) 0.31316(11) 1.7337(4)
H14D H 1.2700 0.2884 1.6531
H15D H 1.2932 0.3110 1.8257
C17D C 1.29503(19) 0.39109(11) 1.7603(4)
H16D H 1.2670 0.3932 1.8631
H17D H 1.3433 0.3828 1.7912
C18D C 1.29436(18) 0.43659(12) 1.6712(4)
H18D H 1.3145 0.4330 1.5587
H19D H 1.3226 0.4594 1.7331
C19D C 1.21364(18) 0.49523(11) 1.5941(4)
C20D C 1.26520(18) 0.52097(12) 1.5161(4)
H20D H 1.3108 0.5088 1.5036
C21D C 1.24911(19) 0.56489(12) 1.4566(4)
H21D H 1.2845 0.5824 1.4034
C22D C 1.18386(17) 0.58377(11) 1.4722(4)
C23D C 1.13273(19) 0.55701(12) 1.5499(5)
H22D H 1.0871 0.5691 1.5610
C24D C 1.14699(19) 0.51343(12) 1.6108(5)
H23D H 1.1115 0.4960 1.6638
C25D C 0.90451(18) 0.40887(11) 0.8075(4)
H24D H 0.8739 0.4345 0.8147
C26D C 0.98244(19) 0.45786(12) 0.9280(5)
C27D C 1.0180(2) 0.45895(12) 1.0789(5)
H25D H 1.0309 0.4310 1.1319
C28D C 0.96577(19) 0.49941(12) 0.8490(5)
H26D H 0.9430 0.4988 0.7443
loop_
_geom_bond_atom_site_label_1
_geom_bond_atom_site_label_2
_geom_bond_site_symmetry_1
_geom_bond_site_symmetry_2
O1 C10 1_555 1_555
O2 C14 1_555 1_555
O3 C16 1_555 1_555
O4 C18 1_555 1_555
N1 C25 1_555 1_555
C1 C2 1_555 1_555
C2 C3 1_555 1_555
C3 H1 1_555 1_555
C4 C3 1_555 1_555
H2 C4 1_555 1_555
C5 C4 1_555 1_555
H3 C5 1_555 1_555
C6 C1 1_555 1_555
C7 C6 1_555 1_555
C8 C7 1_555 1_555
H4 C8 1_555 1_555
C9 C8 1_555 1_555
H5 C9 1_555 1_555
C10 C9 1_555 1_555
C11 C10 1_555 1_555
H6 C11 1_555 1_555
C12 C7 1_555 1_555
H7 C12 1_555 1_555
C13 O1 1_555 1_555
H8 C13 1_555 1_555
H9 C13 1_555 1_555
C14 C13 1_555 1_555
H10 C14 1_555 1_555
H11 C14 1_555 1_555
C15 O2 1_555 1_555
H12 C15 1_555 1_555
H13 C15 1_555 1_555
C16 C15 1_555 1_555
H14 C16 1_555 1_555
H15 C16 1_555 1_555
C17 O3 1_555 1_555
H16 C17 1_555 1_555
H17 C17 1_555 1_555
C18 C17 1_555 1_555
H18 C18 1_555 1_555
H19 C18 1_555 1_555
C19 O4 1_555 1_555
C20 C19 1_555 1_555
H20 C20 1_555 1_555
C21 C20 1_555 1_555
H21 C21 1_555 1_555
C22 C21 1_555 1_555
C23 C22 1_555 1_555
H22 C23 1_555 1_555
C24 C19 1_555 1_555
H23 C24 1_555 1_555
C25 C1 1_555 1_555
H24 C25 1_555 1_555
C26 N1 1_555 1_555
C27 C26 1_555 1_555
H25 C27 1_555 1_555
C28 C26 1_555 1_555
H26 C28 1_555 1_555
O1D C10D 1_555 1_555
O2D C14D 1_555 1_555
O3D C16D 1_555 1_555
O4D C18D 1_555 1_555
N1D C25D 1_555 1_555
C1D C2D 1_555 1_555
C2D C22 1_555 1_555
C3D C2D 1_555 1_555
H1D C3D 1_555 1_555
C4D C3D 1_555 1_555
H2D C4D 1_555 1_555
C5D C4D 1_555 1_555
H3D C5D 1_555 1_555
C6D C1D 1_555 1_555
C7D C6D 1_555 1_555
C8D C7D 1_555 1_555
H4D C8D 1_555 1_555
C9D C8D 1_555 1_555
H5D C9D 1_555 1_555
C10D C9D 1_555 1_555
C11D C10D 1_555 1_555
H6D C11D 1_555 1_555
C12D C7D 1_555 1_555
H7D C12D 1_555 1_555
C13D O1D 1_555 1_555
H8D C13D 1_555 1_555
H9D C13D 1_555 1_555
C14D C13D 1_555 1_555
H10D C14D 1_555 1_555
H11D C14D 1_555 1_555
C15D O2D 1_555 1_555
H12D C15D 1_555 1_555
H13D C15D 1_555 1_555
C16D C15D 1_555 1_555
H14D C16D 1_555 1_555
H15D C16D 1_555 1_555
C17D O3D 1_555 1_555
H16D C17D 1_555 1_555
H17D C17D 1_555 1_555
C18D C17D 1_555 1_555
H18D C18D 1_555 1_555
H19D C18D 1_555 1_555
C19D O4D 1_555 1_555
C20D C19D 1_555 1_555
H20D C20D 1_555 1_555
C21D C20D 1_555 1_555
H21D C21D 1_555 1_555
C22D C2 1_555 1_555
C23D C22D 1_555 1_555
H22D C23D 1_555 1_555
C24D C19D 1_555 1_555
H23D C24D 1_555 1_555
C25D C1D 1_555 1_555
H24D C25D 1_555 1_555
C26D N1D 1_555 1_555
C27D C28 1_555 1_555
H25D C27D 1_555 1_555
C28D C27 1_555 1_555
H26D C28D 1_555 1_555
C5 C6 1_555 1_555
C11 C12 1_555 1_555
C23 C24 1_555 1_555
C5D C6D 1_555 1_555
C11D C12D 1_555 1_555
C21D C22D 1_555 1_555
C23D C24D 1_555 1_555
C26D C27D 1_555 1_555
C26D C28D 1_555 1_555

#END
