
#######################################################################
#
#                 Cambridge Crystallographic Data Centre
#                                CCDC 
#
#######################################################################
#
# If this CIF has been generated from an entry in the Cambridge 
# Structural Database, then it will include bibliographic, chemical, 
# crystal, experimental, refinement or atomic coordinate data resulting 
# from the CCDC's data processing and validation procedures.
#
#######################################################################

data_OWUKOI
_chemical_formula_moiety         'C38 H35 B1 F10 N2 O2,x(C5 H12)'
_chemical_name_systematic        
'(N,1-bis(2,6-diisopropylphenyl)-1-(oxidomethylidene)ammoniumcarboximidato)-bis(pentafluorophenyl)-boron pentane solvate'
_symmetry_cell_setting           triclinic
_symmetry_space_group_name_H-M   'P -1'
_symmetry_Int_Tables_number      2
_space_group_name_Hall           '-P 1'
loop_
_symmetry_equiv_pos_site_id
_symmetry_equiv_pos_as_xyz
1 x,y,z
2 -x,-y,-z
_cell_length_a                   10.9574(6)
_cell_length_b                   11.8327(6)
_cell_length_c                   15.8998(8)
_cell_angle_alpha                94.1350(10)
_cell_angle_beta                 93.5820(10)
_cell_angle_gamma                109.3570(10)
_cell_volume                     1931.71
_exptl_crystal_description       block
_cell_formula_units_Z            2
loop_
_atom_site_label
_atom_site_type_symbol
_atom_site_fract_x
_atom_site_fract_y
_atom_site_fract_z
F1 F 0.18718(7) 0.21500(7) 0.28495(5)
F2 F 0.19341(8) 0.43296(8) 0.34758(6)
F3 F 0.31951(8) 0.53015(7) 0.50251(6)
F4 F 0.44673(8) 0.40829(7) 0.59029(5)
F5 F 0.44402(7) 0.19290(6) 0.52958(4)
F6 F 0.24694(8) -0.18706(7) 0.30502(6)
F7 F 0.01922(10) -0.36646(7) 0.29353(7)
F8 F -0.19600(8) -0.32528(8) 0.34384(6)
F9 F -0.17857(7) -0.10070(7) 0.40773(5)
F10 F 0.04678(6) 0.07798(6) 0.42372(4)
O1 O 0.39931(7) 0.01441(7) 0.41037(5)
O2 O 0.32747(7) 0.06210(7) 0.27300(5)
N1 N 0.52905(8) 0.04211(8) 0.30043(5)
N2 N 0.47929(9) 0.11162(8) 0.17532(6)
C1 C 0.49975(10) 0.01073(9) 0.37635(7)
H1 H 0.5586 -0.0169 0.4082
C2 C 0.65169(10) 0.03965(10) 0.27139(7)
C3 C 0.64953(12) -0.06221(11) 0.22040(7)
C4 C 0.76865(13) -0.06265(13) 0.19410(7)
H2 H 0.7726 -0.1307 0.1603
C5 C 0.88095(13) 0.03459(14) 0.21665(8)
H3 H 0.9609 0.0328 0.1977
C6 C 0.87839(12) 0.13432(13) 0.26637(8)
H4 H 0.9564 0.2005 0.2807
C7 C 0.76293(11) 0.13924(11) 0.29581(7)
C8 C 0.52539(13) -0.16778(11) 0.19573(7)
H5 H 0.4511 -0.1396 0.2077
C9 C 0.51802(19) -0.27091(13) 0.25004(10)
H6 H 0.5906 -0.2998 0.2405
H7 H 0.4358 -0.3368 0.2345
H8 H 0.5230 -0.2422 0.3100
C10 C 0.50856(16) -0.21121(16) 0.10207(9)
H9 H 0.5152 -0.1434 0.0686
H10 H 0.4231 -0.2734 0.0883
H11 H 0.5766 -0.2448 0.0890
C11 C 0.76213(11) 0.24680(11) 0.35390(8)
H12 H 0.6703 0.2455 0.3531
C12 C 0.84372(13) 0.36710(13) 0.32570(11)
H13 H 0.9359 0.3756 0.3333
H14 H 0.8287 0.4328 0.3598
H15 H 0.8190 0.3702 0.2658
C13 C 0.80764(15) 0.23558(13) 0.44527(9)
H16 H 0.8971 0.2353 0.4478
H17 H 0.7509 0.1604 0.4639
H18 H 0.8039 0.3039 0.4824
C14 C 0.15908(11) -0.04515(10) 0.36471(7)
C15 C 0.14396(12) -0.16198(11) 0.33252(8)
C16 C 0.02763(14) -0.25594(11) 0.32561(9)
C17 C -0.08180(12) -0.23506(12) 0.35112(8)
C18 C -0.07263(11) -0.12179(11) 0.38357(7)
C19 C 0.04641(11) -0.02987(10) 0.39059(7)
C20 C 0.31402(10) 0.19213(10) 0.40392(7)
C21 C 0.25342(11) 0.26009(10) 0.36073(7)
C22 C 0.25391(12) 0.37212(11) 0.39220(9)
C23 C 0.31786(12) 0.42156(11) 0.47037(9)
C24 C 0.38188(12) 0.35967(10) 0.51515(8)
C25 C 0.37900(11) 0.24769(10) 0.48120(7)
C26 C 0.44128(9) 0.07663(9) 0.24519(6)
C27 C 0.39292(10) 0.15008(10) 0.12257(6)
C28 C 0.42862(11) 0.27436(10) 0.11533(7)
C29 C 0.34356(13) 0.31517(11) 0.06772(7)
H19 H 0.3642 0.3991 0.0637
C30 C 0.22926(13) 0.23537(12) 0.02609(8)
H20 H 0.1709 0.2647 -0.0048
C31 C 0.20040(12) 0.11301(11) 0.02967(7)
H21 H 0.1238 0.0587 -0.0011
C32 C 0.28131(11) 0.06751(10) 0.07752(7)
C33 C 0.55437(11) 0.36018(10) 0.16109(7)
H22 H 0.6155 0.3141 0.1683
C34 C 0.53133(13) 0.40443(11) 0.24960(7)
H23 H 0.4686 0.4469 0.2447
H24 H 0.6135 0.4593 0.2784
H25 H 0.4972 0.3354 0.2823
C35 C 0.61996(15) 0.46673(12) 0.11163(9)
H26 H 0.6316 0.4369 0.0546
H27 H 0.7049 0.5141 0.1410
H28 H 0.5655 0.5175 0.1076
C36 C 0.24857(11) -0.06765(10) 0.07750(7)
H29 H 0.3163 -0.0818 0.1163
C37 C 0.11695(13) -0.12651(13) 0.11112(10)
H30 H 0.1149 -0.0857 0.1666
H31 H 0.1037 -0.2116 0.1167
H32 H 0.0478 -0.1200 0.0716
C38 C 0.25401(18) -0.12501(13) -0.01102(9)
H33 H 0.1856 -0.1160 -0.0499
H34 H 0.2409 -0.2107 -0.0086
H35 H 0.3390 -0.0850 -0.0312
B1 B 0.29929(11) 0.05847(11) 0.36295(7)
loop_
_geom_bond_atom_site_label_1
_geom_bond_atom_site_label_2
_geom_bond_site_symmetry_1
_geom_bond_site_symmetry_2
F1 C21 1_555 1_555
F2 C22 1_555 1_555
F3 C23 1_555 1_555
F4 C24 1_555 1_555
F5 C25 1_555 1_555
F6 C15 1_555 1_555
F7 C16 1_555 1_555
F8 C17 1_555 1_555
F9 C18 1_555 1_555
F10 C19 1_555 1_555
O1 C1 1_555 1_555
O2 C26 1_555 1_555
N1 C1 1_555 1_555
N2 C26 1_555 1_555
C1 H1 1_555 1_555
C2 N1 1_555 1_555
C3 C2 1_555 1_555
C4 C3 1_555 1_555
H2 C4 1_555 1_555
C5 C4 1_555 1_555
H3 C5 1_555 1_555
C6 C5 1_555 1_555
H4 C6 1_555 1_555
C7 C2 1_555 1_555
C8 C3 1_555 1_555
H5 C8 1_555 1_555
C9 C8 1_555 1_555
H6 C9 1_555 1_555
H7 C9 1_555 1_555
H8 C9 1_555 1_555
C10 C8 1_555 1_555
H9 C10 1_555 1_555
H10 C10 1_555 1_555
H11 C10 1_555 1_555
C11 C7 1_555 1_555
H12 C11 1_555 1_555
C12 C11 1_555 1_555
H13 C12 1_555 1_555
H14 C12 1_555 1_555
H15 C12 1_555 1_555
C13 C11 1_555 1_555
H16 C13 1_555 1_555
H17 C13 1_555 1_555
H18 C13 1_555 1_555
C14 C15 1_555 1_555
C15 C16 1_555 1_555
C16 C17 1_555 1_555
C17 C18 1_555 1_555
C18 C19 1_555 1_555
C19 C14 1_555 1_555
C20 C21 1_555 1_555
C21 C22 1_555 1_555
C22 C23 1_555 1_555
C23 C24 1_555 1_555
C24 C25 1_555 1_555
C25 C20 1_555 1_555
C26 N1 1_555 1_555
C27 N2 1_555 1_555
C28 C27 1_555 1_555
C29 C28 1_555 1_555
H19 C29 1_555 1_555
C30 C29 1_555 1_555
H20 C30 1_555 1_555
C31 C30 1_555 1_555
H21 C31 1_555 1_555
C32 C27 1_555 1_555
C33 C28 1_555 1_555
H22 C33 1_555 1_555
C34 C33 1_555 1_555
H23 C34 1_555 1_555
H24 C34 1_555 1_555
H25 C34 1_555 1_555
C35 C33 1_555 1_555
H26 C35 1_555 1_555
H27 C35 1_555 1_555
H28 C35 1_555 1_555
C36 C32 1_555 1_555
H29 C36 1_555 1_555
C37 C36 1_555 1_555
H30 C37 1_555 1_555
H31 C37 1_555 1_555
H32 C37 1_555 1_555
C38 C36 1_555 1_555
H33 C38 1_555 1_555
H34 C38 1_555 1_555
H35 C38 1_555 1_555
B1 O1 1_555 1_555
O2 B1 1_555 1_555
C6 C7 1_555 1_555
C14 B1 1_555 1_555
C20 B1 1_555 1_555
C31 C32 1_555 1_555

#END
