
#######################################################################
#
#                 Cambridge Crystallographic Data Centre
#                                CCDC 
#
#######################################################################
#
# If this CIF has been generated from an entry in the Cambridge 
# Structural Database, then it will include bibliographic, chemical, 
# crystal, experimental, refinement or atomic coordinate data resulting 
# from the CCDC's data processing and validation procedures.
#
#######################################################################

data_OWUKEY
_chemical_formula_moiety         'C18 H16 Cl1 N1 O2'
_chemical_name_systematic        
2-benzyl-6-chloro-3-(2-oxopropyl)isoindolin-1-one
_symmetry_cell_setting           monoclinic
_symmetry_space_group_name_H-M   'P 21/c'
_symmetry_Int_Tables_number      14
_space_group_name_Hall           '-P 2ybc'
loop_
_symmetry_equiv_pos_site_id
_symmetry_equiv_pos_as_xyz
1 x,y,z
2 -x,1/2+y,1/2-z
3 -x,-y,-z
4 x,1/2-y,1/2+z
_cell_length_a                   12.612(7)
_cell_length_b                   8.232(5)
_cell_length_c                   15.575(10)
_cell_angle_alpha                90
_cell_angle_beta                 105.730(12)
_cell_angle_gamma                90
_cell_volume                     1556.47
_exptl_crystal_colour            colorless
_exptl_crystal_description       block
_cell_formula_units_Z            4
loop_
_atom_site_label
_atom_site_type_symbol
_atom_site_fract_x
_atom_site_fract_y
_atom_site_fract_z
C1 C -0.00214(17) 0.1504(2) 0.38027(13)
C2 C -0.09962(18) 0.1654(2) 0.31441(14)
H1 H -0.1624 0.2071 0.3267
C3 C -0.10068(19) 0.1167(2) 0.23054(15)
C4 C -0.0077(2) 0.0572(2) 0.21136(14)
H2 H -0.0101 0.0278 0.1532
C5 C 0.0894(2) 0.0413(2) 0.27858(15)
H3 H 0.1523 -0.0001 0.2662
C6 C 0.09148(18) 0.0874(2) 0.36380(13)
C7 C 0.18360(17) 0.0823(2) 0.44850(14)
H4 H 0.2005 -0.0311 0.4659
C8 C 0.28762(18) 0.1665(3) 0.44162(15)
H5 H 0.3029 0.1321 0.3866
H6 H 0.2737 0.2825 0.4371
C9 C 0.38930(19) 0.1374(3) 0.51709(17)
C10 C 0.4791(2) 0.2597(3) 0.5292(2)
H7 H 0.5390 0.2297 0.5793
H8 H 0.4517 0.3646 0.5396
H9 H 0.5045 0.2636 0.4764
C11 C 0.02276(19) 0.1938(2) 0.47488(15)
C12 C 0.18333(18) 0.1778(2) 0.60547(13)
H10 H 0.2287 0.0830 0.6264
H11 H 0.1265 0.1808 0.6367
C13 C 0.25413(16) 0.3277(2) 0.63002(13)
C14 C 0.23093(18) 0.4679(2) 0.58058(14)
H12 H 0.1713 0.4709 0.5301
C15 C 0.29537(19) 0.6037(3) 0.60529(17)
H13 H 0.2802 0.6971 0.5705
C16 C 0.3812(2) 0.6023(3) 0.68023(19)
H14 H 0.4239 0.6951 0.6969
C17 C 0.4050(2) 0.4645(3) 0.73133(18)
H15 H 0.4630 0.4638 0.7831
C18 C 0.34218(18) 0.3271(3) 0.70526(15)
H16 H 0.3594 0.2326 0.7389
N1 N 0.13153(14) 0.15899(18) 0.51161(11)
O1 O 0.39778(14) 0.0189(2) 0.56384(12)
O2 O -0.03922(13) 0.24996(19) 0.51522(10)
Cl1 Cl -0.22252(5) 0.13176(8) 0.14524(4)
loop_
_geom_bond_atom_site_label_1
_geom_bond_atom_site_label_2
_geom_bond_site_symmetry_1
_geom_bond_site_symmetry_2
C1 C2 1_555 1_555
C2 H1 1_555 1_555
C3 C2 1_555 1_555
C4 C3 1_555 1_555
H2 C4 1_555 1_555
C5 C4 1_555 1_555
H3 C5 1_555 1_555
C6 C1 1_555 1_555
C7 C6 1_555 1_555
H4 C7 1_555 1_555
C8 C7 1_555 1_555
H5 C8 1_555 1_555
H6 C8 1_555 1_555
C9 C8 1_555 1_555
C10 C9 1_555 1_555
H7 C10 1_555 1_555
H8 C10 1_555 1_555
H9 C10 1_555 1_555
C11 C1 1_555 1_555
C12 H10 1_555 1_555
H11 C12 1_555 1_555
C13 C12 1_555 1_555
C14 C13 1_555 1_555
H12 C14 1_555 1_555
C15 C14 1_555 1_555
H13 C15 1_555 1_555
C16 C15 1_555 1_555
H14 C16 1_555 1_555
C17 C16 1_555 1_555
H15 C17 1_555 1_555
C18 C13 1_555 1_555
H16 C18 1_555 1_555
N1 C7 1_555 1_555
O1 C9 1_555 1_555
O2 C11 1_555 1_555
Cl1 C3 1_555 1_555
C5 C6 1_555 1_555
C11 N1 1_555 1_555
C12 N1 1_555 1_555
C17 C18 1_555 1_555

#END
