
#######################################################################
#
#                 Cambridge Crystallographic Data Centre
#                                CCDC 
#
#######################################################################
#
# If this CIF has been generated from an entry in the Cambridge 
# Structural Database, then it will include bibliographic, chemical, 
# crystal, experimental, refinement or atomic coordinate data resulting 
# from the CCDC's data processing and validation procedures.
#
#######################################################################

data_OWUKAU
_chemical_formula_moiety         'C32 H40 O7'
_chemical_name_systematic        
1-(7,8,9-tris(benzyloxy)-6-methyl-1,5-dioxecan-2-yl)ethane-1,2-diol
_symmetry_cell_setting           monoclinic
_symmetry_space_group_name_H-M   'C 2'
_symmetry_Int_Tables_number      5
_space_group_name_Hall           'C 2y'
loop_
_symmetry_equiv_pos_site_id
_symmetry_equiv_pos_as_xyz
1 x,y,z
2 -x,y,-z
3 1/2+x,1/2+y,z
4 1/2-x,1/2+y,-z
_cell_length_a                   24.742(6)
_cell_length_b                   11.297(3)
_cell_length_c                   21.701(6)
_cell_angle_alpha                90
_cell_angle_beta                 101.939(7)
_cell_angle_gamma                90
_cell_volume                     5934.44
_exptl_crystal_colour            colorless
_exptl_crystal_description       needle
_cell_formula_units_Z            8
_exptl_crystal_recrystallization_method 'ethyl acetate/hexane'
loop_
_atom_site_label
_atom_site_type_symbol
_atom_site_fract_x
_atom_site_fract_y
_atom_site_fract_z
O1 O 0.34061(17) 0.8141(4) 0.28283(18)
O2 O 0.35860(19) 1.0461(5) 0.23087(19)
O3 O 0.2239(2) 1.0011(5) 0.1262(2)
O4 O 0.2350(2) 0.9739(7) 0.3455(2)
O5 O 0.19498(18) 0.8848(5) 0.2239(2)
C1 C 0.2662(3) 0.9800(7) 0.1808(3)
C2 C 0.2715(3) 0.9615(7) 0.3023(3)
C3 C 0.3918(3) 0.8592(7) 0.3167(3)
C4 C 0.3090(3) 1.0782(7) 0.1874(3)
C5 C 0.2346(3) 0.9819(8) 0.2362(3)
C6 C 0.1594(3) 0.9220(7) 0.0370(3)
C7 C 0.3915(3) 0.9529(9) 0.2095(3)
C8 C 0.2949(3) 0.8350(8) 0.3126(3)
C9 C 0.2121(4) 0.9037(9) 0.0853(3)
C10 C 0.1013(3) 0.8237(8) 0.2141(4)
C11 C 0.4261(3) 0.8975(8) 0.2673(3)
C12 C 0.1266(4) 1.0196(9) 0.0381(3)
C13 C 0.1419(4) 0.8335(9) -0.0060(3)
C14 C 0.1395(3) 0.9308(11) 0.2208(5)
C15 C 0.3213(4) 1.1163(10) 0.1205(4)
C16 C 0.4194(4) 0.7672(10) 0.3625(4)
C17 C 0.4729(4) 0.7954(15) 0.3992(5)
C18 C 0.0587(4) 0.9392(10) -0.0480(4)
C19 C 0.0771(4) 1.0321(11) -0.0032(4)
C20 C 0.0800(5) 0.7856(13) 0.1551(5)
C21 C 0.0913(5) 0.8453(11) -0.0492(4)
C22 C 0.0272(5) 0.6378(15) 0.2003(9)
C23 C 0.0476(7) 0.6768(17) 0.2571(9)
C24 C 0.0876(5) 0.7787(13) 0.2668(5)
C25 C 0.1354(14) 1.185(3) 0.463(2)
C26 C 0.0421(7) 0.6867(19) 0.1493(9)
C27 C 0.1422(14) 0.987(4) 0.4943(15)
C28 C 0.1220(8) 1.105(2) 0.4915(6)
C29 C 0.2462(9) 1.0548(17) 0.3898(9)
C30 C 0.1862(10) 1.176(3) 0.4385(10)
C31 C 0.1555(11) 0.989(3) 0.4182(12)
C32 C 0.1955(9) 1.0694(14) 0.4196(7)
O6 O 0.4948(5) 0.701(2) 0.4394(5)
O7 O 0.4287(3) 0.6605(7) 0.3291(3)
O9 O 0.83767(17) 0.8125(4) 0.28530(19)
O10 O 0.85471(19) 1.0425(5) 0.23035(19)
O11 O 0.72051(19) 0.9964(5) 0.1262(2)
O12 O 0.7305(2) 0.9693(6) 0.3466(2)
O13 O 0.69299(18) 0.8808(5) 0.2245(2)
C34 C 0.7669(3) 0.9578(7) 0.3028(3)
C35 C 0.8055(3) 1.0769(7) 0.1862(3)
C36 C 0.7626(3) 0.9759(8) 0.1805(3)
C37 C 0.8896(3) 0.8603(8) 0.3175(3)
C38 C 0.7310(3) 0.9783(7) 0.2366(3)
C39 C 0.6578(3) 0.9194(8) 0.0366(3)
C40 C 0.7925(3) 0.8352(7) 0.3154(3)
C41 C 0.8874(3) 0.9489(9) 0.2089(3)
C42 C 0.5574(4) 0.9398(9) -0.0502(4)
C43 C 0.9228(3) 0.8926(9) 0.2672(3)
C44 C 0.6395(4) 0.8326(9) -0.0088(3)
C45 C 0.5991(3) 0.8183(9) 0.2148(4)
C46 C 0.6239(4) 1.0196(9) 0.0374(4)
C47 C 0.9179(3) 0.7699(9) 0.3664(4)
C48 C 0.7099(4) 0.8991(8) 0.0838(3)
C49 C 0.5889(5) 0.8458(10) -0.0513(4)
C50 C 0.6797(5) 1.0832(13) 0.4094(5)
C51 C 0.5748(4) 1.0297(10) -0.0045(4)
C52 C 0.6367(3) 0.9270(12) 0.2190(6)
C53 C 0.9730(4) 0.8060(13) 0.4012(4)
C54 C 0.8189(4) 1.1113(10) 0.1206(4)
C55 C 0.6293(13) 1.194(3) 0.4683(12)
C56 C 0.5254(5) 0.6279(14) 0.2001(9)
C57 C 0.5765(4) 0.7786(12) 0.1564(6)
C58 C 0.6695(8) 1.1842(19) 0.4340(7)
C59 C 0.5872(6) 0.7700(12) 0.2654(5)
C60 C 0.6122(10) 0.971(4) 0.4653(11)
C61 C 0.6510(6) 0.984(2) 0.4179(7)
C62 C 0.7247(6) 1.0777(14) 0.3712(7)
C63 C 0.6045(7) 1.101(2) 0.4858(7)
C64 C 0.5393(6) 0.6806(16) 0.1483(9)
C65 C 0.5483(8) 0.6638(18) 0.2590(10)
O14 O 0.9676(3) 0.9196(11) 0.4357(4)
O15 O 0.9279(3) 0.6630(6) 0.3361(3)
C33? C 0.2072(10) 0.985(3) 0.4842(12)
O8? O 0.4697(8) 0.912(2) 0.4354(8)
O16? O 0.9934(12) 0.719(7) 0.4410(12)
loop_
_geom_bond_atom_site_label_1
_geom_bond_atom_site_label_2
_geom_bond_site_symmetry_1
_geom_bond_site_symmetry_2
O1 C3 1_555 1_555
O2 C4 1_555 1_555
O3 C1 1_555 1_555
O4 C2 1_555 1_555
O5 C5 1_555 1_555
C1 C4 1_555 1_555
C2 C5 1_555 1_555
C3 C11 1_555 1_555
C4 C15 1_555 1_555
C5 C1 1_555 1_555
C6 C9 1_555 1_555
C7 O2 1_555 1_555
C8 O1 1_555 1_555
C9 O3 1_555 1_555
C10 C14 1_555 1_555
C11 C7 1_555 1_555
C12 C6 1_555 1_555
C13 C6 1_555 1_555
C14 O5 1_555 1_555
C16 C3 1_555 1_555
C17 C16 1_555 1_555
C18 C19 1_555 1_555
C19 C12 1_555 1_555
C20 C10 1_555 1_555
C21 C13 1_555 1_555
C22 C23 1_555 1_555
C23 C24 1_555 1_555
C24 C10 1_555 1_555
C25 C28 1_555 1_555
C26 C20 1_555 1_555
C27 C28 1_555 1_555
C29 O4 1_555 1_555
C30 C25 1_555 1_555
C31 C27 1_555 1_555
C32 C29 1_555 1_555
O6 C17 1_555 1_555
O7 C16 1_555 1_555
O9 C37 1_555 1_555
O10 C35 1_555 1_555
O11 C36 1_555 1_555
O12 C34 1_555 1_555
O13 C38 1_555 1_555
C34 C38 1_555 1_555
C35 C36 1_555 1_555
C36 C38 1_555 1_555
C37 C43 1_555 1_555
C39 C44 1_555 1_555
C40 O9 1_555 1_555
C41 O10 1_555 1_555
C42 C49 1_555 1_555
C43 C41 1_555 1_555
C44 C49 1_555 1_555
C45 C52 1_555 1_555
C46 C39 1_555 1_555
C47 C37 1_555 1_555
C48 O11 1_555 1_555
C50 C58 1_555 1_555
C51 C42 1_555 1_555
C52 O13 1_555 1_555
C53 C47 1_555 1_555
C54 C35 1_555 1_555
C55 C58 1_555 1_555
C56 C64 1_555 1_555
C57 C45 1_555 1_555
C59 C45 1_555 1_555
C60 C61 1_555 1_555
C61 C50 1_555 1_555
C62 O12 1_555 1_555
C63 C55 1_555 1_555
C64 C57 1_555 1_555
C65 C56 1_555 1_555
O14 C53 1_555 1_555
O15 C47 1_555 1_555
C2 C8 1_555 1_555
C18 C21 1_555 1_555
C22 C26 1_555 1_555
C30 C32 1_555 1_555
C31 C32 1_555 1_555
C34 C40 1_555 1_555
C39 C48 1_555 1_555
C46 C51 1_555 1_555
C50 C62 1_555 1_555
C59 C65 1_555 1_555
C60 C63 1_555 1_555

#END
