
#######################################################################
#
#                 Cambridge Crystallographic Data Centre
#                                CCDC 
#
#######################################################################
#
# If this CIF has been generated from an entry in the Cambridge 
# Structural Database, then it will include bibliographic, chemical, 
# crystal, experimental, refinement or atomic coordinate data resulting 
# from the CCDC's data processing and validation procedures.
#
#######################################################################

data_OWUKUO
_chemical_formula_moiety         'C58 H43 B1 F10 N2 O2'
_chemical_name_systematic        
(N,1-bis(5'-t-butyl-1,1':3',1''-terphenyl-2'-yl)--1-(oxidomethylidene)ammoniumcarboximidato)-bis(pentafluorophenyl)-boron
_symmetry_cell_setting           monoclinic
_symmetry_space_group_name_H-M   'P 21/n'
_symmetry_Int_Tables_number      14
_space_group_name_Hall           '-P 2yn'
loop_
_symmetry_equiv_pos_site_id
_symmetry_equiv_pos_as_xyz
1 x,y,z
2 1/2-x,1/2+y,1/2-z
3 -x,-y,-z
4 1/2+x,1/2-y,1/2+z
_cell_length_a                   17.0378(5)
_cell_length_b                   11.8996(4)
_cell_length_c                   24.4315(7)
_cell_angle_alpha                90
_cell_angle_beta                 104.4690(10)
_cell_angle_gamma                90
_cell_volume                     4796.21
_exptl_crystal_description       block
_cell_formula_units_Z            4
loop_
_atom_site_label
_atom_site_type_symbol
_atom_site_fract_x
_atom_site_fract_y
_atom_site_fract_z
F1 F 0.73723(5) 0.95352(8) 0.19388(4)
F2 F 0.74126(6) 1.15685(8) 0.14904(4)
F3 F 0.61149(6) 1.23451(8) 0.06848(4)
F4 F 0.47707(6) 1.10453(9) 0.03513(4)
F5 F 0.47076(6) 0.90215(8) 0.08000(4)
F6 F 0.61874(6) 0.58050(7) 0.22224(3)
F7 F 0.68038(6) 0.39716(8) 0.18420(4)
F8 F 0.72758(6) 0.40694(8) 0.08612(5)
F9 F 0.70758(6) 0.59840(9) 0.02488(4)
F10 F 0.64691(6) 0.78229(8) 0.06126(4)
O1 O 0.64645(5) 0.80742(8) 0.23345(4)
O2 O 0.51182(5) 0.77445(9) 0.17184(4)
N1 N 0.53479(6) 0.79006(9) 0.26943(4)
N2 N 0.40412(6) 0.78577(9) 0.21291(4)
C1 C 0.61309(8) 0.80402(11) 0.27402(5)
H1 H 0.6472 0.8122 0.3111
C2 C 0.50246(7) 0.81030(11) 0.31829(5)
C3 C 0.50228(8) 0.92021(11) 0.33828(5)
C4 C 0.46441(8) 0.94108(12) 0.38203(5)
H2 H 0.4655 1.0150 0.3969
C5 C 0.42530(8) 0.85610(12) 0.40416(5)
C6 C 0.43063(8) 0.74716(12) 0.38449(5)
H3 H 0.4068 0.6878 0.4008
C7 C 0.46916(8) 0.72109(11) 0.34219(5)
C8 C 0.54045(8) 1.01433(11) 0.31378(6)
C9 C 0.51379(9) 1.04386(12) 0.25697(6)
H4 H 0.4691 1.0053 0.2334
C10 C 0.55173(9) 1.12872(12) 0.23438(6)
H5 H 0.5327 1.1480 0.1956
C11 C 0.61723(9) 1.18561(13) 0.26798(7)
H6 H 0.6442 1.2422 0.2522
C12 C 0.64296(9) 1.15906(13) 0.32480(7)
H7 H 0.6868 1.1993 0.3483
C13 C 0.60520(8) 1.07404(12) 0.34765(6)
H8 H 0.6236 1.0563 0.3867
C14 C 0.47489(8) 0.60071(11) 0.32755(5)
C15 C 0.40673(8) 0.53230(12) 0.32114(6)
H9 H 0.3557 0.5652 0.3204
C16 C 0.41255(9) 0.41713(12) 0.31582(6)
H10 H 0.3657 0.3715 0.3118
C17 C 0.48647(9) 0.36784(13) 0.31627(6)
H11 H 0.4907 0.2886 0.3135
C18 C 0.55426(9) 0.43528(12) 0.32087(6)
H12 H 0.6048 0.4022 0.3203
C19 C 0.54861(8) 0.55087(12) 0.32637(5)
H13 H 0.5953 0.5964 0.3293
C20 C 0.37387(9) 0.87585(13) 0.44684(6)
C21 C 0.40784(10) 0.80637(13) 0.50055(6)
H14 H 0.4631 0.8313 0.5185
H15 H 0.4086 0.7267 0.4906
H16 H 0.3735 0.8168 0.5269
C22 C 0.28659(9) 0.83689(14) 0.41939(6)
H17 H 0.2523 0.8510 0.4454
H18 H 0.2867 0.7563 0.4111
H19 H 0.2654 0.8786 0.3842
C23 C 0.37142(9) 0.99944(13) 0.46351(6)
H20 H 0.4265 1.0253 0.4813
H21 H 0.3374 1.0077 0.4902
H22 H 0.3487 1.0445 0.4297
C24 C 0.60220(8) 0.91951(12) 0.14179(6)
C25 C 0.66987(8) 0.98828(13) 0.15567(6)
C26 C 0.67391(9) 1.09322(13) 0.13262(6)
C27 C 0.60886(10) 1.13301(13) 0.09195(6)
C28 C 0.54064(9) 1.06691(14) 0.07526(6)
C29 C 0.53853(9) 0.96308(13) 0.09978(6)
C30 C 0.63135(8) 0.69078(12) 0.14438(6)
C31 C 0.64046(9) 0.58872(13) 0.17288(6)
C32 C 0.67114(9) 0.49302(13) 0.15419(7)
C33 C 0.69360(9) 0.49712(13) 0.10399(7)
C34 C 0.68352(9) 0.59469(14) 0.07313(6)
C35 C 0.65299(9) 0.68902(13) 0.09338(6)
C36 C 0.47868(8) 0.78222(11) 0.21436(5)
C37 C 0.34699(8) 0.79742(11) 0.15954(5)
C38 C 0.29966(8) 0.89582(11) 0.15236(5)
C39 C 0.24515(8) 0.91642(12) 0.10063(6)
H23 H 0.2143 0.9839 0.0960
C40 C 0.23392(8) 0.84216(12) 0.05533(6)
C41 C 0.27976(8) 0.74428(12) 0.06385(6)
H24 H 0.2722 0.6914 0.0338
C42 C 0.33679(8) 0.71979(12) 0.11488(5)
C43 C 0.30587(8) 0.98255(12) 0.19730(6)
C44 C 0.29962(8) 0.95500(12) 0.25155(6)
H25 H 0.2978 0.8784 0.2621
C45 C 0.29611(8) 1.03903(12) 0.29012(6)
H26 H 0.2906 1.0195 0.3267
C46 C 0.30061(9) 1.15135(13) 0.27604(6)
H27 H 0.2973 1.2084 0.3026
C47 C 0.30992(9) 1.17985(13) 0.22314(6)
H28 H 0.3149 1.2565 0.2137
C48 C 0.31198(8) 1.09616(12) 0.18393(6)
H29 H 0.3176 1.1163 0.1475
C49 C 0.38353(8) 0.61329(12) 0.11838(6)
C50 C 0.41562(9) 0.58135(13) 0.07329(6)
H30 H 0.4092 0.6294 0.0414
C51 C 0.45665(9) 0.48039(14) 0.07455(6)
H31 H 0.4781 0.4598 0.0436
C52 C 0.46648(9) 0.40946(13) 0.12072(7)
H32 H 0.4941 0.3399 0.1214
C53 C 0.43580(9) 0.44056(13) 0.16587(6)
H33 H 0.4430 0.3925 0.1978
C54 C 0.39470(8) 0.54138(12) 0.16485(6)
H34 H 0.3739 0.5618 0.1961
C55 C 0.17451(9) 0.87348(13) -0.00091(6)
C56 C 0.09109(10) 0.90169(18) 0.00887(7)
H35 H 0.0532 0.9195 -0.0274
H36 H 0.0960 0.9666 0.0342
H37 H 0.0708 0.8370 0.0260
C57 C 0.20789(11) 0.97695(14) -0.02507(7)
H38 H 0.2617 0.9597 -0.0305
H39 H 0.2120 1.0400 0.0013
H40 H 0.1713 0.9973 -0.0614
C58 C 0.16394(10) 0.77811(13) -0.04379(6)
H41 H 0.2161 0.7618 -0.0521
H42 H 0.1245 0.8004 -0.0786
H43 H 0.1444 0.7109 -0.0282
B1 B 0.59640(9) 0.79857(14) 0.17118(6)
loop_
_geom_bond_atom_site_label_1
_geom_bond_atom_site_label_2
_geom_bond_site_symmetry_1
_geom_bond_site_symmetry_2
F1 C25 1_555 1_555
F2 C26 1_555 1_555
F3 C27 1_555 1_555
F4 C28 1_555 1_555
F5 C29 1_555 1_555
F6 C31 1_555 1_555
F7 C32 1_555 1_555
F8 C33 1_555 1_555
F9 C34 1_555 1_555
F10 C35 1_555 1_555
O1 C1 1_555 1_555
O2 C36 1_555 1_555
N1 C1 1_555 1_555
N2 C36 1_555 1_555
C1 H1 1_555 1_555
C2 N1 1_555 1_555
C3 C2 1_555 1_555
C4 C3 1_555 1_555
H2 C4 1_555 1_555
C5 C4 1_555 1_555
C6 C5 1_555 1_555
H3 C6 1_555 1_555
C7 C2 1_555 1_555
C8 C3 1_555 1_555
C9 C8 1_555 1_555
H4 C9 1_555 1_555
C10 C9 1_555 1_555
H5 C10 1_555 1_555
C11 C10 1_555 1_555
H6 C11 1_555 1_555
C12 C11 1_555 1_555
H7 C12 1_555 1_555
C13 C8 1_555 1_555
H8 C13 1_555 1_555
C14 C7 1_555 1_555
C15 C14 1_555 1_555
H9 C15 1_555 1_555
C16 C15 1_555 1_555
H10 C16 1_555 1_555
C17 C16 1_555 1_555
H11 C17 1_555 1_555
C18 C17 1_555 1_555
H12 C18 1_555 1_555
C19 C14 1_555 1_555
H13 C19 1_555 1_555
C20 C5 1_555 1_555
C21 C20 1_555 1_555
H14 C21 1_555 1_555
H15 C21 1_555 1_555
H16 C21 1_555 1_555
C22 C20 1_555 1_555
H17 C22 1_555 1_555
H18 C22 1_555 1_555
H19 C22 1_555 1_555
C23 C20 1_555 1_555
H20 C23 1_555 1_555
H21 C23 1_555 1_555
H22 C23 1_555 1_555
C24 C25 1_555 1_555
C25 C26 1_555 1_555
C26 C27 1_555 1_555
C27 C28 1_555 1_555
C28 C29 1_555 1_555
C29 C24 1_555 1_555
C30 C31 1_555 1_555
C31 C32 1_555 1_555
C32 C33 1_555 1_555
C33 C34 1_555 1_555
C34 C35 1_555 1_555
C35 C30 1_555 1_555
C36 N1 1_555 1_555
C37 N2 1_555 1_555
C38 C37 1_555 1_555
C39 C38 1_555 1_555
H23 C39 1_555 1_555
C40 C39 1_555 1_555
C41 C40 1_555 1_555
H24 C41 1_555 1_555
C42 C37 1_555 1_555
C43 C38 1_555 1_555
C44 C43 1_555 1_555
H25 C44 1_555 1_555
C45 C44 1_555 1_555
H26 C45 1_555 1_555
C46 C45 1_555 1_555
H27 C46 1_555 1_555
C47 C46 1_555 1_555
H28 C47 1_555 1_555
C48 C43 1_555 1_555
H29 C48 1_555 1_555
C49 C42 1_555 1_555
C50 C49 1_555 1_555
H30 C50 1_555 1_555
C51 C50 1_555 1_555
H31 C51 1_555 1_555
C52 C51 1_555 1_555
H32 C52 1_555 1_555
C53 C52 1_555 1_555
H33 C53 1_555 1_555
C54 C49 1_555 1_555
H34 C54 1_555 1_555
C55 C40 1_555 1_555
C56 C55 1_555 1_555
H35 C56 1_555 1_555
H36 C56 1_555 1_555
H37 C56 1_555 1_555
C57 C55 1_555 1_555
H38 C57 1_555 1_555
H39 C57 1_555 1_555
H40 C57 1_555 1_555
C58 C55 1_555 1_555
H41 C58 1_555 1_555
H42 C58 1_555 1_555
H43 C58 1_555 1_555
B1 O1 1_555 1_555
O2 B1 1_555 1_555
C6 C7 1_555 1_555
C12 C13 1_555 1_555
C18 C19 1_555 1_555
C24 B1 1_555 1_555
C30 B1 1_555 1_555
C41 C42 1_555 1_555
C47 C48 1_555 1_555
C53 C54 1_555 1_555

#END
