
#######################################################################
#
#                 Cambridge Crystallographic Data Centre
#                                CCDC 
#
#######################################################################
#
# If this CIF has been generated from an entry in the Cambridge 
# Structural Database, then it will include bibliographic, chemical, 
# crystal, experimental, refinement or atomic coordinate data resulting 
# from the CCDC's data processing and validation procedures.
#
#######################################################################

data_OWULEZ
_chemical_formula_moiety         'C48 H39 B1 F10 N2 O2,C5 H12'
_chemical_name_systematic        
"(1-(5'-t-butyl-1,1':3',1''-terphenyl-2'-yl)-N-(2,6-diisopropylphenyl)-1-(oxidomethylidene)ammoniumcarboximidato)-bis(pentafluorophenyl)-boron pentane solvate"
_symmetry_cell_setting           orthorhombic
_symmetry_space_group_name_H-M   'P 21 21 21'
_symmetry_Int_Tables_number      19
_space_group_name_Hall           'P 2ac 2ab'
loop_
_symmetry_equiv_pos_site_id
_symmetry_equiv_pos_as_xyz
1 x,y,z
2 1/2-x,-y,1/2+z
3 1/2+x,1/2-y,-z
4 -x,1/2+y,1/2-z
_cell_length_a                   11.6945(9)
_cell_length_b                   16.6296(13)
_cell_length_c                   24.394(2)
_cell_angle_alpha                90
_cell_angle_beta                 90
_cell_angle_gamma                90
_cell_volume                     4744.02
_exptl_crystal_description       prism
_cell_formula_units_Z            4
loop_
_atom_site_label
_atom_site_type_symbol
_atom_site_fract_x
_atom_site_fract_y
_atom_site_fract_z
F1 F 0.18214(13) 0.74583(8) 0.21755(6)
F2 F 0.00713(13) 0.75812(9) 0.28786(7)
F3 F -0.08718(13) 0.62340(10) 0.33227(6)
F4 F -0.00012(12) 0.47678(9) 0.30677(6)
F5 F 0.17470(12) 0.46329(8) 0.23846(6)
F6 F 0.48848(12) 0.62556(9) 0.11344(6)
F7 F 0.47701(15) 0.66278(11) 0.00718(6)
F8 F 0.27081(17) 0.68256(10) -0.04233(6)
F9 F 0.07583(15) 0.66414(11) 0.01651(7)
F10 F 0.08426(13) 0.63024(10) 0.12268(6)
O1 O 0.38659(14) 0.66192(10) 0.21417(6)
O2 O 0.35983(14) 0.52242(10) 0.18720(6)
N1 N 0.47140(16) 0.55967(11) 0.26194(7)
N2 N 0.45265(17) 0.42630(12) 0.23981(8)
C1 C 0.4550(2) 0.63627(15) 0.25023(9)
H1 H 0.4977 0.6749 0.2704
C2 C 0.5436(2) 0.53679(14) 0.30768(9)
C3 C 0.4955(2) 0.53473(15) 0.36020(9)
C4 C 0.5631(2) 0.50678(15) 0.40332(9)
H2 H 0.5314 0.5056 0.4392
C5 C 0.6744(2) 0.48077(15) 0.39588(9)
C6 C 0.7182(2) 0.48372(14) 0.34257(9)
H3 H 0.7947 0.4665 0.3367
C7 C 0.6559(2) 0.51036(14) 0.29811(9)
C8 C 0.3746(2) 0.55713(15) 0.37270(9)
C9 C 0.3326(2) 0.63474(16) 0.36608(9)
H4 H 0.3797 0.6747 0.3498
C10 C 0.2227(2) 0.65453(16) 0.38293(10)
H5 H 0.1950 0.7078 0.3781
C11 C 0.1536(2) 0.59700(17) 0.40673(10)
H6 H 0.0787 0.6107 0.4186
C12 C 0.1934(2) 0.51971(17) 0.41329(10)
H7 H 0.1455 0.4799 0.4292
C13 C 0.3035(2) 0.49988(16) 0.39672(10)
H8 H 0.3306 0.4466 0.4018
C14 C 0.7119(2) 0.50708(14) 0.24314(9)
C15 C 0.7786(2) 0.44024(16) 0.23038(10)
H9 H 0.7801 0.3957 0.2548
C16 C 0.8425(2) 0.43762(17) 0.18284(10)
H10 H 0.8887 0.3920 0.1752
C17 C 0.8395(2) 0.50101(17) 0.14633(10)
H11 H 0.8842 0.4996 0.1138
C18 C 0.7709(2) 0.56658(16) 0.15752(10)
H12 H 0.7666 0.6096 0.1320
C19 C 0.7082(2) 0.57020(15) 0.20565(9)
H13 H 0.6624 0.6161 0.2131
C20 C 0.7492(2) 0.44765(16) 0.44197(10)
C21 C 0.8604(2) 0.49625(18) 0.44500(12)
H14 H 0.9007 0.4927 0.4098
H15 H 0.9091 0.4745 0.4741
H16 H 0.8426 0.5526 0.4530
C22 C 0.6907(3) 0.4529(2) 0.49787(11)
H17 H 0.7427 0.4327 0.5262
H18 H 0.6209 0.4202 0.4975
H19 H 0.6710 0.5090 0.5057
C23 C 0.7773(3) 0.35999(17) 0.42927(13)
H20 H 0.8206 0.3570 0.3949
H21 H 0.7062 0.3293 0.4256
H22 H 0.8232 0.3374 0.4591
C24 C 0.1890(2) 0.60443(15) 0.22531(9)
C25 C 0.1390(2) 0.67757(15) 0.23913(10)
C26 C 0.0471(2) 0.68517(16) 0.27384(10)
C27 C -0.0008(2) 0.61735(17) 0.29639(10)
C28 C 0.0431(2) 0.54336(16) 0.28353(10)
C29 C 0.1362(2) 0.53837(15) 0.24850(10)
C30 C 0.2873(2) 0.62777(15) 0.12386(9)
C31 C 0.3841(2) 0.63658(15) 0.09134(10)
C32 C 0.3805(2) 0.65475(16) 0.03626(11)
C33 C 0.2760(3) 0.66422(17) 0.01145(10)
C34 C 0.1777(2) 0.65555(16) 0.04095(11)
C35 C 0.1848(2) 0.63780(15) 0.09634(10)
C36 C 0.42357(19) 0.49656(15) 0.22808(9)
C37 C 0.4072(2) 0.36004(14) 0.20970(9)
C38 C 0.4423(2) 0.34263(15) 0.15629(10)
C39 C 0.3984(2) 0.27345(15) 0.13164(10)
H23 H 0.4228 0.2596 0.0957
C40 C 0.3207(2) 0.22493(16) 0.15789(10)
H24 H 0.2905 0.1789 0.1399
C41 C 0.2867(2) 0.24365(15) 0.21100(10)
H25 H 0.2322 0.2104 0.2289
C42 C 0.3305(2) 0.30970(14) 0.23828(9)
C43 C 0.5233(2) 0.39577(15) 0.12400(10)
H26 H 0.5495 0.4401 0.1486
C44 C 0.4615(3) 0.43385(17) 0.07479(10)
H27 H 0.4415 0.3919 0.0483
H28 H 0.5118 0.4734 0.0573
H29 H 0.3916 0.4606 0.0874
C45 C 0.6289(2) 0.34966(17) 0.10445(12)
H30 H 0.6687 0.3266 0.1361
H31 H 0.6804 0.3864 0.0851
H32 H 0.6053 0.3064 0.0796
C46 C 0.3009(2) 0.32815(15) 0.29766(9)
H33 H 0.3010 0.3880 0.3018
C47 C 0.1830(2) 0.29834(17) 0.31500(11)
H34 H 0.1253 0.3187 0.2894
H35 H 0.1659 0.3177 0.3520
H36 H 0.1820 0.2394 0.3147
C48 C 0.3950(2) 0.29489(16) 0.33521(10)
H37 H 0.3785 0.3098 0.3733
H38 H 0.4690 0.3175 0.3243
H39 H 0.3975 0.2362 0.3320
B1 B 0.3020(2) 0.60107(17) 0.18693(11)
C49 C 0.4206(3) 0.1899(2) -0.02406(13)
H40 H 0.4005 0.1456 -0.0487
H41 H 0.3644 0.2333 -0.0279
H42 H 0.4208 0.1706 0.0139
C50 C 0.5389(3) 0.2214(2) -0.03874(13)
H43 H 0.5519 0.2727 -0.0191
H44 H 0.5413 0.2328 -0.0785
C51 C 0.6353(3) 0.1632(2) -0.02452(13)
H45 H 0.7089 0.1879 -0.0354
H46 H 0.6370 0.1557 0.0157
C52 C 0.6260(3) 0.08140(18) -0.05140(12)
H47 H 0.5524 0.0566 -0.0407
H48 H 0.6882 0.0466 -0.0374
C53 C 0.6330(3) 0.08454(18) -0.11354(11)
H49 H 0.5694 0.1167 -0.1278
H50 H 0.6284 0.0299 -0.1284
H51 H 0.7057 0.1091 -0.1245
loop_
_geom_bond_atom_site_label_1
_geom_bond_atom_site_label_2
_geom_bond_site_symmetry_1
_geom_bond_site_symmetry_2
F1 C25 1_555 1_555
F2 C26 1_555 1_555
F3 C27 1_555 1_555
F4 C28 1_555 1_555
F5 C29 1_555 1_555
F6 C31 1_555 1_555
F7 C32 1_555 1_555
F8 C33 1_555 1_555
F9 C34 1_555 1_555
F10 C35 1_555 1_555
O1 C1 1_555 1_555
O2 C36 1_555 1_555
N1 C1 1_555 1_555
N2 C36 1_555 1_555
C1 H1 1_555 1_555
C2 N1 1_555 1_555
C3 C2 1_555 1_555
C4 C3 1_555 1_555
H2 C4 1_555 1_555
C5 C4 1_555 1_555
C6 C5 1_555 1_555
H3 C6 1_555 1_555
C7 C2 1_555 1_555
C8 C3 1_555 1_555
C9 C8 1_555 1_555
H4 C9 1_555 1_555
C10 C9 1_555 1_555
H5 C10 1_555 1_555
C11 C10 1_555 1_555
H6 C11 1_555 1_555
C12 C11 1_555 1_555
H7 C12 1_555 1_555
C13 C8 1_555 1_555
H8 C13 1_555 1_555
C14 C7 1_555 1_555
C15 C14 1_555 1_555
H9 C15 1_555 1_555
C16 C15 1_555 1_555
H10 C16 1_555 1_555
C17 C16 1_555 1_555
H11 C17 1_555 1_555
C18 C17 1_555 1_555
H12 C18 1_555 1_555
C19 C14 1_555 1_555
H13 C19 1_555 1_555
C20 C5 1_555 1_555
C21 C20 1_555 1_555
H14 C21 1_555 1_555
H15 C21 1_555 1_555
H16 C21 1_555 1_555
C22 C20 1_555 1_555
H17 C22 1_555 1_555
H18 C22 1_555 1_555
H19 C22 1_555 1_555
C23 C20 1_555 1_555
H20 C23 1_555 1_555
H21 C23 1_555 1_555
H22 C23 1_555 1_555
C24 C25 1_555 1_555
C25 C26 1_555 1_555
C26 C27 1_555 1_555
C27 C28 1_555 1_555
C28 C29 1_555 1_555
C29 C24 1_555 1_555
C30 C31 1_555 1_555
C31 C32 1_555 1_555
C32 C33 1_555 1_555
C33 C34 1_555 1_555
C34 C35 1_555 1_555
C35 C30 1_555 1_555
C36 N1 1_555 1_555
C37 N2 1_555 1_555
C38 C37 1_555 1_555
C39 C38 1_555 1_555
H23 C39 1_555 1_555
C40 C39 1_555 1_555
H24 C40 1_555 1_555
C41 C40 1_555 1_555
H25 C41 1_555 1_555
C42 C37 1_555 1_555
C43 C38 1_555 1_555
H26 C43 1_555 1_555
C44 C43 1_555 1_555
H27 C44 1_555 1_555
H28 C44 1_555 1_555
H29 C44 1_555 1_555
C45 C43 1_555 1_555
H30 C45 1_555 1_555
H31 C45 1_555 1_555
H32 C45 1_555 1_555
C46 C42 1_555 1_555
H33 C46 1_555 1_555
C47 C46 1_555 1_555
H34 C47 1_555 1_555
H35 C47 1_555 1_555
H36 C47 1_555 1_555
C48 C46 1_555 1_555
H37 C48 1_555 1_555
H38 C48 1_555 1_555
H39 C48 1_555 1_555
B1 O1 1_555 1_555
C49 H40 1_555 1_555
H41 C49 1_555 1_555
H42 C49 1_555 1_555
C50 C49 1_555 1_555
H43 C50 1_555 1_555
H44 C50 1_555 1_555
C51 C50 1_555 1_555
H45 C51 1_555 1_555
H46 C51 1_555 1_555
C52 C51 1_555 1_555
H47 C52 1_555 1_555
H48 C52 1_555 1_555
C53 C52 1_555 1_555
H49 C53 1_555 1_555
H50 C53 1_555 1_555
H51 C53 1_555 1_555
O2 B1 1_555 1_555
C6 C7 1_555 1_555
C12 C13 1_555 1_555
C18 C19 1_555 1_555
C24 B1 1_555 1_555
C30 B1 1_555 1_555
C41 C42 1_555 1_555

#END
