
#######################################################################
#
#                 Cambridge Crystallographic Data Centre
#                                CCDC 
#
#######################################################################
#
# If this CIF has been generated from an entry in the Cambridge 
# Structural Database, then it will include bibliographic, chemical, 
# crystal, experimental, refinement or atomic coordinate data resulting 
# from the CCDC's data processing and validation procedures.
#
#######################################################################

data_OWUMEA
_chemical_name_common            
"(mu-4,4',4''-(2,4,6-trimethylbenzene-1,3,5-triyl)tripyridine)-triphenyl-tris(4,5-dichlorobenzene-1,2-diolato)-tri-boron chloroform solvate"
_chemical_formula_moiety         'C60 H42 B3 Cl6 N3 O6,2(C1 H1 Cl3)'
_chemical_name_systematic        
'4-(3,5-bis(1-(5,6-dichloro-2-phenyl-1,3,2-benzodioxaborol-2-yl)-1-pyridin-4-yl)-2,4,6-trimethylphenyl)-1-(5,6-dichloro-2-phenyl-1,3,2-benzodioxaborol-2-yl)-1-pyridine chloroform solvate'
_symmetry_cell_setting           monoclinic
_symmetry_space_group_name_H-M   'P 21/n'
_symmetry_Int_Tables_number      14
_space_group_name_Hall           '-P 2yn'
loop_
_symmetry_equiv_pos_site_id
_symmetry_equiv_pos_as_xyz
1 x,y,z
2 1/2-x,1/2+y,1/2-z
3 -x,-y,-z
4 1/2+x,1/2-y,1/2+z
_cell_length_a                   16.8413(3)
_cell_length_b                   18.9958(4)
_cell_length_c                   20.9848(4)
_cell_angle_alpha                90
_cell_angle_beta                 111.065(2)
_cell_angle_gamma                90
_cell_volume                     6264.7
_exptl_crystal_colour            colorless
_exptl_crystal_description       prism
_cell_formula_units_Z            4
loop_
_atom_site_label
_atom_site_type_symbol
_atom_site_fract_x
_atom_site_fract_y
_atom_site_fract_z
Cl1 Cl 0.68685(4) 0.48419(3) 0.49487(4)
Cl2 Cl 0.63768(4) 0.51028(3) 0.62574(3)
Cl3 Cl 0.19964(4) -0.02223(4) 0.35994(5)
Cl4 Cl 0.16044(5) 0.00703(4) 0.49427(4)
Cl5 Cl -0.66711(4) 0.54680(4) -0.22120(3)
Cl6 Cl -0.56259(4) 0.59543(4) -0.31139(3)
O1 O 0.46293(9) 0.67374(8) 0.38006(7)
O2 O 0.42396(9) 0.69100(8) 0.47665(7)
O3 O -0.07201(9) 0.12133(8) 0.23707(7)
O4 O -0.09414(9) 0.14921(8) 0.33902(7)
O5 O -0.43677(9) 0.67216(8) -0.02350(7)
O6 O -0.35928(9) 0.71139(8) -0.09117(7)
N1 N 0.30907(10) 0.67024(9) 0.36381(8)
N2 N -0.07749(10) 0.24743(9) 0.26723(9)
N3 N -0.27818(10) 0.67004(9) 0.02781(8)
B1 B 0.40041(14) 0.70924(12) 0.40407(12)
B2 B -0.11853(14) 0.16907(12) 0.26637(11)
B3 B -0.36038(14) 0.71287(13) -0.02066(11)
C1 C 0.25249(12) 0.66226(11) 0.39475(11)
H1 H 0.2656 0.6806 0.4395
C2 C 0.17554(13) 0.62812(11) 0.36361(11)
H2 H 0.1369 0.6231 0.3869
C3 C 0.15524(12) 0.60131(10) 0.29809(10)
C4 C 0.21472(13) 0.60994(12) 0.26658(11)
H3 H 0.2031 0.5923 0.2218
C5 C 0.29048(13) 0.64413(12) 0.30048(11)
H4 H 0.3306 0.6494 0.2785
C6 C 0.07287(12) 0.56432(11) 0.26155(10)
C7 C 0.06069(12) 0.49524(11) 0.27970(10)
C8 C -0.01453(12) 0.46022(10) 0.24145(10)
C9 C -0.07829(12) 0.49338(11) 0.18726(10)
C10 C -0.06634(12) 0.56373(11) 0.17259(10)
C11 C 0.00896(12) 0.59975(10) 0.20851(10)
C12 C 0.12789(14) 0.45766(12) 0.33803(12)
H5 H 0.1170 0.4653 0.3803
H6 H 0.1842 0.4762 0.3433
H7 H 0.1260 0.4071 0.3282
C13 C -0.15772(14) 0.45393(12) 0.14504(12)
H8 H -0.2050 0.4872 0.1267
H9 H -0.1719 0.4191 0.1738
H10 H -0.1478 0.4299 0.1072
C14 C 0.01971(14) 0.67597(12) 0.19286(12)
H11 H 0.0378 0.6788 0.1535
H12 H 0.0629 0.6979 0.2325
H13 H -0.0346 0.7007 0.1824
C15 C -0.02923(12) 0.38521(11) 0.25530(10)
C16 C -0.02066(13) 0.33221(11) 0.21242(11)
H14 H 0.0025 0.3429 0.1784
C17 C -0.04559(13) 0.26447(11) 0.21901(10)
H15 H -0.0402 0.2290 0.1889
C18 C -0.08045(14) 0.29672(12) 0.31246(11)
H16 H -0.0992 0.2838 0.3485
C19 C -0.05693(15) 0.36557(12) 0.30773(11)
H17 H -0.0596 0.3995 0.3402
C20 C -0.13882(12) 0.60132(10) 0.12063(10)
C21 C -0.21013(12) 0.61775(11) 0.13670(10)
H18 H -0.2118 0.6054 0.1801
C22 C -0.27800(12) 0.65186(11) 0.08971(10)
H19 H -0.3261 0.6629 0.1013
C23 C -0.21074(13) 0.65408(12) 0.01076(10)
H20 H -0.2113 0.6663 -0.0333
C24 C -0.14032(13) 0.62020(12) 0.05621(11)
H21 H -0.0930 0.6098 0.0434
C25 C 0.39494(13) 0.79207(11) 0.39049(11)
C26 C 0.33651(15) 0.82569(12) 0.33407(13)
H22 H 0.2922 0.7990 0.3022
C27 C 0.34163(17) 0.89787(14) 0.32331(15)
H23 H 0.3017 0.9195 0.2841
C28 C 0.40477(19) 0.93776(13) 0.36969(15)
H24 H 0.4080 0.9869 0.3625
C29 C 0.46302(19) 0.90616(13) 0.42630(14)
H25 H 0.5062 0.9336 0.4584
C30 C 0.45861(15) 0.83396(12) 0.43648(12)
H26 H 0.4996 0.8126 0.4754
C31 C 0.50833(12) 0.63021(11) 0.43223(10)
C32 C 0.57019(13) 0.58283(12) 0.43271(12)
H27 H 0.5856 0.5759 0.3938
C33 C 0.60969(13) 0.54504(12) 0.49366(13)
C34 C 0.58737(13) 0.55575(12) 0.55015(12)
C35 C 0.52356(13) 0.60408(12) 0.54875(11)
H28 H 0.5078 0.6112 0.5874
C36 C 0.48512(12) 0.64053(11) 0.48910(11)
C37 C -0.21973(13) 0.17012(11) 0.22844(10)
C38 C -0.26062(14) 0.10842(12) 0.19697(10)
H29 H -0.2274 0.0703 0.1910
C39 C -0.34870(15) 0.10147(14) 0.17427(11)
H30 H -0.3748 0.0586 0.1541
C40 C -0.39844(15) 0.15695(15) 0.18108(12)
H31 H -0.4585 0.1520 0.1664
C41 C -0.35988(15) 0.21983(14) 0.20952(13)
H32 H -0.3936 0.2586 0.2131
C42 C -0.27161(14) 0.22597(12) 0.23285(12)
H33 H -0.2460 0.2693 0.2523
C43 C -0.01038(12) 0.09190(11) 0.29225(11)
C44 C 0.05758(14) 0.05114(12) 0.29310(13)
H34 H 0.0676 0.0406 0.2524
C45 C 0.11122(14) 0.02597(12) 0.35683(14)
C46 C 0.09511(15) 0.03986(12) 0.41582(13)
C47 C 0.02592(14) 0.08112(11) 0.41467(12)
H35 H 0.0144 0.0905 0.4550
C48 C -0.02464(12) 0.10732(10) 0.35229(11)
C49 C -0.36010(13) 0.79035(11) 0.00971(10)
C50 C -0.43599(15) 0.82864(13) -0.01499(12)
H36 H -0.4853 0.8067 -0.0463
C51 C -0.44163(17) 0.89768(14) 0.00482(14)
H37 H -0.4939 0.9225 -0.0136
C52 C -0.37111(18) 0.93011(14) 0.05129(14)
H38 H -0.3743 0.9776 0.0644
C53 C -0.29620(17) 0.89299(14) 0.07842(13)
H39 H -0.2481 0.9144 0.1117
C54 C -0.29048(14) 0.82436(13) 0.05746(12)
H40 H -0.2379 0.8000 0.0761
C55 C -0.47331(12) 0.64907(11) -0.08889(10)
C56 C -0.54675(13) 0.61013(11) -0.11601(11)
H41 H -0.5779 0.5949 -0.0887
C57 C -0.57350(14) 0.59402(12) -0.18570(11)
C58 C -0.52786(14) 0.61613(12) -0.22513(11)
C59 C -0.45334(14) 0.65567(12) -0.19708(10)
H42 H -0.4217 0.6705 -0.2241
C60 C -0.42755(12) 0.67224(11) -0.12872(10)
C61 C -0.30624(18) 0.21649(14) 0.05011(13)
H43 H -0.3177 0.2071 0.0929
Cl7 Cl -0.30897(7) 0.13645(5) 0.00758(5)
Cl8 Cl -0.38098(7) 0.27466(6) 0.00046(6)
Cl9 Cl -0.20196(7) 0.25105(7) 0.07231(5)
C62 C 0.7435(2) 0.76371(19) 0.60881(17)
H45 H 0.7472 0.7432 0.5661
Cl13 Cl 0.8445(4) 0.7751(5) 0.6627(5)
Cl14 Cl 0.6873(6) 0.8454(3) 0.5846(3)
Cl15 Cl 0.6774(4) 0.7147(3) 0.6287(7)
H44? H -0.3214 0.1997 0.0894
Cl10? Cl -0.2223(6) 0.1739(5) 0.0496(5)
Cl11? Cl -0.3962(6) 0.2106(7) -0.0249(5)
Cl12? Cl -0.2797(8) 0.3080(5) 0.0613(6)
H46? H 0.7397 0.7385 0.5660
Cl16? Cl 0.8484(4) 0.7598(4) 0.6680(4)
Cl17? Cl 0.7130(3) 0.84979(18) 0.5904(3)
Cl18? Cl 0.6838(2) 0.7147(2) 0.65268(15)
loop_
_geom_bond_atom_site_label_1
_geom_bond_atom_site_label_2
_geom_bond_site_symmetry_1
_geom_bond_site_symmetry_2
Cl1 C33 1_555 1_555
Cl2 C34 1_555 1_555
Cl3 C45 1_555 1_555
Cl4 C46 1_555 1_555
Cl5 C57 1_555 1_555
Cl6 C58 1_555 1_555
O1 B1 1_555 1_555
O2 B1 1_555 1_555
O3 B2 1_555 1_555
O4 B2 1_555 1_555
O5 B3 1_555 1_555
O6 B3 1_555 1_555
N1 B1 1_555 1_555
N2 B2 1_555 1_555
N3 B3 1_555 1_555
B1 C25 1_555 1_555
B2 C37 1_555 1_555
B3 C49 1_555 1_555
C1 N1 1_555 1_555
H1 C1 1_555 1_555
C2 C1 1_555 1_555
H2 C2 1_555 1_555
C3 C2 1_555 1_555
C4 C3 1_555 1_555
H3 C4 1_555 1_555
C5 N1 1_555 1_555
H4 C5 1_555 1_555
C6 C3 1_555 1_555
C7 C6 1_555 1_555
C8 C7 1_555 1_555
C9 C8 1_555 1_555
C10 C9 1_555 1_555
C11 C6 1_555 1_555
C12 C7 1_555 1_555
H5 C12 1_555 1_555
H6 C12 1_555 1_555
H7 C12 1_555 1_555
C13 C9 1_555 1_555
H8 C13 1_555 1_555
H9 C13 1_555 1_555
H10 C13 1_555 1_555
C14 C11 1_555 1_555
H11 C14 1_555 1_555
H12 C14 1_555 1_555
H13 C14 1_555 1_555
C15 C8 1_555 1_555
C16 C15 1_555 1_555
H14 C16 1_555 1_555
C17 N2 1_555 1_555
H15 C17 1_555 1_555
C18 N2 1_555 1_555
H16 C18 1_555 1_555
C19 C15 1_555 1_555
H17 C19 1_555 1_555
C20 C10 1_555 1_555
C21 C20 1_555 1_555
H18 C21 1_555 1_555
C22 N3 1_555 1_555
H19 C22 1_555 1_555
C23 N3 1_555 1_555
H20 C23 1_555 1_555
C24 C20 1_555 1_555
H21 C24 1_555 1_555
C25 C26 1_555 1_555
C26 H22 1_555 1_555
C27 C26 1_555 1_555
H23 C27 1_555 1_555
C28 C27 1_555 1_555
H24 C28 1_555 1_555
C29 C28 1_555 1_555
H25 C29 1_555 1_555
C30 C25 1_555 1_555
H26 C30 1_555 1_555
C31 O1 1_555 1_555
C32 C31 1_555 1_555
H27 C32 1_555 1_555
C33 C32 1_555 1_555
C34 C33 1_555 1_555
C35 C34 1_555 1_555
H28 C35 1_555 1_555
C36 O2 1_555 1_555
C37 C38 1_555 1_555
C38 H29 1_555 1_555
C39 C38 1_555 1_555
H30 C39 1_555 1_555
C40 C39 1_555 1_555
H31 C40 1_555 1_555
C41 C40 1_555 1_555
H32 C41 1_555 1_555
C42 C37 1_555 1_555
H33 C42 1_555 1_555
C43 O3 1_555 1_555
C44 C43 1_555 1_555
H34 C44 1_555 1_555
C45 C44 1_555 1_555
C46 C45 1_555 1_555
C47 C46 1_555 1_555
H35 C47 1_555 1_555
C48 O4 1_555 1_555
C49 C50 1_555 1_555
C50 H36 1_555 1_555
C51 C50 1_555 1_555
H37 C51 1_555 1_555
C52 C51 1_555 1_555
H38 C52 1_555 1_555
C53 C52 1_555 1_555
H39 C53 1_555 1_555
C54 C49 1_555 1_555
H40 C54 1_555 1_555
C55 O5 1_555 1_555
C56 C55 1_555 1_555
H41 C56 1_555 1_555
C57 C56 1_555 1_555
C58 C57 1_555 1_555
C59 C58 1_555 1_555
H42 C59 1_555 1_555
C60 O6 1_555 1_555
C61 H43 1_555 1_555
Cl7 C61 1_555 1_555
Cl8 C61 1_555 1_555
Cl9 C61 1_555 1_555
C62 H45 1_555 1_555
Cl13 C62 1_555 1_555
Cl14 C62 1_555 1_555
Cl15 C62 1_555 1_555
C4 C5 1_555 1_555
C10 C11 1_555 1_555
C16 C17 1_555 1_555
C18 C19 1_555 1_555
C21 C22 1_555 1_555
C23 C24 1_555 1_555
C29 C30 1_555 1_555
C31 C36 1_555 1_555
C35 C36 1_555 1_555
C41 C42 1_555 1_555
C43 C48 1_555 1_555
C47 C48 1_555 1_555
C53 C54 1_555 1_555
C55 C60 1_555 1_555
C59 C60 1_555 1_555

#END
