
#######################################################################
#
#                 Cambridge Crystallographic Data Centre
#                                CCDC 
#
#######################################################################
#
# If this CIF has been generated from an entry in the Cambridge 
# Structural Database, then it will include bibliographic, chemical, 
# crystal, experimental, refinement or atomic coordinate data resulting 
# from the CCDC's data processing and validation procedures.
#
#######################################################################

data_OWUNEB
_chemical_formula_moiety         'C252 H198 B12 N18 O24,18(C6 H4 Cl2)'
_chemical_name_systematic        
"dodecaspiro[2,2'',2''',2'''',2''''',2'''''',2''''''',2'''''''',2''''''''',2'''''''''',2''''''''''',2''''''''''''-dodecaborata-1,3-benzodioxole-2,1'-3^2^,3^4^,3^6^,9^2^,9,^4^,9^6^,15^2^,15^4^,15^6^,21^2^,21^4^,21^6^,27^2^,27^4^,27^6^,33^2^,33^4^,33^6^-octadecamethyl-3^5^,9^5^,15^5^,21^5^,27^5^,33^5^-hexakis(pyridin-4-yl)-2,8,14,20,26,32(1,4),4,10,16,22,28,34(4,1)-dodecapyridinium-3,9,15,21,27,33(1,3),6,12,18,24,30,36(1,4)-dodecabenzenacyclohexatriacontaphane-5',2''-[1,3]benzodioxole-7',2'''-[1,3]benzodioxole-11',2''''-[1,3]benzodioxole-13',2'''''-[1,3]benzodioxole-17',2''''''-[1,3]benzodioxole-19',2'''''''-[1,3]benzodioxole-23',2''''''''-[1,3]benzodioxole-25',2'''''''''-[1,3]benzodioxole-29',2''''''''''-[1,3]benzodioxole-31',2'''''''''''-[1,3]benzodioxole-35',2''''''''''''-[1,3]benzodioxole] 1,2-dichlorobenzene solvate"
_symmetry_cell_setting           rhombohedral
_symmetry_space_group_name_H-M   'R -3'
_symmetry_Int_Tables_number      148
_space_group_name_Hall           '-R 3'
loop_
_symmetry_equiv_pos_site_id
_symmetry_equiv_pos_as_xyz
1 x,y,z
2 -y,x-y,z
3 -x+y,-x,z
4 2/3+x,1/3+y,1/3+z
5 2/3-y,1/3+x-y,1/3+z
6 2/3-x+y,1/3-x,1/3+z
7 1/3+x,2/3+y,2/3+z
8 1/3-y,2/3+x-y,2/3+z
9 1/3-x+y,2/3-x,2/3+z
10 -x,-y,-z
11 y,-x+y,-z
12 x-y,x,-z
13 1/3-x,2/3-y,2/3-z
14 1/3+y,2/3-x+y,2/3-z
15 1/3+x-y,2/3+x,2/3-z
16 2/3-x,1/3-y,1/3-z
17 2/3+y,1/3-x+y,1/3-z
18 2/3+x-y,1/3+x,1/3-z
_cell_length_a                   38.905(4)
_cell_length_b                   38.905(4)
_cell_length_c                   18.607(3)
_cell_angle_alpha                90
_cell_angle_beta                 90
_cell_angle_gamma                120
_cell_volume                     24390.3
_exptl_crystal_colour            yellow
_exptl_crystal_description       prism
_cell_formula_units_Z            3
loop_
_atom_site_label
_atom_site_type_symbol
_atom_site_fract_x
_atom_site_fract_y
_atom_site_fract_z
Cl1 Cl 0.30610(5) 0.15108(4) 0.30512(9)
Cl2 Cl 0.27235(4) 0.11262(5) 0.15303(8)
C1 C 0.32283(14) 0.12238(13) 0.2625(3)
C2 C 0.30857(12) 0.10638(13) 0.1958(3)
C3 C 0.32211(13) 0.08366(14) 0.1613(3)
H1 H 0.3122 0.0726 0.1152
C4 C 0.35048(14) 0.07727(15) 0.1953(3)
H2 H 0.3599 0.0618 0.1724
C5 C 0.36466(13) 0.09333(15) 0.2618(3)
H3 H 0.3842 0.0891 0.2842
C6 C 0.35080(13) 0.11581(13) 0.2972(3)
H4 H 0.3602 0.1263 0.3437
Cl3 Cl 0.57206(3) 0.28952(3) 0.20487(6)
Cl4 Cl 0.54268(4) 0.31131(4) 0.34759(8)
C7 C 0.52470(12) 0.25772(12) 0.2393(2)
C8 C 0.51201(13) 0.26743(12) 0.3022(2)
C9 C 0.47443(13) 0.24172(13) 0.3285(2)
H5 H 0.4654 0.2484 0.3708
C10 C 0.44996(13) 0.20628(13) 0.2934(2)
H6 H 0.4243 0.1886 0.3120
C11 C 0.46281(13) 0.19665(13) 0.2317(3)
H7 H 0.4458 0.1724 0.2076
C12 C 0.50027(13) 0.22189(12) 0.2043(2)
H8 H 0.5092 0.2149 0.1622
Cl5 Cl 0.63941(4) 0.08604(4) 0.21661(8)
Cl6 Cl 0.54916(3) 0.04077(3) 0.16385(7)
C13 C 0.61579(13) 0.11208(14) 0.1913(2)
C14 C 0.57636(13) 0.09210(13) 0.1677(2)
C15 C 0.55801(15) 0.11355(15) 0.1470(3)
H9 H 0.5313 0.1000 0.1308
C16 C 0.57848(17) 0.15414(16) 0.1500(3)
H10 H 0.5661 0.1686 0.1344
C17 C 0.61677(17) 0.17407(16) 0.1755(3)
H11 H 0.6304 0.2022 0.1790
C18 C 0.63590(15) 0.15320(15) 0.1965(3)
H12 H 0.6624 0.1671 0.2140
O1 O 0.13132(7) 0.11927(7) 0.29413(14)
O2 O 0.12507(7) 0.11359(7) 0.42130(13)
O3 O 0.39266(7) -0.00197(7) 0.19033(14)
O4 O 0.41532(7) 0.01527(7) 0.31055(14)
N1 N 0.15871(8) 0.08123(8) 0.35826(16)
N2 N 0.07043(9) -0.19896(9) 0.47491(19)
N3 N 0.34178(8) -0.02105(8) 0.28793(16)
B1 B 0.15271(11) 0.12125(11) 0.3612(2)
B2 B 0.38552(11) -0.01682(11) 0.2648(2)
C19 C 0.14869(14) 0.05744(12) 0.3020(2)
H13 H 0.1370 0.0626 0.2615
C20 C 0.15468(15) 0.02518(13) 0.3002(2)
H14 H 0.1468 0.0085 0.2590
C21 C 0.17187(9) 0.01703(9) 0.3574(2)
C22 C 0.18183(15) 0.04182(12) 0.4166(2)
H15 H 0.1933 0.0371 0.4579
C23 C 0.17495(15) 0.07348(13) 0.4150(2)
H16 H 0.1820 0.0904 0.4558
C24 C 0.17975(9) -0.01710(9) 0.35729(19)
C25 C 0.14941(9) -0.05496(9) 0.37836(19)
C26 C 0.15840(9) -0.08578(9) 0.38469(19)
C27 C 0.19644(9) -0.07944(9) 0.3670(2)
C28 C 0.22568(10) -0.04155(9) 0.34382(19)
C29 C 0.21785(10) -0.00993(10) 0.3394(2)
C30 C 0.10858(10) -0.06122(10) 0.3957(2)
H17 H 0.1109 -0.0422 0.4327
H18 H 0.0916 -0.0883 0.4134
H19 H 0.0968 -0.0572 0.3522
C31 C 0.20602(10) -0.11259(10) 0.3746(2)
H20 H 0.2215 -0.1124 0.3330
H21 H 0.1813 -0.1382 0.3771
H22 H 0.2214 -0.1086 0.4186
C32 C 0.24976(10) 0.03126(10) 0.3153(2)
H23 H 0.2372 0.0448 0.2920
H24 H 0.2676 0.0288 0.2812
H25 H 0.2649 0.0466 0.3571
C33 C 0.12767(9) -0.12518(9) 0.4152(2)
C34 C 0.13250(10) -0.13658(10) 0.4840(2)
H26 H 0.1552 -0.1196 0.5119
C35 C 0.10357(11) -0.17312(10) 0.5111(2)
H27 H 0.1074 -0.1803 0.5580
C36 C 0.06621(10) -0.18751(10) 0.4089(2)
H28 H 0.0431 -0.2049 0.3823
C37 C 0.09367(10) -0.15169(10) 0.3773(2)
H29 H 0.0893 -0.1453 0.3301
C38 C 0.26642(10) -0.03407(9) 0.3243(2)
C39 C 0.29966(10) -0.01057(11) 0.3672(2)
H30 H 0.2969 0.0013 0.4097
C40 C 0.33654(10) -0.00470(10) 0.3478(2)
H31 H 0.3588 0.0113 0.3774
C41 C 0.31016(10) -0.04393(10) 0.2467(2)
H32 H 0.3137 -0.0560 0.2052
C42 C 0.27230(10) -0.05058(10) 0.2624(2)
H33 H 0.2507 -0.0662 0.2312
C43 C 0.19596(10) 0.15921(9) 0.3714(2)
C44 C 0.22314(11) 0.17444(10) 0.3145(2)
H34 H 0.2158 0.1621 0.2686
C45 C 0.26091(11) 0.20756(11) 0.3242(2)
H35 H 0.2785 0.2176 0.2844
C46 C 0.27352(10) 0.22621(9) 0.3909(2)
C47 C 0.24678(10) 0.20989(10) 0.4483(2)
H36 H 0.2546 0.2211 0.4950
C48 C 0.20870(10) 0.17726(10) 0.4379(2)
H37 H 0.1911 0.1672 0.4777
C49 C 0.09173(10) 0.09969(10) 0.3146(2)
C50 C 0.05888(11) 0.08464(10) 0.2700(2)
H38 H 0.0615 0.0867 0.2192
C51 C 0.02146(11) 0.06613(11) 0.3032(2)
H39 H -0.0018 0.0553 0.2744
C52 C 0.01785(11) 0.06334(11) 0.3771(2)
H40 H -0.0079 0.0507 0.3980
C53 C 0.05142(11) 0.07887(10) 0.4222(2)
H41 H 0.0489 0.0773 0.4731
C54 C 0.08813(10) 0.09658(9) 0.3890(2)
C55 C 0.42026(10) 0.03770(10) 0.1956(2)
C56 C 0.43412(11) 0.06551(11) 0.1403(2)
H42 H 0.4249 0.0585 0.0923
C57 C 0.46275(12) 0.10479(12) 0.1597(3)
H43 H 0.4731 0.1248 0.1238
C58 C 0.47585(12) 0.11453(12) 0.2289(3)
H44 H 0.4951 0.1412 0.2397
C59 C 0.46175(11) 0.08615(11) 0.2851(3)
H45 H 0.4711 0.0930 0.3330
C60 C 0.43353(10) 0.04784(11) 0.2661(2)
O1M O 0.45260(7) 0.65462(10) 0.37254(14)
O2M O 0.44692(7) 0.65519(10) 0.24537(13)
O3M O 0.33136(7) 0.27204(10) 0.47634(14)
O4M O 0.34860(7) 0.26662(10) 0.35612(14)
N1M N 0.41456(8) 0.58919(11) 0.30841(16)
N2M N 0.13437(9) 0.39728(13) 0.19176(19)
N3M N 0.31228(8) 0.30384(11) 0.37874(16)
B1M B 0.45458(11) 0.63521(16) 0.3055(2)
B2M B 0.31651(11) 0.26433(16) 0.4019(2)
C19M C 0.39077(12) 0.57542(18) 0.3647(2)
H13M H 0.3959 0.5923 0.4052
C20M C 0.35851(13) 0.53717(20) 0.3665(2)
H14M H 0.3418 0.5284 0.4077
C21M C 0.35036(9) 0.51183(13) 0.3093(2)
C22M C 0.37515(12) 0.52666(19) 0.2501(2)
H15M H 0.3704 0.5105 0.2088
C23M C 0.40681(13) 0.56520(20) 0.2517(2)
H16M H 0.4237 0.5751 0.2109
C24M C 0.31623(9) 0.46982(13) 0.30938(19)
C25M C 0.27837(9) 0.46230(13) 0.28831(19)
C26M C 0.24755(9) 0.42249(13) 0.28198(19)
C27M C 0.25389(9) 0.39079(13) 0.2997(2)
C28M C 0.29178(9) 0.39944(13) 0.32285(19)
C29M C 0.32340(10) 0.43889(14) 0.3273(2)
C30M C 0.27211(10) 0.49687(14) 0.2710(2)
H17M H 0.2911 0.5136 0.2340
H18M H 0.2450 0.4868 0.2533
H19M H 0.2761 0.5127 0.3145
C31M C 0.22074(10) 0.34806(14) 0.2921(2)
H20M H 0.2209 0.3328 0.3337
H21M H 0.1951 0.3472 0.2896
H22M H 0.2247 0.3367 0.2481
C32M C 0.36459(10) 0.44817(14) 0.3514(2)
H23M H 0.3781 0.4743 0.3747
H24M H 0.3621 0.4279 0.3855
H25M H 0.3799 0.4484 0.3096
C33M C 0.20815(9) 0.41382(13) 0.2515(2)
C34M C 0.19675(10) 0.39759(14) 0.1827(2)
H26M H 0.2137 0.3919 0.1548
C35M C 0.16021(10) 0.38998(15) 0.1556(2)
H27M H 0.1530 0.3790 0.1087
C36M C 0.14582(10) 0.41295(14) 0.2578(2)
H28M H 0.1284 0.4187 0.2844
C37M C 0.18164(10) 0.42131(14) 0.2894(2)
H29M H 0.1880 0.4321 0.3366
C38M C 0.29926(9) 0.36618(13) 0.3424(2)
C39M C 0.32276(11) 0.35644(15) 0.2995(2)
H30M H 0.3346 0.3711 0.2570
C40M C 0.32863(10) 0.32543(14) 0.3189(2)
H31M H 0.3446 0.3192 0.2893
C41M C 0.28940(10) 0.31258(14) 0.4200(2)
H32M H 0.2773 0.2970 0.4615
C42M C 0.28275(10) 0.34379(14) 0.4043(2)
H33M H 0.2671 0.3498 0.4355
C43M C 0.49254(9) 0.62992(13) 0.2953(2)
C44M C 0.50777(10) 0.61797(15) 0.3522(2)
H34M H 0.4954 0.6130 0.3981
C45M C 0.54089(11) 0.61332(16) 0.3425(2)
H35M H 0.5509 0.6058 0.3823
C46M C 0.55954(9) 0.61936(13) 0.2758(2)
C47M C 0.54322(10) 0.62978(14) 0.2184(2)
H36M H 0.5544 0.6332 0.1717
C48M C 0.51059(10) 0.63523(14) 0.2288(2)
H37M H 0.5005 0.6428 0.1890
C49M C 0.43302(10) 0.67463(14) 0.3521(2)
C50M C 0.41797(10) 0.69243(15) 0.3967(2)
H38M H 0.4200 0.6919 0.4475
C51M C 0.39946(11) 0.71134(16) 0.3635(2)
H39M H 0.3886 0.7238 0.3923
C52M C 0.39667(11) 0.71216(16) 0.2896(2)
H40M H 0.3840 0.7253 0.2687
C53M C 0.41220(10) 0.69412(15) 0.2445(2)
H41M H 0.4106 0.6951 0.1936
C54M C 0.42991(9) 0.67512(13) 0.2777(2)
C55M C 0.37103(10) 0.28411(14) 0.4711(2)
C56M C 0.39884(11) 0.29806(16) 0.5264(2)
H42M H 0.3918 0.3003 0.5744
C57M C 0.43812(12) 0.30871(17) 0.5070(3)
H43M H 0.4581 0.3184 0.5429
C58M C 0.44786(12) 0.30535(17) 0.4378(3)
H44M H 0.4745 0.3128 0.4270
C59M C 0.41948(11) 0.29107(16) 0.3816(3)
H45M H 0.4263 0.2886 0.3337
C60M C 0.38117(11) 0.28098(15) 0.4006(2)
O1N O 0.34538(10) -0.20201(7) 0.37254(14)
O2N O 0.34481(10) -0.20826(7) 0.24537(13)
O3N O 0.72796(10) 0.05933(7) 0.47634(14)
O4N O 0.73338(10) 0.08199(7) 0.35612(14)
N1N N 0.41081(11) -0.17462(8) 0.30841(16)
N2N N 0.60272(13) -0.26290(9) 0.19176(19)
N3N N 0.69616(11) 0.00845(8) 0.37874(16)
B1N B 0.36479(16) -0.18062(11) 0.3055(2)
B2N B 0.73567(16) 0.05219(11) 0.4019(2)
C19N C 0.42458(18) -0.18464(14) 0.3647(2)
H13N H 0.4077 -0.1963 0.4052
C20N C 0.46283(20) -0.17865(15) 0.3665(2)
H14N H 0.4716 -0.1865 0.4077
C21N C 0.48817(13) -0.16146(9) 0.3093(2)
C22N C 0.47334(19) -0.15150(15) 0.2501(2)
H15N H 0.4895 -0.1400 0.2088
C23N C 0.43480(20) -0.15838(15) 0.2517(2)
H16N H 0.4249 -0.1513 0.2109
C24N C 0.53018(13) -0.15358(9) 0.30938(19)
C25N C 0.53770(13) -0.18392(9) 0.28831(19)
C26N C 0.57751(13) -0.17493(9) 0.28198(19)
C27N C 0.60921(13) -0.13689(9) 0.2997(2)
C28N C 0.60056(13) -0.10765(10) 0.32285(19)
C29N C 0.56111(14) -0.11548(10) 0.3273(2)
C30N C 0.50313(14) -0.22475(10) 0.2710(2)
H17N H 0.4864 -0.2224 0.2340
H18N H 0.5132 -0.2417 0.2533
H19N H 0.4873 -0.2365 0.3145
C31N C 0.65194(14) -0.12731(10) 0.2921(2)
H20N H 0.6672 -0.1118 0.3337
H21N H 0.6528 -0.1520 0.2896
H22N H 0.6633 -0.1119 0.2481
C32N C 0.55183(14) -0.08357(10) 0.3514(2)
H23N H 0.5257 -0.0961 0.3747
H24N H 0.5721 -0.0657 0.3855
H25N H 0.5516 -0.0684 0.3096
C33N C 0.58618(13) -0.20566(9) 0.2515(2)
C34N C 0.60241(14) -0.20083(10) 0.1827(2)
H26N H 0.6081 -0.1781 0.1548
C35N C 0.61002(15) -0.22976(11) 0.1556(2)
H27N H 0.6210 -0.2259 0.1087
C36N C 0.58705(14) -0.26712(10) 0.2578(2)
H28N H 0.5813 -0.2902 0.2844
C37N C 0.57869(14) -0.23966(10) 0.2894(2)
H29N H 0.5679 -0.2440 0.3366
C38N C 0.63382(13) -0.06691(10) 0.3424(2)
C39N C 0.64356(15) -0.03367(10) 0.2995(2)
H30N H 0.6289 -0.0364 0.2570
C40N C 0.67457(14) 0.00321(10) 0.3189(2)
H31N H 0.6808 0.0255 0.2893
C41N C 0.68742(14) -0.02317(10) 0.4200(2)
H32N H 0.7030 -0.0196 0.4615
C42N C 0.65621(14) -0.06103(10) 0.4043(2)
H33N H 0.6502 -0.0826 0.4355
C43N C 0.37008(13) -0.13737(10) 0.2953(2)
C44N C 0.38203(15) -0.11019(11) 0.3522(2)
H34N H 0.3870 -0.1175 0.3981
C45N C 0.38668(16) -0.07242(11) 0.3425(2)
H35N H 0.3942 -0.0548 0.3823
C46N C 0.38064(13) -0.05981(10) 0.2758(2)
C47N C 0.37022(14) -0.08655(10) 0.2184(2)
H36N H 0.3668 -0.0787 0.1717
C48N C 0.36477(14) -0.12463(10) 0.2288(2)
H37N H 0.3572 -0.1422 0.1890
C49N C 0.32537(14) -0.24160(10) 0.3521(2)
C50N C 0.30757(15) -0.27445(11) 0.3967(2)
H38N H 0.3081 -0.2718 0.4475
C51N C 0.28866(16) -0.31187(11) 0.3635(2)
H39N H 0.2762 -0.3351 0.3923
C52N C 0.28784(16) -0.31548(11) 0.2896(2)
H40N H 0.2747 -0.3412 0.2687
C53N C 0.30588(15) -0.28191(11) 0.2445(2)
H41N H 0.3049 -0.2844 0.1936
C54N C 0.32488(13) -0.24520(10) 0.2777(2)
C55N C 0.71589(14) 0.08693(10) 0.4711(2)
C56N C 0.70194(16) 0.10079(11) 0.5264(2)
H42N H 0.6997 0.0916 0.5744
C57N C 0.69129(17) 0.12942(12) 0.5070(3)
H43N H 0.6816 0.1398 0.5429
C58N C 0.69465(17) 0.14252(12) 0.4378(3)
H44N H 0.6872 0.1618 0.4270
C59N C 0.70893(16) 0.12842(11) 0.3816(3)
H45N H 0.7114 0.1378 0.3337
C60N C 0.71902(15) 0.10020(10) 0.4006(2)
O1A O 0.88073(7) 0.01205(10) 0.29413(14)
O2A O 0.88641(7) 0.01148(10) 0.42130(13)
O3A O 1.00197(7) 0.39463(10) 0.19033(14)
O4A O 0.98473(7) 0.40005(10) 0.31055(14)
N1A N 0.91877(8) 0.07748(11) 0.35826(16)
N2A N 1.19896(9) 0.26939(13) 0.47491(19)
N3A N 1.02105(8) 0.36283(11) 0.28793(16)
B1A B 0.87875(11) 0.03146(16) 0.3612(2)
B2A B 1.01682(11) 0.40234(16) 0.2648(2)
C19A C 0.94256(12) 0.09125(18) 0.3020(2)
H13A H 0.9374 0.0744 0.2615
C20A C 0.97482(13) 0.12950(20) 0.3002(2)
H14A H 0.9915 0.1383 0.2590
C21A C 0.98297(9) 0.15484(13) 0.3574(2)
C22A C 0.95818(12) 0.14001(19) 0.4166(2)
H15A H 0.9629 0.1562 0.4579
C23A C 0.92652(13) 0.10147(20) 0.4150(2)
H16A H 0.9096 0.0916 0.4558
C24A C 1.01710(9) 0.19685(13) 0.35729(19)
C25A C 1.05496(9) 0.20437(13) 0.37836(19)
C26A C 1.08578(9) 0.24418(13) 0.38469(19)
C27A C 1.07944(9) 0.27588(13) 0.3670(2)
C28A C 1.04155(9) 0.26723(13) 0.34382(19)
C29A C 1.00993(10) 0.22778(14) 0.3394(2)
C30A C 1.06122(10) 0.16980(14) 0.3957(2)
H17A H 1.0422 0.1531 0.4327
H18A H 1.0883 0.1799 0.4134
H19A H 1.0572 0.1540 0.3522
C31A C 1.11259(10) 0.31861(14) 0.3746(2)
H20A H 1.1124 0.3339 0.3330
H21A H 1.1382 0.3195 0.3771
H22A H 1.1086 0.3300 0.4186
C32A C 0.96874(10) 0.21850(14) 0.3153(2)
H23A H 0.9552 0.1924 0.2920
H24A H 0.9712 0.2388 0.2812
H25A H 0.9534 0.2183 0.3571
C33A C 1.12518(9) 0.25285(13) 0.4152(2)
C34A C 1.13658(10) 0.26908(14) 0.4840(2)
H26A H 1.1196 0.2748 0.5119
C35A C 1.17312(10) 0.27669(15) 0.5111(2)
H27A H 1.1803 0.2877 0.5580
C36A C 1.18751(10) 0.25372(14) 0.4089(2)
H28A H 1.2049 0.2480 0.3823
C37A C 1.15169(10) 0.24536(14) 0.3773(2)
H29A H 1.1453 0.2346 0.3301
C38A C 1.03407(9) 0.30049(13) 0.3243(2)
C39A C 1.01057(11) 0.31023(15) 0.3672(2)
H30A H 0.9987 0.2956 0.4097
C40A C 1.00470(10) 0.34124(14) 0.3478(2)
H31A H 0.9887 0.3475 0.3774
C41A C 1.04393(10) 0.35409(14) 0.2467(2)
H32A H 1.0560 0.3697 0.2052
C42A C 1.05058(10) 0.32288(14) 0.2624(2)
H33A H 1.0662 0.3169 0.2312
C43A C 0.84079(9) 0.03675(13) 0.3714(2)
C44A C 0.82556(10) 0.04870(15) 0.3145(2)
H34A H 0.8379 0.0537 0.2686
C45A C 0.79244(11) 0.05335(16) 0.3242(2)
H35A H 0.7824 0.0609 0.2844
C46A C 0.77379(9) 0.04731(13) 0.3909(2)
C47A C 0.79011(10) 0.03689(14) 0.4483(2)
H36A H 0.7789 0.0335 0.4950
C48A C 0.82274(10) 0.03144(14) 0.4379(2)
H37A H 0.8328 0.0239 0.4777
C49A C 0.90031(10) -0.00796(14) 0.3146(2)
C50A C 0.91536(10) -0.02576(15) 0.2700(2)
H38A H 0.9133 -0.0252 0.2192
C51A C 0.93387(11) -0.04467(16) 0.3032(2)
H39A H 0.9447 -0.0571 0.2744
C52A C 0.93666(11) -0.04549(16) 0.3771(2)
H40A H 0.9493 -0.0586 0.3980
C53A C 0.92113(10) -0.02745(15) 0.4222(2)
H41A H 0.9227 -0.0284 0.4731
C54A C 0.90342(9) -0.00845(13) 0.3890(2)
C55A C 0.96230(10) 0.38256(14) 0.1956(2)
C56A C 0.93449(11) 0.36861(16) 0.1403(2)
H42A H 0.9415 0.3664 0.0923
C57A C 0.89521(12) 0.35796(17) 0.1597(3)
H43A H 0.8752 0.3483 0.1238
C58A C 0.88547(12) 0.36132(17) 0.2289(3)
H44A H 0.8588 0.3539 0.2397
C59A C 0.91385(11) 0.37560(16) 0.2851(3)
H45A H 0.9070 0.3781 0.3330
C60A C 0.95216(11) 0.38569(15) 0.2661(2)
O1B O 0.98795(10) 0.86868(7) 0.29413(14)
O2B O 0.98852(10) 0.87493(7) 0.42130(13)
O3B O 0.60537(10) 0.60734(7) 0.19033(14)
O4B O 0.59995(10) 0.58468(7) 0.31055(14)
N1B N 0.92252(11) 0.84129(8) 0.35826(16)
N2B N 0.73061(13) 0.92957(9) 0.47491(19)
N3B N 0.63717(11) 0.65822(8) 0.28793(16)
B1B B 0.96854(16) 0.84729(11) 0.3612(2)
B2B B 0.59766(16) 0.61448(11) 0.2648(2)
C19B C 0.90875(18) 0.85131(14) 0.3020(2)
H13B H 0.9256 0.8630 0.2615
C20B C 0.87050(20) 0.84532(15) 0.3002(2)
H14B H 0.8617 0.8532 0.2590
C21B C 0.84516(13) 0.82813(9) 0.3574(2)
C22B C 0.85999(19) 0.81817(15) 0.4166(2)
H15B H 0.8438 0.8067 0.4579
C23B C 0.89853(20) 0.82505(15) 0.4150(2)
H16B H 0.9084 0.8180 0.4558
C24B C 0.80315(13) 0.82025(9) 0.35729(19)
C25B C 0.79563(13) 0.85059(9) 0.37836(19)
C26B C 0.75582(13) 0.84160(9) 0.38469(19)
C27B C 0.72412(13) 0.80356(9) 0.3670(2)
C28B C 0.73277(13) 0.77432(10) 0.34382(19)
C29B C 0.77222(14) 0.78215(10) 0.3394(2)
C30B C 0.83020(14) 0.89142(10) 0.3957(2)
H17B H 0.8469 0.8891 0.4327
H18B H 0.8201 0.9084 0.4134
H19B H 0.8460 0.9032 0.3522
C31B C 0.68139(14) 0.79398(10) 0.3746(2)
H20B H 0.6661 0.7785 0.3330
H21B H 0.6805 0.8187 0.3771
H22B H 0.6700 0.7786 0.4186
C32B C 0.78150(14) 0.75024(10) 0.3153(2)
H23B H 0.8076 0.7628 0.2920
H24B H 0.7612 0.7324 0.2812
H25B H 0.7817 0.7351 0.3571
C33B C 0.74715(13) 0.87233(9) 0.4152(2)
C34B C 0.73092(14) 0.86750(10) 0.4840(2)
H26B H 0.7252 0.8448 0.5119
C35B C 0.72331(15) 0.89643(11) 0.5111(2)
H27B H 0.7123 0.8926 0.5580
C36B C 0.74628(14) 0.93379(10) 0.4089(2)
H28B H 0.7520 0.9569 0.3823
C37B C 0.75464(14) 0.90633(10) 0.3773(2)
H29B H 0.7654 0.9107 0.3301
C38B C 0.69951(13) 0.73358(10) 0.3243(2)
C39B C 0.68977(15) 0.70034(10) 0.3672(2)
H30B H 0.7044 0.7031 0.4097
C40B C 0.65876(14) 0.66346(10) 0.3478(2)
H31B H 0.6525 0.6412 0.3774
C41B C 0.64591(14) 0.68984(10) 0.2467(2)
H32B H 0.6303 0.6863 0.2052
C42B C 0.67712(14) 0.72770(10) 0.2624(2)
H33B H 0.6831 0.7493 0.2312
C43B C 0.96325(13) 0.80404(10) 0.3714(2)
C44B C 0.95130(15) 0.77686(11) 0.3145(2)
H34B H 0.9463 0.7842 0.2686
C45B C 0.94665(16) 0.73909(11) 0.3242(2)
H35B H 0.9391 0.7215 0.2844
C46B C 0.95269(13) 0.72648(10) 0.3909(2)
C47B C 0.96311(14) 0.75322(10) 0.4483(2)
H36B H 0.9665 0.7454 0.4950
C48B C 0.96856(14) 0.79130(10) 0.4379(2)
H37B H 0.9761 0.8089 0.4777
C49B C 1.00796(14) 0.90827(10) 0.3146(2)
C50B C 1.02576(15) 0.94112(11) 0.2700(2)
H38B H 1.0252 0.9385 0.2192
C51B C 1.04467(16) 0.97854(11) 0.3032(2)
H39B H 1.0571 1.0018 0.2744
C52B C 1.04549(16) 0.98215(11) 0.3771(2)
H40B H 1.0586 1.0079 0.3980
C53B C 1.02745(15) 0.94858(11) 0.4222(2)
H41B H 1.0284 0.9511 0.4731
C54B C 1.00845(13) 0.91187(10) 0.3890(2)
C55B C 0.61744(14) 0.57974(10) 0.1956(2)
C56B C 0.63139(16) 0.56588(11) 0.1403(2)
H42B H 0.6336 0.5751 0.0923
C57B C 0.64204(17) 0.53725(12) 0.1597(3)
H43B H 0.6517 0.5269 0.1238
C58B C 0.63868(17) 0.52415(12) 0.2289(3)
H44B H 0.6461 0.5049 0.2397
C59B C 0.62440(16) 0.53825(11) 0.2851(3)
H45B H 0.6219 0.5289 0.3330
C60B C 0.61431(15) 0.56647(10) 0.2661(2)
O1L O 1.20201(7) 0.54740(7) 0.37254(14)
O2L O 1.20826(7) 0.55308(7) 0.24537(13)
O3L O 0.94067(7) 0.66864(7) 0.47634(14)
O4L O 0.91801(7) 0.65140(7) 0.35612(14)
N1L N 1.17462(8) 0.58544(8) 0.30841(16)
N2L N 1.26290(9) 0.86563(9) 0.19176(19)
N3L N 0.99155(8) 0.68772(8) 0.37874(16)
B1L B 1.18062(11) 0.54542(11) 0.3055(2)
B2L B 0.94781(11) 0.68349(11) 0.4019(2)
C19L C 1.18464(14) 0.60923(12) 0.3647(2)
H13L H 1.1963 0.6041 0.4052
C20L C 1.17865(15) 0.64149(13) 0.3665(2)
H14L H 1.1865 0.6582 0.4077
C21L C 1.16146(9) 0.64964(9) 0.3093(2)
C22L C 1.15150(15) 0.62485(12) 0.2501(2)
H15L H 1.1400 0.6296 0.2088
C23L C 1.15838(15) 0.59319(13) 0.2517(2)
H16L H 1.1513 0.5763 0.2109
C24L C 1.15358(9) 0.68377(9) 0.30938(19)
C25L C 1.18392(9) 0.72163(9) 0.28831(19)
C26L C 1.17493(9) 0.75245(9) 0.28198(19)
C27L C 1.13689(9) 0.74611(9) 0.2997(2)
C28L C 1.10765(10) 0.70822(9) 0.32285(19)
C29L C 1.11548(10) 0.67660(10) 0.3273(2)
C30L C 1.22475(10) 0.72789(10) 0.2710(2)
H17L H 1.2224 0.7089 0.2340
H18L H 1.2417 0.7550 0.2533
H19L H 1.2365 0.7239 0.3145
C31L C 1.12731(10) 0.77926(10) 0.2921(2)
H20L H 1.1118 0.7791 0.3337
H21L H 1.1520 0.8049 0.2896
H22L H 1.1119 0.7753 0.2481
C32L C 1.08357(10) 0.63541(10) 0.3514(2)
H23L H 1.0961 0.6219 0.3747
H24L H 1.0657 0.6379 0.3855
H25L H 1.0684 0.6201 0.3096
C33L C 1.20566(9) 0.79185(9) 0.2515(2)
C34L C 1.20083(10) 0.80325(10) 0.1827(2)
H26L H 1.1781 0.7863 0.1548
C35L C 1.22976(11) 0.83979(10) 0.1556(2)
H27L H 1.2259 0.8470 0.1087
C36L C 1.26712(10) 0.85418(10) 0.2578(2)
H28L H 1.2902 0.8716 0.2844
C37L C 1.23966(10) 0.81836(10) 0.2894(2)
H29L H 1.2440 0.8120 0.3366
C38L C 1.06691(10) 0.70074(9) 0.3424(2)
C39L C 1.03367(10) 0.67724(11) 0.2995(2)
H30L H 1.0364 0.6654 0.2570
C40L C 0.99679(10) 0.67137(10) 0.3189(2)
H31L H 0.9745 0.6554 0.2893
C41L C 1.02317(10) 0.71060(10) 0.4200(2)
H32L H 1.0196 0.7227 0.4615
C42L C 1.06103(10) 0.71725(10) 0.4043(2)
H33L H 1.0826 0.7329 0.4355
C43L C 1.13737(10) 0.50746(9) 0.2953(2)
C44L C 1.11019(11) 0.49223(10) 0.3522(2)
H34L H 1.1175 0.5046 0.3981
C45L C 1.07242(11) 0.45911(11) 0.3425(2)
H35L H 1.0548 0.4491 0.3823
C46L C 1.05981(10) 0.44046(9) 0.2758(2)
C47L C 1.08655(10) 0.45678(10) 0.2184(2)
H36L H 1.0787 0.4456 0.1717
C48L C 1.12463(10) 0.48941(10) 0.2288(2)
H37L H 1.1422 0.4995 0.1890
C49L C 1.24160(10) 0.56698(10) 0.3521(2)
C50L C 1.27445(11) 0.58203(10) 0.3967(2)
H38L H 1.2718 0.5800 0.4475
C51L C 1.31187(11) 0.60054(11) 0.3635(2)
H39L H 1.3351 0.6114 0.3923
C52L C 1.31548(11) 0.60333(11) 0.2896(2)
H40L H 1.3412 0.6160 0.2687
C53L C 1.28191(11) 0.58780(10) 0.2445(2)
H41L H 1.2844 0.5894 0.1936
C54L C 1.24520(10) 0.57009(9) 0.2777(2)
C55L C 0.91307(10) 0.62897(10) 0.4711(2)
C56L C 0.89921(11) 0.60116(11) 0.5264(2)
H42L H 0.9084 0.6082 0.5744
C57L C 0.87058(12) 0.56188(12) 0.5070(3)
H43L H 0.8602 0.5419 0.5429
C58L C 0.85748(12) 0.55214(12) 0.4378(3)
H44L H 0.8382 0.5255 0.4270
C59L C 0.87158(11) 0.58052(11) 0.3816(3)
H45L H 0.8622 0.5737 0.3337
C60L C 0.89980(10) 0.61883(11) 0.4006(2)
loop_
_geom_bond_atom_site_label_1
_geom_bond_atom_site_label_2
_geom_bond_site_symmetry_1
_geom_bond_site_symmetry_2
Cl1 C1 1_555 1_555
Cl2 C2 1_555 1_555
C1 C2 1_555 1_555
C2 C3 1_555 1_555
C3 H1 1_555 1_555
C4 C3 1_555 1_555
H2 C4 1_555 1_555
C5 C4 1_555 1_555
H3 C5 1_555 1_555
C6 C1 1_555 1_555
H4 C6 1_555 1_555
Cl3 C7 1_555 1_555
Cl4 C8 1_555 1_555
C7 C8 1_555 1_555
C8 C9 1_555 1_555
C9 H5 1_555 1_555
C10 C9 1_555 1_555
H6 C10 1_555 1_555
C11 C10 1_555 1_555
H7 C11 1_555 1_555
C12 C7 1_555 1_555
H8 C12 1_555 1_555
Cl5 C13 1_555 1_555
Cl6 C14 1_555 1_555
C13 C14 1_555 1_555
C14 C15 1_555 1_555
C15 H9 1_555 1_555
C16 C15 1_555 1_555
H10 C16 1_555 1_555
C17 C16 1_555 1_555
H11 C17 1_555 1_555
C18 C13 1_555 1_555
H12 C18 1_555 1_555
O1 B1 1_555 1_555
O2 B1 1_555 1_555
O3 B2 1_555 1_555
O4 B2 1_555 1_555
N1 B1 1_555 1_555
N2 C35 1_555 1_555
N3 B2 1_555 1_555
B1 C43 1_555 1_555
B2 C46N 1_555 1_555
C19 N1 1_555 1_555
H13 C19 1_555 1_555
C20 C19 1_555 1_555
H14 C20 1_555 1_555
C21 C20 1_555 1_555
C22 C21 1_555 1_555
H15 C22 1_555 1_555
C23 N1 1_555 1_555
H16 C23 1_555 1_555
C24 C21 1_555 1_555
C25 C24 1_555 1_555
C26 C25 1_555 1_555
C27 C26 1_555 1_555
C28 C27 1_555 1_555
C29 C24 1_555 1_555
C30 C25 1_555 1_555
H17 C30 1_555 1_555
H18 C30 1_555 1_555
H19 C30 1_555 1_555
C31 C27 1_555 1_555
H20 C31 1_555 1_555
H21 C31 1_555 1_555
H22 C31 1_555 1_555
C32 C29 1_555 1_555
H23 C32 1_555 1_555
H24 C32 1_555 1_555
H25 C32 1_555 1_555
C33 C26 1_555 1_555
C34 C33 1_555 1_555
H26 C34 1_555 1_555
C35 C34 1_555 1_555
H27 C35 1_555 1_555
C36 N2 1_555 1_555
H28 C36 1_555 1_555
C37 C33 1_555 1_555
H29 C37 1_555 1_555
C38 C28 1_555 1_555
C39 C38 1_555 1_555
H30 C39 1_555 1_555
C40 N3 1_555 1_555
H31 C40 1_555 1_555
C41 N3 1_555 1_555
H32 C41 1_555 1_555
C42 C38 1_555 1_555
H33 C42 1_555 1_555
C43 C44 1_555 1_555
C44 H34 1_555 1_555
C45 C44 1_555 1_555
H35 C45 1_555 1_555
C46 C45 1_555 1_555
C47 C46 1_555 1_555
H36 C47 1_555 1_555
C48 C43 1_555 1_555
H37 C48 1_555 1_555
C49 O1 1_555 1_555
C50 C49 1_555 1_555
H38 C50 1_555 1_555
C51 C50 1_555 1_555
H39 C51 1_555 1_555
C52 C51 1_555 1_555
H40 C52 1_555 1_555
C53 C52 1_555 1_555
H41 C53 1_555 1_555
C54 O2 1_555 1_555
C55 O3 1_555 1_555
C56 C55 1_555 1_555
H42 C56 1_555 1_555
C57 C56 1_555 1_555
H43 C57 1_555 1_555
C58 C57 1_555 1_555
H44 C58 1_555 1_555
C59 C58 1_555 1_555
H45 C59 1_555 1_555
C60 O4 1_555 1_555
O1M B1M 1_555 1_555
O2M B1M 1_555 1_555
O3M B2M 1_555 1_555
O4M B2M 1_555 1_555
N1M B1M 1_555 1_555
N2M C35M 1_555 1_555
N3M B2M 1_555 1_555
B1M C43M 1_555 1_555
B2M C46 1_555 1_555
C19M N1M 1_555 1_555
H13M C19M 1_555 1_555
C20M C19M 1_555 1_555
H14M C20M 1_555 1_555
C21M C20M 1_555 1_555
C22M C21M 1_555 1_555
H15M C22M 1_555 1_555
C23M N1M 1_555 1_555
H16M C23M 1_555 1_555
C24M C21M 1_555 1_555
C25M C24M 1_555 1_555
C26M C25M 1_555 1_555
C27M C26M 1_555 1_555
C28M C27M 1_555 1_555
C29M C24M 1_555 1_555
C30M C25M 1_555 1_555
H17M C30M 1_555 1_555
H18M C30M 1_555 1_555
H19M C30M 1_555 1_555
C31M C27M 1_555 1_555
H20M C31M 1_555 1_555
H21M C31M 1_555 1_555
H22M C31M 1_555 1_555
C32M C29M 1_555 1_555
H23M C32M 1_555 1_555
H24M C32M 1_555 1_555
H25M C32M 1_555 1_555
C33M C26M 1_555 1_555
C34M C33M 1_555 1_555
H26M C34M 1_555 1_555
C35M C34M 1_555 1_555
H27M C35M 1_555 1_555
C36M N2M 1_555 1_555
H28M C36M 1_555 1_555
C37M C33M 1_555 1_555
H29M C37M 1_555 1_555
C38M C28M 1_555 1_555
C39M C38M 1_555 1_555
H30M C39M 1_555 1_555
C40M N3M 1_555 1_555
H31M C40M 1_555 1_555
C41M N3M 1_555 1_555
H32M C41M 1_555 1_555
C42M C38M 1_555 1_555
H33M C42M 1_555 1_555
C43M C44M 1_555 1_555
C44M H34M 1_555 1_555
C45M C44M 1_555 1_555
H35M C45M 1_555 1_555
C46M C45M 1_555 1_555
C47M C46M 1_555 1_555
H36M C47M 1_555 1_555
C48M C43M 1_555 1_555
H37M C48M 1_555 1_555
C49M O1M 1_555 1_555
C50M C49M 1_555 1_555
H38M C50M 1_555 1_555
C51M C50M 1_555 1_555
H39M C51M 1_555 1_555
C52M C51M 1_555 1_555
H40M C52M 1_555 1_555
C53M C52M 1_555 1_555
H41M C53M 1_555 1_555
C54M O2M 1_555 1_555
C55M O3M 1_555 1_555
C56M C55M 1_555 1_555
H42M C56M 1_555 1_555
C57M C56M 1_555 1_555
H43M C57M 1_555 1_555
C58M C57M 1_555 1_555
H44M C58M 1_555 1_555
C59M C58M 1_555 1_555
H45M C59M 1_555 1_555
C60M O4M 1_555 1_555
O1N B1N 1_555 1_555
O2N B1N 1_555 1_555
O3N B2N 1_555 1_555
O4N B2N 1_555 1_555
N1N B1N 1_555 1_555
N2N C35N 1_555 1_555
N3N B2N 1_555 1_555
B1N C43N 1_555 1_555
B2N C46A 1_555 1_555
C19N N1N 1_555 1_555
H13N C19N 1_555 1_555
C20N C19N 1_555 1_555
H14N C20N 1_555 1_555
C21N C20N 1_555 1_555
C22N C21N 1_555 1_555
H15N C22N 1_555 1_555
C23N N1N 1_555 1_555
H16N C23N 1_555 1_555
C24N C21N 1_555 1_555
C25N C24N 1_555 1_555
C26N C25N 1_555 1_555
C27N C26N 1_555 1_555
C28N C27N 1_555 1_555
C29N C24N 1_555 1_555
C30N C25N 1_555 1_555
H17N C30N 1_555 1_555
H18N C30N 1_555 1_555
H19N C30N 1_555 1_555
C31N C27N 1_555 1_555
H20N C31N 1_555 1_555
H21N C31N 1_555 1_555
H22N C31N 1_555 1_555
C32N C29N 1_555 1_555
H23N C32N 1_555 1_555
H24N C32N 1_555 1_555
H25N C32N 1_555 1_555
C33N C26N 1_555 1_555
C34N C33N 1_555 1_555
H26N C34N 1_555 1_555
C35N C34N 1_555 1_555
H27N C35N 1_555 1_555
C36N N2N 1_555 1_555
H28N C36N 1_555 1_555
C37N C33N 1_555 1_555
H29N C37N 1_555 1_555
C38N C28N 1_555 1_555
C39N C38N 1_555 1_555
H30N C39N 1_555 1_555
C40N N3N 1_555 1_555
H31N C40N 1_555 1_555
C41N N3N 1_555 1_555
H32N C41N 1_555 1_555
C42N C38N 1_555 1_555
H33N C42N 1_555 1_555
C43N C44N 1_555 1_555
C44N H34N 1_555 1_555
C45N C44N 1_555 1_555
H35N C45N 1_555 1_555
C46N C45N 1_555 1_555
C47N C46N 1_555 1_555
H36N C47N 1_555 1_555
C48N C43N 1_555 1_555
H37N C48N 1_555 1_555
C49N O1N 1_555 1_555
C50N C49N 1_555 1_555
H38N C50N 1_555 1_555
C51N C50N 1_555 1_555
H39N C51N 1_555 1_555
C52N C51N 1_555 1_555
H40N C52N 1_555 1_555
C53N C52N 1_555 1_555
H41N C53N 1_555 1_555
C54N O2N 1_555 1_555
C55N O3N 1_555 1_555
C56N C55N 1_555 1_555
H42N C56N 1_555 1_555
C57N C56N 1_555 1_555
H43N C57N 1_555 1_555
C58N C57N 1_555 1_555
H44N C58N 1_555 1_555
C59N C58N 1_555 1_555
H45N C59N 1_555 1_555
C60N O4N 1_555 1_555
O1A B1A 1_555 1_555
O2A B1A 1_555 1_555
O3A B2A 1_555 1_555
O4A B2A 1_555 1_555
N1A B1A 1_555 1_555
N2A C35A 1_555 1_555
N3A B2A 1_555 1_555
B1A C43A 1_555 1_555
B2A C46L 1_555 1_555
C19A N1A 1_555 1_555
H13A C19A 1_555 1_555
C20A C19A 1_555 1_555
H14A C20A 1_555 1_555
C21A C20A 1_555 1_555
C22A C21A 1_555 1_555
H15A C22A 1_555 1_555
C23A N1A 1_555 1_555
H16A C23A 1_555 1_555
C24A C21A 1_555 1_555
C25A C24A 1_555 1_555
C26A C25A 1_555 1_555
C27A C26A 1_555 1_555
C28A C27A 1_555 1_555
C29A C24A 1_555 1_555
C30A C25A 1_555 1_555
H17A C30A 1_555 1_555
H18A C30A 1_555 1_555
H19A C30A 1_555 1_555
C31A C27A 1_555 1_555
H20A C31A 1_555 1_555
H21A C31A 1_555 1_555
H22A C31A 1_555 1_555
C32A C29A 1_555 1_555
H23A C32A 1_555 1_555
H24A C32A 1_555 1_555
H25A C32A 1_555 1_555
C33A C26A 1_555 1_555
C34A C33A 1_555 1_555
H26A C34A 1_555 1_555
C35A C34A 1_555 1_555
H27A C35A 1_555 1_555
C36A N2A 1_555 1_555
H28A C36A 1_555 1_555
C37A C33A 1_555 1_555
H29A C37A 1_555 1_555
C38A C28A 1_555 1_555
C39A C38A 1_555 1_555
H30A C39A 1_555 1_555
C40A N3A 1_555 1_555
H31A C40A 1_555 1_555
C41A N3A 1_555 1_555
H32A C41A 1_555 1_555
C42A C38A 1_555 1_555
H33A C42A 1_555 1_555
C43A C44A 1_555 1_555
C44A H34A 1_555 1_555
C45A C44A 1_555 1_555
H35A C45A 1_555 1_555
C46A C45A 1_555 1_555
C47A C46A 1_555 1_555
H36A C47A 1_555 1_555
C48A C43A 1_555 1_555
H37A C48A 1_555 1_555
C49A O1A 1_555 1_555
C50A C49A 1_555 1_555
H38A C50A 1_555 1_555
C51A C50A 1_555 1_555
H39A C51A 1_555 1_555
C52A C51A 1_555 1_555
H40A C52A 1_555 1_555
C53A C52A 1_555 1_555
H41A C53A 1_555 1_555
C54A O2A 1_555 1_555
C55A O3A 1_555 1_555
C56A C55A 1_555 1_555
H42A C56A 1_555 1_555
C57A C56A 1_555 1_555
H43A C57A 1_555 1_555
C58A C57A 1_555 1_555
H44A C58A 1_555 1_555
C59A C58A 1_555 1_555
H45A C59A 1_555 1_555
C60A O4A 1_555 1_555
O1B B1B 1_555 1_555
O2B B1B 1_555 1_555
O3B B2B 1_555 1_555
O4B B2B 1_555 1_555
N1B B1B 1_555 1_555
N2B C35B 1_555 1_555
N3B B2B 1_555 1_555
B1B C43B 1_555 1_555
B2B C46M 1_555 1_555
C19B N1B 1_555 1_555
H13B C19B 1_555 1_555
C20B C19B 1_555 1_555
H14B C20B 1_555 1_555
C21B C20B 1_555 1_555
C22B C21B 1_555 1_555
H15B C22B 1_555 1_555
C23B N1B 1_555 1_555
H16B C23B 1_555 1_555
C24B C21B 1_555 1_555
C25B C24B 1_555 1_555
C26B C25B 1_555 1_555
C27B C26B 1_555 1_555
C28B C27B 1_555 1_555
C29B C24B 1_555 1_555
C30B C25B 1_555 1_555
H17B C30B 1_555 1_555
H18B C30B 1_555 1_555
H19B C30B 1_555 1_555
C31B C27B 1_555 1_555
H20B C31B 1_555 1_555
H21B C31B 1_555 1_555
H22B C31B 1_555 1_555
C32B C29B 1_555 1_555
H23B C32B 1_555 1_555
H24B C32B 1_555 1_555
H25B C32B 1_555 1_555
C33B C26B 1_555 1_555
C34B C33B 1_555 1_555
H26B C34B 1_555 1_555
C35B C34B 1_555 1_555
H27B C35B 1_555 1_555
C36B N2B 1_555 1_555
H28B C36B 1_555 1_555
C37B C33B 1_555 1_555
H29B C37B 1_555 1_555
C38B C28B 1_555 1_555
C39B C38B 1_555 1_555
H30B C39B 1_555 1_555
C40B N3B 1_555 1_555
H31B C40B 1_555 1_555
C41B N3B 1_555 1_555
H32B C41B 1_555 1_555
C42B C38B 1_555 1_555
H33B C42B 1_555 1_555
C43B C44B 1_555 1_555
C44B H34B 1_555 1_555
C45B C44B 1_555 1_555
H35B C45B 1_555 1_555
C46B C45B 1_555 1_555
C47B C46B 1_555 1_555
H36B C47B 1_555 1_555
C48B C43B 1_555 1_555
H37B C48B 1_555 1_555
C49B O1B 1_555 1_555
C50B C49B 1_555 1_555
H38B C50B 1_555 1_555
C51B C50B 1_555 1_555
H39B C51B 1_555 1_555
C52B C51B 1_555 1_555
H40B C52B 1_555 1_555
C53B C52B 1_555 1_555
H41B C53B 1_555 1_555
C54B O2B 1_555 1_555
C55B O3B 1_555 1_555
C56B C55B 1_555 1_555
H42B C56B 1_555 1_555
C57B C56B 1_555 1_555
H43B C57B 1_555 1_555
C58B C57B 1_555 1_555
H44B C58B 1_555 1_555
C59B C58B 1_555 1_555
H45B C59B 1_555 1_555
C60B O4B 1_555 1_555
O1L B1L 1_555 1_555
O2L B1L 1_555 1_555
O3L B2L 1_555 1_555
O4L B2L 1_555 1_555
N1L B1L 1_555 1_555
N2L C35L 1_555 1_555
N3L B2L 1_555 1_555
B1L C43L 1_555 1_555
B2L C46B 1_555 1_555
C19L N1L 1_555 1_555
H13L C19L 1_555 1_555
C20L C19L 1_555 1_555
H14L C20L 1_555 1_555
C21L C20L 1_555 1_555
C22L C21L 1_555 1_555
H15L C22L 1_555 1_555
C23L N1L 1_555 1_555
H16L C23L 1_555 1_555
C24L C21L 1_555 1_555
C25L C24L 1_555 1_555
C26L C25L 1_555 1_555
C27L C26L 1_555 1_555
C28L C27L 1_555 1_555
C29L C24L 1_555 1_555
C30L C25L 1_555 1_555
H17L C30L 1_555 1_555
H18L C30L 1_555 1_555
H19L C30L 1_555 1_555
C31L C27L 1_555 1_555
H20L C31L 1_555 1_555
H21L C31L 1_555 1_555
H22L C31L 1_555 1_555
C32L C29L 1_555 1_555
H23L C32L 1_555 1_555
H24L C32L 1_555 1_555
H25L C32L 1_555 1_555
C33L C26L 1_555 1_555
C34L C33L 1_555 1_555
H26L C34L 1_555 1_555
C35L C34L 1_555 1_555
H27L C35L 1_555 1_555
C36L N2L 1_555 1_555
H28L C36L 1_555 1_555
C37L C33L 1_555 1_555
H29L C37L 1_555 1_555
C38L C28L 1_555 1_555
C39L C38L 1_555 1_555
H30L C39L 1_555 1_555
C40L N3L 1_555 1_555
H31L C40L 1_555 1_555
C41L N3L 1_555 1_555
H32L C41L 1_555 1_555
C42L C38L 1_555 1_555
H33L C42L 1_555 1_555
C43L C44L 1_555 1_555
C44L H34L 1_555 1_555
C45L C44L 1_555 1_555
H35L C45L 1_555 1_555
C46L C45L 1_555 1_555
C47L C46L 1_555 1_555
H36L C47L 1_555 1_555
C48L C43L 1_555 1_555
H37L C48L 1_555 1_555
C49L O1L 1_555 1_555
C50L C49L 1_555 1_555
H38L C50L 1_555 1_555
C51L C50L 1_555 1_555
H39L C51L 1_555 1_555
C52L C51L 1_555 1_555
H40L C52L 1_555 1_555
C53L C52L 1_555 1_555
H41L C53L 1_555 1_555
C54L O2L 1_555 1_555
C55L O3L 1_555 1_555
C56L C55L 1_555 1_555
H42L C56L 1_555 1_555
C57L C56L 1_555 1_555
H43L C57L 1_555 1_555
C58L C57L 1_555 1_555
H44L C58L 1_555 1_555
C59L C58L 1_555 1_555
H45L C59L 1_555 1_555
C60L O4L 1_555 1_555
C5 C6 1_555 1_555
C11 C12 1_555 1_555
C17 C18 1_555 1_555
C22 C23 1_555 1_555
C28 C29 1_555 1_555
C36 C37 1_555 1_555
C39 C40 1_555 1_555
C41 C42 1_555 1_555
C47 C48 1_555 1_555
C49 C54 1_555 1_555
C53 C54 1_555 1_555
C55 C60 1_555 1_555
C59 C60 1_555 1_555
C22M C23M 1_555 1_555
C28M C29M 1_555 1_555
C36M C37M 1_555 1_555
C39M C40M 1_555 1_555
C41M C42M 1_555 1_555
C47M C48M 1_555 1_555
C49M C54M 1_555 1_555
C53M C54M 1_555 1_555
C55M C60M 1_555 1_555
C59M C60M 1_555 1_555
C22N C23N 1_555 1_555
C28N C29N 1_555 1_555
C36N C37N 1_555 1_555
C39N C40N 1_555 1_555
C41N C42N 1_555 1_555
C47N C48N 1_555 1_555
C49N C54N 1_555 1_555
C53N C54N 1_555 1_555
C55N C60N 1_555 1_555
C59N C60N 1_555 1_555
C22A C23A 1_555 1_555
C28A C29A 1_555 1_555
C36A C37A 1_555 1_555
C39A C40A 1_555 1_555
C41A C42A 1_555 1_555
C47A C48A 1_555 1_555
C49A C54A 1_555 1_555
C53A C54A 1_555 1_555
C55A C60A 1_555 1_555
C59A C60A 1_555 1_555
C22B C23B 1_555 1_555
C28B C29B 1_555 1_555
C36B C37B 1_555 1_555
C39B C40B 1_555 1_555
C41B C42B 1_555 1_555
C47B C48B 1_555 1_555
C49B C54B 1_555 1_555
C53B C54B 1_555 1_555
C55B C60B 1_555 1_555
C59B C60B 1_555 1_555
C22L C23L 1_555 1_555
C28L C29L 1_555 1_555
C36L C37L 1_555 1_555
C39L C40L 1_555 1_555
C41L C42L 1_555 1_555
C47L C48L 1_555 1_555
C49L C54L 1_555 1_555
C53L C54L 1_555 1_555
C55L C60L 1_555 1_555
C59L C60L 1_555 1_555

#END
