
#######################################################################
#
#                 Cambridge Crystallographic Data Centre
#                                CCDC 
#
#######################################################################
#
# If this CIF has been generated from an entry in the Cambridge 
# Structural Database, then it will include bibliographic, chemical, 
# crystal, experimental, refinement or atomic coordinate data resulting 
# from the CCDC's data processing and validation procedures.
#
#######################################################################

data_OWUPUT
_chemical_formula_moiety         'C16 H14 N8 O2'
_chemical_name_systematic        
N,N'-bis(pyrazin-2-ylmethyl)pyrazine-2,3-dicarboxamide
_symmetry_cell_setting           triclinic
_symmetry_space_group_name_H-M   'P -1'
_symmetry_Int_Tables_number      2
_space_group_name_Hall           '-P 1'
loop_
_symmetry_equiv_pos_site_id
_symmetry_equiv_pos_as_xyz
1 x,y,z
2 -x,-y,-z
_cell_length_a                   9.1166(18)
_cell_length_b                   10.022(2)
_cell_length_c                   10.781(2)
_cell_angle_alpha                116.951(2)
_cell_angle_beta                 97.130(2)
_cell_angle_gamma                102.195(2)
_cell_volume                     830.456
_exptl_crystal_colour            colorless
_exptl_crystal_description       block
_cell_formula_units_Z            2
loop_
_atom_site_label
_atom_site_type_symbol
_atom_site_fract_x
_atom_site_fract_y
_atom_site_fract_z
O1 O 0.44574(13) 0.72355(16) 0.68709(12)
O2 O 0.72074(13) 1.03109(13) 0.82972(12)
N1 N 0.35307(13) 0.81613(15) 0.88449(13)
H1 H 0.3740 0.8582 0.9766
N2 N -0.04468(13) 0.59908(14) 0.66043(13)
N3 N 0.0331(2) 0.3695(2) 0.7075(2)
N4 N 0.59054(16) 0.72344(19) 0.99377(15)
N5 N 0.88003(14) 0.81968(16) 0.94792(13)
N6 N 0.84472(14) 0.86414(16) 0.69834(13)
H2 H 0.8840 0.7905 0.6898
N7 N 0.68896(18) 0.96134(17) 0.43602(15)
N8 N 0.48052(19) 0.6643(2) 0.32238(17)
C1 C 0.46175(16) 0.77287(18) 0.81589(15)
C2 C 0.20077(16) 0.79296(18) 0.80565(17)
H3 H 0.2119 0.8171 0.7291
H4 H 0.1541 0.8659 0.8699
C3 C 0.09378(16) 0.62856(17) 0.74138(15)
C4 C -0.14353(18) 0.45555(19) 0.60466(18)
H5 H -0.2414 0.4312 0.5482
C5 C -0.1042(2) 0.3430(2) 0.6286(2)
H6 H -0.1766 0.2443 0.5879
C6 C 0.1310(2) 0.5138(2) 0.7640(2)
H7 H 0.2285 0.5379 0.8211
C7 C 0.60761(16) 0.78146(17) 0.90534(15)
C8 C 0.7197(2) 0.7138(2) 1.0583(2)
H8 H 0.7136 0.6766 1.1230
C9 C 0.8614(2) 0.7568(2) 1.03266(18)
H9 H 0.9465 0.7416 1.0757
C10 C 0.75270(16) 0.83414(17) 0.88594(14)
C11 C 0.77139(16) 0.91900(18) 0.80107(15)
C12 C 0.86012(18) 0.9254(2) 0.60010(17)
H10 H 0.9436 0.8978 0.5560
H11 H 0.8884 1.0391 0.6544
C13 C 0.71396(17) 0.86430(18) 0.48330(15)
C14 C 0.5594(2) 0.9103(2) 0.33497(19)
H12 H 0.5376 0.9763 0.3013
C15 C 0.4576(2) 0.7646(3) 0.2793(2)
H13 H 0.3686 0.7342 0.2084
C16 C 0.6093(2) 0.7170(2) 0.42593(19)
H14 H 0.6294 0.6515 0.4609
loop_
_geom_bond_atom_site_label_1
_geom_bond_atom_site_label_2
_geom_bond_site_symmetry_1
_geom_bond_site_symmetry_2
O1 C1 1_555 1_555
O2 C11 1_555 1_555
N1 H1 1_555 1_555
N2 C3 1_555 1_555
N3 C5 1_555 1_555
N4 C7 1_555 1_555
N5 C9 1_555 1_555
N6 H2 1_555 1_555
N7 C13 1_555 1_555
N8 C15 1_555 1_555
C1 N1 1_555 1_555
C2 N1 1_555 1_555
H3 C2 1_555 1_555
H4 C2 1_555 1_555
C3 C2 1_555 1_555
C4 N2 1_555 1_555
H5 C4 1_555 1_555
C5 C4 1_555 1_555
H6 C5 1_555 1_555
C6 N3 1_555 1_555
H7 C6 1_555 1_555
C7 C1 1_555 1_555
C8 N4 1_555 1_555
H8 C8 1_555 1_555
C9 C8 1_555 1_555
H9 C9 1_555 1_555
C10 N5 1_555 1_555
C11 N6 1_555 1_555
C12 N6 1_555 1_555
H10 C12 1_555 1_555
H11 C12 1_555 1_555
C13 C12 1_555 1_555
C14 N7 1_555 1_555
H12 C14 1_555 1_555
C15 C14 1_555 1_555
H13 C15 1_555 1_555
C16 N8 1_555 1_555
H14 C16 1_555 1_555
C3 C6 1_555 1_555
C7 C10 1_555 1_555
C10 C11 1_555 1_555
C13 C16 1_555 1_555

#END
