
#######################################################################
#
#                 Cambridge Crystallographic Data Centre
#                                CCDC 
#
#######################################################################
#
# If this CIF has been generated from an entry in the Cambridge 
# Structural Database, then it will include bibliographic, chemical, 
# crystal, experimental, refinement or atomic coordinate data resulting 
# from the CCDC's data processing and validation procedures.
#
#######################################################################

data_OWURIJ
_chemical_formula_moiety         'C11 H10 Br2 N4 O1'
_chemical_name_systematic        
N-((4-bromo-5-(2-bromophenyl)-1H-1,2,3-triazol-1-yl)methyl)-N-methylformamide
_symmetry_cell_setting           monoclinic
_symmetry_space_group_name_H-M   'P 21/n'
_symmetry_Int_Tables_number      14
_space_group_name_Hall           '-P 2yn'
loop_
_symmetry_equiv_pos_site_id
_symmetry_equiv_pos_as_xyz
1 x,y,z
2 1/2-x,1/2+y,1/2-z
3 -x,-y,-z
4 1/2+x,1/2-y,1/2+z
_cell_length_a                   9.9156(16)
_cell_length_b                   12.085(2)
_cell_length_c                   12.040(2)
_cell_angle_alpha                90
_cell_angle_beta                 112.791(3)
_cell_angle_gamma                90
_cell_volume                     1330.11
_exptl_crystal_colour            colorless
_exptl_crystal_description       block
_chemical_melting_point          '384.8 K'
_cell_formula_units_Z            4
_chemical_properties_physical    ', Oxygen-sensitive'
_exptl_crystal_recrystallization_method 'dichloromethane/petroleum ether'
loop_
_atom_site_label
_atom_site_type_symbol
_atom_site_fract_x
_atom_site_fract_y
_atom_site_fract_z
Br1 Br 0.58240(6) 0.29360(4) 0.81578(5)
Br2 Br 0.25351(6) 0.42254(6) 0.54170(6)
N1 N 0.5617(4) 0.6130(3) 0.7441(3)
C1 C 0.2492(5) 0.7521(4) 0.5902(5)
H1 H 0.2301 0.7567 0.6598
C2 C 0.4969(4) 0.5232(3) 0.7680(4)
N2 N 0.7156(4) 0.4817(3) 0.7663(4)
N3 N 0.3895(4) 0.7361(3) 0.6030(3)
C3 C 0.3507(4) 0.5224(3) 0.7740(4)
O1 O 0.1467(4) 0.7609(4) 0.4945(3)
C4 C 0.5972(5) 0.4417(3) 0.7825(4)
N4 N 0.6919(4) 0.5885(3) 0.7432(4)
C5 C 0.5039(5) 0.7264(3) 0.7198(4)
H2 H 0.4668 0.7476 0.7803
H3 H 0.5826 0.7767 0.7257
C6 C 0.3316(5) 0.5667(4) 0.8726(4)
H4 H 0.4104 0.5983 0.9349
C7 C 0.0942(5) 0.4759(4) 0.6865(6)
H5 H 0.0148 0.4455 0.6237
C8 C 0.0767(6) 0.5184(5) 0.7839(7)
H6 H -0.0151 0.5174 0.7879
C9 C 0.1955(6) 0.5639(5) 0.8784(6)
H7 H 0.1828 0.5924 0.9454
C10 C 0.2316(5) 0.4778(3) 0.6805(4)
C11 C 0.4247(7) 0.7290(7) 0.4972(6)
H8 H 0.3458 0.6935 0.4332
H9 H 0.5126 0.6866 0.5158
H10 H 0.4389 0.8020 0.4725
loop_
_geom_bond_atom_site_label_1
_geom_bond_atom_site_label_2
_geom_bond_site_symmetry_1
_geom_bond_site_symmetry_2
Br1 C4 1_555 1_555
Br2 C10 1_555 1_555
N1 C2 1_555 1_555
C1 H1 1_555 1_555
C2 C3 1_555 1_555
N2 C4 1_555 1_555
N3 C1 1_555 1_555
C3 C6 1_555 1_555
O1 C1 1_555 1_555
C4 C2 1_555 1_555
N4 N1 1_555 1_555
C5 N1 1_555 1_555
H2 C5 1_555 1_555
H3 C5 1_555 1_555
C6 H4 1_555 1_555
C7 H5 1_555 1_555
C8 C7 1_555 1_555
H6 C8 1_555 1_555
C9 C6 1_555 1_555
H7 C9 1_555 1_555
C10 C3 1_555 1_555
C11 N3 1_555 1_555
H8 C11 1_555 1_555
H9 C11 1_555 1_555
H10 C11 1_555 1_555
N2 N4 1_555 1_555
N3 C5 1_555 1_555
C7 C10 1_555 1_555
C8 C9 1_555 1_555

#END
