
#######################################################################
#
#                 Cambridge Crystallographic Data Centre
#                                CCDC 
#
#######################################################################
#
# If this CIF has been generated from an entry in the Cambridge 
# Structural Database, then it will include bibliographic, chemical, 
# crystal, experimental, refinement or atomic coordinate data resulting 
# from the CCDC's data processing and validation procedures.
#
#######################################################################

data_OWUXUA
_chemical_formula_moiety         'C26 H22 Cl1 N1 O3'
_chemical_name_systematic        
"(2R,2'R,4'R,5'R)-Methyl 2'-(4-chlorophenyl)-1-oxo-4'-phenyl-1,3-dihydrospiro[indene-2,3'-pyrrolidine]-5'-carboxylate"
_symmetry_cell_setting           monoclinic
_symmetry_space_group_name_H-M   'P 21'
_symmetry_Int_Tables_number      4
_space_group_name_Hall           'P 2yb'
loop_
_symmetry_equiv_pos_site_id
_symmetry_equiv_pos_as_xyz
1 x,y,z
2 -x,1/2+y,-z
_cell_length_a                   6.4026(11)
_cell_length_b                   19.034(3)
_cell_length_c                   9.3835(16)
_cell_angle_alpha                90
_cell_angle_beta                 106.664(2)
_cell_angle_gamma                90
_cell_volume                     1095.51
_exptl_crystal_colour            colorless
_exptl_crystal_description       block
_cell_formula_units_Z            2
loop_
_atom_site_label
_atom_site_type_symbol
_atom_site_fract_x
_atom_site_fract_y
_atom_site_fract_z
C1 C 0.8712(4) 0.41771(13) -0.3373(2)
C2 C 0.6964(4) 0.45326(12) -0.3185(2)
H1 H 0.5597 0.4478 -0.3865
C3 C 0.7235(3) 0.49764(11) -0.1974(2)
H2 H 0.6036 0.5216 -0.1844
C4 C 0.9267(3) 0.50693(10) -0.0952(2)
C5 C 1.1003(3) 0.46980(14) -0.1181(2)
H3 H 1.2381 0.4749 -0.0511
C6 C 1.0732(4) 0.42569(16) -0.2373(3)
H4 H 1.1919 0.4012 -0.2505
C7 C 0.9646(3) 0.55445(10) 0.0382(2)
H5 H 1.1083 0.5760 0.0533
C8 C 0.8499(4) 0.64201(11) 0.1652(2)
H6 H 0.9786 0.6724 0.1844
C9 C 0.8987(3) 0.57947(10) 0.2784(2)
H7 H 0.7598 0.5662 0.2953
C10 C 0.9651(3) 0.51832(10) 0.1914(2)
C11 C 0.6581(4) 0.68453(12) 0.1790(3)
C12 C 0.5494(6) 0.77444(15) 0.3164(4)
H8 H 0.4811 0.8036 0.2326
H9 H 0.6123 0.8035 0.4016
H10 H 0.4424 0.7439 0.3372
C13 C 1.0503(3) 0.60067(10) 0.4273(2)
C14 C 1.2611(4) 0.62301(13) 0.4436(3)
H11 H 1.3174 0.6213 0.3627
C15 C 1.3894(4) 0.64793(14) 0.5787(3)
H12 H 1.5311 0.6628 0.5882
C16 C 1.3084(5) 0.65071(13) 0.6987(3)
H13 H 1.3937 0.6684 0.7891
C17 C 1.1011(6) 0.62735(14) 0.6850(3)
H14 H 1.0456 0.6285 0.7664
C18 C 0.9757(4) 0.60218(11) 0.5506(2)
H15 H 0.8361 0.5857 0.5429
C19 C 0.7894(3) 0.46167(10) 0.1504(2)
C20 C 0.8968(3) 0.39414(10) 0.1480(2)
C21 C 0.8066(4) 0.33069(11) 0.0889(3)
H16 H 0.6565 0.3257 0.0499
C22 C 0.9440(5) 0.27544(12) 0.0893(3)
H17 H 0.8878 0.2326 0.0480
C23 C 1.1664(5) 0.28342(13) 0.1512(3)
H18 H 1.2577 0.2454 0.1517
C24 C 1.2565(4) 0.34637(12) 0.2121(2)
H19 H 1.4062 0.3508 0.2542
C25 C 1.1193(3) 0.40258(10) 0.2092(2)
C26 C 1.1739(3) 0.47675(11) 0.2625(2)
H20 H 1.2946 0.4947 0.2301
H21 H 1.2121 0.4792 0.3702
Cl1 Cl 0.83898(14) 0.36232(6) -0.48973(8)
N1 N 0.8073(3) 0.61151(9) 0.01810(19)
H22 H 0.7114 0.6242 -0.0624
O1 O 0.4737(3) 0.67408(12) 0.1087(2)
O2 O 0.7201(3) 0.73240(9) 0.2829(2)
O3 O 0.5944(2) 0.47341(8) 0.11783(16)
loop_
_geom_bond_atom_site_label_1
_geom_bond_atom_site_label_2
_geom_bond_site_symmetry_1
_geom_bond_site_symmetry_2
C1 C2 1_555 1_555
C2 H1 1_555 1_555
C3 C2 1_555 1_555
H2 C3 1_555 1_555
C4 C3 1_555 1_555
C5 C4 1_555 1_555
H3 C5 1_555 1_555
C6 C1 1_555 1_555
H4 C6 1_555 1_555
C7 C4 1_555 1_555
H5 C7 1_555 1_555
C8 H6 1_555 1_555
C9 C8 1_555 1_555
H7 C9 1_555 1_555
C10 C7 1_555 1_555
C11 C8 1_555 1_555
C12 H8 1_555 1_555
H9 C12 1_555 1_555
H10 C12 1_555 1_555
C13 C9 1_555 1_555
C14 C13 1_555 1_555
H11 C14 1_555 1_555
C15 C14 1_555 1_555
H12 C15 1_555 1_555
C16 C15 1_555 1_555
H13 C16 1_555 1_555
C17 C16 1_555 1_555
H14 C17 1_555 1_555
C18 C13 1_555 1_555
H15 C18 1_555 1_555
C19 C10 1_555 1_555
C20 C19 1_555 1_555
C21 C20 1_555 1_555
H16 C21 1_555 1_555
C22 C21 1_555 1_555
H17 C22 1_555 1_555
C23 C22 1_555 1_555
H18 C23 1_555 1_555
C24 C23 1_555 1_555
H19 C24 1_555 1_555
C25 C20 1_555 1_555
C26 C10 1_555 1_555
H20 C26 1_555 1_555
H21 C26 1_555 1_555
Cl1 C1 1_555 1_555
N1 C7 1_555 1_555
H22 N1 1_555 1_555
O1 C11 1_555 1_555
O2 C11 1_555 1_555
O3 C19 1_555 1_555
C5 C6 1_555 1_555
C8 N1 1_555 1_555
C9 C10 1_555 1_555
C12 O2 1_555 1_555
C17 C18 1_555 1_555
C24 C25 1_555 1_555
C25 C26 1_555 1_555

#END
