
#######################################################################
#
#                 Cambridge Crystallographic Data Centre
#                                CCDC 
#
#######################################################################
#
# If this CIF has been generated from an entry in the Cambridge 
# Structural Database, then it will include bibliographic, chemical, 
# crystal, experimental, refinement or atomic coordinate data resulting 
# from the CCDC's data processing and validation procedures.
#
#######################################################################

data_OWUYAH
_chemical_formula_moiety         'C19 H22 Br1 N4 O8 P1'
_chemical_name_systematic        
'(R)-diethyl 1-(4-bromophenyl)-3-[2-(2,4-dinitrophenyl)hydrazono]-1-hydroxypropylphosphonate'
_symmetry_cell_setting           monoclinic
_symmetry_space_group_name_H-M   'P 21'
_symmetry_Int_Tables_number      4
_space_group_name_Hall           'P 2yb'
loop_
_symmetry_equiv_pos_site_id
_symmetry_equiv_pos_as_xyz
1 x,y,z
2 -x,1/2+y,-z
_cell_length_a                   13.555(16)
_cell_length_b                   5.720(6)
_cell_length_c                   16.90(2)
_cell_angle_alpha                90
_cell_angle_beta                 109.547(16)
_cell_angle_gamma                90
_cell_volume                     1234.82
_exptl_crystal_colour            yellow
_exptl_crystal_description       needle
_cell_formula_units_Z            2
loop_
_atom_site_label
_atom_site_type_symbol
_atom_site_fract_x
_atom_site_fract_y
_atom_site_fract_z
Br1 Br -1.45831(8) -1.0876(2) -1.08931(6)
P1 P -1.0189(2) -0.7253(4) -0.75994(17)
C1 C -1.4215(8) 0.4441(19) -0.5799(5)
C2 C -1.1433(7) -0.5604(18) -0.7917(5)
O1 O -1.5869(5) -0.1174(16) -0.7807(4)
N1 N -1.3859(6) -0.1527(12) -0.7073(5)
H1 H -1.4382 -0.2127 -0.7462
O2 O -1.1285(5) -0.3386(11) -0.8191(4)
H2 H -1.0949 -0.2589 -0.7787
O3 O -1.0243(5) -0.9604(12) -0.7260(4)
O4 O -1.5140(6) 0.7669(11) -0.5630(4)
C3 C -1.4964(8) 0.1598(17) -0.6849(6)
N2 N -1.2868(6) -0.2506(14) -0.6876(5)
C4 C -1.3391(7) -1.0183(15) -0.9175(6)
H3 H -1.3711 -1.1550 -0.9088
N3 N -1.4336(7) 0.6575(15) -0.5369(5)
O5 O -0.9793(6) -0.7228(13) -0.8377(5)
C5 C -1.1793(7) -0.548(2) -0.7118(6)
H4 H -1.1841 -0.7055 -0.6921
H5 H -1.1266 -0.4650 -0.6673
C6 C -1.2495(7) -0.594(2) -0.9433(5)
H6 H -1.2219 -0.4510 -0.9521
C7 C -1.3597(7) -0.9231(17) -0.9979(6)
C8 C -1.3155(8) 0.1340(17) -0.6000(6)
H7 H -1.2507 0.0601 -0.5850
O6 O -1.6743(6) 0.1756(15) -0.7570(5)
C9 C -1.2815(7) -0.4296(16) -0.7291(6)
H8 H -1.3410 -0.4871 -0.7701
C10 C -0.9064(10) -0.914(3) -0.9285(9)
H9 H -0.9107 -1.0508 -0.9626
H10 H -0.8389 -0.9089 -0.8855
H11 H -0.9160 -0.7770 -0.9629
C11 C -1.2687(8) -0.8983(16) -0.8521(6)
H12 H -1.2516 -0.9595 -0.7982
C12 C -1.3260(8) 0.3295(16) -0.5590(6)
H13 H -1.2686 0.3882 -0.5162
O7 O -0.9469(5) -0.5425(14) -0.6995(4)
N4 N -1.5935(7) 0.0653(17) -0.7457(6)
C13 C -1.3992(8) 0.0408(16) -0.6641(6)
O8 O -1.3593(6) 0.7155(13) -0.4758(5)
C14 C -1.3211(8) -0.7190(18) -1.0123(6)
H14 H -1.3403 -0.6588 -1.0665
C15 C -0.8356(9) -0.552(2) -0.6638(9)
H15 H -0.8083 -0.6658 -0.6936
H16 H -0.8155 -0.5988 -0.6054
C16 C -1.2221(7) -0.6894(15) -0.8630(5)
C17 C -0.9889(11) -0.925(2) -0.8893(9)
H17 H -1.0574 -0.9279 -0.9324
H18 H -0.9809 -1.0652 -0.8557
C18 C -1.5067(8) 0.3599(15) -0.6428(6)
H19 H -1.5708 0.4366 -0.6570
C19 C -0.792(3) -0.320(6) -0.670(2)
H20 H -0.7842 -0.2325 -0.6196
H21 H -0.8380 -0.2375 -0.7174
H22 H -0.7245 -0.3374 -0.6765
C20? C -0.800(3) -0.363(6) -0.706(2)
H23? H -0.8003 -0.4151 -0.7597
H24? H -0.7297 -0.3191 -0.6722
H25? H -0.8453 -0.2306 -0.7122
loop_
_geom_bond_atom_site_label_1
_geom_bond_atom_site_label_2
_geom_bond_site_symmetry_1
_geom_bond_site_symmetry_2
Br1 C7 1_555 1_555
P1 C2 1_555 1_555
C1 N3 1_555 1_555
C2 O2 1_555 1_555
O1 N4 1_555 1_555
N1 H1 1_555 1_555
O2 H2 1_555 1_555
O3 P1 1_555 1_555
O4 N3 1_555 1_555
C3 N4 1_555 1_555
N2 N1 1_555 1_555
C4 H3 1_555 1_555
N3 O8 1_555 1_555
O5 P1 1_555 1_555
C5 C2 1_555 1_555
H4 C5 1_555 1_555
H5 C5 1_555 1_555
C6 H6 1_555 1_555
C7 C4 1_555 1_555
C8 H7 1_555 1_555
O6 N4 1_555 1_555
C9 N2 1_555 1_555
H8 C9 1_555 1_555
C10 H9 1_555 1_555
H10 C10 1_555 1_555
H11 C10 1_555 1_555
C11 C4 1_555 1_555
H12 C11 1_555 1_555
C12 C1 1_555 1_555
H13 C12 1_555 1_555
O7 P1 1_555 1_555
C13 N1 1_555 1_555
C14 C6 1_555 1_555
H14 C14 1_555 1_555
C15 O7 1_555 1_555
H15 C15 1_555 1_555
H16 C15 1_555 1_555
C16 C2 1_555 1_555
C17 O5 1_555 1_555
H17 C17 1_555 1_555
H18 C17 1_555 1_555
C18 C1 1_555 1_555
H19 C18 1_555 1_555
C19 C15 1_555 1_555
H20 C19 1_555 1_555
H21 C19 1_555 1_555
H22 C19 1_555 1_555
C3 C13 1_555 1_555
C3 C18 1_555 1_555
C5 C9 1_555 1_555
C6 C16 1_555 1_555
C7 C14 1_555 1_555
C8 C12 1_555 1_555
C8 C13 1_555 1_555
C10 C17 1_555 1_555
C11 C16 1_555 1_555

#END
