
#######################################################################
#
#                 Cambridge Crystallographic Data Centre
#                                CCDC 
#
#######################################################################
#
# If this CIF has been generated from an entry in the Cambridge 
# Structural Database, then it will include bibliographic, chemical, 
# crystal, experimental, refinement or atomic coordinate data resulting 
# from the CCDC's data processing and validation procedures.
#
#######################################################################

data_OXACDH23
_chemical_formula_moiety         'C2 H2 O4,2(H2 O1)'
_chemical_name_systematic        'Oxalic acid dihydrate'
_symmetry_cell_setting           monoclinic
_symmetry_space_group_name_H-M   'P 21/n'
_symmetry_Int_Tables_number      14
_space_group_name_Hall           '-P 2yn'
loop_
_symmetry_equiv_pos_site_id
_symmetry_equiv_pos_as_xyz
1 x,y,z
2 1/2-x,1/2+y,1/2-z
3 -x,-y,-z
4 1/2+x,1/2-y,1/2+z
_cell_length_a                   6.109(1)
_cell_length_b                   3.5595(4)
_cell_length_c                   12.008(2)
_cell_angle_alpha                90
_cell_angle_beta                 106.02(2)
_cell_angle_gamma                90
_cell_volume                     250.974
_cell_formula_units_Z            2
loop_
_atom_site_label
_atom_site_type_symbol
_atom_site_fract_x
_atom_site_fract_y
_atom_site_fract_z
C1 C -0.0452(1) 0.0569(4) 0.0515(1)
O1 O 0.0853(2) -0.0573(5) 0.1493(1)
O2 O -0.2209(2) 0.2362(4) 0.0361(1)
H1 H 0.027(2) 0.004(4) 0.213(1)
C1B C 0.0452(1) -0.0569(4) -0.0515(1)
O1B O -0.0853(2) 0.0573(5) -0.1493(1)
O2B O 0.2209(2) -0.2362(4) -0.0361(1)
H1B H -0.027(2) -0.004(4) -0.213(1)
O3 O -0.4512(1) -0.3775(4) 0.1793(1)
H2 H -0.559(2) -0.319(3) 0.121(1)
H3 H -0.372(2) -0.539(4) 0.155(1)
loop_
_geom_bond_atom_site_label_1
_geom_bond_atom_site_label_2
_geom_bond_site_symmetry_1
_geom_bond_site_symmetry_2
C1 O1 1_555 1_555
O1 H1 1_555 1_555
O2 C1 1_555 1_555
O3 H2 1_555 1_555
H3 O3 1_555 1_555
C1B C1 1_555 1_555
O1B C1B 1_555 1_555
O2B C1B 1_555 1_555
H1B O1B 1_555 1_555

#END
