
#######################################################################
#
#                 Cambridge Crystallographic Data Centre
#                                CCDC 
#
#######################################################################
#
# If this CIF has been generated from an entry in the Cambridge 
# Structural Database, then it will include bibliographic, chemical, 
# crystal, experimental, refinement or atomic coordinate data resulting 
# from the CCDC's data processing and validation procedures.
#
#######################################################################

data_OXAFEA02
_chemical_formula_moiety         'C15 H15 N1 O1 S1 1+,B1 F4 1-'
_chemical_name_systematic        
'(10-(2-methoxyethyl)-10H-phenothiazin-5-ium radical cation) tetrafluoroborate'
_symmetry_cell_setting           monoclinic
_symmetry_space_group_name_H-M   'P 21/c'
_symmetry_Int_Tables_number      14
_space_group_name_Hall           '-P 2ybc'
loop_
_symmetry_equiv_pos_site_id
_symmetry_equiv_pos_as_xyz
1 x,y,z
2 -x,1/2+y,1/2-z
3 -x,-y,-z
4 x,1/2-y,1/2+z
_cell_length_a                   6.8493(2)
_cell_length_b                   10.8341(3)
_cell_length_c                   19.2816(4)
_cell_angle_alpha                90
_cell_angle_beta                 90.004(2)
_cell_angle_gamma                90
_cell_volume                     1430.81
_exptl_crystal_colour            green
_exptl_crystal_description       rod
_cell_formula_units_Z            4
loop_
_atom_site_label
_atom_site_type_symbol
_atom_site_fract_x
_atom_site_fract_y
_atom_site_fract_z
N1 N 0.7718(4) 0.6327(2) 0.44375(13)
S1 S 0.72159(12) 0.49343(7) 0.58462(4)
O1 O 0.4924(3) 0.7782(2) 0.36314(12)
C1 C 0.7788(5) 0.5044(3) 0.44216(17)
C2 C 0.8160(5) 0.4399(3) 0.38000(17)
H1 H 0.828(6) 0.480(4) 0.337(2)
C3 C 0.8328(5) 0.3137(3) 0.37868(17)
H2 H 0.8600 0.2732 0.3361
C4 C 0.8103(4) 0.2439(3) 0.43924(17)
H3 H 0.8228 0.1566 0.4379
C5 C 0.7698(5) 0.3031(3) 0.50050(17)
H4 H 0.7508 0.2561 0.5415
C6 C 0.7563(4) 0.4323(3) 0.50319(16)
C7 C 0.7057(4) 0.6496(3) 0.56863(15)
C8 C 0.6685(5) 0.7223(3) 0.62711(16)
H5 H 0.6566 0.6842 0.6713
C9 C 0.6490(5) 0.8474(3) 0.62144(18)
H6 H 0.6242 0.8964 0.6613
C10 C 0.6662(5) 0.9025(3) 0.55597(18)
H7 H 0.6505 0.9893 0.5516
C11 C 0.7055(5) 0.8329(3) 0.49780(17)
H8 H 0.712(5) 0.879(3) 0.454(2)
C12 C 0.7274(4) 0.7033(3) 0.50263(15)
C13 C 0.8146(5) 0.6979(3) 0.37761(16)
H9 H 0.914(6) 0.654(4) 0.356(2)
H10 H 0.857(5) 0.780(4) 0.389(2)
C14 C 0.6399(5) 0.7074(3) 0.33013(16)
H11 H 0.6784 0.7473 0.2860
H12 H 0.5896 0.6239 0.3195
C15 C 0.3409(5) 0.8110(3) 0.31649(18)
H13 H 0.2415 0.8590 0.3412
H14 H 0.2815 0.7360 0.2975
H15 H 0.3950 0.8606 0.2786
B1 B -0.1246(6) 0.9999(4) 0.2847(2)
F1 F -0.0553(3) 0.89005(18) 0.25697(11)
F2 F -0.0063(3) 1.09651(19) 0.26225(11)
F3 F -0.1212(4) 0.99273(19) 0.35632(11)
F4 F -0.3149(3) 1.0171(2) 0.26102(14)
loop_
_geom_bond_atom_site_label_1
_geom_bond_atom_site_label_2
_geom_bond_site_symmetry_1
_geom_bond_site_symmetry_2
N1 C1 1_555 1_555
S1 C6 1_555 1_555
O1 C14 1_555 1_555
C1 C2 1_555 1_555
C2 H1 1_555 1_555
C3 C2 1_555 1_555
H2 C3 1_555 1_555
C4 C3 1_555 1_555
H3 C4 1_555 1_555
C5 C4 1_555 1_555
H4 C5 1_555 1_555
C6 C1 1_555 1_555
C7 S1 1_555 1_555
C8 C7 1_555 1_555
H5 C8 1_555 1_555
C9 C8 1_555 1_555
H6 C9 1_555 1_555
C10 C9 1_555 1_555
H7 C10 1_555 1_555
C11 C10 1_555 1_555
H8 C11 1_555 1_555
C12 N1 1_555 1_555
C13 N1 1_555 1_555
H9 C13 1_555 1_555
H10 C13 1_555 1_555
C14 C13 1_555 1_555
H11 C14 1_555 1_555
H12 C14 1_555 1_555
C15 O1 1_555 1_555
H13 C15 1_555 1_555
H14 C15 1_555 1_555
H15 C15 1_555 1_555
B1 F1 1_555 1_555
F2 B1 1_555 1_555
F3 B1 1_555 1_555
F4 B1 1_555 1_555
C5 C6 1_555 1_555
C7 C12 1_555 1_555
C11 C12 1_555 1_555

#END
