
#######################################################################
#
#                 Cambridge Crystallographic Data Centre
#                                CCDC 
#
#######################################################################
#
# If this CIF has been generated from an entry in the Cambridge 
# Structural Database, then it will include bibliographic, chemical, 
# crystal, experimental, refinement or atomic coordinate data resulting 
# from the CCDC's data processing and validation procedures.
#
#######################################################################

data_OXAFIE02
_chemical_formula_moiety         'C15 H15 N1 O1 S1'
_chemical_name_systematic        10-(2-methoxyethyl)-10H-phenothiazine
_symmetry_cell_setting           monoclinic
_symmetry_space_group_name_H-M   'P 21/n'
_symmetry_Int_Tables_number      14
_space_group_name_Hall           '-P 2yn'
loop_
_symmetry_equiv_pos_site_id
_symmetry_equiv_pos_as_xyz
1 x,y,z
2 1/2-x,1/2+y,1/2-z
3 -x,-y,-z
4 1/2+x,1/2-y,1/2+z
_cell_length_a                   8.7624(18)
_cell_length_b                   7.6786(15)
_cell_length_c                   19.134(4)
_cell_angle_alpha                90
_cell_angle_beta                 99.37(3)
_cell_angle_gamma                90
_cell_volume                     1270.22
_exptl_crystal_colour            colorless
_exptl_crystal_description       block
_cell_formula_units_Z            4
loop_
_atom_site_label
_atom_site_type_symbol
_atom_site_fract_x
_atom_site_fract_y
_atom_site_fract_z
N1 N 0.50347(15) 0.24757(18) 0.34807(7)
S1 S 0.63842(5) 0.50085(5) 0.25760(2)
O1 O 0.33424(14) 0.18754(16) 0.50764(6)
C1 C 0.43983(17) 0.2368(2) 0.27544(8)
C2 C 0.32077(18) 0.1224(2) 0.24958(8)
H1 H 0.2851 0.0414 0.2808
C3 C 0.25371(19) 0.1251(2) 0.17887(8)
H2 H 0.1689 0.0504 0.1626
C4 C 0.30885(19) 0.2352(2) 0.13192(8)
H3 H 0.2630 0.2363 0.0834
C5 C 0.43141(19) 0.3439(2) 0.15621(8)
H4 H 0.4725 0.4173 0.1239
C6 C 0.49507(18) 0.3470(2) 0.22735(8)
C7 C 0.74223(18) 0.3791(2) 0.32733(8)
C8 C 0.90000(18) 0.4029(2) 0.34457(9)
H5 H 0.9522 0.4750 0.3158
C9 C 0.98220(19) 0.3227(2) 0.40327(9)
H6 H 1.0900 0.3432 0.4162
C10 C 0.90668(19) 0.2126(2) 0.44294(9)
H7 H 0.9629 0.1569 0.4835
C11 C 0.74984(19) 0.1822(2) 0.42444(8)
H8 H 0.6998 0.1024 0.4512
C12 C 0.66483(18) 0.2678(2) 0.36677(8)
C13 C 0.42009(18) 0.1653(2) 0.39888(8)
H9 H 0.4687 0.0518 0.4135
H10 H 0.3120 0.1431 0.3762
C14 C 0.42032(19) 0.2781(2) 0.46348(8)
H11 H 0.5274 0.2975 0.4880
H12 H 0.3723 0.3924 0.4499
C15 C 0.3113(2) 0.2885(3) 0.56655(9)
H13 H 0.2525 0.2209 0.5965
H14 H 0.2538 0.3942 0.5502
H15 H 0.4118 0.3206 0.5939
loop_
_geom_bond_atom_site_label_1
_geom_bond_atom_site_label_2
_geom_bond_site_symmetry_1
_geom_bond_site_symmetry_2
N1 C1 1_555 1_555
S1 C6 1_555 1_555
O1 C14 1_555 1_555
C1 C2 1_555 1_555
C2 H1 1_555 1_555
C3 C2 1_555 1_555
H2 C3 1_555 1_555
C4 C3 1_555 1_555
H3 C4 1_555 1_555
C5 C4 1_555 1_555
H4 C5 1_555 1_555
C6 C1 1_555 1_555
C7 S1 1_555 1_555
C8 C7 1_555 1_555
H5 C8 1_555 1_555
C9 C8 1_555 1_555
H6 C9 1_555 1_555
C10 C9 1_555 1_555
H7 C10 1_555 1_555
C11 C10 1_555 1_555
H8 C11 1_555 1_555
C12 N1 1_555 1_555
C13 N1 1_555 1_555
H9 C13 1_555 1_555
H10 C13 1_555 1_555
C14 C13 1_555 1_555
H11 C14 1_555 1_555
H12 C14 1_555 1_555
C15 O1 1_555 1_555
H13 C15 1_555 1_555
H14 C15 1_555 1_555
H15 C15 1_555 1_555
C5 C6 1_555 1_555
C7 C12 1_555 1_555
C11 C12 1_555 1_555

#END
