
#######################################################################
#
#                 Cambridge Crystallographic Data Centre
#                                CCDC 
#
#######################################################################
#
# If this CIF has been generated from an entry in the Cambridge 
# Structural Database, then it will include bibliographic, chemical, 
# crystal, experimental, refinement or atomic coordinate data resulting 
# from the CCDC's data processing and validation procedures.
#
#######################################################################

data_OXAFAW02
_chemical_formula_moiety         'C14 H13 N1 S1 1+,B1 F4 1-'
_chemical_name_systematic        
'(10-ethyl-10H-phenothiazin-5-ium radical cation) tetrafluoroborate'
_symmetry_cell_setting           monoclinic
_symmetry_space_group_name_H-M   'P 21/n'
_symmetry_Int_Tables_number      14
_space_group_name_Hall           '-P 2yn'
loop_
_symmetry_equiv_pos_site_id
_symmetry_equiv_pos_as_xyz
1 x,y,z
2 1/2-x,1/2+y,1/2-z
3 -x,-y,-z
4 1/2+x,1/2-y,1/2+z
_cell_length_a                   7.1696(1)
_cell_length_b                   17.3429(4)
_cell_length_c                   11.1994(2)
_cell_angle_alpha                90
_cell_angle_beta                 106.232(1)
_cell_angle_gamma                90
_cell_volume                     1337.04
_exptl_crystal_colour            green
_exptl_crystal_description       'triangular prism- rod'
_cell_formula_units_Z            4
loop_
_atom_site_label
_atom_site_type_symbol
_atom_site_fract_x
_atom_site_fract_y
_atom_site_fract_z
S1 S 0.28663(9) 0.58749(4) 0.48642(6)
N1 N 0.3497(3) 0.42389(13) 0.6093(2)
C1 C 0.4201(4) 0.48713(16) 0.6848(3)
C2 C 0.5198(4) 0.47726(18) 0.8120(3)
H1 H 0.5311 0.4271 0.8474
C3 C 0.6004(4) 0.53894(18) 0.8851(3)
H2 H 0.6670 0.5305 0.9701
C4 C 0.5867(4) 0.61389(18) 0.8372(3)
H3 H 0.6451 0.6559 0.8886
C5 C 0.4874(4) 0.62577(17) 0.7143(3)
H4 H 0.4749 0.6765 0.6811
C6 C 0.4047(4) 0.56378(16) 0.6380(3)
C7 C 0.1953(4) 0.50022(16) 0.4234(3)
C8 C 0.0842(4) 0.50355(17) 0.2982(3)
H5 H 0.0630 0.5517 0.2562
C9 C 0.0061(4) 0.4374(2) 0.2363(3)
H6 H -0.0665 0.4393 0.1512
C10 C 0.0350(4) 0.36770(17) 0.3002(3)
H7 H -0.0207 0.3221 0.2579
C11 C 0.1419(4) 0.36274(16) 0.4229(3)
H8 H 0.1572 0.3143 0.4641
C12 C 0.2293(4) 0.42935(17) 0.4880(3)
C13 C 0.3855(4) 0.34577(17) 0.6667(3)
H9 H 0.5142 0.3450 0.7290
H10 H 0.3874 0.3074 0.6016
C14 C 0.2296(5) 0.32354(19) 0.7293(3)
H11 H 0.2248 0.3623 0.7920
H12 H 0.2608 0.2731 0.7693
H13 H 0.1031 0.3209 0.6667
B1 B 0.0895(5) 0.67503(19) 0.0683(3)
F1 F 0.0045(3) 0.60236(10) 0.05317(16)
F2 F 0.1652(2) 0.69055(11) 0.19453(16)
F3 F -0.0495(2) 0.73054(10) 0.01432(16)
F4 F 0.2394(3) 0.67722(11) 0.01078(18)
loop_
_geom_bond_atom_site_label_1
_geom_bond_atom_site_label_2
_geom_bond_site_symmetry_1
_geom_bond_site_symmetry_2
S1 C6 1_555 1_555
N1 C1 1_555 1_555
C1 C2 1_555 1_555
C2 H1 1_555 1_555
C3 C2 1_555 1_555
H2 C3 1_555 1_555
C4 C3 1_555 1_555
H3 C4 1_555 1_555
C5 C4 1_555 1_555
H4 C5 1_555 1_555
C6 C1 1_555 1_555
C7 S1 1_555 1_555
C8 C7 1_555 1_555
H5 C8 1_555 1_555
C9 C8 1_555 1_555
H6 C9 1_555 1_555
C10 C9 1_555 1_555
H7 C10 1_555 1_555
C11 C10 1_555 1_555
H8 C11 1_555 1_555
C12 N1 1_555 1_555
C13 N1 1_555 1_555
H9 C13 1_555 1_555
H10 C13 1_555 1_555
C14 C13 1_555 1_555
H11 C14 1_555 1_555
H12 C14 1_555 1_555
H13 C14 1_555 1_555
B1 F1 1_555 1_555
F2 B1 1_555 1_555
F3 B1 1_555 1_555
F4 B1 1_555 1_555
C5 C6 1_555 1_555
C7 C12 1_555 1_555
C11 C12 1_555 1_555

#END
