
#######################################################################
#
#                 Cambridge Crystallographic Data Centre
#                                CCDC 
#
#######################################################################
#
# If this CIF has been generated from an entry in the Cambridge 
# Structural Database, then it will include bibliographic, chemical, 
# crystal, experimental, refinement or atomic coordinate data resulting 
# from the CCDC's data processing and validation procedures.
#
#######################################################################

data_OXAGEB
_chemical_formula_moiety         'C67 H65 N13 O13,1.333(C1 H1 Cl3)'
_chemical_name_systematic        
'4-isobutoxy-N-(4-isobutoxy-2-(5-(4-isobutoxy-6-(5-(4-isobutoxy-8-(((4-isobutoxy-8-nitroquinolin-2-yl)carbonyl)amino)quinolin-2-yl)-1,3,4-oxadiazol-2-yl)pyridin-2-yl)-1,3,4-oxadiazol-2-yl)quinolin-8-yl)-8-nitroquinoline-2-carboxamide chloroform solvate'
_symmetry_cell_setting           monoclinic
_symmetry_space_group_name_H-M   'C 2/c'
_symmetry_Int_Tables_number      15
_space_group_name_Hall           '-C 2yn'
loop_
_symmetry_equiv_pos_site_id
_symmetry_equiv_pos_as_xyz
1 x,y,z
2 -x,y,1/2-z
3 1/2+x,1/2+y,z
4 1/2-x,1/2+y,1/2-z
5 -x,-y,-z
6 x,-y,1/2+z
7 1/2-x,1/2-y,-z
8 1/2+x,1/2-y,1/2+z
_cell_length_a                   50.666(10)
_cell_length_b                   18.311(4)
_cell_length_c                   26.972(5)
_cell_angle_alpha                90
_cell_angle_beta                 122.15(3)
_cell_angle_gamma                90
_cell_volume                     21186
_exptl_crystal_colour            colorless
_exptl_crystal_description       block
_cell_formula_units_Z            12
loop_
_atom_site_label
_atom_site_type_symbol
_atom_site_fract_x
_atom_site_fract_y
_atom_site_fract_z
C68 C 0.93053(7) 0.06772(16) 0.65997(13)
C69 C 0.92694(8) 0.14269(16) 0.66946(14)
C70 C 0.91400(8) 0.19189(17) 0.62492(16)
H66 H 0.9121 0.2404 0.6326
C71 C 0.90367(9) 0.17048(18) 0.56818(16)
H67 H 0.8962 0.2052 0.5385
C72 C 0.90444(8) 0.09879(18) 0.55564(14)
H68 H 0.8964 0.0844 0.5171
C73 C 0.91740(7) 0.04636(16) 0.60069(13)
C74 C 0.91754(8) -0.02922(17) 0.58921(13)
C75 C 0.93111(7) -0.07745(16) 0.63478(12)
H69 H 0.9305 -0.1275 0.6284
C76 C 0.94580(7) -0.04897(16) 0.69094(13)
C77 C 0.90004(9) -0.12306(18) 0.51674(14)
H70 H 0.8869 -0.1466 0.5281
H71 H 0.9202 -0.1471 0.5369
C78 C 0.88556(11) -0.1286(2) 0.45258(16)
H72 H 0.8991 -0.1030 0.4426
C79 C 0.85401(11) -0.0919(3) 0.41980(18)
H73 H 0.8401 -0.1166 0.4282
H74 H 0.8458 -0.0940 0.3785
H75 H 0.8561 -0.0418 0.4319
C80 C 0.88418(14) -0.2082(2) 0.4357(2)
H76 H 0.9049 -0.2282 0.4559
H77 H 0.8752 -0.2118 0.3942
H78 H 0.8716 -0.2350 0.4463
C81 C 0.96261(8) -0.10161(16) 0.74186(13)
C82 C 0.99517(8) -0.09828(17) 0.85009(13)
C83 C 0.99624(9) -0.17099(19) 0.86319(16)
H79 H 0.9879 -0.2057 0.8335
C84 C 1.00994(10) -0.1925(2) 0.92168(17)
H80 H 1.0105 -0.2419 0.9301
C85 C 1.02230(9) -0.1443(2) 0.96618(16)
H81 H 1.0309 -0.1608 1.0044
C86 C 1.02229(8) -0.06981(19) 0.95524(13)
C87 C 1.03536(8) -0.0147(2) 0.99830(13)
C88 C 1.03504(8) 0.05658(18) 0.98296(12)
H82 H 1.0436 0.0933 1.0111
C89 C 1.02131(7) 0.07245(17) 0.92299(12)
C90 C 1.00902(7) -0.04601(17) 0.89632(12)
C91 C 1.06324(9) 0.0139(2) 1.10062(13)
H83 H 1.0488 0.0524 1.0952
H84 H 1.0806 0.0356 1.1002
C92 C 1.07496(9) -0.0239(2) 1.15857(14)
H85 H 1.0570 -0.0450 1.1577
C93 C 1.09739(11) -0.0853(3) 1.16881(16)
H86 H 1.0869 -0.1212 1.1385
H87 H 1.1046 -0.1075 1.2061
H88 H 1.1149 -0.0661 1.1683
C94 C 1.08942(11) 0.0319(3) 1.20675(16)
H89 H 1.1071 0.0535 1.2084
H90 H 1.0960 0.0086 1.2435
H91 H 1.0744 0.0691 1.1993
C95 C 1.02100(7) 0.14855(16) 0.90536(12)
C96 C 1.01549(7) 0.23709(15) 0.85066(12)
C97 C 1.00793(7) 0.27776(15) 0.79777(12)
C98 C 1.00870(9) 0.35293(16) 0.80036(14)
H92 H 1.0149 0.3772 0.8352
C99 C 1.0000 0.3912(2) 0.7500
C100 C 1.00640(19) 0.5117(3) 0.7820(3)
H93 H 1.0258 0.5005 0.8182
H94 H 0.9903 0.5170 0.7910
C101 C 1.0102(2) 0.5884(3) 0.7563(5)
C102 C 1.01217(19) 0.6310(4) 0.8052(3)
H95 H 0.9921 0.6504 0.7940
H96 H 1.0268 0.6703 0.8161
H97 H 1.0192 0.5986 0.8379
N14 N 0.93485(7) 0.16933(16) 0.72695(13)
N15 N 0.94553(6) 0.01949(13) 0.70458(10)
N16 N 0.98055(6) -0.06839(13) 0.79374(10)
H98 H 0.9835 -0.0224 0.7922
N17 N 1.00838(6) 0.02467(13) 0.88072(10)
N18 N 1.02832(7) 0.20598(14) 0.93729(11)
N19 N 1.02479(7) 0.26477(14) 0.90119(11)
N20 N 1.0000 0.23846(17) 0.7500
O14 O 0.93698(8) 0.23486(15) 0.73541(13)
O15 O 0.93983(11) 0.12873(17) 0.76415(15)
O16 O 0.90374(6) -0.04657(11) 0.53239(9)
O17 O 0.95955(6) -0.16701(12) 0.73482(10)
O18 O 1.04787(6) -0.03842(14) 1.05414(9)
O19 O 1.01279(5) 0.16357(10) 0.84976(7)
O20 O 1.0000 0.4643(2) 0.7500
C68A C 1.06947(7) 0.06772(16) 0.84003(13)
C69A C 1.07306(8) 0.14269(16) 0.83054(14)
C70A C 1.08600(8) 0.19189(17) 0.87508(16)
H66A H 1.0879 0.2404 0.8674
C71A C 1.09633(9) 0.17048(18) 0.93182(16)
H67A H 1.1038 0.2052 0.9615
C72A C 1.09556(8) 0.09879(18) 0.94436(14)
H68A H 1.1036 0.0844 0.9829
C73A C 1.08260(7) 0.04636(16) 0.89931(13)
C74A C 1.08246(8) -0.02922(17) 0.91079(13)
C75A C 1.06889(7) -0.07745(16) 0.86522(12)
H69A H 1.0695 -0.1275 0.8716
C76A C 1.05420(7) -0.04897(16) 0.80906(13)
C77A C 1.09996(9) -0.12306(18) 0.98326(14)
H70A H 1.1131 -0.1466 0.9719
H71A H 1.0798 -0.1471 0.9631
C78A C 1.11444(11) -0.1286(2) 1.04742(16)
H72A H 1.1009 -0.1030 1.0574
C79A C 1.14599(11) -0.0919(3) 1.08020(18)
H73A H 1.1599 -0.1166 1.0718
H74A H 1.1542 -0.0940 1.1215
H75A H 1.1439 -0.0418 1.0681
C80A C 1.11582(14) -0.2082(2) 1.0643(2)
H76A H 1.0951 -0.2282 1.0441
H77A H 1.1248 -0.2118 1.1058
H78A H 1.1284 -0.2350 1.0537
C81A C 1.03739(8) -0.10161(16) 0.75814(13)
C82A C 1.00483(8) -0.09828(17) 0.64991(13)
C83A C 1.00376(9) -0.17099(19) 0.63681(16)
H79A H 1.0121 -0.2057 0.6665
C84A C 0.99006(10) -0.1925(2) 0.57832(17)
H80A H 0.9895 -0.2419 0.5699
C85A C 0.97770(9) -0.1443(2) 0.53382(16)
H81A H 0.9691 -0.1608 0.4956
C86A C 0.97771(8) -0.06981(19) 0.54476(13)
C87A C 0.96464(8) -0.0147(2) 0.50170(13)
C88A C 0.96496(8) 0.05658(18) 0.51704(12)
H82A H 0.9564 0.0933 0.4889
C89A C 0.97869(7) 0.07245(17) 0.57701(12)
C90A C 0.99098(7) -0.04601(17) 0.60368(12)
C91A C 0.93676(9) 0.0139(2) 0.39938(13)
H83A H 0.9512 0.0524 0.4048
H84A H 0.9194 0.0356 0.3998
C92A C 0.92504(9) -0.0239(2) 0.34143(14)
H85A H 0.9430 -0.0450 0.3423
C93A C 0.90261(11) -0.0853(3) 0.33119(16)
H86A H 0.9131 -0.1212 0.3615
H87A H 0.8954 -0.1075 0.2939
H88A H 0.8851 -0.0661 0.3317
C94A C 0.91058(11) 0.0319(3) 0.29325(16)
H89A H 0.8929 0.0535 0.2916
H90A H 0.9040 0.0086 0.2565
H91A H 0.9256 0.0691 0.3007
C95A C 0.97900(7) 0.14855(16) 0.59464(12)
C96A C 0.98451(7) 0.23709(15) 0.64934(12)
C97A C 0.99207(7) 0.27776(15) 0.70223(12)
C98A C 0.99130(9) 0.35293(16) 0.69964(14)
H92A H 0.9851 0.3772 0.6648
C100A C 0.99360(19) 0.5117(3) 0.7180(3)
H93A H 0.9742 0.5005 0.6818
H94A H 1.0097 0.5170 0.7090
C101A C 0.9898(2) 0.5884(3) 0.7437(5)
C102A C 0.98783(19) 0.6310(4) 0.6948(3)
H95A H 1.0079 0.6504 0.7060
H96A H 0.9732 0.6703 0.6839
H97A H 0.9808 0.5986 0.6621
N14A N 1.06515(7) 0.16933(16) 0.77305(13)
N15A N 1.05447(6) 0.01949(13) 0.79542(10)
N16A N 1.01945(6) -0.06839(13) 0.70626(10)
H98A H 1.0165 -0.0224 0.7078
N17A N 0.99162(6) 0.02467(13) 0.61928(10)
N18A N 0.97168(7) 0.20598(14) 0.56271(11)
N19A N 0.97521(7) 0.26477(14) 0.59881(11)
O14A O 1.06302(8) 0.23486(15) 0.76459(13)
O15A O 1.06017(11) 0.12873(17) 0.73585(15)
O16A O 1.09626(6) -0.04657(11) 0.96761(9)
O17A O 1.04045(6) -0.16701(12) 0.76518(10)
O18A O 0.95213(6) -0.03842(14) 0.44586(9)
O19A O 0.98721(5) 0.16357(10) 0.65024(7)
C103 C 0.16813(11) 0.1361(2) 0.19315(19)
H99 H 0.1538 0.1669 0.1978
Cl1 Cl 0.17245(4) 0.05528(8) 0.22891(7)
Cl2 Cl 0.15150(6) 0.12060(9) 0.11894(7)
Cl3 Cl 0.20239(4) 0.18096(9) 0.22296(8)
C104 C 0.06285(12) 0.2670(2) 0.06386(17)
H100 H 0.0475 0.2428 0.0272
Cl4 Cl 0.09483(4) 0.29130(8) 0.05920(6)
Cl5 Cl 0.07437(4) 0.20513(7) 0.12095(6)
Cl6 Cl 0.04537(3) 0.34367(7) 0.07247(5)
C1 C 0.24008(9) 0.5988(2) 1.00357(18)
C2 C 0.25415(10) 0.6434(3) 1.0503(2)
H1 H 0.2578 0.6920 1.0457
C3 C 0.26319(11) 0.6176(3) 1.1049(2)
H2 H 0.2724 0.6492 1.1368
C4 C 0.25887(10) 0.5472(3) 1.11270(18)
H3 H 0.2656 0.5301 1.1501
C5 C 0.24414(9) 0.4994(3) 1.06462(16)
C6 C 0.23342(8) 0.5240(2) 1.00816(15)
C7 C 0.24016(9) 0.4234(3) 1.07042(16)
C8 C 0.22552(9) 0.3805(2) 1.02183(15)
H4 H 0.2233 0.3305 1.0247
C9 C 0.21397(8) 0.4135(2) 0.96783(14)
C10 C 0.25327(11) 0.3257(3) 1.13829(17)
H5 H 0.2664 0.3006 1.1276
H6 H 0.2326 0.3041 1.1168
C11 C 0.26731(14) 0.3205(4) 1.2048(2)
H7 H 0.2531 0.3456 1.2135
C12 C 0.29825(15) 0.3574(3) 1.2386(2)
H8 H 0.3071 0.3499 1.2797
H9 H 0.2957 0.4087 1.2302
H10 H 0.3119 0.3372 1.2276
C13 C 0.26792(16) 0.2420(4) 1.2191(3)
H11 H 0.2813 0.2160 1.2101
H12 H 0.2472 0.2223 1.1964
H13 H 0.2756 0.2369 1.2600
C14 C 0.19622(9) 0.36822(19) 0.91259(15)
C15 C 0.16473(8) 0.38531(16) 0.80542(14)
C16 C 0.16001(9) 0.31332(18) 0.78759(16)
H14 H 0.1663 0.2761 0.8151
C17 C 0.14585(10) 0.2965(2) 0.72864(17)
H15 H 0.1428 0.2477 0.7174
C18 C 0.13636(9) 0.34845(18) 0.68705(16)
H16 H 0.1276 0.3352 0.6481
C19 C 0.13972(7) 0.42278(16) 0.70287(13)
C20 C 0.12872(7) 0.48002(17) 0.66157(12)
C21 C 0.13179(7) 0.55038(17) 0.68042(12)
H17 H 0.1246 0.5891 0.6541
C22 C 0.14616(7) 0.56268(15) 0.74117(12)
C23 C 0.15363(7) 0.44180(15) 0.76261(12)
C24 C 0.09994(8) 0.5135(2) 0.56090(13)
H18 H 0.1146 0.5511 0.5656
H19 H 0.0836 0.5361 0.5641
C25 C 0.08600(9) 0.4774(2) 0.50138(14)
H20 H 0.1031 0.4560 0.4991
C26 C 0.07038(11) 0.5347(3) 0.45424(15)
H21 H 0.0521 0.5523 0.4525
H22 H 0.0646 0.5138 0.4172
H23 H 0.0845 0.5746 0.4630
C27 C 0.06363(12) 0.4166(3) 0.49295(17)
H24 H 0.0461 0.4368 0.4928
H25 H 0.0741 0.3821 0.5244
H26 H 0.0565 0.3924 0.4563
C28 C 0.14895(7) 0.63948(16) 0.75993(12)
C29 C 0.15534(8) 0.73044(15) 0.81306(13)
C30 C 0.16141(8) 0.77375(16) 0.86374(13)
C31 C 0.15951(9) 0.84867(17) 0.85777(15)
H27 H 0.1536 0.8702 0.8221
C32 C 0.16647(10) 0.89086(17) 0.90516(16)
C33 C 0.17524(9) 0.85645(17) 0.95729(15)
H28 H 0.1805 0.8832 0.9906
C34 C 0.17592(8) 0.78106(16) 0.95833(13)
C35 C 0.17529(12) 1.0115(2) 0.94375(19)
H29 H 0.1970 1.0009 0.9723
H30 H 0.1635 1.0041 0.9623
C36 C 0.1720(2) 1.0897(2) 0.9234(3)
H31 H 0.1500 1.0928 0.9113
C37 C 0.1663(3) 1.1102(4) 0.8706(4)
H32 H 0.1490 1.1435 0.8527
H33 H 0.1614 1.0679 0.8462
H34 H 0.1844 1.1338 0.8754
C38 C 0.18296(18) 1.1404(2) 0.9754(3)
H35 H 0.2051 1.1471 0.9950
H36 H 0.1780 1.1194 1.0021
H37 H 0.1727 1.1868 0.9619
C39 C 0.18377(8) 0.74449(16) 1.01283(13)
C40 C 0.18835(8) 0.66009(18) 1.07035(13)
C41 C 0.18687(7) 0.58660(18) 1.08933(13)
C42 C 0.20037(8) 0.5733(2) 1.14976(13)
H38 H 0.2096 0.6109 1.1769
C43 C 0.19952(8) 0.5041(2) 1.16707(13)
C44 C 0.18493(7) 0.44792(19) 1.12476(13)
C45 C 0.18277(8) 0.3752(2) 1.13792(15)
H39 H 0.1906 0.3615 1.1765
C46 C 0.16934(10) 0.3248(2) 1.09487(18)
H40 H 0.1687 0.2764 1.1048
C47 C 0.15627(9) 0.34287(18) 1.03569(15)
H41 H 0.1471 0.3070 1.0069
C48 C 0.15716(8) 0.41429(16) 1.02086(13)
C49 C 0.17193(7) 0.46795(17) 1.06535(12)
C50 C 0.22866(10) 0.5350(3) 1.26881(14)
H42 H 0.2149 0.5742 1.2656
H43 H 0.2453 0.5559 1.2657
C51 C 0.24200(12) 0.4963(3) 1.32676(15)
H44 H 0.2246 0.4756 1.3284
C52 C 0.25844(15) 0.5520(4) 1.37580(19)
H45 H 0.2662 0.5282 1.4128
H46 H 0.2440 0.5896 1.3707
H47 H 0.2755 0.5732 1.3749
C53 C 0.26288(16) 0.4349(4) 1.3321(2)
H48 H 0.2508 0.3911 1.3163
H49 H 0.2787 0.4275 1.3726
H50 H 0.2726 0.4468 1.3107
C54 C 0.12585(8) 0.40592(17) 0.91270(13)
C55 C 0.11042(7) 0.45723(16) 0.86110(12)
C56 C 0.09627(7) 0.42760(17) 0.80427(12)
H51 H 0.0951 0.3774 0.7982
C57 C 0.08444(7) 0.47527(17) 0.75890(12)
C58 C 0.08547(7) 0.55196(16) 0.77008(12)
C59 C 0.07410(8) 0.60460(18) 0.72467(13)
H52 H 0.0667 0.5899 0.6865
C60 C 0.07396(8) 0.67648(19) 0.73692(15)
H53 H 0.0670 0.7109 0.7072
C61 C 0.08405(8) 0.69884(18) 0.79316(15)
H54 H 0.0833 0.7480 0.8008
C62 C 0.09516(7) 0.64911(16) 0.83762(13)
C63 C 0.09762(7) 0.57413(15) 0.82842(12)
C64 C 0.06603(9) 0.38155(18) 0.68609(13)
H55 H 0.0519 0.3601 0.6961
H56 H 0.0856 0.3551 0.7067
C65 C 0.05216(9) 0.3778(2) 0.62125(14)
H57 H 0.0668 0.4008 0.6127
C66 C 0.04856(11) 0.2976(2) 0.60281(19)
H58 H 0.0687 0.2747 0.6223
H59 H 0.0392 0.2947 0.5612
H60 H 0.0355 0.2731 0.6134
C67 C 0.02137(10) 0.4183(3) 0.58715(17)
H61 H 0.0066 0.3964 0.5947
H62 H 0.0136 0.4155 0.5460
H63 H 0.0245 0.4685 0.5992
N1 N 0.23333(10) 0.6296(2) 0.94828(19)
N2 N 0.21761(7) 0.48213(15) 0.95960(11)
N3 N 0.18024(6) 0.40852(14) 0.86327(11)
H64 H 0.1796 0.4547 0.8684
N4 N 0.15704(6) 0.51196(12) 0.78184(10)
N5 N 0.14567(8) 0.69570(14) 0.72916(11)
N6 N 0.14992(8) 0.75568(14) 0.76433(12)
N7 N 0.16927(6) 0.73840(13) 0.91313(10)
N8 N 0.19522(8) 0.77454(15) 1.06351(12)
N9 N 0.19828(8) 0.71861(16) 1.10155(12)
N10 N 0.17295(6) 0.53702(13) 1.04817(10)
N11 N 0.14362(6) 0.44102(13) 0.96398(10)
H65 H 0.1471 0.4864 0.9613
N12 N 0.11142(6) 0.52659(13) 0.87426(10)
N13 N 0.10197(7) 0.67740(15) 0.89420(13)
O1 O 0.23557(14) 0.6884(3) 0.9406(2)
O2 O 0.2245(2) 0.5967(3) 0.9094(3)
O3 O 0.25180(7) 0.4020(2) 1.12604(11)
O4 O 0.19732(8) 0.30156(13) 0.91403(11)
O5 O 0.11560(5) 0.45905(12) 0.60547(9)
O6 O 0.15518(5) 0.65649(9) 0.81398(8)
O7 O 0.16420(9) 0.96442(13) 0.89555(13)
O8 O 0.17918(5) 0.67173(10) 1.01391(8)
O9 O 0.21156(6) 0.48238(15) 1.22297(9)
O10 O 0.12179(7) 0.34048(12) 0.90726(10)
O11 O 0.07107(5) 0.45774(12) 0.70212(8)
O12 O 0.10104(9) 0.63672(15) 0.92772(13)
O13 O 0.10812(7) 0.74178(13) 0.90503(12)
loop_
_geom_bond_atom_site_label_1
_geom_bond_atom_site_label_2
_geom_bond_site_symmetry_1
_geom_bond_site_symmetry_2
C1 C2 1_555 1_555
C2 H1 1_555 1_555
C3 C2 1_555 1_555
H2 C3 1_555 1_555
C4 C3 1_555 1_555
H3 C4 1_555 1_555
C5 C4 1_555 1_555
C6 C1 1_555 1_555
C7 C5 1_555 1_555
C8 C7 1_555 1_555
H4 C8 1_555 1_555
C9 C8 1_555 1_555
C10 H5 1_555 1_555
H6 C10 1_555 1_555
C11 C10 1_555 1_555
H7 C11 1_555 1_555
C12 C11 1_555 1_555
H8 C12 1_555 1_555
H9 C12 1_555 1_555
H10 C12 1_555 1_555
C13 C11 1_555 1_555
H11 C13 1_555 1_555
H12 C13 1_555 1_555
H13 C13 1_555 1_555
C14 C9 1_555 1_555
C15 C16 1_555 1_555
C16 H14 1_555 1_555
C17 C16 1_555 1_555
H15 C17 1_555 1_555
C18 C17 1_555 1_555
H16 C18 1_555 1_555
C19 C18 1_555 1_555
C20 C19 1_555 1_555
C21 C20 1_555 1_555
H17 C21 1_555 1_555
C22 C21 1_555 1_555
C23 C15 1_555 1_555
C24 H18 1_555 1_555
H19 C24 1_555 1_555
C25 C24 1_555 1_555
H20 C25 1_555 1_555
C26 C25 1_555 1_555
H21 C26 1_555 1_555
H22 C26 1_555 1_555
H23 C26 1_555 1_555
C27 C25 1_555 1_555
H24 C27 1_555 1_555
H25 C27 1_555 1_555
H26 C27 1_555 1_555
C28 C22 1_555 1_555
C29 C30 1_555 1_555
C30 C31 1_555 1_555
C31 H27 1_555 1_555
C32 C31 1_555 1_555
C33 C32 1_555 1_555
H28 C33 1_555 1_555
C34 C33 1_555 1_555
C35 H29 1_555 1_555
H30 C35 1_555 1_555
C36 C35 1_555 1_555
H31 C36 1_555 1_555
C37 C36 1_555 1_555
H32 C37 1_555 1_555
H33 C37 1_555 1_555
H34 C37 1_555 1_555
C38 C36 1_555 1_555
H35 C38 1_555 1_555
H36 C38 1_555 1_555
H37 C38 1_555 1_555
C39 C34 1_555 1_555
C40 C41 1_555 1_555
C41 C42 1_555 1_555
C42 H38 1_555 1_555
C43 C42 1_555 1_555
C44 C43 1_555 1_555
C45 C44 1_555 1_555
H39 C45 1_555 1_555
C46 C45 1_555 1_555
H40 C46 1_555 1_555
C47 C46 1_555 1_555
H41 C47 1_555 1_555
C48 C47 1_555 1_555
C49 C44 1_555 1_555
C50 H42 1_555 1_555
H43 C50 1_555 1_555
C51 C50 1_555 1_555
H44 C51 1_555 1_555
C52 C51 1_555 1_555
H45 C52 1_555 1_555
H46 C52 1_555 1_555
H47 C52 1_555 1_555
C53 C51 1_555 1_555
H48 C53 1_555 1_555
H49 C53 1_555 1_555
H50 C53 1_555 1_555
C54 C55 1_555 1_555
C55 C56 1_555 1_555
C56 H51 1_555 1_555
C57 C56 1_555 1_555
C58 C57 1_555 1_555
C59 C58 1_555 1_555
H52 C59 1_555 1_555
C60 C59 1_555 1_555
H53 C60 1_555 1_555
C61 C60 1_555 1_555
H54 C61 1_555 1_555
C62 C61 1_555 1_555
C63 C58 1_555 1_555
C64 H55 1_555 1_555
H56 C64 1_555 1_555
C65 C64 1_555 1_555
H57 C65 1_555 1_555
C66 C65 1_555 1_555
H58 C66 1_555 1_555
H59 C66 1_555 1_555
H60 C66 1_555 1_555
C67 C65 1_555 1_555
H61 C67 1_555 1_555
H62 C67 1_555 1_555
H63 C67 1_555 1_555
N1 C1 1_555 1_555
N2 C6 1_555 1_555
N3 C14 1_555 1_555
H64 N3 1_555 1_555
N4 C22 1_555 1_555
N5 C28 1_555 1_555
N6 C29 1_555 1_555
N7 C30 1_555 1_555
N8 C39 1_555 1_555
N9 C40 1_555 1_555
N10 C41 1_555 1_555
N11 C48 1_555 1_555
H65 N11 1_555 1_555
N12 C55 1_555 1_555
N13 C62 1_555 1_555
O1 N1 1_555 1_555
O2 N1 1_555 1_555
O3 C7 1_555 1_555
O4 C14 1_555 1_555
O5 C20 1_555 1_555
O6 C28 1_555 1_555
O7 C32 1_555 1_555
O8 C39 1_555 1_555
O9 C43 1_555 1_555
O10 C54 1_555 1_555
O11 C57 1_555 1_555
O12 N13 1_555 1_555
O13 N13 1_555 1_555
C68 C69 1_555 1_555
C69 C70 1_555 1_555
C70 H66 1_555 1_555
C71 C70 1_555 1_555
H67 C71 1_555 1_555
C72 C71 1_555 1_555
H68 C72 1_555 1_555
C73 C68 1_555 1_555
C74 C73 1_555 1_555
C75 C74 1_555 1_555
H69 C75 1_555 1_555
C76 C75 1_555 1_555
C77 H70 1_555 1_555
H71 C77 1_555 1_555
C78 C77 1_555 1_555
H72 C78 1_555 1_555
C79 C78 1_555 1_555
H73 C79 1_555 1_555
H74 C79 1_555 1_555
H75 C79 1_555 1_555
C80 C78 1_555 1_555
H76 C80 1_555 1_555
H77 C80 1_555 1_555
H78 C80 1_555 1_555
C81 C76 1_555 1_555
C82 C83 1_555 1_555
C83 H79 1_555 1_555
C84 C83 1_555 1_555
H80 C84 1_555 1_555
C85 C84 1_555 1_555
H81 C85 1_555 1_555
C86 C85 1_555 1_555
C87 C86 1_555 1_555
C88 C87 1_555 1_555
H82 C88 1_555 1_555
C89 C88 1_555 1_555
C90 C82 1_555 1_555
C91 H83 1_555 1_555
H84 C91 1_555 1_555
C92 C91 1_555 1_555
H85 C92 1_555 1_555
C93 C92 1_555 1_555
H86 C93 1_555 1_555
H87 C93 1_555 1_555
H88 C93 1_555 1_555
C94 C92 1_555 1_555
H89 C94 1_555 1_555
H90 C94 1_555 1_555
H91 C94 1_555 1_555
C95 C89 1_555 1_555
C96 C97 1_555 1_555
C97 C98 1_555 1_555
C98 H92 1_555 1_555
C99 C98 1_555 1_555
C100 H93 1_555 1_555
H94 C100 1_555 1_555
C101 C100 1_555 1_555
C102 C101 1_555 1_555
H95 C102 1_555 1_555
H96 C102 1_555 1_555
H97 C102 1_555 1_555
N14 C69 1_555 1_555
N15 C68 1_555 1_555
N16 C81 1_555 1_555
H98 N16 1_555 1_555
N17 C89 1_555 1_555
N18 C95 1_555 1_555
N19 C96 1_555 1_555
N20 C97 1_555 1_555
O14 N14 1_555 1_555
O15 N14 1_555 1_555
O16 C74 1_555 1_555
O17 C81 1_555 1_555
O18 C87 1_555 1_555
O19 C95 1_555 1_555
O20 C99 1_555 1_555
C103 H99 1_555 1_555
Cl1 C103 1_555 1_555
Cl2 C103 1_555 1_555
Cl3 C103 1_555 1_555
C104 H100 1_555 1_555
Cl4 C104 1_555 1_555
Cl5 C104 1_555 1_555
Cl6 C104 1_555 1_555
C68A C69A 1_555 1_555
C69A C70A 1_555 1_555
C70A H66A 1_555 1_555
C71A C70A 1_555 1_555
H67A C71A 1_555 1_555
C72A C71A 1_555 1_555
H68A C72A 1_555 1_555
C73A C68A 1_555 1_555
C74A C73A 1_555 1_555
C75A C74A 1_555 1_555
H69A C75A 1_555 1_555
C76A C75A 1_555 1_555
C77A H70A 1_555 1_555
H71A C77A 1_555 1_555
C78A C77A 1_555 1_555
H72A C78A 1_555 1_555
C79A C78A 1_555 1_555
H73A C79A 1_555 1_555
H74A C79A 1_555 1_555
H75A C79A 1_555 1_555
C80A C78A 1_555 1_555
H76A C80A 1_555 1_555
H77A C80A 1_555 1_555
H78A C80A 1_555 1_555
C81A C76A 1_555 1_555
C82A C83A 1_555 1_555
C83A H79A 1_555 1_555
C84A C83A 1_555 1_555
H80A C84A 1_555 1_555
C85A C84A 1_555 1_555
H81A C85A 1_555 1_555
C86A C85A 1_555 1_555
C87A C86A 1_555 1_555
C88A C87A 1_555 1_555
H82A C88A 1_555 1_555
C89A C88A 1_555 1_555
C90A C82A 1_555 1_555
C91A H83A 1_555 1_555
H84A C91A 1_555 1_555
C92A C91A 1_555 1_555
H85A C92A 1_555 1_555
C93A C92A 1_555 1_555
H86A C93A 1_555 1_555
H87A C93A 1_555 1_555
H88A C93A 1_555 1_555
C94A C92A 1_555 1_555
H89A C94A 1_555 1_555
H90A C94A 1_555 1_555
H91A C94A 1_555 1_555
C95A C89A 1_555 1_555
C96A C97A 1_555 1_555
C97A N20 1_555 1_555
C98A C99 1_555 1_555
H92A C98A 1_555 1_555
C100A C100 1_555 1_555
H93A C100A 1_555 1_555
H94A C100A 1_555 1_555
C101A C100 1_555 1_555
C102A C101 1_555 1_555
H95A C102A 1_555 1_555
H96A C102A 1_555 1_555
H97A C102A 1_555 1_555
N14A C69A 1_555 1_555
N15A C68A 1_555 1_555
N16A C81A 1_555 1_555
H98A N16A 1_555 1_555
N17A C89A 1_555 1_555
N18A C95A 1_555 1_555
N19A C96A 1_555 1_555
O14A N14A 1_555 1_555
O15A N14A 1_555 1_555
O16A C74A 1_555 1_555
O17A C81A 1_555 1_555
O18A C87A 1_555 1_555
O19A C95A 1_555 1_555
C5 C6 1_555 1_555
C9 N2 1_555 1_555
C10 O3 1_555 1_555
C15 N3 1_555 1_555
C19 C23 1_555 1_555
C23 N4 1_555 1_555
C24 O5 1_555 1_555
C29 O6 1_555 1_555
C34 N7 1_555 1_555
C35 O7 1_555 1_555
C40 O8 1_555 1_555
C48 C49 1_555 1_555
C49 N10 1_555 1_555
C50 O9 1_555 1_555
C54 N11 1_555 1_555
C62 C63 1_555 1_555
C63 N12 1_555 1_555
C64 O11 1_555 1_555
N5 N6 1_555 1_555
N8 N9 1_555 1_555
C72 C73 1_555 1_555
C76 N15 1_555 1_555
C77 O16 1_555 1_555
C82 N16 1_555 1_555
C86 C90 1_555 1_555
C90 N17 1_555 1_555
C91 O18 1_555 1_555
C96 O19 1_555 1_555
C100 O20 1_555 1_555
C101 C100A 1_555 1_555
C101 C101A 1_555 1_555
C102 C101A 1_555 1_555
N18 N19 1_555 1_555
O20 C100A 1_555 1_555
C72A C73A 1_555 1_555
C76A N15A 1_555 1_555
C77A O16A 1_555 1_555
C82A N16A 1_555 1_555
C86A C90A 1_555 1_555
C90A N17A 1_555 1_555
C91A O18A 1_555 1_555
C96A O19A 1_555 1_555
C97A C98A 1_555 1_555
C100A C101A 1_555 1_555
C101A C102A 1_555 1_555
N18A N19A 1_555 1_555

#END
