
#######################################################################
#
#                 Cambridge Crystallographic Data Centre
#                                CCDC 
#
#######################################################################
#
# If this CIF has been generated from an entry in the Cambridge 
# Structural Database, then it will include bibliographic, chemical, 
# crystal, experimental, refinement or atomic coordinate data resulting 
# from the CCDC's data processing and validation procedures.
#
#######################################################################

data_OXANUY
_chemical_formula_moiety         'C21 H20 N2 O4 S2'
_chemical_name_systematic        
N,4-dimethyl-N-((oxido(diphenyl)sulfanylidene)carbamoyl)benzenesulfonamide
_symmetry_cell_setting           monoclinic
_symmetry_space_group_name_H-M   'P 21/c'
_symmetry_Int_Tables_number      14
_space_group_name_Hall           '-P 2ybc'
loop_
_symmetry_equiv_pos_site_id
_symmetry_equiv_pos_as_xyz
1 x,y,z
2 -x,1/2+y,1/2-z
3 -x,-y,-z
4 x,1/2-y,1/2+z
_cell_length_a                   11.3423(5)
_cell_length_b                   10.4132(5)
_cell_length_c                   17.9440(9)
_cell_angle_alpha                90
_cell_angle_beta                 104.970(5)
_cell_angle_gamma                90
_cell_volume                     2047.43
_exptl_crystal_colour            colorless
_exptl_crystal_description       block
_cell_formula_units_Z            4
loop_
_atom_site_label
_atom_site_type_symbol
_atom_site_fract_x
_atom_site_fract_y
_atom_site_fract_z
C1 C 0.34589(19) 0.1426(2) -0.02556(12)
C2 C 0.2513(2) 0.0551(2) -0.04550(13)
H1 H 0.1846 0.0606 -0.0244
C3 C 0.2582(2) -0.0404(2) -0.09749(14)
H2 H 0.1959 -0.1008 -0.1114
C4 C 0.3569(2) -0.0470(2) -0.12891(14)
H3 H 0.3602 -0.1112 -0.1643
C5 C 0.4501(2) 0.0404(2) -0.10834(14)
H4 H 0.5167 0.0344 -0.1293
C6 C 0.4454(2) 0.1371(2) -0.05667(13)
H5 H 0.5078 0.1973 -0.0430
C7 C 0.2460(2) 0.3862(2) -0.01514(12)
C8 C 0.1218(2) 0.3691(3) -0.03625(15)
H6 H 0.0865 0.2972 -0.0201
C9 C 0.0504(3) 0.4613(4) -0.08213(18)
H7 H -0.0339 0.4513 -0.0976
C10 C 0.1039(4) 0.5678(3) -0.10487(18)
H8 H 0.0551 0.6299 -0.1353
C11 C 0.2275(4) 0.5836(3) -0.08341(17)
H9 H 0.2624 0.6559 -0.0993
C12 C 0.3003(3) 0.4925(2) -0.03831(15)
H10 H 0.3846 0.5024 -0.0236
C13 C 0.1998(2) -0.0448(2) 0.16491(12)
C14 C 0.2920(2) -0.0584(2) 0.23189(13)
H11 H 0.2997 0.0003 0.2719
C15 C 0.3722(2) -0.1594(2) 0.23905(14)
H12 H 0.4350 -0.1674 0.2838
C16 C 0.3613(2) -0.2494(2) 0.18073(15)
C17 C 0.2663(2) -0.2354(2) 0.11480(15)
H13 H 0.2563 -0.2962 0.0757
C18 C 0.1861(2) -0.1334(2) 0.10586(14)
H14 H 0.1238 -0.1244 0.0609
C19 C 0.4521(3) -0.3572(3) 0.18851(19)
H15 H 0.5104 -0.3517 0.2378
H16 H 0.4935 -0.3506 0.1483
H17 H 0.4101 -0.4380 0.1844
C20 C 0.2456(2) 0.2765(2) 0.15082(13)
C21 C 0.1604(3) 0.2703(3) 0.26421(14)
H18 H 0.2123 0.3444 0.2762
H19 H 0.1830 0.2093 0.3055
H20 H 0.0770 0.2958 0.2577
N1 N 0.27696(17) 0.20099(17) 0.09639(10)
N2 N 0.17437(17) 0.21112(18) 0.19189(10)
O1 O 0.46228(14) 0.32096(16) 0.06784(9)
O2 O 0.2746(2) 0.38675(18) 0.16666(12)
O3 O 0.02196(16) 0.05595(19) 0.21069(10)
O4 O 0.03336(14) 0.10006(17) 0.07811(9)
S1 S 0.34191(5) 0.26713(5) 0.04038(3)
S2 S 0.09402(5) 0.08081(6) 0.15758(3)
loop_
_geom_bond_atom_site_label_1
_geom_bond_atom_site_label_2
_geom_bond_site_symmetry_1
_geom_bond_site_symmetry_2
C1 C2 1_555 1_555
C2 H1 1_555 1_555
C3 C2 1_555 1_555
H2 C3 1_555 1_555
C4 C3 1_555 1_555
H3 C4 1_555 1_555
C5 C4 1_555 1_555
H4 C5 1_555 1_555
C6 C1 1_555 1_555
H5 C6 1_555 1_555
C7 C8 1_555 1_555
C8 H6 1_555 1_555
C9 C8 1_555 1_555
H7 C9 1_555 1_555
C10 C9 1_555 1_555
H8 C10 1_555 1_555
C11 C10 1_555 1_555
H9 C11 1_555 1_555
C12 C7 1_555 1_555
H10 C12 1_555 1_555
C13 C14 1_555 1_555
C14 H11 1_555 1_555
C15 C14 1_555 1_555
H12 C15 1_555 1_555
C16 C15 1_555 1_555
C17 C16 1_555 1_555
H13 C17 1_555 1_555
C18 C13 1_555 1_555
H14 C18 1_555 1_555
C19 C16 1_555 1_555
H15 C19 1_555 1_555
H16 C19 1_555 1_555
H17 C19 1_555 1_555
C20 N1 1_555 1_555
C21 H18 1_555 1_555
H19 C21 1_555 1_555
H20 C21 1_555 1_555
N1 S1 1_555 1_555
N2 C20 1_555 1_555
O1 S1 1_555 1_555
O2 C20 1_555 1_555
O3 S2 1_555 1_555
O4 S2 1_555 1_555
S1 C1 1_555 1_555
S2 C13 1_555 1_555
C5 C6 1_555 1_555
C7 S1 1_555 1_555
C11 C12 1_555 1_555
C17 C18 1_555 1_555
C21 N2 1_555 1_555
N2 S2 1_555 1_555

#END
