
#######################################################################
#
#                 Cambridge Crystallographic Data Centre
#                                CCDC 
#
#######################################################################
#
# If this CIF has been generated from an entry in the Cambridge 
# Structural Database, then it will include bibliographic, chemical, 
# crystal, experimental, refinement or atomic coordinate data resulting 
# from the CCDC's data processing and validation procedures.
#
#######################################################################

data_OXASEN
_chemical_formula_moiety         'C22 H13 Cl2 N5 O3,0.5(C1 H2 Cl2)'
_chemical_name_systematic        
'3-(2-(1H-benzotriazol-1-yloxy)-1-phenylethoxy)-4,5-dichloro-6-hydroxyphthalonitrile dichloromethane solvate'
_symmetry_cell_setting           triclinic
_symmetry_space_group_name_H-M   'P -1'
_symmetry_Int_Tables_number      2
_space_group_name_Hall           '-P 1'
loop_
_symmetry_equiv_pos_site_id
_symmetry_equiv_pos_as_xyz
1 x,y,z
2 -x,-y,-z
_cell_length_a                   8.0910(8)
_cell_length_b                   12.0680(11)
_cell_length_c                   13.3280(12)
_cell_angle_alpha                75.3170(10)
_cell_angle_beta                 73.6640(10)
_cell_angle_gamma                80.916(2)
_cell_volume                     1202.79
_cell_formula_units_Z            2
loop_
_atom_site_label
_atom_site_type_symbol
_atom_site_fract_x
_atom_site_fract_y
_atom_site_fract_z
Cl1 Cl 0.5074(3) 0.3707(2) 0.39342(18)
Cl2 Cl 0.5042(3) 0.2948(2) 0.63362(17)
N1 N 0.4007(10) 0.1466(6) 0.0450(5)
N2 N 0.3230(9) 0.1421(6) -0.0288(5)
N3 N 0.4471(10) 0.1405(6) -0.1164(5)
N4 N 0.1685(11) -0.1432(7) 0.7044(6)
N5 N 0.1721(10) -0.0567(7) 0.4053(6)
O1 O 0.3011(8) 0.1413(5) 0.1500(4)
O2 O 0.3633(7) 0.2127(5) 0.3135(4)
O3 O 0.3417(7) 0.0737(5) 0.7429(4)
H1 H 0.3832 0.1182 0.7644
C1 C 0.6045(12) 0.1386(7) -0.0932(6)
C2 C 0.5729(12) 0.1450(7) 0.0113(6)
C3 C 0.7042(14) 0.1432(8) 0.0605(7)
H2 H 0.6814 0.1478 0.1318
C4 C 0.8639(15) 0.1345(8) -0.0009(9)
H3 H 0.9562 0.1313 0.0288
C5 C 0.8988(14) 0.1300(8) -0.1091(8)
H4 H 1.0132 0.1263 -0.1492
C6 C 0.7720(14) 0.1308(8) -0.1568(7)
H5 H 0.7956 0.1263 -0.2282
C7 C 0.2451(11) 0.2557(8) 0.1657(6)
H6 H 0.1446 0.2859 0.1377
H7 H 0.3365 0.3058 0.1284
C8 C 0.2011(11) 0.2507(8) 0.2828(6)
H8 H 0.1203 0.1920 0.3197
C9 C 0.1212(13) 0.3606(9) 0.3104(7)
C10 C 0.1984(14) 0.4633(10) 0.2571(8)
H9 H 0.3026 0.4611 0.2052
C11 C 0.1203(19) 0.5693(10) 0.2812(10)
H10 H 0.1728 0.6368 0.2466
C12 C -0.0290(19) 0.5711(12) 0.3540(11)
H11 H -0.0820 0.6419 0.3673
C13 C -0.1111(16) 0.4738(12) 0.4115(10)
H12 H -0.2135 0.4781 0.4646
C14 C -0.0348(14) 0.3700(10) 0.3868(8)
H13 H -0.0899 0.3038 0.4228
C15 C 0.3522(10) 0.1805(7) 0.4213(6)
C16 C 0.4207(10) 0.2487(7) 0.4678(6)
C17 C 0.4214(9) 0.2133(7) 0.5758(6)
C18 C 0.3508(10) 0.1128(7) 0.6402(6)
C19 C 0.2844(9) 0.0465(7) 0.5913(6)
C20 C 0.2872(9) 0.0805(7) 0.4818(6)
C21 C 0.2155(11) -0.0614(9) 0.6563(7)
C22 C 0.2225(10) 0.0030(8) 0.4376(6)
Cl3 Cl 0.835(3) 0.4179(11) 0.0254(12)
Cl4 Cl 0.657(3) 0.5738(14) 0.1490(12)
C23 C 0.774(7) 0.442(5) 0.151(4)
H14 H 0.8757 0.4407 0.1763
H15 H 0.7044 0.3824 0.1989
Cl5? Cl 0.811(5) 0.540(3) 0.137(2)
C24? C 0.621(12) 0.550(8) 0.101(7)
H16? H 0.6010 0.6264 0.0573
H17? H 0.5252 0.5395 0.1646
Cl6? Cl 0.632(3) 0.4476(15) 0.0302(12)
loop_
_geom_bond_atom_site_label_1
_geom_bond_atom_site_label_2
_geom_bond_site_symmetry_1
_geom_bond_site_symmetry_2
Cl1 C16 1_555 1_555
Cl2 C17 1_555 1_555
N1 N2 1_555 1_555
N2 N3 1_555 1_555
N3 C1 1_555 1_555
N4 C21 1_555 1_555
N5 C22 1_555 1_555
O1 N1 1_555 1_555
O2 C8 1_555 1_555
O3 H1 1_555 1_555
C1 C2 1_555 1_555
C2 N1 1_555 1_555
C3 C2 1_555 1_555
H2 C3 1_555 1_555
C4 C3 1_555 1_555
H3 C4 1_555 1_555
C5 C4 1_555 1_555
H4 C5 1_555 1_555
C6 C1 1_555 1_555
H5 C6 1_555 1_555
C7 O1 1_555 1_555
H6 C7 1_555 1_555
H7 C7 1_555 1_555
C8 C7 1_555 1_555
H8 C8 1_555 1_555
C9 C8 1_555 1_555
C10 C9 1_555 1_555
H9 C10 1_555 1_555
C11 C10 1_555 1_555
H10 C11 1_555 1_555
C12 C11 1_555 1_555
H11 C12 1_555 1_555
C13 C12 1_555 1_555
H12 C13 1_555 1_555
C14 C9 1_555 1_555
H13 C14 1_555 1_555
C15 O2 1_555 1_555
C16 C15 1_555 1_555
C17 C16 1_555 1_555
C18 O3 1_555 1_555
C19 C18 1_555 1_555
C20 C15 1_555 1_555
C21 C19 1_555 1_555
C22 C20 1_555 1_555
Cl3 C23 1_555 1_555
Cl4 C23 1_555 1_555
C23 H14 1_555 1_555
H15 C23 1_555 1_555
C5 C6 1_555 1_555
C13 C14 1_555 1_555
C17 C18 1_555 1_555
C19 C20 1_555 1_555

#END
