
#######################################################################
#
#                 Cambridge Crystallographic Data Centre
#                                CCDC 
#
#######################################################################
#
# If this CIF has been generated from an entry in the Cambridge 
# Structural Database, then it will include bibliographic, chemical, 
# crystal, experimental, refinement or atomic coordinate data resulting 
# from the CCDC's data processing and validation procedures.
#
#######################################################################

data_OXASIR
_chemical_formula_moiety         'C28 H22 F3 N3 O2 S1'
_chemical_name_systematic        
4-methyl-N-(1-methyl-3-(2-(pyridin-2-yl)-5-(trifluoromethyl)phenyl)-1H-indol-2-yl)benzenesulfonamide
_symmetry_cell_setting           triclinic
_symmetry_space_group_name_H-M   'P -1'
_symmetry_Int_Tables_number      2
_space_group_name_Hall           '-P 1'
loop_
_symmetry_equiv_pos_site_id
_symmetry_equiv_pos_as_xyz
1 x,y,z
2 -x,-y,-z
_cell_length_a                   8.6878(5)
_cell_length_b                   11.5528(7)
_cell_length_c                   13.1521(10)
_cell_angle_alpha                90.495(6)
_cell_angle_beta                 109.012(6)
_cell_angle_gamma                99.530(5)
_cell_volume                     1228.05
_exptl_crystal_colour            colorless
_exptl_crystal_description       block
_cell_formula_units_Z            2
loop_
_atom_site_label
_atom_site_type_symbol
_atom_site_fract_x
_atom_site_fract_y
_atom_site_fract_z
S1 S 0.45586(7) 0.93082(5) 0.15441(5)
F1 F 0.8167(6) 0.4003(3) 0.4398(3)
F2 F 0.5708(5) 0.3981(4) 0.3908(2)
F3 F 0.7301(5) 0.5291(2) 0.4990(2)
O1 O 0.4809(2) 1.00629(16) 0.24688(14)
O2 O 0.3503(2) 0.95626(16) 0.05065(14)
N1 N 0.8718(2) 1.05079(18) 0.26209(17)
N2 N 0.6317(2) 0.92632(19) 0.13645(17)
H1 H 0.631(4) 0.944(3) 0.071(3)
N3 N 0.6470(3) 0.71711(19) -0.03748(17)
C1 C 1.0117(3) 1.0363(2) 0.3447(2)
C2 C 1.1423(3) 1.1210(3) 0.4091(2)
H2 H 1.1436 1.2026 0.4001
C3 C 1.2689(4) 1.0814(3) 0.4859(2)
H3 H 1.3596 1.1369 0.5306
C4 C 1.2675(3) 0.9623(3) 0.4997(2)
H4 H 1.3569 0.9382 0.5538
C5 C 1.1392(3) 0.8783(3) 0.4366(2)
H5 H 1.1393 0.7971 0.4471
C6 C 1.0084(3) 0.9152(2) 0.35657(19)
C7 C 0.8606(3) 0.8547(2) 0.27552(19)
C8 C 0.7819(3) 0.9407(2) 0.22235(19)
C9 C 0.8218(4) 1.1631(2) 0.2321(2)
H6 H 0.7303 1.1519 0.1635
H7 H 0.9156 1.2181 0.2245
H8 H 0.7858 1.1950 0.2881
C10 C 0.8022(3) 0.7273(2) 0.2531(2)
C11 C 0.7879(3) 0.6594(2) 0.3380(2)
H9 H 0.8231 0.6955 0.4089
C12 C 0.7232(3) 0.5402(2) 0.3204(2)
C13 C 0.6697(3) 0.4866(2) 0.2171(2)
H10 H 0.6235 0.4052 0.2045
C14 C 0.6843(3) 0.5526(2) 0.1329(2)
H11 H 0.6465 0.5159 0.0621
C15 C 0.7531(3) 0.6716(2) 0.1491(2)
C16 C 0.7766(3) 0.7339(2) 0.0549(2)
C17 C 0.9292(3) 0.7996(2) 0.0612(2)
H12 H 1.0192 0.8089 0.1270
C18 C 0.9488(3) 0.8511(2) -0.0290(2)
H13 H 1.0525 0.8955 -0.0263
C19 C 0.8156(3) 0.8369(2) -0.1230(2)
H14 H 0.8245 0.8725 -0.1862
C20 C 0.6689(3) 0.7697(2) -0.1228(2)
H15 H 0.5773 0.7602 -0.1878
C21 C 0.7089(5) 0.4690(3) 0.4113(3)
C22 C 0.3755(3) 0.7880(2) 0.1793(2)
C23 C 0.3374(4) 0.6973(3) 0.1011(2)
H16 H 0.3663 0.7092 0.0378
C24 C 0.2564(4) 0.5892(3) 0.1166(3)
H17 H 0.2295 0.5267 0.0629
C25 C 0.2133(3) 0.5692(2) 0.2083(3)
C26 C 0.2558(4) 0.6618(3) 0.2858(2)
H18 H 0.2294 0.6496 0.3499
C27 C 0.3358(3) 0.7712(2) 0.2719(2)
H19 H 0.3628 0.8339 0.3255
C28 C 0.1223(4) 0.4513(3) 0.2231(3)
H20 H 0.2020 0.4042 0.2650
H21 H 0.0599 0.4104 0.1525
H22 H 0.0458 0.4625 0.2616
loop_
_geom_bond_atom_site_label_1
_geom_bond_atom_site_label_2
_geom_bond_site_symmetry_1
_geom_bond_site_symmetry_2
S1 O1 1_555 1_555
F1 C21 1_555 1_555
F2 C21 1_555 1_555
F3 C21 1_555 1_555
O2 S1 1_555 1_555
N1 C1 1_555 1_555
N2 S1 1_555 1_555
H1 N2 1_555 1_555
N3 C16 1_555 1_555
C1 C2 1_555 1_555
C2 H2 1_555 1_555
C3 C2 1_555 1_555
H3 C3 1_555 1_555
C4 C3 1_555 1_555
H4 C4 1_555 1_555
C5 C4 1_555 1_555
H5 C5 1_555 1_555
C6 C1 1_555 1_555
C7 C6 1_555 1_555
C8 N1 1_555 1_555
C9 N1 1_555 1_555
H6 C9 1_555 1_555
H7 C9 1_555 1_555
H8 C9 1_555 1_555
C10 C7 1_555 1_555
C11 C10 1_555 1_555
H9 C11 1_555 1_555
C12 C11 1_555 1_555
C13 C12 1_555 1_555
H10 C13 1_555 1_555
C14 C13 1_555 1_555
H11 C14 1_555 1_555
C15 C10 1_555 1_555
C16 C15 1_555 1_555
C17 C16 1_555 1_555
H12 C17 1_555 1_555
C18 C17 1_555 1_555
H13 C18 1_555 1_555
C19 C18 1_555 1_555
H14 C19 1_555 1_555
C20 N3 1_555 1_555
H15 C20 1_555 1_555
C21 C12 1_555 1_555
C22 S1 1_555 1_555
C23 C22 1_555 1_555
H16 C23 1_555 1_555
C24 C23 1_555 1_555
H17 C24 1_555 1_555
C25 C24 1_555 1_555
C26 C25 1_555 1_555
H18 C26 1_555 1_555
C27 C22 1_555 1_555
H19 C27 1_555 1_555
C28 C25 1_555 1_555
H20 C28 1_555 1_555
H21 C28 1_555 1_555
H22 C28 1_555 1_555
N2 C8 1_555 1_555
C5 C6 1_555 1_555
C7 C8 1_555 1_555
C14 C15 1_555 1_555
C19 C20 1_555 1_555
C26 C27 1_555 1_555

#END
