
#######################################################################
#
#                 Cambridge Crystallographic Data Centre
#                                CCDC 
#
#######################################################################
#
# If this CIF has been generated from an entry in the Cambridge 
# Structural Database, then it will include bibliographic, chemical, 
# crystal, experimental, refinement or atomic coordinate data resulting 
# from the CCDC's data processing and validation procedures.
#
#######################################################################

data_OXATAJ
_chemical_formula_moiety         'C27 H27 N1 O5'
_chemical_name_systematic        
1'-Ethyl-4',5',6'-trimethoxy-5-(1-naphthylmethylene)-4,5-dihydro-3H-spiro[furan-2,3'-indol]-2'(1'H)-one
_symmetry_cell_setting           monoclinic
_symmetry_space_group_name_H-M   'P 21/n'
_symmetry_Int_Tables_number      14
_space_group_name_Hall           '-P 2yn'
loop_
_symmetry_equiv_pos_site_id
_symmetry_equiv_pos_as_xyz
1 x,y,z
2 1/2-x,1/2+y,1/2-z
3 -x,-y,-z
4 1/2+x,1/2-y,1/2+z
_cell_length_a                   10.675(2)
_cell_length_b                   14.792(3)
_cell_length_c                   15.070(3)
_cell_angle_alpha                90
_cell_angle_beta                 96.25(3)
_cell_angle_gamma                90
_cell_volume                     2365.48
_exptl_crystal_colour            colorless
_exptl_crystal_description       block
_cell_formula_units_Z            4
loop_
_atom_site_label
_atom_site_type_symbol
_atom_site_fract_x
_atom_site_fract_y
_atom_site_fract_z
O1 O 0.38237(17) 0.01529(13) 0.17383(12)
O2 O 0.58347(17) 0.22303(11) 0.45659(12)
C1 C 0.6123(2) 0.00212(16) 0.41084(17)
C2 C 0.4610(2) 0.01117(17) 0.25200(17)
O3 O 0.42660(19) -0.14322(13) 0.25184(13)
C3 C 0.4838(2) -0.07133(17) 0.29561(18)
C4 C 0.5914(2) 0.08515(16) 0.36972(17)
N1 N 0.6930(2) 0.01263(14) 0.49035(15)
C5 C 0.5146(2) 0.08945(17) 0.28982(17)
O4 O 0.50015(19) 0.17147(12) 0.24672(13)
C6 C 0.5599(3) -0.07729(17) 0.37567(18)
H1 H 0.5752 -0.1324 0.4046
C7 C 0.4804(3) 0.38079(17) 0.54565(18)
O5 O 0.7936(2) 0.13109(15) 0.56519(15)
C8 C 0.6452(3) 0.30493(17) 0.46544(19)
C9 C 0.4741(3) 0.43512(17) 0.62302(18)
C10 C 0.3601(3) 0.44014(19) 0.6629(2)
C11 C 0.5981(3) 0.37550(17) 0.50411(18)
H2 H 0.6455 0.4283 0.5051
C12 C 0.7261(3) 0.1006(2) 0.5020(2)
C13 C 0.6643(2) 0.15546(17) 0.42248(18)
C14 C 0.7340(3) -0.0589(2) 0.55305(19)
H3 H 0.6687 -0.1046 0.5517
H4 H 0.7461 -0.0340 0.6129
C15 C 0.5785(3) 0.48443(18) 0.6632(2)
H5 H 0.6551 0.4808 0.6395
C16 C 0.7599(3) 0.21080(18) 0.3757(2)
H6 H 0.8414 0.1811 0.3806
H7 H 0.7308 0.2196 0.3131
C17 C 0.3733(3) 0.33424(19) 0.5121(2)
H8 H 0.3751 0.2995 0.4608
C18 C 0.2624(3) 0.3381(2) 0.5537(3)
H9 H 0.1922 0.3051 0.5303
C19 C 0.3759(3) 0.2075(2) 0.2344(3)
H10 H 0.3768 0.2644 0.2039
H11 H 0.3457 0.2162 0.2915
H12 H 0.3215 0.1661 0.1995
C20 C 0.5689(4) 0.5371(2) 0.7360(2)
H13 H 0.6389 0.5691 0.7613
C21 C 0.3557(4) 0.4968(2) 0.7391(2)
H14 H 0.2811 0.5008 0.7654
C22 C 0.2561(3) 0.3894(2) 0.6276(2)
H15 H 0.1821 0.3908 0.6549
C23 C 0.7672(3) 0.29953(18) 0.4253(2)
H16 H 0.8382 0.3002 0.4713
H17 H 0.7755 0.3496 0.3848
C24 C 0.4506(3) -0.23055(19) 0.2899(2)
H18 H 0.4052 -0.2752 0.2530
H19 H 0.4237 -0.2321 0.3486
H20 H 0.5393 -0.2432 0.2937
C25 C 0.4362(4) -0.0095(3) 0.0959(2)
H21 H 0.3740 -0.0044 0.0451
H22 H 0.4655 -0.0708 0.1013
H23 H 0.5058 0.0298 0.0882
C26 C 0.8544(3) -0.1021(2) 0.5320(3)
H24 H 0.8781 -0.1488 0.5748
H25 H 0.9198 -0.0573 0.5345
H26 H 0.8424 -0.1279 0.4732
C27 C 0.4549(5) 0.5439(3) 0.7735(2)
H27 H 0.4488 0.5813 0.8224
loop_
_geom_bond_atom_site_label_1
_geom_bond_atom_site_label_2
_geom_bond_site_symmetry_1
_geom_bond_site_symmetry_2
O1 C2 1_555 1_555
O2 C8 1_555 1_555
C1 C4 1_555 1_555
C2 C3 1_555 1_555
O3 C3 1_555 1_555
C3 C6 1_555 1_555
C4 C5 1_555 1_555
N1 C1 1_555 1_555
C5 C2 1_555 1_555
O4 C5 1_555 1_555
C6 C1 1_555 1_555
H1 C6 1_555 1_555
C7 C9 1_555 1_555
O5 C12 1_555 1_555
C8 C11 1_555 1_555
C9 C10 1_555 1_555
C10 C21 1_555 1_555
C11 C7 1_555 1_555
H2 C11 1_555 1_555
C12 N1 1_555 1_555
C13 O2 1_555 1_555
C14 N1 1_555 1_555
H3 C14 1_555 1_555
H4 C14 1_555 1_555
C15 C9 1_555 1_555
H5 C15 1_555 1_555
C16 C13 1_555 1_555
H6 C16 1_555 1_555
H7 C16 1_555 1_555
C17 C7 1_555 1_555
H8 C17 1_555 1_555
C18 C17 1_555 1_555
H9 C18 1_555 1_555
C19 O4 1_555 1_555
H10 C19 1_555 1_555
H11 C19 1_555 1_555
H12 C19 1_555 1_555
C20 C15 1_555 1_555
H13 C20 1_555 1_555
C21 H14 1_555 1_555
C22 C10 1_555 1_555
H15 C22 1_555 1_555
C23 C8 1_555 1_555
H16 C23 1_555 1_555
H17 C23 1_555 1_555
C24 O3 1_555 1_555
H18 C24 1_555 1_555
H19 C24 1_555 1_555
H20 C24 1_555 1_555
C25 O1 1_555 1_555
H21 C25 1_555 1_555
H22 C25 1_555 1_555
H23 C25 1_555 1_555
C26 C14 1_555 1_555
H24 C26 1_555 1_555
H25 C26 1_555 1_555
H26 C26 1_555 1_555
C27 C20 1_555 1_555
H27 C27 1_555 1_555
C4 C13 1_555 1_555
C12 C13 1_555 1_555
C16 C23 1_555 1_555
C18 C22 1_555 1_555
C21 C27 1_555 1_555

#END
