
#######################################################################
#
#                 Cambridge Crystallographic Data Centre
#                                CCDC 
#
#######################################################################
#
# If this CIF has been generated from an entry in the Cambridge 
# Structural Database, then it will include bibliographic, chemical, 
# crystal, experimental, refinement or atomic coordinate data resulting 
# from the CCDC's data processing and validation procedures.
#
#######################################################################

data_OXAVIT
_chemical_formula_moiety         'C25 H18 Br1 N1 O3'
_chemical_name_systematic        
1-Benzyl-4'-(4-bromophenyl)spiro[indole-3,2'-pyran]-2,6'(1H,3'H)-dione
_symmetry_cell_setting           monoclinic
_symmetry_space_group_name_H-M   'P 21'
_symmetry_Int_Tables_number      4
_space_group_name_Hall           'P 2yb'
loop_
_symmetry_equiv_pos_site_id
_symmetry_equiv_pos_as_xyz
1 x,y,z
2 -x,1/2+y,-z
_cell_length_a                   11.0045(13)
_cell_length_b                   8.3304(11)
_cell_length_c                   11.3264(14)
_cell_angle_alpha                90
_cell_angle_beta                 99.624(8)
_cell_angle_gamma                90
_cell_volume                     1023.7
_exptl_crystal_colour            colorless
_exptl_crystal_description       block
_cell_formula_units_Z            2
loop_
_atom_site_label
_atom_site_type_symbol
_atom_site_fract_x
_atom_site_fract_y
_atom_site_fract_z
Br1 Br 0.41334(3) 0.48555(6) 0.74516(3)
O1 O 1.03949(18) 0.5853(3) 0.33292(18)
O2 O 1.16392(17) 0.4873(5) 0.48793(19)
O3 O 0.9624(2) 0.8728(3) 0.2034(2)
N1 N 0.8819(2) 0.6807(3) 0.0656(2)
C1 C 0.9146(3) 0.6016(4) 0.2679(3)
C2 C 0.8240(3) 0.6495(4) 0.3496(2)
H1 H 0.8363 0.7641 0.3716
H2 H 0.7388 0.6367 0.3059
C3 C 0.8402(3) 0.5493(4) 0.4618(3)
C4 C 0.9526(2) 0.4890(6) 0.5031(2)
H3 H 0.9633 0.4253 0.5737
C5 C 1.0589(3) 0.5176(5) 0.4439(3)
C6 C 0.9241(3) 0.7375(4) 0.1777(3)
C7 C 0.8520(2) 0.5160(4) 0.0701(2)
C8 C 0.8079(3) 0.4173(4) -0.0256(3)
H4 H 0.7913 0.4578 -0.1051
C9 C 0.7889(3) 0.2566(5) -0.0011(3)
H5 H 0.7593 0.1856 -0.0650
C10 C 0.8125(3) 0.1980(5) 0.1152(3)
H6 H 0.7997 0.0875 0.1299
C11 C 0.8552(3) 0.3007(4) 0.2112(3)
H7 H 0.8708 0.2611 0.2909
C12 C 0.8741(2) 0.4602(4) 0.1879(2)
C13 C 0.7346(3) 0.5299(4) 0.5260(2)
C14 C 0.6369(3) 0.6358(5) 0.5080(3)
H8 H 0.6364 0.7200 0.4514
C15 C 0.5391(3) 0.6221(5) 0.5708(3)
H9 H 0.4723 0.6956 0.5574
C16 C 0.5412(3) 0.4997(6) 0.6527(2)
C17 C 0.6358(3) 0.3884(5) 0.6708(3)
H10 H 0.6346 0.3028 0.7260
C18 C 0.7320(3) 0.4038(5) 0.6070(3)
H11 H 0.7971 0.3276 0.6184
C19 C 0.8764(3) 0.7739(4) -0.0424(3)
H12 H 0.9117 0.7095 -0.1019
H13 H 0.9285 0.8705 -0.0242
C20 C 0.7473(3) 0.8267(4) -0.0981(3)
C21 C 0.7304(4) 0.8897(5) -0.2133(3)
H14 H 0.7973 0.8922 -0.2565
C22 C 0.6170(4) 0.9483(5) -0.2649(3)
H15 H 0.6061 0.9922 -0.3433
C23 C 0.5194(4) 0.9436(6) -0.2034(4)
H16 H 0.4413 0.9842 -0.2394
C24 C 0.5348(4) 0.8804(6) -0.0901(4)
H17 H 0.4673 0.8773 -0.0477
C25 C 0.6490(3) 0.8210(5) -0.0372(3)
H18 H 0.6593 0.7763 0.0410
loop_
_geom_bond_atom_site_label_1
_geom_bond_atom_site_label_2
_geom_bond_site_symmetry_1
_geom_bond_site_symmetry_2
Br1 C16 1_555 1_555
O1 C1 1_555 1_555
O2 C5 1_555 1_555
O3 C6 1_555 1_555
N1 C6 1_555 1_555
C1 C2 1_555 1_555
C2 H1 1_555 1_555
H2 C2 1_555 1_555
C3 C2 1_555 1_555
C4 C3 1_555 1_555
H3 C4 1_555 1_555
C5 O1 1_555 1_555
C6 C1 1_555 1_555
C7 N1 1_555 1_555
C8 C7 1_555 1_555
H4 C8 1_555 1_555
C9 C8 1_555 1_555
H5 C9 1_555 1_555
C10 C9 1_555 1_555
H6 C10 1_555 1_555
C11 C10 1_555 1_555
H7 C11 1_555 1_555
C12 C1 1_555 1_555
C13 C3 1_555 1_555
C14 C13 1_555 1_555
H8 C14 1_555 1_555
C15 C14 1_555 1_555
H9 C15 1_555 1_555
C16 C15 1_555 1_555
C17 C16 1_555 1_555
H10 C17 1_555 1_555
C18 C13 1_555 1_555
H11 C18 1_555 1_555
C19 N1 1_555 1_555
H12 C19 1_555 1_555
H13 C19 1_555 1_555
C20 C19 1_555 1_555
C21 C20 1_555 1_555
H14 C21 1_555 1_555
C22 C21 1_555 1_555
H15 C22 1_555 1_555
C23 C22 1_555 1_555
H16 C23 1_555 1_555
C24 C23 1_555 1_555
H17 C24 1_555 1_555
C25 C20 1_555 1_555
H18 C25 1_555 1_555
C4 C5 1_555 1_555
C7 C12 1_555 1_555
C11 C12 1_555 1_555
C17 C18 1_555 1_555
C24 C25 1_555 1_555

#END
