
#######################################################################
#
#                 Cambridge Crystallographic Data Centre
#                                CCDC 
#
#######################################################################
#
# If this CIF has been generated from an entry in the Cambridge 
# Structural Database, then it will include bibliographic, chemical, 
# crystal, experimental, refinement or atomic coordinate data resulting 
# from the CCDC's data processing and validation procedures.
#
#######################################################################

data_OXAVAL
_chemical_formula_moiety         'C20 H16 Cl1 N1 O4'
_chemical_name_systematic        
5-Chloro-4'-(4-methoxyphenyl)-1-methylspiro[indole-3,2'-pyran]-2,6'(1H,3'H)-dione
_symmetry_cell_setting           triclinic
_symmetry_space_group_name_H-M   'P -1'
_symmetry_Int_Tables_number      2
_space_group_name_Hall           '-P 1'
loop_
_symmetry_equiv_pos_site_id
_symmetry_equiv_pos_as_xyz
1 x,y,z
2 -x,-y,-z
_cell_length_a                   7.549(2)
_cell_length_b                   9.724(3)
_cell_length_c                   12.408(4)
_cell_angle_alpha                92.648(3)
_cell_angle_beta                 107.078(4)
_cell_angle_gamma                106.761(5)
_cell_volume                     825.108
_exptl_crystal_colour            colorless
_exptl_crystal_description       'small grain'
_cell_formula_units_Z            2
loop_
_atom_site_label
_atom_site_type_symbol
_atom_site_fract_x
_atom_site_fract_y
_atom_site_fract_z
Cl1 Cl 1.00608(8) 0.79980(5) 0.45924(5)
O1 O 0.2628(2) 0.06055(16) 0.36171(13)
O2 O 0.3357(2) 0.30458(15) 0.23044(11)
O3 O 0.0662(2) 0.21391(17) 0.08556(13)
O4 O 0.7413(2) -0.39437(17) 0.10505(14)
N1 N 0.5032(2) 0.23414(17) 0.50273(14)
C1 C 0.6308(3) 0.3730(2) 0.50732(16)
C2 C 0.7472(3) 0.4734(2) 0.60239(17)
H1 H 0.7490 0.4529 0.6768
C3 C 0.8612(3) 0.6053(2) 0.58554(17)
H2 H 0.9422 0.6769 0.6492
C4 C 0.8583(3) 0.6337(2) 0.47694(18)
C5 C 0.7381(3) 0.5333(2) 0.38058(17)
H3 H 0.7355 0.5539 0.3061
C6 C 0.6235(3) 0.4029(2) 0.39787(16)
C7 C 0.4888(3) 0.2710(2) 0.31423(16)
C8 C 0.3999(3) 0.1722(2) 0.39297(17)
C9 C 0.4730(3) 0.1696(2) 0.60204(17)
H4 H 0.3647 0.0782 0.5772
H5 H 0.4419 0.2365 0.6495
H6 H 0.5922 0.1505 0.6462
C10 C 0.6015(3) 0.2001(2) 0.25852(16)
H7 H 0.6812 0.2734 0.2243
H8 H 0.6915 0.1647 0.3174
C11 C 0.4673(3) 0.0753(2) 0.16768(16)
C12 C 0.2868(3) 0.0781(2) 0.11466(16)
H9 H 0.1995 -0.0010 0.0583
C13 C 0.2183(3) 0.1981(2) 0.13998(16)
C14 C 0.5437(3) -0.0431(2) 0.14509(15)
C15 C 0.7424(3) -0.0262(2) 0.18739(17)
H10 H 0.8306 0.0654 0.2270
C16 C 0.8157(3) -0.1392(2) 0.17336(17)
H11 H 0.9521 -0.1244 0.2015
C17 C 0.6875(3) -0.2732(2) 0.11797(17)
C18 C 0.4882(3) -0.2925(2) 0.07241(18)
H12 H 0.4008 -0.3844 0.0331
C19 C 0.4177(3) -0.1789(2) 0.08415(17)
H13 H 0.2823 -0.1923 0.0507
C20 C 0.9444(3) -0.3781(3) 0.1410(2)
H14 H 0.9624 -0.4720 0.1258
H15 H 1.0011 -0.3426 0.2229
H16 H 1.0094 -0.3083 0.0992
loop_
_geom_bond_atom_site_label_1
_geom_bond_atom_site_label_2
_geom_bond_site_symmetry_1
_geom_bond_site_symmetry_2
Cl1 C4 1_555 1_555
O1 C8 1_555 1_555
O2 C7 1_555 1_555
O3 C13 1_555 1_555
O4 C17 1_555 1_555
N1 C1 1_555 1_555
C1 C2 1_555 1_555
C2 H1 1_555 1_555
C3 C2 1_555 1_555
H2 C3 1_555 1_555
C4 C3 1_555 1_555
C5 C4 1_555 1_555
H3 C5 1_555 1_555
C6 C1 1_555 1_555
C7 C6 1_555 1_555
C8 N1 1_555 1_555
C9 N1 1_555 1_555
H4 C9 1_555 1_555
H5 C9 1_555 1_555
H6 C9 1_555 1_555
C10 C7 1_555 1_555
H7 C10 1_555 1_555
H8 C10 1_555 1_555
C11 C10 1_555 1_555
C12 C11 1_555 1_555
H9 C12 1_555 1_555
C13 O2 1_555 1_555
C14 C11 1_555 1_555
C15 C14 1_555 1_555
H10 C15 1_555 1_555
C16 C15 1_555 1_555
H11 C16 1_555 1_555
C17 C16 1_555 1_555
C18 C17 1_555 1_555
H12 C18 1_555 1_555
C19 C14 1_555 1_555
H13 C19 1_555 1_555
C20 O4 1_555 1_555
H14 C20 1_555 1_555
H15 C20 1_555 1_555
H16 C20 1_555 1_555
C5 C6 1_555 1_555
C7 C8 1_555 1_555
C12 C13 1_555 1_555
C18 C19 1_555 1_555

#END
