
#######################################################################
#
#                 Cambridge Crystallographic Data Centre
#                                CCDC 
#
#######################################################################
#
# If this CIF has been generated from an entry in the Cambridge 
# Structural Database, then it will include bibliographic, chemical, 
# crystal, experimental, refinement or atomic coordinate data resulting 
# from the CCDC's data processing and validation procedures.
#
#######################################################################

data_OXAXER
_chemical_formula_moiety         'C18 H15 Br1'
_chemical_name_systematic        
2-Bromo-4-(1-naphthyl)tricyclo[3.2.1.0^2,4^]oct-6-ene
_symmetry_cell_setting           monoclinic
_symmetry_space_group_name_H-M   'P 21/c'
_symmetry_Int_Tables_number      14
_space_group_name_Hall           '-P 2ybc'
loop_
_symmetry_equiv_pos_site_id
_symmetry_equiv_pos_as_xyz
1 x,y,z
2 -x,1/2+y,1/2-z
3 -x,-y,-z
4 x,1/2-y,1/2+z
_cell_length_a                   16.6907(9)
_cell_length_b                   6.8001(4)
_cell_length_c                   13.4921(10)
_cell_angle_alpha                90
_cell_angle_beta                 112.698(4)
_cell_angle_gamma                90
_cell_volume                     1412.73
_exptl_crystal_colour            colorless
_exptl_crystal_description       prism
_cell_formula_units_Z            4
_exptl_crystal_recrystallization_method hexane
loop_
_atom_site_label
_atom_site_type_symbol
_atom_site_fract_x
_atom_site_fract_y
_atom_site_fract_z
Br1 Br 0.06613(3) 0.34347(8) 0.22072(4)
C1 C 0.1200(2) 0.1827(5) 0.1469(3)
C2 C 0.1390(2) 0.2718(5) 0.0579(3)
H1 H 0.1301 0.4123 0.0463
H2 H 0.1262 0.1946 -0.0068
C3 C 0.2129(2) 0.2042(4) 0.1590(3)
C4 C 0.27836(19) 0.3460(4) 0.2293(3)
C5 C 0.2888(2) 0.3761(5) 0.3335(3)
H3 H 0.2514 0.3131 0.3595
C6 C 0.3542(2) 0.4993(5) 0.4032(3)
H4 H 0.3598 0.5164 0.4739
C7 C 0.4095(2) 0.5932(5) 0.3661(3)
H5 H 0.4524 0.6754 0.4118
C8 C 0.4022(2) 0.5671(4) 0.2597(3)
C9 C 0.33606(19) 0.4428(4) 0.1894(3)
C10 C 0.3329(2) 0.4159(5) 0.0844(3)
H6 H 0.2906 0.3337 0.0376
C11 C 0.3903(2) 0.5075(5) 0.0495(3)
H7 H 0.3865 0.4884 -0.0205
C12 C 0.4547(2) 0.6299(5) 0.1194(3)
H8 H 0.4936 0.6922 0.0956
C13 C 0.4608(2) 0.6585(5) 0.2213(3)
H9 H 0.5043 0.7395 0.2670
C14 C 0.1062(2) -0.0439(5) 0.1526(3)
H10 H 0.0564 -0.0841 0.1692
C15 C 0.1128(3) -0.1369(5) 0.0545(4)
H11 H 0.0676 -0.1942 -0.0025
C16 C 0.1940(3) -0.1222(5) 0.0640(4)
H12 H 0.2168 -0.1690 0.0156
C17 C 0.2430(2) -0.0161(5) 0.1673(3)
H13 H 0.3060 -0.0360 0.1966
C18 C 0.1960(3) -0.0982(6) 0.2362(4)
H14 H 0.2105 -0.0290 0.3038
H15 H 0.2040 -0.2387 0.2485
loop_
_geom_bond_atom_site_label_1
_geom_bond_atom_site_label_2
_geom_bond_site_symmetry_1
_geom_bond_site_symmetry_2
Br1 C1 1_555 1_555
C1 C2 1_555 1_555
C2 H1 1_555 1_555
H2 C2 1_555 1_555
C3 C1 1_555 1_555
C4 C3 1_555 1_555
C5 C4 1_555 1_555
H3 C5 1_555 1_555
C6 C5 1_555 1_555
H4 C6 1_555 1_555
C7 C6 1_555 1_555
H5 C7 1_555 1_555
C8 C7 1_555 1_555
C9 C4 1_555 1_555
C10 C9 1_555 1_555
H6 C10 1_555 1_555
C11 C10 1_555 1_555
H7 C11 1_555 1_555
C12 C11 1_555 1_555
H8 C12 1_555 1_555
C13 C8 1_555 1_555
H9 C13 1_555 1_555
C14 C1 1_555 1_555
H10 C14 1_555 1_555
C15 C14 1_555 1_555
H11 C15 1_555 1_555
C16 C15 1_555 1_555
H12 C16 1_555 1_555
C17 C3 1_555 1_555
H13 C17 1_555 1_555
C18 C14 1_555 1_555
H14 C18 1_555 1_555
H15 C18 1_555 1_555
C2 C3 1_555 1_555
C8 C9 1_555 1_555
C12 C13 1_555 1_555
C16 C17 1_555 1_555
C17 C18 1_555 1_555

#END
