
#######################################################################
#
#                 Cambridge Crystallographic Data Centre
#                                CCDC 
#
#######################################################################
#
# If this CIF has been generated from an entry in the Cambridge 
# Structural Database, then it will include bibliographic, chemical, 
# crystal, experimental, refinement or atomic coordinate data resulting 
# from the CCDC's data processing and validation procedures.
#
#######################################################################

data_OXAYAP
_chemical_formula_moiety         'C46 H48 O2,C1 H1 Cl3'
_chemical_name_systematic        
"3,6,11,16-tetra-t-butyl[1]benzofuro[3',2':3,4]triphenyleno[1,2-b][1]benzofuran chloroform solvate"
_symmetry_cell_setting           monoclinic
_symmetry_space_group_name_H-M   'P 21/m'
_symmetry_Int_Tables_number      11
_space_group_name_Hall           '-P 2yb'
loop_
_symmetry_equiv_pos_site_id
_symmetry_equiv_pos_as_xyz
1 x,y,z
2 -x,1/2+y,-z
3 -x,-y,-z
4 x,1/2-y,z
_cell_length_a                   16.4628(12)
_cell_length_b                   6.9001(5)
_cell_length_c                   18.9585(19)
_cell_angle_alpha                90
_cell_angle_beta                 111.283(4)
_cell_angle_gamma                90
_cell_volume                     2006.71
_exptl_crystal_colour            'pale yellow'
_exptl_crystal_description       'thin plate'
_cell_formula_units_Z            2
loop_
_atom_site_label
_atom_site_type_symbol
_atom_site_fract_x
_atom_site_fract_y
_atom_site_fract_z
C43 C 0.1560(7) 0.3166(19) 0.1631(6)
Cl1 Cl 0.08960(17) 0.2500 0.07310(14)
Cl2 Cl 0.26376(16) 0.2500 0.1852(2)
Cl3 Cl 0.1152(3) 0.2500 0.23035(18)
C43C C 0.1560(7) 0.1834(19) 0.1631(6)
O1 O 0.3109(3) 0.7500 0.5135(3)
O2 O 0.5391(3) 0.7500 0.3664(3)
C1 C 0.3691(5) 0.7500 0.5873(4)
C2 C 0.3453(5) 0.7500 0.6491(4)
H1 H 0.2856 0.7500 0.6435
C3 C 0.4105(5) 0.7500 0.7204(4)
C4 C 0.4967(6) 0.7500 0.7239(5)
H2 H 0.5420 0.7500 0.7724
C5 C 0.5195(5) 0.7500 0.6613(4)
H3 H 0.5792 0.7500 0.6668
C6 C 0.4549(5) 0.7500 0.5898(4)
C7 C 0.4486(5) 0.7500 0.5120(4)
C8 C 0.5082(5) 0.7500 0.4732(4)
C9 C 0.6020(5) 0.7500 0.4958(4)
C10 C 0.6748(5) 0.7500 0.5629(4)
H4 H 0.6681 0.7500 0.6106
C11 C 0.7553(5) 0.7500 0.5587(4)
H5 H 0.8045 0.7500 0.6046
C12 C 0.7700(5) 0.7500 0.4898(4)
C13 C 0.6977(5) 0.7500 0.4232(4)
H6 H 0.7039 0.7500 0.3753
C14 C 0.6166(5) 0.7500 0.4287(4)
C15 C 0.4733(5) 0.7500 0.3948(4)
C16 C 0.3836(5) 0.7500 0.3479(4)
C17 C 0.3510(5) 0.7500 0.2665(4)
C18 C 0.4072(5) 0.7500 0.2255(4)
H7 H 0.4684 0.7500 0.2525
C19 C 0.3766(5) 0.7500 0.1474(4)
H8 H 0.4167 0.7500 0.1219
C20 C 0.2852(5) 0.7500 0.1048(4)
C21 C 0.2320(5) 0.7500 0.1450(4)
H9 H 0.1708 0.7500 0.1178
C22 C 0.2616(5) 0.7500 0.2239(4)
C23 C 0.1999(5) 0.7500 0.2637(4)
C24 C 0.1089(4) 0.7500 0.2242(4)
H10 H 0.0882 0.7500 0.1704
C25 C 0.0480(5) 0.7500 0.2585(4)
C26 C 0.0796(5) 0.7500 0.3361(4)
H11 H 0.0390 0.7500 0.3611
C27 C 0.1665(5) 0.7500 0.3792(4)
H12 H 0.1847 0.7500 0.4328
C28 C 0.2306(5) 0.7500 0.3442(4)
C29 C 0.3247(4) 0.7500 0.3881(4)
C30 C 0.3595(5) 0.7500 0.4676(4)
C31 C 0.3884(4) 0.7500 0.7934(4)
C32 C 0.3439(9) 0.5515(15) 0.7900(7)
H13 H 0.2851 0.5552 0.7514
H14 H 0.3404 0.5225 0.8394
H15 H 0.3781 0.4507 0.7771
C33 C 0.4682(7) 0.7500 0.8655(6)
C34 C 0.8612(4) 0.7500 0.4868(3)
C35 C 0.8731(3) 0.5683(9) 0.4445(3)
H16 H 0.8625 0.4521 0.4696
H17 H 0.9328 0.5650 0.4448
H18 H 0.8318 0.5720 0.3921
C36 C 0.9336(4) 0.7500 0.5636(3)
C37 C 0.2543(4) 0.7500 0.0190(4)
C38 C 0.2879(4) 0.5669(9) -0.0081(3)
H19 H 0.3518 0.5672 0.0121
H20 H 0.2667 0.5656 -0.0635
H21 H 0.2667 0.4515 0.0100
C39 C 0.1559(4) 0.7500 -0.0184(4)
C40 C -0.0509(4) 0.7500 0.2124(3)
C41 C -0.0916(3) 0.5677(9) 0.2327(3)
H22 H -0.0678 0.4520 0.2172
H23 H -0.1550 0.5710 0.2063
H24 H -0.0780 0.5639 0.2874
C42 C -0.0732(5) 0.7500 0.1278(3)
C32C C 0.3439(9) 0.9485(15) 0.7900(7)
H13C H 0.2851 0.9448 0.7514
H14C H 0.3404 0.9775 0.8394
H15C H 0.3781 1.0493 0.7771
C35C C 0.8731(3) 0.9317(9) 0.4445(3)
H16C H 0.8625 1.0479 0.4696
H17C H 0.9328 0.9350 0.4448
H18C H 0.8318 0.9280 0.3921
C38C C 0.2879(4) 0.9331(9) -0.0081(3)
H19C H 0.3518 0.9328 0.0121
H20C H 0.2667 0.9344 -0.0635
H21C H 0.2667 1.0485 0.0100
C41C C -0.0916(3) 0.9323(9) 0.2327(3)
H22C H -0.0678 1.0480 0.2172
H23C H -0.1550 0.9290 0.2063
H24C H -0.0780 0.9361 0.2874
C44? C 0.4251(8) 0.5592(17) 0.8353(11)
H25? H 0.4172 0.5575 0.8840
H26? H 0.4874 0.5497 0.8438
H27? H 0.3942 0.4491 0.8045
C45? C 0.2918(6) 0.7500 0.7789(7)
H28? H 0.2659 0.6285 0.7541
H29? H 0.2641 0.6405 0.7461
H30? H 0.2829 0.7380 0.8271
H31? H 0.5071 0.6441 0.8638
H32? H 0.4504 0.7320 0.9091
H33? H 0.4989 0.8739 0.8704
H34? H -0.0403 0.8525 0.1143
H35? H -0.1358 0.7734 0.1022
H36? H -0.0580 0.6241 0.1120
H37? H 0.1327 0.6278 -0.0072
H38? H 0.1318 0.8585 0.0011
H39? H 0.1395 0.7636 -0.0733
H40? H 0.9227 0.6485 0.5952
H41? H 0.9894 0.7252 0.5576
H42? H 0.9358 0.8764 0.5878
loop_
_geom_bond_atom_site_label_1
_geom_bond_atom_site_label_2
_geom_bond_site_symmetry_1
_geom_bond_site_symmetry_2
O1 C1 1_555 1_555
O2 C14 1_555 1_555
C1 C2 1_555 1_555
C2 H1 1_555 1_555
C3 C2 1_555 1_555
C4 C3 1_555 1_555
H2 C4 1_555 1_555
C5 C4 1_555 1_555
H3 C5 1_555 1_555
C6 C1 1_555 1_555
C7 C6 1_555 1_555
C8 C7 1_555 1_555
C9 C8 1_555 1_555
C10 C9 1_555 1_555
H4 C10 1_555 1_555
C11 C10 1_555 1_555
H5 C11 1_555 1_555
C12 C11 1_555 1_555
C13 C12 1_555 1_555
H6 C13 1_555 1_555
C14 C9 1_555 1_555
C15 O2 1_555 1_555
C16 C15 1_555 1_555
C17 C16 1_555 1_555
C18 C17 1_555 1_555
H7 C18 1_555 1_555
C19 C18 1_555 1_555
H8 C19 1_555 1_555
C20 C19 1_555 1_555
C21 C20 1_555 1_555
H9 C21 1_555 1_555
C22 C17 1_555 1_555
C23 C22 1_555 1_555
C24 C23 1_555 1_555
H10 C24 1_555 1_555
C25 C24 1_555 1_555
C26 C25 1_555 1_555
H11 C26 1_555 1_555
C27 C26 1_555 1_555
H12 C27 1_555 1_555
C28 C23 1_555 1_555
C29 C16 1_555 1_555
C30 O1 1_555 1_555
C31 C3 1_555 1_555
C32 C31 1_555 1_555
H13 C32 1_555 1_555
H14 C32 1_555 1_555
H15 C32 1_555 1_555
C33 C31 1_555 1_555
C34 C12 1_555 1_555
C35 C34 1_555 1_555
H16 C35 1_555 1_555
H17 C35 1_555 1_555
H18 C35 1_555 1_555
C36 C34 1_555 1_555
C37 C20 1_555 1_555
C38 C37 1_555 1_555
H19 C38 1_555 1_555
H20 C38 1_555 1_555
H21 C38 1_555 1_555
C39 C37 1_555 1_555
C40 C25 1_555 1_555
C41 C40 1_555 1_555
H22 C41 1_555 1_555
H23 C41 1_555 1_555
H24 C41 1_555 1_555
C42 C40 1_555 1_555
C43 Cl1 1_555 1_555
Cl1 C43C 1_555 1_555
Cl2 C43 1_555 1_555
Cl3 C43 1_555 1_555
C32C C31 1_555 1_555
H13C C32C 1_555 1_555
H14C C32C 1_555 1_555
H15C C32C 1_555 1_555
C35C C34 1_555 1_555
H16C C35C 1_555 1_555
H17C C35C 1_555 1_555
H18C C35C 1_555 1_555
C38C C37 1_555 1_555
H19C C38C 1_555 1_555
H20C C38C 1_555 1_555
H21C C38C 1_555 1_555
C41C C40 1_555 1_555
H22C C41C 1_555 1_555
H23C C41C 1_555 1_555
H24C C41C 1_555 1_555
C43C C43 1_555 1_555
C5 C6 1_555 1_555
C7 C30 1_555 1_555
C8 C15 1_555 1_555
C13 C14 1_555 1_555
C21 C22 1_555 1_555
C27 C28 1_555 1_555
C28 C29 1_555 1_555
C29 C30 1_555 1_555
Cl2 C43C 1_555 1_555
Cl3 C43C 1_555 1_555

#END
