
#######################################################################
#
#                 Cambridge Crystallographic Data Centre
#                                CCDC 
#
#######################################################################
#
# If this CIF has been generated from an entry in the Cambridge 
# Structural Database, then it will include bibliographic, chemical, 
# crystal, experimental, refinement or atomic coordinate data resulting 
# from the CCDC's data processing and validation procedures.
#
#######################################################################

data_OXAYET
_chemical_formula_moiety         'C20 H34 O5'
_chemical_name_systematic        pimar-8(14)-ene-2,7,15,16,18-pentol
_symmetry_cell_setting           monoclinic
_symmetry_space_group_name_H-M   'P 21'
_symmetry_Int_Tables_number      4
_space_group_name_Hall           'P 2yb'
loop_
_symmetry_equiv_pos_site_id
_symmetry_equiv_pos_as_xyz
1 x,y,z
2 -x,1/2+y,-z
_cell_length_a                   9.0470(6)
_cell_length_b                   10.8408(6)
_cell_length_c                   9.7379(6)
_cell_angle_alpha                90
_cell_angle_beta                 99.231(3)
_cell_angle_gamma                90
_cell_volume                     942.693
_exptl_crystal_colour            colorless
_exptl_crystal_description       block
_cell_formula_units_Z            2
loop_
_atom_site_label
_atom_site_type_symbol
_atom_site_fract_x
_atom_site_fract_y
_atom_site_fract_z
O1 O 0.7952(2) 0.30284(18) 0.55870(19)
H1 H 0.8070 0.3778 0.5636
O2 O 0.1609(3) 0.19138(17) -0.35480(15)
H2 H 0.1477 0.2652 -0.3432
O3 O 0.14341(18) 0.06030(15) 0.40628(14)
O4 O 0.8736(3) -0.06538(19) 0.31335(19)
O5 O -0.0620(2) 0.17232(18) -0.18706(16)
H3 H -0.0902 0.1983 -0.2660
C1 C 0.0434(3) 0.0760(2) -0.1915(2)
H4 H 0.0039 0.0211 -0.2687
C2 C 0.0528(3) 0.0011(2) -0.0544(2)
C3 C 0.0815(3) 0.0838(2) 0.07283(18)
H5 H 0.0114 0.1453 0.0797
C4 C 0.1970(3) 0.0767(2) 0.17495(18)
C5 C 0.3330(3) -0.0043(2) 0.1709(2)
H6 H 0.3255 -0.0734 0.2343
C6 C 0.4826(3) 0.0646(2) 0.22717(19)
C7 C 0.4683(3) 0.10783(19) 0.37851(18)
H7 H 0.4298 0.0352 0.4212
C8 C 0.6125(3) 0.1429(2) 0.47984(19)
C9 C 0.7382(3) 0.0501(2) 0.4662(2)
H8 H 0.8318 0.0819 0.5162
H9 H 0.7169 -0.0267 0.5101
C10 C 0.6658(3) 0.2750(3) 0.4588(2)
H10 H 0.6897 0.2836 0.3657
H11 H 0.5863 0.3328 0.4687
C11 C 0.1887(3) 0.1307(3) -0.2226(2)
H12 H 0.2280 0.1892 -0.1507
H13 H 0.2623 0.0659 -0.2243
C12 C -0.1016(3) -0.0585(3) -0.0560(2)
H14 H -0.1769 0.0047 -0.0636
H15 H -0.1018 -0.1039 0.0286
H16 H -0.1227 -0.1134 -0.1340
C13 C 0.1727(3) -0.1005(2) -0.0408(2)
H17 H 0.1412 -0.1673 0.0142
H18 H 0.1777 -0.1329 -0.1328
C14 C 0.3296(3) -0.0600(2) 0.0254(2)
H19 H 0.3664 0.0007 -0.0341
H20 H 0.3963 -0.1306 0.0322
C15 C 0.1928(3) 0.1477(2) 0.30869(18)
H21 H 0.1187 0.2139 0.2901
C16 C 0.3416(3) 0.2029(2) 0.37070(19)
H22 H 0.3360 0.2332 0.4635
H23 H 0.3634 0.2723 0.3144
C17 C 0.5058(3) 0.1723(2) 0.1294(2)
H24 H 0.5360 0.1404 0.0462
H25 H 0.5821 0.2264 0.1754
H26 H 0.4138 0.2172 0.1058
C18 C 0.6145(3) -0.0259(2) 0.2356(2)
H27 H 0.5885 -0.1017 0.2788
H28 H 0.6309 -0.0456 0.1421
C19 C 0.7576(3) 0.0238(2) 0.3168(2)
H29 H 0.7845 0.1004 0.2733
C20 C 0.5775(3) 0.1338(3) 0.6306(2)
H30 H 0.5036 0.1943 0.6437
H31 H 0.6674 0.1484 0.6956
H32 H 0.5400 0.0529 0.6457
H33 H 0.154(3) 0.099(3) 0.484(3)
H34 H 0.952(4) -0.036(3) 0.332(3)
loop_
_geom_bond_atom_site_label_1
_geom_bond_atom_site_label_2
_geom_bond_site_symmetry_1
_geom_bond_site_symmetry_2
O1 H1 1_555 1_555
O2 H2 1_555 1_555
O3 C15 1_555 1_555
O4 C19 1_555 1_555
O5 H3 1_555 1_555
C1 O5 1_555 1_555
H4 C1 1_555 1_555
C2 C1 1_555 1_555
C3 C2 1_555 1_555
H5 C3 1_555 1_555
C4 C3 1_555 1_555
C5 C4 1_555 1_555
H6 C5 1_555 1_555
C6 C5 1_555 1_555
C7 C6 1_555 1_555
H7 C7 1_555 1_555
C8 C7 1_555 1_555
C9 C8 1_555 1_555
H8 C9 1_555 1_555
H9 C9 1_555 1_555
C10 O1 1_555 1_555
H10 C10 1_555 1_555
H11 C10 1_555 1_555
C11 O2 1_555 1_555
H12 C11 1_555 1_555
H13 C11 1_555 1_555
C12 C2 1_555 1_555
H14 C12 1_555 1_555
H15 C12 1_555 1_555
H16 C12 1_555 1_555
C13 C2 1_555 1_555
H17 C13 1_555 1_555
H18 C13 1_555 1_555
C14 C5 1_555 1_555
H19 C14 1_555 1_555
H20 C14 1_555 1_555
C15 C4 1_555 1_555
H21 C15 1_555 1_555
C16 C7 1_555 1_555
H22 C16 1_555 1_555
H23 C16 1_555 1_555
C17 C6 1_555 1_555
H24 C17 1_555 1_555
H25 C17 1_555 1_555
H26 C17 1_555 1_555
C18 C6 1_555 1_555
H27 C18 1_555 1_555
H28 C18 1_555 1_555
C19 C9 1_555 1_555
H29 C19 1_555 1_555
C20 C8 1_555 1_555
H30 C20 1_555 1_555
H31 C20 1_555 1_555
H32 C20 1_555 1_555
H33 O3 1_555 1_555
H34 O4 1_555 1_555
C1 C11 1_555 1_555
C8 C10 1_555 1_555
C13 C14 1_555 1_555
C15 C16 1_555 1_555
C18 C19 1_555 1_555

#END
