
#######################################################################
#
#                 Cambridge Crystallographic Data Centre
#                                CCDC 
#
#######################################################################
#
# If this CIF has been generated from an entry in the Cambridge 
# Structural Database, then it will include bibliographic, chemical, 
# crystal, experimental, refinement or atomic coordinate data resulting 
# from the CCDC's data processing and validation procedures.
#
#######################################################################

data_OXEDIG
_chemical_formula_moiety         'C15 H16 O2 S1'
_chemical_name_systematic        
2,4-dimethoxy-1-((4-methylphenyl)sulfanyl)benzene
_symmetry_cell_setting           monoclinic
_symmetry_space_group_name_H-M   'P 21/n'
_symmetry_Int_Tables_number      14
_space_group_name_Hall           '-P 2yn'
loop_
_symmetry_equiv_pos_site_id
_symmetry_equiv_pos_as_xyz
1 x,y,z
2 1/2-x,1/2+y,1/2-z
3 -x,-y,-z
4 1/2+x,1/2-y,1/2+z
_cell_length_a                   7.68603(16)
_cell_length_b                   23.9176(4)
_cell_length_c                   7.76261(17)
_cell_angle_alpha                90
_cell_angle_beta                 111.053(3)
_cell_angle_gamma                90
_cell_volume                     1331.76
_exptl_crystal_colour            colorless
_exptl_crystal_description       block
_cell_formula_units_Z            4
loop_
_atom_site_label
_atom_site_type_symbol
_atom_site_fract_x
_atom_site_fract_y
_atom_site_fract_z
S1 S 0.78479(4) 0.624768(13) 0.66078(4)
O1 O 0.78451(13) 0.60701(4) 1.03468(12)
O2 O 0.74528(14) 0.40890(4) 1.01458(13)
C1 C 0.56680(17) 0.65825(5) 0.61586(16)
C2 C 0.54684(18) 0.71194(5) 0.54073(17)
H1 H 0.6470 0.7285 0.5148
C3 C 0.38150(19) 0.74126(5) 0.50370(17)
H2 H 0.3696 0.7777 0.4520
C4 C 0.23280(18) 0.71803(5) 0.54127(17)
C5 C 0.25398(18) 0.66410(5) 0.61441(17)
H3 H 0.1531 0.6474 0.6388
C6 C 0.41845(18) 0.63429(5) 0.65248(17)
H4 H 0.4299 0.5977 0.7032
C7 C 0.05617(19) 0.75053(6) 0.50989(19)
H5 H 0.0657 0.7873 0.4582
H6 H 0.0378 0.7554 0.6276
H7 H -0.0499 0.7301 0.4235
C8 C 0.76172(17) 0.56036(5) 0.76138(18)
C9 C 0.76979(17) 0.55731(5) 0.94532(17)
C10 C 0.76147(18) 0.50593(5) 1.02400(17)
H8 H 0.7645 0.5039 1.1473
C11 C 0.74855(17) 0.45700(5) 0.92174(18)
C12 C 0.73886(18) 0.45910(5) 0.74009(18)
H9 H 0.7284 0.4258 0.6704
C13 C 0.74487(18) 0.51118(5) 0.66216(17)
H10 H 0.7372 0.5131 0.5374
C14 C 0.7832(2) 0.60571(6) 1.21832(18)
H11 H 0.7945 0.6439 1.2671
H12 H 0.8882 0.5832 1.2969
H13 H 0.6660 0.5892 1.2169
C15 C 0.7526(2) 0.35739(5) 0.9237(2)
H14 H 0.7492 0.3260 1.0035
H15 H 0.8682 0.3558 0.8977
H16 H 0.6454 0.3551 0.8076
loop_
_geom_bond_atom_site_label_1
_geom_bond_atom_site_label_2
_geom_bond_site_symmetry_1
_geom_bond_site_symmetry_2
S1 C1 1_555 1_555
O1 C9 1_555 1_555
O2 C11 1_555 1_555
C1 C2 1_555 1_555
C2 H1 1_555 1_555
C3 C2 1_555 1_555
H2 C3 1_555 1_555
C4 C3 1_555 1_555
C5 C4 1_555 1_555
H3 C5 1_555 1_555
C6 C1 1_555 1_555
H4 C6 1_555 1_555
C7 C4 1_555 1_555
H5 C7 1_555 1_555
H6 C7 1_555 1_555
H7 C7 1_555 1_555
C8 S1 1_555 1_555
C9 C8 1_555 1_555
C10 C9 1_555 1_555
H8 C10 1_555 1_555
C11 C10 1_555 1_555
C12 C11 1_555 1_555
H9 C12 1_555 1_555
C13 C8 1_555 1_555
H10 C13 1_555 1_555
C14 O1 1_555 1_555
H11 C14 1_555 1_555
H12 C14 1_555 1_555
H13 C14 1_555 1_555
C15 O2 1_555 1_555
H14 C15 1_555 1_555
H15 C15 1_555 1_555
H16 C15 1_555 1_555
C5 C6 1_555 1_555
C12 C13 1_555 1_555

#END
