
#######################################################################
#
#                 Cambridge Crystallographic Data Centre
#                                CCDC 
#
#######################################################################
#
# If this CIF has been generated from an entry in the Cambridge 
# Structural Database, then it will include bibliographic, chemical, 
# crystal, experimental, refinement or atomic coordinate data resulting 
# from the CCDC's data processing and validation procedures.
#
#######################################################################

data_OXEDEC
_chemical_formula_moiety         'C16 H18 O3 S1'
_chemical_name_systematic        
1,2,3-trimethoxy-5-((4-methylphenyl)sulfanyl)benzene
_symmetry_cell_setting           triclinic
_symmetry_space_group_name_H-M   'P -1'
_symmetry_Int_Tables_number      2
_space_group_name_Hall           '-P 1'
loop_
_symmetry_equiv_pos_site_id
_symmetry_equiv_pos_as_xyz
1 x,y,z
2 -x,-y,-z
_cell_length_a                   6.9478(5)
_cell_length_b                   9.1969(5)
_cell_length_c                   11.8012(10)
_cell_angle_alpha                82.206(6)
_cell_angle_beta                 81.643(7)
_cell_angle_gamma                75.220(6)
_cell_volume                     717.546
_exptl_crystal_colour            colorless
_exptl_crystal_description       block
_cell_formula_units_Z            2
loop_
_atom_site_label
_atom_site_type_symbol
_atom_site_fract_x
_atom_site_fract_y
_atom_site_fract_z
S1 S 0.43447(6) 0.71095(5) 1.04268(4)
O1 O 0.95897(18) 0.93408(15) 0.75707(11)
O2 O 0.83089(18) 0.85511(13) 0.57610(10)
O3 O 0.53312(18) 0.71622(14) 0.60189(10)
C1 C 0.6228(3) 0.6831(2) 1.13577(15)
C2 C 0.8068(3) 0.5786(2) 1.11504(15)
H1 H 0.8320 0.5222 1.0505
C3 C 0.9520(3) 0.5577(2) 1.18873(15)
H2 H 1.0778 0.4887 1.1730
C4 C 0.9160(3) 0.6368(2) 1.28582(15)
C5 C 0.7299(3) 0.7361(2) 1.30762(16)
H3 H 0.7009 0.7873 1.3751
C6 C 0.5852(3) 0.7616(2) 1.23204(15)
H4 H 0.4610 0.8328 1.2465
C7 C 1.0772(3) 0.6149(2) 1.36394(17)
H5 H 1.0271 0.6785 1.4272
H6 H 1.1953 0.6434 1.3200
H7 H 1.1139 0.5085 1.3953
C8 C 0.5628(3) 0.7529(2) 0.90534(15)
C9 C 0.7143(3) 0.8304(2) 0.89143(15)
H8 H 0.7549 0.8606 0.9563
C10 C 0.8048(3) 0.86279(19) 0.78110(15)
C11 C 0.7405(3) 0.8240(2) 0.68514(15)
C12 C 0.5851(3) 0.7491(2) 0.70046(15)
C13 C 0.4997(3) 0.7097(2) 0.81128(15)
H9 H 0.3996 0.6539 0.8223
C14 C 1.0346(3) 0.9707(2) 0.85301(16)
H10 H 0.9296 1.0442 0.8943
H11 H 1.1499 1.0143 0.8256
H12 H 1.0762 0.8789 0.9050
C15 C 0.7627(3) 1.0096(2) 0.53006(16)
H13 H 0.6159 1.0375 0.5382
H14 H 0.8144 1.0214 0.4484
H15 H 0.8113 1.0753 0.5721
C16 C 0.3726(3) 0.6415(2) 0.61329(16)
H16 H 0.4097 0.5433 0.6588
H17 H 0.3469 0.6264 0.5368
H18 H 0.2514 0.7039 0.6521
loop_
_geom_bond_atom_site_label_1
_geom_bond_atom_site_label_2
_geom_bond_site_symmetry_1
_geom_bond_site_symmetry_2
S1 C1 1_555 1_555
O1 C10 1_555 1_555
O2 C11 1_555 1_555
O3 C12 1_555 1_555
C1 C2 1_555 1_555
C2 H1 1_555 1_555
C3 C2 1_555 1_555
H2 C3 1_555 1_555
C4 C3 1_555 1_555
C5 C4 1_555 1_555
H3 C5 1_555 1_555
C6 C1 1_555 1_555
H4 C6 1_555 1_555
C7 C4 1_555 1_555
H5 C7 1_555 1_555
H6 C7 1_555 1_555
H7 C7 1_555 1_555
C8 S1 1_555 1_555
C9 C8 1_555 1_555
H8 C9 1_555 1_555
C10 C9 1_555 1_555
C11 C10 1_555 1_555
C12 C11 1_555 1_555
C13 C8 1_555 1_555
H9 C13 1_555 1_555
C14 O1 1_555 1_555
H10 C14 1_555 1_555
H11 C14 1_555 1_555
H12 C14 1_555 1_555
C15 O2 1_555 1_555
H13 C15 1_555 1_555
H14 C15 1_555 1_555
H15 C15 1_555 1_555
C16 O3 1_555 1_555
H16 C16 1_555 1_555
H17 C16 1_555 1_555
H18 C16 1_555 1_555
C5 C6 1_555 1_555
C12 C13 1_555 1_555

#END
