
#######################################################################
#
#                 Cambridge Crystallographic Data Centre
#                                CCDC 
#
#######################################################################
#
# If this CIF has been generated from an entry in the Cambridge 
# Structural Database, then it will include bibliographic, chemical, 
# crystal, experimental, refinement or atomic coordinate data resulting 
# from the CCDC's data processing and validation procedures.
#
#######################################################################

data_OXEFII
_chemical_formula_moiety         'C14 H8 N2 S2'
_chemical_name_systematic        4-((4-cyanophenyl)disulfanyl)benzonitrile
_symmetry_cell_setting           triclinic
_symmetry_space_group_name_H-M   'P -1'
_symmetry_Int_Tables_number      2
_space_group_name_Hall           '-P 1'
loop_
_symmetry_equiv_pos_site_id
_symmetry_equiv_pos_as_xyz
1 x,y,z
2 -x,-y,-z
_cell_length_a                   7.8232(4)
_cell_length_b                   11.6428(5)
_cell_length_c                   14.5818(7)
_cell_angle_alpha                84.863(4)
_cell_angle_beta                 83.654(4)
_cell_angle_gamma                73.557(4)
_cell_volume                     1263.68
_exptl_crystal_colour            colorless
_exptl_crystal_description       block
_cell_formula_units_Z            4
loop_
_atom_site_label
_atom_site_type_symbol
_atom_site_fract_x
_atom_site_fract_y
_atom_site_fract_z
S1 S 0.45901(16) 0.81825(11) 0.94515(8)
S2 S 0.48042(15) 0.64333(11) 0.92853(8)
N1 N 0.2875(6) 1.1396(4) 0.5093(3)
N2 N 1.4038(6) 0.3368(4) 0.8427(3)
C1 C 0.4218(6) 0.8928(4) 0.8332(3)
C2 C 0.4203(7) 0.8319(4) 0.7556(3)
H1 H 0.4405 0.7473 0.7600
C3 C 0.3891(7) 0.8965(4) 0.6718(3)
H2 H 0.3885 0.8560 0.6182
C4 C 0.3585(6) 1.0205(4) 0.6656(3)
C5 C 0.3609(7) 1.0798(4) 0.7440(3)
H3 H 0.3404 1.1644 0.7401
C6 C 0.3930(7) 1.0157(5) 0.8274(3)
H4 H 0.3954 1.0560 0.8808
C7 C 0.3212(6) 1.0868(4) 0.5785(3)
C8 C 0.7124(6) 0.5762(4) 0.8990(3)
C9 C 0.7585(7) 0.4578(4) 0.8738(3)
H5 H 0.6680 0.4196 0.8680
C10 C 0.9380(6) 0.3961(4) 0.8574(3)
H6 H 0.9713 0.3151 0.8409
C11 C 1.0688(6) 0.4539(4) 0.8653(3)
C12 C 1.0219(6) 0.5733(4) 0.8877(3)
H7 H 1.1118 0.6128 0.8909
C13 C 0.8423(6) 0.6340(4) 0.9052(3)
H8 H 0.8088 0.7151 0.9214
C14 C 1.2562(7) 0.3885(4) 0.8520(3)
S3 S 0.59607(15) 0.34027(11) 0.58604(8)
S4 S 0.73911(16) 0.17044(11) 0.55852(8)
N3 N 1.2240(6) 0.6591(4) 0.6544(3)
N4 N 0.9881(7) -0.1485(4) 0.9861(3)
C15 C 0.7594(6) 0.4155(4) 0.6016(3)
C16 C 0.9413(6) 0.3587(4) 0.5965(3)
H9 H 0.9846 0.2765 0.5835
C17 C 1.0594(6) 0.4233(4) 0.6104(3)
H10 H 1.1844 0.3853 0.6064
C18 C 0.9958(6) 0.5431(4) 0.6303(3)
C19 C 0.8119(7) 0.6004(4) 0.6354(3)
H11 H 0.7691 0.6827 0.6481
C20 C 0.6925(6) 0.5365(4) 0.6218(3)
H12 H 0.5674 0.5741 0.6261
C21 C 1.1214(7) 0.6088(4) 0.6437(3)
C22 C 0.7980(6) 0.0971(4) 0.6686(3)
C23 C 0.8762(7) -0.0253(4) 0.6693(3)
H13 H 0.8935 -0.0661 0.6140
C24 C 0.9290(7) -0.0878(4) 0.7512(4)
H14 H 0.9840 -0.1719 0.7522
C25 C 0.9014(6) -0.0275(4) 0.8323(3)
C26 C 0.8232(6) 0.0955(4) 0.8304(3)
H15 H 0.8048 0.1366 0.8857
C27 C 0.7719(6) 0.1583(4) 0.7486(3)
H16 H 0.7193 0.2426 0.7471
C28 C 0.9514(7) -0.0936(4) 0.9179(4)
loop_
_geom_bond_atom_site_label_1
_geom_bond_atom_site_label_2
_geom_bond_site_symmetry_1
_geom_bond_site_symmetry_2
S1 S2 1_555 1_555
S2 C8 1_555 1_555
N1 C7 1_555 1_555
N2 C14 1_555 1_555
C1 S1 1_555 1_555
C2 C1 1_555 1_555
H1 C2 1_555 1_555
C3 C2 1_555 1_555
H2 C3 1_555 1_555
C4 C3 1_555 1_555
C5 C4 1_555 1_555
H3 C5 1_555 1_555
C6 C1 1_555 1_555
H4 C6 1_555 1_555
C7 C4 1_555 1_555
C8 C9 1_555 1_555
C9 H5 1_555 1_555
C10 C9 1_555 1_555
H6 C10 1_555 1_555
C11 C10 1_555 1_555
C12 C11 1_555 1_555
H7 C12 1_555 1_555
C13 C8 1_555 1_555
H8 C13 1_555 1_555
C14 C11 1_555 1_555
S3 S4 1_555 1_555
S4 C22 1_555 1_555
N3 C21 1_555 1_555
N4 C28 1_555 1_555
C15 S3 1_555 1_555
C16 C15 1_555 1_555
H9 C16 1_555 1_555
C17 C16 1_555 1_555
H10 C17 1_555 1_555
C18 C17 1_555 1_555
C19 C18 1_555 1_555
H11 C19 1_555 1_555
C20 C15 1_555 1_555
H12 C20 1_555 1_555
C21 C18 1_555 1_555
C22 C23 1_555 1_555
C23 H13 1_555 1_555
C24 C23 1_555 1_555
H14 C24 1_555 1_555
C25 C24 1_555 1_555
C26 C25 1_555 1_555
H15 C26 1_555 1_555
C27 C22 1_555 1_555
H16 C27 1_555 1_555
C28 C25 1_555 1_555
C5 C6 1_555 1_555
C12 C13 1_555 1_555
C19 C20 1_555 1_555
C26 C27 1_555 1_555

#END
