
#######################################################################
#
#                 Cambridge Crystallographic Data Centre
#                                CCDC 
#
#######################################################################
#
# If this CIF has been generated from an entry in the Cambridge 
# Structural Database, then it will include bibliographic, chemical, 
# crystal, experimental, refinement or atomic coordinate data resulting 
# from the CCDC's data processing and validation procedures.
#
#######################################################################

data_OXEFEE
_chemical_formula_moiety         'C14 H11 N1 O1 S1'
_chemical_name_systematic        4-((4-methoxyphenyl)sulfanyl)benzonitrile
_symmetry_cell_setting           monoclinic
_symmetry_space_group_name_H-M   'P 21/n'
_symmetry_Int_Tables_number      14
_space_group_name_Hall           '-P 2yn'
loop_
_symmetry_equiv_pos_site_id
_symmetry_equiv_pos_as_xyz
1 x,y,z
2 1/2-x,1/2+y,1/2-z
3 -x,-y,-z
4 1/2+x,1/2-y,1/2+z
_cell_length_a                   5.67633(18)
_cell_length_b                   26.8781(8)
_cell_length_c                   7.7875(2)
_cell_angle_alpha                90
_cell_angle_beta                 95.042(3)
_cell_angle_gamma                90
_cell_volume                     1183.53
_exptl_crystal_colour            colorless
_exptl_crystal_description       block
_cell_formula_units_Z            4
loop_
_atom_site_label
_atom_site_type_symbol
_atom_site_fract_x
_atom_site_fract_y
_atom_site_fract_z
S1 S 0.98535(6) 0.727733(13) -0.08450(4)
O1 O 0.55172(19) 0.92160(4) 0.05991(14)
C1 C 0.8132(2) 0.67870(5) -0.01193(16)
C2 C 0.6092(2) 0.68504(5) 0.07342(17)
H1 H 0.5540 0.7176 0.0960
C3 C 0.4876(2) 0.64394(5) 0.12503(18)
H2 H 0.3484 0.6483 0.1828
C4 C 0.5678(3) 0.59599(5) 0.09287(18)
C5 C 0.7723(3) 0.58939(5) 0.00681(19)
H3 H 0.8278 0.5569 -0.0153
C6 C 0.8922(3) 0.63060(5) -0.04542(18)
H4 H 1.0300 0.6263 -0.1048
C7 C 0.4357(3) 0.55407(6) 0.14703(19)
N1 N 0.3242(3) 0.52138(5) 0.19056(19)
C8 C 0.8422(2) 0.78328(5) -0.02678(17)
C9 C 0.9727(2) 0.81721(6) 0.07661(17)
H5 H 1.1250 0.8081 0.1273
C10 C 0.8843(3) 0.86440(6) 0.10740(18)
H6 H 0.9773 0.8876 0.1758
C11 C 0.6586(3) 0.87724(5) 0.03704(17)
C12 C 0.5249(2) 0.84286(5) -0.06540(17)
H7 H 0.3702 0.8514 -0.1125
C13 C 0.6164(2) 0.79656(5) -0.09861(17)
H8 H 0.5258 0.7737 -0.1703
C14 C 0.6902(3) 0.95969(6) 0.1493(2)
H9 H 0.5936 0.9897 0.1576
H10 H 0.8274 0.9674 0.0860
H11 H 0.7442 0.9480 0.2653
loop_
_geom_bond_atom_site_label_1
_geom_bond_atom_site_label_2
_geom_bond_site_symmetry_1
_geom_bond_site_symmetry_2
S1 C1 1_555 1_555
O1 C11 1_555 1_555
C1 C2 1_555 1_555
C2 H1 1_555 1_555
C3 C2 1_555 1_555
H2 C3 1_555 1_555
C4 C3 1_555 1_555
C5 C4 1_555 1_555
H3 C5 1_555 1_555
C6 C1 1_555 1_555
H4 C6 1_555 1_555
C7 C4 1_555 1_555
N1 C7 1_555 1_555
C8 S1 1_555 1_555
C9 C8 1_555 1_555
H5 C9 1_555 1_555
C10 C9 1_555 1_555
H6 C10 1_555 1_555
C11 C10 1_555 1_555
C12 C11 1_555 1_555
H7 C12 1_555 1_555
C13 C8 1_555 1_555
H8 C13 1_555 1_555
C14 O1 1_555 1_555
H9 C14 1_555 1_555
H10 C14 1_555 1_555
H11 C14 1_555 1_555
C5 C6 1_555 1_555
C12 C13 1_555 1_555

#END
