
#######################################################################
#
#                 Cambridge Crystallographic Data Centre
#                                CCDC 
#
#######################################################################
#
# If this CIF has been generated from an entry in the Cambridge 
# Structural Database, then it will include bibliographic, chemical, 
# crystal, experimental, refinement or atomic coordinate data resulting 
# from the CCDC's data processing and validation procedures.
#
#######################################################################

data_OXEGOP
_chemical_formula_moiety         'C18 H15 Cl1 N2 O1'
_chemical_name_systematic        
5-(8-chlorophenanthridin-6-yl)-1-methylpyrrolidin-2-one
_symmetry_cell_setting           orthorhombic
_symmetry_space_group_name_H-M   'P b c a'
_symmetry_Int_Tables_number      61
_space_group_name_Hall           '-P 2ac 2ab'
loop_
_symmetry_equiv_pos_site_id
_symmetry_equiv_pos_as_xyz
1 x,y,z
2 1/2-x,-y,1/2+z
3 -x,1/2+y,1/2-z
4 1/2+x,1/2-y,-z
5 -x,-y,-z
6 1/2+x,y,1/2-z
7 x,1/2-y,1/2+z
8 1/2-x,1/2+y,z
_cell_length_a                   8.2579(5)
_cell_length_b                   16.2062(10)
_cell_length_c                   21.6169(13)
_cell_angle_alpha                90
_cell_angle_beta                 90
_cell_angle_gamma                90
_cell_volume                     2892.97
_exptl_crystal_description       Block
_cell_formula_units_Z            8
loop_
_atom_site_label
_atom_site_type_symbol
_atom_site_fract_x
_atom_site_fract_y
_atom_site_fract_z
Cl1 Cl 0.02774(6) 0.14413(3) 0.404749(17)
O1 O 0.2299(2) 0.13407(10) 0.80383(6)
N1 N 0.3517(2) -0.03351(9) 0.63795(6)
N2 N 0.1865(2) 0.07424(9) 0.70984(6)
C1 C 0.4204(2) -0.09944(11) 0.60685(8)
C2 C 0.5104(3) -0.15624(12) 0.64224(9)
H1 H 0.5205 -0.1485 0.6847
C3 C 0.5832(3) -0.22287(11) 0.61473(9)
H2 H 0.6442 -0.2594 0.6383
C4 C 0.5653(2) -0.23560(11) 0.55111(9)
H3 H 0.6140 -0.2810 0.5325
C5 C 0.4763(2) -0.18147(11) 0.51581(8)
H4 H 0.4647 -0.1910 0.4736
C6 C 0.4025(2) -0.11196(10) 0.54265(7)
C7 C 0.3116(2) -0.05122(10) 0.50805(7)
C8 C 0.2883(2) -0.05573(10) 0.44339(7)
H5 H 0.3311 -0.1001 0.4216
C9 C 0.2043(2) 0.00382(11) 0.41229(7)
H6 H 0.1909 0.0003 0.3696
C10 C 0.1384(2) 0.07010(10) 0.44522(7)
C11 C 0.1577(2) 0.07720(10) 0.50780(7)
H7 H 0.1138 0.1221 0.5287
C12 C 0.2444(2) 0.01620(10) 0.54059(7)
C13 C 0.2688(2) 0.02038(11) 0.60707(7)
C14 C 0.1982(2) 0.09195(11) 0.64390(7)
H8 H 0.0911 0.1063 0.6276
C15 C 0.3098(3) 0.16882(11) 0.64245(8)
H9 H 0.4195 0.1535 0.6313
H10 H 0.2703 0.2090 0.6128
C16 C 0.3042(3) 0.20359(12) 0.70784(8)
H11 H 0.4117 0.2194 0.7215
H12 H 0.2339 0.2515 0.7098
C17 C 0.2386(3) 0.13467(12) 0.74706(8)
C18 C 0.0981(3) 0.00414(13) 0.73371(8)
H13 H 0.1618 -0.0449 0.7286
H14 H -0.0020 -0.0016 0.7116
H15 H 0.0759 0.0124 0.7769
loop_
_geom_bond_atom_site_label_1
_geom_bond_atom_site_label_2
_geom_bond_site_symmetry_1
_geom_bond_site_symmetry_2
Cl1 C10 1_555 1_555
O1 C17 1_555 1_555
N1 C1 1_555 1_555
N2 C14 1_555 1_555
C1 C2 1_555 1_555
C2 H1 1_555 1_555
C3 C2 1_555 1_555
H2 C3 1_555 1_555
C4 C3 1_555 1_555
H3 C4 1_555 1_555
C5 C4 1_555 1_555
H4 C5 1_555 1_555
C6 C1 1_555 1_555
C7 C6 1_555 1_555
C8 C7 1_555 1_555
H5 C8 1_555 1_555
C9 C8 1_555 1_555
H6 C9 1_555 1_555
C10 C9 1_555 1_555
C11 C10 1_555 1_555
H7 C11 1_555 1_555
C12 C7 1_555 1_555
C13 N1 1_555 1_555
C14 C13 1_555 1_555
H8 C14 1_555 1_555
C15 C14 1_555 1_555
H9 C15 1_555 1_555
H10 C15 1_555 1_555
C16 C15 1_555 1_555
H11 C16 1_555 1_555
H12 C16 1_555 1_555
C17 N2 1_555 1_555
C18 N2 1_555 1_555
H13 C18 1_555 1_555
H14 C18 1_555 1_555
H15 C18 1_555 1_555
C5 C6 1_555 1_555
C11 C12 1_555 1_555
C12 C13 1_555 1_555
C16 C17 1_555 1_555

#END
