
#######################################################################
#
#                 Cambridge Crystallographic Data Centre
#                                CCDC 
#
#######################################################################
#
# If this CIF has been generated from an entry in the Cambridge 
# Structural Database, then it will include bibliographic, chemical, 
# crystal, experimental, refinement or atomic coordinate data resulting 
# from the CCDC's data processing and validation procedures.
#
#######################################################################

data_OXEJOR
_chemical_formula_moiety         'C19 H26 N2 O4'
_chemical_name_systematic        
syn-3-(3-Nitrophenyl)-3,3a,4,5,6,7,8,9,10,11,12,13-dodecahydrocyclododeca(c)isoxazole-1-oxide
_symmetry_cell_setting           monoclinic
_symmetry_space_group_name_H-M   'P 21/n'
_symmetry_Int_Tables_number      14
_space_group_name_Hall           '-P 2yn'
loop_
_symmetry_equiv_pos_site_id
_symmetry_equiv_pos_as_xyz
1 x,y,z
2 1/2-x,1/2+y,1/2-z
3 -x,-y,-z
4 1/2+x,1/2-y,1/2+z
_cell_length_a                   13.0697(3)
_cell_length_b                   7.7190(2)
_cell_length_c                   18.1460(5)
_cell_angle_alpha                90
_cell_angle_beta                 98.0780(10)
_cell_angle_gamma                90
_cell_volume                     1812.5
_exptl_crystal_colour            colorless
_exptl_crystal_description       prism
_cell_formula_units_Z            4
loop_
_atom_site_label
_atom_site_type_symbol
_atom_site_fract_x
_atom_site_fract_y
_atom_site_fract_z
C1 C 0.3148(2) 0.4233(4) 0.45663(18)
C2 C 0.3818(3) 0.3302(5) 0.5066(2)
H1 H 0.4185 0.3830 0.5482
C3 C 0.3931(3) 0.1561(5) 0.4933(2)
H2 H 0.4363 0.0892 0.5271
C4 C 0.3408(3) 0.0800(5) 0.4299(2)
H3 H 0.3508 -0.0369 0.4209
C5 C 0.2734(2) 0.1758(4) 0.37976(18)
C6 C 0.2595(2) 0.3500(4) 0.39359(18)
H4 H 0.2139 0.4165 0.3612
C7 C 0.2190(3) 0.0860(5) 0.31164(18)
H5 H 0.2691 0.0113 0.2916
C8 C 0.1223(2) -0.0232(4) 0.31983(17)
H6 H 0.1420 -0.1443 0.3300
C9 C 0.0605(3) 0.0452(5) 0.3805(2)
H7 H 0.1054 0.0433 0.4278
H8 H 0.0425 0.1652 0.3693
C10 C -0.0386(3) -0.0532(6) 0.3896(2)
H9 H -0.0781 0.0151 0.4206
H10 H -0.0800 -0.0649 0.3412
C11 C -0.0210(3) -0.2304(6) 0.4236(3)
H11 H 0.0169 -0.2181 0.4733
H12 H 0.0219 -0.2965 0.3943
C12 C -0.1201(4) -0.3324(8) 0.4286(3)
H13 H -0.1045 -0.4210 0.4664
H14 H -0.1698 -0.2541 0.4457
C13 C -0.1676(4) -0.4130(10) 0.3632(4)
H15 H -0.1899 -0.3215 0.3280
H16 H -0.2297 -0.4686 0.3753
C14 C -0.1104(4) -0.5482(6) 0.3215(3)
H17 H -0.0365 -0.5300 0.3340
H18 H -0.1259 -0.6630 0.3386
C15 C -0.1374(6) -0.5415(12) 0.2412(4)
H19 H -0.2115 -0.5590 0.2311
H20 H -0.1060 -0.6426 0.2218
C16 C -0.1146(4) -0.3962(7) 0.1948(3)
H21 H -0.1707 -0.3134 0.1931
H22 H -0.1140 -0.4388 0.1446
C17 C -0.0136(3) -0.3007(6) 0.2188(3)
H23 H 0.0055 -0.3149 0.2720
H24 H 0.0402 -0.3536 0.1945
C18 C -0.0181(3) -0.1128(6) 0.2011(2)
H25 H -0.0836 -0.0677 0.2120
H26 H -0.0168 -0.0990 0.1481
C19 C 0.0664(3) -0.0058(5) 0.24169(19)
N1 N 0.2983(2) 0.6069(4) 0.47208(17)
N2 N 0.0983(2) 0.1286(4) 0.20976(15)
O1 O 0.3573(3) 0.6768(4) 0.52140(16)
O2 O 0.2266(2) 0.6819(4) 0.43508(18)
O3 O 0.1827(2) 0.2145(3) 0.25588(13)
O4 O 0.0715(2) 0.1992(4) 0.14786(14)
loop_
_geom_bond_atom_site_label_1
_geom_bond_atom_site_label_2
_geom_bond_site_symmetry_1
_geom_bond_site_symmetry_2
C1 C2 1_555 1_555
C2 H1 1_555 1_555
C3 C2 1_555 1_555
H2 C3 1_555 1_555
C4 C3 1_555 1_555
H3 C4 1_555 1_555
C5 C4 1_555 1_555
C6 C1 1_555 1_555
H4 C6 1_555 1_555
C7 C5 1_555 1_555
H5 C7 1_555 1_555
C8 C7 1_555 1_555
H6 C8 1_555 1_555
C9 C8 1_555 1_555
H7 C9 1_555 1_555
H8 C9 1_555 1_555
C10 C9 1_555 1_555
H9 C10 1_555 1_555
H10 C10 1_555 1_555
C11 C10 1_555 1_555
H11 C11 1_555 1_555
H12 C11 1_555 1_555
C12 C11 1_555 1_555
H13 C12 1_555 1_555
H14 C12 1_555 1_555
C13 C12 1_555 1_555
H15 C13 1_555 1_555
H16 C13 1_555 1_555
C14 C13 1_555 1_555
H17 C14 1_555 1_555
H18 C14 1_555 1_555
C15 C14 1_555 1_555
H19 C15 1_555 1_555
H20 C15 1_555 1_555
C16 C15 1_555 1_555
H21 C16 1_555 1_555
H22 C16 1_555 1_555
C17 C16 1_555 1_555
H23 C17 1_555 1_555
H24 C17 1_555 1_555
C18 C17 1_555 1_555
H25 C18 1_555 1_555
H26 C18 1_555 1_555
C19 C8 1_555 1_555
N1 C1 1_555 1_555
N2 C19 1_555 1_555
O1 N1 1_555 1_555
O2 N1 1_555 1_555
O3 C7 1_555 1_555
O4 N2 1_555 1_555
C5 C6 1_555 1_555
C18 C19 1_555 1_555
N2 O3 1_555 1_555

#END
