
#######################################################################
#
#                 Cambridge Crystallographic Data Centre
#                                CCDC 
#
#######################################################################
#
# If this CIF has been generated from an entry in the Cambridge 
# Structural Database, then it will include bibliographic, chemical, 
# crystal, experimental, refinement or atomic coordinate data resulting 
# from the CCDC's data processing and validation procedures.
#
#######################################################################

data_OXEJIL
_chemical_formula_moiety         'C14 H16 N2 O4'
_chemical_name_systematic        
syn-3-(3-Nitrophenyl)-3a,4,5,6,7,8-hexahydro-3H-cyclohepta(c)isoxazole-1-oxide
_symmetry_cell_setting           triclinic
_symmetry_space_group_name_H-M   'P -1'
_symmetry_Int_Tables_number      2
_space_group_name_Hall           '-P 1'
loop_
_symmetry_equiv_pos_site_id
_symmetry_equiv_pos_as_xyz
1 x,y,z
2 -x,-y,-z
_cell_length_a                   6.3130(2)
_cell_length_b                   10.4530(3)
_cell_length_c                   20.3210(7)
_cell_angle_alpha                90.0380(10)
_cell_angle_beta                 90.0260(10)
_cell_angle_gamma                90.037(2)
_cell_volume                     1340.98
_exptl_crystal_colour            colorless
_exptl_crystal_description       prism
_cell_formula_units_Z            4
loop_
_atom_site_label
_atom_site_type_symbol
_atom_site_fract_x
_atom_site_fract_y
_atom_site_fract_z
C1 C -0.9304(3) 0.14408(18) 0.86531(10)
C2 C -0.8188(3) 0.24743(18) 0.84173(9)
H1 H -0.8663 0.3325 0.8491
C3 C -0.6354(3) 0.22301(18) 0.80703(10)
H2 H -0.5542 0.2921 0.7902
C4 C -0.5690(3) 0.09829(18) 0.79664(10)
H3 H -0.4428 0.0831 0.7725
C5 C -0.6840(3) -0.00531(17) 0.82102(9)
C6 C -0.8679(3) 0.01829(17) 0.85617(10)
H4 H -0.9493 -0.0502 0.8736
C7 C -0.5969(3) -0.13714(17) 0.80964(9)
H5 H -0.5221 -0.1380 0.7663
C8 C -0.4454(3) -0.19079(16) 0.86242(9)
H6 H -0.2960 -0.1652 0.8527
C9 C -0.5020(3) -0.15820(18) 0.93387(9)
H7 H -0.5170 -0.0642 0.9379
H8 H -0.6411 -0.1969 0.9444
C10 C -0.3405(3) -0.20395(19) 0.98422(10)
H9 H -0.3867 -0.1746 1.0283
H10 H -0.2034 -0.1618 0.9746
C11 C -0.3034(4) -0.3480(2) 0.98734(11)
H11 H -0.2176 -0.3671 1.0269
H12 H -0.4421 -0.3910 0.9928
C12 C -0.1923(3) -0.4058(2) 0.92733(11)
H13 H -0.1153 -0.4837 0.9413
H14 H -0.0862 -0.3438 0.9109
C13 C -0.3412(3) -0.44076(18) 0.87107(11)
H15 H -0.2565 -0.4709 0.8331
H16 H -0.4339 -0.5121 0.8852
C14 C -0.4760(3) -0.33068(17) 0.84978(9)
N1 N -1.1221(3) 0.16847(17) 0.90480(11)
N2 N -0.6560(3) -0.35022(15) 0.82180(8)
O1 O -1.2072(3) 0.07891(17) 0.93138(13)
O2 O -1.1876(3) 0.27740(16) 0.90857(12)
O3 O -0.7666(2) -0.23093(12) 0.80750(7)
O4 O -0.7571(3) -0.45030(13) 0.80695(9)
C15 C -0.4311(3) -0.64412(17) 0.63444(10)
C16 C -0.3188(3) -0.74756(17) 0.65847(10)
H17 H -0.3668 -0.8327 0.6514
C17 C -0.1356(3) -0.72327(19) 0.69289(10)
H18 H -0.0541 -0.7924 0.7096
C18 C -0.0688(3) -0.59819(18) 0.70337(10)
H19 H 0.0575 -0.5829 0.7276
C19 C -0.1836(3) -0.49475(17) 0.67899(9)
C20 C -0.3675(3) -0.51845(17) 0.64370(10)
H20 H -0.4485 -0.4498 0.6262
C21 C -0.0970(3) -0.36251(17) 0.69028(9)
H21 H -0.0218 -0.3616 0.7336
C22 C 0.0542(3) -0.30899(17) 0.63760(9)
H22 H 0.2035 -0.3347 0.6474
C23 C -0.0023(3) -0.34152(18) 0.56604(9)
H23 H -0.0180 -0.4354 0.5620
H24 H -0.1411 -0.3026 0.5555
C24 C 0.1592(3) -0.29640(19) 0.51565(11)
H25 H 0.1124 -0.3255 0.4716
H26 H 0.2960 -0.3388 0.5252
C25 C 0.1969(4) -0.1518(2) 0.51281(11)
H27 H 0.2825 -0.1326 0.4732
H28 H 0.0583 -0.1088 0.5074
C26 C 0.3082(3) -0.0943(2) 0.57257(12)
H29 H 0.3847 -0.0162 0.5587
H30 H 0.4147 -0.1562 0.5888
C27 C 0.1591(3) -0.05991(18) 0.62909(11)
H31 H 0.2442 -0.0302 0.6671
H32 H 0.0667 0.0116 0.6152
C28 C 0.0245(3) -0.16920(17) 0.65009(9)
N3 N -0.6225(3) -0.66853(17) 0.59510(11)
N4 N -0.1562(3) -0.14986(14) 0.67815(9)
O5 O -0.6874(3) -0.77785(16) 0.59104(12)
O6 O -0.7072(3) -0.57887(16) 0.56844(13)
O7 O -0.2664(2) -0.26904(12) 0.69263(7)
O8 O -0.2569(3) -0.05018(13) 0.69294(9)
loop_
_geom_bond_atom_site_label_1
_geom_bond_atom_site_label_2
_geom_bond_site_symmetry_1
_geom_bond_site_symmetry_2
C1 C2 1_555 1_555
C2 H1 1_555 1_555
C3 C2 1_555 1_555
H2 C3 1_555 1_555
C4 C3 1_555 1_555
H3 C4 1_555 1_555
C5 C4 1_555 1_555
C6 C1 1_555 1_555
H4 C6 1_555 1_555
C7 C5 1_555 1_555
H5 C7 1_555 1_555
C8 C7 1_555 1_555
H6 C8 1_555 1_555
C9 C8 1_555 1_555
H7 C9 1_555 1_555
H8 C9 1_555 1_555
C10 C9 1_555 1_555
H9 C10 1_555 1_555
H10 C10 1_555 1_555
C11 C10 1_555 1_555
H11 C11 1_555 1_555
H12 C11 1_555 1_555
C12 C11 1_555 1_555
H13 C12 1_555 1_555
H14 C12 1_555 1_555
C13 C12 1_555 1_555
H15 C13 1_555 1_555
H16 C13 1_555 1_555
C14 C8 1_555 1_555
N1 C1 1_555 1_555
N2 C14 1_555 1_555
O1 N1 1_555 1_555
O2 N1 1_555 1_555
O3 C7 1_555 1_555
O4 N2 1_555 1_555
C15 C16 1_555 1_555
C16 H17 1_555 1_555
C17 C16 1_555 1_555
H18 C17 1_555 1_555
C18 C17 1_555 1_555
H19 C18 1_555 1_555
C19 C18 1_555 1_555
C20 C15 1_555 1_555
H20 C20 1_555 1_555
C21 C19 1_555 1_555
H21 C21 1_555 1_555
C22 C21 1_555 1_555
H22 C22 1_555 1_555
C23 C22 1_555 1_555
H23 C23 1_555 1_555
H24 C23 1_555 1_555
C24 C23 1_555 1_555
H25 C24 1_555 1_555
H26 C24 1_555 1_555
C25 C24 1_555 1_555
H27 C25 1_555 1_555
H28 C25 1_555 1_555
C26 C25 1_555 1_555
H29 C26 1_555 1_555
H30 C26 1_555 1_555
C27 C26 1_555 1_555
H31 C27 1_555 1_555
H32 C27 1_555 1_555
C28 C22 1_555 1_555
N3 C15 1_555 1_555
N4 C28 1_555 1_555
O5 N3 1_555 1_555
O6 N3 1_555 1_555
O7 C21 1_555 1_555
O8 N4 1_555 1_555
C5 C6 1_555 1_555
C13 C14 1_555 1_555
N2 O3 1_555 1_555
C19 C20 1_555 1_555
C27 C28 1_555 1_555
N4 O7 1_555 1_555

#END
