
#######################################################################
#
#                 Cambridge Crystallographic Data Centre
#                                CCDC 
#
#######################################################################
#
# If this CIF has been generated from an entry in the Cambridge 
# Structural Database, then it will include bibliographic, chemical, 
# crystal, experimental, refinement or atomic coordinate data resulting 
# from the CCDC's data processing and validation procedures.
#
#######################################################################

data_OXEKOS
_chemical_formula_moiety         'C20 H22 Cl1 N1 O2 S1'
_chemical_name_systematic        
3-Chloro-1-((4-methylphenyl)sulfonyl)-5-(2-phenylvinyl)piperidine
_symmetry_cell_setting           monoclinic
_symmetry_space_group_name_H-M   'P 21/n'
_symmetry_Int_Tables_number      14
_space_group_name_Hall           '-P 2yn'
loop_
_symmetry_equiv_pos_site_id
_symmetry_equiv_pos_as_xyz
1 x,y,z
2 1/2-x,1/2+y,1/2-z
3 -x,-y,-z
4 1/2+x,1/2-y,1/2+z
_cell_length_a                   17.771(2)
_cell_length_b                   5.3370(8)
_cell_length_c                   20.316(3)
_cell_angle_alpha                90
_cell_angle_beta                 103.394(8)
_cell_angle_gamma                90
_cell_volume                     1874.44
_exptl_crystal_colour            colorless
_exptl_crystal_description       prism
_cell_formula_units_Z            4
loop_
_atom_site_label
_atom_site_type_symbol
_atom_site_fract_x
_atom_site_fract_y
_atom_site_fract_z
Cl1 Cl 0.38430(4) 0.53389(17) 0.11804(4)
S1 S 0.39998(4) -0.04176(13) 0.33598(4)
O1 O 0.33364(11) -0.1523(4) 0.29151(10)
O2 O 0.45770(12) -0.1972(4) 0.37788(10)
N1 N 0.44500(12) 0.1184(4) 0.28731(11)
C1 C 0.39576(16) 0.2802(5) 0.23545(13)
H1 H 0.3822 0.4362 0.2564
H2 H 0.3473 0.1919 0.2139
C2 C 0.44142(16) 0.3404(6) 0.18349(14)
H3 H 0.4538 0.1803 0.1627
C3 C 0.51675(16) 0.4751(6) 0.21475(14)
H4 H 0.5052 0.6402 0.2323
H5 H 0.5463 0.5037 0.1797
C4 C 0.56579(16) 0.3188(6) 0.27279(14)
H6 H 0.5833 0.1630 0.2534
C5 C 0.51699(15) 0.2446(5) 0.32291(14)
H7 H 0.5472 0.1307 0.3576
H8 H 0.5040 0.3962 0.3461
C6 C 0.63541(16) 0.4610(6) 0.30981(14)
H9 H 0.6270 0.6086 0.3332
C7 C 0.70781(16) 0.3955(6) 0.31220(14)
H10 H 0.7147 0.2572 0.2848
C8 C 0.77930(16) 0.5121(5) 0.35253(13)
C9 C 0.77977(17) 0.7257(6) 0.39208(15)
H11 H 0.7326 0.8112 0.3908
C10 C 0.84740(18) 0.8158(6) 0.43308(15)
H12 H 0.8465 0.9607 0.4600
C11 C 0.91691(18) 0.6931(6) 0.43478(15)
H13 H 0.9637 0.7535 0.4630
C12 C 0.91758(17) 0.4842(6) 0.39535(16)
H14 H 0.9649 0.4002 0.3963
C13 C 0.84960(16) 0.3960(6) 0.35443(15)
H15 H 0.8510 0.2527 0.3270
C14 C 0.36797(15) 0.1764(5) 0.38837(13)
C15 C 0.29642(16) 0.2911(6) 0.36609(14)
H16 H 0.2634 0.2450 0.3240
C16 C 0.27395(17) 0.4729(6) 0.40590(14)
H17 H 0.2249 0.5508 0.3908
C17 C 0.32149(16) 0.5454(5) 0.46785(14)
C18 C 0.39189(16) 0.4257(5) 0.48964(14)
H18 H 0.4243 0.4691 0.5322
C19 C 0.41589(16) 0.2436(5) 0.45048(13)
H19 H 0.4647 0.1647 0.4658
C20 C 0.29619(18) 0.7523(6) 0.50856(15)
H20 H 0.3372 0.7854 0.5490
H21 H 0.2490 0.7012 0.5221
H22 H 0.2859 0.9046 0.4810
loop_
_geom_bond_atom_site_label_1
_geom_bond_atom_site_label_2
_geom_bond_site_symmetry_1
_geom_bond_site_symmetry_2
Cl1 C2 1_555 1_555
S1 O1 1_555 1_555
O2 S1 1_555 1_555
N1 S1 1_555 1_555
C1 N1 1_555 1_555
H1 C1 1_555 1_555
H2 C1 1_555 1_555
C2 C1 1_555 1_555
H3 C2 1_555 1_555
C3 C2 1_555 1_555
H4 C3 1_555 1_555
H5 C3 1_555 1_555
C4 C3 1_555 1_555
H6 C4 1_555 1_555
C5 N1 1_555 1_555
H7 C5 1_555 1_555
H8 C5 1_555 1_555
C6 C4 1_555 1_555
H9 C6 1_555 1_555
C7 C6 1_555 1_555
H10 C7 1_555 1_555
C8 C7 1_555 1_555
C9 C8 1_555 1_555
H11 C9 1_555 1_555
C10 C9 1_555 1_555
H12 C10 1_555 1_555
C11 C10 1_555 1_555
H13 C11 1_555 1_555
C12 C11 1_555 1_555
H14 C12 1_555 1_555
C13 C8 1_555 1_555
H15 C13 1_555 1_555
C14 S1 1_555 1_555
C15 C14 1_555 1_555
H16 C15 1_555 1_555
C16 C15 1_555 1_555
H17 C16 1_555 1_555
C17 C16 1_555 1_555
C18 C17 1_555 1_555
H18 C18 1_555 1_555
C19 C14 1_555 1_555
H19 C19 1_555 1_555
C20 C17 1_555 1_555
H20 C20 1_555 1_555
H21 C20 1_555 1_555
H22 C20 1_555 1_555
C4 C5 1_555 1_555
C12 C13 1_555 1_555
C18 C19 1_555 1_555

#END
