
#######################################################################
#
#                 Cambridge Crystallographic Data Centre
#                                CCDC 
#
#######################################################################
#
# If this CIF has been generated from an entry in the Cambridge 
# Structural Database, then it will include bibliographic, chemical, 
# crystal, experimental, refinement or atomic coordinate data resulting 
# from the CCDC's data processing and validation procedures.
#
#######################################################################

data_OXENAH
_chemical_formula_moiety         'C18 H22 N2 O4'
_chemical_name_systematic        
2,3-Dimethoxy-8a-methyl-5,6,9,10,13,13a-hexahydro-8H-pyrrolo[1',2':4,5]pyrazino[2,1-a]isoquinoline-8,11(8aH)-dione
_symmetry_cell_setting           monoclinic
_symmetry_space_group_name_H-M   'P 21/c'
_symmetry_Int_Tables_number      14
_space_group_name_Hall           '-P 2ybc'
loop_
_symmetry_equiv_pos_site_id
_symmetry_equiv_pos_as_xyz
1 x,y,z
2 -x,1/2+y,1/2-z
3 -x,-y,-z
4 x,1/2-y,1/2+z
_cell_length_a                   10.2111(2)
_cell_length_b                   13.3943(3)
_cell_length_c                   12.6770(3)
_cell_angle_alpha                90
_cell_angle_beta                 108.913(1)
_cell_angle_gamma                90
_cell_volume                     1640.23
_exptl_crystal_colour            colorless
_cell_formula_units_Z            4
loop_
_atom_site_label
_atom_site_type_symbol
_atom_site_fract_x
_atom_site_fract_y
_atom_site_fract_z
O1 O 0.75211(11) 0.10588(7) 0.37164(9)
O2 O 0.57414(11) 0.19411(7) 0.44147(9)
O3 O 0.70716(19) 0.53638(11) 0.57072(11)
O4 O 0.88762(14) 0.65924(9) 0.21021(12)
N1 N 0.71012(12) 0.55582(8) 0.19992(9)
N2 N 0.71498(12) 0.60709(8) 0.40872(9)
C1 C 0.72547(13) 0.20263(9) 0.33746(10)
C2 C 0.62870(13) 0.25145(10) 0.37693(10)
C3 C 0.59428(13) 0.34950(10) 0.34783(11)
C4 C 0.65395(12) 0.40148(9) 0.27881(10)
C5 C 0.74681(13) 0.35253(10) 0.23724(10)
C6 C 0.78255(13) 0.25315(10) 0.26817(11)
C7 C 0.8534(2) 0.05371(14) 0.3391(2)
C8 C 0.4849(2) 0.24162(14) 0.49129(17)
C9 C 0.60900(14) 0.50851(10) 0.24412(11)
C10 C 0.73254(19) 0.49772(12) 0.10892(12)
C11 C 0.80998(16) 0.40340(11) 0.15816(12)
C12 C 0.58404(14) 0.57422(10) 0.33357(12)
C13 C 0.80437(15) 0.66592(11) 0.36402(13)
C14 C 0.80342(15) 0.62596(10) 0.25144(13)
C15 C 0.7683(2) 0.58280(12) 0.51794(13)
C16 C 0.9119(2) 0.62593(18) 0.55919(18)
C17 C 0.94698(19) 0.65063(18) 0.4544(2)
C18 C 0.7621(2) 0.77615(12) 0.3512(2)
H1 H 0.5272(15) 0.3822(10) 0.3744(12)
H2 H 0.8488(15) 0.2192(11) 0.2404(12)
H3 H 0.816(2) 0.0447(17) 0.259(2)
H4 H 0.862(2) -0.0101(17) 0.3773(17)
H5 H 0.942(2) 0.0944(18) 0.3589(19)
H6 H 0.5320(18) 0.2994(15) 0.5363(15)
H7 H 0.463(2) 0.1918(15) 0.5398(17)
H8 H 0.401(2) 0.2649(13) 0.4344(15)
H9 H 0.5218(15) 0.5071(10) 0.1827(12)
H10 H 0.7814(18) 0.5397(13) 0.0719(15)
H11 H 0.6390(18) 0.4810(12) 0.0549(14)
H12 H 0.9115(18) 0.4219(12) 0.1985(14)
H13 H 0.8120(16) 0.3563(12) 0.0982(14)
H14 H 0.5306(16) 0.6334(12) 0.2988(13)
H15 H 0.5326(15) 0.5396(11) 0.3766(12)
H16 H 0.981(3) 0.5791(19) 0.606(2)
H17 H 0.910(2) 0.6848(17) 0.6041(18)
H18 H 0.994(2) 0.5962(17) 0.4319(17)
H19 H 1.004(2) 0.7114(19) 0.4592(19)
H20 H 0.820(2) 0.8103(15) 0.3153(16)
H21 H 0.780(2) 0.8038(15) 0.4248(18)
H22 H 0.661(2) 0.7828(16) 0.3068(18)
loop_
_geom_bond_atom_site_label_1
_geom_bond_atom_site_label_2
_geom_bond_site_symmetry_1
_geom_bond_site_symmetry_2
O1 C1 1_555 1_555
O2 C2 1_555 1_555
O3 C15 1_555 1_555
O4 C14 1_555 1_555
N1 C9 1_555 1_555
N2 C12 1_555 1_555
C1 C2 1_555 1_555
C2 C3 1_555 1_555
C3 C4 1_555 1_555
C4 C5 1_555 1_555
C5 C6 1_555 1_555
C6 C1 1_555 1_555
C7 O1 1_555 1_555
C8 O2 1_555 1_555
C9 C4 1_555 1_555
C10 N1 1_555 1_555
C11 C5 1_555 1_555
C12 C9 1_555 1_555
C13 N2 1_555 1_555
C14 N1 1_555 1_555
C15 N2 1_555 1_555
C16 C15 1_555 1_555
C17 C13 1_555 1_555
C18 C13 1_555 1_555
H1 C3 1_555 1_555
H2 C6 1_555 1_555
H3 C7 1_555 1_555
H4 C7 1_555 1_555
H5 C7 1_555 1_555
H6 C8 1_555 1_555
H7 C8 1_555 1_555
H8 C8 1_555 1_555
H9 C9 1_555 1_555
H10 C10 1_555 1_555
H11 C10 1_555 1_555
H12 C11 1_555 1_555
H13 C11 1_555 1_555
H14 C12 1_555 1_555
H15 C12 1_555 1_555
H16 C16 1_555 1_555
H17 C16 1_555 1_555
H18 C17 1_555 1_555
H19 C17 1_555 1_555
H20 C18 1_555 1_555
H21 C18 1_555 1_555
H22 C18 1_555 1_555
C10 C11 1_555 1_555
C13 C14 1_555 1_555
C16 C17 1_555 1_555

#END
