
#######################################################################
#
#                 Cambridge Crystallographic Data Centre
#                                CCDC 
#
#######################################################################
#
# If this CIF has been generated from an entry in the Cambridge 
# Structural Database, then it will include bibliographic, chemical, 
# crystal, experimental, refinement or atomic coordinate data resulting 
# from the CCDC's data processing and validation procedures.
#
#######################################################################

data_OXEPEN
_chemical_formula_moiety         'C26 H34 I2 Mg2 N4 O2'
_chemical_name_systematic        
bis(\m~2~-2-Phenylpropan-2-oxo)-di-iodo-tetrakis(acetonitrile)-di-magnesium
_symmetry_cell_setting           monoclinic
_symmetry_space_group_name_H-M   'P 21/c'
_symmetry_Int_Tables_number      14
_space_group_name_Hall           '-P 2ybc'
loop_
_symmetry_equiv_pos_site_id
_symmetry_equiv_pos_as_xyz
1 x,y,z
2 -x,1/2+y,1/2-z
3 -x,-y,-z
4 x,1/2-y,1/2+z
_cell_length_a                   14.4072(8)
_cell_length_b                   11.4588(9)
_cell_length_c                   20.6233(11)
_cell_angle_alpha                90
_cell_angle_beta                 107.010(4)
_cell_angle_gamma                90
_cell_volume                     3255.74
_exptl_crystal_colour            colorless
_exptl_crystal_description       cube
_cell_formula_units_Z            4
loop_
_atom_site_label
_atom_site_type_symbol
_atom_site_fract_x
_atom_site_fract_y
_atom_site_fract_z
Mg1 Mg 0.23807(6) 0.06332(7) 0.23382(4)
Mg2 Mg 0.21214(6) 0.28141(7) 0.15476(4)
I1 I 0.222995(13) -0.167127(15) 0.196746(9)
I2 I 0.287891(14) 0.079867(18) 0.373914(9)
N1 N 0.30142(17) 0.4091(2) 0.11766(12)
N2 N 0.18028(17) 0.2142(2) 0.05026(12)
N3 N 0.09620(17) 0.4143(2) 0.11331(12)
N4 N 0.24633(17) 0.4003(2) 0.24431(12)
O1 O 0.31665(12) 0.16364(15) 0.19548(9)
O2 O 0.13157(11) 0.16492(15) 0.18777(8)
C1 C 0.41967(17) 0.1663(2) 0.21046(13)
C2 C 0.4611(2) 0.0497(2) 0.24198(17)
C3 C 0.4599(2) 0.2630(3) 0.26130(17)
C4 C 0.03739(17) 0.1717(2) 0.19656(13)
C5 C 0.0372(2) 0.2673(3) 0.24800(15)
C6 C 0.0134(2) 0.0547(2) 0.22396(15)
C7 C 0.3444(2) 0.4724(2) 0.09585(14)
C8 C 0.4010(3) 0.5521(4) 0.0671(2)
C9 C 0.1748(2) 0.1774(3) -0.00151(15)
C10 C 0.1678(4) 0.1300(4) -0.06827(19)
C11 C 0.0477(2) 0.4930(3) 0.09966(14)
C12 C -0.0134(4) 0.5980(4) 0.0835(2)
C13 C 0.26919(19) 0.4712(2) 0.28419(14)
C14 C 0.2998(3) 0.5642(3) 0.3339(2)
C15 C 0.44647(19) 0.1805(2) 0.14421(15)
C16 C 0.5121(2) 0.2646(3) 0.13545(18)
C17 C 0.5357(3) 0.2730(4) 0.0754(2)
C18 C 0.4961(3) 0.1986(4) 0.0237(2)
C19 C 0.4317(3) 0.1131(4) 0.0307(2)
C20 C 0.4068(2) 0.1043(3) 0.09141(16)
C21 C -0.03828(17) 0.1928(2) 0.12798(13)
C22 C -0.0289(2) 0.1356(2) 0.07062(14)
C23 C -0.0972(2) 0.1489(3) 0.00801(16)
C24 C -0.1769(3) 0.2192(4) 0.00121(18)
C25 C -0.1872(3) 0.2768(4) 0.05808(19)
C26 C -0.1192(2) 0.2640(3) 0.12048(16)
H1 H 0.546(3) 0.320(3) 0.1765(18)
H2 H 0.580(3) 0.329(4) 0.068(2)
H3 H 0.514(4) 0.200(4) -0.021(3)
H4 H 0.407(3) 0.053(4) 0.003(2)
H5 H 0.367(2) 0.047(2) 0.0968(13)
H6 H 0.024(2) 0.089(3) 0.0747(14)
H7 H -0.092(3) 0.110(3) -0.0322(19)
H8 H -0.224(3) 0.236(4) -0.041(2)
H9 H -0.240(3) 0.325(4) 0.053(2)
H10 H -0.127(3) 0.305(3) 0.159(2)
H11 H 0.440(2) -0.014(3) 0.2148(14)
H12 H 0.436(2) 0.338(3) 0.2415(15)
H13 H 0.088(2) 0.257(3) 0.2871(17)
H14 H 0.014(2) -0.008(3) 0.1929(15)
H15 H 0.470(3) 0.545(4) 0.091(2)
H16 H 0.103(3) 0.129(4) -0.095(2)
H17 H -0.072(4) 0.575(4) 0.086(3)
H18 H 0.356(3) 0.545(4) 0.360(2)
H19 H 0.445(2) 0.036(3) 0.2824(16)
H20 H 0.437(2) 0.252(3) 0.3003(17)
H21 H 0.049(2) 0.342(3) 0.2321(15)
H22 H -0.051(2) 0.058(3) 0.2314(15)
H23 H 0.384(3) 0.624(4) 0.078(2)
H24 H 0.183(3) 0.050(4) -0.063(2)
H25 H 0.019(5) 0.660(6) 0.120(3)
H26 H 0.302(3) 0.633(4) 0.311(2)
H27 H 0.533(2) 0.049(2) 0.2534(15)
H28 H 0.531(3) 0.266(3) 0.2756(16)
H29 H -0.020(2) 0.268(3) 0.2608(15)
H30 H 0.059(2) 0.039(3) 0.2683(16)
H31 H 0.396(4) 0.535(4) 0.021(3)
H32 H 0.212(3) 0.174(4) -0.085(2)
H33 H -0.018(4) 0.624(5) 0.041(3)
H34 H 0.254(4) 0.573(4) 0.360(2)
loop_
_geom_bond_atom_site_label_1
_geom_bond_atom_site_label_2
_geom_bond_site_symmetry_1
_geom_bond_site_symmetry_2
Mg1 I1 1_555 1_555
Mg2 N1 1_555 1_555
I2 Mg1 1_555 1_555
N1 C7 1_555 1_555
N2 Mg2 1_555 1_555
N3 Mg2 1_555 1_555
N4 Mg2 1_555 1_555
O1 Mg1 1_555 1_555
O2 Mg1 1_555 1_555
C1 O1 1_555 1_555
C2 C1 1_555 1_555
C3 C1 1_555 1_555
C4 O2 1_555 1_555
C5 C4 1_555 1_555
C6 C4 1_555 1_555
C7 C8 1_555 1_555
C8 H15 1_555 1_555
C9 N2 1_555 1_555
C10 C9 1_555 1_555
C11 N3 1_555 1_555
C12 C11 1_555 1_555
C13 N4 1_555 1_555
C14 C13 1_555 1_555
C15 C1 1_555 1_555
C16 C15 1_555 1_555
C17 C16 1_555 1_555
C18 C17 1_555 1_555
C19 C18 1_555 1_555
C20 C15 1_555 1_555
C21 C4 1_555 1_555
C22 C21 1_555 1_555
C23 C22 1_555 1_555
C24 C23 1_555 1_555
C25 C24 1_555 1_555
C26 C21 1_555 1_555
H1 C16 1_555 1_555
H2 C17 1_555 1_555
H3 C18 1_555 1_555
H4 C19 1_555 1_555
H5 C20 1_555 1_555
H6 C22 1_555 1_555
H7 C23 1_555 1_555
H8 C24 1_555 1_555
H9 C25 1_555 1_555
H10 C26 1_555 1_555
H11 C2 1_555 1_555
H12 C3 1_555 1_555
H13 C5 1_555 1_555
H14 C6 1_555 1_555
H16 C10 1_555 1_555
H17 C12 1_555 1_555
H18 C14 1_555 1_555
H19 C2 1_555 1_555
H20 C3 1_555 1_555
H21 C5 1_555 1_555
H22 C6 1_555 1_555
H23 C8 1_555 1_555
H24 C10 1_555 1_555
H25 C12 1_555 1_555
H26 C14 1_555 1_555
H27 C2 1_555 1_555
H28 C3 1_555 1_555
H29 C5 1_555 1_555
H30 C6 1_555 1_555
H31 C8 1_555 1_555
H32 C10 1_555 1_555
H33 C12 1_555 1_555
H34 C14 1_555 1_555
Mg2 O1 1_555 1_555
Mg2 O2 1_555 1_555
C19 C20 1_555 1_555
C25 C26 1_555 1_555

#END
