
#######################################################################
#
#                 Cambridge Crystallographic Data Centre
#                                CCDC 
#
#######################################################################
#
# If this CIF has been generated from an entry in the Cambridge 
# Structural Database, then it will include bibliographic, chemical, 
# crystal, experimental, refinement or atomic coordinate data resulting 
# from the CCDC's data processing and validation procedures.
#
#######################################################################

data_OXIBIH
_chemical_formula_moiety         'C60 H50 O4 Si2'
_chemical_name_systematic        
"(2,2'-bis(methoxymethoxy)-1,1'-binaphthalene-3,3'-diyl)bis(triphenylsilane) unknown solvate"
_symmetry_cell_setting           orthorhombic
_symmetry_space_group_name_H-M   'P 21 21 21'
_symmetry_Int_Tables_number      19
_space_group_name_Hall           'P 2ac 2ab'
loop_
_symmetry_equiv_pos_site_id
_symmetry_equiv_pos_as_xyz
1 x,y,z
2 1/2-x,-y,1/2+z
3 -x,1/2+y,1/2-z
4 1/2+x,1/2-y,-z
_cell_length_a                   9.9481(4)
_cell_length_b                   17.2684(6)
_cell_length_c                   31.2989(12)
_cell_angle_alpha                90
_cell_angle_beta                 90
_cell_angle_gamma                90
_cell_volume                     5376.77
_exptl_crystal_colour            colorless
_exptl_crystal_description       block
_cell_formula_units_Z            4
loop_
_atom_site_label
_atom_site_type_symbol
_atom_site_fract_x
_atom_site_fract_y
_atom_site_fract_z
Si1 Si 0.62002(7) 0.61770(4) 0.11346(2)
Si2 Si 0.97072(7) 0.50677(4) 0.36095(2)
O1 O 0.83570(19) 0.60768(11) 0.17554(5)
O2 O 0.9882(2) 0.65082(13) 0.22701(7)
O3 O 0.78596(17) 0.50474(11) 0.28807(6)
O4 O 0.5708(2) 0.47582(14) 0.30671(8)
C1 C 0.7875(2) 0.53294(15) 0.17140(8)
C2 C 0.6911(2) 0.52696(15) 0.13819(8)
C3 C 0.6431(3) 0.45464(16) 0.12809(8)
H1 H 0.5782 0.4495 0.1060
C4 C 0.6880(3) 0.38756(16) 0.14976(8)
C5 C 0.6400(3) 0.31275(16) 0.13906(9)
H2 H 0.5758 0.3075 0.1168
C6 C 0.6831(3) 0.24887(17) 0.15967(10)
H3 H 0.6488 0.1994 0.1521
C7 C 0.7795(3) 0.25568(17) 0.19262(10)
H4 H 0.8112 0.2107 0.2069
C8 C 0.8266(3) 0.32650(17) 0.20385(9)
H5 H 0.8917 0.3303 0.2260
C9 C 0.7812(3) 0.39529(16) 0.18347(8)
C10 C 0.8309(3) 0.46980(15) 0.19482(8)
C11 C 0.9370(3) 0.47498(15) 0.22871(8)
C12 C 1.0746(3) 0.46376(16) 0.21572(8)
C13 C 1.1099(3) 0.44996(16) 0.17240(8)
H6 H 1.0415 0.4483 0.1512
C14 C 1.2409(3) 0.43905(16) 0.16082(9)
H7 H 1.2624 0.4295 0.1317
C15 C 1.3435(3) 0.44168(17) 0.19105(10)
H8 H 1.4343 0.4339 0.1827
C16 C 1.3122(3) 0.45564(16) 0.23324(9)
H9 H 1.3823 0.4576 0.2538
C17 C 1.1787(3) 0.46698(15) 0.24632(8)
C18 C 1.1455(3) 0.48044(16) 0.28977(8)
H10 H 1.2158 0.4828 0.3103
C19 C 1.0151(3) 0.49021(15) 0.30310(8)
C20 C 0.9119(2) 0.48775(15) 0.27137(8)
C21 C 0.8553(3) 0.64303(19) 0.21632(10)
H11 H 0.8127 0.6948 0.2162
H12 H 0.8098 0.6114 0.2384
C22 C 1.0607(5) 0.6997(3) 0.19745(13)
H13 H 1.0525 0.6786 0.1685
H14 H 1.1557 0.7016 0.2056
H15 H 1.0230 0.7521 0.1982
C23 C 0.6633(3) 0.4698(2) 0.27420(10)
H16 H 0.6295 0.4963 0.2483
H17 H 0.6787 0.4146 0.2671
C24 C 0.5305(4) 0.5514(2) 0.31589(13)
H18 H 0.6064 0.5803 0.3278
H19 H 0.4568 0.5503 0.3367
H20 H 0.4998 0.5767 0.2896
C25 C 0.7397(3) 0.67143(15) 0.07861(8)
C26 C 0.8795(3) 0.66017(18) 0.07879(9)
H21 H 0.9164 0.6192 0.0953
C27 C 0.9649(3) 0.70747(19) 0.05535(10)
H22 H 1.0593 0.6993 0.0561
C28 C 0.9118(3) 0.76622(18) 0.03103(9)
H23 H 0.9704 0.7989 0.0153
C29 C 0.7760(3) 0.77839(17) 0.02913(8)
H24 H 0.7405 0.8188 0.0119
C30 C 0.6903(3) 0.73105(16) 0.05262(8)
H25 H 0.5960 0.7393 0.0510
C31 C 0.4714(3) 0.58812(15) 0.08062(8)
C32 C 0.4881(3) 0.55894(19) 0.03928(9)
H26 H 0.5755 0.5567 0.0271
C33 C 0.3779(4) 0.5330(2) 0.01563(10)
H27 H 0.3907 0.5142 -0.0126
C34 C 0.2516(3) 0.53451(19) 0.03290(10)
H28 H 0.1774 0.5155 0.0170
C35 C 0.2320(3) 0.56357(18) 0.07333(10)
H29 H 0.1440 0.5651 0.0850
C36 C 0.3389(3) 0.59035(16) 0.09693(9)
H30 H 0.3235 0.6107 0.1247
C37 C 0.5656(3) 0.68269(17) 0.15830(8)
C38 C 0.6030(3) 0.75982(17) 0.15919(9)
H31 H 0.6524 0.7807 0.1359
C39 C 0.5698(4) 0.8072(2) 0.19327(10)
H32 H 0.5963 0.8601 0.1933
C40 C 0.4975(4) 0.7770(2) 0.22749(10)
H33 H 0.4750 0.8091 0.2511
C41 C 0.4592(3) 0.7018(2) 0.22701(10)
H34 H 0.4086 0.6813 0.2501
C42 C 0.4939(3) 0.65430(18) 0.19279(9)
H35 H 0.4678 0.6014 0.1931
C43 C 0.8771(3) 0.60060(16) 0.36608(9)
C44 C 0.9011(3) 0.65985(18) 0.33716(12)
H36 H 0.9684 0.6532 0.3160
C45 C 0.8294(4) 0.7283(2) 0.33839(16)
H37 H 0.8478 0.7681 0.3183
C46 C 0.7309(4) 0.7388(2) 0.36901(17)
H38 H 0.6820 0.7860 0.3702
C47 C 0.7046(4) 0.6809(2) 0.39746(15)
H39 H 0.6364 0.6881 0.4183
C48 C 0.7749(4) 0.6122(2) 0.39655(11)
H40 H 0.7544 0.5725 0.4165
C49 C 0.8709(3) 0.42502(16) 0.38353(8)
C50 C 0.8167(3) 0.36653(16) 0.35853(9)
H41 H 0.8342 0.3664 0.3287
C51 C 0.7374(3) 0.30793(17) 0.37587(9)
H42 H 0.7027 0.2682 0.3580
C52 C 0.7095(3) 0.30795(18) 0.41921(9)
H43 H 0.6541 0.2687 0.4311
C53 C 0.7623(3) 0.36518(17) 0.44507(9)
H44 H 0.7446 0.3649 0.4749
C54 C 0.8416(3) 0.42309(17) 0.42731(8)
H45 H 0.8768 0.4624 0.4453
C55 C 1.1355(3) 0.51291(16) 0.39028(8)
C56 C 1.2119(3) 0.44648(18) 0.39708(9)
H46 H 1.1763 0.3974 0.3893
C57 C 1.3404(3) 0.4509(2) 0.41527(9)
H47 H 1.3913 0.4049 0.4193
C58 C 1.3932(3) 0.5208(2) 0.42727(9)
H48 H 1.4806 0.5237 0.4394
C59 C 1.3185(3) 0.5865(2) 0.42162(10)
H49 H 1.3541 0.6351 0.4302
C60 C 1.1915(3) 0.58308(18) 0.40352(9)
H50 H 1.1414 0.6295 0.4000
loop_
_geom_bond_atom_site_label_1
_geom_bond_atom_site_label_2
_geom_bond_site_symmetry_1
_geom_bond_site_symmetry_2
Si1 C2 1_555 1_555
Si2 C19 1_555 1_555
O1 C1 1_555 1_555
O2 C21 1_555 1_555
O3 C20 1_555 1_555
O4 C23 1_555 1_555
C1 C2 1_555 1_555
C2 C3 1_555 1_555
C3 H1 1_555 1_555
C4 C3 1_555 1_555
C5 C4 1_555 1_555
H2 C5 1_555 1_555
C6 C5 1_555 1_555
H3 C6 1_555 1_555
C7 C6 1_555 1_555
H4 C7 1_555 1_555
C8 C7 1_555 1_555
H5 C8 1_555 1_555
C9 C4 1_555 1_555
C10 C1 1_555 1_555
C11 C10 1_555 1_555
C12 C11 1_555 1_555
C13 C12 1_555 1_555
H6 C13 1_555 1_555
C14 C13 1_555 1_555
H7 C14 1_555 1_555
C15 C14 1_555 1_555
H8 C15 1_555 1_555
C16 C15 1_555 1_555
H9 C16 1_555 1_555
C17 C12 1_555 1_555
C18 C17 1_555 1_555
H10 C18 1_555 1_555
C19 C18 1_555 1_555
C20 C11 1_555 1_555
C21 O1 1_555 1_555
H11 C21 1_555 1_555
H12 C21 1_555 1_555
C22 O2 1_555 1_555
H13 C22 1_555 1_555
H14 C22 1_555 1_555
H15 C22 1_555 1_555
C23 O3 1_555 1_555
H16 C23 1_555 1_555
H17 C23 1_555 1_555
C24 O4 1_555 1_555
H18 C24 1_555 1_555
H19 C24 1_555 1_555
H20 C24 1_555 1_555
C25 Si1 1_555 1_555
C26 C25 1_555 1_555
H21 C26 1_555 1_555
C27 C26 1_555 1_555
H22 C27 1_555 1_555
C28 C27 1_555 1_555
H23 C28 1_555 1_555
C29 C28 1_555 1_555
H24 C29 1_555 1_555
C30 C25 1_555 1_555
H25 C30 1_555 1_555
C31 Si1 1_555 1_555
C32 C31 1_555 1_555
H26 C32 1_555 1_555
C33 C32 1_555 1_555
H27 C33 1_555 1_555
C34 C33 1_555 1_555
H28 C34 1_555 1_555
C35 C34 1_555 1_555
H29 C35 1_555 1_555
C36 C31 1_555 1_555
H30 C36 1_555 1_555
C37 Si1 1_555 1_555
C38 C37 1_555 1_555
H31 C38 1_555 1_555
C39 C38 1_555 1_555
H32 C39 1_555 1_555
C40 C39 1_555 1_555
H33 C40 1_555 1_555
C41 C40 1_555 1_555
H34 C41 1_555 1_555
C42 C37 1_555 1_555
H35 C42 1_555 1_555
C43 Si2 1_555 1_555
C44 C43 1_555 1_555
H36 C44 1_555 1_555
C45 C44 1_555 1_555
H37 C45 1_555 1_555
C46 C45 1_555 1_555
H38 C46 1_555 1_555
C47 C46 1_555 1_555
H39 C47 1_555 1_555
C48 C43 1_555 1_555
H40 C48 1_555 1_555
C49 Si2 1_555 1_555
C50 C49 1_555 1_555
H41 C50 1_555 1_555
C51 C50 1_555 1_555
H42 C51 1_555 1_555
C52 C51 1_555 1_555
H43 C52 1_555 1_555
C53 C52 1_555 1_555
H44 C53 1_555 1_555
C54 C49 1_555 1_555
H45 C54 1_555 1_555
C55 Si2 1_555 1_555
C56 C55 1_555 1_555
H46 C56 1_555 1_555
C57 C56 1_555 1_555
H47 C57 1_555 1_555
C58 C57 1_555 1_555
H48 C58 1_555 1_555
C59 C58 1_555 1_555
H49 C59 1_555 1_555
C60 C55 1_555 1_555
H50 C60 1_555 1_555
C8 C9 1_555 1_555
C9 C10 1_555 1_555
C16 C17 1_555 1_555
C19 C20 1_555 1_555
C29 C30 1_555 1_555
C35 C36 1_555 1_555
C41 C42 1_555 1_555
C47 C48 1_555 1_555
C53 C54 1_555 1_555
C59 C60 1_555 1_555

#END
