
#######################################################################
#
#                 Cambridge Crystallographic Data Centre
#                                CCDC 
#
#######################################################################
#
# If this CIF has been generated from an entry in the Cambridge 
# Structural Database, then it will include bibliographic, chemical, 
# crystal, experimental, refinement or atomic coordinate data resulting 
# from the CCDC's data processing and validation procedures.
#
#######################################################################

data_OXIBUT
_chemical_formula_moiety         'C40 H49 O4 P1 Si2'
_chemical_name_systematic        
5-((2,6-bis(trimethylsilyl)dinaphtho-[2,1-d:1',2'-f][1,3,2]dioxaphosphepin-4-yl)oxy)-2,4-di-t-butylphenol
_symmetry_cell_setting           orthorhombic
_symmetry_space_group_name_H-M   'P 21 21 21'
_symmetry_Int_Tables_number      19
_space_group_name_Hall           'P 2ac 2ab'
loop_
_symmetry_equiv_pos_site_id
_symmetry_equiv_pos_as_xyz
1 x,y,z
2 1/2-x,-y,1/2+z
3 -x,1/2+y,1/2-z
4 1/2+x,1/2-y,-z
_cell_length_a                   9.9085(4)
_cell_length_b                   11.2581(4)
_cell_length_c                   34.2755(13)
_cell_angle_alpha                90
_cell_angle_beta                 90
_cell_angle_gamma                90
_cell_volume                     3823.46
_exptl_crystal_colour            colorless
_exptl_crystal_description       cut-block
_cell_formula_units_Z            4
loop_
_atom_site_label
_atom_site_type_symbol
_atom_site_fract_x
_atom_site_fract_y
_atom_site_fract_z
P1 P 0.87696(4) 0.86867(4) 0.919223(11)
Si1 Si 0.70617(4) 1.12529(4) 0.986904(12)
Si2 Si 0.90102(4) 0.55576(4) 0.850404(13)
O1 O 0.93916(10) 0.89852(10) 0.87610(3)
O2 O 1.32933(11) 1.12240(11) 0.91520(3)
H1 H 1.3293 1.0683 0.9321
O3 O 0.75080(10) 0.96382(10) 0.91605(3)
O4 O 0.80248(11) 0.74401(10) 0.90908(3)
C1 C 1.13128(16) 1.01505(14) 0.89614(4)
H2 H 1.1376 0.9686 0.9192
C2 C 1.02793(15) 0.99291(14) 0.86952(4)
C3 C 1.01603(15) 1.05938(14) 0.83513(4)
C4 C 1.11266(16) 1.14856(14) 0.83003(4)
H3 H 1.1058 1.1954 0.8071
C5 C 1.21837(15) 1.17518(14) 0.85559(4)
C6 C 1.22471(15) 1.10382(14) 0.88931(4)
C7 C 0.90687(16) 1.03464(14) 0.80397(4)
C8 C 0.92390(17) 1.11544(16) 0.76820(5)
H4 H 0.8559 1.0949 0.7486
H5 H 1.0143 1.1045 0.7572
H6 H 0.9123 1.1985 0.7761
C9 C 0.91580(18) 0.90497(15) 0.78964(5)
H7 H 0.8472 0.8912 0.7696
H8 H 0.9004 0.8510 0.8116
H9 H 1.0056 0.8904 0.7786
C10 C 0.76522(16) 1.05860(18) 0.82100(5)
H10 H 0.7595 1.1414 0.8296
H11 H 0.7494 1.0057 0.8432
H12 H 0.6968 1.0438 0.8009
C11 C 1.32445(16) 1.27082(15) 0.84646(5)
C12 C 1.32874(18) 1.36537(16) 0.87902(5)
H13 H 1.3970 1.4253 0.8727
H14 H 1.3518 1.3273 0.9039
H15 H 1.2402 1.4035 0.8812
C13 C 1.29391(18) 1.33592(16) 0.80791(5)
H16 H 1.2907 1.2783 0.7865
H17 H 1.3649 1.3944 0.8028
H18 H 1.2067 1.3765 0.8100
C14 C 1.46423(17) 1.21258(17) 0.84215(5)
H19 H 1.4618 1.1546 0.8208
H20 H 1.4882 1.1723 0.8665
H21 H 1.5317 1.2738 0.8363
C15 C 0.62848(14) 0.93661(14) 0.93393(4)
C16 C 0.59481(15) 1.00169(13) 0.96808(4)
C17 C 0.47342(15) 0.97401(14) 0.98554(4)
H22 H 0.4467 1.0168 1.0082
C18 C 0.38686(15) 0.88370(14) 0.97087(4)
C19 C 0.26481(15) 0.85408(15) 0.99065(5)
H23 H 0.2401 0.8962 1.0136
C20 C 0.18313(16) 0.76590(16) 0.97698(5)
H24 H 0.1017 0.7473 0.9903
C21 C 0.21928(17) 0.70249(15) 0.94323(5)
H25 H 0.1625 0.6404 0.9342
C22 C 0.33588(16) 0.72904(15) 0.92306(5)
H26 H 0.3583 0.6854 0.9002
C23 C 0.42269(15) 0.82124(14) 0.93618(4)
C24 C 0.54655(14) 0.85230(14) 0.91666(4)
C25 C 0.58951(15) 0.79255(13) 0.87984(4)
C26 C 0.50738(15) 0.79417(14) 0.84524(5)
C27 C 0.39324(16) 0.86875(15) 0.84145(5)
H27 H 0.3665 0.9171 0.8628
C28 C 0.32069(16) 0.87226(17) 0.80746(5)
H28 H 0.2452 0.9239 0.8054
C29 C 0.35676(18) 0.80015(17) 0.77561(5)
H29 H 0.3049 0.8022 0.7523
C30 C 0.46657(17) 0.72721(16) 0.77830(5)
H30 H 0.4900 0.6783 0.7568
C31 C 0.54600(16) 0.72320(15) 0.81259(5)
C32 C 0.66358(16) 0.65241(14) 0.81522(4)
H31 H 0.6840 0.5996 0.7944
C33 C 0.74986(15) 0.65700(13) 0.84685(5)
C34 C 0.71130(15) 0.73342(14) 0.87764(4)
C35 C 0.61892(19) 1.19255(17) 1.02959(5)
H32 H 0.6680 1.2636 1.0380
H33 H 0.6161 1.1350 1.0510
H34 H 0.5267 1.2145 1.0222
C36 C 0.7239(2) 1.23890(17) 0.94774(5)
H35 H 0.6344 1.2602 0.9378
H36 H 0.7787 1.2065 0.9264
H37 H 0.7680 1.3098 0.9584
C37 C 0.87374(17) 1.06732(17) 1.00324(5)
H38 H 0.9191 1.1275 1.0192
H39 H 0.9294 1.0491 0.9804
H40 H 0.8605 0.9950 1.0187
C38 C 1.06349(15) 0.63591(15) 0.84205(5)
H41 H 1.0732 0.6994 0.8614
H42 H 1.0637 0.6703 0.8158
H43 H 1.1389 0.5801 0.8446
C39 C 0.9005(2) 0.48277(17) 0.89910(5)
H44 H 0.9610 0.4139 0.8986
H45 H 0.8088 0.4566 0.9054
H46 H 0.9316 0.5393 0.9189
C40 C 0.87695(18) 0.43546(15) 0.81335(6)
H47 H 0.9506 0.3778 0.8155
H48 H 0.8770 0.4702 0.7871
H49 H 0.7906 0.3954 0.8180
loop_
_geom_bond_atom_site_label_1
_geom_bond_atom_site_label_2
_geom_bond_site_symmetry_1
_geom_bond_site_symmetry_2
P1 O1 1_555 1_555
Si1 C16 1_555 1_555
Si2 C33 1_555 1_555
O1 C2 1_555 1_555
O2 H1 1_555 1_555
O3 P1 1_555 1_555
O4 P1 1_555 1_555
C1 H2 1_555 1_555
C2 C1 1_555 1_555
C3 C2 1_555 1_555
C4 C3 1_555 1_555
H3 C4 1_555 1_555
C5 C4 1_555 1_555
C6 O2 1_555 1_555
C7 C3 1_555 1_555
C8 C7 1_555 1_555
H4 C8 1_555 1_555
H5 C8 1_555 1_555
H6 C8 1_555 1_555
C9 C7 1_555 1_555
H7 C9 1_555 1_555
H8 C9 1_555 1_555
H9 C9 1_555 1_555
C10 C7 1_555 1_555
H10 C10 1_555 1_555
H11 C10 1_555 1_555
H12 C10 1_555 1_555
C11 C5 1_555 1_555
C12 C11 1_555 1_555
H13 C12 1_555 1_555
H14 C12 1_555 1_555
H15 C12 1_555 1_555
C13 C11 1_555 1_555
H16 C13 1_555 1_555
H17 C13 1_555 1_555
H18 C13 1_555 1_555
C14 C11 1_555 1_555
H19 C14 1_555 1_555
H20 C14 1_555 1_555
H21 C14 1_555 1_555
C15 O3 1_555 1_555
C16 C15 1_555 1_555
C17 C16 1_555 1_555
H22 C17 1_555 1_555
C18 C17 1_555 1_555
C19 C18 1_555 1_555
H23 C19 1_555 1_555
C20 C19 1_555 1_555
H24 C20 1_555 1_555
C21 C20 1_555 1_555
H25 C21 1_555 1_555
C22 C21 1_555 1_555
H26 C22 1_555 1_555
C23 C18 1_555 1_555
C24 C15 1_555 1_555
C25 C24 1_555 1_555
C26 C25 1_555 1_555
C27 C26 1_555 1_555
H27 C27 1_555 1_555
C28 C27 1_555 1_555
H28 C28 1_555 1_555
C29 C28 1_555 1_555
H29 C29 1_555 1_555
C30 C29 1_555 1_555
H30 C30 1_555 1_555
C31 C26 1_555 1_555
C32 C31 1_555 1_555
H31 C32 1_555 1_555
C33 C32 1_555 1_555
C34 O4 1_555 1_555
C35 Si1 1_555 1_555
H32 C35 1_555 1_555
H33 C35 1_555 1_555
H34 C35 1_555 1_555
C36 Si1 1_555 1_555
H35 C36 1_555 1_555
H36 C36 1_555 1_555
H37 C36 1_555 1_555
C37 Si1 1_555 1_555
H38 C37 1_555 1_555
H39 C37 1_555 1_555
H40 C37 1_555 1_555
C38 Si2 1_555 1_555
H41 C38 1_555 1_555
H42 C38 1_555 1_555
H43 C38 1_555 1_555
C39 Si2 1_555 1_555
H44 C39 1_555 1_555
H45 C39 1_555 1_555
H46 C39 1_555 1_555
C40 Si2 1_555 1_555
H47 C40 1_555 1_555
H48 C40 1_555 1_555
H49 C40 1_555 1_555
C1 C6 1_555 1_555
C5 C6 1_555 1_555
C22 C23 1_555 1_555
C23 C24 1_555 1_555
C25 C34 1_555 1_555
C30 C31 1_555 1_555
C33 C34 1_555 1_555

#END
