
#######################################################################
#
#                 Cambridge Crystallographic Data Centre
#                                CCDC 
#
#######################################################################
#
# If this CIF has been generated from an entry in the Cambridge 
# Structural Database, then it will include bibliographic, chemical, 
# crystal, experimental, refinement or atomic coordinate data resulting 
# from the CCDC's data processing and validation procedures.
#
#######################################################################

data_OXICAA
_chemical_formula_moiety         'C60 H57 O4 P1 Si2,C5 H12'
_chemical_name_systematic        
"5-((2,6-bis(methyl(diphenyl)silyl)dinaphtho-[2,1-d:1',2'-f][1,3,2]dioxaphosphepin-4-yl)oxy)-2,4-di-t-butylphenol pentane solvate"
_symmetry_cell_setting           orthorhombic
_symmetry_space_group_name_H-M   'P 21 21 21'
_symmetry_Int_Tables_number      19
_space_group_name_Hall           'P 2ac 2ab'
loop_
_symmetry_equiv_pos_site_id
_symmetry_equiv_pos_as_xyz
1 x,y,z
2 1/2-x,-y,1/2+z
3 -x,1/2+y,1/2-z
4 1/2+x,1/2-y,-z
_cell_length_a                   9.9513(10)
_cell_length_b                   19.713(2)
_cell_length_c                   28.496(3)
_cell_angle_alpha                90
_cell_angle_beta                 90
_cell_angle_gamma                90
_cell_volume                     5590.06
_exptl_crystal_colour            colorless
_exptl_crystal_description       cut-block
_cell_formula_units_Z            4
loop_
_atom_site_label
_atom_site_type_symbol
_atom_site_fract_x
_atom_site_fract_y
_atom_site_fract_z
P1 P 0.87261(4) 0.146663(18) 0.779602(16)
Si1 Si 0.91809(4) 0.204981(19) 0.922874(18)
Si2 Si 0.67532(4) 0.08046(2) 0.658746(18)
O1 O 0.80639(10) 0.19568(4) 0.81886(4)
O2 O 0.74244(10) 0.10162(4) 0.76157(4)
O3 O 0.92840(10) 0.08764(4) 0.81457(4)
O4 O 1.32251(10) 0.02708(5) 0.72785(4)
H1 H 1.3252 0.0696 0.7261
C1 C 1.12447(14) 0.05553(7) 0.77094(6)
H2 H 1.1342 0.1013 0.7610
C2 C 1.01842(15) 0.03772(7) 0.79983(6)
C3 C 1.00312(14) -0.02829(7) 0.81670(6)
C4 C 1.09867(15) -0.07464(7) 0.79997(6)
H3 H 1.0900 -0.1203 0.8102
C5 C 1.20549(15) -0.06005(6) 0.76971(6)
C6 C 1.21593(15) 0.00767(7) 0.75644(6)
C7 C 0.89147(16) -0.04998(7) 0.85074(6)
C8 C 0.75300(16) -0.04376(8) 0.82737(7)
H4 H 0.6831 -0.0572 0.8497
H5 H 0.7493 -0.0734 0.7998
H6 H 0.7382 0.0033 0.8177
C9 C 0.89519(17) -0.00600(7) 0.89506(6)
H7 H 0.8735 0.0410 0.8869
H8 H 0.9852 -0.0079 0.9089
H9 H 0.8293 -0.0230 0.9177
C10 C 0.90980(18) -0.12350(7) 0.86738(6)
H10 H 0.9971 -0.1281 0.8830
H11 H 0.9061 -0.1541 0.8403
H12 H 0.8379 -0.1352 0.8895
C11 C 1.30730(16) -0.11516(7) 0.75414(7)
C12 C 1.30886(19) -0.12075(8) 0.70085(7)
H13 H 1.3360 -0.0772 0.6873
H14 H 1.2188 -0.1327 0.6896
H15 H 1.3728 -0.1560 0.6913
C13 C 1.44588(16) -0.09767(8) 0.77327(7)
H16 H 1.5106 -0.1322 0.7632
H17 H 1.4426 -0.0963 0.8076
H18 H 1.4737 -0.0532 0.7613
C14 C 1.26799(17) -0.18503(7) 0.77288(7)
H19 H 1.3344 -0.2187 0.7627
H20 H 1.1792 -0.1975 0.7607
H21 H 1.2651 -0.1837 0.8072
C15 C 0.71360(15) 0.17051(7) 0.85206(6)
C16 C 0.75338(15) 0.16974(7) 0.90001(6)
C17 C 0.66366(15) 0.14272(7) 0.93071(6)
H22 H 0.6840 0.1442 0.9633
C18 C 0.54119(16) 0.11246(7) 0.91640(6)
C19 C 0.45470(16) 0.07927(8) 0.94872(7)
H23 H 0.4756 0.0799 0.9812
C20 C 0.34184(18) 0.04638(8) 0.93367(8)
H24 H 0.2841 0.0246 0.9555
C21 C 0.31250(18) 0.04527(8) 0.88567(7)
H25 H 0.2370 0.0202 0.8750
C22 C 0.38904(15) 0.07909(7) 0.85398(7)
H26 H 0.3646 0.0787 0.8218
C23 C 0.50498(16) 0.11500(7) 0.86848(6)
C24 C 0.59047(15) 0.14976(7) 0.83601(6)
C25 C 0.54814(14) 0.16073(7) 0.78686(6)
C26 C 0.42952(15) 0.19933(7) 0.77496(6)
C27 C 0.35186(16) 0.23293(7) 0.80893(7)
H27 H 0.3752 0.2289 0.8411
C28 C 0.24307(17) 0.27136(8) 0.79636(7)
H28 H 0.1921 0.2936 0.8200
C29 C 0.20619(17) 0.27830(8) 0.74963(7)
H29 H 0.1303 0.3050 0.7414
C30 C 0.27953(16) 0.24644(7) 0.71537(7)
H30 H 0.2541 0.2512 0.6834
C31 C 0.39382(14) 0.20615(7) 0.72726(6)
C32 C 0.46952(15) 0.17184(7) 0.69198(6)
H31 H 0.4406 0.1745 0.6603
C33 C 0.58291(15) 0.13500(7) 0.70242(6)
C34 C 0.62232(15) 0.13419(6) 0.75047(6)
C35 C 1.07138(17) 0.17008(8) 0.89445(7)
H32 H 1.0765 0.1863 0.8620
H33 H 1.0673 0.1204 0.8946
H34 H 1.1511 0.1851 0.9117
C36 C 0.91876(17) 0.29997(8) 0.91851(6)
C37 C 1.04045(18) 0.33616(8) 0.91691(7)
H35 H 1.1229 0.3120 0.9151
C38 C 1.04226(19) 0.40622(8) 0.91796(7)
H36 H 1.1255 0.4298 0.9168
C39 C 0.9232(2) 0.44211(8) 0.92072(7)
H37 H 0.9243 0.4903 0.9216
C40 C 0.80280(19) 0.40765(8) 0.92220(8)
H38 H 0.7208 0.4322 0.9241
C41 C 0.80090(18) 0.33726(8) 0.92095(8)
H39 H 0.7171 0.3142 0.9218
C42 C 0.92373(15) 0.18258(7) 0.98705(6)
C43 C 0.92329(18) 0.23209(8) 1.02135(7)
H40 H 0.9182 0.2784 1.0122
C44 C 0.9300(2) 0.21626(8) 1.06853(7)
H41 H 0.9331 0.2516 1.0912
C45 C 0.93208(17) 0.14965(8) 1.08295(7)
H42 H 0.9337 0.1388 1.1154
C46 C 0.93179(18) 0.09877(8) 1.04949(7)
H43 H 0.9330 0.0525 1.0588
C47 C 0.92971(18) 0.11551(8) 1.00259(7)
H44 H 0.9325 0.0801 0.9800
C48 C 0.67618(18) -0.00896(7) 0.68081(7)
H45 H 0.7228 -0.0381 0.6582
H46 H 0.5835 -0.0248 0.6847
H47 H 0.7227 -0.0108 0.7111
C49 C 0.58156(16) 0.08362(7) 0.60146(6)
C50 C 0.44560(17) 0.06676(7) 0.59918(7)
H48 H 0.3995 0.0549 0.6272
C51 C 0.3759(2) 0.06686(8) 0.55683(7)
H49 H 0.2829 0.0561 0.5564
C52 C 0.4394(2) 0.08207(9) 0.51641(8)
H50 H 0.3914 0.0816 0.4876
C53 C 0.5738(2) 0.09824(9) 0.51695(8)
H51 H 0.6185 0.1089 0.4884
C54 C 0.64429(19) 0.09914(8) 0.55894(7)
H52 H 0.7371 0.1105 0.5588
C55 C 0.84966(16) 0.11209(7) 0.64922(6)
C56 C 0.87291(19) 0.17646(8) 0.62969(7)
H53 H 0.7992 0.2061 0.6244
C57 C 1.0011(2) 0.19743(9) 0.61810(9)
H54 H 1.0149 0.2408 0.6043
C58 C 1.11024(18) 0.15476(10) 0.62672(8)
H55 H 1.1986 0.1689 0.6188
C59 C 1.08953(19) 0.09275(10) 0.64653(8)
H56 H 1.1641 0.0641 0.6529
C60 C 0.96166(17) 0.07099(9) 0.65745(8)
H57 H 0.9494 0.0273 0.6708
C61 C 0.4882(8) 0.3072(3) 0.5817(3)
C62 C 0.3911(5) 0.26574(16) 0.56325(17)
C63 C 0.4526(12) 0.2967(4) 0.51595(19)
C64 C 0.6541(9) 0.3185(5) 0.5520(5)
C65 C 0.542(2) 0.3622(3) 0.5656(3)
C66? C 0.4817(6) 0.3897(4) 0.5089(3)
loop_
_geom_bond_atom_site_label_1
_geom_bond_atom_site_label_2
_geom_bond_site_symmetry_1
_geom_bond_site_symmetry_2
P1 O1 1_555 1_555
Si1 C16 1_555 1_555
Si2 C33 1_555 1_555
O1 C15 1_555 1_555
O2 P1 1_555 1_555
O3 P1 1_555 1_555
O4 H1 1_555 1_555
C1 H2 1_555 1_555
C2 O3 1_555 1_555
C3 C2 1_555 1_555
C4 C3 1_555 1_555
H3 C4 1_555 1_555
C5 C4 1_555 1_555
C6 O4 1_555 1_555
C7 C3 1_555 1_555
C8 C7 1_555 1_555
H4 C8 1_555 1_555
H5 C8 1_555 1_555
H6 C8 1_555 1_555
C9 C7 1_555 1_555
H7 C9 1_555 1_555
H8 C9 1_555 1_555
H9 C9 1_555 1_555
C10 C7 1_555 1_555
H10 C10 1_555 1_555
H11 C10 1_555 1_555
H12 C10 1_555 1_555
C11 C5 1_555 1_555
C12 C11 1_555 1_555
H13 C12 1_555 1_555
H14 C12 1_555 1_555
H15 C12 1_555 1_555
C13 C11 1_555 1_555
H16 C13 1_555 1_555
H17 C13 1_555 1_555
H18 C13 1_555 1_555
C14 C11 1_555 1_555
H19 C14 1_555 1_555
H20 C14 1_555 1_555
H21 C14 1_555 1_555
C15 C16 1_555 1_555
C16 C17 1_555 1_555
C17 H22 1_555 1_555
C18 C17 1_555 1_555
C19 C18 1_555 1_555
H23 C19 1_555 1_555
C20 C19 1_555 1_555
H24 C20 1_555 1_555
C21 C20 1_555 1_555
H25 C21 1_555 1_555
C22 C21 1_555 1_555
H26 C22 1_555 1_555
C23 C18 1_555 1_555
C24 C15 1_555 1_555
C25 C24 1_555 1_555
C26 C25 1_555 1_555
C27 C26 1_555 1_555
H27 C27 1_555 1_555
C28 C27 1_555 1_555
H28 C28 1_555 1_555
C29 C28 1_555 1_555
H29 C29 1_555 1_555
C30 C29 1_555 1_555
H30 C30 1_555 1_555
C31 C26 1_555 1_555
C32 C31 1_555 1_555
H31 C32 1_555 1_555
C33 C32 1_555 1_555
C34 O2 1_555 1_555
C35 Si1 1_555 1_555
H32 C35 1_555 1_555
H33 C35 1_555 1_555
H34 C35 1_555 1_555
C36 Si1 1_555 1_555
C37 C36 1_555 1_555
H35 C37 1_555 1_555
C38 C37 1_555 1_555
H36 C38 1_555 1_555
C39 C38 1_555 1_555
H37 C39 1_555 1_555
C40 C39 1_555 1_555
H38 C40 1_555 1_555
C41 C36 1_555 1_555
H39 C41 1_555 1_555
C42 Si1 1_555 1_555
C43 C42 1_555 1_555
H40 C43 1_555 1_555
C44 C43 1_555 1_555
H41 C44 1_555 1_555
C45 C44 1_555 1_555
H42 C45 1_555 1_555
C46 C45 1_555 1_555
H43 C46 1_555 1_555
C47 C42 1_555 1_555
H44 C47 1_555 1_555
C48 Si2 1_555 1_555
H45 C48 1_555 1_555
H46 C48 1_555 1_555
H47 C48 1_555 1_555
C49 Si2 1_555 1_555
C50 C49 1_555 1_555
H48 C50 1_555 1_555
C51 C50 1_555 1_555
H49 C51 1_555 1_555
C52 C51 1_555 1_555
H50 C52 1_555 1_555
C53 C52 1_555 1_555
H51 C53 1_555 1_555
C54 C49 1_555 1_555
H52 C54 1_555 1_555
C55 Si2 1_555 1_555
C56 C55 1_555 1_555
H53 C56 1_555 1_555
C57 C56 1_555 1_555
H54 C57 1_555 1_555
C58 C57 1_555 1_555
H55 C58 1_555 1_555
C59 C58 1_555 1_555
H56 C59 1_555 1_555
C60 C55 1_555 1_555
H57 C60 1_555 1_555
C61 C62 1_555 1_555
C62 C63 1_555 1_555
C64 C65 1_555 1_555
C65 C61 1_555 1_555
C1 C2 1_555 1_555
C1 C6 1_555 1_555
C5 C6 1_555 1_555
C22 C23 1_555 1_555
C23 C24 1_555 1_555
C25 C34 1_555 1_555
C30 C31 1_555 1_555
C33 C34 1_555 1_555
C40 C41 1_555 1_555
C46 C47 1_555 1_555
C53 C54 1_555 1_555
C59 C60 1_555 1_555

#END
