
#######################################################################
#
#                 Cambridge Crystallographic Data Centre
#                                CCDC 
#
#######################################################################
#
# If this CIF has been generated from an entry in the Cambridge 
# Structural Database, then it will include bibliographic, chemical, 
# crystal, experimental, refinement or atomic coordinate data resulting 
# from the CCDC's data processing and validation procedures.
#
#######################################################################

data_OXIFEI02
_chemical_formula_moiety         'C12 H11 Br1 N2 O1'
_chemical_name_systematic        N-(5-bromoquinolin-8-yl)propanamide
_symmetry_cell_setting           monoclinic
_symmetry_space_group_name_H-M   'P 21/c'
_symmetry_Int_Tables_number      14
_space_group_name_Hall           '-P 2ybc'
loop_
_symmetry_equiv_pos_site_id
_symmetry_equiv_pos_as_xyz
1 x,y,z
2 -x,1/2+y,1/2-z
3 -x,-y,-z
4 x,1/2-y,1/2+z
_cell_length_a                   8.473(2)
_cell_length_b                   19.517(4)
_cell_length_c                   7.043(2)
_cell_angle_alpha                90
_cell_angle_beta                 102.04(3)
_cell_angle_gamma                90
_cell_volume                     1139.06
_exptl_crystal_colour            'light yellow'
_exptl_crystal_description       block
_cell_formula_units_Z            4
loop_
_atom_site_label
_atom_site_type_symbol
_atom_site_fract_x
_atom_site_fract_y
_atom_site_fract_z
Br1 Br 0.15753(4) 0.29712(2) 0.25372(6)
O1 O 0.8561(3) 0.48303(11) 0.6637(4)
N1 N 0.7773(3) 0.24090(12) 0.5264(4)
N2 N 0.8600(3) 0.37160(12) 0.5773(4)
H1 H 0.9250 0.3382 0.5718
C1 C 0.3763(4) 0.32064(17) 0.3548(4)
C2 C 0.4943(4) 0.26792(15) 0.4026(4)
C3 C 0.6556(4) 0.28748(13) 0.4755(4)
C4 C 0.6972(3) 0.35825(14) 0.5012(4)
C5 C 0.5789(4) 0.40686(15) 0.4524(5)
H2 H 0.6055 0.4530 0.4681
C6 C 0.4176(4) 0.38772(15) 0.3789(5)
H3 H 0.3388 0.4213 0.3465
C7 C 0.4631(4) 0.19689(15) 0.3839(5)
H4 H 0.3586 0.1813 0.3357
C8 C 0.5848(4) 0.15161(16) 0.4361(5)
H5 H 0.5648 0.1048 0.4246
C9 C 0.7406(4) 0.17574(15) 0.5074(5)
H6 H 0.8230 0.1439 0.5434
C10 C 0.9297(4) 0.43016(14) 0.6586(5)
C11 C 1.1083(4) 0.42276(17) 0.7409(6)
H7 H 1.1250 0.3835 0.8273
H8 H 1.1624 0.4133 0.6351
C12 C 1.1857(5) 0.4843(2) 0.8501(6)
H9 H 1.1641 0.5241 0.7688
H10 H 1.3001 0.4773 0.8871
H11 H 1.1423 0.4908 0.9643
loop_
_geom_bond_atom_site_label_1
_geom_bond_atom_site_label_2
_geom_bond_site_symmetry_1
_geom_bond_site_symmetry_2
Br1 C1 1_555 1_555
O1 C10 1_555 1_555
N1 C3 1_555 1_555
N2 H1 1_555 1_555
C1 C2 1_555 1_555
C2 C3 1_555 1_555
C3 C4 1_555 1_555
C4 N2 1_555 1_555
C5 C4 1_555 1_555
H2 C5 1_555 1_555
C6 C1 1_555 1_555
H3 C6 1_555 1_555
C7 C2 1_555 1_555
H4 C7 1_555 1_555
C8 C7 1_555 1_555
H5 C8 1_555 1_555
C9 N1 1_555 1_555
H6 C9 1_555 1_555
C10 N2 1_555 1_555
C11 C10 1_555 1_555
H7 C11 1_555 1_555
H8 C11 1_555 1_555
C12 C11 1_555 1_555
H9 C12 1_555 1_555
H10 C12 1_555 1_555
H11 C12 1_555 1_555
C5 C6 1_555 1_555
C8 C9 1_555 1_555

#END
