
#######################################################################
#
#                 Cambridge Crystallographic Data Centre
#                                CCDC 
#
#######################################################################
#
# If this CIF has been generated from an entry in the Cambridge 
# Structural Database, then it will include bibliographic, chemical, 
# crystal, experimental, refinement or atomic coordinate data resulting 
# from the CCDC's data processing and validation procedures.
#
#######################################################################

data_OXIHIN
_chemical_formula_moiety         'C13 H18 N2 O1'
_chemical_name_systematic        1-Methyl-2-(morpholin-4-yl)-1H-indole
_symmetry_cell_setting           monoclinic
_symmetry_space_group_name_H-M   'P 21/c'
_symmetry_Int_Tables_number      14
_space_group_name_Hall           '-P 2ybc'
loop_
_symmetry_equiv_pos_site_id
_symmetry_equiv_pos_as_xyz
1 x,y,z
2 -x,1/2+y,1/2-z
3 -x,-y,-z
4 x,1/2-y,1/2+z
_cell_length_a                   8.30(2)
_cell_length_b                   17.24(4)
_cell_length_c                   8.57(2)
_cell_angle_alpha                90
_cell_angle_beta                 94.73(2)
_cell_angle_gamma                90
_cell_volume                     1222.12
_exptl_crystal_colour            yellow
_exptl_crystal_description       block
_chemical_melting_point          101-102deg.C
_cell_formula_units_Z            4
loop_
_atom_site_label
_atom_site_type_symbol
_atom_site_fract_x
_atom_site_fract_y
_atom_site_fract_z
C1 C -0.0584(2) 0.61956(9) 0.7834(2)
C2 C -0.0871(2) 0.60221(11) 0.9380(2)
H1 H -0.0091 0.5780 1.0052
C3 C -0.2370(3) 0.62260(12) 0.9873(3)
H2 H -0.2591 0.6122 1.0898
C4 C -0.3551(3) 0.65842(12) 0.8860(3)
H3 H -0.4549 0.6704 0.9218
C5 C -0.3261(2) 0.67646(12) 0.7331(3)
H4 H -0.4052 0.7007 0.6671
C6 C -0.1745(2) 0.65748(10) 0.6789(2)
C7 C -0.1032(2) 0.66737(11) 0.5335(2)
H5 H -0.1515 0.6905 0.4434
C8 C 0.0501(2) 0.63634(10) 0.5518(2)
C9 C 0.1584(3) 0.69168(11) 0.3226(2)
H6 H 0.1429 0.7430 0.3654
H7 H 0.0647 0.6792 0.2519
C10 C 0.3092(3) 0.69060(13) 0.2348(3)
H8 H 0.2985 0.7286 0.1512
H9 H 0.4016 0.7050 0.3056
C11 C 0.3529(3) 0.55876(13) 0.2917(3)
H10 H 0.4469 0.5710 0.3623
H11 H 0.3700 0.5081 0.2467
C12 C 0.2047(3) 0.55601(11) 0.3833(2)
H12 H 0.1113 0.5406 0.3149
H13 H 0.2204 0.5181 0.4668
C13 C 0.2325(2) 0.57456(14) 0.7734(2)
H14 H 0.2464 0.5879 0.8824
H15 H 0.3207 0.5953 0.7207
H16 H 0.2303 0.5191 0.7624
N1 N 0.08022(17) 0.60713(8) 0.70422(17)
N2 N 0.17633(18) 0.63395(8) 0.45071(17)
O1 O 0.33693(19) 0.61532(10) 0.16946(18)
loop_
_geom_bond_atom_site_label_1
_geom_bond_atom_site_label_2
_geom_bond_site_symmetry_1
_geom_bond_site_symmetry_2
C1 C2 1_555 1_555
C2 H1 1_555 1_555
C3 C2 1_555 1_555
H2 C3 1_555 1_555
C4 C3 1_555 1_555
H3 C4 1_555 1_555
C5 C4 1_555 1_555
H4 C5 1_555 1_555
C6 C1 1_555 1_555
C7 C6 1_555 1_555
H5 C7 1_555 1_555
C8 C7 1_555 1_555
C9 H6 1_555 1_555
H7 C9 1_555 1_555
C10 C9 1_555 1_555
H8 C10 1_555 1_555
H9 C10 1_555 1_555
C11 H10 1_555 1_555
H11 C11 1_555 1_555
C12 C11 1_555 1_555
H12 C12 1_555 1_555
H13 C12 1_555 1_555
C13 H14 1_555 1_555
H15 C13 1_555 1_555
H16 C13 1_555 1_555
N1 C1 1_555 1_555
N2 C8 1_555 1_555
O1 C10 1_555 1_555
C5 C6 1_555 1_555
C8 N1 1_555 1_555
C9 N2 1_555 1_555
C11 O1 1_555 1_555
C12 N2 1_555 1_555
C13 N1 1_555 1_555

#END
