
#######################################################################
#
#                 Cambridge Crystallographic Data Centre
#                                CCDC 
#
#######################################################################
#
# If this CIF has been generated from an entry in the Cambridge 
# Structural Database, then it will include bibliographic, chemical, 
# crystal, experimental, refinement or atomic coordinate data resulting 
# from the CCDC's data processing and validation procedures.
#
#######################################################################

data_OXINGO
_chemical_formula_moiety         'C16 H8 O4'
_chemical_name_systematic        Oxindigo
_symmetry_cell_setting           monoclinic
_symmetry_space_group_name_H-M   'P 21/c'
_symmetry_Int_Tables_number      14
_space_group_name_Hall           '-P 2ybc'
loop_
_symmetry_equiv_pos_site_id
_symmetry_equiv_pos_as_xyz
1 x,y,z
2 -x,1/2+y,1/2-z
3 -x,-y,-z
4 x,1/2-y,1/2+z
_cell_length_a                   6.630
_cell_length_b                   4.820
_cell_length_c                   18.600
_cell_angle_alpha                90
_cell_angle_beta                 103.0
_cell_angle_gamma                90
_cell_volume                     579.159
_cell_formula_units_Z            2
loop_
_atom_site_label
_atom_site_type_symbol
_atom_site_fract_x
_atom_site_fract_y
_atom_site_fract_z
C1 C 0.03750 0.09570 0.02560
C2 C -0.04030 0.19140 0.09000
C3 C 0.11150 0.40280 0.12450
C4 C 0.12870 0.56710 0.18740
C5 C 0.29460 0.75530 0.20350
C6 C 0.43560 0.77110 0.15750
C7 C 0.42120 0.60840 0.09520
C8 C 0.25250 0.42360 0.08060
O1 O 0.21340 0.24500 0.02060
O2 O -0.19370 0.10890 0.11010
C1B C -0.03750 -0.09570 -0.02560
C2B C 0.04030 -0.19140 -0.09000
O1B O -0.21340 -0.24500 -0.02060
C3B C -0.11150 -0.40280 -0.12450
O2B O 0.19370 -0.10890 -0.11010
C8B C -0.25250 -0.42360 -0.08060
C4B C -0.12870 -0.56710 -0.18740
C7B C -0.42120 -0.60840 -0.09520
C5B C -0.29460 -0.75530 -0.20350
C6B C -0.43560 -0.77110 -0.15750
loop_
_geom_bond_atom_site_label_1
_geom_bond_atom_site_label_2
_geom_bond_site_symmetry_1
_geom_bond_site_symmetry_2
C1 C2 1_555 1_555
C2 C3 1_555 1_555
C3 C4 1_555 1_555
C4 C5 1_555 1_555
C5 C6 1_555 1_555
C6 C7 1_555 1_555
C7 C8 1_555 1_555
C8 C3 1_555 1_555
O1 C1 1_555 1_555
O2 C2 1_555 1_555
C1B C1 1_555 1_555
C2B C1B 1_555 1_555
O1B C1B 1_555 1_555
C3B C2B 1_555 1_555
O2B C2B 1_555 1_555
C8B O1B 1_555 1_555
C4B C3B 1_555 1_555
C7B C8B 1_555 1_555
C5B C4B 1_555 1_555
C6B C7B 1_555 1_555
C8 O1 1_555 1_555
C3B C8B 1_555 1_555
C5B C6B 1_555 1_555

#END
