
#######################################################################
#
#                 Cambridge Crystallographic Data Centre
#                                CCDC 
#
#######################################################################
#
# If this CIF has been generated from an entry in the Cambridge 
# Structural Database, then it will include bibliographic, chemical, 
# crystal, experimental, refinement or atomic coordinate data resulting 
# from the CCDC's data processing and validation procedures.
#
#######################################################################

data_OXINOA
_chemical_formula_moiety         'C20 H15 Cl1 F4 N4 O1'
_chemical_name_systematic        
(2-chloro-3-(trifluoromethyl)phenyl)(1-(5-fluoropyridin-2-yl)-4-methyl-1,4,6,7-tetrahydro-5H-imidazo[4,5-c]pyridin-5-yl)methanone
_chemical_properties_biological  bioactivity
_symmetry_cell_setting           orthorhombic
_symmetry_space_group_name_H-M   'P 21 21 21'
_symmetry_Int_Tables_number      19
_space_group_name_Hall           'P 2ac 2ab'
loop_
_symmetry_equiv_pos_site_id
_symmetry_equiv_pos_as_xyz
1 x,y,z
2 1/2-x,-y,1/2+z
3 -x,1/2+y,1/2-z
4 1/2+x,1/2-y,-z
_cell_length_a                   11.1596(3)
_cell_length_b                   11.9771(4)
_cell_length_c                   14.0938(4)
_cell_angle_alpha                90
_cell_angle_beta                 90
_cell_angle_gamma                90
_cell_volume                     1883.77
_exptl_crystal_colour            colorless
_exptl_crystal_description       Prism
_cell_formula_units_Z            4
loop_
_atom_site_label
_atom_site_type_symbol
_atom_site_fract_x
_atom_site_fract_y
_atom_site_fract_z
F1 F 1.17685(18) 0.92702(15) 1.08858(14)
O1 O 1.04042(17) 0.12311(17) 0.74052(15)
N1 N 1.3111(2) 0.65992(19) 1.04385(18)
N2 N 1.2526(2) 0.50854(19) 0.95101(18)
N3 N 1.3553(2) 0.35854(19) 0.90488(19)
N4 N 1.0491(2) 0.2427(2) 0.86524(17)
C1 C 1.1928(3) 0.8241(2) 1.0509(2)
C2 C 1.2925(3) 0.7638(2) 1.0768(2)
H1 H 1.3493 0.7962 1.1187
C3 C 1.2305(2) 0.6191(2) 0.98376(19)
C4 C 1.1307(2) 0.6770(2) 0.9519(2)
H2 H 1.0780 0.6449 0.9065
C5 C 1.1102(3) 0.7828(2) 0.9878(2)
H3 H 1.0418 0.8250 0.9697
C6 C 1.3632(2) 0.4615(2) 0.9351(2)
H4 H 1.4369 0.4995 0.9450
C7 C 1.2333(3) 0.3369(2) 0.9014(2)
C8 C 1.1811(2) 0.2284(2) 0.8694(2)
H5 H 1.2110 0.2122 0.8039
C9 C 0.9934(2) 0.3085(2) 0.9413(2)
H6 H 1.0135 0.2749 1.0034
H7 H 0.9052 0.3064 0.9339
C10 C 1.0361(2) 0.4302(2) 0.9394(2)
H8 H 0.9996 0.4705 0.8854
H9 H 1.0133 0.4687 0.9989
C11 C 1.1689(2) 0.4269(2) 0.92931(19)
C12 C 1.2137(3) 0.1300(3) 0.9335(3)
H10 H 1.1760 0.0619 0.9092
H11 H 1.1850 0.1447 0.9980
H12 H 1.3009 0.1205 0.9344
C13 C 0.9906(2) 0.1832(3) 0.7996(2)
Cl1 Cl 0.85152(7) 0.39213(6) 0.74027(6)
F2 F 0.62178(18) 0.37222(18) 0.62426(15)
F3 F 0.58238(17) 0.43344(17) 0.76447(16)
F4 F 0.47041(18) 0.30802(19) 0.70090(16)
C14 C 0.8560(3) 0.1783(3) 0.7990(2)
C15 C 0.7848(3) 0.2648(3) 0.7657(2)
C16 C 0.6615(3) 0.2502(3) 0.7521(3)
C17 C 0.6095(3) 0.1481(3) 0.7746(3)
H13 H 0.5257 0.1376 0.7665
C18 C 0.6801(4) 0.0612(3) 0.8088(3)
H14 H 0.6437 -0.0080 0.8249
C19 C 0.8042(8) 0.0744(8) 0.8200(6)
H15 H 0.8523 0.0140 0.8415
C20 C 0.5844(3) 0.3407(3) 0.7109(3)
Cl2? Cl 0.7689(10) 0.0566(12) 0.8116(11)
F5? F 0.5400(14) 0.0824(16) 0.6947(13)
F6? F 0.5056(12) 0.1130(17) 0.8412(11)
F7? F 0.4296(12) 0.2156(17) 0.7380(12)
C21? C 0.8514(10) 0.2592(11) 0.7800(10)
C22? C 0.7502(13) 0.1918(8) 0.7836(11)
C23? C 0.6380(10) 0.2366(11) 0.7641(14)
C24? C 0.6270(10) 0.3490(12) 0.7409(13)
H16? H 0.5503 0.3796 0.7276
C25? C 0.7283(12) 0.4164(9) 0.7373(12)
H17? H 0.7208 0.4932 0.7214
C26? C 0.8405(10) 0.3716(10) 0.7568(13)
H18? H 0.9096 0.4177 0.7543
C27? C 0.5284(18) 0.1615(17) 0.7599(16)
loop_
_geom_bond_atom_site_label_1
_geom_bond_atom_site_label_2
_geom_bond_site_symmetry_1
_geom_bond_site_symmetry_2
F1 C1 1_555 1_555
O1 C13 1_555 1_555
N1 C2 1_555 1_555
N2 C3 1_555 1_555
N3 C6 1_555 1_555
N4 C8 1_555 1_555
C1 C2 1_555 1_555
C2 H1 1_555 1_555
C3 N1 1_555 1_555
C4 C3 1_555 1_555
H2 C4 1_555 1_555
C5 C1 1_555 1_555
H3 C5 1_555 1_555
C6 N2 1_555 1_555
H4 C6 1_555 1_555
C7 N3 1_555 1_555
C8 C7 1_555 1_555
H5 C8 1_555 1_555
C9 N4 1_555 1_555
H6 C9 1_555 1_555
H7 C9 1_555 1_555
C10 C9 1_555 1_555
H8 C10 1_555 1_555
H9 C10 1_555 1_555
C11 N2 1_555 1_555
C12 C8 1_555 1_555
H10 C12 1_555 1_555
H11 C12 1_555 1_555
H12 C12 1_555 1_555
C13 N4 1_555 1_555
Cl1 C15 1_555 1_555
F2 C20 1_555 1_555
F3 C20 1_555 1_555
F4 C20 1_555 1_555
C14 C13 1_555 1_555
C15 C14 1_555 1_555
C16 C15 1_555 1_555
C17 C16 1_555 1_555
H13 C17 1_555 1_555
C18 C17 1_555 1_555
H14 C18 1_555 1_555
C19 C14 1_555 1_555
H15 C19 1_555 1_555
C20 C16 1_555 1_555
C4 C5 1_555 1_555
C7 C11 1_555 1_555
C10 C11 1_555 1_555
C18 C19 1_555 1_555

#END
