
#######################################################################
#
#                 Cambridge Crystallographic Data Centre
#                                CCDC 
#
#######################################################################
#
# If this CIF has been generated from an entry in the Cambridge 
# Structural Database, then it will include bibliographic, chemical, 
# crystal, experimental, refinement or atomic coordinate data resulting 
# from the CCDC's data processing and validation procedures.
#
#######################################################################

data_OXISAR
_chemical_formula_moiety         'C5 H6 Br2 N4 O2'
_chemical_name_systematic        
(R,S)-1-(2,3-dibromopropyl)-3-nitro-1H-1,2,4-triazole
_symmetry_cell_setting           orthorhombic
_symmetry_space_group_name_H-M   'P b c a'
_symmetry_Int_Tables_number      61
_space_group_name_Hall           '-P 2ac 2ab'
loop_
_symmetry_equiv_pos_site_id
_symmetry_equiv_pos_as_xyz
1 x,y,z
2 1/2-x,-y,1/2+z
3 -x,1/2+y,1/2-z
4 1/2+x,1/2-y,-z
5 -x,-y,-z
6 1/2+x,y,1/2-z
7 x,1/2-y,1/2+z
8 1/2-x,1/2+y,z
_cell_length_a                   7.5683(15)
_cell_length_b                   10.362(2)
_cell_length_c                   25.056(5)
_cell_angle_alpha                90
_cell_angle_beta                 90
_cell_angle_gamma                90
_cell_volume                     1964.96
_exptl_crystal_colour            colorless
_exptl_crystal_description       prism
_cell_formula_units_Z            8
loop_
_atom_site_label
_atom_site_type_symbol
_atom_site_fract_x
_atom_site_fract_y
_atom_site_fract_z
Br1 Br 0.37983(6) 0.15019(5) 0.32813(2)
Br2 Br -0.14645(6) 0.36856(6) 0.30905(2)
N1 N 0.3386(4) 0.3430(3) 0.42334(12)
N2 N 0.4370(4) 0.4437(3) 0.40727(12)
C1 C 0.5706(4) 0.4331(4) 0.44004(14)
N3 N 0.5686(4) 0.3372(3) 0.47508(13)
C2 C 0.4184(5) 0.2806(4) 0.46275(14)
H1 H 0.3744 0.2071 0.4794
N4 N 0.7159(4) 0.5241(3) 0.43728(13)
O1 O 0.8434(4) 0.5024(3) 0.46519(15)
O2 O 0.7039(4) 0.6155(3) 0.40746(14)
C3 C 0.1731(5) 0.3093(4) 0.39675(15)
H2 H 0.0887 0.3789 0.4014
H3 H 0.1241 0.2323 0.4131
C4 C 0.2012(5) 0.2856(4) 0.33775(14)
H4 H 0.2418 0.3653 0.3207
C5 C 0.0387(5) 0.2371(4) 0.30961(16)
H5 H -0.0045 0.1603 0.3275
H6 H 0.0686 0.2139 0.2732
loop_
_geom_bond_atom_site_label_1
_geom_bond_atom_site_label_2
_geom_bond_site_symmetry_1
_geom_bond_site_symmetry_2
Br1 C4 1_555 1_555
Br2 C5 1_555 1_555
N1 N2 1_555 1_555
N2 C1 1_555 1_555
C1 N3 1_555 1_555
N3 C2 1_555 1_555
C2 N1 1_555 1_555
H1 C2 1_555 1_555
N4 C1 1_555 1_555
O1 N4 1_555 1_555
O2 N4 1_555 1_555
C3 N1 1_555 1_555
H2 C3 1_555 1_555
H3 C3 1_555 1_555
C4 C3 1_555 1_555
H4 C4 1_555 1_555
C5 C4 1_555 1_555
H5 C5 1_555 1_555
H6 C5 1_555 1_555

#END
