
#######################################################################
#
#                 Cambridge Crystallographic Data Centre
#                                CCDC 
#
#######################################################################
#
# If this CIF has been generated from an entry in the Cambridge 
# Structural Database, then it will include bibliographic, chemical, 
# crystal, experimental, refinement or atomic coordinate data resulting 
# from the CCDC's data processing and validation procedures.
#
#######################################################################

data_OXIXUP
_chemical_formula_moiety         'C31 H32 N4,H2 O1'
_chemical_name_systematic        
'N-Benzyl-2,4-diisopropyl-3,7-diphenyl-5H-pyrrolo[2,3-d]pyridazin-5-amine monohydrate'
_symmetry_cell_setting           triclinic
_symmetry_space_group_name_H-M   'P -1'
_symmetry_Int_Tables_number      2
_space_group_name_Hall           '-P 1'
loop_
_symmetry_equiv_pos_site_id
_symmetry_equiv_pos_as_xyz
1 x,y,z
2 -x,-y,-z
_cell_length_a                   10.912(2)
_cell_length_b                   11.048(2)
_cell_length_c                   12.028(2)
_cell_angle_alpha                84.00(3)
_cell_angle_beta                 69.82(3)
_cell_angle_gamma                79.15(3)
_cell_volume                     1335.47
_exptl_crystal_colour            colorless
_exptl_crystal_description       column
_cell_formula_units_Z            2
loop_
_atom_site_label
_atom_site_type_symbol
_atom_site_fract_x
_atom_site_fract_y
_atom_site_fract_z
N1 N 0.22163(16) 0.64692(14) 0.07229(15)
N2 N 0.28085(16) 0.56133(15) 0.13425(14)
N3 N 0.37720(15) 0.32211(14) -0.08402(15)
N4 N 0.17122(19) 0.76407(14) 0.12681(15)
C1 C 0.33107(19) 0.45108(18) 0.08905(17)
C2 C 0.20014(19) 0.63416(17) -0.03141(17)
C3 C 0.32278(19) 0.42561(17) -0.02056(18)
C4 C 0.25120(18) 0.51645(17) -0.07839(17)
C5 C 0.25923(19) 0.46142(17) -0.18467(17)
C6 C 0.0564(2) 0.53834(18) -0.24007(19)
H1 H 0.0056 0.5312 -0.1605
C7 C 0.1309(2) 0.73992(17) -0.08812(17)
H2 H 0.1356 0.7108 -0.1639
C8 C 0.38151(19) 0.35947(19) 0.16913(18)
C9 C 0.1929(2) 0.50736(17) -0.27317(18)
C10 C 0.2009(3) 0.5576(2) -0.4773(2)
H3 H 0.2503 0.5627 -0.5575
C11 C 0.0196(2) 0.87016(19) 0.30398(19)
C12 C 0.2641(2) 0.51668(18) -0.39432(19)
H4 H 0.3558 0.4951 -0.4201
C13 C 0.3563(2) 0.23951(19) 0.18235(19)
H5 H 0.3163 0.2133 0.1343
C14 C 0.1966(2) 0.85599(18) -0.11893(19)
H6 H 0.1734 0.9015 -0.0488
H7 H 0.1666 0.9067 -0.1773
H8 H 0.2910 0.8323 -0.1499
C15 C 0.33719(19) 0.34670(18) -0.18316(18)
C16 C 0.0827(2) 0.9715(2) 0.2814(2)
H9 H 0.1699 0.9659 0.2308
C17 C 0.0665(3) 0.59023(19) -0.4410(2)
H10 H 0.0243 0.6194 -0.4960
C18 C 0.3805(2) 0.24974(18) -0.27506(19)
H11 H 0.3318 0.2763 -0.3306
C19 C -0.0163(2) 0.7706(2) -0.0172(2)
H12 H -0.0542 0.6962 0.0017
H13 H -0.0601 0.8266 -0.0634
H14 H -0.0271 0.8081 0.0548
C20 C 0.4442(2) 0.3957(2) 0.24061(19)
H15 H 0.4629 0.4756 0.2321
C21 C -0.0062(2) 0.57981(19) -0.3229(2)
H16 H -0.0979 0.6006 -0.2982
C22 C -0.1081(2) 0.8801(2) 0.3800(2)
H17 H -0.1514 0.8121 0.3966
C23 C 0.3463(2) 0.12395(18) -0.2202(2)
H18 H 0.3895 0.0970 -0.1625
H19 H 0.3758 0.0652 -0.2813
H20 H 0.2523 0.1307 -0.1825
C24 C 0.5280(2) 0.2404(2) -0.3452(2)
H21 H 0.5463 0.3195 -0.3818
H22 H 0.5524 0.1812 -0.4052
H23 H 0.5780 0.2147 -0.2926
C25 C 0.3905(2) 0.1585(2) 0.2669(2)
H24 H 0.3717 0.0787 0.2761
C26 C 0.0890(2) 0.74666(19) 0.2509(2)
H25 H 0.1440 0.7041 0.2960
H26 H 0.0237 0.6960 0.2554
C27 C -0.1106(3) 1.0915(2) 0.4092(2)
H27 H -0.1544 1.1657 0.4444
C28 C 0.0163(3) 1.0819(2) 0.3339(2)
H28 H 0.0592 1.1501 0.3175
C29 C 0.4523(2) 0.1951(2) 0.3377(2)
H29 H 0.4757 0.1401 0.3938
C30 C 0.4787(2) 0.3136(2) 0.3241(2)
H30 H 0.5201 0.3389 0.3715
C31 C -0.1734(3) 0.9908(2) 0.4326(2)
H31 H -0.2602 0.9966 0.4840
H32 H 0.2496(13) 0.795(2) 0.122(2)
O1 O 0.58069(18) 0.12438(19) 0.93351(18)
H33 H 0.5070(17) 0.1875(17) 0.934(2)
H34 H 0.561(4) 0.060(3) 0.994(2)
loop_
_geom_bond_atom_site_label_1
_geom_bond_atom_site_label_2
_geom_bond_site_symmetry_1
_geom_bond_site_symmetry_2
N1 N2 1_555 1_555
N2 C1 1_555 1_555
N3 C3 1_555 1_555
N4 N1 1_555 1_555
C1 C3 1_555 1_555
C2 N1 1_555 1_555
C3 C4 1_555 1_555
C4 C2 1_555 1_555
C5 C4 1_555 1_555
C6 H1 1_555 1_555
C7 C2 1_555 1_555
H2 C7 1_555 1_555
C8 C1 1_555 1_555
C9 C5 1_555 1_555
C10 H3 1_555 1_555
C11 C16 1_555 1_555
C12 C9 1_555 1_555
H4 C12 1_555 1_555
C13 C8 1_555 1_555
H5 C13 1_555 1_555
C14 C7 1_555 1_555
H6 C14 1_555 1_555
H7 C14 1_555 1_555
H8 C14 1_555 1_555
C15 N3 1_555 1_555
C16 H9 1_555 1_555
C17 C10 1_555 1_555
H10 C17 1_555 1_555
C18 C15 1_555 1_555
H11 C18 1_555 1_555
C19 C7 1_555 1_555
H12 C19 1_555 1_555
H13 C19 1_555 1_555
H14 C19 1_555 1_555
C20 C8 1_555 1_555
H15 C20 1_555 1_555
C21 C6 1_555 1_555
H16 C21 1_555 1_555
C22 C11 1_555 1_555
H17 C22 1_555 1_555
C23 C18 1_555 1_555
H18 C23 1_555 1_555
H19 C23 1_555 1_555
H20 C23 1_555 1_555
C24 C18 1_555 1_555
H21 C24 1_555 1_555
H22 C24 1_555 1_555
H23 C24 1_555 1_555
C25 C13 1_555 1_555
H24 C25 1_555 1_555
C26 N4 1_555 1_555
H25 C26 1_555 1_555
H26 C26 1_555 1_555
C27 H27 1_555 1_555
C28 C16 1_555 1_555
H28 C28 1_555 1_555
C29 C25 1_555 1_555
H29 C29 1_555 1_555
C30 C20 1_555 1_555
H30 C30 1_555 1_555
C31 C22 1_555 1_555
H31 C31 1_555 1_555
O1 H33 1_555 1_555
H32 N4 1_555 1_555
H34 O1 1_555 1_555
C5 C15 1_555 1_555
C6 C9 1_555 1_555
C10 C12 1_555 1_555
C11 C26 1_555 1_555
C17 C21 1_555 1_555
C27 C28 1_555 1_555
C27 C31 1_555 1_555
C29 C30 1_555 1_555

#END
