
#######################################################################
#
#                 Cambridge Crystallographic Data Centre
#                                CCDC 
#
#######################################################################
#
# If this CIF has been generated from an entry in the Cambridge 
# Structural Database, then it will include bibliographic, chemical, 
# crystal, experimental, refinement or atomic coordinate data resulting 
# from the CCDC's data processing and validation procedures.
#
#######################################################################

data_OXIXOJ
_chemical_formula_moiety         'C24 H24 N2 O1'
_chemical_name_systematic        
2-Isopropyl-5,5-dimethyl-3,7-diphenyl-1,5-dihydro-4H-pyrrolo[2,3-c]pyridin-4-one
_symmetry_cell_setting           monoclinic
_symmetry_space_group_name_H-M   'C c'
_symmetry_Int_Tables_number      9
_space_group_name_Hall           'C -2yc'
loop_
_symmetry_equiv_pos_site_id
_symmetry_equiv_pos_as_xyz
1 x,y,z
2 x,-y,1/2+z
3 1/2+x,1/2+y,z
4 1/2+x,1/2-y,1/2+z
_cell_length_a                   12.118(2)
_cell_length_b                   13.959(3)
_cell_length_c                   12.467(3)
_cell_angle_alpha                90
_cell_angle_beta                 107.72(3)
_cell_angle_gamma                90
_cell_volume                     2008.8
_cell_formula_units_Z            4
loop_
_atom_site_label
_atom_site_type_symbol
_atom_site_fract_x
_atom_site_fract_y
_atom_site_fract_z
C1 C 0.6937(4) 0.7049(3) 0.6225(4)
C2 C 0.7929(3) 0.6846(3) 0.7025(3)
C3 C 0.8873(4) 0.7328(3) 0.6745(4)
C4 C 1.0117(4) 0.7392(3) 0.7269(4)
C5 C 1.0782(4) 0.7903(4) 0.6553(3)
C6 C 0.9038(4) 0.8432(3) 0.5195(4)
C7 C 0.8384(3) 0.7816(3) 0.5739(3)
C8 C 0.5685(4) 0.6787(4) 0.6085(4)
H1 H 0.5689 0.6341 0.6694
C9 C 0.4984(4) 0.7666(4) 0.6223(5)
H2 H 0.4224 0.7469 0.6218
H3 H 0.4922 0.8104 0.5613
H4 H 0.5368 0.7977 0.6925
C10 C 0.5106(5) 0.6267(5) 0.4969(4)
H5 H 0.5603 0.5761 0.4870
H6 H 0.4974 0.6713 0.4357
H7 H 0.4380 0.6002 0.4983
C11 C 0.8059(4) 0.6184(4) 0.8013(4)
C12 C 0.7388(4) 0.6282(4) 0.8721(4)
H8 H 0.6858 0.6783 0.8614
C13 C 0.7494(5) 0.5656(5) 0.9570(5)
H9 H 0.7003 0.5716 1.0012
C14 C 0.8302(5) 0.4931(5) 0.9808(5)
H10 H 0.8386 0.4526 1.0420
C15 C 0.8988(5) 0.4822(4) 0.9106(5)
H11 H 0.9522 0.4325 0.9227
C16 C 0.8874(4) 0.5462(5) 0.8212(4)
H12 H 0.9349 0.5401 0.7754
C17 C 1.1389(4) 0.7093(5) 0.6107(4)
H13 H 1.1803 0.7360 0.5632
H14 H 1.0819 0.6647 0.5682
H15 H 1.1922 0.6767 0.6730
C18 C 1.1682(4) 0.8568(4) 0.7323(4)
H16 H 1.1299 0.9107 0.7530
H17 H 1.2208 0.8787 0.6935
H18 H 1.2106 0.8226 0.7990
C19 C 0.8436(4) 0.9044(4) 0.4219(4)
C20 C 0.8987(4) 0.9176(4) 0.3375(4)
H19 H 0.9651 0.8833 0.3397
C21 C 0.8528(5) 0.9810(4) 0.2538(4)
H20 H 0.8870 0.9872 0.1968
C22 C 0.7572(5) 1.0370(5) 0.2491(4)
H21 H 0.7294 1.0818 0.1921
C23 C 0.7047(5) 1.0239(4) 0.3319(5)
H22 H 0.6395 1.0599 0.3300
C24 C 0.7476(4) 0.9580(4) 0.4179(4)
H23 H 0.7111 0.9502 0.4731
N1 N 0.7201(3) 0.7649(3) 0.5426(3)
H24 H 0.6703 0.7877 0.4833
N2 N 1.0154(3) 0.8451(3) 0.5587(3)
O1 O 1.0613(2) 0.7070(2) 0.8210(2)
loop_
_geom_bond_atom_site_label_1
_geom_bond_atom_site_label_2
_geom_bond_site_symmetry_1
_geom_bond_site_symmetry_2
C1 C2 1_555 1_555
C2 C3 1_555 1_555
C3 C4 1_555 1_555
C4 C5 1_555 1_555
C5 C17 1_555 1_555
C6 C7 1_555 1_555
C7 C3 1_555 1_555
C8 C1 1_555 1_555
H1 C8 1_555 1_555
C9 C8 1_555 1_555
H2 C9 1_555 1_555
H3 C9 1_555 1_555
H4 C9 1_555 1_555
C10 C8 1_555 1_555
H5 C10 1_555 1_555
H6 C10 1_555 1_555
H7 C10 1_555 1_555
C11 C2 1_555 1_555
C12 C11 1_555 1_555
H8 C12 1_555 1_555
C13 C12 1_555 1_555
H9 C13 1_555 1_555
C14 C13 1_555 1_555
H10 C14 1_555 1_555
C15 C14 1_555 1_555
H11 C15 1_555 1_555
C16 C11 1_555 1_555
H12 C16 1_555 1_555
C17 H13 1_555 1_555
H14 C17 1_555 1_555
H15 C17 1_555 1_555
C18 C5 1_555 1_555
H16 C18 1_555 1_555
H17 C18 1_555 1_555
H18 C18 1_555 1_555
C19 C6 1_555 1_555
C20 C19 1_555 1_555
H19 C20 1_555 1_555
C21 C20 1_555 1_555
H20 C21 1_555 1_555
C22 C21 1_555 1_555
H21 C22 1_555 1_555
C23 C22 1_555 1_555
H22 C23 1_555 1_555
C24 C19 1_555 1_555
H23 C24 1_555 1_555
N1 C1 1_555 1_555
H24 N1 1_555 1_555
N2 C5 1_555 1_555
O1 C4 1_555 1_555
C6 N2 1_555 1_555
C7 N1 1_555 1_555
C15 C16 1_555 1_555
C23 C24 1_555 1_555

#END
