
#######################################################################
#
#                 Cambridge Crystallographic Data Centre
#                                CCDC 
#
#######################################################################
#
# If this CIF has been generated from an entry in the Cambridge 
# Structural Database, then it will include bibliographic, chemical, 
# crystal, experimental, refinement or atomic coordinate data resulting 
# from the CCDC's data processing and validation procedures.
#
#######################################################################

data_OXIXEZ
_chemical_formula_moiety         'C20 H23 N1 O2'
_chemical_name_systematic        
4-(4-Methylphenyl)-4H-spiro[2,3-benzodioxine-1,1'-cyclohexan]-4-amine
_symmetry_cell_setting           triclinic
_symmetry_space_group_name_H-M   'P -1'
_symmetry_Int_Tables_number      2
_space_group_name_Hall           '-P 1'
loop_
_symmetry_equiv_pos_site_id
_symmetry_equiv_pos_as_xyz
1 x,y,z
2 -x,-y,-z
_cell_length_a                   8.1184(5)
_cell_length_b                   10.0564(6)
_cell_length_c                   10.6131(6)
_cell_angle_alpha                102.882(2)
_cell_angle_beta                 95.326(2)
_cell_angle_gamma                100.637(2)
_cell_volume                     821.994
_exptl_crystal_colour            colorless
_exptl_crystal_description       block
_cell_formula_units_Z            2
loop_
_atom_site_label
_atom_site_type_symbol
_atom_site_fract_x
_atom_site_fract_y
_atom_site_fract_z
C1 C 0.09304(12) 0.29066(9) 0.64831(9)
H1 H -0.0065 0.2785 0.6952
H2 H 0.0520 0.2920 0.5579
C2 C 0.17829(13) 0.16657(10) 0.64461(10)
H3 H 0.0932 0.0787 0.6083
H4 H 0.2665 0.1706 0.5863
C3 C 0.25890(14) 0.16618(10) 0.78033(11)
H5 H 0.1693 0.1502 0.8358
H6 H 0.3203 0.0890 0.7734
C4 C 0.38161(13) 0.30474(10) 0.84356(10)
H7 H 0.4770 0.3162 0.7924
H8 H 0.4283 0.3038 0.9328
C5 C 0.29439(12) 0.42780(10) 0.85046(9)
H9 H 0.3786 0.5159 0.8881
H10 H 0.2066 0.4213 0.9089
C6 C 0.21212(11) 0.43088(9) 0.71546(9)
C7 C 0.12501(11) 0.55263(9) 0.72203(9)
C8 C -0.03053(12) 0.55059(10) 0.76955(10)
H11 H -0.0804 0.4730 0.8005
C9 C -0.11288(12) 0.66025(11) 0.77211(10)
H12 H -0.2191 0.6568 0.8034
C10 C -0.03982(13) 0.77516(10) 0.72883(10)
H13 H -0.0960 0.8503 0.7300
C11 C 0.11574(12) 0.77937(10) 0.68390(9)
H14 H 0.1663 0.8582 0.6551
C12 C 0.19905(11) 0.66914(9) 0.68052(8)
C13 C 0.37165(11) 0.67912(9) 0.63328(9)
C14 C 0.49254(11) 0.81590(9) 0.70431(9)
C15 C 0.54389(12) 0.84093(10) 0.83821(9)
H15 H 0.5065 0.7714 0.8830
C16 C 0.64897(12) 0.96636(10) 0.90651(9)
H16 H 0.6850 0.9807 0.9972
C17 C 0.70257(12) 1.07182(10) 0.84435(9)
C18 C 0.80894(13) 1.20974(11) 0.92245(10)
H17 H 0.9288 1.2099 0.9169
H18 H 0.7898 1.2239 1.0139
H19 H 0.7774 1.2852 0.8874
C19 C 0.65198(12) 1.04625(10) 0.71044(9)
H20 H 0.6885 1.1161 0.6659
C20 C 0.54828(12) 0.91924(9) 0.64094(9)
H21 H 0.5156 0.9034 0.5496
N1 N 0.35324(11) 0.66007(9) 0.49445(8)
H22 H 0.2762(19) 0.5819(17) 0.4586(15)
H23 H 0.454(2) 0.6532(16) 0.4659(15)
O1 O 0.33693(8) 0.44153(7) 0.62782(7)
O2 O 0.45329(8) 0.57720(6) 0.67843(7)
loop_
_geom_bond_atom_site_label_1
_geom_bond_atom_site_label_2
_geom_bond_site_symmetry_1
_geom_bond_site_symmetry_2
C1 H1 1_555 1_555
H2 C1 1_555 1_555
C2 C1 1_555 1_555
H3 C2 1_555 1_555
H4 C2 1_555 1_555
C3 C2 1_555 1_555
H5 C3 1_555 1_555
H6 C3 1_555 1_555
C4 C3 1_555 1_555
H7 C4 1_555 1_555
H8 C4 1_555 1_555
C5 C4 1_555 1_555
H9 C5 1_555 1_555
H10 C5 1_555 1_555
C6 C1 1_555 1_555
C7 C6 1_555 1_555
C8 C7 1_555 1_555
H11 C8 1_555 1_555
C9 C8 1_555 1_555
H12 C9 1_555 1_555
C10 C9 1_555 1_555
H13 C10 1_555 1_555
C11 C10 1_555 1_555
H14 C11 1_555 1_555
C12 C7 1_555 1_555
C13 C12 1_555 1_555
C14 C13 1_555 1_555
C15 C14 1_555 1_555
H15 C15 1_555 1_555
C16 C15 1_555 1_555
H16 C16 1_555 1_555
C17 C16 1_555 1_555
C18 C17 1_555 1_555
H17 C18 1_555 1_555
H18 C18 1_555 1_555
H19 C18 1_555 1_555
C19 C17 1_555 1_555
H20 C19 1_555 1_555
C20 C14 1_555 1_555
H21 C20 1_555 1_555
N1 C13 1_555 1_555
H22 N1 1_555 1_555
H23 N1 1_555 1_555
O1 C6 1_555 1_555
O2 C13 1_555 1_555
C5 C6 1_555 1_555
C11 C12 1_555 1_555
C19 C20 1_555 1_555
O1 O2 1_555 1_555

#END
