
#######################################################################
#
#                 Cambridge Crystallographic Data Centre
#                                CCDC 
#
#######################################################################
#
# If this CIF has been generated from an entry in the Cambridge 
# Structural Database, then it will include bibliographic, chemical, 
# crystal, experimental, refinement or atomic coordinate data resulting 
# from the CCDC's data processing and validation procedures.
#
#######################################################################

data_OXIYAW
_chemical_formula_moiety         'C24 H25 N1 O2'
_chemical_name_systematic        
1-(2-Benzoyl-5-isopropyl-4-phenyl-1H-pyrrol-3-yl)-2-methylpropan-1-one
_symmetry_cell_setting           triclinic
_symmetry_space_group_name_H-M   'P -1'
_symmetry_Int_Tables_number      2
_space_group_name_Hall           '-P 1'
loop_
_symmetry_equiv_pos_site_id
_symmetry_equiv_pos_as_xyz
1 x,y,z
2 -x,-y,-z
_cell_length_a                   6.2237(12)
_cell_length_b                   12.171(2)
_cell_length_c                   13.138(3)
_cell_angle_alpha                82.83(3)
_cell_angle_beta                 80.74(3)
_cell_angle_gamma                82.40(3)
_cell_volume                     968.121
_cell_formula_units_Z            2
loop_
_atom_site_label
_atom_site_type_symbol
_atom_site_fract_x
_atom_site_fract_y
_atom_site_fract_z
C1 C 0.7714(3) 0.6227(2) 0.85850(17)
C2 C 0.8302(3) 0.70640(19) 0.78077(17)
C3 C 0.6878(3) 0.8035(2) 0.80106(17)
C4 C 0.5466(3) 0.7763(2) 0.89066(18)
C5 C 0.8438(4) 0.5069(2) 0.87957(18)
C6 C 1.0498(4) 0.4579(2) 0.82350(18)
C7 C 1.0559(4) 0.3545(2) 0.79089(18)
H1 H 0.9283 0.3169 0.8053
C8 C 1.2430(4) 0.3052(2) 0.73802(19)
H2 H 1.2451 0.2339 0.7152
C9 C 1.4279(4) 0.3586(2) 0.7179(2)
H3 H 1.5584 0.3244 0.6810
C10 C 1.4252(4) 0.4609(2) 0.75063(19)
H4 H 1.5535 0.4980 0.7366
C11 C 1.2366(4) 0.5100(2) 0.80380(18)
H5 H 1.2353 0.5808 0.8273
C12 C 0.9913(3) 0.70027(19) 0.68496(17)
C13 C 0.9448(3) 0.6329(2) 0.60476(17)
H6 H 0.9168 0.5585 0.6381
C14 C 0.7405(4) 0.6879(2) 0.5608(2)
H7 H 0.6157 0.6913 0.6167
H8 H 0.7103 0.6441 0.5080
H9 H 0.7639 0.7635 0.5294
C15 C 1.1384(4) 0.6197(2) 0.51956(19)
H10 H 1.1724 0.6934 0.4867
H11 H 1.1023 0.5766 0.4676
H12 H 1.2657 0.5805 0.5492
C16 C 0.6701(4) 0.9087(2) 0.73268(18)
C17 C 0.8381(4) 0.9747(2) 0.7078(2)
H13 H 0.9686 0.9550 0.7379
C18 C 0.8172(4) 1.0695(2) 0.6389(2)
H14 H 0.9344 1.1144 0.6224
C19 C 0.6316(4) 1.1003(2) 0.5940(2)
H15 H 0.6207 1.1650 0.5457
C20 C 0.4636(4) 1.0368(2) 0.61978(19)
H16 H 0.3322 1.0580 0.5906
C21 C 0.4827(4) 0.9420(2) 0.68787(18)
H17 H 0.3639 0.8982 0.7046
C22 C 0.3722(4) 0.8503(2) 0.94836(18)
H18 H 0.3789 0.9264 0.9144
C23 C 0.4145(4) 0.8503(2) 1.05913(19)
H19 H 0.4035 0.7757 1.0961
H20 H 0.3056 0.9042 1.0943
H21 H 0.5617 0.8710 1.0584
C24 C 0.1462(4) 0.8187(2) 0.9450(2)
H22 H 0.1248 0.8190 0.8727
H23 H 0.0350 0.8726 0.9788
H24 H 0.1326 0.7441 0.9814
N1 N 0.5994(3) 0.66908(18) 0.92403(15)
O1 O 0.7323(3) 0.44708(14) 0.94267(13)
O2 O 1.1409(2) 0.75608(14) 0.66953(13)
H25 H 0.523(4) 0.629(2) 0.979(2)
loop_
_geom_bond_atom_site_label_1
_geom_bond_atom_site_label_2
_geom_bond_site_symmetry_1
_geom_bond_site_symmetry_2
C1 C2 1_555 1_555
C2 C3 1_555 1_555
C3 C4 1_555 1_555
C4 C22 1_555 1_555
C5 C1 1_555 1_555
C6 C5 1_555 1_555
C7 C6 1_555 1_555
H1 C7 1_555 1_555
C8 C7 1_555 1_555
H2 C8 1_555 1_555
C9 C8 1_555 1_555
H3 C9 1_555 1_555
C10 C9 1_555 1_555
H4 C10 1_555 1_555
C11 C6 1_555 1_555
H5 C11 1_555 1_555
C12 C2 1_555 1_555
C13 C12 1_555 1_555
H6 C13 1_555 1_555
C14 C13 1_555 1_555
H7 C14 1_555 1_555
H8 C14 1_555 1_555
H9 C14 1_555 1_555
C15 C13 1_555 1_555
H10 C15 1_555 1_555
H11 C15 1_555 1_555
H12 C15 1_555 1_555
C16 C3 1_555 1_555
C17 C16 1_555 1_555
H13 C17 1_555 1_555
C18 C17 1_555 1_555
H14 C18 1_555 1_555
C19 C18 1_555 1_555
H15 C19 1_555 1_555
C20 C19 1_555 1_555
H16 C20 1_555 1_555
C21 C16 1_555 1_555
H17 C21 1_555 1_555
C22 H18 1_555 1_555
C23 C22 1_555 1_555
H19 C23 1_555 1_555
H20 C23 1_555 1_555
H21 C23 1_555 1_555
C24 C22 1_555 1_555
H22 C24 1_555 1_555
H23 C24 1_555 1_555
H24 C24 1_555 1_555
N1 C1 1_555 1_555
O1 C5 1_555 1_555
O2 C12 1_555 1_555
H25 N1 1_555 1_555
C4 N1 1_555 1_555
C10 C11 1_555 1_555
C20 C21 1_555 1_555

#END
