
#######################################################################
#
#                 Cambridge Crystallographic Data Centre
#                                CCDC 
#
#######################################################################
#
# If this CIF has been generated from an entry in the Cambridge 
# Structural Database, then it will include bibliographic, chemical, 
# crystal, experimental, refinement or atomic coordinate data resulting 
# from the CCDC's data processing and validation procedures.
#
#######################################################################

data_OXOCIO
_chemical_formula_moiety         'C32 H29 B1 F2 N4 O2'
_chemical_name_systematic        
4-(5,5-Difluoro-10-mesityl-8-(4-nitrophenyl)-5H-4\l^5^,5\l^5^-dipyrrolo[1,2-c:2',1'-f][1,3,2]diazaborinin-2-yl)-N,N-dimethylaniline
_symmetry_cell_setting           monoclinic
_symmetry_space_group_name_H-M   'P 21/c'
_symmetry_Int_Tables_number      14
_space_group_name_Hall           '-P 2ybc'
loop_
_symmetry_equiv_pos_site_id
_symmetry_equiv_pos_as_xyz
1 x,y,z
2 -x,1/2+y,1/2-z
3 -x,-y,-z
4 x,1/2-y,1/2+z
_cell_length_a                   7.676(5)
_cell_length_b                   24.661(5)
_cell_length_c                   14.676(5)
_cell_angle_alpha                90
_cell_angle_beta                 100.684(5)
_cell_angle_gamma                90
_cell_volume                     2729.97
_exptl_crystal_colour            purple
_exptl_crystal_description       prism
_cell_formula_units_Z            4
loop_
_atom_site_label
_atom_site_type_symbol
_atom_site_fract_x
_atom_site_fract_y
_atom_site_fract_z
F1 F 0.6432(4) 0.62204(10) 0.62880(16)
F2 F 0.9055(3) 0.63347(10) 0.58177(17)
N1 N 0.7336(5) 0.71288(14) 0.5995(2)
C1 C 0.5015(5) 0.73882(17) 0.4704(3)
C2 C 0.6163(5) 0.75179(16) 0.5517(3)
C3 C 0.3661(5) 0.78006(16) 0.4294(3)
C4 C 0.8322(6) 0.73768(17) 0.6713(3)
H1 H 0.9212 0.7203 0.7152
C5 C 0.3877(6) 0.80903(17) 0.3496(3)
C6 C 0.9601(5) 0.81841(18) 0.8305(3)
H2 H 0.9578 0.7816 0.8490
C7 C 0.5118(6) 0.68796(17) 0.4277(3)
C8 C 0.8836(6) 0.88741(17) 0.7175(3)
H3 H 0.8276 0.8985 0.6572
C9 C 0.4477(6) 0.57823(18) 0.2533(3)
C10 C 0.4943(6) 0.61570(17) 0.3309(3)
C11 C 0.6525(5) 0.80134(17) 0.6001(3)
H4 H 0.5927 0.8347 0.5838
C12 C 1.0547(6) 0.91074(18) 0.8675(3)
C13 C 0.7883(5) 0.79339(17) 0.6745(3)
C14 C 0.8768(6) 0.83344(17) 0.7415(3)
N2 N 0.6328(5) 0.64904(14) 0.4704(2)
C15 C 0.2220(6) 0.79025(17) 0.4725(3)
C16 C 0.4270(6) 0.66734(17) 0.3420(3)
H5 H 0.3386 0.6854 0.2988
O1 O 0.3593(7) 0.42251(17) 0.0344(3)
C17 C 1.0459(6) 0.85641(18) 0.8920(3)
H6 H 1.1003 0.8452 0.9525
C18 C 0.6201(6) 0.60632(18) 0.4127(3)
H7 H 0.6872 0.5739 0.4252
C19 C 0.2606(6) 0.84752(17) 0.3147(3)
H8 H 0.2730 0.8669 0.2602
C20 C 0.9685(6) 0.92576(18) 0.7780(3)
H9 H 0.9689 0.9626 0.7592
C21 C 0.3524(7) 0.5073(2) 0.1046(3)
C22 C 0.5459(6) 0.8007(2) 0.3046(3)
H10 H 0.5344 0.7660 0.2713
H11 H 0.6538 0.8003 0.3522
H12 H 0.5529 0.8303 0.2608
C23 C 0.3365(6) 0.59405(19) 0.1720(3)
H13 H 0.2918 0.6301 0.1671
B1 B 0.7328(7) 0.6519(2) 0.5722(4)
C24 C 0.0990(6) 0.82973(19) 0.4346(3)
H14 H 0.0005 0.8369 0.4636
C25 C 0.1168(6) 0.85880(19) 0.3559(4)
N3 N 0.3024(7) 0.4699(2) 0.0269(3)
C26 C 0.1944(6) 0.7599(2) 0.5578(3)
H15 H 0.2179 0.7213 0.5503
H16 H 0.0717 0.7647 0.5664
H17 H 0.2756 0.7740 0.6121
C27 C 1.2460(6) 0.9340(2) 1.0150(3)
H18 H 1.1672 0.9185 1.0536
H19 H 1.3060 0.9659 1.0458
H20 H 1.3346 0.9069 1.0057
C28 C 0.2887(7) 0.5591(2) 0.0979(3)
H21 H 0.2125 0.5710 0.0430
C29 C 0.4614(8) 0.4898(2) 0.1831(4)
H22 H 0.5042 0.4536 0.1873
O2 O 0.1999(7) 0.48664(18) -0.0441(3)
N4 N 1.1455(7) 0.94926(18) 0.9281(3)
C30 C 0.5097(8) 0.5251(2) 0.2568(4)
H23 H 0.5868 0.5127 0.3110
C31 C -0.0131(7) 0.9033(2) 0.3184(4)
H24 H 0.0324 0.9382 0.3442
H25 H -0.1278 0.8959 0.3361
H26 H -0.0278 0.9044 0.2507
C32 C 1.1584(8) 1.00318(19) 0.9026(4)
H27 H 1.1576 1.0053 0.8358
H28 H 1.2691 1.0187 0.9367
H29 H 1.0575 1.0236 0.9173
loop_
_geom_bond_atom_site_label_1
_geom_bond_atom_site_label_2
_geom_bond_site_symmetry_1
_geom_bond_site_symmetry_2
F1 B1 1_555 1_555
F2 B1 1_555 1_555
N1 C2 1_555 1_555
C1 C2 1_555 1_555
C2 C11 1_555 1_555
C3 C1 1_555 1_555
C4 N1 1_555 1_555
H1 C4 1_555 1_555
C5 C3 1_555 1_555
C6 H2 1_555 1_555
C7 C1 1_555 1_555
C8 H3 1_555 1_555
C9 C10 1_555 1_555
C10 C16 1_555 1_555
C11 H4 1_555 1_555
C12 C17 1_555 1_555
C13 C4 1_555 1_555
C14 C6 1_555 1_555
N2 C7 1_555 1_555
C15 C3 1_555 1_555
C16 C7 1_555 1_555
H5 C16 1_555 1_555
O1 N3 1_555 1_555
C17 C6 1_555 1_555
H6 C17 1_555 1_555
C18 C10 1_555 1_555
H7 C18 1_555 1_555
C19 C5 1_555 1_555
H8 C19 1_555 1_555
C20 C8 1_555 1_555
H9 C20 1_555 1_555
C21 N3 1_555 1_555
C22 C5 1_555 1_555
H10 C22 1_555 1_555
H11 C22 1_555 1_555
H12 C22 1_555 1_555
C23 C9 1_555 1_555
H13 C23 1_555 1_555
B1 N1 1_555 1_555
C24 C15 1_555 1_555
H14 C24 1_555 1_555
C25 C19 1_555 1_555
N3 O2 1_555 1_555
C26 C15 1_555 1_555
H15 C26 1_555 1_555
H16 C26 1_555 1_555
H17 C26 1_555 1_555
C27 H18 1_555 1_555
H19 C27 1_555 1_555
H20 C27 1_555 1_555
C28 C21 1_555 1_555
H21 C28 1_555 1_555
C29 C21 1_555 1_555
H22 C29 1_555 1_555
N4 C12 1_555 1_555
C30 C9 1_555 1_555
H23 C30 1_555 1_555
C31 C25 1_555 1_555
H24 C31 1_555 1_555
H25 C31 1_555 1_555
H26 C31 1_555 1_555
C32 N4 1_555 1_555
H27 C32 1_555 1_555
H28 C32 1_555 1_555
H29 C32 1_555 1_555
C8 C14 1_555 1_555
C11 C13 1_555 1_555
C12 C20 1_555 1_555
C13 C14 1_555 1_555
N2 C18 1_555 1_555
N2 B1 1_555 1_555
C23 C28 1_555 1_555
C24 C25 1_555 1_555
C27 N4 1_555 1_555
C29 C30 1_555 1_555

#END
