
#######################################################################
#
#                 Cambridge Crystallographic Data Centre
#                                CCDC 
#
#######################################################################
#
# If this CIF has been generated from an entry in the Cambridge 
# Structural Database, then it will include bibliographic, chemical, 
# crystal, experimental, refinement or atomic coordinate data resulting 
# from the CCDC's data processing and validation procedures.
#
#######################################################################

data_OXODUC02
_chemical_name_common            5-fluoro-5,6-(bis(2-pyridyl)cyclobuta)uracil
_chemical_formula_moiety         'C16 H13 F1 N4 O2'
_chemical_name_systematic        
6-fluoro-7,8-bis(pyridin-2-yl)-2,4-diazabicyclo[4.2.0]octane-3,5-dione
_symmetry_cell_setting           triclinic
_symmetry_space_group_name_H-M   'P -1'
_symmetry_Int_Tables_number      2
_space_group_name_Hall           '-P 1'
loop_
_symmetry_equiv_pos_site_id
_symmetry_equiv_pos_as_xyz
1 x,y,z
2 -x,-y,-z
_cell_length_a                   7.8358(8)
_cell_length_b                   12.4452(12)
_cell_length_c                   15.6290(15)
_cell_angle_alpha                98.513(5)
_cell_angle_beta                 102.020(5)
_cell_angle_gamma                101.749(5)
_cell_volume                     1430.31
_exptl_crystal_colour            colorless
_exptl_crystal_description       plate-like
_cell_formula_units_Z            4
loop_
_atom_site_label
_atom_site_type_symbol
_atom_site_fract_x
_atom_site_fract_y
_atom_site_fract_z
F1 F 0.91323(19) 1.04902(11) 0.72766(9)
O1 O 0.3651(2) 0.75121(15) 0.61935(12)
O2 O 0.7297(2) 1.03724(15) 0.54731(12)
N1 N 0.7582(3) 0.75219(19) 0.48662(15)
N2 N 0.6627(3) 0.78471(19) 0.68299(14)
N3 N 0.5530(3) 0.89399(18) 0.58610(14)
N4 N 1.2649(3) 0.94251(18) 0.76053(14)
C1 C 0.6590(4) 0.6736(3) 0.4162(2)
H1 H 0.5850 0.6960 0.3711
C2 C 0.6589(4) 0.5629(3) 0.4059(2)
H2 H 0.5846 0.5114 0.3563
C3 C 0.7699(5) 0.5304(3) 0.4700(3)
H3 H 0.7741 0.4557 0.4655
C4 C 0.8761(4) 0.6097(3) 0.5419(2)
H4 H 0.9560 0.5893 0.5857
C5 C 0.8653(3) 0.7189(2) 0.54948(16)
C6 C 0.9656(3) 0.8028(2) 0.63270(15)
H5 H 1.0626 0.7760 0.6669
C7 C 0.8462(3) 0.8439(2) 0.69403(15)
H6 H 0.9111 0.8569 0.7569
C8 C 0.5199(3) 0.8048(2) 0.62995(16)
C9 C 0.7139(3) 0.9642(2) 0.59123(16)
C10 C 0.8727(3) 0.9526(2) 0.66139(15)
C11 C 1.0327(3) 0.9262(2) 0.62550(16)
H7 H 1.0247 0.9360 0.5638
C12 C 1.2145(3) 0.9841(2) 0.68776(16)
C13 C 1.3223(4) 1.0757(2) 0.66964(18)
H8 H 1.2837 1.1042 0.6192
C14 C 1.4889(4) 1.1249(3) 0.7276(2)
H9 H 1.5638 1.1866 0.7163
C15 C 1.5425(4) 1.0819(3) 0.80154(19)
H10 H 1.6542 1.1130 0.8412
C16 C 1.4266(4) 0.9920(3) 0.81506(18)
H11 H 1.4624 0.9631 0.8656
H12 H 0.634(4) 0.730(2) 0.7096(18)
H13 H 0.464(4) 0.901(2) 0.5499(17)
F2 F 0.30148(19) 0.78301(13) 0.99530(9)
O3 O 0.5706(2) 0.60645(14) 0.78557(11)
O4 O 0.3302(3) 0.56017(18) 1.02081(13)
N5 N 0.0982(3) 0.4467(2) 0.80095(15)
N6 N 0.3259(3) 0.67501(18) 0.79189(15)
N7 N 0.4561(3) 0.59244(19) 0.90615(14)
N8 N -0.0943(3) 0.80558(18) 0.90358(14)
C17 C 0.0895(5) 0.3450(3) 0.7542(2)
H14 H 0.1756 0.3073 0.7752
C18 C -0.0394(5) 0.2940(3) 0.6774(2)
H15 H -0.0392 0.2242 0.6466
C19 C -0.1677(5) 0.3476(3) 0.6472(2)
H16 H -0.2580 0.3147 0.5957
C20 C -0.1614(4) 0.4512(3) 0.6943(2)
H17 H -0.2495 0.4885 0.6753
C21 C -0.0250(3) 0.5000(2) 0.76945(17)
C22 C -0.0022(3) 0.6176(2) 0.81650(16)
H18 H -0.0943 0.6514 0.7864
C23 C 0.1910(3) 0.6983(2) 0.83661(15)
H19 H 0.1790 0.7746 0.8337
C24 C 0.4548(3) 0.6249(2) 0.82442(16)
C25 C 0.3356(3) 0.6041(2) 0.95681(17)
C26 C 0.2200(3) 0.6842(2) 0.93207(16)
C27 C 0.0165(3) 0.6392(2) 0.91934(16)
H20 H -0.0136 0.5703 0.9420
C28 C -0.0723(3) 0.7280(2) 0.95274(16)
C29 C -0.1207(4) 0.7316(3) 1.03278(19)
H21 H -0.1021 0.6776 1.0666
C30 C -0.1971(5) 0.8164(3) 1.0624(2)
H22 H -0.2308 0.8202 1.1162
C31 C -0.2221(5) 0.8944(3) 1.0111(2)
H23 H -0.2741 0.9520 1.0290
C32 C -0.1691(4) 0.8861(3) 0.9332(2)
H24 H -0.1861 0.9396 0.8987
H25 H 0.332(3) 0.702(2) 0.7386(18)
H26 H 0.534(4) 0.552(2) 0.9217(18)
loop_
_geom_bond_atom_site_label_1
_geom_bond_atom_site_label_2
_geom_bond_site_symmetry_1
_geom_bond_site_symmetry_2
F1 C10 1_555 1_555
O1 C8 1_555 1_555
O2 C9 1_555 1_555
N1 C1 1_555 1_555
N2 C7 1_555 1_555
N3 C8 1_555 1_555
N4 C12 1_555 1_555
C1 H1 1_555 1_555
C2 C1 1_555 1_555
H2 C2 1_555 1_555
C3 C2 1_555 1_555
H3 C3 1_555 1_555
C4 C3 1_555 1_555
H4 C4 1_555 1_555
C5 N1 1_555 1_555
C6 C5 1_555 1_555
H5 C6 1_555 1_555
C7 C6 1_555 1_555
H6 C7 1_555 1_555
C8 N2 1_555 1_555
C9 N3 1_555 1_555
C10 C7 1_555 1_555
C11 C6 1_555 1_555
H7 C11 1_555 1_555
C12 C11 1_555 1_555
C13 C12 1_555 1_555
H8 C13 1_555 1_555
C14 C13 1_555 1_555
H9 C14 1_555 1_555
C15 C14 1_555 1_555
H10 C15 1_555 1_555
C16 N4 1_555 1_555
H11 C16 1_555 1_555
H12 N2 1_555 1_555
H13 N3 1_555 1_555
F2 C26 1_555 1_555
O3 C24 1_555 1_555
O4 C25 1_555 1_555
N5 C17 1_555 1_555
N6 C23 1_555 1_555
N7 C24 1_555 1_555
N8 C28 1_555 1_555
C17 H14 1_555 1_555
C18 C17 1_555 1_555
H15 C18 1_555 1_555
C19 C18 1_555 1_555
H16 C19 1_555 1_555
C20 C19 1_555 1_555
H17 C20 1_555 1_555
C21 N5 1_555 1_555
C22 C21 1_555 1_555
H18 C22 1_555 1_555
C23 C22 1_555 1_555
H19 C23 1_555 1_555
C24 N6 1_555 1_555
C25 N7 1_555 1_555
C26 C23 1_555 1_555
C27 C22 1_555 1_555
H20 C27 1_555 1_555
C28 C27 1_555 1_555
C29 C28 1_555 1_555
H21 C29 1_555 1_555
C30 C29 1_555 1_555
H22 C30 1_555 1_555
C31 C30 1_555 1_555
H23 C31 1_555 1_555
C32 N8 1_555 1_555
H24 C32 1_555 1_555
H25 N6 1_555 1_555
H26 N7 1_555 1_555
C4 C5 1_555 1_555
C9 C10 1_555 1_555
C10 C11 1_555 1_555
C15 C16 1_555 1_555
C20 C21 1_555 1_555
C25 C26 1_555 1_555
C26 C27 1_555 1_555
C31 C32 1_555 1_555

#END
