
#######################################################################
#
#                 Cambridge Crystallographic Data Centre
#                                CCDC 
#
#######################################################################
#
# If this CIF has been generated from an entry in the Cambridge 
# Structural Database, then it will include bibliographic, chemical, 
# crystal, experimental, refinement or atomic coordinate data resulting 
# from the CCDC's data processing and validation procedures.
#
#######################################################################

data_OXODOW02
_chemical_name_common            
'bis(5-fluorouracil) 1,2-bis(2-pyridyl)ethylene'
_chemical_formula_moiety         'C12 H10 N2,2(C4 H3 F1 N2 O2)'
_chemical_name_systematic        
'bis(5-fluoropyrimidine-2,4(1H,3H)-dione) 2-(2-(pyridin-2-yl)vinyl)pyridine'
_symmetry_cell_setting           triclinic
_symmetry_space_group_name_H-M   'P -1'
_symmetry_Int_Tables_number      2
_space_group_name_Hall           '-P 1'
loop_
_symmetry_equiv_pos_site_id
_symmetry_equiv_pos_as_xyz
1 x,y,z
2 -x,-y,-z
_cell_length_a                   5.502(2)
_cell_length_b                   8.865(3)
_cell_length_c                   10.409(5)
_cell_angle_alpha                107.757(5)
_cell_angle_beta                 97.878(5)
_cell_angle_gamma                93.199(5)
_cell_volume                     476.38
_exptl_crystal_colour            colorless
_exptl_crystal_description       plate-like
_cell_formula_units_Z            1
_chemical_properties_physical    Photo-sensitive
loop_
_atom_site_label
_atom_site_type_symbol
_atom_site_fract_x
_atom_site_fract_y
_atom_site_fract_z
F1 F 1.0891(2) 0.24349(16) 0.33310(13)
O1 O 0.3673(3) 0.54262(18) 0.14586(15)
O2 O 0.7495(3) 0.38418(19) 0.49351(14)
N1 N 0.7044(3) 0.4065(2) 0.11088(18)
H1 H 0.688(4) 0.418(3) 0.026(2)
N2 N 0.5628(3) 0.4626(2) 0.31819(17)
H2 H 0.449(4) 0.508(3) 0.370(2)
C1 C 0.8891(4) 0.3285(3) 0.1576(2)
H3 H 1.0020 0.2809 0.0999
C2 C 0.9090(4) 0.3198(2) 0.2845(2)
C3 C 0.7416(4) 0.3893(3) 0.3759(2)
C4 C 0.5350(4) 0.4747(2) 0.1879(2)
N3 N 0.8130(4) 0.8523(2) 0.11141(19)
C5 C 0.9453(4) 0.7947(3) 0.2003(3)
H4 H 1.0779 0.7362 0.1708
C6 C 0.9032(4) 0.8143(3) 0.3317(2)
H5 H 1.0032 0.7711 0.3908
C7 C 0.7112(5) 0.8986(3) 0.3737(2)
H6 H 0.6747 0.9145 0.4632
C8 C 0.5717(4) 0.9600(3) 0.2849(2)
H7 H 0.4387 1.0191 0.3129
C9 C 0.6265(4) 0.9351(3) 0.1549(2)
C10 C 0.4768(4) 1.0024(3) 0.0612(2)
H8 H 0.3372 1.0526 0.0908
N3A N 0.1870(4) 1.1477(2) -0.11141(19)
C5A C 0.0547(4) 1.2053(3) -0.2003(3)
H4A H -0.0779 1.2638 -0.1708
C6A C 0.0968(4) 1.1857(3) -0.3317(2)
H5A H -0.0032 1.2289 -0.3908
C7A C 0.2888(5) 1.1014(3) -0.3737(2)
H6A H 0.3253 1.0855 -0.4632
C8A C 0.4283(4) 1.0400(3) -0.2849(2)
H7A H 0.5613 0.9809 -0.3129
C9A C 0.3735(4) 1.0649(3) -0.1549(2)
C10A C 0.5232(4) 0.9976(3) -0.0612(2)
H8A H 0.6628 0.9474 -0.0908
loop_
_geom_bond_atom_site_label_1
_geom_bond_atom_site_label_2
_geom_bond_site_symmetry_1
_geom_bond_site_symmetry_2
F1 C2 1_555 1_555
O1 C4 1_555 1_555
O2 C3 1_555 1_555
N1 H1 1_555 1_555
N2 H2 1_555 1_555
C1 N1 1_555 1_555
H3 C1 1_555 1_555
C2 C1 1_555 1_555
C3 N2 1_555 1_555
C4 N1 1_555 1_555
N3 C5 1_555 1_555
C5 H4 1_555 1_555
C6 C5 1_555 1_555
H5 C6 1_555 1_555
C7 C6 1_555 1_555
H6 C7 1_555 1_555
C8 C7 1_555 1_555
H7 C8 1_555 1_555
C9 N3 1_555 1_555
C10 C9 1_555 1_555
H8 C10 1_555 1_555
N3A C5A 1_555 1_555
C5A H4A 1_555 1_555
C6A C5A 1_555 1_555
H5A C6A 1_555 1_555
C7A C6A 1_555 1_555
H6A C7A 1_555 1_555
C8A C7A 1_555 1_555
H7A C8A 1_555 1_555
C9A N3A 1_555 1_555
C10A C10 1_555 1_555
H8A C10A 1_555 1_555
N2 C4 1_555 1_555
C2 C3 1_555 1_555
C8 C9 1_555 1_555
C8A C9A 1_555 1_555
C9A C10A 1_555 1_555

#END
