
#######################################################################
#
#                 Cambridge Crystallographic Data Centre
#                                CCDC 
#
#######################################################################
#
# If this CIF has been generated from an entry in the Cambridge 
# Structural Database, then it will include bibliographic, chemical, 
# crystal, experimental, refinement or atomic coordinate data resulting 
# from the CCDC's data processing and validation procedures.
#
#######################################################################

data_OXOHEQ
_chemical_formula_moiety         'C6 H8 O6,C6 H6 N2 O1'
_chemical_name_systematic        
'nicotinamide 5-(1,2-dihydroxyethyl)-3,4-dihydroxyfuran-2(5H)-one'
_symmetry_cell_setting           triclinic
_symmetry_space_group_name_H-M   'P 1'
_symmetry_Int_Tables_number      1
_space_group_name_Hall           'P 1'
loop_
_symmetry_equiv_pos_site_id
_symmetry_equiv_pos_as_xyz
1 x,y,z
_cell_length_a                   5.0886(2)
_cell_length_b                   7.2518(3)
_cell_length_c                   17.1681(7)
_cell_angle_alpha                93.324(3)
_cell_angle_beta                 93.952(3)
_cell_angle_gamma                97.338(3)
_cell_volume                     625.417
_exptl_crystal_colour            colorless
_exptl_crystal_description       block
_cell_formula_units_Z            2
loop_
_atom_site_label
_atom_site_type_symbol
_atom_site_fract_x
_atom_site_fract_y
_atom_site_fract_z
O1 O -0.0393(4) 0.3014(3) -0.12871(12)
N1 N 0.3967(5) 0.3228(3) -0.14778(15)
H1 H 0.3648 0.3195 -0.1977
H2 H 0.5578 0.3316 -0.1277
N2 N 0.1255(5) 0.2244(4) 0.10807(14)
C1 C 0.1981(6) 0.3143(4) -0.10179(17)
C2 C 0.2642(6) 0.3218(4) -0.01563(16)
C3 C 0.4994(6) 0.4134(4) 0.02133(16)
H3 H 0.6272 0.4743 -0.0078
C4 C 0.5433(6) 0.4138(4) 0.10181(17)
H4 H 0.6977 0.4781 0.1276
C5 C 0.3527(6) 0.3165(4) 0.14330(17)
H5 H 0.3831 0.3150 0.1973
C6 C 0.0810(6) 0.2279(4) 0.02986(16)
H6 H -0.0770 0.1656 0.0055
O2 O 1.3541(4) 0.8056(3) 0.91082(12)
N3 N 1.1979(5) 0.8501(3) 0.67249(14)
N4 N 0.9176(5) 0.7817(3) 0.92879(15)
H7 H 0.9492 0.7908 0.9788
H8 H 0.7564 0.7690 0.9085
C7 C 1.1159(6) 0.7872(4) 0.88318(16)
C8 C 1.0546(6) 0.7722(4) 0.79732(17)
C9 C 1.2395(6) 0.8600(4) 0.74970(16)
H9 H 1.3958 0.9271 0.7731
C10 C 0.9734(6) 0.7536(4) 0.63700(17)
H10 H 0.9472 0.7469 0.5827
C11 C 0.7801(6) 0.6638(4) 0.68030(16)
H11 H 0.6264 0.5971 0.6552
C12 C 0.8189(6) 0.6747(4) 0.76103(16)
H12 H 0.6898 0.6179 0.7908
O3 O 0.7629(4) 0.1376(3) 0.73223(11)
H13 H 0.8711 0.1962 0.7652
O4 O 0.6722(4) 0.4356(3) 0.34205(12)
H14 H 0.5709 0.3438 0.3239
O5 O 1.0703(4) 0.3225(3) 0.56595(11)
O6 O 0.5823(4) 0.4597(3) 0.51144(12)
H15 H 0.4375 0.4236 0.5274
O7 O 0.4800(4) 0.0001(3) 0.57343(11)
H16 H 0.4197 -0.0349 0.6140
O8 O 1.2420(4) 0.3821(3) 0.69030(11)
C13 C 0.8261(6) 0.1840(4) 0.65961(16)
C14 C 0.6980(6) 0.1196(4) 0.59069(16)
C15 C 0.8447(6) 0.2017(4) 0.52566(16)
H17 H 0.9109 0.1016 0.4950
C16 C 0.6790(6) 0.3080(4) 0.47093(16)
H18 H 0.5261 0.2218 0.4476
C17 C 0.8385(6) 0.3848(4) 0.40476(17)
H19 H 0.9610 0.4930 0.4252
H20 H 0.9424 0.2911 0.3854
C18 C 1.0650(6) 0.3040(4) 0.64481(16)
O9 O 0.1758(4) 0.8862(3) 0.43664(12)
H21 H 0.3020 0.9373 0.4657
O10 O 0.2646(4) 0.7188(3) 0.20821(11)
O11 O 0.0682(4) 0.7120(3) 0.08641(12)
O12 O 0.3334(4) 1.0815(3) 0.30493(11)
H22 H 0.1804 1.0520 0.2859
O13 O 0.5558(4) 0.9639(3) 0.05251(11)
H23 H 0.4392 0.9240 0.0181
O14 O 0.8648(4) 1.0326(3) 0.20752(12)
H24 H 0.9107 1.0871 0.1691
C19 C 0.2717(6) 0.7906(4) 0.37189(16)
H25 H 0.1213 0.7278 0.3385
H26 H 0.3736 0.6961 0.3911
C20 C 0.4459(6) 0.9194(4) 0.32316(17)
H27 H 0.6135 0.9599 0.3547
C21 C 0.5123(6) 0.8088(4) 0.24995(16)
H28 H 0.6238 0.7142 0.2651
C22 C 0.2576(6) 0.7689(4) 0.13273(17)
C23 C 0.4967(6) 0.8896(4) 0.12042(16)
C24 C 0.6405(6) 0.9230(4) 0.18894(16)
loop_
_geom_bond_atom_site_label_1
_geom_bond_atom_site_label_2
_geom_bond_site_symmetry_1
_geom_bond_site_symmetry_2
O1 C1 1_555 1_555
N1 H1 1_555 1_555
H2 N1 1_555 1_555
N2 C5 1_555 1_555
C1 N1 1_555 1_555
C2 C1 1_555 1_555
C3 C2 1_555 1_555
H3 C3 1_555 1_555
C4 C3 1_555 1_555
H4 C4 1_555 1_555
C5 C4 1_555 1_555
H5 C5 1_555 1_555
C6 N2 1_555 1_555
H6 C6 1_555 1_555
O2 C7 1_555 1_555
N3 C9 1_555 1_555
N4 H7 1_555 1_555
H8 N4 1_555 1_555
C7 N4 1_555 1_555
C8 C7 1_555 1_555
C9 C8 1_555 1_555
H9 C9 1_555 1_555
C10 N3 1_555 1_555
H10 C10 1_555 1_555
C11 C10 1_555 1_555
H11 C11 1_555 1_555
C12 C8 1_555 1_555
H12 C12 1_555 1_555
O3 H13 1_555 1_555
O4 H14 1_555 1_555
O5 C15 1_555 1_555
O6 H15 1_555 1_555
O7 H16 1_555 1_555
O8 C18 1_555 1_555
C13 O3 1_555 1_555
C14 O7 1_555 1_555
C15 C14 1_555 1_555
H17 C15 1_555 1_555
C16 O6 1_555 1_555
H18 C16 1_555 1_555
C17 O4 1_555 1_555
H19 C17 1_555 1_555
H20 C17 1_555 1_555
C18 O5 1_555 1_555
O9 H21 1_555 1_555
O10 C21 1_555 1_555
O11 C22 1_555 1_555
O12 H22 1_555 1_555
O13 H23 1_555 1_555
O14 H24 1_555 1_555
C19 O9 1_555 1_555
H25 C19 1_555 1_555
H26 C19 1_555 1_555
C20 O12 1_555 1_555
H27 C20 1_555 1_555
C21 C20 1_555 1_555
H28 C21 1_555 1_555
C22 O10 1_555 1_555
C23 O13 1_555 1_555
C24 O14 1_555 1_555
C2 C6 1_555 1_555
C11 C12 1_555 1_555
C13 C14 1_555 1_555
C13 C18 1_555 1_555
C15 C16 1_555 1_555
C16 C17 1_555 1_555
C19 C20 1_555 1_555
C21 C24 1_555 1_555
C22 C23 1_555 1_555
C23 C24 1_555 1_555

#END
