
#######################################################################
#
#                 Cambridge Crystallographic Data Centre
#                                CCDC 
#
#######################################################################
#
# If this CIF has been generated from an entry in the Cambridge 
# Structural Database, then it will include bibliographic, chemical, 
# crystal, experimental, refinement or atomic coordinate data resulting 
# from the CCDC's data processing and validation procedures.
#
#######################################################################

data_OXOHAM
_chemical_formula_moiety         'C6 H8 O6,2(C6 H6 N2 O1)'
_chemical_name_systematic        
'bis(isonicotinamide) 5-(1,2-dihydroxyethyl)-3,4-dihydroxyfuran-2(5H)-one'
_symmetry_cell_setting           monoclinic
_symmetry_space_group_name_H-M   'P 2'
_symmetry_Int_Tables_number      3
_space_group_name_Hall           'P 2y'
loop_
_symmetry_equiv_pos_site_id
_symmetry_equiv_pos_as_xyz
1 x,y,z
2 -x,y,-z
_cell_length_a                   8.9340(9)
_cell_length_b                   5.1587(5)
_cell_length_c                   43.225(4)
_cell_angle_alpha                90
_cell_angle_beta                 93.000(7)
_cell_angle_gamma                90
_cell_volume                     1989.42
_exptl_crystal_colour            colorless
_exptl_crystal_description       block
_cell_formula_units_Z            4
loop_
_atom_site_label
_atom_site_type_symbol
_atom_site_fract_x
_atom_site_fract_y
_atom_site_fract_z
O1 O 0.3827(2) 0.5046(5) 0.04939(5)
O2 O 0.5306(2) 0.8423(5) 0.03902(5)
O3 O 0.5102(3) 0.5599(5) 0.11478(5)
H1 H 0.4423 0.4579 0.1102
O4 O 0.7212(3) 1.0185(5) 0.11076(5)
H2 H 0.6935 0.9744 0.1278
O5 O 0.8522(3) 0.7566(4) 0.04204(5)
H3 H 0.8089 0.6622 0.0292
O6 O 0.7130(3) 1.3670(5) 0.00940(5)
H4 H 0.6728 1.4059 -0.0075
C1 C 0.7683(4) 1.1055(7) 0.00825(7)
H5 H 0.8645 1.1021 -0.0012
H6 H 0.6988 0.9977 -0.0040
C2 C 0.7843(4) 1.0065(7) 0.04110(7)
H7 H 0.8520 1.1248 0.0528
C3 C 0.6357(3) 1.0091(8) 0.05652(7)
H8 H 0.5964 1.1865 0.0562
C4 C 0.4754(4) 0.6648(7) 0.05887(8)
C5 C 0.5411(3) 0.7037(7) 0.08959(7)
C6 C 0.6348(3) 0.9067(7) 0.08862(7)
O7 O -0.1562(2) 0.8560(5) 0.45089(5)
O8 O -0.0023(2) 0.5195(5) 0.46091(5)
O9 O -0.0760(3) 0.7844(5) 0.38489(5)
H9 H -0.1371 0.8930 0.3899
O10 O 0.1370(3) 0.3291(5) 0.38826(5)
H10 H 0.1132 0.3978 0.3716
O11 O 0.3156(3) 0.6066(5) 0.45411(6)
O12 O 0.2072(3) -0.0037(5) 0.48952(6)
H11 H 0.1869 -0.0446 0.5072
C7 C 0.2621(4) 0.2589(7) 0.48954(8)
H12 H 0.3656 0.2642 0.4975
H13 H 0.2028 0.3670 0.5026
C8 C 0.2501(4) 0.3567(7) 0.45639(7)
H14 H 0.3086 0.2384 0.4440
C9 C 0.0902(3) 0.3487(7) 0.44303(7)
H15 H 0.0521 0.1710 0.4441
C10 C 0.0670(4) 0.4467(6) 0.41074(8)
C11 C -0.0270(4) 0.6475(7) 0.41019(7)
C12 C -0.0713(4) 0.6943(7) 0.44126(8)
H16 H 0.280(4) 0.709(7) 0.4651(8)
O13 O 0.3953(3) 0.8718(5) 0.34141(5)
N1 N 0.7258(3) 0.1638(6) 0.38566(7)
N2 N 0.3312(3) 0.8632(6) 0.39099(6)
H17 H 0.2663 0.9848 0.3880
H18 H 0.3450 0.7947 0.4090
C13 C 0.5675(3) 0.4939(7) 0.40490(7)
H19 H 0.5314 0.5805 0.4218
C14 C 0.5205(4) 0.5648(7) 0.37496(8)
C15 C 0.4097(4) 0.7816(7) 0.36787(8)
C16 C 0.5801(4) 0.4339(7) 0.35051(8)
H20 H 0.5526 0.4778 0.3301
C17 C 0.6811(4) 0.2368(8) 0.35704(8)
H21 H 0.7205 0.1495 0.3405
C18 C 0.6687(4) 0.2922(7) 0.40914(8)
H22 H 0.6984 0.2440 0.4293
O14 O 0.5490(3) 1.2859(5) 0.27292(6)
N3 N 0.5140(3) 0.8574(6) 0.27984(7)
H23 H 0.4881 0.8771 0.2986
H24 H 0.5166 0.7048 0.2719
N4 N 0.6608(3) 0.9515(6) 0.16878(7)
C19 C 0.5274(5) 0.8182(9) 0.21224(8)
H25 H 0.4598 0.7035 0.2205
C20 C 0.5908(4) 1.0102(8) 0.23030(8)
C21 C 0.5500(4) 1.0631(8) 0.26316(8)
C22 C 0.6920(4) 1.1711(8) 0.21683(9)
H26 H 0.7386 1.3035 0.2283
C23 C 0.7240(5) 1.1356(9) 0.18642(9)
H27 H 0.7931 1.2455 0.1778
C24 C 0.5634(5) 0.7945(9) 0.18184(9)
H28 H 0.5181 0.6637 0.1699
O15 O 0.0755(3) 0.8730(6) 0.22542(6)
N5 N 0.0954(3) 0.4807(7) 0.33154(7)
N6 N 0.0902(4) 0.4456(6) 0.21514(7)
H29 H 0.0868 0.4704 0.1954
H30 H 0.0970 0.2908 0.2225
C25 C 0.1746(4) 0.3424(8) 0.31256(8)
H31 H 0.2338 0.2090 0.3209
C26 C 0.1744(4) 0.3848(8) 0.28095(8)
H32 H 0.2308 0.2791 0.2686
C27 C 0.0913(4) 0.5824(7) 0.26804(8)
C28 C 0.0851(4) 0.6462(8) 0.23424(8)
C29 C 0.0107(5) 0.7335(9) 0.28768(9)
H33 H -0.0455 0.8732 0.2800
C30 C 0.0145(6) 0.6750(10) 0.31874(10)
H34 H -0.0423 0.7760 0.3316
O16 O -0.0246(3) 0.4962(5) 0.15363(5)
N7 N 0.2968(3) 1.1991(6) 0.11306(7)
N8 N -0.0957(3) 0.4918(6) 0.10291(6)
H35 H -0.1578 0.3666 0.1051
H36 H -0.0856 0.5583 0.0849
C31 C 0.2348(4) 1.0699(7) 0.08924(8)
H37 H 0.2603 1.1171 0.0694
C32 C 0.0932(3) 0.8004(7) 0.12157(7)
C33 C -0.0152(4) 0.5828(7) 0.12737(8)
C34 C 0.1560(4) 0.9352(7) 0.14650(8)
H38 H 0.1306 0.8953 0.1665
C35 C 0.2572(4) 1.1308(8) 0.14126(9)
H39 H 0.3000 1.2194 0.1583
C36 C 0.1343(4) 0.8688(7) 0.09212(8)
H40 H 0.0951 0.7811 0.0747
loop_
_geom_bond_atom_site_label_1
_geom_bond_atom_site_label_2
_geom_bond_site_symmetry_1
_geom_bond_site_symmetry_2
O1 C4 1_555 1_555
O2 C3 1_555 1_555
O3 H1 1_555 1_555
O4 H2 1_555 1_555
O5 H3 1_555 1_555
O6 H4 1_555 1_555
C1 O6 1_555 1_555
H5 C1 1_555 1_555
H6 C1 1_555 1_555
C2 O5 1_555 1_555
H7 C2 1_555 1_555
C3 C2 1_555 1_555
H8 C3 1_555 1_555
C4 O2 1_555 1_555
C5 O3 1_555 1_555
C6 O4 1_555 1_555
O7 C12 1_555 1_555
O8 C9 1_555 1_555
O9 H9 1_555 1_555
O10 H10 1_555 1_555
O11 C8 1_555 1_555
O12 H11 1_555 1_555
C7 O12 1_555 1_555
H12 C7 1_555 1_555
H13 C7 1_555 1_555
C8 C7 1_555 1_555
H14 C8 1_555 1_555
C9 C8 1_555 1_555
H15 C9 1_555 1_555
C10 O10 1_555 1_555
C11 O9 1_555 1_555
C12 O8 1_555 1_555
H16 O11 1_555 1_555
O13 C15 1_555 1_555
N1 C17 1_555 1_555
N2 H17 1_555 1_555
H18 N2 1_555 1_555
C13 H19 1_555 1_555
C14 C13 1_555 1_555
C15 N2 1_555 1_555
C16 C14 1_555 1_555
H20 C16 1_555 1_555
C17 C16 1_555 1_555
H21 C17 1_555 1_555
C18 N1 1_555 1_555
H22 C18 1_555 1_555
O14 C21 1_555 1_555
N3 H23 1_555 1_555
H24 N3 1_555 1_555
N4 C23 1_555 1_555
C19 H25 1_555 1_555
C20 C19 1_555 1_555
C21 N3 1_555 1_555
C22 C20 1_555 1_555
H26 C22 1_555 1_555
C23 C22 1_555 1_555
H27 C23 1_555 1_555
C24 N4 1_555 1_555
H28 C24 1_555 1_555
O15 C28 1_555 1_555
N5 C25 1_555 1_555
N6 H29 1_555 1_555
H30 N6 1_555 1_555
C25 H31 1_555 1_555
C26 C25 1_555 1_555
H32 C26 1_555 1_555
C27 C26 1_555 1_555
C28 N6 1_555 1_555
C29 C27 1_555 1_555
H33 C29 1_555 1_555
C30 N5 1_555 1_555
H34 C30 1_555 1_555
O16 C33 1_555 1_555
N7 C31 1_555 1_555
N8 H35 1_555 1_555
H36 N8 1_555 1_555
C31 H37 1_555 1_555
C32 C33 1_555 1_555
C33 N8 1_555 1_555
C34 C32 1_555 1_555
H38 C34 1_555 1_555
C35 N7 1_555 1_555
H39 C35 1_555 1_555
C36 C31 1_555 1_555
H40 C36 1_555 1_555
C1 C2 1_555 1_555
C3 C6 1_555 1_555
C4 C5 1_555 1_555
C5 C6 1_555 1_555
C9 C10 1_555 1_555
C10 C11 1_555 1_555
C11 C12 1_555 1_555
C13 C18 1_555 1_555
C14 C15 1_555 1_555
C19 C24 1_555 1_555
C20 C21 1_555 1_555
C27 C28 1_555 1_555
C29 C30 1_555 1_555
C32 C36 1_555 1_555
C34 C35 1_555 1_555

#END
