
#######################################################################
#
#                 Cambridge Crystallographic Data Centre
#                                CCDC 
#
#######################################################################
#
# If this CIF has been generated from an entry in the Cambridge 
# Structural Database, then it will include bibliographic, chemical, 
# crystal, experimental, refinement or atomic coordinate data resulting 
# from the CCDC's data processing and validation procedures.
#
#######################################################################

data_OXOJIW02
_chemical_formula_moiety         'C26 H19 Cl1 O4'
_chemical_name_systematic        
'ethyl 5-benzoyl-4-(4-chlorophenyl)-2-phenyl-3-furoate'
_symmetry_cell_setting           triclinic
_symmetry_space_group_name_H-M   'P -1'
_symmetry_Int_Tables_number      2
_space_group_name_Hall           '-P 1'
loop_
_symmetry_equiv_pos_site_id
_symmetry_equiv_pos_as_xyz
1 x,y,z
2 -x,-y,-z
_cell_length_a                   8.8081(4)
_cell_length_b                   9.9881(5)
_cell_length_c                   12.6194(6)
_cell_angle_alpha                79.9048(16)
_cell_angle_beta                 82.4837(16)
_cell_angle_gamma                80.2931(16)
_cell_volume                     1071.49
_exptl_crystal_colour            colorless
_exptl_crystal_description       block
_cell_formula_units_Z            2
loop_
_atom_site_label
_atom_site_type_symbol
_atom_site_fract_x
_atom_site_fract_y
_atom_site_fract_z
C1 C 0.7028(3) 0.3655(3) 0.08078(18)
H1 H 0.6001 0.4064 0.0912
C2 C 0.7490(4) 0.2888(3) -0.0018(2)
H2 H 0.6776 0.2768 -0.0462
C3 C 0.9006(4) 0.2303(3) -0.01780(19)
C4 C 1.0067(3) 0.2459(3) 0.0475(2)
H3 H 1.1095 0.2058 0.0361
C5 C 0.9592(3) 0.3216(3) 0.1301(2)
H4 H 1.0310 0.3322 0.1748
C6 C 0.8073(2) 0.3824(2) 0.14825(16)
C7 C 0.7622(2) 0.4574(2) 0.24109(16)
C8 C 0.7992(2) 0.4044(2) 0.34936(16)
C9 C 0.7449(2) 0.5055(2) 0.41108(16)
C10 C 0.6859(2) 0.5872(2) 0.24430(16)
C11 C 0.6199(3) 0.6973(2) 0.16265(17)
C12 C 0.5151(3) 0.8176(2) 0.19872(16)
C13 C 0.4049(3) 0.8031(2) 0.28702(18)
H5 H 0.3991 0.7170 0.3282
C14 C 0.3039(3) 0.9157(3) 0.3140(2)
H6 H 0.2285 0.9048 0.3725
C15 C 0.3134(3) 1.0440(3) 0.2555(2)
H7 H 0.2464 1.1201 0.2752
C16 C 0.4220(4) 1.0593(2) 0.1678(2)
H8 H 0.4282 1.1461 0.1278
C17 C 0.5220(3) 0.9473(2) 0.13857(19)
H9 H 0.5945 0.9585 0.0783
C18 C 0.7373(2) 0.5201(2) 0.52528(16)
C19 C 0.8469(3) 0.4459(2) 0.59110(17)
H10 H 0.9273 0.3844 0.5634
C20 C 0.8357(3) 0.4640(3) 0.69890(19)
H11 H 0.9089 0.4142 0.7432
C21 C 0.7173(3) 0.5548(3) 0.7403(2)
H12 H 0.7105 0.5659 0.8125
C22 C 0.6094(3) 0.6290(3) 0.67551(19)
H13 H 0.5293 0.6905 0.7036
C23 C 0.6195(3) 0.6125(2) 0.56843(18)
H14 H 0.5465 0.6638 0.5246
C24 C 0.8661(3) 0.2604(2) 0.38723(17)
C25 C 0.8476(4) 0.0287(3) 0.3780(3)
H15 H 0.9138 0.0015 0.3153
H16 H 0.9080 0.0088 0.4394
C26 C 0.7156(10) -0.0462(7) 0.4005(6)
H17 H 0.6558 -0.0245 0.4662
H18 H 0.7520 -0.1432 0.4084
H19 H 0.6522 -0.0202 0.3417
Cl1 Cl 0.95960(15) 0.13318(9) -0.12103(7)
O1 O 0.67480(16) 0.61745(13) 0.34771(10)
O2 O 0.6495(2) 0.68773(17) 0.06650(13)
O3 O 0.9763(2) 0.22451(18) 0.43723(17)
O4 O 0.78756(19) 0.17538(15) 0.35739(14)
C27? C 0.762(3) -0.046(2) 0.3380(16)
loop_
_geom_bond_atom_site_label_1
_geom_bond_atom_site_label_2
_geom_bond_site_symmetry_1
_geom_bond_site_symmetry_2
C1 H1 1_555 1_555
C2 C1 1_555 1_555
H2 C2 1_555 1_555
C3 C2 1_555 1_555
C4 C3 1_555 1_555
H3 C4 1_555 1_555
C5 C4 1_555 1_555
H4 C5 1_555 1_555
C6 C1 1_555 1_555
C7 C6 1_555 1_555
C8 C7 1_555 1_555
C9 C8 1_555 1_555
C10 C7 1_555 1_555
C11 C10 1_555 1_555
C12 C11 1_555 1_555
C13 C12 1_555 1_555
H5 C13 1_555 1_555
C14 C13 1_555 1_555
H6 C14 1_555 1_555
C15 C14 1_555 1_555
H7 C15 1_555 1_555
C16 C15 1_555 1_555
H8 C16 1_555 1_555
C17 C12 1_555 1_555
H9 C17 1_555 1_555
C18 C9 1_555 1_555
C19 C18 1_555 1_555
H10 C19 1_555 1_555
C20 C19 1_555 1_555
H11 C20 1_555 1_555
C21 C20 1_555 1_555
H12 C21 1_555 1_555
C22 C21 1_555 1_555
H13 C22 1_555 1_555
C23 C18 1_555 1_555
H14 C23 1_555 1_555
C24 C8 1_555 1_555
C25 H15 1_555 1_555
H16 C25 1_555 1_555
C26 C25 1_555 1_555
H17 C26 1_555 1_555
H18 C26 1_555 1_555
H19 C26 1_555 1_555
Cl1 C3 1_555 1_555
O1 C9 1_555 1_555
O2 C11 1_555 1_555
O3 C24 1_555 1_555
O4 C24 1_555 1_555
C5 C6 1_555 1_555
C10 O1 1_555 1_555
C16 C17 1_555 1_555
C22 C23 1_555 1_555
C25 O4 1_555 1_555

#END
