
#######################################################################
#
#                 Cambridge Crystallographic Data Centre
#                                CCDC 
#
#######################################################################
#
# If this CIF has been generated from an entry in the Cambridge 
# Structural Database, then it will include bibliographic, chemical, 
# crystal, experimental, refinement or atomic coordinate data resulting 
# from the CCDC's data processing and validation procedures.
#
#######################################################################

data_OXOJOC02
_chemical_formula_moiety         'C26 H22 O4'
_chemical_name_systematic        
'ethyl 1,2-dibenzoyl-3-phenylcyclopropanecarboxylate'
_symmetry_cell_setting           monoclinic
_symmetry_space_group_name_H-M   'P 21/n'
_symmetry_Int_Tables_number      14
_space_group_name_Hall           '-P 2yn'
loop_
_symmetry_equiv_pos_site_id
_symmetry_equiv_pos_as_xyz
1 x,y,z
2 1/2-x,1/2+y,1/2-z
3 -x,-y,-z
4 1/2+x,1/2-y,1/2+z
_cell_length_a                   8.5852(6)
_cell_length_b                   15.9050(12)
_cell_length_c                   15.6721(12)
_cell_angle_alpha                90
_cell_angle_beta                 95.176(2)
_cell_angle_gamma                90
_cell_volume                     2131.26
_exptl_crystal_colour            colorless
_exptl_crystal_description       block
_cell_formula_units_Z            4
loop_
_atom_site_label
_atom_site_type_symbol
_atom_site_fract_x
_atom_site_fract_y
_atom_site_fract_z
O1 O 0.22660(17) 0.43383(11) 0.17192(9)
O2 O 0.1601(2) 0.30252(10) 0.31018(12)
O3 O 0.51891(17) 0.55110(9) 0.40692(9)
O4 O 0.46834(16) 0.59081(8) 0.26980(8)
C1 C 0.3396(2) 0.47250(11) 0.31074(11)
C2 C 0.2982(2) 0.41329(11) 0.38275(12)
H1 H 0.3490 0.4251 0.4400
C3 C 0.1811(2) 0.47659(12) 0.34710(12)
H2 H 0.0963 0.4519 0.3091
C4 C 0.3448(2) 0.44053(12) 0.22008(12)
C5 C 0.5012(2) 0.41987(11) 0.19146(11)
C6 C 0.5205(3) 0.42223(14) 0.10424(13)
H3 H 0.4355 0.4340 0.0650
C7 C 0.6650(3) 0.40722(16) 0.07618(16)
H4 H 0.6778 0.4097 0.0179
C8 C 0.7907(3) 0.38856(16) 0.13369(19)
H5 H 0.8883 0.3789 0.1143
C9 C 0.7726(3) 0.38415(15) 0.21924(16)
H6 H 0.8573 0.3701 0.2579
C10 C 0.6281(2) 0.40053(12) 0.24853(13)
H7 H 0.6166 0.3985 0.3069
C11 C 0.2697(2) 0.32213(12) 0.36101(13)
C12 C 0.3781(2) 0.25710(12) 0.40068(11)
C13 C 0.4962(2) 0.27433(13) 0.46482(13)
H8 H 0.5116 0.3292 0.4843
C14 C 0.5909(3) 0.21064(15) 0.49986(15)
H9 H 0.6688 0.2227 0.5433
C15 C 0.5707(3) 0.12984(15) 0.47101(14)
H10 H 0.6351 0.0872 0.4946
C16 C 0.4552(3) 0.11171(13) 0.40726(14)
H11 H 0.4424 0.0568 0.3874
C17 C 0.3584(2) 0.17407(12) 0.37249(13)
H12 H 0.2794 0.1610 0.3300
C18 C 0.1310(2) 0.55110(12) 0.39554(12)
C19 C 0.1600(3) 0.55942(14) 0.48296(13)
H13 H 0.2173 0.5185 0.5145
C20 C 0.1036(3) 0.62902(15) 0.52406(14)
H14 H 0.1238 0.6341 0.5831
C21 C 0.0193(3) 0.68990(14) 0.47963(15)
H15 H -0.0181 0.7359 0.5081
C22 C -0.0096(3) 0.68269(15) 0.39296(16)
H16 H -0.0658 0.7243 0.3619
C23 C 0.0452(3) 0.61300(14) 0.35114(14)
H17 H 0.0236 0.6080 0.2921
C24 C 0.4526(2) 0.54116(11) 0.33680(12)
C25 C 0.5864(3) 0.65698(15) 0.27850(15)
H18 H 0.6647 0.6440 0.3252
H19 H 0.5383 0.7103 0.2907
C26 C 0.6593(4) 0.66206(19) 0.19730(19)
H20 H 0.7124 0.6102 0.1877
H21 H 0.7332 0.7075 0.2001
H22 H 0.5801 0.6717 0.1511
loop_
_geom_bond_atom_site_label_1
_geom_bond_atom_site_label_2
_geom_bond_site_symmetry_1
_geom_bond_site_symmetry_2
O1 C4 1_555 1_555
O2 C11 1_555 1_555
O3 C24 1_555 1_555
O4 C24 1_555 1_555
C1 C2 1_555 1_555
C2 H1 1_555 1_555
C3 C1 1_555 1_555
H2 C3 1_555 1_555
C4 C1 1_555 1_555
C5 C4 1_555 1_555
C6 C5 1_555 1_555
H3 C6 1_555 1_555
C7 C6 1_555 1_555
H4 C7 1_555 1_555
C8 C7 1_555 1_555
H5 C8 1_555 1_555
C9 C8 1_555 1_555
H6 C9 1_555 1_555
C10 C5 1_555 1_555
H7 C10 1_555 1_555
C11 C2 1_555 1_555
C12 C11 1_555 1_555
C13 C12 1_555 1_555
H8 C13 1_555 1_555
C14 C13 1_555 1_555
H9 C14 1_555 1_555
C15 C14 1_555 1_555
H10 C15 1_555 1_555
C16 C15 1_555 1_555
H11 C16 1_555 1_555
C17 C12 1_555 1_555
H12 C17 1_555 1_555
C18 C3 1_555 1_555
C19 C18 1_555 1_555
H13 C19 1_555 1_555
C20 C19 1_555 1_555
H14 C20 1_555 1_555
C21 C20 1_555 1_555
H15 C21 1_555 1_555
C22 C21 1_555 1_555
H16 C22 1_555 1_555
C23 C18 1_555 1_555
H17 C23 1_555 1_555
C24 C1 1_555 1_555
C25 O4 1_555 1_555
H18 C25 1_555 1_555
H19 C25 1_555 1_555
C26 C25 1_555 1_555
H20 C26 1_555 1_555
H21 C26 1_555 1_555
H22 C26 1_555 1_555
C2 C3 1_555 1_555
C9 C10 1_555 1_555
C16 C17 1_555 1_555
C22 C23 1_555 1_555

#END
