
#######################################################################
#
#                 Cambridge Crystallographic Data Centre
#                                CCDC 
#
#######################################################################
#
# If this CIF has been generated from an entry in the Cambridge 
# Structural Database, then it will include bibliographic, chemical, 
# crystal, experimental, refinement or atomic coordinate data resulting 
# from the CCDC's data processing and validation procedures.
#
#######################################################################

data_OXONUM
_chemical_formula_moiety         '2(H4 N1 1+),C8 N18 O10 2-,2(H2 O1)'
_chemical_name_systematic        
'bis(Ammonium) nitro(4-((4-((4-((4-(nitroazanidyl)-1,2,5-oxadiazol-3-yl)-ONN-azoxy)-1,2,5-oxadiazol-3-yl)diazenyl)-1,2,5-oxadiazol-3-yl)-NNO-azoxy)-1,2,5-oxadiazol-3-yl)azanide dihydrate'
_symmetry_cell_setting           triclinic
_symmetry_space_group_name_H-M   'P -1'
_symmetry_Int_Tables_number      2
_space_group_name_Hall           '-P 1'
loop_
_symmetry_equiv_pos_site_id
_symmetry_equiv_pos_as_xyz
1 x,y,z
2 -x,-y,-z
_cell_length_a                   4.3523(2)
_cell_length_b                   8.6368(5)
_cell_length_c                   15.4329(10)
_cell_angle_alpha                83.183(5)
_cell_angle_beta                 87.797(5)
_cell_angle_gamma                85.970(5)
_cell_volume                     574.331
_exptl_crystal_colour            'brownish brown'
_exptl_crystal_description       block
_cell_formula_units_Z            1
loop_
_atom_site_label
_atom_site_type_symbol
_atom_site_fract_x
_atom_site_fract_y
_atom_site_fract_z
O1 O -0.7330(4) 1.59363(18) 0.06313(10)
N1 N -1.0322(4) 1.69167(19) 0.16224(10)
N2 N -0.8200(4) 1.7123(2) 0.09925(10)
O2 O -1.7469(4) 1.72358(19) 0.36406(10)
N3 N -1.5278(4) 1.6905(2) 0.31455(10)
N4 N -1.4390(4) 1.5529(2) 0.29628(11)
N5 N -1.5996(4) 1.4512(2) 0.50762(10)
N6 N -1.4145(5) 1.9519(2) 0.29832(13)
O3 O -1.2315(5) 2.04692(18) 0.24690(12)
O4 O -0.7052(4) 1.8386(2) 0.07667(12)
O5 O -1.8851(5) 1.2381(2) 0.35684(12)
C1 C -1.1331(5) 1.8210(2) 0.20146(12)
N7 N -1.8491(5) 1.2725(3) 0.43939(13)
C2 C -1.6149(5) 1.4372(2) 0.34059(13)
N8 N -1.0562(5) 1.9662(2) 0.18665(12)
C3 C -1.3582(5) 1.8157(2) 0.27223(12)
N9 N -1.7369(5) 1.3401(2) 0.29595(12)
C4 C -1.6829(5) 1.3930(2) 0.43138(13)
O1A O -2.2670(4) 1.40637(18) 0.93687(10)
N1A N -1.9678(4) 1.30833(19) 0.83776(10)
N2A N -2.1800(4) 1.2877(2) 0.90075(10)
O2A O -1.2531(4) 1.27642(19) 0.63594(10)
N3A N -1.4722(4) 1.3095(2) 0.68545(10)
N4A N -1.5610(4) 1.4471(2) 0.70372(11)
N5A N -1.4004(4) 1.5488(2) 0.49238(10)
N6A N -1.5855(5) 1.0481(2) 0.70168(13)
O3A O -1.7685(5) 0.95308(18) 0.75310(12)
O4A O -2.2948(4) 1.1614(2) 0.92333(12)
O5A O -1.1149(5) 1.7619(2) 0.64316(12)
C1A C -1.8669(5) 1.1790(2) 0.79854(12)
N7A N -1.1509(5) 1.7275(3) 0.56061(13)
C2A C -1.3851(5) 1.5628(2) 0.65941(13)
N8A N -1.9438(5) 1.0338(2) 0.81335(12)
C3A C -1.6418(5) 1.1843(2) 0.72777(12)
N9A N -1.2631(5) 1.6599(2) 0.70405(12)
C4A C -1.3171(5) 1.6070(2) 0.56862(13)
O6 O -0.3064(4) 1.8098(2) -0.07539(13)
H1 H -0.4001 1.8143 -0.0263
H2 H -0.2464 1.8994 -0.0945
N10 N -1.2130(5) 1.3767(2) 0.12942(14)
H3 H -1.046(8) 1.332(4) 0.107(2)
H4 H -1.331(9) 1.318(5) 0.158(3)
H5 H -1.190(9) 1.453(5) 0.157(3)
H6 H -1.272(11) 1.419(6) 0.076(3)
loop_
_geom_bond_atom_site_label_1
_geom_bond_atom_site_label_2
_geom_bond_site_symmetry_1
_geom_bond_site_symmetry_2
O1 N2 1_555 1_555
N1 N2 1_555 1_555
N2 O4 1_555 1_555
O2 N3 1_555 1_555
N3 N4 1_555 1_555
N4 C2 1_555 1_555
N5 C4 1_555 1_555
N6 O3 1_555 1_555
O3 N8 1_555 1_555
O5 N7 1_555 1_555
C1 N1 1_555 1_555
N7 C4 1_555 1_555
C2 N9 1_555 1_555
N8 C1 1_555 1_555
C3 N3 1_555 1_555
N9 O5 1_555 1_555
C4 C2 1_555 1_555
O6 H1 1_555 1_555
H2 O6 1_555 1_555
N10 H3 1_555 1_555
H4 N10 1_555 1_555
H5 N10 1_555 1_555
H6 N10 1_555 1_555
O1A N2A 1_555 1_555
N1A N2A 1_555 1_555
N2A O4A 1_555 1_555
O2A N3A 1_555 1_555
N3A N4A 1_555 1_555
N4A C2A 1_555 1_555
N5A N5 1_555 1_555
N6A O3A 1_555 1_555
O3A N8A 1_555 1_555
O5A N7A 1_555 1_555
C1A N1A 1_555 1_555
N7A C4A 1_555 1_555
C2A N9A 1_555 1_555
N8A C1A 1_555 1_555
C3A N3A 1_555 1_555
N9A O5A 1_555 1_555
C4A N5A 1_555 1_555
N6 C3 1_555 1_555
C1 C3 1_555 1_555
N6A C3A 1_555 1_555
C1A C3A 1_555 1_555
C2A C4A 1_555 1_555

#END
