
#######################################################################
#
#                 Cambridge Crystallographic Data Centre
#                                CCDC 
#
#######################################################################
#
# If this CIF has been generated from an entry in the Cambridge 
# Structural Database, then it will include bibliographic, chemical, 
# crystal, experimental, refinement or atomic coordinate data resulting 
# from the CCDC's data processing and validation procedures.
#
#######################################################################

data_OXOPEY
_chemical_formula_moiety         '2(C1 H6 N3 1+),C8 N18 O10 2-'
_chemical_name_systematic        
'bis(Guanidin-2-ium) nitro[4-({4-[(4-{[4-(nitroazanidyl)-1,2,5-oxadiazol-3-yl]-ONN-azoxy}-1,2,5-oxadiazol-3-yl)diazenyl]-1,2,5-oxadiazol-3-yl}-NNO-azoxy)-1,2,5-oxadiazol-3-yl]azanide'
_symmetry_cell_setting           triclinic
_symmetry_space_group_name_H-M   'P -1'
_symmetry_Int_Tables_number      2
_space_group_name_Hall           '-P 1'
loop_
_symmetry_equiv_pos_site_id
_symmetry_equiv_pos_as_xyz
1 x,y,z
2 -x,-y,-z
_cell_length_a                   7.9483(4)
_cell_length_b                   10.0164(6)
_cell_length_c                   15.4400(9)
_cell_angle_alpha                84.364(5)
_cell_angle_beta                 80.948(5)
_cell_angle_gamma                89.064(5)
_cell_volume                     1208.05
_exptl_crystal_colour            'yellowish yellow'
_exptl_crystal_description       plate
_cell_formula_units_Z            2
loop_
_atom_site_label
_atom_site_type_symbol
_atom_site_fract_x
_atom_site_fract_y
_atom_site_fract_z
O1 O 0.7073(3) -0.01214(18) 0.31549(13)
O2 O 0.8436(2) 0.13890(17) 0.22180(11)
O3 O 0.7145(3) 0.54124(18) 0.31712(12)
O4 O 0.8152(2) 0.42665(18) 0.07454(11)
O5 O 0.6045(3) 0.14728(18) -0.07208(12)
N1 N 0.7412(3) 0.1087(2) 0.29067(13)
N2 N 0.6680(3) 0.1973(2) 0.34048(13)
N3 N 0.6972(3) 0.4170(2) 0.36442(14)
N4 N 0.7274(3) 0.5296(2) 0.22977(14)
N5 N 0.7181(2) 0.36513(18) 0.13553(12)
N6 N 0.6110(2) 0.27469(18) 0.12896(12)
N7 N 0.6346(3) 0.1355(2) 0.01437(14)
N8 N 0.5554(3) 0.2733(2) -0.09742(13)
N9 N 0.5046(2) 0.47541(19) -0.03619(11)
C1 C 0.6975(3) 0.3281(2) 0.30736(15)
C2 C 0.7165(3) 0.4034(2) 0.22296(15)
C3 C 0.6066(3) 0.2531(2) 0.04068(15)
C4 C 0.5558(3) 0.3405(2) -0.02951(15)
O1A O 0.2927(3) 1.01214(18) -0.31549(13)
O2A O 0.1564(2) 0.86110(17) -0.22180(11)
O3A O 0.2855(3) 0.45876(18) -0.31712(12)
O4A O 0.1848(2) 0.57335(18) -0.07454(11)
O5A O 0.3955(3) 0.85272(18) 0.07208(12)
N1A N 0.2588(3) 0.8913(2) -0.29067(13)
N2A N 0.3320(3) 0.8027(2) -0.34048(13)
N3A N 0.3028(3) 0.5830(2) -0.36442(14)
N4A N 0.2726(3) 0.4704(2) -0.22977(14)
N5A N 0.2819(2) 0.63487(18) -0.13553(12)
N6A N 0.3890(2) 0.72531(18) -0.12896(12)
N7A N 0.3654(3) 0.8645(2) -0.01437(14)
N8A N 0.4446(3) 0.7267(2) 0.09742(13)
N9A N 0.4954(2) 0.52459(19) 0.03619(11)
C1A C 0.3025(3) 0.6719(2) -0.30736(15)
C2A C 0.2835(3) 0.5966(2) -0.22296(15)
C3A C 0.3934(3) 0.7469(2) -0.04068(15)
C4A C 0.4442(3) 0.6595(2) 0.02951(15)
O6 O 0.8119(3) 0.40068(18) 0.73826(13)
O7 O 0.6550(2) 0.57619(17) 0.72565(11)
O8 O 0.7744(3) 0.8784(2) 0.89333(12)
O9 O 0.7032(2) 0.90087(19) 0.63708(12)
O10 O 0.9158(3) 0.65455(19) 0.42738(12)
N10 N 0.7701(3) 0.51652(19) 0.75864(13)
N11 N 0.8519(3) 0.5657(2) 0.81585(13)
N12 N 0.8040(3) 0.7408(2) 0.90468(14)
N13 N 0.7641(3) 0.9206(2) 0.80686(15)
N14 N 0.7995(2) 0.82356(19) 0.67320(13)
N15 N 0.9117(3) 0.74616(19) 0.63711(12)
N16 N 0.8931(3) 0.6298(2) 0.51747(15)
N17 N 0.9522(3) 0.7854(2) 0.40101(14)
N18 N 0.9923(3) 0.9794(2) 0.46376(12)
C5 C 0.8128(3) 0.6985(3) 0.82665(15)
C6 C 0.7892(3) 0.8141(2) 0.76716(15)
C7 C 0.9154(3) 0.7441(2) 0.54637(15)
C8 C 0.9532(3) 0.8426(2) 0.47261(15)
O6A O 1.1881(3) 1.59932(18) 0.26174(13)
O7A O 1.3450(2) 1.42381(17) 0.27435(11)
O8A O 1.2256(3) 1.1216(2) 0.10667(12)
O9A O 1.2968(2) 1.09913(19) 0.36292(12)
O10A O 1.0842(3) 1.34545(19) 0.57262(12)
N10A N 1.2299(3) 1.48348(19) 0.24136(13)
N11A N 1.1481(3) 1.4343(2) 0.18415(13)
N12A N 1.1960(3) 1.2592(2) 0.09532(14)
N13A N 1.2359(3) 1.0794(2) 0.19314(15)
N14A N 1.2005(2) 1.17644(19) 0.32680(13)
N15A N 1.0883(3) 1.25384(19) 0.36289(12)
N16A N 1.1069(3) 1.3702(2) 0.48253(15)
N17A N 1.0478(3) 1.2146(2) 0.59899(14)
N18A N 1.0077(3) 1.0206(2) 0.53624(12)
C5A C 1.1872(3) 1.3015(3) 0.17335(15)
C6A C 1.2108(3) 1.1859(2) 0.23284(15)
C7A C 1.0846(3) 1.2559(2) 0.45363(15)
C8A C 1.0468(3) 1.1574(2) 0.52739(15)
N19 N 0.4753(4) -0.1707(3) 0.45376(19)
H1 H 0.529(4) -0.107(3) 0.431(2)
H2 H 0.451(4) -0.182(3) 0.511(2)
N20 N 0.4332(4) -0.2141(3) 0.31634(17)
H3 H 0.386(4) -0.263(3) 0.284(2)
H4 H 0.487(4) -0.152(3) 0.2991(17)
N21 N 0.3287(4) -0.3569(3) 0.4350(2)
H5 H 0.334(4) -0.385(3) 0.4843(19)
H6 H 0.303(4) -0.408(3) 0.401(2)
C9 C 0.4123(4) -0.2474(3) 0.40138(17)
N22 N 1.1502(4) 0.0886(3) 0.9059(2)
H7 H 1.181(4) 0.087(3) 0.951(2)
H8 H 1.176(4) 0.026(3) 0.874(2)
N23 N 1.0201(4) 0.2920(3) 0.91991(18)
H9 H 0.994(4) 0.364(3) 0.895(2)
H10 H 1.058(4) 0.295(3) 0.969(2)
N24 N 1.0412(4) 0.1957(3) 0.79220(16)
H11 H 0.988(4) 0.264(3) 0.768(2)
H12 H 1.088(4) 0.142(3) 0.757(2)
C10 C 1.0725(3) 0.1930(2) 0.87218(16)
loop_
_geom_bond_atom_site_label_1
_geom_bond_atom_site_label_2
_geom_bond_site_symmetry_1
_geom_bond_site_symmetry_2
O1 N1 1_555 1_555
O2 N1 1_555 1_555
O3 N3 1_555 1_555
O4 N5 1_555 1_555
O5 N7 1_555 1_555
N1 N2 1_555 1_555
N2 C1 1_555 1_555
N3 C1 1_555 1_555
N4 O3 1_555 1_555
N5 N6 1_555 1_555
N6 C3 1_555 1_555
N7 C3 1_555 1_555
N8 O5 1_555 1_555
N9 C4 1_555 1_555
C1 C2 1_555 1_555
C2 N4 1_555 1_555
C3 C4 1_555 1_555
C4 N8 1_555 1_555
O6 N10 1_555 1_555
O7 N10 1_555 1_555
O8 N12 1_555 1_555
O9 N14 1_555 1_555
O10 N16 1_555 1_555
N10 N11 1_555 1_555
N11 C5 1_555 1_555
N12 C5 1_555 1_555
N13 O8 1_555 1_555
N14 N15 1_555 1_555
N15 C7 1_555 1_555
N16 C7 1_555 1_555
N17 O10 1_555 1_555
N18 C8 1_555 1_555
C5 C6 1_555 1_555
C6 N13 1_555 1_555
C7 C8 1_555 1_555
C8 N17 1_555 1_555
N19 H1 1_555 1_555
H2 N19 1_555 1_555
N20 H3 1_555 1_555
H4 N20 1_555 1_555
N21 H5 1_555 1_555
H6 N21 1_555 1_555
C9 N19 1_555 1_555
N22 H7 1_555 1_555
H8 N22 1_555 1_555
N23 H9 1_555 1_555
H10 N23 1_555 1_555
N24 H11 1_555 1_555
H12 N24 1_555 1_555
C10 N22 1_555 1_555
O1A N1A 1_555 1_555
O2A N1A 1_555 1_555
O3A N3A 1_555 1_555
O4A N5A 1_555 1_555
O5A N7A 1_555 1_555
N1A N2A 1_555 1_555
N2A C1A 1_555 1_555
N3A C1A 1_555 1_555
N4A O3A 1_555 1_555
N5A N6A 1_555 1_555
N6A C3A 1_555 1_555
N7A C3A 1_555 1_555
N8A O5A 1_555 1_555
N9A N9 1_555 1_555
C1A C2A 1_555 1_555
C2A N4A 1_555 1_555
C3A C4A 1_555 1_555
C4A N8A 1_555 1_555
O6A N10A 1_555 1_555
O7A N10A 1_555 1_555
O8A N12A 1_555 1_555
O9A N14A 1_555 1_555
O10A N16A 1_555 1_555
N10A N11A 1_555 1_555
N11A C5A 1_555 1_555
N12A C5A 1_555 1_555
N13A O8A 1_555 1_555
N14A N15A 1_555 1_555
N15A C7A 1_555 1_555
N16A C7A 1_555 1_555
N17A O10A 1_555 1_555
N18A N18 1_555 1_555
C5A C6A 1_555 1_555
C6A N13A 1_555 1_555
C7A C8A 1_555 1_555
C8A N17A 1_555 1_555
N5 C2 1_555 1_555
N14 C6 1_555 1_555
N20 C9 1_555 1_555
N21 C9 1_555 1_555
N23 C10 1_555 1_555
N24 C10 1_555 1_555
N5A C2A 1_555 1_555
N9A C4A 1_555 1_555
N14A C6A 1_555 1_555
N18A C8A 1_555 1_555

#END
