
#######################################################################
#
#                 Cambridge Crystallographic Data Centre
#                                CCDC 
#
#######################################################################
#
# If this CIF has been generated from an entry in the Cambridge 
# Structural Database, then it will include bibliographic, chemical, 
# crystal, experimental, refinement or atomic coordinate data resulting 
# from the CCDC's data processing and validation procedures.
#
#######################################################################

data_OXOPAU
_chemical_formula_moiety         '2(C2 H6 N5 1+),C8 N18 O10 2-'
_chemical_name_systematic        
'bis(3,5-diamino-4H-1,2,4-triazol-1-ium) nitro(4-((4-((4-((4-(nitroazanidyl)-1,2,5-oxadiazol-3-yl)-ONN-azoxy)-1,2,5-oxadiazol-3-yl)diazenyl)-1,2,5-oxadiazol-3-yl)-NNO-azoxy)-1,2,5-oxadiazol-3-yl)azanide'
_symmetry_cell_setting           triclinic
_symmetry_space_group_name_H-M   'P -1'
_symmetry_Int_Tables_number      2
_space_group_name_Hall           '-P 1'
loop_
_symmetry_equiv_pos_site_id
_symmetry_equiv_pos_as_xyz
1 x,y,z
2 -x,-y,-z
_cell_length_a                   4.7569(3)
_cell_length_b                   8.8768(5)
_cell_length_c                   15.9449(8)
_cell_angle_alpha                83.487(4)
_cell_angle_beta                 86.118(4)
_cell_angle_gamma                87.980(4)
_cell_volume                     667.152
_exptl_crystal_colour            'yellowish yellow'
_exptl_crystal_description       block
_cell_formula_units_Z            1
loop_
_atom_site_label
_atom_site_type_symbol
_atom_site_fract_x
_atom_site_fract_y
_atom_site_fract_z
O1 O 0.0829(3) 0.49492(13) 0.67227(8)
O2 O 0.4346(3) 0.43008(13) 0.58775(8)
O3 O -0.2138(3) 0.11724(13) 0.84859(8)
O4 O 0.4459(2) 0.44041(14) 0.81318(8)
O5 O 0.3553(3) 0.89115(13) 0.87646(8)
N1 N 0.5141(3) 0.81212(16) 0.93578(9)
N2 N 0.1678(3) 0.79725(17) 0.84508(10)
N3 N 0.0463(3) 0.54189(15) 0.87158(9)
N4 N 0.1924(3) 0.43880(15) 0.83725(8)
N5 N -0.1185(3) 0.23813(16) 0.88350(10)
N6 N -0.1033(3) 0.11402(16) 0.76522(10)
N7 N 0.2358(3) 0.25180(15) 0.67699(9)
N8 N 0.2499(3) 0.39527(15) 0.64628(9)
N9 N 0.5534(3) 0.56391(15) 0.99997(8)
C1 C 0.4316(3) 0.67264(19) 0.94139(10)
C2 C 0.2164(3) 0.66383(18) 0.88428(10)
C3 C 0.0424(3) 0.30658(18) 0.82430(11)
C4 C 0.0604(3) 0.23075(18) 0.74984(11)
O1A O 0.9171(3) 0.50508(13) 1.32773(8)
O2A O 0.5654(3) 0.56992(13) 1.41225(8)
O3A O 1.2138(3) 0.88276(13) 1.15141(8)
O4A O 0.5541(2) 0.55959(14) 1.18682(8)
O5A O 0.6447(3) 0.10885(13) 1.12354(8)
N1A N 0.4859(3) 0.18788(16) 1.06422(9)
N2A N 0.8322(3) 0.20275(17) 1.15492(10)
N3A N 0.9537(3) 0.45811(15) 1.12842(9)
N4A N 0.8076(3) 0.56120(15) 1.16275(8)
N5A N 1.1185(3) 0.76187(16) 1.11650(10)
N6A N 1.1033(3) 0.88598(16) 1.23478(10)
N7A N 0.7642(3) 0.74820(15) 1.32301(9)
N8A N 0.7501(3) 0.60473(15) 1.35372(9)
N9A N 0.4466(3) 0.43609(15) 1.00003(8)
C1A C 0.5684(3) 0.32736(19) 1.05861(10)
C2A C 0.7836(3) 0.33617(18) 1.11572(10)
C3A C 0.9576(3) 0.69342(18) 1.17570(11)
C4A C 0.9396(3) 0.76925(18) 1.25016(11)
N10 N 0.4852(3) 0.74524(15) 0.58896(9)
H1 H 0.5382 0.6536 0.5819
N11 N 0.2548(3) 0.96626(15) 0.57069(9)
N12 N 0.4469(3) 0.96247(17) 0.63349(9)
H2 H 0.473(4) 1.046(2) 0.6539(13)
N13 N 0.7713(3) 0.7861(2) 0.70052(10)
H3 H 0.842(5) 0.853(3) 0.7255(14)
H4 H 0.868(5) 0.694(3) 0.6993(14)
N14 N 0.1338(3) 0.77416(17) 0.48864(10)
H5 H 0.0315 0.8457 0.4638
H6 H 0.228(4) 0.704(2) 0.4591(13)
C5 C 0.2844(3) 0.83111(18) 0.54567(11)
C6 C 0.5837(3) 0.83057(18) 0.64433(11)
loop_
_geom_bond_atom_site_label_1
_geom_bond_atom_site_label_2
_geom_bond_site_symmetry_1
_geom_bond_site_symmetry_2
O1 N8 1_555 1_555
O2 N8 1_555 1_555
O3 N5 1_555 1_555
O4 N4 1_555 1_555
O5 N1 1_555 1_555
N1 C1 1_555 1_555
N2 O5 1_555 1_555
N3 N4 1_555 1_555
N4 C3 1_555 1_555
N5 C3 1_555 1_555
N6 O3 1_555 1_555
N7 N8 1_555 1_555
N9 C1 1_555 1_555
C1 C2 1_555 1_555
C2 N2 1_555 1_555
C3 C4 1_555 1_555
C4 N6 1_555 1_555
N10 H1 1_555 1_555
N11 N12 1_555 1_555
N12 H2 1_555 1_555
N13 H3 1_555 1_555
H4 N13 1_555 1_555
N14 H5 1_555 1_555
H6 N14 1_555 1_555
C5 N10 1_555 1_555
C6 N10 1_555 1_555
O1A N8A 1_555 1_555
O2A N8A 1_555 1_555
O3A N5A 1_555 1_555
O4A N4A 1_555 1_555
O5A N1A 1_555 1_555
N1A C1A 1_555 1_555
N2A O5A 1_555 1_555
N3A N4A 1_555 1_555
N4A C3A 1_555 1_555
N5A C3A 1_555 1_555
N6A O3A 1_555 1_555
N7A N8A 1_555 1_555
N9A N9 1_555 1_555
C1A N9A 1_555 1_555
C2A N2A 1_555 1_555
C3A C4A 1_555 1_555
C4A N6A 1_555 1_555
N3 C2 1_555 1_555
N7 C4 1_555 1_555
N11 C5 1_555 1_555
N12 C6 1_555 1_555
N13 C6 1_555 1_555
N14 C5 1_555 1_555
N3A C2A 1_555 1_555
N7A C4A 1_555 1_555
C1A C2A 1_555 1_555

#END
