
#######################################################################
#
#                 Cambridge Crystallographic Data Centre
#                                CCDC 
#
#######################################################################
#
# If this CIF has been generated from an entry in the Cambridge 
# Structural Database, then it will include bibliographic, chemical, 
# crystal, experimental, refinement or atomic coordinate data resulting 
# from the CCDC's data processing and validation procedures.
#
#######################################################################

data_OXOWOP
_chemical_formula_moiety         'C23 H22 O6 S2'
_chemical_name_systematic        
'2-(4-methylphenyl)-1-((4-methylphenyl)sulfonyl)-2-oxoethyl 4-methylbenzenesulfonate'
_symmetry_cell_setting           monoclinic
_symmetry_space_group_name_H-M   'C c'
_symmetry_Int_Tables_number      9
_space_group_name_Hall           'C -2yc'
loop_
_symmetry_equiv_pos_site_id
_symmetry_equiv_pos_as_xyz
1 x,y,z
2 x,-y,1/2+z
3 1/2+x,1/2+y,z
4 1/2+x,1/2-y,1/2+z
_cell_length_a                   16.0826(13)
_cell_length_b                   12.8002(11)
_cell_length_c                   11.0923(9)
_cell_angle_alpha                90
_cell_angle_beta                 109.919(2)
_cell_angle_gamma                90
_cell_volume                     2146.86
_exptl_crystal_colour            colorless
_cell_formula_units_Z            4
loop_
_atom_site_label
_atom_site_type_symbol
_atom_site_fract_x
_atom_site_fract_y
_atom_site_fract_z
S1 S 0.35853(14) 0.30402(16) 0.50975(18)
S2 S 0.36902(15) 0.05841(18) 0.2894(2)
O1 O 0.4156(4) 0.2664(5) 0.6291(7)
O2 O 0.3638(5) 0.4101(5) 0.4716(6)
O3 O 0.4172(4) -0.0363(6) 0.3178(8)
O4 O 0.3613(6) 0.1162(6) 0.1853(7)
O5 O 0.5439(4) 0.2293(5) 0.4193(7)
C1 C 0.7625(6) -0.1294(7) 0.8132(8)
H1 H 0.7871 -0.0944 0.8964
H2 H 0.8105 -0.1468 0.7809
H3 H 0.7322 -0.1935 0.8231
C2 C 0.6981(5) -0.0582(7) 0.7203(7)
C3 C 0.7268(5) 0.0217(7) 0.6568(7)
H4 H 0.7881 0.0292 0.6701
C4 C 0.6672(5) 0.0892(7) 0.5760(7)
H5 H 0.6880 0.1431 0.5347
C5 C 0.5773(5) 0.0801(6) 0.5535(7)
C6 C 0.5178(5) 0.1566(7) 0.4665(8)
C7 C 0.4163(5) 0.1455(7) 0.4344(8)
H6 H 0.4024 0.1173 0.5094
O6 O 0.3747(4) 0.2379(5) 0.3949(6)
C8 C 0.2506(5) 0.2733(6) 0.4943(7)
C9 C 0.2337(5) 0.1901(6) 0.5629(7)
H7 H 0.2805 0.1470 0.6143
C10 C 0.0780(5) 0.2349(6) 0.4780(8)
C11 C -0.0141(6) 0.2189(8) 0.4785(10)
H8 H -0.0246 0.2652 0.5422
H9 H -0.0215 0.1461 0.5002
H10 H -0.0566 0.2350 0.3934
C12 C 0.1482(6) 0.1716(6) 0.5548(8)
H11 H 0.1358 0.1152 0.6017
C13 C 0.2586(5) 0.0377(7) 0.2852(9)
C14 C 0.2469(5) -0.0433(6) 0.3581(8)
H12 H 0.2955 -0.0857 0.4054
C15 C 0.1647(5) -0.0623(6) 0.3619(8)
H13 H 0.1560 -0.1181 0.4129
C16 C 0.0928(5) -0.0007(6) 0.2918(8)
C17 C 0.1053(6) 0.0831(6) 0.2197(8)
H14 H 0.0571 0.1264 0.1733
C18 C 0.1901(6) 0.1023(7) 0.2171(8)
H15 H 0.2005 0.1591 0.1690
C19 C 0.0016(6) -0.0229(8) 0.2950(11)
H16 H 0.0022 -0.0179 0.3835
H17 H -0.0166 -0.0934 0.2621
H18 H -0.0403 0.0282 0.2416
C20 C 0.6087(6) -0.0669(7) 0.6981(7)
H19 H 0.5883 -0.1206 0.7401
C21 C 0.5480(5) 0.0003(7) 0.6167(8)
H20 H 0.4868 -0.0074 0.6034
C22 C 0.1832(7) 0.3349(6) 0.4145(8)
H21 H 0.1957 0.3895 0.3653
C23 C 0.0973(6) 0.3150(6) 0.4082(7)
H22 H 0.0507 0.3573 0.3549
loop_
_geom_bond_atom_site_label_1
_geom_bond_atom_site_label_2
_geom_bond_site_symmetry_1
_geom_bond_site_symmetry_2
S1 O1 1_555 1_555
S2 O3 1_555 1_555
O2 S1 1_555 1_555
O4 S2 1_555 1_555
O5 C6 1_555 1_555
C1 H1 1_555 1_555
H2 C1 1_555 1_555
H3 C1 1_555 1_555
C2 C1 1_555 1_555
C3 C2 1_555 1_555
H4 C3 1_555 1_555
C4 C3 1_555 1_555
H5 C4 1_555 1_555
C5 C4 1_555 1_555
C6 C5 1_555 1_555
C7 S2 1_555 1_555
H6 C7 1_555 1_555
O6 S1 1_555 1_555
C8 S1 1_555 1_555
C9 C8 1_555 1_555
H7 C9 1_555 1_555
C10 C11 1_555 1_555
C11 H8 1_555 1_555
H9 C11 1_555 1_555
H10 C11 1_555 1_555
C12 C9 1_555 1_555
H11 C12 1_555 1_555
C13 S2 1_555 1_555
C14 C13 1_555 1_555
H12 C14 1_555 1_555
C15 C14 1_555 1_555
H13 C15 1_555 1_555
C16 C15 1_555 1_555
C17 C16 1_555 1_555
H14 C17 1_555 1_555
C18 C13 1_555 1_555
H15 C18 1_555 1_555
C19 C16 1_555 1_555
H16 C19 1_555 1_555
H17 C19 1_555 1_555
H18 C19 1_555 1_555
C20 C2 1_555 1_555
H19 C20 1_555 1_555
C21 C5 1_555 1_555
H20 C21 1_555 1_555
C22 C8 1_555 1_555
H21 C22 1_555 1_555
C23 C10 1_555 1_555
H22 C23 1_555 1_555
C6 C7 1_555 1_555
C7 O6 1_555 1_555
C10 C12 1_555 1_555
C17 C18 1_555 1_555
C20 C21 1_555 1_555
C22 C23 1_555 1_555

#END
