
#######################################################################
#
#                 Cambridge Crystallographic Data Centre
#                                CCDC 
#
#######################################################################
#
# If this CIF has been generated from an entry in the Cambridge 
# Structural Database, then it will include bibliographic, chemical, 
# crystal, experimental, refinement or atomic coordinate data resulting 
# from the CCDC's data processing and validation procedures.
#
#######################################################################

data_OXPTNA
_chemical_formula_moiety         
'C16 H25 N1 Na1 O4 1+,0.86(Cl1 O4 1-),0.14(Cl1 1-)'
_chemical_name_systematic        
'(N-Phenyl-4,7,10,13-tetraoxa-1-aza-cyclopentadecane)-sodium(i) (perchlorate chloride)'
_symmetry_cell_setting           monoclinic
_symmetry_space_group_name_H-M   'P 21/n'
_symmetry_Int_Tables_number      14
_space_group_name_Hall           '-P 2yn'
loop_
_symmetry_equiv_pos_site_id
_symmetry_equiv_pos_as_xyz
1 x,y,z
2 1/2-x,1/2+y,1/2-z
3 -x,-y,-z
4 1/2+x,1/2-y,1/2+z
_cell_length_a                   16.708(5)
_cell_length_b                   12.669(4)
_cell_length_c                   9.248(4)
_cell_angle_alpha                90
_cell_angle_beta                 93.12(2)
_cell_angle_gamma                90
_cell_volume                     1954.66
_exptl_crystal_colour            colorless
_cell_formula_units_Z            4
loop_
_atom_site_label
_atom_site_type_symbol
_atom_site_fract_x
_atom_site_fract_y
_atom_site_fract_z
Cl1 Cl 0.27350 0.41460 1.01530
O5 O 0.34790 0.43470 0.96740
O6 O 0.21000 0.45640 0.94090
O7 O 0.26530 0.32860 1.10050
O8 O 0.27210 0.48120 1.12870
Na1 Na 0.12190 0.39500 0.74640
N1 N -0.00600 0.29810 0.84220
C1 C -0.03410 0.23870 0.71060
C2 C 0.03270 0.17770 0.64670
O1 O 0.08820 0.25240 0.59600
C3 C 0.15720 0.20450 0.54230
C4 C 0.20150 0.28710 0.46420
O2 O 0.22270 0.37070 0.56130
C5 C 0.24640 0.46520 0.49130
C6 C 0.22470 0.55640 0.58320
O3 O 0.14130 0.55170 0.59850
C7 C 0.11040 0.63590 0.68080
C8 C 0.02290 0.61250 0.69450
O4 O 0.01830 0.51660 0.77540
C9 C -0.06120 0.47640 0.77570
C10 C -0.06260 0.38290 0.87790
C11 C 0.00740 0.22630 0.96340
C12 C -0.05520 0.17640 1.02790
C13 C -0.04140 0.11060 1.14360
C14 C 0.03580 0.09460 1.20000
C15 C 0.09860 0.14500 1.13920
C16 C 0.08340 0.21110 1.02210
loop_
_geom_bond_atom_site_label_1
_geom_bond_atom_site_label_2
_geom_bond_site_symmetry_1
_geom_bond_site_symmetry_2
N1 C1 1_555 1_555
C1 C2 1_555 1_555
C2 O1 1_555 1_555
O1 C3 1_555 1_555
C3 C4 1_555 1_555
C4 O2 1_555 1_555
O2 C5 1_555 1_555
C5 C6 1_555 1_555
C6 O3 1_555 1_555
O3 C7 1_555 1_555
C7 C8 1_555 1_555
C8 O4 1_555 1_555
O4 C9 1_555 1_555
C9 C10 1_555 1_555
C10 N1 1_555 1_555
C11 N1 1_555 1_555
C12 C11 1_555 1_555
C13 C12 1_555 1_555
C14 C13 1_555 1_555
C15 C14 1_555 1_555
C16 C11 1_555 1_555
Cl1 O5 1_555 1_555
O6 Cl1 1_555 1_555
O7 Cl1 1_555 1_555
O8 Cl1 1_555 1_555
C15 C16 1_555 1_555

#END
