
#######################################################################
#
#                 Cambridge Crystallographic Data Centre
#                                CCDC 
#
#######################################################################
#
# If this CIF has been generated from an entry in the Cambridge 
# Structural Database, then it will include bibliographic, chemical, 
# crystal, experimental, refinement or atomic coordinate data resulting 
# from the CCDC's data processing and validation procedures.
#
#######################################################################

data_OXUCIU
_chemical_formula_moiety         'C20 H26 O3 S1'
_chemical_name_systematic        
3-(2-Naphthylsulfonyl)-2-pentyltetrahydro-2H-pyran
_symmetry_cell_setting           orthorhombic
_symmetry_space_group_name_H-M   'F d d 2'
_symmetry_Int_Tables_number      43
_space_group_name_Hall           'F 2 -2d'
loop_
_symmetry_equiv_pos_site_id
_symmetry_equiv_pos_as_xyz
1 x,y,z
2 -x,-y,z
3 1/4+x,1/4-y,1/4+z
4 1/4-x,1/4+y,1/4+z
5 x,1/2+y,1/2+z
6 -x,1/2-y,1/2+z
7 1/4+x,3/4-y,3/4+z
8 1/4-x,3/4+y,3/4+z
9 1/2+x,y,1/2+z
10 1/2-x,-y,1/2+z
11 3/4+x,1/4-y,3/4+z
12 3/4-x,1/4+y,3/4+z
13 1/2+x,1/2+y,z
14 1/2-x,1/2-y,z
15 3/4+x,3/4-y,1/4+z
16 3/4-x,3/4+y,1/4+z
_cell_length_a                   23.497(5)
_cell_length_b                   52.752(11)
_cell_length_c                   5.7732(12)
_cell_angle_alpha                90
_cell_angle_beta                 90
_cell_angle_gamma                90
_cell_volume                     7155.96
_exptl_crystal_colour            colorless
_exptl_crystal_description       needle
_cell_formula_units_Z            16
loop_
_atom_site_label
_atom_site_type_symbol
_atom_site_fract_x
_atom_site_fract_y
_atom_site_fract_z
S1 S 0.21003(5) 0.086894(17) 0.06942(17)
O1 O 0.16180(12) 0.15132(5) 0.3806(5)
O2 O 0.18475(16) 0.08632(5) -0.1564(6)
O3 O 0.26953(12) 0.09307(5) 0.0914(8)
C1 C 0.17143(16) 0.10806(6) 0.2508(7)
H1 H 0.1808 0.1034 0.4142
C2 C 0.19142(16) 0.13577(7) 0.2166(7)
H2 H 0.2327 0.1363 0.2589
C3 C 0.10118(17) 0.15026(7) 0.3541(9)
H3 H 0.0907 0.1558 0.1960
H4 H 0.0831 0.1620 0.4660
C4 C 0.07945(18) 0.12382(8) 0.3941(8)
H5 H 0.0377 0.1235 0.3725
H6 H 0.0879 0.1186 0.5552
C5 C 0.10746(16) 0.10534(7) 0.2254(8)
H7 H 0.0957 0.0878 0.2613
H8 H 0.0958 0.1093 0.0646
C6 C 0.19894(16) 0.05699(7) 0.2001(7)
C7 C 0.16755(16) 0.03881(7) 0.0892(7)
H9 H 0.1500 0.0425 -0.0552
C8 C 0.16126(15) 0.01452(7) 0.1901(7)
C9 C 0.12970(16) -0.00516(7) 0.0819(8)
H10 H 0.1117 -0.0021 -0.0629
C10 C 0.12490(17) -0.02845(8) 0.1835(8)
H11 H 0.1033 -0.0414 0.1102
C11 C 0.15171(17) -0.03330(7) 0.3951(8)
H12 H 0.1487 -0.0497 0.4627
C12 C 0.18216(16) -0.01494(6) 0.5061(7)
H13 H 0.1998 -0.0185 0.6506
C13 C 0.18752(14) 0.00956(6) 0.4055(6)
C14 C 0.21956(15) 0.02883(7) 0.5137(7)
H14 H 0.2375 0.0255 0.6580
C15 C 0.22517(16) 0.05206(7) 0.4148(7)
H15 H 0.2467 0.0649 0.4900
C16 C 0.18651(17) 0.14557(7) -0.0303(8)
H16 H 0.1475 0.1422 -0.0876
H17 H 0.2133 0.1360 -0.1297
C17 C 0.19893(17) 0.17391(7) -0.0545(8)
H18 H 0.2003 0.1781 -0.2215
H19 H 0.1668 0.1835 0.0141
C18 C 0.2535(2) 0.18289(8) 0.0571(12)
H20 H 0.2855 0.1723 0.0004
H21 H 0.2507 0.1805 0.2268
C19 C 0.2666(2) 0.21115(10) 0.0053(14)
H22 H 0.2312 0.2211 0.0229
H23 H 0.2943 0.2175 0.1205
C20 C 0.2895(3) 0.21522(13) -0.2277(15)
H24 H 0.3018 0.2329 -0.2435
H25 H 0.2599 0.2116 -0.3428
H26 H 0.3220 0.2039 -0.2527
loop_
_geom_bond_atom_site_label_1
_geom_bond_atom_site_label_2
_geom_bond_site_symmetry_1
_geom_bond_site_symmetry_2
S1 O2 1_555 1_555
O1 C2 1_555 1_555
O3 S1 1_555 1_555
C1 S1 1_555 1_555
H1 C1 1_555 1_555
C2 C1 1_555 1_555
H2 C2 1_555 1_555
C3 O1 1_555 1_555
H3 C3 1_555 1_555
H4 C3 1_555 1_555
C4 C3 1_555 1_555
H5 C4 1_555 1_555
H6 C4 1_555 1_555
C5 C1 1_555 1_555
H7 C5 1_555 1_555
H8 C5 1_555 1_555
C6 S1 1_555 1_555
C7 C6 1_555 1_555
H9 C7 1_555 1_555
C8 C7 1_555 1_555
C9 C8 1_555 1_555
H10 C9 1_555 1_555
C10 C9 1_555 1_555
H11 C10 1_555 1_555
C11 C10 1_555 1_555
H12 C11 1_555 1_555
C12 C11 1_555 1_555
H13 C12 1_555 1_555
C13 C8 1_555 1_555
C14 C13 1_555 1_555
H14 C14 1_555 1_555
C15 C6 1_555 1_555
H15 C15 1_555 1_555
C16 C2 1_555 1_555
H16 C16 1_555 1_555
H17 C16 1_555 1_555
C17 C16 1_555 1_555
H18 C17 1_555 1_555
H19 C17 1_555 1_555
C18 C17 1_555 1_555
H20 C18 1_555 1_555
H21 C18 1_555 1_555
C19 C18 1_555 1_555
H22 C19 1_555 1_555
H23 C19 1_555 1_555
C20 C19 1_555 1_555
H24 C20 1_555 1_555
H25 C20 1_555 1_555
H26 C20 1_555 1_555
C4 C5 1_555 1_555
C12 C13 1_555 1_555
C14 C15 1_555 1_555

#END
