
#######################################################################
#
#                 Cambridge Crystallographic Data Centre
#                                CCDC 
#
#######################################################################
#
# If this CIF has been generated from an entry in the Cambridge 
# Structural Database, then it will include bibliographic, chemical, 
# crystal, experimental, refinement or atomic coordinate data resulting 
# from the CCDC's data processing and validation procedures.
#
#######################################################################

data_OXUCEQ
_chemical_formula_moiety         'C20 H26 O3 S1'
_chemical_name_systematic        
2-(1-(2-Naphthylsulfonyl)hexyl)tetrahydrofuran
_symmetry_cell_setting           monoclinic
_symmetry_space_group_name_H-M   'P 21/c'
_symmetry_Int_Tables_number      14
_space_group_name_Hall           '-P 2ybc'
loop_
_symmetry_equiv_pos_site_id
_symmetry_equiv_pos_as_xyz
1 x,y,z
2 -x,1/2+y,1/2-z
3 -x,-y,-z
4 x,1/2-y,1/2+z
_cell_length_a                   7.8790(16)
_cell_length_b                   20.374(4)
_cell_length_c                   11.622(2)
_cell_angle_alpha                90
_cell_angle_beta                 98.79(3)
_cell_angle_gamma                90
_cell_volume                     1843.73
_exptl_crystal_colour            colorless
_exptl_crystal_description       needle
_cell_formula_units_Z            4
loop_
_atom_site_label
_atom_site_type_symbol
_atom_site_fract_x
_atom_site_fract_y
_atom_site_fract_z
S1 S 0.20383(12) 0.28982(4) 0.83405(8)
O1 O 0.5022(8) 0.2532(4) 1.0307(8)
C1 C 0.7904(11) 0.2513(4) 0.9957(10)
H1 H 0.9054 0.2545 1.0434
H2 H 0.7994 0.2242 0.9262
O2 O 0.1142(3) 0.30986(12) 0.7219(2)
O3 O 0.1500(3) 0.31760(12) 0.9370(2)
C2 C 0.5283(5) 0.3088(2) 0.9580(4)
H3 H 0.4883 0.3485 0.9969
C3 C 0.7242(5) 0.3169(2) 0.9610(5)
H4 H 0.7516 0.3292 0.8834
H5 H 0.7718 0.3505 1.0185
C4 C 0.6643(6) 0.2216(2) 1.0651(4)
H6 H 0.6537 0.1738 1.0499
H7 H 0.7035 0.2282 1.1494
C5 C 0.4298(5) 0.30775(18) 0.8352(4)
H8 H 0.4787 0.2716 0.7923
C6 C 0.4469(5) 0.37198(18) 0.7675(4)
H9 H 0.5682 0.3765 0.7558
H10 H 0.3769 0.3676 0.6895
C7 C 0.3938(5) 0.43537(18) 0.8227(4)
H11 H 0.4743 0.4442 0.8951
H12 H 0.2775 0.4299 0.8436
C8 C 0.3937(5) 0.49398(18) 0.7401(4)
H13 H 0.5077 0.4969 0.7146
H14 H 0.3077 0.4859 0.6701
C9 C 0.3548(7) 0.5584(2) 0.7917(5)
H15 H 0.4450 0.5682 0.8586
H16 H 0.2439 0.5550 0.8216
C10 C 0.3447(7) 0.6151(2) 0.7044(5)
H17 H 0.3228 0.6562 0.7433
H18 H 0.2513 0.6069 0.6401
H19 H 0.4537 0.6185 0.6738
C11 C 0.1863(4) 0.20327(17) 0.8414(3)
C12 C 0.1776(5) 0.16721(17) 0.7400(3)
H20 H 0.1857 0.1885 0.6683
C13 C 0.1565(5) 0.09797(17) 0.7436(3)
C14 C 0.1454(5) 0.05880(19) 0.6416(3)
H21 H 0.1543 0.0788 0.5689
C15 C 0.1218(5) -0.00782(19) 0.6473(4)
H22 H 0.1131 -0.0335 0.5784
C16 C 0.1104(5) -0.03850(19) 0.7551(4)
H23 H 0.0939 -0.0846 0.7584
C17 C 0.1232(5) -0.00193(18) 0.8539(4)
H24 H 0.1169 -0.0231 0.9259
C18 C 0.1455(5) 0.06706(17) 0.8520(3)
C19 C 0.1563(5) 0.10667(19) 0.9536(3)
H25 H 0.1490 0.0865 1.0263
C20 C 0.1767(5) 0.17300(19) 0.9489(3)
H26 H 0.1843 0.1986 1.0178
C21? C 0.8014(12) 0.2741(6) 1.0546(12)
H27? H 0.8298 0.2989 1.1283
H28? H 0.9076 0.2537 1.0353
O4? O 0.5133(11) 0.2402(4) 0.9888(10)
loop_
_geom_bond_atom_site_label_1
_geom_bond_atom_site_label_2
_geom_bond_site_symmetry_1
_geom_bond_site_symmetry_2
S1 O2 1_555 1_555
O1 C2 1_555 1_555
C1 H1 1_555 1_555
H2 C1 1_555 1_555
O3 S1 1_555 1_555
C2 H3 1_555 1_555
C3 C1 1_555 1_555
H4 C3 1_555 1_555
H5 C3 1_555 1_555
C4 O1 1_555 1_555
H6 C4 1_555 1_555
H7 C4 1_555 1_555
C5 S1 1_555 1_555
H8 C5 1_555 1_555
C6 C5 1_555 1_555
H9 C6 1_555 1_555
H10 C6 1_555 1_555
C7 C6 1_555 1_555
H11 C7 1_555 1_555
H12 C7 1_555 1_555
C8 C7 1_555 1_555
H13 C8 1_555 1_555
H14 C8 1_555 1_555
C9 C8 1_555 1_555
H15 C9 1_555 1_555
H16 C9 1_555 1_555
C10 C9 1_555 1_555
H17 C10 1_555 1_555
H18 C10 1_555 1_555
H19 C10 1_555 1_555
C11 S1 1_555 1_555
C12 C11 1_555 1_555
H20 C12 1_555 1_555
C13 C12 1_555 1_555
C14 C13 1_555 1_555
H21 C14 1_555 1_555
C15 C14 1_555 1_555
H22 C15 1_555 1_555
C16 C15 1_555 1_555
H23 C16 1_555 1_555
C17 C16 1_555 1_555
H24 C17 1_555 1_555
C18 C13 1_555 1_555
C19 C18 1_555 1_555
H25 C19 1_555 1_555
C20 C11 1_555 1_555
H26 C20 1_555 1_555
C1 C4 1_555 1_555
C2 C3 1_555 1_555
C2 C5 1_555 1_555
C17 C18 1_555 1_555
C19 C20 1_555 1_555

#END
