
#######################################################################
#
#                 Cambridge Crystallographic Data Centre
#                                CCDC 
#
#######################################################################
#
# If this CIF has been generated from an entry in the Cambridge 
# Structural Database, then it will include bibliographic, chemical, 
# crystal, experimental, refinement or atomic coordinate data resulting 
# from the CCDC's data processing and validation procedures.
#
#######################################################################

data_OXUFEU
_chemical_formula_moiety         'C28 H33 Cl1 N4'
_chemical_name_systematic        
4-(2-(2-chloro-6-(2-(4-(diethylamino)phenyl)vinyl)pyrimidin-4-yl)vinyl)-N,N-diethylaniline
_symmetry_cell_setting           monoclinic
_symmetry_space_group_name_H-M   'P 21/c'
_symmetry_Int_Tables_number      14
_space_group_name_Hall           '-P 2ybc'
loop_
_symmetry_equiv_pos_site_id
_symmetry_equiv_pos_as_xyz
1 x,y,z
2 -x,1/2+y,1/2-z
3 -x,-y,-z
4 x,1/2-y,1/2+z
_cell_length_a                   11.791(5)
_cell_length_b                   15.005(5)
_cell_length_c                   14.711(5)
_cell_angle_alpha                90
_cell_angle_beta                 92.716(5)
_cell_angle_gamma                90
_cell_volume                     2599.8
_exptl_crystal_colour            red
_exptl_crystal_description       prism
_cell_formula_units_Z            4
loop_
_atom_site_label
_atom_site_type_symbol
_atom_site_fract_x
_atom_site_fract_y
_atom_site_fract_z
Cl1 Cl 0.23269(13) 0.36886(9) 1.30455(8)
C1 C 0.1371(3) 0.5278(3) 0.8928(3)
N1 N 0.2846(3) 0.2363(2) 1.2017(2)
N2 N 0.4462(3) -0.3125(2) 1.0323(3)
C2 C 0.3370(3) 0.0536(3) 1.0462(3)
H1 H 0.3143 0.0797 0.9910
C3 C 0.2972(3) 0.1987(3) 1.1188(3)
C4 C 0.2743(3) 0.2474(3) 1.0400(3)
H2 H 0.2845 0.2221 0.9832
C5 C 0.4249(4) -0.2226(3) 1.0348(3)
C6 C 0.3342(4) 0.1056(3) 1.1189(3)
H3 H 0.3576 0.0809 1.1746
C7 C 0.3711(4) -0.0388(3) 1.0425(3)
C8 C 0.2362(3) 0.3337(3) 1.0470(3)
C9 C 0.2489(3) 0.3195(3) 1.1987(3)
C10 C 0.1623(3) 0.4685(3) 0.9688(3)
H4 H 0.1431 0.4892 1.0256
N3 N 0.2235(3) 0.3717(2) 1.1294(3)
C11 C 0.0828(3) 0.6091(3) 0.9065(3)
H5 H 0.0591 0.6225 0.9644
C12 C 0.4283(4) -0.0820(3) 1.1142(3)
H6 H 0.4492 -0.0496 1.1662
N4 N 0.0790(4) 0.7150(3) 0.6822(3)
C13 C 0.1674(4) 0.5118(3) 0.8045(3)
H7 H 0.2020 0.4578 0.7917
C14 C 0.3713(4) -0.1784(3) 0.9612(3)
H8 H 0.3519 -0.2100 0.9084
C15 C 0.0961(4) 0.6541(3) 0.7508(3)
C16 C 0.0631(4) 0.6696(3) 0.8384(3)
H9 H 0.0265 0.7227 0.8512
C17 C 0.2097(3) 0.3877(3) 0.9671(3)
H10 H 0.2269 0.3645 0.9108
C18 C 0.1489(4) 0.5712(3) 0.7351(3)
H11 H 0.1713 0.5572 0.6771
C19 C 0.3941(4) -0.3692(3) 0.9608(3)
H12 H 0.3211 -0.3441 0.9413
H13 H 0.3806 -0.4278 0.9858
C20 C 0.4554(4) -0.1709(3) 1.1112(3)
H14 H 0.4946 -0.1971 1.1607
C21 C 0.3467(4) -0.0892(3) 0.9652(3)
H15 H 0.3124 -0.0617 0.9143
C22 C 0.4983(4) -0.3591(3) 1.1105(3)
H16 H 0.5564 -0.3213 1.1391
H17 H 0.5350 -0.4126 1.0896
C23 C 0.4660(5) -0.3787(3) 0.8790(3)
H18 H 0.4810 -0.3209 0.8545
H19 H 0.4262 -0.4142 0.8335
H20 H 0.5364 -0.4072 0.8970
C24 C 0.0210(5) 0.8003(4) 0.6974(4)
H21 H -0.0384 0.7908 0.7398
H22 H -0.0149 0.8202 0.6402
C25 C 0.4139(5) -0.3846(3) 1.1809(4)
H23 H 0.3784 -0.3319 1.2031
H24 H 0.4529 -0.4150 1.2306
H25 H 0.3570 -0.4233 1.1536
C26 C 0.1174(6) 0.6985(5) 0.5922(5)
H26 H 0.1883 0.6657 0.5970
H27 H 0.1321 0.7551 0.5631
C27 C 0.0333(7) 0.6472(6) 0.5340(5)
H28 H 0.0148 0.5928 0.5642
H29 H 0.0654 0.6337 0.4768
H30 H -0.0342 0.6822 0.5236
C28 C 0.0994(6) 0.8730(4) 0.7342(6)
H31 H 0.1369 0.8534 0.7900
H32 H 0.0560 0.9257 0.7454
H33 H 0.1550 0.8861 0.6905
loop_
_geom_bond_atom_site_label_1
_geom_bond_atom_site_label_2
_geom_bond_site_symmetry_1
_geom_bond_site_symmetry_2
Cl1 C9 1_555 1_555
C1 C10 1_555 1_555
N1 C3 1_555 1_555
N2 C5 1_555 1_555
C2 H1 1_555 1_555
C3 C4 1_555 1_555
C4 H2 1_555 1_555
C5 C14 1_555 1_555
C6 C2 1_555 1_555
H3 C6 1_555 1_555
C7 C2 1_555 1_555
C8 C4 1_555 1_555
C9 N1 1_555 1_555
C10 H4 1_555 1_555
N3 C8 1_555 1_555
C11 C1 1_555 1_555
H5 C11 1_555 1_555
C12 C7 1_555 1_555
H6 C12 1_555 1_555
N4 C15 1_555 1_555
C13 C1 1_555 1_555
H7 C13 1_555 1_555
C14 H8 1_555 1_555
C15 C16 1_555 1_555
C16 C11 1_555 1_555
H9 C16 1_555 1_555
C17 C8 1_555 1_555
H10 C17 1_555 1_555
C18 C13 1_555 1_555
H11 C18 1_555 1_555
C19 N2 1_555 1_555
H12 C19 1_555 1_555
H13 C19 1_555 1_555
C20 C5 1_555 1_555
H14 C20 1_555 1_555
C21 C7 1_555 1_555
H15 C21 1_555 1_555
C22 N2 1_555 1_555
H16 C22 1_555 1_555
H17 C22 1_555 1_555
C23 C19 1_555 1_555
H18 C23 1_555 1_555
H19 C23 1_555 1_555
H20 C23 1_555 1_555
C24 N4 1_555 1_555
H21 C24 1_555 1_555
H22 C24 1_555 1_555
C25 C22 1_555 1_555
H23 C25 1_555 1_555
H24 C25 1_555 1_555
H25 C25 1_555 1_555
C26 N4 1_555 1_555
H26 C26 1_555 1_555
H27 C26 1_555 1_555
C27 C26 1_555 1_555
H28 C27 1_555 1_555
H29 C27 1_555 1_555
H30 C27 1_555 1_555
C28 C24 1_555 1_555
H31 C28 1_555 1_555
H32 C28 1_555 1_555
H33 C28 1_555 1_555
C3 C6 1_555 1_555
C9 N3 1_555 1_555
C10 C17 1_555 1_555
C12 C20 1_555 1_555
C14 C21 1_555 1_555
C15 C18 1_555 1_555

#END
