
#######################################################################
#
#                 Cambridge Crystallographic Data Centre
#                                CCDC 
#
#######################################################################
#
# If this CIF has been generated from an entry in the Cambridge 
# Structural Database, then it will include bibliographic, chemical, 
# crystal, experimental, refinement or atomic coordinate data resulting 
# from the CCDC's data processing and validation procedures.
#
#######################################################################

data_OYABIA
_chemical_formula_moiety         'C19 H17 O1 P1'
_chemical_name_systematic        'Benzyl(diphenyl)phosphine oxide'
_symmetry_cell_setting           monoclinic
_symmetry_space_group_name_H-M   'P 21/n'
_symmetry_Int_Tables_number      14
_space_group_name_Hall           '-P 2yn'
loop_
_symmetry_equiv_pos_site_id
_symmetry_equiv_pos_as_xyz
1 x,y,z
2 1/2-x,1/2+y,1/2-z
3 -x,-y,-z
4 1/2+x,1/2-y,1/2+z
_cell_length_a                   13.4389(8)
_cell_length_b                   5.7721(3)
_cell_length_c                   19.8030(11)
_cell_angle_alpha                90
_cell_angle_beta                 98.827(4)
_cell_angle_gamma                90
_cell_volume                     1517.94
_cell_formula_units_Z            4
loop_
_atom_site_label
_atom_site_type_symbol
_atom_site_fract_x
_atom_site_fract_y
_atom_site_fract_z
P1 P 0.49002(4) 0.61477(10) 0.12060(3)
O1 O 0.47660(11) 0.3631(3) 0.10612(7)
C1 C 0.43071(15) 0.7996(4) 0.05244(10)
H1 H 0.4457 0.9634 0.0649
H2 H 0.4595 0.7660 0.0104
C2 C 0.31831(15) 0.7664(4) 0.03820(10)
C3 C 0.25430(17) 0.9372(4) 0.05596(11)
H3 H 0.2818 1.0744 0.0779
C4 C 0.15092(18) 0.9100(4) 0.04215(13)
H4 H 0.1081 1.0282 0.0547
C5 C 0.10967(18) 0.7123(4) 0.01025(12)
H5 H 0.0386 0.6944 0.0004
C6 C 0.17223(18) 0.5410(4) -0.00726(12)
H6 H 0.1443 0.4040 -0.0291
C7 C 0.27554(17) 0.5675(4) 0.00676(11)
H7 H 0.3180 0.4476 -0.0053
C8 C 0.43930(15) 0.6982(4) 0.19627(10)
C9 C 0.45822(16) 0.9130(4) 0.22707(11)
H8 H 0.4966 1.0247 0.2070
C10 C 0.42132(18) 0.9653(4) 0.28700(12)
H9 H 0.4352 1.1118 0.3082
C11 C 0.36440(18) 0.8044(4) 0.31573(11)
H10 H 0.3402 0.8391 0.3572
C12 C 0.34264(19) 0.5936(4) 0.28437(12)
H11 H 0.3017 0.4850 0.3035
C13 C 0.38034(18) 0.5399(4) 0.22510(12)
H12 H 0.3658 0.3935 0.2039
C14 C 0.62108(16) 0.6980(4) 0.13691(10)
C15 C 0.65866(17) 0.9081(4) 0.11748(11)
H13 H 0.6139 1.0202 0.0945
C16 C 0.76096(17) 0.9554(4) 0.13136(12)
H14 H 0.7861 1.0984 0.1172
C17 C 0.82607(18) 0.7957(4) 0.16560(12)
H15 H 0.8960 0.8290 0.1755
C18 C 0.78965(18) 0.5869(5) 0.18553(13)
H16 H 0.8346 0.4770 0.2094
C19 C 0.68843(17) 0.5377(4) 0.17093(11)
H17 H 0.6642 0.3927 0.1842
loop_
_geom_bond_atom_site_label_1
_geom_bond_atom_site_label_2
_geom_bond_site_symmetry_1
_geom_bond_site_symmetry_2
P1 O1 1_555 1_555
C1 P1 1_555 1_555
H1 C1 1_555 1_555
H2 C1 1_555 1_555
C2 C1 1_555 1_555
C3 C2 1_555 1_555
H3 C3 1_555 1_555
C4 C3 1_555 1_555
H4 C4 1_555 1_555
C5 C4 1_555 1_555
H5 C5 1_555 1_555
C6 C5 1_555 1_555
H6 C6 1_555 1_555
C7 C2 1_555 1_555
H7 C7 1_555 1_555
C8 P1 1_555 1_555
C9 C8 1_555 1_555
H8 C9 1_555 1_555
C10 C9 1_555 1_555
H9 C10 1_555 1_555
C11 C10 1_555 1_555
H10 C11 1_555 1_555
C12 C11 1_555 1_555
H11 C12 1_555 1_555
C13 C8 1_555 1_555
H12 C13 1_555 1_555
C14 P1 1_555 1_555
C15 C14 1_555 1_555
H13 C15 1_555 1_555
C16 C15 1_555 1_555
H14 C16 1_555 1_555
C17 C16 1_555 1_555
H15 C17 1_555 1_555
C18 C17 1_555 1_555
H16 C18 1_555 1_555
C19 C14 1_555 1_555
H17 C19 1_555 1_555
C6 C7 1_555 1_555
C12 C13 1_555 1_555
C18 C19 1_555 1_555

#END
