
#######################################################################
#
#                 Cambridge Crystallographic Data Centre
#                                CCDC 
#
#######################################################################
#
# If this CIF has been generated from an entry in the Cambridge 
# Structural Database, then it will include bibliographic, chemical, 
# crystal, experimental, refinement or atomic coordinate data resulting 
# from the CCDC's data processing and validation procedures.
#
#######################################################################

data_OYAGEB
_chemical_formula_moiety         'C6 H6 F2 O4'
_chemical_name_systematic        '2,2-Difluoro-4-methylenepentanedioic acid'
_symmetry_cell_setting           orthorhombic
_symmetry_space_group_name_H-M   'P b c a'
_symmetry_Int_Tables_number      61
_space_group_name_Hall           '-P 2ac 2ab'
loop_
_symmetry_equiv_pos_site_id
_symmetry_equiv_pos_as_xyz
1 x,y,z
2 1/2-x,-y,1/2+z
3 1/2+x,1/2-y,-z
4 -x,1/2+y,1/2-z
5 -x,-y,-z
6 1/2+x,y,1/2-z
7 1/2-x,1/2+y,z
8 x,1/2-y,1/2+z
_cell_length_a                   10.1900(1)
_cell_length_b                   6.4050(2)
_cell_length_c                   21.9560(5)
_cell_angle_alpha                90
_cell_angle_beta                 90
_cell_angle_gamma                90
_cell_volume                     1433
_exptl_crystal_colour            colorless
_exptl_crystal_description       prism
_cell_formula_units_Z            8
_exptl_crystal_recrystallization_method ether/toluene
loop_
_atom_site_label
_atom_site_type_symbol
_atom_site_fract_x
_atom_site_fract_y
_atom_site_fract_z
F1 F 0.53993(13) -0.0306(2) 0.20128(5)
F2 F 0.72004(11) 0.1432(2) 0.18297(5)
O1 O 0.52691(13) -0.1584(2) 0.08857(6)
H1 H 0.5372 -0.2039 0.0502
O2 O 0.25491(14) 0.1727(2) 0.04251(6)
H2 H 0.2561 0.1425 0.0019
O3 O 0.72066(11) -0.0031(2) 0.07053(5)
O4 O 0.46408(13) 0.2658(2) 0.02681(6)
C1 C 0.62181(16) -0.0329(3) 0.10103(7)
C2 C 0.59964(17) 0.0948(3) 0.15943(7)
C3 C 0.52277(18) 0.2943(3) 0.15112(8)
H3 H 0.5201 0.3576 0.1915
H4 H 0.5727 0.3789 0.1225
C4 C 0.38503(16) 0.2620(2) 0.12788(7)
C5 C 0.37002(16) 0.2336(2) 0.06116(7)
C6 C 0.28037(19) 0.2650(3) 0.16347(8)
H5 H 0.1981 0.2429 0.1461
H6 H 0.2983 0.2933 0.2070
loop_
_geom_bond_atom_site_label_1
_geom_bond_atom_site_label_2
_geom_bond_site_symmetry_1
_geom_bond_site_symmetry_2
F1 C2 1_555 1_555
F2 C2 1_555 1_555
O1 H1 1_555 1_555
O2 H2 1_555 1_555
O3 C1 1_555 1_555
O4 C5 1_555 1_555
C1 O1 1_555 1_555
C2 C1 1_555 1_555
C3 C2 1_555 1_555
H3 C3 1_555 1_555
H4 C3 1_555 1_555
C4 C3 1_555 1_555
C5 O2 1_555 1_555
C6 C4 1_555 1_555
H5 C6 1_555 1_555
H6 C6 1_555 1_555
C4 C5 1_555 1_555

#END
