
#######################################################################
#
#                 Cambridge Crystallographic Data Centre
#                                CCDC 
#
#######################################################################
#
# If this CIF has been generated from an entry in the Cambridge 
# Structural Database, then it will include bibliographic, chemical, 
# crystal, experimental, refinement or atomic coordinate data resulting 
# from the CCDC's data processing and validation procedures.
#
#######################################################################

data_OYAHOM
_chemical_formula_moiety         'C22 H28 O2'
_chemical_name_systematic        
7-Methoxy-4,6a,8,11b-tetramethyl-1,2,5,6,6a,11,11a,11b-octahydro-3H-benzo[a]fluoren-3-one
_symmetry_cell_setting           monoclinic
_symmetry_space_group_name_H-M   'P 21/n'
_symmetry_Int_Tables_number      14
_space_group_name_Hall           '-P 2yn'
loop_
_symmetry_equiv_pos_site_id
_symmetry_equiv_pos_as_xyz
1 x,y,z
2 1/2-x,1/2+y,1/2-z
3 -x,-y,-z
4 1/2+x,1/2-y,1/2+z
_cell_length_a                   10.024(4)
_cell_length_b                   7.592(3)
_cell_length_c                   23.625(9)
_cell_angle_alpha                90
_cell_angle_beta                 93.264(4)
_cell_angle_gamma                90
_cell_volume                     1795
_exptl_crystal_colour            colorless
_exptl_crystal_description       block
_chemical_melting_point          '124-125 deg.C'
_cell_formula_units_Z            4
loop_
_atom_site_label
_atom_site_type_symbol
_atom_site_fract_x
_atom_site_fract_y
_atom_site_fract_z
C1 C 0.84309(19) 0.4376(3) 0.12079(8)
C2 C 0.9307(2) 0.3569(3) 0.08512(9)
C3 C 1.0568(2) 0.4279(3) 0.07739(10)
C4 C 1.0935(2) 0.5781(4) 0.10755(11)
H1 H 1.1774 0.6266 0.1030
C5 C 1.0101(2) 0.6582(3) 0.14407(10)
H2 H 1.0380 0.7576 0.1645
C6 C 0.8843(2) 0.5885(3) 0.14987(9)
C7 C 0.7758(2) 0.6588(3) 0.18452(9)
H3 H 0.7401 0.7679 0.1685
H4 H 0.8092 0.6805 0.2232
C8 C 0.6675(2) 0.5136(3) 0.18249(8)
H5 H 0.6808 0.4447 0.2174
C9 C 0.69942(19) 0.3888(3) 0.13204(8)
C10 C 0.5239(2) 0.5874(3) 0.18109(9)
C11 C 0.49659(19) 0.6897(3) 0.12602(9)
C12 C 0.5666(2) 0.6217(3) 0.07514(9)
H6 H 0.5077 0.6375 0.0415
H7 H 0.6457 0.6926 0.0705
C13 C 0.6077(2) 0.4300(3) 0.07903(9)
H8 H 0.6538 0.3989 0.0454
H9 H 0.5281 0.3575 0.0797
C14 C 0.5104(2) 0.7118(4) 0.23178(10)
H10 H 0.5167 0.6436 0.2665
H11 H 0.5839 0.7951 0.2332
C15 C 0.3788(3) 0.8129(4) 0.22847(12)
H12 H 0.3069 0.7329 0.2366
H13 H 0.3823 0.9039 0.2573
C16 C 0.3483(2) 0.8962(3) 0.17179(12)
C17 C 0.4174(2) 0.8315(3) 0.12218(10)
C18 C 1.1503(3) 0.3488(4) 0.03629(12)
H14 H 1.2176 0.4334 0.0280
H15 H 1.1006 0.3170 0.0019
H16 H 1.1920 0.2457 0.0529
C19 C 0.9472(3) 0.0473(4) 0.07567(14)
H17 H 1.0336 0.0326 0.0608
H18 H 0.8909 -0.0499 0.0639
H19 H 0.9562 0.0511 0.1163
C20 C 0.6851(2) 0.1927(3) 0.14752(10)
H20 H 0.6939 0.1218 0.1143
H21 H 0.5990 0.1731 0.1622
H22 H 0.7536 0.1612 0.1758
C21 C 0.4207(2) 0.4378(3) 0.18565(11)
H23 H 0.3332 0.4874 0.1882
H24 H 0.4429 0.3688 0.2189
H25 H 0.4220 0.3640 0.1527
C22 C 0.3890(3) 0.9322(4) 0.06784(12)
H26 H 0.4676 0.9338 0.0465
H27 H 0.3639 1.0508 0.0765
H28 H 0.3174 0.8762 0.0460
O1 O 0.88854(16) 0.2086(2) 0.05470(6)
O2 O 0.2652(2) 1.0137(3) 0.16684(10)
loop_
_geom_bond_atom_site_label_1
_geom_bond_atom_site_label_2
_geom_bond_site_symmetry_1
_geom_bond_site_symmetry_2
C1 C2 1_555 1_555
C2 C3 1_555 1_555
C3 C4 1_555 1_555
C4 H1 1_555 1_555
C5 C4 1_555 1_555
H2 C5 1_555 1_555
C6 C1 1_555 1_555
C7 C6 1_555 1_555
H3 C7 1_555 1_555
H4 C7 1_555 1_555
C8 C7 1_555 1_555
H5 C8 1_555 1_555
C9 C1 1_555 1_555
C10 C8 1_555 1_555
C11 C10 1_555 1_555
C12 C11 1_555 1_555
H6 C12 1_555 1_555
H7 C12 1_555 1_555
C13 C9 1_555 1_555
H8 C13 1_555 1_555
H9 C13 1_555 1_555
C14 C10 1_555 1_555
H10 C14 1_555 1_555
H11 C14 1_555 1_555
C15 C14 1_555 1_555
H12 C15 1_555 1_555
H13 C15 1_555 1_555
C16 C15 1_555 1_555
C17 C11 1_555 1_555
C18 C3 1_555 1_555
H14 C18 1_555 1_555
H15 C18 1_555 1_555
H16 C18 1_555 1_555
C19 H17 1_555 1_555
H18 C19 1_555 1_555
H19 C19 1_555 1_555
C20 C9 1_555 1_555
H20 C20 1_555 1_555
H21 C20 1_555 1_555
H22 C20 1_555 1_555
C21 C10 1_555 1_555
H23 C21 1_555 1_555
H24 C21 1_555 1_555
H25 C21 1_555 1_555
C22 C17 1_555 1_555
H26 C22 1_555 1_555
H27 C22 1_555 1_555
H28 C22 1_555 1_555
O1 C2 1_555 1_555
O2 C16 1_555 1_555
C5 C6 1_555 1_555
C8 C9 1_555 1_555
C12 C13 1_555 1_555
C16 C17 1_555 1_555
C19 O1 1_555 1_555

#END
