
#######################################################################
#
#                 Cambridge Crystallographic Data Centre
#                                CCDC 
#
#######################################################################
#
# If this CIF has been generated from an entry in the Cambridge 
# Structural Database, then it will include bibliographic, chemical, 
# crystal, experimental, refinement or atomic coordinate data resulting 
# from the CCDC's data processing and validation procedures.
#
#######################################################################

data_OYAPEL02
_chemical_formula_moiety         'C10 H10 N2 O2'
_chemical_name_systematic        5-methoxy-2-(1H-pyrazol-3-yl)phenol
_symmetry_cell_setting           orthorhombic
_symmetry_space_group_name_H-M   'P 21 21 21'
_symmetry_Int_Tables_number      19
_space_group_name_Hall           'P 2ac 2ab'
loop_
_symmetry_equiv_pos_site_id
_symmetry_equiv_pos_as_xyz
1 x,y,z
2 1/2-x,-y,1/2+z
3 -x,1/2+y,1/2-z
4 1/2+x,1/2-y,-z
_cell_length_a                   5.6704(11)
_cell_length_b                   10.076(2)
_cell_length_c                   16.296(3)
_cell_angle_alpha                90
_cell_angle_beta                 90
_cell_angle_gamma                90
_cell_volume                     931.071
_cell_formula_units_Z            4
loop_
_atom_site_label
_atom_site_type_symbol
_atom_site_fract_x
_atom_site_fract_y
_atom_site_fract_z
O1 O 0.99578(17) 0.27073(12) 0.19898(6)
N1 N 0.7443(2) 0.48456(14) 0.20183(8)
C1 C 0.6262(2) 0.28756(14) 0.12596(7)
O2 O 0.7026(2) -0.10792(12) 0.05547(7)
C2 C 0.6881(3) 0.02199(15) 0.07989(8)
C3 C 0.8250(2) 0.21570(15) 0.15059(8)
C4 C 0.4628(2) 0.22139(16) 0.07601(8)
H1 H 0.3308 0.2674 0.0576
C5 C 0.4908(3) 0.09139(16) 0.05328(8)
H2 H 0.3787 0.0501 0.0204
C6 C 0.8564(3) 0.08383(15) 0.12808(8)
H3 H 0.9895 0.0375 0.1452
C7 C 0.5886(2) 0.42556(15) 0.15204(7)
C8 C 0.4039(3) 0.51414(17) 0.13401(8)
H4 H 0.2731 0.4983 0.1010
C9 C 0.9154(4) -0.17709(19) 0.07085(11)
H5 H 1.0452 -0.1285 0.0479
H6 H 0.9078 -0.2634 0.0461
H7 H 0.9376 -0.1862 0.1290
N2 N 0.6599(2) 0.60732(14) 0.21468(8)
H8 H 0.7283 0.6658 0.2449
C10 C 0.4572(3) 0.62774(17) 0.17498(10)
H9 H 0.3687 0.7054 0.1753
H10 H 0.957(3) 0.356(2) 0.2081(10)
loop_
_geom_bond_atom_site_label_1
_geom_bond_atom_site_label_2
_geom_bond_site_symmetry_1
_geom_bond_site_symmetry_2
O1 C3 1_555 1_555
N1 C7 1_555 1_555
C1 C3 1_555 1_555
O2 C2 1_555 1_555
C2 C5 1_555 1_555
C3 C6 1_555 1_555
C4 C1 1_555 1_555
H1 C4 1_555 1_555
C5 C4 1_555 1_555
H2 C5 1_555 1_555
C6 C2 1_555 1_555
H3 C6 1_555 1_555
C7 C1 1_555 1_555
C8 C7 1_555 1_555
H4 C8 1_555 1_555
C9 O2 1_555 1_555
H5 C9 1_555 1_555
H6 C9 1_555 1_555
H7 C9 1_555 1_555
N2 N1 1_555 1_555
H8 N2 1_555 1_555
C10 C8 1_555 1_555
H9 C10 1_555 1_555
H10 O1 1_555 1_555
N2 C10 1_555 1_555

#END
