
#######################################################################
#
#                 Cambridge Crystallographic Data Centre
#                                CCDC 
#
#######################################################################
#
# If this CIF has been generated from an entry in the Cambridge 
# Structural Database, then it will include bibliographic, chemical, 
# crystal, experimental, refinement or atomic coordinate data resulting 
# from the CCDC's data processing and validation procedures.
#
#######################################################################

data_OYARAJ
_chemical_formula_moiety         'C25 H17 Cl1 N1 O1 P1'
_chemical_name_systematic        2-chloro-6-(diphenylphosphoryl)phenanthridine
_symmetry_cell_setting           monoclinic
_symmetry_space_group_name_H-M   'P 21/c'
_symmetry_Int_Tables_number      14
_space_group_name_Hall           '-P 2ybc'
loop_
_symmetry_equiv_pos_site_id
_symmetry_equiv_pos_as_xyz
1 x,y,z
2 -x,1/2+y,1/2-z
3 -x,-y,-z
4 x,1/2-y,1/2+z
_cell_length_a                   13.831(7)
_cell_length_b                   16.046(8)
_cell_length_c                   9.430(5)
_cell_angle_alpha                90
_cell_angle_beta                 105.784(8)
_cell_angle_gamma                90
_cell_volume                     2013.91
_exptl_crystal_colour            white
_exptl_crystal_description       block
_cell_formula_units_Z            4
loop_
_atom_site_label
_atom_site_type_symbol
_atom_site_fract_x
_atom_site_fract_y
_atom_site_fract_z
Cl1 Cl 0.00257(5) 0.65937(5) 1.04857(9)
P1 P 0.35488(4) 1.01205(4) 0.75055(7)
O1 O 0.46604(12) 1.00663(10) 0.7937(2)
N1 N 0.22082(14) 0.93382(11) 0.8599(2)
C1 C 0.30971(17) 1.09971(14) 0.8336(3)
C2 C 0.21819(19) 1.13798(16) 0.7713(3)
H1 H 0.1746 1.1154 0.6871
C3 C 0.1911(2) 1.20878(17) 0.8323(3)
H2 H 0.1298 1.2342 0.7884
C4 C 0.2536(2) 1.24241(17) 0.9572(3)
H3 H 0.2353 1.2908 0.9977
C5 C 0.3435(2) 1.2040(2) 1.0222(3)
H4 H 0.3854 1.2259 1.1085
C6 C 0.3724(2) 1.13314(17) 0.9610(3)
H5 H 0.4338 1.1080 1.0052
C7 C 0.30286(18) 1.02207(14) 0.5533(3)
C8 C 0.3674(2) 1.04485(17) 0.4699(3)
H6 H 0.4350 1.0539 0.5165
C9 C 0.3327(3) 1.05425(19) 0.3186(3)
H7 H 0.3771 1.0680 0.2640
C10 C 0.2334(3) 1.04334(19) 0.2500(3)
H8 H 0.2098 1.0516 0.1488
C11 C 0.1672(2) 1.01995(18) 0.3305(3)
H9 H 0.0996 1.0117 0.2827
C12 C 0.20157(19) 1.00888(15) 0.4815(3)
H10 H 0.1573 0.9927 0.5350
C13 C 0.29359(16) 0.91910(14) 0.7985(2)
C14 C 0.32497(16) 0.83682(14) 0.7675(2)
C15 C 0.40062(18) 0.82344(16) 0.6954(3)
H11 H 0.4319 0.8688 0.6652
C16 C 0.4282(2) 0.74433(17) 0.6694(3)
H12 H 0.4775 0.7361 0.6207
C17 C 0.3827(2) 0.67586(16) 0.7156(3)
H13 H 0.4032 0.6223 0.6999
C18 C 0.30816(19) 0.68696(15) 0.7838(3)
H14 H 0.2778 0.6407 0.8128
C19 C 0.27689(17) 0.76741(14) 0.8107(2)
C20 C 0.19696(17) 0.78371(14) 0.8796(2)
C21 C 0.14243(17) 0.71974(15) 0.9261(3)
H15 H 0.1579 0.6642 0.9143
C22 C 0.06703(18) 0.73935(16) 0.9886(3)
C23 C 0.04030(19) 0.82129(17) 1.0083(3)
H16 H -0.0115 0.8331 1.0506
C24 C 0.09251(19) 0.88445(16) 0.9635(3)
H17 H 0.0755 0.9396 0.9751
C25 C 0.17179(17) 0.86636(14) 0.9000(3)
loop_
_geom_bond_atom_site_label_1
_geom_bond_atom_site_label_2
_geom_bond_site_symmetry_1
_geom_bond_site_symmetry_2
Cl1 C22 1_555 1_555
P1 O1 1_555 1_555
N1 C13 1_555 1_555
C1 P1 1_555 1_555
C2 C1 1_555 1_555
H1 C2 1_555 1_555
C3 C2 1_555 1_555
H2 C3 1_555 1_555
C4 C3 1_555 1_555
H3 C4 1_555 1_555
C5 C4 1_555 1_555
H4 C5 1_555 1_555
C6 C1 1_555 1_555
H5 C6 1_555 1_555
C7 P1 1_555 1_555
C8 C7 1_555 1_555
H6 C8 1_555 1_555
C9 C8 1_555 1_555
H7 C9 1_555 1_555
C10 C9 1_555 1_555
H8 C10 1_555 1_555
C11 C10 1_555 1_555
H9 C11 1_555 1_555
C12 C7 1_555 1_555
H10 C12 1_555 1_555
C13 P1 1_555 1_555
C14 C13 1_555 1_555
C15 C14 1_555 1_555
H11 C15 1_555 1_555
C16 C15 1_555 1_555
H12 C16 1_555 1_555
C17 C16 1_555 1_555
H13 C17 1_555 1_555
C18 C17 1_555 1_555
H14 C18 1_555 1_555
C19 C14 1_555 1_555
C20 C19 1_555 1_555
C21 C20 1_555 1_555
H15 C21 1_555 1_555
C22 C21 1_555 1_555
C23 C22 1_555 1_555
H16 C23 1_555 1_555
C24 C23 1_555 1_555
H17 C24 1_555 1_555
C25 N1 1_555 1_555
C5 C6 1_555 1_555
C11 C12 1_555 1_555
C18 C19 1_555 1_555
C20 C25 1_555 1_555
C24 C25 1_555 1_555

#END
