
#######################################################################
#
#                 Cambridge Crystallographic Data Centre
#                                CCDC 
#
#######################################################################
#
# If this CIF has been generated from an entry in the Cambridge 
# Structural Database, then it will include bibliographic, chemical, 
# crystal, experimental, refinement or atomic coordinate data resulting 
# from the CCDC's data processing and validation procedures.
#
#######################################################################

data_OYARIR
_chemical_formula_moiety         'C17 H19 N1 O6'
_chemical_name_systematic        
'(3,5,5-trimethyl-2-oxo-7-oxabicyclo[4.1.0]heptan-3-yl)methyl 4-nitrobenzoate'
_symmetry_cell_setting           monoclinic
_symmetry_space_group_name_H-M   'C 2'
_symmetry_Int_Tables_number      5
_space_group_name_Hall           'C 2y'
loop_
_symmetry_equiv_pos_site_id
_symmetry_equiv_pos_as_xyz
1 x,y,z
2 -x,y,-z
3 1/2+x,1/2+y,z
4 1/2-x,1/2+y,-z
_cell_length_a                   20.9111(4)
_cell_length_b                   10.4665(2)
_cell_length_c                   15.9414(3)
_cell_angle_alpha                90
_cell_angle_beta                 105.0589(11)
_cell_angle_gamma                90
_cell_volume                     3369.21
_cell_formula_units_Z            8
loop_
_atom_site_label
_atom_site_type_symbol
_atom_site_fract_x
_atom_site_fract_y
_atom_site_fract_z
N1 N 0.4458(2) 0.6736(4) 0.3368(2)
O1 O 0.54920(14) 0.1887(3) 0.62128(17)
O2 O 0.6226(2) -0.0271(3) 0.5142(2)
O3 O 0.66303(11) 0.2726(2) 0.52119(15)
O4 O 0.72055(14) 0.4494(3) 0.5718(2)
O5 O 0.39845(18) 0.6144(4) 0.2980(3)
O6 O 0.4494(2) 0.7884(4) 0.3367(3)
C1 C 0.56457(18) 0.0598(4) 0.6051(2)
H1 H 0.5270 0.0044 0.5783
C2 C 0.56896(18) 0.1019(4) 0.6922(2)
H2 H 0.5336 0.0722 0.7175
C3 C 0.63400(16) 0.1300(3) 0.75538(18)
C4 C 0.65644(19) 0.0074(4) 0.8063(2)
H3 H 0.6982 0.0217 0.8477
H4 H 0.6611 -0.0593 0.7670
H5 H 0.6241 -0.0175 0.8363
C5 C 0.6231(2) 0.2332(4) 0.8184(2)
H6 H 0.6644 0.2523 0.8594
H7 H 0.5920 0.2028 0.8487
H8 H 0.6060 0.3090 0.7865
C6 C 0.68218(16) 0.1790(3) 0.70601(18)
H9 H 0.7062 0.2537 0.7228
C7 C 0.68992(17) 0.1016(3) 0.6277(2)
C8 C 0.7425(2) -0.0051(5) 0.6553(3)
H10 H 0.7836 0.0317 0.6874
H11 H 0.7488 -0.0472 0.6045
H12 H 0.7277 -0.0661 0.6912
C9 C 0.6248(2) 0.0414(3) 0.57677(19)
C10 C 0.71549(18) 0.1875(4) 0.5660(2)
H13 H 0.7530 0.2370 0.5986
H14 H 0.7301 0.1356 0.5241
C11 C 0.67146(17) 0.3978(4) 0.5286(2)
C12 C 0.61225(15) 0.4691(3) 0.47740(18)
C13 C 0.55781(16) 0.4063(3) 0.4286(2)
H15 H 0.5575 0.3175 0.4264
C14 C 0.50352(17) 0.4739(4) 0.3826(2)
H16 H 0.4663 0.4316 0.3498
C15 C 0.50530(17) 0.6033(3) 0.38615(18)
C16 C 0.55880(19) 0.6694(3) 0.4339(2)
H17 H 0.5588 0.7582 0.4351
C17 C 0.61281(16) 0.6005(3) 0.48008(19)
H18 H 0.6498 0.6432 0.5132
N2 N 0.3824(2) 0.5279(5) -0.0163(2)
O7 O 0.59123(14) 1.0098(3) 0.05551(17)
O8 O 0.55278(18) 1.2240(4) 0.2008(3)
O9 O 0.57017(12) 0.9169(3) 0.23750(15)
O10 O 0.63017(16) 0.7389(3) 0.27886(18)
O11 O 0.34030(18) 0.5920(4) -0.0662(2)
O12 O 0.3847(2) 0.4123(4) -0.0174(3)
C18 C 0.58465(19) 1.1366(4) 0.0862(3)
H19 H 0.5521 1.1916 0.0473
C19 C 0.6421(2) 1.0996(4) 0.0556(2)
H20 H 0.6433 1.1331 -0.0014
C20 C 0.70792(15) 1.0770(4) 0.1184(2)
C21 C 0.7467(2) 0.9809(5) 0.0795(3)
H21 H 0.7891 0.9660 0.1195
H22 H 0.7530 1.0140 0.0260
H23 H 0.7226 0.9020 0.0683
C22 C 0.7451(2) 1.2037(5) 0.1311(3)
H24 H 0.7878 1.1922 0.1712
H25 H 0.7203 1.2659 0.1538
H26 H 0.7508 1.2327 0.0764
C23 C 0.69592(15) 1.0213(3) 0.20117(18)
H27 H 0.7170 0.9467 0.2253
C24 C 0.64839(16) 1.0910(3) 0.24354(19)
C25 C 0.6842(2) 1.1928(5) 0.3091(3)
H28 H 0.7204 1.1539 0.3509
H29 H 0.6537 1.2289 0.3383
H30 H 0.7008 1.2591 0.2787
C26 C 0.59205(18) 1.1544(4) 0.1790(3)
C27 C 0.6182(2) 0.9962(4) 0.2963(2)
H31 H 0.6528 0.9432 0.3320
H32 H 0.5969 1.0425 0.3343
C28 C 0.58223(19) 0.7919(4) 0.2346(2)
C29 C 0.52798(16) 0.7250(3) 0.16966(19)
C30 C 0.48011(17) 0.7907(3) 0.1103(2)
H33 H 0.4803 0.8796 0.1109
C31 C 0.43157(17) 0.7264(4) 0.0496(2)
H34 H 0.3989 0.7705 0.0092
C32 C 0.43311(16) 0.5964(4) 0.0509(2)
C33 C 0.47970(19) 0.5276(4) 0.1094(2)
H35 H 0.4787 0.4388 0.1089
C34 C 0.52797(18) 0.5927(4) 0.1689(2)
H36 H 0.5607 0.5479 0.2087
loop_
_geom_bond_atom_site_label_1
_geom_bond_atom_site_label_2
_geom_bond_site_symmetry_1
_geom_bond_site_symmetry_2
N1 O5 1_555 1_555
O1 C1 1_555 1_555
O2 C9 1_555 1_555
O3 C10 1_555 1_555
O4 C11 1_555 1_555
O6 N1 1_555 1_555
C1 H1 1_555 1_555
C2 O1 1_555 1_555
H2 C2 1_555 1_555
C3 C2 1_555 1_555
C4 C3 1_555 1_555
H3 C4 1_555 1_555
H4 C4 1_555 1_555
H5 C4 1_555 1_555
C5 C3 1_555 1_555
H6 C5 1_555 1_555
H7 C5 1_555 1_555
H8 C5 1_555 1_555
C6 C3 1_555 1_555
H9 C6 1_555 1_555
C7 C6 1_555 1_555
C8 C7 1_555 1_555
H10 C8 1_555 1_555
H11 C8 1_555 1_555
H12 C8 1_555 1_555
C9 C1 1_555 1_555
C10 C7 1_555 1_555
H13 C10 1_555 1_555
H14 C10 1_555 1_555
C11 O3 1_555 1_555
C12 C11 1_555 1_555
C13 C12 1_555 1_555
H15 C13 1_555 1_555
C14 C13 1_555 1_555
H16 C14 1_555 1_555
C15 N1 1_555 1_555
C16 C15 1_555 1_555
H17 C16 1_555 1_555
C17 C12 1_555 1_555
H18 C17 1_555 1_555
N2 O11 1_555 1_555
O7 C18 1_555 1_555
O8 C26 1_555 1_555
O9 C27 1_555 1_555
O10 C28 1_555 1_555
O12 N2 1_555 1_555
C18 H19 1_555 1_555
C19 O7 1_555 1_555
H20 C19 1_555 1_555
C20 C19 1_555 1_555
C21 C20 1_555 1_555
H21 C21 1_555 1_555
H22 C21 1_555 1_555
H23 C21 1_555 1_555
C22 C20 1_555 1_555
H24 C22 1_555 1_555
H25 C22 1_555 1_555
H26 C22 1_555 1_555
C23 C20 1_555 1_555
H27 C23 1_555 1_555
C24 C23 1_555 1_555
C25 C24 1_555 1_555
H28 C25 1_555 1_555
H29 C25 1_555 1_555
H30 C25 1_555 1_555
C26 C18 1_555 1_555
C27 C24 1_555 1_555
H31 C27 1_555 1_555
H32 C27 1_555 1_555
C28 O9 1_555 1_555
C29 C28 1_555 1_555
C30 C29 1_555 1_555
H33 C30 1_555 1_555
C31 C30 1_555 1_555
H34 C31 1_555 1_555
C32 N2 1_555 1_555
C33 C32 1_555 1_555
H35 C33 1_555 1_555
C34 C29 1_555 1_555
H36 C34 1_555 1_555
C1 C2 1_555 1_555
C7 C9 1_555 1_555
C14 C15 1_555 1_555
C16 C17 1_555 1_555
C18 C19 1_555 1_555
C24 C26 1_555 1_555
C31 C32 1_555 1_555
C33 C34 1_555 1_555

#END
