
#######################################################################
#
#                 Cambridge Crystallographic Data Centre
#                                CCDC 
#
#######################################################################
#
# If this CIF has been generated from an entry in the Cambridge 
# Structural Database, then it will include bibliographic, chemical, 
# crystal, experimental, refinement or atomic coordinate data resulting 
# from the CCDC's data processing and validation procedures.
#
#######################################################################

data_OYARAI
_chemical_formula_moiety         'C28 H34 N2 O2 Si4'
_chemical_name_systematic        
(2,4-Dimethyl-2,4-diphenyl-1,3,2,4-diazadisiletidine-1,3-diyl)bis(methyl(phenyl)silanol)
_symmetry_cell_setting           triclinic
_symmetry_space_group_name_H-M   'P -1'
_symmetry_Int_Tables_number      2
_space_group_name_Hall           '-P 1'
loop_
_symmetry_equiv_pos_site_id
_symmetry_equiv_pos_as_xyz
1 x,y,z
2 -x,-y,-z
_cell_length_a                   9.512(3)
_cell_length_b                   9.789(3)
_cell_length_c                   16.040(5)
_cell_angle_alpha                85.190(7)
_cell_angle_beta                 83.570(7)
_cell_angle_gamma                87.680(6)
_cell_volume                     1478.18
_exptl_crystal_colour            colorless
_exptl_crystal_description       platelet
_cell_formula_units_Z            2
loop_
_atom_site_label
_atom_site_type_symbol
_atom_site_fract_x
_atom_site_fract_y
_atom_site_fract_z
Si1 Si 0.95735(9) 0.79248(8) 0.14275(5)
Si2 Si 0.87286(8) 0.99482(8) -0.00977(5)
O1 O 0.9343(3) 0.8581(3) 0.23382(14)
H1 H 1.0075 0.8927 0.2468
N1 N 0.9839(2) 0.9137(2) 0.05968(15)
C1 C 1.1116(4) 0.6693(4) 0.1396(3)
H2 H 1.1983 0.7189 0.1421
H3 H 1.1190 0.6232 0.0873
H4 H 1.0987 0.6009 0.1879
C2 C 0.7878(3) 0.7083(3) 0.13439(19)
C3 C 0.7790(4) 0.6082(3) 0.0781(2)
H5 H 0.8623 0.5788 0.0451
C4 C 0.6508(4) 0.5511(4) 0.0694(2)
H6 H 0.6472 0.4825 0.0313
C5 C 0.5297(4) 0.5931(4) 0.1156(2)
H7 H 0.4418 0.5549 0.1089
C6 C 0.5349(4) 0.6908(5) 0.1720(2)
H8 H 0.4509 0.7195 0.2045
C7 C 0.6629(4) 0.7474(4) 0.1815(2)
H9 H 0.6654 0.8142 0.2209
C8 C 0.7256(3) 1.1004(3) 0.0405(2)
H10 H 0.6700 1.1441 -0.0029
H11 H 0.7645 1.1712 0.0703
H12 H 0.6647 1.0417 0.0805
C9 C 0.8036(3) 0.8757(3) -0.07932(18)
C10 C 0.8981(3) 0.7979(3) -0.1314(2)
H13 H 0.9970 0.8078 -0.1312
C11 C 0.8511(4) 0.7076(3) -0.1829(2)
H14 H 0.9172 0.6565 -0.2179
C12 C 0.7064(4) 0.6916(3) -0.1834(2)
H15 H 0.6732 0.6291 -0.2183
C13 C 0.6123(4) 0.7666(4) -0.1331(2)
H16 H 0.5136 0.7560 -0.1335
C14 C 0.6593(3) 0.8576(3) -0.0818(2)
H17 H 0.5922 0.9088 -0.0475
Si1A Si 1.04265(9) 1.20752(8) -0.14275(5)
Si2A Si 1.12714(8) 1.00518(8) 0.00977(5)
O1A O 1.0657(3) 1.1419(3) -0.23382(14)
H1A H 0.9925 1.1073 -0.2468
N1A N 1.0161(2) 1.0863(2) -0.05968(15)
C1A C 0.8884(4) 1.3307(4) -0.1396(3)
H2A H 0.8017 1.2811 -0.1421
H3A H 0.8810 1.3768 -0.0873
H4A H 0.9013 1.3991 -0.1879
C2A C 1.2122(3) 1.2917(3) -0.13439(19)
C3A C 1.2210(4) 1.3918(3) -0.0781(2)
H5A H 1.1377 1.4212 -0.0451
C4A C 1.3492(4) 1.4489(4) -0.0694(2)
H6A H 1.3528 1.5175 -0.0313
C5A C 1.4703(4) 1.4069(4) -0.1156(2)
H7A H 1.5582 1.4451 -0.1089
C6A C 1.4651(4) 1.3092(5) -0.1720(2)
H8A H 1.5491 1.2805 -0.2045
C7A C 1.3371(4) 1.2526(4) -0.1815(2)
H9A H 1.3346 1.1858 -0.2209
C8A C 1.2744(3) 0.8996(3) -0.0405(2)
H10A H 1.3300 0.8559 0.0029
H11A H 1.2355 0.8288 -0.0703
H12A H 1.3353 0.9583 -0.0805
C9A C 1.1964(3) 1.1243(3) 0.07932(18)
C10A C 1.1019(3) 1.2021(3) 0.1314(2)
H13A H 1.0030 1.1922 0.1312
C11A C 1.1489(4) 1.2924(3) 0.1829(2)
H14A H 1.0828 1.3435 0.2179
C12A C 1.2936(4) 1.3084(3) 0.1834(2)
H15A H 1.3268 1.3709 0.2183
C13A C 1.3877(4) 1.2334(4) 0.1331(2)
H16A H 1.4864 1.2440 0.1335
C14A C 1.3407(3) 1.1424(3) 0.0818(2)
H17A H 1.4078 1.0912 0.0475
Si3 Si 0.23692(9) 0.95627(9) 0.37069(5)
Si4 Si -0.00954(9) 0.87326(8) 0.51614(5)
O2 O 0.1778(3) 0.9724(2) 0.27725(14)
H18 H 0.1834 1.0480 0.2483
N2 N 0.1003(3) 0.9805(2) 0.44697(16)
C15 C 0.3768(4) 1.0823(4) 0.3722(3)
H19 H 0.3370 1.1753 0.3620
H20 H 0.4540 1.0652 0.3281
H21 H 0.4132 1.0729 0.4272
C16 C 0.3078(3) 0.7762(3) 0.38143(19)
C17 C 0.2306(4) 0.6691(3) 0.3600(2)
H22 H 0.1396 0.6885 0.3420
C18 C 0.2833(4) 0.5344(4) 0.3642(2)
H23 H 0.2275 0.4626 0.3509
C19 C 0.4166(4) 0.5058(4) 0.3879(2)
H24 H 0.4536 0.4141 0.3901
C20 C 0.4965(4) 0.6098(4) 0.4084(3)
H25 H 0.5890 0.5899 0.4240
C21 C 0.4421(4) 0.7433(4) 0.4063(2)
H26 H 0.4970 0.8138 0.4221
C22 C -0.1217(4) 0.7601(3) 0.4660(2)
H27 H -0.0630 0.6848 0.4427
H28 H -0.1655 0.8133 0.4206
H29 H -0.1957 0.7226 0.5081
C23 C 0.0855(3) 0.7713(3) 0.5977(2)
C24 C 0.1564(4) 0.8393(4) 0.6529(2)
H30 H 0.1544 0.9367 0.6488
C25 C 0.2302(4) 0.7666(4) 0.7140(2)
H31 H 0.2783 0.8141 0.7510
C26 C 0.2322(4) 0.6246(4) 0.7200(2)
H32 H 0.2827 0.5742 0.7610
C27 C 0.1618(4) 0.5566(4) 0.6670(2)
H33 H 0.1624 0.4592 0.6721
C28 C 0.0896(4) 0.6284(3) 0.6062(2)
H34 H 0.0421 0.5795 0.5696
Si3A Si -0.23692(9) 1.04373(9) 0.62931(5)
Si4A Si 0.00954(9) 1.12674(8) 0.48386(5)
O2A O -0.1778(3) 1.0276(2) 0.72275(14)
H18A H -0.1834 0.9520 0.7517
N2A N -0.1003(3) 1.0195(2) 0.55303(16)
C15A C -0.3768(4) 0.9177(4) 0.6278(3)
H19A H -0.3370 0.8247 0.6380
H20A H -0.4540 0.9348 0.6719
H21A H -0.4132 0.9271 0.5728
C16A C -0.3078(3) 1.2238(3) 0.61857(19)
C17A C -0.2306(4) 1.3309(3) 0.6400(2)
H22A H -0.1396 1.3115 0.6580
C18A C -0.2833(4) 1.4656(4) 0.6358(2)
H23A H -0.2275 1.5374 0.6491
C19A C -0.4166(4) 1.4942(4) 0.6121(2)
H24A H -0.4536 1.5859 0.6099
C20A C -0.4965(4) 1.3902(4) 0.5916(3)
H25A H -0.5890 1.4101 0.5760
C21A C -0.4421(4) 1.2567(4) 0.5937(2)
H26A H -0.4970 1.1862 0.5779
C22A C 0.1217(4) 1.2399(3) 0.5340(2)
H27A H 0.0630 1.3152 0.5573
H28A H 0.1655 1.1867 0.5794
H29A H 0.1957 1.2774 0.4919
C23A C -0.0855(3) 1.2287(3) 0.4023(2)
C24A C -0.1564(4) 1.1607(4) 0.3471(2)
H30A H -0.1544 1.0633 0.3512
C25A C -0.2302(4) 1.2334(4) 0.2860(2)
H31A H -0.2783 1.1859 0.2490
C26A C -0.2322(4) 1.3754(4) 0.2800(2)
H32A H -0.2827 1.4258 0.2390
C27A C -0.1618(4) 1.4434(4) 0.3330(2)
H33A H -0.1624 1.5408 0.3279
C28A C -0.0896(4) 1.3716(3) 0.3938(2)
H34A H -0.0421 1.4205 0.4304
loop_
_geom_bond_atom_site_label_1
_geom_bond_atom_site_label_2
_geom_bond_site_symmetry_1
_geom_bond_site_symmetry_2
Si1 O1 1_555 1_555
Si2 N1 1_555 1_555
O1 H1 1_555 1_555
N1 Si1 1_555 1_555
C1 Si1 1_555 1_555
H2 C1 1_555 1_555
H3 C1 1_555 1_555
H4 C1 1_555 1_555
C2 Si1 1_555 1_555
C3 C2 1_555 1_555
H5 C3 1_555 1_555
C4 C3 1_555 1_555
H6 C4 1_555 1_555
C5 C4 1_555 1_555
H7 C5 1_555 1_555
C6 C5 1_555 1_555
H8 C6 1_555 1_555
C7 C2 1_555 1_555
H9 C7 1_555 1_555
C8 Si2 1_555 1_555
H10 C8 1_555 1_555
H11 C8 1_555 1_555
H12 C8 1_555 1_555
C9 Si2 1_555 1_555
C10 C9 1_555 1_555
H13 C10 1_555 1_555
C11 C10 1_555 1_555
H14 C11 1_555 1_555
C12 C11 1_555 1_555
H15 C12 1_555 1_555
C13 C12 1_555 1_555
H16 C13 1_555 1_555
C14 C9 1_555 1_555
H17 C14 1_555 1_555
Si3 O2 1_555 1_555
Si4 N2 1_555 1_555
O2 H18 1_555 1_555
N2 Si3 1_555 1_555
C15 Si3 1_555 1_555
H19 C15 1_555 1_555
H20 C15 1_555 1_555
H21 C15 1_555 1_555
C16 Si3 1_555 1_555
C17 C16 1_555 1_555
H22 C17 1_555 1_555
C18 C17 1_555 1_555
H23 C18 1_555 1_555
C19 C18 1_555 1_555
H24 C19 1_555 1_555
C20 C19 1_555 1_555
H25 C20 1_555 1_555
C21 C16 1_555 1_555
H26 C21 1_555 1_555
C22 Si4 1_555 1_555
H27 C22 1_555 1_555
H28 C22 1_555 1_555
H29 C22 1_555 1_555
C23 Si4 1_555 1_555
C24 C23 1_555 1_555
H30 C24 1_555 1_555
C25 C24 1_555 1_555
H31 C25 1_555 1_555
C26 C25 1_555 1_555
H32 C26 1_555 1_555
C27 C26 1_555 1_555
H33 C27 1_555 1_555
C28 C23 1_555 1_555
H34 C28 1_555 1_555
Si1A O1A 1_555 1_555
Si2A N1 1_555 1_555
O1A H1A 1_555 1_555
N1A Si2 1_555 1_555
C1A Si1A 1_555 1_555
H2A C1A 1_555 1_555
H3A C1A 1_555 1_555
H4A C1A 1_555 1_555
C2A Si1A 1_555 1_555
C3A C2A 1_555 1_555
H5A C3A 1_555 1_555
C4A C3A 1_555 1_555
H6A C4A 1_555 1_555
C5A C4A 1_555 1_555
H7A C5A 1_555 1_555
C6A C5A 1_555 1_555
H8A C6A 1_555 1_555
C7A C2A 1_555 1_555
H9A C7A 1_555 1_555
C8A Si2A 1_555 1_555
H10A C8A 1_555 1_555
H11A C8A 1_555 1_555
H12A C8A 1_555 1_555
C9A Si2A 1_555 1_555
C10A C9A 1_555 1_555
H13A C10A 1_555 1_555
C11A C10A 1_555 1_555
H14A C11A 1_555 1_555
C12A C11A 1_555 1_555
H15A C12A 1_555 1_555
C13A C12A 1_555 1_555
H16A C13A 1_555 1_555
C14A C9A 1_555 1_555
H17A C14A 1_555 1_555
Si3A O2A 1_555 1_555
Si4A N2 1_555 1_555
O2A H18A 1_555 1_555
N2A Si4 1_555 1_555
C15A Si3A 1_555 1_555
H19A C15A 1_555 1_555
H20A C15A 1_555 1_555
H21A C15A 1_555 1_555
C16A Si3A 1_555 1_555
C17A C16A 1_555 1_555
H22A C17A 1_555 1_555
C18A C17A 1_555 1_555
H23A C18A 1_555 1_555
C19A C18A 1_555 1_555
H24A C19A 1_555 1_555
C20A C19A 1_555 1_555
H25A C20A 1_555 1_555
C21A C16A 1_555 1_555
H26A C21A 1_555 1_555
C22A Si4A 1_555 1_555
H27A C22A 1_555 1_555
H28A C22A 1_555 1_555
H29A C22A 1_555 1_555
C23A Si4A 1_555 1_555
C24A C23A 1_555 1_555
H30A C24A 1_555 1_555
C25A C24A 1_555 1_555
H31A C25A 1_555 1_555
C26A C25A 1_555 1_555
H32A C26A 1_555 1_555
C27A C26A 1_555 1_555
H33A C27A 1_555 1_555
C28A C23A 1_555 1_555
H34A C28A 1_555 1_555
C6 C7 1_555 1_555
C13 C14 1_555 1_555
C20 C21 1_555 1_555
C27 C28 1_555 1_555
Si1A N1A 1_555 1_555
Si2A N1A 1_555 1_555
C6A C7A 1_555 1_555
C13A C14A 1_555 1_555
Si3A N2A 1_555 1_555
Si4A N2A 1_555 1_555
C20A C21A 1_555 1_555
C27A C28A 1_555 1_555

#END
