
#######################################################################
#
#                 Cambridge Crystallographic Data Centre
#                                CCDC 
#
#######################################################################
#
# If this CIF has been generated from an entry in the Cambridge 
# Structural Database, then it will include bibliographic, chemical, 
# crystal, experimental, refinement or atomic coordinate data resulting 
# from the CCDC's data processing and validation procedures.
#
#######################################################################

data_OYAWUI
_chemical_formula_moiety         '2(C56 H32 N4 O4),C16 H18 N2 2+,2(F6 P1 1-)'
_chemical_name_systematic        
"[3]-(4,4'-(buta-1,3-diene-1,4-diyl)bis(1-methylpyridin-1-ium))-bis(1,5(2,7)-di-1,8-naphthyridina-3,7(2,7)-ditriptycena-2,4,6,8-tetraoxacyclooctaphane)-pseudorotaxane bis(hexafluorophosphate)"
_symmetry_cell_setting           rhombohedral
_symmetry_space_group_name_H-M   'R -3'
_symmetry_Int_Tables_number      148
_space_group_name_Hall           '-R 3'
loop_
_symmetry_equiv_pos_site_id
_symmetry_equiv_pos_as_xyz
1 x,y,z
2 -y,x-y,z
3 -x+y,-x,z
4 2/3+x,1/3+y,1/3+z
5 2/3-y,1/3+x-y,1/3+z
6 2/3-x+y,1/3-x,1/3+z
7 1/3+x,2/3+y,2/3+z
8 1/3-y,2/3+x-y,2/3+z
9 1/3-x+y,2/3-x,2/3+z
10 -x,-y,-z
11 y,-x+y,-z
12 x-y,x,-z
13 1/3-x,2/3-y,2/3-z
14 1/3+y,2/3-x+y,2/3-z
15 1/3+x-y,2/3+x,2/3-z
16 2/3-x,1/3-y,1/3-z
17 2/3+y,1/3-x+y,1/3-z
18 2/3+x-y,1/3+x,1/3-z
_cell_length_a                   31.334(4)
_cell_length_b                   31.334(4)
_cell_length_c                   27.064(4)
_cell_angle_alpha                90
_cell_angle_beta                 90
_cell_angle_gamma                120
_cell_volume                     23012
_exptl_crystal_colour            yellow
_exptl_crystal_description       block
_cell_formula_units_Z            9
loop_
_atom_site_label
_atom_site_type_symbol
_atom_site_fract_x
_atom_site_fract_y
_atom_site_fract_z
O1 O 0.15781(10) 0.33455(10) 0.39467(9)
O2 O 0.20297(8) 0.29157(9) 0.63520(8)
O3 O 0.49457(9) 0.55596(8) 0.67934(9)
O4 O 0.37475(10) 0.63153(9) 0.51548(9)
N1 N 0.17308(10) 0.32319(11) 0.47539(10)
N2 N 0.18848(10) 0.30846(10) 0.55494(10)
N3 N 0.45406(10) 0.57953(9) 0.62406(9)
N4 N 0.41409(10) 0.60524(10) 0.56997(10)
C1 C 0.14234(13) 0.31063(14) 0.43869(12)
C2 C 0.09296(13) 0.27261(16) 0.43859(13)
H1 H 0.0738 0.2646 0.4101
C3 C 0.07438(14) 0.24818(15) 0.48115(14)
H2 H 0.0415 0.2234 0.4829
C4 C 0.10496(12) 0.26033(14) 0.52306(12)
C5 C 0.08887(13) 0.23782(14) 0.56968(14)
H3 H 0.0558 0.2149 0.5749
C6 C 0.12195(13) 0.24974(13) 0.60689(13)
H4 H 0.1122 0.2358 0.6381
C7 C 0.17141(12) 0.28401(13) 0.59642(12)
C8 C 0.15464(12) 0.29708(12) 0.51800(11)
C9 C 0.25299(12) 0.30912(12) 0.62794(12)
C10 C 0.28336(12) 0.33756(12) 0.66725(11)
H5 H 0.2707 0.3476 0.6929
C11 C 0.33209(12) 0.35011(12) 0.66684(11)
C12 C 0.35146(12) 0.33589(12) 0.62769(11)
C13 C 0.32085(12) 0.30865(12) 0.58898(11)
H6 H 0.3337 0.2995 0.5626
C14 C 0.27152(13) 0.29496(13) 0.58923(11)
H7 H 0.2511 0.2763 0.5634
C15 C 0.37031(12) 0.37990(11) 0.70646(11)
H8 H 0.3568 0.3898 0.7340
C16 C 0.39138(11) 0.34713(12) 0.72241(11)
C17 C 0.39194(12) 0.33115(12) 0.76972(12)
H9 H 0.3788 0.3403 0.7957
C18 C 0.41227(14) 0.30127(13) 0.77831(13)
H10 H 0.4120 0.2898 0.8101
C19 C 0.43277(14) 0.28865(13) 0.74031(13)
H11 H 0.4468 0.2691 0.7465
C20 C 0.43262(12) 0.30512(12) 0.69213(13)
H12 H 0.4469 0.2970 0.6664
C21 C 0.41109(12) 0.33357(11) 0.68337(11)
C22 C 0.40614(11) 0.35354(12) 0.63346(11)
H13 H 0.4196 0.3436 0.6060
C23 C 0.43115(11) 0.40892(12) 0.63997(12)
C24 C 0.46925(12) 0.44431(13) 0.61197(11)
H14 H 0.4814 0.4350 0.5852
C25 C 0.48923(13) 0.49350(13) 0.62380(12)
H15 H 0.5154 0.5174 0.6055
C26 C 0.47036(13) 0.50694(12) 0.66263(12)
C27 C 0.43133(12) 0.47250(12) 0.69128(12)
H16 H 0.4188 0.4823 0.7173
C28 C 0.41192(12) 0.42310(12) 0.67970(11)
C29 C 0.48575(11) 0.59041(11) 0.65976(11)
C30 C 0.51287(12) 0.63694(12) 0.68279(12)
H17 H 0.5366 0.6426 0.7065
C31 C 0.50357(12) 0.67275(12) 0.66961(12)
H18 H 0.5198 0.7033 0.6851
C32 C 0.46888(12) 0.66348(12) 0.63183(11)
C33 C 0.45546(14) 0.69775(13) 0.61540(13)
H19 H 0.4685 0.7282 0.6309
C34 C 0.42334(14) 0.68647(13) 0.57675(13)
H20 H 0.4139 0.7085 0.5654
C35 C 0.40541(13) 0.63965(13) 0.55519(13)
C36 C 0.44585(12) 0.61657(11) 0.60866(11)
C37 C 0.36939(13) 0.59918(13) 0.47776(12)
C38 C 0.32305(14) 0.57435(14) 0.45614(13)
H21 H 0.2973 0.5779 0.4687
C39 C 0.31559(13) 0.54437(14) 0.41581(13)
C40 C 0.35400(13) 0.53867(14) 0.39756(12)
C41 C 0.40054(14) 0.56439(14) 0.41898(13)
H22 H 0.4264 0.5613 0.4062
C42 C 0.40817(14) 0.59474(14) 0.45952(13)
H23 H 0.4391 0.6119 0.4742
C43 C 0.26795(14) 0.51573(15) 0.38652(14)
H24 H 0.2410 0.5199 0.3994
C44 C 0.28224(17) 0.53425(16) 0.33310(16)
C45 C 0.2607(2) 0.55503(19) 0.3042(2)
H25 H 0.2354 0.5593 0.3165
C46 C 0.2783(3) 0.5693(2) 0.2559(2)
H26 H 0.2649 0.5838 0.2360
C47 C 0.3149(3) 0.5622(2) 0.2376(2)
H27 H 0.3255 0.5713 0.2052
C48 C 0.3364(2) 0.54164(19) 0.26673(16)
H28 H 0.3613 0.5370 0.2540
C49 C 0.32044(16) 0.52803(16) 0.31482(14)
C50 C 0.33944(14) 0.50550(14) 0.35247(13)
H29 H 0.3665 0.5015 0.3397
C51 C 0.25574(13) 0.46267(14) 0.38546(12)
C52 C 0.21115(13) 0.42197(14) 0.39688(12)
H30 H 0.1853 0.4254 0.4090
C53 C 0.20585(14) 0.37599(14) 0.38986(12)
C54 C 0.24300(14) 0.36902(15) 0.37390(13)
H31 H 0.2382 0.3374 0.3707
C55 C 0.28810(14) 0.40963(14) 0.36247(12)
H32 H 0.3140 0.4055 0.3516
C56 C 0.29455(13) 0.45661(15) 0.36735(11)
N5 N 0.55566(11) 0.84860(10) 0.51755(10)
C57 C 0.56098(16) 0.80533(14) 0.52608(14)
H33 H 0.5875 0.8077 0.5062
H34 H 0.5309 0.7761 0.5173
H35 H 0.5680 0.8038 0.5604
C58 C 0.59297(13) 0.88928(14) 0.49700(13)
H36 H 0.6219 0.8898 0.4880
C59 C 0.58817(13) 0.93003(14) 0.48944(14)
H37 H 0.6139 0.9578 0.4747
C60 C 0.54556(12) 0.93086(12) 0.50336(12)
C61 C 0.50796(12) 0.88774(13) 0.52485(12)
H38 H 0.4789 0.8864 0.5348
C62 C 0.51376(13) 0.84781(13) 0.53121(13)
H39 H 0.4883 0.8193 0.5453
C63 C 0.54136(12) 0.97435(13) 0.49468(12)
H40 H 0.5688 1.0020 0.4819
C64 C 0.50105(13) 0.97784(12) 0.50363(12)
H41 H 0.4730 0.9500 0.5152
N5I N 0.44434(11) 1.15140(10) 0.48245(10)
C57I C 0.43902(16) 1.19467(14) 0.47392(14)
H33I H 0.4125 1.1923 0.4938
H34I H 0.4691 1.2239 0.4827
H35I H 0.4320 1.1962 0.4396
C58I C 0.40703(13) 1.11072(14) 0.50300(13)
H36I H 0.3781 1.1102 0.5120
C59I C 0.41183(13) 1.06997(14) 0.51056(14)
H37I H 0.3861 1.0422 0.5253
C60I C 0.45444(12) 1.06914(12) 0.49664(12)
C61I C 0.49204(12) 1.11226(13) 0.47515(12)
H38I H 0.5211 1.1136 0.4652
C62I C 0.48624(13) 1.15219(13) 0.46879(13)
H39I H 0.5117 1.1807 0.4547
C63I C 0.45864(12) 1.02565(13) 0.50532(12)
H40I H 0.4312 0.9980 0.5181
C64I C 0.49895(13) 1.02216(12) 0.49637(12)
H41I H 0.5270 1.0500 0.4848
P1 P 0.55820(4) 0.67420(4) 0.50997(3)
F1 F 0.60215(10) 0.66231(10) 0.50416(10)
F2 F 0.59655(10) 0.72729(10) 0.52960(13)
F3 F 0.56719(18) 0.69572(14) 0.45630(10)
F4 F 0.51478(9) 0.68616(9) 0.51659(11)
F5 F 0.52072(12) 0.62107(10) 0.49013(14)
F6 F 0.54996(10) 0.65347(12) 0.56388(9)
loop_
_geom_bond_atom_site_label_1
_geom_bond_atom_site_label_2
_geom_bond_site_symmetry_1
_geom_bond_site_symmetry_2
O1 C1 1_555 1_555
O2 C7 1_555 1_555
O3 C26 1_555 1_555
O4 C35 1_555 1_555
N1 C1 1_555 1_555
N2 C7 1_555 1_555
N3 C29 1_555 1_555
N4 C35 1_555 1_555
C1 C2 1_555 1_555
C2 H1 1_555 1_555
C3 C2 1_555 1_555
H2 C3 1_555 1_555
C4 C3 1_555 1_555
C5 C4 1_555 1_555
H3 C5 1_555 1_555
C6 C5 1_555 1_555
H4 C6 1_555 1_555
C7 C6 1_555 1_555
C8 N1 1_555 1_555
C9 O2 1_555 1_555
C10 C9 1_555 1_555
H5 C10 1_555 1_555
C11 C10 1_555 1_555
C12 C11 1_555 1_555
C13 C12 1_555 1_555
H6 C13 1_555 1_555
C14 C9 1_555 1_555
H7 C14 1_555 1_555
C15 C11 1_555 1_555
H8 C15 1_555 1_555
C16 C15 1_555 1_555
C17 C16 1_555 1_555
H9 C17 1_555 1_555
C18 C17 1_555 1_555
H10 C18 1_555 1_555
C19 C18 1_555 1_555
H11 C19 1_555 1_555
C20 C19 1_555 1_555
H12 C20 1_555 1_555
C21 C16 1_555 1_555
C22 C12 1_555 1_555
H13 C22 1_555 1_555
C23 C22 1_555 1_555
C24 C23 1_555 1_555
H14 C24 1_555 1_555
C25 C24 1_555 1_555
H15 C25 1_555 1_555
C26 C25 1_555 1_555
C27 C26 1_555 1_555
H16 C27 1_555 1_555
C28 C15 1_555 1_555
C29 O3 1_555 1_555
C30 C29 1_555 1_555
H17 C30 1_555 1_555
C31 C30 1_555 1_555
H18 C31 1_555 1_555
C32 C31 1_555 1_555
C33 C32 1_555 1_555
H19 C33 1_555 1_555
C34 C33 1_555 1_555
H20 C34 1_555 1_555
C35 C34 1_555 1_555
C36 N3 1_555 1_555
C37 O4 1_555 1_555
C38 C37 1_555 1_555
H21 C38 1_555 1_555
C39 C38 1_555 1_555
C40 C39 1_555 1_555
C41 C40 1_555 1_555
H22 C41 1_555 1_555
C42 C37 1_555 1_555
H23 C42 1_555 1_555
C43 C39 1_555 1_555
H24 C43 1_555 1_555
C44 C43 1_555 1_555
C45 C44 1_555 1_555
H25 C45 1_555 1_555
C46 C45 1_555 1_555
H26 C46 1_555 1_555
C47 C46 1_555 1_555
H27 C47 1_555 1_555
C48 C47 1_555 1_555
H28 C48 1_555 1_555
C49 C44 1_555 1_555
C50 C40 1_555 1_555
H29 C50 1_555 1_555
C51 C43 1_555 1_555
C52 C51 1_555 1_555
H30 C52 1_555 1_555
C53 O1 1_555 1_555
C54 C53 1_555 1_555
H31 C54 1_555 1_555
C55 C54 1_555 1_555
H32 C55 1_555 1_555
C56 C50 1_555 1_555
N5 C57 1_555 1_555
C57 H33 1_555 1_555
H34 C57 1_555 1_555
H35 C57 1_555 1_555
C58 N5 1_555 1_555
H36 C58 1_555 1_555
C59 C58 1_555 1_555
H37 C59 1_555 1_555
C60 C59 1_555 1_555
C61 C60 1_555 1_555
H38 C61 1_555 1_555
C62 N5 1_555 1_555
H39 C62 1_555 1_555
C63 C60 1_555 1_555
H40 C63 1_555 1_555
C64 C63 1_555 1_555
H41 C64 1_555 1_555
P1 F1 1_555 1_555
F2 P1 1_555 1_555
F3 P1 1_555 1_555
F4 P1 1_555 1_555
F5 P1 1_555 1_555
F6 P1 1_555 1_555
N5I C57I 1_555 1_555
C57I H33I 1_555 1_555
H34I C57I 1_555 1_555
H35I C57I 1_555 1_555
C58I N5I 1_555 1_555
H36I C58I 1_555 1_555
C59I C58I 1_555 1_555
H37I C59I 1_555 1_555
C60I C59I 1_555 1_555
C61I C60I 1_555 1_555
H38I C61I 1_555 1_555
C62I N5I 1_555 1_555
H39I C62I 1_555 1_555
C63I C60I 1_555 1_555
H40I C63I 1_555 1_555
C64I C64 1_555 1_555
H41I C64I 1_555 1_555
N2 C8 1_555 1_555
N4 C36 1_555 1_555
C4 C8 1_555 1_555
C13 C14 1_555 1_555
C20 C21 1_555 1_555
C21 C22 1_555 1_555
C23 C28 1_555 1_555
C27 C28 1_555 1_555
C32 C36 1_555 1_555
C41 C42 1_555 1_555
C48 C49 1_555 1_555
C49 C50 1_555 1_555
C51 C56 1_555 1_555
C52 C53 1_555 1_555
C55 C56 1_555 1_555
C61 C62 1_555 1_555
C61I C62I 1_555 1_555
C63I C64I 1_555 1_555

#END
