
#######################################################################
#
#                 Cambridge Crystallographic Data Centre
#                                CCDC 
#
#######################################################################
#
# If this CIF has been generated from an entry in the Cambridge 
# Structural Database, then it will include bibliographic, chemical, 
# crystal, experimental, refinement or atomic coordinate data resulting 
# from the CCDC's data processing and validation procedures.
#
#######################################################################

data_OYEBEB
_chemical_formula_moiety         'C15 H14 N2 O2'
_chemical_name_systematic        
3a,10-dimethyl-3a,4,5,10-tetrahydro-2H-[1,3]oxazolo[4,5-a]carbazol-2-one
_symmetry_cell_setting           monoclinic
_symmetry_space_group_name_H-M   'P 21/n'
_symmetry_Int_Tables_number      14
_space_group_name_Hall           '-P 2yn'
loop_
_symmetry_equiv_pos_site_id
_symmetry_equiv_pos_as_xyz
1 x,y,z
2 1/2-x,1/2+y,1/2-z
3 -x,-y,-z
4 1/2+x,1/2-y,1/2+z
_cell_length_a                   8.5448(17)
_cell_length_b                   17.593(4)
_cell_length_c                   9.2448(18)
_cell_angle_alpha                90
_cell_angle_beta                 115.74(3)
_cell_angle_gamma                90
_cell_volume                     1251.86
_exptl_crystal_colour            colorless
_exptl_crystal_description       block
_cell_formula_units_Z            4
loop_
_atom_site_label
_atom_site_type_symbol
_atom_site_fract_x
_atom_site_fract_y
_atom_site_fract_z
C1 C 0.7494(2) 0.17413(10) 0.2132(2)
H1 H 0.7747 0.2255 0.1955
H2 H 0.7172 0.1729 0.3006
H3 H 0.6552 0.1551 0.1177
C2 C 1.0703(2) 0.15258(9) 0.30639(16)
C3 C 1.1323(2) 0.22689(10) 0.32408(19)
H4 H 1.0573 0.2683 0.2961
C4 C 1.3090(3) 0.23641(11) 0.3846(2)
H5 H 1.3540 0.2854 0.3985
C5 C 1.4235(2) 0.17463(11) 0.4258(2)
H6 H 1.5423 0.1835 0.4667
C6 C 1.3637(2) 0.10169(11) 0.4072(2)
H7 H 1.4406 0.0610 0.4342
C7 C 1.1829(2) 0.08901(9) 0.34625(17)
C8 C 1.07803(19) 0.02286(9) 0.31197(17)
C9 C 1.1274(2) -0.05963(10) 0.3367(2)
H8 H 1.2238 -0.0662 0.4418
H9 H 1.1659 -0.0755 0.2569
C10 C 0.9763(2) -0.11044(10) 0.32408(18)
H10 H 1.0006 -0.1628 0.3078
H11 H 0.9638 -0.1078 0.4233
C11 C 0.8082(2) -0.08481(9) 0.18453(18)
C12 C 0.76892(19) -0.00446(9) 0.21140(16)
C13 C 0.90803(19) 0.04838(8) 0.25329(16)
C14 C 0.5406(2) -0.06848(10) 0.17820(19)
C15 C 0.8078(2) -0.09615(10) 0.02086(19)
H12 H 0.8141 -0.1495 0.0018
H13 H 0.9062 -0.0707 0.0189
H14 H 0.7029 -0.0754 -0.0612
N1 N 0.90229(16) 0.12703(7) 0.25222(14)
N2 N 0.61367(17) 0.00490(8) 0.20046(16)
O1 O 0.39652(17) -0.08417(8) 0.15899(17)
O2 O 0.65657(15) -0.12300(7) 0.18224(14)
loop_
_geom_bond_atom_site_label_1
_geom_bond_atom_site_label_2
_geom_bond_site_symmetry_1
_geom_bond_site_symmetry_2
C1 H1 1_555 1_555
H2 C1 1_555 1_555
H3 C1 1_555 1_555
C2 C3 1_555 1_555
C3 H4 1_555 1_555
C4 C3 1_555 1_555
H5 C4 1_555 1_555
C5 C4 1_555 1_555
H6 C5 1_555 1_555
C6 C5 1_555 1_555
H7 C6 1_555 1_555
C7 C2 1_555 1_555
C8 C7 1_555 1_555
C9 C8 1_555 1_555
H8 C9 1_555 1_555
H9 C9 1_555 1_555
C10 C9 1_555 1_555
H10 C10 1_555 1_555
H11 C10 1_555 1_555
C11 C10 1_555 1_555
C12 C11 1_555 1_555
C13 C8 1_555 1_555
C14 N2 1_555 1_555
C15 C11 1_555 1_555
H12 C15 1_555 1_555
H13 C15 1_555 1_555
H14 C15 1_555 1_555
N1 C1 1_555 1_555
N2 C12 1_555 1_555
O1 C14 1_555 1_555
O2 C11 1_555 1_555
C2 N1 1_555 1_555
C6 C7 1_555 1_555
C12 C13 1_555 1_555
C13 N1 1_555 1_555
C14 O2 1_555 1_555

#END
