
#######################################################################
#
#                 Cambridge Crystallographic Data Centre
#                                CCDC 
#
#######################################################################
#
# If this CIF has been generated from an entry in the Cambridge 
# Structural Database, then it will include bibliographic, chemical, 
# crystal, experimental, refinement or atomic coordinate data resulting 
# from the CCDC's data processing and validation procedures.
#
#######################################################################

data_OYEDAZ
_chemical_formula_moiety         'C13 H13 Br1 N2'
_chemical_name_systematic        
2-(1-aminoethylidene)-3-(4-bromophenyl)pent-4-enenitrile
_symmetry_cell_setting           orthorhombic
_symmetry_space_group_name_H-M   'P 21 21 21'
_symmetry_Int_Tables_number      19
_space_group_name_Hall           'P 2ac 2ab'
loop_
_symmetry_equiv_pos_site_id
_symmetry_equiv_pos_as_xyz
1 x,y,z
2 1/2-x,-y,1/2+z
3 -x,1/2+y,1/2-z
4 1/2+x,1/2-y,-z
_cell_length_a                   7.3714(13)
_cell_length_b                   10.4238(19)
_cell_length_c                   16.643(3)
_cell_angle_alpha                90
_cell_angle_beta                 90
_cell_angle_gamma                90
_cell_volume                     1278.81
_exptl_crystal_colour            colorless
_exptl_crystal_description       prismatic
_cell_formula_units_Z            4
loop_
_atom_site_label
_atom_site_type_symbol
_atom_site_fract_x
_atom_site_fract_y
_atom_site_fract_z
Br1 Br 0.69417(6) 0.94736(5) 0.88303(4)
N1 N 0.2889(4) 0.3893(4) 0.8892(3)
N2 N -0.3340(5) 0.4980(4) 0.8858(3)
C1 C -0.1304(7) 0.5666(5) 0.7054(3)
H1 H -0.1246 0.4811 0.7212
H2 H -0.1691 0.5876 0.6539
C2 C -0.0844(5) 0.6563(4) 0.7552(2)
H3 H -0.0930 0.7399 0.7359
C3 C -0.0183(5) 0.6419(4) 0.8411(2)
H4 H -0.1059 0.6879 0.8747
C4 C -0.0153(5) 0.5042(3) 0.8719(3)
C5 C -0.1708(5) 0.4429(4) 0.8941(2)
C6 C -0.1711(7) 0.3134(4) 0.9323(3)
H5 H -0.2937 0.2880 0.9434
H6 H -0.1036 0.3165 0.9816
H7 H -0.1161 0.2525 0.8966
C7 C 0.1528(5) 0.4407(4) 0.8820(2)
C8 C 0.1631(5) 0.7114(4) 0.8516(2)
C9 C 0.2941(6) 0.7101(4) 0.7932(2)
H8 H 0.2759 0.6613 0.7471
C10 C 0.4537(5) 0.7802(4) 0.8013(2)
H9 H 0.5411 0.7802 0.7610
C11 C 0.4781(5) 0.8488(3) 0.8702(3)
C12 C 0.3521(6) 0.8504(4) 0.9301(2)
H10 H 0.3728 0.8973 0.9767
C13 C 0.1935(6) 0.7818(4) 0.9209(2)
H11 H 0.1065 0.7828 0.9614
H12 H -0.425(8) 0.460(5) 0.899(2)
H13 H -0.346(7) 0.561(4) 0.857(2)
loop_
_geom_bond_atom_site_label_1
_geom_bond_atom_site_label_2
_geom_bond_site_symmetry_1
_geom_bond_site_symmetry_2
Br1 C11 1_555 1_555
N1 C7 1_555 1_555
N2 C5 1_555 1_555
C1 H1 1_555 1_555
H2 C1 1_555 1_555
C2 C1 1_555 1_555
H3 C2 1_555 1_555
C3 C2 1_555 1_555
H4 C3 1_555 1_555
C4 C3 1_555 1_555
C5 C4 1_555 1_555
C6 C5 1_555 1_555
H5 C6 1_555 1_555
H6 C6 1_555 1_555
H7 C6 1_555 1_555
C7 C4 1_555 1_555
C8 C3 1_555 1_555
C9 C8 1_555 1_555
H8 C9 1_555 1_555
C10 C9 1_555 1_555
H9 C10 1_555 1_555
C11 C10 1_555 1_555
C12 C11 1_555 1_555
H10 C12 1_555 1_555
C13 C8 1_555 1_555
H11 C13 1_555 1_555
H12 N2 1_555 1_555
H13 N2 1_555 1_555
C12 C13 1_555 1_555

#END
