
#######################################################################
#
#                 Cambridge Crystallographic Data Centre
#                                CCDC 
#
#######################################################################
#
# If this CIF has been generated from an entry in the Cambridge 
# Structural Database, then it will include bibliographic, chemical, 
# crystal, experimental, refinement or atomic coordinate data resulting 
# from the CCDC's data processing and validation procedures.
#
#######################################################################

data_OYEFAB
_chemical_compound_source        'club moss Phlegmariurus henryi'
_chemical_name_common            (2S,4R)-Dihydroxyfawcettimine
_chemical_formula_moiety         'C16 H25 N1 O4,C1 H4 O1'
_chemical_name_systematic        
'2,9,11-trihydroxy-4-methyl-13-azatetracyclo[7.7.0.0^1,6^.0^2,13^]hexadecan-8-one methanol solvate'
_symmetry_cell_setting           monoclinic
_symmetry_space_group_name_H-M   'P 21'
_symmetry_Int_Tables_number      4
_space_group_name_Hall           'P 2yb'
loop_
_symmetry_equiv_pos_site_id
_symmetry_equiv_pos_as_xyz
1 x,y,z
2 -x,1/2+y,-z
_cell_length_a                   9.9283(4)
_cell_length_b                   7.6972(4)
_cell_length_c                   11.4894(5)
_cell_angle_alpha                90
_cell_angle_beta                 107.239(2)
_cell_angle_gamma                90
_cell_volume                     838.578
_exptl_crystal_colour            yellow
_exptl_crystal_description       prism
_chemical_melting_point          '201-205 deg.C'
_cell_formula_units_Z            2
loop_
_atom_site_label
_atom_site_type_symbol
_atom_site_fract_x
_atom_site_fract_y
_atom_site_fract_z
O1 O 0.9026(2) 0.8753(3) 0.53300(18)
H1 H 0.9816 0.8260 0.5565
O2 O 0.68501(19) 0.3705(3) 0.50860(16)
O3 O 0.54924(18) 0.6804(3) 0.61368(15)
H2 H 0.4870 0.7542 0.5814
O4 O 0.88629(18) 0.3692(3) 0.77320(16)
H3 H 0.9176 0.3124 0.7244
N1 N 0.6880(2) 0.8842(3) 0.7464(2)
C1 C 0.8033(3) 0.7834(4) 0.5806(3)
H4 H 0.7243 0.7391 0.5110
C2 C 0.7470(3) 0.9254(4) 0.6465(3)
H5 H 0.8250 1.0087 0.6791
H6 H 0.6729 0.9883 0.5838
C3 C 0.6100(3) 0.7216(4) 0.7382(2)
C4 C 0.4916(3) 0.7453(4) 0.7975(2)
H7 H 0.5339 0.7756 0.8845
H8 H 0.4311 0.8436 0.7577
C5 C 0.4004(3) 0.5843(4) 0.7888(2)
H9 H 0.3572 0.5547 0.7008
C6 C 0.2820(3) 0.6196(4) 0.8462(3)
H10 H 0.2219 0.5164 0.8374
H11 H 0.2253 0.7183 0.8049
H12 H 0.3230 0.6465 0.9328
C7 C 0.8768(3) 0.6301(4) 0.6569(2)
H13 H 0.9241 0.5629 0.6068
H14 H 0.9520 0.6774 0.7269
C8 C 0.7915(3) 0.5027(4) 0.7074(2)
C9 C 0.7075(3) 0.5650(4) 0.7951(2)
C10 C 0.7773(3) 0.9272(4) 0.8698(3)
H15 H 0.7156 0.9541 0.9211
H16 H 0.8318 1.0334 0.8653
C11 C 0.8797(3) 0.7847(4) 0.9314(3)
H17 H 0.9247 0.8155 1.0179
H18 H 0.9547 0.7737 0.8912
C12 C 0.8021(3) 0.6122(4) 0.9238(2)
H19 H 0.7430 0.6165 0.9796
H20 H 0.8725 0.5186 0.9527
C13 C 0.4932(3) 0.4336(4) 0.8513(2)
H21 H 0.4348 0.3272 0.8414
H22 H 0.5302 0.4586 0.9396
C14 C 0.6181(3) 0.3993(4) 0.8005(2)
H23 H 0.6820 0.3140 0.8560
C15 C 0.5765(3) 0.3224(4) 0.6715(2)
H24 H 0.5831 0.1940 0.6747
H25 H 0.4789 0.3557 0.6258
C16 C 0.6804(3) 0.3977(4) 0.6118(2)
O5 O 0.0304(2) 0.1693(3) 0.63397(17)
H26 H -0.0207 0.0860 0.5997
C17 C 0.1561(3) 0.1038(5) 0.7175(3)
H27 H 0.2221 0.1997 0.7477
H28 H 0.1992 0.0184 0.6763
H29 H 0.1334 0.0482 0.7861
loop_
_geom_bond_atom_site_label_1
_geom_bond_atom_site_label_2
_geom_bond_site_symmetry_1
_geom_bond_site_symmetry_2
O1 H1 1_555 1_555
O2 C16 1_555 1_555
O3 H2 1_555 1_555
O4 H3 1_555 1_555
N1 C2 1_555 1_555
C1 O1 1_555 1_555
H4 C1 1_555 1_555
C2 C1 1_555 1_555
H5 C2 1_555 1_555
H6 C2 1_555 1_555
C3 O3 1_555 1_555
C4 C3 1_555 1_555
H7 C4 1_555 1_555
H8 C4 1_555 1_555
C5 C4 1_555 1_555
H9 C5 1_555 1_555
C6 C5 1_555 1_555
H10 C6 1_555 1_555
H11 C6 1_555 1_555
H12 C6 1_555 1_555
C7 C1 1_555 1_555
H13 C7 1_555 1_555
H14 C7 1_555 1_555
C8 O4 1_555 1_555
C9 C3 1_555 1_555
C10 N1 1_555 1_555
H15 C10 1_555 1_555
H16 C10 1_555 1_555
C11 C10 1_555 1_555
H17 C11 1_555 1_555
H18 C11 1_555 1_555
C12 C9 1_555 1_555
H19 C12 1_555 1_555
H20 C12 1_555 1_555
C13 C5 1_555 1_555
H21 C13 1_555 1_555
H22 C13 1_555 1_555
C14 C9 1_555 1_555
H23 C14 1_555 1_555
C15 C14 1_555 1_555
H24 C15 1_555 1_555
H25 C15 1_555 1_555
C16 C8 1_555 1_555
O5 H26 1_555 1_555
C17 O5 1_555 1_555
H27 C17 1_555 1_555
H28 C17 1_555 1_555
H29 C17 1_555 1_555
N1 C3 1_555 1_555
C7 C8 1_555 1_555
C8 C9 1_555 1_555
C11 C12 1_555 1_555
C13 C14 1_555 1_555
C15 C16 1_555 1_555

#END
