
#######################################################################
#
#                 Cambridge Crystallographic Data Centre
#                                CCDC 
#
#######################################################################
#
# If this CIF has been generated from an entry in the Cambridge 
# Structural Database, then it will include bibliographic, chemical, 
# crystal, experimental, refinement or atomic coordinate data resulting 
# from the CCDC's data processing and validation procedures.
#
#######################################################################

data_OYEGOQ
_chemical_formula_moiety         'C14 H18 N2 O5 S1'
_chemical_name_systematic        
N-(2-(3-hydroxycyclohex-1-en-1-yl)ethyl)-4-nitrobenzenesulfonamide
_symmetry_cell_setting           monoclinic
_symmetry_space_group_name_H-M   'I 2/a'
_symmetry_Int_Tables_number      15
_space_group_name_Hall           '-I 2ya'
loop_
_symmetry_equiv_pos_site_id
_symmetry_equiv_pos_as_xyz
1 x,y,z
2 1/2-x,y,-z
3 1/2+x,1/2+y,1/2+z
4 -x,1/2+y,1/2-z
5 -x,-y,-z
6 1/2+x,-y,z
7 1/2-x,1/2-y,1/2-z
8 x,1/2-y,1/2+z
_cell_length_a                   9.7067(4)
_cell_length_b                   12.3900(4)
_cell_length_c                   25.7997(10)
_cell_angle_alpha                90
_cell_angle_beta                 92.209(4)
_cell_angle_gamma                90
_cell_volume                     3100.52
_exptl_crystal_colour            colorless
_exptl_crystal_description       block
_cell_formula_units_Z            8
loop_
_atom_site_label
_atom_site_type_symbol
_atom_site_fract_x
_atom_site_fract_y
_atom_site_fract_z
S1 S 0.59405(6) 0.38243(4) 0.26190(2)
O1 O 0.47247(17) 0.42824(14) 0.28202(7)
O2 O 0.58368(18) 0.28396(12) 0.23237(7)
O3 O 0.8485(3) 0.80710(16) 0.14192(10)
O4 O 0.9615(3) 0.68077(19) 0.10662(10)
N1 N 0.7003(2) 0.35875(15) 0.30954(7)
H1 H 0.765(3) 0.327(2) 0.3009(10)
N2 N 0.8739(3) 0.71278(18) 0.13497(9)
C1 C 0.6548(2) 0.3245(2) 0.42450(8)
C2 C 0.7684(3) 0.3871(2) 0.40124(10)
H2 H 0.8453 0.3389 0.3961
H3 H 0.7994 0.4422 0.4257
C3 C 0.7289(3) 0.44154(19) 0.34946(9)
H4 H 0.6478 0.4861 0.3533
H5 H 0.8036 0.4876 0.3390
C4 C 0.6686(2) 0.48079(16) 0.22176(8)
C5 C 0.6354(2) 0.58906(17) 0.22736(9)
H6 H 0.5699 0.6100 0.2508
C6 C 0.7005(3) 0.66556(17) 0.19784(9)
H7 H 0.6789 0.7384 0.2007
C7 C 0.7972(3) 0.63151(17) 0.16431(8)
C8 C 0.8297(3) 0.52408(19) 0.15738(9)
H8 H 0.8943 0.5036 0.1335
C9 C 0.7645(3) 0.44814(17) 0.18647(9)
H9 H 0.7845 0.3753 0.1825
C10 C 0.6772(9) 0.2339(7) 0.4429(3)
H10 H 0.7651 0.2131 0.4546
C11 C 0.4093(15) 0.3132(13) 0.4545(5)
H11 H 0.3401 0.3509 0.4738
H12 H 0.3690 0.2938 0.4208
O5 O 0.6031(10) 0.0598(5) 0.4706(3)
H13 H 0.5583 0.0312 0.4468
C12 C 0.5743(10) 0.1675(7) 0.4717(4)
H14 H 0.6076 0.2008 0.5043
C13 C 0.4337(14) 0.1964(10) 0.4591(4)
H15 H 0.3705 0.1583 0.4808
H16 H 0.4095 0.1817 0.4229
C14 C 0.5104(9) 0.3742(8) 0.4270(3)
H17 H 0.5187 0.4519 0.4301
H18 H 0.4586 0.3585 0.3950
O6? O 0.6079(18) 0.0728(12) 0.4894(4)
H19? H 0.6519 0.0250 0.4756
C15? C 0.5346(9) 0.1455(7) 0.4461(3)
H20? H 0.4927 0.1133 0.4146
C16? C 0.4508(13) 0.2229(10) 0.4806(5)
H21? H 0.3705 0.1851 0.4926
H22? H 0.5073 0.2435 0.5108
C17? C 0.5464(9) 0.3929(7) 0.4474(3)
H23? H 0.5227 0.4529 0.4245
H24? H 0.5787 0.4215 0.4807
C18? C 0.6502(9) 0.2123(7) 0.4248(3)
H25? H 0.6886 0.1691 0.3996
C19? C 0.4334(17) 0.3321(13) 0.4716(5)
H26? H 0.3404 0.3607 0.4716
H27? H 0.4807 0.3485 0.5044
loop_
_geom_bond_atom_site_label_1
_geom_bond_atom_site_label_2
_geom_bond_site_symmetry_1
_geom_bond_site_symmetry_2
S1 O1 1_555 1_555
O2 S1 1_555 1_555
O3 N2 1_555 1_555
O4 N2 1_555 1_555
N1 S1 1_555 1_555
H1 N1 1_555 1_555
N2 C7 1_555 1_555
C1 C2 1_555 1_555
C2 H2 1_555 1_555
H3 C2 1_555 1_555
C3 N1 1_555 1_555
H4 C3 1_555 1_555
H5 C3 1_555 1_555
C4 S1 1_555 1_555
C5 C4 1_555 1_555
H6 C5 1_555 1_555
C6 C5 1_555 1_555
H7 C6 1_555 1_555
C7 C6 1_555 1_555
C8 C7 1_555 1_555
H8 C8 1_555 1_555
C9 C4 1_555 1_555
H9 C9 1_555 1_555
C10 C1 1_555 1_555
H10 C10 1_555 1_555
C11 H11 1_555 1_555
H12 C11 1_555 1_555
O5 H13 1_555 1_555
C12 C10 1_555 1_555
H14 C12 1_555 1_555
C13 C11 1_555 1_555
H15 C13 1_555 1_555
H16 C13 1_555 1_555
C14 C1 1_555 1_555
H17 C14 1_555 1_555
H18 C14 1_555 1_555
C2 C3 1_555 1_555
C8 C9 1_555 1_555
C11 C14 1_555 1_555
O5 C12 1_555 1_555
C12 C13 1_555 1_555

#END
