
#######################################################################
#
#                 Cambridge Crystallographic Data Centre
#                                CCDC 
#
#######################################################################
#
# If this CIF has been generated from an entry in the Cambridge 
# Structural Database, then it will include bibliographic, chemical, 
# crystal, experimental, refinement or atomic coordinate data resulting 
# from the CCDC's data processing and validation procedures.
#
#######################################################################

data_OYEJAF
_chemical_formula_moiety         'C13 H13 Br1 N2 O3'
_chemical_name_systematic        
'methyl 5-(2-bromobenzyl)-3-methoxy-1H-pyrazole-4-carboxylate'
_symmetry_cell_setting           triclinic
_symmetry_space_group_name_H-M   'P -1'
_symmetry_Int_Tables_number      2
_space_group_name_Hall           '-P 1'
loop_
_symmetry_equiv_pos_site_id
_symmetry_equiv_pos_as_xyz
1 x,y,z
2 -x,-y,-z
_cell_length_a                   8.296(3)
_cell_length_b                   8.793(3)
_cell_length_c                   10.130(3)
_cell_angle_alpha                100.061(2)
_cell_angle_beta                 106.015(4)
_cell_angle_gamma                108.472(2)
_cell_volume                     645.234
_exptl_crystal_colour            colorless
_exptl_crystal_description       Prism
_cell_formula_units_Z            2
loop_
_atom_site_label
_atom_site_type_symbol
_atom_site_fract_x
_atom_site_fract_y
_atom_site_fract_z
Br1 Br 1.10519(3) 0.56577(2) 0.211650(19)
O1 O 0.60186(15) 0.00115(14) -0.30852(11)
O2 O 0.37399(17) 0.16195(17) -0.22673(13)
O3 O 0.45499(15) 0.27031(15) 0.01043(12)
N1 N 0.87554(18) 0.10411(16) 0.04244(13)
N2 N 0.83507(17) 0.02941(16) -0.10068(13)
C1 C 1.1072(2) 0.4440(2) 0.34915(17)
C2 C 1.2658(2) 0.4961(2) 0.46712(19)
H1 H 1.3699 0.5899 0.4778
C3 C 1.2701(2) 0.4091(2) 0.56929(18)
H2 H 1.3778 0.4435 0.6505
C4 C 1.1188(3) 0.2731(2) 0.55340(17)
H3 H 1.1227 0.2133 0.6230
C5 C 0.9610(2) 0.2237(2) 0.43563(17)
H4 H 0.8572 0.1302 0.4257
C6 C 0.9517(2) 0.30893(19) 0.33128(15)
C7 C 0.7730(2) 0.2601(2) 0.21174(15)
H5 H 0.6756 0.1860 0.2369
H6 H 0.7488 0.3626 0.2067
C8 C 0.7597(2) 0.17322(18) 0.06560(15)
C9 C 0.6326(2) 0.14438(18) -0.06854(15)
C10 C 0.6880(2) 0.05477(18) -0.16580(15)
C11 C 0.6895(2) -0.0747(2) -0.38771(17)
H7 H 0.8141 0.0042 -0.3648
H8 H 0.6221 -0.1036 -0.4907
H9 H 0.6922 -0.1763 -0.3617
C12 C 0.4760(2) 0.19093(19) -0.10613(16)
C13 C 0.3032(2) 0.3224(2) -0.01866(19)
H10 H 0.3199 0.4026 -0.0747
H11 H 0.2964 0.3754 0.0721
H12 H 0.1902 0.2245 -0.0730
H13 H 0.967(3) 0.097(2) 0.104(2)
loop_
_geom_bond_atom_site_label_1
_geom_bond_atom_site_label_2
_geom_bond_site_symmetry_1
_geom_bond_site_symmetry_2
Br1 C1 1_555 1_555
O1 C10 1_555 1_555
O2 C12 1_555 1_555
O3 C12 1_555 1_555
N1 N2 1_555 1_555
N2 C10 1_555 1_555
C1 C2 1_555 1_555
C2 H1 1_555 1_555
C3 C2 1_555 1_555
H2 C3 1_555 1_555
C4 C3 1_555 1_555
H3 C4 1_555 1_555
C5 C4 1_555 1_555
H4 C5 1_555 1_555
C6 C1 1_555 1_555
C7 C6 1_555 1_555
H5 C7 1_555 1_555
H6 C7 1_555 1_555
C8 N1 1_555 1_555
C9 C8 1_555 1_555
C10 C9 1_555 1_555
C11 O1 1_555 1_555
H7 C11 1_555 1_555
H8 C11 1_555 1_555
H9 C11 1_555 1_555
C12 C9 1_555 1_555
C13 O3 1_555 1_555
H10 C13 1_555 1_555
H11 C13 1_555 1_555
H12 C13 1_555 1_555
H13 N1 1_555 1_555
C5 C6 1_555 1_555
C7 C8 1_555 1_555

#END
