
#######################################################################
#
#                 Cambridge Crystallographic Data Centre
#                                CCDC 
#
#######################################################################
#
# If this CIF has been generated from an entry in the Cambridge 
# Structural Database, then it will include bibliographic, chemical, 
# crystal, experimental, refinement or atomic coordinate data resulting 
# from the CCDC's data processing and validation procedures.
#
#######################################################################

data_OYELEL
_chemical_name_common            
2,8,14,20-tetramethyl-28-(1-naphthyl)-2,8,14,20,25,26,27-heptaazapentacyclo[19.3.1.1$3,7!.1$9,13!.1$15,19!]octacosa-1(25),3(28),4,6,9(27),10,12,15(26),16,18,21,23-dodecaene
_chemical_formula_moiety         'C35 H31 N7'
_chemical_name_systematic        
2,8,14,20-Tetramethyl-28-(1-naphthyl)-2,8,14,20,25,26,27-heptaazacalix(4)arene
_symmetry_cell_setting           monoclinic
_symmetry_space_group_name_H-M   'P 21/c'
_symmetry_Int_Tables_number      14
_space_group_name_Hall           '-P 2ybc'
loop_
_symmetry_equiv_pos_site_id
_symmetry_equiv_pos_as_xyz
1 x,y,z
2 -x,1/2+y,1/2-z
3 -x,-y,-z
4 x,1/2-y,1/2+z
_cell_length_a                   17.2960(12)
_cell_length_b                   10.5965(7)
_cell_length_c                   15.8781(12)
_cell_angle_alpha                90
_cell_angle_beta                 101.794(8)
_cell_angle_gamma                90
_cell_volume                     2848.66
_chemical_melting_point          '207-208 deg.C'
_cell_formula_units_Z            4
loop_
_atom_site_label
_atom_site_type_symbol
_atom_site_fract_x
_atom_site_fract_y
_atom_site_fract_z
C1 C 0.14973(15) 0.5594(2) 0.56800(17)
C2 C 0.07625(16) 0.5826(2) 0.58865(19)
H1 H 0.0643 0.5532 0.6410
C3 C 0.02230(17) 0.6493(3) 0.5307(2)
H2 H -0.0286 0.6643 0.5424
C4 C 0.04000(15) 0.6951(2) 0.45593(19)
H3 H 0.0024 0.7415 0.4157
C5 C 0.11513(15) 0.6707(2) 0.44173(17)
C6 C 0.08784(19) 0.6843(4) 0.2853(2)
H4 H 0.1069 0.7272 0.2388
H5 H 0.0341 0.7126 0.2861
H6 H 0.0878 0.5929 0.2759
C7 C 0.22058(16) 0.7226(2) 0.36931(16)
C8 C 0.26777(16) 0.7937(2) 0.43411(17)
H7 H 0.2455 0.8350 0.4767
C9 C 0.34680(16) 0.8024(2) 0.43486(17)
H8 H 0.3803 0.8506 0.4779
C10 C 0.37767(16) 0.7405(2) 0.37246(17)
H9 H 0.4323 0.7458 0.3716
C11 C 0.32740(16) 0.6715(2) 0.31198(16)
C12 C 0.3433(2) 0.6453(3) 0.16132(17)
H10 H 0.3917 0.6834 0.1498
H11 H 0.3011 0.7085 0.1526
H12 H 0.3276 0.5743 0.1220
C13 C 0.38005(14) 0.4775(2) 0.26932(16)
C14 C 0.41230(15) 0.4021(2) 0.21250(16)
H13 H 0.4227 0.4353 0.1603
C15 C 0.42818(15) 0.2787(3) 0.23535(17)
H14 H 0.4487 0.2246 0.1975
C16 C 0.41509(15) 0.2313(2) 0.31212(17)
H15 H 0.4252 0.1453 0.3274
C17 C 0.38641(13) 0.3148(2) 0.36658(16)
C18 C 0.37716(17) 0.1459(2) 0.46932(18)
H16 H 0.3474 0.0947 0.4223
H17 H 0.3551 0.1342 0.5209
H18 H 0.4327 0.1197 0.4814
C19 C 0.36125(14) 0.3682(2) 0.50827(15)
C20 C 0.42643(15) 0.4340(2) 0.55197(17)
H19 H 0.4762 0.4240 0.5362
C21 C 0.41901(16) 0.5142(2) 0.61829(18)
H20 H 0.4636 0.5596 0.6483
C22 C 0.34710(16) 0.5281(2) 0.64081(16)
H21 H 0.3427 0.5812 0.6878
C23 C 0.28087(14) 0.4661(2) 0.59623(16)
C24 C 0.28734(14) 0.3837(2) 0.52904(15)
C25 C 0.20021(19) 0.4594(3) 0.70784(18)
H22 H 0.1985 0.5390 0.7388
H23 H 0.2461 0.4100 0.7363
H24 H 0.1518 0.4113 0.7079
C26 C 0.21891(13) 0.3116(2) 0.47834(15)
C27 C 0.19073(14) 0.3425(2) 0.39399(16)
H25 H 0.2108 0.4151 0.3707
C28 C 0.13289(15) 0.2693(2) 0.34123(17)
H26 H 0.1136 0.2935 0.2831
C29 C 0.10421(14) 0.1638(2) 0.37280(17)
H27 H 0.0661 0.1135 0.3360
C30 C 0.13038(14) 0.1281(2) 0.45976(16)
C31 C 0.10169(15) 0.0188(2) 0.49399(19)
H28 H 0.0640 -0.0327 0.4577
C32 C 0.12693(16) -0.0140(2) 0.5777(2)
H29 H 0.1065 -0.0876 0.5995
C33 C 0.18335(15) 0.0606(2) 0.63238(19)
H30 H 0.2008 0.0375 0.6910
C34 C 0.21281(14) 0.1656(2) 0.60121(17)
H31 H 0.2511 0.2148 0.6386
C35 C 0.18779(13) 0.2037(2) 0.51419(16)
N1 N 0.20650(13) 0.48582(19) 0.61962(14)
N2 N 0.16883(12) 0.60413(18) 0.49631(13)
N3 N 0.13915(12) 0.71395(19) 0.36672(14)
N4 N 0.24921(13) 0.66375(18) 0.30822(13)
N5 N 0.35737(14) 0.60048(19) 0.24933(13)
N6 N 0.36943(12) 0.43524(18) 0.34534(13)
N7 N 0.37170(12) 0.27765(18) 0.44475(13)
loop_
_geom_bond_atom_site_label_1
_geom_bond_atom_site_label_2
_geom_bond_site_symmetry_1
_geom_bond_site_symmetry_2
C1 C2 1_555 1_555
C2 H1 1_555 1_555
C3 C2 1_555 1_555
H2 C3 1_555 1_555
C4 C3 1_555 1_555
H3 C4 1_555 1_555
C5 C4 1_555 1_555
C6 H4 1_555 1_555
H5 C6 1_555 1_555
H6 C6 1_555 1_555
C7 C8 1_555 1_555
C8 H7 1_555 1_555
C9 C8 1_555 1_555
H8 C9 1_555 1_555
C10 C9 1_555 1_555
H9 C10 1_555 1_555
C11 C10 1_555 1_555
C12 H10 1_555 1_555
H11 C12 1_555 1_555
H12 C12 1_555 1_555
C13 C14 1_555 1_555
C14 H13 1_555 1_555
C15 C14 1_555 1_555
H14 C15 1_555 1_555
C16 C15 1_555 1_555
H15 C16 1_555 1_555
C17 C16 1_555 1_555
C18 H16 1_555 1_555
H17 C18 1_555 1_555
H18 C18 1_555 1_555
C19 C20 1_555 1_555
C20 H19 1_555 1_555
C21 C20 1_555 1_555
H20 C21 1_555 1_555
C22 C21 1_555 1_555
H21 C22 1_555 1_555
C23 C22 1_555 1_555
C24 C19 1_555 1_555
C25 H22 1_555 1_555
H23 C25 1_555 1_555
H24 C25 1_555 1_555
C26 C24 1_555 1_555
C27 C26 1_555 1_555
H25 C27 1_555 1_555
C28 C27 1_555 1_555
H26 C28 1_555 1_555
C29 C28 1_555 1_555
H27 C29 1_555 1_555
C30 C29 1_555 1_555
C31 C30 1_555 1_555
H28 C31 1_555 1_555
C32 C31 1_555 1_555
H29 C32 1_555 1_555
C33 C32 1_555 1_555
H30 C33 1_555 1_555
C34 C33 1_555 1_555
H31 C34 1_555 1_555
C35 C26 1_555 1_555
N1 C1 1_555 1_555
N2 C1 1_555 1_555
N3 C5 1_555 1_555
N4 C7 1_555 1_555
N5 C11 1_555 1_555
N6 C13 1_555 1_555
N7 C17 1_555 1_555
C5 N2 1_555 1_555
C6 N3 1_555 1_555
C7 N3 1_555 1_555
C11 N4 1_555 1_555
C12 N5 1_555 1_555
C13 N5 1_555 1_555
C17 N6 1_555 1_555
C18 N7 1_555 1_555
C19 N7 1_555 1_555
C23 C24 1_555 1_555
C23 N1 1_555 1_555
C25 N1 1_555 1_555
C30 C35 1_555 1_555
C34 C35 1_555 1_555

#END
