
#######################################################################
#
#                 Cambridge Crystallographic Data Centre
#                                CCDC 
#
#######################################################################
#
# If this CIF has been generated from an entry in the Cambridge 
# Structural Database, then it will include bibliographic, chemical, 
# crystal, experimental, refinement or atomic coordinate data resulting 
# from the CCDC's data processing and validation procedures.
#
#######################################################################

data_OYELAH
_chemical_name_common            
2,8,14,20-tetramethyl-28-(1-naphthyl)-2,8,14,20,25,26,27-heptaazapentacyclo[19.3.1.1$3,7!.1$9,13!.1$15,19!]octacosa-1(25),3(28),4,6,9(27),10,12,15(26),16,18,21,23-dodecaene
_chemical_formula_moiety         'C35 H31 N7'
_chemical_name_systematic        
2,8,14,20-Tetramethyl-28-(1-naphthyl)-2,8,14,20,25,26,27-heptaazacalix(4)arene
_symmetry_cell_setting           monoclinic
_symmetry_space_group_name_H-M   'P 21/c'
_symmetry_Int_Tables_number      14
_space_group_name_Hall           '-P 2ybc'
loop_
_symmetry_equiv_pos_site_id
_symmetry_equiv_pos_as_xyz
1 x,y,z
2 -x,1/2+y,1/2-z
3 -x,-y,-z
4 x,1/2-y,1/2+z
_cell_length_a                   19.240(4)
_cell_length_b                   21.296(4)
_cell_length_c                   14.917(3)
_cell_angle_alpha                90
_cell_angle_beta                 111.847(2)
_cell_angle_gamma                90
_cell_volume                     5673.06
_exptl_crystal_colour            colorless
_exptl_crystal_description       block
_chemical_melting_point          '264-265 deg.C'
_cell_formula_units_Z            8
loop_
_atom_site_label
_atom_site_type_symbol
_atom_site_fract_x
_atom_site_fract_y
_atom_site_fract_z
N1 N -0.08190(11) 0.71738(8) 0.25396(14)
N2 N -0.08477(10) 0.61775(8) 0.31217(12)
N3 N -0.08061(12) 0.51537(9) 0.36152(14)
N4 N 0.00519(10) 0.49235(8) 0.28806(12)
N5 N 0.09619(10) 0.47651(8) 0.22023(13)
N6 N 0.08036(9) 0.56774(8) 0.13051(12)
N7 N 0.05539(10) 0.66062(8) 0.04670(13)
C1 C -0.07993(12) 0.68983(9) 0.16705(16)
C2 C -0.14365(12) 0.66184(10) 0.10150(16)
H1 H -0.1878 0.6618 0.1135
C3 C -0.14211(12) 0.63404(10) 0.01844(16)
H2 H -0.1850 0.6152 -0.0251
C4 C -0.07665(12) 0.63425(10) 0.00020(15)
H3 H -0.0753 0.6149 -0.0551
C5 C -0.01305(11) 0.66322(10) 0.06431(15)
C6 C -0.01415(11) 0.69246(9) 0.14830(15)
C7 C -0.09357(11) 0.67925(10) 0.32254(16)
C8 C -0.11107(12) 0.70345(11) 0.39891(17)
H4 H -0.1166 0.7464 0.4056
C9 C -0.11968(13) 0.66098(12) 0.46372(17)
H5 H -0.1317 0.6757 0.5148
C10 C -0.11102(13) 0.59761(12) 0.45506(16)
H6 H -0.1170 0.5692 0.4990
C11 C -0.09276(12) 0.57753(10) 0.37689(15)
C12 C -0.06682(13) 0.49950(9) 0.27649(15)
C13 C -0.12518(13) 0.49401(10) 0.18889(16)
H7 H -0.1744 0.4989 0.1843
C14 C -0.10930(12) 0.48109(10) 0.10758(16)
H8 H -0.1477 0.4766 0.0475
C15 C -0.03578(12) 0.47501(10) 0.11717(15)
H9 H -0.0234 0.4667 0.0637
C16 C 0.01959(12) 0.48148(9) 0.20833(15)
C17 C 0.12710(11) 0.52278(10) 0.18011(15)
C18 C 0.20265(12) 0.52211(11) 0.19288(16)
H10 H 0.2341 0.4896 0.2256
C19 C 0.22896(12) 0.57188(11) 0.15475(17)
H11 H 0.2794 0.5731 0.1633
C20 C 0.18247(12) 0.61947(11) 0.10459(16)
H12 H 0.2002 0.6527 0.0788
C21 C 0.10706(11) 0.61563(10) 0.09408(14)
C22 C 0.05420(12) 0.72619(10) 0.21456(16)
C23 C 0.06780(14) 0.78659(11) 0.1933(2)
H13 H 0.0336 0.8064 0.1394
C24 C 0.13256(15) 0.81905(12) 0.2518(2)
H14 H 0.1403 0.8602 0.2366
C25 C 0.18360(13) 0.79088(11) 0.32990(19)
H15 H 0.2264 0.8127 0.3675
C26 C 0.17266(12) 0.72877(10) 0.35508(16)
C27 C 0.22533(13) 0.69836(12) 0.43595(17)
H16 H 0.2686 0.7194 0.4740
C28 C 0.21328(14) 0.63849(12) 0.45879(17)
H17 H 0.2488 0.6187 0.5116
C29 C 0.14768(14) 0.60647(11) 0.40318(16)
H18 H 0.1398 0.5657 0.4198
C30 C 0.09543(12) 0.63444(10) 0.32517(15)
H19 H 0.0520 0.6128 0.2893
C31 C 0.10645(11) 0.69609(9) 0.29793(15)
C32 C -0.09653(16) 0.78439(11) 0.2516(2)
H20 H -0.0825 0.8038 0.2027
H21 H -0.0679 0.8024 0.3134
H22 H -0.1489 0.7913 0.2373
C33 C -0.08650(14) 0.46518(11) 0.42392(17)
H23 H -0.0653 0.4787 0.4900
H24 H -0.0598 0.4290 0.4154
H25 H -0.1383 0.4546 0.4077
C34 C 0.14595(14) 0.44096(11) 0.30273(18)
H26 H 0.1787 0.4693 0.3495
H27 H 0.1752 0.4123 0.2815
H28 H 0.1167 0.4179 0.3315
C35 C 0.07619(15) 0.71321(13) -0.0009(2)
H29 H 0.0341 0.7408 -0.0281
H30 H 0.0912 0.6976 -0.0514
H31 H 0.1170 0.7358 0.0454
N8 N 0.49961(10) 0.65312(9) 0.01761(13)
N9 N 0.46955(10) 0.56870(8) 0.09183(12)
N10 N 0.45065(11) 0.48347(9) 0.17547(14)
N11 N 0.54515(12) 0.50305(8) 0.32722(13)
N12 N 0.63647(14) 0.53067(9) 0.47851(14)
N13 N 0.64937(10) 0.62774(8) 0.41898(13)
N14 N 0.65334(11) 0.72134(8) 0.34491(13)
C36 C 0.57010(12) 0.65485(10) 0.09693(15)
C37 C 0.62870(13) 0.61927(10) 0.09279(16)
H32 H 0.6233 0.5965 0.0373
C38 C 0.69568(13) 0.61757(11) 0.17163(17)
H33 H 0.7355 0.5939 0.1691
C39 C 0.70323(12) 0.65108(10) 0.25394(17)
H34 H 0.7481 0.6494 0.3070
C40 C 0.64444(12) 0.68726(9) 0.25836(15)
C41 C 0.57712(11) 0.69068(9) 0.17887(15)
C42 C 0.44574(12) 0.61297(10) 0.02300(14)
C43 C 0.37055(12) 0.61777(11) -0.03912(16)
H35 H 0.3544 0.6494 -0.0853
C44 C 0.32177(13) 0.57383(12) -0.02888(17)
H36 H 0.2715 0.5756 -0.0692
C45 C 0.34560(13) 0.52693(11) 0.04006(17)
H37 H 0.3126 0.4967 0.0457
C46 C 0.42110(12) 0.52685(10) 0.10079(15)
C47 C 0.52798(13) 0.48702(9) 0.23468(16)
C48 C 0.58107(13) 0.47446(10) 0.19519(17)
H38 H 0.5668 0.4635 0.1305
C49 C 0.65542(14) 0.47863(11) 0.25387(17)
H39 H 0.6924 0.4696 0.2297
C50 C 0.67459(14) 0.49636(11) 0.34875(17)
H40 H 0.7245 0.5000 0.3896
C51 C 0.61801(15) 0.50860(10) 0.38162(16)
C52 C 0.65169(13) 0.59401(11) 0.49564(16)
C53 C 0.66937(13) 0.62033(12) 0.58738(16)
H41 H 0.6692 0.5965 0.6395
C54 C 0.68699(14) 0.68310(12) 0.59673(17)
H42 H 0.7007 0.7018 0.6572
C55 C 0.68501(13) 0.71922(11) 0.51924(17)
H43 H 0.6973 0.7617 0.5262
C56 C 0.66374(12) 0.68921(10) 0.42953(15)
C57 C 0.51257(12) 0.73070(10) 0.17828(15)
C58 C 0.50020(15) 0.78761(11) 0.13200(19)
H44 H 0.5329 0.8017 0.1035
C59 C 0.43806(17) 0.82523(13) 0.1271(2)
H45 H 0.4311 0.8642 0.0970
C60 C 0.38869(16) 0.80470(13) 0.1660(2)
H46 H 0.3477 0.8295 0.1612
C61 C 0.39859(13) 0.74646(12) 0.21366(17)
C62 C 0.34853(14) 0.72341(15) 0.2562(2)
H47 H 0.3060 0.7466 0.2498
C63 C 0.36140(17) 0.66849(16) 0.3058(2)
H48 H 0.3282 0.6547 0.3337
C64 C 0.42441(15) 0.63277(13) 0.3149(2)
H49 H 0.4332 0.5953 0.3494
C65 C 0.47335(13) 0.65217(10) 0.27366(16)
H50 H 0.5146 0.6274 0.2797
C66 C 0.46229(12) 0.70925(10) 0.22200(15)
C67 C 0.48406(16) 0.69838(13) -0.06051(18)
H51 H 0.4487 0.7289 -0.0561
H52 H 0.4635 0.6770 -0.1214
H53 H 0.5296 0.7191 -0.0556
C68 C 0.40137(15) 0.45232(12) 0.2152(2)
H54 H 0.3773 0.4832 0.2407
H55 H 0.4301 0.4243 0.2659
H56 H 0.3641 0.4289 0.1652
C69 C 0.61451(19) 0.49237(13) 0.54412(18)
H57 H 0.5746 0.5127 0.5568
H58 H 0.6566 0.4870 0.6036
H59 H 0.5978 0.4521 0.5153
C70 C 0.66822(17) 0.78821(11) 0.3470(2)
H60 H 0.7213 0.7953 0.3741
H61 H 0.6451 0.8090 0.3859
H62 H 0.6481 0.8046 0.2825
loop_
_geom_bond_atom_site_label_1
_geom_bond_atom_site_label_2
_geom_bond_site_symmetry_1
_geom_bond_site_symmetry_2
N1 C1 1_555 1_555
N2 C7 1_555 1_555
N3 C11 1_555 1_555
N4 C12 1_555 1_555
N5 C16 1_555 1_555
N6 C17 1_555 1_555
N7 C5 1_555 1_555
C1 C2 1_555 1_555
C2 H1 1_555 1_555
C3 C2 1_555 1_555
H2 C3 1_555 1_555
C4 C3 1_555 1_555
H3 C4 1_555 1_555
C5 C4 1_555 1_555
C6 C1 1_555 1_555
C7 N1 1_555 1_555
C8 C7 1_555 1_555
H4 C8 1_555 1_555
C9 C8 1_555 1_555
H5 C9 1_555 1_555
C10 C9 1_555 1_555
H6 C10 1_555 1_555
C11 N2 1_555 1_555
C12 N3 1_555 1_555
C13 C12 1_555 1_555
H7 C13 1_555 1_555
C14 C13 1_555 1_555
H8 C14 1_555 1_555
C15 C14 1_555 1_555
H9 C15 1_555 1_555
C16 N4 1_555 1_555
C17 N5 1_555 1_555
C18 C17 1_555 1_555
H10 C18 1_555 1_555
C19 C18 1_555 1_555
H11 C19 1_555 1_555
C20 C19 1_555 1_555
H12 C20 1_555 1_555
C21 N6 1_555 1_555
C22 C6 1_555 1_555
C23 C22 1_555 1_555
H13 C23 1_555 1_555
C24 C23 1_555 1_555
H14 C24 1_555 1_555
C25 C24 1_555 1_555
H15 C25 1_555 1_555
C26 C25 1_555 1_555
C27 C26 1_555 1_555
H16 C27 1_555 1_555
C28 C27 1_555 1_555
H17 C28 1_555 1_555
C29 C28 1_555 1_555
H18 C29 1_555 1_555
C30 C29 1_555 1_555
H19 C30 1_555 1_555
C31 C22 1_555 1_555
C32 N1 1_555 1_555
H20 C32 1_555 1_555
H21 C32 1_555 1_555
H22 C32 1_555 1_555
C33 N3 1_555 1_555
H23 C33 1_555 1_555
H24 C33 1_555 1_555
H25 C33 1_555 1_555
C34 N5 1_555 1_555
H26 C34 1_555 1_555
H27 C34 1_555 1_555
H28 C34 1_555 1_555
C35 N7 1_555 1_555
H29 C35 1_555 1_555
H30 C35 1_555 1_555
H31 C35 1_555 1_555
N8 C36 1_555 1_555
N9 C42 1_555 1_555
N10 C46 1_555 1_555
N11 C47 1_555 1_555
N12 C51 1_555 1_555
N13 C52 1_555 1_555
N14 C40 1_555 1_555
C36 C37 1_555 1_555
C37 H32 1_555 1_555
C38 C37 1_555 1_555
H33 C38 1_555 1_555
C39 C38 1_555 1_555
H34 C39 1_555 1_555
C40 C39 1_555 1_555
C41 C36 1_555 1_555
C42 N8 1_555 1_555
C43 C42 1_555 1_555
H35 C43 1_555 1_555
C44 C43 1_555 1_555
H36 C44 1_555 1_555
C45 C44 1_555 1_555
H37 C45 1_555 1_555
C46 N9 1_555 1_555
C47 N10 1_555 1_555
C48 C47 1_555 1_555
H38 C48 1_555 1_555
C49 C48 1_555 1_555
H39 C49 1_555 1_555
C50 C49 1_555 1_555
H40 C50 1_555 1_555
C51 N11 1_555 1_555
C52 N12 1_555 1_555
C53 C52 1_555 1_555
H41 C53 1_555 1_555
C54 C53 1_555 1_555
H42 C54 1_555 1_555
C55 C54 1_555 1_555
H43 C55 1_555 1_555
C56 N13 1_555 1_555
C57 C41 1_555 1_555
C58 C57 1_555 1_555
H44 C58 1_555 1_555
C59 C58 1_555 1_555
H45 C59 1_555 1_555
C60 C59 1_555 1_555
H46 C60 1_555 1_555
C61 C60 1_555 1_555
C62 C61 1_555 1_555
H47 C62 1_555 1_555
C63 C62 1_555 1_555
H48 C63 1_555 1_555
C64 C63 1_555 1_555
H49 C64 1_555 1_555
C65 C64 1_555 1_555
H50 C65 1_555 1_555
C66 C57 1_555 1_555
C67 N8 1_555 1_555
H51 C67 1_555 1_555
H52 C67 1_555 1_555
H53 C67 1_555 1_555
C68 N10 1_555 1_555
H54 C68 1_555 1_555
H55 C68 1_555 1_555
H56 C68 1_555 1_555
C69 N12 1_555 1_555
H57 C69 1_555 1_555
H58 C69 1_555 1_555
H59 C69 1_555 1_555
C70 N14 1_555 1_555
H60 C70 1_555 1_555
H61 C70 1_555 1_555
H62 C70 1_555 1_555
N7 C21 1_555 1_555
C5 C6 1_555 1_555
C10 C11 1_555 1_555
C15 C16 1_555 1_555
C20 C21 1_555 1_555
C26 C31 1_555 1_555
C30 C31 1_555 1_555
N14 C56 1_555 1_555
C40 C41 1_555 1_555
C45 C46 1_555 1_555
C50 C51 1_555 1_555
C55 C56 1_555 1_555
C61 C66 1_555 1_555
C65 C66 1_555 1_555

#END
