
#######################################################################
#
#                 Cambridge Crystallographic Data Centre
#                                CCDC 
#
#######################################################################
#
# If this CIF has been generated from an entry in the Cambridge 
# Structural Database, then it will include bibliographic, chemical, 
# crystal, experimental, refinement or atomic coordinate data resulting 
# from the CCDC's data processing and validation procedures.
#
#######################################################################

data_OYEMUB
_chemical_formula_moiety         'C20 H12 N2'
_chemical_name_systematic        1,1':3',1''-Terphenyl-4,4'-dicarbonitrile
_symmetry_cell_setting           orthorhombic
_symmetry_space_group_name_H-M   'P 21 21 21'
_symmetry_Int_Tables_number      19
_space_group_name_Hall           'P 2ac 2ab'
loop_
_symmetry_equiv_pos_site_id
_symmetry_equiv_pos_as_xyz
1 x,y,z
2 1/2-x,-y,1/2+z
3 -x,1/2+y,1/2-z
4 1/2+x,1/2-y,-z
_cell_length_a                   3.8453(11)
_cell_length_b                   11.240(3)
_cell_length_c                   32.725(10)
_cell_angle_alpha                90
_cell_angle_beta                 90
_cell_angle_gamma                90
_cell_volume                     1414.41
_exptl_crystal_colour            colorless
_exptl_crystal_description       needle
_chemical_melting_point          '478 K'
_cell_formula_units_Z            4
loop_
_atom_site_label
_atom_site_type_symbol
_atom_site_fract_x
_atom_site_fract_y
_atom_site_fract_z
C1 C 0.5231(7) 0.3184(2) 0.14931(7)
C2 C 0.4987(7) 0.5873(2) 0.03247(8)
H1 H 0.4080 0.6457 0.0495
C3 C 0.5274(7) 0.3479(2) 0.10826(8)
H2 H 0.4637 0.2902 0.0893
C4 C 0.5017(7) 0.6061(3) -0.00913(8)
H3 H 0.4121 0.6762 -0.0199
C5 C 0.7007(8) 0.5182(3) 0.16471(8)
H4 H 0.7580 0.5762 0.1838
C6 C 0.6282(6) 0.4831(2) 0.04951(8)
N1 N 0.9384(7) 0.7547(2) 0.10502(7)
C7 C 0.6227(6) 0.4601(2) 0.09397(8)
C8 C 0.5210(7) 0.0971(2) 0.13875(8)
H5 H 0.6317 0.1087 0.1138
N2 N 0.1582(8) -0.2489(2) 0.21396(8)
C9 C 0.7102(7) 0.5448(2) 0.12349(8)
C10 C 0.1979(7) 0.0609(2) 0.21274(8)
H6 H 0.0879 0.0489 0.2377
C11 C 0.7665(8) 0.4170(3) -0.01851(9)
H7 H 0.8561 0.3588 -0.0357
C12 C 0.4464(7) -0.0173(2) 0.15147(8)
H8 H 0.5038 -0.0817 0.1350
C13 C 0.2130(8) -0.1554(3) 0.20226(9)
C14 C 0.6063(8) 0.4061(3) 0.17748(8)
H9 H 0.5983 0.3889 0.2053
C15 C 0.7646(7) 0.3983(2) 0.02293(8)
H10 H 0.8556 0.3280 0.0334
C16 C 0.6387(8) 0.5200(3) -0.03484(9)
H11 H 0.6437 0.5323 -0.0629
C17 C 0.2725(7) 0.1743(2) 0.19969(8)
H12 H 0.2132 0.2385 0.2162
C18 C 0.2879(7) -0.0359(2) 0.18834(8)
C19 C 0.8336(8) 0.6616(3) 0.11252(8)
C20 C 0.4333(7) 0.1953(2) 0.16265(7)
loop_
_geom_bond_atom_site_label_1
_geom_bond_atom_site_label_2
_geom_bond_site_symmetry_1
_geom_bond_site_symmetry_2
C1 C3 1_555 1_555
C2 H1 1_555 1_555
C3 H2 1_555 1_555
C4 C2 1_555 1_555
H3 C4 1_555 1_555
C5 H4 1_555 1_555
C6 C2 1_555 1_555
N1 C19 1_555 1_555
C7 C3 1_555 1_555
C8 H5 1_555 1_555
N2 C13 1_555 1_555
C9 C5 1_555 1_555
C10 H6 1_555 1_555
C11 H7 1_555 1_555
C12 C8 1_555 1_555
H8 C12 1_555 1_555
C13 C18 1_555 1_555
C14 C1 1_555 1_555
H9 C14 1_555 1_555
C15 C6 1_555 1_555
H10 C15 1_555 1_555
C16 C4 1_555 1_555
H11 C16 1_555 1_555
C17 C10 1_555 1_555
H12 C17 1_555 1_555
C18 C10 1_555 1_555
C19 C9 1_555 1_555
C20 C1 1_555 1_555
C5 C14 1_555 1_555
C6 C7 1_555 1_555
C7 C9 1_555 1_555
C8 C20 1_555 1_555
C11 C15 1_555 1_555
C11 C16 1_555 1_555
C12 C18 1_555 1_555
C17 C20 1_555 1_555

#END
