
#######################################################################
#
#                 Cambridge Crystallographic Data Centre
#                                CCDC 
#
#######################################################################
#
# If this CIF has been generated from an entry in the Cambridge 
# Structural Database, then it will include bibliographic, chemical, 
# crystal, experimental, refinement or atomic coordinate data resulting 
# from the CCDC's data processing and validation procedures.
#
#######################################################################

data_OYENAJ
_chemical_formula_moiety         'C20 H16 N2'
_chemical_name_systematic        
(6-methyl-5-phenyl-1,2-dihydro-4H-pyrrolo[3,2,1-ij]quinolin-4-ylidene)acetonitrile
_symmetry_cell_setting           monoclinic
_symmetry_space_group_name_H-M   'P 21/c'
_symmetry_Int_Tables_number      14
_space_group_name_Hall           '-P 2ybc'
loop_
_symmetry_equiv_pos_site_id
_symmetry_equiv_pos_as_xyz
1 x,y,z
2 -x,1/2+y,1/2-z
3 -x,-y,-z
4 x,1/2-y,1/2+z
_cell_length_a                   11.170(2)
_cell_length_b                   16.077(3)
_cell_length_c                   8.4209(18)
_cell_angle_alpha                90
_cell_angle_beta                 108.359(4)
_cell_angle_gamma                90
_cell_volume                     1435.26
_exptl_crystal_colour            colorless
_exptl_crystal_description       Prism
_cell_formula_units_Z            4
loop_
_atom_site_label
_atom_site_type_symbol
_atom_site_fract_x
_atom_site_fract_y
_atom_site_fract_z
N1 N 0.35503(8) 0.20003(5) 0.23272(10)
N2 N 0.64088(9) 0.09971(6) 0.13898(12)
C1 C 0.45743(9) 0.25190(6) 0.20806(13)
H1 H 0.4673 0.2412 0.0970
H2 H 0.5386 0.2402 0.2957
C2 C 0.41543(10) 0.34285(6) 0.22062(13)
H3 H 0.4799 0.3736 0.3092
H4 H 0.4003 0.3724 0.1129
C3 C 0.29469(10) 0.33414(6) 0.26389(12)
C4 C 0.21484(10) 0.39152(6) 0.30038(13)
H5 H 0.2313 0.4494 0.2987
C5 C 0.10898(10) 0.36256(6) 0.34005(13)
H6 H 0.0536 0.4017 0.3648
C6 C 0.08341(9) 0.27826(6) 0.34400(13)
H7 H 0.0115 0.2606 0.3721
C7 C 0.16299(9) 0.21868(6) 0.30676(12)
C8 C 0.26623(9) 0.24991(6) 0.26797(12)
C9 C 0.14909(9) 0.12880(6) 0.30632(12)
C10 C 0.03359(10) 0.09412(6) 0.33873(14)
H8 H 0.0321 0.0335 0.3259
H9 H -0.0422 0.1180 0.2586
H10 H 0.0358 0.1083 0.4528
C11 C 0.23930(9) 0.07993(6) 0.27472(12)
C12 C 0.23255(9) -0.01290(6) 0.28016(12)
C13 C 0.24967(10) -0.05357(6) 0.43179(13)
H11 H 0.2611 -0.0219 0.5308
C14 C 0.25026(10) -0.14014(7) 0.43979(14)
H12 H 0.2610 -0.1671 0.5437
C15 C 0.23523(9) -0.18707(6) 0.29676(14)
H13 H 0.2381 -0.2461 0.3028
C16 C 0.21597(10) -0.14710(6) 0.14469(14)
H14 H 0.2041 -0.1789 0.0459
C17 C 0.21402(10) -0.06071(6) 0.13612(13)
H15 H 0.1999 -0.0340 0.0312
C18 C 0.35029(9) 0.11506(6) 0.23850(12)
C19 C 0.44174(10) 0.06352(6) 0.21414(13)
H16 H 0.4307 0.0056 0.2275
C20 C 0.54961(10) 0.08653(6) 0.17183(13)
loop_
_geom_bond_atom_site_label_1
_geom_bond_atom_site_label_2
_geom_bond_site_symmetry_1
_geom_bond_site_symmetry_2
N1 C1 1_555 1_555
N2 C20 1_555 1_555
C1 H1 1_555 1_555
H2 C1 1_555 1_555
C2 C1 1_555 1_555
H3 C2 1_555 1_555
H4 C2 1_555 1_555
C3 C2 1_555 1_555
C4 C3 1_555 1_555
H5 C4 1_555 1_555
C5 C4 1_555 1_555
H6 C5 1_555 1_555
C6 C5 1_555 1_555
H7 C6 1_555 1_555
C7 C6 1_555 1_555
C8 N1 1_555 1_555
C9 C7 1_555 1_555
C10 C9 1_555 1_555
H8 C10 1_555 1_555
H9 C10 1_555 1_555
H10 C10 1_555 1_555
C11 C9 1_555 1_555
C12 C11 1_555 1_555
C13 C12 1_555 1_555
H11 C13 1_555 1_555
C14 C13 1_555 1_555
H12 C14 1_555 1_555
C15 C14 1_555 1_555
H13 C15 1_555 1_555
C16 C15 1_555 1_555
H14 C16 1_555 1_555
C17 C12 1_555 1_555
H15 C17 1_555 1_555
C18 N1 1_555 1_555
C19 C18 1_555 1_555
H16 C19 1_555 1_555
C20 C19 1_555 1_555
C3 C8 1_555 1_555
C7 C8 1_555 1_555
C11 C18 1_555 1_555
C16 C17 1_555 1_555

#END
