
#######################################################################
#
#                 Cambridge Crystallographic Data Centre
#                                CCDC 
#
#######################################################################
#
# If this CIF has been generated from an entry in the Cambridge 
# Structural Database, then it will include bibliographic, chemical, 
# crystal, experimental, refinement or atomic coordinate data resulting 
# from the CCDC's data processing and validation procedures.
#
#######################################################################

data_OYENOX
_chemical_formula_moiety         'C30 H24 N2 O4 S2'
_chemical_name_systematic        
'ethyl 5-(4-(4-(ethoxycarbonyl)-3-phenyl-1,2-thiazol-5-yl)phenyl)-3-phenyl-1,2-thiazole-4-carboxylate'
_symmetry_cell_setting           monoclinic
_symmetry_space_group_name_H-M   'P 21/c'
_symmetry_Int_Tables_number      14
_space_group_name_Hall           '-P 2ybc'
loop_
_symmetry_equiv_pos_site_id
_symmetry_equiv_pos_as_xyz
1 x,y,z
2 -x,1/2+y,1/2-z
3 -x,-y,-z
4 x,1/2-y,1/2+z
_cell_length_a                   10.4528(3)
_cell_length_b                   14.3902(4)
_cell_length_c                   8.7251(3)
_cell_angle_alpha                90
_cell_angle_beta                 92.7628(15)
_cell_angle_gamma                90
_cell_volume                     1310.89
_exptl_crystal_colour            colorless
_exptl_crystal_description       needle
_cell_formula_units_Z            2
loop_
_atom_site_label
_atom_site_type_symbol
_atom_site_fract_x
_atom_site_fract_y
_atom_site_fract_z
C1 C 0.7455(4) 0.6971(3) -0.2627(4)
H1 H 0.7754 0.7529 -0.2206
C2 C 0.6770(4) 0.6965(3) -0.4028(4)
H2 H 0.6594 0.7520 -0.4541
C3 C 0.6347(4) 0.6131(4) -0.4661(5)
H3 H 0.5912 0.6128 -0.5616
C4 C 0.6560(4) 0.5322(3) -0.3910(5)
H4 H 0.6268 0.4768 -0.4352
C5 C 0.7217(4) 0.5308(3) -0.2473(4)
H5 H 0.7333 0.4752 -0.1940
C6 C 0.7692(3) 0.6134(3) -0.1853(4)
C7 C 0.8536(3) 0.6133(2) -0.0432(4)
C8 C 0.8377(3) 0.5591(2) 0.0913(4)
C9 C 0.9354(3) 0.5726(2) 0.1994(4)
C10 C 0.7148(3) 0.5090(3) 0.1180(4)
C11 C 0.6142(5) 0.3644(4) 0.1605(6)
H6 H 0.5811 0.3840 0.2574
H7 H 0.5481 0.3743 0.0802
C12 C 0.9642(3) 0.5350(2) 0.3538(3)
C13 C 1.0073(4) 0.5944(2) 0.4726(4)
H8 H 1.0126 0.6579 0.4543
C14 C 0.9581(3) 0.4396(2) 0.3850(4)
H9 H 0.9302 0.3988 0.3077
N1 N 0.9584(3) 0.6656(2) -0.0397(4)
O1 O 0.6148(3) 0.5509(2) 0.1330(5)
O2 O 0.7279(3) 0.4181(2) 0.1283(4)
S1 S 1.03887(8) 0.65154(6) 0.12459(10)
C15 C 0.6487(8) 0.2682(6) 0.1677(8)
H10 H 0.7102 0.2552 0.0922
H11 H 0.5738 0.2307 0.1478
H12 H 0.6854 0.2541 0.2680
C1B C 1.2545(4) 0.3029(3) 1.2627(4)
H1B H 1.2246 0.2471 1.2206
C2B C 1.3230(4) 0.3035(3) 1.4028(4)
H2B H 1.3406 0.2480 1.4541
C3B C 1.3653(4) 0.3869(4) 1.4661(5)
H3B H 1.4088 0.3872 1.5616
C4B C 1.3440(4) 0.4678(3) 1.3910(5)
H4B H 1.3732 0.5232 1.4352
C5B C 1.2783(4) 0.4692(3) 1.2473(4)
H5B H 1.2667 0.5248 1.1940
C6B C 1.2308(3) 0.3866(3) 1.1853(4)
C7B C 1.1464(3) 0.3867(2) 1.0432(4)
C8B C 1.1623(3) 0.4409(2) 0.9087(4)
C9B C 1.0646(3) 0.4274(2) 0.8006(4)
C10B C 1.2852(3) 0.4910(3) 0.8820(4)
C11B C 1.3858(5) 0.6356(4) 0.8395(6)
H6B H 1.4189 0.6160 0.7426
H7B H 1.4519 0.6257 0.9198
C12B C 1.0358(3) 0.4650(2) 0.6462(3)
C13B C 0.9927(4) 0.4056(2) 0.5274(4)
H8B H 0.9874 0.3421 0.5457
C14B C 1.0419(3) 0.5604(2) 0.6150(4)
H9B H 1.0698 0.6012 0.6923
N1B N 1.0416(3) 0.3344(2) 1.0397(4)
O1B O 1.3852(3) 0.4491(2) 0.8670(5)
O2B O 1.2721(3) 0.5819(2) 0.8717(4)
S1B S 0.96113(8) 0.34846(6) 0.87541(10)
C15B C 1.3513(8) 0.7318(6) 0.8323(8)
H10B H 1.2898 0.7448 0.9078
H11B H 1.4262 0.7693 0.8522
H12B H 1.3146 0.7459 0.7320
loop_
_geom_bond_atom_site_label_1
_geom_bond_atom_site_label_2
_geom_bond_site_symmetry_1
_geom_bond_site_symmetry_2
C1 H1 1_555 1_555
C2 C1 1_555 1_555
H2 C2 1_555 1_555
C3 C2 1_555 1_555
H3 C3 1_555 1_555
C4 C3 1_555 1_555
H4 C4 1_555 1_555
C5 C4 1_555 1_555
H5 C5 1_555 1_555
C6 C1 1_555 1_555
C7 C6 1_555 1_555
C8 C7 1_555 1_555
C9 C8 1_555 1_555
C10 C8 1_555 1_555
C11 H6 1_555 1_555
H7 C11 1_555 1_555
C12 C9 1_555 1_555
C13 C12 1_555 1_555
H8 C13 1_555 1_555
C14 C12 1_555 1_555
H9 C14 1_555 1_555
N1 C7 1_555 1_555
O1 C10 1_555 1_555
O2 C10 1_555 1_555
S1 C9 1_555 1_555
C15 C11 1_555 1_555
H10 C15 1_555 1_555
H11 C15 1_555 1_555
H12 C15 1_555 1_555
C1B H1B 1_555 1_555
C2B C1B 1_555 1_555
H2B C2B 1_555 1_555
C3B C2B 1_555 1_555
H3B C3B 1_555 1_555
C4B C3B 1_555 1_555
H4B C4B 1_555 1_555
C5B C4B 1_555 1_555
H5B C5B 1_555 1_555
C6B C1B 1_555 1_555
C7B C6B 1_555 1_555
C8B C7B 1_555 1_555
C9B C8B 1_555 1_555
C10B C8B 1_555 1_555
C11B H6B 1_555 1_555
H7B C11B 1_555 1_555
C12B C9B 1_555 1_555
C13B C14 1_555 1_555
H8B C13B 1_555 1_555
C14B C13 1_555 1_555
H9B C14B 1_555 1_555
N1B C7B 1_555 1_555
O1B C10B 1_555 1_555
O2B C10B 1_555 1_555
S1B C9B 1_555 1_555
C15B C11B 1_555 1_555
H10B C15B 1_555 1_555
H11B C15B 1_555 1_555
H12B C15B 1_555 1_555
C5 C6 1_555 1_555
C11 O2 1_555 1_555
N1 S1 1_555 1_555
C5B C6B 1_555 1_555
C11B O2B 1_555 1_555
C12B C13B 1_555 1_555
C12B C14B 1_555 1_555
N1B S1B 1_555 1_555

#END
