
#######################################################################
#
#                 Cambridge Crystallographic Data Centre
#                                CCDC 
#
#######################################################################
#
# If this CIF has been generated from an entry in the Cambridge 
# Structural Database, then it will include bibliographic, chemical, 
# crystal, experimental, refinement or atomic coordinate data resulting 
# from the CCDC's data processing and validation procedures.
#
#######################################################################

data_OYEQUG02
_chemical_formula_moiety         'C54 H64 B2 Mg1 O8'
_chemical_name_systematic        
tetrakis(tetrahydrofuran)-bis((formato)(triphenyl)borate)-magnesium
_symmetry_cell_setting           monoclinic
_symmetry_space_group_name_H-M   'P 21/n'
_symmetry_Int_Tables_number      14
_space_group_name_Hall           '-P 2yn'
loop_
_symmetry_equiv_pos_site_id
_symmetry_equiv_pos_as_xyz
1 x,y,z
2 1/2-x,1/2+y,1/2-z
3 -x,-y,-z
4 1/2+x,1/2-y,1/2+z
_cell_length_a                   11.3567(9)
_cell_length_b                   12.2346(10)
_cell_length_c                   18.4353(15)
_cell_angle_alpha                90
_cell_angle_beta                 108.1883(13)
_cell_angle_gamma                90
_cell_volume                     2433.5
_exptl_crystal_colour            colorless
_exptl_crystal_description       block
_cell_formula_units_Z            2
_exptl_crystal_recrystallization_method tetrahydrofuran
loop_
_atom_site_label
_atom_site_type_symbol
_atom_site_fract_x
_atom_site_fract_y
_atom_site_fract_z
Mg1 Mg 0.0000 0.0000 0.0000
O1 O 0.18354(9) -0.00602(8) 0.06319(5)
O2 O 0.36443(8) 0.06433(8) 0.13124(5)
O3 O -0.00870(9) -0.16984(8) 0.01289(5)
O4 O 0.05101(9) -0.02548(8) -0.09888(5)
B1 B 0.44340(14) 0.17311(13) 0.15501(9)
C1 C 0.25376(13) 0.07262(12) 0.08654(8)
H1 H 0.2252(15) 0.1463(14) 0.0694(9)
C2 C -0.05500(15) -0.22423(12) 0.06904(9)
H2 H -0.1439(17) -0.2010(14) 0.0587(10)
H3 H -0.0017(16) -0.1998(14) 0.1192(10)
C3 C -0.04073(15) -0.34565(13) 0.05732(9)
H4 H -0.1149(17) -0.3723(15) 0.0160(10)
H5 H -0.0292(16) -0.3874(15) 0.1049(10)
C4 C 0.07324(17) -0.34843(14) 0.03059(11)
H6 H 0.1512(18) -0.3394(16) 0.0769(11)
H7 H 0.0800(18) -0.4140(17) 0.0010(11)
C5 C 0.05504(18) -0.24862(13) -0.02046(11)
H8 H 0.1363(18) -0.2148(16) -0.0199(11)
H9 H 0.0001(18) -0.2640(16) -0.0727(11)
C6 C 0.17508(14) -0.04161(13) -0.10471(9)
H10 H 0.2276(16) -0.0716(14) -0.0565(10)
H11 H 0.2056(16) 0.0303(15) -0.1141(10)
C7 C 0.15641(15) -0.11548(14) -0.17286(9)
H12 H 0.1461(16) -0.1908(16) -0.1586(10)
H13 H 0.2258(17) -0.1101(15) -0.1923(10)
C8 C 0.03589(16) -0.07065(16) -0.22737(9)
H14 H 0.0536(17) -0.0030(16) -0.2526(11)
H15 H -0.0095(17) -0.1253(16) -0.2653(11)
C9 C -0.03918(15) -0.04400(16) -0.17429(9)
H16 H -0.0904(18) 0.0196(16) -0.1888(10)
H17 H -0.0903(17) -0.1068(16) -0.1700(10)
C10 C 0.48976(12) 0.20892(12) 0.08320(8)
C11 C 0.55147(15) 0.30796(14) 0.08285(9)
H18 H 0.5577(17) 0.3597(15) 0.1230(11)
C12 C 0.59769(16) 0.33735(15) 0.02397(10)
H19 H 0.6387(18) 0.4086(16) 0.0254(11)
C13 C 0.58419(15) 0.26712(14) -0.03725(9)
H20 H 0.6187(17) 0.2875(15) -0.0772(11)
C14 C 0.52476(14) 0.16836(14) -0.03870(9)
H21 H 0.5139(16) 0.1186(15) -0.0812(10)
C15 C 0.47796(13) 0.14061(12) 0.02050(8)
H22 H 0.4390(16) 0.0692(15) 0.0198(10)
C16 C 0.35408(12) 0.26121(12) 0.17905(8)
C17 C 0.30717(15) 0.35635(13) 0.13876(9)
H23 H 0.3326(17) 0.3772(15) 0.0944(11)
C18 C 0.22367(17) 0.42397(14) 0.15929(10)
H24 H 0.1947(18) 0.4888(17) 0.1305(11)
C19 C 0.18497(15) 0.39884(14) 0.22110(10)
H25 H 0.1291(18) 0.4449(16) 0.2360(11)
C20 C 0.23026(15) 0.30524(14) 0.26277(10)
H26 H 0.2027(17) 0.2860(15) 0.3063(11)
C21 C 0.31332(14) 0.23850(13) 0.24212(9)
H27 H 0.3447(16) 0.1725(15) 0.2728(10)
C22 C 0.56055(12) 0.13870(12) 0.22778(8)
C23 C 0.63744(13) 0.21960(13) 0.27234(8)
H28 H 0.6159(16) 0.2978(15) 0.2602(10)
C24 C 0.74347(14) 0.19404(14) 0.33203(9)
H29 H 0.7957(17) 0.2514(15) 0.3603(10)
C25 C 0.77461(14) 0.08567(14) 0.35079(9)
H30 H 0.8481(17) 0.0680(15) 0.3908(10)
C26 C 0.69969(14) 0.00371(14) 0.30864(9)
H31 H 0.7199(16) -0.0728(16) 0.3206(10)
C27 C 0.59477(13) 0.03026(13) 0.24755(8)
H32 H 0.5442(16) -0.0279(14) 0.2177(10)
O1B O -0.18354(9) 0.00602(8) -0.06319(5)
O2B O -0.36443(8) -0.06433(8) -0.13124(5)
O3B O 0.00870(9) 0.16984(8) -0.01289(5)
O4B O -0.05101(9) 0.02548(8) 0.09888(5)
B1B B -0.44340(14) -0.17311(13) -0.15501(9)
C1B C -0.25376(13) -0.07262(12) -0.08654(8)
H1B H -0.2252(15) -0.1463(14) -0.0694(9)
C2B C 0.05500(15) 0.22423(12) -0.06904(9)
H2B H 0.1439(17) 0.2010(14) -0.0587(10)
H3B H 0.0017(16) 0.1998(14) -0.1192(10)
C3B C 0.04073(15) 0.34565(13) -0.05732(9)
H4B H 0.1149(17) 0.3723(15) -0.0160(10)
H5B H 0.0292(16) 0.3874(15) -0.1049(10)
C4B C -0.07324(17) 0.34843(14) -0.03059(11)
H6B H -0.1512(18) 0.3394(16) -0.0769(11)
H7B H -0.0800(18) 0.4140(17) -0.0010(11)
C5B C -0.05504(18) 0.24862(13) 0.02046(11)
H8B H -0.1363(18) 0.2148(16) 0.0199(11)
H9B H -0.0001(18) 0.2640(16) 0.0727(11)
C6B C -0.17508(14) 0.04161(13) 0.10471(9)
H10B H -0.2276(16) 0.0716(14) 0.0565(10)
H11B H -0.2056(16) -0.0303(15) 0.1141(10)
C7B C -0.15641(15) 0.11548(14) 0.17286(9)
H12B H -0.1461(16) 0.1908(16) 0.1586(10)
H13B H -0.2258(17) 0.1101(15) 0.1923(10)
C8B C -0.03589(16) 0.07065(16) 0.22737(9)
H14B H -0.0536(17) 0.0030(16) 0.2526(11)
H15B H 0.0095(17) 0.1253(16) 0.2653(11)
C9B C 0.03918(15) 0.04400(16) 0.17429(9)
H16B H 0.0904(18) -0.0196(16) 0.1888(10)
H17B H 0.0903(17) 0.1068(16) 0.1700(10)
C10B C -0.48976(12) -0.20892(12) -0.08320(8)
C11B C -0.55147(15) -0.30796(14) -0.08285(9)
H18B H -0.5577(17) -0.3597(15) -0.1230(11)
C12B C -0.59769(16) -0.33735(15) -0.02397(10)
H19B H -0.6387(18) -0.4086(16) -0.0254(11)
C13B C -0.58419(15) -0.26712(14) 0.03725(9)
H20B H -0.6187(17) -0.2875(15) 0.0772(11)
C14B C -0.52476(14) -0.16836(14) 0.03870(9)
H21B H -0.5139(16) -0.1186(15) 0.0812(10)
C15B C -0.47796(13) -0.14061(12) -0.02050(8)
H22B H -0.4390(16) -0.0692(15) -0.0198(10)
C16B C -0.35408(12) -0.26121(12) -0.17905(8)
C17B C -0.30717(15) -0.35635(13) -0.13876(9)
H23B H -0.3326(17) -0.3772(15) -0.0944(11)
C18B C -0.22367(17) -0.42397(14) -0.15929(10)
H24B H -0.1947(18) -0.4888(17) -0.1305(11)
C19B C -0.18497(15) -0.39884(14) -0.22110(10)
H25B H -0.1291(18) -0.4449(16) -0.2360(11)
C20B C -0.23026(15) -0.30524(14) -0.26277(10)
H26B H -0.2027(17) -0.2860(15) -0.3063(11)
C21B C -0.31332(14) -0.23850(13) -0.24212(9)
H27B H -0.3447(16) -0.1725(15) -0.2728(10)
C22B C -0.56055(12) -0.13870(12) -0.22778(8)
C23B C -0.63744(13) -0.21960(13) -0.27234(8)
H28B H -0.6159(16) -0.2978(15) -0.2602(10)
C24B C -0.74347(14) -0.19404(14) -0.33203(9)
H29B H -0.7957(17) -0.2514(15) -0.3603(10)
C25B C -0.77461(14) -0.08567(14) -0.35079(9)
H30B H -0.8481(17) -0.0680(15) -0.3908(10)
C26B C -0.69969(14) -0.00371(14) -0.30864(9)
H31B H -0.7199(16) 0.0728(16) -0.3206(10)
C27B C -0.59477(13) -0.03026(13) -0.24755(8)
H32B H -0.5442(16) 0.0279(14) -0.2177(10)
loop_
_geom_bond_atom_site_label_1
_geom_bond_atom_site_label_2
_geom_bond_site_symmetry_1
_geom_bond_site_symmetry_2
Mg1 O1 1_555 1_555
O1 C1 1_555 1_555
O2 B1 1_555 1_555
O3 Mg1 1_555 1_555
O4 Mg1 1_555 1_555
B1 C10 1_555 1_555
C1 O2 1_555 1_555
H1 C1 1_555 1_555
C2 O3 1_555 1_555
H2 C2 1_555 1_555
H3 C2 1_555 1_555
C3 C2 1_555 1_555
H4 C3 1_555 1_555
H5 C3 1_555 1_555
C4 C3 1_555 1_555
H6 C4 1_555 1_555
H7 C4 1_555 1_555
C5 O3 1_555 1_555
H8 C5 1_555 1_555
H9 C5 1_555 1_555
C6 O4 1_555 1_555
H10 C6 1_555 1_555
H11 C6 1_555 1_555
C7 C6 1_555 1_555
H12 C7 1_555 1_555
H13 C7 1_555 1_555
C8 C7 1_555 1_555
H14 C8 1_555 1_555
H15 C8 1_555 1_555
C9 O4 1_555 1_555
H16 C9 1_555 1_555
H17 C9 1_555 1_555
C10 C11 1_555 1_555
C11 H18 1_555 1_555
C12 C11 1_555 1_555
H19 C12 1_555 1_555
C13 C12 1_555 1_555
H20 C13 1_555 1_555
C14 C13 1_555 1_555
H21 C14 1_555 1_555
C15 C10 1_555 1_555
H22 C15 1_555 1_555
C16 B1 1_555 1_555
C17 C16 1_555 1_555
H23 C17 1_555 1_555
C18 C17 1_555 1_555
H24 C18 1_555 1_555
C19 C18 1_555 1_555
H25 C19 1_555 1_555
C20 C19 1_555 1_555
H26 C20 1_555 1_555
C21 C16 1_555 1_555
H27 C21 1_555 1_555
C22 B1 1_555 1_555
C23 C22 1_555 1_555
H28 C23 1_555 1_555
C24 C23 1_555 1_555
H29 C24 1_555 1_555
C25 C24 1_555 1_555
H30 C25 1_555 1_555
C26 C25 1_555 1_555
H31 C26 1_555 1_555
C27 C22 1_555 1_555
H32 C27 1_555 1_555
O1B Mg1 1_555 1_555
O2B B1B 1_555 1_555
O3B Mg1 1_555 1_555
O4B Mg1 1_555 1_555
B1B C10B 1_555 1_555
C1B O1B 1_555 1_555
H1B C1B 1_555 1_555
C2B O3B 1_555 1_555
H2B C2B 1_555 1_555
H3B C2B 1_555 1_555
C3B C2B 1_555 1_555
H4B C3B 1_555 1_555
H5B C3B 1_555 1_555
C4B C3B 1_555 1_555
H6B C4B 1_555 1_555
H7B C4B 1_555 1_555
C5B O3B 1_555 1_555
H8B C5B 1_555 1_555
H9B C5B 1_555 1_555
C6B O4B 1_555 1_555
H10B C6B 1_555 1_555
H11B C6B 1_555 1_555
C7B C6B 1_555 1_555
H12B C7B 1_555 1_555
H13B C7B 1_555 1_555
C8B C7B 1_555 1_555
H14B C8B 1_555 1_555
H15B C8B 1_555 1_555
C9B O4B 1_555 1_555
H16B C9B 1_555 1_555
H17B C9B 1_555 1_555
C10B C11B 1_555 1_555
C11B H18B 1_555 1_555
C12B C11B 1_555 1_555
H19B C12B 1_555 1_555
C13B C12B 1_555 1_555
H20B C13B 1_555 1_555
C14B C13B 1_555 1_555
H21B C14B 1_555 1_555
C15B C10B 1_555 1_555
H22B C15B 1_555 1_555
C16B B1B 1_555 1_555
C17B C16B 1_555 1_555
H23B C17B 1_555 1_555
C18B C17B 1_555 1_555
H24B C18B 1_555 1_555
C19B C18B 1_555 1_555
H25B C19B 1_555 1_555
C20B C19B 1_555 1_555
H26B C20B 1_555 1_555
C21B C16B 1_555 1_555
H27B C21B 1_555 1_555
C22B B1B 1_555 1_555
C23B C22B 1_555 1_555
H28B C23B 1_555 1_555
C24B C23B 1_555 1_555
H29B C24B 1_555 1_555
C25B C24B 1_555 1_555
H30B C25B 1_555 1_555
C26B C25B 1_555 1_555
H31B C26B 1_555 1_555
C27B C22B 1_555 1_555
H32B C27B 1_555 1_555
C4 C5 1_555 1_555
C8 C9 1_555 1_555
C14 C15 1_555 1_555
C20 C21 1_555 1_555
C26 C27 1_555 1_555
O2B C1B 1_555 1_555
C4B C5B 1_555 1_555
C8B C9B 1_555 1_555
C14B C15B 1_555 1_555
C20B C21B 1_555 1_555
C26B C27B 1_555 1_555

#END
