
#######################################################################
#
#                 Cambridge Crystallographic Data Centre
#                                CCDC 
#
#######################################################################
#
# If this CIF has been generated from an entry in the Cambridge 
# Structural Database, then it will include bibliographic, chemical, 
# crystal, experimental, refinement or atomic coordinate data resulting 
# from the CCDC's data processing and validation procedures.
#
#######################################################################

data_OYESES02
_chemical_formula_moiety         'C20 H30 N2 O1 Si2'
_chemical_name_systematic        
N-(quinolin-8-yl)-2,4-bis(trimethylsilyl)cyclobutanecarboxamide
_symmetry_cell_setting           monoclinic
_symmetry_space_group_name_H-M   'P 21/c'
_symmetry_Int_Tables_number      14
_space_group_name_Hall           '-P 2ybc'
loop_
_symmetry_equiv_pos_site_id
_symmetry_equiv_pos_as_xyz
1 x,y,z
2 -x,1/2+y,1/2-z
3 -x,-y,-z
4 x,1/2-y,1/2+z
_cell_length_a                   17.5738(8)
_cell_length_b                   10.3894(4)
_cell_length_c                   12.0069(5)
_cell_angle_alpha                90
_cell_angle_beta                 100.934(2)
_cell_angle_gamma                90
_cell_volume                     2152.44
_exptl_crystal_colour            colorless
_exptl_crystal_description       block
_cell_formula_units_Z            4
loop_
_atom_site_label
_atom_site_type_symbol
_atom_site_fract_x
_atom_site_fract_y
_atom_site_fract_z
Si1 Si 0.17339(3) 0.72499(5) 0.76516(4)
C1 C 0.45871(11) 0.60184(17) 0.61032(16)
O1 O 0.27351(8) 0.42727(14) 0.74624(12)
N1 N 0.42518(10) 0.66187(15) 0.51159(14)
N2 N 0.33002(8) 0.54147(15) 0.62221(13)
H1 H 0.3191 0.5841 0.5578
Si2 Si 0.14927(3) 0.23866(5) 0.60873(4)
C2 C 0.53971(11) 0.60109(19) 0.65160(19)
C3 C 0.40853(10) 0.53588(17) 0.67161(16)
C4 C 0.47201(14) 0.7216(2) 0.4546(2)
H2 H 0.4495 0.7638 0.3861
C5 C 0.55261(14) 0.7268(2) 0.4886(2)
H3 H 0.5834 0.7712 0.4440
C6 C 0.58635(12) 0.6673(2) 0.5865(2)
H4 H 0.6410 0.6703 0.6110
C7 C 0.43910(11) 0.47257(18) 0.77062(17)
H5 H 0.4059 0.4292 0.8122
C8 C 0.56925(11) 0.5345(2) 0.7533(2)
H6 H 0.6235 0.5330 0.7819
C9 C 0.52006(12) 0.4724(2) 0.81001(19)
H7 H 0.5408 0.4278 0.8781
C10 C 0.26782(10) 0.49048(17) 0.65913(15)
C11 C 0.19099(10) 0.52111(17) 0.58450(15)
H8 H 0.1968 0.5512 0.5074
C12 C 0.13880(10) 0.61420(17) 0.64134(16)
H9 H 0.1079 0.6674 0.5795
C13 C 0.08774(12) 0.49623(19) 0.6605(2)
H10 H 0.0978 0.4643 0.7397
H11 H 0.0316 0.5099 0.6327
C14 C 0.12731(10) 0.41452(18) 0.57896(16)
H12 H 0.0936 0.4199 0.5020
C15 C 0.15246(14) 0.1956(2) 0.76046(17)
H13 H 0.1005 0.2039 0.7781
H14 H 0.1881 0.2537 0.8092
H15 H 0.1705 0.1067 0.7737
C16 C 0.06736(13) 0.1467(2) 0.52189(18)
H16 H 0.0675 0.1599 0.4411
H17 H 0.0181 0.1771 0.5393
H18 H 0.0736 0.0548 0.5398
C17 C 0.24229(12) 0.1912(2) 0.56625(18)
H19 H 0.2445 0.0973 0.5599
H20 H 0.2860 0.2211 0.6237
H21 H 0.2452 0.2303 0.4929
C18 C 0.08721(13) 0.8247(2) 0.7798(2)
H22 H 0.0711 0.8763 0.7110
H23 H 0.1008 0.8820 0.8454
H24 H 0.0446 0.7682 0.7907
C19 C 0.2059(2) 0.6378(2) 0.9012(2)
H25 H 0.1640 0.5822 0.9163
H26 H 0.2195 0.7001 0.9630
H27 H 0.2514 0.5851 0.8959
C20 C 0.25311(13) 0.8314(2) 0.7378(2)
H28 H 0.2979 0.7787 0.7292
H29 H 0.2680 0.8907 0.8017
H30 H 0.2354 0.8807 0.6681
loop_
_geom_bond_atom_site_label_1
_geom_bond_atom_site_label_2
_geom_bond_site_symmetry_1
_geom_bond_site_symmetry_2
Si1 C12 1_555 1_555
C1 N1 1_555 1_555
O1 C10 1_555 1_555
N1 C4 1_555 1_555
N2 H1 1_555 1_555
Si2 C14 1_555 1_555
C2 C1 1_555 1_555
C3 C1 1_555 1_555
C4 H2 1_555 1_555
C5 C4 1_555 1_555
H3 C5 1_555 1_555
C6 C2 1_555 1_555
H4 C6 1_555 1_555
C7 C3 1_555 1_555
H5 C7 1_555 1_555
C8 C2 1_555 1_555
H6 C8 1_555 1_555
C9 C7 1_555 1_555
H7 C9 1_555 1_555
C10 N2 1_555 1_555
C11 C10 1_555 1_555
H8 C11 1_555 1_555
C12 C11 1_555 1_555
H9 C12 1_555 1_555
C13 C12 1_555 1_555
H10 C13 1_555 1_555
H11 C13 1_555 1_555
C14 C11 1_555 1_555
H12 C14 1_555 1_555
C15 Si2 1_555 1_555
H13 C15 1_555 1_555
H14 C15 1_555 1_555
H15 C15 1_555 1_555
C16 Si2 1_555 1_555
H16 C16 1_555 1_555
H17 C16 1_555 1_555
H18 C16 1_555 1_555
C17 Si2 1_555 1_555
H19 C17 1_555 1_555
H20 C17 1_555 1_555
H21 C17 1_555 1_555
C18 Si1 1_555 1_555
H22 C18 1_555 1_555
H23 C18 1_555 1_555
H24 C18 1_555 1_555
C19 Si1 1_555 1_555
H25 C19 1_555 1_555
H26 C19 1_555 1_555
H27 C19 1_555 1_555
C20 Si1 1_555 1_555
H28 C20 1_555 1_555
H29 C20 1_555 1_555
H30 C20 1_555 1_555
N2 C3 1_555 1_555
C5 C6 1_555 1_555
C8 C9 1_555 1_555
C13 C14 1_555 1_555

#END
