
#######################################################################
#
#                 Cambridge Crystallographic Data Centre
#                                CCDC 
#
#######################################################################
#
# If this CIF has been generated from an entry in the Cambridge 
# Structural Database, then it will include bibliographic, chemical, 
# crystal, experimental, refinement or atomic coordinate data resulting 
# from the CCDC's data processing and validation procedures.
#
#######################################################################

data_OYEXEX
_chemical_formula_moiety         '0.7(C4 H4 Cl2 N2),0.3(C3 H1 Br2 Cl1 N2)'
_chemical_name_systematic        
'4,5-dichloro-2-methyl-1H-imidazole 2,4-dibromo-5-chloro-1H-imidazole'
_symmetry_cell_setting           orthorhombic
_symmetry_space_group_name_H-M   'A m a 2'
_symmetry_Int_Tables_number      40
_space_group_name_Hall           'A 2 -2a'
loop_
_symmetry_equiv_pos_site_id
_symmetry_equiv_pos_as_xyz
1 x,y,z
2 -x,-y,z
3 1/2-x,y,z
4 1/2+x,-y,z
5 x,1/2+y,1/2+z
6 -x,1/2-y,1/2+z
7 1/2-x,1/2+y,1/2+z
8 1/2+x,1/2-y,1/2+z
_cell_length_a                   9.9503(6)
_cell_length_b                   16.2127(12)
_cell_length_c                   3.8233(3)
_cell_angle_alpha                90
_cell_angle_beta                 90
_cell_angle_gamma                90
_cell_volume                     616.779
_exptl_crystal_colour            colorless
_exptl_crystal_description       needle
_cell_formula_units_Z            4
loop_
_atom_site_label
_atom_site_type_symbol
_atom_site_fract_x
_atom_site_fract_y
_atom_site_fract_z
Cl1 Cl 0.4262(8) 0.6743(5) 0.545(2)
C1 C 0.2500 0.3962(7) 1.040(6)
N1 N 0.3614(3) 0.52351(17) 0.8138(13)
C2 C 0.2500 0.4809(3) 0.8911(16)
C3 C 0.3182(4) 0.5971(2) 0.6792(13)
Cl1B Cl 0.0738(8) 0.6743(5) 0.545(2)
N1B N 0.1386(3) 0.52351(17) 0.8138(13)
C3B C 0.1818(4) 0.5971(2) 0.6792(13)
Br1? Br 0.428(2) 0.6745(15) 0.495(11)
Br2? Br 0.2500 0.37357(12) 1.0606(13)
H1? H 0.3162 0.3929 1.2292
H2? H 0.2734 0.3565 0.8564
H3? H 0.1605 0.3834 1.1319
H4? H 0.4451 0.5075 0.8433
loop_
_geom_bond_atom_site_label_1
_geom_bond_atom_site_label_2
_geom_bond_site_symmetry_1
_geom_bond_site_symmetry_2
Cl1 C3 1_555 1_555
C1 C2 1_555 1_555
N1 C2 1_555 1_555
C2 N1B 1_555 1_555
C3 N1 1_555 1_555
Cl1B C3B 1_555 1_555
N1B C3B 1_555 1_555
C3B C3 1_555 1_555

#END
