
#######################################################################
#
#                 Cambridge Crystallographic Data Centre
#                                CCDC 
#
#######################################################################
#
# If this CIF has been generated from an entry in the Cambridge 
# Structural Database, then it will include bibliographic, chemical, 
# crystal, experimental, refinement or atomic coordinate data resulting 
# from the CCDC's data processing and validation procedures.
#
#######################################################################

data_OYEXIB
_chemical_formula_moiety         'C4 H4 Cl2 N2'
_chemical_name_systematic        4,5-dichloro-2-methyl-1H-imidazole
_symmetry_cell_setting           orthorhombic
_symmetry_space_group_name_H-M   'A m a 2'
_symmetry_Int_Tables_number      40
_space_group_name_Hall           'A 2 -2a'
loop_
_symmetry_equiv_pos_site_id
_symmetry_equiv_pos_as_xyz
1 x,y,z
2 -x,-y,z
3 1/2-x,y,z
4 1/2+x,-y,z
5 x,1/2+y,1/2+z
6 -x,1/2-y,1/2+z
7 1/2-x,1/2+y,1/2+z
8 1/2+x,1/2-y,1/2+z
_cell_length_a                   9.9314(8)
_cell_length_b                   15.9458(12)
_cell_length_c                   3.7868(3)
_cell_angle_alpha                90
_cell_angle_beta                 90
_cell_angle_gamma                90
_cell_volume                     599.693
_exptl_crystal_colour            colorless
_exptl_crystal_description       needle
_cell_formula_units_Z            4
loop_
_atom_site_label
_atom_site_type_symbol
_atom_site_fract_x
_atom_site_fract_y
_atom_site_fract_z
Cl1 Cl 0.57454(3) 0.17416(2) 0.20042(16)
C1 C 0.7500 -0.10708(12) -0.3014(9)
C2 C 0.7500 -0.02043(13) -0.1548(6)
N1 N 0.63838(13) 0.02295(8) -0.0763(4)
C3 C 0.68172(15) 0.09785(9) 0.0606(5)
Cl1B Cl 0.92546(3) 0.17416(2) 0.20042(16)
N1B N 0.86162(13) 0.02295(8) -0.0763(4)
C3B C 0.81828(15) 0.09785(9) 0.0606(5)
H1? H 0.7306 -0.1472 -0.1121
H2? H 0.8385 -0.1194 -0.4035
H3? H 0.6809 -0.1116 -0.4851
H4? H 0.5545 0.0067 -0.1065
loop_
_geom_bond_atom_site_label_1
_geom_bond_atom_site_label_2
_geom_bond_site_symmetry_1
_geom_bond_site_symmetry_2
Cl1 C3 1_555 1_555
C1 C2 1_555 1_555
C2 N1 1_555 1_555
N1 C3 1_555 1_555
C3 C3B 1_555 1_555
Cl1B C3B 1_555 1_555
N1B C2 1_555 1_555
C3B N1B 1_555 1_555

#END
