
#######################################################################
#
#                 Cambridge Crystallographic Data Centre
#                                CCDC 
#
#######################################################################
#
# If this CIF has been generated from an entry in the Cambridge 
# Structural Database, then it will include bibliographic, chemical, 
# crystal, experimental, refinement or atomic coordinate data resulting 
# from the CCDC's data processing and validation procedures.
#
#######################################################################

data_OYEXUN
_chemical_formula_moiety         '0.51(C4 H4 Br2 N2),0.49(C3 H1 Br3 N2)'
_chemical_name_systematic        
'4,5-dibromo-2-methyl-1H-imidazole 2,4,5-tribromo-1H-imidazole'
_symmetry_cell_setting           orthorhombic
_symmetry_space_group_name_H-M   'A m a 2'
_symmetry_Int_Tables_number      40
_space_group_name_Hall           'A 2 -2a'
loop_
_symmetry_equiv_pos_site_id
_symmetry_equiv_pos_as_xyz
1 x,y,z
2 -x,-y,z
3 1/2+x,-y,z
4 1/2-x,y,z
5 x,1/2+y,1/2+z
6 -x,1/2-y,1/2+z
7 1/2+x,1/2-y,1/2+z
8 1/2-x,1/2+y,1/2+z
_cell_length_a                   10.033(4)
_cell_length_b                   16.524(7)
_cell_length_c                   3.9323(15)
_cell_angle_alpha                90
_cell_angle_beta                 90
_cell_angle_gamma                90
_cell_volume                     651.918
_exptl_crystal_colour            colorless
_exptl_crystal_description       needle
_cell_formula_units_Z            4
loop_
_atom_site_label
_atom_site_type_symbol
_atom_site_fract_x
_atom_site_fract_y
_atom_site_fract_z
C1 C 0.2500 0.3995(8) 1.151(7)
Br1 Br 0.43116(3) 0.67236(2) 0.64295(10)
C2 C 0.2500 0.4808(3) 1.0163(18)
C3 C 0.3167(4) 0.5931(2) 0.8028(12)
N1 N 0.3600(3) 0.52133(18) 0.9387(11)
Br1C Br 0.06884(3) 0.67236(2) 0.64295(10)
C3C C 0.1833(4) 0.5931(2) 0.8028(12)
N1C N 0.1400(3) 0.52133(18) 0.9387(11)
Br2? Br 0.2500 0.37811(6) 1.1886(6)
H1? H 0.3416 0.3831 1.2030
H2? H 0.2121 0.3624 0.9822
H3? H 0.1963 0.3977 1.3590
H4? H 0.4429 0.5056 0.9683
loop_
_geom_bond_atom_site_label_1
_geom_bond_atom_site_label_2
_geom_bond_site_symmetry_1
_geom_bond_site_symmetry_2
C1 C2 1_555 1_555
Br1 C3 1_555 1_555
C2 N1 1_555 1_555
C3 N1 1_555 1_555
Br1C C3C 1_555 1_555
C3C C3 1_555 1_555
N1C C2 1_555 1_555
C3C N1C 1_555 1_555

#END
