
#######################################################################
#
#                 Cambridge Crystallographic Data Centre
#                                CCDC 
#
#######################################################################
#
# If this CIF has been generated from an entry in the Cambridge 
# Structural Database, then it will include bibliographic, chemical, 
# crystal, experimental, refinement or atomic coordinate data resulting 
# from the CCDC's data processing and validation procedures.
#
#######################################################################

data_OYEYIC
_chemical_formula_moiety         'C4 H4 I2 N2'
_chemical_name_systematic        4,5-diiodo-2-methyl-1H-imidazole
_symmetry_cell_setting           orthorhombic
_symmetry_space_group_name_H-M   'A m a 2'
_symmetry_Int_Tables_number      40
_space_group_name_Hall           'A 2 -2a'
loop_
_symmetry_equiv_pos_site_id
_symmetry_equiv_pos_as_xyz
1 x,y,z
2 -x,-y,z
3 1/2-x,y,z
4 1/2+x,-y,z
5 x,1/2+y,1/2+z
6 -x,1/2-y,1/2+z
7 1/2-x,1/2+y,1/2+z
8 1/2+x,1/2-y,1/2+z
_cell_length_a                   10.1538(3)
_cell_length_b                   17.6311(6)
_cell_length_c                   4.4158(2)
_cell_angle_alpha                90
_cell_angle_beta                 90
_cell_angle_gamma                90
_cell_volume                     790.528
_exptl_crystal_colour            colorless
_exptl_crystal_description       needle
_cell_formula_units_Z            4
loop_
_atom_site_label
_atom_site_type_symbol
_atom_site_fract_x
_atom_site_fract_y
_atom_site_fract_z
I1 I 0.44008(3) 0.33163(2) 0.0955(3)
C1 C 0.2500 0.5158(4) 0.4912(16)
N1 N 0.3589(4) 0.4780(2) 0.4076(10)
C2 C 0.3170(4) 0.4131(3) 0.2705(11)
C3 C 0.2500 0.5898(5) 0.648(2)
I1B I 0.05992(3) 0.33163(2) 0.0955(3)
N1B N 0.1411(4) 0.4780(2) 0.4076(10)
C2B C 0.1830(4) 0.4131(3) 0.2705(11)
H1? H 0.4401 0.4921 0.4355
H2? H 0.2880 0.5839 0.8484
H3? H 0.1603 0.6081 0.6665
H4? H 0.3017 0.6259 0.5328
loop_
_geom_bond_atom_site_label_1
_geom_bond_atom_site_label_2
_geom_bond_site_symmetry_1
_geom_bond_site_symmetry_2
I1 C2 1_555 1_555
C1 N1 1_555 1_555
N1 C2 1_555 1_555
C2 C2B 1_555 1_555
C3 C1 1_555 1_555
I1B C2B 1_555 1_555
N1B C1 1_555 1_555
C2B N1B 1_555 1_555

#END
