
#######################################################################
#
#                 Cambridge Crystallographic Data Centre
#                                CCDC 
#
#######################################################################
#
# If this CIF has been generated from an entry in the Cambridge 
# Structural Database, then it will include bibliographic, chemical, 
# crystal, experimental, refinement or atomic coordinate data resulting 
# from the CCDC's data processing and validation procedures.
#
#######################################################################

data_OYEYAU
_chemical_formula_moiety         '0.69(C4 H4 Br2 N2),0.31(C3 H1 Br1 Cl2 N2)'
_chemical_name_systematic        4,5-dibromo-2-methyl-1H-imidazole
_symmetry_cell_setting           orthorhombic
_symmetry_space_group_name_H-M   'A m a 2'
_symmetry_Int_Tables_number      40
_space_group_name_Hall           'A 2 -2a'
loop_
_symmetry_equiv_pos_site_id
_symmetry_equiv_pos_as_xyz
1 x,y,z
2 -x,-y,z
3 1/2-x,y,z
4 1/2+x,-y,z
5 x,1/2+y,1/2+z
6 -x,1/2-y,1/2+z
7 1/2-x,1/2+y,1/2+z
8 1/2+x,1/2-y,1/2+z
_cell_length_a                   10.0268(6)
_cell_length_b                   16.4133(10)
_cell_length_c                   3.9226(2)
_cell_angle_alpha                90
_cell_angle_beta                 90
_cell_angle_gamma                90
_cell_volume                     645.554
_exptl_crystal_colour            colorless
_exptl_crystal_description       needle
_cell_formula_units_Z            4
loop_
_atom_site_label
_atom_site_type_symbol
_atom_site_fract_x
_atom_site_fract_y
_atom_site_fract_z
Br1 Br 0.4298(7) 0.6718(4) 0.2378(14)
C1 C 0.2500 0.3958(10) 0.766(11)
N1 N 0.3606(2) 0.52209(14) 0.5342(11)
C2 C 0.2500 0.4803(3) 0.6122(13)
C3 C 0.3173(3) 0.59429(17) 0.3973(11)
Br1B Br 0.0702(7) 0.6718(4) 0.2378(14)
N1B N 0.1394(2) 0.52209(14) 0.5342(11)
C3B C 0.1827(3) 0.59429(17) 0.3973(11)
Cl1? Cl 0.434(3) 0.6765(17) 0.264(8)
Br2? Br 0.2500 0.38064(15) 0.7777(16)
H1? H 0.4438 0.5065 0.5645
H2? H 0.2810 0.3564 0.5962
H3? H 0.1593 0.3816 0.8382
H4? H 0.3096 0.3947 0.9641
loop_
_geom_bond_atom_site_label_1
_geom_bond_atom_site_label_2
_geom_bond_site_symmetry_1
_geom_bond_site_symmetry_2
Br1 C3 1_555 1_555
C1 C2 1_555 1_555
N1 C2 1_555 1_555
C2 N1B 1_555 1_555
C3 N1 1_555 1_555
Br1B C3B 1_555 1_555
N1B C3B 1_555 1_555
C3B C3 1_555 1_555

#END
