
#######################################################################
#
#                 Cambridge Crystallographic Data Centre
#                                CCDC 
#
#######################################################################
#
# If this CIF has been generated from an entry in the Cambridge 
# Structural Database, then it will include bibliographic, chemical, 
# crystal, experimental, refinement or atomic coordinate data resulting 
# from the CCDC's data processing and validation procedures.
#
#######################################################################

data_OYEZEZ
_chemical_formula_moiety         'C3 H1 Br1 Cl2 N2'
_chemical_name_systematic        2-bromo-4,5-dichloro-1H-imidazole
_symmetry_cell_setting           orthorhombic
_symmetry_space_group_name_H-M   'A m a 2'
_symmetry_Int_Tables_number      40
_space_group_name_Hall           'A 2 -2a'
loop_
_symmetry_equiv_pos_site_id
_symmetry_equiv_pos_as_xyz
1 x,y,z
2 -x,-y,z
3 1/2-x,y,z
4 1/2+x,-y,z
5 x,1/2+y,1/2+z
6 -x,1/2-y,1/2+z
7 1/2-x,1/2+y,1/2+z
8 1/2+x,1/2-y,1/2+z
_cell_length_a                   9.9391(8)
_cell_length_b                   16.2112(15)
_cell_length_c                   3.8016(3)
_cell_angle_alpha                90
_cell_angle_beta                 90
_cell_angle_gamma                90
_cell_volume                     612.532
_exptl_crystal_colour            colorless
_exptl_crystal_description       needle
_cell_formula_units_Z            4
loop_
_atom_site_label
_atom_site_type_symbol
_atom_site_fract_x
_atom_site_fract_y
_atom_site_fract_z
Br1 Br 0.7500 0.62215(7) 0.1507(4)
Cl1 Cl 0.57446(17) 0.32617(11) 0.6824(6)
N1 N 0.6376(7) 0.4757(5) 0.407(2)
C1 C 0.6824(8) 0.4017(5) 0.543(2)
C2 C 0.7500 0.5171(7) 0.332(3)
Cl1B Cl 0.92554(17) 0.32617(11) 0.6824(6)
N1B N 0.8624(7) 0.4757(5) 0.407(2)
C1B C 0.8176(8) 0.4017(5) 0.543(2)
H1? H 0.5539 0.4920 0.3777
loop_
_geom_bond_atom_site_label_1
_geom_bond_atom_site_label_2
_geom_bond_site_symmetry_1
_geom_bond_site_symmetry_2
Br1 C2 1_555 1_555
Cl1 C1 1_555 1_555
N1 C1 1_555 1_555
C1 C1B 1_555 1_555
C2 N1 1_555 1_555
Cl1B C1B 1_555 1_555
N1B C2 1_555 1_555
C1B N1B 1_555 1_555

#END
