
#######################################################################
#
#                 Cambridge Crystallographic Data Centre
#                                CCDC 
#
#######################################################################
#
# If this CIF has been generated from an entry in the Cambridge 
# Structural Database, then it will include bibliographic, chemical, 
# crystal, experimental, refinement or atomic coordinate data resulting 
# from the CCDC's data processing and validation procedures.
#
#######################################################################

data_OYEZOJ
_chemical_formula_moiety         'C4 H4 Br2 N2'
_chemical_name_systematic        2,4-dibromo-5-methyl-1H-imidazole
_symmetry_cell_setting           orthorhombic
_symmetry_space_group_name_H-M   'A m a 2'
_symmetry_Int_Tables_number      40
_space_group_name_Hall           'A 2 -2a'
loop_
_symmetry_equiv_pos_site_id
_symmetry_equiv_pos_as_xyz
1 x,y,z
2 -x,-y,z
3 1/2-x,y,z
4 1/2+x,-y,z
5 x,1/2+y,1/2+z
6 -x,1/2-y,1/2+z
7 1/2-x,1/2+y,1/2+z
8 1/2+x,1/2-y,1/2+z
_cell_length_a                   10.0665(5)
_cell_length_b                   16.6713(9)
_cell_length_c                   3.8891(2)
_cell_angle_alpha                90
_cell_angle_beta                 90
_cell_angle_gamma                90
_cell_volume                     652.675
_exptl_crystal_colour            colorless
_exptl_crystal_description       needle
_cell_formula_units_Z            4
loop_
_atom_site_label
_atom_site_type_symbol
_atom_site_fract_x
_atom_site_fract_y
_atom_site_fract_z
Br1 Br 0.2500 0.61896(2) 0.61949(2)
C1 C 0.4205(8) 0.3456(4) 0.081(3)
C2 C 0.3170(2) 0.40541(13) 0.2192(6)
C3 C 0.2500 0.51666(18) 0.4318(8)
N1 N 0.36025(18) 0.47680(12) 0.3566(6)
C1B C 0.0795(8) 0.3456(4) 0.081(3)
C2B C 0.1830(2) 0.40541(13) 0.2192(6)
N1B N 0.13975(18) 0.47680(12) 0.3566(6)
H1? H 0.3775 0.2939 0.0360
H2? H 0.4911 0.3384 0.2513
H3? H 0.4586 0.3664 -0.1333
H4? H 0.4428 0.4925 0.3877
Br2? Br 0.42218(7) 0.32369(2) 0.0800(2)
loop_
_geom_bond_atom_site_label_1
_geom_bond_atom_site_label_2
_geom_bond_site_symmetry_1
_geom_bond_site_symmetry_2
Br1 C3 1_555 1_555
C1 C2 1_555 1_555
C2 N1 1_555 1_555
C3 N1 1_555 1_555
C1B C2B 1_555 1_555
C2B C2 1_555 1_555
N1B C3 1_555 1_555
C2B N1B 1_555 1_555

#END
