
#######################################################################
#
#                 Cambridge Crystallographic Data Centre
#                                CCDC 
#
#######################################################################
#
# If this CIF has been generated from an entry in the Cambridge 
# Structural Database, then it will include bibliographic, chemical, 
# crystal, experimental, refinement or atomic coordinate data resulting 
# from the CCDC's data processing and validation procedures.
#
#######################################################################

data_OYEZID
_chemical_formula_moiety         'C3 H1 Br2 Cl1 N2'
_chemical_name_systematic        2,4-dibromo-5-chloro-1H-imidazole
_symmetry_cell_setting           orthorhombic
_symmetry_space_group_name_H-M   'A m a 2'
_symmetry_Int_Tables_number      40
_space_group_name_Hall           'A 2 -2a'
loop_
_symmetry_equiv_pos_site_id
_symmetry_equiv_pos_as_xyz
1 x,y,z
2 -x,-y,z
3 1/2+x,-y,z
4 1/2-x,y,z
5 x,1/2+y,1/2+z
6 -x,1/2-y,1/2+z
7 1/2+x,1/2-y,1/2+z
8 1/2-x,1/2+y,1/2+z
_cell_length_a                   10.0186(7)
_cell_length_b                   16.4996(8)
_cell_length_c                   3.8923(2)
_cell_angle_alpha                90
_cell_angle_beta                 90
_cell_angle_gamma                90
_cell_volume                     643.408
_exptl_crystal_colour            colorless
_exptl_crystal_description       needle
_cell_formula_units_Z            4
loop_
_atom_site_label
_atom_site_type_symbol
_atom_site_fract_x
_atom_site_fract_y
_atom_site_fract_z
Br1 Br 0.7500 0.62086(5) 0.21765(2)
Br2 Br 0.5680(11) 0.3239(8) 0.762(5)
C1 C 0.6825(7) 0.4042(3) 0.6126(13)
N1 N 0.6386(6) 0.4763(3) 0.4775(14)
C2 C 0.7500 0.5170(5) 0.4011(19)
Br2C Br 0.9320(11) 0.3239(8) 0.762(5)
C1C C 0.8175(7) 0.4042(3) 0.6126(13)
N1C N 0.8614(6) 0.4763(3) 0.4775(14)
H1? H 0.5556 0.4922 0.4477
Cl1? Cl 0.585(3) 0.3294(18) 0.768(13)
loop_
_geom_bond_atom_site_label_1
_geom_bond_atom_site_label_2
_geom_bond_site_symmetry_1
_geom_bond_site_symmetry_2
Br1 C2 1_555 1_555
Br2 C1 1_555 1_555
C1 N1 1_555 1_555
N1 C2 1_555 1_555
C2 N1C 1_555 1_555
Br2C C1C 1_555 1_555
C1C C1 1_555 1_555
N1C C1C 1_555 1_555

#END
