
#######################################################################
#
#                 Cambridge Crystallographic Data Centre
#                                CCDC 
#
#######################################################################
#
# If this CIF has been generated from an entry in the Cambridge 
# Structural Database, then it will include bibliographic, chemical, 
# crystal, experimental, refinement or atomic coordinate data resulting 
# from the CCDC's data processing and validation procedures.
#
#######################################################################

data_OYIDAC
_chemical_formula_moiety         'C12 H21 B1 N2 Si1,0.5(C10 F8)'
_chemical_name_systematic        
'1-(t-Butyl(dimethyl)silyl)-1H-[1,3,2]diazaborolo[1,2-a][1,2]azaborinine hemikis(octafluoronaphthalene)'
_symmetry_cell_setting           triclinic
_symmetry_space_group_name_H-M   'P -1'
_symmetry_Int_Tables_number      2
_space_group_name_Hall           '-P 1'
loop_
_symmetry_equiv_pos_site_id
_symmetry_equiv_pos_as_xyz
1 x,y,z
2 -x,-y,-z
_cell_length_a                   7.091(4)
_cell_length_b                   11.046(6)
_cell_length_c                   13.008(7)
_cell_angle_alpha                104.199(9)
_cell_angle_beta                 99.358(9)
_cell_angle_gamma                107.318(8)
_cell_volume                     911.905
_exptl_crystal_colour            colorless
_exptl_crystal_description       plate
_cell_formula_units_Z            2
loop_
_atom_site_label
_atom_site_type_symbol
_atom_site_fract_x
_atom_site_fract_y
_atom_site_fract_z
Si1 Si 0.2185(2) 0.99725(16) 0.72684(13)
N1 N 0.2399(7) 0.6569(5) 0.7837(4)
N2 N 0.2415(6) 0.8465(4) 0.7367(4)
B1 B 0.1385(10) 0.7528(6) 0.7875(5)
C1 C 0.1891(12) 0.5535(7) 0.8239(5)
C2 C 0.0232(13) 0.5365(8) 0.8692(5)
C3 C -0.0844(12) 0.6238(7) 0.8775(5)
C4 C -0.0398(9) 0.7301(7) 0.8409(5)
C5 C 0.3964(10) 0.6939(7) 0.7315(5)
C6 C 0.3956(9) 0.8007(7) 0.7058(5)
C7 C 0.3112(13) 1.0329(8) 0.6074(5)
C8 C -0.0553(11) 0.9780(8) 0.7038(7)
C9 C 0.3747(9) 1.1360(6) 0.8570(5)
C10 C 0.3540(15) 1.2672(7) 0.8510(7)
C11 C 0.3019(13) 1.1030(8) 0.9551(6)
C12 C 0.5989(12) 1.1483(9) 0.8736(7)
H1 H -0.125(9) 0.777(6) 0.839(5)
H2 H -0.083(11) 1.054(8) 0.674(7)
H3 H 0.476(8) 0.652(5) 0.731(4)
H4 H 0.479(8) 0.853(5) 0.673(4)
H5 H 0.262(12) 0.489(8) 0.826(7)
H6 H 0.615(10) 1.063(7) 0.892(6)
H7 H 0.316(10) 1.008(7) 0.960(6)
H8 H 0.166(9) 1.110(5) 0.947(4)
H9 H 0.384(11) 1.301(7) 0.779(7)
H10 H 0.204(12) 1.260(7) 0.832(6)
H11 H 0.022(8) 0.477(5) 0.893(4)
H12 H 0.438(10) 1.022(6) 0.610(5)
H13 H 0.293(12) 1.117(9) 0.590(7)
H14 H 0.655(9) 1.170(6) 0.828(6)
H15 H -0.198(10) 0.600(6) 0.899(6)
H16 H 0.694(12) 1.210(8) 0.944(7)
H17 H 0.430(9) 1.327(6) 0.915(5)
H18 H 0.385(11) 1.159(8) 1.027(7)
H19 H -0.090(10) 0.964(7) 0.756(6)
H20 H 0.239(10) 0.966(7) 0.533(6)
H21 H -0.144(15) 0.890(10) 0.642(9)
C13 C 0.0005(9) 0.6435(6) 0.4511(5)
C14 C 0.1587(9) 0.6549(6) 0.4000(5)
C15 C 0.2610(9) 0.5672(6) 0.3973(5)
C16 C 0.2115(9) 0.4683(6) 0.4414(5)
C17 C 0.0536(8) 0.4547(5) 0.4981(4)
F1 F -0.1004(6) 0.7293(4) 0.4486(3)
F2 F 0.2046(6) 0.7476(4) 0.3502(3)
F3 F 0.4161(5) 0.5813(3) 0.3469(3)
F4 F 0.3158(5) 0.3843(3) 0.4366(3)
C13A C -0.0005(9) 0.3565(6) 0.5489(5)
C14A C -0.1587(9) 0.3451(6) 0.6000(5)
C15A C -0.2610(9) 0.4328(6) 0.6027(5)
C16A C -0.2115(9) 0.5317(6) 0.5586(5)
C17A C -0.0536(8) 0.5453(5) 0.5019(4)
F1A F 0.1004(6) 0.2707(4) 0.5514(3)
F2A F -0.2046(6) 0.2524(4) 0.6498(3)
F3A F -0.4161(5) 0.4187(3) 0.6531(3)
F4A F -0.3158(5) 0.6157(3) 0.5634(3)
loop_
_geom_bond_atom_site_label_1
_geom_bond_atom_site_label_2
_geom_bond_site_symmetry_1
_geom_bond_site_symmetry_2
Si1 N2 1_555 1_555
N1 B1 1_555 1_555
N2 B1 1_555 1_555
B1 C4 1_555 1_555
C1 N1 1_555 1_555
C2 C1 1_555 1_555
C3 C2 1_555 1_555
C4 C3 1_555 1_555
C5 N1 1_555 1_555
C6 N2 1_555 1_555
C7 Si1 1_555 1_555
C8 Si1 1_555 1_555
C9 Si1 1_555 1_555
C10 C9 1_555 1_555
C11 C9 1_555 1_555
C12 C9 1_555 1_555
C13 C14 1_555 1_555
C14 C15 1_555 1_555
C15 C16 1_555 1_555
C16 C17 1_555 1_555
C17 C13A 1_555 1_555
F1 C13 1_555 1_555
F2 C14 1_555 1_555
F3 C15 1_555 1_555
F4 C16 1_555 1_555
H1 C4 1_555 1_555
H2 C8 1_555 1_555
H3 C5 1_555 1_555
H4 C6 1_555 1_555
H5 C1 1_555 1_555
H6 C12 1_555 1_555
H7 C11 1_555 1_555
H8 C11 1_555 1_555
H9 C10 1_555 1_555
H10 C10 1_555 1_555
H11 C2 1_555 1_555
H12 C7 1_555 1_555
H13 C7 1_555 1_555
H14 C12 1_555 1_555
H15 C3 1_555 1_555
H16 C12 1_555 1_555
H17 C10 1_555 1_555
H18 C11 1_555 1_555
H19 C8 1_555 1_555
H20 C7 1_555 1_555
H21 C8 1_555 1_555
C13A C14A 1_555 1_555
C14A C15A 1_555 1_555
C15A C16A 1_555 1_555
C16A C17A 1_555 1_555
C17A C13 1_555 1_555
F1A C13A 1_555 1_555
F2A C14A 1_555 1_555
F3A C15A 1_555 1_555
F4A C16A 1_555 1_555
C5 C6 1_555 1_555
C17 C17A 1_555 1_555

#END
