
#######################################################################
#
#                 Cambridge Crystallographic Data Centre
#                                CCDC 
#
#######################################################################
#
# If this CIF has been generated from an entry in the Cambridge 
# Structural Database, then it will include bibliographic, chemical, 
# crystal, experimental, refinement or atomic coordinate data resulting 
# from the CCDC's data processing and validation procedures.
#
#######################################################################

data_OYIPUI
_chemical_formula_moiety         'C14 H25 N1 O4'
_chemical_name_systematic        
(2R,3aR,6R,7R,7aS)-4-Cyclohexyl-2-methyloctahydrofuro[3,2-b]pyridine-2,6,7-triol
_symmetry_cell_setting           monoclinic
_symmetry_space_group_name_H-M   'P 21'
_symmetry_Int_Tables_number      4
_space_group_name_Hall           'P 2yb'
loop_
_symmetry_equiv_pos_site_id
_symmetry_equiv_pos_as_xyz
1 x,y,z
2 -x,1/2+y,-z
_cell_length_a                   9.3406(6)
_cell_length_b                   6.3583(3)
_cell_length_c                   12.7290(7)
_cell_angle_alpha                90
_cell_angle_beta                 109.519(6)
_cell_angle_gamma                90
_cell_volume                     712.534
_exptl_crystal_colour            colorless
_exptl_crystal_description       block
_chemical_melting_point          '102-104 deg.C'
_cell_formula_units_Z            2
_exptl_crystal_recrystallization_method n-hexane/acetone
loop_
_atom_site_label
_atom_site_type_symbol
_atom_site_fract_x
_atom_site_fract_y
_atom_site_fract_z
O1 O 0.87458(16) 0.0941(2) 0.99747(11)
O2 O 1.09789(16) 0.1225(2) 0.89515(12)
H1 H 1.1405 0.0262 0.9367
O3 O 0.86938(19) 0.4297(2) 0.81770(13)
H2 H 0.9532 0.4508 0.8643
O4 O 0.68128(19) 0.3355(2) 0.97471(13)
H3 H 0.6730 0.3484 0.9088
N1 N 0.62436(18) 0.1393(3) 0.76224(13)
C1 C 0.6846(2) -0.0436(4) 0.83594(17)
H4 H 0.6576 -0.1764 0.7950
C2 C 0.8562(2) -0.0294(4) 0.89815(17)
H5 H 0.8934 -0.1718 0.9218
C3 C 0.9484(3) 0.0586(3) 0.83002(19)
H6 H 0.9586 -0.0537 0.7803
C4 C 0.8740(3) 0.2439(4) 0.75739(18)
H7 H 0.9299 0.2737 0.7061
C5 C 0.7140(2) 0.1853(4) 0.69018(17)
H8 H 0.6671 0.3001 0.6404
H9 H 0.7150 0.0628 0.6450
C6 C 0.6276(3) -0.0373(4) 0.93613(18)
H10 H 0.5217 0.0041 0.9135
H11 H 0.6399 -0.1727 0.9731
C7 C 0.7294(2) 0.1275(4) 1.01059(17)
C8 C 0.4586(2) 0.1252(3) 0.70063(16)
H12 H 0.4109 0.0870 0.7558
C9 C 0.4101(3) -0.0414(4) 0.6099(2)
H13 H 0.4495 -0.1772 0.6410
H14 H 0.4520 -0.0081 0.5517
C10 C 0.2366(3) -0.0524(5) 0.5599(2)
H15 H 0.2079 -0.1566 0.5009
H16 H 0.1951 -0.0956 0.6170
C11 C 0.1713(3) 0.1571(5) 0.5138(2)
H17 H 0.0613 0.1483 0.4860
H18 H 0.2051 0.1943 0.4520
C12 C 0.2206(3) 0.3254(5) 0.6026(3)
H19 H 0.1774 0.2960 0.6606
H20 H 0.1823 0.4608 0.5700
C13 C 0.3927(3) 0.3354(4) 0.6536(2)
H21 H 0.4352 0.3785 0.5971
H22 H 0.4206 0.4398 0.7125
C14 C 0.7454(3) 0.1133(4) 1.13210(18)
H23 H 0.7793 -0.0252 1.1593
H24 H 0.6490 0.1406 1.1409
H25 H 0.8182 0.2153 1.1736
loop_
_geom_bond_atom_site_label_1
_geom_bond_atom_site_label_2
_geom_bond_site_symmetry_1
_geom_bond_site_symmetry_2
O1 C2 1_555 1_555
O2 H1 1_555 1_555
O3 H2 1_555 1_555
O4 H3 1_555 1_555
N1 C1 1_555 1_555
C1 H4 1_555 1_555
C2 C1 1_555 1_555
H5 C2 1_555 1_555
C3 O2 1_555 1_555
H6 C3 1_555 1_555
C4 O3 1_555 1_555
H7 C4 1_555 1_555
C5 N1 1_555 1_555
H8 C5 1_555 1_555
H9 C5 1_555 1_555
C6 C1 1_555 1_555
H10 C6 1_555 1_555
H11 C6 1_555 1_555
C7 O1 1_555 1_555
C8 N1 1_555 1_555
H12 C8 1_555 1_555
C9 C8 1_555 1_555
H13 C9 1_555 1_555
H14 C9 1_555 1_555
C10 C9 1_555 1_555
H15 C10 1_555 1_555
H16 C10 1_555 1_555
C11 C10 1_555 1_555
H17 C11 1_555 1_555
H18 C11 1_555 1_555
C12 C11 1_555 1_555
H19 C12 1_555 1_555
H20 C12 1_555 1_555
C13 C8 1_555 1_555
H21 C13 1_555 1_555
H22 C13 1_555 1_555
C14 C7 1_555 1_555
H23 C14 1_555 1_555
H24 C14 1_555 1_555
H25 C14 1_555 1_555
O4 C7 1_555 1_555
C2 C3 1_555 1_555
C3 C4 1_555 1_555
C4 C5 1_555 1_555
C6 C7 1_555 1_555
C12 C13 1_555 1_555

#END
