
#######################################################################
#
#                 Cambridge Crystallographic Data Centre
#                                CCDC 
#
#######################################################################
#
# If this CIF has been generated from an entry in the Cambridge 
# Structural Database, then it will include bibliographic, chemical, 
# crystal, experimental, refinement or atomic coordinate data resulting 
# from the CCDC's data processing and validation procedures.
#
#######################################################################

data_OYIQOE
_chemical_formula_moiety         'C31 H27 N1 O6 S1'
_chemical_name_systematic        
N-benzyl-N-(8-(4-methoxyphenyl)-8H-[1,3]dioxolo[4,5-g]chromen-6-yl)-4-methylbenzenesulfonamide
_symmetry_cell_setting           triclinic
_symmetry_space_group_name_H-M   'P -1'
_symmetry_Int_Tables_number      2
_space_group_name_Hall           '-P 1'
loop_
_symmetry_equiv_pos_site_id
_symmetry_equiv_pos_as_xyz
1 x,y,z
2 -x,-y,-z
_cell_length_a                   9.6744(19)
_cell_length_b                   11.557(2)
_cell_length_c                   12.090(2)
_cell_angle_alpha                86.67(3)
_cell_angle_beta                 80.45(3)
_cell_angle_gamma                87.22(3)
_cell_volume                     1329.73
_exptl_crystal_colour            colorless
_exptl_crystal_description       block
_cell_formula_units_Z            2
loop_
_atom_site_label
_atom_site_type_symbol
_atom_site_fract_x
_atom_site_fract_y
_atom_site_fract_z
S1 S 0.47892(9) 0.62903(7) 0.11518(7)
O1 O 1.0642(2) 0.9961(2) 0.1652(2)
O2 O 0.9793(2) 1.1664(2) 0.0857(2)
O3 O 0.6117(2) 0.82924(18) 0.24231(18)
O4 O 0.4891(3) 0.7009(2) 0.01440(19)
O5 O 0.3848(3) 0.5360(2) 0.1347(2)
O6 O 0.2455(3) 1.2996(2) 0.5415(2)
N1 N 0.4276(3) 0.7179(2) 0.2190(2)
C1 C 1.1010(4) 1.1062(4) 0.1143(4)
H1 H 1.1703 1.0968 0.0473
H2 H 1.1415 1.1505 0.1658
C2 C 0.8704(3) 1.0935(3) 0.1219(3)
C3 C 0.7314(3) 1.1127(3) 0.1160(2)
H3 H 0.6985 1.1818 0.0842
C4 C 0.6396(3) 1.0244(3) 0.1596(2)
C5 C 0.6944(3) 0.9221(3) 0.2039(2)
C6 C 0.8368(3) 0.9039(3) 0.2103(3)
H4 H 0.8715 0.8351 0.2412
C7 C 0.9221(3) 0.9919(3) 0.1688(3)
C8 C 0.4815(3) 1.0410(2) 0.1634(2)
H5 H 0.4644 1.0833 0.0941
C9 C 0.4191(3) 0.9240(3) 0.1684(2)
H6 H 0.3337 0.9175 0.1440
C10 C 0.4827(3) 0.8304(3) 0.2066(2)
C11 C 0.4152(3) 1.1121(2) 0.2633(3)
C12 C 0.3814(3) 1.2291(3) 0.2491(3)
H7 H 0.3976 1.2645 0.1774
C13 C 0.3240(3) 1.2950(3) 0.3390(3)
H8 H 0.3024 1.3736 0.3273
C14 C 0.2993(3) 1.2434(3) 0.4458(3)
C15 C 0.3320(4) 1.1265(3) 0.4613(3)
H9 H 0.3161 1.0912 0.5332
C16 C 0.3881(4) 1.0616(3) 0.3712(3)
H10 H 0.4079 0.9828 0.3830
C17 C 0.2015(7) 1.4169(4) 0.5286(4)
H11 H 0.2812 1.4624 0.4995
H12 H 0.1581 1.4441 0.6002
H13 H 0.1352 1.4242 0.4774
C18 C 0.4064(4) 0.6647(3) 0.3341(3)
H14 H 0.4943 0.6626 0.3631
H15 H 0.3781 0.5855 0.3327
C19 C 0.2963(4) 0.7316(3) 0.4108(3)
C20 C 0.3242(4) 0.7672(3) 0.5116(3)
H16 H 0.4112 0.7491 0.5327
C21 C 0.2232(5) 0.8299(4) 0.5815(3)
H17 H 0.2429 0.8536 0.6492
C22 C 0.0960(5) 0.8567(4) 0.5519(4)
H18 H 0.0283 0.8977 0.5997
C23 C 0.0670(5) 0.8236(5) 0.4517(4)
H19 H -0.0200 0.8426 0.4312
C24 C 0.1668(4) 0.7620(4) 0.3812(3)
H20 H 0.1469 0.7406 0.3128
C25 C 0.7639(4) 0.6354(3) 0.0917(3)
H21 H 0.7548 0.7061 0.0523
C26 C 0.9115(4) 0.4892(4) 0.1685(3)
C27 C 0.7937(4) 0.4252(3) 0.2044(3)
H22 H 0.8032 0.3532 0.2414
C28 C 0.6625(4) 0.4660(3) 0.1862(3)
H23 H 0.5846 0.4218 0.2113
C29 C 0.6470(3) 0.5720(3) 0.1311(3)
C30 C 1.0526(5) 0.4456(5) 0.1943(5)
H24 H 1.1198 0.4465 0.1263
H25 H 1.0457 0.3677 0.2265
H26 H 1.0822 0.4947 0.2467
C31 C 0.8935(5) 0.5941(4) 0.1108(3)
H27 H 0.9714 0.6379 0.0842
loop_
_geom_bond_atom_site_label_1
_geom_bond_atom_site_label_2
_geom_bond_site_symmetry_1
_geom_bond_site_symmetry_2
S1 O4 1_555 1_555
O1 C1 1_555 1_555
O2 C1 1_555 1_555
O3 C5 1_555 1_555
O5 S1 1_555 1_555
O6 C14 1_555 1_555
N1 S1 1_555 1_555
C1 H1 1_555 1_555
H2 C1 1_555 1_555
C2 O2 1_555 1_555
C3 C2 1_555 1_555
H3 C3 1_555 1_555
C4 C3 1_555 1_555
C5 C4 1_555 1_555
C6 C5 1_555 1_555
H4 C6 1_555 1_555
C7 O1 1_555 1_555
C8 C4 1_555 1_555
H5 C8 1_555 1_555
C9 C8 1_555 1_555
H6 C9 1_555 1_555
C10 O3 1_555 1_555
C11 C8 1_555 1_555
C12 C11 1_555 1_555
H7 C12 1_555 1_555
C13 C12 1_555 1_555
H8 C13 1_555 1_555
C14 C13 1_555 1_555
C15 C14 1_555 1_555
H9 C15 1_555 1_555
C16 C11 1_555 1_555
H10 C16 1_555 1_555
C17 O6 1_555 1_555
H11 C17 1_555 1_555
H12 C17 1_555 1_555
H13 C17 1_555 1_555
C18 N1 1_555 1_555
H14 C18 1_555 1_555
H15 C18 1_555 1_555
C19 C18 1_555 1_555
C20 C19 1_555 1_555
H16 C20 1_555 1_555
C21 C20 1_555 1_555
H17 C21 1_555 1_555
C22 C21 1_555 1_555
H18 C22 1_555 1_555
C23 C22 1_555 1_555
H19 C23 1_555 1_555
C24 C19 1_555 1_555
H20 C24 1_555 1_555
C25 H21 1_555 1_555
C26 C27 1_555 1_555
C27 H22 1_555 1_555
C28 C27 1_555 1_555
H23 C28 1_555 1_555
C29 S1 1_555 1_555
C30 C26 1_555 1_555
H24 C30 1_555 1_555
H25 C30 1_555 1_555
H26 C30 1_555 1_555
C31 C25 1_555 1_555
H27 C31 1_555 1_555
N1 C10 1_555 1_555
C2 C7 1_555 1_555
C6 C7 1_555 1_555
C9 C10 1_555 1_555
C15 C16 1_555 1_555
C23 C24 1_555 1_555
C25 C29 1_555 1_555
C26 C31 1_555 1_555
C28 C29 1_555 1_555

#END
