
#######################################################################
#
#                 Cambridge Crystallographic Data Centre
#                                CCDC 
#
#######################################################################
#
# If this CIF has been generated from an entry in the Cambridge 
# Structural Database, then it will include bibliographic, chemical, 
# crystal, experimental, refinement or atomic coordinate data resulting 
# from the CCDC's data processing and validation procedures.
#
#######################################################################

data_OYITEW
_chemical_formula_moiety         'C12 H4 N4 1-,C6 H8 N3 1+'
_chemical_name_systematic        
'1-(Cyanomethyl)-3-methylimidazolium tetracyanoquinodimethane radical anion'
_symmetry_cell_setting           triclinic
_symmetry_space_group_name_H-M   'P -1'
_symmetry_Int_Tables_number      2
_space_group_name_Hall           '-P 1'
loop_
_symmetry_equiv_pos_site_id
_symmetry_equiv_pos_as_xyz
1 x,y,z
2 -x,-y,-z
_cell_length_a                   7.6107(4)
_cell_length_b                   7.6170(4)
_cell_length_c                   15.1492(9)
_cell_angle_alpha                90.277(3)
_cell_angle_beta                 91.989(2)
_cell_angle_gamma                116.4250(10)
_cell_volume                     785.777
_exptl_crystal_colour            'dark green'
_exptl_crystal_description       plane
_cell_formula_units_Z            2
loop_
_atom_site_label
_atom_site_type_symbol
_atom_site_fract_x
_atom_site_fract_y
_atom_site_fract_z
N1 N 0.0268(2) 0.7216(2) 0.38305(10)
N2 N -0.2662(2) 0.5548(2) 0.32860(11)
C1 C -0.1631(3) 0.6645(3) 0.39682(13)
H1 H -0.2148 0.6972 0.4471
C2 C 0.1895(3) 0.8586(3) 0.44020(13)
H2 H 0.2620 0.9821 0.4085
H3 H 0.1365 0.8899 0.4936
N3 N 0.4367(3) 0.7247(3) 0.48834(14)
C3 C 0.0434(3) 0.6450(3) 0.30332(13)
H4 H 0.1615 0.6626 0.2770
C4 C 0.3248(3) 0.7783(3) 0.46684(14)
C5 C -0.1406(3) 0.5402(3) 0.26975(14)
H5 H -0.1769 0.4690 0.2151
C6 C -0.4810(3) 0.4650(3) 0.31618(16)
H6 H -0.5386 0.4809 0.3707
H7 H -0.5305 0.3250 0.3018
H8 H -0.5171 0.5291 0.2678
C7 C 0.6456(3) 0.0170(3) 0.27257(12)
N4 N 1.3688(2) -0.2504(2) -0.06979(11)
N5 N 0.7599(2) -0.5184(3) -0.15107(11)
C8 C 0.7388(2) -0.1515(3) 0.11746(12)
H9 H 0.6066 -0.1754 0.1246
C9 C 0.8861(2) -0.0314(2) 0.18053(12)
C10 C 1.0817(2) 0.0010(3) 0.16646(12)
H10 H 1.1835 0.0813 0.2076
C11 C 0.9791(3) -0.2011(3) 0.03338(12)
C12 C 0.9760(3) 0.1405(3) 0.32777(13)
N6 N 0.4904(2) -0.0028(3) 0.28736(12)
C13 C 1.1276(2) -0.0790(3) 0.09618(12)
H11 H 1.2602 -0.0533 0.0887
C14 C 0.8383(2) 0.0445(3) 0.25767(12)
C15 C 1.0241(2) -0.2861(3) -0.03942(12)
C16 C 1.2167(3) -0.2629(3) -0.05472(12)
N7 N 1.0819(2) 0.2133(3) 0.38751(11)
C17 C 0.8766(3) -0.4137(3) -0.10097(12)
C18 C 0.7833(2) -0.2329(3) 0.04708(12)
H12 H 0.6814 -0.3130 0.0060
loop_
_geom_bond_atom_site_label_1
_geom_bond_atom_site_label_2
_geom_bond_site_symmetry_1
_geom_bond_site_symmetry_2
N1 C1 1_555 1_555
N2 C1 1_555 1_555
C1 H1 1_555 1_555
C2 N1 1_555 1_555
H2 C2 1_555 1_555
H3 C2 1_555 1_555
N3 C4 1_555 1_555
C3 N1 1_555 1_555
H4 C3 1_555 1_555
C4 C2 1_555 1_555
C5 N2 1_555 1_555
H5 C5 1_555 1_555
C6 N2 1_555 1_555
H6 C6 1_555 1_555
H7 C6 1_555 1_555
H8 C6 1_555 1_555
C7 N6 1_555 1_555
N4 C16 1_555 1_555
N5 C17 1_555 1_555
C8 H9 1_555 1_555
C9 C8 1_555 1_555
C10 C9 1_555 1_555
H10 C10 1_555 1_555
C11 C13 1_555 1_555
C12 C14 1_555 1_555
C13 C10 1_555 1_555
H11 C13 1_555 1_555
C14 C7 1_555 1_555
C15 C11 1_555 1_555
C16 C15 1_555 1_555
N7 C12 1_555 1_555
C17 C15 1_555 1_555
C18 C8 1_555 1_555
H12 C18 1_555 1_555
C3 C5 1_555 1_555
C9 C14 1_555 1_555
C11 C18 1_555 1_555

#END
