
#######################################################################
#
#                 Cambridge Crystallographic Data Centre
#                                CCDC 
#
#######################################################################
#
# If this CIF has been generated from an entry in the Cambridge 
# Structural Database, then it will include bibliographic, chemical, 
# crystal, experimental, refinement or atomic coordinate data resulting 
# from the CCDC's data processing and validation procedures.
#
#######################################################################

data_OYIZEC
_chemical_formula_moiety         'C19 H33 N1 O8 P2'
_chemical_name_systematic        
'Methyl \b-(4,6-diethoxy-4,6-dioxido-3,7-dioxa-4\l^5^,6\l^5^-diphosphanonan-5-yl)phenylalaninate'
_symmetry_cell_setting           orthorhombic
_symmetry_space_group_name_H-M   'P 21 21 21'
_symmetry_Int_Tables_number      19
_space_group_name_Hall           'P 2ac 2ab'
loop_
_symmetry_equiv_pos_site_id
_symmetry_equiv_pos_as_xyz
1 x,y,z
2 1/2-x,-y,1/2+z
3 1/2+x,1/2-y,-z
4 -x,1/2+y,1/2-z
_cell_length_a                   8.902(2)
_cell_length_b                   11.717(3)
_cell_length_c                   23.448(6)
_cell_angle_alpha                90
_cell_angle_beta                 90
_cell_angle_gamma                90
_cell_volume                     2445.74
_exptl_crystal_description       block
_cell_formula_units_Z            4
loop_
_atom_site_label
_atom_site_type_symbol
_atom_site_fract_x
_atom_site_fract_y
_atom_site_fract_z
C1 C 0.9181(5) 0.4774(4) 0.02029(18)
C2 C 0.9711(6) 0.3671(5) 0.0286(2)
H1 H 0.9103 0.3138 0.0468
C3 C 1.1125(7) 0.3354(6) 0.0103(3)
H2 H 1.1470 0.2617 0.0171
C4 C 1.2023(7) 0.4118(6) -0.0177(3)
H3 H 1.2970 0.3900 -0.0305
C5 C 1.1514(7) 0.5206(6) -0.0267(2)
H4 H 1.2122 0.5733 -0.0453
C6 C 1.0096(6) 0.5523(5) -0.0084(2)
H5 H 0.9756 0.6260 -0.0156
C7 C 0.7616(5) 0.5077(4) 0.04197(17)
H6 H 0.7058 0.4356 0.0428
C8 C 0.6743(6) 0.5860(5) 0.00067(19)
H7 H 0.7273 0.6590 -0.0028
C9 C 0.6658(6) 0.5304(5) -0.0568(2)
C10 C 0.7202(10) 0.5464(7) -0.1551(2)
H8 H 0.7631 0.4713 -0.1562
H9 H 0.7737 0.5954 -0.1809
H10 H 0.6165 0.5426 -0.1663
C11 C 0.7523(6) 0.5562(5) 0.10395(18)
H11 H 0.6539 0.5937 0.1041
C12 C 1.1683(8) 0.6186(9) 0.1243(3)
H12 H 1.1768 0.5557 0.0977
H13 H 1.1837 0.6887 0.1031
C13 C 1.2830(9) 0.6085(9) 0.1649(4)
H14 H 1.3146 0.6832 0.1767
H15 H 1.3665 0.5686 0.1484
H16 H 1.2464 0.5669 0.1973
C14 C 0.6747(12) 0.7971(9) 0.1717(4)
H17 H 0.6359 0.7969 0.1331
H18 H 0.6000 0.7632 0.1966
C15 C 0.9611(11) 0.3278(8) 0.1942(4)
H19 H 1.0574 0.3656 0.1900
H20 H 0.9227 0.3472 0.2317
C16 C 0.9850(15) 0.2147(10) 0.1929(5)
H21 H 0.8940 0.1754 0.2028
H22 H 1.0624 0.1952 0.2197
H23 H 1.0158 0.1925 0.1552
C17 C 0.5202(19) 0.2974(15) 0.1610(8)
H24 H 0.5920 0.2436 0.1767
H25 H 0.4688 0.3323 0.1930
C18 C 0.434(3) 0.2465(17) 0.1366(9)
H26 H 0.3873 0.2944 0.1086
H27 H 0.3598 0.2179 0.1624
H28 H 0.4830 0.1836 0.1179
C19 C 0.7052(18) 0.9071(13) 0.1888(6)
H29 H 0.7327 0.9072 0.2284
H30 H 0.6177 0.9536 0.1834
H31 H 0.7866 0.9371 0.1665
N1 N 0.5228(5) 0.6066(5) 0.02240(18)
H32 H 0.4460 0.5871 0.0024
H33 H 0.5106 0.6382 0.0552
O1 O 0.6020(6) 0.4415(4) -0.06571(17)
O2 O 0.7311(5) 0.5918(4) -0.09738(14)
O3 O 0.8997(5) 0.7488(3) 0.07243(15)
O4 O 0.8136(5) 0.7327(4) 0.17452(16)
O5 O 1.0222(5) 0.6194(5) 0.14658(19)
O6 O 0.7052(6) 0.4973(4) 0.21596(15)
O7 O 0.8641(7) 0.3726(5) 0.1539(2)
O8 O 0.6002(8) 0.3812(6) 0.1344(2)
P1 P 0.87861(16) 0.67331(14) 0.12037(6)
P2 P 0.7328(2) 0.45228(16) 0.15947(6)
loop_
_geom_bond_atom_site_label_1
_geom_bond_atom_site_label_2
_geom_bond_site_symmetry_1
_geom_bond_site_symmetry_2
C1 C2 1_555 1_555
C2 H1 1_555 1_555
C3 C2 1_555 1_555
H2 C3 1_555 1_555
C4 C3 1_555 1_555
H3 C4 1_555 1_555
C5 C4 1_555 1_555
H4 C5 1_555 1_555
C6 C1 1_555 1_555
H5 C6 1_555 1_555
C7 C1 1_555 1_555
H6 C7 1_555 1_555
C8 C7 1_555 1_555
H7 C8 1_555 1_555
C9 C8 1_555 1_555
C10 H8 1_555 1_555
H9 C10 1_555 1_555
H10 C10 1_555 1_555
C11 C7 1_555 1_555
H11 C11 1_555 1_555
C12 H12 1_555 1_555
H13 C12 1_555 1_555
C13 C12 1_555 1_555
H14 C13 1_555 1_555
H15 C13 1_555 1_555
H16 C13 1_555 1_555
C14 H17 1_555 1_555
H18 C14 1_555 1_555
C15 H19 1_555 1_555
H20 C15 1_555 1_555
C16 C15 1_555 1_555
H21 C16 1_555 1_555
H22 C16 1_555 1_555
H23 C16 1_555 1_555
C17 H24 1_555 1_555
H25 C17 1_555 1_555
C18 C17 1_555 1_555
H26 C18 1_555 1_555
H27 C18 1_555 1_555
H28 C18 1_555 1_555
C19 C14 1_555 1_555
H29 C19 1_555 1_555
H30 C19 1_555 1_555
H31 C19 1_555 1_555
N1 C8 1_555 1_555
H32 N1 1_555 1_555
H33 N1 1_555 1_555
O1 C9 1_555 1_555
O2 C9 1_555 1_555
O3 P1 1_555 1_555
O4 C14 1_555 1_555
O5 C12 1_555 1_555
O6 P2 1_555 1_555
O7 C15 1_555 1_555
O8 C17 1_555 1_555
P1 C11 1_555 1_555
P2 C11 1_555 1_555
C5 C6 1_555 1_555
C10 O2 1_555 1_555
O4 P1 1_555 1_555
O5 P1 1_555 1_555
O7 P2 1_555 1_555
O8 P2 1_555 1_555

#END
