
#######################################################################
#
#                 Cambridge Crystallographic Data Centre
#                                CCDC 
#
#######################################################################
#
# If this CIF has been generated from an entry in the Cambridge 
# Structural Database, then it will include bibliographic, chemical, 
# crystal, experimental, refinement or atomic coordinate data resulting 
# from the CCDC's data processing and validation procedures.
#
#######################################################################

data_OYOHIV
_chemical_formula_moiety         'C17 H13 I1 N4'
_chemical_name_systematic        
4-(1H-imidazol-1-yl(4-iodobenzyl)amino)benzonitrile
_symmetry_cell_setting           monoclinic
_symmetry_space_group_name_H-M   'P 21'
_symmetry_Int_Tables_number      4
_space_group_name_Hall           'P 2yb'
loop_
_symmetry_equiv_pos_site_id
_symmetry_equiv_pos_as_xyz
1 x,y,z
2 -x,1/2+y,-z
_cell_length_a                   12.7513(3)
_cell_length_b                   7.39520(10)
_cell_length_c                   17.2394(4)
_cell_angle_alpha                90
_cell_angle_beta                 106.3470(10)
_cell_angle_gamma                90
_cell_volume                     1559.93
_exptl_crystal_colour            colorless
_exptl_crystal_description       prism
_cell_formula_units_Z            4
loop_
_atom_site_label
_atom_site_type_symbol
_atom_site_fract_x
_atom_site_fract_y
_atom_site_fract_z
I1 I 0.67626(2) 0.68541(2) -0.10385(2)
N1 N 0.61783(18) 0.7540(3) 0.29324(14)
N2 N 0.66320(18) 0.5825(4) 0.29055(14)
N3 N 0.7852(2) 0.3825(4) 0.27852(15)
N4 N 0.61463(19) 1.0618(4) 0.66312(14)
C1 C 0.7655(2) 0.5552(4) 0.28386(15)
H1 H 0.8151 0.6470 0.2832
C2 C 0.6900(2) 0.2966(5) 0.28088(15)
H2 H 0.6799 0.1719 0.2778
C3 C 0.6128(2) 0.4176(4) 0.28833(16)
H3 H 0.5423 0.3940 0.2912
C4 C 0.5316(2) 0.7976(6) 0.21905(15)
H4 H 0.5107 0.9235 0.2203
H5 H 0.4677 0.7237 0.2161
C5 C 0.5706(2) 0.7642(4) 0.14549(15)
C6 C 0.6533(2) 0.8701(4) 0.13052(17)
H6 H 0.6876 0.9575 0.1678
C7 C 0.6851(2) 0.8462(4) 0.06042(16)
H7 H 0.7396 0.9184 0.0505
C8 C 0.6351(2) 0.7140(5) 0.00528(16)
C9 C 0.5557(2) 0.6034(4) 0.02077(18)
H8 H 0.5239 0.5124 -0.0155
C10 C 0.5236(2) 0.6289(4) 0.09080(18)
H9 H 0.4703 0.5546 0.1011
C11 C 0.61390(17) 0.8122(5) 0.36960(13)
C12 C 0.5480(2) 0.9595(4) 0.37739(16)
H10 H 0.5034 1.0150 0.3315
C13 C 0.5493(2) 1.0219(4) 0.45318(17)
H11 H 0.5053 1.1192 0.4579
C14 C 0.6159(2) 0.9407(4) 0.52259(16)
C15 C 0.6824(2) 0.7950(5) 0.51545(15)
H12 H 0.7273 0.7406 0.5615
C16 C 0.6812(2) 0.7320(4) 0.43997(16)
H13 H 0.7256 0.6350 0.4355
C17 C 0.6162(2) 1.0080(4) 0.60112(17)
I2 I 0.83572(2) 0.31561(2) 1.11229(2)
N5 N 0.88275(18) 0.2586(3) 0.71091(14)
N6 N 0.83889(18) 0.4290(4) 0.71406(13)
N7 N 0.7159(2) 0.6324(3) 0.72283(14)
N8 N 0.8886(2) -0.0471(4) 0.34068(14)
C18 C 0.7347(2) 0.4596(4) 0.71660(15)
H14 H 0.6832 0.3691 0.7142
C19 C 0.8142(2) 0.7168(4) 0.72675(17)
H15 H 0.8260 0.8407 0.7326
C20 C 0.8911(2) 0.5946(4) 0.72099(16)
H16 H 0.9631 0.6172 0.7216
C21 C 0.9688(2) 0.2101(6) 0.78432(16)
H17 H 1.0333 0.2823 0.7874
H18 H 0.9882 0.0840 0.7814
C22 C 0.9331(2) 0.2401(4) 0.85974(16)
C23 C 0.8334(2) 0.1743(5) 0.86654(15)
H19 H 0.7860 0.1152 0.8230
C24 C 0.80467(19) 0.1966(5) 0.93768(14)
H20 H 0.7376 0.1546 0.9416
C25 C 0.8767(2) 0.2821(4) 1.00330(16)
C26 C 0.9762(2) 0.3467(4) 0.99778(17)
H21 H 1.0244 0.4030 1.0418
C27 C 1.0031(2) 0.3263(5) 0.92533(17)
H22 H 1.0692 0.3715 0.9210
C28 C 0.88706(18) 0.2010(5) 0.63445(14)
C29 C 0.9522(2) 0.0530(4) 0.62653(16)
H23 H 0.9961 -0.0033 0.6725
C30 C 0.9513(2) -0.0095(4) 0.55080(17)
H24 H 0.9947 -0.1078 0.5462
C31 C 0.8863(2) 0.0731(4) 0.48125(16)
C32 C 0.8211(2) 0.2210(4) 0.48863(17)
H25 H 0.7774 0.2773 0.4426
C33 C 0.8216(2) 0.2833(4) 0.56430(15)
H26 H 0.7779 0.3812 0.5687
C34 C 0.8869(2) 0.0071(4) 0.40257(17)
loop_
_geom_bond_atom_site_label_1
_geom_bond_atom_site_label_2
_geom_bond_site_symmetry_1
_geom_bond_site_symmetry_2
I1 C8 1_555 1_555
N1 N2 1_555 1_555
N2 C1 1_555 1_555
N3 C1 1_555 1_555
N4 C17 1_555 1_555
C1 H1 1_555 1_555
C2 N3 1_555 1_555
H2 C2 1_555 1_555
C3 N2 1_555 1_555
H3 C3 1_555 1_555
C4 N1 1_555 1_555
H4 C4 1_555 1_555
H5 C4 1_555 1_555
C5 C4 1_555 1_555
C6 C5 1_555 1_555
H6 C6 1_555 1_555
C7 C6 1_555 1_555
H7 C7 1_555 1_555
C8 C7 1_555 1_555
C9 C8 1_555 1_555
H8 C9 1_555 1_555
C10 C5 1_555 1_555
H9 C10 1_555 1_555
C11 N1 1_555 1_555
C12 C11 1_555 1_555
H10 C12 1_555 1_555
C13 C12 1_555 1_555
H11 C13 1_555 1_555
C14 C13 1_555 1_555
C15 C14 1_555 1_555
H12 C15 1_555 1_555
C16 C11 1_555 1_555
H13 C16 1_555 1_555
C17 C14 1_555 1_555
I2 C25 1_555 1_555
N5 N6 1_555 1_555
N6 C18 1_555 1_555
N7 C18 1_555 1_555
N8 C34 1_555 1_555
C18 H14 1_555 1_555
C19 N7 1_555 1_555
H15 C19 1_555 1_555
C20 N6 1_555 1_555
H16 C20 1_555 1_555
C21 N5 1_555 1_555
H17 C21 1_555 1_555
H18 C21 1_555 1_555
C22 C21 1_555 1_555
C23 C22 1_555 1_555
H19 C23 1_555 1_555
C24 C23 1_555 1_555
H20 C24 1_555 1_555
C25 C24 1_555 1_555
C26 C25 1_555 1_555
H21 C26 1_555 1_555
C27 C22 1_555 1_555
H22 C27 1_555 1_555
C28 N5 1_555 1_555
C29 C28 1_555 1_555
H23 C29 1_555 1_555
C30 C29 1_555 1_555
H24 C30 1_555 1_555
C31 C30 1_555 1_555
C32 C31 1_555 1_555
H25 C32 1_555 1_555
C33 C28 1_555 1_555
H26 C33 1_555 1_555
C34 C31 1_555 1_555
C2 C3 1_555 1_555
C9 C10 1_555 1_555
C15 C16 1_555 1_555
C19 C20 1_555 1_555
C26 C27 1_555 1_555
C32 C33 1_555 1_555

#END
