
#######################################################################
#
#                 Cambridge Crystallographic Data Centre
#                                CCDC 
#
#######################################################################
#
# If this CIF has been generated from an entry in the Cambridge 
# Structural Database, then it will include bibliographic, chemical, 
# crystal, experimental, refinement or atomic coordinate data resulting 
# from the CCDC's data processing and validation procedures.
#
#######################################################################

data_OYOKAP
_chemical_formula_moiety         'C17 H43 Ca1 N5 Si2'
_chemical_name_systematic        
(1,4,7-Trimethyl-1,4,7,10-tetraazacyclododecane-N,N',N'',N''')-(bis(trimethylsilyl)amido)-calcium(ii)
_symmetry_cell_setting           orthorhombic
_symmetry_space_group_name_H-M   'P b c a'
_symmetry_Int_Tables_number      61
_space_group_name_Hall           '-P 2ac 2ab'
loop_
_symmetry_equiv_pos_site_id
_symmetry_equiv_pos_as_xyz
1 x,y,z
2 1/2-x,-y,1/2+z
3 1/2+x,1/2-y,-z
4 -x,1/2+y,1/2-z
5 -x,-y,-z
6 1/2+x,y,1/2-z
7 1/2-x,1/2+y,z
8 x,1/2-y,1/2+z
_cell_length_a                   15.8305(10)
_cell_length_b                   14.9065(9)
_cell_length_c                   21.3107(13)
_cell_angle_alpha                90
_cell_angle_beta                 90
_cell_angle_gamma                90
_cell_volume                     5028.84
_exptl_crystal_colour            colorless
_exptl_crystal_description       block
_cell_formula_units_Z            8
loop_
_atom_site_label
_atom_site_type_symbol
_atom_site_fract_x
_atom_site_fract_y
_atom_site_fract_z
Si1 Si 0.10265(3) 0.19682(3) 0.55383(2)
Si2 Si 0.19978(3) 0.36717(3) 0.53012(2)
N1 N 0.17193(9) 0.32704(9) 0.32699(6)
N2 N -0.00006(9) 0.30330(10) 0.35397(6)
N3 N 0.06330(9) 0.11469(9) 0.33003(6)
N4 N 0.24720(9) 0.15769(10) 0.34822(6)
N5 N 0.15353(8) 0.27057(9) 0.50822(6)
Ca1 Ca 0.12822(2) 0.23412(2) 0.403425(14)
C1 C 0.11341(12) 0.38219(12) 0.29363(8)
H1 H 0.1010 0.3552 0.2522
H2 H 0.1382 0.4423 0.2867
C2 C 0.03271(12) 0.39069(12) 0.33120(9)
H3 H 0.0432 0.4302 0.3677
H4 H -0.0109 0.4196 0.3048
C3 C -0.02807(12) 0.24638(13) 0.30083(8)
H5 H 0.0078 0.2594 0.2639
H6 H -0.0869 0.2624 0.2898
C4 C -0.02399(19) 0.1467(2) 0.31476(14)
H7 H -0.0617 0.1332 0.3506
H8 H -0.0452 0.1132 0.2779
C5 C 0.12097(19) 0.1228(2) 0.27823(13)
H9 H 0.1165 0.1842 0.2608
H10 H 0.1035 0.0803 0.2449
C6 C 0.21426(12) 0.10427(13) 0.29507(8)
H11 H 0.2204 0.0398 0.3053
H12 H 0.2495 0.1165 0.2577
C7 C 0.29762(11) 0.23544(12) 0.32662(9)
H13 H 0.3435 0.2137 0.2989
H14 H 0.3242 0.2644 0.3635
C8 C 0.24594(12) 0.30497(13) 0.29138(8)
H15 H 0.2803 0.3596 0.2845
H16 H 0.2293 0.2809 0.2499
C9 C -0.07111(12) 0.31893(14) 0.39732(9)
H17 H -0.1153 0.3531 0.3758
H18 H -0.0512 0.3528 0.4338
H19 H -0.0941 0.2612 0.4112
C10 C 0.0529(2) 0.0177(2) 0.34909(14)
H20 H 0.0348 -0.0176 0.3127
H21 H 0.0103 0.0133 0.3823
H22 H 0.1069 -0.0054 0.3647
C11 C 0.30093(12) 0.10161(13) 0.38863(9)
H23 H 0.2689 0.0490 0.4026
H24 H 0.3189 0.1364 0.4253
H25 H 0.3507 0.0821 0.3650
C12 C 0.04503(11) 0.11649(11) 0.50048(8)
H26 H 0.0060 0.1501 0.4736
H27 H 0.0131 0.0733 0.5258
H28 H 0.0860 0.0843 0.4743
C13 C 0.01980(11) 0.24567(13) 0.60672(8)
H29 H 0.0465 0.2860 0.6371
H30 H -0.0092 0.1972 0.6291
H31 H -0.0212 0.2793 0.5816
C14 C 0.17268(11) 0.12533(12) 0.60396(8)
H32 H 0.2142 0.0947 0.5774
H33 H 0.1384 0.0807 0.6261
H34 H 0.2021 0.1632 0.6346
C15 C 0.12701(11) 0.46521(12) 0.52025(9)
H35 H 0.1074 0.4679 0.4767
H36 H 0.1572 0.5207 0.5306
H37 H 0.0784 0.4584 0.5483
C16 C 0.23488(12) 0.36971(12) 0.61466(8)
H38 H 0.1856 0.3632 0.6421
H39 H 0.2629 0.4270 0.6234
H40 H 0.2744 0.3203 0.6224
C17 C 0.29578(11) 0.38988(12) 0.48121(8)
H41 H 0.3358 0.3401 0.4857
H42 H 0.3225 0.4457 0.4953
H43 H 0.2793 0.3957 0.4371
C18? C -0.0046(4) 0.0558(4) 0.3455(2)
C19? C 0.0384(3) 0.1788(3) 0.2775(2)
C20? C 0.1383(3) 0.0603(3) 0.3068(2)
H44? H -0.0225 0.0233 0.3078
H45? H -0.0521 0.0907 0.3619
H46? H 0.0142 0.0128 0.3773
H47? H -0.0442 0.2858 0.2654
H48? H -0.0792 0.2129 0.3138
H49? H 0.0152 0.1442 0.2418
H50? H 0.0890 0.2115 0.2626
H51? H 0.1496 0.0128 0.3382
H52? H 0.1210 0.0299 0.2676
H53? H 0.2064 0.1446 0.2586
H54? H 0.2572 0.0590 0.2833
loop_
_geom_bond_atom_site_label_1
_geom_bond_atom_site_label_2
_geom_bond_site_symmetry_1
_geom_bond_site_symmetry_2
Si1 N5 1_555 1_555
Si2 N5 1_555 1_555
N1 Ca1 1_555 1_555
N2 Ca1 1_555 1_555
N3 Ca1 1_555 1_555
N4 Ca1 1_555 1_555
N5 Ca1 1_555 1_555
C1 N1 1_555 1_555
H1 C1 1_555 1_555
H2 C1 1_555 1_555
C2 N2 1_555 1_555
H3 C2 1_555 1_555
H4 C2 1_555 1_555
C3 N2 1_555 1_555
H5 C3 1_555 1_555
H6 C3 1_555 1_555
C4 N3 1_555 1_555
H7 C4 1_555 1_555
H8 C4 1_555 1_555
C5 N3 1_555 1_555
H9 C5 1_555 1_555
H10 C5 1_555 1_555
C6 N4 1_555 1_555
H11 C6 1_555 1_555
H12 C6 1_555 1_555
C7 N4 1_555 1_555
H13 C7 1_555 1_555
H14 C7 1_555 1_555
C8 N1 1_555 1_555
H15 C8 1_555 1_555
H16 C8 1_555 1_555
C9 N2 1_555 1_555
H17 C9 1_555 1_555
H18 C9 1_555 1_555
H19 C9 1_555 1_555
C10 N3 1_555 1_555
H20 C10 1_555 1_555
H21 C10 1_555 1_555
H22 C10 1_555 1_555
C11 N4 1_555 1_555
H23 C11 1_555 1_555
H24 C11 1_555 1_555
H25 C11 1_555 1_555
C12 Si1 1_555 1_555
H26 C12 1_555 1_555
H27 C12 1_555 1_555
H28 C12 1_555 1_555
C13 Si1 1_555 1_555
H29 C13 1_555 1_555
H30 C13 1_555 1_555
H31 C13 1_555 1_555
C14 Si1 1_555 1_555
H32 C14 1_555 1_555
H33 C14 1_555 1_555
H34 C14 1_555 1_555
C15 Si2 1_555 1_555
H35 C15 1_555 1_555
H36 C15 1_555 1_555
H37 C15 1_555 1_555
C16 Si2 1_555 1_555
H38 C16 1_555 1_555
H39 C16 1_555 1_555
H40 C16 1_555 1_555
C17 Si2 1_555 1_555
H41 C17 1_555 1_555
H42 C17 1_555 1_555
H43 C17 1_555 1_555
C1 C2 1_555 1_555
C3 C4 1_555 1_555
C5 C6 1_555 1_555
C7 C8 1_555 1_555

#END
