
#######################################################################
#
#                 Cambridge Crystallographic Data Centre
#                                CCDC 
#
#######################################################################
#
# If this CIF has been generated from an entry in the Cambridge 
# Structural Database, then it will include bibliographic, chemical, 
# crystal, experimental, refinement or atomic coordinate data resulting 
# from the CCDC's data processing and validation procedures.
#
#######################################################################

data_OYUREH
_chemical_formula_moiety         'C41 H38 F1 N1 O9'
_chemical_name_systematic        
"3,3-dibenzyl 2-ethyl (1R,2S,5R)-1'-benzyl-5'-fluoro-5-(2-methoxy-2-oxoethyl)-2'-oxospiro[cyclopentane-1,3'-indoline]-2,3,3-tricarboxylate"
_symmetry_cell_setting           monoclinic
_symmetry_space_group_name_H-M   'P 21'
_symmetry_Int_Tables_number      4
_space_group_name_Hall           'P 2yb'
loop_
_symmetry_equiv_pos_site_id
_symmetry_equiv_pos_as_xyz
1 x,y,z
2 -x,1/2+y,-z
_cell_length_a                   14.4027(5)
_cell_length_b                   8.6895(3)
_cell_length_c                   14.5915(5)
_cell_angle_alpha                90
_cell_angle_beta                 108.0760(10)
_cell_angle_gamma                90
_cell_volume                     1736.03
_exptl_crystal_colour            colorless
_exptl_crystal_description       block
_chemical_melting_point          '389.15-390.15 K'
_cell_formula_units_Z            2
loop_
_atom_site_label
_atom_site_type_symbol
_atom_site_fract_x
_atom_site_fract_y
_atom_site_fract_z
C1 C 0.14866(18) 0.2977(4) -0.08836(18)
H1 H 0.0982 0.2880 -0.0616
C2 C 0.13262(18) 0.2592(4) -0.18380(18)
H2 H 0.0720 0.2225 -0.2210
C3 C 0.20714(17) 0.2756(3) -0.22350(16)
H3 H 0.1967 0.2515 -0.2880
C4 C 0.29771(16) 0.3281(3) -0.16728(15)
H4 H 0.3478 0.3388 -0.1946
C5 C 0.31488(15) 0.3649(2) -0.07099(14)
C6 C 0.23881(16) 0.3504(3) -0.03211(16)
H5 H 0.2485 0.3763 0.0320
C7 C 0.41594(14) 0.4182(2) -0.01309(13)
H6 H 0.4635 0.3559 -0.0309
H7 H 0.4242 0.5237 -0.0308
C8 C 0.44388(13) 0.2739(2) 0.14452(13)
C9 C 0.42124(15) 0.1256(2) 0.11057(15)
H8 H 0.3985 0.1054 0.0448
C10 C 0.43358(15) 0.0074(2) 0.17784(15)
H9 H 0.4186 -0.0937 0.1578
C11 C 0.46817(14) 0.0428(2) 0.27403(15)
C12 C 0.49210(14) 0.1900(2) 0.30963(14)
H10 H 0.5157 0.2093 0.3755
C13 C 0.47929(13) 0.3071(2) 0.24270(13)
C14 C 0.49871(13) 0.4776(2) 0.25548(13)
C15 C 0.47395(13) 0.5327(2) 0.15031(13)
C16 C 0.44070(13) 0.5643(2) 0.31302(13)
H11 H 0.4417 0.6743 0.2985
C17 C 0.33478(14) 0.5172(2) 0.29670(14)
H12 H 0.3309 0.4057 0.2943
H13 H 0.3156 0.5506 0.3517
C18 C 0.26314(15) 0.5803(3) 0.20691(15)
C19 C 0.0962(2) 0.5958(5) 0.1186(2)
H14 H 0.0953 0.7061 0.1223
H15 H 0.0343 0.5557 0.1192
H16 H 0.1082 0.5655 0.0600
C20 C 0.50258(13) 0.5398(2) 0.41740(13)
H17 H 0.4898 0.4392 0.4398
H18 H 0.4880 0.6176 0.4586
C21 C 0.61062(13) 0.5521(2) 0.41932(13)
C22 C 0.60660(13) 0.5231(2) 0.31231(13)
H19 H 0.6194 0.6220 0.2863
C23 C 0.67821(13) 0.4081(2) 0.29440(13)
C24 C 0.73420(17) 0.2984(3) 0.17274(16)
H20 H 0.7134 0.1944 0.1805
H21 H 0.8017 0.3102 0.2124
C25 C 0.7248(2) 0.3282(4) 0.06951(17)
H22 H 0.6576 0.3189 0.0311
H23 H 0.7633 0.2547 0.0480
H24 H 0.7475 0.4303 0.0630
C26 C 0.67389(14) 0.4354(2) 0.49213(13)
C27 C 0.83496(18) 0.3918(3) 0.59889(17)
H25 H 0.8920 0.3731 0.5785
H26 H 0.8056 0.2934 0.6051
C28 C 0.86405(16) 0.4746(3) 0.69364(16)
C29 C 0.95809(19) 0.5264(4) 0.73359(18)
H27 H 1.0041 0.5088 0.7020
C30 C 0.9851(3) 0.6050(5) 0.8210(2)
H28 H 1.0489 0.6400 0.8477
C31 C 0.9181(3) 0.6304(6) 0.8672(2)
H29 H 0.9356 0.6838 0.9253
C32 C 0.8244(3) 0.5771(7) 0.8282(2)
H30 H 0.7786 0.5938 0.8601
C33 C 0.7981(2) 0.4994(6) 0.7424(2)
H31 H 0.7345 0.4629 0.7169
C34 C 0.64870(13) 0.7131(2) 0.45780(13)
C35 C 0.72148(15) 0.9487(2) 0.43064(15)
H32 H 0.6811 0.9890 0.4673
H33 H 0.7094 1.0102 0.3726
C36 C 0.82722(15) 0.9636(2) 0.48958(15)
C37 C 0.88935(16) 1.0515(3) 0.45515(17)
H34 H 0.8658 1.0970 0.3946
C38 C 0.98619(17) 1.0727(3) 0.5097(2)
H35 H 1.0270 1.1330 0.4860
C39 C 1.02192(17) 1.0043(3) 0.5989(2)
H36 H 1.0872 1.0163 0.6351
C40 C 0.96016(19) 0.9179(4) 0.63404(19)
H37 H 0.9839 0.8724 0.6945
C41 C 0.86309(17) 0.8983(3) 0.58008(17)
H38 H 0.8219 0.8408 0.6049
F1 F 0.48015(10) -0.07263(14) 0.34020(9)
N1 N 0.43708(11) 0.41058(19) 0.09080(11)
O1 O 0.48698(10) 0.66174(15) 0.12434(9)
O2 O 0.28128(13) 0.6593(3) 0.14827(13)
O3 O 0.17270(12) 0.5356(3) 0.20024(14)
O4 O 0.67278(10) 0.40889(17) 0.20157(10)
O5 O 0.73019(13) 0.3227(2) 0.35238(11)
O6 O 0.63765(11) 0.76288(18) 0.53014(10)
O7 O 0.69337(10) 0.78835(16) 0.40358(9)
O8 O 0.76493(11) 0.48741(18) 0.52811(11)
O9 O 0.64428(11) 0.31780(18) 0.51496(12)
loop_
_geom_bond_atom_site_label_1
_geom_bond_atom_site_label_2
_geom_bond_site_symmetry_1
_geom_bond_site_symmetry_2
C1 H1 1_555 1_555
C2 C1 1_555 1_555
H2 C2 1_555 1_555
C3 C2 1_555 1_555
H3 C3 1_555 1_555
C4 C3 1_555 1_555
H4 C4 1_555 1_555
C5 C4 1_555 1_555
C6 C1 1_555 1_555
H5 C6 1_555 1_555
C7 C5 1_555 1_555
H6 C7 1_555 1_555
H7 C7 1_555 1_555
C8 C9 1_555 1_555
C9 H8 1_555 1_555
C10 C9 1_555 1_555
H9 C10 1_555 1_555
C11 C10 1_555 1_555
C12 C11 1_555 1_555
H10 C12 1_555 1_555
C13 C8 1_555 1_555
C14 C13 1_555 1_555
C15 C14 1_555 1_555
C16 C14 1_555 1_555
H11 C16 1_555 1_555
C17 C16 1_555 1_555
H12 C17 1_555 1_555
H13 C17 1_555 1_555
C18 C17 1_555 1_555
C19 H14 1_555 1_555
H15 C19 1_555 1_555
H16 C19 1_555 1_555
C20 C16 1_555 1_555
H17 C20 1_555 1_555
H18 C20 1_555 1_555
C21 C20 1_555 1_555
C22 C14 1_555 1_555
H19 C22 1_555 1_555
C23 C22 1_555 1_555
C24 H20 1_555 1_555
H21 C24 1_555 1_555
C25 C24 1_555 1_555
H22 C25 1_555 1_555
H23 C25 1_555 1_555
H24 C25 1_555 1_555
C26 C21 1_555 1_555
C27 H25 1_555 1_555
H26 C27 1_555 1_555
C28 C27 1_555 1_555
C29 C28 1_555 1_555
H27 C29 1_555 1_555
C30 C29 1_555 1_555
H28 C30 1_555 1_555
C31 C30 1_555 1_555
H29 C31 1_555 1_555
C32 C31 1_555 1_555
H30 C32 1_555 1_555
C33 C28 1_555 1_555
H31 C33 1_555 1_555
C34 C21 1_555 1_555
C35 H32 1_555 1_555
H33 C35 1_555 1_555
C36 C35 1_555 1_555
C37 C36 1_555 1_555
H34 C37 1_555 1_555
C38 C37 1_555 1_555
H35 C38 1_555 1_555
C39 C38 1_555 1_555
H36 C39 1_555 1_555
C40 C39 1_555 1_555
H37 C40 1_555 1_555
C41 C36 1_555 1_555
H38 C41 1_555 1_555
F1 C11 1_555 1_555
N1 C7 1_555 1_555
O1 C15 1_555 1_555
O2 C18 1_555 1_555
O3 C18 1_555 1_555
O4 C23 1_555 1_555
O5 C23 1_555 1_555
O6 C34 1_555 1_555
O7 C34 1_555 1_555
O8 C26 1_555 1_555
O9 C26 1_555 1_555
C5 C6 1_555 1_555
C8 N1 1_555 1_555
C12 C13 1_555 1_555
C15 N1 1_555 1_555
C19 O3 1_555 1_555
C21 C22 1_555 1_555
C24 O4 1_555 1_555
C27 O8 1_555 1_555
C32 C33 1_555 1_555
C35 O7 1_555 1_555
C40 C41 1_555 1_555

#END
