
#######################################################################
#
#                 Cambridge Crystallographic Data Centre
#                                CCDC 
#
#######################################################################
#
# If this CIF has been generated from an entry in the Cambridge 
# Structural Database, then it will include bibliographic, chemical, 
# crystal, experimental, refinement or atomic coordinate data resulting 
# from the CCDC's data processing and validation procedures.
#
#######################################################################

data_OYUYIR
_chemical_formula_moiety         'C8 H12 N1 1+,C6 H2 F3 O7 S3 1-'
_chemical_name_systematic        
'2,4,6-trimethylpyridinium 2,4,6-tris(fluorosulfonyl)phenolate'
_symmetry_cell_setting           triclinic
_symmetry_space_group_name_H-M   'P -1'
_symmetry_Int_Tables_number      2
_space_group_name_Hall           '-P 1'
loop_
_symmetry_equiv_pos_site_id
_symmetry_equiv_pos_as_xyz
1 x,y,z
2 -x,-y,-z
_cell_length_a                   9.0954(12)
_cell_length_b                   9.5617(13)
_cell_length_c                   10.8055(15)
_cell_angle_alpha                97.737(11)
_cell_angle_beta                 94.735(11)
_cell_angle_gamma                98.450(11)
_cell_volume                     916.03
_exptl_crystal_colour            colorless
_exptl_crystal_description       polyhedron
_cell_formula_units_Z            2
loop_
_atom_site_label
_atom_site_type_symbol
_atom_site_fract_x
_atom_site_fract_y
_atom_site_fract_z
N1 N -0.13084(17) 0.26552(16) -0.06011(14)
C1 C -0.1920(2) 0.36212(18) 0.01435(16)
C2 C -0.3382(2) 0.3968(3) -0.0335(2)
C3 C -0.1148(2) 0.42132(19) 0.12947(17)
C4 C 0.0204(2) 0.38213(18) 0.16807(16)
C5 C 0.1033(3) 0.4451(2) 0.29328(19)
C6 C 0.0779(2) 0.28288(19) 0.08605(17)
C7 C 0.0005(2) 0.22438(18) -0.02895(17)
C8 C 0.0531(3) 0.1182(3) -0.1223(2)
H2 H -0.178(3) 0.229(3) -0.135(2)
H3 H -0.160(3) 0.487(3) 0.182(2)
H5 H 0.169(3) 0.255(2) 0.109(2)
H6 H -0.331(4) 0.423(4) -0.116(4)
H7 H -0.406(4) 0.319(4) -0.043(3)
H8 H -0.018(4) 0.029(4) -0.137(3)
H9 H 0.074(5) 0.159(4) -0.194(4)
H10 H 0.152(4) 0.533(4) 0.292(3)
H11 H 0.141(3) 0.090(3) -0.094(3)
H12 H 0.035(4) 0.460(3) 0.353(3)
H13 H 0.153(4) 0.379(4) 0.327(4)
H14 H -0.374(4) 0.461(4) 0.021(4)
C9 C 0.27264(18) 0.09318(17) 0.56706(15)
C10 C 0.24345(19) -0.03064(17) 0.48181(15)
S1 S 0.11843(5) -0.17092(4) 0.51878(4)
O1 O 0.01021(16) -0.23116(15) 0.41667(15)
O2 O 0.0730(2) -0.13353(16) 0.63903(16)
F1 F 0.22077(14) -0.28567(12) 0.53206(12)
C11 C 0.30430(19) -0.04621(17) 0.36251(15)
O3 O 0.28414(16) -0.16224(13) 0.28863(12)
C12 C 0.3925(2) 0.08389(18) 0.33837(15)
S2 S 0.45711(6) 0.08709(5) 0.19136(4)
O4 O 0.34198(18) 0.03046(18) 0.09386(13)
O5 O 0.5479(2) 0.21884(19) 0.18853(16)
F2 F 0.56319(15) -0.02647(16) 0.19025(12)
C13 C 0.42248(19) 0.20863(18) 0.42299(16)
C14 C 0.36369(19) 0.21232(17) 0.53814(15)
S3 S 0.39629(5) 0.36770(4) 0.64572(4)
O6 O 0.35072(17) 0.33998(14) 0.76331(12)
O7 O 0.53587(15) 0.45061(14) 0.63645(14)
F3 F 0.27840(13) 0.45378(11) 0.59212(11)
H1 H 0.487(3) 0.292(3) 0.405(2)
H4 H 0.230(3) 0.097(2) 0.646(2)
loop_
_geom_bond_atom_site_label_1
_geom_bond_atom_site_label_2
_geom_bond_site_symmetry_1
_geom_bond_site_symmetry_2
N1 C1 1_555 1_555
C1 C2 1_555 1_555
C2 H6 1_555 1_555
C3 C1 1_555 1_555
C4 C3 1_555 1_555
C5 C4 1_555 1_555
C6 C4 1_555 1_555
C7 N1 1_555 1_555
C8 C7 1_555 1_555
C9 C10 1_555 1_555
C10 S1 1_555 1_555
S1 O1 1_555 1_555
O2 S1 1_555 1_555
F1 S1 1_555 1_555
C11 C10 1_555 1_555
O3 C11 1_555 1_555
C12 C11 1_555 1_555
S2 C12 1_555 1_555
O4 S2 1_555 1_555
O5 S2 1_555 1_555
F2 S2 1_555 1_555
C13 C12 1_555 1_555
C14 C9 1_555 1_555
S3 C14 1_555 1_555
O6 S3 1_555 1_555
O7 S3 1_555 1_555
F3 S3 1_555 1_555
H1 C13 1_555 1_555
H2 N1 1_555 1_555
H3 C3 1_555 1_555
H4 C9 1_555 1_555
H5 C6 1_555 1_555
H7 C2 1_555 1_555
H8 C8 1_555 1_555
H9 C8 1_555 1_555
H10 C5 1_555 1_555
H11 C8 1_555 1_555
H12 C5 1_555 1_555
H13 C5 1_555 1_555
H14 C2 1_555 1_555
C6 C7 1_555 1_555
C13 C14 1_555 1_555

#END
