
#######################################################################
#
#                 Cambridge Crystallographic Data Centre
#                                CCDC 
#
#######################################################################
#
# If this CIF has been generated from an entry in the Cambridge 
# Structural Database, then it will include bibliographic, chemical, 
# crystal, experimental, refinement or atomic coordinate data resulting 
# from the CCDC's data processing and validation procedures.
#
#######################################################################

data_OZACEZ
_chemical_formula_moiety         'C11 H9 N3 O2 S1'
_chemical_name_systematic        
1-(4-nitrophenyl)-2-(2-thienylmethylene)hydrazine
_symmetry_cell_setting           monoclinic
_symmetry_space_group_name_H-M   'P n'
_symmetry_Int_Tables_number      7
_space_group_name_Hall           'P -2yac'
loop_
_symmetry_equiv_pos_site_id
_symmetry_equiv_pos_as_xyz
1 x,y,z
2 1/2+x,-y,1/2+z
_cell_length_a                   10.8954(13)
_cell_length_b                   5.8088(8)
_cell_length_c                   18.519(2)
_cell_angle_alpha                90
_cell_angle_beta                 96.313(3)
_cell_angle_gamma                90
_cell_volume                     1164.95
_cell_formula_units_Z            4
loop_
_atom_site_label
_atom_site_type_symbol
_atom_site_fract_x
_atom_site_fract_y
_atom_site_fract_z
C1 C 0.6376(8) 0.7297(17) 0.7368(5)
C2 C 0.5886(9) 0.5983(18) 0.6804(5)
H1 H 0.6233 0.4586 0.6688
C3 C 0.4784(8) 0.6898(19) 0.6395(5)
H2 H 0.4409 0.6106 0.5993
C4 C 0.4309(8) 0.8898(15) 0.6598(5)
C5 C 0.4847(8) 1.0195(15) 0.7170(5)
H3 H 0.4506 1.1598 0.7284
C6 C 0.5937(9) 0.9356(16) 0.7586(5)
H4 H 0.6325 1.0164 0.7980
C7 C 0.1643(7) 0.9440(15) 0.5347(4)
H5 H 0.1370 1.0862 0.5496
C8 C 0.0937(8) 0.8229(14) 0.4778(4)
C9 C -0.0230(6) 0.9022(14) 0.4399(4)
H6 H -0.0648 1.0377 0.4479
C10 C -0.0604(9) 0.722(2) 0.3862(5)
H7 H -0.1334 0.7320 0.3553
C11 C 0.0153(8) 0.543(2) 0.3842(5)
H8 H 0.0001 0.4174 0.3531
O1 O 0.7889(7) 0.4572(16) 0.7619(5)
O2 O 0.7920(7) 0.7418(14) 0.8358(4)
N1 N 0.7522(8) 0.6299(18) 0.7826(6)
N2 N 0.3267(7) 0.9782(14) 0.6218(4)
H9 H 0.3001 1.1108 0.6338
N3 N 0.2637(7) 0.8605(13) 0.5652(4)
S1 S 0.1427(3) 0.5697(6) 0.44482(17)
C12 C 0.6186(9) 1.3048(15) 0.2269(5)
C13 C 0.6907(7) 1.2461(16) 0.2867(5)
H10 H 0.7625 1.3288 0.3009
C14 C 0.6576(8) 1.0572(16) 0.3288(5)
H11 H 0.7067 1.0111 0.3705
C15 C 0.5522(8) 0.9477(15) 0.3055(5)
C16 C 0.4745(8) 1.0015(17) 0.2440(5)
H12 H 0.4036 0.9161 0.2304
C17 C 0.5087(7) 1.2012(16) 0.2006(5)
H13 H 0.4603 1.2523 0.1592
C18 C 0.5516(9) 0.4911(17) 0.4309(5)
H14 H 0.4726 0.4365 0.4159
C19 C 0.6300(7) 0.3723(14) 0.4882(4)
C20 C 0.5960(6) 0.1503(13) 0.5209(3)
H15 H 0.5232 0.0671 0.5108
C21 C 0.7039(11) 0.0923(17) 0.5730(5)
H16 H 0.7053 -0.0373 0.6026
C22 C 0.7981(10) 0.235(2) 0.5751(4)
H17 H 0.8716 0.2128 0.6050
O3 O 0.7494(7) 1.6072(13) 0.2079(4)
O4 O 0.5862(8) 1.5651(13) 0.1324(4)
N4 N 0.6531(8) 1.5129(14) 0.1865(5)
N5 N 0.5138(7) 0.7603(13) 0.3437(4)
H18 H 0.4423 0.6996 0.3321
N6 N 0.5927(7) 0.6724(13) 0.4012(4)
S2 S 0.7726(2) 0.4619(5) 0.51822(15)
loop_
_geom_bond_atom_site_label_1
_geom_bond_atom_site_label_2
_geom_bond_site_symmetry_1
_geom_bond_site_symmetry_2
C1 C2 1_555 1_555
C2 H1 1_555 1_555
C3 C2 1_555 1_555
H2 C3 1_555 1_555
C4 C3 1_555 1_555
C5 C4 1_555 1_555
H3 C5 1_555 1_555
C6 C1 1_555 1_555
H4 C6 1_555 1_555
C7 H5 1_555 1_555
C8 C7 1_555 1_555
C9 C8 1_555 1_555
H6 C9 1_555 1_555
C10 C9 1_555 1_555
H7 C10 1_555 1_555
C11 C10 1_555 1_555
H8 C11 1_555 1_555
O1 N1 1_555 1_555
O2 N1 1_555 1_555
N1 C1 1_555 1_555
N2 C4 1_555 1_555
H9 N2 1_555 1_555
N3 C7 1_555 1_555
S1 C8 1_555 1_555
C12 C13 1_555 1_555
C13 H10 1_555 1_555
C14 C13 1_555 1_555
H11 C14 1_555 1_555
C15 C14 1_555 1_555
C16 C15 1_555 1_555
H12 C16 1_555 1_555
C17 C12 1_555 1_555
H13 C17 1_555 1_555
C18 H14 1_555 1_555
C19 C18 1_555 1_555
C20 C19 1_555 1_555
H15 C20 1_555 1_555
C21 C20 1_555 1_555
H16 C21 1_555 1_555
C22 C21 1_555 1_555
H17 C22 1_555 1_555
O3 N4 1_555 1_555
O4 N4 1_555 1_555
N4 C12 1_555 1_555
N5 C15 1_555 1_555
H18 N5 1_555 1_555
N6 C18 1_555 1_555
S2 C19 1_555 1_555
C5 C6 1_555 1_555
C11 S1 1_555 1_555
N2 N3 1_555 1_555
C16 C17 1_555 1_555
C22 S2 1_555 1_555
N5 N6 1_555 1_555

#END
