
#######################################################################
#
#                 Cambridge Crystallographic Data Centre
#                                CCDC 
#
#######################################################################
#
# If this CIF has been generated from an entry in the Cambridge 
# Structural Database, then it will include bibliographic, chemical, 
# crystal, experimental, refinement or atomic coordinate data resulting 
# from the CCDC's data processing and validation procedures.
#
#######################################################################

data_OZAFOM
_chemical_name_common            
3-chloro-4-(cyclopentylamino)-1-phenylmaleimide
_chemical_formula_moiety         'C15 H15 Cl1 N2 O2'
_chemical_name_systematic        
3-chloro-4-(cyclopentylamino)-1-phenyl-1H-pyrrole-2,5-dione
_symmetry_cell_setting           monoclinic
_symmetry_space_group_name_H-M   'P 21/c'
_symmetry_Int_Tables_number      14
_space_group_name_Hall           '-P 2ybc'
loop_
_symmetry_equiv_pos_site_id
_symmetry_equiv_pos_as_xyz
1 x,y,z
2 -x,1/2+y,1/2-z
3 -x,-y,-z
4 x,1/2-y,1/2+z
_cell_length_a                   25.933(2)
_cell_length_b                   6.2494(5)
_cell_length_c                   18.4339(15)
_cell_angle_alpha                90
_cell_angle_beta                 109.3160(10)
_cell_angle_gamma                90
_cell_volume                     2819.33
_exptl_crystal_colour            yellow
_exptl_crystal_description       block
_cell_formula_units_Z            8
loop_
_atom_site_label
_atom_site_type_symbol
_atom_site_fract_x
_atom_site_fract_y
_atom_site_fract_z
Cl1 Cl 0.48303(4) -1.14733(19) 0.78400(6)
O1 O 0.37296(11) -0.8986(4) 0.71158(14)
O2 O 0.44409(12) -0.5000(5) 0.92923(16)
N1 N 0.39559(12) -0.6607(5) 0.81378(16)
N2 N 0.52713(13) -0.8151(6) 0.94077(19)
H1 H 0.5327 -0.7145 0.9759
C1 C 0.40498(14) -0.8400(6) 0.77206(19)
C2 C 0.45830(15) -0.9262(6) 0.8171(2)
C3 C 0.48061(14) -0.8068(7) 0.8812(2)
C4 C 0.43960(15) -0.6329(6) 0.8800(2)
C5 C 0.57051(16) -0.9827(7) 0.9522(2)
H2 H 0.5538 -1.1286 0.9425
C6 C 0.60407(17) -0.9387(8) 0.8987(2)
H3 H 0.6232 -1.0693 0.8909
H4 H 0.5806 -0.8843 0.8481
C7 C 0.6447(2) -0.7683(9) 0.9426(3)
H5 H 0.6771 -0.7648 0.9257
H6 H 0.6275 -0.6249 0.9350
C8 C 0.6602(2) -0.8364(11) 1.0255(3)
H7 H 0.6664 -0.7097 1.0595
H8 H 0.6940 -0.9232 1.0403
C9 C 0.61216(18) -0.9696(8) 1.0323(3)
H9 H 0.6247 -1.1146 1.0519
H10 H 0.5960 -0.8999 1.0679
C10 C 0.34429(15) -0.5505(6) 0.79626(19)
C11 C 0.30140(16) -0.6505(7) 0.8123(2)
H11 H 0.3055 -0.7909 0.8333
C12 C 0.25253(17) -0.5410(9) 0.7972(2)
H12 H 0.2229 -0.6064 0.8083
C13 C 0.24641(18) -0.3372(8) 0.7661(2)
H13 H 0.2129 -0.2627 0.7565
C14 C 0.28914(18) -0.2419(7) 0.7490(2)
H14 H 0.2849 -0.1029 0.7270
C15 C 0.33834(16) -0.3506(6) 0.7643(2)
H15 H 0.3678 -0.2862 0.7525
Cl2 Cl 0.04804(6) -1.4782(4) 0.78149(9)
O3 O 0.15695(12) -1.2223(7) 0.84983(18)
O4 O 0.05913(18) -0.9216(6) 0.9881(3)
N3 N 0.12085(14) -1.0329(6) 0.9300(2)
N4 N -0.01511(15) -1.2158(7) 0.8924(3)
H16 H -0.0246 -1.1305 0.9238
C16 C 0.11859(16) -1.1872(7) 0.8724(2)
C17 C 0.06502(16) -1.2829(8) 0.8498(2)
C18 C 0.03524(16) -1.1963(7) 0.8897(3)
C19 C 0.07188(18) -1.0322(7) 0.9432(3)
C20 C -0.0563(2) -1.3690(10) 0.8468(4)
H17 H -0.0509 -1.4007 0.7967
C21 C -0.1134(2) -1.2728(12) 0.8342(4)
H18 H -0.1115 -1.1695 0.8756
H19 H -0.1261 -1.1957 0.7845
C22 C -0.1488(4) -1.4327(15) 0.8341(7)
H20 H -0.1691 -1.4776 0.7808
H21 H -0.1755 -1.3835 0.8585
C23 C -0.1175(4) -1.6072(17) 0.8765(7)
H22 H -0.1296 -1.7412 0.8472
H23 H -0.1244 -1.6212 0.9260
C24 C -0.0567(3) -1.5787(12) 0.8923(5)
H24 H -0.0410 -1.7003 0.8723
H25 H -0.0367 -1.5610 0.9479
C25 C 0.16761(17) -0.9096(7) 0.9721(3)
C26 C 0.1782(2) -0.7190(8) 0.9414(3)
H26 H 0.1548 -0.6712 0.8927
C27 C 0.2233(2) -0.5986(8) 0.9826(3)
H27 H 0.2308 -0.4672 0.9622
C28 C 0.2575(2) -0.6698(8) 1.0536(3)
H28 H 0.2883 -0.5869 1.0819
C29 C 0.2466(2) -0.8613(8) 1.0830(3)
H29 H 0.2700 -0.9100 1.1315
C30 C 0.20171(19) -0.9828(8) 1.0418(3)
H30 H 0.1946 -1.1157 1.0616
loop_
_geom_bond_atom_site_label_1
_geom_bond_atom_site_label_2
_geom_bond_site_symmetry_1
_geom_bond_site_symmetry_2
Cl1 C2 1_555 1_555
O1 C1 1_555 1_555
O2 C4 1_555 1_555
N1 C1 1_555 1_555
N2 H1 1_555 1_555
C1 C2 1_555 1_555
C2 C3 1_555 1_555
C3 N2 1_555 1_555
C4 N1 1_555 1_555
C5 N2 1_555 1_555
H2 C5 1_555 1_555
C6 C5 1_555 1_555
H3 C6 1_555 1_555
H4 C6 1_555 1_555
C7 C6 1_555 1_555
H5 C7 1_555 1_555
H6 C7 1_555 1_555
C8 C7 1_555 1_555
H7 C8 1_555 1_555
H8 C8 1_555 1_555
C9 C5 1_555 1_555
H9 C9 1_555 1_555
H10 C9 1_555 1_555
C10 N1 1_555 1_555
C11 C10 1_555 1_555
H11 C11 1_555 1_555
C12 C11 1_555 1_555
H12 C12 1_555 1_555
C13 C12 1_555 1_555
H13 C13 1_555 1_555
C14 C13 1_555 1_555
H14 C14 1_555 1_555
C15 C10 1_555 1_555
H15 C15 1_555 1_555
Cl2 C17 1_555 1_555
O3 C16 1_555 1_555
O4 C19 1_555 1_555
N3 C16 1_555 1_555
N4 H16 1_555 1_555
C16 C17 1_555 1_555
C17 C18 1_555 1_555
C18 N4 1_555 1_555
C19 N3 1_555 1_555
C20 N4 1_555 1_555
H17 C20 1_555 1_555
C21 C20 1_555 1_555
H18 C21 1_555 1_555
H19 C21 1_555 1_555
C22 C21 1_555 1_555
H20 C22 1_555 1_555
H21 C22 1_555 1_555
C23 C22 1_555 1_555
H22 C23 1_555 1_555
H23 C23 1_555 1_555
C24 C20 1_555 1_555
H24 C24 1_555 1_555
H25 C24 1_555 1_555
C25 N3 1_555 1_555
C26 C25 1_555 1_555
H26 C26 1_555 1_555
C27 C26 1_555 1_555
H27 C27 1_555 1_555
C28 C27 1_555 1_555
H28 C28 1_555 1_555
C29 C28 1_555 1_555
H29 C29 1_555 1_555
C30 C25 1_555 1_555
H30 C30 1_555 1_555
C3 C4 1_555 1_555
C8 C9 1_555 1_555
C14 C15 1_555 1_555
C18 C19 1_555 1_555
C23 C24 1_555 1_555
C29 C30 1_555 1_555

#END
