
#######################################################################
#
#                 Cambridge Crystallographic Data Centre
#                                CCDC 
#
#######################################################################
#
# If this CIF has been generated from an entry in the Cambridge 
# Structural Database, then it will include bibliographic, chemical, 
# crystal, experimental, refinement or atomic coordinate data resulting 
# from the CCDC's data processing and validation procedures.
#
#######################################################################

data_OZAGED
_chemical_name_common            
'(S)-N-cinnamyl-2,3-dihydro-1,2-benzoisothiazole 1-oxide'
_chemical_formula_moiety         'C16 H15 N1 O1 S1'
_chemical_name_systematic        
(S)-2-(3-phenylprop-2-en-1-yl)-2,3-dihydro-1H-1,2-benzothiazol-1-one
_symmetry_cell_setting           orthorhombic
_symmetry_space_group_name_H-M   'P 21 21 21'
_symmetry_Int_Tables_number      19
_space_group_name_Hall           'P 2ac 2ab'
loop_
_symmetry_equiv_pos_site_id
_symmetry_equiv_pos_as_xyz
1 x,y,z
2 1/2-x,-y,1/2+z
3 -x,1/2+y,1/2-z
4 1/2+x,1/2-y,-z
_cell_length_a                   5.42050(16)
_cell_length_b                   11.0129(3)
_cell_length_c                   23.2980(7)
_cell_angle_alpha                90
_cell_angle_beta                 90
_cell_angle_gamma                90
_cell_volume                     1390.78
_exptl_crystal_colour            white
_exptl_crystal_description       needle
_chemical_melting_point          '387-389 K'
_cell_formula_units_Z            4
loop_
_atom_site_label
_atom_site_type_symbol
_atom_site_fract_x
_atom_site_fract_y
_atom_site_fract_z
S1 S 0.49436(16) 0.60367(7) 0.62271(3)
O1 O 0.3122(6) 0.6991(2) 0.63704(15)
N1 N 0.3740(6) 0.4628(3) 0.62164(12)
C1 C -0.0508(6) 0.2470(3) 0.57960(15)
H1 H -0.1844 0.2875 0.5958
C2 C 0.3500(8) 0.4060(3) 0.67824(15)
H2 H 0.3733 0.3188 0.6757
H3 H 0.1888 0.4222 0.6946
C3 C 0.1431(7) 0.3125(3) 0.56748(14)
H4 H 0.2740 0.2745 0.5490
C4 C -0.0792(6) 0.1154(3) 0.57014(14)
C5 C 0.5483(8) 0.4628(3) 0.71352(16)
C6 C 0.0968(8) 0.0469(4) 0.54093(16)
H5 H 0.2317 0.0850 0.5241
C7 C 0.6379(10) 0.4251(4) 0.76621(17)
H6 H 0.5755 0.3555 0.7835
C8 C 0.8306(8) 0.6342(4) 0.71370(19)
H7 H 0.8940 0.7030 0.6958
C9 C 0.0712(9) -0.0781(4) 0.53691(18)
H8 H 0.1918 -0.1236 0.5184
C10 C 0.6467(7) 0.5656(3) 0.68862(15)
C11 C -0.1307(10) -0.1352(4) 0.5600(2)
H9 H -0.1463 -0.2190 0.5568
C12 C -0.2811(7) 0.0556(4) 0.59284(18)
H10 H -0.4011 0.1001 0.6121
C13 C 0.1691(8) 0.4458(3) 0.58145(16)
H11 H 0.2001 0.4914 0.5466
H12 H 0.0175 0.4757 0.5984
C14 C -0.3094(9) -0.0696(4) 0.5877(2)
H13 H -0.4476 -0.1081 0.6028
C15 C 0.9169(9) 0.5955(5) 0.7671(2)
H14 H 1.0396 0.6394 0.7858
C16 C 0.8203(11) 0.4916(5) 0.79270(18)
H15 H 0.8800 0.4667 0.8282
loop_
_geom_bond_atom_site_label_1
_geom_bond_atom_site_label_2
_geom_bond_site_symmetry_1
_geom_bond_site_symmetry_2
S1 O1 1_555 1_555
N1 S1 1_555 1_555
C1 H1 1_555 1_555
C2 N1 1_555 1_555
H2 C2 1_555 1_555
H3 C2 1_555 1_555
C3 C1 1_555 1_555
H4 C3 1_555 1_555
C4 C1 1_555 1_555
C5 C2 1_555 1_555
C6 C4 1_555 1_555
H5 C6 1_555 1_555
C7 C5 1_555 1_555
H6 C7 1_555 1_555
C8 H7 1_555 1_555
C9 C6 1_555 1_555
H8 C9 1_555 1_555
C10 S1 1_555 1_555
C11 C9 1_555 1_555
H9 C11 1_555 1_555
C12 C4 1_555 1_555
H10 C12 1_555 1_555
C13 N1 1_555 1_555
H11 C13 1_555 1_555
H12 C13 1_555 1_555
C14 C11 1_555 1_555
H13 C14 1_555 1_555
C15 C8 1_555 1_555
H14 C15 1_555 1_555
C16 C7 1_555 1_555
H15 C16 1_555 1_555
C3 C13 1_555 1_555
C5 C10 1_555 1_555
C8 C10 1_555 1_555
C12 C14 1_555 1_555
C15 C16 1_555 1_555

#END
