
#######################################################################
#
#                 Cambridge Crystallographic Data Centre
#                                CCDC 
#
#######################################################################
#
# If this CIF has been generated from an entry in the Cambridge 
# Structural Database, then it will include bibliographic, chemical, 
# crystal, experimental, refinement or atomic coordinate data resulting 
# from the CCDC's data processing and validation procedures.
#
#######################################################################

data_OZAKUX
_chemical_formula_moiety         'C23 H17 O1 P1'
_chemical_name_systematic        
'diphenyl(5-phenylpenta-2,4-diyn-1-yl)phosphine oxide'
_symmetry_cell_setting           monoclinic
_symmetry_space_group_name_H-M   'P 21/c'
_symmetry_Int_Tables_number      14
_space_group_name_Hall           '-P 2ybc'
loop_
_symmetry_equiv_pos_site_id
_symmetry_equiv_pos_as_xyz
1 x,y,z
2 -x,1/2+y,1/2-z
3 -x,-y,-z
4 x,1/2-y,1/2+z
_cell_length_a                   13.3926(8)
_cell_length_b                   5.7750(3)
_cell_length_c                   23.7568(18)
_cell_angle_alpha                90
_cell_angle_beta                 92.983(6)
_cell_angle_gamma                90
_cell_volume                     1834.92
_exptl_crystal_colour            colorless
_exptl_crystal_description       block
_cell_formula_units_Z            4
loop_
_atom_site_label
_atom_site_type_symbol
_atom_site_fract_x
_atom_site_fract_y
_atom_site_fract_z
P1 P 0.41443(5) 0.95488(10) 0.41398(3)
O1 O 0.44113(14) 1.1961(3) 0.42968(8)
C1 C 0.9854(2) 1.3329(6) 0.36057(14)
H1 H 0.9481 1.4316 0.3822
C2 C 1.0799(3) 1.3998(6) 0.34489(17)
H2 H 1.1065 1.5414 0.3568
C3 C 1.1334(3) 1.2564(8) 0.31194(18)
H3 H 1.1964 1.3017 0.3013
C4 C 1.0959(3) 1.0505(7) 0.29477(16)
H4 H 1.1331 0.9555 0.2722
C5 C 1.0033(2) 0.9791(6) 0.31027(14)
H5 H 0.9784 0.8363 0.2981
C6 C 0.94679(19) 1.1191(5) 0.34399(12)
C7 C 0.8515(2) 1.0392(5) 0.36134(13)
C8 C 0.7737(2) 0.9670(5) 0.37647(13)
C9 C 0.6838(2) 0.8877(5) 0.39494(12)
C10 C 0.60675(19) 0.8189(5) 0.41167(11)
C11 C 0.51229(17) 0.7485(4) 0.43341(11)
H6 H 0.5194 0.7367 0.4742
H7 H 0.4939 0.5971 0.4185
C12 C 0.39052(16) 0.9267(4) 0.33879(10)
C13 C 0.41786(18) 1.1049(4) 0.30418(11)
H8 H 0.4494 1.2353 0.3196
C14 C 0.3984(2) 1.0901(5) 0.24612(12)
H9 H 0.4167 1.2110 0.2229
C15 C 0.3525(2) 0.8988(5) 0.22320(12)
H10 H 0.3394 0.8893 0.1844
C16 C 0.3257(2) 0.7203(5) 0.25745(12)
H11 H 0.2943 0.5902 0.2417
C17 C 0.34473(19) 0.7321(4) 0.31475(11)
H12 H 0.3269 0.6095 0.3375
C18 C 0.30409(18) 0.8511(4) 0.44605(10)
C19 C 0.2204(2) 0.9901(6) 0.44123(15)
H13 H 0.2235 1.1310 0.4224
C20 C 0.1321(2) 0.9232(7) 0.46392(17)
H14 H 0.0757 1.0168 0.4593
C21 C 0.1271(2) 0.7218(6) 0.49286(14)
H15 H 0.0681 0.6788 0.5090
C22 C 0.2083(3) 0.5842(6) 0.49810(18)
H16 H 0.2053 0.4460 0.5180
C23 C 0.2960(2) 0.6472(6) 0.47406(16)
H17 H 0.3507 0.5480 0.4771
loop_
_geom_bond_atom_site_label_1
_geom_bond_atom_site_label_2
_geom_bond_site_symmetry_1
_geom_bond_site_symmetry_2
P1 O1 1_555 1_555
C1 H1 1_555 1_555
C2 C1 1_555 1_555
H2 C2 1_555 1_555
C3 C2 1_555 1_555
H3 C3 1_555 1_555
C4 C3 1_555 1_555
H4 C4 1_555 1_555
C5 C4 1_555 1_555
H5 C5 1_555 1_555
C6 C1 1_555 1_555
C7 C6 1_555 1_555
C8 C7 1_555 1_555
C9 C8 1_555 1_555
C10 C9 1_555 1_555
C11 P1 1_555 1_555
H6 C11 1_555 1_555
H7 C11 1_555 1_555
C12 P1 1_555 1_555
C13 C12 1_555 1_555
H8 C13 1_555 1_555
C14 C13 1_555 1_555
H9 C14 1_555 1_555
C15 C14 1_555 1_555
H10 C15 1_555 1_555
C16 C15 1_555 1_555
H11 C16 1_555 1_555
C17 C12 1_555 1_555
H12 C17 1_555 1_555
C18 P1 1_555 1_555
C19 C18 1_555 1_555
H13 C19 1_555 1_555
C20 C19 1_555 1_555
H14 C20 1_555 1_555
C21 C20 1_555 1_555
H15 C21 1_555 1_555
C22 C21 1_555 1_555
H16 C22 1_555 1_555
C23 C18 1_555 1_555
H17 C23 1_555 1_555
C5 C6 1_555 1_555
C10 C11 1_555 1_555
C16 C17 1_555 1_555
C22 C23 1_555 1_555

#END
