
#######################################################################
#
#                 Cambridge Crystallographic Data Centre
#                                CCDC 
#
#######################################################################
#
# If this CIF has been generated from an entry in the Cambridge 
# Structural Database, then it will include bibliographic, chemical, 
# crystal, experimental, refinement or atomic coordinate data resulting 
# from the CCDC's data processing and validation procedures.
#
#######################################################################

data_OZAPIQ
_chemical_formula_moiety         'C20 H23 Br1 N2'
_chemical_name_systematic        
1-(2-(4-bromophenyl)-2-methylcyclopropyl)-4-phenylpiperazine
_symmetry_cell_setting           monoclinic
_symmetry_space_group_name_H-M   'P 21'
_symmetry_Int_Tables_number      4
_space_group_name_Hall           'P 2yb'
loop_
_symmetry_equiv_pos_site_id
_symmetry_equiv_pos_as_xyz
1 x,y,z
2 -x,1/2+y,-z
_cell_length_a                   6.1715(10)
_cell_length_b                   18.173(3)
_cell_length_c                   7.8303(12)
_cell_angle_alpha                90
_cell_angle_beta                 93.281(5)
_cell_angle_gamma                90
_cell_volume                     876.765
_exptl_crystal_colour            colorless
_exptl_crystal_description       plate
_cell_formula_units_Z            2
loop_
_atom_site_label
_atom_site_type_symbol
_atom_site_fract_x
_atom_site_fract_y
_atom_site_fract_z
Br1 Br 0.36802(6) -0.13051(3) 0.27460(4)
N1 N 0.0857(4) 0.31004(14) 0.2851(3)
N2 N 0.1834(4) 0.45083(14) 0.1402(3)
C1 C 0.2801(5) -0.03334(17) 0.3291(4)
C2 C 0.4151(5) 0.00923(18) 0.4345(4)
H1 H 0.5504 -0.0097 0.4787
C3 C 0.3522(4) 0.07982(17) 0.4754(4)
H2 H 0.4435 0.1085 0.5512
C4 C 0.1558(4) 0.11011(16) 0.4074(3)
C5 C 0.0251(5) 0.06497(17) 0.3000(4)
H3 H -0.1085 0.0839 0.2522
C6 C 0.0837(5) -0.00626(18) 0.2610(4)
H4 H -0.0090 -0.0361 0.1889
C7 C 0.0995(4) 0.18774(17) 0.4444(3)
C8 C 0.0171(4) 0.23499(16) 0.2912(4)
H5 H 0.0012 0.2090 0.1786
C9 C -0.1379(4) 0.21217(18) 0.4214(4)
H6 H -0.2475 0.1743 0.3876
H7 H -0.1885 0.2504 0.4998
C10 C 0.2350(5) 0.22707(17) 0.5833(4)
H8 H 0.3844 0.2319 0.5486
H9 H 0.2342 0.1987 0.6897
H10 H 0.1742 0.2761 0.6015
C11 C 0.2674(4) 0.31835(17) 0.1760(4)
H11 H 0.2196 0.3065 0.0563
H12 H 0.3844 0.2836 0.2130
C12 C 0.3534(4) 0.39632(17) 0.1854(4)
H13 H 0.4143 0.4062 0.3029
H14 H 0.4722 0.4015 0.1065
C13 C -0.0078(5) 0.43954(17) 0.2408(4)
H15 H -0.1253 0.4732 0.1991
H16 H 0.0299 0.4514 0.3622
C14 C -0.0868(4) 0.3616(2) 0.2272(4)
H17 H -0.2134 0.3552 0.2979
H18 H -0.1340 0.3506 0.1069
C15 C 0.2529(4) 0.52359(16) 0.1192(3)
C16 C 0.4379(5) 0.53845(18) 0.0280(4)
H19 H 0.5194 0.4985 -0.0133
C17 C 0.5037(6) 0.60931(19) -0.0030(5)
H20 H 0.6296 0.6175 -0.0647
C18 C 0.3880(5) 0.66915(18) 0.0550(4)
H21 H 0.4322 0.7181 0.0328
C19 C 0.2076(5) 0.65529(18) 0.1457(4)
H22 H 0.1268 0.6955 0.1863
C20 C 0.1411(4) 0.58443(18) 0.1791(4)
H23 H 0.0174 0.5769 0.2438
loop_
_geom_bond_atom_site_label_1
_geom_bond_atom_site_label_2
_geom_bond_site_symmetry_1
_geom_bond_site_symmetry_2
Br1 C1 1_555 1_555
N1 C8 1_555 1_555
N2 C12 1_555 1_555
C1 C2 1_555 1_555
C2 H1 1_555 1_555
C3 C2 1_555 1_555
H2 C3 1_555 1_555
C4 C3 1_555 1_555
C5 C4 1_555 1_555
H3 C5 1_555 1_555
C6 C1 1_555 1_555
H4 C6 1_555 1_555
C7 C4 1_555 1_555
C8 C7 1_555 1_555
H5 C8 1_555 1_555
C9 C7 1_555 1_555
H6 C9 1_555 1_555
H7 C9 1_555 1_555
C10 C7 1_555 1_555
H8 C10 1_555 1_555
H9 C10 1_555 1_555
H10 C10 1_555 1_555
C11 N1 1_555 1_555
H11 C11 1_555 1_555
H12 C11 1_555 1_555
C12 C11 1_555 1_555
H13 C12 1_555 1_555
H14 C12 1_555 1_555
C13 N2 1_555 1_555
H15 C13 1_555 1_555
H16 C13 1_555 1_555
C14 N1 1_555 1_555
H17 C14 1_555 1_555
H18 C14 1_555 1_555
C15 N2 1_555 1_555
C16 C15 1_555 1_555
H19 C16 1_555 1_555
C17 C16 1_555 1_555
H20 C17 1_555 1_555
C18 C17 1_555 1_555
H21 C18 1_555 1_555
C19 C18 1_555 1_555
H22 C19 1_555 1_555
C20 C15 1_555 1_555
H23 C20 1_555 1_555
C5 C6 1_555 1_555
C8 C9 1_555 1_555
C13 C14 1_555 1_555
C19 C20 1_555 1_555

#END
