
#######################################################################
#
#                 Cambridge Crystallographic Data Centre
#                                CCDC 
#
#######################################################################
#
# If this CIF has been generated from an entry in the Cambridge 
# Structural Database, then it will include bibliographic, chemical, 
# crystal, experimental, refinement or atomic coordinate data resulting 
# from the CCDC's data processing and validation procedures.
#
#######################################################################

data_OZAPUC01
_chemical_formula_moiety         'C13 H23 B12 N2 O1 S2 1-,C16 H36 N1 1+'
_chemical_name_systematic        
'tetra-n-butylammonium 1,2-((dimethylamino)(iminio)methoxy)-3-(1,2-bis(2-thienyl)ethenyl)-closo-dodecaborate'
_symmetry_cell_setting           triclinic
_symmetry_space_group_name_H-M   'P -1'
_symmetry_Int_Tables_number      2
_space_group_name_Hall           '-P 1'
loop_
_symmetry_equiv_pos_site_id
_symmetry_equiv_pos_as_xyz
1 x,y,z
2 -x,-y,-z
_cell_length_a                   9.6489(4)
_cell_length_b                   12.2017(6)
_cell_length_c                   17.5265(7)
_cell_angle_alpha                70.535(4)
_cell_angle_beta                 74.057(4)
_cell_angle_gamma                86.704(4)
_cell_volume                     1869.36
_exptl_crystal_colour            yellow
_exptl_crystal_description       block
_cell_formula_units_Z            2
loop_
_atom_site_label
_atom_site_type_symbol
_atom_site_fract_x
_atom_site_fract_y
_atom_site_fract_z
S1 S 0.60739(9) 0.63066(7) 0.05489(5)
O1 O 0.5990(2) 0.9198(2) 0.24505(14)
N1 N 0.7910(2) 0.99706(19) 0.13503(16)
H1 H 0.8346 1.0408 0.0835
N2 N 0.5574(3) 1.0291(2) 0.12046(18)
C1 C 0.6493(3) 0.9831(3) 0.1657(2)
C2 C 0.4029(4) 1.0072(3) 0.1566(2)
H2 H 0.3746 0.9355 0.1503
H3 H 0.3518 1.0724 0.1274
H4 H 0.3781 0.9988 0.2164
C3 C 0.6133(5) 1.0935(3) 0.0312(3)
H5 H 0.6738 1.1600 0.0240
H6 H 0.5328 1.1214 0.0067
H7 H 0.6711 1.0424 0.0029
C4 C 0.7664(3) 0.7306(2) 0.17139(17)
C5 C 0.6238(3) 0.7074(2) 0.18844(18)
H8 H 0.5682 0.7156 0.2400
C6 C 0.5392(3) 0.6721(2) 0.14305(18)
C7 C 0.3907(3) 0.6678(2) 0.16411(19)
H9 H 0.3322 0.6872 0.2107
C8 C 0.3342(3) 0.6320(3) 0.1102(2)
H10 H 0.2339 0.6251 0.1162
C9 C 0.4375(4) 0.6085(3) 0.0491(2)
H11 H 0.4183 0.5826 0.0074
B1 B 0.7211(4) 0.8704(3) 0.2812(2)
B2 B 0.8695(4) 0.9294(3) 0.1986(2)
B3 B 0.8294(3) 0.7777(3) 0.2297(2)
B4 B 0.7605(4) 0.7300(4) 0.3408(2)
H12 H 0.6773 0.6572 0.3746
B5 B 0.7612(4) 0.8522(5) 0.3768(3)
H13 H 0.6784 0.8587 0.4340
B6 B 0.8296(4) 0.9742(4) 0.2894(3)
H14 H 0.7914 1.0627 0.2893
B7 B 0.9438(4) 0.9027(4) 0.3494(3)
H15 H 0.9828 0.9420 0.3894
B8 B 1.0115(4) 0.9550(3) 0.2373(2)
H16 H 1.0924 1.0294 0.2028
B9 B 1.0114(3) 0.8318(3) 0.2006(2)
H17 H 1.0923 0.8260 0.1425
B10 B 0.9445(4) 0.7071(3) 0.2915(2)
H18 H 0.9836 0.6182 0.2938
B11 B 0.9021(4) 0.7524(4) 0.3818(2)
H19 H 0.9131 0.6922 0.4439
B12 B 1.0559(4) 0.8154(3) 0.2960(2)
H20 H 1.1690 0.7976 0.3007
S2 S 0.89896(15) 0.83048(11) -0.00009(9)
C10 C 0.8655(12) 0.7126(7) 0.0989(4)
C11 C 0.9522(6) 0.6262(5) 0.0813(4)
H21 H 0.9492 0.5532 0.1241
C12 C 1.0420(18) 0.6439(17) 0.0034(9)
H22 H 1.1087 0.5888 -0.0109
C13 C 1.0260(13) 0.7486(13) -0.0514(8)
H23 H 1.0759 0.7750 -0.1095
N3 N 0.7546(2) 0.2889(2) 0.41449(15)
C18 C 0.6545(3) 0.2701(3) 0.36600(19)
H27 H 0.6982 0.2134 0.3378
H28 H 0.5624 0.2343 0.4069
C19 C 0.6205(4) 0.3773(3) 0.3003(2)
H29 H 0.7115 0.4168 0.2603
H30 H 0.5684 0.4322 0.3280
C20 C 0.5282(3) 0.3444(3) 0.2525(2)
H31 H 0.4470 0.2923 0.2937
H32 H 0.4869 0.4158 0.2213
C21 C 0.6087(5) 0.2847(4) 0.1912(2)
H33 H 0.6929 0.3334 0.1522
H34 H 0.5449 0.2727 0.1596
H35 H 0.6405 0.2094 0.2222
C22 C 0.6827(3) 0.3677(3) 0.4643(2)
H36 H 0.6602 0.4411 0.4245
H37 H 0.5900 0.3297 0.5030
C23 C 0.7697(3) 0.3977(3) 0.5154(2)
H38 H 0.8015 0.3254 0.5517
H39 H 0.8566 0.4455 0.4771
C24 C 0.6791(3) 0.4642(3) 0.5693(2)
H40 H 0.6393 0.5319 0.5332
H41 H 0.5970 0.4133 0.6107
C25 C 0.7638(4) 0.5063(3) 0.6156(2)
H42 H 0.8316 0.5695 0.5756
H43 H 0.8174 0.4419 0.6436
H44 H 0.6974 0.5347 0.6577
C26 C 0.7840(3) 0.1708(3) 0.4732(2)
H45 H 0.8283 0.1217 0.4385
H46 H 0.8559 0.1832 0.5007
C27 C 0.6555(4) 0.1046(4) 0.5404(3)
H47 H 0.5921 0.0782 0.5136
H48 H 0.6002 0.1579 0.5686
C28 C 0.7790(5) -0.0856(4) 0.5826(3)
H49 H 0.8112 -0.0622 0.5211
H50 H 0.7226 -0.1592 0.6050
H51 H 0.8631 -0.0956 0.6050
C29 C 0.8974(3) 0.3465(3) 0.35552(19)
H52 H 0.8806 0.4290 0.3268
H53 H 0.9637 0.3457 0.3899
C30 C 0.9722(3) 0.2935(3) 0.2893(2)
H54 H 0.9144 0.3034 0.2489
H55 H 0.9829 0.2092 0.3159
C31 C 1.1205(3) 0.3540(3) 0.2435(2)
H56 H 1.1080 0.4387 0.2203
H57 H 1.1774 0.3417 0.2847
C32 C 1.2038(4) 0.3119(4) 0.1734(2)
H58 H 1.1525 0.3302 0.1298
H59 H 1.2134 0.2276 0.1953
H60 H 1.2998 0.3504 0.1493
C33 C 0.6936(6) 0.0000(5) 0.6063(4)
H61 H 0.7426 0.0297 0.6386
H62 H 0.6018 -0.0388 0.6457
S3? S 0.9441(4) 0.5873(3) 0.1039(2)
C14? C 0.869(4) 0.735(3) 0.0788(16)
C15? C 0.931(2) 0.8050(17) 0.0146(12)
H24? H 0.9289 0.8864 0.0047
C16? C 1.001(4) 0.760(4) -0.039(3)
H25? H 1.0331 0.8047 -0.0973
C17? C 1.028(6) 0.643(5) -0.011(3)
H26? H 1.0803 0.5989 -0.0438
H63? H 0.6411 0.1356 0.5874
H64? H 0.5712 0.1273 0.5174
H65? H 0.8398 -0.0785 0.5262
H66? H 0.7497 -0.1675 0.6139
H67? H 0.8332 -0.0567 0.6122
C34? C 0.6457(16) -0.0145(13) 0.5757(10)
H68? H 0.5962 -0.0442 0.5435
H69? H 0.5807 -0.0330 0.6332
loop_
_geom_bond_atom_site_label_1
_geom_bond_atom_site_label_2
_geom_bond_site_symmetry_1
_geom_bond_site_symmetry_2
S1 C6 1_555 1_555
O1 C1 1_555 1_555
N1 H1 1_555 1_555
N2 C1 1_555 1_555
C1 N1 1_555 1_555
C2 N2 1_555 1_555
H2 C2 1_555 1_555
H3 C2 1_555 1_555
H4 C2 1_555 1_555
C3 N2 1_555 1_555
H5 C3 1_555 1_555
H6 C3 1_555 1_555
H7 C3 1_555 1_555
C4 C5 1_555 1_555
C5 H8 1_555 1_555
C6 C5 1_555 1_555
C7 C6 1_555 1_555
H9 C7 1_555 1_555
C8 C7 1_555 1_555
H10 C8 1_555 1_555
C9 S1 1_555 1_555
H11 C9 1_555 1_555
B1 O1 1_555 1_555
B2 N1 1_555 1_555
B3 C4 1_555 1_555
B4 B1 1_555 1_555
H12 B4 1_555 1_555
B5 B1 1_555 1_555
H13 B5 1_555 1_555
B6 B1 1_555 1_555
H14 B6 1_555 1_555
B7 B5 1_555 1_555
H15 B7 1_555 1_555
B8 B2 1_555 1_555
H16 B8 1_555 1_555
B9 B2 1_555 1_555
H17 B9 1_555 1_555
B10 B3 1_555 1_555
H18 B10 1_555 1_555
B11 B4 1_555 1_555
H19 B11 1_555 1_555
B12 B7 1_555 1_555
H20 B12 1_555 1_555
S2 C10 1_555 1_555
C10 C4 1_555 1_555
C11 C10 1_555 1_555
H21 C11 1_555 1_555
C12 C11 1_555 1_555
H22 C12 1_555 1_555
C13 S2 1_555 1_555
H23 C13 1_555 1_555
N3 C18 1_555 1_555
C18 H27 1_555 1_555
H28 C18 1_555 1_555
C19 C18 1_555 1_555
H29 C19 1_555 1_555
H30 C19 1_555 1_555
C20 C19 1_555 1_555
H31 C20 1_555 1_555
H32 C20 1_555 1_555
C21 C20 1_555 1_555
H33 C21 1_555 1_555
H34 C21 1_555 1_555
H35 C21 1_555 1_555
C22 N3 1_555 1_555
H36 C22 1_555 1_555
H37 C22 1_555 1_555
C23 C22 1_555 1_555
H38 C23 1_555 1_555
H39 C23 1_555 1_555
C24 C23 1_555 1_555
H40 C24 1_555 1_555
H41 C24 1_555 1_555
C25 C24 1_555 1_555
H42 C25 1_555 1_555
H43 C25 1_555 1_555
H44 C25 1_555 1_555
C26 N3 1_555 1_555
H45 C26 1_555 1_555
H46 C26 1_555 1_555
C27 C26 1_555 1_555
H47 C27 1_555 1_555
H48 C27 1_555 1_555
C28 H49 1_555 1_555
H50 C28 1_555 1_555
H51 C28 1_555 1_555
C29 N3 1_555 1_555
H52 C29 1_555 1_555
H53 C29 1_555 1_555
C30 C29 1_555 1_555
H54 C30 1_555 1_555
H55 C30 1_555 1_555
C31 C30 1_555 1_555
H56 C31 1_555 1_555
H57 C31 1_555 1_555
C32 C31 1_555 1_555
H58 C32 1_555 1_555
H59 C32 1_555 1_555
H60 C32 1_555 1_555
C33 C27 1_555 1_555
H61 C33 1_555 1_555
H62 C33 1_555 1_555
C8 C9 1_555 1_555
B1 B2 1_555 1_555
B1 B3 1_555 1_555
B2 B3 1_555 1_555
B2 B6 1_555 1_555
B3 B4 1_555 1_555
B3 B9 1_555 1_555
B4 B5 1_555 1_555
B4 B10 1_555 1_555
B5 B6 1_555 1_555
B5 B11 1_555 1_555
B6 B7 1_555 1_555
B6 B8 1_555 1_555
B7 B8 1_555 1_555
B7 B11 1_555 1_555
B8 B9 1_555 1_555
B8 B12 1_555 1_555
B9 B10 1_555 1_555
B9 B12 1_555 1_555
B10 B11 1_555 1_555
B10 B12 1_555 1_555
B11 B12 1_555 1_555
C12 C13 1_555 1_555
C28 C33 1_555 1_555

#END
