
#######################################################################
#
#                 Cambridge Crystallographic Data Centre
#                                CCDC 
#
#######################################################################
#
# If this CIF has been generated from an entry in the Cambridge 
# Structural Database, then it will include bibliographic, chemical, 
# crystal, experimental, refinement or atomic coordinate data resulting 
# from the CCDC's data processing and validation procedures.
#
#######################################################################

data_OZAQUD
_chemical_formula_moiety         'C19 H31 B12 N2 O3 1-,C16 H36 N1 1+'
_chemical_name_systematic        
'tetra-n-butylammonium 1,2-((dimethylamino)(iminio)methoxy)-3-(1,2-bis(4-methoxyphenyl)ethenyl)-closo-dodecaborate'
_symmetry_cell_setting           monoclinic
_symmetry_space_group_name_H-M   'P 21/c'
_symmetry_Int_Tables_number      14
_space_group_name_Hall           '-P 2ybc'
loop_
_symmetry_equiv_pos_site_id
_symmetry_equiv_pos_as_xyz
1 x,y,z
2 -x,1/2+y,1/2-z
3 -x,-y,-z
4 x,1/2-y,1/2+z
_cell_length_a                   9.7114(4)
_cell_length_b                   37.5101(18)
_cell_length_c                   11.6001(5)
_cell_angle_alpha                90
_cell_angle_beta                 90.737(4)
_cell_angle_gamma                90
_cell_volume                     4225.28
_exptl_crystal_colour            colorless
_exptl_crystal_description       block
_cell_formula_units_Z            4
loop_
_atom_site_label
_atom_site_type_symbol
_atom_site_fract_x
_atom_site_fract_y
_atom_site_fract_z
O1 O 0.04903(16) 0.10671(5) 0.18650(14)
O2 O -0.2601(3) 0.29577(7) 0.4532(3)
O3 O 0.4395(2) 0.23236(7) 0.6698(2)
N1 N -0.09297(18) 0.14856(6) 0.11204(17)
H1 H -0.1135 0.1678 0.0717
N2 N 0.1457(2) 0.15335(7) 0.0915(2)
C1 C 0.0335(2) 0.13661(7) 0.1291(2)
C2 C 0.2825(3) 0.13994(9) 0.1216(3)
H2 H 0.3210 0.1540 0.1855
H3 H 0.3425 0.1419 0.0546
H4 H 0.2758 0.1149 0.1449
C3 C 0.1364(3) 0.18719(9) 0.0315(3)
H5 H 0.1151 0.1830 -0.0501
H6 H 0.2245 0.1998 0.0387
H7 H 0.0634 0.2017 0.0655
C4 C -0.0767(2) 0.15423(7) 0.3839(2)
C5 C -0.1339(2) 0.19090(7) 0.3960(2)
C6 C -0.0826(3) 0.21896(8) 0.3337(3)
H8 H -0.0152 0.2146 0.2767
C7 C -0.1282(4) 0.25373(9) 0.3531(3)
H9 H -0.0917 0.2729 0.3094
C8 C -0.2252(3) 0.26021(9) 0.4348(3)
C9 C -0.2802(3) 0.23288(9) 0.4964(3)
H10 H -0.3484 0.2373 0.5526
C10 C -0.2348(3) 0.19849(8) 0.4755(3)
H11 H -0.2745 0.1794 0.5173
C11 C -0.3787(4) 0.30261(11) 0.5173(5)
H12 H -0.4564 0.2892 0.4844
H13 H -0.3994 0.3282 0.5149
H14 H -0.3631 0.2952 0.5975
C12 C 0.0525(2) 0.14778(7) 0.4230(2)
H15 H 0.0868 0.1246 0.4077
C13 C 0.1485(2) 0.17177(8) 0.4865(2)
C14 C 0.1061(3) 0.19626(8) 0.5690(3)
H16 H 0.0105 0.1988 0.5831
C15 C 0.1992(3) 0.21720(8) 0.6316(3)
H17 H 0.1672 0.2336 0.6876
C16 C 0.3378(3) 0.21380(9) 0.6115(3)
C17 C 0.3830(3) 0.18945(10) 0.5307(3)
H18 H 0.4787 0.1871 0.5165
C18 C 0.2898(3) 0.16848(8) 0.4704(2)
H19 H 0.3228 0.1514 0.4168
C19 C 0.4005(4) 0.25460(11) 0.7627(3)
H20 H 0.3384 0.2733 0.7341
H21 H 0.4829 0.2656 0.7972
H22 H 0.3535 0.2403 0.8209
B1 B -0.0884(3) 0.09349(8) 0.2276(2)
B2 B -0.1981(3) 0.12526(8) 0.1702(2)
B3 B -0.1682(3) 0.12437(8) 0.3239(2)
B4 B -0.1501(3) 0.07841(8) 0.3607(2)
H23 H -0.0810 0.0697 0.4334
B5 B -0.1701(3) 0.05160(9) 0.2325(3)
H24 H -0.1144 0.0257 0.2220
B6 B -0.2021(3) 0.08102(8) 0.1156(3)
H25 H -0.1666 0.0740 0.0270
B7 B -0.3573(3) 0.10486(9) 0.1349(3)
H26 H -0.4235 0.1135 0.0603
B8 B -0.3377(3) 0.13187(8) 0.2640(2)
H27 H -0.3916 0.1581 0.2732
B9 B -0.3093(3) 0.10191(8) 0.3825(2)
H28 H -0.3466 0.1084 0.4710
B10 B -0.3111(3) 0.05740(9) 0.3288(3)
H29 H -0.3493 0.0347 0.3823
B11 B -0.3420(3) 0.05929(9) 0.1772(3)
H30 H -0.4008 0.0378 0.1309
B12 B -0.4251(3) 0.09025(9) 0.2687(3)
H31 H -0.5390 0.0892 0.2825
N3 N -0.29091(19) 0.03555(6) 0.74109(17)
C20 C -0.4186(2) 0.05434(8) 0.6938(2)
H32 H -0.3962 0.0649 0.6180
H33 H -0.4916 0.0363 0.6806
C21 C -0.4756(3) 0.08349(8) 0.7703(2)
H34 H -0.5125 0.0727 0.8414
H35 H -0.4003 0.0999 0.7930
C22 C -0.5882(3) 0.10422(8) 0.7097(2)
H36 H -0.6653 0.0879 0.6904
H37 H -0.5524 0.1139 0.6366
C23 C -0.6416(3) 0.13460(9) 0.7828(3)
H38 H -0.7161 0.1469 0.7412
H39 H -0.5666 0.1514 0.7990
H40 H -0.6765 0.1251 0.8555
C24 C -0.2341(2) 0.01113(7) 0.6480(2)
H41 H -0.2129 0.0258 0.5796
H42 H -0.1462 0.0008 0.6767
C25 C -0.3270(3) -0.01913(8) 0.6100(3)
H43 H -0.4002 -0.0098 0.5581
H44 H -0.3717 -0.0296 0.6783
C26 C -0.2466(3) -0.04795(8) 0.5475(3)
H45 H -0.1758 -0.0577 0.6010
H46 H -0.3103 -0.0676 0.5269
C27 C -0.1767(3) -0.03526(9) 0.4395(3)
H47 H -0.2459 -0.0257 0.3856
H48 H -0.1288 -0.0553 0.4034
H49 H -0.1101 -0.0166 0.4593
C28 C -0.3317(2) 0.01469(8) 0.8482(2)
H50 H -0.3635 0.0319 0.9069
H51 H -0.4108 -0.0008 0.8276
C29 C -0.2203(3) -0.00832(8) 0.9022(2)
H52 H -0.1783 -0.0235 0.8423
H53 H -0.1473 0.0071 0.9357
C30 C -0.2795(3) -0.03154(8) 0.9951(2)
H54 H -0.3439 -0.0489 0.9593
H55 H -0.3329 -0.0165 1.0485
C31 C -0.1708(3) -0.05156(9) 1.0631(3)
H56 H -0.1178 -0.0667 1.0108
H57 H -0.2151 -0.0665 1.1212
H58 H -0.1089 -0.0345 1.1014
C32 C -0.1798(2) 0.06225(8) 0.7743(2)
H59 H -0.2107 0.0756 0.8430
H60 H -0.0956 0.0489 0.7969
C33 C -0.1424(3) 0.08879(9) 0.6820(2)
H61 H -0.1095 0.0758 0.6134
H62 H -0.2257 0.1024 0.6589
C34 C -0.0327(3) 0.11437(9) 0.7220(3)
H63 H 0.0422 0.1008 0.7606
H64 H 0.0068 0.1264 0.6540
C35 C -0.0839(6) 0.14153(13) 0.8019(4)
H65 H -0.1629 0.1538 0.7666
H66 H -0.0107 0.1588 0.8186
H67 H -0.1123 0.1301 0.8736
loop_
_geom_bond_atom_site_label_1
_geom_bond_atom_site_label_2
_geom_bond_site_symmetry_1
_geom_bond_site_symmetry_2
O1 C1 1_555 1_555
O2 C8 1_555 1_555
O3 C16 1_555 1_555
N1 H1 1_555 1_555
N2 C1 1_555 1_555
C1 N1 1_555 1_555
C2 N2 1_555 1_555
H2 C2 1_555 1_555
H3 C2 1_555 1_555
H4 C2 1_555 1_555
C3 N2 1_555 1_555
H5 C3 1_555 1_555
H6 C3 1_555 1_555
H7 C3 1_555 1_555
C4 C5 1_555 1_555
C5 C6 1_555 1_555
C6 H8 1_555 1_555
C7 C6 1_555 1_555
H9 C7 1_555 1_555
C8 C7 1_555 1_555
C9 C8 1_555 1_555
H10 C9 1_555 1_555
C10 C5 1_555 1_555
H11 C10 1_555 1_555
C11 O2 1_555 1_555
H12 C11 1_555 1_555
H13 C11 1_555 1_555
H14 C11 1_555 1_555
C12 C4 1_555 1_555
H15 C12 1_555 1_555
C13 C12 1_555 1_555
C14 C13 1_555 1_555
H16 C14 1_555 1_555
C15 C14 1_555 1_555
H17 C15 1_555 1_555
C16 C15 1_555 1_555
C17 C16 1_555 1_555
H18 C17 1_555 1_555
C18 C13 1_555 1_555
H19 C18 1_555 1_555
C19 O3 1_555 1_555
H20 C19 1_555 1_555
H21 C19 1_555 1_555
H22 C19 1_555 1_555
B1 O1 1_555 1_555
B2 N1 1_555 1_555
B3 C4 1_555 1_555
B4 B1 1_555 1_555
H23 B4 1_555 1_555
B5 B1 1_555 1_555
H24 B5 1_555 1_555
B6 B1 1_555 1_555
H25 B6 1_555 1_555
B7 B2 1_555 1_555
H26 B7 1_555 1_555
B8 B2 1_555 1_555
H27 B8 1_555 1_555
B9 B3 1_555 1_555
H28 B9 1_555 1_555
B10 B4 1_555 1_555
H29 B10 1_555 1_555
B11 B5 1_555 1_555
H30 B11 1_555 1_555
B12 B7 1_555 1_555
H31 B12 1_555 1_555
N3 C20 1_555 1_555
C20 H32 1_555 1_555
H33 C20 1_555 1_555
C21 C20 1_555 1_555
H34 C21 1_555 1_555
H35 C21 1_555 1_555
C22 C21 1_555 1_555
H36 C22 1_555 1_555
H37 C22 1_555 1_555
C23 C22 1_555 1_555
H38 C23 1_555 1_555
H39 C23 1_555 1_555
H40 C23 1_555 1_555
C24 N3 1_555 1_555
H41 C24 1_555 1_555
H42 C24 1_555 1_555
C25 C24 1_555 1_555
H43 C25 1_555 1_555
H44 C25 1_555 1_555
C26 C25 1_555 1_555
H45 C26 1_555 1_555
H46 C26 1_555 1_555
C27 C26 1_555 1_555
H47 C27 1_555 1_555
H48 C27 1_555 1_555
H49 C27 1_555 1_555
C28 N3 1_555 1_555
H50 C28 1_555 1_555
H51 C28 1_555 1_555
C29 C28 1_555 1_555
H52 C29 1_555 1_555
H53 C29 1_555 1_555
C30 C29 1_555 1_555
H54 C30 1_555 1_555
H55 C30 1_555 1_555
C31 C30 1_555 1_555
H56 C31 1_555 1_555
H57 C31 1_555 1_555
H58 C31 1_555 1_555
C32 N3 1_555 1_555
H59 C32 1_555 1_555
H60 C32 1_555 1_555
C33 C32 1_555 1_555
H61 C33 1_555 1_555
H62 C33 1_555 1_555
C34 C33 1_555 1_555
H63 C34 1_555 1_555
H64 C34 1_555 1_555
C35 C34 1_555 1_555
H65 C35 1_555 1_555
H66 C35 1_555 1_555
H67 C35 1_555 1_555
C9 C10 1_555 1_555
C17 C18 1_555 1_555
B1 B2 1_555 1_555
B1 B3 1_555 1_555
B2 B3 1_555 1_555
B2 B6 1_555 1_555
B3 B4 1_555 1_555
B3 B8 1_555 1_555
B4 B5 1_555 1_555
B4 B9 1_555 1_555
B5 B6 1_555 1_555
B5 B10 1_555 1_555
B6 B7 1_555 1_555
B6 B11 1_555 1_555
B7 B8 1_555 1_555
B7 B11 1_555 1_555
B8 B9 1_555 1_555
B8 B12 1_555 1_555
B9 B10 1_555 1_555
B9 B12 1_555 1_555
B10 B11 1_555 1_555
B10 B12 1_555 1_555
B11 B12 1_555 1_555

#END
