
#######################################################################
#
#                 Cambridge Crystallographic Data Centre
#                                CCDC 
#
#######################################################################
#
# If this CIF has been generated from an entry in the Cambridge 
# Structural Database, then it will include bibliographic, chemical, 
# crystal, experimental, refinement or atomic coordinate data resulting 
# from the CCDC's data processing and validation procedures.
#
#######################################################################

data_OZAXEU
_chemical_formula_moiety         'C16 H11 Cl1 N2 O5'
_chemical_name_systematic        
2-(4-chlorophenyl)-3-(2,4-dinitrophenyl)cyclopropanecarbaldehyde
_symmetry_cell_setting           orthorhombic
_symmetry_space_group_name_H-M   'P 21 21 21'
_symmetry_Int_Tables_number      19
_space_group_name_Hall           'P 2ac 2ab'
loop_
_symmetry_equiv_pos_site_id
_symmetry_equiv_pos_as_xyz
1 x,y,z
2 1/2-x,-y,1/2+z
3 -x,1/2+y,1/2-z
4 1/2+x,1/2-y,-z
_cell_length_a                   6.7284(13)
_cell_length_b                   13.559(3)
_cell_length_c                   16.779(3)
_cell_angle_alpha                90
_cell_angle_beta                 90
_cell_angle_gamma                90
_cell_volume                     1530.75
_exptl_crystal_colour            colorless
_exptl_crystal_description       column
_cell_formula_units_Z            4
loop_
_atom_site_label
_atom_site_type_symbol
_atom_site_fract_x
_atom_site_fract_y
_atom_site_fract_z
Cl1 Cl 0.98439(13) 0.81058(6) 0.79583(4)
O1 O 1.0897(5) 0.30325(13) 0.48429(11)
O2 O 1.0085(4) 0.21155(12) 0.38874(12)
O3 O 1.1271(3) 0.32595(17) 0.12612(10)
O4 O 1.1456(3) 0.48167(18) 0.10218(10)
O5 O 0.5413(3) 0.47586(12) 0.38790(9)
N1 N 1.0422(3) 0.29155(12) 0.41616(10)
N2 N 1.1190(3) 0.41157(19) 0.14666(11)
C1 C 0.9914(3) 0.47157(13) 0.38994(10)
C2 C 1.0352(3) 0.37703(13) 0.36228(11)
C3 C 1.0751(3) 0.35691(15) 0.28327(11)
H1 H 1.0998 0.2927 0.2664
C4 C 1.0775(3) 0.43287(17) 0.23096(11)
C5 C 1.0380(4) 0.52859(16) 0.25448(12)
H2 H 1.0413 0.5800 0.2178
C6 C 0.9935(3) 0.54630(14) 0.33344(12)
H3 H 0.9640 0.6104 0.3493
C7 C 0.9401(3) 0.49159(12) 0.47496(10)
H4 H 1.0469 0.4759 0.5126
C8 C 0.7321(3) 0.47009(13) 0.50646(11)
H5 H 0.7256 0.4424 0.5603
C9 C 0.8098(3) 0.57558(14) 0.50059(11)
H6 H 0.7534 0.6145 0.4569
C10 C 0.8543(3) 0.63234(13) 0.57422(10)
C11 C 0.8590(4) 0.73516(14) 0.57158(12)
H7 H 0.8351 0.7673 0.5236
C12 C 0.8984(4) 0.78970(15) 0.63872(14)
H8 H 0.9018 0.8582 0.6361
C13 C 0.9327(3) 0.74227(17) 0.70978(13)
C14 C 0.9303(3) 0.64133(15) 0.71503(11)
H9 H 0.9548 0.6100 0.7633
C15 C 0.8909(3) 0.58720(14) 0.64713(11)
H10 H 0.8887 0.5187 0.6503
C16 C 0.5721(3) 0.44021(16) 0.45207(12)
H11 H 0.4881 0.3898 0.4687
loop_
_geom_bond_atom_site_label_1
_geom_bond_atom_site_label_2
_geom_bond_site_symmetry_1
_geom_bond_site_symmetry_2
Cl1 C13 1_555 1_555
O1 N1 1_555 1_555
O2 N1 1_555 1_555
O3 N2 1_555 1_555
O4 N2 1_555 1_555
O5 C16 1_555 1_555
N1 C2 1_555 1_555
N2 C4 1_555 1_555
C1 C2 1_555 1_555
C2 C3 1_555 1_555
C3 H1 1_555 1_555
C4 C3 1_555 1_555
C5 C4 1_555 1_555
H2 C5 1_555 1_555
C6 C1 1_555 1_555
H3 C6 1_555 1_555
C7 C1 1_555 1_555
H4 C7 1_555 1_555
C8 C7 1_555 1_555
H5 C8 1_555 1_555
C9 C7 1_555 1_555
H6 C9 1_555 1_555
C10 C9 1_555 1_555
C11 C10 1_555 1_555
H7 C11 1_555 1_555
C12 C11 1_555 1_555
H8 C12 1_555 1_555
C13 C12 1_555 1_555
C14 C13 1_555 1_555
H9 C14 1_555 1_555
C15 C10 1_555 1_555
H10 C15 1_555 1_555
C16 C8 1_555 1_555
H11 C16 1_555 1_555
C5 C6 1_555 1_555
C8 C9 1_555 1_555
C14 C15 1_555 1_555

#END
