
#######################################################################
#
#                 Cambridge Crystallographic Data Centre
#                                CCDC 
#
#######################################################################
#
# If this CIF has been generated from an entry in the Cambridge 
# Structural Database, then it will include bibliographic, chemical, 
# crystal, experimental, refinement or atomic coordinate data resulting 
# from the CCDC's data processing and validation procedures.
#
#######################################################################

data_OZECIH
_chemical_formula_moiety         'C20 H21 F4 N1 O5 S1'
_chemical_name_systematic        
'ethyl 2-fluoro-2-methyl-3-(((4-methylphenyl)sulfonyl)amino)-3-(4-(trifluoromethoxy)phenyl)propanoate'
_symmetry_cell_setting           triclinic
_symmetry_space_group_name_H-M   'P -1'
_symmetry_Int_Tables_number      2
_space_group_name_Hall           '-P 1'
loop_
_symmetry_equiv_pos_site_id
_symmetry_equiv_pos_as_xyz
1 x,y,z
2 -x,-y,-z
_cell_length_a                   9.8532(15)
_cell_length_b                   10.2738(15)
_cell_length_c                   12.0232(17)
_cell_angle_alpha                85.525(3)
_cell_angle_beta                 75.460(3)
_cell_angle_gamma                64.511(3)
_cell_volume                     1062.83
_exptl_crystal_colour            colorless
_exptl_crystal_description       prismatic
_cell_formula_units_Z            2
loop_
_atom_site_label
_atom_site_type_symbol
_atom_site_fract_x
_atom_site_fract_y
_atom_site_fract_z
S1 S 1.09915(7) 0.14817(7) 0.16541(5)
F1 F 0.81479(19) 0.50637(14) -0.02770(13)
F2 F 0.3758(3) 0.3607(3) 0.52171(19)
F3 F 0.3780(4) 0.1858(3) 0.4445(2)
F4 F 0.1656(3) 0.3610(3) 0.51267(18)
N1 N 1.0039(2) 0.2784(2) 0.09222(18)
O1 O 0.3094(2) 0.3911(2) 0.35748(17)
O2 O 1.0845(2) 0.4243(2) -0.17219(16)
O3 O 1.1272(2) 0.19280(19) -0.15918(16)
O4 O 1.2180(2) 0.1799(2) 0.18501(17)
O5 O 1.1373(2) 0.01784(18) 0.10626(15)
C1 C 0.6457(3) 0.2342(3) 0.1157(2)
H1 H 0.6829 0.1652 0.0567
C2 C 0.5053(3) 0.2613(3) 0.1927(2)
H2 H 0.4462 0.2140 0.1845
C3 C 0.4558(3) 0.3591(3) 0.2808(2)
C4 C 0.5366(3) 0.4347(3) 0.2918(2)
H3 H 0.4992 0.5026 0.3517
C5 C 0.6746(3) 0.4091(3) 0.2130(2)
H4 H 0.7300 0.4609 0.2195
C6 C 0.7313(3) 0.3075(2) 0.1247(2)
C7 C 0.8878(3) 0.2701(2) 0.0416(2)
H5 H 0.9271 0.1699 0.0147
C8 C 0.8796(3) 0.3629(2) -0.0652(2)
C9 C 1.0424(3) 0.3325(3) -0.1375(2)
C10 C 1.2914(4) 0.1469(3) -0.2137(3)
H6 H 1.3035 0.2144 -0.2720
H7 H 1.3327 0.0528 -0.2511
C11 C 1.3796(4) 0.1394(4) -0.1282(3)
H8 H 1.3486 0.2348 -0.0987
H9 H 1.4884 0.0979 -0.1643
H10 H 1.3590 0.0806 -0.0662
C12 C 0.7842(4) 0.3468(3) -0.1385(2)
H11 H 0.7902 0.4023 -0.2061
H12 H 0.6783 0.3807 -0.0957
H13 H 0.8233 0.2470 -0.1606
C13 C 0.3082(4) 0.3257(4) 0.4560(3)
C14 C 0.9765(3) 0.1507(3) 0.3003(2)
C15 C 0.9039(3) 0.0596(3) 0.3188(2)
H14 H 0.9184 -0.0023 0.2601
C16 C 0.8099(3) 0.0616(3) 0.4253(2)
H15 H 0.7606 0.0004 0.4380
C17 C 0.7869(3) 0.1521(3) 0.5135(2)
C18 C 0.8593(4) 0.2418(3) 0.4925(2)
H16 H 0.8445 0.3040 0.5512
C19 C 0.9535(3) 0.2426(3) 0.3870(2)
H17 H 1.0013 0.3050 0.3744
C20 C 0.6854(4) 0.1491(4) 0.6302(2)
H18 H 0.7069 0.1934 0.6869
H19 H 0.7064 0.0509 0.6494
H20 H 0.5785 0.2010 0.6284
H21 H 0.990(3) 0.358(3) 0.113(2)
loop_
_geom_bond_atom_site_label_1
_geom_bond_atom_site_label_2
_geom_bond_site_symmetry_1
_geom_bond_site_symmetry_2
S1 N1 1_555 1_555
F1 C8 1_555 1_555
F2 C13 1_555 1_555
F3 C13 1_555 1_555
F4 C13 1_555 1_555
N1 C7 1_555 1_555
O1 C3 1_555 1_555
O2 C9 1_555 1_555
O3 C9 1_555 1_555
O4 S1 1_555 1_555
O5 S1 1_555 1_555
C1 H1 1_555 1_555
C2 C1 1_555 1_555
H2 C2 1_555 1_555
C3 C2 1_555 1_555
C4 C3 1_555 1_555
H3 C4 1_555 1_555
C5 C4 1_555 1_555
H4 C5 1_555 1_555
C6 C1 1_555 1_555
C7 C6 1_555 1_555
H5 C7 1_555 1_555
C8 C7 1_555 1_555
C9 C8 1_555 1_555
C10 O3 1_555 1_555
H6 C10 1_555 1_555
H7 C10 1_555 1_555
C11 C10 1_555 1_555
H8 C11 1_555 1_555
H9 C11 1_555 1_555
H10 C11 1_555 1_555
C12 C8 1_555 1_555
H11 C12 1_555 1_555
H12 C12 1_555 1_555
H13 C12 1_555 1_555
C13 O1 1_555 1_555
C14 S1 1_555 1_555
C15 C14 1_555 1_555
H14 C15 1_555 1_555
C16 C15 1_555 1_555
H15 C16 1_555 1_555
C17 C16 1_555 1_555
C18 C17 1_555 1_555
H16 C18 1_555 1_555
C19 C14 1_555 1_555
H17 C19 1_555 1_555
C20 C17 1_555 1_555
H18 C20 1_555 1_555
H19 C20 1_555 1_555
H20 C20 1_555 1_555
H21 N1 1_555 1_555
C5 C6 1_555 1_555
C18 C19 1_555 1_555

#END
