
#######################################################################
#
#                 Cambridge Crystallographic Data Centre
#                                CCDC 
#
#######################################################################
#
# If this CIF has been generated from an entry in the Cambridge 
# Structural Database, then it will include bibliographic, chemical, 
# crystal, experimental, refinement or atomic coordinate data resulting 
# from the CCDC's data processing and validation procedures.
#
#######################################################################

data_OZECAY01
_chemical_formula_moiety         'C66 H72 N12'
_chemical_name_systematic        
5,11,19,25,33,39,47,53,58,64,69,75-Dodeca-azatridecacyclo[27.27.9.9^15,43^.1^3,55^.1^13,17^.1^27,31^.1^41,45^.0^6,10^.0^20,24^.0^34,38^.0^48,52^.0^59,63^.0^70,74^]octaheptaconta-1,3(66),4,11,13(78),14,16,18,25,27(77),28,30,32,39,41(67),42,44,46,53,55,57,64,68,75-tetracosaene
_symmetry_cell_setting           trigonal
_symmetry_space_group_name_H-M   'P 3'
_symmetry_Int_Tables_number      143
_space_group_name_Hall           'P 3'
loop_
_symmetry_equiv_pos_site_id
_symmetry_equiv_pos_as_xyz
1 x,y,z
2 -y,x-y,z
3 -x+y,-x,z
_cell_length_a                   24.19(4)
_cell_length_b                   24.19(4)
_cell_length_c                   10.973(17)
_cell_angle_alpha                90
_cell_angle_beta                 90
_cell_angle_gamma                120
_cell_volume                     5560.68
_exptl_crystal_colour            colorless
_exptl_crystal_description       needle
_cell_formula_units_Z            3
loop_
_atom_site_label
_atom_site_type_symbol
_atom_site_fract_x
_atom_site_fract_y
_atom_site_fract_z
N1 N 0.5219(3) 0.3499(3) 0.2342(5)
N2 N 0.4514(3) 0.3468(3) 0.4721(6)
N3 N 0.4416(3) 0.2012(4) 0.9627(7)
N4 N 0.6158(4) 0.5081(5) 0.9358(6)
C1 C 0.6045(4) 0.3214(6) 0.2345(6)
C2 C 0.6162(4) 0.2711(4) 0.2358(6)
H1 H 0.5824 0.2293 0.2375
C3 C 0.5372(4) 0.3083(4) 0.2426(6)
H2 H 0.5049 0.2663 0.2547
C4 C 0.4968(4) 0.3685(5) 0.6676(8)
C5 C 0.4651(4) 0.3058(5) 0.7060(7)
H3 H 0.4370 0.2742 0.6531
C6 C 0.4745(5) 0.2888(5) 0.8231(8)
C7 C 0.5159(4) 0.3362(6) 0.9012(7)
H4 H 0.5239 0.3253 0.9779
C8 C 0.5455(4) 0.3995(5) 0.8668(7)
C9 C 0.5367(4) 0.4149(4) 0.7475(8)
H5 H 0.5584 0.4572 0.7224
C10 C 0.4900(5) 0.3876(5) 0.5449(7)
H6 H 0.5143 0.4300 0.5209
C11 C 0.4404(4) 0.2208(5) 0.8584(9)
H7 H 0.4165 0.1908 0.7991
C12 C 0.5901(5) 0.4496(6) 0.9542(8)
H8 H 0.5992 0.4360 1.0270
C13 C 0.4547(4) 0.3295(4) 0.2520(6)
H9 H 0.4304 0.2840 0.2724
C14 C 0.4468(4) 0.3694(4) 0.3512(7)
H10 H 0.4784 0.4148 0.3415
C15 C 0.3783(4) 0.3571(5) 0.3262(7)
H11 H 0.3471 0.3208 0.3732
H12 H 0.3750 0.3942 0.3478
C16 C 0.3675(5) 0.3439(5) 0.1946(8)
H13 H 0.3615 0.3764 0.1551
H14 H 0.3296 0.3027 0.1812
C17 C 0.4261(4) 0.3440(4) 0.1426(7)
H15 H 0.4140 0.3115 0.0804
H16 H 0.4558 0.3852 0.1080
C18 C 0.4083(4) 0.1339(5) 0.9811(7)
H17 H 0.3878 0.1118 0.9052
C19 C 0.3592(5) 0.1144(6) 1.0820(9)
H18 H 0.3758 0.1445 1.1491
H19 H 0.3204 0.1122 1.0521
C20 C 0.3471(6) 0.0514(7) 1.1205(11)
H20 H 0.3067 0.0184 1.0875
H21 H 0.3450 0.0483 1.2086
C21 C 0.4018(6) 0.0428(5) 1.0728(10)
H22 H 0.4188 0.0278 1.1368
H23 H 0.3878 0.0127 1.0055
C22 C 0.4511(4) 0.1093(5) 1.0310(7)
H24 H 0.4766 0.1353 1.1000
N1A N 0.6501(3) 0.1720(4) 0.2342(5)
N1B N 0.8280(4) 0.4781(3) 0.2342(5)
N2A N 0.6532(3) 0.1046(4) 0.4721(6)
N2B N 0.8954(4) 0.5486(3) 0.4721(6)
N3A N 0.7988(4) 0.2404(5) 0.9627(7)
N3B N 0.7596(5) 0.5584(3) 0.9627(7)
N4A N 0.4919(5) 0.1077(6) 0.9358(6)
N4B N 0.8923(6) 0.3842(4) 0.9358(6)
C1A C 0.6786(6) 0.2831(7) 0.2345(6)
C1B C 0.7169(7) 0.3955(4) 0.2345(6)
C2A C 0.7289(4) 0.3451(6) 0.2358(6)
C2B C 0.6549(6) 0.3838(4) 0.2358(6)
H1A H 0.7707 0.3531 0.2375
H1B H 0.6469 0.4176 0.2375
C3A C 0.6917(4) 0.2289(6) 0.2426(6)
C3B C 0.7711(6) 0.4628(4) 0.2426(6)
H2A H 0.7337 0.2386 0.2547
H2B H 0.7614 0.4951 0.2547
C4A C 0.6315(5) 0.1283(6) 0.6676(8)
C4B C 0.8717(6) 0.5032(4) 0.6676(8)
C5A C 0.6942(5) 0.1593(6) 0.7060(7)
C5B C 0.8407(6) 0.5349(4) 0.7060(7)
H3A H 0.7258 0.1628 0.6531
H3B H 0.8372 0.5630 0.6531
C6A C 0.7112(5) 0.1857(7) 0.8231(8)
C6B C 0.8143(7) 0.5255(5) 0.8231(8)
C7A C 0.6638(6) 0.1797(7) 0.9012(7)
C7B C 0.8203(7) 0.4841(4) 0.9012(7)
H4A H 0.6747 0.1986 0.9779
H4B H 0.8014 0.4761 0.9779
C8A C 0.6005(5) 0.1460(6) 0.8668(7)
C8B C 0.8540(6) 0.4545(4) 0.8668(7)
C9A C 0.5851(4) 0.1218(6) 0.7475(8)
C9B C 0.8782(6) 0.4633(4) 0.7475(8)
H5A H 0.5428 0.1012 0.7224
H5B H 0.8988 0.4416 0.7224
C10A C 0.6124(5) 0.1024(7) 0.5449(7)
C10B C 0.8976(7) 0.5100(5) 0.5449(7)
H6A H 0.5700 0.0843 0.5209
H6B H 0.9157 0.4857 0.5209
C11A C 0.7792(5) 0.2196(6) 0.8584(9)
C11B C 0.7804(6) 0.5596(4) 0.8584(9)
H7A H 0.8092 0.2257 0.7991
H7B H 0.7743 0.5835 0.7991
C12A C 0.5504(6) 0.1405(8) 0.9542(8)
C12B C 0.8595(8) 0.4099(5) 0.9542(8)
H8A H 0.5640 0.1632 1.0270
H8B H 0.8368 0.4008 1.0270
C13A C 0.6705(4) 0.1252(6) 0.2520(6)
C13B C 0.8748(6) 0.5453(4) 0.2520(6)
H9A H 0.7160 0.1464 0.2724
H9B H 0.8536 0.5696 0.2724
C14A C 0.6306(4) 0.0774(6) 0.3512(7)
C14B C 0.9226(6) 0.5532(4) 0.3512(7)
H10A H 0.5852 0.0636 0.3415
H10B H 0.9364 0.5216 0.3415
C15A C 0.6429(5) 0.0212(6) 0.3262(7)
C15B C 0.9788(6) 0.6217(4) 0.3262(7)
H11A H 0.6792 0.0263 0.3732
H11B H 0.9737 0.6529 0.3732
H12A H 0.6058 -0.0192 0.3478
H12B H 1.0192 0.6250 0.3478
C16A C 0.6561(5) 0.0236(7) 0.1946(8)
C16B C 0.9764(7) 0.6325(5) 0.1946(8)
H13A H 0.6236 -0.0149 0.1551
H13B H 1.0149 0.6385 0.1551
H14A H 0.6973 0.0269 0.1812
H14B H 0.9731 0.6704 0.1812
C17A C 0.6560(4) 0.0821(6) 0.1426(7)
C17B C 0.9179(6) 0.5739(4) 0.1426(7)
H15A H 0.6885 0.1025 0.0804
H15B H 0.8975 0.5860 0.0804
H16A H 0.6148 0.0706 0.1080
H16B H 0.9294 0.5442 0.1080
C18A C 0.8661(5) 0.2744(6) 0.9811(7)
C18B C 0.7256(6) 0.5917(4) 0.9811(7)
H17A H 0.8882 0.2760 0.9052
H17B H 0.7240 0.6122 0.9052
C19A C 0.8856(6) 0.2448(8) 1.0820(9)
C19B C 0.7552(8) 0.6408(5) 1.0820(9)
H18A H 0.8555 0.2313 1.1491
H18B H 0.7687 0.6242 1.1491
H19A H 0.8878 0.2082 1.0521
H19B H 0.7918 0.6796 1.0521
C20A C 0.9486(7) 0.2957(9) 1.1205(11)
C20B C 0.7043(9) 0.6529(6) 1.1205(11)
H20A H 0.9816 0.2883 1.0875
H20B H 0.7117 0.6933 1.0875
H21A H 0.9517 0.2967 1.2086
H21B H 0.7033 0.6550 1.2086
C21A C 0.9572(5) 0.3590(8) 1.0728(10)
C21B C 0.6410(8) 0.5982(6) 1.0728(10)
H22A H 0.9722 0.3910 1.1368
H22B H 0.6090 0.5812 1.1368
H23A H 0.9873 0.3751 1.0055
H23B H 0.6249 0.6122 1.0055
C22A C 0.8907(5) 0.3418(6) 1.0310(7)
C22B C 0.6582(6) 0.5489(4) 1.0310(7)
H24A H 0.8647 0.3413 1.1000
H24B H 0.6587 0.5234 1.1000
N5 N 0.1753(4) 0.0719(3) 0.4600(5)
N6 N 0.2591(3) 0.1211(3) 0.6912(6)
N7 N 0.1550(3) -0.0617(4) 1.1633(5)
N8 N 0.0263(3) -0.1839(3) 1.1871(7)
C23 C 0.0660(4) 0.0428(6) 0.4722(6)
C24 C 0.0419(6) -0.0235(7) 0.4701(6)
H25 H 0.0701 -0.0391 0.4671
C25 C 0.1342(5) 0.0882(4) 0.4731(7)
H26 H 0.1478 0.1313 0.4839
C26 C 0.2122(4) 0.0848(5) 0.8880(7)
C27 C 0.2144(4) 0.1410(4) 0.9229(7)
H27 H 0.2296 0.1754 0.8696
C28 C 0.1938(4) 0.1448(4) 1.0377(8)
C29 C 0.1699(4) 0.0927(5) 1.1143(7)
H28 H 0.1532 0.0946 1.1895
C30 C 0.1701(4) 0.0382(4) 1.0822(7)
C31 C 0.1911(4) 0.0335(4) 0.9689(8)
H29 H 0.1912 -0.0034 0.9460
C32 C 0.2338(4) 0.0769(4) 0.7664(8)
H30 H 0.2281 0.0372 0.7452
C33 C 0.1462(4) -0.0149(4) 1.1711(6)
H31 H 0.1231 -0.0134 1.2375
C34 C 0.0103(4) -0.1920(4) 1.0771(8)
H32 H 0.0359 -0.1970 1.0200
C35 C 0.2424(4) 0.1202(4) 0.4708(7)
H33 H 0.2467 0.1622 0.4849
C36 C 0.2754(4) 0.1044(4) 0.5730(6)
H34 H 0.2626 0.0590 0.5709
C37 C 0.3460(4) 0.1455(5) 0.5434(8)
H35 H 0.3629 0.1885 0.5747
H36 H 0.3703 0.1272 0.5773
C38 C 0.3477(5) 0.1454(6) 0.4065(9)
H37 H 0.3765 0.1881 0.3768
H38 H 0.3631 0.1175 0.3784
C39 C 0.2822(5) 0.1227(5) 0.3589(7)
H39 H 0.2649 0.0807 0.3225
H40 H 0.2826 0.1520 0.2981
C40 C 0.1281(4) -0.1071(4) 1.2658(7)
H41 H 0.1021 -0.0954 1.3164
C41 C 0.0884(4) -0.1739(4) 1.2254(7)
H42 H 0.1092 -0.1836 1.1588
C42 C 0.0828(4) -0.2132(4) 1.3391(8)
H43 H 0.0860 -0.2504 1.3177
H44 H 0.0424 -0.2271 1.3801
C43 C 0.1391(5) -0.1675(5) 1.4206(9)
H45 H 0.1237 -0.1569 1.4936
H46 H 0.1642 -0.1869 1.4443
C44 C 0.1786(4) -0.1084(4) 1.3440(8)
H47 H 0.2004 -0.0704 1.3942
H48 H 0.2097 -0.1125 1.2950
N5A N -0.0719(3) 0.1034(5) 0.4600(5)
N5B N -0.1034(5) -0.1753(4) 0.4600(5)
N6A N -0.1211(3) 0.1380(4) 0.6912(6)
N6B N -0.1380(4) -0.2591(3) 0.6912(6)
N7A N 0.0617(4) 0.2167(5) 1.1633(5)
N7B N -0.2167(5) -0.1550(3) 1.1633(5)
N8A N 0.1839(3) 0.2102(4) 1.1871(7)
N8B N -0.2102(4) -0.0263(3) 1.1871(7)
C23A C -0.0428(6) 0.0232(7) 0.4722(6)
C23B C -0.0232(7) -0.0660(4) 0.4722(6)
C24A C 0.0235(7) 0.0654(9) 0.4701(6)
C24B C -0.0654(9) -0.0419(6) 0.4701(6)
H25A H 0.0391 0.1092 0.4671
H25B H -0.1092 -0.0701 0.4671
C25A C -0.0882(4) 0.0460(6) 0.4731(7)
C25B C -0.0460(6) -0.1342(5) 0.4731(7)
H26A H -0.1313 0.0165 0.4839
H26B H -0.0165 -0.1478 0.4839
C26A C -0.0848(5) 0.1274(6) 0.8880(7)
C26B C -0.1274(6) -0.2122(4) 0.8880(7)
C27A C -0.1410(4) 0.0734(6) 0.9229(7)
C27B C -0.0734(6) -0.2144(4) 0.9229(7)
H27A H -0.1754 0.0542 0.8696
H27B H -0.0542 -0.2296 0.8696
C28A C -0.1448(4) 0.0490(6) 1.0377(8)
C28B C -0.0490(6) -0.1938(4) 1.0377(8)
C29A C -0.0927(5) 0.0772(6) 1.1143(7)
C29B C -0.0772(6) -0.1699(4) 1.1143(7)
H28A H -0.0946 0.0586 1.1895
H28B H -0.0586 -0.1532 1.1895
C30A C -0.0382(4) 0.1319(6) 1.0822(7)
C30B C -0.1319(6) -0.1701(4) 1.0822(7)
C31A C -0.0335(4) 0.1576(6) 0.9689(8)
C31B C -0.1576(6) -0.1911(4) 0.9689(8)
H29A H 0.0034 0.1946 0.9460
H29B H -0.1946 -0.1912 0.9460
C32A C -0.0769(4) 0.1569(6) 0.7664(8)
C32B C -0.1569(6) -0.2338(4) 0.7664(8)
H30A H -0.0372 0.1909 0.7452
H30B H -0.1909 -0.2281 0.7452
C33A C 0.0149(4) 0.1611(6) 1.1711(6)
C33B C -0.1611(6) -0.1462(4) 1.1711(6)
H31A H 0.0134 0.1365 1.2375
H31B H -0.1365 -0.1231 1.2375
C34A C 0.1920(4) 0.2023(6) 1.0771(8)
C34B C -0.2023(6) -0.0103(4) 1.0771(8)
H32A H 0.1970 0.2329 1.0200
H32B H -0.2329 -0.0359 1.0200
C35A C -0.1202(4) 0.1222(6) 0.4708(7)
C35B C -0.1222(6) -0.2424(4) 0.4708(7)
H33A H -0.1622 0.0845 0.4849
H33B H -0.0845 -0.2467 0.4849
C36A C -0.1044(4) 0.1710(6) 0.5730(6)
C36B C -0.1710(6) -0.2754(4) 0.5730(6)
H34A H -0.0590 0.2036 0.5709
H34B H -0.2036 -0.2626 0.5709
C37A C -0.1455(5) 0.2005(6) 0.5434(8)
C37B C -0.2005(6) -0.3460(4) 0.5434(8)
H35A H -0.1885 0.1744 0.5747
H35B H -0.1744 -0.3629 0.5747
H36A H -0.1272 0.2431 0.5773
H36B H -0.2431 -0.3703 0.5773
C38A C -0.1454(6) 0.2023(8) 0.4065(9)
C38B C -0.2023(8) -0.3477(5) 0.4065(9)
H37A H -0.1881 0.1884 0.3768
H37B H -0.1884 -0.3765 0.3768
H38A H -0.1175 0.2456 0.3784
H38B H -0.2456 -0.3631 0.3784
C39A C -0.1227(5) 0.1595(7) 0.3589(7)
C39B C -0.1595(7) -0.2822(5) 0.3589(7)
H39A H -0.0807 0.1842 0.3225
H39B H -0.1842 -0.2649 0.3225
H40A H -0.1520 0.1306 0.2981
H40B H -0.1306 -0.2826 0.2981
C40A C 0.1071(4) 0.2352(6) 1.2658(7)
C40B C -0.2352(6) -0.1281(4) 1.2658(7)
H41A H 0.0954 0.1975 1.3164
H41B H -0.1975 -0.1021 1.3164
C41A C 0.1739(4) 0.2623(6) 1.2254(7)
C41B C -0.2623(6) -0.0884(4) 1.2254(7)
H42A H 0.1836 0.2928 1.1588
H42B H -0.2928 -0.1092 1.1588
C42A C 0.2132(4) 0.2960(6) 1.3391(8)
C42B C -0.2960(6) -0.0828(4) 1.3391(8)
H43A H 0.2504 0.3364 1.3177
H43B H -0.3364 -0.0860 1.3177
H44A H 0.2271 0.2695 1.3801
H44B H -0.2695 -0.0424 1.3801
C43A C 0.1675(5) 0.3066(7) 1.4206(9)
C43B C -0.3066(7) -0.1391(5) 1.4206(9)
H45A H 0.1569 0.2806 1.4936
H45B H -0.2806 -0.1237 1.4936
H46A H 0.1869 0.3511 1.4443
H46B H -0.3511 -0.1642 1.4443
C44A C 0.1084(4) 0.2870(6) 1.3440(8)
C44B C -0.2870(6) -0.1786(4) 1.3440(8)
H47A H 0.0704 0.2708 1.3942
H47B H -0.2708 -0.2004 1.3942
H48A H 0.1125 0.3222 1.2950
H48B H -0.3222 -0.2097 1.2950
N9 N 0.3154(4) 0.5036(5) -0.2657(6)
N10 N 0.3187(4) 0.4366(4) -0.0323(7)
N11 N 0.1630(5) 0.4506(4) 0.4345(7)
N12 N 0.4638(5) 0.5695(4) 0.4562(8)
C45 C 0.3462(8) 0.6162(6) -0.2557(7)
C46 C 0.2831(6) 0.6043(5) -0.2568(6)
H49 H 0.2495 0.5623 -0.2582
C47 C 0.3574(5) 0.5614(6) -0.2532(7)
H50 H 0.3992 0.5705 -0.2413
C48 C 0.2977(6) 0.4677(5) 0.1589(9)
C49 C 0.3594(6) 0.4984(5) 0.1956(9)
H51 H 0.3902 0.5020 0.1404
C50 C 0.3791(6) 0.5243(5) 0.3090(10)
C51 C 0.3318(7) 0.5201(5) 0.3920(8)
H52 H 0.3433 0.5372 0.4699
C52 C 0.2687(6) 0.4904(4) 0.3558(9)
C53 C 0.2510(5) 0.4637(4) 0.2400(9)
H53 H 0.2083 0.4432 0.2165
C54 C 0.2794(5) 0.4399(4) 0.0362(8)
H54 H 0.2378 0.4244 0.0094
C55 C 0.4451(6) 0.5560(5) 0.3477(11)
H55 H 0.4761 0.5673 0.2877
C56 C 0.2225(6) 0.4863(5) 0.4484(8)
H56 H 0.2376 0.5107 0.5190
C57 C 0.3353(4) 0.4564(4) -0.2492(7)
H57 H 0.3808 0.4777 -0.2293
C58 C 0.2976(4) 0.4097(4) -0.1522(7)
H58 H 0.2521 0.3953 -0.1622
C59 C 0.3095(6) 0.3552(5) -0.1758(9)
H59 H 0.2743 0.3154 -0.1461
H60 H 0.3485 0.3627 -0.1364
C60 C 0.3152(5) 0.3537(5) -0.3134(8)
H61 H 0.3523 0.3504 -0.3351
H62 H 0.2776 0.3173 -0.3471
C61 C 0.3217(5) 0.4144(5) -0.3621(7)
H63 H 0.2827 0.4067 -0.4019
H64 H 0.3566 0.4342 -0.4199
C62 C 0.5319(6) 0.6050(6) 0.4840(9)
H65 H 0.5562 0.6093 0.4097
C63 C 0.5536(7) 0.5783(7) 0.5829(12)
H66 H 0.5206 0.5573 0.6439
H67 H 0.5646 0.5477 0.5504
C64 C 0.6101(7) 0.6334(8) 0.6355(13)
H68 H 0.6478 0.6305 0.6181
H69 H 0.6054 0.6337 0.7232
C65 C 0.1205(5) 0.4497(5) 0.5315(8)
H70 H 0.1458 0.4786 0.5975
C66 C 0.0757(6) 0.3826(5) 0.5828(10)
H71 H 0.0602 0.3506 0.5188
H72 H 0.0969 0.3711 0.6447
N9A N 0.4964(5) 0.8118(6) -0.2657(6)
N9B N 0.1882(6) 0.6846(4) -0.2657(6)
N10A N 0.5634(4) 0.8821(6) -0.0323(7)
N10B N 0.1179(6) 0.6813(4) -0.0323(7)
N11A N 0.5494(4) 0.7124(6) 0.4345(7)
N11B N 0.2876(6) 0.8370(5) 0.4345(7)
N12A N 0.4305(4) 0.8943(6) 0.4562(8)
N12B N 0.1057(6) 0.5362(5) 0.4562(8)
C45A C 0.3838(6) 0.7300(10) -0.2557(7)
C45B C 0.2700(10) 0.6538(8) -0.2557(7)
C46A C 0.3957(5) 0.6788(8) -0.2568(6)
C46B C 0.3212(8) 0.7169(6) -0.2568(6)
H49A H 0.4377 0.6872 -0.2582
H49B H 0.3128 0.7505 -0.2582
C47A C 0.4386(6) 0.7960(8) -0.2532(7)
C47B C 0.2040(8) 0.6426(5) -0.2532(7)
H50A H 0.4295 0.8287 -0.2413
H50B H 0.1713 0.6008 -0.2413
C48A C 0.5323(5) 0.8300(8) 0.1589(9)
C48B C 0.1700(8) 0.7023(6) 0.1589(9)
C49A C 0.5016(5) 0.8610(8) 0.1956(9)
C49B C 0.1390(8) 0.6406(6) 0.1956(9)
H51A H 0.4980 0.8882 0.1404
H51B H 0.1118 0.6098 0.1404
C50A C 0.4757(5) 0.8548(8) 0.3090(10)
C50B C 0.1452(8) 0.6209(6) 0.3090(10)
C51A C 0.4799(5) 0.8117(9) 0.3920(8)
C51B C 0.1883(9) 0.6682(7) 0.3920(8)
H52A H 0.4628 0.8061 0.4699
H52B H 0.1939 0.6567 0.4699
C52A C 0.5096(4) 0.7783(7) 0.3558(9)
C52B C 0.2217(7) 0.7313(6) 0.3558(9)
C53A C 0.5363(4) 0.7873(6) 0.2400(9)
C53B C 0.2127(6) 0.7490(5) 0.2400(9)
H53A H 0.5568 0.7651 0.2165
H53B H 0.2349 0.7917 0.2165
C54A C 0.5601(4) 0.8395(6) 0.0362(8)
C54B C 0.1605(6) 0.7206(5) 0.0362(8)
H54A H 0.5756 0.8134 0.0094
H54B H 0.1866 0.7622 0.0094
C55A C 0.4440(5) 0.8891(8) 0.3477(11)
C55B C 0.1109(8) 0.5549(6) 0.3477(11)
H55A H 0.4327 0.9088 0.2877
H55B H 0.0912 0.5239 0.2877
C56A C 0.5137(5) 0.7362(8) 0.4484(8)
C56B C 0.2638(8) 0.7775(6) 0.4484(8)
H56A H 0.4893 0.7269 0.5190
H56B H 0.2731 0.7624 0.5190
C57A C 0.5436(4) 0.8789(6) -0.2492(7)
C57B C 0.1211(6) 0.6647(4) -0.2492(7)
H57A H 0.5223 0.9031 -0.2293
H57B H 0.0969 0.6192 -0.2293
C58A C 0.5903(4) 0.8879(6) -0.1522(7)
C58B C 0.1121(6) 0.7024(4) -0.1522(7)
H58A H 0.6047 0.8568 -0.1622
H58B H 0.1432 0.7479 -0.1622
C59A C 0.6448(5) 0.9543(8) -0.1758(9)
C59B C 0.0457(8) 0.6905(6) -0.1758(9)
H59A H 0.6846 0.9589 -0.1461
H59B H 0.0411 0.7257 -0.1461
H60A H 0.6373 0.9858 -0.1364
H60B H 0.0142 0.6515 -0.1364
C60A C 0.6463(5) 0.9615(7) -0.3134(8)
C60B C 0.0385(7) 0.6848(5) -0.3134(8)
H61A H 0.6496 1.0019 -0.3351
H61B H -0.0019 0.6477 -0.3351
H62A H 0.6827 0.9603 -0.3471
H62B H 0.0397 0.7224 -0.3471
C61A C 0.5856(5) 0.9073(7) -0.3621(7)
C61B C 0.0927(7) 0.6783(5) -0.3621(7)
H63A H 0.5933 0.8760 -0.4019
H63B H 0.1240 0.7173 -0.4019
H64A H 0.5658 0.9224 -0.4199
H64B H 0.0776 0.6434 -0.4199
C62A C 0.3950(6) 0.9269(8) 0.4840(9)
C62B C 0.0731(8) 0.4681(6) 0.4840(9)
H65A H 0.3907 0.9469 0.4097
H65B H 0.0531 0.4438 0.4097
C63A C 0.4217(7) 0.9753(10) 0.5829(12)
C63B C 0.0247(10) 0.4464(7) 0.5829(12)
H66A H 0.4427 0.9633 0.6439
H66B H 0.0367 0.4794 0.6439
H67A H 0.4523 1.0169 0.5504
H67B H -0.0169 0.4354 0.5504
C64A C 0.3666(8) 0.9767(11) 0.6355(13)
C64B C 0.0233(11) 0.3899(7) 0.6355(13)
H68A H 0.3695 1.0173 0.6181
H68B H -0.0173 0.3522 0.6181
H69A H 0.3663 0.9717 0.7232
H69B H 0.0283 0.3946 0.7232
C65A C 0.5503(5) 0.6708(7) 0.5315(8)
C65B C 0.3292(7) 0.8795(5) 0.5315(8)
H70A H 0.5214 0.6672 0.5975
H70B H 0.3328 0.8542 0.5975
C66A C 0.6174(5) 0.6931(8) 0.5828(10)
C66B C 0.3069(8) 0.9243(6) 0.5828(10)
H71A H 0.6494 0.7096 0.5188
H71B H 0.2904 0.9398 0.5188
H72A H 0.6289 0.7258 0.6447
H72B H 0.2742 0.9031 0.6447
loop_
_geom_bond_atom_site_label_1
_geom_bond_atom_site_label_2
_geom_bond_site_symmetry_1
_geom_bond_site_symmetry_2
N1 C3 1_555 1_555
N2 C10 1_555 1_555
N3 C11 1_555 1_555
N4 C12 1_555 1_555
C1 C2 1_555 1_555
C2 H1 1_555 1_555
C3 C1 1_555 1_555
H2 C3 1_555 1_555
C4 C5 1_555 1_555
C5 H3 1_555 1_555
C6 C5 1_555 1_555
C7 C6 1_555 1_555
H4 C7 1_555 1_555
C8 C7 1_555 1_555
C9 C4 1_555 1_555
H5 C9 1_555 1_555
C10 C4 1_555 1_555
H6 C10 1_555 1_555
C11 C6 1_555 1_555
H7 C11 1_555 1_555
C12 C8 1_555 1_555
H8 C12 1_555 1_555
C13 N1 1_555 1_555
H9 C13 1_555 1_555
C14 N2 1_555 1_555
H10 C14 1_555 1_555
C15 C14 1_555 1_555
H11 C15 1_555 1_555
H12 C15 1_555 1_555
C16 C15 1_555 1_555
H13 C16 1_555 1_555
H14 C16 1_555 1_555
C17 C13 1_555 1_555
H15 C17 1_555 1_555
H16 C17 1_555 1_555
C18 N3 1_555 1_555
H17 C18 1_555 1_555
C19 C18 1_555 1_555
H18 C19 1_555 1_555
H19 C19 1_555 1_555
C20 C19 1_555 1_555
H20 C20 1_555 1_555
H21 C20 1_555 1_555
C21 C20 1_555 1_555
H22 C21 1_555 1_555
H23 C21 1_555 1_555
C22 C18 1_555 1_555
H24 C22 1_555 1_555
N5 C25 1_555 1_555
N6 C32 1_555 1_555
N7 C33 1_555 1_555
N8 C34 1_555 1_555
C23 C24 1_555 1_555
C24 H25 1_555 1_555
C25 C23 1_555 1_555
H26 C25 1_555 1_555
C26 C27 1_555 1_555
C27 H27 1_555 1_555
C28 C27 1_555 1_555
C29 C28 1_555 1_555
H28 C29 1_555 1_555
C30 C29 1_555 1_555
C31 C26 1_555 1_555
H29 C31 1_555 1_555
C32 C26 1_555 1_555
H30 C32 1_555 1_555
C33 C30 1_555 1_555
H31 C33 1_555 1_555
C34 H32 1_555 1_555
C35 N5 1_555 1_555
H33 C35 1_555 1_555
C36 N6 1_555 1_555
H34 C36 1_555 1_555
C37 C36 1_555 1_555
H35 C37 1_555 1_555
H36 C37 1_555 1_555
C38 C37 1_555 1_555
H37 C38 1_555 1_555
H38 C38 1_555 1_555
C39 C35 1_555 1_555
H39 C39 1_555 1_555
H40 C39 1_555 1_555
C40 N7 1_555 1_555
H41 C40 1_555 1_555
C41 N8 1_555 1_555
H42 C41 1_555 1_555
C42 C41 1_555 1_555
H43 C42 1_555 1_555
H44 C42 1_555 1_555
C43 C42 1_555 1_555
H45 C43 1_555 1_555
H46 C43 1_555 1_555
C44 C40 1_555 1_555
H47 C44 1_555 1_555
H48 C44 1_555 1_555
N9 C47 1_555 1_555
N10 C54 1_555 1_555
N11 C56 1_555 1_555
N12 C55 1_555 1_555
C45 C46 1_555 1_555
C46 H49 1_555 1_555
C47 C45 1_555 1_555
H50 C47 1_555 1_555
C48 C49 1_555 1_555
C49 H51 1_555 1_555
C50 C49 1_555 1_555
C51 C50 1_555 1_555
H52 C51 1_555 1_555
C52 C51 1_555 1_555
C53 C48 1_555 1_555
H53 C53 1_555 1_555
C54 C48 1_555 1_555
H54 C54 1_555 1_555
C55 C50 1_555 1_555
H55 C55 1_555 1_555
C56 C52 1_555 1_555
H56 C56 1_555 1_555
C57 N9 1_555 1_555
H57 C57 1_555 1_555
C58 N10 1_555 1_555
H58 C58 1_555 1_555
C59 C58 1_555 1_555
H59 C59 1_555 1_555
H60 C59 1_555 1_555
C60 C59 1_555 1_555
H61 C60 1_555 1_555
H62 C60 1_555 1_555
C61 C57 1_555 1_555
H63 C61 1_555 1_555
H64 C61 1_555 1_555
C62 N12 1_555 1_555
H65 C62 1_555 1_555
C63 C62 1_555 1_555
H66 C63 1_555 1_555
H67 C63 1_555 1_555
C64 C63 1_555 1_555
H68 C64 1_555 1_555
H69 C64 1_555 1_555
C65 N11 1_555 1_555
H70 C65 1_555 1_555
C66 C65 1_555 1_555
H71 C66 1_555 1_555
H72 C66 1_555 1_555
N1A C3A 1_555 1_555
N1B C3B 1_555 1_555
N2A C10A 1_555 1_555
N2B C10B 1_555 1_555
N3A C11A 1_555 1_555
N3B C11B 1_555 1_555
N4A C22 1_555 1_555
N4B C12B 1_555 1_555
C1A C2 1_555 1_555
C1B C2A 1_555 1_555
C2A C1A 1_555 1_555
C2B C1 1_555 1_555
H1A C2A 1_555 1_555
H1B C2B 1_555 1_555
C3A C1A 1_555 1_555
C3B C1B 1_555 1_555
H2A C3A 1_555 1_555
H2B C3B 1_555 1_555
C4A C5A 1_555 1_555
C4B C5B 1_555 1_555
C5A H3A 1_555 1_555
C5B H3B 1_555 1_555
C6A C5A 1_555 1_555
C6B C5B 1_555 1_555
C7A C6A 1_555 1_555
C7B C6B 1_555 1_555
H4A C7A 1_555 1_555
H4B C7B 1_555 1_555
C8A C7A 1_555 1_555
C8B C7B 1_555 1_555
C9A C4A 1_555 1_555
C9B C4B 1_555 1_555
H5A C9A 1_555 1_555
H5B C9B 1_555 1_555
C10A C4A 1_555 1_555
C10B C4B 1_555 1_555
H6A C10A 1_555 1_555
H6B C10B 1_555 1_555
C11A C6A 1_555 1_555
C11B C6B 1_555 1_555
H7A C11A 1_555 1_555
H7B C11B 1_555 1_555
C12A N4A 1_555 1_555
C12B C8B 1_555 1_555
H8A C12A 1_555 1_555
H8B C12B 1_555 1_555
C13A N1A 1_555 1_555
C13B N1B 1_555 1_555
H9A C13A 1_555 1_555
H9B C13B 1_555 1_555
C14A N2A 1_555 1_555
C14B N2B 1_555 1_555
H10A C14A 1_555 1_555
H10B C14B 1_555 1_555
C15A C14A 1_555 1_555
C15B C14B 1_555 1_555
H11A C15A 1_555 1_555
H11B C15B 1_555 1_555
H12A C15A 1_555 1_555
H12B C15B 1_555 1_555
C16A C15A 1_555 1_555
C16B C15B 1_555 1_555
H13A C16A 1_555 1_555
H13B C16B 1_555 1_555
H14A C16A 1_555 1_555
H14B C16B 1_555 1_555
C17A C13A 1_555 1_555
C17B C13B 1_555 1_555
H15A C17A 1_555 1_555
H15B C17B 1_555 1_555
H16A C17A 1_555 1_555
H16B C17B 1_555 1_555
C18A N3A 1_555 1_555
C18B N3B 1_555 1_555
H17A C18A 1_555 1_555
H17B C18B 1_555 1_555
C19A C18A 1_555 1_555
C19B C18B 1_555 1_555
H18A C19A 1_555 1_555
H18B C19B 1_555 1_555
H19A C19A 1_555 1_555
H19B C19B 1_555 1_555
C20A C19A 1_555 1_555
C20B C19B 1_555 1_555
H20A C20A 1_555 1_555
H20B C20B 1_555 1_555
H21A C20A 1_555 1_555
H21B C20B 1_555 1_555
C21A C20A 1_555 1_555
C21B C20B 1_555 1_555
H22A C21A 1_555 1_555
H22B C21B 1_555 1_555
H23A C21A 1_555 1_555
H23B C21B 1_555 1_555
C22A N4B 1_555 1_555
C22B N4 1_555 1_555
H24A C22A 1_555 1_555
H24B C22B 1_555 1_555
N5A C25A 1_555 1_555
N5B C25B 1_555 1_555
N6A C32A 1_555 1_555
N6B C32B 1_555 1_555
N7A C33A 1_555 1_555
N7B C33B 1_555 1_555
N8A C34A 1_555 1_555
N8B C34B 1_555 1_555
C23A C24A 1_555 1_555
C23B C24 1_555 1_555
C24A C23 1_555 1_555
C24B C23A 1_555 1_555
H25A C24A 1_555 1_555
H25B C24B 1_555 1_555
C25A C23A 1_555 1_555
C25B C23B 1_555 1_555
H26A C25A 1_555 1_555
H26B C25B 1_555 1_555
C26A C27A 1_555 1_555
C26B C27B 1_555 1_555
C27A H27A 1_555 1_555
C27B H27B 1_555 1_555
C28A C27A 1_555 1_555
C28B C34 1_555 1_555
C29A C28A 1_555 1_555
C29B C28B 1_555 1_555
H28A C29A 1_555 1_555
H28B C29B 1_555 1_555
C30A C29A 1_555 1_555
C30B C29B 1_555 1_555
C31A C26A 1_555 1_555
C31B C26B 1_555 1_555
H29A C31A 1_555 1_555
H29B C31B 1_555 1_555
C32A C26A 1_555 1_555
C32B C26B 1_555 1_555
H30A C32A 1_555 1_555
H30B C32B 1_555 1_555
C33A C30A 1_555 1_555
C33B C30B 1_555 1_555
H31A C33A 1_555 1_555
H31B C33B 1_555 1_555
C34A C28 1_555 1_555
C34B C28A 1_555 1_555
H32A C34A 1_555 1_555
H32B C34B 1_555 1_555
C35A N5A 1_555 1_555
C35B N5B 1_555 1_555
H33A C35A 1_555 1_555
H33B C35B 1_555 1_555
C36A N6A 1_555 1_555
C36B N6B 1_555 1_555
H34A C36A 1_555 1_555
H34B C36B 1_555 1_555
C37A C36A 1_555 1_555
C37B C36B 1_555 1_555
H35A C37A 1_555 1_555
H35B C37B 1_555 1_555
H36A C37A 1_555 1_555
H36B C37B 1_555 1_555
C38A C37A 1_555 1_555
C38B C37B 1_555 1_555
H37A C38A 1_555 1_555
H37B C38B 1_555 1_555
H38A C38A 1_555 1_555
H38B C38B 1_555 1_555
C39A C35A 1_555 1_555
C39B C35B 1_555 1_555
H39A C39A 1_555 1_555
H39B C39B 1_555 1_555
H40A C39A 1_555 1_555
H40B C39B 1_555 1_555
C40A N7A 1_555 1_555
C40B N7B 1_555 1_555
H41A C40A 1_555 1_555
H41B C40B 1_555 1_555
C41A N8A 1_555 1_555
C41B N8B 1_555 1_555
H42A C41A 1_555 1_555
H42B C41B 1_555 1_555
C42A C41A 1_555 1_555
C42B C41B 1_555 1_555
H43A C42A 1_555 1_555
H43B C42B 1_555 1_555
H44A C42A 1_555 1_555
H44B C42B 1_555 1_555
C43A C42A 1_555 1_555
C43B C42B 1_555 1_555
H45A C43A 1_555 1_555
H45B C43B 1_555 1_555
H46A C43A 1_555 1_555
H46B C43B 1_555 1_555
C44A C40A 1_555 1_555
C44B C40B 1_555 1_555
H47A C44A 1_555 1_555
H47B C44B 1_555 1_555
H48A C44A 1_555 1_555
H48B C44B 1_555 1_555
N9A C47A 1_555 1_555
N9B C47B 1_555 1_555
N10A C54A 1_555 1_555
N10B C54B 1_555 1_555
N11A C56A 1_555 1_555
N11B C56B 1_555 1_555
N12A C55A 1_555 1_555
N12B C55B 1_555 1_555
C45A C46A 1_555 1_555
C45B C46 1_555 1_555
C46A C45 1_555 1_555
C46B C45A 1_555 1_555
H49A C46A 1_555 1_555
H49B C46B 1_555 1_555
C47A C45A 1_555 1_555
C47B C45B 1_555 1_555
H50A C47A 1_555 1_555
H50B C47B 1_555 1_555
C48A C49A 1_555 1_555
C48B C49B 1_555 1_555
C49A H51A 1_555 1_555
C49B H51B 1_555 1_555
C50A C49A 1_555 1_555
C50B C49B 1_555 1_555
C51A C50A 1_555 1_555
C51B C50B 1_555 1_555
H52A C51A 1_555 1_555
H52B C51B 1_555 1_555
C52A C51A 1_555 1_555
C52B C51B 1_555 1_555
C53A C48A 1_555 1_555
C53B C48B 1_555 1_555
H53A C53A 1_555 1_555
H53B C53B 1_555 1_555
C54A C48A 1_555 1_555
C54B C48B 1_555 1_555
H54A C54A 1_555 1_555
H54B C54B 1_555 1_555
C55A C50A 1_555 1_555
C55B C50B 1_555 1_555
H55A C55A 1_555 1_555
H55B C55B 1_555 1_555
C56A C52A 1_555 1_555
C56B C52B 1_555 1_555
H56A C56A 1_555 1_555
H56B C56B 1_555 1_555
C57A N9A 1_555 1_555
C57B N9B 1_555 1_555
H57A C57A 1_555 1_555
H57B C57B 1_555 1_555
C58A N10A 1_555 1_555
C58B N10B 1_555 1_555
H58A C58A 1_555 1_555
H58B C58B 1_555 1_555
C59A C58A 1_555 1_555
C59B C58B 1_555 1_555
H59A C59A 1_555 1_555
H59B C59B 1_555 1_555
H60A C59A 1_555 1_555
H60B C59B 1_555 1_555
C60A C59A 1_555 1_555
C60B C59B 1_555 1_555
H61A C60A 1_555 1_555
H61B C60B 1_555 1_555
H62A C60A 1_555 1_555
H62B C60B 1_555 1_555
C61A C57A 1_555 1_555
C61B C57B 1_555 1_555
H63A C61A 1_555 1_555
H63B C61B 1_555 1_555
H64A C61A 1_555 1_555
H64B C61B 1_555 1_555
C62A N12A 1_555 1_555
C62B C65 1_555 1_555
H65A C62A 1_555 1_555
H65B C62B 1_555 1_555
C63A C62A 1_555 1_555
C63B C62B 1_555 1_555
H66A C63A 1_555 1_555
H66B C63B 1_555 1_555
H67A C63A 1_555 1_555
H67B C63B 1_555 1_555
C64A C63A 1_555 1_555
C64B C66 1_555 1_555
H68A C64A 1_555 1_555
H68B C64B 1_555 1_555
H69A C64A 1_555 1_555
H69B C64B 1_555 1_555
C65A C62 1_555 1_555
C65B N11B 1_555 1_555
H70A C65A 1_555 1_555
H70B C65B 1_555 1_555
C66A C64 1_555 1_555
C66B C64A 1_555 1_555
H71A C66A 1_555 1_555
H71B C66B 1_555 1_555
H72A C66A 1_555 1_555
H72B C66B 1_555 1_555
C8 C9 1_555 1_555
C13 C14 1_555 1_555
C16 C17 1_555 1_555
C21 C22 1_555 1_555
C30 C31 1_555 1_555
C35 C36 1_555 1_555
C38 C39 1_555 1_555
C40 C41 1_555 1_555
C43 C44 1_555 1_555
C52 C53 1_555 1_555
C57 C58 1_555 1_555
C60 C61 1_555 1_555
C1B C2B 1_555 1_555
C8A C9A 1_555 1_555
C8A C12A 1_555 1_555
C8B C9B 1_555 1_555
C13A C14A 1_555 1_555
C13B C14B 1_555 1_555
C16A C17A 1_555 1_555
C16B C17B 1_555 1_555
C18A C22A 1_555 1_555
C18B C22B 1_555 1_555
C21A C22A 1_555 1_555
C21B C22B 1_555 1_555
C23B C24B 1_555 1_555
C27B C28B 1_555 1_555
C30A C31A 1_555 1_555
C30B C31B 1_555 1_555
C35A C36A 1_555 1_555
C35B C36B 1_555 1_555
C38A C39A 1_555 1_555
C38B C39B 1_555 1_555
C40A C41A 1_555 1_555
C40B C41B 1_555 1_555
C43A C44A 1_555 1_555
C43B C44B 1_555 1_555
N11A C65A 1_555 1_555
N12B C62B 1_555 1_555
C45B C46B 1_555 1_555
C52A C53A 1_555 1_555
C52B C53B 1_555 1_555
C57A C58A 1_555 1_555
C57B C58B 1_555 1_555
C60A C61A 1_555 1_555
C60B C61B 1_555 1_555
C62A C65B 1_555 1_555
C63B C64B 1_555 1_555
C65A C66A 1_555 1_555
C65B C66B 1_555 1_555

#END
