
#######################################################################
#
#                 Cambridge Crystallographic Data Centre
#                                CCDC 
#
#######################################################################
#
# If this CIF has been generated from an entry in the Cambridge 
# Structural Database, then it will include bibliographic, chemical, 
# crystal, experimental, refinement or atomic coordinate data resulting 
# from the CCDC's data processing and validation procedures.
#
#######################################################################

data_OZECAY
_chemical_formula_moiety         'C66 H72 N12'
_chemical_name_systematic        
5,11,19,25,33,39,47,53,58,64,69,75-Dodeca-azatridecacyclo[27.27.9.9^15,43^.1^3,55^.1^13,17^.1^27,31^.1^41,45^.0^6,10^.0^20,24^.0^34,38^.0^48,52^.0^59,63^.0^70,74^]octaheptaconta-1,3(66),4,11,13(78),14,16,18,25,27(77),28,30,32,39,41(67),42,44,46,53,55,57,64,68,75-tetracosaene
_symmetry_cell_setting           trigonal
_symmetry_space_group_name_H-M   'P 3'
_symmetry_Int_Tables_number      143
_space_group_name_Hall           'P 3'
loop_
_symmetry_equiv_pos_site_id
_symmetry_equiv_pos_as_xyz
1 x,y,z
2 -y,x-y,z
3 -x+y,-x,z
_cell_length_a                   24.073(3)
_cell_length_b                   24.073(3)
_cell_length_c                   10.971(2)
_cell_angle_alpha                90
_cell_angle_beta                 90
_cell_angle_gamma                120
_cell_volume                     5506.01
_exptl_crystal_colour            colorless
_exptl_crystal_description       needle
_cell_formula_units_Z            3
loop_
_atom_site_label
_atom_site_type_symbol
_atom_site_fract_x
_atom_site_fract_y
_atom_site_fract_z
N1 N 0.5218(5) 0.3502(4) 0.2322(7)
N2 N 0.4511(5) 0.3473(5) 0.4687(8)
N3 N 0.4411(4) 0.2010(5) 0.9606(8)
N4 N 0.6174(5) 0.5096(6) 0.9341(8)
C1 C 0.6044(6) 0.3216(8) 0.2340(8)
C2 C 0.6166(6) 0.2715(6) 0.2361(8)
H1 H 0.5826 0.2295 0.2390
C3 C 0.5365(6) 0.3078(6) 0.2410(8)
H2 H 0.5039 0.2656 0.2524
C4 C 0.4992(6) 0.3704(7) 0.6664(10)
C5 C 0.4685(6) 0.3073(7) 0.7035(10)
H3 H 0.4415 0.2755 0.6493
C6 C 0.4769(6) 0.2897(6) 0.8200(10)
C7 C 0.5182(5) 0.3377(7) 0.8983(9)
H4 H 0.5251 0.3268 0.9760
C8 C 0.5496(6) 0.4015(7) 0.8640(10)
C9 C 0.5400(6) 0.4177(6) 0.7458(9)
H5 H 0.5612 0.4604 0.7212
C10 C 0.4904(7) 0.3883(6) 0.5411(10)
H6 H 0.5147 0.4308 0.5160
C11 C 0.4418(6) 0.2228(7) 0.8538(10)
H7 H 0.4178 0.1933 0.7935
C12 C 0.5923(6) 0.4513(8) 0.9527(10)
H8 H 0.6006 0.4379 1.0265
C13 C 0.4544(6) 0.3309(6) 0.2477(9)
H9 H 0.4293 0.2851 0.2667
C14 C 0.4456(5) 0.3694(6) 0.3465(9)
H10 H 0.4771 0.4151 0.3369
C15 C 0.3770(6) 0.3579(6) 0.3253(9)
H11 H 0.3459 0.3220 0.3736
H12 H 0.3746 0.3958 0.3465
C16 C 0.3651(6) 0.3435(7) 0.1901(10)
H13 H 0.3572 0.3749 0.1504
H14 H 0.3281 0.3012 0.1775
C17 C 0.4252(6) 0.3465(6) 0.1383(9)
H15 H 0.4545 0.3889 0.1065
H16 H 0.4145 0.3152 0.0738
C18 C 0.4071(6) 0.1338(6) 0.9829(10)
H17 H 0.3854 0.1113 0.9078
C19 C 0.3576(5) 0.1125(7) 1.0866(10)
H18 H 0.3748 0.1418 1.1551
H19 H 0.3187 0.1111 1.0589
C20 C 0.3443(8) 0.0457(8) 1.1226(14)
H20 H 0.3419 0.0409 1.2106
H21 H 0.3042 0.0130 1.0876
C21 C 0.3998(7) 0.0397(7) 1.0731(12)
H22 H 0.3859 0.0092 1.0065
H23 H 0.4183 0.0258 1.1364
C22 C 0.4485(6) 0.1070(6) 1.0288(10)
H24 H 0.4742 0.1328 1.0979
N1A N 0.6498(4) 0.1716(6) 0.2322(7)
N1B N 0.8284(6) 0.4782(5) 0.2322(7)
N2A N 0.6527(5) 0.1038(7) 0.4687(8)
N2B N 0.8962(7) 0.5489(5) 0.4687(8)
N3A N 0.7990(5) 0.2401(6) 0.9606(8)
N3B N 0.7599(6) 0.5589(4) 0.9606(8)
N4A N 0.4904(6) 0.1078(8) 0.9341(8)
N4B N 0.8922(8) 0.3826(5) 0.9341(8)
C1A C 0.6784(8) 0.2828(10) 0.2340(8)
C1B C 0.7172(10) 0.3956(6) 0.2340(8)
C2A C 0.7285(6) 0.3451(8) 0.2361(8)
C2B C 0.6549(8) 0.3834(6) 0.2361(8)
H1A H 0.7705 0.3531 0.2390
H1B H 0.6469 0.4174 0.2390
C3A C 0.6922(6) 0.2287(8) 0.2410(8)
C3B C 0.7713(8) 0.4635(6) 0.2410(8)
H2A H 0.7344 0.2383 0.2524
H2B H 0.7617 0.4961 0.2524
C4A C 0.6296(7) 0.1288(9) 0.6664(10)
C4B C 0.8712(9) 0.5008(6) 0.6664(10)
C5A C 0.6927(7) 0.1612(9) 0.7035(10)
C5B C 0.8388(9) 0.5315(6) 0.7035(10)
H3A H 0.7245 0.1660 0.6493
H3B H 0.8340 0.5585 0.6493
C6A C 0.7103(6) 0.1872(8) 0.8200(10)
C6B C 0.8128(8) 0.5231(6) 0.8200(10)
C7A C 0.6623(7) 0.1805(9) 0.8983(9)
C7B C 0.8195(9) 0.4818(5) 0.8983(9)
H4A H 0.6732 0.1983 0.9760
H4B H 0.8017 0.4749 0.9760
C8A C 0.5985(7) 0.1481(9) 0.8640(10)
C8B C 0.8519(9) 0.4504(6) 0.8640(10)
C9A C 0.5823(6) 0.1223(8) 0.7458(9)
C9B C 0.8777(8) 0.4600(6) 0.7458(9)
H5A H 0.5396 0.1008 0.7212
H5B H 0.8992 0.4388 0.7212
C10A C 0.6117(6) 0.1021(9) 0.5411(10)
C10B C 0.8979(9) 0.5096(7) 0.5411(10)
H6A H 0.5692 0.0839 0.5160
H6B H 0.9161 0.4853 0.5160
C11A C 0.7772(7) 0.2190(9) 0.8538(10)
C11B C 0.7810(9) 0.5582(6) 0.8538(10)
H7A H 0.8067 0.2245 0.7935
H7B H 0.7755 0.5822 0.7935
C12A C 0.5487(8) 0.1410(10) 0.9527(10)
C12B C 0.8590(10) 0.4077(6) 0.9527(10)
H8A H 0.5621 0.1627 1.0265
H8B H 0.8373 0.3994 1.0265
C13A C 0.6691(6) 0.1235(8) 0.2477(9)
C13B C 0.8765(8) 0.5456(6) 0.2477(9)
H9A H 0.7149 0.1442 0.2667
H9B H 0.8558 0.5707 0.2667
C14A C 0.6306(6) 0.0762(8) 0.3465(9)
C14B C 0.9238(8) 0.5544(5) 0.3465(9)
H10A H 0.5849 0.0620 0.3369
H10B H 0.9380 0.5229 0.3369
C15A C 0.6421(6) 0.0191(8) 0.3253(9)
C15B C 0.9809(8) 0.6230(6) 0.3253(9)
H11A H 0.6780 0.0239 0.3736
H11B H 0.9761 0.6541 0.3736
H12A H 0.6042 -0.0212 0.3465
H12B H 1.0212 0.6254 0.3465
C16A C 0.6565(7) 0.0216(9) 0.1901(10)
C16B C 0.9784(9) 0.6349(6) 0.1901(10)
H13A H 0.6251 -0.0177 0.1504
H13B H 1.0177 0.6428 0.1504
H14A H 0.6988 0.0269 0.1775
H14B H 0.9731 0.6719 0.1775
C17A C 0.6535(6) 0.0787(8) 0.1383(9)
C17B C 0.9213(8) 0.5748(6) 0.1383(9)
H15A H 0.6111 0.0656 0.1065
H15B H 0.9344 0.5455 0.1065
H16A H 0.6848 0.0993 0.0738
H16B H 0.9007 0.5855 0.0738
C18A C 0.8662(6) 0.2733(8) 0.9829(10)
C18B C 0.7267(8) 0.5929(6) 0.9829(10)
H17A H 0.8887 0.2741 0.9078
H17B H 0.7259 0.6146 0.9078
C19A C 0.8875(7) 0.2451(9) 1.0866(10)
C19B C 0.7549(9) 0.6424(5) 1.0866(10)
H18A H 0.8582 0.2330 1.1551
H18B H 0.7670 0.6252 1.1551
H19A H 0.8889 0.2076 1.0589
H19B H 0.7924 0.6813 1.0589
C20A C 0.9543(8) 0.2986(11) 1.1226(14)
C20B C 0.7014(11) 0.6557(8) 1.1226(14)
H20A H 0.9591 0.3010 1.2106
H20B H 0.6990 0.6581 1.2106
H21A H 0.9870 0.2912 1.0876
H21B H 0.7088 0.6958 1.0876
C21A C 0.9603(7) 0.3601(10) 1.0731(12)
C21B C 0.6399(10) 0.6002(7) 1.0731(12)
H22A H 0.9908 0.3767 1.0065
H22B H 0.6233 0.6141 1.0065
H23A H 0.9742 0.3925 1.1364
H23B H 0.6075 0.5817 1.1364
C22A C 0.8930(6) 0.3415(8) 1.0288(10)
C22B C 0.6585(8) 0.5515(6) 1.0288(10)
H24A H 0.8672 0.3414 1.0979
H24B H 0.6586 0.5258 1.0979
N5 N 0.1770(6) 0.0728(5) 0.4583(7)
N6 N 0.2597(5) 0.1223(5) 0.6900(8)
N7 N 0.1553(5) -0.0623(5) 1.1664(8)
N8 N 0.0270(5) -0.1847(4) 1.1912(8)
C23 C 0.0669(7) 0.0440(8) 0.4714(9)
C24 C 0.0423(8) -0.0232(9) 0.4719(8)
H25 H 0.0710 -0.0384 0.4727
C25 C 0.1356(7) 0.0899(6) 0.4731(9)
H26 H 0.1494 0.1330 0.4856
C26 C 0.2127(5) 0.0852(7) 0.8889(9)
C27 C 0.2151(5) 0.1422(6) 0.9243(9)
H27 H 0.2306 0.1767 0.8706
C28 C 0.1942(5) 0.1472(6) 1.0390(9)
C29 C 0.1704(6) 0.0938(7) 1.1151(9)
H28 H 0.1540 0.0959 1.1906
C30 C 0.1699(6) 0.0380(6) 1.0843(9)
C31 C 0.1906(5) 0.0332(6) 0.9693(10)
H29 H 0.1899 -0.0043 0.9455
C32 C 0.2330(6) 0.0765(6) 0.7649(10)
H30 H 0.2257 0.0362 0.7423
C33 C 0.1461(5) -0.0152(6) 1.1742(9)
H31 H 0.1229 -0.0137 1.2407
C34 C 0.0111(6) -0.1929(6) 1.0809(11)
H32 H 0.0370 -0.1983 1.0247
C35 C 0.2443(6) 0.1223(6) 0.4677(9)
H33 H 0.2484 0.1644 0.4813
C36 C 0.2772(6) 0.1060(6) 0.5709(9)
H34 H 0.2645 0.0605 0.5683
C37 C 0.3473(6) 0.1473(6) 0.5418(10)
H35 H 0.3722 0.1304 0.5792
H36 H 0.3634 0.1910 0.5694
C38 C 0.3494(6) 0.1443(7) 0.4040(12)
H37 H 0.3802 0.1860 0.3715
H38 H 0.3625 0.1137 0.3796
C39 C 0.2843(6) 0.1240(7) 0.3562(10)
H39 H 0.2657 0.0820 0.3187
H40 H 0.2860 0.1544 0.2960
C40 C 0.1289(5) -0.1070(5) 1.2701(9)
H41 H 0.1028 -0.0952 1.3205
C41 C 0.0889(5) -0.1745(5) 1.2295(9)
H42 H 0.1099 -0.1837 1.1623
C42 C 0.0852(5) -0.2136(5) 1.3432(10)
H43 H 0.0442 -0.2297 1.3838
H44 H 0.0906 -0.2496 1.3212
C43 C 0.1399(6) -0.1670(7) 1.4256(11)
H45 H 0.1232 -0.1562 1.4966
H46 H 0.1654 -0.1856 1.4524
C44 C 0.1797(5) -0.1080(6) 1.3483(10)
H47 H 0.2018 -0.0697 1.3979
H48 H 0.2108 -0.1126 1.2994
N5A N -0.0728(5) 0.1042(8) 0.4583(7)
N5B N -0.1042(8) -0.1770(6) 0.4583(7)
N6A N -0.1223(5) 0.1374(7) 0.6900(8)
N6B N -0.1374(7) -0.2597(5) 0.6900(8)
N7A N 0.0623(5) 0.2176(7) 1.1664(8)
N7B N -0.2176(7) -0.1553(5) 1.1664(8)
N8A N 0.1847(4) 0.2117(6) 1.1912(8)
N8B N -0.2117(6) -0.0270(5) 1.1912(8)
C23A C -0.0440(8) 0.0229(11) 0.4714(9)
C23B C -0.0229(11) -0.0669(7) 0.4714(9)
C24A C 0.0232(9) 0.0655(12) 0.4719(8)
C24B C -0.0655(12) -0.0423(8) 0.4719(8)
H25A H 0.0384 0.1094 0.4727
H25B H -0.1094 -0.0710 0.4727
C25A C -0.0899(6) 0.0457(9) 0.4731(9)
C25B C -0.0457(9) -0.1356(7) 0.4731(9)
H26A H -0.1330 0.0164 0.4856
H26B H -0.0164 -0.1494 0.4856
C26A C -0.0852(7) 0.1275(9) 0.8889(9)
C26B C -0.1275(9) -0.2127(5) 0.8889(9)
C27A C -0.1422(6) 0.0729(8) 0.9243(9)
C27B C -0.0729(8) -0.2151(5) 0.9243(9)
H27A H -0.1767 0.0539 0.8706
H27B H -0.0539 -0.2306 0.8706
C28A C -0.1472(6) 0.0470(8) 1.0390(9)
C28B C -0.0470(8) -0.1942(5) 1.0390(9)
C29A C -0.0938(7) 0.0766(9) 1.1151(9)
C29B C -0.0766(9) -0.1704(6) 1.1151(9)
H28A H -0.0959 0.0581 1.1906
H28B H -0.0581 -0.1540 1.1906
C30A C -0.0380(6) 0.1319(8) 1.0843(9)
C30B C -0.1319(8) -0.1699(6) 1.0843(9)
C31A C -0.0332(6) 0.1574(8) 0.9693(10)
C31B C -0.1574(8) -0.1906(5) 0.9693(10)
H29A H 0.0043 0.1942 0.9455
H29B H -0.1942 -0.1899 0.9455
C32A C -0.0765(6) 0.1565(8) 0.7649(10)
C32B C -0.1565(8) -0.2330(6) 0.7649(10)
H30A H -0.0362 0.1895 0.7423
H30B H -0.1895 -0.2257 0.7423
C33A C 0.0152(6) 0.1613(8) 1.1742(9)
C33B C -0.1613(8) -0.1461(5) 1.1742(9)
H31A H 0.0137 0.1366 1.2407
H31B H -0.1366 -0.1229 1.2407
C34A C 0.1929(6) 0.2040(8) 1.0809(11)
C34B C -0.2040(8) -0.0111(6) 1.0809(11)
H32A H 0.1983 0.2353 1.0247
H32B H -0.2353 -0.0370 1.0247
C35A C -0.1223(6) 0.1220(8) 0.4677(9)
C35B C -0.1220(8) -0.2443(6) 0.4677(9)
H33A H -0.1644 0.0840 0.4813
H33B H -0.0840 -0.2484 0.4813
C36A C -0.1060(6) 0.1712(8) 0.5709(9)
C36B C -0.1712(8) -0.2772(6) 0.5709(9)
H34A H -0.0605 0.2040 0.5683
H34B H -0.2040 -0.2645 0.5683
C37A C -0.1473(6) 0.2000(8) 0.5418(10)
C37B C -0.2000(8) -0.3473(6) 0.5418(10)
H35A H -0.1304 0.2418 0.5792
H35B H -0.2418 -0.3722 0.5792
H36A H -0.1910 0.1724 0.5694
H36B H -0.1724 -0.3634 0.5694
C38A C -0.1443(7) 0.2051(9) 0.4040(12)
C38B C -0.2051(9) -0.3494(6) 0.4040(12)
H37A H -0.1860 0.1942 0.3715
H37B H -0.1942 -0.3802 0.3715
H38A H -0.1137 0.2488 0.3796
H38B H -0.2488 -0.3625 0.3796
C39A C -0.1240(7) 0.1603(9) 0.3562(10)
C39B C -0.1603(9) -0.2843(6) 0.3562(10)
H39A H -0.0820 0.1837 0.3187
H39B H -0.1837 -0.2657 0.3187
H40A H -0.1544 0.1316 0.2960
H40B H -0.1316 -0.2860 0.2960
C40A C 0.1070(5) 0.2359(7) 1.2701(9)
C40B C -0.2359(7) -0.1289(5) 1.2701(9)
H41A H 0.0952 0.1980 1.3205
H41B H -0.1980 -0.1028 1.3205
C41A C 0.1745(5) 0.2634(7) 1.2295(9)
C41B C -0.2634(7) -0.0889(5) 1.2295(9)
H42A H 0.1837 0.2936 1.1623
H42B H -0.2936 -0.1099 1.1623
C42A C 0.2136(5) 0.2988(7) 1.3432(10)
C42B C -0.2988(7) -0.0852(5) 1.3432(10)
H43A H 0.2297 0.2739 1.3838
H43B H -0.2739 -0.0442 1.3838
H44A H 0.2496 0.3402 1.3212
H44B H -0.3402 -0.0906 1.3212
C43A C 0.1670(7) 0.3069(9) 1.4256(11)
C43B C -0.3069(9) -0.1399(6) 1.4256(11)
H45A H 0.1562 0.2794 1.4966
H45B H -0.2794 -0.1232 1.4966
H46A H 0.1856 0.3510 1.4524
H46B H -0.3510 -0.1654 1.4524
C44A C 0.1080(6) 0.2877(8) 1.3483(10)
C44B C -0.2877(8) -0.1797(5) 1.3483(10)
H47A H 0.0697 0.2715 1.3979
H47B H -0.2715 -0.2018 1.3979
H48A H 0.1126 0.3234 1.2994
H48B H -0.3234 -0.2108 1.2994
N9 N 0.3187(5) 0.5071(6) -0.2645(7)
N10 N 0.3205(5) 0.4374(5) -0.0322(8)
N11 N 0.1618(6) 0.4497(5) 0.4348(9)
N12 N 0.4637(6) 0.5689(5) 0.4619(9)
C45 C 0.3451(10) 0.6166(8) -0.2553(9)
C46 C 0.2822(8) 0.6046(7) -0.2550(8)
H49 H 0.2480 0.5627 -0.2546
C47 C 0.3600(6) 0.5654(8) -0.2513(9)
H50 H 0.4024 0.5762 -0.2384
C48 C 0.2986(8) 0.4682(6) 0.1602(10)
C49 C 0.3610(8) 0.4986(7) 0.1975(11)
H51 H 0.3922 0.5022 0.1428
C50 C 0.3800(7) 0.5243(6) 0.3116(11)
C51 C 0.3323(8) 0.5186(6) 0.3935(11)
H52 H 0.3436 0.5351 0.4720
C52 C 0.2686(7) 0.4884(6) 0.3575(11)
C53 C 0.2505(6) 0.4613(5) 0.2409(10)
H53 H 0.2076 0.4393 0.2177
C54 C 0.2789(6) 0.4389(5) 0.0379(10)
H54 H 0.2366 0.4218 0.0122
C55 C 0.4472(7) 0.5558(6) 0.3515(13)
H55 H 0.4790 0.5665 0.2931
C56 C 0.2211(8) 0.4843(7) 0.4480(11)
H56 H 0.2362 0.5088 0.5186
C57 C 0.3373(6) 0.4588(5) -0.2528(9)
H57 H 0.3828 0.4794 -0.2312
C58 C 0.2968(6) 0.4089(5) -0.1535(9)
H58 H 0.2509 0.3937 -0.1629
C59 C 0.3122(7) 0.3561(6) -0.1788(11)
H59 H 0.2783 0.3153 -0.1483
H60 H 0.3522 0.3656 -0.1401
C60 C 0.3176(7) 0.3540(7) -0.3173(11)
H61 H 0.3548 0.3506 -0.3397
H62 H 0.2796 0.3177 -0.3511
C61 C 0.3244(7) 0.4155(6) -0.3632(10)
H63 H 0.2853 0.4077 -0.4040
H64 H 0.3596 0.4356 -0.4206
C62 C 0.5325(8) 0.6050(8) 0.4852(12)
H65 H 0.5568 0.6086 0.4112
C63 C 0.5529(8) 0.5779(8) 0.5898(14)
H66 H 0.5186 0.5573 0.6490
H67 H 0.5640 0.5467 0.5601
C64 C 0.6100(9) 0.6339(9) 0.6456(16)
H68 H 0.6481 0.6307 0.6323
H69 H 0.6038 0.6353 0.7327
C65 C 0.1214(6) 0.4498(6) 0.5341(10)
H70 H 0.1475 0.4793 0.5990
C66 C 0.0759(8) 0.3830(7) 0.5857(12)
H71 H 0.0586 0.3513 0.5211
H72 H 0.0977 0.3705 0.6444
N9A N 0.4929(6) 0.8116(8) -0.2645(7)
N9B N 0.1884(8) 0.6813(5) -0.2645(7)
N10A N 0.5626(5) 0.8831(7) -0.0322(8)
N10B N 0.1169(7) 0.6795(5) -0.0322(8)
N11A N 0.5503(5) 0.7121(8) 0.4348(9)
N11B N 0.2879(8) 0.8382(6) 0.4348(9)
N12A N 0.4311(5) 0.8948(8) 0.4619(9)
N12B N 0.1052(8) 0.5363(6) 0.4619(9)
C45A C 0.3834(8) 0.7285(13) -0.2553(9)
C45B C 0.2715(13) 0.6549(10) -0.2553(9)
C46A C 0.3954(7) 0.6776(11) -0.2550(8)
C46B C 0.3224(11) 0.7178(8) -0.2550(8)
H49A H 0.4373 0.6853 -0.2546
H49B H 0.3147 0.7520 -0.2546
C47A C 0.4346(8) 0.7946(10) -0.2513(9)
C47B C 0.2054(10) 0.6400(6) -0.2513(9)
H50A H 0.4238 0.8262 -0.2384
H50B H 0.1738 0.5976 -0.2384
C48A C 0.5318(6) 0.8304(10) 0.1602(10)
C48B C 0.1696(10) 0.7014(8) 0.1602(10)
C49A C 0.5014(7) 0.8624(11) 0.1975(11)
C49B C 0.1376(11) 0.6390(8) 0.1975(11)
H51A H 0.4978 0.8900 0.1428
H51B H 0.1100 0.6078 0.1428
C50A C 0.4757(6) 0.8557(9) 0.3116(11)
C50B C 0.1443(9) 0.6200(7) 0.3116(11)
C51A C 0.4814(6) 0.8137(10) 0.3935(11)
C51B C 0.1863(10) 0.6677(8) 0.3935(11)
H52A H 0.4649 0.8085 0.4720
H52B H 0.1915 0.6564 0.4720
C52A C 0.5116(6) 0.7802(9) 0.3575(11)
C52B C 0.2198(9) 0.7314(7) 0.3575(11)
C53A C 0.5387(5) 0.7892(8) 0.2409(10)
C53B C 0.2108(8) 0.7495(6) 0.2409(10)
H53A H 0.5607 0.7683 0.2177
H53B H 0.2317 0.7924 0.2177
C54A C 0.5611(5) 0.8400(8) 0.0379(10)
C54B C 0.1600(8) 0.7211(6) 0.0379(10)
H54A H 0.5782 0.8148 0.0122
H54B H 0.1852 0.7634 0.0122
C55A C 0.4442(6) 0.8914(9) 0.3515(13)
C55B C 0.1086(9) 0.5528(7) 0.3515(13)
H55A H 0.4335 0.9125 0.2931
H55B H 0.0875 0.5210 0.2931
C56A C 0.5157(7) 0.7368(11) 0.4480(11)
C56B C 0.2632(11) 0.7789(8) 0.4480(11)
H56A H 0.4912 0.7274 0.5186
H56B H 0.2726 0.7638 0.5186
C57A C 0.5412(5) 0.8785(8) -0.2528(9)
C57B C 0.1215(8) 0.6627(6) -0.2528(9)
H57A H 0.5206 0.9034 -0.2312
H57B H 0.0966 0.6172 -0.2312
C58A C 0.5911(5) 0.8879(8) -0.1535(9)
C58B C 0.1121(8) 0.7032(6) -0.1535(9)
H58A H 0.6063 0.8572 -0.1629
H58B H 0.1428 0.7491 -0.1629
C59A C 0.6439(6) 0.9561(9) -0.1788(11)
C59B C 0.0439(9) 0.6878(7) -0.1788(11)
H59A H 0.6847 0.9630 -0.1483
H59B H 0.0370 0.7217 -0.1483
H60A H 0.6344 0.9866 -0.1401
H60B H 0.0134 0.6478 -0.1401
C60A C 0.6460(7) 0.9636(10) -0.3173(11)
C60B C 0.0364(10) 0.6824(7) -0.3173(11)
H61A H 0.6494 1.0042 -0.3397
H61B H -0.0042 0.6452 -0.3397
H62A H 0.6823 0.9619 -0.3511
H62B H 0.0381 0.7204 -0.3511
C61A C 0.5845(6) 0.9089(9) -0.3632(10)
C61B C 0.0911(9) 0.6756(7) -0.3632(10)
H63A H 0.5923 0.8776 -0.4040
H63B H 0.1224 0.7147 -0.4040
H64A H 0.5644 0.9240 -0.4206
H64B H 0.0760 0.6404 -0.4206
C62A C 0.3950(8) 0.9275(11) 0.4852(12)
C62B C 0.0725(11) 0.4675(8) 0.4852(12)
H65A H 0.3914 0.9482 0.4112
H65B H 0.0518 0.4432 0.4112
C63A C 0.4221(8) 0.9750(11) 0.5898(14)
C63B C 0.0250(11) 0.4471(8) 0.5898(14)
H66A H 0.4427 0.9613 0.6490
H66B H 0.0387 0.4814 0.6490
H67A H 0.4533 1.0173 0.5601
H67B H -0.0173 0.4360 0.5601
C64A C 0.3661(9) 0.9761(13) 0.6456(16)
C64B C 0.0239(13) 0.3900(9) 0.6456(16)
H68A H 0.3693 1.0174 0.6323
H68B H -0.0174 0.3519 0.6323
H69A H 0.3647 0.9685 0.7327
H69B H 0.0315 0.3962 0.7327
C65A C 0.5502(6) 0.6716(8) 0.5341(10)
C65B C 0.3284(8) 0.8786(6) 0.5341(10)
H70A H 0.5207 0.6682 0.5990
H70B H 0.3318 0.8525 0.5990
C66A C 0.6170(7) 0.6929(11) 0.5857(12)
C66B C 0.3071(11) 0.9241(8) 0.5857(12)
H71A H 0.6487 0.7073 0.5211
H71B H 0.2927 0.9414 0.5211
H72A H 0.6295 0.7272 0.6444
H72B H 0.2728 0.9023 0.6444
loop_
_geom_bond_atom_site_label_1
_geom_bond_atom_site_label_2
_geom_bond_site_symmetry_1
_geom_bond_site_symmetry_2
N1 C3 1_555 1_555
N2 C10 1_555 1_555
N3 C11 1_555 1_555
N4 C12 1_555 1_555
C1 C2 1_555 1_555
C2 H1 1_555 1_555
C3 C1 1_555 1_555
H2 C3 1_555 1_555
C4 C5 1_555 1_555
C5 H3 1_555 1_555
C6 C5 1_555 1_555
C7 C6 1_555 1_555
H4 C7 1_555 1_555
C8 C7 1_555 1_555
C9 C4 1_555 1_555
H5 C9 1_555 1_555
C10 C4 1_555 1_555
H6 C10 1_555 1_555
C11 C6 1_555 1_555
H7 C11 1_555 1_555
C12 C8 1_555 1_555
H8 C12 1_555 1_555
C13 N1 1_555 1_555
H9 C13 1_555 1_555
C14 N2 1_555 1_555
H10 C14 1_555 1_555
C15 C14 1_555 1_555
H11 C15 1_555 1_555
H12 C15 1_555 1_555
C16 C15 1_555 1_555
H13 C16 1_555 1_555
H14 C16 1_555 1_555
C17 C13 1_555 1_555
H15 C17 1_555 1_555
H16 C17 1_555 1_555
C18 N3 1_555 1_555
H17 C18 1_555 1_555
C19 C18 1_555 1_555
H18 C19 1_555 1_555
H19 C19 1_555 1_555
C20 C19 1_555 1_555
H20 C20 1_555 1_555
H21 C20 1_555 1_555
C21 C20 1_555 1_555
H22 C21 1_555 1_555
H23 C21 1_555 1_555
C22 C18 1_555 1_555
H24 C22 1_555 1_555
N5 C25 1_555 1_555
N6 C32 1_555 1_555
N7 C33 1_555 1_555
N8 C34 1_555 1_555
C23 C24 1_555 1_555
C24 H25 1_555 1_555
C25 C23 1_555 1_555
H26 C25 1_555 1_555
C26 C27 1_555 1_555
C27 H27 1_555 1_555
C28 C27 1_555 1_555
C29 C28 1_555 1_555
H28 C29 1_555 1_555
C30 C29 1_555 1_555
C31 C26 1_555 1_555
H29 C31 1_555 1_555
C32 C26 1_555 1_555
H30 C32 1_555 1_555
C33 C30 1_555 1_555
H31 C33 1_555 1_555
C34 H32 1_555 1_555
C35 N5 1_555 1_555
H33 C35 1_555 1_555
C36 N6 1_555 1_555
H34 C36 1_555 1_555
C37 C36 1_555 1_555
H35 C37 1_555 1_555
H36 C37 1_555 1_555
C38 C37 1_555 1_555
H37 C38 1_555 1_555
H38 C38 1_555 1_555
C39 C35 1_555 1_555
H39 C39 1_555 1_555
H40 C39 1_555 1_555
C40 N7 1_555 1_555
H41 C40 1_555 1_555
C41 N8 1_555 1_555
H42 C41 1_555 1_555
C42 C41 1_555 1_555
H43 C42 1_555 1_555
H44 C42 1_555 1_555
C43 C42 1_555 1_555
H45 C43 1_555 1_555
H46 C43 1_555 1_555
C44 C40 1_555 1_555
H47 C44 1_555 1_555
H48 C44 1_555 1_555
N9 C47 1_555 1_555
N10 C54 1_555 1_555
N11 C56 1_555 1_555
N12 C55 1_555 1_555
C45 C46 1_555 1_555
C46 H49 1_555 1_555
C47 C45 1_555 1_555
H50 C47 1_555 1_555
C48 C49 1_555 1_555
C49 H51 1_555 1_555
C50 C49 1_555 1_555
C51 C50 1_555 1_555
H52 C51 1_555 1_555
C52 C51 1_555 1_555
C53 C48 1_555 1_555
H53 C53 1_555 1_555
C54 C48 1_555 1_555
H54 C54 1_555 1_555
C55 C50 1_555 1_555
H55 C55 1_555 1_555
C56 C52 1_555 1_555
H56 C56 1_555 1_555
C57 N9 1_555 1_555
H57 C57 1_555 1_555
C58 N10 1_555 1_555
H58 C58 1_555 1_555
C59 C58 1_555 1_555
H59 C59 1_555 1_555
H60 C59 1_555 1_555
C60 C59 1_555 1_555
H61 C60 1_555 1_555
H62 C60 1_555 1_555
C61 C57 1_555 1_555
H63 C61 1_555 1_555
H64 C61 1_555 1_555
C62 N12 1_555 1_555
H65 C62 1_555 1_555
C63 C62 1_555 1_555
H66 C63 1_555 1_555
H67 C63 1_555 1_555
C64 C63 1_555 1_555
H68 C64 1_555 1_555
H69 C64 1_555 1_555
C65 N11 1_555 1_555
H70 C65 1_555 1_555
C66 C65 1_555 1_555
H71 C66 1_555 1_555
H72 C66 1_555 1_555
N1A C3A 1_555 1_555
N1B C3B 1_555 1_555
N2A C10A 1_555 1_555
N2B C10B 1_555 1_555
N3A C11A 1_555 1_555
N3B C11B 1_555 1_555
N4A C22 1_555 1_555
N4B C12B 1_555 1_555
C1A C2 1_555 1_555
C1B C2A 1_555 1_555
C2A C1A 1_555 1_555
C2B C1 1_555 1_555
H1A C2A 1_555 1_555
H1B C2B 1_555 1_555
C3A C1A 1_555 1_555
C3B C1B 1_555 1_555
H2A C3A 1_555 1_555
H2B C3B 1_555 1_555
C4A C5A 1_555 1_555
C4B C5B 1_555 1_555
C5A H3A 1_555 1_555
C5B H3B 1_555 1_555
C6A C5A 1_555 1_555
C6B C5B 1_555 1_555
C7A C6A 1_555 1_555
C7B C6B 1_555 1_555
H4A C7A 1_555 1_555
H4B C7B 1_555 1_555
C8A C7A 1_555 1_555
C8B C7B 1_555 1_555
C9A C4A 1_555 1_555
C9B C4B 1_555 1_555
H5A C9A 1_555 1_555
H5B C9B 1_555 1_555
C10A C4A 1_555 1_555
C10B C4B 1_555 1_555
H6A C10A 1_555 1_555
H6B C10B 1_555 1_555
C11A C6A 1_555 1_555
C11B C6B 1_555 1_555
H7A C11A 1_555 1_555
H7B C11B 1_555 1_555
C12A N4A 1_555 1_555
C12B C8B 1_555 1_555
H8A C12A 1_555 1_555
H8B C12B 1_555 1_555
C13A N1A 1_555 1_555
C13B N1B 1_555 1_555
H9A C13A 1_555 1_555
H9B C13B 1_555 1_555
C14A N2A 1_555 1_555
C14B N2B 1_555 1_555
H10A C14A 1_555 1_555
H10B C14B 1_555 1_555
C15A C14A 1_555 1_555
C15B C14B 1_555 1_555
H11A C15A 1_555 1_555
H11B C15B 1_555 1_555
H12A C15A 1_555 1_555
H12B C15B 1_555 1_555
C16A C15A 1_555 1_555
C16B C15B 1_555 1_555
H13A C16A 1_555 1_555
H13B C16B 1_555 1_555
H14A C16A 1_555 1_555
H14B C16B 1_555 1_555
C17A C13A 1_555 1_555
C17B C13B 1_555 1_555
H15A C17A 1_555 1_555
H15B C17B 1_555 1_555
H16A C17A 1_555 1_555
H16B C17B 1_555 1_555
C18A N3A 1_555 1_555
C18B N3B 1_555 1_555
H17A C18A 1_555 1_555
H17B C18B 1_555 1_555
C19A C18A 1_555 1_555
C19B C18B 1_555 1_555
H18A C19A 1_555 1_555
H18B C19B 1_555 1_555
H19A C19A 1_555 1_555
H19B C19B 1_555 1_555
C20A C19A 1_555 1_555
C20B C19B 1_555 1_555
H20A C20A 1_555 1_555
H20B C20B 1_555 1_555
H21A C20A 1_555 1_555
H21B C20B 1_555 1_555
C21A C20A 1_555 1_555
C21B C20B 1_555 1_555
H22A C21A 1_555 1_555
H22B C21B 1_555 1_555
H23A C21A 1_555 1_555
H23B C21B 1_555 1_555
C22A N4B 1_555 1_555
C22B N4 1_555 1_555
H24A C22A 1_555 1_555
H24B C22B 1_555 1_555
N5A C25A 1_555 1_555
N5B C25B 1_555 1_555
N6A C32A 1_555 1_555
N6B C32B 1_555 1_555
N7A C33A 1_555 1_555
N7B C33B 1_555 1_555
N8A C34A 1_555 1_555
N8B C34B 1_555 1_555
C23A C24A 1_555 1_555
C23B C24 1_555 1_555
C24A C23 1_555 1_555
C24B C23A 1_555 1_555
H25A C24A 1_555 1_555
H25B C24B 1_555 1_555
C25A C23A 1_555 1_555
C25B C23B 1_555 1_555
H26A C25A 1_555 1_555
H26B C25B 1_555 1_555
C26A C27A 1_555 1_555
C26B C27B 1_555 1_555
C27A H27A 1_555 1_555
C27B H27B 1_555 1_555
C28A C27A 1_555 1_555
C28B C34 1_555 1_555
C29A C28A 1_555 1_555
C29B C28B 1_555 1_555
H28A C29A 1_555 1_555
H28B C29B 1_555 1_555
C30A C29A 1_555 1_555
C30B C29B 1_555 1_555
C31A C26A 1_555 1_555
C31B C26B 1_555 1_555
H29A C31A 1_555 1_555
H29B C31B 1_555 1_555
C32A C26A 1_555 1_555
C32B C26B 1_555 1_555
H30A C32A 1_555 1_555
H30B C32B 1_555 1_555
C33A C30A 1_555 1_555
C33B C30B 1_555 1_555
H31A C33A 1_555 1_555
H31B C33B 1_555 1_555
C34A C28 1_555 1_555
C34B C28A 1_555 1_555
H32A C34A 1_555 1_555
H32B C34B 1_555 1_555
C35A N5A 1_555 1_555
C35B N5B 1_555 1_555
H33A C35A 1_555 1_555
H33B C35B 1_555 1_555
C36A N6A 1_555 1_555
C36B N6B 1_555 1_555
H34A C36A 1_555 1_555
H34B C36B 1_555 1_555
C37A C36A 1_555 1_555
C37B C36B 1_555 1_555
H35A C37A 1_555 1_555
H35B C37B 1_555 1_555
H36A C37A 1_555 1_555
H36B C37B 1_555 1_555
C38A C37A 1_555 1_555
C38B C37B 1_555 1_555
H37A C38A 1_555 1_555
H37B C38B 1_555 1_555
H38A C38A 1_555 1_555
H38B C38B 1_555 1_555
C39A C35A 1_555 1_555
C39B C35B 1_555 1_555
H39A C39A 1_555 1_555
H39B C39B 1_555 1_555
H40A C39A 1_555 1_555
H40B C39B 1_555 1_555
C40A N7A 1_555 1_555
C40B N7B 1_555 1_555
H41A C40A 1_555 1_555
H41B C40B 1_555 1_555
C41A N8A 1_555 1_555
C41B N8B 1_555 1_555
H42A C41A 1_555 1_555
H42B C41B 1_555 1_555
C42A C41A 1_555 1_555
C42B C41B 1_555 1_555
H43A C42A 1_555 1_555
H43B C42B 1_555 1_555
H44A C42A 1_555 1_555
H44B C42B 1_555 1_555
C43A C42A 1_555 1_555
C43B C42B 1_555 1_555
H45A C43A 1_555 1_555
H45B C43B 1_555 1_555
H46A C43A 1_555 1_555
H46B C43B 1_555 1_555
C44A C40A 1_555 1_555
C44B C40B 1_555 1_555
H47A C44A 1_555 1_555
H47B C44B 1_555 1_555
H48A C44A 1_555 1_555
H48B C44B 1_555 1_555
N9A C47A 1_555 1_555
N9B C47B 1_555 1_555
N10A C54A 1_555 1_555
N10B C54B 1_555 1_555
N11A C56A 1_555 1_555
N11B C56B 1_555 1_555
N12A C55A 1_555 1_555
N12B C55B 1_555 1_555
C45A C46A 1_555 1_555
C45B C46 1_555 1_555
C46A C45 1_555 1_555
C46B C45A 1_555 1_555
H49A C46A 1_555 1_555
H49B C46B 1_555 1_555
C47A C45A 1_555 1_555
C47B C45B 1_555 1_555
H50A C47A 1_555 1_555
H50B C47B 1_555 1_555
C48A C49A 1_555 1_555
C48B C49B 1_555 1_555
C49A H51A 1_555 1_555
C49B H51B 1_555 1_555
C50A C49A 1_555 1_555
C50B C49B 1_555 1_555
C51A C50A 1_555 1_555
C51B C50B 1_555 1_555
H52A C51A 1_555 1_555
H52B C51B 1_555 1_555
C52A C51A 1_555 1_555
C52B C51B 1_555 1_555
C53A C48A 1_555 1_555
C53B C48B 1_555 1_555
H53A C53A 1_555 1_555
H53B C53B 1_555 1_555
C54A C48A 1_555 1_555
C54B C48B 1_555 1_555
H54A C54A 1_555 1_555
H54B C54B 1_555 1_555
C55A C50A 1_555 1_555
C55B C50B 1_555 1_555
H55A C55A 1_555 1_555
H55B C55B 1_555 1_555
C56A C52A 1_555 1_555
C56B C52B 1_555 1_555
H56A C56A 1_555 1_555
H56B C56B 1_555 1_555
C57A N9A 1_555 1_555
C57B N9B 1_555 1_555
H57A C57A 1_555 1_555
H57B C57B 1_555 1_555
C58A N10A 1_555 1_555
C58B N10B 1_555 1_555
H58A C58A 1_555 1_555
H58B C58B 1_555 1_555
C59A C58A 1_555 1_555
C59B C58B 1_555 1_555
H59A C59A 1_555 1_555
H59B C59B 1_555 1_555
H60A C59A 1_555 1_555
H60B C59B 1_555 1_555
C60A C59A 1_555 1_555
C60B C59B 1_555 1_555
H61A C60A 1_555 1_555
H61B C60B 1_555 1_555
H62A C60A 1_555 1_555
H62B C60B 1_555 1_555
C61A C57A 1_555 1_555
C61B C57B 1_555 1_555
H63A C61A 1_555 1_555
H63B C61B 1_555 1_555
H64A C61A 1_555 1_555
H64B C61B 1_555 1_555
C62A N12A 1_555 1_555
C62B C65 1_555 1_555
H65A C62A 1_555 1_555
H65B C62B 1_555 1_555
C63A C62A 1_555 1_555
C63B C62B 1_555 1_555
H66A C63A 1_555 1_555
H66B C63B 1_555 1_555
H67A C63A 1_555 1_555
H67B C63B 1_555 1_555
C64A C63A 1_555 1_555
C64B C66 1_555 1_555
H68A C64A 1_555 1_555
H68B C64B 1_555 1_555
H69A C64A 1_555 1_555
H69B C64B 1_555 1_555
C65A C62 1_555 1_555
C65B N11B 1_555 1_555
H70A C65A 1_555 1_555
H70B C65B 1_555 1_555
C66A C64 1_555 1_555
C66B C64A 1_555 1_555
H71A C66A 1_555 1_555
H71B C66B 1_555 1_555
H72A C66A 1_555 1_555
H72B C66B 1_555 1_555
C8 C9 1_555 1_555
C13 C14 1_555 1_555
C16 C17 1_555 1_555
C21 C22 1_555 1_555
C30 C31 1_555 1_555
C35 C36 1_555 1_555
C38 C39 1_555 1_555
C40 C41 1_555 1_555
C43 C44 1_555 1_555
C52 C53 1_555 1_555
C57 C58 1_555 1_555
C60 C61 1_555 1_555
C1B C2B 1_555 1_555
C8A C9A 1_555 1_555
C8A C12A 1_555 1_555
C8B C9B 1_555 1_555
C13A C14A 1_555 1_555
C13B C14B 1_555 1_555
C16A C17A 1_555 1_555
C16B C17B 1_555 1_555
C18A C22A 1_555 1_555
C18B C22B 1_555 1_555
C21A C22A 1_555 1_555
C21B C22B 1_555 1_555
C23B C24B 1_555 1_555
C27B C28B 1_555 1_555
C30A C31A 1_555 1_555
C30B C31B 1_555 1_555
C35A C36A 1_555 1_555
C35B C36B 1_555 1_555
C38A C39A 1_555 1_555
C38B C39B 1_555 1_555
C40A C41A 1_555 1_555
C40B C41B 1_555 1_555
C43A C44A 1_555 1_555
C43B C44B 1_555 1_555
N11A C65A 1_555 1_555
N12B C62B 1_555 1_555
C45B C46B 1_555 1_555
C52A C53A 1_555 1_555
C52B C53B 1_555 1_555
C57A C58A 1_555 1_555
C57B C58B 1_555 1_555
C60A C61A 1_555 1_555
C60B C61B 1_555 1_555
C62A C65B 1_555 1_555
C63B C64B 1_555 1_555
C65A C66A 1_555 1_555
C65B C66B 1_555 1_555

#END
