
#######################################################################
#
#                 Cambridge Crystallographic Data Centre
#                                CCDC 
#
#######################################################################
#
# If this CIF has been generated from an entry in the Cambridge 
# Structural Database, then it will include bibliographic, chemical, 
# crystal, experimental, refinement or atomic coordinate data resulting 
# from the CCDC's data processing and validation procedures.
#
#######################################################################

data_OZECIG
_chemical_formula_moiety         'C66 H72 N12,4.34(N2)'
_chemical_name_systematic        
'5,11,19,25,33,39,47,53,58,64,69,75-Dodeca-azatridecacyclo[27.27.9.9^15,43^.1^3,55^.1^13,17^.1^27,31^.1^41,45^.0^6,10^.0^20,24^.0^34,38^.0^48,52^.0^59,63^.0^70,74^]octaheptaconta-1,3(66),4,11,13(78),14,16,18,25,27(77),28,30,32,39,41(67),42,44,46,53,55,57,64,68,75-tetracosaene dinitrogen'
_symmetry_cell_setting           trigonal
_symmetry_space_group_name_H-M   'P 3'
_symmetry_Int_Tables_number      143
_space_group_name_Hall           'P 3'
loop_
_symmetry_equiv_pos_site_id
_symmetry_equiv_pos_as_xyz
1 x,y,z
2 -y,x-y,z
3 -x+y,-x,z
_cell_length_a                   24.2145(15)
_cell_length_b                   24.2145(15)
_cell_length_c                   10.9883(13)
_cell_angle_alpha                90
_cell_angle_beta                 90
_cell_angle_gamma                120
_cell_volume                     5579.72
_exptl_crystal_colour            colorless
_exptl_crystal_description       needle
_cell_formula_units_Z            3
loop_
_atom_site_label
_atom_site_type_symbol
_atom_site_fract_x
_atom_site_fract_y
_atom_site_fract_z
N1 N 0.8302(4) 0.4757(3) 0.2295(5)
N2 N 0.8989(4) 0.5443(3) 0.4669(5)
N3 N 0.7714(4) 0.5585(3) 0.9615(5)
N4 N 0.8868(4) 0.3699(3) 0.9274(5)
C1 C 0.7180(4) 0.3954(3) 0.2265(5)
C2 C 0.6564(4) 0.3842(3) 0.2284(5)
H1 H 0.6491 0.4193 0.2310
C3 C 0.7729(5) 0.4614(3) 0.2346(6)
H2 H 0.7640 0.4952 0.2443
C4 C 0.8780(6) 0.4973(4) 0.6638(6)
C5 C 0.8498(6) 0.5323(4) 0.7059(7)
H3 H 0.8489 0.5631 0.6537
C6 C 0.8238(4) 0.5236(3) 0.8194(6)
C7 C 0.8270(5) 0.4790(3) 0.8979(6)
H4 H 0.8087 0.4720 0.9768
C8 C 0.8558(5) 0.4463(3) 0.8620(6)
C9 C 0.8809(5) 0.4544(3) 0.7449(6)
H5 H 0.9003 0.4305 0.7200
C10 C 0.9034(6) 0.5061(4) 0.5410(7)
H6 H 0.9237 0.4831 0.5154
C11 C 0.7937(4) 0.5611(3) 0.8554(7)
H7 H 0.7910 0.5885 0.7968
C12 C 0.8583(5) 0.3997(3) 0.9477(6)
H8 H 0.8365 0.3923 1.0231
C13 C 0.8777(5) 0.5414(3) 0.2468(6)
H9 H 0.8564 0.5666 0.2671
C14 C 0.9262(6) 0.5516(4) 0.3449(6)
H10 H 0.9419 0.5208 0.3336
C15 C 0.9798(6) 0.6190(4) 0.3236(6)
H11 H 1.0213 0.6231 0.3464
H12 H 0.9733 0.6495 0.3729
C16 C 0.9789(6) 0.6326(4) 0.1874(7)
H13 H 0.9729 0.6698 0.1750
H14 H 1.0192 0.6413 0.1480
C17 C 0.9220(5) 0.5717(3) 0.1344(6)
H15 H 0.9360 0.5427 0.1009
H16 H 0.9003 0.5821 0.0696
C18 C 0.7423(4) 0.5971(3) 0.9834(7)
H17 H 0.7445 0.6212 0.9078
C19 C 0.7716(5) 0.6431(4) 1.0888(7)
H18 H 0.8110 0.6820 1.0629
H19 H 0.7820 0.6229 1.1565
C20 C 0.7208(6) 0.6593(4) 1.1276(8)
H20 H 0.7317 0.7022 1.0983
H21 H 0.7169 0.6583 1.2173
C21 C 0.6568(6) 0.6067(4) 1.0678(7)
H22 H 0.6217 0.5880 1.1282
H23 H 0.6441 0.6244 0.9991
C22 C 0.8834(5) 0.3262(4) 1.0236(6)
H24 H 0.8583 0.3286 1.0936
N1B N 0.6455(5) 0.1698(4) 0.2295(5)
N1A N 0.5243(3) 0.3545(5) 0.2295(5)
N2B N 0.6454(5) 0.1011(4) 0.4669(5)
N2A N 0.4557(3) 0.3546(5) 0.4669(5)
N3A N 0.4415(3) 0.2129(5) 0.9615(5)
N3B N 0.7871(5) 0.2286(4) 0.9615(5)
N4B N 0.4831(5) 0.1132(4) 0.9274(5)
N4A N 0.6301(3) 0.5169(5) 0.9274(5)
C1A C 0.6046(3) 0.3226(5) 0.2265(5)
C1B C 0.6774(5) 0.2820(4) 0.2265(5)
C2A C 0.6158(3) 0.2722(5) 0.2284(5)
C2B C 0.7278(5) 0.3436(4) 0.2284(5)
H1B H 0.7702 0.3509 0.2310
H1A H 0.5807 0.2298 0.2310
C3B C 0.6885(6) 0.2271(5) 0.2346(6)
C3A C 0.5386(3) 0.3115(6) 0.2346(6)
H2A H 0.5048 0.2688 0.2443
H2B H 0.7312 0.2360 0.2443
C4B C 0.6193(7) 0.1220(6) 0.6638(6)
C4A C 0.5027(4) 0.3807(7) 0.6638(6)
C5B C 0.6825(7) 0.1502(6) 0.7059(7)
C5A C 0.4677(4) 0.3175(7) 0.7059(7)
H3B H 0.7142 0.1511 0.6537
H3A H 0.4369 0.2858 0.6537
C6B C 0.6998(5) 0.1762(4) 0.8194(6)
C6A C 0.4764(3) 0.3002(5) 0.8194(6)
C7B C 0.6520(6) 0.1730(5) 0.8979(6)
C7A C 0.5210(3) 0.3480(6) 0.8979(6)
H4B H 0.6633 0.1913 0.9768
H4A H 0.5280 0.3367 0.9768
C8B C 0.5905(6) 0.1442(5) 0.8620(6)
C8A C 0.5537(3) 0.4095(6) 0.8620(6)
C9B C 0.5735(6) 0.1191(5) 0.7449(6)
C9A C 0.5456(3) 0.4265(6) 0.7449(6)
H5B H 0.5302 0.0997 0.7200
H5A H 0.5695 0.4698 0.7200
C10B C 0.6027(7) 0.0966(6) 0.5410(7)
C10A C 0.4939(4) 0.3973(7) 0.5410(7)
H6A H 0.5169 0.4406 0.5154
H6B H 0.5594 0.0763 0.5154
C11A C 0.4389(3) 0.2326(5) 0.8554(7)
C11B C 0.7674(5) 0.2063(4) 0.8554(7)
H7B H 0.7975 0.2090 0.7968
H7A H 0.4115 0.2025 0.7968
C12B C 0.5414(6) 0.1417(5) 0.9477(6)
C12A C 0.6003(3) 0.4586(6) 0.9477(6)
H8A H 0.6077 0.4442 1.0231
H8B H 0.5558 0.1635 1.0231
C13B C 0.6637(6) 0.1223(5) 0.2468(6)
C13A C 0.4586(3) 0.3363(6) 0.2468(6)
H9B H 0.7102 0.1436 0.2671
H9A H 0.4334 0.2898 0.2671
C14B C 0.6254(7) 0.0738(6) 0.3449(6)
C14A C 0.4484(4) 0.3746(7) 0.3449(6)
H10A H 0.4792 0.4211 0.3336
H10B H 0.5789 0.0581 0.3336
C15A C 0.3810(4) 0.3608(7) 0.3236(6)
C15B C 0.6392(7) 0.0202(6) 0.3236(6)
H11A H 0.3769 0.3982 0.3464
H11B H 0.6018 -0.0213 0.3464
H12A H 0.3505 0.3238 0.3729
H12B H 0.6762 0.0267 0.3729
C16A C 0.3674(4) 0.3463(7) 0.1874(7)
C16B C 0.6537(7) 0.0211(6) 0.1874(7)
H13A H 0.3302 0.3031 0.1750
H13B H 0.6969 0.0271 0.1750
H14A H 0.3587 0.3779 0.1480
H14B H 0.6221 -0.0192 0.1480
C17A C 0.4283(3) 0.3503(6) 0.1344(6)
C17B C 0.6497(6) 0.0780(5) 0.1344(6)
H15A H 0.4573 0.3933 0.1009
H15B H 0.6067 0.0640 0.1009
H16A H 0.4179 0.3182 0.0696
H16B H 0.6818 0.0997 0.0696
C18A C 0.4029(3) 0.1452(5) 0.9834(7)
C18B C 0.8548(5) 0.2577(4) 0.9834(7)
H17B H 0.8767 0.2555 0.9078
H17A H 0.3788 0.1233 0.9078
C19B C 0.8715(6) 0.2284(5) 1.0888(7)
C19A C 0.3569(4) 0.1285(6) 1.0888(7)
H18B H 0.8710 0.1890 1.0629
H18A H 0.3180 0.1290 1.0629
H19B H 0.8409 0.2180 1.1565
H19A H 0.3771 0.1591 1.1565
C20B C 0.9385(7) 0.2792(6) 1.1276(8)
C20A C 0.3407(4) 0.0615(7) 1.1276(8)
H20B H 0.9705 0.2683 1.0983
H20A H 0.2978 0.0295 1.0983
H21B H 0.9414 0.2831 1.2173
H21A H 0.3417 0.0586 1.2173
C21B C 0.9499(7) 0.3432(6) 1.0678(7)
C21A C 0.3933(4) 0.0501(7) 1.0678(7)
H22B H 0.9663 0.3783 1.1282
H22A H 0.4120 0.0337 1.1282
H23B H 0.9803 0.3559 0.9991
H23A H 0.3756 0.0197 0.9991
C22B C 0.4428(6) 0.1166(5) 1.0236(6)
C22A C 0.6738(4) 0.5572(6) 1.0236(6)
H24A H 0.6714 0.5297 1.0936
H24B H 0.4703 0.1417 1.0936
N5 N -0.0986(4) -0.1760(3) 0.4606(5)
N6 N -0.1353(4) -0.2586(3) 0.6942(5)
N7 N -0.2173(4) -0.1551(3) 1.1673(5)
N8 N 0.0247(4) -0.1852(3) 1.1944(5)
C23 C -0.0198(5) -0.0650(3) 0.4712(6)
C24 C -0.0647(6) -0.0444(4) 0.4721(6)
H25 H -0.1090 -0.0750 0.4734
C25 C -0.0421(6) -0.1342(4) 0.4738(6)
H26 H -0.0114 -0.1472 0.4862
C26 C -0.1301(6) -0.2149(4) 0.8915(6)
C27 C -0.0756(6) -0.2163(4) 0.9268(6)
H27 H -0.0554 -0.2306 0.8713
C28 C -0.0510(5) -0.1972(3) 1.0416(7)
C29 C -0.0806(4) -0.1747(3) 1.1224(6)
H28 H -0.0634 -0.1604 1.2014
C30 C -0.1345(5) -0.1736(3) 1.0863(6)
C31 C -0.1600(5) -0.1932(3) 0.9713(6)
H29 H -0.1970 -0.1920 0.9471
C32 C -0.1578(5) -0.2351(3) 0.7671(7)
H30 H -0.1928 -0.2302 0.7430
C33 C -0.1622(4) -0.1492(3) 1.1791(6)
H31 H -0.1378 -0.1285 1.2495
C34 C 0.0086(5) -0.1953(4) 1.0819(7)
H32 H 0.0345 -0.2014 1.0248
C35 C -0.1152(6) -0.2425(4) 0.4738(6)
H33 H -0.0760 -0.2449 0.4932
C36 C -0.1648(5) -0.2757(3) 0.5717(6)
H34 H -0.1988 -0.2640 0.5646
C37 C -0.1922(6) -0.3459(4) 0.5443(7)
H35 H -0.1671 -0.3624 0.5859
H36 H -0.2370 -0.3706 0.5720
C38 C -0.1884(6) -0.3509(4) 0.4108(8)
H37 H -0.2316 -0.3716 0.3747
H38 H -0.1683 -0.3767 0.3904
C39 C -0.1479(5) -0.2826(3) 0.3615(7)
H39 H -0.1162 -0.2802 0.3018
H40 H -0.1752 -0.2681 0.3219
C40 C -0.2375(4) -0.1295(3) 1.2675(6)
H41 H -0.1995 -0.1038 1.3206
C41 C 0.0874(6) -0.1750(4) 1.2283(6)
H42 H 0.1070 -0.1855 1.1585
C42 C 0.0823(6) -0.2158(4) 1.3410(7)
H43 H 0.0876 -0.2524 1.3175
H44 H 0.0406 -0.2321 1.3819
C43 C 0.1381(6) -0.1687(4) 1.4259(7)
H45 H 0.1215 -0.1566 1.4972
H46 H 0.1633 -0.1881 1.4549
C44 C -0.2895(6) -0.1787(4) 1.3456(7)
H47 H -0.2740 -0.2025 1.3949
H48 H -0.3263 -0.2092 1.2960
N5A N 0.1760(3) 0.0774(5) 0.4606(5)
N5B N -0.0774(5) 0.0986(4) 0.4606(5)
N6A N 0.2586(3) 0.1233(5) 0.6942(5)
N6B N -0.1233(5) 0.1353(4) 0.6942(5)
N7A N 0.1551(3) -0.0622(5) 1.1673(5)
N7B N 0.0622(5) 0.2173(4) 1.1673(5)
N8B N -0.2099(5) -0.0247(4) 1.1944(5)
N8A N 0.1852(3) 0.2099(5) 1.1944(5)
C23B C -0.0452(6) 0.0198(5) 0.4712(6)
C23A C 0.0650(3) 0.0452(6) 0.4712(6)
C24B C 0.0203(7) 0.0647(6) 0.4721(6)
C24A C 0.0444(4) -0.0203(7) 0.4721(6)
H25A H 0.0750 -0.0340 0.4734
H25B H 0.0340 0.1090 0.4734
C25A C 0.1342(4) 0.0921(7) 0.4738(6)
C25B C -0.0921(7) 0.0421(6) 0.4738(6)
H26B H -0.1358 0.0114 0.4862
H26A H 0.1472 0.1358 0.4862
C26A C 0.2149(4) 0.0848(7) 0.8915(6)
C26B C -0.0848(7) 0.1301(6) 0.8915(6)
C27A C 0.2163(4) 0.1407(7) 0.9268(6)
C27B C -0.1407(7) 0.0756(6) 0.9268(6)
H27A H 0.2306 0.1752 0.8713
H27B H -0.1752 0.0554 0.8713
C28A C 0.1972(3) 0.1462(6) 1.0416(7)
C28B C -0.1462(6) 0.0510(5) 1.0416(7)
C29A C 0.1747(3) 0.0941(5) 1.1224(6)
C29B C -0.0941(5) 0.0806(4) 1.1224(6)
H28A H 0.1604 0.0970 1.2014
H28B H -0.0970 0.0634 1.2014
C30A C 0.1736(3) 0.0391(6) 1.0863(6)
C30B C -0.0391(6) 0.1345(5) 1.0863(6)
C31A C 0.1932(3) 0.0332(6) 0.9713(6)
C31B C -0.0332(6) 0.1600(5) 0.9713(6)
H29A H 0.1920 -0.0050 0.9471
H29B H 0.0050 0.1970 0.9471
C32A C 0.2351(3) 0.0773(6) 0.7671(7)
C32B C -0.0773(6) 0.1578(5) 0.7671(7)
H30B H -0.0374 0.1928 0.7430
H30A H 0.2302 0.0374 0.7430
C33A C 0.1492(3) -0.0130(5) 1.1791(6)
C33B C 0.0130(5) 0.1622(4) 1.1791(6)
H31B H 0.0093 0.1378 1.2495
H31A H 0.1285 -0.0093 1.2495
C34B C -0.2039(6) -0.0086(5) 1.0819(7)
C34A C 0.1953(4) 0.2039(6) 1.0819(7)
H32A H 0.2014 0.2359 1.0248
H32B H -0.2359 -0.0345 1.0248
C35A C 0.2425(4) 0.1273(7) 0.4738(6)
C35B C -0.1273(7) 0.1152(6) 0.4738(6)
H33A H 0.2449 0.1689 0.4932
H33B H -0.1689 0.0760 0.4932
C36A C 0.2757(3) 0.1109(6) 0.5717(6)
C36B C -0.1109(6) 0.1648(5) 0.5717(6)
H34B H -0.0652 0.1988 0.5646
H34A H 0.2640 0.0652 0.5646
C37B C -0.1537(7) 0.1922(6) 0.5443(7)
C37A C 0.3459(4) 0.1537(7) 0.5443(7)
H35B H -0.1953 0.1671 0.5859
H35A H 0.3624 0.1953 0.5859
H36B H -0.1336 0.2370 0.5720
H36A H 0.3706 0.1336 0.5720
C38B C -0.1625(7) 0.1884(6) 0.4108(8)
C38A C 0.3509(4) 0.1625(7) 0.4108(8)
H37B H -0.1400 0.2316 0.3747
H37A H 0.3716 0.1400 0.3747
H38B H -0.2084 0.1683 0.3904
H38A H 0.3767 0.2084 0.3904
C39B C -0.1347(6) 0.1479(5) 0.3615(7)
C39A C 0.2826(3) 0.1347(6) 0.3615(7)
H39B H -0.1640 0.1162 0.3018
H39A H 0.2802 0.1640 0.3018
H40B H -0.0929 0.1752 0.3219
H40A H 0.2681 0.0929 0.3219
C40A C 0.1295(3) -0.1080(5) 1.2675(6)
C40B C 0.1080(5) 0.2375(4) 1.2675(6)
H41A H 0.1038 -0.0957 1.3206
H41B H 0.0957 0.1995 1.3206
C41B C -0.2624(7) -0.0874(6) 1.2283(6)
C41A C 0.1750(4) 0.2624(7) 1.2283(6)
H42A H 0.1855 0.2925 1.1585
H42B H -0.2925 -0.1070 1.1585
C42A C 0.2158(4) 0.2981(7) 1.3410(7)
C42B C -0.2981(7) -0.0823(6) 1.3410(7)
H43A H 0.2524 0.3400 1.3175
H43B H -0.3400 -0.0876 1.3175
H44A H 0.2321 0.2727 1.3819
H44B H -0.2727 -0.0406 1.3819
C43A C 0.1687(4) 0.3068(7) 1.4259(7)
C43B C -0.3068(7) -0.1381(6) 1.4259(7)
H45A H 0.1566 0.2781 1.4972
H45B H -0.2781 -0.1215 1.4972
H46A H 0.1881 0.3514 1.4549
H46B H -0.3514 -0.1633 1.4549
C44B C 0.1108(7) 0.2895(6) 1.3456(7)
C44A C 0.1787(4) -0.1108(7) 1.3456(7)
H47B H 0.0715 0.2740 1.3949
H47A H 0.2025 -0.0715 1.3949
H48B H 0.1171 0.3263 1.2960
H48A H 0.2092 -0.1171 1.2960
N9 N 0.1876(4) 0.6818(3) -0.2630(5)
N10 N 0.1148(4) 0.6750(3) -0.0294(5)
N11 N 0.2840(5) 0.8355(4) 0.4390(5)
N12 N 0.1061(4) 0.5338(3) 0.4679(6)
C45 C 0.2695(5) 0.6531(4) -0.2600(6)
C46 C 0.3217(6) 0.7164(4) -0.2591(6)
H49 H 0.3130 0.7505 -0.2577
C47 C 0.2038(6) 0.6397(4) -0.2556(6)
H50 H 0.1710 0.5965 -0.2465
C48 C 0.1658(6) 0.6987(4) 0.1663(7)
C49 C 0.1319(5) 0.6345(4) 0.2053(6)
H51 H 0.1021 0.6024 0.1524
C50 C 0.1423(5) 0.6184(4) 0.3207(6)
C51 C 0.1835(6) 0.6643(4) 0.3980(7)
H52 H 0.1906 0.6524 0.4762
C52 C 0.2154(6) 0.7278(4) 0.3657(7)
C53 C 0.2062(6) 0.7452(4) 0.2483(7)
H53 H 0.2276 0.7888 0.2250
C54 C 0.1544(6) 0.7151(4) 0.0459(6)
H54 H 0.1780 0.7585 0.0216
C55 C 0.1069(6) 0.5509(4) 0.3587(8)
H55 H 0.0840 0.5192 0.2991
C56 C 0.2577(6) 0.7754(4) 0.4530(7)
H56 H 0.2664 0.7604 0.5264
C57 C 0.1202(4) 0.6619(3) -0.2509(6)
H57 H 0.0953 0.6150 -0.2349
C58 C 0.1082(5) 0.6972(4) -0.1489(6)
H58 H 0.1376 0.7442 -0.1566
C59 C 0.0395(6) 0.6806(4) -0.1718(6)
H59 H 0.0305 0.7124 -0.1341
H60 H 0.0090 0.6377 -0.1398
C60 C 0.0364(6) 0.6824(4) -0.3152(7)
H61 H -0.0041 0.6463 -0.3457
H62 H 0.0395 0.7228 -0.3428
C61 C 0.0927(6) 0.6773(4) -0.3601(7)
H63 H 0.1250 0.7181 -0.3971
H64 H 0.0788 0.6432 -0.4220
C62 C 0.0754(6) 0.4657(4) 0.4930(7)
H65 H 0.0527 0.4402 0.4193
C63 C 0.0300(6) 0.4462(5) 0.6023(8)
H66 H 0.0466 0.4805 0.6641
H67 H -0.0128 0.4374 0.5762
C64 C 0.0265(7) 0.3867(5) 0.6537(9)
H68 H -0.0152 0.3488 0.6351
H69 H 0.0324 0.3903 0.7431
C65 C 0.3239(6) 0.8757(4) 0.5390(7)
H70 H 0.3271 0.8488 0.6045
C66 C 0.0809(6) 0.3814(5) 0.5921(8)
H71 H 0.1042 0.3702 0.6522
H72 H 0.0641 0.3487 0.5271
N9A N 0.3182(3) 0.5058(5) -0.2630(5)
N9B N 0.4942(5) 0.8124(4) -0.2630(5)
N10A N 0.3250(3) 0.4398(5) -0.0294(5)
N10B N 0.5602(5) 0.8852(4) -0.0294(5)
N11A N 0.1645(4) 0.4485(6) 0.4390(5)
N11B N 0.5515(6) 0.7160(5) 0.4390(5)
N12B N 0.4277(5) 0.8939(4) 0.4679(6)
N12A N 0.4662(3) 0.5723(5) 0.4679(6)
C45B C 0.3836(6) 0.7305(5) -0.2600(6)
C45A C 0.3469(4) 0.6164(6) -0.2600(6)
C46B C 0.3947(7) 0.6783(6) -0.2591(6)
C46A C 0.2836(4) 0.6053(7) -0.2591(6)
H49A H 0.2495 0.5625 -0.2577
H49B H 0.4375 0.6870 -0.2577
C47A C 0.3603(4) 0.5641(7) -0.2556(6)
C47B C 0.4359(7) 0.7962(6) -0.2556(6)
H50B H 0.4255 0.8290 -0.2465
H50A H 0.4035 0.5745 -0.2465
C48A C 0.3013(4) 0.4671(7) 0.1663(7)
C48B C 0.5329(7) 0.8342(6) 0.1663(7)
C49A C 0.3655(4) 0.4974(6) 0.2053(6)
C49B C 0.5026(6) 0.8681(5) 0.2053(6)
H51A H 0.3976 0.4997 0.1524
H51B H 0.5003 0.8979 0.1524
C50A C 0.3816(4) 0.5239(6) 0.3207(6)
C50B C 0.4761(6) 0.8577(5) 0.3207(6)
C51A C 0.3357(4) 0.5192(7) 0.3980(7)
C51B C 0.4808(7) 0.8165(6) 0.3980(7)
H52A H 0.3476 0.5382 0.4762
H52B H 0.4618 0.8094 0.4762
C52A C 0.2722(4) 0.4876(7) 0.3657(7)
C52B C 0.5124(7) 0.7846(6) 0.3657(7)
C53A C 0.2548(4) 0.4610(7) 0.2483(7)
C53B C 0.5390(7) 0.7938(6) 0.2483(7)
H53A H 0.2112 0.4388 0.2250
H53B H 0.5612 0.7724 0.2250
C54A C 0.2849(4) 0.4393(7) 0.0459(6)
C54B C 0.5607(7) 0.8456(6) 0.0459(6)
H54B H 0.5805 0.8220 0.0216
H54A H 0.2415 0.4195 0.0216
C55B C 0.4440(7) 0.8931(6) 0.3587(8)
C55A C 0.4491(4) 0.5560(7) 0.3587(8)
H55A H 0.4808 0.5648 0.2991
H55B H 0.4352 0.9160 0.2991
C56A C 0.2246(4) 0.4823(7) 0.4530(7)
C56B C 0.5177(7) 0.7423(6) 0.4530(7)
H56B H 0.4940 0.7336 0.5264
H56A H 0.2396 0.5060 0.5264
C57A C 0.3381(3) 0.4583(5) -0.2509(6)
C57B C 0.5417(5) 0.8798(4) -0.2509(6)
H57A H 0.3850 0.4803 -0.2349
H57B H 0.5197 0.9047 -0.2349
C58A C 0.3028(4) 0.4110(6) -0.1489(6)
C58B C 0.5890(6) 0.8918(5) -0.1489(6)
H58B H 0.6066 0.8624 -0.1566
H58A H 0.2558 0.3934 -0.1566
C59B C 0.6411(7) 0.9605(6) -0.1718(6)
C59A C 0.3194(4) 0.3589(7) -0.1718(6)
H59B H 0.6819 0.9695 -0.1341
H59A H 0.2876 0.3181 -0.1341
H60B H 0.6287 0.9910 -0.1398
H60A H 0.3623 0.3713 -0.1398
C60B C 0.6460(7) 0.9636(6) -0.3152(7)
C60A C 0.3176(4) 0.3540(7) -0.3152(7)
H61B H 0.6504 1.0041 -0.3457
H61A H 0.3537 0.3496 -0.3457
H62B H 0.6833 0.9605 -0.3428
H62A H 0.2772 0.3167 -0.3428
C61B C 0.5846(7) 0.9073(6) -0.3601(7)
C61A C 0.3227(4) 0.4154(7) -0.3601(7)
H63B H 0.5931 0.8750 -0.3971
H63A H 0.2819 0.4069 -0.3971
H64B H 0.5644 0.9212 -0.4220
H64A H 0.3568 0.4356 -0.4220
C62B C 0.3903(7) 0.9246(6) 0.4930(7)
C62A C 0.5343(4) 0.6097(7) 0.4930(7)
H65A H 0.5598 0.6125 0.4193
H65B H 0.3875 0.9473 0.4193
C63A C 0.5538(5) 0.5838(8) 0.6023(8)
C63B C 0.4162(8) 0.9700(6) 0.6023(8)
H66A H 0.5195 0.5661 0.6641
H66B H 0.4339 0.9534 0.6641
H67A H 0.5626 0.5498 0.5762
H67B H 0.4502 1.0128 0.5762
C64A C 0.6133(5) 0.6398(9) 0.6537(9)
C64B C 0.3602(9) 0.9735(7) 0.6537(9)
H68A H 0.6512 0.6360 0.6351
H68B H 0.3640 1.0152 0.6351
H69A H 0.6097 0.6421 0.7431
H69B H 0.3579 0.9676 0.7431
C65A C 0.1243(4) 0.4482(7) 0.5390(7)
C65B C 0.5518(7) 0.6761(6) 0.5390(7)
H70B H 0.5217 0.6729 0.6045
H70A H 0.1512 0.4783 0.6045
C66A C 0.6186(5) 0.6995(8) 0.5921(8)
C66B C 0.3005(8) 0.9191(6) 0.5921(8)
H71A H 0.6298 0.7340 0.6522
H71B H 0.2660 0.8958 0.6522
H72A H 0.6513 0.7154 0.5271
H72B H 0.2846 0.9359 0.5271
N13 N 0.0000 0.0000 1.159(2)
N14 N 0.0000 0.0000 1.078(3)
N15 N 0.4758(6) -0.0279(6) 0.9949(12)
N16 N 0.4636(6) -0.0385(6) 0.9159(13)
N17 N 0.2595(9) -0.1040(9) 0.9907(18)
N18 N 0.2442(8) -0.0923(8) 0.9243(16)
N19 N 0.4767(7) 0.1247(8) 0.3586(12)
N20 N 0.4657(8) 0.0845(8) 0.3599(14)
N21 N 0.4149(11) 0.6552(11) 0.0725(19)
N22 N 0.4507(11) 0.6565(10) 0.0474(18)
N23 N 0.3333 0.6667 0.441(2)
N24 N 0.3333 0.6667 0.364(2)
N25 N 0.5353(10) 0.2227(10) 0.5778(18)
N26 N 0.5634(12) 0.2639(11) 0.562(2)
N27? N 0.6667 0.3333 0.878(3)
N28? N 0.672(3) 0.3647(19) 0.924(3)
loop_
_geom_bond_atom_site_label_1
_geom_bond_atom_site_label_2
_geom_bond_site_symmetry_1
_geom_bond_site_symmetry_2
N1 C3 1_555 1_555
N2 C10 1_555 1_555
N3 C11 1_555 1_555
N4 C12 1_555 1_555
C1 C2 1_555 1_555
C2 H1 1_555 1_555
C3 C1 1_555 1_555
H2 C3 1_555 1_555
C4 C5 1_555 1_555
C5 H3 1_555 1_555
C6 C5 1_555 1_555
C7 C6 1_555 1_555
H4 C7 1_555 1_555
C8 C7 1_555 1_555
C9 C4 1_555 1_555
H5 C9 1_555 1_555
C10 C4 1_555 1_555
H6 C10 1_555 1_555
C11 C6 1_555 1_555
H7 C11 1_555 1_555
C12 C8 1_555 1_555
H8 C12 1_555 1_555
C13 N1 1_555 1_555
H9 C13 1_555 1_555
C14 N2 1_555 1_555
H10 C14 1_555 1_555
C15 C14 1_555 1_555
H11 C15 1_555 1_555
H12 C15 1_555 1_555
C16 C15 1_555 1_555
H13 C16 1_555 1_555
H14 C16 1_555 1_555
C17 C13 1_555 1_555
H15 C17 1_555 1_555
H16 C17 1_555 1_555
C18 N3 1_555 1_555
H17 C18 1_555 1_555
C19 C18 1_555 1_555
H18 C19 1_555 1_555
H19 C19 1_555 1_555
C20 C19 1_555 1_555
H20 C20 1_555 1_555
H21 C20 1_555 1_555
C21 C20 1_555 1_555
H22 C21 1_555 1_555
H23 C21 1_555 1_555
C22 N4 1_555 1_555
H24 C22 1_555 1_555
N5 C25 1_555 1_555
N6 C32 1_555 1_555
N7 C33 1_555 1_555
N8 C34 1_555 1_555
C23 C24 1_555 1_555
C24 H25 1_555 1_555
C25 C23 1_555 1_555
H26 C25 1_555 1_555
C26 C27 1_555 1_555
C27 H27 1_555 1_555
C28 C27 1_555 1_555
C29 C28 1_555 1_555
H28 C29 1_555 1_555
C30 C29 1_555 1_555
C31 C26 1_555 1_555
H29 C31 1_555 1_555
C32 C26 1_555 1_555
H30 C32 1_555 1_555
C33 C30 1_555 1_555
H31 C33 1_555 1_555
C34 C28 1_555 1_555
H32 C34 1_555 1_555
C35 N5 1_555 1_555
H33 C35 1_555 1_555
C36 N6 1_555 1_555
H34 C36 1_555 1_555
C37 C36 1_555 1_555
H35 C37 1_555 1_555
H36 C37 1_555 1_555
C38 C37 1_555 1_555
H37 C38 1_555 1_555
H38 C38 1_555 1_555
C39 C35 1_555 1_555
H39 C39 1_555 1_555
H40 C39 1_555 1_555
C40 N7 1_555 1_555
H41 C40 1_555 1_555
C41 N8 1_555 1_555
H42 C41 1_555 1_555
C42 C41 1_555 1_555
H43 C42 1_555 1_555
H44 C42 1_555 1_555
C43 C42 1_555 1_555
H45 C43 1_555 1_555
H46 C43 1_555 1_555
C44 C40 1_555 1_555
H47 C44 1_555 1_555
H48 C44 1_555 1_555
N9 C47 1_555 1_555
N10 C54 1_555 1_555
N11 C56 1_555 1_555
N12 C55 1_555 1_555
C45 C46 1_555 1_555
C46 H49 1_555 1_555
C47 C45 1_555 1_555
H50 C47 1_555 1_555
C48 C49 1_555 1_555
C49 H51 1_555 1_555
C50 C49 1_555 1_555
C51 C50 1_555 1_555
H52 C51 1_555 1_555
C52 C51 1_555 1_555
C53 C48 1_555 1_555
H53 C53 1_555 1_555
C54 C48 1_555 1_555
H54 C54 1_555 1_555
C55 C50 1_555 1_555
H55 C55 1_555 1_555
C56 C52 1_555 1_555
H56 C56 1_555 1_555
C57 N9 1_555 1_555
H57 C57 1_555 1_555
C58 N10 1_555 1_555
H58 C58 1_555 1_555
C59 C58 1_555 1_555
H59 C59 1_555 1_555
H60 C59 1_555 1_555
C60 C59 1_555 1_555
H61 C60 1_555 1_555
H62 C60 1_555 1_555
C61 C57 1_555 1_555
H63 C61 1_555 1_555
H64 C61 1_555 1_555
C62 N12 1_555 1_555
H65 C62 1_555 1_555
C63 C62 1_555 1_555
H66 C63 1_555 1_555
H67 C63 1_555 1_555
C64 C63 1_555 1_555
H68 C64 1_555 1_555
H69 C64 1_555 1_555
C65 N11 1_555 1_555
H70 C65 1_555 1_555
C66 C64 1_555 1_555
H71 C66 1_555 1_555
H72 C66 1_555 1_555
N13 N14 1_555 1_555
N15 N16 1_555 1_555
N17 N18 1_555 1_555
N19 N20 1_555 1_555
N21 N22 1_555 1_555
N23 N24 1_555 1_555
N25 N26 1_555 1_555
N1B C3B 1_555 1_555
N1A C3A 1_555 1_555
N2B C10B 1_555 1_555
N2A C10A 1_555 1_555
N3A C11A 1_555 1_555
N3B C11B 1_555 1_555
N4B C12B 1_555 1_555
N4A C12A 1_555 1_555
C1A C2 1_555 1_555
C1B C2A 1_555 1_555
C2A C1A 1_555 1_555
C2B C1 1_555 1_555
H1B C2B 1_555 1_555
H1A C2A 1_555 1_555
C3B C1B 1_555 1_555
C3A C1A 1_555 1_555
H2A C3A 1_555 1_555
H2B C3B 1_555 1_555
C4B C5B 1_555 1_555
C4A C5A 1_555 1_555
C5B H3B 1_555 1_555
C5A H3A 1_555 1_555
C6B C5B 1_555 1_555
C6A C5A 1_555 1_555
C7B C6B 1_555 1_555
C7A C6A 1_555 1_555
H4B C7B 1_555 1_555
H4A C7A 1_555 1_555
C8B C7B 1_555 1_555
C8A C7A 1_555 1_555
C9B C4B 1_555 1_555
C9A C4A 1_555 1_555
H5B C9B 1_555 1_555
H5A C9A 1_555 1_555
C10B C4B 1_555 1_555
C10A C4A 1_555 1_555
H6A C10A 1_555 1_555
H6B C10B 1_555 1_555
C11A C6A 1_555 1_555
C11B C6B 1_555 1_555
H7B C11B 1_555 1_555
H7A C11A 1_555 1_555
C12B C8B 1_555 1_555
C12A C8A 1_555 1_555
H8A C12A 1_555 1_555
H8B C12B 1_555 1_555
C13B N1B 1_555 1_555
C13A N1A 1_555 1_555
H9B C13B 1_555 1_555
H9A C13A 1_555 1_555
C14B N2B 1_555 1_555
C14A N2A 1_555 1_555
H10A C14A 1_555 1_555
H10B C14B 1_555 1_555
C15A C14A 1_555 1_555
C15B C14B 1_555 1_555
H11A C15A 1_555 1_555
H11B C15B 1_555 1_555
H12A C15A 1_555 1_555
H12B C15B 1_555 1_555
C16A C15A 1_555 1_555
C16B C15B 1_555 1_555
H13A C16A 1_555 1_555
H13B C16B 1_555 1_555
H14A C16A 1_555 1_555
H14B C16B 1_555 1_555
C17A C13A 1_555 1_555
C17B C13B 1_555 1_555
H15A C17A 1_555 1_555
H15B C17B 1_555 1_555
H16A C17A 1_555 1_555
H16B C17B 1_555 1_555
C18A N3A 1_555 1_555
C18B C22 1_555 1_555
H17B C18B 1_555 1_555
H17A C18A 1_555 1_555
C19B C18B 1_555 1_555
C19A C18A 1_555 1_555
H18B C19B 1_555 1_555
H18A C19A 1_555 1_555
H19B C19B 1_555 1_555
H19A C19A 1_555 1_555
C20B C19B 1_555 1_555
C20A C19A 1_555 1_555
H20B C20B 1_555 1_555
H20A C20A 1_555 1_555
H21B C20B 1_555 1_555
H21A C20A 1_555 1_555
C21B C22 1_555 1_555
C21A C20A 1_555 1_555
H22B C21B 1_555 1_555
H22A C21A 1_555 1_555
H23B C21B 1_555 1_555
H23A C21A 1_555 1_555
C22B N4B 1_555 1_555
C22A C18 1_555 1_555
H24A C22A 1_555 1_555
H24B C22B 1_555 1_555
N5A C25A 1_555 1_555
N5B C25B 1_555 1_555
N6A C32A 1_555 1_555
N6B C32B 1_555 1_555
N7A C33A 1_555 1_555
N7B C33B 1_555 1_555
N8B C34B 1_555 1_555
N8A C34A 1_555 1_555
C23B C24 1_555 1_555
C23A C24B 1_555 1_555
C24B C23B 1_555 1_555
C24A C23 1_555 1_555
H25A C24A 1_555 1_555
H25B C24B 1_555 1_555
C25A C23A 1_555 1_555
C25B C23B 1_555 1_555
H26B C25B 1_555 1_555
H26A C25A 1_555 1_555
C26A C27A 1_555 1_555
C26B C27B 1_555 1_555
C27A H27A 1_555 1_555
C27B H27B 1_555 1_555
C28A C27A 1_555 1_555
C28B C27B 1_555 1_555
C29A C28A 1_555 1_555
C29B C28B 1_555 1_555
H28A C29A 1_555 1_555
H28B C29B 1_555 1_555
C30A C29A 1_555 1_555
C30B C29B 1_555 1_555
C31A C26A 1_555 1_555
C31B C26B 1_555 1_555
H29A C31A 1_555 1_555
H29B C31B 1_555 1_555
C32A C26A 1_555 1_555
C32B C26B 1_555 1_555
H30B C32B 1_555 1_555
H30A C32A 1_555 1_555
C33A C30A 1_555 1_555
C33B C30B 1_555 1_555
H31B C33B 1_555 1_555
H31A C33A 1_555 1_555
C34B C28B 1_555 1_555
C34A C28A 1_555 1_555
H32A C34A 1_555 1_555
H32B C34B 1_555 1_555
C35A N5A 1_555 1_555
C35B N5B 1_555 1_555
H33A C35A 1_555 1_555
H33B C35B 1_555 1_555
C36A N6A 1_555 1_555
C36B N6B 1_555 1_555
H34B C36B 1_555 1_555
H34A C36A 1_555 1_555
C37B C36B 1_555 1_555
C37A C36A 1_555 1_555
H35B C37B 1_555 1_555
H35A C37A 1_555 1_555
H36B C37B 1_555 1_555
H36A C37A 1_555 1_555
C38B C37B 1_555 1_555
C38A C37A 1_555 1_555
H37B C38B 1_555 1_555
H37A C38A 1_555 1_555
H38B C38B 1_555 1_555
H38A C38A 1_555 1_555
C39B C35B 1_555 1_555
C39A C35A 1_555 1_555
H39B C39B 1_555 1_555
H39A C39A 1_555 1_555
H40B C39B 1_555 1_555
H40A C39A 1_555 1_555
C40A C41 1_555 1_555
C40B N7B 1_555 1_555
H41A C40A 1_555 1_555
H41B C40B 1_555 1_555
C41B C40 1_555 1_555
C41A N8A 1_555 1_555
H42A C41A 1_555 1_555
H42B C41B 1_555 1_555
C42A C41A 1_555 1_555
C42B C41B 1_555 1_555
H43A C42A 1_555 1_555
H43B C42B 1_555 1_555
H44A C42A 1_555 1_555
H44B C42B 1_555 1_555
C43A C42A 1_555 1_555
C43B C44 1_555 1_555
H45A C43A 1_555 1_555
H45B C43B 1_555 1_555
H46A C43A 1_555 1_555
H46B C43B 1_555 1_555
C44B C40B 1_555 1_555
C44A C43 1_555 1_555
H47B C44B 1_555 1_555
H47A C44A 1_555 1_555
H48B C44B 1_555 1_555
H48A C44A 1_555 1_555
N9A C47A 1_555 1_555
N9B C47B 1_555 1_555
N10A C54A 1_555 1_555
N10B C54B 1_555 1_555
N11A C56A 1_555 1_555
N11B C56B 1_555 1_555
N12B C55B 1_555 1_555
N12A C55A 1_555 1_555
C45B C46 1_555 1_555
C45A C46B 1_555 1_555
C46B C45B 1_555 1_555
C46A C45 1_555 1_555
H49A C46A 1_555 1_555
H49B C46B 1_555 1_555
C47A C45A 1_555 1_555
C47B C45B 1_555 1_555
H50B C47B 1_555 1_555
H50A C47A 1_555 1_555
C48A C49A 1_555 1_555
C48B C49B 1_555 1_555
C49A H51A 1_555 1_555
C49B H51B 1_555 1_555
C50A C49A 1_555 1_555
C50B C49B 1_555 1_555
C51A C50A 1_555 1_555
C51B C50B 1_555 1_555
H52A C51A 1_555 1_555
H52B C51B 1_555 1_555
C52A C51A 1_555 1_555
C52B C51B 1_555 1_555
C53A C48A 1_555 1_555
C53B C48B 1_555 1_555
H53A C53A 1_555 1_555
H53B C53B 1_555 1_555
C54A C48A 1_555 1_555
C54B C48B 1_555 1_555
H54B C54B 1_555 1_555
H54A C54A 1_555 1_555
C55B C50B 1_555 1_555
C55A C50A 1_555 1_555
H55A C55A 1_555 1_555
H55B C55B 1_555 1_555
C56A C52A 1_555 1_555
C56B C52B 1_555 1_555
H56B C56B 1_555 1_555
H56A C56A 1_555 1_555
C57A N9A 1_555 1_555
C57B N9B 1_555 1_555
H57A C57A 1_555 1_555
H57B C57B 1_555 1_555
C58A N10A 1_555 1_555
C58B N10B 1_555 1_555
H58B C58B 1_555 1_555
H58A C58A 1_555 1_555
C59B C58B 1_555 1_555
C59A C58A 1_555 1_555
H59B C59B 1_555 1_555
H59A C59A 1_555 1_555
H60B C59B 1_555 1_555
H60A C59A 1_555 1_555
C60B C59B 1_555 1_555
C60A C59A 1_555 1_555
H61B C60B 1_555 1_555
H61A C60A 1_555 1_555
H62B C60B 1_555 1_555
H62A C60A 1_555 1_555
C61B C57B 1_555 1_555
C61A C57A 1_555 1_555
H63B C61B 1_555 1_555
H63A C61A 1_555 1_555
H64B C61B 1_555 1_555
H64A C61A 1_555 1_555
C62B C65 1_555 1_555
C62A N12A 1_555 1_555
H65A C62A 1_555 1_555
H65B C62B 1_555 1_555
C63A C62A 1_555 1_555
C63B C62B 1_555 1_555
H66A C63A 1_555 1_555
H66B C63B 1_555 1_555
H67A C63A 1_555 1_555
H67B C63B 1_555 1_555
C64A C63A 1_555 1_555
C64B C63B 1_555 1_555
H68A C64A 1_555 1_555
H68B C64B 1_555 1_555
H69A C64A 1_555 1_555
H69B C64B 1_555 1_555
C65A C62 1_555 1_555
C65B N11B 1_555 1_555
H70B C65B 1_555 1_555
H70A C65A 1_555 1_555
C66A C64A 1_555 1_555
C66B C65 1_555 1_555
H71A C66A 1_555 1_555
H71B C66B 1_555 1_555
H72A C66A 1_555 1_555
H72B C66B 1_555 1_555
C8 C9 1_555 1_555
C13 C14 1_555 1_555
C16 C17 1_555 1_555
C21 C22A 1_555 1_555
C30 C31 1_555 1_555
C35 C36 1_555 1_555
C38 C39 1_555 1_555
C52 C53 1_555 1_555
C57 C58 1_555 1_555
C60 C61 1_555 1_555
C66 C65A 1_555 1_555
N3B C18B 1_555 1_555
N4A C22A 1_555 1_555
C1B C2B 1_555 1_555
C8B C9B 1_555 1_555
C8A C9A 1_555 1_555
C13B C14B 1_555 1_555
C13A C14A 1_555 1_555
C16A C17A 1_555 1_555
C16B C17B 1_555 1_555
C18A C22B 1_555 1_555
C20B C21B 1_555 1_555
C21A C22B 1_555 1_555
N7A C40A 1_555 1_555
N8B C41B 1_555 1_555
C23A C24A 1_555 1_555
C30A C31A 1_555 1_555
C30B C31B 1_555 1_555
C35A C36A 1_555 1_555
C35B C36B 1_555 1_555
C38B C39B 1_555 1_555
C38A C39A 1_555 1_555
C40A C44A 1_555 1_555
C40B C41A 1_555 1_555
C42B C43B 1_555 1_555
C43A C44B 1_555 1_555
N11A C65A 1_555 1_555
N12B C62B 1_555 1_555
C45A C46A 1_555 1_555
C52A C53A 1_555 1_555
C52B C53B 1_555 1_555
C57A C58A 1_555 1_555
C57B C58B 1_555 1_555
C60B C61B 1_555 1_555
C60A C61A 1_555 1_555
C62A C65B 1_555 1_555
C64B C66B 1_555 1_555
C65B C66A 1_555 1_555

#END
