
#######################################################################
#
#                 Cambridge Crystallographic Data Centre
#                                CCDC 
#
#######################################################################
#
# If this CIF has been generated from an entry in the Cambridge 
# Structural Database, then it will include bibliographic, chemical, 
# crystal, experimental, refinement or atomic coordinate data resulting 
# from the CCDC's data processing and validation procedures.
#
#######################################################################

data_OZECED
_chemical_formula_moiety         'C13 H16 F1 N1 O5'
_chemical_name_systematic        
'ethyl 2-fluoro-3-hydroxy-2-methyl-3-(4-nitrophenyl)butanoate'
_symmetry_cell_setting           monoclinic
_symmetry_space_group_name_H-M   'C 2/c'
_symmetry_Int_Tables_number      15
_space_group_name_Hall           '-C 2yn'
loop_
_symmetry_equiv_pos_site_id
_symmetry_equiv_pos_as_xyz
1 x,y,z
2 -x,y,1/2-z
3 1/2+x,1/2+y,z
4 1/2-x,1/2+y,1/2-z
5 -x,-y,-z
6 x,-y,1/2+z
7 1/2-x,1/2-y,-z
8 1/2+x,1/2-y,1/2+z
_cell_length_a                   7.1143(10)
_cell_length_b                   16.533(2)
_cell_length_c                   23.479(3)
_cell_angle_alpha                90
_cell_angle_beta                 92.902(3)
_cell_angle_gamma                90
_cell_volume                     2758.08
_exptl_crystal_colour            colorless
_exptl_crystal_description       prismatic
_cell_formula_units_Z            8
loop_
_atom_site_label
_atom_site_type_symbol
_atom_site_fract_x
_atom_site_fract_y
_atom_site_fract_z
F1 F 0.15780(14) 1.06096(5) 0.05545(4)
N1 N 0.2655(2) 0.68289(11) 0.25708(7)
O1 O -0.05445(16) 0.91959(7) 0.06663(5)
H1 H -0.1063 0.9564 0.0484
O2 O 0.29096(17) 0.95491(7) -0.01235(5)
O3 O 0.40036(16) 0.87794(7) 0.06004(5)
O4 O 0.2237(2) 0.61495(9) 0.24022(7)
O5 O 0.3465(2) 0.69670(10) 0.30323(7)
C1 C 0.2330(2) 0.99370(9) 0.08443(7)
C2 C 0.0612(2) 0.95259(9) 0.11195(6)
C3 C 0.1205(2) 0.88150(9) 0.15040(6)
C4 C 0.0882(2) 0.80259(10) 0.13226(7)
H2 H 0.0330 0.7934 0.0961
C5 C 0.1362(2) 0.73760(10) 0.16670(8)
H3 H 0.1146 0.6850 0.1540
C6 C 0.2164(2) 0.75211(10) 0.21996(7)
C7 C 0.2493(2) 0.82907(11) 0.23987(7)
H4 H 0.3036 0.8376 0.2762
C8 C 0.2004(2) 0.89347(10) 0.20498(7)
H5 H 0.2212 0.9459 0.2182
C9 C 0.3910(2) 1.02341(11) 0.12454(8)
H6 H 0.4496 0.9781 0.1439
H7 H 0.3412 1.0596 0.1520
H8 H 0.4824 1.0514 0.1032
C10 C -0.0493(2) 1.01441(10) 0.14501(8)
H9 H -0.0937 1.0566 0.1197
H10 H 0.0310 1.0372 0.1750
H11 H -0.1546 0.9883 0.1612
C11 C 0.3090(2) 0.94076(9) 0.03766(7)
C12 C 0.4843(3) 0.82261(11) 0.02089(9)
H12 H 0.5892 0.8485 0.0033
H13 H 0.3923 0.8070 -0.0090
C13 C 0.5501(4) 0.75069(13) 0.05317(12)
H14 H 0.6426 0.7666 0.0822
H15 H 0.6050 0.7130 0.0277
H16 H 0.4455 0.7257 0.0706
loop_
_geom_bond_atom_site_label_1
_geom_bond_atom_site_label_2
_geom_bond_site_symmetry_1
_geom_bond_site_symmetry_2
F1 C1 1_555 1_555
N1 O4 1_555 1_555
O1 H1 1_555 1_555
O2 C11 1_555 1_555
O3 C11 1_555 1_555
O5 N1 1_555 1_555
C1 C2 1_555 1_555
C2 O1 1_555 1_555
C3 C2 1_555 1_555
C4 C3 1_555 1_555
H2 C4 1_555 1_555
C5 C4 1_555 1_555
H3 C5 1_555 1_555
C6 N1 1_555 1_555
C7 C6 1_555 1_555
H4 C7 1_555 1_555
C8 C3 1_555 1_555
H5 C8 1_555 1_555
C9 C1 1_555 1_555
H6 C9 1_555 1_555
H7 C9 1_555 1_555
H8 C9 1_555 1_555
C10 C2 1_555 1_555
H9 C10 1_555 1_555
H10 C10 1_555 1_555
H11 C10 1_555 1_555
C11 C1 1_555 1_555
C12 O3 1_555 1_555
H12 C12 1_555 1_555
H13 C12 1_555 1_555
C13 C12 1_555 1_555
H14 C13 1_555 1_555
H15 C13 1_555 1_555
H16 C13 1_555 1_555
C5 C6 1_555 1_555
C7 C8 1_555 1_555

#END
