
#######################################################################
#
#                 Cambridge Crystallographic Data Centre
#                                CCDC 
#
#######################################################################
#
# If this CIF has been generated from an entry in the Cambridge 
# Structural Database, then it will include bibliographic, chemical, 
# crystal, experimental, refinement or atomic coordinate data resulting 
# from the CCDC's data processing and validation procedures.
#
#######################################################################

data_OZEJAF
_chemical_formula_moiety         'C13 H12 Cl2 N2 O1'
_chemical_name_systematic        
6-Chloro-5-(2-chloroethyl)-3-(4-methylphenyl)pyrimidin-4(3H)-one
_symmetry_cell_setting           monoclinic
_symmetry_space_group_name_H-M   'C 2/c'
_symmetry_Int_Tables_number      15
_space_group_name_Hall           '-C 2yn'
loop_
_symmetry_equiv_pos_site_id
_symmetry_equiv_pos_as_xyz
1 x,y,z
2 -x,y,1/2-z
3 1/2+x,1/2+y,z
4 1/2-x,1/2+y,1/2-z
5 -x,-y,-z
6 x,-y,1/2+z
7 1/2-x,1/2-y,-z
8 1/2+x,1/2-y,1/2+z
_cell_length_a                   24.176(5)
_cell_length_b                   4.292(5)
_cell_length_c                   25.685(5)
_cell_angle_alpha                90
_cell_angle_beta                 94.521(5)
_cell_angle_gamma                90
_cell_volume                     2656.87
_cell_formula_units_Z            8
loop_
_atom_site_label
_atom_site_type_symbol
_atom_site_fract_x
_atom_site_fract_y
_atom_site_fract_z
O1 O 0.66666(7) 0.0201(4) 0.64244(7)
Cl1 Cl 0.58697(3) 0.5409(2) 0.47638(2)
Cl2 Cl 0.48245(3) 0.06790(18) 0.63412(3)
N1 N 0.68810(8) 0.5682(5) 0.51743(7)
N2 N 0.72144(7) 0.3389(4) 0.59716(6)
C1 C 0.54427(10) 0.2671(7) 0.62048(11)
H1 H 0.5357 0.4840 0.6129
H2 H 0.5705 0.2598 0.6510
C2 C 0.57014(9) 0.1249(6) 0.57503(9)
H3 H 0.5747 -0.0972 0.5809
H4 H 0.5455 0.1531 0.5437
C3 C 0.62558(9) 0.2660(5) 0.56659(8)
C4 C 0.63772(9) 0.4448(6) 0.52547(8)
C5 C 0.90728(12) 0.1992(9) 0.74830(11)
H5 H 0.9361 0.0860 0.7329
H6 H 0.8958 0.0863 0.7779
H7 H 0.9209 0.4005 0.7594
C6 C 0.72732(10) 0.5111(6) 0.55373(8)
H8 H 0.7622 0.5950 0.5496
C7 C 0.67053(9) 0.1932(5) 0.60543(8)
C8 C 0.76831(8) 0.3032(5) 0.63545(7)
C9 C 0.81519(9) 0.1497(6) 0.62194(8)
H9 H 0.8166 0.0674 0.5886
C10 C 0.85985(10) 0.1193(6) 0.65832(9)
H10 H 0.8916 0.0172 0.6491
C11 C 0.81090(10) 0.3933(6) 0.72073(8)
H11 H 0.8093 0.4765 0.7540
C12 C 0.76597(10) 0.4269(6) 0.68482(8)
H12 H 0.7344 0.5317 0.6937
C13 C 0.85841(10) 0.2385(6) 0.70850(8)
loop_
_geom_bond_atom_site_label_1
_geom_bond_atom_site_label_2
_geom_bond_site_symmetry_1
_geom_bond_site_symmetry_2
O1 C7 1_555 1_555
Cl1 C4 1_555 1_555
Cl2 C1 1_555 1_555
N1 C4 1_555 1_555
N2 C6 1_555 1_555
C1 H1 1_555 1_555
H2 C1 1_555 1_555
C2 C1 1_555 1_555
H3 C2 1_555 1_555
H4 C2 1_555 1_555
C3 C2 1_555 1_555
C4 C3 1_555 1_555
C5 H5 1_555 1_555
H6 C5 1_555 1_555
H7 C5 1_555 1_555
C6 N1 1_555 1_555
H8 C6 1_555 1_555
C7 N2 1_555 1_555
C8 N2 1_555 1_555
C9 C8 1_555 1_555
H9 C9 1_555 1_555
C10 C9 1_555 1_555
H10 C10 1_555 1_555
C11 H11 1_555 1_555
C12 C8 1_555 1_555
H12 C12 1_555 1_555
C13 C5 1_555 1_555
C3 C7 1_555 1_555
C10 C13 1_555 1_555
C11 C12 1_555 1_555
C11 C13 1_555 1_555

#END
