
#######################################################################
#
#                 Cambridge Crystallographic Data Centre
#                                CCDC 
#
#######################################################################
#
# If this CIF has been generated from an entry in the Cambridge 
# Structural Database, then it will include bibliographic, chemical, 
# crystal, experimental, refinement or atomic coordinate data resulting 
# from the CCDC's data processing and validation procedures.
#
#######################################################################

data_OZEMUD
_chemical_formula_moiety         'C13 H16 Cl1 N1 O2'
_chemical_name_systematic        
(R,S)-(2E)-3-(4-chlorophenyl)-N-(1-hydroxybutan-2-yl)prop-2-enamide
_chemical_properties_biological  'Anticonvulsant and neurotoxicity activity'
_symmetry_cell_setting           monoclinic
_symmetry_space_group_name_H-M   'P 21/c'
_symmetry_Int_Tables_number      14
_space_group_name_Hall           '-P 2ybc'
loop_
_symmetry_equiv_pos_site_id
_symmetry_equiv_pos_as_xyz
1 x,y,z
2 -x,1/2+y,1/2-z
3 -x,-y,-z
4 x,1/2-y,1/2+z
_cell_length_a                   10.6850(4)
_cell_length_b                   11.5110(4)
_cell_length_c                   11.2230(5)
_cell_angle_alpha                90
_cell_angle_beta                 109.532(3)
_cell_angle_gamma                90
_cell_volume                     1300.94
_exptl_crystal_colour            colorless
_exptl_crystal_description       prism
_chemical_melting_point          '100-102 deg.C'
_cell_formula_units_Z            4
_exptl_crystal_recrystallization_method 'n-butyl acetate'
loop_
_atom_site_label
_atom_site_type_symbol
_atom_site_fract_x
_atom_site_fract_y
_atom_site_fract_z
C1 C 0.93339(13) 0.17162(12) -0.02918(12)
H1 H 0.8499 0.1906 -0.09
C2 C 1.03973(13) 0.14456(12) -0.06878(13)
H2 H 1.0292 0.1439 -0.1563
C3 C 1.16184(13) 0.11851(12) 0.02099(13)
C4 C 1.18013(13) 0.11691(12) 0.14910(13)
H3 H 1.2643 0.0991 0.2094
C5 C 1.07176(13) 0.14218(12) 0.18695(12)
H4 H 1.0821 0.1397 0.2743
C6 C 0.94788(13) 0.17118(11) 0.09949(12)
C7 C 0.83817(13) 0.19941(11) 0.14574(12)
H5 H 0.8483 0.1759 0.2296
C8 C 0.72578(13) 0.25456(11) 0.08253(12)
H6 H 0.7101 0.2791 -0.0021
C9 C 0.62537(12) 0.27759(11) 0.14427(12)
O1 O 0.63885(9) 0.23899(8) 0.25206(8)
N1 N 0.52195(10) 0.34271(10) 0.07909(10)
C10 C 0.41725(12) 0.37684(11) 0.12940(12)
H7 H 0.3944 0.3076 0.1718
C11 C 0.29433(13) 0.41055(12) 0.01906(13)
H8 H 0.2666 0.3434 -0.039
H9 H 0.3176 0.4749 -0.0282
C12 C 0.17750(14) 0.44834(14) 0.05949(15)
H10 H 0.1586 0.3879 0.1126
H11 H 0.0991 0.4604 -0.0157
H12 H 0.1998 0.521 0.1075
C13 C 0.46777(13) 0.47216(11) 0.22859(12)
H13 H 0.4 0.4885 0.2686
H14 H 0.5494 0.4453 0.2953
O2 O 0.49588(9) 0.57640(8) 0.17225(9)
Cl1 Cl 1.29542(3) 0.08588(3) -0.02974(3)
H15 H 0.5194(16) 0.3668(15) 0.0096(18)
H16 H 0.464(2) 0.6320(18) 0.1994(19)
loop_
_geom_bond_atom_site_label_1
_geom_bond_atom_site_label_2
_geom_bond_site_symmetry_1
_geom_bond_site_symmetry_2
C1 H1 1_555 1_555
C2 C1 1_555 1_555
H2 C2 1_555 1_555
C3 C2 1_555 1_555
C4 C3 1_555 1_555
H3 C4 1_555 1_555
C5 C4 1_555 1_555
H4 C5 1_555 1_555
C6 C1 1_555 1_555
C7 C6 1_555 1_555
H5 C7 1_555 1_555
C8 C7 1_555 1_555
H6 C8 1_555 1_555
C9 C8 1_555 1_555
O1 C9 1_555 1_555
N1 C9 1_555 1_555
C10 N1 1_555 1_555
H7 C10 1_555 1_555
C11 C10 1_555 1_555
H8 C11 1_555 1_555
H9 C11 1_555 1_555
C12 C11 1_555 1_555
H10 C12 1_555 1_555
H11 C12 1_555 1_555
H12 C12 1_555 1_555
C13 C10 1_555 1_555
H13 C13 1_555 1_555
H14 C13 1_555 1_555
O2 C13 1_555 1_555
Cl1 C3 1_555 1_555
H15 N1 1_555 1_555
H16 O2 1_555 1_555
C5 C6 1_555 1_555

#END
