
#######################################################################
#
#                 Cambridge Crystallographic Data Centre
#                                CCDC 
#
#######################################################################
#
# If this CIF has been generated from an entry in the Cambridge 
# Structural Database, then it will include bibliographic, chemical, 
# crystal, experimental, refinement or atomic coordinate data resulting 
# from the CCDC's data processing and validation procedures.
#
#######################################################################

data_OZENAK
_chemical_formula_moiety         'C12 H14 Cl1 N1 O2'
_chemical_name_systematic        
(R,S)-(2E)-3-(4-chlorophenyl)-N-(2-hydroxypropyl)prop-2-enamide
_chemical_properties_biological  'Anticonvulsant and neurotoxicity activity'
_symmetry_cell_setting           monoclinic
_symmetry_space_group_name_H-M   'P 21/c'
_symmetry_Int_Tables_number      14
_space_group_name_Hall           '-P 2ybc'
loop_
_symmetry_equiv_pos_site_id
_symmetry_equiv_pos_as_xyz
1 x,y,z
2 -x,1/2+y,1/2-z
3 -x,-y,-z
4 x,1/2-y,1/2+z
_cell_length_a                   16.3440(3)
_cell_length_b                   9.2330(5)
_cell_length_c                   8.0390(7)
_cell_angle_alpha                90
_cell_angle_beta                 102.042(3)
_cell_angle_gamma                90
_cell_volume                     1186.42
_exptl_crystal_colour            colorless
_exptl_crystal_description       prism
_chemical_melting_point          '153-155 deg.C'
_cell_formula_units_Z            4
_exptl_crystal_recrystallization_method acetonitrile
loop_
_atom_site_label
_atom_site_type_symbol
_atom_site_fract_x
_atom_site_fract_y
_atom_site_fract_z
C1 C 0.08837(9) 0.11898(18) 0.7869(2)
C2 C 0.12420(10) 0.24371(18) 0.8636(2)
H1 H 0.0914 0.3129 0.908
C3 C 0.20944(9) 0.26655(16) 0.87492(19)
H2 H 0.2346 0.3526 0.9269
C4 C 0.25866(8) 0.16572(15) 0.81144(17)
C5 C 0.22019(9) 0.03925(16) 0.73498(18)
H3 H 0.2527 -0.0309 0.6914
C6 C 0.13539(9) 0.01570(17) 0.7225(2)
H4 H 0.1097 -0.0699 0.6706
C7 C 0.34810(8) 0.19662(15) 0.83011(17)
H5 H 0.3679 0.2833 0.8886
C8 C 0.40471(8) 0.11664(15) 0.77408(17)
H6 H 0.3873 0.0339 0.7055
C9 C 0.49467(8) 0.15603(14) 0.81808(16)
O1 O 0.51891(6) 0.27645(11) 0.88080(13)
N1 N 0.54742(7) 0.05214(13) 0.79147(15)
C10 C 0.63796(8) 0.06356(15) 0.84904(17)
H7 H 0.6621 -0.0352 0.8592
H8 H 0.6502 0.1077 0.9638
C11 C 0.68089(8) 0.15246(15) 0.73283(17)
H9 H 0.6607 0.2548 0.7305
C12 C 0.77500(9) 0.14965(17) 0.79926(19)
H10 H 0.7947 0.0491 0.8066
H11 H 0.7884 0.1941 0.9124
H12 H 0.8025 0.2039 0.7216
O2 O 0.66334(6) 0.09597(11) 0.56434(13)
Cl1 Cl -0.01849(2) 0.09153(6) 0.76821(7)
H13 H 0.5270(11) -0.025(2) 0.744(2)
H14 H 0.6137(17) 0.142(3) 0.511(3)
loop_
_geom_bond_atom_site_label_1
_geom_bond_atom_site_label_2
_geom_bond_site_symmetry_1
_geom_bond_site_symmetry_2
C1 C2 1_555 1_555
C2 H1 1_555 1_555
C3 C2 1_555 1_555
H2 C3 1_555 1_555
C4 C3 1_555 1_555
C5 C4 1_555 1_555
H3 C5 1_555 1_555
C6 C1 1_555 1_555
H4 C6 1_555 1_555
C7 C4 1_555 1_555
H5 C7 1_555 1_555
C8 C7 1_555 1_555
H6 C8 1_555 1_555
C9 C8 1_555 1_555
O1 C9 1_555 1_555
N1 C9 1_555 1_555
C10 N1 1_555 1_555
H7 C10 1_555 1_555
H8 C10 1_555 1_555
C11 C10 1_555 1_555
H9 C11 1_555 1_555
C12 C11 1_555 1_555
H10 C12 1_555 1_555
H11 C12 1_555 1_555
H12 C12 1_555 1_555
O2 C11 1_555 1_555
Cl1 C1 1_555 1_555
H13 N1 1_555 1_555
H14 O2 1_555 1_555
C5 C6 1_555 1_555

#END
