
#######################################################################
#
#                 Cambridge Crystallographic Data Centre
#                                CCDC 
#
#######################################################################
#
# If this CIF has been generated from an entry in the Cambridge 
# Structural Database, then it will include bibliographic, chemical, 
# crystal, experimental, refinement or atomic coordinate data resulting 
# from the CCDC's data processing and validation procedures.
#
#######################################################################

data_OZIGEK
_chemical_formula_moiety         'C54 H62,C6 N4'
_chemical_name_systematic        
'nonacyclo [23.21.1.1^2,24^.1^6,20^.1^7,19^.1^11,15^.1^29,43^.1^30,42^.1^34,38^] tetrapentaconta-1(47),2(51),6(52),7(53),11(54),12,14,19,24,29(48),30(49),34(50),35,37,42-pentadecaene ethene-1,1,2,2-tetracarbonitrile'
_symmetry_cell_setting           triclinic
_symmetry_space_group_name_H-M   'P -1'
_symmetry_Int_Tables_number      2
_space_group_name_Hall           '-P 1'
loop_
_symmetry_equiv_pos_site_id
_symmetry_equiv_pos_as_xyz
1 x,y,z
2 -x,-y,-z
_cell_length_a                   9.863(3)
_cell_length_b                   10.063(2)
_cell_length_c                   13.662(4)
_cell_angle_alpha                107.556(11)
_cell_angle_beta                 94.356(15)
_cell_angle_gamma                116.798(13)
_cell_volume                     1117.61
_exptl_crystal_colour            black
_exptl_crystal_description       needle
_cell_formula_units_Z            1
loop_
_atom_site_label
_atom_site_type_symbol
_atom_site_fract_x
_atom_site_fract_y
_atom_site_fract_z
C1 C -0.0377(2) 0.3391(2) 0.85602(14)
H1 H 0.069(3) 0.431(3) 0.8913(19)
H2 H -0.099(3) 0.336(3) 0.9087(18)
C2 C -0.1123(2) 0.3604(2) 0.76151(16)
H3 H -0.036(3) 0.462(3) 0.7558(18)
H4 H -0.133(3) 0.270(3) 0.6930(18)
C3 C -0.2675(2) 0.3614(2) 0.76781(18)
H5 H -0.303(3) 0.374(3) 0.704(2)
H6 H -0.250(3) 0.449(3) 0.829(2)
C4 C -0.3909(2) 0.2098(2) 0.77673(16)
C5 C -0.4290(2) 0.2099(2) 0.87262(17)
H7 H -0.383(3) 0.314(3) 0.933(2)
C6 C -0.5257(2) 0.0666(3) 0.88392(17)
H8 H -0.553(3) 0.066(3) 0.949(2)
C7 C -0.5826(2) -0.0798(2) 0.79969(17)
H9 H -0.646(3) -0.184(3) 0.8089(19)
C8 C -0.5468(2) -0.0835(2) 0.70253(16)
C9 C -0.4558(2) 0.0624(2) 0.69130(16)
H10 H -0.424(3) 0.060(3) 0.6249(19)
C10 C -0.5885(2) -0.2407(2) 0.61603(16)
H11 H -0.670(3) -0.333(3) 0.634(2)
H12 H -0.634(3) -0.244(3) 0.546(2)
C11 C -0.4452(2) -0.2639(2) 0.60404(15)
H13 H -0.484(3) -0.371(3) 0.545(2)
H14 H -0.369(3) -0.178(3) 0.5820(18)
C12 C -0.3551(2) -0.2559(2) 0.70597(15)
H15 H -0.411(3) -0.249(3) 0.7617(19)
H16 H -0.355(3) -0.363(3) 0.691(2)
C13 C -0.1897(2) -0.11260(19) 0.74758(13)
C14 C -0.0537(2) -0.1217(2) 0.73389(13)
C15 C 0.0891(2) 0.0217(2) 0.76834(13)
H17 H 0.183(3) 0.014(3) 0.7618(17)
C16 C 0.10285(19) 0.17424(19) 0.80591(13)
C17 C -0.03236(19) 0.18319(19) 0.82156(13)
C18 C -0.17258(19) 0.0394(2) 0.79740(13)
H18 H -0.262(3) 0.046(3) 0.8128(18)
C19 C 0.26007(19) 0.3206(2) 0.82563(14)
H19 H 0.344(3) 0.290(3) 0.8294(18)
H20 H 0.286(3) 0.407(3) 0.8978(18)
C20 C 0.2739(2) 0.3951(2) 0.74103(14)
H21 H 0.183(2) 0.414(2) 0.7295(16)
H22 H 0.373(3) 0.504(3) 0.7725(19)
C21 C 0.2871(2) 0.3009(2) 0.63326(14)
H23 H 0.370(3) 0.275(3) 0.6484(17)
H24 H 0.325(3) 0.377(3) 0.5968(19)
C22 C 0.13851(19) 0.1479(2) 0.56154(13)
C23 C 0.1242(2) -0.0013(2) 0.54961(13)
H25 H 0.216(3) -0.003(3) 0.5854(17)
C24 C -0.0117(2) -0.1482(2) 0.49202(13)
C25 C -0.0205(2) -0.3015(2) 0.49513(14)
H26 H -0.071(3) -0.389(3) 0.4238(19)
H27 H 0.087(3) -0.281(3) 0.5196(19)
C26 C -0.1216(2) -0.3715(2) 0.56808(15)
H28 H -0.234(3) -0.384(3) 0.5516(19)
H29 H -0.136(3) -0.487(3) 0.553(2)
C27 C -0.0537(2) -0.2792(2) 0.68689(15)
H30 H -0.115(3) -0.354(3) 0.7220(19)
H31 H 0.065(3) -0.258(3) 0.701(2)
C1A C 0.0377(2) -0.3391(2) 0.14398(14)
H1A H -0.069(3) -0.431(3) 0.1087(19)
H2A H 0.099(3) -0.336(3) 0.0913(18)
C2A C 0.1123(2) -0.3604(2) 0.23849(16)
H3A H 0.036(3) -0.462(3) 0.2442(18)
H4A H 0.133(3) -0.270(3) 0.3070(18)
C3A C 0.2675(2) -0.3614(2) 0.23219(18)
H5A H 0.303(3) -0.374(3) 0.296(2)
H6A H 0.250(3) -0.449(3) 0.171(2)
C4A C 0.3909(2) -0.2098(2) 0.22327(16)
C5A C 0.4290(2) -0.2099(2) 0.12738(17)
H7A H 0.383(3) -0.314(3) 0.067(2)
C6A C 0.5257(2) -0.0666(3) 0.11608(17)
H8A H 0.553(3) -0.066(3) 0.051(2)
C7A C 0.5826(2) 0.0798(2) 0.20031(17)
H9A H 0.646(3) 0.184(3) 0.1911(19)
C8A C 0.5468(2) 0.0835(2) 0.29747(16)
C9A C 0.4558(2) -0.0624(2) 0.30870(16)
H10A H 0.424(3) -0.060(3) 0.3751(19)
C10A C 0.5885(2) 0.2407(2) 0.38397(16)
H11A H 0.670(3) 0.333(3) 0.366(2)
H12A H 0.634(3) 0.244(3) 0.454(2)
C11A C 0.4452(2) 0.2639(2) 0.39596(15)
H13A H 0.484(3) 0.371(3) 0.455(2)
H14A H 0.369(3) 0.178(3) 0.4180(18)
C12A C 0.3551(2) 0.2559(2) 0.29403(15)
H15A H 0.411(3) 0.249(3) 0.2383(19)
H16A H 0.355(3) 0.363(3) 0.309(2)
C13A C 0.1897(2) 0.11260(19) 0.25242(13)
C14A C 0.0537(2) 0.1217(2) 0.26611(13)
C15A C -0.0891(2) -0.0217(2) 0.23166(13)
H17A H -0.183(3) -0.014(3) 0.2382(17)
C16A C -0.10285(19) -0.17424(19) 0.19409(13)
C17A C 0.03236(19) -0.18319(19) 0.17844(13)
C18A C 0.17258(19) -0.0394(2) 0.20260(13)
H18A H 0.262(3) -0.046(3) 0.1872(18)
C19A C -0.26007(19) -0.3206(2) 0.17437(14)
H19A H -0.344(3) -0.290(3) 0.1706(18)
H20A H -0.286(3) -0.407(3) 0.1022(18)
C20A C -0.2739(2) -0.3951(2) 0.25897(14)
H21A H -0.183(2) -0.414(2) 0.2705(16)
H22A H -0.373(3) -0.504(3) 0.2275(19)
C21A C -0.2871(2) -0.3009(2) 0.36674(14)
H23A H -0.370(3) -0.275(3) 0.3516(17)
H24A H -0.325(3) -0.377(3) 0.4032(19)
C22A C -0.13851(19) -0.1479(2) 0.43846(13)
C23A C -0.1242(2) 0.0013(2) 0.45039(13)
H25A H -0.216(3) 0.003(3) 0.4146(17)
C24A C 0.0117(2) 0.1482(2) 0.50798(13)
C25A C 0.0205(2) 0.3015(2) 0.50487(14)
H26A H 0.071(3) 0.389(3) 0.5762(19)
H27A H -0.087(3) 0.281(3) 0.4804(19)
C26A C 0.1216(2) 0.3715(2) 0.43192(15)
H28A H 0.234(3) 0.384(3) 0.4484(19)
H29A H 0.136(3) 0.487(3) 0.447(2)
C27A C 0.0537(2) 0.2792(2) 0.31311(15)
H30A H 0.115(3) 0.354(3) 0.2780(19)
H31A H -0.065(3) 0.258(3) 0.299(2)
C28 C -0.0721(3) -0.0111(3) 1.00230(17)
C29 C -0.2059(2) -0.1739(2) 0.96437(15)
C30 C -0.0922(2) 0.1288(3) 1.04462(15)
N1 N -0.3185(2) -0.2925(2) 0.93708(14)
N2 N -0.1232(2) 0.2265(2) 1.07550(14)
C28A C 0.0721(3) 0.0111(3) 0.99770(17)
C29A C 0.2059(2) 0.1739(2) 1.03563(15)
C30A C 0.0922(2) -0.1288(3) 0.95538(15)
N1A N 0.3185(2) 0.2925(2) 1.06292(14)
N2A N 0.1232(2) -0.2265(2) 0.92450(14)
loop_
_geom_bond_atom_site_label_1
_geom_bond_atom_site_label_2
_geom_bond_site_symmetry_1
_geom_bond_site_symmetry_2
C1 H1 1_555 1_555
H2 C1 1_555 1_555
C2 C1 1_555 1_555
H3 C2 1_555 1_555
H4 C2 1_555 1_555
C3 C2 1_555 1_555
H5 C3 1_555 1_555
H6 C3 1_555 1_555
C4 C3 1_555 1_555
C5 C4 1_555 1_555
H7 C5 1_555 1_555
C6 C5 1_555 1_555
H8 C6 1_555 1_555
C7 C6 1_555 1_555
H9 C7 1_555 1_555
C8 C7 1_555 1_555
C9 C4 1_555 1_555
H10 C9 1_555 1_555
C10 C8 1_555 1_555
H11 C10 1_555 1_555
H12 C10 1_555 1_555
C11 C10 1_555 1_555
H13 C11 1_555 1_555
H14 C11 1_555 1_555
C12 C11 1_555 1_555
H15 C12 1_555 1_555
H16 C12 1_555 1_555
C13 C12 1_555 1_555
C14 C13 1_555 1_555
C15 C14 1_555 1_555
H17 C15 1_555 1_555
C16 C15 1_555 1_555
C17 C1 1_555 1_555
C18 C13 1_555 1_555
H18 C18 1_555 1_555
C19 C16 1_555 1_555
H19 C19 1_555 1_555
H20 C19 1_555 1_555
C20 C19 1_555 1_555
H21 C20 1_555 1_555
H22 C20 1_555 1_555
C21 C20 1_555 1_555
H23 C21 1_555 1_555
H24 C21 1_555 1_555
C22 C21 1_555 1_555
C23 C22 1_555 1_555
H25 C23 1_555 1_555
C24 C23 1_555 1_555
C25 C24 1_555 1_555
H26 C25 1_555 1_555
H27 C25 1_555 1_555
C26 C25 1_555 1_555
H28 C26 1_555 1_555
H29 C26 1_555 1_555
C27 C14 1_555 1_555
H30 C27 1_555 1_555
H31 C27 1_555 1_555
C28 C29 1_555 1_555
C29 N1 1_555 1_555
C30 C28 1_555 1_555
N2 C30 1_555 1_555
C1A H1A 1_555 1_555
H2A C1A 1_555 1_555
C2A C1A 1_555 1_555
H3A C2A 1_555 1_555
H4A C2A 1_555 1_555
C3A C2A 1_555 1_555
H5A C3A 1_555 1_555
H6A C3A 1_555 1_555
C4A C3A 1_555 1_555
C5A C4A 1_555 1_555
H7A C5A 1_555 1_555
C6A C5A 1_555 1_555
H8A C6A 1_555 1_555
C7A C6A 1_555 1_555
H9A C7A 1_555 1_555
C8A C7A 1_555 1_555
C9A C4A 1_555 1_555
H10A C9A 1_555 1_555
C10A C8A 1_555 1_555
H11A C10A 1_555 1_555
H12A C10A 1_555 1_555
C11A C10A 1_555 1_555
H13A C11A 1_555 1_555
H14A C11A 1_555 1_555
C12A C11A 1_555 1_555
H15A C12A 1_555 1_555
H16A C12A 1_555 1_555
C13A C12A 1_555 1_555
C14A C13A 1_555 1_555
C15A C14A 1_555 1_555
H17A C15A 1_555 1_555
C16A C15A 1_555 1_555
C17A C1A 1_555 1_555
C18A C13A 1_555 1_555
H18A C18A 1_555 1_555
C19A C16A 1_555 1_555
H19A C19A 1_555 1_555
H20A C19A 1_555 1_555
C20A C19A 1_555 1_555
H21A C20A 1_555 1_555
H22A C20A 1_555 1_555
C21A C20A 1_555 1_555
H23A C21A 1_555 1_555
H24A C21A 1_555 1_555
C22A C24 1_555 1_555
C23A C22A 1_555 1_555
H25A C23A 1_555 1_555
C24A C22 1_555 1_555
C25A C24A 1_555 1_555
H26A C25A 1_555 1_555
H27A C25A 1_555 1_555
C26A C25A 1_555 1_555
H28A C26A 1_555 1_555
H29A C26A 1_555 1_555
C27A C14A 1_555 1_555
H30A C27A 1_555 1_555
H31A C27A 1_555 1_555
C28A C28 1_555 1_555
C29A C28A 1_555 1_555
C30A C28A 1_555 1_555
N1A C29A 1_555 1_555
N2A C30A 1_555 1_555
C8 C9 1_555 1_555
C16 C17 1_555 1_555
C17 C18 1_555 1_555
C26 C27 1_555 1_555
C8A C9A 1_555 1_555
C16A C17A 1_555 1_555
C17A C18A 1_555 1_555
C21A C22A 1_555 1_555
C23A C24A 1_555 1_555
C26A C27A 1_555 1_555

#END
