
#######################################################################
#
#                 Cambridge Crystallographic Data Centre
#                                CCDC 
#
#######################################################################
#
# If this CIF has been generated from an entry in the Cambridge 
# Structural Database, then it will include bibliographic, chemical, 
# crystal, experimental, refinement or atomic coordinate data resulting 
# from the CCDC's data processing and validation procedures.
#
#######################################################################

data_OZIWAW
_chemical_formula_moiety         'C11 H19 F1 N2'
_chemical_name_systematic        4-fluoro-3,5-di-t-butyl-1H-pyrazole
_symmetry_cell_setting           tetragonal
_symmetry_space_group_name_H-M   'I 41/a'
_symmetry_Int_Tables_number      88
_space_group_name_Hall           '-I 4ad'
loop_
_symmetry_equiv_pos_site_id
_symmetry_equiv_pos_as_xyz
1 x,y,z
2 3/4-y,1/4+x,1/4+z
3 -x,1/2-y,z
4 1/4+y,1/4-x,1/4+z
5 1/2+x,1/2+y,1/2+z
6 1/4-y,3/4+x,3/4+z
7 1/2-x,-y,1/2+z
8 3/4+y,3/4-x,3/4+z
9 -x,-y,-z
10 1/4+y,3/4-x,3/4-z
11 x,1/2+y,-z
12 3/4-y,3/4+x,3/4-z
13 1/2-x,1/2-y,1/2-z
14 3/4+y,1/4-x,1/4-z
15 1/2+x,y,1/2-z
16 1/4-y,1/4+x,1/4-z
_cell_length_a                   27.1537(9)
_cell_length_b                   27.1537(9)
_cell_length_c                   12.4112(4)
_cell_angle_alpha                90
_cell_angle_beta                 90
_cell_angle_gamma                90
_cell_volume                     9151.07
_exptl_crystal_colour            colorless
_exptl_crystal_description       block
_cell_formula_units_Z            32
loop_
_atom_site_label
_atom_site_type_symbol
_atom_site_fract_x
_atom_site_fract_y
_atom_site_fract_z
F1 F 0.62383(6) 0.61295(6) 0.92092(11)
N1 N 0.60173(7) 0.62149(9) 0.64515(16)
H1 H 0.5836 0.6229 0.5865
N2 N 0.65181(7) 0.62188(8) 0.64686(16)
C1 C 0.58409(8) 0.61862(10) 0.74613(18)
C2 C 0.62472(9) 0.61624(8) 0.81272(18)
C3 C 0.66711(8) 0.61853(9) 0.74922(18)
C4 C 0.72149(8) 0.61898(10) 0.7762(2)
C5 C 0.72984(9) 0.62258(12) 0.8984(2)
H2 H 0.7165 0.5932 0.9336
H3 H 0.7132 0.6519 0.9264
H4 H 0.7652 0.6249 0.9131
C6 C 0.74625(10) 0.66296(13) 0.7222(3)
H5 H 0.7295 0.6933 0.7438
H6 H 0.7443 0.6593 0.6438
H7 H 0.7809 0.6645 0.7443
C7 C 0.74484(11) 0.57089(12) 0.7361(3)
H8 H 0.7394 0.5676 0.6584
H9 H 0.7298 0.5429 0.7736
H10 H 0.7803 0.5714 0.7508
C8 C 0.52900(8) 0.61819(10) 0.7651(2)
C9 C 0.51785(9) 0.62166(12) 0.8865(2)
H11 H 0.5326 0.6517 0.9158
H12 H 0.5317 0.5929 0.9234
H13 H 0.4821 0.6225 0.8976
C10 C 0.50700(11) 0.57039(13) 0.7221(3)
H14 H 0.5217 0.5424 0.7600
H15 H 0.5138 0.5676 0.6448
H16 H 0.4713 0.5705 0.7339
C11 C 0.50595(11) 0.66270(13) 0.7104(3)
H17 H 0.5137 0.6621 0.6333
H18 H 0.5192 0.6929 0.7425
H19 H 0.4702 0.6618 0.7203
F2 F 0.62494(6) 0.63404(6) 0.14122(11)
N3 N 0.65032(7) 0.62777(8) 0.41597(16)
H20 H 0.6692 0.6265 0.4736
N4 N 0.60025(7) 0.62829(8) 0.41693(16)
C12 C 0.66670(8) 0.62955(9) 0.31420(19)
C13 C 0.62489(9) 0.63128(7) 0.24947(18)
C14 C 0.58364(8) 0.63014(9) 0.31541(19)
C15 C 0.52950(9) 0.63152(11) 0.2886(2)
C16 C 0.49809(17) 0.63163(18) 0.3930(4)
H21 H 0.5068 0.6604 0.4368
H22 H 0.5046 0.6015 0.4340
H23 H 0.4631 0.6331 0.3741
C17 C 0.5155(2) 0.5872(2) 0.2244(5)
H24 H 0.5208 0.5575 0.2676
H25 H 0.5357 0.5857 0.1591
H26 H 0.4807 0.5894 0.2042
C18 C 0.5147(3) 0.6842(3) 0.2647(7)
H27 H 0.5329 0.6960 0.2015
H28 H 0.5225 0.7050 0.3269
H29 H 0.4793 0.6856 0.2501
C19 C 0.72052(8) 0.62977(10) 0.2832(2)
C20 C 0.75272(9) 0.62828(14) 0.3852(2)
H30 H 0.7446 0.5989 0.4275
H31 H 0.7466 0.6578 0.4286
H32 H 0.7875 0.6272 0.3646
C21 C 0.73224(12) 0.67565(13) 0.2182(3)
H33 H 0.7246 0.7050 0.2612
H34 H 0.7124 0.6759 0.1523
H35 H 0.7673 0.6757 0.1993
C22 C 0.73212(11) 0.58337(12) 0.2180(3)
H36 H 0.7105 0.5819 0.1547
H37 H 0.7267 0.5542 0.2629
H38 H 0.7666 0.5843 0.1945
H39? H 0.6710 0.6240 0.5900
H40? H 0.5817 0.6275 0.4750
C23? C 0.4993(5) 0.6043(5) 0.3645(11)
H41? H 0.5042 0.6175 0.4371
H42? H 0.5087 0.5695 0.3631
H43? H 0.4645 0.6076 0.3443
C24? C 0.5208(5) 0.6127(5) 0.1737(10)
H44? H 0.5308 0.5781 0.1688
H45? H 0.5403 0.6324 0.1230
H46? H 0.4858 0.6157 0.1558
C25? C 0.5183(3) 0.6753(3) 0.2181(7)
H47? H 0.5383 0.6737 0.1525
H48? H 0.5258 0.7057 0.2573
H49? H 0.4833 0.6750 0.1985
loop_
_geom_bond_atom_site_label_1
_geom_bond_atom_site_label_2
_geom_bond_site_symmetry_1
_geom_bond_site_symmetry_2
F1 C2 1_555 1_555
N1 H1 1_555 1_555
N2 N1 1_555 1_555
C1 N1 1_555 1_555
C2 C1 1_555 1_555
C3 N2 1_555 1_555
C4 C3 1_555 1_555
C5 C4 1_555 1_555
H2 C5 1_555 1_555
H3 C5 1_555 1_555
H4 C5 1_555 1_555
C6 C4 1_555 1_555
H5 C6 1_555 1_555
H6 C6 1_555 1_555
H7 C6 1_555 1_555
C7 C4 1_555 1_555
H8 C7 1_555 1_555
H9 C7 1_555 1_555
H10 C7 1_555 1_555
C8 C1 1_555 1_555
C9 C8 1_555 1_555
H11 C9 1_555 1_555
H12 C9 1_555 1_555
H13 C9 1_555 1_555
C10 C8 1_555 1_555
H14 C10 1_555 1_555
H15 C10 1_555 1_555
H16 C10 1_555 1_555
C11 C8 1_555 1_555
H17 C11 1_555 1_555
H18 C11 1_555 1_555
H19 C11 1_555 1_555
F2 C13 1_555 1_555
N3 H20 1_555 1_555
N4 N3 1_555 1_555
C12 N3 1_555 1_555
C13 C12 1_555 1_555
C14 N4 1_555 1_555
C15 C14 1_555 1_555
C16 C15 1_555 1_555
H21 C16 1_555 1_555
H22 C16 1_555 1_555
H23 C16 1_555 1_555
C17 C15 1_555 1_555
H24 C17 1_555 1_555
H25 C17 1_555 1_555
H26 C17 1_555 1_555
C18 C15 1_555 1_555
H27 C18 1_555 1_555
H28 C18 1_555 1_555
H29 C18 1_555 1_555
C19 C12 1_555 1_555
C20 C19 1_555 1_555
H30 C20 1_555 1_555
H31 C20 1_555 1_555
H32 C20 1_555 1_555
C21 C19 1_555 1_555
H33 C21 1_555 1_555
H34 C21 1_555 1_555
H35 C21 1_555 1_555
C22 C19 1_555 1_555
H36 C22 1_555 1_555
H37 C22 1_555 1_555
H38 C22 1_555 1_555
C2 C3 1_555 1_555
C13 C14 1_555 1_555

#END
