
#######################################################################
#
#                 Cambridge Crystallographic Data Centre
#                                CCDC 
#
#######################################################################
#
# If this CIF has been generated from an entry in the Cambridge 
# Structural Database, then it will include bibliographic, chemical, 
# crystal, experimental, refinement or atomic coordinate data resulting 
# from the CCDC's data processing and validation procedures.
#
#######################################################################

data_OZODUE01
_chemical_formula_moiety         'C17 H19 N3 O2'
_chemical_name_systematic        
'(E)-4-((4-(diethylamino)phenyl)diazenyl)benzoic acid'
_symmetry_cell_setting           monoclinic
_symmetry_space_group_name_H-M   'P 21/c'
_symmetry_Int_Tables_number      14
_space_group_name_Hall           '-P 2ybc'
loop_
_symmetry_equiv_pos_site_id
_symmetry_equiv_pos_as_xyz
1 x,y,z
2 -x,1/2+y,1/2-z
3 -x,-y,-z
4 x,1/2-y,1/2+z
_cell_length_a                   12.241(5)
_cell_length_b                   8.264(3)
_cell_length_c                   15.473(6)
_cell_angle_alpha                90
_cell_angle_beta                 100.650(5)
_cell_angle_gamma                90
_cell_volume                     1538.28
_exptl_crystal_colour            orange
_exptl_crystal_description       Prism
_cell_formula_units_Z            4
loop_
_atom_site_label
_atom_site_type_symbol
_atom_site_fract_x
_atom_site_fract_y
_atom_site_fract_z
C1 C 0.4319(2) -0.4202(3) 0.16883(17)
H1 H 0.463 -0.3798 0.2255
C2 C 0.46243(19) -0.5709(3) 0.14328(15)
H2 H 0.5138 -0.6342 0.183
C3 C 0.41894(17) -0.6317(3) 0.06003(15)
C4 C 0.34333(18) -0.5386(3) 0.00240(16)
H3 H 0.3132 -0.5784 -0.0546
C5 C 0.3122(2) -0.3876(3) 0.02858(18)
H4 H 0.2603 -0.3242 -0.0107
C6 C 0.3563(2) -0.3279(3) 0.11214(17)
C7 C 0.45253(17) -0.7929(3) 0.03387(14)
C8 C 0.2319(2) 0.0542(3) 0.13170(17)
C9 C 0.28111(19) 0.1215(3) 0.21243(17)
H5 H 0.3345 0.0602 0.2514
C10 C 0.25386(18) 0.2759(3) 0.23696(16)
H6 H 0.2884 0.3185 0.2923
C11 C 0.17492(17) 0.3701(3) 0.17998(14)
C12 C 0.1238(2) 0.2961(3) 0.10010(15)
H7 H 0.0683 0.354 0.0612
C13 C 0.1520(2) 0.1433(3) 0.07726(17)
H8 H 0.1158 0.0981 0.023
C14 C 0.06280(19) 0.6154(3) 0.14280(16)
H9 H 0.0723 0.6015 0.0811
H10 H 0.0719 0.7319 0.1573
C15 C 0.1988(2) 0.5981(3) 0.28420(15)
H11 H 0.1946 0.7173 0.2785
H12 H 0.2783 0.5678 0.299
C16 C -0.0546(2) 0.5646(3) 0.15004(19)
H13 H -0.1083 0.6304 0.1101
H14 H -0.0657 0.5805 0.2106
H15 H -0.0654 0.4502 0.1341
C17 C 0.1416(3) 0.5465(3) 0.35945(17)
H16 H 0.1782 0.5988 0.414
H17 H 0.1467 0.4287 0.3665
H18 H 0.0633 0.5788 0.3462
N1 N 0.33150(17) -0.1728(3) 0.14839(14)
N2 N 0.25674(17) -0.1013(3) 0.09776(14)
N3 N 0.15009(15) 0.5253(2) 0.19970(12)
O1 O 0.52331(13) -0.87228(19) 0.08848(10)
H19 H 0.5357 -0.9616 0.0663
O2 O 0.41022(13) -0.8465(2) -0.04232(10)
H20? H 0.436 -0.9389 -0.0491
loop_
_geom_bond_atom_site_label_1
_geom_bond_atom_site_label_2
_geom_bond_site_symmetry_1
_geom_bond_site_symmetry_2
C1 H1 1_555 1_555
C2 C1 1_555 1_555
H2 C2 1_555 1_555
C3 C2 1_555 1_555
C4 C3 1_555 1_555
H3 C4 1_555 1_555
C5 C4 1_555 1_555
H4 C5 1_555 1_555
C6 C1 1_555 1_555
C7 C3 1_555 1_555
C8 C9 1_555 1_555
C9 H5 1_555 1_555
C10 C9 1_555 1_555
H6 C10 1_555 1_555
C11 C10 1_555 1_555
C12 C11 1_555 1_555
H7 C12 1_555 1_555
C13 C8 1_555 1_555
H8 C13 1_555 1_555
C14 H9 1_555 1_555
H10 C14 1_555 1_555
C15 H11 1_555 1_555
H12 C15 1_555 1_555
C16 C14 1_555 1_555
H13 C16 1_555 1_555
H14 C16 1_555 1_555
H15 C16 1_555 1_555
C17 C15 1_555 1_555
H16 C17 1_555 1_555
H17 C17 1_555 1_555
H18 C17 1_555 1_555
N1 C6 1_555 1_555
N2 C8 1_555 1_555
N3 C11 1_555 1_555
O1 C7 1_555 1_555
H19 O1 1_555 1_555
O2 C7 1_555 1_555
C5 C6 1_555 1_555
C12 C13 1_555 1_555
C14 N3 1_555 1_555
C15 N3 1_555 1_555
N1 N2 1_555 1_555

#END
