
#######################################################################
#
#                 Cambridge Crystallographic Data Centre
#                                CCDC 
#
#######################################################################
#
# If this CIF has been generated from an entry in the Cambridge 
# Structural Database, then it will include bibliographic, chemical, 
# crystal, experimental, refinement or atomic coordinate data resulting 
# from the CCDC's data processing and validation procedures.
#
#######################################################################

data_OZOFEQ
_chemical_formula_moiety         'C19 H23 N3 O2'
_chemical_name_systematic        
'(E)-2-((4-(dipropylamino)phenyl)diazenyl)benzoic acid'
_symmetry_cell_setting           monoclinic
_symmetry_space_group_name_H-M   'P 21/n'
_symmetry_Int_Tables_number      14
_space_group_name_Hall           '-P 2yn'
loop_
_symmetry_equiv_pos_site_id
_symmetry_equiv_pos_as_xyz
1 x,y,z
2 1/2-x,1/2+y,1/2-z
3 -x,-y,-z
4 1/2+x,1/2-y,1/2+z
_cell_length_a                   10.2140(6)
_cell_length_b                   13.4820(8)
_cell_length_c                   12.6610(7)
_cell_angle_alpha                90
_cell_angle_beta                 98.9530(10)
_cell_angle_gamma                90
_cell_volume                     1722.24
_exptl_crystal_colour            red
_exptl_crystal_description       Prism
_cell_formula_units_Z            4
loop_
_atom_site_label
_atom_site_type_symbol
_atom_site_fract_x
_atom_site_fract_y
_atom_site_fract_z
C1 C 1.2550(2) 0.20551(15) 0.00851(16)
C2 C 1.3086(2) 0.27330(17) -0.05586(17)
H1 H 1.3997 0.2839 -0.0452
C3 C 1.2288(2) 0.32487(17) -0.13506(18)
H2 H 1.2662 0.369 -0.1783
C4 C 1.0924(2) 0.31092(17) -0.15039(18)
H3 H 1.0387 0.3458 -0.2038
C5 C 1.0365(2) 0.24543(16) -0.08648(17)
H4 H 0.945 0.2369 -0.0967
C6 C 1.11655(19) 0.19154(15) -0.00623(16)
C7 C 1.3525(2) 0.14987(17) 0.08857(17)
C8 C 0.8856(2) 0.05064(15) 0.11556(17)
C9 C 0.9584(2) -0.00656(16) 0.19858(17)
H5 H 1.0506 -0.006 0.2082
C10 C 0.8940(2) -0.06272(16) 0.26474(17)
H6 H 0.9435 -0.1004 0.3182
C11 C 0.7526(2) -0.06485(15) 0.25368(17)
C12 C 0.6815(2) -0.01080(15) 0.16699(17)
H7 H 0.5894 -0.0133 0.1548
C13 C 0.7468(2) 0.04522(15) 0.10080(17)
H8 H 0.6978 0.0803 0.0449
C14 C 0.5442(2) -0.11242(17) 0.31587(17)
H9 H 0.5127 -0.0466 0.2938
H10 H 0.5198 -0.1251 0.3857
C15 C 0.7639(2) -0.16719(17) 0.41695(18)
H11 H 0.8353 -0.2042 0.393
H12 H 0.7054 -0.2145 0.4436
C16 C 0.4747(2) -0.18800(16) 0.23671(18)
H13 H 0.5037 -0.2542 0.2593
H14 H 0.499 -0.1762 0.1667
C17 C 0.8225(2) -0.09860(19) 0.50835(18)
H15 H 0.8736 -0.1383 0.564
H16 H 0.8831 -0.0528 0.4819
C18 C 0.3241(2) -0.18118(19) 0.2292(2)
H17 H 0.2829 -0.2294 0.179
H18 H 0.2951 -0.116 0.2058
H19 H 0.2998 -0.1939 0.2982
C19 C 0.7204(2) -0.03901(19) 0.55740(19)
H20 H 0.7648 0.002 0.6139
H21 H 0.6613 -0.0835 0.5857
H22 H 0.6708 0.0021 0.5035
N1 N 1.06571(16) 0.12357(13) 0.06295(14)
N2 N 0.93936(16) 0.11433(13) 0.04691(13)
N3 N 0.68957(17) -0.11411(14) 0.32526(14)
O1 O 1.30494(17) 0.08574(13) 0.15292(13)
O2 O 1.47081(15) 0.16241(14) 0.09433(14)
H23 H 1.214(3) 0.088(2) 0.140(2)
loop_
_geom_bond_atom_site_label_1
_geom_bond_atom_site_label_2
_geom_bond_site_symmetry_1
_geom_bond_site_symmetry_2
C1 C2 1_555 1_555
C2 H1 1_555 1_555
C3 C2 1_555 1_555
H2 C3 1_555 1_555
C4 C3 1_555 1_555
H3 C4 1_555 1_555
C5 C4 1_555 1_555
H4 C5 1_555 1_555
C6 C1 1_555 1_555
C7 C1 1_555 1_555
C8 C9 1_555 1_555
C9 H5 1_555 1_555
C10 C9 1_555 1_555
H6 C10 1_555 1_555
C11 C10 1_555 1_555
C12 C11 1_555 1_555
H7 C12 1_555 1_555
C13 C8 1_555 1_555
H8 C13 1_555 1_555
C14 H9 1_555 1_555
H10 C14 1_555 1_555
C15 H11 1_555 1_555
H12 C15 1_555 1_555
C16 C14 1_555 1_555
H13 C16 1_555 1_555
H14 C16 1_555 1_555
C17 C15 1_555 1_555
H15 C17 1_555 1_555
H16 C17 1_555 1_555
C18 C16 1_555 1_555
H17 C18 1_555 1_555
H18 C18 1_555 1_555
H19 C18 1_555 1_555
C19 C17 1_555 1_555
H20 C19 1_555 1_555
H21 C19 1_555 1_555
H22 C19 1_555 1_555
N1 C6 1_555 1_555
N2 C8 1_555 1_555
N3 C11 1_555 1_555
O1 C7 1_555 1_555
O2 C7 1_555 1_555
H23 O1 1_555 1_555
C5 C6 1_555 1_555
C12 C13 1_555 1_555
C14 N3 1_555 1_555
C15 N3 1_555 1_555
N1 N2 1_555 1_555

#END
