
#######################################################################
#
#                 Cambridge Crystallographic Data Centre
#                                CCDC 
#
#######################################################################
#
# If this CIF has been generated from an entry in the Cambridge 
# Structural Database, then it will include bibliographic, chemical, 
# crystal, experimental, refinement or atomic coordinate data resulting 
# from the CCDC's data processing and validation procedures.
#
#######################################################################

data_OZOLIZ
_chemical_formula_moiety         'C12 H11 F1 N2 S1'
_chemical_name_systematic        
5-Fluoro-2-(4-methyl-4,5-dihydro-1,3-thiazol-2-yl)-1H-indole
_symmetry_cell_setting           orthorhombic
_symmetry_space_group_name_H-M   'P 21 21 2'
_symmetry_Int_Tables_number      18
_space_group_name_Hall           'P 2 2ab'
loop_
_symmetry_equiv_pos_site_id
_symmetry_equiv_pos_as_xyz
1 x,y,z
2 -x,-y,z
3 1/2-x,1/2+y,-z
4 1/2+x,1/2-y,-z
_cell_length_a                   12.935(3)
_cell_length_b                   15.581(4)
_cell_length_c                   11.885(3)
_cell_angle_alpha                90
_cell_angle_beta                 90
_cell_angle_gamma                90
_cell_volume                     2395.31
_exptl_crystal_colour            colorless
_exptl_crystal_description       block
_cell_formula_units_Z            8
loop_
_atom_site_label
_atom_site_type_symbol
_atom_site_fract_x
_atom_site_fract_y
_atom_site_fract_z
S1 S 0.53096(12) 0.32401(10) 0.05267(11)
F1 F 0.2307(3) -0.1196(2) 0.1923(2)
N1 N 0.5660(3) 0.2457(2) -0.1361(3)
N2 N 0.4244(2) 0.1055(2) -0.0849(2)
H1 H 0.4328 0.1082 -0.1566
C1 C 0.6163(4) 0.3299(3) -0.1485(3)
H3 H 0.6846 0.3173 -0.1800
C2 C 0.6373(12) 0.3631(12) -0.0303(8)
H4 H 0.6396 0.4253 -0.0293
H5 H 0.7025 0.3410 -0.0020
C3 C 0.5203(3) 0.2377(3) -0.0418(3)
C4 C 0.5617(5) 0.3802(4) -0.2381(6)
H6 H 0.5603 0.3474 -0.3066
H7 H 0.5977 0.4332 -0.2509
H8 H 0.4922 0.3921 -0.2144
C5 C 0.4608(3) 0.1639(3) -0.0088(3)
C6 C 0.4334(3) 0.1383(3) 0.0979(3)
H9 H 0.4486 0.1668 0.1646
C7 C 0.3780(3) 0.0605(3) 0.0873(3)
C8 C 0.3300(4) 0.0044(3) 0.1635(3)
H10 H 0.3320 0.0144 0.2406
C9 C 0.2808(4) -0.0644(3) 0.1208(4)
C10 C 0.2721(4) -0.0826(3) 0.0076(4)
H11 H 0.2344 -0.1300 -0.0166
C11 C 0.3201(3) -0.0297(3) -0.0688(3)
H12 H 0.3177 -0.0415 -0.1455
C12 C 0.3720(3) 0.0415(2) -0.0287(3)
S2 S 0.39356(12) 0.12613(11) 0.44140(10)
F2 F 1.0165(2) 0.1118(4) 0.5096(3)
N3 N 0.4037(3) 0.1196(2) 0.6597(3)
N4 N 0.6249(3) 0.1456(2) 0.6658(2)
H2 H 0.5988 0.1566 0.7308
C13 C 0.2923(3) 0.1141(3) 0.6373(4)
H13 H 0.2692 0.0561 0.6571
C14 C 0.2727(4) 0.1275(4) 0.5122(4)
H14 H 0.2384 0.1820 0.5000
H15 H 0.2286 0.0821 0.4834
C15 C 0.4579(3) 0.1253(2) 0.5715(3)
C16 C 0.2343(4) 0.1759(5) 0.7076(5)
H16 H 0.2498 0.1660 0.7855
H17 H 0.1615 0.1686 0.6952
H18 H 0.2539 0.2334 0.6877
C17 C 0.5699(3) 0.1289(2) 0.5699(3)
C18 C 0.6364(4) 0.1142(3) 0.4831(3)
H19 H 0.6183 0.1021 0.4091
C19 C 0.7384(4) 0.1208(3) 0.5261(3)
C20 C 0.8384(4) 0.1096(4) 0.4814(4)
H20 H 0.8483 0.0947 0.4064
C21 C 0.9183(4) 0.1213(4) 0.5509(5)
C22 C 0.9093(4) 0.1441(4) 0.6634(4)
H21 H 0.9682 0.1521 0.7072
C23 C 0.8142(4) 0.1548(3) 0.7087(4)
H22 H 0.8066 0.1704 0.7838
C24 C 0.7287(3) 0.1420(3) 0.6410(3)
C25? C 0.592(2) 0.3924(10) -0.0491(12)
H23? H 0.5453 0.4379 -0.0728
H24? H 0.6544 0.4177 -0.0191
loop_
_geom_bond_atom_site_label_1
_geom_bond_atom_site_label_2
_geom_bond_site_symmetry_1
_geom_bond_site_symmetry_2
S1 C2 1_555 1_555
S2 C14 1_555 1_555
F1 C9 1_555 1_555
F2 C21 1_555 1_555
N1 C1 1_555 1_555
N2 H1 1_555 1_555
N3 C13 1_555 1_555
N4 H2 1_555 1_555
C1 H3 1_555 1_555
C2 C1 1_555 1_555
H4 C2 1_555 1_555
H5 C2 1_555 1_555
C3 S1 1_555 1_555
C4 C1 1_555 1_555
H6 C4 1_555 1_555
H7 C4 1_555 1_555
H8 C4 1_555 1_555
C5 N2 1_555 1_555
C6 C5 1_555 1_555
H9 C6 1_555 1_555
C7 C6 1_555 1_555
C8 C7 1_555 1_555
H10 C8 1_555 1_555
C9 C8 1_555 1_555
C10 C9 1_555 1_555
H11 C10 1_555 1_555
C11 C10 1_555 1_555
H12 C11 1_555 1_555
C12 N2 1_555 1_555
C13 H13 1_555 1_555
C14 C13 1_555 1_555
H14 C14 1_555 1_555
H15 C14 1_555 1_555
C15 S2 1_555 1_555
C16 C13 1_555 1_555
H16 C16 1_555 1_555
H17 C16 1_555 1_555
H18 C16 1_555 1_555
C17 N4 1_555 1_555
C18 C17 1_555 1_555
H19 C18 1_555 1_555
C19 C18 1_555 1_555
C20 C19 1_555 1_555
H20 C20 1_555 1_555
C21 C20 1_555 1_555
C22 C21 1_555 1_555
H21 C22 1_555 1_555
C23 C22 1_555 1_555
H22 C23 1_555 1_555
C24 N4 1_555 1_555
N1 C3 1_555 1_555
N3 C15 1_555 1_555
C3 C5 1_555 1_555
C7 C12 1_555 1_555
C11 C12 1_555 1_555
C15 C17 1_555 1_555
C19 C24 1_555 1_555
C23 C24 1_555 1_555

#END
