
#######################################################################
#
#                 Cambridge Crystallographic Data Centre
#                                CCDC 
#
#######################################################################
#
# If this CIF has been generated from an entry in the Cambridge 
# Structural Database, then it will include bibliographic, chemical, 
# crystal, experimental, refinement or atomic coordinate data resulting 
# from the CCDC's data processing and validation procedures.
#
#######################################################################

data_PAANQU01
_chemical_formula_moiety         'C26 H18 N2 O2'
_chemical_name_systematic        1,5-Dianilino-9,10-anthraquinone
_symmetry_cell_setting           monoclinic
_symmetry_space_group_name_H-M   'P 21/n'
_symmetry_Int_Tables_number      14
_space_group_name_Hall           '-P 2yn'
loop_
_symmetry_equiv_pos_site_id
_symmetry_equiv_pos_as_xyz
1 x,y,z
2 1/2-x,1/2+y,1/2-z
3 -x,-y,-z
4 1/2+x,1/2-y,1/2+z
_cell_length_a                   9.2227(6)
_cell_length_b                   4.8368(3)
_cell_length_c                   20.7231(14)
_cell_angle_alpha                90
_cell_angle_beta                 92.960(4)
_cell_angle_gamma                90
_cell_volume                     923.19
_exptl_crystal_colour            red
_exptl_crystal_description       prism
_cell_formula_units_Z            2
loop_
_atom_site_label
_atom_site_type_symbol
_atom_site_fract_x
_atom_site_fract_y
_atom_site_fract_z
O1 O 0.29108(16) 0.9825(4) 0.99628(8)
N1 N 0.3177(2) 1.3512(4) 1.08915(9)
H1 H 0.359(4) 1.229(7) 1.0576(16)
C1 C 0.1580(2) 0.9921(4) 0.99980(10)
C2 C 0.0873(2) 1.1806(4) 1.04361(10)
C3 C 0.1699(2) 1.3586(4) 1.08631(10)
C4 C 0.0951(2) 1.5465(5) 1.12411(10)
H2 H 0.153(3) 1.684(6) 1.1494(13)
C5 C 0.0543(2) 0.4454(4) 0.87845(10)
H3 H 0.103(3) 0.305(6) 0.8495(14)
C6 C 0.1357(2) 0.6226(4) 0.91852(10)
H4 H 0.239(3) 0.609(6) 0.9216(12)
C7 C 0.0653(2) 0.8070(4) 0.95728(10)
C8 C 0.4086(2) 1.5044(5) 1.13407(11)
C9 C 0.5066(2) 1.6912(5) 1.11119(11)
H5 H 0.509(3) 1.717(7) 1.0618(16)
C10 C 0.5981(3) 1.8364(5) 1.15424(12)
H6 H 0.664(3) 1.978(6) 1.1379(13)
C11 C 0.5910(3) 1.7939(5) 1.22068(12)
H7 H 0.660(3) 1.898(7) 1.2514(15)
C12 C 0.4919(3) 1.6065(5) 1.24292(12)
H8 H 0.487(3) 1.579(7) 1.2882(15)
C13 C 0.4016(3) 1.4586(5) 1.20025(11)
H9 H 0.330(4) 1.329(7) 1.2153(16)
O1B O -0.29108(16) 1.0175(4) 1.00372(8)
N1B N -0.3177(2) 0.6488(4) 0.91085(9)
H1B H -0.359(4) 0.771(7) 0.9424(16)
C1B C -0.1580(2) 1.0079(4) 1.00020(10)
C2B C -0.0873(2) 0.8194(4) 0.95639(10)
C3B C -0.1699(2) 0.6414(4) 0.91369(10)
C4B C -0.0951(2) 0.4535(5) 0.87589(10)
H2B H -0.153(3) 0.316(6) 0.8506(13)
C5B C -0.0543(2) 1.5546(4) 1.12155(10)
H3B H -0.103(3) 1.695(6) 1.1505(14)
C6B C -0.1357(2) 1.3774(4) 1.08148(10)
H4B H -0.239(3) 1.391(6) 1.0784(12)
C7B C -0.0653(2) 1.1930(4) 1.04272(10)
C8B C -0.4086(2) 0.4956(5) 0.86593(11)
C9B C -0.5066(2) 0.3088(5) 0.88881(11)
H5B H -0.509(3) 0.283(7) 0.9382(16)
C10B C -0.5981(3) 0.1636(5) 0.84576(12)
H6B H -0.664(3) 0.022(6) 0.8621(13)
C11B C -0.5910(3) 0.2061(5) 0.77932(12)
H7B H -0.660(3) 0.102(7) 0.7486(15)
C12B C -0.4919(3) 0.3935(5) 0.75708(12)
H8B H -0.487(3) 0.421(7) 0.7118(15)
C13B C -0.4016(3) 0.5414(5) 0.79975(11)
H9B H -0.330(4) 0.671(7) 0.7847(16)
loop_
_geom_bond_atom_site_label_1
_geom_bond_atom_site_label_2
_geom_bond_site_symmetry_1
_geom_bond_site_symmetry_2
O1 C1 1_555 1_555
N1 H1 1_555 1_555
C1 C2 1_555 1_555
C2 C3 1_555 1_555
C3 N1 1_555 1_555
C4 C3 1_555 1_555
H2 C4 1_555 1_555
C5 H3 1_555 1_555
C6 C5 1_555 1_555
H4 C6 1_555 1_555
C7 C1 1_555 1_555
C8 N1 1_555 1_555
C9 C8 1_555 1_555
H5 C9 1_555 1_555
C10 C9 1_555 1_555
H6 C10 1_555 1_555
C11 C10 1_555 1_555
H7 C11 1_555 1_555
C12 C11 1_555 1_555
H8 C12 1_555 1_555
C13 C8 1_555 1_555
H9 C13 1_555 1_555
O1B C1B 1_555 1_555
N1B H1B 1_555 1_555
C1B C2B 1_555 1_555
C2B C7 1_555 1_555
C3B N1B 1_555 1_555
C4B C5 1_555 1_555
H2B C4B 1_555 1_555
C5B C4 1_555 1_555
H3B C5B 1_555 1_555
C6B C5B 1_555 1_555
H4B C6B 1_555 1_555
C7B C2 1_555 1_555
C8B N1B 1_555 1_555
C9B C8B 1_555 1_555
H5B C9B 1_555 1_555
C10B C9B 1_555 1_555
H6B C10B 1_555 1_555
C11B C10B 1_555 1_555
H7B C11B 1_555 1_555
C12B C11B 1_555 1_555
H8B C12B 1_555 1_555
C13B C8B 1_555 1_555
H9B C13B 1_555 1_555
C6 C7 1_555 1_555
C12 C13 1_555 1_555
C1B C7B 1_555 1_555
C2B C3B 1_555 1_555
C3B C4B 1_555 1_555
C6B C7B 1_555 1_555
C12B C13B 1_555 1_555

#END
