
#######################################################################
#
#                 Cambridge Crystallographic Data Centre
#                                CCDC 
#
#######################################################################
#
# If this CIF has been generated from an entry in the Cambridge 
# Structural Database, then it will include bibliographic, chemical, 
# crystal, experimental, refinement or atomic coordinate data resulting 
# from the CCDC's data processing and validation procedures.
#
#######################################################################

data_PABCEC01
_chemical_name_common            1-benzyl-5-bromo-6-azaisocytosine
_chemical_formula_moiety         'C10 H9 Br1 N4 O1'
_chemical_name_systematic        
3-amino-2-benzyl-6-bromo-1,2,4-triazin-5(2H)-one
_symmetry_cell_setting           orthorhombic
_symmetry_space_group_name_H-M   'P b c a'
_symmetry_Int_Tables_number      61
_space_group_name_Hall           '-P 2ac 2ab'
loop_
_symmetry_equiv_pos_site_id
_symmetry_equiv_pos_as_xyz
1 x,y,z
2 1/2-x,-y,1/2+z
3 -x,1/2+y,1/2-z
4 1/2+x,1/2-y,-z
5 -x,-y,-z
6 1/2+x,y,1/2-z
7 x,1/2-y,1/2+z
8 1/2-x,1/2+y,z
_cell_length_a                   23.6829(13)
_cell_length_b                   7.5558(4)
_cell_length_c                   24.1777(13)
_cell_angle_alpha                90
_cell_angle_beta                 90
_cell_angle_gamma                90
_cell_volume                     4326.44
_exptl_crystal_colour            colorless
_exptl_crystal_description       plate
_cell_formula_units_Z            16
loop_
_atom_site_label
_atom_site_type_symbol
_atom_site_fract_x
_atom_site_fract_y
_atom_site_fract_z
Br1 Br 1.07126(2) 0.42441(7) 0.09454(2)
O1 O 0.98945(14) 0.1109(4) 0.07389(16)
N1 N 0.97175(16) 0.5753(5) 0.06810(16)
N2 N 0.91716(15) 0.5775(5) 0.05029(16)
N3 N 0.91289(15) 0.2655(5) 0.04505(15)
N4 N 0.83797(15) 0.4320(5) 0.01726(17)
H1 H 0.8203 0.3363 0.0088
H2 H 0.8220 0.5330 0.0123
C1 C 0.96651(19) 0.2527(6) 0.06511(18)
C2 C 0.99454(18) 0.4233(6) 0.07406(19)
C3 C 0.88963(18) 0.4239(6) 0.03791(19)
C4 C 0.8923(2) 0.7544(6) 0.0447(2)
H3 H 0.8727 0.7617 0.0096
H4 H 0.9225 0.8414 0.0443
C5 C 0.85154(19) 0.7998(6) 0.0907(2)
C6 C 0.8053(2) 0.9040(7) 0.0791(2)
H5 H 0.7985 0.9401 0.0429
C7 C 0.7692(3) 0.9550(8) 0.1202(3)
H6 H 0.7381 1.0254 0.1118
C8 C 0.7782(3) 0.9038(8) 0.1734(3)
H7 H 0.7536 0.9395 0.2013
C9 C 0.8238(2) 0.7992(8) 0.1856(2)
H8 H 0.8300 0.7621 0.2218
C10 C 0.8604(2) 0.7491(7) 0.1443(2)
H9 H 0.8916 0.6798 0.1529
Br2 Br 0.68860(2) 0.52361(8) 0.32548(2)
O2 O 0.71421(14) 0.3368(5) 0.43712(14)
N5 N 0.80180(16) 0.5285(5) 0.33507(15)
N6 N 0.85215(15) 0.5052(5) 0.36131(15)
N7 N 0.80910(16) 0.3811(5) 0.44030(16)
N8 N 0.90389(17) 0.4297(5) 0.43906(17)
H10 H 0.9057 0.3871 0.4720
H11 H 0.9341 0.4661 0.4229
C11 C 0.7577(2) 0.3933(6) 0.41587(19)
C12 C 0.75776(19) 0.4788(6) 0.3609(2)
C13 C 0.8544(2) 0.4395(5) 0.4132(2)
C14 C 0.90099(19) 0.5406(6) 0.32477(19)
H12 H 0.9337 0.5680 0.3473
H13 H 0.8929 0.6434 0.3021
C15 C 0.91475(19) 0.3868(6) 0.2878(2)
C16 C 0.9547(2) 0.2649(7) 0.3019(2)
H14 H 0.9738 0.2765 0.3353
C17 C 0.9671(3) 0.1252(9) 0.2676(3)
H15 H 0.9944 0.0430 0.2779
C18 C 0.9397(3) 0.1070(9) 0.2187(3)
H16 H 0.9487 0.0138 0.1952
C19 C 0.8987(3) 0.2265(9) 0.2040(3)
H17 H 0.8794 0.2135 0.1707
C20 C 0.8859(2) 0.3662(7) 0.2388(2)
H18 H 0.8578 0.4464 0.2291
loop_
_geom_bond_atom_site_label_1
_geom_bond_atom_site_label_2
_geom_bond_site_symmetry_1
_geom_bond_site_symmetry_2
Br1 C2 1_555 1_555
O1 C1 1_555 1_555
N1 N2 1_555 1_555
N2 C3 1_555 1_555
N3 C1 1_555 1_555
N4 H1 1_555 1_555
H2 N4 1_555 1_555
C1 C2 1_555 1_555
C2 N1 1_555 1_555
C3 N3 1_555 1_555
C4 N2 1_555 1_555
H3 C4 1_555 1_555
H4 C4 1_555 1_555
C5 C4 1_555 1_555
C6 C5 1_555 1_555
H5 C6 1_555 1_555
C7 C6 1_555 1_555
H6 C7 1_555 1_555
C8 C7 1_555 1_555
H7 C8 1_555 1_555
C9 C8 1_555 1_555
H8 C9 1_555 1_555
C10 C5 1_555 1_555
H9 C10 1_555 1_555
Br2 C12 1_555 1_555
O2 C11 1_555 1_555
N5 N6 1_555 1_555
N6 C13 1_555 1_555
N7 C11 1_555 1_555
N8 H10 1_555 1_555
H11 N8 1_555 1_555
C11 C12 1_555 1_555
C12 N5 1_555 1_555
C13 N7 1_555 1_555
C14 N6 1_555 1_555
H12 C14 1_555 1_555
H13 C14 1_555 1_555
C15 C14 1_555 1_555
C16 C15 1_555 1_555
H14 C16 1_555 1_555
C17 C16 1_555 1_555
H15 C17 1_555 1_555
C18 C17 1_555 1_555
H16 C18 1_555 1_555
C19 C18 1_555 1_555
H17 C19 1_555 1_555
C20 C15 1_555 1_555
H18 C20 1_555 1_555
N4 C3 1_555 1_555
C9 C10 1_555 1_555
N8 C13 1_555 1_555
C19 C20 1_555 1_555

#END
