
#######################################################################
#
#                 Cambridge Crystallographic Data Centre
#                                CCDC 
#
#######################################################################
#
# If this CIF has been generated from an entry in the Cambridge 
# Structural Database, then it will include bibliographic, chemical, 
# crystal, experimental, refinement or atomic coordinate data resulting 
# from the CCDC's data processing and validation procedures.
#
#######################################################################

data_PABGOO
_chemical_formula_moiety         '2(C18 H22 N3 O1 1+),C18 H12 O8 2-'
_chemical_name_systematic        
"(-)-2'-(1-Methyl-1H-indol-3-yl)spiro(1-azabicyclo(2.2.2)octane-3,5'(4'H)-oxazole) (+)-O,O'-dibenzoyl-D-tartrate"
_chemical_properties_biological  '5-HT!3$ antagonist activity'
_symmetry_cell_setting           monoclinic
_symmetry_space_group_name_H-M   'P 21'
_symmetry_Int_Tables_number      4
_space_group_name_Hall           'P 2yb'
loop_
_symmetry_equiv_pos_site_id
_symmetry_equiv_pos_as_xyz
1 x,y,z
2 -x,1/2+y,-z
_cell_length_a                   18.233(2)
_cell_length_b                   7.9201(9)
_cell_length_c                   18.847(2)
_cell_angle_alpha                90
_cell_angle_beta                 116.85(1)
_cell_angle_gamma                90
_cell_volume                     2428.23
_exptl_crystal_colour            colorless
_chemical_melting_point          '261-262 deg.C'
_cell_formula_units_Z            2
loop_
_atom_site_label
_atom_site_type_symbol
_atom_site_fract_x
_atom_site_fract_y
_atom_site_fract_z
O1 O 0.8787(2) 0.380 0.7126(2)
N1 N 0.8746(3) 0.2431(7) 0.4961(2)
C1 C 0.8225(3) 0.6638(8) 0.7668(3)
C2 C 0.9071(3) 0.7303(7) 0.8227(3)
C3 C 0.8265(3) 0.4898(8) 0.8775(3)
C4 C 0.9644(3) 0.4450(7) 0.8511(3)
C5 C 0.8715(4) 0.1823(8) 0.8017(3)
C6 C 0.8708(3) 0.2164(7) 0.6862(3)
C7 C 0.8492(3) 0.0398(7) 0.5637(3)
C8 C 0.8286(3) -0.1228(8) 0.5758(3)
C9 C 0.8104(4) -0.2415(9) 0.5156(4)
C10 C 0.8141(4) -0.198(1) 0.4461(4)
C11 C 0.8342(4) -0.042(1) 0.4315(3)
C12 C 0.8547(3) 0.0766(8) 0.4939(3)
C13 C 0.8878(4) 0.335(1) 0.4357(3)
N4 N 0.9537(2) 0.6050(5) 0.8854(2)
N5 N 0.8652(2) 0.1012(6) 0.7305(2)
C32 C 0.8817(3) 0.3748(7) 0.7906(2)
C33 C 0.8141(3) 0.4835(7) 0.7920(3)
C34 C 0.9057(3) 0.5709(9) 0.9308(3)
C35 C 0.8681(3) 0.1921(7) 0.6093(2)
C36 C 0.8811(3) 0.3124(9) 0.5650(3)
H1 H 0.762 0.439 0.757
H2 H 0.816 0.662 0.714
H3 H 0.782 0.733 0.769
H4 H 0.901 0.831 0.847
H5 H 0.936 0.754 0.793
H6 H 0.936 0.497 0.974
H7 H 0.895 0.674 0.950
H8 H 0.783 0.552 0.879
H9 H 0.826 0.378 0.895
H10 H 0.998 0.464 0.826
H11 H 0.990 0.365 0.893
H12 H 0.823 0.162 0.808
H13 H 0.918 0.140 0.847
H14 H 0.827 -0.153 0.624
H15 H 0.795 -0.353 0.522
H16 H 0.802 -0.283 0.407
H17 H 0.835 -0.014 0.383
H18 H 0.893 0.427 0.580
H19 H 0.901 0.449 0.452
H20 H 0.840 0.330 0.387
H21 H 0.932 0.284 0.430
O2 O 0.6284(2) 0.4520(5) 0.2830(2)
N2 N 0.6611(3) 0.1770(6) 0.2928(2)
N3 N 0.6468(2) 0.2328(6) 0.5154(2)
C14 C 0.6701(3) 0.5283(9) 0.1075(3)
C15 C 0.5420(3) 0.4462(7) 0.1422(3)
C16 C 0.6573(4) 0.2298(8) 0.2177(3)
C17 C 0.6437(3) 0.3158(7) 0.4008(3)
C18 C 0.5931(3) 0.6229(7) 0.4066(3)
C19 C 0.5743(3) 0.7232(8) 0.4554(3)
C20 C 0.6563(3) 0.1301(9) 0.5833(3)
N6 N 0.5368(2) 0.6087(5) 0.1005(2)
C37 C 0.6281(3) 0.4191(7) 0.2076(3)
C38 C 0.6845(3) 0.5410(7) 0.1954(3)
C39 C 0.5834(3) 0.5918(7) 0.0539(2)
C40 C 0.5715(3) 0.7484(7) 0.1592(3)
C41 C 0.6646(3) 0.7238(7) 0.2100(2)
C42 C 0.6450(3) 0.3035(8) 0.3236(3)
C43 C 0.6187(3) 0.4560(8) 0.4325(2)
C44 C 0.5796(3) 0.6687(9) 0.5278(3)
C45 C 0.6044(3) 0.5061(8) 0.5536(3)
C46 C 0.6225(3) 0.4024(7) 0.5047(3)
C47 C 0.6594(3) 0.1843(8) 0.4526(3)
H22 H 0.740 0.514 0.231
H23 H 0.545 0.749 0.193
H24 H 0.679 0.739 0.265
H25 H 0.694 0.802 0.195
H26 H 0.505 0.449 0.165
H27 H 0.528 0.356 0.105
H28 H 0.710 0.221 0.219
H29 H 0.619 0.162 0.175
H30 H 0.589 0.663 0.357
H31 H 0.557 0.835 0.439
H32 H 0.566 0.743 0.560
H33 H 0.609 0.466 0.603
H34 H 0.676 0.074 0.446
H35 H 0.673 0.019 0.578
H36 H 0.605 0.124 0.585
H37 H 0.696 0.179 0.631
H45 H 0.709 0.596 0.100
H46 H 0.676 0.414 0.095
H47 H 0.556 0.513 0.012
H48 H 0.586 0.698 0.032
H49 H 0.562 0.853 0.132
O3 O 0.7935(2) 0.9500(4) 0.0885(1)
O4 O 0.6329(2) 0.9809(5) 0.0522(2)
O5 O 0.6162(2) 1.2062(5) -0.0226(2)
O6 O 0.8340(2) 1.0705(5) 0.2068(2)
O7 O 0.7195(2) 0.9534(4) -0.0727(2)
O8 O 0.8787(2) 0.9759(5) -0.0352(2)
O9 O 0.8957(2) 1.2119(4) 0.0352(2)
O10 O 0.6766(3) 1.0815(6) -0.1889(2)
C21 C 0.8693(2) 0.7836(6) 0.1973(2)
C22 C 0.9019(3) 0.7539(8) 0.2787(3)
C23 C 0.9362(3) 0.5963(8) 0.3092(3)
C24 C 0.9351(3) 0.4714(8) 0.2596(3)
C25 C 0.9040(3) 0.4992(7) 0.1785(3)
C26 C 0.8706(2) 0.6566(7) 0.1479(3)
C27 C 0.8541(3) 1.0935(7) -0.0089(2)
C28 C 0.5974(3) 0.5153(8) -0.1631(3)
C29 C 0.5528(3) 0.4983(8) -0.2436(3)
C30 C 0.5475(3) 0.6281(9) -0.2937(3)
C31 C 0.5870(3) 0.7812(8) -0.2644(2)
C48 C 0.7502(2) 1.0980(7) 0.0447(2)
C49 C 0.6596(3) 1.0922(7) 0.0250(2)
C50 C 0.8313(2) 0.9520(6) 0.1664(2)
C51 C 0.7624(2) 1.1000(7) -0.0290(2)
C52 C 0.6774(3) 0.9616(7) -0.1504(2)
C53 C 0.6331(2) 0.7981(6) -0.1820(2)
C54 C 0.6369(3) 0.6664(7) -0.1326(2)
H38 H 0.771 1.198 0.075
H39 H 0.901 0.840 0.313
H40 H 0.960 0.576 0.365
H41 H 0.956 0.363 0.281
H42 H 0.905 0.412 0.144
H43 H 0.848 0.676 0.092
H44 H 0.742 1.201 -0.059
H50 H 0.667 0.680 -0.077
H51 H 0.601 0.424 -0.129
H52 H 0.525 0.395 -0.265
H53 H 0.516 0.613 -0.350
H54 H 0.583 0.871 -0.299
loop_
_geom_bond_atom_site_label_1
_geom_bond_atom_site_label_2
_geom_bond_site_symmetry_1
_geom_bond_site_symmetry_2
O1 C6 1_555 1_555
N1 C12 1_555 1_555
C1 C2 1_555 1_555
C2 N4 1_555 1_555
C3 C33 1_555 1_555
C4 N4 1_555 1_555
C5 N5 1_555 1_555
C6 N5 1_555 1_555
C7 C8 1_555 1_555
C8 C9 1_555 1_555
C9 C10 1_555 1_555
C10 C11 1_555 1_555
C11 C12 1_555 1_555
C12 C7 1_555 1_555
C13 N1 1_555 1_555
O2 C37 1_555 1_555
N2 C16 1_555 1_555
N3 C20 1_555 1_555
C14 C38 1_555 1_555
C15 N6 1_555 1_555
C16 C37 1_555 1_555
C17 C42 1_555 1_555
C18 C19 1_555 1_555
C19 C44 1_555 1_555
C20 H35 1_555 1_555
O3 C48 1_555 1_555
O4 C49 1_555 1_555
O5 C49 1_555 1_555
O6 C50 1_555 1_555
O7 C51 1_555 1_555
O8 C27 1_555 1_555
O9 C27 1_555 1_555
O10 C52 1_555 1_555
C21 C22 1_555 1_555
C22 C23 1_555 1_555
C23 C24 1_555 1_555
C24 C25 1_555 1_555
C25 C26 1_555 1_555
C26 C21 1_555 1_555
C27 C51 1_555 1_555
C28 C29 1_555 1_555
C29 C30 1_555 1_555
C30 C31 1_555 1_555
C31 C53 1_555 1_555
N4 C34 1_555 1_555
C32 O1 1_555 1_555
C33 C1 1_555 1_555
C34 C3 1_555 1_555
C35 C6 1_555 1_555
C36 N1 1_555 1_555
N6 C39 1_555 1_555
C37 C15 1_555 1_555
C38 C37 1_555 1_555
C39 C14 1_555 1_555
C40 N6 1_555 1_555
C41 C38 1_555 1_555
C42 O2 1_555 1_555
C43 C17 1_555 1_555
C44 C45 1_555 1_555
C45 C46 1_555 1_555
C46 N3 1_555 1_555
C47 N3 1_555 1_555
C48 C49 1_555 1_555
C50 O3 1_555 1_555
C51 C48 1_555 1_555
C52 O7 1_555 1_555
C53 C52 1_555 1_555
C54 C28 1_555 1_555
H1 C33 1_555 1_555
H2 C1 1_555 1_555
H3 C1 1_555 1_555
H4 C2 1_555 1_555
H5 C2 1_555 1_555
H6 C34 1_555 1_555
H7 C34 1_555 1_555
H8 C3 1_555 1_555
H9 C3 1_555 1_555
H10 C4 1_555 1_555
H11 C4 1_555 1_555
H12 C5 1_555 1_555
H13 C5 1_555 1_555
H14 C8 1_555 1_555
H15 C9 1_555 1_555
H16 C10 1_555 1_555
H17 C11 1_555 1_555
H18 C36 1_555 1_555
H19 C13 1_555 1_555
H20 C13 1_555 1_555
H21 C13 1_555 1_555
H22 C38 1_555 1_555
H23 C40 1_555 1_555
H24 C41 1_555 1_555
H25 C41 1_555 1_555
H26 C15 1_555 1_555
H27 C15 1_555 1_555
H28 C16 1_555 1_555
H29 C16 1_555 1_555
H30 C18 1_555 1_555
H31 C19 1_555 1_555
H32 C44 1_555 1_555
H33 C45 1_555 1_555
H34 C47 1_555 1_555
H36 C20 1_555 1_555
H37 C20 1_555 1_555
H38 C48 1_555 1_555
H39 C22 1_555 1_555
H40 C23 1_555 1_555
H41 C24 1_555 1_555
H42 C25 1_555 1_555
H43 C26 1_555 1_555
H44 C51 1_555 1_555
H45 C14 1_555 1_555
H46 C14 1_555 1_555
H47 C39 1_555 1_555
H48 C39 1_555 1_555
H49 C40 1_555 1_555
H50 C54 1_555 1_555
H51 C28 1_555 1_555
H52 C29 1_555 1_555
H53 C30 1_555 1_555
H54 C31 1_555 1_555
C4 C32 1_555 1_555
C5 C32 1_555 1_555
C7 C35 1_555 1_555
N2 C42 1_555 1_555
C17 C47 1_555 1_555
C18 C43 1_555 1_555
C21 C50 1_555 1_555
C32 C33 1_555 1_555
C35 C36 1_555 1_555
C40 C41 1_555 1_555
C43 C46 1_555 1_555
C53 C54 1_555 1_555

#END
