
#######################################################################
#
#                 Cambridge Crystallographic Data Centre
#                                CCDC 
#
#######################################################################
#
# If this CIF has been generated from an entry in the Cambridge 
# Structural Database, then it will include bibliographic, chemical, 
# crystal, experimental, refinement or atomic coordinate data resulting 
# from the CCDC's data processing and validation procedures.
#
#######################################################################

data_PABHOS
_chemical_name_common            '(4R,5S,7S)-5-iodo-crassalactone D'
_chemical_formula_moiety         'C13 H11 I1 O4'
_chemical_name_systematic        
8-hydroxy-9-iodo-7-phenyl-1,6-dioxaspiro[4.4]non-3-en-2-one
_chemical_properties_biological  'Antitumour activity'
_symmetry_cell_setting           orthorhombic
_symmetry_space_group_name_H-M   'P 21 21 21'
_symmetry_Int_Tables_number      19
_space_group_name_Hall           'P 2ac 2ab'
loop_
_symmetry_equiv_pos_site_id
_symmetry_equiv_pos_as_xyz
1 x,y,z
2 1/2-x,-y,1/2+z
3 1/2+x,1/2-y,-z
4 -x,1/2+y,1/2-z
_cell_length_a                   8.60908(17)
_cell_length_b                   9.8829(3)
_cell_length_c                   31.1915(5)
_cell_angle_alpha                90
_cell_angle_beta                 90
_cell_angle_gamma                90
_cell_volume                     2653.86
_exptl_crystal_colour            colorless
_exptl_crystal_description       Needle
_cell_formula_units_Z            8
loop_
_atom_site_label
_atom_site_type_symbol
_atom_site_fract_x
_atom_site_fract_y
_atom_site_fract_z
I1 I 1.01691(6) 0.80566(7) 0.772364(16)
O1 O 0.5184(7) 0.8340(7) 0.78227(16)
O2 O 0.6476(7) 0.6443(7) 0.84898(18)
H1 H 0.6753 0.5702 0.8580
O3 O 0.6845(7) 0.9492(7) 0.82959(17)
O4 O 0.3335(7) 0.8600(10) 0.7325(2)
C1 C 0.7669(9) 0.8649(9) 0.8600(2)
H2 H 0.8723 0.9012 0.8627
C2 C 0.6942(9) 0.8692(9) 0.9037(2)
C3 C 0.7872(11) 0.8521(9) 0.9392(3)
H3 H 0.8934 0.8381 0.9360
C4 C 0.7803(9) 0.7243(8) 0.8398(2)
H4 H 0.8768 0.6787 0.8481
C5 C 0.7785(8) 0.7611(9) 0.7917(2)
H5 H 0.7345 0.6876 0.7745
C6 C 0.5733(10) 0.9909(11) 0.7297(3)
H6 H 0.5590 1.0458 0.7058
C7 C 0.6787(10) 0.8853(9) 0.7897(2)
C8 C 0.5369(10) 0.8868(10) 0.9087(3)
H7 H 0.4737 0.8952 0.8847
C9 C 0.6979(12) 0.9893(10) 0.7539(3)
H8 H 0.7850 1.0434 0.7499
C10 C 0.4718(13) 0.8920(12) 0.9494(3)
H9 H 0.3658 0.9065 0.9528
C11 C 0.7215(13) 0.8559(10) 0.9797(3)
H10 H 0.7842 0.8450 1.0037
C12 C 0.5665(13) 0.8753(11) 0.9846(3)
H11 H 0.5238 0.8773 1.0120
C13 C 0.4607(10) 0.8934(13) 0.7460(2)
I2 I 1.21208(13) 0.15067(10) 0.84122(3)
O5 O 1.0508(8) 0.3544(8) 0.92258(17)
O6 O 1.0654(7) 0.5496(7) 0.88186(19)
O7 O 0.7995(8) 0.3948(7) 0.84846(18)
H12 H 0.7566 0.3735 0.8260
O8 O 1.1585(9) 0.7596(9) 0.8874(3)
C14 C 1.3265(11) 0.5668(12) 0.8959(3)
H13 H 1.4244 0.6044 0.9002
C15 C 0.9167(11) 0.2776(10) 0.9104(3)
H14 H 0.9378 0.1824 0.9169
C16 C 0.6702(13) 0.2220(11) 0.9482(3)
H15 H 0.6823 0.1324 0.9398
C17 C 1.1830(12) 0.6428(12) 0.8877(3)
C18 C 1.1251(10) 0.4132(11) 0.8872(3)
C19 C 0.9072(11) 0.2924(11) 0.8603(3)
H16 H 0.8786 0.2059 0.8471
C20 C 0.7517(12) 0.4540(10) 0.9462(3)
H17 H 0.8179 0.5212 0.9361
C21 C 0.5239(15) 0.3909(12) 0.9853(3)
H18 H 0.4387 0.4154 1.0019
C22 C 0.6279(14) 0.4877(13) 0.9723(3)
H19 H 0.6151 0.5769 0.9811
C23 C 1.0711(11) 0.3289(10) 0.8490(3)
H20 H 1.0732 0.3835 0.8228
C24 C 0.7779(11) 0.3177(10) 0.9347(3)
C25 C 0.5453(15) 0.2570(12) 0.9737(3)
H21 H 0.4762 0.1910 0.9831
C26 C 1.2934(11) 0.4355(13) 0.8963(3)
H22 H 1.3650 0.3670 0.9016
loop_
_geom_bond_atom_site_label_1
_geom_bond_atom_site_label_2
_geom_bond_site_symmetry_1
_geom_bond_site_symmetry_2
I1 C5 1_555 1_555
O1 C7 1_555 1_555
O2 H1 1_555 1_555
O3 C1 1_555 1_555
O4 C13 1_555 1_555
C1 H2 1_555 1_555
C2 C1 1_555 1_555
C3 C2 1_555 1_555
H3 C3 1_555 1_555
C4 O2 1_555 1_555
H4 C4 1_555 1_555
C5 C4 1_555 1_555
H5 C5 1_555 1_555
C6 H6 1_555 1_555
C7 O3 1_555 1_555
C8 C2 1_555 1_555
H7 C8 1_555 1_555
C9 C6 1_555 1_555
H8 C9 1_555 1_555
C10 C8 1_555 1_555
H9 C10 1_555 1_555
C11 C3 1_555 1_555
H10 C11 1_555 1_555
C12 C10 1_555 1_555
H11 C12 1_555 1_555
C13 O1 1_555 1_555
I2 C23 1_555 1_555
O5 C15 1_555 1_555
O6 C17 1_555 1_555
O7 H12 1_555 1_555
O8 C17 1_555 1_555
C14 H13 1_555 1_555
C15 H14 1_555 1_555
C16 H15 1_555 1_555
C17 C14 1_555 1_555
C18 O5 1_555 1_555
C19 O7 1_555 1_555
H16 C19 1_555 1_555
C20 H17 1_555 1_555
C21 H18 1_555 1_555
C22 C20 1_555 1_555
H19 C22 1_555 1_555
C23 C18 1_555 1_555
H20 C23 1_555 1_555
C24 C15 1_555 1_555
C25 C16 1_555 1_555
H21 C25 1_555 1_555
C26 C14 1_555 1_555
H22 C26 1_555 1_555
C1 C4 1_555 1_555
C5 C7 1_555 1_555
C6 C13 1_555 1_555
C7 C9 1_555 1_555
C11 C12 1_555 1_555
O6 C18 1_555 1_555
C15 C19 1_555 1_555
C16 C24 1_555 1_555
C18 C26 1_555 1_555
C19 C23 1_555 1_555
C20 C24 1_555 1_555
C21 C22 1_555 1_555
C21 C25 1_555 1_555

#END
