
#######################################################################
#
#                 Cambridge Crystallographic Data Centre
#                                CCDC 
#
#######################################################################
#
# If this CIF has been generated from an entry in the Cambridge 
# Structural Database, then it will include bibliographic, chemical, 
# crystal, experimental, refinement or atomic coordinate data resulting 
# from the CCDC's data processing and validation procedures.
#
#######################################################################

data_PABJIO
_chemical_name_common            '(7S)-goniobutenolide A'
_chemical_formula_moiety         'C13 H12 O4'
_chemical_name_systematic        
5-(2,3-dihydroxy-3-phenylpropylidene)furan-2(5H)-one
_chemical_properties_biological  'Antitumour activity'
_symmetry_cell_setting           monoclinic
_symmetry_space_group_name_H-M   'P 21'
_symmetry_Int_Tables_number      4
_space_group_name_Hall           'P 2yb'
loop_
_symmetry_equiv_pos_site_id
_symmetry_equiv_pos_as_xyz
1 x,y,z
2 -x,1/2+y,-z
_cell_length_a                   9.3365(8)
_cell_length_b                   5.6672(5)
_cell_length_c                   11.2651(13)
_cell_angle_alpha                90
_cell_angle_beta                 94.355(11)
_cell_angle_gamma                90
_cell_volume                     594.336
_exptl_crystal_colour            colorless
_exptl_crystal_description       needle
_cell_formula_units_Z            2
loop_
_atom_site_label
_atom_site_type_symbol
_atom_site_fract_x
_atom_site_fract_y
_atom_site_fract_z
O1 O 0.4650(2) 0.1143(3) 0.15420(17)
O2 O 0.6948(2) 0.0204(4) 0.2003(2)
O3 O -0.0186(2) -0.1222(4) 0.1947(3)
H1 H -0.1018 -0.1027 0.2113
O4 O 0.0821(3) 0.0542(4) -0.0107(2)
H2 H 0.0633 0.1815 -0.0429
C1 C 0.3884(3) 0.3190(5) 0.1277(2)
C2 C 0.4891(3) 0.5092(5) 0.1340(3)
H3 H 0.4665 0.6672 0.1205
C3 C 0.0557(3) 0.0994(6) 0.2012(3)
H4 H -0.014 0.2269 0.1849
C4 C 0.1581(3) 0.0930(5) 0.1020(3)
H5 H 0.223 -0.0413 0.1177
C5 C 0.2482(3) 0.3102(5) 0.1033(3)
H6 H 0.2013 0.452 0.0853
C6 C 0.6073(3) 0.1730(5) 0.1757(3)
C7 C 0.1317(3) 0.1383(5) 0.3203(3)
C8 C 0.6186(4) 0.4265(6) 0.1619(3)
H7 H 0.7027 0.5147 0.1712
C9 C 0.1096(5) 0.3381(7) 0.3854(4)
H8 H 0.0433 0.4498 0.3557
C10 C 0.2304(4) -0.0251(7) 0.3681(3)
H9 H 0.2456 -0.1638 0.3267
C11 C 0.3066(6) 0.0148(9) 0.4764(4)
H10 H 0.3743 -0.0942 0.5068
C12 C 0.1843(7) 0.3756(9) 0.4945(4)
H11 H 0.1677 0.5114 0.5377
C13 C 0.2813(7) 0.2157(11) 0.5382(4)
H12 H 0.3315 0.2426 0.6114
loop_
_geom_bond_atom_site_label_1
_geom_bond_atom_site_label_2
_geom_bond_site_symmetry_1
_geom_bond_site_symmetry_2
O1 C1 1_555 1_555
O2 C6 1_555 1_555
O3 H1 1_555 1_555
O4 H2 1_555 1_555
C1 C2 1_555 1_555
C2 H3 1_555 1_555
C3 O3 1_555 1_555
H4 C3 1_555 1_555
C4 O4 1_555 1_555
H5 C4 1_555 1_555
C5 C1 1_555 1_555
H6 C5 1_555 1_555
C6 O1 1_555 1_555
C7 C3 1_555 1_555
C8 C2 1_555 1_555
H7 C8 1_555 1_555
C9 C7 1_555 1_555
H8 C9 1_555 1_555
C10 C7 1_555 1_555
H9 C10 1_555 1_555
C11 C10 1_555 1_555
H10 C11 1_555 1_555
C12 C9 1_555 1_555
H11 C12 1_555 1_555
C13 C11 1_555 1_555
H12 C13 1_555 1_555
C3 C4 1_555 1_555
C4 C5 1_555 1_555
C6 C8 1_555 1_555
C12 C13 1_555 1_555

#END
