
#######################################################################
#
#                 Cambridge Crystallographic Data Centre
#                                CCDC 
#
#######################################################################
#
# If this CIF has been generated from an entry in the Cambridge 
# Structural Database, then it will include bibliographic, chemical, 
# crystal, experimental, refinement or atomic coordinate data resulting 
# from the CCDC's data processing and validation procedures.
#
#######################################################################

data_PABLAH
_chemical_formula_moiety         'C13 H26 B10 O1'
_chemical_name_systematic        
1,2-(4-t-Butyl-1-methoxyhexa-1,3,5-triene-1,6-diyl)-1,2-dicarba-closo-dodecaborane
_symmetry_cell_setting           monoclinic
_symmetry_space_group_name_H-M   'C 2/c'
_symmetry_Int_Tables_number      15
_space_group_name_Hall           '-C 2yn'
loop_
_symmetry_equiv_pos_site_id
_symmetry_equiv_pos_as_xyz
1 x,y,z
2 -x,y,1/2-z
3 1/2+x,1/2+y,z
4 1/2-x,1/2+y,1/2-z
5 -x,-y,-z
6 x,-y,1/2+z
7 1/2-x,1/2-y,-z
8 1/2+x,1/2-y,1/2+z
_cell_length_a                   14.6074(11)
_cell_length_b                   18.1930(14)
_cell_length_c                   14.4027(10)
_cell_angle_alpha                90
_cell_angle_beta                 97.5370(10)
_cell_angle_gamma                90
_cell_volume                     3794.48
_exptl_crystal_colour            colorless
_exptl_crystal_description       block
_cell_formula_units_Z            8
loop_
_atom_site_label
_atom_site_type_symbol
_atom_site_fract_x
_atom_site_fract_y
_atom_site_fract_z
O1 O 0.14232(15) 0.12547(10) 0.77474(14)
C1 C 0.21017(14) 0.04121(11) 0.68674(14)
C2 C 0.21435(14) 0.02518(11) 0.57318(14)
C3 C 0.21304(17) 0.11891(12) 0.72173(15)
C4 C 0.1333(3) 0.19145(17) 0.8244(3)
H1 H 0.0811 0.1879 0.8582
H2 H 0.1245 0.2317 0.7810
H3 H 0.1882 0.1996 0.8676
C5 C 0.27116(18) 0.17244(13) 0.70874(16)
H4 H 0.2599 0.2161 0.7389
C6 C 0.34934(19) 0.17570(13) 0.65605(18)
H5 H 0.4048 0.1894 0.6910
C7 C 0.35479(17) 0.16258(12) 0.56763(17)
C8 C 0.27145(16) 0.14235(14) 0.50271(16)
H6 H 0.2579 0.1735 0.4515
C9 C 0.21320(15) 0.08701(13) 0.50594(14)
H7 H 0.1635 0.0869 0.4584
C10 C 0.44396(18) 0.17087(14) 0.52164(19)
C11 C 0.5301(3) 0.1820(3) 0.5910(3)
H8 H 0.5247 0.2267 0.6251
H9 H 0.5830 0.1849 0.5579
H10 H 0.5374 0.1413 0.6338
C12 C 0.4329(3) 0.2349(3) 0.4558(5)
H11 H 0.4233 0.2789 0.4901
H12 H 0.3807 0.2267 0.4091
H13 H 0.4876 0.2401 0.4260
C13 C 0.4589(2) 0.1002(3) 0.4687(3)
H14 H 0.4062 0.0911 0.4229
H15 H 0.4670 0.0598 0.5119
H16 H 0.5131 0.1051 0.4379
B1 B 0.30822(17) 0.00131(13) 0.65439(17)
H17 H 0.3760 0.0286 0.6603
B2 B 0.2601(2) -0.02887(14) 0.75417(19)
H18 H 0.2966 -0.0212 0.8253
B3 B 0.1383(2) -0.02206(16) 0.7315(2)
H19 H 0.0962 -0.0105 0.7878
B4 B 0.11020(17) 0.01497(16) 0.61723(19)
H20 H 0.0503 0.0513 0.5991
B5 B 0.26875(19) -0.05713(14) 0.55923(19)
H21 H 0.3108 -0.0681 0.5028
B6 B 0.2970(2) -0.09291(15) 0.6734(2)
H22 H 0.3580 -0.1280 0.6917
B7 B 0.1921(2) -0.10776(16) 0.7213(2)
H23 H 0.1849 -0.1528 0.7709
B8 B 0.0990(2) -0.08008(17) 0.6364(2)
H24 H 0.0308 -0.1066 0.6303
B9 B 0.14675(19) -0.04932(15) 0.5369(2)
H25 H 0.1099 -0.0555 0.4657
B10 B 0.1971(2) -0.12488(16) 0.6013(2)
H26 H 0.1928 -0.1810 0.5728
loop_
_geom_bond_atom_site_label_1
_geom_bond_atom_site_label_2
_geom_bond_site_symmetry_1
_geom_bond_site_symmetry_2
O1 C3 1_555 1_555
C1 C2 1_555 1_555
C2 C9 1_555 1_555
C3 C1 1_555 1_555
C4 O1 1_555 1_555
H1 C4 1_555 1_555
H2 C4 1_555 1_555
H3 C4 1_555 1_555
C5 C3 1_555 1_555
H4 C5 1_555 1_555
C6 C5 1_555 1_555
H5 C6 1_555 1_555
C7 C6 1_555 1_555
C8 C7 1_555 1_555
H6 C8 1_555 1_555
C9 C8 1_555 1_555
H7 C9 1_555 1_555
C10 C7 1_555 1_555
C11 C10 1_555 1_555
H8 C11 1_555 1_555
H9 C11 1_555 1_555
H10 C11 1_555 1_555
C12 C10 1_555 1_555
H11 C12 1_555 1_555
H12 C12 1_555 1_555
H13 C12 1_555 1_555
C13 C10 1_555 1_555
H14 C13 1_555 1_555
H15 C13 1_555 1_555
H16 C13 1_555 1_555
B1 C1 1_555 1_555
H17 B1 1_555 1_555
B2 C1 1_555 1_555
H18 B2 1_555 1_555
B3 C1 1_555 1_555
H19 B3 1_555 1_555
B4 C1 1_555 1_555
H20 B4 1_555 1_555
B5 C2 1_555 1_555
H21 B5 1_555 1_555
B6 B1 1_555 1_555
H22 B6 1_555 1_555
B7 B2 1_555 1_555
H23 B7 1_555 1_555
B8 B3 1_555 1_555
H24 B8 1_555 1_555
B9 C2 1_555 1_555
H25 B9 1_555 1_555
B10 B5 1_555 1_555
H26 B10 1_555 1_555
C2 B1 1_555 1_555
C2 B4 1_555 1_555
B1 B2 1_555 1_555
B1 B5 1_555 1_555
B2 B3 1_555 1_555
B2 B6 1_555 1_555
B3 B4 1_555 1_555
B3 B7 1_555 1_555
B4 B8 1_555 1_555
B4 B9 1_555 1_555
B5 B6 1_555 1_555
B5 B9 1_555 1_555
B6 B7 1_555 1_555
B6 B10 1_555 1_555
B7 B8 1_555 1_555
B7 B10 1_555 1_555
B8 B9 1_555 1_555
B8 B10 1_555 1_555
B9 B10 1_555 1_555

#END
