
#######################################################################
#
#                 Cambridge Crystallographic Data Centre
#                                CCDC 
#
#######################################################################
#
# If this CIF has been generated from an entry in the Cambridge 
# Structural Database, then it will include bibliographic, chemical, 
# crystal, experimental, refinement or atomic coordinate data resulting 
# from the CCDC's data processing and validation procedures.
#
#######################################################################

data_PABSIW
_chemical_formula_moiety         'C14 H18 O2'
_chemical_name_systematic        
'1-(Cyclohepta-2,4,6-trien-1-yl)cyclohexanecarboxylic acid'
_symmetry_cell_setting           monoclinic
_symmetry_space_group_name_H-M   'C 2/c'
_symmetry_Int_Tables_number      15
_space_group_name_Hall           '-C 2yn'
loop_
_symmetry_equiv_pos_site_id
_symmetry_equiv_pos_as_xyz
1 x,y,z
2 1/2+x,1/2+y,z
3 -x,y,1/2-z
4 1/2-x,1/2+y,1/2-z
5 -x,-y,-z
6 1/2-x,1/2-y,-z
7 x,-y,1/2+z
8 1/2+x,1/2-y,1/2+z
_cell_length_a                   27.396(7)
_cell_length_b                   6.495(2)
_cell_length_c                   13.671(4)
_cell_angle_alpha                90
_cell_angle_beta                 96.54(2)
_cell_angle_gamma                90
_cell_volume                     2416.75
_exptl_crystal_colour            colorless
_exptl_crystal_description       box
_cell_formula_units_Z            8
loop_
_atom_site_label
_atom_site_type_symbol
_atom_site_fract_x
_atom_site_fract_y
_atom_site_fract_z
O1 O 0.45388(5) 1.0850(2) 0.56139(11)
O2 O 0.46436(5) 0.7718(2) 0.50281(11)
C1 C 0.34112(7) 1.0891(3) 0.47771(14)
C2 C 0.29804(9) 1.1496(4) 0.42880(16)
C3 C 0.25919(8) 1.0155(5) 0.38922(17)
C4 C 0.26557(8) 0.8255(5) 0.35254(16)
C5 C 0.31202(9) 0.7256(4) 0.34780(14)
C6 C 0.35182(7) 0.7491(3) 0.41319(14)
C7 C 0.34960(5) 0.8674(3) 0.50630(12)
C8 C 0.44077(6) 0.9035(3) 0.54961(11)
C9 C 0.39324(5) 0.8292(3) 0.58775(12)
C10 C 0.38481(6) 0.9516(3) 0.68117(12)
C11 C 0.42297(8) 0.9025(4) 0.76848(13)
C12 C 0.42329(8) 0.6754(5) 0.79115(15)
C13 C 0.43304(8) 0.5493(4) 0.70195(16)
C14 C 0.39616(7) 0.5984(3) 0.61258(14)
H1 H 0.3678 1.1908 0.4989
H2 H 0.2925 1.2957 0.4180
H3 H 0.2247 1.0637 0.3877
H4 H 0.2356 0.7535 0.3272
H5 H 0.3145 0.6321 0.2906
H6 H 0.3838 0.6871 0.4006
H7 H 0.3186 0.8174 0.5319
H8 H 0.3868 1.1000 0.6657
H9 H 0.3515 0.9166 0.6994
H10 H 0.4567 0.9421 0.7535
H11 H 0.4152 0.9777 0.8286
H12 H 0.4493 0.6414 0.8461
H13 H 0.3904 0.6328 0.8101
H14 H 0.4670 0.5810 0.6874
H15 H 0.4300 0.4010 0.7179
H16 H 0.4061 0.5305 0.5527
H17 H 0.3625 0.5575 0.6237
loop_
_geom_bond_atom_site_label_1
_geom_bond_atom_site_label_2
_geom_bond_site_symmetry_1
_geom_bond_site_symmetry_2
O1 C8 1_555 1_555
O2 C8 1_555 1_555
C1 C2 1_555 1_555
C2 C3 1_555 1_555
C3 C4 1_555 1_555
C4 C5 1_555 1_555
C5 C6 1_555 1_555
C6 C7 1_555 1_555
C7 C1 1_555 1_555
C8 C9 1_555 1_555
C9 C7 1_555 1_555
C10 C9 1_555 1_555
C11 C10 1_555 1_555
C12 C11 1_555 1_555
C13 C12 1_555 1_555
C14 C9 1_555 1_555
H1 C1 1_555 1_555
H2 C2 1_555 1_555
H3 C3 1_555 1_555
H4 C4 1_555 1_555
H5 C5 1_555 1_555
H6 C6 1_555 1_555
H7 C7 1_555 1_555
H8 C10 1_555 1_555
H9 C10 1_555 1_555
H10 C11 1_555 1_555
H11 C11 1_555 1_555
H12 C12 1_555 1_555
H13 C12 1_555 1_555
H14 C13 1_555 1_555
H15 C13 1_555 1_555
H16 C14 1_555 1_555
H17 C14 1_555 1_555
C13 C14 1_555 1_555

#END
