
#######################################################################
#
#                 Cambridge Crystallographic Data Centre
#                                CCDC 
#
#######################################################################
#
# If this CIF has been generated from an entry in the Cambridge 
# Structural Database, then it will include bibliographic, chemical, 
# crystal, experimental, refinement or atomic coordinate data resulting 
# from the CCDC's data processing and validation procedures.
#
#######################################################################

data_PABVOG
_chemical_name_common            '(4S,5S,7R)-5-Chloro-crassalactone D'
_chemical_formula_moiety         'C13 H11 Cl1 O4'
_chemical_name_systematic        
(5S,7R,8R,9S)-9-chloro-8-hydroxy-7-phenyl-1,6-dioxaspiro[4.4]non-3-en-2-one
_chemical_properties_biological  'Antitumour activity'
_symmetry_cell_setting           orthorhombic
_symmetry_space_group_name_H-M   'P 21 21 21'
_symmetry_Int_Tables_number      19
_space_group_name_Hall           'P 2ac 2ab'
loop_
_symmetry_equiv_pos_site_id
_symmetry_equiv_pos_as_xyz
1 x,y,z
2 1/2-x,-y,1/2+z
3 1/2+x,1/2-y,-z
4 -x,1/2+y,1/2-z
_cell_length_a                   7.5708(5)
_cell_length_b                   11.7377(9)
_cell_length_c                   13.9377(8)
_cell_angle_alpha                90
_cell_angle_beta                 90
_cell_angle_gamma                90
_cell_volume                     1238.56
_exptl_crystal_colour            colorless
_exptl_crystal_description       plate
_chemical_melting_point          '403-407 K'
_cell_formula_units_Z            4
loop_
_atom_site_label
_atom_site_type_symbol
_atom_site_fract_x
_atom_site_fract_y
_atom_site_fract_z
Cl1 Cl 0.22015(11) 0.40280(8) 0.17040(6)
O1 O 0.1471(3) 0.75065(19) 0.20202(18)
O2 O 0.2492(2) 0.60774(16) 0.29232(13)
O3 O 0.2417(3) 0.50720(19) 0.43575(12)
O4 O 0.4781(4) 0.27548(19) 0.3315(2)
C1 C 0.1165(4) 0.6712(3) 0.2540(2)
C2 C -0.0527(4) 0.6236(3) 0.2868(2)
H1 H -0.164 0.6523 0.2723
C3 C -0.0202(4) 0.5340(2) 0.3399(2)
H2 H -0.1055 0.4906 0.3712
C4 C 0.1741(3) 0.5115(2) 0.3429(2)
C5 C 0.2368(3) 0.4016(2) 0.29662(18)
H3 H 0.1648 0.3387 0.3214
C6 C 0.4220(3) 0.3896(2) 0.3359(2)
H4 H 0.5042 0.4395 0.3016
C7 C 0.3941(4) 0.4311(3) 0.4399(2)
H5 H 0.3631 0.3653 0.4798
C8 C 0.5478(3) 0.4907(3) 0.4852(2)
C9 C 0.5735(4) 0.6062(3) 0.4730(2)
H6 H 0.496 0.6473 0.4346
C10 C 0.7128(4) 0.6618(3) 0.5171(2)
H7 H 0.7265 0.74 0.5095
C11 C 0.8299(4) 0.6018(4) 0.5718(2)
H8 H 0.9232 0.6392 0.6018
C12 C 0.8097(4) 0.4856(4) 0.5825(2)
H9 H 0.8912 0.4442 0.6183
C13 C 0.6686(4) 0.4309(3) 0.5402(2)
H10 H 0.6544 0.3528 0.5487
H11 H 0.574(5) 0.273(3) 0.329(3)
loop_
_geom_bond_atom_site_label_1
_geom_bond_atom_site_label_2
_geom_bond_site_symmetry_1
_geom_bond_site_symmetry_2
Cl1 C5 1_555 1_555
O1 C1 1_555 1_555
O2 C1 1_555 1_555
O3 C4 1_555 1_555
O4 C6 1_555 1_555
C1 C2 1_555 1_555
C2 H1 1_555 1_555
C3 C2 1_555 1_555
H2 C3 1_555 1_555
C4 O2 1_555 1_555
C5 C4 1_555 1_555
H3 C5 1_555 1_555
C6 C5 1_555 1_555
H4 C6 1_555 1_555
C7 O3 1_555 1_555
H5 C7 1_555 1_555
C8 C7 1_555 1_555
C9 C8 1_555 1_555
H6 C9 1_555 1_555
C10 C9 1_555 1_555
H7 C10 1_555 1_555
C11 C10 1_555 1_555
H8 C11 1_555 1_555
C12 C11 1_555 1_555
H9 C12 1_555 1_555
C13 C8 1_555 1_555
H10 C13 1_555 1_555
H11 O4 1_555 1_555
C3 C4 1_555 1_555
C6 C7 1_555 1_555
C12 C13 1_555 1_555

#END
