
#######################################################################
#
#                 Cambridge Crystallographic Data Centre
#                                CCDC 
#
#######################################################################
#
# If this CIF has been generated from an entry in the Cambridge 
# Structural Database, then it will include bibliographic, chemical, 
# crystal, experimental, refinement or atomic coordinate data resulting 
# from the CCDC's data processing and validation procedures.
#
#######################################################################

data_PACHUX
_chemical_formula_moiety         'C42 H70 O35,1.5(C12 H8 N2),9.25(H2 O1)'
_chemical_name_systematic        
'bis(\b-Cyclodextrin) tris(1,10-phenanthroline) clathrate hydrate'
_symmetry_cell_setting           monoclinic
_symmetry_space_group_name_H-M   'C 2'
_symmetry_Int_Tables_number      5
_space_group_name_Hall           'C 2y'
loop_
_symmetry_equiv_pos_site_id
_symmetry_equiv_pos_as_xyz
1 x,y,z
2 -x,y,-z
3 1/2+x,1/2+y,z
4 1/2-x,1/2+y,-z
_cell_length_a                   19.68(2)
_cell_length_b                   24.18(3)
_cell_length_c                   17.794(19)
_cell_angle_alpha                90
_cell_angle_beta                 115.38(2)
_cell_angle_gamma                90
_cell_volume                     7650.25
_exptl_crystal_colour            colorless
_cell_formula_units_Z            4
_exptl_crystal_recrystallization_method 'aqueous ethanol'
loop_
_atom_site_label
_atom_site_type_symbol
_atom_site_fract_x
_atom_site_fract_y
_atom_site_fract_z
O1 O 0.3048(5) 0.9079(4) 0.2791(7)
O2 O 0.3324(6) 0.8580(4) 0.1578(8)
H1 H 0.3160 0.8891 0.1585
O3 O 0.2403(6) 0.7651(4) 0.1317(7)
H2 H 0.2356 0.7332 0.1444
O4 O 0.3567(8) 0.7313(7) 0.4426(11)
H3 H 0.3974 0.7452 0.4513
O5 O 0.3534(6) 0.8326(4) 0.3656(7)
O6 O 0.1843(4) 0.7490(4) 0.2530(6)
O7 O 0.1444(6) 0.6698(4) 0.1336(7)
H4 H 0.1717 0.6967 0.1402
O8 O -0.0098(5) 0.6662(4) 0.0992(6)
H5 H -0.0513 0.6810 0.0815
O9 O 0.1102(7) 0.7555(6) 0.4495(6)
H6 H 0.1524 0.7438 0.4599
O10 O 0.1464(5) 0.6935(4) 0.3329(6)
O11 O -0.0466(4) 0.7367(4) 0.2049(5)
O12 O -0.1559(4) 0.7065(4) 0.0490(5)
H7 H -0.1938 0.7002 0.0062
O13 O -0.2465(5) 0.8035(4) 0.0207(5)
H8 H -0.2305 0.8067 -0.0147
O14 O -0.2422(5) 0.7924(4) 0.3050(7)
H9 H -0.2665 0.8175 0.3130
O15 O -0.1385(5) 0.7380(4) 0.2560(6)
O16 O -0.2028(4) 0.8738(4) 0.1593(6)
O17 O -0.3234(6) 0.9067(5) 0.0129(6)
H10 H -0.3083 0.8748 0.0247
O18 O -0.2788(7) 1.0192(4) 0.0163(6)
H11 H -0.3046 1.0424 0.0257
O19 O -0.2273(9) 1.0410(6) 0.3203(8)
H12 H -0.2671 1.0281 0.2859
O20 O -0.2404(5) 0.9371(4) 0.2343(6)
O21 O -0.1693(4) 1.0582(3) 0.1660(5)
O22 O -0.2309(4) 1.1289(4) 0.0323(6)
H13 H -0.2450 1.1547 -0.0007
O23 O -0.0933(5) 1.1799(4) 0.0558(6)
H14 H -0.0703 1.2084 0.0765
O24 O -0.0384(14) 1.2179(9) 0.3513(13)
H15 H -0.0341 1.2277 0.3972
O26 O -0.1337(5) 1.1347(4) 0.2561(6)
O27 O 0.0306(4) 1.1572(3) 0.2136(5)
O28 O 0.0534(4) 1.2109(4) 0.0860(6)
H17 H 0.0202 1.1879 0.0774
O29 O 0.1844(5) 1.1494(4) 0.1149(6)
H18 H 0.1647 1.1252 0.0799
O30 O 0.2944(6) 1.2027(5) 0.4094(6)
H19 H 0.3313 1.2032 0.4545
O31 O 0.1373(5) 1.2002(4) 0.3087(5)
O32 O 0.2408(5) 1.0878(3) 0.2654(6)
O33 O 0.3200(10) 1.0869(5) 0.1680(13)
H20 H 0.3230 1.1197 0.1804
O34 O 0.337(2) 0.9708(7) 0.163(3)
H21 H 0.3417 0.9951 0.1333
O35 O 0.3387(8) 1.0467(5) 0.3729(8)
O36 O 0.4298(16) 0.9624(15) 0.4721(15)
H22 H 0.4586 0.9646 0.5216
C1 C 0.3513(10) 0.8629(8) 0.2958(11)
H23 H 0.4023 0.8768 0.3107
C2 C 0.3317(8) 0.8272(6) 0.2237(10)
H24 H 0.3703 0.7985 0.2378
C3 C 0.2588(7) 0.8000(6) 0.2018(9)
H25 H 0.2202 0.8288 0.1867
C4 C 0.2589(7) 0.7684(6) 0.2755(8)
H26 H 0.2931 0.7368 0.2876
C5 C 0.2841(7) 0.8047(6) 0.3500(9)
H27 H 0.2450 0.8323 0.3418
C6 C 0.3017(10) 0.7745(9) 0.4282(12)
H28 H 0.3207 0.8003 0.4743
H29 H 0.2558 0.7583 0.4263
C7 C 0.1749(8) 0.6949(6) 0.2716(9)
H30 H 0.2224 0.6745 0.2906
C8 C 0.1172(8) 0.6696(7) 0.1957(10)
H31 H 0.1114 0.6309 0.2085
C9 C 0.0408(6) 0.6967(6) 0.1637(7)
H32 H 0.0440 0.7340 0.1438
C10 C 0.0173(7) 0.7008(6) 0.2335(7)
H33 H 0.0035 0.6642 0.2460
C11 C 0.0780(7) 0.7258(6) 0.3109(9)
H34 H 0.0876 0.7636 0.2981
C12 C 0.0587(10) 0.7278(9) 0.3834(9)
H35 H 0.0101 0.7455 0.3663
H36 H 0.0544 0.6903 0.4003
C13 C -0.1176(6) 0.7155(6) 0.1950(7)
H37 H -0.1143 0.6752 0.2007
C14 C -0.1765(6) 0.7304(5) 0.1084(8)
H38 H -0.2246 0.7143 0.1012
C15 C -0.1859(7) 0.7911(5) 0.0989(9)
H39 H -0.1396 0.8076 0.1011
C16 C -0.2026(7) 0.8155(5) 0.1673(7)
H40 H -0.2526 0.8034 0.1597
C17 C -0.1459(6) 0.7974(6) 0.2513(7)
H41 H -0.0971 0.8142 0.2631
C18 C -0.1690(8) 0.8124(6) 0.3198(8)
H42 H -0.1324 0.7973 0.3720
H43 H -0.1683 0.8523 0.3254
C19 C -0.2652(6) 0.9039(6) 0.1640(10)
H44 H -0.3034 0.8779 0.1642
C20 C -0.2972(6) 0.9388(6) 0.0861(8)
H45 H -0.3415 0.9575 0.0860
C21 C -0.2449(7) 0.9833(5) 0.0869(7)
H46 H -0.1997 0.9665 0.0866
C22 C -0.2232(7) 1.0167(5) 0.1651(8)
H47 H -0.2678 1.0349 0.1649
C23 C -0.1891(7) 0.9787(6) 0.2391(9)
H48 H -0.1439 0.9615 0.2394
C24 C -0.1677(11) 1.0095(8) 0.3219(10)
H49 H -0.1530 0.9829 0.3669
H50 H -0.1250 1.0334 0.3323
C25 C -0.1844(7) 1.1131(6) 0.1780(8)
H51 H -0.2356 1.1154 0.1738
C26 C -0.1795(7) 1.1484(6) 0.1109(8)
H52 H -0.1922 1.1867 0.1179
C27 C -0.0981(7) 1.1463(5) 0.1193(8)
H53 H -0.0850 1.1080 0.1129
C28 C -0.0464(7) 1.1671(6) 0.2026(8)
H54 H -0.0548 1.2066 0.2076
C29 C -0.0561(7) 1.1342(6) 0.2703(8)
H55 H -0.0409 1.0959 0.2682
C30 C -0.0127(8) 1.1557(8) 0.3557(10)
C31 C 0.0799(7) 1.2031(6) 0.2319(8)
H56 H 0.0513 1.2371 0.2276
C32 C 0.1094(6) 1.2039(6) 0.1654(8)
H57 H 0.1454 1.2345 0.1775
C33 C 0.1513(8) 1.1495(6) 0.1728(7)
H58 H 0.1164 1.1184 0.1613
C34 C 0.2144(7) 1.1440(6) 0.2597(8)
H59 H 0.2550 1.1702 0.2678
C35 C 0.1869(7) 1.1515(6) 0.3260(8)
H60 H 0.1574 1.1187 0.3256
C36 C 0.2441(9) 1.1589(7) 0.4091(9)
H61 H 0.2722 1.1248 0.4288
H62 H 0.2212 1.1684 0.4460
C37 C 0.3186(10) 1.0787(8) 0.3042(11)
H63 H 0.3432 1.1147 0.3220
C38 C 0.3432(12) 1.0551(8) 0.2395(19)
H64 H 0.3983 1.0535 0.2649
C39 C 0.3131(13) 0.9952(7) 0.2212(15)
H65 H 0.2581 0.9969 0.1950
C40 C 0.3374(10) 0.9604(8) 0.3002(11)
H66 H 0.3923 0.9576 0.3285
C41 C 0.3075(11) 0.9895(7) 0.3545(10)
H67 H 0.2524 0.9897 0.3292
C42 C 0.3472(16) 0.9616(13) 0.462(3)
H68 H 0.3392 0.9859 0.5009
H69 H 0.3293 0.9246 0.4650
N1 N 0.0590(6) 0.8694(8) 0.2823(14)
N2 N 0.1734(13) 0.8662(10) 0.4466(16)
C43 C 0.0095(16) 0.8704(11) 0.211(2)
C44 C -0.0205(16) 0.9198(14) 0.1718(18)
C45 C 0.0024(16) 0.9689(13) 0.2069(18)
C46 C 0.0654(10) 0.9667(9) 0.2850(10)
C47 C 0.0916(12) 1.0165(7) 0.3262(13)
C48 C 0.1459(12) 1.0166(7) 0.4081(13)
C49 C 0.1740(10) 0.9669(8) 0.4489(9)
C50 C 0.1477(10) 0.9171(7) 0.4077(11)
C51 C 0.0934(10) 0.9169(7) 0.3258(11)
C52 C 0.2294(17) 0.9597(15) 0.5348(19)
H70 H 0.2500 0.9914 0.5658
C53 C 0.2509(18) 0.9150(15) 0.569(2)
H71 H 0.2863 0.9136 0.6245
C54 C 0.2224(17) 0.8673(14) 0.5261(19)
H72 H 0.2382 0.8338 0.5538
O37 O 0.6403(7) 0.6207(6) 0.5461(8)
O38 O 0.9130(9) 0.5734(7) 0.9530(10)
O39 O 0.0621(14) 0.5607(8) 0.8721(13)
O40 O 0.8705(10) 0.3494(8) 0.7223(15)
O41 O 0.5650(14) 0.8069(9) 0.8794(19)
O43 O 0.5297(17) 0.0567(18) 0.441(2)
O44 O 0.9040(16) 0.2969(12) 0.9811(19)
O46 O 0.5282(13) 0.8834(14) 0.4594(16)
O48 O 0.663(4) 0.964(4) 0.336(5)
O49 O 0.9483(14) 0.3144(15) 0.6309(17)
O50 O 0.0286(16) 0.4515(14) 0.921(2)
O25? O -0.0081(12) 1.1109(9) 0.4233(13)
H16? H 0.0068 1.1257 0.4691
C55? C 0.0000 0.9561(8) 0.5000
C56? C 0.0000 0.8564(8) 0.5000
C57? C -0.0119(3) 0.9064(8) 0.5322(7)
C58? C 0.0552(6) 1.0114(5) 0.3511(8)
C59? C 0.0320(4) 1.0066(7) 0.4144(7)
C60? C 0.0219(3) 0.9546(8) 0.4413(4)
C61? C 0.0352(4) 0.9074(6) 0.4050(4)
C62? C 0.0585(5) 0.9122(5) 0.3418(5)
C63? C 0.0685(6) 0.9642(5) 0.3148(6)
C64? C 0.0918(8) 0.9690(8) 0.2516(8)
C65? C 0.1051(9) 0.9219(10) 0.2153(8)
C66? C 0.0950(8) 0.8698(8) 0.2422(8)
N3? N 0.0718(7) 0.8650(6) 0.3055(8)
N4? N 0.0256(13) 0.8574(7) 0.4385(12)
C67? C 1.0000 0.7825(10) 1.0000
C68? C 0.9365(10) 0.8117(9) 0.9861(7)
N5? N 0.9335(8) 0.8684(6) 0.9841(4)
C69? C 0.8696(16) 0.8990(14) 0.9703(11)
C70? C 0.8729(15) 0.9504(13) 0.9696(9)
N6? N 0.9322(9) 0.9861(7) 0.9810(9)
C71? C 0.9314(10) 1.0407(8) 0.9814(11)
C72? C 1.0000 1.0657(10) 1.0000
C73? C 1.0000 0.9560(8) 1.0000
C74? C 1.0000 0.8979(8) 1.0000
C75? C 0.9335(8) 0.8684(6) 0.9841(4)
C76? C 0.9322(9) 0.9861(7) 0.9810(9)
O42? O 1.0001(19) 0.2811(10) 0.5366(18)
O45? O 0.9222(16) 0.3254(15) 0.930(2)
O47? O 0.9434(19) 0.363(2) 0.865(3)
loop_
_geom_bond_atom_site_label_1
_geom_bond_atom_site_label_2
_geom_bond_site_symmetry_1
_geom_bond_site_symmetry_2
O1 C1 1_555 1_555
O2 H1 1_555 1_555
O3 H2 1_555 1_555
O4 H3 1_555 1_555
O5 C1 1_555 1_555
O6 C4 1_555 1_555
O7 H4 1_555 1_555
O8 H5 1_555 1_555
O9 H6 1_555 1_555
O10 C7 1_555 1_555
O11 C10 1_555 1_555
O12 H7 1_555 1_555
O13 H8 1_555 1_555
O14 H9 1_555 1_555
O15 C13 1_555 1_555
O16 C16 1_555 1_555
O17 H10 1_555 1_555
O18 H11 1_555 1_555
O19 H12 1_555 1_555
O20 C19 1_555 1_555
O21 C22 1_555 1_555
O22 H13 1_555 1_555
O23 H14 1_555 1_555
O24 H15 1_555 1_555
O26 C25 1_555 1_555
O27 C28 1_555 1_555
O28 H17 1_555 1_555
O29 H18 1_555 1_555
O30 H19 1_555 1_555
O31 C31 1_555 1_555
O32 C34 1_555 1_555
O33 H20 1_555 1_555
O34 H21 1_555 1_555
O35 C37 1_555 1_555
O36 H22 1_555 1_555
C1 H23 1_555 1_555
C2 O2 1_555 1_555
H24 C2 1_555 1_555
C3 O3 1_555 1_555
H25 C3 1_555 1_555
C4 C3 1_555 1_555
H26 C4 1_555 1_555
C5 O5 1_555 1_555
H27 C5 1_555 1_555
C6 O4 1_555 1_555
H28 C6 1_555 1_555
H29 C6 1_555 1_555
C7 O6 1_555 1_555
H30 C7 1_555 1_555
C8 O7 1_555 1_555
H31 C8 1_555 1_555
C9 O8 1_555 1_555
H32 C9 1_555 1_555
C10 C9 1_555 1_555
H33 C10 1_555 1_555
C11 O10 1_555 1_555
H34 C11 1_555 1_555
C12 O9 1_555 1_555
H35 C12 1_555 1_555
H36 C12 1_555 1_555
C13 O11 1_555 1_555
H37 C13 1_555 1_555
C14 O12 1_555 1_555
H38 C14 1_555 1_555
C15 O13 1_555 1_555
H39 C15 1_555 1_555
C16 C15 1_555 1_555
H40 C16 1_555 1_555
C17 O15 1_555 1_555
H41 C17 1_555 1_555
C18 O14 1_555 1_555
H42 C18 1_555 1_555
H43 C18 1_555 1_555
C19 O16 1_555 1_555
H44 C19 1_555 1_555
C20 O17 1_555 1_555
H45 C20 1_555 1_555
C21 O18 1_555 1_555
H46 C21 1_555 1_555
C22 C21 1_555 1_555
H47 C22 1_555 1_555
C23 O20 1_555 1_555
H48 C23 1_555 1_555
C24 O19 1_555 1_555
H49 C24 1_555 1_555
H50 C24 1_555 1_555
C25 O21 1_555 1_555
H51 C25 1_555 1_555
C26 O22 1_555 1_555
H52 C26 1_555 1_555
C27 O23 1_555 1_555
H53 C27 1_555 1_555
C28 C27 1_555 1_555
H54 C28 1_555 1_555
C29 O26 1_555 1_555
H55 C29 1_555 1_555
C30 O24 1_555 1_555
C31 O27 1_555 1_555
H56 C31 1_555 1_555
C32 O28 1_555 1_555
H57 C32 1_555 1_555
C33 O29 1_555 1_555
H58 C33 1_555 1_555
C34 C33 1_555 1_555
H59 C34 1_555 1_555
C35 O31 1_555 1_555
H60 C35 1_555 1_555
C36 O30 1_555 1_555
H61 C36 1_555 1_555
H62 C36 1_555 1_555
C37 O32 1_555 1_555
H63 C37 1_555 1_555
C38 O33 1_555 1_555
H64 C38 1_555 1_555
C39 O34 1_555 1_555
H65 C39 1_555 1_555
C40 O1 1_555 1_555
H66 C40 1_555 1_555
C41 O35 1_555 1_555
H67 C41 1_555 1_555
C42 O36 1_555 1_555
H68 C42 1_555 1_555
H69 C42 1_555 1_555
N1 C43 1_555 1_555
N2 C50 1_555 1_555
C43 C44 1_555 1_555
C44 C45 1_555 1_555
C45 C46 1_555 1_555
C46 C47 1_555 1_555
C47 C48 1_555 1_555
C48 C49 1_555 1_555
C49 C50 1_555 1_555
C50 C51 1_555 1_555
C51 N1 1_555 1_555
C52 C49 1_555 1_555
H70 C52 1_555 1_555
C53 C52 1_555 1_555
H71 C53 1_555 1_555
C54 N2 1_555 1_555
H72 C54 1_555 1_555
C1 C2 1_555 1_555
C2 C3 1_555 1_555
C4 C5 1_555 1_555
C5 C6 1_555 1_555
C7 C8 1_555 1_555
C8 C9 1_555 1_555
C10 C11 1_555 1_555
C11 C12 1_555 1_555
C13 C14 1_555 1_555
C14 C15 1_555 1_555
C16 C17 1_555 1_555
C17 C18 1_555 1_555
C19 C20 1_555 1_555
C20 C21 1_555 1_555
C22 C23 1_555 1_555
C23 C24 1_555 1_555
C25 C26 1_555 1_555
C26 C27 1_555 1_555
C28 C29 1_555 1_555
C29 C30 1_555 1_555
C31 C32 1_555 1_555
C32 C33 1_555 1_555
C34 C35 1_555 1_555
C35 C36 1_555 1_555
C37 C38 1_555 1_555
C38 C39 1_555 1_555
C39 C40 1_555 1_555
C40 C41 1_555 1_555
C41 C42 1_555 1_555
C46 C51 1_555 1_555
C53 C54 1_555 1_555

#END
