
#######################################################################
#
#                 Cambridge Crystallographic Data Centre
#                                CCDC 
#
#######################################################################
#
# If this CIF has been generated from an entry in the Cambridge 
# Structural Database, then it will include bibliographic, chemical, 
# crystal, experimental, refinement or atomic coordinate data resulting 
# from the CCDC's data processing and validation procedures.
#
#######################################################################

data_PACKAF
_chemical_formula_moiety         'C20 H31 N1 O8 Si1'
_chemical_name_systematic        
3-Acetoxy-5-ethylenedioxy-2-(2-(methoxy)ethoxymethoxy)-3-trimethylsilylethynyl-8-oxa-7-azabicyclo(4.3.0)non-6-ene
_symmetry_cell_setting           monoclinic
_symmetry_space_group_name_H-M   'P 21/n'
_symmetry_Int_Tables_number      14
_space_group_name_Hall           '-P 2yn'
loop_
_symmetry_equiv_pos_site_id
_symmetry_equiv_pos_as_xyz
1 x,y,z
2 1/2-x,1/2+y,1/2-z
3 -x,-y,-z
4 1/2+x,1/2-y,1/2+z
_cell_length_a                   8.917(3)
_cell_length_b                   24.626(9)
_cell_length_c                   10.885(6)
_cell_angle_alpha                90
_cell_angle_beta                 101.70(4)
_cell_angle_gamma                90
_cell_volume                     2340.58
_exptl_crystal_colour            colorless
_cell_formula_units_Z            4
loop_
_atom_site_label
_atom_site_type_symbol
_atom_site_fract_x
_atom_site_fract_y
_atom_site_fract_z
Si1 Si 0.0480(1) 0.1001(1) 0.1712(1)
O1 O 0.3322(3) 0.1772(1) 0.8342(3)
O2 O 0.5536(3) 0.1961(1) 0.7720(3)
O3 O 0.6319(4) 0.0349(2) 0.8809(5)
O4 O 0.2144(3) 0.0124(1) 0.5909(3)
O5 O 0.3384(4) -0.0630(1) 0.5296(3)
O6 O 0.3876(9) -0.1750(3) 0.5768(8)
O7 O 0.1193(3) 0.1101(1) 0.6586(2)
O8 O 0.0278(4) 0.1915(1) 0.5883(3)
N1 N 0.6203(5) 0.0918(2) 0.8613(5)
C1 C 0.4334(5) 0.1586(2) 0.7582(4)
C2 C 0.4874(5) 0.1024(2) 0.7994(3)
C3 C 0.3871(4) 0.0543(2) 0.7633(3)
C4 C 0.3203(4) 0.0555(2) 0.6216(3)
C5 C 0.2401(4) 0.1100(2) 0.5869(3)
C6 C 0.3531(4) 0.1568(2) 0.6211(3)
C7 C 0.4243(7) 0.2058(3) 0.9341(5)
C8 C 0.5557(6) 0.2267(2) 0.8839(4)
C9 C 0.4997(5) 0.0088(2) 0.8087(5)
C10 C 0.2336(6) -0.0215(2) 0.4905(4)
C11 C 0.2889(6) -0.0999(2) 0.6149(5)
C12 C 0.4426(12) -0.1471(3) 0.6600(7)
C13 C 0.5141(13) -0.2206(3) 0.6384(11)
C14 C 0.1738(4) 0.1105(2) 0.4508(3)
C15 C 0.1274(5) 0.1078(2) 0.3401(4)
C16 C -0.0913(7) 0.1547(3) 0.1215(5)
C17 C -0.0426(7) 0.0323(2) 0.1505(5)
C18 C 0.2036(6) 0.1041(3) 0.0840(5)
C19 C 0.0230(5) 0.1525(2) 0.6528(4)
C20 C -0.0866(5) 0.1435(2) 0.7364(5)
H1 H 0.2969 0.0514 0.7983
H2 H 0.4007 0.0513 0.5756
H3 H 0.2982 0.1903 0.6014
H4 H 0.4299 0.1536 0.5711
H5 H 0.3679 0.2353 0.9604
H6 H 0.4592 0.1819 1.0038
H7 H 0.6500 0.2209 0.9430
H8 H 0.5435 0.2647 0.8652
H9 H 0.5257 -0.0102 0.7388
H10 H 0.4571 -0.0163 0.8598
H11 H 0.2694 0.0001 0.4289
H12 H 0.1365 -0.0374 0.4537
H13 H 0.2695 -0.0809 0.6870
H14 H 0.1976 -0.1185 0.5743
H15 H 0.4479 -0.1630 0.7413
H16 H 0.5413 -0.1330 0.6543
H17 H 0.4999 -0.2528 0.5873
H18 H 0.5012 -0.2294 0.7215
H19 H 0.6154 -0.2066 0.6420
H20 H -0.1336 0.1511 0.0335
H21 H -0.0411 0.1892 0.1373
H22 H -0.1719 0.1522 0.1678
H23 H -0.0858 0.0265 0.0633
H24 H -0.1221 0.0303 0.1980
H25 H 0.0331 0.0049 0.1793
H26 H 0.1623 0.1000 -0.0040
H27 H 0.2762 0.0756 0.1115
H28 H 0.2536 0.1386 0.0991
H29 H -0.1544 0.1741 0.7313
H30 H -0.0313 0.1394 0.8213
H31 H -0.1450 0.1112 0.7109
loop_
_geom_bond_atom_site_label_1
_geom_bond_atom_site_label_2
_geom_bond_site_symmetry_1
_geom_bond_site_symmetry_2
Si1 C15 1_555 1_555
O1 C1 1_555 1_555
O2 C1 1_555 1_555
O3 N1 1_555 1_555
O4 C4 1_555 1_555
O5 C10 1_555 1_555
O6 C12 1_555 1_555
O7 C5 1_555 1_555
O8 C19 1_555 1_555
N1 C2 1_555 1_555
C1 C2 1_555 1_555
C2 C3 1_555 1_555
C3 C4 1_555 1_555
C4 C5 1_555 1_555
C5 C6 1_555 1_555
C6 C1 1_555 1_555
C7 O1 1_555 1_555
C8 O2 1_555 1_555
C9 O3 1_555 1_555
C10 O4 1_555 1_555
C11 O5 1_555 1_555
C12 C11 1_555 1_555
C13 O6 1_555 1_555
C14 C5 1_555 1_555
C15 C14 1_555 1_555
C16 Si1 1_555 1_555
C17 Si1 1_555 1_555
C18 Si1 1_555 1_555
C19 O7 1_555 1_555
C20 C19 1_555 1_555
H1 C3 1_555 1_555
H2 C4 1_555 1_555
H3 C6 1_555 1_555
H4 C6 1_555 1_555
H5 C7 1_555 1_555
H6 C7 1_555 1_555
H7 C8 1_555 1_555
H8 C8 1_555 1_555
H9 C9 1_555 1_555
H10 C9 1_555 1_555
H11 C10 1_555 1_555
H12 C10 1_555 1_555
H13 C11 1_555 1_555
H14 C11 1_555 1_555
H15 C12 1_555 1_555
H16 C12 1_555 1_555
H17 C13 1_555 1_555
H18 C13 1_555 1_555
H19 C13 1_555 1_555
H20 C16 1_555 1_555
H21 C16 1_555 1_555
H22 C16 1_555 1_555
H23 C17 1_555 1_555
H24 C17 1_555 1_555
H25 C17 1_555 1_555
H26 C18 1_555 1_555
H27 C18 1_555 1_555
H28 C18 1_555 1_555
H29 C20 1_555 1_555
H30 C20 1_555 1_555
H31 C20 1_555 1_555
C3 C9 1_555 1_555
C7 C8 1_555 1_555

#END
