
#######################################################################
#
#                 Cambridge Crystallographic Data Centre
#                                CCDC 
#
#######################################################################
#
# If this CIF has been generated from an entry in the Cambridge 
# Structural Database, then it will include bibliographic, chemical, 
# crystal, experimental, refinement or atomic coordinate data resulting 
# from the CCDC's data processing and validation procedures.
#
#######################################################################

data_PACWEX
_chemical_name_common            
"(6'S,10'S)-trans-7',8'-Dehydrozearalenol monohydrate"
_chemical_formula_moiety         'C18 H22 O5,H2 O1'
_chemical_name_systematic        
'7,14,16-Trihydroxy-3-methyl-3,4,7,8,9,10-hexahydro-1H-2-benzoxacyclotetradecin-1-one monohydrate'
_symmetry_cell_setting           orthorhombic
_symmetry_space_group_name_H-M   'P 21 21 21'
_symmetry_Int_Tables_number      19
_space_group_name_Hall           'P 2ac 2ab'
loop_
_symmetry_equiv_pos_site_id
_symmetry_equiv_pos_as_xyz
1 x,y,z
2 1/2-x,-y,1/2+z
3 -x,1/2+y,1/2-z
4 1/2+x,1/2-y,-z
_cell_length_a                   8.3124(3)
_cell_length_b                   9.5889(3)
_cell_length_c                   21.4172(6)
_cell_angle_alpha                90
_cell_angle_beta                 90
_cell_angle_gamma                90
_cell_volume                     1707.1
_exptl_crystal_colour            colorless
_exptl_crystal_description       plate
_cell_formula_units_Z            4
loop_
_atom_site_label
_atom_site_type_symbol
_atom_site_fract_x
_atom_site_fract_y
_atom_site_fract_z
O1 O 0.33190(14) 0.38686(11) 0.44523(4)
O2 O 0.19597(13) 0.57572(10) 0.41411(4)
O3 O 0.33214(16) 1.05653(11) 0.22435(5)
H1 H 0.3374 0.9965 0.1958
O4 O 0.25678(15) 0.67778(11) 0.70836(4)
H2 H 0.2355 0.7631 0.7116
O5 O 0.33231(14) 0.32491(10) 0.56061(5)
H3 H 0.3502 0.3126 0.5224
C1 C 0.26670(17) 0.49946(14) 0.45777(6)
C2 C 0.18001(18) 0.51441(14) 0.35122(5)
H4 H 0.2841 0.4713 0.3379
C3 C 0.13673(19) 0.63501(15) 0.30838(6)
H5 H 0.1102 0.5967 0.2667
H6 H 0.0385 0.6803 0.3248
C4 C 0.26431(19) 0.74467(15) 0.30048(6)
H7 H 0.3735 0.7156 0.2995
C5 C 0.23304(18) 0.87986(15) 0.29477(6)
H8 H 0.1240 0.9088 0.2977
C6 C 0.35822(18) 0.99002(14) 0.28406(6)
H9 H 0.4668 0.9451 0.2840
C7 C 0.3569(2) 1.10660(15) 0.33252(6)
H10 H 0.2522 1.1558 0.3307
H11 H 0.4423 1.1748 0.3223
C8 C 0.38369(18) 1.05146(16) 0.39909(6)
H12 H 0.4422 0.9617 0.3966
H13 H 0.4529 1.1182 0.4220
C9 C 0.22790(18) 1.02929(14) 0.43642(6)
H14 H 0.1916 1.1195 0.4540
H15 H 0.1426 0.9942 0.4082
C10 C 0.25401(18) 0.92687(15) 0.48839(6)
H16 H 0.3240 0.9520 0.5216
C11 C 0.18353(17) 0.80265(14) 0.48995(6)
H17 H 0.1055 0.7815 0.4590
C12 C 0.22051(16) 0.69526(14) 0.53764(6)
C13 C 0.22163(18) 0.73646(15) 0.59990(6)
H18 H 0.1976 0.8305 0.6103
C14 C 0.25771(17) 0.64112(15) 0.64744(6)
C15 C 0.29395(18) 0.50377(15) 0.63295(6)
H19 H 0.3169 0.4389 0.6653
C16 C 0.29645(16) 0.46170(14) 0.57105(6)
C17 C 0.25888(16) 0.55486(14) 0.52192(6)
C18 C 0.0481(2) 0.40550(16) 0.35272(7)
H20 H 0.0792 0.3298 0.3810
H21 H 0.0318 0.3680 0.3106
H22 H -0.0520 0.4482 0.3675
O6 O 0.36837(15) 0.88093(13) 0.12449(5)
H23 H 0.4571 0.8731 0.1047
H24 H 0.3094 0.8199 0.1075
loop_
_geom_bond_atom_site_label_1
_geom_bond_atom_site_label_2
_geom_bond_site_symmetry_1
_geom_bond_site_symmetry_2
O1 C1 1_555 1_555
O2 C1 1_555 1_555
O3 H1 1_555 1_555
O4 H2 1_555 1_555
O5 H3 1_555 1_555
C1 C17 1_555 1_555
C2 O2 1_555 1_555
H4 C2 1_555 1_555
C3 C2 1_555 1_555
H5 C3 1_555 1_555
H6 C3 1_555 1_555
C4 C3 1_555 1_555
H7 C4 1_555 1_555
C5 C4 1_555 1_555
H8 C5 1_555 1_555
C6 O3 1_555 1_555
H9 C6 1_555 1_555
C7 C6 1_555 1_555
H10 C7 1_555 1_555
H11 C7 1_555 1_555
C8 C7 1_555 1_555
H12 C8 1_555 1_555
H13 C8 1_555 1_555
C9 C8 1_555 1_555
H14 C9 1_555 1_555
H15 C9 1_555 1_555
C10 C9 1_555 1_555
H16 C10 1_555 1_555
C11 C10 1_555 1_555
H17 C11 1_555 1_555
C12 C11 1_555 1_555
C13 C12 1_555 1_555
H18 C13 1_555 1_555
C14 O4 1_555 1_555
C15 C14 1_555 1_555
H19 C15 1_555 1_555
C16 O5 1_555 1_555
C17 C12 1_555 1_555
C18 C2 1_555 1_555
H20 C18 1_555 1_555
H21 C18 1_555 1_555
H22 C18 1_555 1_555
O6 H23 1_555 1_555
H24 O6 1_555 1_555
C5 C6 1_555 1_555
C13 C14 1_555 1_555
C15 C16 1_555 1_555
C16 C17 1_555 1_555

#END
