
#######################################################################
#
#                 Cambridge Crystallographic Data Centre
#                                CCDC 
#
#######################################################################
#
# If this CIF has been generated from an entry in the Cambridge 
# Structural Database, then it will include bibliographic, chemical, 
# crystal, experimental, refinement or atomic coordinate data resulting 
# from the CCDC's data processing and validation procedures.
#
#######################################################################

data_PACXUO
_chemical_formula_moiety         'C20 H35 N1 O7'
_chemical_name_systematic        
'4-(2-Carboxyethyl)-4-(decanoylamino)heptanedioic acid'
_symmetry_cell_setting           monoclinic
_symmetry_space_group_name_H-M   'P 21/c'
_symmetry_Int_Tables_number      14
_space_group_name_Hall           '-P 2ybc'
loop_
_symmetry_equiv_pos_site_id
_symmetry_equiv_pos_as_xyz
1 x,y,z
2 -x,1/2+y,1/2-z
3 -x,-y,-z
4 x,1/2-y,1/2+z
_cell_length_a                   25.654(7)
_cell_length_b                   5.4720(8)
_cell_length_c                   15.649(2)
_cell_angle_alpha                90
_cell_angle_beta                 100.176(16)
_cell_angle_gamma                90
_cell_volume                     2162.23
_exptl_crystal_colour            colorless
_exptl_crystal_description       needle
_cell_formula_units_Z            4
loop_
_atom_site_label
_atom_site_type_symbol
_atom_site_fract_x
_atom_site_fract_y
_atom_site_fract_z
N1 N 0.21757(8) 0.7974(4) 0.54330(14)
H1 H 0.2180 0.6375 0.5374
O1 O 0.26296(7) 1.1216(3) 0.60770(12)
O2 O 0.24178(8) 1.0912(3) 0.23507(12)
H2 H 0.2508 1.2030 0.2040
O3 O 0.22131(8) 1.4065(4) 0.31379(12)
O4 O -0.00106(7) 0.7037(4) 0.31946(12)
H3 H -0.0264 0.6053 0.3176
O5 O 0.03829(7) 0.4402(3) 0.42066(12)
O6 O 0.04521(7) 0.8425(3) 0.58315(12)
H4 H 0.0201 0.7432 0.5815
O7 O 0.08580(7) 0.5767(4) 0.68237(12)
C1 C 0.26111(11) 0.9004(5) 0.58989(17)
C2 C 0.16869(10) 0.9259(5) 0.50064(17)
C3 C 0.18297(11) 1.1074(5) 0.43383(17)
H5 H 0.1505 1.1976 0.4082
H6 H 0.2083 1.2278 0.4647
C4 C 0.20693(11) 0.9971(5) 0.36017(17)
H7 H 0.2381 0.8968 0.3849
H8 H 0.1806 0.8884 0.3251
C5 C 0.22352(10) 1.1903(5) 0.30279(17)
C6 C 0.13180(11) 0.7241(5) 0.45663(17)
H9 H 0.1517 0.6217 0.4213
H10 H 0.1214 0.6184 0.5022
C7 C 0.08167(10) 0.8177(5) 0.39844(17)
H11 H 0.0687 0.9626 0.4262
H12 H 0.0908 0.8708 0.3424
C8 C 0.03849(11) 0.6355(5) 0.38106(18)
C9 C 0.14370(11) 1.0696(5) 0.56846(17)
H13 H 0.1670 1.2099 0.5887
H14 H 0.1093 1.1367 0.5391
C10 C 0.13422(10) 0.9255(5) 0.64825(18)
H15 H 0.1659 0.8234 0.6681
H16 H 0.1317 1.0441 0.6951
C11 C 0.08673(11) 0.7632(5) 0.63854(18)
C12 C 0.30874(11) 0.7363(5) 0.61556(18)
H17 H 0.3314 0.7466 0.5707
H18 H 0.2966 0.5651 0.6177
C13 C 0.34152(11) 0.8043(5) 0.70353(18)
H19 H 0.3498 0.9810 0.7037
H20 H 0.3201 0.7747 0.7492
C14 C 0.39295(11) 0.6617(5) 0.72557(19)
H21 H 0.4126 0.6739 0.6767
H22 H 0.3848 0.4871 0.7334
C15 C 0.42777(11) 0.7575(6) 0.80831(19)
H23 H 0.4328 0.9354 0.8016
H24 H 0.4085 0.7345 0.8572
C16 C 0.48223(11) 0.6389(6) 0.8326(2)
H25 H 0.5015 0.6540 0.7833
H26 H 0.4779 0.4628 0.8440
C17 C 0.51449(11) 0.7595(6) 0.91298(19)
H27 H 0.5174 0.9363 0.9011
H28 H 0.4947 0.7428 0.9615
C18 C 0.56993(11) 0.6587(6) 0.94236(19)
H29 H 0.5904 0.6751 0.8946
H30 H 0.5677 0.4828 0.9559
C19 C 0.59878(11) 0.7931(6) 1.0223(2)
H31 H 0.6005 0.9688 1.0080
H32 H 0.5776 0.7781 1.0692
C20 C 0.65475(12) 0.7029(7) 1.0568(2)
H33 H 0.6699 0.7966 1.1086
H34 H 0.6767 0.7248 1.0121
H35 H 0.6536 0.5293 1.0717
loop_
_geom_bond_atom_site_label_1
_geom_bond_atom_site_label_2
_geom_bond_site_symmetry_1
_geom_bond_site_symmetry_2
N1 H1 1_555 1_555
O1 C1 1_555 1_555
O2 H2 1_555 1_555
O3 C5 1_555 1_555
O4 H3 1_555 1_555
O5 C8 1_555 1_555
O6 H4 1_555 1_555
O7 C11 1_555 1_555
C1 N1 1_555 1_555
C2 N1 1_555 1_555
C3 C2 1_555 1_555
H5 C3 1_555 1_555
H6 C3 1_555 1_555
C4 C3 1_555 1_555
H7 C4 1_555 1_555
H8 C4 1_555 1_555
C5 O2 1_555 1_555
C6 C2 1_555 1_555
H9 C6 1_555 1_555
H10 C6 1_555 1_555
C7 C6 1_555 1_555
H11 C7 1_555 1_555
H12 C7 1_555 1_555
C8 O4 1_555 1_555
C9 C2 1_555 1_555
H13 C9 1_555 1_555
H14 C9 1_555 1_555
C10 C9 1_555 1_555
H15 C10 1_555 1_555
H16 C10 1_555 1_555
C11 O6 1_555 1_555
C12 C1 1_555 1_555
H17 C12 1_555 1_555
H18 C12 1_555 1_555
C13 C12 1_555 1_555
H19 C13 1_555 1_555
H20 C13 1_555 1_555
C14 C13 1_555 1_555
H21 C14 1_555 1_555
H22 C14 1_555 1_555
C15 C14 1_555 1_555
H23 C15 1_555 1_555
H24 C15 1_555 1_555
C16 C15 1_555 1_555
H25 C16 1_555 1_555
H26 C16 1_555 1_555
C17 C16 1_555 1_555
H27 C17 1_555 1_555
H28 C17 1_555 1_555
C18 C17 1_555 1_555
H29 C18 1_555 1_555
H30 C18 1_555 1_555
C19 C18 1_555 1_555
H31 C19 1_555 1_555
H32 C19 1_555 1_555
C20 C19 1_555 1_555
H33 C20 1_555 1_555
H34 C20 1_555 1_555
H35 C20 1_555 1_555
C4 C5 1_555 1_555
C7 C8 1_555 1_555
C10 C11 1_555 1_555

#END
